17396170
  -OEChem-06241222553D

 45 47  0     0  0  0  0  0  0999 V2000
    2.1897   -3.1980   -0.2732 S   0  0  0  0  0  0  0  0  0  0  0  0
   -5.2145    2.0526   -0.5832 O   0  0  0  0  0  0  0  0  0  0  0  0
    7.3085    1.7860   -0.0015 O   0  0  0  0  0  0  0  0  0  0  0  0
    3.1329    1.3134    0.1953 O   0  0  0  0  0  0  0  0  0  0  0  0
   -5.2620   -0.1039    0.3389 N   0  0  0  0  0  0  0  0  0  0  0  0
    1.1593   -0.8460    0.0249 N   0  0  0  0  0  0  0  0  0  0  0  0
    3.5631   -0.9738   -0.0764 N   0  0  0  0  0  0  0  0  0  0  0  0
   -7.3134    1.1679    0.2136 C   0  0  0  0  0  0  0  0  0  0  0  0
   -5.8077    1.1121   -0.0627 C   0  0  0  0  0  0  0  0  0  0  0  0
   -3.9119   -0.5181    0.2441 C   0  0  0  0  0  0  0  0  0  0  0  0
   -1.2506   -1.3341    0.0595 C   0  0  0  0  0  0  0  0  0  0  0  0
   -8.0866    0.6085   -0.9792 C   0  0  0  0  0  0  0  0  0  0  0  0
   -7.7663    2.5942    0.5192 C   0  0  0  0  0  0  0  0  0  0  0  0
   -3.5368   -1.7820    0.6997 C   0  0  0  0  0  0  0  0  0  0  0  0
   -2.9564    0.3378   -0.3039 C   0  0  0  0  0  0  0  0  0  0  0  0
    0.1194   -1.7532   -0.0369 C   0  0  0  0  0  0  0  0  0  0  0  0
   -2.2061   -2.1900    0.6074 C   0  0  0  0  0  0  0  0  0  0  0  0
   -1.6258   -0.0702   -0.3961 C   0  0  0  0  0  0  0  0  0  0  0  0
    5.3685    0.6514   -0.0057 C   0  0  0  0  0  0  0  0  0  0  0  0
    2.2966   -1.4952   -0.0889 C   0  0  0  0  0  0  0  0  0  0  0  0
    0.4809   -3.0745   -0.1963 C   0  0  0  0  0  0  0  0  0  0  0  0
    5.9579    1.8894    0.1041 C   0  0  0  0  0  0  0  0  0  0  0  0
    3.9212    0.3826    0.0625 C   0  0  0  0  0  0  0  0  0  0  0  0
    6.4250   -0.2720   -0.1907 C   0  0  0  0  0  0  0  0  0  0  0  0
    5.4304    3.2476    0.3059 C   0  0  0  0  0  0  0  0  0  0  0  0
    7.5846    0.4675   -0.1806 C   0  0  0  0  0  0  0  0  0  0  0  0
   -7.5348    0.5544    1.0960 H   0  0  0  0  0  0  0  0  0  0  0  0
   -7.8904    1.1903   -1.8866 H   0  0  0  0  0  0  0  0  0  0  0  0
   -9.1646    0.6223   -0.7888 H   0  0  0  0  0  0  0  0  0  0  0  0
   -7.7921   -0.4265   -1.1837 H   0  0  0  0  0  0  0  0  0  0  0  0
   -7.6164    3.2566   -0.3405 H   0  0  0  0  0  0  0  0  0  0  0  0
   -7.1982    3.0087    1.3590 H   0  0  0  0  0  0  0  0  0  0  0  0
   -8.8286    2.6174    0.7837 H   0  0  0  0  0  0  0  0  0  0  0  0
   -5.8919   -0.7911    0.7468 H   0  0  0  0  0  0  0  0  0  0  0  0
   -4.2710   -2.4568    1.1324 H   0  0  0  0  0  0  0  0  0  0  0  0
   -3.1687    1.3292   -0.6781 H   0  0  0  0  0  0  0  0  0  0  0  0
   -1.9495   -3.1748    0.9891 H   0  0  0  0  0  0  0  0  0  0  0  0
   -0.8991    0.6119   -0.8312 H   0  0  0  0  0  0  0  0  0  0  0  0
   -0.1340   -3.9595   -0.2839 H   0  0  0  0  0  0  0  0  0  0  0  0
    4.2946   -1.6695   -0.1845 H   0  0  0  0  0  0  0  0  0  0  0  0
    6.3758   -1.3438   -0.3177 H   0  0  0  0  0  0  0  0  0  0  0  0
    4.8673    3.3080    1.2424 H   0  0  0  0  0  0  0  0  0  0  0  0
    6.2361    3.9872    0.3532 H   0  0  0  0  0  0  0  0  0  0  0  0
    4.7663    3.5298   -0.5169 H   0  0  0  0  0  0  0  0  0  0  0  0
    8.6308    0.2190   -0.2829 H   0  0  0  0  0  0  0  0  0  0  0  0
  1 20  1  0  0  0  0
  1 21  1  0  0  0  0
  2  9  2  0  0  0  0
  3 22  1  0  0  0  0
  3 26  1  0  0  0  0
  4 23  2  0  0  0  0
  5  9  1  0  0  0  0
  5 10  1  0  0  0  0
  5 34  1  0  0  0  0
  6 16  1  0  0  0  0
  6 20  2  0  0  0  0
  7 20  1  0  0  0  0
  7 23  1  0  0  0  0
  7 40  1  0  0  0  0
  8  9  1  0  0  0  0
  8 12  1  0  0  0  0
  8 13  1  0  0  0  0
  8 27  1  0  0  0  0
 10 14  2  0  0  0  0
 10 15  1  0  0  0  0
 11 16  1  0  0  0  0
 11 17  2  0  0  0  0
 11 18  1  0  0  0  0
 12 28  1  0  0  0  0
 12 29  1  0  0  0  0
 12 30  1  0  0  0  0
 13 31  1  0  0  0  0
 13 32  1  0  0  0  0
 13 33  1  0  0  0  0
 14 17  1  0  0  0  0
 14 35  1  0  0  0  0
 15 18  2  0  0  0  0
 15 36  1  0  0  0  0
 16 21  2  0  0  0  0
 17 37  1  0  0  0  0
 18 38  1  0  0  0  0
 19 22  2  0  0  0  0
 19 23  1  0  0  0  0
 19 24  1  0  0  0  0
 21 39  1  0  0  0  0
 22 25  1  0  0  0  0
 24 26  2  0  0  0  0
 24 41  1  0  0  0  0
 25 42  1  0  0  0  0
 25 43  1  0  0  0  0
 25 44  1  0  0  0  0
 26 45  1  0  0  0  0
M  END
> <PUBCHEM_COMPOUND_CID>
17396170

> <PUBCHEM_CONFORMER_RMSD>
0.8

> <PUBCHEM_CONFORMER_DIVERSEORDER>
1
35
26
36
20
30
33
12
23
17
16
34
25
14
21
7
37
27
29
13
31
24
5
22
3
28
32
19
15
11
9
10
6
4
8
18
2

> <PUBCHEM_MMFF94_PARTIAL_CHARGES>
33
1 -0.08
10 0.12
11 0.05
14 -0.15
15 -0.15
16 0.17
17 -0.15
18 -0.15
19 -0.09
2 -0.57
20 0.44
21 -0.11
22 -0.04
23 0.72
24 -0.15
25 0.18
26 -0.01
3 -0.28
34 0.37
35 0.15
36 0.15
37 0.15
38 0.15
39 0.15
4 -0.57
40 0.37
41 0.15
45 0.15
5 -0.55
6 -0.57
7 -0.49
8 0.06
9 0.57

> <PUBCHEM_EFFECTIVE_ROTOR_COUNT>
7

> <PUBCHEM_PHARMACOPHORE_FEATURES>
9
1 2 acceptor
1 3 acceptor
1 4 acceptor
1 5 donor
1 7 donor
3 8 12 13 hydrophobe
5 1 6 16 20 21 rings
5 3 19 22 24 26 rings
6 10 11 14 15 17 18 rings

> <PUBCHEM_HEAVY_ATOM_COUNT>
26

> <PUBCHEM_ATOM_DEF_STEREO_COUNT>
0

> <PUBCHEM_ATOM_UDEF_STEREO_COUNT>
0

> <PUBCHEM_BOND_DEF_STEREO_COUNT>
0

> <PUBCHEM_BOND_UDEF_STEREO_COUNT>
0

> <PUBCHEM_ISOTOPIC_ATOM_COUNT>
0

> <PUBCHEM_COMPONENT_COUNT>
1

> <PUBCHEM_CACTVS_TAUTO_COUNT>
6

> <PUBCHEM_CONFORMER_ID>
010971CA00000001

> <PUBCHEM_MMFF94_ENERGY>
51.4068

> <PUBCHEM_FEATURE_SELFOVERLAP>
45.669

> <PUBCHEM_SHAPE_FINGERPRINT>
10 15 18060416928596951971
10411042 1 17691684485895690347
10835480 77 18412262857183085243
11297010 23 18114177562759943086
11409948 8 18200580438424832369
12838862 33 18337125504947523232
12925494 130 18339645521062918408
13248334 5 18122061167836151398
13530399 1 17969497303639963545
13911987 19 17530682122198094351
14117953 113 18413384341732036772
14178184 131 11239699874081432713
14394314 77 18263357144459773217
14617042 71 18336540625719666625
14849402 71 18334290981947863721
14931854 50 17821720654719550152
15183329 4 18187081767016867816
15289351 153 18335704996391062930
15475509 35 16199596938716307362
15510800 12 7276541045073822837
15519825 34 16127797562501478193
15778101 99 18411980239170307755
16087824 20 18410854370225418292
16989713 51 17459479836632821455
1768 4 18336537284139612953
17980427 23 17917990525488021839
18335252 114 18333454257244557908
19301679 30 12750973168687198522
19438510 23 18201999936788070491
19611394 137 17915446213227352043
20105231 36 12103574108979221552
2026 5 8935006957992958661
20281389 69 18201721772946093172
20554085 129 17895207597247891762
20642791 178 17986661593589235733
20691028 202 18266179435814268092
20715895 44 18409445865458751000
20721686 124 18040431131747062630
21033648 144 18342745152428003639
21033648 29 18264781982510533536
21033650 10 14635139166972560979
21150785 3 17095243622991784303
21298829 104 18408880767895678849
21307412 95 6122489213039811389
21585482 111 18268709596796079357
22224240 67 18202565081527911871
23524908 199 17677043664142613830
24771293 8 18343300397189035869
2838139 119 18409170974408461950
335352 9 18408318900837862702
3411729 13 18342176695968182562
34797466 226 18040993003631348239
3627633 1 17690280404576832606
4073 2 18343578552040397739
4169191 19 18409730699316587145
465052 167 10735877274928698898
5104073 3 18131627915777635187
5283384 27 18131078155984628069
5385378 56 18271810163819832882
54039377 194 9511466641217920560
6327066 14 18408604734214959126
636775 72 18410294692193116329
636775 8 9943535141653547648
6691757 9 15913325759204232819

> <PUBCHEM_SHAPE_MULTIPOLES>
506.37
23.93
3.42
0.73
9.57
0.41
-0.02
-23.26
-1.05
-1.54
0.22
0.58
0.02
0.64

> <PUBCHEM_SHAPE_SELFOVERLAP>
1077.492

> <PUBCHEM_SHAPE_VOLUME>
285.4

> <PUBCHEM_COORDINATE_TYPE>
2
5
10

$$$$

