17396383
  -OEChem-06241222562D

 69 74  0     0  0  0  0  0  0999 V2000
   10.0201   -2.1548    0.0000 O   0  0  0  0  0  0  0  0  0  0  0  0
    6.6027    4.1951    0.0000 O   0  0  0  0  0  0  0  0  0  0  0  0
    6.4162   -2.0471    0.0000 N   0  0  0  0  0  0  0  0  0  0  0  0
    4.1881   -3.5198    0.0000 N   0  0  0  0  0  0  0  0  0  0  0  0
    8.3711   -1.6250    0.0000 N   0  0  0  0  0  0  0  0  0  0  0  0
    5.7204   -4.0121    0.0000 N   0  0  0  0  0  0  0  0  0  0  0  0
    5.1408   -4.8198    0.0000 N   0  0  0  0  0  0  0  0  0  0  0  0
   10.2663    1.4423    0.0000 N   0  0  0  0  0  0  0  0  0  0  0  0
    7.0877   -2.7881    0.0000 C   0  0  0  0  0  0  0  0  0  0  0  0
    6.7221   -1.0951    0.0000 C   0  0  0  0  0  0  0  0  0  0  0  0
    5.4387   -2.2582    0.0000 C   0  0  0  0  0  0  0  0  0  0  0  0
    8.0652   -2.5770    0.0000 C   0  0  0  0  0  0  0  0  0  0  0  0
    7.6996   -0.8840    0.0000 C   0  0  0  0  0  0  0  0  0  0  0  0
    3.4032   -2.9002    0.0000 C   0  0  0  0  0  0  0  0  0  0  0  0
    5.1328   -3.2103    0.0000 C   0  0  0  0  0  0  0  0  0  0  0  0
    2.4294   -3.1276    0.0000 C   0  0  0  0  0  0  0  0  0  0  0  0
    2.0000   -4.0307    0.0000 C   0  0  0  0  0  0  0  0  0  0  0  0
    4.1931   -4.5197    0.0000 C   0  0  0  0  0  0  0  0  0  0  0  0
    2.4384   -4.9295    0.0000 C   0  0  0  0  0  0  0  0  0  0  0  0
    3.4144   -5.1471    0.0000 C   0  0  0  0  0  0  0  0  0  0  0  0
    9.3486   -1.4139    0.0000 C   0  0  0  0  0  0  0  0  0  0  0  0
    9.6545   -0.4618    0.0000 C   0  0  0  0  0  0  0  0  0  0  0  0
   10.6320   -0.2507    0.0000 C   0  0  0  0  0  0  0  0  0  0  0  0
    8.9830    0.2792    0.0000 C   0  0  0  0  0  0  0  0  0  0  0  0
   10.9379    0.7013    0.0000 C   0  0  0  0  0  0  0  0  0  0  0  0
    9.2889    1.2312    0.0000 C   0  0  0  0  0  0  0  0  0  0  0  0
   11.3195   -1.0332    0.0000 C   0  0  0  0  0  0  0  0  0  0  0  0
   11.9525    0.9369    0.0000 C   0  0  0  0  0  0  0  0  0  0  0  0
    8.6173    1.9722    0.0000 C   0  0  0  0  0  0  0  0  0  0  0  0
   12.3393   -0.8212    0.0000 C   0  0  0  0  0  0  0  0  0  0  0  0
   12.6580    0.1705    0.0000 C   0  0  0  0  0  0  0  0  0  0  0  0
    8.9232    2.9242    0.0000 C   0  0  0  0  0  0  0  0  0  0  0  0
    7.6399    1.7611    0.0000 C   0  0  0  0  0  0  0  0  0  0  0  0
    8.2517    3.6652    0.0000 C   0  0  0  0  0  0  0  0  0  0  0  0
    6.9683    2.5020    0.0000 C   0  0  0  0  0  0  0  0  0  0  0  0
    7.2742    3.4541    0.0000 C   0  0  0  0  0  0  0  0  0  0  0  0
    6.9086    5.1471    0.0000 C   0  0  0  0  0  0  0  0  0  0  0  0
    6.5630   -3.1184    0.0000 H   0  0  0  0  0  0  0  0  0  0  0  0
    7.3219   -3.3622    0.0000 H   0  0  0  0  0  0  0  0  0  0  0  0
    6.6985   -0.4755    0.0000 H   0  0  0  0  0  0  0  0  0  0  0  0
    6.1079   -1.0108    0.0000 H   0  0  0  0  0  0  0  0  0  0  0  0
    5.4151   -1.6387    0.0000 H   0  0  0  0  0  0  0  0  0  0  0  0
    4.8245   -2.1740    0.0000 H   0  0  0  0  0  0  0  0  0  0  0  0
    8.0889   -3.1966    0.0000 H   0  0  0  0  0  0  0  0  0  0  0  0
    8.6794   -2.6613    0.0000 H   0  0  0  0  0  0  0  0  0  0  0  0
    8.2243   -0.5537    0.0000 H   0  0  0  0  0  0  0  0  0  0  0  0
    7.4654   -0.3099    0.0000 H   0  0  0  0  0  0  0  0  0  0  0  0
    3.8860   -2.5112    0.0000 H   0  0  0  0  0  0  0  0  0  0  0  0
    3.1314   -2.3429    0.0000 H   0  0  0  0  0  0  0  0  0  0  0  0
    2.4263   -2.5076    0.0000 H   0  0  0  0  0  0  0  0  0  0  0  0
    1.8242   -2.9926    0.0000 H   0  0  0  0  0  0  0  0  0  0  0  0
    1.5133   -3.6465    0.0000 H   0  0  0  0  0  0  0  0  0  0  0  0
    1.5172   -4.4196    0.0000 H   0  0  0  0  0  0  0  0  0  0  0  0
    1.8346   -5.0704    0.0000 H   0  0  0  0  0  0  0  0  0  0  0  0
    2.4415   -5.5495    0.0000 H   0  0  0  0  0  0  0  0  0  0  0  0
    3.1482   -5.7070    0.0000 H   0  0  0  0  0  0  0  0  0  0  0  0
    3.9010   -5.5313    0.0000 H   0  0  0  0  0  0  0  0  0  0  0  0
    8.3769    0.1483    0.0000 H   0  0  0  0  0  0  0  0  0  0  0  0
   11.1230   -1.6213    0.0000 H   0  0  0  0  0  0  0  0  0  0  0  0
   12.1354    1.5293    0.0000 H   0  0  0  0  0  0  0  0  0  0  0  0
   12.7539   -1.2822    0.0000 H   0  0  0  0  0  0  0  0  0  0  0  0
   13.2635    0.3037    0.0000 H   0  0  0  0  0  0  0  0  0  0  0  0
    9.5293    3.0551    0.0000 H   0  0  0  0  0  0  0  0  0  0  0  0
    7.4502    1.1708    0.0000 H   0  0  0  0  0  0  0  0  0  0  0  0
    8.4414    4.2555    0.0000 H   0  0  0  0  0  0  0  0  0  0  0  0
    6.3623    2.3712    0.0000 H   0  0  0  0  0  0  0  0  0  0  0  0
    7.4989    4.9574    0.0000 H   0  0  0  0  0  0  0  0  0  0  0  0
    7.0983    5.7374    0.0000 H   0  0  0  0  0  0  0  0  0  0  0  0
    6.3183    5.3368    0.0000 H   0  0  0  0  0  0  0  0  0  0  0  0
  1 21  2  0  0  0  0
  2 36  1  0  0  0  0
  2 37  1  0  0  0  0
  3  9  1  0  0  0  0
  3 10  1  0  0  0  0
  3 11  1  0  0  0  0
  4 14  1  0  0  0  0
  4 15  1  0  0  0  0
  4 18  1  0  0  0  0
  5 12  1  0  0  0  0
  5 13  1  0  0  0  0
  5 21  1  0  0  0  0
  6  7  1  0  0  0  0
  6 15  2  0  0  0  0
  7 18  2  0  0  0  0
  8 25  1  0  0  0  0
  8 26  2  0  0  0  0
  9 12  1  0  0  0  0
  9 38  1  0  0  0  0
  9 39  1  0  0  0  0
 10 13  1  0  0  0  0
 10 40  1  0  0  0  0
 10 41  1  0  0  0  0
 11 15  1  0  0  0  0
 11 42  1  0  0  0  0
 11 43  1  0  0  0  0
 12 44  1  0  0  0  0
 12 45  1  0  0  0  0
 13 46  1  0  0  0  0
 13 47  1  0  0  0  0
 14 16  1  0  0  0  0
 14 48  1  0  0  0  0
 14 49  1  0  0  0  0
 16 17  1  0  0  0  0
 16 50  1  0  0  0  0
 16 51  1  0  0  0  0
 17 19  1  0  0  0  0
 17 52  1  0  0  0  0
 17 53  1  0  0  0  0
 18 20  1  0  0  0  0
 19 20  1  0  0  0  0
 19 54  1  0  0  0  0
 19 55  1  0  0  0  0
 20 56  1  0  0  0  0
 20 57  1  0  0  0  0
 21 22  1  0  0  0  0
 22 23  1  0  0  0  0
 22 24  2  0  0  0  0
 23 25  1  0  0  0  0
 23 27  2  0  0  0  0
 24 26  1  0  0  0  0
 24 58  1  0  0  0  0
 25 28  2  0  0  0  0
 26 29  1  0  0  0  0
 27 30  1  0  0  0  0
 27 59  1  0  0  0  0
 28 31  1  0  0  0  0
 28 60  1  0  0  0  0
 29 32  2  0  0  0  0
 29 33  1  0  0  0  0
 30 31  2  0  0  0  0
 30 61  1  0  0  0  0
 31 62  1  0  0  0  0
 32 34  1  0  0  0  0
 32 63  1  0  0  0  0
 33 35  2  0  0  0  0
 33 64  1  0  0  0  0
 34 36  2  0  0  0  0
 34 65  1  0  0  0  0
 35 36  1  0  0  0  0
 35 66  1  0  0  0  0
 37 67  1  0  0  0  0
 37 68  1  0  0  0  0
 37 69  1  0  0  0  0
M  END
> <PUBCHEM_COMPOUND_CID>
17396383

> <PUBCHEM_COMPOUND_CANONICALIZED>
1

> <PUBCHEM_CACTVS_COMPLEXITY>
753

> <PUBCHEM_CACTVS_HBOND_ACCEPTOR>
6

> <PUBCHEM_CACTVS_HBOND_DONOR>
0

> <PUBCHEM_CACTVS_ROTATABLE_BOND>
5

> <PUBCHEM_CACTVS_SUBSKEYS>
AAADcfB7sAAAAAAAAAAAAAAAAAAAAWAAAAA8eIEABYAAAACx/AAAHgAIAAAADAzBnwYz1vcMFACqAydydACSiCslIqAd2CE+bNiMbvLEvZuUMShkzhPI6Yec2OOOoAAAAAACAABAAAAAAAQAAAAAAAAAAA==

> <PUBCHEM_IUPAC_OPENEYE_NAME>
[2-(4-methoxyphenyl)-4-quinolyl]-[4-(6,7,8,9-tetrahydro-5H-[1,2,4]triazolo[4,3-a]azepin-3-ylmethyl)piperazin-1-yl]methanone

> <PUBCHEM_IUPAC_CAS_NAME>
[2-(4-methoxyphenyl)-4-quinolinyl]-[4-(6,7,8,9-tetrahydro-5H-[1,2,4]triazolo[4,3-a]azepin-3-ylmethyl)-1-piperazinyl]methanone

> <PUBCHEM_IUPAC_NAME>
[2-(4-methoxyphenyl)quinolin-4-yl]-[4-(6,7,8,9-tetrahydro-5H-[1,2,4]triazolo[4,3-a]azepin-3-ylmethyl)piperazin-1-yl]methanone

> <PUBCHEM_IUPAC_SYSTEMATIC_NAME>
[2-(4-methoxyphenyl)quinolin-4-yl]-[4-(6,7,8,9-tetrahydro-5H-[1,2,4]triazolo[4,3-a]azepin-3-ylmethyl)piperazin-1-yl]methanone

> <PUBCHEM_IUPAC_TRADITIONAL_NAME>
[2-(4-methoxyphenyl)-4-quinolyl]-[4-(6,7,8,9-tetrahydro-5H-[1,2,4]triazol[4,3-a]azepin-3-ylmethyl)piperazino]methanone

> <PUBCHEM_IUPAC_INCHI>
InChI=1S/C29H32N6O2/c1-37-22-12-10-21(11-13-22)26-19-24(23-7-4-5-8-25(23)30-26)29(36)34-17-15-33(16-18-34)20-28-32-31-27-9-3-2-6-14-35(27)28/h4-5,7-8,10-13,19H,2-3,6,9,14-18,20H2,1H3

> <PUBCHEM_IUPAC_INCHIKEY>
QBEYXCRDXOGPTJ-UHFFFAOYSA-N

> <PUBCHEM_XLOGP3_AA>
3.2

> <PUBCHEM_EXACT_MASS>
496.258674

> <PUBCHEM_MOLECULAR_FORMULA>
C29H32N6O2

> <PUBCHEM_MOLECULAR_WEIGHT>
496.60338

> <PUBCHEM_OPENEYE_CAN_SMILES>
COC1=CC=C(C=C1)C2=NC3=CC=CC=C3C(=C2)C(=O)N4CCN(CC4)CC5=NN=C6N5CCCCC6

> <PUBCHEM_OPENEYE_ISO_SMILES>
COC1=CC=C(C=C1)C2=NC3=CC=CC=C3C(=C2)C(=O)N4CCN(CC4)CC5=NN=C6N5CCCCC6

> <PUBCHEM_CACTVS_TPSA>
76.4

> <PUBCHEM_MONOISOTOPIC_WEIGHT>
496.258674

> <PUBCHEM_TOTAL_CHARGE>
0

> <PUBCHEM_HEAVY_ATOM_COUNT>
37

> <PUBCHEM_ATOM_DEF_STEREO_COUNT>
0

> <PUBCHEM_ATOM_UDEF_STEREO_COUNT>
0

> <PUBCHEM_BOND_DEF_STEREO_COUNT>
0

> <PUBCHEM_BOND_UDEF_STEREO_COUNT>
0

> <PUBCHEM_ISOTOPIC_ATOM_COUNT>
0

> <PUBCHEM_COMPONENT_COUNT>
1

> <PUBCHEM_CACTVS_TAUTO_COUNT>
1

> <PUBCHEM_COORDINATE_TYPE>
1
5
255

> <PUBCHEM_BONDANNOTATIONS>
22  23  8
22  24  8
23  25  8
23  27  8
24  26  8
25  28  8
27  30  8
28  31  8
29  32  8
29  33  8
30  31  8
32  34  8
33  35  8
34  36  8
35  36  8
4  15  8
4  18  8
6  15  8
6  7  8
7  18  8
8  25  8
8  26  8

$$$$

