3566
  -OEChem-06251223302D

 28 30  0     0  0  0  0  0  0999 V2000
    2.6720   -0.0503    0.0000 O   0  0  0  0  0  0  0  0  0  0  0  0
    6.1767    0.8623    0.0000 N   0  0  0  0  0  0  0  0  0  0  0  0
    8.7040   -0.2619    0.0000 N   0  0  0  0  0  0  0  0  0  0  0  0
    6.6767   -0.6766    0.0000 C   0  0  0  0  0  0  0  0  0  0  0  0
    5.6767   -0.6766    0.0000 C   0  0  0  0  0  0  0  0  0  0  0  0
    6.9857    0.2745    0.0000 C   0  0  0  0  0  0  0  0  0  0  0  0
    5.3677    0.2745    0.0000 C   0  0  0  0  0  0  0  0  0  0  0  0
    8.0011    0.5067    0.0000 C   0  0  0  0  0  0  0  0  0  0  0  0
    7.3617   -1.4613    0.0000 C   0  0  0  0  0  0  0  0  0  0  0  0
    4.9917   -1.4613    0.0000 C   0  0  0  0  0  0  0  0  0  0  0  0
    4.3523    0.5067    0.0000 C   0  0  0  0  0  0  0  0  0  0  0  0
    8.3822   -1.2526    0.0000 C   0  0  0  0  0  0  0  0  0  0  0  0
    3.6493   -0.2619    0.0000 C   0  0  0  0  0  0  0  0  0  0  0  0
    3.9712   -1.2526    0.0000 C   0  0  0  0  0  0  0  0  0  0  0  0
    8.2991    1.4613    0.0000 C   0  0  0  0  0  0  0  0  0  0  0  0
    2.0000   -0.7908    0.0000 C   0  0  0  0  0  0  0  0  0  0  0  0
    7.1633   -2.0487    0.0000 H   0  0  0  0  0  0  0  0  0  0  0  0
    5.1901   -2.0487    0.0000 H   0  0  0  0  0  0  0  0  0  0  0  0
    4.1675    1.0986    0.0000 H   0  0  0  0  0  0  0  0  0  0  0  0
    9.3100   -0.1307    0.0000 H   0  0  0  0  0  0  0  0  0  0  0  0
    8.7952   -1.7149    0.0000 H   0  0  0  0  0  0  0  0  0  0  0  0
    3.5581   -1.7149    0.0000 H   0  0  0  0  0  0  0  0  0  0  0  0
    8.8909    1.2765    0.0000 H   0  0  0  0  0  0  0  0  0  0  0  0
    8.4839    2.0531    0.0000 H   0  0  0  0  0  0  0  0  0  0  0  0
    7.7073    1.6461    0.0000 H   0  0  0  0  0  0  0  0  0  0  0  0
    1.5409   -0.3742    0.0000 H   0  0  0  0  0  0  0  0  0  0  0  0
    1.5834   -1.2500    0.0000 H   0  0  0  0  0  0  0  0  0  0  0  0
    2.4591   -1.2075    0.0000 H   0  0  0  0  0  0  0  0  0  0  0  0
  1 13  1  0  0  0  0
  1 16  1  0  0  0  0
  2  6  1  0  0  0  0
  2  7  2  0  0  0  0
  3  8  1  0  0  0  0
  3 12  1  0  0  0  0
  3 20  1  0  0  0  0
  4  5  2  0  0  0  0
  4  6  1  0  0  0  0
  4  9  1  0  0  0  0
  5  7  1  0  0  0  0
  5 10  1  0  0  0  0
  6  8  2  0  0  0  0
  7 11  1  0  0  0  0
  8 15  1  0  0  0  0
  9 12  2  0  0  0  0
  9 17  1  0  0  0  0
 10 14  2  0  0  0  0
 10 18  1  0  0  0  0
 11 13  2  0  0  0  0
 11 19  1  0  0  0  0
 12 21  1  0  0  0  0
 13 14  1  0  0  0  0
 14 22  1  0  0  0  0
 15 23  1  0  0  0  0
 15 24  1  0  0  0  0
 15 25  1  0  0  0  0
 16 26  1  0  0  0  0
 16 27  1  0  0  0  0
 16 28  1  0  0  0  0
M  END
> <PUBCHEM_COMPOUND_CID>
3566

> <PUBCHEM_COMPOUND_CANONICALIZED>
1

> <PUBCHEM_CACTVS_COMPLEXITY>
258

> <PUBCHEM_CACTVS_HBOND_ACCEPTOR>
2

> <PUBCHEM_CACTVS_HBOND_DONOR>
1

> <PUBCHEM_CACTVS_ROTATABLE_BOND>
1

> <PUBCHEM_CACTVS_SUBSKEYS>
AAADccBzIAAAAAAAAAAAAAAAAAAAAWAAAAA8QAAAAAAAAFgBwAAAHgAQAAAADAzBngY+xvLJlACgAzRnRACCiCQxMiAI2aA+fJgMZuLEsZuUMChm0BnI6AeQ0PMOoAAAAgACAABAAAAEAAQAAAAAAAAAAA==

> <PUBCHEM_IUPAC_OPENEYE_NAME>
7-methoxy-1-methyl-2H-pyrido[3,4-b]indole

> <PUBCHEM_IUPAC_CAS_NAME>
7-methoxy-1-methyl-2H-pyrido[3,4-b]indole

> <PUBCHEM_IUPAC_NAME>
7-methoxy-1-methyl-2H-pyrido[3,4-b]indole

> <PUBCHEM_IUPAC_SYSTEMATIC_NAME>
7-methoxy-1-methyl-2H-pyrido[3,4-b]indole

> <PUBCHEM_IUPAC_TRADITIONAL_NAME>
7-methoxy-1-methyl-2H-$b-carboline

> <PUBCHEM_IUPAC_INCHI>
InChI=1S/C13H12N2O/c1-8-13-11(5-6-14-8)10-4-3-9(16-2)7-12(10)15-13/h3-7,14H,1-2H3

> <PUBCHEM_IUPAC_INCHIKEY>
CMPGCFZWPMOLAI-UHFFFAOYSA-N

> <PUBCHEM_XLOGP3_AA>
2.4

> <PUBCHEM_EXACT_MASS>
212.094963

> <PUBCHEM_MOLECULAR_FORMULA>
C13H12N2O

> <PUBCHEM_MOLECULAR_WEIGHT>
212.24718

> <PUBCHEM_OPENEYE_CAN_SMILES>
CC1=C2C(=C3C=CC(=CC3=N2)OC)C=CN1

> <PUBCHEM_OPENEYE_ISO_SMILES>
CC1=C2C(=C3C=CC(=CC3=N2)OC)C=CN1

> <PUBCHEM_CACTVS_TPSA>
37.9

> <PUBCHEM_MONOISOTOPIC_WEIGHT>
212.094963

> <PUBCHEM_TOTAL_CHARGE>
0

> <PUBCHEM_HEAVY_ATOM_COUNT>
16

> <PUBCHEM_ATOM_DEF_STEREO_COUNT>
0

> <PUBCHEM_ATOM_UDEF_STEREO_COUNT>
0

> <PUBCHEM_BOND_DEF_STEREO_COUNT>
0

> <PUBCHEM_BOND_UDEF_STEREO_COUNT>
0

> <PUBCHEM_ISOTOPIC_ATOM_COUNT>
0

> <PUBCHEM_COMPONENT_COUNT>
1

> <PUBCHEM_CACTVS_TAUTO_COUNT>
2

> <PUBCHEM_COORDINATE_TYPE>
1
5
255

> <PUBCHEM_BONDANNOTATIONS>
10  14  8
11  13  8
13  14  8
2  6  8
2  7  8
3  12  8
3  8  8
4  5  8
4  9  8
5  10  8
5  7  8
6  8  8
7  11  8
9  12  8

$$$$

