14376
  -OEChem-06241222433D

 35 35  0     0  0  0  0  0  0999 V2000
    2.4048   -2.8333    1.3112 F   0  0  0  0  0  0  0  0  0  0  0  0
    4.3860    0.2987   -1.7057 F   0  0  0  0  0  0  0  0  0  0  0  0
   -5.4879   -1.2226    0.6720 O   0  0  0  0  0  0  0  0  0  0  0  0
   -5.0532   -0.3009   -1.3579 O   0  0  0  0  0  0  0  0  0  0  0  0
    2.2733   -0.3882   -0.0215 N   0  0  0  0  0  0  0  0  0  0  0  0
    1.1774    0.4809    0.1610 C   0  0  0  0  0  0  0  0  0  0  0  0
    2.0970   -1.6602   -0.6937 C   0  0  0  0  0  0  0  0  0  0  0  0
    3.5868   -0.0268    0.4729 C   0  0  0  0  0  0  0  0  0  0  0  0
   -1.1668    0.9843   -0.1369 C   0  0  0  0  0  0  0  0  0  0  0  0
   -0.0834    0.1245   -0.3181 C   0  0  0  0  0  0  0  0  0  0  0  0
   -2.5145    0.6042   -0.6493 C   0  0  0  0  0  0  0  0  0  0  0  0
    1.3544    1.6969    0.8212 C   0  0  0  0  0  0  0  0  0  0  0  0
   -0.9895    2.2002    0.5233 C   0  0  0  0  0  0  0  0  0  0  0  0
   -3.3621   -0.1762    0.3624 C   0  0  0  0  0  0  0  0  0  0  0  0
    0.2710    2.5565    1.0024 C   0  0  0  0  0  0  0  0  0  0  0  0
    1.5396   -2.6863    0.2718 C   0  0  0  0  0  0  0  0  0  0  0  0
    4.2676    0.9156   -0.4989 C   0  0  0  0  0  0  0  0  0  0  0  0
   -4.7005   -0.5673   -0.2161 C   0  0  0  0  0  0  0  0  0  0  0  0
    1.4941   -1.5801   -1.6047 H   0  0  0  0  0  0  0  0  0  0  0  0
    3.0735   -2.0227   -1.0404 H   0  0  0  0  0  0  0  0  0  0  0  0
    4.2049   -0.9305    0.5512 H   0  0  0  0  0  0  0  0  0  0  0  0
    3.5604    0.3789    1.4901 H   0  0  0  0  0  0  0  0  0  0  0  0
   -0.2749   -0.8091   -0.8358 H   0  0  0  0  0  0  0  0  0  0  0  0
   -3.0545    1.5084   -0.9621 H   0  0  0  0  0  0  0  0  0  0  0  0
   -2.4009    0.0154   -1.5699 H   0  0  0  0  0  0  0  0  0  0  0  0
    2.3057    2.0324    1.2188 H   0  0  0  0  0  0  0  0  0  0  0  0
   -1.8260    2.8778    0.6725 H   0  0  0  0  0  0  0  0  0  0  0  0
   -2.8407   -1.0919    0.6633 H   0  0  0  0  0  0  0  0  0  0  0  0
   -3.5384    0.4364    1.2539 H   0  0  0  0  0  0  0  0  0  0  0  0
    0.4079    3.5031    1.5171 H   0  0  0  0  0  0  0  0  0  0  0  0
    0.5686   -2.4097    0.6896 H   0  0  0  0  0  0  0  0  0  0  0  0
    1.4399   -3.6599   -0.2168 H   0  0  0  0  0  0  0  0  0  0  0  0
    3.7208    1.8477   -0.6596 H   0  0  0  0  0  0  0  0  0  0  0  0
    5.2755    1.1626   -0.1528 H   0  0  0  0  0  0  0  0  0  0  0  0
   -6.3582   -1.4585    0.2856 H   0  0  0  0  0  0  0  0  0  0  0  0
  1 16  1  0  0  0  0
  2 17  1  0  0  0  0
  3 18  1  0  0  0  0
  3 35  1  0  0  0  0
  4 18  2  0  0  0  0
  5  6  1  0  0  0  0
  5  7  1  0  0  0  0
  5  8  1  0  0  0  0
  6 10  1  0  0  0  0
  6 12  2  0  0  0  0
  7 16  1  0  0  0  0
  7 19  1  0  0  0  0
  7 20  1  0  0  0  0
  8 17  1  0  0  0  0
  8 21  1  0  0  0  0
  8 22  1  0  0  0  0
  9 10  2  0  0  0  0
  9 11  1  0  0  0  0
  9 13  1  0  0  0  0
 10 23  1  0  0  0  0
 11 14  1  0  0  0  0
 11 24  1  0  0  0  0
 11 25  1  0  0  0  0
 12 15  1  0  0  0  0
 12 26  1  0  0  0  0
 13 15  2  0  0  0  0
 13 27  1  0  0  0  0
 14 18  1  0  0  0  0
 14 28  1  0  0  0  0
 14 29  1  0  0  0  0
 15 30  1  0  0  0  0
 16 31  1  0  0  0  0
 16 32  1  0  0  0  0
 17 33  1  0  0  0  0
 17 34  1  0  0  0  0
M  END
> <PUBCHEM_COMPOUND_CID>
14376

> <PUBCHEM_CONFORMER_RMSD>
0.8

> <PUBCHEM_CONFORMER_DIVERSEORDER>
2
91
181
98
23
152
174
72
114
57
168
80
167
184
157
145
77
99
47
182
126
76
88
161
64
112
101
78
170
87
165
178
20
42
121
160
173
132
71
70
134
115
169
75
151
89
113
118
58
6
154
124
164
51
120
148
69
140
65
153
110
172
61
133
166
82
127
94
183
26
25
119
108
176
177
102
34
43
85
139
156
104
62
56
40
171
117
73
158
54
30
48
155
150
129
128
52
27
21
92
163
149
96
90
103
83
175
143
24
135
33
86
55
68
59
63
137
106
11
50
146
28
107
180
105
122
84
38
29
81
100
147
131
15
144
67
111
9
32
136
141
130
37
13
162
16
17
44
46
3
123
125
19
159
49
142
4
8
93
109
10
53
74
18
138
22
60
7
35
97
79
45
39
36
179
5
41
12
95
116
66
1
14
31

> <PUBCHEM_MMFF94_PARTIAL_CHARGES>
23
1 -0.34
10 -0.15
11 0.14
12 -0.15
13 -0.15
14 0.06
15 -0.15
16 0.34
17 0.34
18 0.66
2 -0.34
23 0.15
26 0.15
27 0.15
3 -0.65
30 0.15
35 0.5
4 -0.57
5 -0.84
6 0.1
7 0.37
8 0.37
9 -0.14

> <PUBCHEM_EFFECTIVE_ROTOR_COUNT>
8

> <PUBCHEM_PHARMACOPHORE_FEATURES>
5
1 3 acceptor
1 4 acceptor
1 5 cation
3 3 4 18 anion
6 6 9 10 12 13 15 rings

> <PUBCHEM_HEAVY_ATOM_COUNT>
18

> <PUBCHEM_ATOM_DEF_STEREO_COUNT>
0

> <PUBCHEM_ATOM_UDEF_STEREO_COUNT>
0

> <PUBCHEM_BOND_DEF_STEREO_COUNT>
0

> <PUBCHEM_BOND_UDEF_STEREO_COUNT>
0

> <PUBCHEM_ISOTOPIC_ATOM_COUNT>
0

> <PUBCHEM_COMPONENT_COUNT>
1

> <PUBCHEM_CACTVS_TAUTO_COUNT>
1

> <PUBCHEM_CONFORMER_ID>
0000382800000002

> <PUBCHEM_MMFF94_ENERGY>
45.2331

> <PUBCHEM_FEATURE_SELFOVERLAP>
25.43

> <PUBCHEM_SHAPE_FINGERPRINT>
10090160 65 18272088271214596692
10366900 7 18412544276114003729
12553582 1 18186530907686209999
12596602 18 16878501225167380899
12616999 72 18273215304945319518
13140716 1 18046360638402680792
13464513 79 18040997306412826190
13862211 1 18260554411150193734
14178342 30 17688602979624066218
14252887 29 17676202481021174644
14617045 38 18341887455806417771
14787075 74 18338232670011341702
15099037 8 18051696834535814914
15375462 189 18334584542043990847
15537594 2 18335137571013738591
16945 1 18261402165028366952
18222031 100 17531257157835753821
19784866 140 18260540165033622086
20281475 54 18338236084600402569
20645477 70 18188502289522930917
20871998 22 17967806189059659637
21069387 34 16486414429282318496
21501502 16 18193554703881236528
21521721 280 18267293240871516480
2255824 54 18189904119124059437
23402539 116 11239720734251330689
235170 7 17346886671444954639
23526113 38 17988924491856720889
23559900 14 18051707821136108418
23596394 208 18271537471665672733
2871803 45 18409166627653573476
312423 11 18264481974211889518
33824 294 18409454652302501283
474229 33 18411419484393268818
83771 10 18335140895075552873
94968 8 18333731320925735238

> <PUBCHEM_SHAPE_MULTIPOLES>
339.16
9.27
2.62
1.09
9.64
0.59
-0.14
3.36
-2.03
-1.46
1.07
-0.34
0.13
-0.3

> <PUBCHEM_SHAPE_SELFOVERLAP>
687.775

> <PUBCHEM_SHAPE_VOLUME>
198

> <PUBCHEM_COORDINATE_TYPE>
2
5
10

$$$$

