17396619
  -OEChem-06241222572D

 44 46  0     0  0  0  0  0  0999 V2000
    2.8660    0.2327    0.0000 S   0  0  0  0  0  0  0  0  0  0  0  0
   12.4202   -0.3020    0.0000 O   0  0  0  0  0  0  0  0  0  0  0  0
   12.4202    1.7673    0.0000 O   0  0  0  0  0  0  0  0  0  0  0  0
    6.3301    1.2327    0.0000 O   0  0  0  0  0  0  0  0  0  0  0  0
    2.3660   -0.6334    0.0000 O   0  0  0  0  0  0  0  0  0  0  0  0
    3.3660    1.0987    0.0000 O   0  0  0  0  0  0  0  0  0  0  0  0
    7.1962   -0.2673    0.0000 N   0  0  0  0  0  0  0  0  0  0  0  0
    8.9282   -0.2673    0.0000 C   0  0  0  0  0  0  0  0  0  0  0  0
    9.7942    0.2327    0.0000 C   0  0  0  0  0  0  0  0  0  0  0  0
    8.0622    0.2327    0.0000 C   0  0  0  0  0  0  0  0  0  0  0  0
   11.5263    0.2327    0.0000 C   0  0  0  0  0  0  0  0  0  0  0  0
   10.6603   -0.2673    0.0000 C   0  0  0  0  0  0  0  0  0  0  0  0
   11.5263    1.2327    0.0000 C   0  0  0  0  0  0  0  0  0  0  0  0
    9.7942    1.2327    0.0000 C   0  0  0  0  0  0  0  0  0  0  0  0
   10.6603    1.7327    0.0000 C   0  0  0  0  0  0  0  0  0  0  0  0
   13.3263    0.2119    0.0000 C   0  0  0  0  0  0  0  0  0  0  0  0
   13.3263    1.2535    0.0000 C   0  0  0  0  0  0  0  0  0  0  0  0
    5.4641   -0.2673    0.0000 C   0  0  0  0  0  0  0  0  0  0  0  0
    3.7320   -0.2673    0.0000 C   0  0  0  0  0  0  0  0  0  0  0  0
    6.3301    0.2327    0.0000 C   0  0  0  0  0  0  0  0  0  0  0  0
    4.5981    0.2327    0.0000 C   0  0  0  0  0  0  0  0  0  0  0  0
    5.4641   -1.2673    0.0000 C   0  0  0  0  0  0  0  0  0  0  0  0
    3.7320   -1.2673    0.0000 C   0  0  0  0  0  0  0  0  0  0  0  0
    4.5981   -1.7673    0.0000 C   0  0  0  0  0  0  0  0  0  0  0  0
    2.0000    0.7327    0.0000 C   0  0  0  0  0  0  0  0  0  0  0  0
    8.5297   -0.7423    0.0000 H   0  0  0  0  0  0  0  0  0  0  0  0
    9.3267   -0.7423    0.0000 H   0  0  0  0  0  0  0  0  0  0  0  0
    8.4607    0.7076    0.0000 H   0  0  0  0  0  0  0  0  0  0  0  0
    7.6636    0.7076    0.0000 H   0  0  0  0  0  0  0  0  0  0  0  0
   10.6603   -0.8873    0.0000 H   0  0  0  0  0  0  0  0  0  0  0  0
    9.2573    1.5427    0.0000 H   0  0  0  0  0  0  0  0  0  0  0  0
   10.6603    2.3527    0.0000 H   0  0  0  0  0  0  0  0  0  0  0  0
    7.1962   -0.8873    0.0000 H   0  0  0  0  0  0  0  0  0  0  0  0
   13.5353   -0.3718    0.0000 H   0  0  0  0  0  0  0  0  0  0  0  0
   13.9371    0.3179    0.0000 H   0  0  0  0  0  0  0  0  0  0  0  0
   13.9371    1.1474    0.0000 H   0  0  0  0  0  0  0  0  0  0  0  0
   13.5353    1.8372    0.0000 H   0  0  0  0  0  0  0  0  0  0  0  0
    4.5981    0.8527    0.0000 H   0  0  0  0  0  0  0  0  0  0  0  0
    6.0010   -1.5773    0.0000 H   0  0  0  0  0  0  0  0  0  0  0  0
    3.1951   -1.5773    0.0000 H   0  0  0  0  0  0  0  0  0  0  0  0
    4.5981   -2.3873    0.0000 H   0  0  0  0  0  0  0  0  0  0  0  0
    2.3100    1.2696    0.0000 H   0  0  0  0  0  0  0  0  0  0  0  0
    1.4631    1.0427    0.0000 H   0  0  0  0  0  0  0  0  0  0  0  0
    1.6900    0.1957    0.0000 H   0  0  0  0  0  0  0  0  0  0  0  0
  1  5  2  0  0  0  0
  1  6  2  0  0  0  0
  1 19  1  0  0  0  0
  1 25  1  0  0  0  0
  2 11  1  0  0  0  0
  2 16  1  0  0  0  0
  3 13  1  0  0  0  0
  3 17  1  0  0  0  0
  4 20  2  0  0  0  0
  7 10  1  0  0  0  0
  7 20  1  0  0  0  0
  7 33  1  0  0  0  0
  8  9  1  0  0  0  0
  8 10  1  0  0  0  0
  8 26  1  0  0  0  0
  8 27  1  0  0  0  0
  9 12  2  0  0  0  0
  9 14  1  0  0  0  0
 10 28  1  0  0  0  0
 10 29  1  0  0  0  0
 11 12  1  0  0  0  0
 11 13  2  0  0  0  0
 12 30  1  0  0  0  0
 13 15  1  0  0  0  0
 14 15  2  0  0  0  0
 14 31  1  0  0  0  0
 15 32  1  0  0  0  0
 16 17  1  0  0  0  0
 16 34  1  0  0  0  0
 16 35  1  0  0  0  0
 17 36  1  0  0  0  0
 17 37  1  0  0  0  0
 18 20  1  0  0  0  0
 18 21  2  0  0  0  0
 18 22  1  0  0  0  0
 19 21  1  0  0  0  0
 19 23  2  0  0  0  0
 21 38  1  0  0  0  0
 22 24  2  0  0  0  0
 22 39  1  0  0  0  0
 23 24  1  0  0  0  0
 23 40  1  0  0  0  0
 24 41  1  0  0  0  0
 25 42  1  0  0  0  0
 25 43  1  0  0  0  0
 25 44  1  0  0  0  0
M  END
> <PUBCHEM_COMPOUND_CID>
17396619

> <PUBCHEM_COMPOUND_CANONICALIZED>
1

> <PUBCHEM_CACTVS_COMPLEXITY>
558

> <PUBCHEM_CACTVS_HBOND_ACCEPTOR>
5

> <PUBCHEM_CACTVS_HBOND_DONOR>
1

> <PUBCHEM_CACTVS_ROTATABLE_BOND>
5

> <PUBCHEM_CACTVS_SUBSKEYS>
AAADceB6OABAAAAAAAAAAAAAAAAAAAAAAAA0YIAAAAAAAACRQAAAHgQQAAAADATh2AayB4LABAqIAiFSEHDCCAAkKBAIiJkOjMgNJjKktRuGOSrk1hGKqYeY2LKOIAABgAAAQABAAAMAAACAAAAAAAAAAA==

> <PUBCHEM_IUPAC_OPENEYE_NAME>
N-[2-(2,3-dihydro-1,4-benzodioxin-6-yl)ethyl]-3-methylsulfonyl-benzamide

> <PUBCHEM_IUPAC_CAS_NAME>
N-[2-(2,3-dihydro-1,4-benzodioxin-6-yl)ethyl]-3-methylsulfonylbenzamide

> <PUBCHEM_IUPAC_NAME>
N-[2-(2,3-dihydro-1,4-benzodioxin-6-yl)ethyl]-3-methylsulfonylbenzamide

> <PUBCHEM_IUPAC_SYSTEMATIC_NAME>
N-[2-(2,3-dihydro-1,4-benzodioxin-6-yl)ethyl]-3-methylsulfonyl-benzamide

> <PUBCHEM_IUPAC_TRADITIONAL_NAME>
N-[2-(2,3-dihydro-1,4-benzodioxin-6-yl)ethyl]-3-mesyl-benzamide

> <PUBCHEM_IUPAC_INCHI>
InChI=1S/C18H19NO5S/c1-25(21,22)15-4-2-3-14(12-15)18(20)19-8-7-13-5-6-16-17(11-13)24-10-9-23-16/h2-6,11-12H,7-10H2,1H3,(H,19,20)

> <PUBCHEM_IUPAC_INCHIKEY>
QDGSOYCQLHKYLI-UHFFFAOYSA-N

> <PUBCHEM_XLOGP3_AA>
2.1

> <PUBCHEM_EXACT_MASS>
361.098394

> <PUBCHEM_MOLECULAR_FORMULA>
C18H19NO5S

> <PUBCHEM_MOLECULAR_WEIGHT>
361.41216

> <PUBCHEM_OPENEYE_CAN_SMILES>
CS(=O)(=O)C1=CC=CC(=C1)C(=O)NCCC2=CC3=C(C=C2)OCCO3

> <PUBCHEM_OPENEYE_ISO_SMILES>
CS(=O)(=O)C1=CC=CC(=C1)C(=O)NCCC2=CC3=C(C=C2)OCCO3

> <PUBCHEM_CACTVS_TPSA>
90.1

> <PUBCHEM_MONOISOTOPIC_WEIGHT>
361.098394

> <PUBCHEM_TOTAL_CHARGE>
0

> <PUBCHEM_HEAVY_ATOM_COUNT>
25

> <PUBCHEM_ATOM_DEF_STEREO_COUNT>
0

> <PUBCHEM_ATOM_UDEF_STEREO_COUNT>
0

> <PUBCHEM_BOND_DEF_STEREO_COUNT>
0

> <PUBCHEM_BOND_UDEF_STEREO_COUNT>
0

> <PUBCHEM_ISOTOPIC_ATOM_COUNT>
0

> <PUBCHEM_COMPONENT_COUNT>
1

> <PUBCHEM_CACTVS_TAUTO_COUNT>
2

> <PUBCHEM_COORDINATE_TYPE>
1
5
255

> <PUBCHEM_BONDANNOTATIONS>
11  12  8
11  13  8
13  15  8
14  15  8
18  21  8
18  22  8
19  21  8
19  23  8
22  24  8
23  24  8
9  12  8
9  14  8

$$$$

