13257
  -OEChem-06261208113D

 27 29  0     0  0  0  0  0  0999 V2000
    0.4078   -0.5945    0.0001 C   0  0  0  0  0  0  0  0  0  0  0  0
    1.2536    0.5454    0.0003 C   0  0  0  0  0  0  0  0  0  0  0  0
   -1.0202   -0.4099    0.0001 C   0  0  0  0  0  0  0  0  0  0  0  0
   -1.5476    0.9080    0.0001 C   0  0  0  0  0  0  0  0  0  0  0  0
    2.6513    0.3987    0.0002 C   0  0  0  0  0  0  0  0  0  0  0  0
    0.6966    1.8269    0.0006 C   0  0  0  0  0  0  0  0  0  0  0  0
   -0.6829    2.0054    0.0003 C   0  0  0  0  0  0  0  0  0  0  0  0
    1.0458   -1.8602    0.0001 C   0  0  0  0  0  0  0  0  0  0  0  0
   -1.9598   -1.4713    0.0000 C   0  0  0  0  0  0  0  0  0  0  0  0
    3.2400   -0.8621    0.0000 C   0  0  0  0  0  0  0  0  0  0  0  0
   -2.9366    1.1221   -0.0002 C   0  0  0  0  0  0  0  0  0  0  0  0
    2.4371   -1.9920    0.0000 C   0  0  0  0  0  0  0  0  0  0  0  0
    3.5808    1.5748   -0.0011 C   0  0  0  0  0  0  0  0  0  0  0  0
   -3.3387   -1.2443   -0.0002 C   0  0  0  0  0  0  0  0  0  0  0  0
   -3.8271    0.0529   -0.0004 C   0  0  0  0  0  0  0  0  0  0  0  0
    1.3072    2.7261    0.0007 H   0  0  0  0  0  0  0  0  0  0  0  0
   -1.0747    3.0210    0.0005 H   0  0  0  0  0  0  0  0  0  0  0  0
    0.4678   -2.7807    0.0000 H   0  0  0  0  0  0  0  0  0  0  0  0
   -1.6354   -2.5087    0.0000 H   0  0  0  0  0  0  0  0  0  0  0  0
    4.3198   -0.9827   -0.0004 H   0  0  0  0  0  0  0  0  0  0  0  0
   -3.3405    2.1331   -0.0003 H   0  0  0  0  0  0  0  0  0  0  0  0
    2.8871   -2.9806   -0.0001 H   0  0  0  0  0  0  0  0  0  0  0  0
    4.6328    1.2673   -0.0011 H   0  0  0  0  0  0  0  0  0  0  0  0
    3.4297    2.1852   -0.8977 H   0  0  0  0  0  0  0  0  0  0  0  0
    3.4303    2.1868    0.8946 H   0  0  0  0  0  0  0  0  0  0  0  0
   -4.0261   -2.0852   -0.0003 H   0  0  0  0  0  0  0  0  0  0  0  0
   -4.8975    0.2345   -0.0007 H   0  0  0  0  0  0  0  0  0  0  0  0
  1  2  1  0  0  0  0
  1  3  1  0  0  0  0
  1  8  2  0  0  0  0
  2  5  2  0  0  0  0
  2  6  1  0  0  0  0
  3  4  1  0  0  0  0
  3  9  2  0  0  0  0
  4  7  1  0  0  0  0
  4 11  2  0  0  0  0
  5 10  1  0  0  0  0
  5 13  1  0  0  0  0
  6  7  2  0  0  0  0
  6 16  1  0  0  0  0
  7 17  1  0  0  0  0
  8 12  1  0  0  0  0
  8 18  1  0  0  0  0
  9 14  1  0  0  0  0
  9 19  1  0  0  0  0
 10 12  2  0  0  0  0
 10 20  1  0  0  0  0
 11 15  1  0  0  0  0
 11 21  1  0  0  0  0
 12 22  1  0  0  0  0
 13 23  1  0  0  0  0
 13 24  1  0  0  0  0
 13 25  1  0  0  0  0
 14 15  2  0  0  0  0
 14 26  1  0  0  0  0
 15 27  1  0  0  0  0
M  END
> <PUBCHEM_COMPOUND_CID>
13257

> <PUBCHEM_CONFORMER_RMSD>
0.4

> <PUBCHEM_CONFORMER_DIVERSEORDER>
1

> <PUBCHEM_MMFF94_PARTIAL_CHARGES>
20
10 -0.15
11 -0.15
12 -0.15
13 0.14
14 -0.15
15 -0.15
16 0.15
17 0.15
18 0.15
19 0.15
20 0.15
21 0.15
22 0.15
26 0.15
27 0.15
5 -0.14
6 -0.15
7 -0.15
8 -0.15
9 -0.15

> <PUBCHEM_EFFECTIVE_ROTOR_COUNT>
0

> <PUBCHEM_PHARMACOPHORE_FEATURES>
3
6 1 2 3 4 6 7 rings
6 1 2 5 8 10 12 rings
6 3 4 9 11 14 15 rings

> <PUBCHEM_HEAVY_ATOM_COUNT>
15

> <PUBCHEM_ATOM_DEF_STEREO_COUNT>
0

> <PUBCHEM_ATOM_UDEF_STEREO_COUNT>
0

> <PUBCHEM_BOND_DEF_STEREO_COUNT>
0

> <PUBCHEM_BOND_UDEF_STEREO_COUNT>
0

> <PUBCHEM_ISOTOPIC_ATOM_COUNT>
0

> <PUBCHEM_COMPONENT_COUNT>
1

> <PUBCHEM_CACTVS_TAUTO_COUNT>
1

> <PUBCHEM_CONFORMER_ID>
000033C900000001

> <PUBCHEM_MMFF94_ENERGY>
53.2774

> <PUBCHEM_FEATURE_SELFOVERLAP>
15.272

> <PUBCHEM_SHAPE_FINGERPRINT>
10411042 1 15600610788389536429
10608611 8 18411985792520700053
10967382 1 18338797814561188806
10980938 120 18410292493169081042
11132069 177 18410863152509664608
11471102 20 18411142428621290781
11806522 49 18266463109660889831
12032990 46 18410568509200257891
12382932 28 18408886247772119627
13140716 1 18338796839593134995
13221675 6 18409730651274998119
13296908 3 18410854377939042375
13380535 76 18341614763525845242
13897977 150 18410296895405207316
14144814 61 18410292519007398259
14325111 11 18410855460128304705
14576447 43 17971769782834208207
15196674 1 18410575084921626215
15219456 202 18411983571964260877
15442244 35 18193556894198369978
15536298 74 18334294275464254622
15775835 57 18261670385355778182
16945 1 18122625217268174758
18186145 218 17775005721211720999
193761 8 17978511158626312420
19591789 44 16036876462934621421
200 152 18113909221787408943
20201158 50 18412826880424617419
20588541 1 18341329994161311041
20645477 70 18335987549109516631
21267235 1 18410283735636117775
21501502 16 18337670913926979297
221490 88 18412254047841521594
22721475 48 18410570729613726539
2334 1 18410856551081639906
23402539 116 18336839653177410094
23463225 33 18411701006065857070
23559900 14 18264777734634922610
2748010 2 18410575106169616046
3312278 4 18409444761156329289
335352 9 18122344850287525373
34934 24 18409175385123473493
5104073 3 18411136943768687035
528886 8 18410016498433353794
53812653 166 18261959539897830480
7364860 26 18334575772079416542
8809292 202 18272082816321690483
9709674 26 18410289228830899550

> <PUBCHEM_SHAPE_MULTIPOLES>
308.69
6.07
2.27
0.62
0.98
0.01
0
-0.31
0
-0.7
0
0
0
0

> <PUBCHEM_SHAPE_SELFOVERLAP>
695.34

> <PUBCHEM_SHAPE_VOLUME>
151

> <PUBCHEM_COORDINATE_TYPE>
2
5
10

$$$$

