47205589
  -OEChem-06241222593D

 43 43  0     1  0  0  0  0  0999 V2000
    0.9331   -0.3060    2.3454 O   0  0  0  0  0  0  0  0  0  0  0  0
   -1.5279    1.4268    1.9510 O   0  0  0  0  0  0  0  0  0  0  0  0
   -4.3772   -1.0622   -1.3607 O   0  0  0  0  0  0  0  0  0  0  0  0
    1.2908    1.3285    0.6969 N   0  0  0  0  0  0  0  0  0  0  0  0
   -1.3583   -0.2434    0.2797 N   0  0  0  0  0  0  0  0  0  0  0  0
   -3.0107   -1.2379   -1.1796 N   0  0  0  0  0  0  0  0  0  0  0  0
    3.3866    1.0241   -0.6189 C   0  0  1  0  0  0  0  0  0  0  0  0
    3.1150   -0.4315   -1.0682 C   0  0  0  0  0  0  0  0  0  0  0  0
    2.9772    1.9829   -1.7611 C   0  0  0  0  0  0  0  0  0  0  0  0
    2.7271    1.3800    0.7251 C   0  0  0  0  0  0  0  0  0  0  0  0
    3.5260   -1.5339   -0.0851 C   0  0  0  0  0  0  0  0  0  0  0  0
    3.3111   -2.9468   -0.6279 C   0  0  0  0  0  0  0  0  0  0  0  0
    3.2866    3.4466   -1.4795 C   0  0  0  0  0  0  0  0  0  0  0  0
    3.6397   -3.9990    0.4204 C   0  0  0  0  0  0  0  0  0  0  0  0
    0.5488    0.4938    1.5073 C   0  0  0  0  0  0  0  0  0  0  0  0
   -0.9270    0.6112    1.2719 C   0  0  0  0  0  0  0  0  0  0  0  0
   -2.6774   -0.3806   -0.2105 C   0  0  0  0  0  0  0  0  0  0  0  0
   -3.7813    0.3554    0.2537 C   0  0  0  0  0  0  0  0  0  0  0  0
   -4.8245   -0.1110   -0.5016 C   0  0  0  0  0  0  0  0  0  0  0  0
   -6.2576    0.2028   -0.5584 C   0  0  0  0  0  0  0  0  0  0  0  0
    4.4717    1.1230   -0.4781 H   0  0  0  0  0  0  0  0  0  0  0  0
    2.0472   -0.5476   -1.2958 H   0  0  0  0  0  0  0  0  0  0  0  0
    3.6463   -0.6057   -2.0134 H   0  0  0  0  0  0  0  0  0  0  0  0
    1.9095    1.8781   -1.9876 H   0  0  0  0  0  0  0  0  0  0  0  0
    3.5155    1.6941   -2.6729 H   0  0  0  0  0  0  0  0  0  0  0  0
    3.1047    0.7252    1.5176 H   0  0  0  0  0  0  0  0  0  0  0  0
    2.9991    2.3969    1.0264 H   0  0  0  0  0  0  0  0  0  0  0  0
    4.5830   -1.4041    0.1774 H   0  0  0  0  0  0  0  0  0  0  0  0
    2.9536   -1.4289    0.8422 H   0  0  0  0  0  0  0  0  0  0  0  0
    3.9386   -3.1041   -1.5126 H   0  0  0  0  0  0  0  0  0  0  0  0
    2.2682   -3.0684   -0.9428 H   0  0  0  0  0  0  0  0  0  0  0  0
    4.3338    3.5796   -1.1905 H   0  0  0  0  0  0  0  0  0  0  0  0
    3.1049    4.0461   -2.3775 H   0  0  0  0  0  0  0  0  0  0  0  0
    2.6505    3.8482   -0.6855 H   0  0  0  0  0  0  0  0  0  0  0  0
    0.8033    1.9650    0.0730 H   0  0  0  0  0  0  0  0  0  0  0  0
    2.9999   -3.8886    1.3018 H   0  0  0  0  0  0  0  0  0  0  0  0
    3.4839   -5.0022    0.0115 H   0  0  0  0  0  0  0  0  0  0  0  0
    4.6835   -3.9206    0.7407 H   0  0  0  0  0  0  0  0  0  0  0  0
   -0.6817   -0.8528   -0.1734 H   0  0  0  0  0  0  0  0  0  0  0  0
   -3.8395    1.1149    1.0186 H   0  0  0  0  0  0  0  0  0  0  0  0
   -6.5333    0.5639   -1.5541 H   0  0  0  0  0  0  0  0  0  0  0  0
   -6.8554   -0.6867   -0.3372 H   0  0  0  0  0  0  0  0  0  0  0  0
   -6.5216    0.9777    0.1680 H   0  0  0  0  0  0  0  0  0  0  0  0
  1 15  2  0  0  0  0
  2 16  2  0  0  0  0
  3  6  1  0  0  0  0
  3 19  1  0  0  0  0
  4 10  1  0  0  0  0
  4 15  1  0  0  0  0
  4 35  1  0  0  0  0
  5 16  1  0  0  0  0
  5 17  1  0  0  0  0
  5 39  1  0  0  0  0
  6 17  2  0  0  0  0
  7  8  1  0  0  0  0
  7  9  1  0  0  0  0
  7 10  1  0  0  0  0
  7 21  1  0  0  0  0
  8 11  1  0  0  0  0
  8 22  1  0  0  0  0
  8 23  1  0  0  0  0
  9 13  1  0  0  0  0
  9 24  1  0  0  0  0
  9 25  1  0  0  0  0
 10 26  1  0  0  0  0
 10 27  1  0  0  0  0
 11 12  1  0  0  0  0
 11 28  1  0  0  0  0
 11 29  1  0  0  0  0
 12 14  1  0  0  0  0
 12 30  1  0  0  0  0
 12 31  1  0  0  0  0
 13 32  1  0  0  0  0
 13 33  1  0  0  0  0
 13 34  1  0  0  0  0
 14 36  1  0  0  0  0
 14 37  1  0  0  0  0
 14 38  1  0  0  0  0
 15 16  1  0  0  0  0
 17 18  1  0  0  0  0
 18 19  2  0  0  0  0
 18 40  1  0  0  0  0
 19 20  1  0  0  0  0
 20 41  1  0  0  0  0
 20 42  1  0  0  0  0
 20 43  1  0  0  0  0
M  END
> <PUBCHEM_COMPOUND_CID>
47205589

> <PUBCHEM_CONFORMER_RMSD>
1

> <PUBCHEM_CONFORMER_DIVERSEORDER>
1
81
40
59
57
88
93
77
6
108
60
90
9
103
79
80
54
32
72
66
52
11
39
17
75
7
44
102
65
41
46
56
42
24
16
107
63
67
100
51
62
92
43
87
83
20
3
21
28
26
86
50
33
105
15
101
64
34
70
12
8
69
48
22
38
68
96
49
53
27
10
73
4
25
76
36
104
106
13
78
61
94
35
19
14
45
71
58
74
5
30
29
18
82
37
84
31
23
99
91
2
89
97
55
47
98
95
85

> <PUBCHEM_MMFF94_PARTIAL_CHARGES>
16
1 -0.57
10 0.3
15 0.63
16 0.63
17 0.35
18 -0.15
19 -0.04
2 -0.57
20 0.18
3 -0.02
35 0.37
39 0.37
4 -0.73
40 0.15
5 -0.49
6 -0.41

> <PUBCHEM_EFFECTIVE_ROTOR_COUNT>
10

> <PUBCHEM_PHARMACOPHORE_FEATURES>
8
1 1 acceptor
1 13 hydrophobe
1 14 hydrophobe
1 2 acceptor
1 4 donor
1 5 donor
5 3 6 17 18 19 rings
5 7 8 9 11 12 hydrophobe

> <PUBCHEM_HEAVY_ATOM_COUNT>
20

> <PUBCHEM_ATOM_DEF_STEREO_COUNT>
0

> <PUBCHEM_ATOM_UDEF_STEREO_COUNT>
1

> <PUBCHEM_BOND_DEF_STEREO_COUNT>
0

> <PUBCHEM_BOND_UDEF_STEREO_COUNT>
0

> <PUBCHEM_ISOTOPIC_ATOM_COUNT>
0

> <PUBCHEM_COMPONENT_COUNT>
1

> <PUBCHEM_CACTVS_TAUTO_COUNT>
16

> <PUBCHEM_CONFORMER_ID>
02D04CD500000001

> <PUBCHEM_MMFF94_ENERGY>
13.952

> <PUBCHEM_FEATURE_SELFOVERLAP>
40.596

> <PUBCHEM_SHAPE_FINGERPRINT>
10042902 136 17535734528409734038
10378564 45 18200323246175276453
11069576 57 18186802513023682582
11796584 16 16805603621314599957
12403259 118 11455629659729406551
12670545 2 17530683203769769423
12788726 201 17458610233912510673
14252887 29 13912595044422416392
15003188 33 18339641247639368469
15183329 4 17313100870136915369
15342816 4 17458345199870408377
15806764 133 16342265074309417489
15842332 3 17970603355373224448
1813 80 18197227055580577970
18186145 218 16988562372808132805
20369508 70 17095531677336237529
20388580 30 18337675333728298146
20626108 58 17896320384265651122
20645477 70 18201429268894338786
21304303 282 17473270873561549812
23559900 14 18408609140788016746
238 59 18271227340978490114
3004659 81 18114177570521318751
31174 14 7420956326946532864
312425 83 18202008728665168605
34797466 226 17846217718653022079
46194498 28 18131070445901127414
5281201 14 18202003265282151485
633830 44 17918276450435523945
6438754 60 17771632531428939674
8988823 20 7853576786144823721
960060 61 18114179696830888469

> <PUBCHEM_SHAPE_MULTIPOLES>
379.04
11.19
3.4
1.77
16.05
1.63
0.62
2.43
-5.09
-7.82
-1.13
-0.19
-0.62
-1.63

> <PUBCHEM_SHAPE_SELFOVERLAP>
746.966

> <PUBCHEM_SHAPE_VOLUME>
225.2

> <PUBCHEM_COORDINATE_TYPE>
2
5
10

$$$$

