17395797
  -OEChem-06241222522D

 37 39  0     0  0  0  0  0  0999 V2000
    2.0000   -1.5181    0.0000 Cl  0  0  0  0  0  0  0  0  0  0  0  0
    3.6636   -2.1567    0.0000 S   0  0  0  0  0  0  0  0  0  0  0  0
   12.3714    0.7500    0.0000 O   0  5  0  0  0  0  0  0  0  0  0  0
   11.5054    2.2500    0.0000 O   0  0  0  0  0  0  0  0  0  0  0  0
    6.3092   -1.7500    0.0000 N   0  0  0  0  0  0  0  0  0  0  0  0
    8.0413   -0.7500    0.0000 N   0  0  0  0  0  0  0  0  0  0  0  0
    9.7734   -0.7500    0.0000 N   0  0  0  0  0  0  0  0  0  0  0  0
   11.5054    1.2500    0.0000 N   0  3  0  0  0  0  0  0  0  0  0  0
    7.1753   -2.2500    0.0000 C   0  0  0  0  0  0  0  0  0  0  0  0
    6.3092   -0.7500    0.0000 C   0  0  0  0  0  0  0  0  0  0  0  0
    8.0413   -1.7500    0.0000 C   0  0  0  0  0  0  0  0  0  0  0  0
    7.1753   -0.2500    0.0000 C   0  0  0  0  0  0  0  0  0  0  0  0
    5.4432   -2.2500    0.0000 C   0  0  0  0  0  0  0  0  0  0  0  0
    8.9073   -0.2500    0.0000 C   0  0  0  0  0  0  0  0  0  0  0  0
    4.5772   -1.7500    0.0000 C   0  0  0  0  0  0  0  0  0  0  0  0
    8.9073    0.7500    0.0000 C   0  0  0  0  0  0  0  0  0  0  0  0
    4.4727   -0.7555    0.0000 C   0  0  0  0  0  0  0  0  0  0  0  0
    9.7734    1.2500    0.0000 C   0  0  0  0  0  0  0  0  0  0  0  0
   10.6394   -0.2500    0.0000 C   0  0  0  0  0  0  0  0  0  0  0  0
    3.4945   -0.5476    0.0000 C   0  0  0  0  0  0  0  0  0  0  0  0
   10.6394    0.7500    0.0000 C   0  0  0  0  0  0  0  0  0  0  0  0
    2.9945   -1.4136    0.0000 C   0  0  0  0  0  0  0  0  0  0  0  0
    6.7768   -2.7250    0.0000 H   0  0  0  0  0  0  0  0  0  0  0  0
    7.5738   -2.7250    0.0000 H   0  0  0  0  0  0  0  0  0  0  0  0
    6.0972   -0.1674    0.0000 H   0  0  0  0  0  0  0  0  0  0  0  0
    5.6987   -0.8577    0.0000 H   0  0  0  0  0  0  0  0  0  0  0  0
    8.2534   -2.3326    0.0000 H   0  0  0  0  0  0  0  0  0  0  0  0
    8.6519   -1.6423    0.0000 H   0  0  0  0  0  0  0  0  0  0  0  0
    7.5738    0.2249    0.0000 H   0  0  0  0  0  0  0  0  0  0  0  0
    6.7768    0.2249    0.0000 H   0  0  0  0  0  0  0  0  0  0  0  0
    5.0447   -2.7250    0.0000 H   0  0  0  0  0  0  0  0  0  0  0  0
    5.8418   -2.7250    0.0000 H   0  0  0  0  0  0  0  0  0  0  0  0
    8.3704    1.0600    0.0000 H   0  0  0  0  0  0  0  0  0  0  0  0
    4.9334   -0.3406    0.0000 H   0  0  0  0  0  0  0  0  0  0  0  0
    9.7734    1.8700    0.0000 H   0  0  0  0  0  0  0  0  0  0  0  0
   11.1763   -0.5600    0.0000 H   0  0  0  0  0  0  0  0  0  0  0  0
    3.2424    0.0188    0.0000 H   0  0  0  0  0  0  0  0  0  0  0  0
  1 22  1  0  0  0  0
  2 15  1  0  0  0  0
  2 22  1  0  0  0  0
  3  8  1  0  0  0  0
  4  8  2  0  0  0  0
  5  9  1  0  0  0  0
  5 10  1  0  0  0  0
  5 13  1  0  0  0  0
  6 11  1  0  0  0  0
  6 12  1  0  0  0  0
  6 14  1  0  0  0  0
  7 14  2  0  0  0  0
  7 19  1  0  0  0  0
  8 21  1  0  0  0  0
  9 11  1  0  0  0  0
  9 23  1  0  0  0  0
  9 24  1  0  0  0  0
 10 12  1  0  0  0  0
 10 25  1  0  0  0  0
 10 26  1  0  0  0  0
 11 27  1  0  0  0  0
 11 28  1  0  0  0  0
 12 29  1  0  0  0  0
 12 30  1  0  0  0  0
 13 15  1  0  0  0  0
 13 31  1  0  0  0  0
 13 32  1  0  0  0  0
 14 16  1  0  0  0  0
 15 17  2  0  0  0  0
 16 18  2  0  0  0  0
 16 33  1  0  0  0  0
 17 20  1  0  0  0  0
 17 34  1  0  0  0  0
 18 21  1  0  0  0  0
 18 35  1  0  0  0  0
 19 21  2  0  0  0  0
 19 36  1  0  0  0  0
 20 22  2  0  0  0  0
 20 37  1  0  0  0  0
M  CHG  2   3  -1   8   1
M  END
> <PUBCHEM_COMPOUND_CID>
17395797

> <PUBCHEM_COMPOUND_CANONICALIZED>
1

> <PUBCHEM_CACTVS_COMPLEXITY>
390

> <PUBCHEM_CACTVS_HBOND_ACCEPTOR>
6

> <PUBCHEM_CACTVS_HBOND_DONOR>
0

> <PUBCHEM_CACTVS_ROTATABLE_BOND>
3

> <PUBCHEM_CACTVS_SUBSKEYS>
AAADccBzsABEAAAAAAAAAAAAAAAAASAAAAAsWAAAAAAAAAAB4AAAHAYEAAAACArBUiQ98ZMYUAilADZnZwCDgKkxHzBp2Dg4dpqIYOLhm5GUIAhogILoyCYQAAAAAAAAAAAAAAAAAAAAAAAAAAAAAAAAAA==

> <PUBCHEM_IUPAC_OPENEYE_NAME>
1-[(5-chloro-2-thienyl)methyl]-4-(5-nitro-2-pyridyl)piperazine

> <PUBCHEM_IUPAC_CAS_NAME>
1-[(5-chloro-2-thiophenyl)methyl]-4-(5-nitro-2-pyridinyl)piperazine

> <PUBCHEM_IUPAC_NAME>
1-[(5-chlorothiophen-2-yl)methyl]-4-(5-nitropyridin-2-yl)piperazine

> <PUBCHEM_IUPAC_SYSTEMATIC_NAME>
1-[(5-chloranylthiophen-2-yl)methyl]-4-(5-nitropyridin-2-yl)piperazine

> <PUBCHEM_IUPAC_TRADITIONAL_NAME>
1-[(5-chloro-2-thienyl)methyl]-4-(5-nitro-2-pyridyl)piperazine

> <PUBCHEM_IUPAC_INCHI>
InChI=1S/C14H15ClN4O2S/c15-13-3-2-12(22-13)10-17-5-7-18(8-6-17)14-4-1-11(9-16-14)19(20)21/h1-4,9H,5-8,10H2

> <PUBCHEM_IUPAC_INCHIKEY>
TVPVXXZSVFNBQH-UHFFFAOYSA-N

> <PUBCHEM_XLOGP3_AA>
3.1

> <PUBCHEM_EXACT_MASS>
338.060424

> <PUBCHEM_MOLECULAR_FORMULA>
C14H15ClN4O2S

> <PUBCHEM_MOLECULAR_WEIGHT>
338.8125

> <PUBCHEM_OPENEYE_CAN_SMILES>
C1CN(CCN1CC2=CC=C(S2)Cl)C3=NC=C(C=C3)[N+](=O)[O-]

> <PUBCHEM_OPENEYE_ISO_SMILES>
C1CN(CCN1CC2=CC=C(S2)Cl)C3=NC=C(C=C3)[N+](=O)[O-]

> <PUBCHEM_CACTVS_TPSA>
93.4

> <PUBCHEM_MONOISOTOPIC_WEIGHT>
338.060424

> <PUBCHEM_TOTAL_CHARGE>
0

> <PUBCHEM_HEAVY_ATOM_COUNT>
22

> <PUBCHEM_ATOM_DEF_STEREO_COUNT>
0

> <PUBCHEM_ATOM_UDEF_STEREO_COUNT>
0

> <PUBCHEM_BOND_DEF_STEREO_COUNT>
0

> <PUBCHEM_BOND_UDEF_STEREO_COUNT>
0

> <PUBCHEM_ISOTOPIC_ATOM_COUNT>
0

> <PUBCHEM_COMPONENT_COUNT>
1

> <PUBCHEM_CACTVS_TAUTO_COUNT>
1

> <PUBCHEM_COORDINATE_TYPE>
1
5
255

> <PUBCHEM_BONDANNOTATIONS>
14  16  8
15  17  8
16  18  8
17  20  8
18  21  8
19  21  8
2  15  8
2  22  8
20  22  8
7  14  8
7  19  8

$$$$

