10989
  -OEChem-06261205123D

 33 32  0     0  0  0  0  0  0999 V2000
   -0.0006    0.0000    0.7838 O   0  0  0  0  0  0  0  0  0  0  0  0
    3.7331   -0.0271    0.1524 C   0  0  0  0  0  0  0  0  0  0  0  0
   -3.7330    0.0271    0.1523 C   0  0  0  0  0  0  0  0  0  0  0  0
    2.3910   -0.0305    0.9021 C   0  0  0  0  0  0  0  0  0  0  0  0
   -2.3911    0.0306    0.9023 C   0  0  0  0  0  0  0  0  0  0  0  0
    1.1750   -0.0150   -0.0163 C   0  0  0  0  0  0  0  0  0  0  0  0
   -1.1748    0.0150   -0.0159 C   0  0  0  0  0  0  0  0  0  0  0  0
    3.8153   -1.2442   -0.7717 C   0  0  0  0  0  0  0  0  0  0  0  0
    3.9439    1.2523   -0.6585 C   0  0  0  0  0  0  0  0  0  0  0  0
   -3.8151    1.2442   -0.7719 C   0  0  0  0  0  0  0  0  0  0  0  0
   -3.9437   -1.2523   -0.6587 C   0  0  0  0  0  0  0  0  0  0  0  0
    4.5346   -0.0993    0.8980 H   0  0  0  0  0  0  0  0  0  0  0  0
   -4.5347    0.0993    0.8977 H   0  0  0  0  0  0  0  0  0  0  0  0
    2.3439    0.8326    1.5786 H   0  0  0  0  0  0  0  0  0  0  0  0
    2.3342   -0.9118    1.5545 H   0  0  0  0  0  0  0  0  0  0  0  0
   -2.3442   -0.8325    1.5789 H   0  0  0  0  0  0  0  0  0  0  0  0
   -2.3344    0.9119    1.5546 H   0  0  0  0  0  0  0  0  0  0  0  0
    1.1810    0.8757   -0.6528 H   0  0  0  0  0  0  0  0  0  0  0  0
    1.1518   -0.9074   -0.6498 H   0  0  0  0  0  0  0  0  0  0  0  0
   -1.1813   -0.8757   -0.6525 H   0  0  0  0  0  0  0  0  0  0  0  0
   -1.1520    0.9072   -0.6495 H   0  0  0  0  0  0  0  0  0  0  0  0
    4.8310   -1.3431   -1.1711 H   0  0  0  0  0  0  0  0  0  0  0  0
    3.1405   -1.1654   -1.6298 H   0  0  0  0  0  0  0  0  0  0  0  0
    3.5843   -2.1677   -0.2304 H   0  0  0  0  0  0  0  0  0  0  0  0
    3.2393    1.3367   -1.4916 H   0  0  0  0  0  0  0  0  0  0  0  0
    4.9545    1.2720   -1.0813 H   0  0  0  0  0  0  0  0  0  0  0  0
    3.8318    2.1372   -0.0235 H   0  0  0  0  0  0  0  0  0  0  0  0
   -4.8307    1.3431   -1.1715 H   0  0  0  0  0  0  0  0  0  0  0  0
   -3.1401    1.1654   -1.6300 H   0  0  0  0  0  0  0  0  0  0  0  0
   -3.5841    2.1677   -0.2305 H   0  0  0  0  0  0  0  0  0  0  0  0
   -3.2390   -1.3366   -1.4917 H   0  0  0  0  0  0  0  0  0  0  0  0
   -4.9542   -1.2720   -1.0816 H   0  0  0  0  0  0  0  0  0  0  0  0
   -3.8316   -2.1372   -0.0237 H   0  0  0  0  0  0  0  0  0  0  0  0
  1  6  1  0  0  0  0
  1  7  1  0  0  0  0
  2  4  1  0  0  0  0
  2  8  1  0  0  0  0
  2  9  1  0  0  0  0
  2 12  1  0  0  0  0
  3  5  1  0  0  0  0
  3 10  1  0  0  0  0
  3 11  1  0  0  0  0
  3 13  1  0  0  0  0
  4  6  1  0  0  0  0
  4 14  1  0  0  0  0
  4 15  1  0  0  0  0
  5  7  1  0  0  0  0
  5 16  1  0  0  0  0
  5 17  1  0  0  0  0
  6 18  1  0  0  0  0
  6 19  1  0  0  0  0
  7 20  1  0  0  0  0
  7 21  1  0  0  0  0
  8 22  1  0  0  0  0
  8 23  1  0  0  0  0
  8 24  1  0  0  0  0
  9 25  1  0  0  0  0
  9 26  1  0  0  0  0
  9 27  1  0  0  0  0
 10 28  1  0  0  0  0
 10 29  1  0  0  0  0
 10 30  1  0  0  0  0
 11 31  1  0  0  0  0
 11 32  1  0  0  0  0
 11 33  1  0  0  0  0
M  END
> <PUBCHEM_COMPOUND_CID>
10989

> <PUBCHEM_CONFORMER_RMSD>
0.6

> <PUBCHEM_CONFORMER_DIVERSEORDER>
1
12
9
13
6
8
10
11
14
7
15
5
2
4
3

> <PUBCHEM_MMFF94_PARTIAL_CHARGES>
3
1 -0.56
6 0.28
7 0.28

> <PUBCHEM_EFFECTIVE_ROTOR_COUNT>
6

> <PUBCHEM_PHARMACOPHORE_FEATURES>
3
1 1 acceptor
3 2 8 9 hydrophobe
3 3 10 11 hydrophobe

> <PUBCHEM_HEAVY_ATOM_COUNT>
11

> <PUBCHEM_ATOM_DEF_STEREO_COUNT>
0

> <PUBCHEM_ATOM_UDEF_STEREO_COUNT>
0

> <PUBCHEM_BOND_DEF_STEREO_COUNT>
0

> <PUBCHEM_BOND_UDEF_STEREO_COUNT>
0

> <PUBCHEM_ISOTOPIC_ATOM_COUNT>
0

> <PUBCHEM_COMPONENT_COUNT>
1

> <PUBCHEM_CACTVS_TAUTO_COUNT>
1

> <PUBCHEM_CONFORMER_ID>
00002AED00000001

> <PUBCHEM_MMFF94_ENERGY>
13.509

> <PUBCHEM_FEATURE_SELFOVERLAP>
15.223

> <PUBCHEM_SHAPE_FINGERPRINT>
10680689 15 18272364283082545099
11062470 55 16343703235475908881
11543360 7 18410856512395149368
11987891 27 16732704982111222884
11987891 38 17676483960361762158
12616999 72 18040991826730940766
14123260 362 16630236021804561933
14251718 22 18261111816480008404
177051 138 5112008331013073400
17834072 32 17487629739110863701
17834072 33 18334857165246072364
17834076 25 16487253287459983112
18186145 218 16917066667977142544
190213 19 18040719172983981738
1986462 14 18259704501910587559
20281475 54 17822005423709095835
20432913 95 5256407201378078468
20645477 70 18260823843492618406
20671657 53 17603303739171522081
20828058 44 7565342041810996309
22485316 2 18113339716949080538
22646028 1 15647058182839205964
23402539 116 18343309175595376956
23402655 69 18411980282330795436
53428517 29 9079123262791206475
633830 44 17988923396328914366

> <PUBCHEM_SHAPE_MULTIPOLES>
220.51
10.15
1.19
1
0
0
-0.04
0
2.46
0
0.41
0
0
0.06

> <PUBCHEM_SHAPE_SELFOVERLAP>
395.13

> <PUBCHEM_SHAPE_VOLUME>
144.2

> <PUBCHEM_COORDINATE_TYPE>
2
5
10

$$$$

