17396011
  -OEChem-06241222533D

 51 53  0     1  0  0  0  0  0999 V2000
    1.6290   -2.3817    0.1852 S   0  0  0  0  0  0  0  0  0  0  0  0
    1.4762   -3.0623   -1.0943 O   0  0  0  0  0  0  0  0  0  0  0  0
    1.7321   -3.1717    1.4051 O   0  0  0  0  0  0  0  0  0  0  0  0
    0.3481   -1.2646    0.3658 N   0  0  0  0  0  0  0  0  0  0  0  0
   -6.2574    0.6680    0.0604 N   0  0  0  0  0  0  0  0  0  0  0  0
   -6.4368    1.1691    1.2919 N   0  0  0  0  0  0  0  0  0  0  0  0
   -7.5475   -0.8121    1.0197 N   0  0  0  0  0  0  0  0  0  0  0  0
    6.4794    1.2309   -0.0957 C   0  0  1  0  0  0  0  0  0  0  0  0
    5.2622    0.3250   -0.0248 C   0  0  0  0  0  0  0  0  0  0  0  0
    6.3050    2.5490    0.6860 C   0  0  0  0  0  0  0  0  0  0  0  0
    7.7299    0.4927    0.3976 C   0  0  0  0  0  0  0  0  0  0  0  0
    3.0280   -1.3406    0.1047 C   0  0  0  0  0  0  0  0  0  0  0  0
    4.8189   -0.1527    1.2086 C   0  0  0  0  0  0  0  0  0  0  0  0
    4.5884   -0.0302   -1.1933 C   0  0  0  0  0  0  0  0  0  0  0  0
    3.7018   -0.9855    1.2733 C   0  0  0  0  0  0  0  0  0  0  0  0
    3.4713   -0.8630   -1.1287 C   0  0  0  0  0  0  0  0  0  0  0  0
    5.1396    3.3926    0.1835 C   0  0  0  0  0  0  0  0  0  0  0  0
    0.1117   -0.2482   -0.6695 C   0  0  0  0  0  0  0  0  0  0  0  0
   -1.3296    0.1726   -0.7359 C   0  0  0  0  0  0  0  0  0  0  0  0
   -4.0043    0.9555   -0.8601 C   0  0  0  0  0  0  0  0  0  0  0  0
   -2.2162   -0.5044   -1.5733 C   0  0  0  0  0  0  0  0  0  0  0  0
   -1.7803    1.2410    0.0394 C   0  0  0  0  0  0  0  0  0  0  0  0
   -5.4341    1.3744   -0.9266 C   0  0  0  0  0  0  0  0  0  0  0  0
   -3.5535   -0.1129   -1.6355 C   0  0  0  0  0  0  0  0  0  0  0  0
   -3.1176    1.6325   -0.0228 C   0  0  0  0  0  0  0  0  0  0  0  0
   -6.9205   -0.5096   -0.0932 C   0  0  0  0  0  0  0  0  0  0  0  0
   -7.2239    0.2365    1.8324 C   0  0  0  0  0  0  0  0  0  0  0  0
    6.6590    1.4933   -1.1474 H   0  0  0  0  0  0  0  0  0  0  0  0
    7.2231    3.1428    0.5933 H   0  0  0  0  0  0  0  0  0  0  0  0
    6.1675    2.3553    1.7566 H   0  0  0  0  0  0  0  0  0  0  0  0
    7.6712    0.2478    1.4638 H   0  0  0  0  0  0  0  0  0  0  0  0
    7.8755   -0.4436   -0.1530 H   0  0  0  0  0  0  0  0  0  0  0  0
    8.6234    1.1087    0.2486 H   0  0  0  0  0  0  0  0  0  0  0  0
    5.3277    0.1130    2.1310 H   0  0  0  0  0  0  0  0  0  0  0  0
    4.9208    0.3348   -2.1613 H   0  0  0  0  0  0  0  0  0  0  0  0
    3.3699   -1.3394    2.2453 H   0  0  0  0  0  0  0  0  0  0  0  0
    2.9604   -1.1237   -2.0512 H   0  0  0  0  0  0  0  0  0  0  0  0
    5.2389    3.6009   -0.8865 H   0  0  0  0  0  0  0  0  0  0  0  0
    5.1158    4.3506    0.7130 H   0  0  0  0  0  0  0  0  0  0  0  0
    4.1788    2.8975    0.3527 H   0  0  0  0  0  0  0  0  0  0  0  0
    0.4162   -0.6221   -1.6535 H   0  0  0  0  0  0  0  0  0  0  0  0
    0.7378    0.6263   -0.4562 H   0  0  0  0  0  0  0  0  0  0  0  0
    0.0664   -1.0068    1.3201 H   0  0  0  0  0  0  0  0  0  0  0  0
   -1.8773   -1.3396   -2.1805 H   0  0  0  0  0  0  0  0  0  0  0  0
   -1.0996    1.7750    0.6971 H   0  0  0  0  0  0  0  0  0  0  0  0
   -5.8673    1.1700   -1.9130 H   0  0  0  0  0  0  0  0  0  0  0  0
   -5.5523    2.4491   -0.7430 H   0  0  0  0  0  0  0  0  0  0  0  0
   -4.2343   -0.6494   -2.2912 H   0  0  0  0  0  0  0  0  0  0  0  0
   -3.4564    2.4657    0.5871 H   0  0  0  0  0  0  0  0  0  0  0  0
   -6.9140   -1.0870   -1.0069 H   0  0  0  0  0  0  0  0  0  0  0  0
   -7.5730    0.3239    2.8504 H   0  0  0  0  0  0  0  0  0  0  0  0
  1  2  2  0  0  0  0
  1  3  2  0  0  0  0
  1  4  1  0  0  0  0
  1 12  1  0  0  0  0
  4 18  1  0  0  0  0
  4 43  1  0  0  0  0
  5  6  1  0  0  0  0
  5 23  1  0  0  0  0
  5 26  1  0  0  0  0
  6 27  2  0  0  0  0
  7 26  2  0  0  0  0
  7 27  1  0  0  0  0
  8  9  1  0  0  0  0
  8 10  1  0  0  0  0
  8 11  1  0  0  0  0
  8 28  1  0  0  0  0
  9 13  2  0  0  0  0
  9 14  1  0  0  0  0
 10 17  1  0  0  0  0
 10 29  1  0  0  0  0
 10 30  1  0  0  0  0
 11 31  1  0  0  0  0
 11 32  1  0  0  0  0
 11 33  1  0  0  0  0
 12 15  2  0  0  0  0
 12 16  1  0  0  0  0
 13 15  1  0  0  0  0
 13 34  1  0  0  0  0
 14 16  2  0  0  0  0
 14 35  1  0  0  0  0
 15 36  1  0  0  0  0
 16 37  1  0  0  0  0
 17 38  1  0  0  0  0
 17 39  1  0  0  0  0
 17 40  1  0  0  0  0
 18 19  1  0  0  0  0
 18 41  1  0  0  0  0
 18 42  1  0  0  0  0
 19 21  2  0  0  0  0
 19 22  1  0  0  0  0
 20 23  1  0  0  0  0
 20 24  2  0  0  0  0
 20 25  1  0  0  0  0
 21 24  1  0  0  0  0
 21 44  1  0  0  0  0
 22 25  2  0  0  0  0
 22 45  1  0  0  0  0
 23 46  1  0  0  0  0
 23 47  1  0  0  0  0
 24 48  1  0  0  0  0
 25 49  1  0  0  0  0
 26 50  1  0  0  0  0
 27 51  1  0  0  0  0
M  END
> <PUBCHEM_COMPOUND_CID>
17396011

> <PUBCHEM_CONFORMER_RMSD>
1.2

> <PUBCHEM_CONFORMER_DIVERSEORDER>
1
15
39
63
19
20
7
36
62
18
55
41
58
54
60
49
45
14
44
25
34
37
53
17
22
16
26
35
61
3
6
24
51
46
56
30
5
57
43
23
38
31
29
40
47
11
2
10
59
21
33
48
27
28
9
42
32
50
52
4
8
13
12

> <PUBCHEM_MMFF94_PARTIAL_CHARGES>
35
1 1.45
12 -0.01
13 -0.15
14 -0.15
15 -0.15
16 -0.15
18 0.5
19 -0.14
2 -0.65
20 -0.14
21 -0.15
22 -0.15
23 0.4
24 -0.15
25 -0.15
26 0.04
27 0.37
3 -0.65
34 0.15
35 0.15
36 0.15
37 0.15
4 -0.91
43 0.42
44 0.15
45 0.15
48 0.15
49 0.15
5 0.31
50 0.15
51 0.15
6 -0.71
7 -0.57
8 0.14
9 -0.14

> <PUBCHEM_EFFECTIVE_ROTOR_COUNT>
8

> <PUBCHEM_PHARMACOPHORE_FEATURES>
10
1 11 hydrophobe
1 17 hydrophobe
1 2 acceptor
1 3 acceptor
1 4 donor
3 5 7 26 cation
3 6 7 27 cation
5 5 6 7 26 27 rings
6 19 20 21 22 24 25 rings
6 9 12 13 14 15 16 rings

> <PUBCHEM_HEAVY_ATOM_COUNT>
27

> <PUBCHEM_ATOM_DEF_STEREO_COUNT>
0

> <PUBCHEM_ATOM_UDEF_STEREO_COUNT>
1

> <PUBCHEM_BOND_DEF_STEREO_COUNT>
0

> <PUBCHEM_BOND_UDEF_STEREO_COUNT>
0

> <PUBCHEM_ISOTOPIC_ATOM_COUNT>
0

> <PUBCHEM_COMPONENT_COUNT>
1

> <PUBCHEM_CACTVS_TAUTO_COUNT>
1

> <PUBCHEM_CONFORMER_ID>
0109712B00000001

> <PUBCHEM_MMFF94_ENERGY>
41.6572

> <PUBCHEM_FEATURE_SELFOVERLAP>
53.51

> <PUBCHEM_SHAPE_FINGERPRINT>
10 15 18202565072621141411
10391435 84 17846215528431159179
10674148 151 14923945665399297538
10835480 77 18129670828330417053
10917259 69 8789793345322150171
10981352 41 12895088331600361072
11456790 92 18341343270876297816
11724838 91 17846779598511006478
11796584 16 5328451618894426460
12596602 18 18335697308484122683
12730499 353 18409164454648548190
13914758 101 10952058857641254239
13955234 65 18270123560132772626
14168556 18 18269835320671728331
14251764 18 13326851149995017470
14461889 52 17704066291839183459
146900 427 18411139151313356650
14849402 71 18336264522813444441
15183329 4 6916262923407521055
15188451 53 13470690347245251134
15297060 5 18041002821647258414
15461852 350 14405183979990476467
15475509 8 14490188310845096851
15685185 35 18118401744447216760
17857418 61 11600005470262245452
18608769 82 18409450241708763267
19377110 9 18342460374178174147
20567600 234 16415474935474792830
21033648 29 18267594512011533368
21521721 280 18334856095577526840
21623969 137 18131630110405215099
22149856 69 18058149791750588401
22224240 67 18202002114093915194
23522609 53 17240753000317452225
3014063 24 11167949060813781960
3246875 12 18341331093657290131
3472631 163 18334582317752020556
34797466 226 18040994050949097932
4340502 62 18131349734608082694
437795 51 18409446947263236313
5085150 59 14476957874765323569
5104073 3 18056198214176802849
5109719 28 18412256216494148377
54076057 127 18186794824884879870
54076057 255 16950566592631579451
5911458 16 17676478450193294873
6126387 218 9799693683963469926
9689198 14 17022899047539025699

> <PUBCHEM_SHAPE_MULTIPOLES>
527.83
22.56
2.73
1.46
15.52
0.25
0.09
-10.8
7.12
-4.14
0.42
1.33
0.3
0.28

> <PUBCHEM_SHAPE_SELFOVERLAP>
1102.877

> <PUBCHEM_SHAPE_VOLUME>
300

> <PUBCHEM_COORDINATE_TYPE>
2
5
10

$$$$

