9056
  -OEChem-06261203223D

 42 46  0     0  0  0  0  0  0999 V2000
   -2.8597   -0.2745   -0.0674 C   0  0  0  0  0  0  0  0  0  0  0  0
   -3.5158   -1.6395   -0.1778 C   0  0  0  0  0  0  0  0  0  0  0  0
   -1.4352   -0.1552   -0.0513 C   0  0  0  0  0  0  0  0  0  0  0  0
   -3.6638    0.8775    0.0751 C   0  0  0  0  0  0  0  0  0  0  0  0
   -5.0104   -1.6039   -0.4923 C   0  0  0  0  0  0  0  0  0  0  0  0
   -5.1718    0.8135    0.0754 C   0  0  0  0  0  0  0  0  0  0  0  0
   -5.7144   -0.5779    0.3787 C   0  0  0  0  0  0  0  0  0  0  0  0
    0.8431   -1.0981   -0.1069 C   0  0  0  0  0  0  0  0  0  0  0  0
   -0.8519    1.1287    0.0548 C   0  0  0  0  0  0  0  0  0  0  0  0
    1.4215    0.1828   -0.0376 C   0  0  0  0  0  0  0  0  0  0  0  0
    1.7318   -2.3142   -0.2199 C   0  0  0  0  0  0  0  0  0  0  0  0
   -0.5532   -1.2548   -0.1289 C   0  0  0  0  0  0  0  0  0  0  0  0
    3.0299   -2.1324    0.5671 C   0  0  0  0  0  0  0  0  0  0  0  0
    0.5492    1.2788    0.0572 C   0  0  0  0  0  0  0  0  0  0  0  0
    2.8992    0.3160   -0.0478 C   0  0  0  0  0  0  0  0  0  0  0  0
   -3.0590    2.1343    0.1717 C   0  0  0  0  0  0  0  0  0  0  0  0
    3.6961   -0.8196    0.2320 C   0  0  0  0  0  0  0  0  0  0  0  0
   -1.6733    2.2571    0.1601 C   0  0  0  0  0  0  0  0  0  0  0  0
    3.5616    1.5214   -0.3399 C   0  0  0  0  0  0  0  0  0  0  0  0
    5.0956   -0.7261    0.2556 C   0  0  0  0  0  0  0  0  0  0  0  0
    4.9573    1.6034   -0.3299 C   0  0  0  0  0  0  0  0  0  0  0  0
    5.7230    0.4828   -0.0281 C   0  0  0  0  0  0  0  0  0  0  0  0
   -3.0330   -2.2247   -0.9688 H   0  0  0  0  0  0  0  0  0  0  0  0
   -3.3641   -2.1644    0.7739 H   0  0  0  0  0  0  0  0  0  0  0  0
   -5.1619   -1.3540   -1.5503 H   0  0  0  0  0  0  0  0  0  0  0  0
   -5.4432   -2.5981   -0.3340 H   0  0  0  0  0  0  0  0  0  0  0  0
   -5.5747    1.5141    0.8169 H   0  0  0  0  0  0  0  0  0  0  0  0
   -5.5266    1.1368   -0.9113 H   0  0  0  0  0  0  0  0  0  0  0  0
   -5.5605   -0.8213    1.4375 H   0  0  0  0  0  0  0  0  0  0  0  0
   -6.7944   -0.6012    0.1954 H   0  0  0  0  0  0  0  0  0  0  0  0
    1.2157   -3.2066    0.1533 H   0  0  0  0  0  0  0  0  0  0  0  0
    1.9518   -2.4791   -1.2824 H   0  0  0  0  0  0  0  0  0  0  0  0
   -0.9461   -2.2672   -0.2005 H   0  0  0  0  0  0  0  0  0  0  0  0
    3.6985   -2.9726    0.3456 H   0  0  0  0  0  0  0  0  0  0  0  0
    2.8257   -2.1468    1.6454 H   0  0  0  0  0  0  0  0  0  0  0  0
    0.9552    2.2853    0.1486 H   0  0  0  0  0  0  0  0  0  0  0  0
   -3.6677    3.0313    0.2586 H   0  0  0  0  0  0  0  0  0  0  0  0
   -1.2406    3.2527    0.2399 H   0  0  0  0  0  0  0  0  0  0  0  0
    3.0091    2.4228   -0.5918 H   0  0  0  0  0  0  0  0  0  0  0  0
    5.7014   -1.5968    0.4928 H   0  0  0  0  0  0  0  0  0  0  0  0
    5.4444    2.5472   -0.5583 H   0  0  0  0  0  0  0  0  0  0  0  0
    6.8066    0.5505   -0.0153 H   0  0  0  0  0  0  0  0  0  0  0  0
  1  2  1  0  0  0  0
  1  3  1  0  0  0  0
  1  4  2  0  0  0  0
  2  5  1  0  0  0  0
  2 23  1  0  0  0  0
  2 24  1  0  0  0  0
  3  9  1  0  0  0  0
  3 12  2  0  0  0  0
  4  6  1  0  0  0  0
  4 16  1  0  0  0  0
  5  7  1  0  0  0  0
  5 25  1  0  0  0  0
  5 26  1  0  0  0  0
  6  7  1  0  0  0  0
  6 27  1  0  0  0  0
  6 28  1  0  0  0  0
  7 29  1  0  0  0  0
  7 30  1  0  0  0  0
  8 10  2  0  0  0  0
  8 11  1  0  0  0  0
  8 12  1  0  0  0  0
  9 14  2  0  0  0  0
  9 18  1  0  0  0  0
 10 14  1  0  0  0  0
 10 15  1  0  0  0  0
 11 13  1  0  0  0  0
 11 31  1  0  0  0  0
 11 32  1  0  0  0  0
 12 33  1  0  0  0  0
 13 17  1  0  0  0  0
 13 34  1  0  0  0  0
 13 35  1  0  0  0  0
 14 36  1  0  0  0  0
 15 17  1  0  0  0  0
 15 19  2  0  0  0  0
 16 18  2  0  0  0  0
 16 37  1  0  0  0  0
 17 20  2  0  0  0  0
 18 38  1  0  0  0  0
 19 21  1  0  0  0  0
 19 39  1  0  0  0  0
 20 22  1  0  0  0  0
 20 40  1  0  0  0  0
 21 22  2  0  0  0  0
 21 41  1  0  0  0  0
 22 42  1  0  0  0  0
M  END
> <PUBCHEM_COMPOUND_CID>
9056

> <PUBCHEM_CONFORMER_RMSD>
0.6

> <PUBCHEM_CONFORMER_DIVERSEORDER>
1

> <PUBCHEM_MMFF94_PARTIAL_CHARGES>
24
1 -0.14
11 0.14
12 -0.15
13 0.14
14 -0.15
16 -0.15
17 -0.14
18 -0.15
19 -0.15
2 0.14
20 -0.15
21 -0.15
22 -0.15
33 0.15
36 0.15
37 0.15
38 0.15
39 0.15
4 -0.14
40 0.15
41 0.15
42 0.15
6 0.14
8 -0.14

> <PUBCHEM_EFFECTIVE_ROTOR_COUNT>
1.2

> <PUBCHEM_PHARMACOPHORE_FEATURES>
5
6 1 2 4 5 6 7 rings
6 1 3 4 9 16 18 rings
6 15 17 19 20 21 22 rings
6 3 8 9 10 12 14 rings
6 8 10 11 13 15 17 rings

> <PUBCHEM_HEAVY_ATOM_COUNT>
22

> <PUBCHEM_ATOM_DEF_STEREO_COUNT>
0

> <PUBCHEM_ATOM_UDEF_STEREO_COUNT>
0

> <PUBCHEM_BOND_DEF_STEREO_COUNT>
0

> <PUBCHEM_BOND_UDEF_STEREO_COUNT>
0

> <PUBCHEM_ISOTOPIC_ATOM_COUNT>
0

> <PUBCHEM_COMPONENT_COUNT>
1

> <PUBCHEM_CACTVS_TAUTO_COUNT>
1

> <PUBCHEM_CONFORMER_ID>
0000236000000001

> <PUBCHEM_MMFF94_ENERGY>
63.8892

> <PUBCHEM_FEATURE_SELFOVERLAP>
25.46

> <PUBCHEM_SHAPE_FINGERPRINT>
10 15 18338807715553187216
10090160 65 18202004304574760734
10595046 47 18411419501008570544
10616163 171 18408885139639343887
10906281 52 18339623582443732243
11488393 25 17242150548168718022
11578080 2 17273150208855203327
11963148 33 18338242561459551663
12107183 9 17691126354182061432
12166972 35 17917709080776399204
12236239 1 18273496775458381244
12403259 415 18114472201204695472
12788726 201 17386562595856993905
13140716 1 18121780517338784299
13167823 11 18411420639217290426
13224815 77 18409727391262841198
13533116 47 17131561638697657618
13862211 1 18409452453379615263
14341114 176 18412258462756223695
14341114 328 18408884052975382907
14528608 73 18411135814550983580
14787075 74 18412546487668850283
14790565 3 18336824204111422428
15196674 1 18410575110438157454
15788980 27 17060339638809864295
15927050 60 17397545303457465244
17349148 13 18060136539682639856
17492 89 18266178516185046442
17834072 33 18411982459583555470
17844677 252 18264480848898744450
17857418 61 18411141342020938563
1813 80 17275097366554180575
18681886 176 18408608050741763616
19489759 90 14620801504837868245
19591789 44 18192151503489467521
200 152 18407762529940784729
20511986 3 18341909492850531749
21033648 29 13254515293252257780
21065198 48 18340206392088345690
21236236 1 18408040723863421473
21267235 1 18410567409868023686
21421861 104 18057891444297430955
21709351 56 18343868831208883284
23402539 116 18410579470151768511
23522609 53 18119217663610755337
23559900 14 18046349909580130494
239999 70 18261105301500235774
245318 6 17271708496141564468
3004659 81 18342457058700545108
335352 9 18410293622571309572
34797466 226 17240757346655771268
34934 24 18410295839412750375
350125 39 18410012130636658664
3545911 37 18412261748453703932
4073 2 17988636367928082434
4214541 1 18411138077714210541
4325135 7 18411138034827490575
4340502 62 17203890751630087082
474 4 17918267632967859668
474229 33 18409448072375784319
5104073 3 18338517550759988288
5283173 99 17987810734091897597
5312544 6 18270677550604709188
5486654 2 18410007693813999342
7495541 125 17967256368905593488
9709674 26 18339917212014724074

> <PUBCHEM_SHAPE_MULTIPOLES>
452.75
12.75
2.38
0.67
0.25
0.06
0
0.05
0.12
0.11
0
-0.01
0.04
-0.69

> <PUBCHEM_SHAPE_SELFOVERLAP>
1023.056

> <PUBCHEM_SHAPE_VOLUME>
220.2

> <PUBCHEM_COORDINATE_TYPE>
2
5
10

$$$$

