11470
  -OEChem-06261205433D

 20 20  0     0  0  0  0  0  0999 V2000
   -3.4776   -1.1282   -0.0001 O   0  0  0  0  0  0  0  0  0  0  0  0
    3.3773    1.2373    0.0000 O   0  0  0  0  0  0  0  0  0  0  0  0
    3.5870   -1.0260    0.0003 O   0  0  0  0  0  0  0  0  0  0  0  0
   -1.3793   -0.0507    0.0002 C   0  0  0  0  0  0  0  0  0  0  0  0
    1.4103   -0.0329   -0.0005 C   0  0  0  0  0  0  0  0  0  0  0  0
   -0.6897    1.1617    0.0001 C   0  0  0  0  0  0  0  0  0  0  0  0
   -0.6742   -1.2543    0.0000 C   0  0  0  0  0  0  0  0  0  0  0  0
    0.7051    1.1706   -0.0004 C   0  0  0  0  0  0  0  0  0  0  0  0
    0.7207   -1.2453   -0.0003 C   0  0  0  0  0  0  0  0  0  0  0  0
   -2.8332   -0.0601    0.0002 C   0  0  0  0  0  0  0  0  0  0  0  0
   -3.6108    1.2518    0.0001 C   0  0  0  0  0  0  0  0  0  0  0  0
    2.8645   -0.0238    0.0003 C   0  0  0  0  0  0  0  0  0  0  0  0
   -1.1993    2.1202    0.0003 H   0  0  0  0  0  0  0  0  0  0  0  0
   -1.1890   -2.2114    0.0002 H   0  0  0  0  0  0  0  0  0  0  0  0
    1.2025    2.1366   -0.0003 H   0  0  0  0  0  0  0  0  0  0  0  0
    1.2517   -2.1936   -0.0002 H   0  0  0  0  0  0  0  0  0  0  0  0
   -3.3842    1.8255   -0.9022 H   0  0  0  0  0  0  0  0  0  0  0  0
   -3.3840    1.8259    0.9022 H   0  0  0  0  0  0  0  0  0  0  0  0
   -4.6833    1.0320    0.0003 H   0  0  0  0  0  0  0  0  0  0  0  0
    4.3583    1.2323    0.0001 H   0  0  0  0  0  0  0  0  0  0  0  0
  1 10  2  0  0  0  0
  2 12  1  0  0  0  0
  2 20  1  0  0  0  0
  3 12  2  0  0  0  0
  4  6  2  0  0  0  0
  4  7  1  0  0  0  0
  4 10  1  0  0  0  0
  5  8  2  0  0  0  0
  5  9  1  0  0  0  0
  5 12  1  0  0  0  0
  6  8  1  0  0  0  0
  6 13  1  0  0  0  0
  7  9  2  0  0  0  0
  7 14  1  0  0  0  0
  8 15  1  0  0  0  0
  9 16  1  0  0  0  0
 10 11  1  0  0  0  0
 11 17  1  0  0  0  0
 11 18  1  0  0  0  0
 11 19  1  0  0  0  0
M  END
> <PUBCHEM_COMPOUND_CID>
11470

> <PUBCHEM_CONFORMER_RMSD>
0.6

> <PUBCHEM_CONFORMER_DIVERSEORDER>
1
2
3
4

> <PUBCHEM_MMFF94_PARTIAL_CHARGES>
17
1 -0.57
10 0.42
11 0.06
12 0.63
13 0.15
14 0.15
15 0.15
16 0.15
2 -0.65
20 0.5
3 -0.57
4 0.09
5 0.09
6 -0.15
7 -0.15
8 -0.15
9 -0.15

> <PUBCHEM_EFFECTIVE_ROTOR_COUNT>
2

> <PUBCHEM_PHARMACOPHORE_FEATURES>
5
1 1 acceptor
1 2 acceptor
1 3 acceptor
3 2 3 12 anion
6 4 5 6 7 8 9 rings

> <PUBCHEM_HEAVY_ATOM_COUNT>
12

> <PUBCHEM_ATOM_DEF_STEREO_COUNT>
0

> <PUBCHEM_ATOM_UDEF_STEREO_COUNT>
0

> <PUBCHEM_BOND_DEF_STEREO_COUNT>
0

> <PUBCHEM_BOND_UDEF_STEREO_COUNT>
0

> <PUBCHEM_ISOTOPIC_ATOM_COUNT>
0

> <PUBCHEM_COMPONENT_COUNT>
1

> <PUBCHEM_CACTVS_TAUTO_COUNT>
2

> <PUBCHEM_CONFORMER_ID>
00002CCE00000001

> <PUBCHEM_MMFF94_ENERGY>
34.4042

> <PUBCHEM_FEATURE_SELFOVERLAP>
25.429

> <PUBCHEM_SHAPE_FINGERPRINT>
10130415 120 18341899605983503112
10219947 1 18410853256809938972
10608611 8 18410578378956158233
11062470 55 18411418418771913381
11132069 177 18408891758167791520
11401426 45 18335711558425948584
11471102 20 18410579504221505853
12032990 46 18410849962570328230
12932764 1 17203619206422292961
14144814 61 18411138030379581337
14325111 11 18410855455859685185
14993402 34 18411418384311779581
16945 1 18410573998057484519
18186145 218 18202567301809401462
193761 8 17545883088645668389
200 152 18114190701154064903
20201158 50 18410292553256516135
20645476 183 17916285174653329262
20645477 70 18262238923030490719
23235685 24 18410860966286817253
23402539 116 18260558839477558910
23402655 69 18191883408354398861
23463225 33 18341051908156584882
23559900 14 18334576859091147306
2748010 2 18122343475871590503
528886 8 18410017662659608843
53812653 166 18335425685550602049

> <PUBCHEM_SHAPE_MULTIPOLES>
229.35
6.07
1.5
0.59
0.05
0.02
0
0.43
0
0.13
0
0.03
0.01
0

> <PUBCHEM_SHAPE_SELFOVERLAP>
482.484

> <PUBCHEM_SHAPE_VOLUME>
129.4

> <PUBCHEM_COORDINATE_TYPE>
2
5
10

$$$$

