4515
  -OEChem-06261200113D

 48 50  0     1  0  0  0  0  0999 V2000
   -0.1716   -1.1161   -1.5438 O   0  0  0  0  0  0  0  0  0  0  0  0
    3.3755   -1.5440    2.8223 O   0  0  0  0  0  0  0  0  0  0  0  0
    3.6939    0.7015    3.1161 O   0  0  0  0  0  0  0  0  0  0  0  0
    2.6340   -0.8687   -1.2540 N   0  0  2  0  0  0  0  0  0  0  0  0
   -1.4378   -1.4279   -1.0316 N   0  0  0  0  0  0  0  0  0  0  0  0
    3.9137   -0.4708   -1.8555 C   0  0  0  0  0  0  0  0  0  0  0  0
    2.8171   -1.2488    0.1600 C   0  0  0  0  0  0  0  0  0  0  0  0
    4.4794    0.7700   -1.1473 C   0  0  0  0  0  0  0  0  0  0  0  0
    2.0182   -1.9608   -2.0053 C   0  0  0  0  0  0  0  0  0  0  0  0
    3.6223   -0.2475    0.9379 C   0  0  0  0  0  0  0  0  0  0  0  0
    4.3745    0.6918    0.3483 C   0  0  0  0  0  0  0  0  0  0  0  0
    0.6383   -2.2809   -1.4532 C   0  0  0  0  0  0  0  0  0  0  0  0
    3.5731   -0.2771    2.4005 C   0  0  0  0  0  0  0  0  0  0  0  0
   -2.0188   -0.3929   -0.4965 C   0  0  0  0  0  0  0  0  0  0  0  0
   -1.2960    0.9179   -0.5098 C   0  0  0  0  0  0  0  0  0  0  0  0
   -3.3667   -0.4466    0.1196 C   0  0  0  0  0  0  0  0  0  0  0  0
   -0.4811    1.2267    0.5526 C   0  0  0  0  0  0  0  0  0  0  0  0
   -3.9032    0.7073    0.6556 C   0  0  0  0  0  0  0  0  0  0  0  0
   -1.4780    1.7553   -1.5838 C   0  0  0  0  0  0  0  0  0  0  0  0
   -4.0458   -1.6485    0.1387 C   0  0  0  0  0  0  0  0  0  0  0  0
    0.1927    2.4481    0.5403 C   0  0  0  0  0  0  0  0  0  0  0  0
   -5.1710    0.6571    1.2349 C   0  0  0  0  0  0  0  0  0  0  0  0
   -0.8040    2.9764   -1.5960 C   0  0  0  0  0  0  0  0  0  0  0  0
   -5.3138   -1.6986    0.7180 C   0  0  0  0  0  0  0  0  0  0  0  0
    0.0313    3.3228   -0.5340 C   0  0  0  0  0  0  0  0  0  0  0  0
   -5.8763   -0.5458    1.2660 C   0  0  0  0  0  0  0  0  0  0  0  0
    4.6393   -1.2938   -1.8030 H   0  0  0  0  0  0  0  0  0  0  0  0
    3.7802   -0.2252   -2.9161 H   0  0  0  0  0  0  0  0  0  0  0  0
    1.8372   -1.3080    0.6462 H   0  0  0  0  0  0  0  0  0  0  0  0
    3.3028   -2.2304    0.2392 H   0  0  0  0  0  0  0  0  0  0  0  0
    5.5306    0.8937   -1.4312 H   0  0  0  0  0  0  0  0  0  0  0  0
    3.9436    1.6664   -1.4828 H   0  0  0  0  0  0  0  0  0  0  0  0
    2.6437   -2.8619   -1.9973 H   0  0  0  0  0  0  0  0  0  0  0  0
    1.9007   -1.6473   -3.0504 H   0  0  0  0  0  0  0  0  0  0  0  0
    4.9341    1.4216    0.9256 H   0  0  0  0  0  0  0  0  0  0  0  0
    0.1885   -3.0636   -2.0774 H   0  0  0  0  0  0  0  0  0  0  0  0
    0.6594   -2.6636   -0.4272 H   0  0  0  0  0  0  0  0  0  0  0  0
    3.3361   -1.6049    3.8005 H   0  0  0  0  0  0  0  0  0  0  0  0
   -0.3503    0.5472    1.3891 H   0  0  0  0  0  0  0  0  0  0  0  0
   -3.3986    1.6668    0.6578 H   0  0  0  0  0  0  0  0  0  0  0  0
   -2.1265    1.4888   -2.4126 H   0  0  0  0  0  0  0  0  0  0  0  0
   -3.6281   -2.5584   -0.2814 H   0  0  0  0  0  0  0  0  0  0  0  0
    0.8451    2.7162    1.3662 H   0  0  0  0  0  0  0  0  0  0  0  0
   -5.6098    1.5543    1.6619 H   0  0  0  0  0  0  0  0  0  0  0  0
   -0.9293    3.6574   -2.4328 H   0  0  0  0  0  0  0  0  0  0  0  0
   -5.8633   -2.6351    0.7425 H   0  0  0  0  0  0  0  0  0  0  0  0
    0.5570    4.2731   -0.5441 H   0  0  0  0  0  0  0  0  0  0  0  0
   -6.8636   -0.5849    1.7170 H   0  0  0  0  0  0  0  0  0  0  0  0
  1  5  1  0  0  0  0
  1 12  1  0  0  0  0
  2 13  1  0  0  0  0
  2 38  1  0  0  0  0
  3 13  2  0  0  0  0
  4  6  1  0  0  0  0
  4  7  1  0  0  0  0
  4  9  1  0  0  0  0
  5 14  2  0  0  0  0
  6  8  1  0  0  0  0
  6 27  1  0  0  0  0
  6 28  1  0  0  0  0
  7 10  1  0  0  0  0
  7 29  1  0  0  0  0
  7 30  1  0  0  0  0
  8 11  1  0  0  0  0
  8 31  1  0  0  0  0
  8 32  1  0  0  0  0
  9 12  1  0  0  0  0
  9 33  1  0  0  0  0
  9 34  1  0  0  0  0
 10 11  2  0  0  0  0
 10 13  1  0  0  0  0
 11 35  1  0  0  0  0
 12 36  1  0  0  0  0
 12 37  1  0  0  0  0
 14 15  1  0  0  0  0
 14 16  1  0  0  0  0
 15 17  2  0  0  0  0
 15 19  1  0  0  0  0
 16 18  2  0  0  0  0
 16 20  1  0  0  0  0
 17 21  1  0  0  0  0
 17 39  1  0  0  0  0
 18 22  1  0  0  0  0
 18 40  1  0  0  0  0
 19 23  2  0  0  0  0
 19 41  1  0  0  0  0
 20 24  2  0  0  0  0
 20 42  1  0  0  0  0
 21 25  2  0  0  0  0
 21 43  1  0  0  0  0
 22 26  2  0  0  0  0
 22 44  1  0  0  0  0
 23 25  1  0  0  0  0
 23 45  1  0  0  0  0
 24 26  1  0  0  0  0
 24 46  1  0  0  0  0
 25 47  1  0  0  0  0
 26 48  1  0  0  0  0
M  END
> <PUBCHEM_COMPOUND_CID>
4515

> <PUBCHEM_CONFORMER_RMSD>
0.8

> <PUBCHEM_CONFORMER_DIVERSEORDER>
2
52
75
66
50
92
3
34
15
63
6
105
79
47
10
71
4
58
19
76
17
84
45
32
14
97
78
11
13
1
70
94
24
99
73
48
107
27
96
5
74
83
93
72
40
67
44
103
35
9
98
88
90
41
30
28
89
53
18
20
64
26
16
59
85
86
36
8
110
25
104
87
49
65
80
54
21
56
51
7
77
37
31
39
43
91
108
23
12
55
29
81
102
82
42
68
100
22
106
109
101
95
33
57
61
62
111
38
60
46
69

> <PUBCHEM_MMFF94_PARTIAL_CHARGES>
38
1 -0.22
10 -0.12
11 -0.29
12 0.28
13 0.71
14 0.28
15 0.09
16 0.09
17 -0.15
18 -0.15
19 -0.15
2 -0.65
20 -0.15
21 -0.15
22 -0.15
23 -0.15
24 -0.15
25 -0.15
26 -0.15
3 -0.57
35 0.15
38 0.5
39 0.15
4 -0.81
40 0.15
41 0.15
42 0.15
43 0.15
44 0.15
45 0.15
46 0.15
47 0.15
48 0.15
5 -0.51
6 0.27
7 0.41
8 0.14
9 0.27

> <PUBCHEM_EFFECTIVE_ROTOR_COUNT>
7.8

> <PUBCHEM_PHARMACOPHORE_FEATURES>
8
1 2 acceptor
1 3 acceptor
1 4 cation
1 5 acceptor
3 2 3 13 anion
6 15 17 19 21 23 25 rings
6 16 18 20 22 24 26 rings
6 4 6 7 8 10 11 rings

> <PUBCHEM_HEAVY_ATOM_COUNT>
26

> <PUBCHEM_ATOM_DEF_STEREO_COUNT>
0

> <PUBCHEM_ATOM_UDEF_STEREO_COUNT>
0

> <PUBCHEM_BOND_DEF_STEREO_COUNT>
0

> <PUBCHEM_BOND_UDEF_STEREO_COUNT>
0

> <PUBCHEM_ISOTOPIC_ATOM_COUNT>
0

> <PUBCHEM_COMPONENT_COUNT>
1

> <PUBCHEM_CACTVS_TAUTO_COUNT>
1

> <PUBCHEM_CONFORMER_ID>
000011A300000002

> <PUBCHEM_MMFF94_ENERGY>
72.4001

> <PUBCHEM_FEATURE_SELFOVERLAP>
40.649

> <PUBCHEM_SHAPE_FINGERPRINT>
10165383 225 17749379357123001326
11112241 14 16878525452755890889
11135609 12 18264489667046904034
11595378 159 18201720694956820135
12107698 1 18201991154144322260
12422481 6 18335703879504646857
12553582 1 18411424981386866564
12633257 1 18270965648347039795
12788726 201 17988069097337872117
13383661 66 14756107418552983338
13726171 33 18339911710578882012
14170010 4 18188197780995359457
14341114 328 18201718427388414650
14429115 67 16200153222131099003
14787075 74 17846491487524908803
14840074 17 18195816171967498492
14955137 171 18115290199342992461
150020 26 17829340425114584658
15163728 17 5689331117950347907
15475509 35 16915923090691733827
1601671 61 18261380140161370365
17492 89 17773889773102975466
1813 80 18201996608362722597
19315092 285 16271664342242806280
20567600 247 15840694177088845403
20691752 17 18261690198304100870
21033648 29 17603865624431950867
21304303 282 16982411889978763677
23559900 14 18052533571543611311
25222932 49 17916296130730026395
3187 122 18270972343921661397
3411729 13 18124024637809739477
345986 75 18202283610772698897
350125 39 18116981385866387310
3797600 57 18201719553128431510
469060 322 18190768378007300455
5252454 2 17749115478495615518
9777508 108 17687169203708770065

> <PUBCHEM_SHAPE_MULTIPOLES>
507.5
11.09
2.85
2.4
7.31
1.91
-1.33
-3.96
-5.39
0.5
1.11
-3.32
-0.57
0.4

> <PUBCHEM_SHAPE_SELFOVERLAP>
1084.144

> <PUBCHEM_SHAPE_VOLUME>
280.2

> <PUBCHEM_COORDINATE_TYPE>
2
5
10

$$$$

