12768
  -OEChem-06261207202D

 25 26  0     0  0  0  0  0  0999 V2000
    4.7497    1.2746    0.0000 Br  0  0  0  0  0  0  0  0  0  0  0  0
    4.2320   -0.6573    0.0000 C   0  0  0  0  0  0  0  0  0  0  0  0
    4.4909    0.3086    0.0000 C   0  0  0  0  0  0  0  0  0  0  0  0
    3.2543    1.1573    0.0000 C   0  0  0  0  0  0  0  0  0  0  0  0
    2.5000   -1.6573    0.0000 C   0  0  0  0  0  0  0  0  0  0  0  0
    6.0640   -1.4161    0.0000 C   0  0  0  0  0  0  0  0  0  0  0  0
    4.1203    1.6573    0.0000 C   0  0  0  0  0  0  0  0  0  0  0  0
    2.0000   -0.7913    0.0000 C   0  0  0  0  0  0  0  0  0  0  0  0
    6.3228   -0.4502    0.0000 C   0  0  0  0  0  0  0  0  0  0  0  0
    3.9732   -1.6232    0.0000 C   0  0  0  0  0  0  0  0  0  0  0  0
    2.9495    1.6972    0.0000 H   0  0  0  0  0  0  0  0  0  0  0  0
    2.7114    0.8578    0.0000 H   0  0  0  0  0  0  0  0  0  0  0  0
    1.9631   -1.9673    0.0000 H   0  0  0  0  0  0  0  0  0  0  0  0
    2.8100   -2.1942    0.0000 H   0  0  0  0  0  0  0  0  0  0  0  0
    5.8520   -1.9987    0.0000 H   0  0  0  0  0  0  0  0  0  0  0  0
    6.6553   -1.6025    0.0000 H   0  0  0  0  0  0  0  0  0  0  0  0
    1.7294   -0.2335    0.0000 H   0  0  0  0  0  0  0  0  0  0  0  0
    6.9141   -0.6366    0.0000 H   0  0  0  0  0  0  0  0  0  0  0  0
    6.5349    0.1324    0.0000 H   0  0  0  0  0  0  0  0  0  0  0  0
    1.4523   -1.0818    0.0000 H   0  0  0  0  0  0  0  0  0  0  0  0
    4.7020    1.8718    0.0000 H   0  0  0  0  0  0  0  0  0  0  0  0
    3.8571    2.2186    0.0000 H   0  0  0  0  0  0  0  0  0  0  0  0
    3.3744   -1.4627    0.0000 H   0  0  0  0  0  0  0  0  0  0  0  0
    3.8128   -2.2221    0.0000 H   0  0  0  0  0  0  0  0  0  0  0  0
    4.5721   -1.7837    0.0000 H   0  0  0  0  0  0  0  0  0  0  0  0
  1  3  1  0  0  0  0
  2  4  1  0  0  0  0
  2  5  1  0  0  0  0
  2  6  1  0  0  0  0
  2 10  1  0  0  0  0
  3  7  1  0  0  0  0
  3  8  1  0  0  0  0
  3  9  1  0  0  0  0
  4  7  1  0  0  0  0
  4 11  1  0  0  0  0
  4 12  1  0  0  0  0
  5  8  1  0  0  0  0
  5 13  1  0  0  0  0
  5 14  1  0  0  0  0
  6  9  1  0  0  0  0
  6 15  1  0  0  0  0
  6 16  1  0  0  0  0
  7 21  1  0  0  0  0
  7 22  1  0  0  0  0
  8 17  1  0  0  0  0
  8 20  1  0  0  0  0
  9 18  1  0  0  0  0
  9 19  1  0  0  0  0
 10 23  1  0  0  0  0
 10 24  1  0  0  0  0
 10 25  1  0  0  0  0
M  END
> <PUBCHEM_COMPOUND_CID>
12768

> <PUBCHEM_COMPOUND_CANONICALIZED>
1

> <PUBCHEM_CACTVS_COMPLEXITY>
126

> <PUBCHEM_CACTVS_HBOND_ACCEPTOR>
0

> <PUBCHEM_CACTVS_HBOND_DONOR>
0

> <PUBCHEM_CACTVS_ROTATABLE_BOND>
0

> <PUBCHEM_CACTVS_SUBSKEYS>
AAADccBwAAAAEAAAAAAAAAAAAAAAAAAAAAAwYMAAAAAAAAAAAAAAGABAAAABjgCAAAACAAAAAAAAAAAAAAAAAAAAAAAAAAAAACAAAAIAAAAAAAAAAAAAAAEAgMAPAAAAAAAAAACEAAAAAAAAAAAAAAAAAA==

> <PUBCHEM_IUPAC_OPENEYE_NAME>
4-bromo-1-methyl-bicyclo[2.2.2]octane

> <PUBCHEM_IUPAC_CAS_NAME>
4-bromo-1-methylbicyclo[2.2.2]octane

> <PUBCHEM_IUPAC_NAME>
4-bromo-1-methylbicyclo[2.2.2]octane

> <PUBCHEM_IUPAC_SYSTEMATIC_NAME>
4-bromanyl-1-methyl-bicyclo[2.2.2]octane

> <PUBCHEM_IUPAC_TRADITIONAL_NAME>
4-bromo-1-methyl-bicyclo[2.2.2]octane

> <PUBCHEM_IUPAC_INCHI>
InChI=1S/C9H15Br/c1-8-2-5-9(10,6-3-8)7-4-8/h2-7H2,1H3

> <PUBCHEM_IUPAC_INCHIKEY>
ULVFCNAPUWBYEJ-UHFFFAOYSA-N

> <PUBCHEM_XLOGP3_AA>
3.2

> <PUBCHEM_EXACT_MASS>
202.035713

> <PUBCHEM_MOLECULAR_FORMULA>
C9H15Br

> <PUBCHEM_MOLECULAR_WEIGHT>
203.1194

> <PUBCHEM_OPENEYE_CAN_SMILES>
CC12CCC(CC1)(CC2)Br

> <PUBCHEM_OPENEYE_ISO_SMILES>
CC12CCC(CC1)(CC2)Br

> <PUBCHEM_CACTVS_TPSA>
0

> <PUBCHEM_MONOISOTOPIC_WEIGHT>
202.035713

> <PUBCHEM_TOTAL_CHARGE>
0

> <PUBCHEM_HEAVY_ATOM_COUNT>
10

> <PUBCHEM_ATOM_DEF_STEREO_COUNT>
0

> <PUBCHEM_ATOM_UDEF_STEREO_COUNT>
0

> <PUBCHEM_BOND_DEF_STEREO_COUNT>
0

> <PUBCHEM_BOND_UDEF_STEREO_COUNT>
0

> <PUBCHEM_ISOTOPIC_ATOM_COUNT>
0

> <PUBCHEM_COMPONENT_COUNT>
1

> <PUBCHEM_CACTVS_TAUTO_COUNT>
1

> <PUBCHEM_COORDINATE_TYPE>
1
5
255

$$$$

