12921
  -OEChem-06261207323D

 55 55  0     0  0  0  0  0  0999 V2000
   -7.9041    2.3506   -0.0222 O   0  0  0  0  0  0  0  0  0  0  0  0
   -5.8292    3.2553   -0.2584 O   0  0  0  0  0  0  0  0  0  0  0  0
    2.5020   -3.6831   -0.0761 C   0  0  0  0  0  0  0  0  0  0  0  0
    1.2727   -4.1043   -0.0073 C   0  0  0  0  0  0  0  0  0  0  0  0
    2.2978   -5.0983   -0.0773 C   0  0  0  0  0  0  0  0  0  0  0  0
    3.5491   -2.7007   -0.1327 C   0  0  0  0  0  0  0  0  0  0  0  0
   -0.2109   -3.9646    0.0767 C   0  0  0  0  0  0  0  0  0  0  0  0
    3.0811   -1.2226   -0.0360 C   0  0  0  0  0  0  0  0  0  0  0  0
   -0.6441   -2.4979    0.0630 C   0  0  0  0  0  0  0  0  0  0  0  0
    4.2561   -0.2385   -0.0639 C   0  0  0  0  0  0  0  0  0  0  0  0
   -2.1616   -2.3118    0.1600 C   0  0  0  0  0  0  0  0  0  0  0  0
    3.7645    1.2098    0.0037 C   0  0  0  0  0  0  0  0  0  0  0  0
   -2.6027   -0.8491    0.0725 C   0  0  0  0  0  0  0  0  0  0  0  0
    4.8967    2.2403   -0.0333 C   0  0  0  0  0  0  0  0  0  0  0  0
   -4.1261   -0.7246    0.1514 C   0  0  0  0  0  0  0  0  0  0  0  0
    4.4043    3.6886    0.0079 C   0  0  0  0  0  0  0  0  0  0  0  0
   -4.5725    0.7326    0.0261 C   0  0  0  0  0  0  0  0  0  0  0  0
    5.5763    4.6706    0.0421 C   0  0  0  0  0  0  0  0  0  0  0  0
   -6.0946    0.8542    0.0719 C   0  0  0  0  0  0  0  0  0  0  0  0
    5.0945    6.1104    0.1213 C   0  0  0  0  0  0  0  0  0  0  0  0
   -6.5495    2.2832   -0.0893 C   0  0  0  0  0  0  0  0  0  0  0  0
    2.5304   -5.6307    0.8313 H   0  0  0  0  0  0  0  0  0  0  0  0
    2.4211   -5.6134   -1.0168 H   0  0  0  0  0  0  0  0  0  0  0  0
    4.2574   -2.8912    0.6827 H   0  0  0  0  0  0  0  0  0  0  0  0
    4.1094   -2.8273   -1.0669 H   0  0  0  0  0  0  0  0  0  0  0  0
   -0.6660   -4.4936   -0.7682 H   0  0  0  0  0  0  0  0  0  0  0  0
   -0.5620   -4.4477    0.9954 H   0  0  0  0  0  0  0  0  0  0  0  0
    2.5100   -1.0838    0.8907 H   0  0  0  0  0  0  0  0  0  0  0  0
    2.3996   -1.0066   -0.8686 H   0  0  0  0  0  0  0  0  0  0  0  0
   -0.2853   -2.0224   -0.8592 H   0  0  0  0  0  0  0  0  0  0  0  0
   -0.1677   -1.9648    0.8959 H   0  0  0  0  0  0  0  0  0  0  0  0
    4.9259   -0.4401    0.7805 H   0  0  0  0  0  0  0  0  0  0  0  0
    4.8371   -0.3861   -0.9821 H   0  0  0  0  0  0  0  0  0  0  0  0
   -2.5155   -2.7430    1.1046 H   0  0  0  0  0  0  0  0  0  0  0  0
   -2.6416   -2.8802   -0.6466 H   0  0  0  0  0  0  0  0  0  0  0  0
    3.1814    1.3515    0.9222 H   0  0  0  0  0  0  0  0  0  0  0  0
    3.0835    1.3990   -0.8355 H   0  0  0  0  0  0  0  0  0  0  0  0
   -2.2458   -0.4166   -0.8700 H   0  0  0  0  0  0  0  0  0  0  0  0
   -2.1416   -0.2772    0.8866 H   0  0  0  0  0  0  0  0  0  0  0  0
    5.4921    2.0882   -0.9422 H   0  0  0  0  0  0  0  0  0  0  0  0
    5.5663    2.0601    0.8170 H   0  0  0  0  0  0  0  0  0  0  0  0
   -4.5839   -1.3176   -0.6498 H   0  0  0  0  0  0  0  0  0  0  0  0
   -4.4808   -1.1382    1.1032 H   0  0  0  0  0  0  0  0  0  0  0  0
    3.7771    3.8350    0.8955 H   0  0  0  0  0  0  0  0  0  0  0  0
    3.7765    3.8886   -0.8686 H   0  0  0  0  0  0  0  0  0  0  0  0
   -4.1291    1.3274    0.8344 H   0  0  0  0  0  0  0  0  0  0  0  0
   -4.1979    1.1526   -0.9158 H   0  0  0  0  0  0  0  0  0  0  0  0
    6.1931    4.5449   -0.8553 H   0  0  0  0  0  0  0  0  0  0  0  0
    6.2153    4.4592    0.9075 H   0  0  0  0  0  0  0  0  0  0  0  0
   -6.5386    0.2629   -0.7368 H   0  0  0  0  0  0  0  0  0  0  0  0
   -6.4661    0.4814    1.0330 H   0  0  0  0  0  0  0  0  0  0  0  0
    5.9481    6.7951    0.1430 H   0  0  0  0  0  0  0  0  0  0  0  0
    4.4763    6.3652   -0.7454 H   0  0  0  0  0  0  0  0  0  0  0  0
    4.5025    6.2768    1.0269 H   0  0  0  0  0  0  0  0  0  0  0  0
   -8.2300    3.2702   -0.1250 H   0  0  0  0  0  0  0  0  0  0  0  0
  1 21  1  0  0  0  0
  1 55  1  0  0  0  0
  2 21  2  0  0  0  0
  3  4  2  0  0  0  0
  3  5  1  0  0  0  0
  3  6  1  0  0  0  0
  4  5  1  0  0  0  0
  4  7  1  0  0  0  0
  5 22  1  0  0  0  0
  5 23  1  0  0  0  0
  6  8  1  0  0  0  0
  6 24  1  0  0  0  0
  6 25  1  0  0  0  0
  7  9  1  0  0  0  0
  7 26  1  0  0  0  0
  7 27  1  0  0  0  0
  8 10  1  0  0  0  0
  8 28  1  0  0  0  0
  8 29  1  0  0  0  0
  9 11  1  0  0  0  0
  9 30  1  0  0  0  0
  9 31  1  0  0  0  0
 10 12  1  0  0  0  0
 10 32  1  0  0  0  0
 10 33  1  0  0  0  0
 11 13  1  0  0  0  0
 11 34  1  0  0  0  0
 11 35  1  0  0  0  0
 12 14  1  0  0  0  0
 12 36  1  0  0  0  0
 12 37  1  0  0  0  0
 13 15  1  0  0  0  0
 13 38  1  0  0  0  0
 13 39  1  0  0  0  0
 14 16  1  0  0  0  0
 14 40  1  0  0  0  0
 14 41  1  0  0  0  0
 15 17  1  0  0  0  0
 15 42  1  0  0  0  0
 15 43  1  0  0  0  0
 16 18  1  0  0  0  0
 16 44  1  0  0  0  0
 16 45  1  0  0  0  0
 17 19  1  0  0  0  0
 17 46  1  0  0  0  0
 17 47  1  0  0  0  0
 18 20  1  0  0  0  0
 18 48  1  0  0  0  0
 18 49  1  0  0  0  0
 19 21  1  0  0  0  0
 19 50  1  0  0  0  0
 19 51  1  0  0  0  0
 20 52  1  0  0  0  0
 20 53  1  0  0  0  0
 20 54  1  0  0  0  0
M  END
> <PUBCHEM_COMPOUND_CID>
12921

> <PUBCHEM_CONFORMER_RMSD>
1.4

> <PUBCHEM_CONFORMER_DIVERSEORDER>
1
12
11
33
29
4
105
75
10
27
2
82
97
100
94
96
90
24
84
50
39
3
49
76
7
42
54
22
15
61
52
69
66
77
48
35
45
53
36
44
57
103
99
56
81
64
101
78
31
9
87
70
14
71
59
79
63
17
37
88
18
46
65
55
73
13
67
28
20
98
25
16
74
62
47
40
43
34
30
80
23
51
5
89
86
92
93
41
38
21
68
26
60
85
19
58
32
8
104
6
95
83
106
102
91
72

> <PUBCHEM_MMFF94_PARTIAL_CHARGES>
12
1 -0.65
19 0.06
2 -0.57
21 0.66
22 0.1
23 0.1
3 -0.18
4 -0.18
5 -0.12
55 0.5
6 0.14
7 0.14

> <PUBCHEM_EFFECTIVE_ROTOR_COUNT>
15.2

> <PUBCHEM_PHARMACOPHORE_FEATURES>
4
1 1 acceptor
1 2 acceptor
1 20 hydrophobe
3 1 2 21 anion

> <PUBCHEM_HEAVY_ATOM_COUNT>
21

> <PUBCHEM_ATOM_DEF_STEREO_COUNT>
0

> <PUBCHEM_ATOM_UDEF_STEREO_COUNT>
0

> <PUBCHEM_BOND_DEF_STEREO_COUNT>
0

> <PUBCHEM_BOND_UDEF_STEREO_COUNT>
0

> <PUBCHEM_ISOTOPIC_ATOM_COUNT>
0

> <PUBCHEM_COMPONENT_COUNT>
1

> <PUBCHEM_CACTVS_TAUTO_COUNT>
1

> <PUBCHEM_CONFORMER_ID>
0000327900000001

> <PUBCHEM_MMFF94_ENERGY>
34.1284

> <PUBCHEM_FEATURE_SELFOVERLAP>
20.354

> <PUBCHEM_SHAPE_FINGERPRINT>
10675989 125 18410291445292344552
10864689 126 18266168449604741676
10937287 8 18337953360110338786
11059845 2 17976007292621900528
11374522 174 18200016357471738444
11386260 185 18046630276545047647
11761917 142 17543638526670685384
12107183 9 18196951981133461802
13944108 23 18197488722605638134
14223995 32 18190187776677659536
14251764 75 18336537214412313962
14429114 114 18337674101040749689
15198563 99 17613978009504973190
15400415 2 18338517413422267552
155225 5 17761773958292611536
155225 6 18411135797065782793
1768 85 18340201998880276527
21049683 118 17418091066140832979
21315764 268 18125441071422054093
437795 171 18343592836537505365
5047190 47 17836378412319602709
5047190 92 18339080385366561141
5312510 48 18337952415069496403
5951187 136 18261103106423788278
6176135 31 18412272726622844968
9849439 229 18340765919201070358

> <PUBCHEM_SHAPE_MULTIPOLES>
420.43
18.56
9.92
0.62
25.83
2.75
0
36.3
0.27
-14.3
0.04
-0.04
-0.02
0.72

> <PUBCHEM_SHAPE_SELFOVERLAP>
790.935

> <PUBCHEM_SHAPE_VOLUME>
262.2

> <PUBCHEM_COORDINATE_TYPE>
2
5
10

$$$$

