17396329
  -OEChem-06241222552D

 44 45  0     1  0  0  0  0  0999 V2000
    4.5981    2.0761    0.0000 S   0  0  0  0  0  0  0  0  0  0  0  0
    4.5981    0.0761    0.0000 O   0  0  0  0  0  0  0  0  0  0  0  0
    2.8660    0.0761    0.0000 N   0  0  0  0  0  0  0  0  0  0  0  0
    5.4071    3.6639    0.0000 N   0  0  0  0  0  0  0  0  0  0  0  0
    3.7891    3.6639    0.0000 N   0  0  0  0  0  0  0  0  0  0  0  0
    4.0981    4.6149    0.0000 N   0  0  0  0  0  0  0  0  0  0  0  0
    2.8660   -3.9239    0.0000 C   0  0  3  0  0  0  0  0  0  0  0  0
    2.0000   -4.4239    0.0000 C   0  0  0  0  0  0  0  0  0  0  0  0
    2.8660   -2.9239    0.0000 C   0  0  0  0  0  0  0  0  0  0  0  0
    3.7320   -4.4239    0.0000 C   0  0  0  0  0  0  0  0  0  0  0  0
    3.7320   -2.4239    0.0000 C   0  0  0  0  0  0  0  0  0  0  0  0
    2.0000   -2.4239    0.0000 C   0  0  0  0  0  0  0  0  0  0  0  0
    2.0000   -5.4239    0.0000 C   0  0  0  0  0  0  0  0  0  0  0  0
    2.8660   -0.9239    0.0000 C   0  0  0  0  0  0  0  0  0  0  0  0
    3.7320   -1.4239    0.0000 C   0  0  0  0  0  0  0  0  0  0  0  0
    2.0000   -1.4239    0.0000 C   0  0  0  0  0  0  0  0  0  0  0  0
    3.7320    0.5761    0.0000 C   0  0  0  0  0  0  0  0  0  0  0  0
    3.7320    1.5761    0.0000 C   0  0  0  0  0  0  0  0  0  0  0  0
    4.5981    3.0761    0.0000 C   0  0  0  0  0  0  0  0  0  0  0  0
    5.0981    4.6149    0.0000 C   0  0  0  0  0  0  0  0  0  0  0  0
    6.3582    3.3548    0.0000 C   0  0  0  0  0  0  0  0  0  0  0  0
    5.6859    5.4239    0.0000 C   0  0  0  0  0  0  0  0  0  0  0  0
    2.8660   -4.5439    0.0000 H   0  0  0  0  0  0  0  0  0  0  0  0
    1.7880   -3.8413    0.0000 H   0  0  0  0  0  0  0  0  0  0  0  0
    1.3894   -4.5316    0.0000 H   0  0  0  0  0  0  0  0  0  0  0  0
    3.4220   -4.9609    0.0000 H   0  0  0  0  0  0  0  0  0  0  0  0
    4.2690   -4.7339    0.0000 H   0  0  0  0  0  0  0  0  0  0  0  0
    4.0420   -3.8870    0.0000 H   0  0  0  0  0  0  0  0  0  0  0  0
    4.2690   -2.7339    0.0000 H   0  0  0  0  0  0  0  0  0  0  0  0
    1.4631   -2.7339    0.0000 H   0  0  0  0  0  0  0  0  0  0  0  0
    1.3800   -5.4239    0.0000 H   0  0  0  0  0  0  0  0  0  0  0  0
    2.0000   -6.0439    0.0000 H   0  0  0  0  0  0  0  0  0  0  0  0
    2.6200   -5.4239    0.0000 H   0  0  0  0  0  0  0  0  0  0  0  0
    4.2690   -1.1139    0.0000 H   0  0  0  0  0  0  0  0  0  0  0  0
    1.4631   -1.1139    0.0000 H   0  0  0  0  0  0  0  0  0  0  0  0
    2.3291    0.3861    0.0000 H   0  0  0  0  0  0  0  0  0  0  0  0
    3.5200    2.1587    0.0000 H   0  0  0  0  0  0  0  0  0  0  0  0
    3.1215    1.4684    0.0000 H   0  0  0  0  0  0  0  0  0  0  0  0
    6.1666    2.7652    0.0000 H   0  0  0  0  0  0  0  0  0  0  0  0
    6.9478    3.1632    0.0000 H   0  0  0  0  0  0  0  0  0  0  0  0
    6.5497    3.9445    0.0000 H   0  0  0  0  0  0  0  0  0  0  0  0
    6.1874    5.0595    0.0000 H   0  0  0  0  0  0  0  0  0  0  0  0
    6.0503    5.9255    0.0000 H   0  0  0  0  0  0  0  0  0  0  0  0
    5.1843    5.7884    0.0000 H   0  0  0  0  0  0  0  0  0  0  0  0
  1 18  1  0  0  0  0
  1 19  1  0  0  0  0
  2 17  2  0  0  0  0
  3 14  1  0  0  0  0
  3 17  1  0  0  0  0
  3 36  1  0  0  0  0
  4 19  1  0  0  0  0
  4 20  1  0  0  0  0
  4 21  1  0  0  0  0
  5  6  1  0  0  0  0
  5 19  2  0  0  0  0
  6 20  2  0  0  0  0
  7  8  1  0  0  0  0
  7  9  1  0  0  0  0
  7 10  1  0  0  0  0
  7 23  1  0  0  0  0
  8 13  1  0  0  0  0
  8 24  1  0  0  0  0
  8 25  1  0  0  0  0
  9 11  2  0  0  0  0
  9 12  1  0  0  0  0
 10 26  1  0  0  0  0
 10 27  1  0  0  0  0
 10 28  1  0  0  0  0
 11 15  1  0  0  0  0
 11 29  1  0  0  0  0
 12 16  2  0  0  0  0
 12 30  1  0  0  0  0
 13 31  1  0  0  0  0
 13 32  1  0  0  0  0
 13 33  1  0  0  0  0
 14 15  2  0  0  0  0
 14 16  1  0  0  0  0
 15 34  1  0  0  0  0
 16 35  1  0  0  0  0
 17 18  1  0  0  0  0
 18 37  1  0  0  0  0
 18 38  1  0  0  0  0
 20 22  1  0  0  0  0
 21 39  1  0  0  0  0
 21 40  1  0  0  0  0
 21 41  1  0  0  0  0
 22 42  1  0  0  0  0
 22 43  1  0  0  0  0
 22 44  1  0  0  0  0
M  END
> <PUBCHEM_COMPOUND_CID>
17396329

> <PUBCHEM_COMPOUND_CANONICALIZED>
1

> <PUBCHEM_CACTVS_COMPLEXITY>
360

> <PUBCHEM_CACTVS_HBOND_ACCEPTOR>
4

> <PUBCHEM_CACTVS_HBOND_DONOR>
1

> <PUBCHEM_CACTVS_ROTATABLE_BOND>
6

> <PUBCHEM_CACTVS_SUBSKEYS>
AAADceB7oABAAAAAAAAAAAAAAAAAAWAAAAAwAAAAAAAAAAABwAAAHgQYAAAADQiF2wSz0IfMEAiqAidydACS0AthArAdyAAYZIiIKCLAmZGEIAhgnALIyAcQgMAOiAAAAAAAAAAQAAAAAAAAAAAAAAAAAA==

> <PUBCHEM_IUPAC_OPENEYE_NAME>
2-[(4,5-dimethyl-1,2,4-triazol-3-yl)sulfanyl]-N-(4-sec-butylphenyl)acetamide

> <PUBCHEM_IUPAC_CAS_NAME>
N-(4-butan-2-ylphenyl)-2-[(4,5-dimethyl-1,2,4-triazol-3-yl)thio]acetamide

> <PUBCHEM_IUPAC_NAME>
N-(4-butan-2-ylphenyl)-2-[(4,5-dimethyl-1,2,4-triazol-3-yl)sulfanyl]acetamide

> <PUBCHEM_IUPAC_SYSTEMATIC_NAME>
N-(4-butan-2-ylphenyl)-2-[(4,5-dimethyl-1,2,4-triazol-3-yl)sulfanyl]ethanamide

> <PUBCHEM_IUPAC_TRADITIONAL_NAME>
2-[(4,5-dimethyl-1,2,4-triazol-3-yl)thio]-N-(4-sec-butylphenyl)acetamide

> <PUBCHEM_IUPAC_INCHI>
InChI=1S/C16H22N4OS/c1-5-11(2)13-6-8-14(9-7-13)17-15(21)10-22-16-19-18-12(3)20(16)4/h6-9,11H,5,10H2,1-4H3,(H,17,21)

> <PUBCHEM_IUPAC_INCHIKEY>
IEKSOHUHBPMZMH-UHFFFAOYSA-N

> <PUBCHEM_XLOGP3_AA>
3.2

> <PUBCHEM_EXACT_MASS>
318.151432

> <PUBCHEM_MOLECULAR_FORMULA>
C16H22N4OS

> <PUBCHEM_MOLECULAR_WEIGHT>
318.43708

> <PUBCHEM_OPENEYE_CAN_SMILES>
CCC(C)C1=CC=C(C=C1)NC(=O)CSC2=NN=C(N2C)C

> <PUBCHEM_OPENEYE_ISO_SMILES>
CCC(C)C1=CC=C(C=C1)NC(=O)CSC2=NN=C(N2C)C

> <PUBCHEM_CACTVS_TPSA>
85.1

> <PUBCHEM_MONOISOTOPIC_WEIGHT>
318.151432

> <PUBCHEM_TOTAL_CHARGE>
0

> <PUBCHEM_HEAVY_ATOM_COUNT>
22

> <PUBCHEM_ATOM_DEF_STEREO_COUNT>
0

> <PUBCHEM_ATOM_UDEF_STEREO_COUNT>
1

> <PUBCHEM_BOND_DEF_STEREO_COUNT>
0

> <PUBCHEM_BOND_UDEF_STEREO_COUNT>
0

> <PUBCHEM_ISOTOPIC_ATOM_COUNT>
0

> <PUBCHEM_COMPONENT_COUNT>
1

> <PUBCHEM_CACTVS_TAUTO_COUNT>
3

> <PUBCHEM_COORDINATE_TYPE>
1
5
255

> <PUBCHEM_BONDANNOTATIONS>
11  15  8
12  16  8
14  15  8
14  16  8
4  19  8
4  20  8
5  19  8
5  6  8
6  20  8
7  10  3
9  11  8
9  12  8

$$$$

