582947
  -OEChem-06241222443D

 22 23  0     0  0  0  0  0  0999 V2000
    2.3401    2.5126    0.0875 I   0  0  0  0  0  0  0  0  0  0  0  0
   -2.3175    1.2565   -0.3588 C   0  0  0  0  0  0  0  0  0  0  0  0
   -2.7905    0.0005    0.3616 C   0  0  0  0  0  0  0  0  0  0  0  0
   -0.8799    1.5894    0.0369 C   0  0  0  0  0  0  0  0  0  0  0  0
   -1.9383   -1.2006   -0.0443 C   0  0  0  0  0  0  0  0  0  0  0  0
    0.0421    0.3966   -0.0099 C   0  0  0  0  0  0  0  0  0  0  0  0
   -0.4570   -0.9192   -0.0076 C   0  0  0  0  0  0  0  0  0  0  0  0
    1.4293    0.6071    0.0024 C   0  0  0  0  0  0  0  0  0  0  0  0
    0.4417   -1.9967   -0.0299 C   0  0  0  0  0  0  0  0  0  0  0  0
    2.3118   -0.4725   -0.0097 C   0  0  0  0  0  0  0  0  0  0  0  0
    1.8182   -1.7738   -0.0282 C   0  0  0  0  0  0  0  0  0  0  0  0
   -2.9716    2.1013   -0.1152 H   0  0  0  0  0  0  0  0  0  0  0  0
   -2.3813    1.1026   -1.4436 H   0  0  0  0  0  0  0  0  0  0  0  0
   -3.8420   -0.1979    0.1257 H   0  0  0  0  0  0  0  0  0  0  0  0
   -2.7275    0.1538    1.4465 H   0  0  0  0  0  0  0  0  0  0  0  0
   -0.8747    1.9945    1.0565 H   0  0  0  0  0  0  0  0  0  0  0  0
   -0.5451    2.3741   -0.6494 H   0  0  0  0  0  0  0  0  0  0  0  0
   -2.2013   -1.5020   -1.0661 H   0  0  0  0  0  0  0  0  0  0  0  0
   -2.1754   -2.0402    0.6199 H   0  0  0  0  0  0  0  0  0  0  0  0
    0.0706   -3.0186   -0.0485 H   0  0  0  0  0  0  0  0  0  0  0  0
    3.3895   -0.3292   -0.0002 H   0  0  0  0  0  0  0  0  0  0  0  0
    2.5041   -2.6157   -0.0404 H   0  0  0  0  0  0  0  0  0  0  0  0
  1  8  1  0  0  0  0
  2  3  1  0  0  0  0
  2  4  1  0  0  0  0
  2 12  1  0  0  0  0
  2 13  1  0  0  0  0
  3  5  1  0  0  0  0
  3 14  1  0  0  0  0
  3 15  1  0  0  0  0
  4  6  1  0  0  0  0
  4 16  1  0  0  0  0
  4 17  1  0  0  0  0
  5  7  1  0  0  0  0
  5 18  1  0  0  0  0
  5 19  1  0  0  0  0
  6  7  2  0  0  0  0
  6  8  1  0  0  0  0
  7  9  1  0  0  0  0
  8 10  2  0  0  0  0
  9 11  2  0  0  0  0
  9 20  1  0  0  0  0
 10 11  1  0  0  0  0
 10 21  1  0  0  0  0
 11 22  1  0  0  0  0
M  END
> <PUBCHEM_COMPOUND_CID>
582947

> <PUBCHEM_CONFORMER_RMSD>
0.4

> <PUBCHEM_CONFORMER_DIVERSEORDER>
1

> <PUBCHEM_MMFF94_PARTIAL_CHARGES>
12
1 -0.08
10 -0.15
11 -0.15
20 0.15
21 0.15
22 0.15
4 0.14
5 0.14
6 -0.14
7 -0.14
8 0.08
9 -0.15

> <PUBCHEM_EFFECTIVE_ROTOR_COUNT>
0.8

> <PUBCHEM_PHARMACOPHORE_FEATURES>
3
1 1 hydrophobe
6 2 3 4 5 6 7 rings
6 6 7 8 9 10 11 rings

> <PUBCHEM_HEAVY_ATOM_COUNT>
11

> <PUBCHEM_ATOM_DEF_STEREO_COUNT>
0

> <PUBCHEM_ATOM_UDEF_STEREO_COUNT>
0

> <PUBCHEM_BOND_DEF_STEREO_COUNT>
0

> <PUBCHEM_BOND_UDEF_STEREO_COUNT>
0

> <PUBCHEM_ISOTOPIC_ATOM_COUNT>
0

> <PUBCHEM_COMPONENT_COUNT>
1

> <PUBCHEM_CACTVS_TAUTO_COUNT>
1

> <PUBCHEM_CONFORMER_ID>
0008E52300000001

> <PUBCHEM_MMFF94_ENERGY>
23.5222

> <PUBCHEM_FEATURE_SELFOVERLAP>
15.244

> <PUBCHEM_SHAPE_FINGERPRINT>
10967382 1 18338516326720876640
12423570 1 9332012955582350162
12524768 44 18342176665496579765
13380535 76 18194125118608968536
13897977 150 18411141311951185037
14648413 74 18340769342036855977
15775835 57 18262510373595496289
16945 1 18337954605112108847
17990270 104 18338236092968635058
193761 8 18338517417874723902
19973954 147 18410854403692950457
20871998 184 17398380936889715934
21040471 1 18194401091648105486
21501502 16 18337394842034944713
21524375 3 18120094983615382776
2334 1 18266459789218341388
23552423 10 18412545409563428559
241688 4 17617376624792117322
2748010 2 18339638923766025397
5084963 1 18187365441032378451
66348 1 17977666742296710048
7364860 26 18335136497118504740

> <PUBCHEM_SHAPE_MULTIPOLES>
238.31
3.93
2.66
0.67
0.07
0.25
-0.01
-1.88
-0.16
1.07
0.06
0.03
-0.08
0.11

> <PUBCHEM_SHAPE_SELFOVERLAP>
481.632

> <PUBCHEM_SHAPE_VOLUME>
143.3

> <PUBCHEM_COORDINATE_TYPE>
2
5
10

$$$$

