854092
  -OEChem-06241222472D

 45 46  0     0  0  0  0  0  0999 V2000
    6.7619   -2.5724    0.0000 O   0  0  0  0  0  0  0  0  0  0  0  0
    6.7619   -0.8404    0.0000 O   0  0  0  0  0  0  0  0  0  0  0  0
    4.6783   -0.9017    0.0000 N   0  0  0  0  0  0  0  0  0  0  0  0
    4.6318    1.7436    0.0000 N   0  0  0  0  0  0  0  0  0  0  0  0
    4.9889    0.0488    0.0000 C   0  0  0  0  0  0  0  0  0  0  0  0
    4.3211    0.7931    0.0000 C   0  0  0  0  0  0  0  0  0  0  0  0
    3.7320   -1.2064    0.0000 C   0  0  0  0  0  0  0  0  0  0  0  0
    5.2619   -1.7064    0.0000 C   0  0  0  0  0  0  0  0  0  0  0  0
    3.7320   -2.2064    0.0000 C   0  0  0  0  0  0  0  0  0  0  0  0
    3.9639    2.4880    0.0000 C   0  0  0  0  0  0  0  0  0  0  0  0
    5.6103    1.9499    0.0000 C   0  0  0  0  0  0  0  0  0  0  0  0
    4.6783   -2.5112    0.0000 C   0  0  0  0  0  0  0  0  0  0  0  0
    2.8660   -0.7064    0.0000 C   0  0  0  0  0  0  0  0  0  0  0  0
    2.8660   -2.7064    0.0000 C   0  0  0  0  0  0  0  0  0  0  0  0
    5.9209    2.9004    0.0000 C   0  0  0  0  0  0  0  0  0  0  0  0
    4.2746    3.4385    0.0000 C   0  0  0  0  0  0  0  0  0  0  0  0
    6.2619   -1.7064    0.0000 C   0  0  0  0  0  0  0  0  0  0  0  0
    2.0000   -1.2064    0.0000 C   0  0  0  0  0  0  0  0  0  0  0  0
    2.0000   -2.2064    0.0000 C   0  0  0  0  0  0  0  0  0  0  0  0
    7.7619   -2.5724    0.0000 C   0  0  0  0  0  0  0  0  0  0  0  0
    8.2619   -3.4385    0.0000 C   0  0  0  0  0  0  0  0  0  0  0  0
    5.5359   -0.2432    0.0000 H   0  0  0  0  0  0  0  0  0  0  0  0
    5.3715    0.5367    0.0000 H   0  0  0  0  0  0  0  0  0  0  0  0
    3.7742    1.0852    0.0000 H   0  0  0  0  0  0  0  0  0  0  0  0
    3.9385    0.3052    0.0000 H   0  0  0  0  0  0  0  0  0  0  0  0
    5.6308    1.3302    0.0000 H   0  0  0  0  0  0  0  0  0  0  0  0
    3.4170    2.7800    0.0000 H   0  0  0  0  0  0  0  0  0  0  0  0
    3.5814    2.0000    0.0000 H   0  0  0  0  0  0  0  0  0  0  0  0
    6.2241    1.8625    0.0000 H   0  0  0  0  0  0  0  0  0  0  0  0
    4.8709   -3.1005    0.0000 H   0  0  0  0  0  0  0  0  0  0  0  0
    2.8660   -0.0864    0.0000 H   0  0  0  0  0  0  0  0  0  0  0  0
    2.8660   -3.3264    0.0000 H   0  0  0  0  0  0  0  0  0  0  0  0
    4.8639    3.2459    0.0000 H   0  0  0  0  0  0  0  0  0  0  0  0
    4.4672    4.0278    0.0000 H   0  0  0  0  0  0  0  0  0  0  0  0
    3.6852    3.6311    0.0000 H   0  0  0  0  0  0  0  0  0  0  0  0
    6.5102    2.7078    0.0000 H   0  0  0  0  0  0  0  0  0  0  0  0
    6.1135    3.4897    0.0000 H   0  0  0  0  0  0  0  0  0  0  0  0
    5.3316    3.0930    0.0000 H   0  0  0  0  0  0  0  0  0  0  0  0
    1.4631   -0.8964    0.0000 H   0  0  0  0  0  0  0  0  0  0  0  0
    1.4631   -2.5164    0.0000 H   0  0  0  0  0  0  0  0  0  0  0  0
    8.3445   -2.3604    0.0000 H   0  0  0  0  0  0  0  0  0  0  0  0
    7.6542   -1.9619    0.0000 H   0  0  0  0  0  0  0  0  0  0  0  0
    7.7249   -3.7485    0.0000 H   0  0  0  0  0  0  0  0  0  0  0  0
    8.5719   -3.9754    0.0000 H   0  0  0  0  0  0  0  0  0  0  0  0
    8.7988   -3.1285    0.0000 H   0  0  0  0  0  0  0  0  0  0  0  0
  1 17  1  0  0  0  0
  1 20  1  0  0  0  0
  2 17  2  0  0  0  0
  3  5  1  0  0  0  0
  3  7  1  0  0  0  0
  3  8  1  0  0  0  0
  4  6  1  0  0  0  0
  4 10  1  0  0  0  0
  4 11  1  0  0  0  0
  5  6  1  0  0  0  0
  5 22  1  0  0  0  0
  5 23  1  0  0  0  0
  6 24  1  0  0  0  0
  6 25  1  0  0  0  0
  7  9  1  0  0  0  0
  7 13  2  0  0  0  0
  8 12  2  0  0  0  0
  8 17  1  0  0  0  0
  9 12  1  0  0  0  0
  9 14  2  0  0  0  0
 10 16  1  0  0  0  0
 10 27  1  0  0  0  0
 10 28  1  0  0  0  0
 11 15  1  0  0  0  0
 11 26  1  0  0  0  0
 11 29  1  0  0  0  0
 12 30  1  0  0  0  0
 13 18  1  0  0  0  0
 13 31  1  0  0  0  0
 14 19  1  0  0  0  0
 14 32  1  0  0  0  0
 15 36  1  0  0  0  0
 15 37  1  0  0  0  0
 15 38  1  0  0  0  0
 16 33  1  0  0  0  0
 16 34  1  0  0  0  0
 16 35  1  0  0  0  0
 18 19  2  0  0  0  0
 18 39  1  0  0  0  0
 19 40  1  0  0  0  0
 20 21  1  0  0  0  0
 20 41  1  0  0  0  0
 20 42  1  0  0  0  0
 21 43  1  0  0  0  0
 21 44  1  0  0  0  0
 21 45  1  0  0  0  0
M  END
> <PUBCHEM_COMPOUND_CID>
854092

> <PUBCHEM_COMPOUND_CANONICALIZED>
1

> <PUBCHEM_CACTVS_COMPLEXITY>
331

> <PUBCHEM_CACTVS_HBOND_ACCEPTOR>
3

> <PUBCHEM_CACTVS_HBOND_DONOR>
0

> <PUBCHEM_CACTVS_ROTATABLE_BOND>
8

> <PUBCHEM_CACTVS_SUBSKEYS>
AAADceB7MAAAAAAAAAAAAAAAAAAAAWAAAAAwAAAAAAAAAFgB8AAAHgAAAAAADAjhngYyyPMMFACoAyTyTASCgCAnAiAI2CG4bNgKZvLAtbmXMQhkwAHY6YeY2aOeAAAAAAACAAAAAAAAAAQAAAAAAAAAAA==

> <PUBCHEM_IUPAC_OPENEYE_NAME>
ethyl 1-[2-(diethylamino)ethyl]indole-2-carboxylate

> <PUBCHEM_IUPAC_CAS_NAME>
1-[2-(diethylamino)ethyl]-2-indolecarboxylic acid ethyl ester

> <PUBCHEM_IUPAC_NAME>
ethyl 1-[2-(diethylamino)ethyl]indole-2-carboxylate

> <PUBCHEM_IUPAC_SYSTEMATIC_NAME>
ethyl 1-[2-(diethylamino)ethyl]indole-2-carboxylate

> <PUBCHEM_IUPAC_TRADITIONAL_NAME>
1-[2-(diethylamino)ethyl]indole-2-carboxylic acid ethyl ester

> <PUBCHEM_IUPAC_INCHI>
InChI=1S/C17H24N2O2/c1-4-18(5-2)11-12-19-15-10-8-7-9-14(15)13-16(19)17(20)21-6-3/h7-10,13H,4-6,11-12H2,1-3H3

> <PUBCHEM_IUPAC_INCHIKEY>
PLABEFFARHTPDR-UHFFFAOYSA-N

> <PUBCHEM_XLOGP3_AA>
3.3

> <PUBCHEM_EXACT_MASS>
288.183778

> <PUBCHEM_MOLECULAR_FORMULA>
C17H24N2O2

> <PUBCHEM_MOLECULAR_WEIGHT>
288.38466

> <PUBCHEM_OPENEYE_CAN_SMILES>
CCN(CC)CCN1C2=CC=CC=C2C=C1C(=O)OCC

> <PUBCHEM_OPENEYE_ISO_SMILES>
CCN(CC)CCN1C2=CC=CC=C2C=C1C(=O)OCC

> <PUBCHEM_CACTVS_TPSA>
34.5

> <PUBCHEM_MONOISOTOPIC_WEIGHT>
288.183778

> <PUBCHEM_TOTAL_CHARGE>
0

> <PUBCHEM_HEAVY_ATOM_COUNT>
21

> <PUBCHEM_ATOM_DEF_STEREO_COUNT>
0

> <PUBCHEM_ATOM_UDEF_STEREO_COUNT>
0

> <PUBCHEM_BOND_DEF_STEREO_COUNT>
0

> <PUBCHEM_BOND_UDEF_STEREO_COUNT>
0

> <PUBCHEM_ISOTOPIC_ATOM_COUNT>
0

> <PUBCHEM_COMPONENT_COUNT>
1

> <PUBCHEM_CACTVS_TAUTO_COUNT>
1

> <PUBCHEM_COORDINATE_TYPE>
1
5
255

> <PUBCHEM_BONDANNOTATIONS>
13  18  8
14  19  8
18  19  8
3  7  8
3  8  8
7  13  8
7  9  8
8  12  8
9  12  8
9  14  8

$$$$

