11863
  -OEChem-06261206133D

 26 25  0     0  0  0  0  0  0999 V2000
   -0.2650   -0.0197    0.3429 C   0  0  0  0  0  0  0  0  0  0  0  0
    1.2857    0.0236    0.1682 C   0  0  0  0  0  0  0  0  0  0  0  0
   -0.9733    1.2401   -0.2157 C   0  0  0  0  0  0  0  0  0  0  0  0
   -0.8919   -1.3047   -0.2539 C   0  0  0  0  0  0  0  0  0  0  0  0
    1.7428    0.0519   -1.2927 C   0  0  0  0  0  0  0  0  0  0  0  0
    1.9864   -1.1258    0.9038 C   0  0  0  0  0  0  0  0  0  0  0  0
   -0.4887    2.5545    0.3817 C   0  0  0  0  0  0  0  0  0  0  0  0
   -2.3961   -1.4198   -0.0343 C   0  0  0  0  0  0  0  0  0  0  0  0
   -0.4628   -0.0386    1.4243 H   0  0  0  0  0  0  0  0  0  0  0  0
    1.6503    0.9430    0.6424 H   0  0  0  0  0  0  0  0  0  0  0  0
   -0.8857    1.2800   -1.3073 H   0  0  0  0  0  0  0  0  0  0  0  0
   -2.0447    1.1818    0.0054 H   0  0  0  0  0  0  0  0  0  0  0  0
   -0.6983   -1.3612   -1.3307 H   0  0  0  0  0  0  0  0  0  0  0  0
   -0.4260   -2.1850    0.2016 H   0  0  0  0  0  0  0  0  0  0  0  0
    2.8326    0.1521   -1.3480 H   0  0  0  0  0  0  0  0  0  0  0  0
    1.4730   -0.8663   -1.8231 H   0  0  0  0  0  0  0  0  0  0  0  0
    1.3143    0.9009   -1.8326 H   0  0  0  0  0  0  0  0  0  0  0  0
    1.6501   -1.1871    1.9439 H   0  0  0  0  0  0  0  0  0  0  0  0
    3.0705   -0.9666    0.9149 H   0  0  0  0  0  0  0  0  0  0  0  0
    1.8037   -2.0921    0.4236 H   0  0  0  0  0  0  0  0  0  0  0  0
    0.5282    2.7934    0.0577 H   0  0  0  0  0  0  0  0  0  0  0  0
   -1.1357    3.3753    0.0548 H   0  0  0  0  0  0  0  0  0  0  0  0
   -0.5100    2.5219    1.4754 H   0  0  0  0  0  0  0  0  0  0  0  0
   -2.6562   -1.2600    1.0166 H   0  0  0  0  0  0  0  0  0  0  0  0
   -2.7367   -2.4215   -0.3174 H   0  0  0  0  0  0  0  0  0  0  0  0
   -2.9520   -0.7065   -0.6494 H   0  0  0  0  0  0  0  0  0  0  0  0
  1  2  1  0  0  0  0
  1  3  1  0  0  0  0
  1  4  1  0  0  0  0
  1  9  1  0  0  0  0
  2  5  1  0  0  0  0
  2  6  1  0  0  0  0
  2 10  1  0  0  0  0
  3  7  1  0  0  0  0
  3 11  1  0  0  0  0
  3 12  1  0  0  0  0
  4  8  1  0  0  0  0
  4 13  1  0  0  0  0
  4 14  1  0  0  0  0
  5 15  1  0  0  0  0
  5 16  1  0  0  0  0
  5 17  1  0  0  0  0
  6 18  1  0  0  0  0
  6 19  1  0  0  0  0
  6 20  1  0  0  0  0
  7 21  1  0  0  0  0
  7 22  1  0  0  0  0
  7 23  1  0  0  0  0
  8 24  1  0  0  0  0
  8 25  1  0  0  0  0
  8 26  1  0  0  0  0
M  END
> <PUBCHEM_COMPOUND_CID>
11863

> <PUBCHEM_CONFORMER_RMSD>
0.6

> <PUBCHEM_CONFORMER_DIVERSEORDER>
1
2
4
3

> <PUBCHEM_MMFF94_PARTIAL_CHARGES>
0

> <PUBCHEM_EFFECTIVE_ROTOR_COUNT>
3

> <PUBCHEM_PHARMACOPHORE_FEATURES>
4
1 7 hydrophobe
1 8 hydrophobe
3 2 5 6 hydrophobe
4 1 2 3 4 hydrophobe

> <PUBCHEM_HEAVY_ATOM_COUNT>
8

> <PUBCHEM_ATOM_DEF_STEREO_COUNT>
0

> <PUBCHEM_ATOM_UDEF_STEREO_COUNT>
0

> <PUBCHEM_BOND_DEF_STEREO_COUNT>
0

> <PUBCHEM_BOND_UDEF_STEREO_COUNT>
0

> <PUBCHEM_ISOTOPIC_ATOM_COUNT>
0

> <PUBCHEM_COMPONENT_COUNT>
1

> <PUBCHEM_CACTVS_TAUTO_COUNT>
1

> <PUBCHEM_CONFORMER_ID>
00002E5700000001

> <PUBCHEM_MMFF94_ENERGY>
9.0367

> <PUBCHEM_FEATURE_SELFOVERLAP>
20.58

> <PUBCHEM_SHAPE_FINGERPRINT>
137420 1 9488466326226547978
18185500 45 18341613650997537610
20653091 64 17903068933154891387
20711985 344 18262500602539519303
21040471 1 17832422373048681192
21930827 45 17825094063609240008
23211744 25 17264392255026824422
23211744 41 17174088665084525880
23552333 60 17704077265533365242
23552423 10 18131634516767633578
23552449 1 18336277815630963920
23552449 11 17975703792219425443
24536 1 17168143494106976482
29004967 10 18197784288768828747
5084963 1 17556856145966426776
5943 1 13934514242344697966

> <PUBCHEM_SHAPE_MULTIPOLES>
164.64
2.67
2.25
0.98
0.03
1.51
0.17
-1.46
0.07
1.06
-0.35
-0.55
-0.06
-0.34

> <PUBCHEM_SHAPE_SELFOVERLAP>
288.441

> <PUBCHEM_SHAPE_VOLUME>
110.9

> <PUBCHEM_COORDINATE_TYPE>
2
5
10

$$$$

