17395516
  -OEChem-06241222503D

 43 44  0     0  0  0  0  0  0999 V2000
    0.6719   -4.0856   -0.4328 Cl  0  0  0  0  0  0  0  0  0  0  0  0
    2.3990    2.2724    1.9093 O   0  0  0  0  0  0  0  0  0  0  0  0
   -2.1475    2.2167    1.4154 O   0  0  0  0  0  0  0  0  0  0  0  0
   -3.6582   -0.4548   -1.5230 O   0  0  0  0  0  0  0  0  0  0  0  0
    1.5202    1.4448   -0.0911 N   0  0  0  0  0  0  0  0  0  0  0  0
   -1.9948    1.1383   -1.0831 N   0  0  0  0  0  0  0  0  0  0  0  0
    0.1367    2.2379    1.6464 N   0  0  0  0  0  0  0  0  0  0  0  0
    0.5384    0.5963   -2.1420 N   0  0  0  0  0  0  0  0  0  0  0  0
    2.8547    1.1693   -0.6273 C   0  0  0  0  0  0  0  0  0  0  0  0
    3.3410   -0.2349   -0.2843 C   0  0  0  0  0  0  0  0  0  0  0  0
    0.3943    1.1432   -0.8822 C   0  0  0  0  0  0  0  0  0  0  0  0
   -0.8414    1.3963   -0.3909 C   0  0  0  0  0  0  0  0  0  0  0  0
    4.7468   -0.5173   -0.8194 C   0  0  0  0  0  0  0  0  0  0  0  0
    1.4296    2.0002    1.1961 C   0  0  0  0  0  0  0  0  0  0  0  0
   -1.0306    1.9832    0.9602 C   0  0  0  0  0  0  0  0  0  0  0  0
    5.2287   -1.9007   -0.4112 C   0  0  0  0  0  0  0  0  0  0  0  0
   -2.6208   -0.1150   -0.9541 C   0  0  0  0  0  0  0  0  0  0  0  0
   -2.5158    2.2190   -1.9326 C   0  0  0  0  0  0  0  0  0  0  0  0
   -1.9978   -1.1266   -0.0836 C   0  0  0  0  0  0  0  0  0  0  0  0
   -1.0656   -2.0212   -0.6095 C   0  0  0  0  0  0  0  0  0  0  0  0
   -2.3408   -1.1902    1.2670 C   0  0  0  0  0  0  0  0  0  0  0  0
   -0.4765   -2.9796    0.2153 C   0  0  0  0  0  0  0  0  0  0  0  0
   -1.7517   -2.1484    2.0916 C   0  0  0  0  0  0  0  0  0  0  0  0
   -0.8196   -3.0432    1.5659 C   0  0  0  0  0  0  0  0  0  0  0  0
    3.5540    1.8902   -0.1840 H   0  0  0  0  0  0  0  0  0  0  0  0
    2.8968    1.3704   -1.7030 H   0  0  0  0  0  0  0  0  0  0  0  0
    3.3325   -0.3668    0.8051 H   0  0  0  0  0  0  0  0  0  0  0  0
    2.6433   -0.9786   -0.6886 H   0  0  0  0  0  0  0  0  0  0  0  0
    4.7495   -0.4392   -1.9127 H   0  0  0  0  0  0  0  0  0  0  0  0
    5.4477    0.2339   -0.4375 H   0  0  0  0  0  0  0  0  0  0  0  0
    0.0440    2.6395    2.5752 H   0  0  0  0  0  0  0  0  0  0  0  0
    4.5630   -2.6780   -0.8001 H   0  0  0  0  0  0  0  0  0  0  0  0
    6.2327   -2.0840   -0.8061 H   0  0  0  0  0  0  0  0  0  0  0  0
    5.2693   -1.9965    0.6785 H   0  0  0  0  0  0  0  0  0  0  0  0
    1.4354    0.2650   -2.4662 H   0  0  0  0  0  0  0  0  0  0  0  0
   -0.2892    0.3816   -2.6852 H   0  0  0  0  0  0  0  0  0  0  0  0
   -1.7691    2.4816   -2.6880 H   0  0  0  0  0  0  0  0  0  0  0  0
   -2.7399    3.0912   -1.3111 H   0  0  0  0  0  0  0  0  0  0  0  0
   -3.4314    1.8950   -2.4347 H   0  0  0  0  0  0  0  0  0  0  0  0
   -0.8070   -1.9773   -1.6649 H   0  0  0  0  0  0  0  0  0  0  0  0
   -3.0703   -0.5027    1.6868 H   0  0  0  0  0  0  0  0  0  0  0  0
   -2.0197   -2.1985    3.1429 H   0  0  0  0  0  0  0  0  0  0  0  0
   -0.3690   -3.7848    2.2205 H   0  0  0  0  0  0  0  0  0  0  0  0
  1 22  1  0  0  0  0
  2 14  2  0  0  0  0
  3 15  2  0  0  0  0
  4 17  2  0  0  0  0
  5  9  1  0  0  0  0
  5 11  1  0  0  0  0
  5 14  1  0  0  0  0
  6 12  1  0  0  0  0
  6 17  1  0  0  0  0
  6 18  1  0  0  0  0
  7 14  1  0  0  0  0
  7 15  1  0  0  0  0
  7 31  1  0  0  0  0
  8 11  1  0  0  0  0
  8 35  1  0  0  0  0
  8 36  1  0  0  0  0
  9 10  1  0  0  0  0
  9 25  1  0  0  0  0
  9 26  1  0  0  0  0
 10 13  1  0  0  0  0
 10 27  1  0  0  0  0
 10 28  1  0  0  0  0
 11 12  2  0  0  0  0
 12 15  1  0  0  0  0
 13 16  1  0  0  0  0
 13 29  1  0  0  0  0
 13 30  1  0  0  0  0
 16 32  1  0  0  0  0
 16 33  1  0  0  0  0
 16 34  1  0  0  0  0
 17 19  1  0  0  0  0
 18 37  1  0  0  0  0
 18 38  1  0  0  0  0
 18 39  1  0  0  0  0
 19 20  2  0  0  0  0
 19 21  1  0  0  0  0
 20 22  1  0  0  0  0
 20 40  1  0  0  0  0
 21 23  2  0  0  0  0
 21 41  1  0  0  0  0
 22 24  2  0  0  0  0
 23 24  1  0  0  0  0
 23 42  1  0  0  0  0
 24 43  1  0  0  0  0
M  END
> <PUBCHEM_COMPOUND_CID>
17395516

> <PUBCHEM_CONFORMER_RMSD>
0.8

> <PUBCHEM_CONFORMER_DIVERSEORDER>
1
15
48
99
45
81
102
98
114
88
72
51
40
93
70
96
38
43
5
84
19
71
17
4
117
76
47
113
57
25
100
79
105
23
36
52
106
108
44
68
56
92
53
60
58
63
107
83
73
90
35
50
77
69
26
109
89
41
110
24
103
33
65
49
80
14
115
78
64
86
101
29
94
55
82
7
118
46
22
54
104
97
112
62
39
6
111
9
13
91
18
2
21
75
27
66
32
42
116
95
28
59
30
16
34
85
37
67
8
20
3
87
10
61
31
74
12
11

> <PUBCHEM_MMFF94_PARTIAL_CHARGES>
28
1 -0.18
11 0.21
12 0.12
14 0.69
15 0.62
17 0.54
18 0.3
19 0.09
2 -0.57
20 -0.15
21 -0.15
22 0.18
23 -0.15
24 -0.15
3 -0.57
31 0.37
35 0.4
36 0.4
4 -0.57
40 0.15
41 0.15
42 0.15
43 0.15
5 -0.47
6 -0.47
7 -0.49
8 -0.9
9 0.3

> <PUBCHEM_EFFECTIVE_ROTOR_COUNT>
6

> <PUBCHEM_PHARMACOPHORE_FEATURES>
9
1 16 hydrophobe
1 2 acceptor
1 3 acceptor
1 4 acceptor
1 7 donor
1 8 cation
1 8 donor
6 19 20 21 22 23 24 rings
6 5 7 11 12 14 15 rings

> <PUBCHEM_HEAVY_ATOM_COUNT>
24

> <PUBCHEM_ATOM_DEF_STEREO_COUNT>
0

> <PUBCHEM_ATOM_UDEF_STEREO_COUNT>
0

> <PUBCHEM_BOND_DEF_STEREO_COUNT>
0

> <PUBCHEM_BOND_UDEF_STEREO_COUNT>
0

> <PUBCHEM_ISOTOPIC_ATOM_COUNT>
0

> <PUBCHEM_COMPONENT_COUNT>
1

> <PUBCHEM_CACTVS_TAUTO_COUNT>
8

> <PUBCHEM_CONFORMER_ID>
01096F3C00000001

> <PUBCHEM_MMFF94_ENERGY>
84.4961

> <PUBCHEM_FEATURE_SELFOVERLAP>
45.669

> <PUBCHEM_SHAPE_FINGERPRINT>
107951 10 17346880082596026011
12156800 1 12166655576806309022
12403259 327 16741103928129692675
12592029 89 17843409737237811869
12633257 1 17678430035992640858
133893 2 17122876695281821501
13631057 29 18124297330432158054
14251740 79 18267582593102883094
14955137 171 17107638675476086365
15163728 17 16126153977043330799
16945 1 17773898423167108845
20775530 9 17836914617258067586
20832881 197 18187649089869234641
21731516 1 16764519054882400883
23466295 7 17987493988875550082
23559900 14 18267591195943859332
5283178 26 18191564403225663010
6287921 2 16818282420465373110
81228 2 17983312430095665221

> <PUBCHEM_SHAPE_MULTIPOLES>
458.25
6.14
4.31
1.95
9.17
3.25
-0.35
1.01
1.88
-0.47
-1.11
-0.98
-0.69
1.44

> <PUBCHEM_SHAPE_SELFOVERLAP>
956.329

> <PUBCHEM_SHAPE_VOLUME>
259.8

> <PUBCHEM_COORDINATE_TYPE>
2
5
10

$$$$

