4255
  -OEChem-06251223593D

 33 34  0     0  0  0  0  0  0999 V2000
   -5.1601   -0.9376    0.2140 O   0  0  0  0  0  0  0  0  0  0  0  0
    4.3283   -0.5718    0.4252 O   0  0  0  0  0  0  0  0  0  0  0  0
    2.7135   -0.6102    1.7440 O   0  5  0  0  0  0  0  0  0  0  0  0
   -2.5441    0.0518   -0.3322 N   0  0  0  0  0  0  0  0  0  0  0  0
   -1.1966    0.5879   -0.1636 N   0  3  0  0  0  0  0  0  0  0  0  0
   -0.9109    1.8130    0.2960 N   0  0  0  0  0  0  0  0  0  0  0  0
    2.3483    0.3017   -0.3975 N   0  0  0  0  0  0  0  0  0  0  0  0
   -3.6413    0.9464    0.0526 C   0  0  0  0  0  0  0  0  0  0  0  0
   -2.7626   -1.3038    0.1843 C   0  0  0  0  0  0  0  0  0  0  0  0
   -4.9867    0.3578   -0.3590 C   0  0  0  0  0  0  0  0  0  0  0  0
   -4.1346   -1.8249   -0.2307 C   0  0  0  0  0  0  0  0  0  0  0  0
   -0.0443   -0.1256   -0.4791 C   0  0  0  0  0  0  0  0  0  0  0  0
    0.5793    1.9333    0.2938 C   0  0  0  0  0  0  0  0  0  0  0  0
    1.0393    0.6110   -0.2318 C   0  0  0  0  0  0  0  0  0  0  0  0
    3.0033   -0.2556    0.5860 C   0  0  0  0  0  0  0  0  0  0  0  0
    4.9583   -0.2762   -0.8335 C   0  0  0  0  0  0  0  0  0  0  0  0
    6.4109   -0.6972   -0.7686 C   0  0  0  0  0  0  0  0  0  0  0  0
   -3.5322    1.9247   -0.4307 H   0  0  0  0  0  0  0  0  0  0  0  0
   -3.6274    1.1025    1.1393 H   0  0  0  0  0  0  0  0  0  0  0  0
   -2.6893   -1.2943    1.2797 H   0  0  0  0  0  0  0  0  0  0  0  0
   -2.0141   -2.0084   -0.1934 H   0  0  0  0  0  0  0  0  0  0  0  0
   -5.7991    0.9947    0.0056 H   0  0  0  0  0  0  0  0  0  0  0  0
   -5.0818    0.2919   -1.4498 H   0  0  0  0  0  0  0  0  0  0  0  0
   -4.2061   -1.9527   -1.3178 H   0  0  0  0  0  0  0  0  0  0  0  0
   -4.3172   -2.8012    0.2296 H   0  0  0  0  0  0  0  0  0  0  0  0
   -0.0551   -1.1283   -0.8787 H   0  0  0  0  0  0  0  0  0  0  0  0
    0.9345    2.1183    1.3124 H   0  0  0  0  0  0  0  0  0  0  0  0
    0.8815    2.7575   -0.3601 H   0  0  0  0  0  0  0  0  0  0  0  0
    4.4493   -0.8266   -1.6322 H   0  0  0  0  0  0  0  0  0  0  0  0
    4.8947    0.7999   -1.0285 H   0  0  0  0  0  0  0  0  0  0  0  0
    6.9219   -0.4864   -1.7122 H   0  0  0  0  0  0  0  0  0  0  0  0
    6.9289   -0.1704    0.0396 H   0  0  0  0  0  0  0  0  0  0  0  0
    6.4924   -1.7677   -0.5534 H   0  0  0  0  0  0  0  0  0  0  0  0
  1 10  1  0  0  0  0
  1 11  1  0  0  0  0
  2 15  1  0  0  0  0
  2 16  1  0  0  0  0
  3 15  1  0  0  0  0
  4  5  1  0  0  0  0
  4  8  1  0  0  0  0
  4  9  1  0  0  0  0
  5  6  2  0  0  0  0
  5 12  1  0  0  0  0
  6 13  1  0  0  0  0
  7 14  1  0  0  0  0
  7 15  2  0  0  0  0
  8 10  1  0  0  0  0
  8 18  1  0  0  0  0
  8 19  1  0  0  0  0
  9 11  1  0  0  0  0
  9 20  1  0  0  0  0
  9 21  1  0  0  0  0
 10 22  1  0  0  0  0
 10 23  1  0  0  0  0
 11 24  1  0  0  0  0
 11 25  1  0  0  0  0
 12 14  2  0  0  0  0
 12 26  1  0  0  0  0
 13 14  1  0  0  0  0
 13 27  1  0  0  0  0
 13 28  1  0  0  0  0
 16 17  1  0  0  0  0
 16 29  1  0  0  0  0
 16 30  1  0  0  0  0
 17 31  1  0  0  0  0
 17 32  1  0  0  0  0
 17 33  1  0  0  0  0
M  CHG  2   3  -1   5   1
M  END
> <PUBCHEM_COMPOUND_CID>
4255

> <PUBCHEM_CONFORMER_RMSD>
0.8

> <PUBCHEM_CONFORMER_DIVERSEORDER>
1
9
10
34
7
18
32
25
30
13
15
26
11
3
24
14
2
22
37
35
29
12
31
28
6
8
19
21
5
23
4
33
36
17
20
27
16

> <PUBCHEM_MMFF94_PARTIAL_CHARGES>
17
1 -0.56
10 0.28
11 0.28
12 0.14
13 0.38
14 0.03
15 0.46
16 0.28
2 -0.43
26 0.15
3 -0.86
4 -0.37
5 0.42
6 -0.13
7 -0.62
8 0.27
9 0.27

> <PUBCHEM_EFFECTIVE_ROTOR_COUNT>
5.4

> <PUBCHEM_PHARMACOPHORE_FEATURES>
3
1 1 acceptor
5 5 6 12 13 14 rings
6 1 4 8 9 10 11 rings

> <PUBCHEM_HEAVY_ATOM_COUNT>
17

> <PUBCHEM_ATOM_DEF_STEREO_COUNT>
0

> <PUBCHEM_ATOM_UDEF_STEREO_COUNT>
0

> <PUBCHEM_BOND_DEF_STEREO_COUNT>
0

> <PUBCHEM_BOND_UDEF_STEREO_COUNT>
0

> <PUBCHEM_ISOTOPIC_ATOM_COUNT>
0

> <PUBCHEM_COMPONENT_COUNT>
1

> <PUBCHEM_CACTVS_TAUTO_COUNT>
1

> <PUBCHEM_CONFORMER_ID>
0000109F00000001

> <PUBCHEM_MMFF94_ENERGY>
39.1904

> <PUBCHEM_FEATURE_SELFOVERLAP>
15.223

> <PUBCHEM_SHAPE_FINGERPRINT>
10968037 39 18343298158803815702
11046707 91 18412547604581795633
114248 4 14908179750450301234
12236239 1 18060135466526222628
124424 183 18410296896043296549
12596602 18 4895260513019122254
12714333 28 14908178647197574830
12788726 201 18270964673078357488
13288520 33 18409164415798092141
13675066 3 17749396948760483977
13740256 8 18409164376900754286
13760787 19 17988927803002153401
14251718 22 18272930518759755478
14251731 8 18342741827674598421
14252887 29 17749102305493171862
14386348 63 18113896074154213070
14576447 43 18060703883872940786
15188451 53 16443638883176836871
15242433 33 17988926694916603826
15501527 24 17917704700273201510
15537594 2 18202845465551430803
15880784 105 16732992972590641143
17804303 29 18410294683971660677
17834072 33 18273493464391946172
17834072 8 18342745122088522925
18222031 100 18187376410415821173
200 152 17418092139628701132
20281475 54 18201448011809787048
20374829 77 18411420609131303414
20871999 31 17917999398874273253
21033648 29 16660940970436265097
21150785 3 14979958034998267427
21267235 1 18411975833171970611
2297311 6 18260258677198597436
23035841 295 18413106186690854370
23402539 116 18410294722104036276
23402655 69 16988571246152317021
23557571 272 18042118916054132660
23559900 14 18337115570387493793
26918003 58 16588022403159893911
3004659 81 18273497853389625676
335352 9 18410012152892210837
351380 180 6916261840622263630
351380 3 18343022181280145059
4463277 17 18409446981855063260
465052 167 18261668177674354438
5104073 3 18189893124687796835
68521 5 18411136982366006157

> <PUBCHEM_SHAPE_MULTIPOLES>
312.32
12.93
1.55
0.89
7.85
0.25
0.22
-5.42
-2.1
-1.3
0.09
0.85
-0.12
0.11

> <PUBCHEM_SHAPE_SELFOVERLAP>
631.705

> <PUBCHEM_SHAPE_VOLUME>
183.1

> <PUBCHEM_COORDINATE_TYPE>
2
5
10

$$$$

