586320
  -OEChem-06241222462D

 40 44  0     1  0  0  0  0  0999 V2000
    4.6649    2.0568    0.0000 S   0  0  0  0  0  0  0  0  0  0  0  0
    2.9505   -0.2988    0.0000 S   0  0  0  0  0  0  0  0  0  0  0  0
    4.6649    3.0568    0.0000 O   0  0  0  0  0  0  0  0  0  0  0  0
    3.7138    2.3658    0.0000 O   0  0  0  0  0  0  0  0  0  0  0  0
    2.0000   -0.6094    0.0000 O   0  0  0  0  0  0  0  0  0  0  0  0
    2.3613    0.5092    0.0000 O   0  0  0  0  0  0  0  0  0  0  0  0
    3.7599    0.2925    0.0000 C   0  0  3  0  0  0  0  0  0  0  0  0
    4.3559    1.1058    0.0000 C   0  0  3  0  0  0  0  0  0  0  0  0
    4.5756   -0.3002    0.0000 C   0  0  3  0  0  0  0  0  0  0  0  0
    5.1649    0.5180    0.0000 C   0  0  3  0  0  0  0  0  0  0  0  0
    4.2634   -1.2526    0.0000 C   0  0  0  0  0  0  0  0  0  0  0  0
    5.9739    1.1058    0.0000 C   0  0  0  0  0  0  0  0  0  0  0  0
    2.9509    0.8803    0.0000 C   0  0  0  0  0  0  0  0  0  0  0  0
    3.5469    1.6936    0.0000 C   0  0  0  0  0  0  0  0  0  0  0  0
    3.2611   -1.2518    0.0000 C   0  0  0  0  0  0  0  0  0  0  0  0
    5.6649    2.0568    0.0000 C   0  0  0  0  0  0  0  0  0  0  0  0
    6.9893    0.8735    0.0000 C   0  0  0  0  0  0  0  0  0  0  0  0
    4.7985   -2.1491    0.0000 C   0  0  0  0  0  0  0  0  0  0  0  0
    2.7244   -2.1473    0.0000 C   0  0  0  0  0  0  0  0  0  0  0  0
    6.3499    2.8416    0.0000 C   0  0  0  0  0  0  0  0  0  0  0  0
    7.6923    1.6422    0.0000 C   0  0  0  0  0  0  0  0  0  0  0  0
    4.2827   -3.0568    0.0000 C   0  0  0  0  0  0  0  0  0  0  0  0
    7.3704    2.6328    0.0000 C   0  0  0  0  0  0  0  0  0  0  0  0
    3.2386   -3.0559    0.0000 C   0  0  0  0  0  0  0  0  0  0  0  0
    5.1282   -0.5812    0.0000 H   0  0  0  0  0  0  0  0  0  0  0  0
    5.6042    0.0805    0.0000 H   0  0  0  0  0  0  0  0  0  0  0  0
    3.9113    2.1951    0.0000 H   0  0  0  0  0  0  0  0  0  0  0  0
    3.0453    2.0580    0.0000 H   0  0  0  0  0  0  0  0  0  0  0  0
    3.1824    1.1920    0.0000 H   0  0  0  0  0  0  0  0  0  0  0  0
    3.3153    1.3819    0.0000 H   0  0  0  0  0  0  0  0  0  0  0  0
    2.4493    1.2447    0.0000 H   0  0  0  0  0  0  0  0  0  0  0  0
    2.5864    0.3787    0.0000 H   0  0  0  0  0  0  0  0  0  0  0  0
    5.4185   -2.1425    0.0000 H   0  0  0  0  0  0  0  0  0  0  0  0
    7.1741    0.2817    0.0000 H   0  0  0  0  0  0  0  0  0  0  0  0
    2.1044   -2.1396    0.0000 H   0  0  0  0  0  0  0  0  0  0  0  0
    6.1515    3.4290    0.0000 H   0  0  0  0  0  0  0  0  0  0  0  0
    4.5943   -3.5928    0.0000 H   0  0  0  0  0  0  0  0  0  0  0  0
    8.2982    1.5110    0.0000 H   0  0  0  0  0  0  0  0  0  0  0  0
    2.9261   -3.5914    0.0000 H   0  0  0  0  0  0  0  0  0  0  0  0
    7.7835    3.0952    0.0000 H   0  0  0  0  0  0  0  0  0  0  0  0
  1  3  2  0  0  0  0
  1  4  2  0  0  0  0
  1  8  1  0  0  0  0
  1 16  1  0  0  0  0
  2  5  2  0  0  0  0
  2  6  2  0  0  0  0
  2  7  1  0  0  0  0
  2 15  1  0  0  0  0
  7  8  1  0  0  0  0
  7  9  1  0  0  0  0
  7 13  1  0  0  0  0
  8 10  1  0  0  0  0
  8 14  1  0  0  0  0
  9 10  1  0  0  0  0
  9 11  1  0  0  0  0
  9 25  1  0  0  0  0
 10 12  1  0  0  0  0
 10 26  1  0  0  0  0
 11 15  1  0  0  0  0
 11 18  2  0  0  0  0
 12 16  1  0  0  0  0
 12 17  2  0  0  0  0
 13 30  1  0  0  0  0
 13 31  1  0  0  0  0
 13 32  1  0  0  0  0
 14 27  1  0  0  0  0
 14 28  1  0  0  0  0
 14 29  1  0  0  0  0
 15 19  2  0  0  0  0
 16 20  2  0  0  0  0
 17 21  1  0  0  0  0
 17 34  1  0  0  0  0
 18 22  1  0  0  0  0
 18 33  1  0  0  0  0
 19 24  1  0  0  0  0
 19 35  1  0  0  0  0
 20 23  1  0  0  0  0
 20 36  1  0  0  0  0
 21 23  2  0  0  0  0
 21 38  1  0  0  0  0
 22 24  2  0  0  0  0
 22 37  1  0  0  0  0
 23 40  1  0  0  0  0
 24 39  1  0  0  0  0
M  END
> <PUBCHEM_COMPOUND_CID>
586320

> <PUBCHEM_COMPOUND_CANONICALIZED>
1

> <PUBCHEM_CACTVS_COMPLEXITY>
722

> <PUBCHEM_CACTVS_HBOND_ACCEPTOR>
4

> <PUBCHEM_CACTVS_HBOND_DONOR>
0

> <PUBCHEM_CACTVS_ROTATABLE_BOND>
0

> <PUBCHEM_CACTVS_SUBSKEYS>
AAADceB4OABgAAAAAAAAAAAAAABgASJAAAAwYAAABIkAAEgBQAAAGAQAAAAADQCAWAAyAYAAAAqAAiBCAHBCAAAgCBAIiBgAAIgIICKgERCAIAAggAAoiAcAgMAOgAAAAAAEAAAAAAAAAAgAAAAAAAAAAA==

> <PUBCHEM_IUPAC_INCHI>
InChI=1S/C18H16O4S2/c1-17-15(11-7-3-5-9-13(11)23(17,19)20)16-12-8-4-6-10-14(12)24(21,22)18(16,17)2/h3-10,15-16H,1-2H3

> <PUBCHEM_IUPAC_INCHIKEY>
SZCXBSPUFDSOTB-UHFFFAOYSA-N

> <PUBCHEM_XLOGP3_AA>
2

> <PUBCHEM_EXACT_MASS>
360.049001

> <PUBCHEM_MOLECULAR_FORMULA>
C18H16O4S2

> <PUBCHEM_MOLECULAR_WEIGHT>
360.44724

> <PUBCHEM_OPENEYE_CAN_SMILES>
CC12C(C3C1(S(=O)(=O)C4=CC=CC=C34)C)C5=CC=CC=C5S2(=O)=O

> <PUBCHEM_OPENEYE_ISO_SMILES>
CC12C(C3C1(S(=O)(=O)C4=CC=CC=C34)C)C5=CC=CC=C5S2(=O)=O

> <PUBCHEM_CACTVS_TPSA>
85

> <PUBCHEM_MONOISOTOPIC_WEIGHT>
360.049001

> <PUBCHEM_TOTAL_CHARGE>
0

> <PUBCHEM_HEAVY_ATOM_COUNT>
24

> <PUBCHEM_ATOM_DEF_STEREO_COUNT>
0

> <PUBCHEM_ATOM_UDEF_STEREO_COUNT>
4

> <PUBCHEM_BOND_DEF_STEREO_COUNT>
0

> <PUBCHEM_BOND_UDEF_STEREO_COUNT>
0

> <PUBCHEM_ISOTOPIC_ATOM_COUNT>
0

> <PUBCHEM_COMPONENT_COUNT>
1

> <PUBCHEM_CACTVS_TAUTO_COUNT>
1

> <PUBCHEM_COORDINATE_TYPE>
1
5
255

> <PUBCHEM_BONDANNOTATIONS>
10  12  3
11  15  8
11  18  8
12  16  8
12  17  8
15  19  8
16  20  8
17  21  8
18  22  8
19  24  8
20  23  8
21  23  8
22  24  8
7  13  3
8  14  3
9  11  3

$$$$

