14127
  -OEChem-06241222422D

 34 34  0     0  0  0  0  0  0999 V2000
    3.7320    0.1550    0.0000 O   0  0  0  0  0  0  0  0  0  0  0  0
    2.0000    0.1550    0.0000 O   0  0  0  0  0  0  0  0  0  0  0  0
    2.8660   -4.3450    0.0000 O   0  0  0  0  0  0  0  0  0  0  0  0
    4.5981    2.6550    0.0000 C   0  0  0  0  0  0  0  0  0  0  0  0
    5.4641    3.1550    0.0000 C   0  0  0  0  0  0  0  0  0  0  0  0
    4.5981    1.6550    0.0000 C   0  0  0  0  0  0  0  0  0  0  0  0
    5.4641    4.1550    0.0000 C   0  0  0  0  0  0  0  0  0  0  0  0
    3.7320    1.1550    0.0000 C   0  0  0  0  0  0  0  0  0  0  0  0
    6.3301    4.6550    0.0000 C   0  0  0  0  0  0  0  0  0  0  0  0
    2.8660   -0.3450    0.0000 C   0  0  0  0  0  0  0  0  0  0  0  0
    2.8660   -1.3450    0.0000 C   0  0  0  0  0  0  0  0  0  0  0  0
    2.0000   -1.8450    0.0000 C   0  0  0  0  0  0  0  0  0  0  0  0
    3.7320   -1.8450    0.0000 C   0  0  0  0  0  0  0  0  0  0  0  0
    2.0000   -2.8450    0.0000 C   0  0  0  0  0  0  0  0  0  0  0  0
    3.7320   -2.8450    0.0000 C   0  0  0  0  0  0  0  0  0  0  0  0
    2.8660   -3.3450    0.0000 C   0  0  0  0  0  0  0  0  0  0  0  0
    4.3860    3.2376    0.0000 H   0  0  0  0  0  0  0  0  0  0  0  0
    3.9875    2.5473    0.0000 H   0  0  0  0  0  0  0  0  0  0  0  0
    5.6762    2.5724    0.0000 H   0  0  0  0  0  0  0  0  0  0  0  0
    6.0747    3.2627    0.0000 H   0  0  0  0  0  0  0  0  0  0  0  0
    4.8101    1.0724    0.0000 H   0  0  0  0  0  0  0  0  0  0  0  0
    5.2087    1.7627    0.0000 H   0  0  0  0  0  0  0  0  0  0  0  0
    5.2520    4.7376    0.0000 H   0  0  0  0  0  0  0  0  0  0  0  0
    4.8535    4.0473    0.0000 H   0  0  0  0  0  0  0  0  0  0  0  0
    3.5200    1.7376    0.0000 H   0  0  0  0  0  0  0  0  0  0  0  0
    3.1215    1.0473    0.0000 H   0  0  0  0  0  0  0  0  0  0  0  0
    6.6401    4.1181    0.0000 H   0  0  0  0  0  0  0  0  0  0  0  0
    6.8671    4.9650    0.0000 H   0  0  0  0  0  0  0  0  0  0  0  0
    6.0201    5.1919    0.0000 H   0  0  0  0  0  0  0  0  0  0  0  0
    1.4631   -1.5350    0.0000 H   0  0  0  0  0  0  0  0  0  0  0  0
    4.2690   -1.5350    0.0000 H   0  0  0  0  0  0  0  0  0  0  0  0
    1.4631   -3.1550    0.0000 H   0  0  0  0  0  0  0  0  0  0  0  0
    4.2690   -3.1550    0.0000 H   0  0  0  0  0  0  0  0  0  0  0  0
    2.3291   -4.6550    0.0000 H   0  0  0  0  0  0  0  0  0  0  0  0
  1  8  1  0  0  0  0
  1 10  1  0  0  0  0
  2 10  2  0  0  0  0
  3 16  1  0  0  0  0
  3 34  1  0  0  0  0
  4  5  1  0  0  0  0
  4  6  1  0  0  0  0
  4 17  1  0  0  0  0
  4 18  1  0  0  0  0
  5  7  1  0  0  0  0
  5 19  1  0  0  0  0
  5 20  1  0  0  0  0
  6  8  1  0  0  0  0
  6 21  1  0  0  0  0
  6 22  1  0  0  0  0
  7  9  1  0  0  0  0
  7 23  1  0  0  0  0
  7 24  1  0  0  0  0
  8 25  1  0  0  0  0
  8 26  1  0  0  0  0
  9 27  1  0  0  0  0
  9 28  1  0  0  0  0
  9 29  1  0  0  0  0
 10 11  1  0  0  0  0
 11 12  2  0  0  0  0
 11 13  1  0  0  0  0
 12 14  1  0  0  0  0
 12 30  1  0  0  0  0
 13 15  2  0  0  0  0
 13 31  1  0  0  0  0
 14 16  2  0  0  0  0
 14 32  1  0  0  0  0
 15 16  1  0  0  0  0
 15 33  1  0  0  0  0
M  END
> <PUBCHEM_COMPOUND_CID>
14127

> <PUBCHEM_COMPOUND_CANONICALIZED>
1

> <PUBCHEM_CACTVS_COMPLEXITY>
195

> <PUBCHEM_CACTVS_HBOND_ACCEPTOR>
3

> <PUBCHEM_CACTVS_HBOND_DONOR>
1

> <PUBCHEM_CACTVS_ROTATABLE_BOND>
7

> <PUBCHEM_CACTVS_SUBSKEYS>
AAADceBwMAAAAAAAAAAAAAAAAAAAAAAAAAAwAAAAAAAAAAABAAAAGgAACAAADASgmAIyDoAABgCIAiDSCAACAAAkIAAIiAEGCMgIJjKCNRqCcQAkwBEIuYeI7CzOIAAAAAAAAABAAAAAAAAAAAAAAAAAAA==

> <PUBCHEM_IUPAC_OPENEYE_NAME>
hexyl 4-hydroxybenzoate

> <PUBCHEM_IUPAC_CAS_NAME>
4-hydroxybenzoic acid hexyl ester

> <PUBCHEM_IUPAC_NAME>
hexyl 4-hydroxybenzoate

> <PUBCHEM_IUPAC_SYSTEMATIC_NAME>
hexyl 4-oxidanylbenzoate

> <PUBCHEM_IUPAC_TRADITIONAL_NAME>
4-hydroxybenzoic acid hexyl ester

> <PUBCHEM_IUPAC_INCHI>
InChI=1S/C13H18O3/c1-2-3-4-5-10-16-13(15)11-6-8-12(14)9-7-11/h6-9,14H,2-5,10H2,1H3

> <PUBCHEM_IUPAC_INCHIKEY>
ULULAZKOCFNOIM-UHFFFAOYSA-N

> <PUBCHEM_XLOGP3>
4.3

> <PUBCHEM_EXACT_MASS>
222.125594

> <PUBCHEM_MOLECULAR_FORMULA>
C13H18O3

> <PUBCHEM_MOLECULAR_WEIGHT>
222.28022

> <PUBCHEM_OPENEYE_CAN_SMILES>
CCCCCCOC(=O)C1=CC=C(C=C1)O

> <PUBCHEM_OPENEYE_ISO_SMILES>
CCCCCCOC(=O)C1=CC=C(C=C1)O

> <PUBCHEM_CACTVS_TPSA>
46.5

> <PUBCHEM_MONOISOTOPIC_WEIGHT>
222.125594

> <PUBCHEM_TOTAL_CHARGE>
0

> <PUBCHEM_HEAVY_ATOM_COUNT>
16

> <PUBCHEM_ATOM_DEF_STEREO_COUNT>
0

> <PUBCHEM_ATOM_UDEF_STEREO_COUNT>
0

> <PUBCHEM_BOND_DEF_STEREO_COUNT>
0

> <PUBCHEM_BOND_UDEF_STEREO_COUNT>
0

> <PUBCHEM_ISOTOPIC_ATOM_COUNT>
0

> <PUBCHEM_COMPONENT_COUNT>
1

> <PUBCHEM_CACTVS_TAUTO_COUNT>
4

> <PUBCHEM_COORDINATE_TYPE>
1
5
255

> <PUBCHEM_BONDANNOTATIONS>
11  12  8
11  13  8
12  14  8
13  15  8
14  16  8
15  16  8

$$$$

