47205771
  -OEChem-06241223002D

 39 39  0     0  0  0  0  0  0999 V2000
    3.7601   -2.1316    0.0000 S   0  0  0  0  0  0  0  0  0  0  0  0
    7.4223   -2.4709    0.0000 O   0  0  0  0  0  0  0  0  0  0  0  0
    9.4438    0.5146    0.0000 O   0  0  0  0  0  0  0  0  0  0  0  0
    7.9575   -0.8236    0.0000 N   0  0  0  0  0  0  0  0  0  0  0  0
   10.6028   -0.7725    0.0000 N   0  0  0  0  0  0  0  0  0  0  0  0
    7.7496    0.1545    0.0000 C   0  0  0  0  0  0  0  0  0  0  0  0
    8.4927    0.8236    0.0000 C   0  0  0  0  0  0  0  0  0  0  0  0
    8.2848    1.8018    0.0000 C   0  0  0  0  0  0  0  0  0  0  0  0
    8.9086   -1.1327    0.0000 C   0  0  0  0  0  0  0  0  0  0  0  0
    7.2144   -1.4928    0.0000 C   0  0  0  0  0  0  0  0  0  0  0  0
    9.0280    2.4709    0.0000 C   0  0  0  0  0  0  0  0  0  0  0  0
    9.6517   -0.4635    0.0000 C   0  0  0  0  0  0  0  0  0  0  0  0
    6.2633   -1.1838    0.0000 C   0  0  0  0  0  0  0  0  0  0  0  0
    5.5202   -1.8529    0.0000 C   0  0  0  0  0  0  0  0  0  0  0  0
    4.5691   -1.5439    0.0000 C   0  0  0  0  0  0  0  0  0  0  0  0
    4.2601   -0.5928    0.0000 C   0  0  0  0  0  0  0  0  0  0  0  0
    2.9511   -1.5439    0.0000 C   0  0  0  0  0  0  0  0  0  0  0  0
    3.2601   -0.5928    0.0000 C   0  0  0  0  0  0  0  0  0  0  0  0
    2.0000   -1.8529    0.0000 C   0  0  0  0  0  0  0  0  0  0  0  0
    7.4210    0.6803    0.0000 H   0  0  0  0  0  0  0  0  0  0  0  0
    7.1747   -0.0777    0.0000 H   0  0  0  0  0  0  0  0  0  0  0  0
    8.8213    0.2978    0.0000 H   0  0  0  0  0  0  0  0  0  0  0  0
    9.0676    1.0559    0.0000 H   0  0  0  0  0  0  0  0  0  0  0  0
    7.9563    2.3276    0.0000 H   0  0  0  0  0  0  0  0  0  0  0  0
    7.7100    1.5695    0.0000 H   0  0  0  0  0  0  0  0  0  0  0  0
    8.6175   -1.6801    0.0000 H   0  0  0  0  0  0  0  0  0  0  0  0
    9.3971   -1.5144    0.0000 H   0  0  0  0  0  0  0  0  0  0  0  0
    9.4428    2.0102    0.0000 H   0  0  0  0  0  0  0  0  0  0  0  0
    9.4887    2.8858    0.0000 H   0  0  0  0  0  0  0  0  0  0  0  0
    8.6131    2.9317    0.0000 H   0  0  0  0  0  0  0  0  0  0  0  0
    6.1344   -0.5773    0.0000 H   0  0  0  0  0  0  0  0  0  0  0  0
    5.6490   -2.4593    0.0000 H   0  0  0  0  0  0  0  0  0  0  0  0
    4.6245   -0.0912    0.0000 H   0  0  0  0  0  0  0  0  0  0  0  0
    2.8956   -0.0912    0.0000 H   0  0  0  0  0  0  0  0  0  0  0  0
   11.0635   -0.3577    0.0000 H   0  0  0  0  0  0  0  0  0  0  0  0
   10.7317   -1.3790    0.0000 H   0  0  0  0  0  0  0  0  0  0  0  0
    1.8084   -1.2632    0.0000 H   0  0  0  0  0  0  0  0  0  0  0  0
    1.4103   -2.0445    0.0000 H   0  0  0  0  0  0  0  0  0  0  0  0
    2.1916   -2.4425    0.0000 H   0  0  0  0  0  0  0  0  0  0  0  0
  1 15  1  0  0  0  0
  1 17  1  0  0  0  0
  2 10  2  0  0  0  0
  3 12  2  0  0  0  0
  4  6  1  0  0  0  0
  4  9  1  0  0  0  0
  4 10  1  0  0  0  0
  5 12  1  0  0  0  0
  5 35  1  0  0  0  0
  5 36  1  0  0  0  0
  6  7  1  0  0  0  0
  6 20  1  0  0  0  0
  6 21  1  0  0  0  0
  7  8  1  0  0  0  0
  7 22  1  0  0  0  0
  7 23  1  0  0  0  0
  8 11  1  0  0  0  0
  8 24  1  0  0  0  0
  8 25  1  0  0  0  0
  9 12  1  0  0  0  0
  9 26  1  0  0  0  0
  9 27  1  0  0  0  0
 10 13  1  0  0  0  0
 11 28  1  0  0  0  0
 11 29  1  0  0  0  0
 11 30  1  0  0  0  0
 13 14  2  3  0  0  0
 13 31  1  0  0  0  0
 14 15  1  0  0  0  0
 14 32  1  0  0  0  0
 15 16  2  0  0  0  0
 16 18  1  0  0  0  0
 16 33  1  0  0  0  0
 17 18  2  0  0  0  0
 17 19  1  0  0  0  0
 18 34  1  0  0  0  0
 19 37  1  0  0  0  0
 19 38  1  0  0  0  0
 19 39  1  0  0  0  0
M  END
> <PUBCHEM_COMPOUND_CID>
47205771

> <PUBCHEM_COMPOUND_CANONICALIZED>
1

> <PUBCHEM_CACTVS_COMPLEXITY>
344

> <PUBCHEM_CACTVS_HBOND_ACCEPTOR>
3

> <PUBCHEM_CACTVS_HBOND_DONOR>
1

> <PUBCHEM_CACTVS_ROTATABLE_BOND>
7

> <PUBCHEM_CACTVS_SUBSKEYS>
AAADceBzMABAAAAAAAAAAAAAAAAAASAAAAAAAAAAAAAAAAABgAAAHgQQAAAACADB0AQyAYNAAAiMACFSEACDAIAgCBBIiBiIAMgIYCKgkTCUAAAglgCoiYcAAAAAAAAAAAAAAAAAAAAAAAAAAAAAAAAAAA==

> <PUBCHEM_IUPAC_OPENEYE_NAME>
N-(2-amino-2-oxo-ethyl)-N-butyl-3-(5-methyl-2-thienyl)prop-2-enamide

> <PUBCHEM_IUPAC_CAS_NAME>
N-(2-amino-2-oxoethyl)-N-butyl-3-(5-methyl-2-thiophenyl)-2-propenamide

> <PUBCHEM_IUPAC_NAME>
N-(2-amino-2-oxoethyl)-N-butyl-3-(5-methylthiophen-2-yl)prop-2-enamide

> <PUBCHEM_IUPAC_SYSTEMATIC_NAME>
N-(2-azanyl-2-oxidanylidene-ethyl)-N-butyl-3-(5-methylthiophen-2-yl)prop-2-enamide

> <PUBCHEM_IUPAC_TRADITIONAL_NAME>
N-(2-amino-2-keto-ethyl)-N-butyl-3-(5-methyl-2-thienyl)acrylamide

> <PUBCHEM_IUPAC_INCHI>
InChI=1S/C14H20N2O2S/c1-3-4-9-16(10-13(15)17)14(18)8-7-12-6-5-11(2)19-12/h5-8H,3-4,9-10H2,1-2H3,(H2,15,17)

> <PUBCHEM_IUPAC_INCHIKEY>
HDCFLFVLOADDEK-UHFFFAOYSA-N

> <PUBCHEM_XLOGP3_AA>
2.1

> <PUBCHEM_EXACT_MASS>
280.124549

> <PUBCHEM_MOLECULAR_FORMULA>
C14H20N2O2S

> <PUBCHEM_MOLECULAR_WEIGHT>
280.3858

> <PUBCHEM_OPENEYE_CAN_SMILES>
CCCCN(CC(=O)N)C(=O)C=CC1=CC=C(S1)C

> <PUBCHEM_OPENEYE_ISO_SMILES>
CCCCN(CC(=O)N)C(=O)C=CC1=CC=C(S1)C

> <PUBCHEM_CACTVS_TPSA>
91.6

> <PUBCHEM_MONOISOTOPIC_WEIGHT>
280.124549

> <PUBCHEM_TOTAL_CHARGE>
0

> <PUBCHEM_HEAVY_ATOM_COUNT>
19

> <PUBCHEM_ATOM_DEF_STEREO_COUNT>
0

> <PUBCHEM_ATOM_UDEF_STEREO_COUNT>
0

> <PUBCHEM_BOND_DEF_STEREO_COUNT>
0

> <PUBCHEM_BOND_UDEF_STEREO_COUNT>
1

> <PUBCHEM_ISOTOPIC_ATOM_COUNT>
0

> <PUBCHEM_COMPONENT_COUNT>
1

> <PUBCHEM_CACTVS_TAUTO_COUNT>
3

> <PUBCHEM_COORDINATE_TYPE>
1
5
255

> <PUBCHEM_BONDANNOTATIONS>
1  15  8
1  17  8
13  14  1
15  16  8
16  18  8
17  18  8

$$$$

