13247
  -OEChem-06261208032D

 24 25  0     0  0  0  0  0  0999 V2000
    3.7320   -0.7673    0.0000 O   0  0  0  0  0  0  0  0  0  0  0  0
    2.0000   -0.7673    0.0000 O   0  0  0  0  0  0  0  0  0  0  0  0
    4.5981    0.7327    0.0000 C   0  0  0  0  0  0  0  0  0  0  0  0
    4.5981    1.7327    0.0000 C   0  0  0  0  0  0  0  0  0  0  0  0
    3.7320    0.2327    0.0000 C   0  0  0  0  0  0  0  0  0  0  0  0
    3.7320    2.2327    0.0000 C   0  0  0  0  0  0  0  0  0  0  0  0
    5.4920    0.1980    0.0000 C   0  0  0  0  0  0  0  0  0  0  0  0
    5.4920    2.2673    0.0000 C   0  0  0  0  0  0  0  0  0  0  0  0
    2.8660    0.7327    0.0000 C   0  0  0  0  0  0  0  0  0  0  0  0
    2.8660    1.7327    0.0000 C   0  0  0  0  0  0  0  0  0  0  0  0
    6.3981    0.7119    0.0000 C   0  0  0  0  0  0  0  0  0  0  0  0
    6.3981    1.7535    0.0000 C   0  0  0  0  0  0  0  0  0  0  0  0
    2.8660   -1.2673    0.0000 C   0  0  0  0  0  0  0  0  0  0  0  0
    2.8660   -2.2673    0.0000 C   0  0  0  0  0  0  0  0  0  0  0  0
    3.7320    2.8527    0.0000 H   0  0  0  0  0  0  0  0  0  0  0  0
    5.4848   -0.4220    0.0000 H   0  0  0  0  0  0  0  0  0  0  0  0
    5.4848    2.8873    0.0000 H   0  0  0  0  0  0  0  0  0  0  0  0
    2.3291    0.4227    0.0000 H   0  0  0  0  0  0  0  0  0  0  0  0
    2.3291    2.0427    0.0000 H   0  0  0  0  0  0  0  0  0  0  0  0
    6.9338    0.3998    0.0000 H   0  0  0  0  0  0  0  0  0  0  0  0
    6.9338    2.0656    0.0000 H   0  0  0  0  0  0  0  0  0  0  0  0
    2.2460   -2.2673    0.0000 H   0  0  0  0  0  0  0  0  0  0  0  0
    2.8660   -2.8873    0.0000 H   0  0  0  0  0  0  0  0  0  0  0  0
    3.4860   -2.2673    0.0000 H   0  0  0  0  0  0  0  0  0  0  0  0
  1  5  1  0  0  0  0
  1 13  1  0  0  0  0
  2 13  2  0  0  0  0
  3  4  1  0  0  0  0
  3  5  1  0  0  0  0
  3  7  2  0  0  0  0
  4  6  1  0  0  0  0
  4  8  2  0  0  0  0
  5  9  2  0  0  0  0
  6 10  2  0  0  0  0
  6 15  1  0  0  0  0
  7 11  1  0  0  0  0
  7 16  1  0  0  0  0
  8 12  1  0  0  0  0
  8 17  1  0  0  0  0
  9 10  1  0  0  0  0
  9 18  1  0  0  0  0
 10 19  1  0  0  0  0
 11 12  2  0  0  0  0
 11 20  1  0  0  0  0
 12 21  1  0  0  0  0
 13 14  1  0  0  0  0
 14 22  1  0  0  0  0
 14 23  1  0  0  0  0
 14 24  1  0  0  0  0
M  END
> <PUBCHEM_COMPOUND_CID>
13247

> <PUBCHEM_COMPOUND_CANONICALIZED>
1

> <PUBCHEM_CACTVS_COMPLEXITY>
212

> <PUBCHEM_CACTVS_HBOND_ACCEPTOR>
2

> <PUBCHEM_CACTVS_HBOND_DONOR>
0

> <PUBCHEM_CACTVS_ROTATABLE_BOND>
2

> <PUBCHEM_CACTVS_SUBSKEYS>
AAADccBwMAAAAAAAAAAAAAAAAAAAAAAAAAAwYAAAAAAAAADBUAAAGgAAAAAADASAmAAyDsAABACIAiDSCAACCAAgIAAIiAAGCIgMJiKEMRqCOiCkwBEIqAeAwLAOgAABAAAYAAAAAAIAADAAAAAAAAAAAA==

> <PUBCHEM_IUPAC_OPENEYE_NAME>
1-naphthyl acetate

> <PUBCHEM_IUPAC_CAS_NAME>
acetic acid 1-naphthalenyl ester

> <PUBCHEM_IUPAC_NAME>
naphthalen-1-yl acetate

> <PUBCHEM_IUPAC_SYSTEMATIC_NAME>
naphthalen-1-yl ethanoate

> <PUBCHEM_IUPAC_TRADITIONAL_NAME>
acetic acid 1-naphthyl ester

> <PUBCHEM_IUPAC_INCHI>
InChI=1S/C12H10O2/c1-9(13)14-12-8-4-6-10-5-2-3-7-11(10)12/h2-8H,1H3

> <PUBCHEM_IUPAC_INCHIKEY>
VGKONPUVOVVNSU-UHFFFAOYSA-N

> <PUBCHEM_XLOGP3>
2.8

> <PUBCHEM_EXACT_MASS>
186.06808

> <PUBCHEM_MOLECULAR_FORMULA>
C12H10O2

> <PUBCHEM_MOLECULAR_WEIGHT>
186.2066

> <PUBCHEM_OPENEYE_CAN_SMILES>
CC(=O)OC1=CC=CC2=CC=CC=C21

> <PUBCHEM_OPENEYE_ISO_SMILES>
CC(=O)OC1=CC=CC2=CC=CC=C21

> <PUBCHEM_CACTVS_TPSA>
26.3

> <PUBCHEM_MONOISOTOPIC_WEIGHT>
186.06808

> <PUBCHEM_TOTAL_CHARGE>
0

> <PUBCHEM_HEAVY_ATOM_COUNT>
14

> <PUBCHEM_ATOM_DEF_STEREO_COUNT>
0

> <PUBCHEM_ATOM_UDEF_STEREO_COUNT>
0

> <PUBCHEM_BOND_DEF_STEREO_COUNT>
0

> <PUBCHEM_BOND_UDEF_STEREO_COUNT>
0

> <PUBCHEM_ISOTOPIC_ATOM_COUNT>
0

> <PUBCHEM_COMPONENT_COUNT>
1

> <PUBCHEM_CACTVS_TAUTO_COUNT>
1

> <PUBCHEM_COORDINATE_TYPE>
1
5
255

> <PUBCHEM_BONDANNOTATIONS>
11  12  8
3  4  8
3  5  8
3  7  8
4  6  8
4  8  8
5  9  8
6  10  8
7  11  8
8  12  8
9  10  8

$$$$

