13931
  -OEChem-06241222412D

 33 33  0     0  0  0  0  0  0999 V2000
    5.4641    2.7500    0.0000 O   0  0  0  0  0  0  0  0  0  0  0  0
    7.1962   -0.2500    0.0000 O   0  0  0  0  0  0  0  0  0  0  0  0
    3.7320   -0.2500    0.0000 O   0  0  0  0  0  0  0  0  0  0  0  0
    6.3301    1.2500    0.0000 N   0  0  0  0  0  0  0  0  0  0  0  0
    4.5981    1.2500    0.0000 N   0  0  0  0  0  0  0  0  0  0  0  0
    5.4641   -0.2500    0.0000 N   0  0  0  0  0  0  0  0  0  0  0  0
    5.4641    1.7500    0.0000 C   0  0  0  0  0  0  0  0  0  0  0  0
    6.3301    0.2500    0.0000 C   0  0  0  0  0  0  0  0  0  0  0  0
    4.5981    0.2500    0.0000 C   0  0  0  0  0  0  0  0  0  0  0  0
    7.1962    1.7500    0.0000 C   0  0  0  0  0  0  0  0  0  0  0  0
    3.7320    1.7500    0.0000 C   0  0  0  0  0  0  0  0  0  0  0  0
    5.4641   -1.2500    0.0000 C   0  0  0  0  0  0  0  0  0  0  0  0
    8.0622    1.2500    0.0000 C   0  0  0  0  0  0  0  0  0  0  0  0
    2.8660    1.2500    0.0000 C   0  0  0  0  0  0  0  0  0  0  0  0
    4.5981   -1.7500    0.0000 C   0  0  0  0  0  0  0  0  0  0  0  0
    8.9282    1.7500    0.0000 C   0  0  0  0  0  0  0  0  0  0  0  0
    2.0000    1.7500    0.0000 C   0  0  0  0  0  0  0  0  0  0  0  0
    4.5981   -2.7500    0.0000 C   0  0  0  0  0  0  0  0  0  0  0  0
    7.5947    2.2250    0.0000 H   0  0  0  0  0  0  0  0  0  0  0  0
    6.7976    2.2250    0.0000 H   0  0  0  0  0  0  0  0  0  0  0  0
    4.1306    2.2250    0.0000 H   0  0  0  0  0  0  0  0  0  0  0  0
    3.3335    2.2250    0.0000 H   0  0  0  0  0  0  0  0  0  0  0  0
    5.6762   -1.8326    0.0000 H   0  0  0  0  0  0  0  0  0  0  0  0
    6.0747   -1.1423    0.0000 H   0  0  0  0  0  0  0  0  0  0  0  0
    4.0611   -1.4400    0.0000 H   0  0  0  0  0  0  0  0  0  0  0  0
    2.8660    0.6300    0.0000 H   0  0  0  0  0  0  0  0  0  0  0  0
    8.0622    0.6300    0.0000 H   0  0  0  0  0  0  0  0  0  0  0  0
    9.4651    1.4400    0.0000 H   0  0  0  0  0  0  0  0  0  0  0  0
    8.9282    2.3700    0.0000 H   0  0  0  0  0  0  0  0  0  0  0  0
    2.0000    2.3700    0.0000 H   0  0  0  0  0  0  0  0  0  0  0  0
    1.4631    1.4400    0.0000 H   0  0  0  0  0  0  0  0  0  0  0  0
    4.0611   -3.0600    0.0000 H   0  0  0  0  0  0  0  0  0  0  0  0
    5.1350   -3.0600    0.0000 H   0  0  0  0  0  0  0  0  0  0  0  0
  1  7  2  0  0  0  0
  2  8  2  0  0  0  0
  3  9  2  0  0  0  0
  4  7  1  0  0  0  0
  4  8  1  0  0  0  0
  4 10  1  0  0  0  0
  5  7  1  0  0  0  0
  5  9  1  0  0  0  0
  5 11  1  0  0  0  0
  6  8  1  0  0  0  0
  6  9  1  0  0  0  0
  6 12  1  0  0  0  0
 10 13  1  0  0  0  0
 10 19  1  0  0  0  0
 10 20  1  0  0  0  0
 11 14  1  0  0  0  0
 11 21  1  0  0  0  0
 11 22  1  0  0  0  0
 12 15  1  0  0  0  0
 12 23  1  0  0  0  0
 12 24  1  0  0  0  0
 13 16  2  0  0  0  0
 13 27  1  0  0  0  0
 14 17  2  0  0  0  0
 14 26  1  0  0  0  0
 15 18  2  0  0  0  0
 15 25  1  0  0  0  0
 16 28  1  0  0  0  0
 16 29  1  0  0  0  0
 17 30  1  0  0  0  0
 17 31  1  0  0  0  0
 18 32  1  0  0  0  0
 18 33  1  0  0  0  0
M  END
> <PUBCHEM_COMPOUND_CID>
13931

> <PUBCHEM_COMPOUND_CANONICALIZED>
1

> <PUBCHEM_CACTVS_COMPLEXITY>
331

> <PUBCHEM_CACTVS_HBOND_ACCEPTOR>
3

> <PUBCHEM_CACTVS_HBOND_DONOR>
0

> <PUBCHEM_CACTVS_ROTATABLE_BOND>
6

> <PUBCHEM_CACTVS_SUBSKEYS>
AAADccBzMAAAAAAAAAAAAAAAAAAAAAAAAAAsAAAAAAAAAAAAAAAAHgAAAAAACADBAAQBAAMAAACIACBCEACAAAAAAAAIAAAIAACAAAAAAQAAAAAIByIAAAAAAAAAAAAAAAAAAAAAAAAAAAAAAAAAAAAAAA==

> <PUBCHEM_IUPAC_OPENEYE_NAME>
1,3,5-triallyl-1,3,5-triazinane-2,4,6-trione

> <PUBCHEM_IUPAC_CAS_NAME>
1,3,5-tris(prop-2-enyl)-1,3,5-triazinane-2,4,6-trione

> <PUBCHEM_IUPAC_NAME>
1,3,5-tris(prop-2-enyl)-1,3,5-triazinane-2,4,6-trione

> <PUBCHEM_IUPAC_SYSTEMATIC_NAME>
1,3,5-tris(prop-2-enyl)-1,3,5-triazinane-2,4,6-trione

> <PUBCHEM_IUPAC_TRADITIONAL_NAME>
1,3,5-triallylisocyanuric acid

> <PUBCHEM_IUPAC_INCHI>
InChI=1S/C12H15N3O3/c1-4-7-13-10(16)14(8-5-2)12(18)15(9-6-3)11(13)17/h4-6H,1-3,7-9H2

> <PUBCHEM_IUPAC_INCHIKEY>
KOMNUTZXSVSERR-UHFFFAOYSA-N

> <PUBCHEM_XLOGP3_AA>
1.3

> <PUBCHEM_EXACT_MASS>
249.111341

> <PUBCHEM_MOLECULAR_FORMULA>
C12H15N3O3

> <PUBCHEM_MOLECULAR_WEIGHT>
249.2658

> <PUBCHEM_OPENEYE_CAN_SMILES>
C=CCN1C(=O)N(C(=O)N(C1=O)CC=C)CC=C

> <PUBCHEM_OPENEYE_ISO_SMILES>
C=CCN1C(=O)N(C(=O)N(C1=O)CC=C)CC=C

> <PUBCHEM_CACTVS_TPSA>
60.9

> <PUBCHEM_MONOISOTOPIC_WEIGHT>
249.111341

> <PUBCHEM_TOTAL_CHARGE>
0

> <PUBCHEM_HEAVY_ATOM_COUNT>
18

> <PUBCHEM_ATOM_DEF_STEREO_COUNT>
0

> <PUBCHEM_ATOM_UDEF_STEREO_COUNT>
0

> <PUBCHEM_BOND_DEF_STEREO_COUNT>
0

> <PUBCHEM_BOND_UDEF_STEREO_COUNT>
0

> <PUBCHEM_ISOTOPIC_ATOM_COUNT>
0

> <PUBCHEM_COMPONENT_COUNT>
1

> <PUBCHEM_CACTVS_TAUTO_COUNT>
1

> <PUBCHEM_COORDINATE_TYPE>
1
5
255

> <PUBCHEM_BONDANNOTATIONS>
4  7  8
4  8  8
5  7  8
5  9  8
6  8  8
6  9  8

$$$$

