17396109
  -OEChem-06241222543D

 57 60  0     1  0  0  0  0  0999 V2000
    0.6472   -0.2681   -0.7364 O   0  0  0  0  0  0  0  0  0  0  0  0
    5.2038    0.2190   -0.3029 O   0  0  0  0  0  0  0  0  0  0  0  0
    1.2028    1.7655    1.7065 O   0  0  0  0  0  0  0  0  0  0  0  0
    3.7517   -1.5468    0.1465 N   0  0  0  0  0  0  0  0  0  0  0  0
    2.8964    0.3440   -0.6656 N   0  0  0  0  0  0  0  0  0  0  0  0
    0.2008    3.1587    0.1415 N   0  0  0  0  0  0  0  0  0  0  0  0
    2.3403   -1.8329    0.0649 C   0  0  0  0  0  0  0  0  0  0  0  0
    1.7162   -2.1706    1.4238 C   0  0  0  0  0  0  0  0  0  0  0  0
    2.0301   -3.0010   -0.8742 C   0  0  0  0  0  0  0  0  0  0  0  0
    1.1971   -3.5985    1.2781 C   0  0  0  0  0  0  0  0  0  0  0  0
    0.8715   -3.7243   -0.2005 C   0  0  0  0  0  0  0  0  0  0  0  0
    1.8239   -0.5043   -0.4929 C   0  0  0  0  0  0  0  0  0  0  0  0
    4.0772   -0.2595   -0.2826 C   0  0  0  0  0  0  0  0  0  0  0  0
    2.7877    1.6964   -1.1754 C   0  0  0  0  0  0  0  0  0  0  0  0
    2.5555    2.7134   -0.0665 C   0  0  0  0  0  0  0  0  0  0  0  0
   -3.0078   -0.2253    0.5065 C   0  0  0  0  0  0  0  0  0  0  0  0
   -3.4054   -1.3197    1.4652 C   0  0  0  0  0  0  0  0  0  0  0  0
   -4.4699   -2.2587    0.9006 C   0  0  0  0  0  0  0  0  0  0  0  0
   -4.1026   -2.6913   -0.5131 C   0  0  0  0  0  0  0  0  0  0  0  0
   -4.0506   -1.4820   -1.4447 C   0  0  0  0  0  0  0  0  0  0  0  0
   -3.2768   -0.3211   -0.8716 C   0  0  0  0  0  0  0  0  0  0  0  0
    1.2691    2.4795    0.7097 C   0  0  0  0  0  0  0  0  0  0  0  0
   -1.1398    3.0970    0.6761 C   0  0  2  0  0  0  0  0  0  0  0  0
   -1.8934    1.9020    0.1329 C   0  0  0  0  0  0  0  0  0  0  0  0
   -2.3033    0.8855    0.9950 C   0  0  0  0  0  0  0  0  0  0  0  0
   -2.8677    0.7134   -1.7267 C   0  0  0  0  0  0  0  0  0  0  0  0
   -2.1773    1.8171   -1.2268 C   0  0  0  0  0  0  0  0  0  0  0  0
   -1.8766    4.4124    0.4326 C   0  0  0  0  0  0  0  0  0  0  0  0
    0.8788   -1.5017    1.6564 H   0  0  0  0  0  0  0  0  0  0  0  0
    2.4280   -2.1029    2.2539 H   0  0  0  0  0  0  0  0  0  0  0  0
    2.8881   -3.6811   -0.9478 H   0  0  0  0  0  0  0  0  0  0  0  0
    1.7669   -2.6882   -1.8902 H   0  0  0  0  0  0  0  0  0  0  0  0
    1.9833   -4.3119    1.5524 H   0  0  0  0  0  0  0  0  0  0  0  0
    0.3278   -3.7894    1.9141 H   0  0  0  0  0  0  0  0  0  0  0  0
   -0.0755   -3.2194   -0.4257 H   0  0  0  0  0  0  0  0  0  0  0  0
    0.7899   -4.7665   -0.5219 H   0  0  0  0  0  0  0  0  0  0  0  0
    4.4423   -2.2096    0.4851 H   0  0  0  0  0  0  0  0  0  0  0  0
    3.7137    1.9438   -1.7055 H   0  0  0  0  0  0  0  0  0  0  0  0
    1.9580    1.7295   -1.8906 H   0  0  0  0  0  0  0  0  0  0  0  0
    3.3800    2.6825    0.6566 H   0  0  0  0  0  0  0  0  0  0  0  0
    2.5498    3.7250   -0.4896 H   0  0  0  0  0  0  0  0  0  0  0  0
   -3.7816   -0.8816    2.3973 H   0  0  0  0  0  0  0  0  0  0  0  0
   -2.5057   -1.8984    1.7103 H   0  0  0  0  0  0  0  0  0  0  0  0
   -4.5693   -3.1351    1.5507 H   0  0  0  0  0  0  0  0  0  0  0  0
   -5.4446   -1.7546    0.8887 H   0  0  0  0  0  0  0  0  0  0  0  0
   -4.8341   -3.4150   -0.8898 H   0  0  0  0  0  0  0  0  0  0  0  0
   -3.1278   -3.1955   -0.5007 H   0  0  0  0  0  0  0  0  0  0  0  0
   -5.0725   -1.1398   -1.6510 H   0  0  0  0  0  0  0  0  0  0  0  0
   -3.6065   -1.7920   -2.3982 H   0  0  0  0  0  0  0  0  0  0  0  0
   -1.0449    2.9841    1.7642 H   0  0  0  0  0  0  0  0  0  0  0  0
   -2.0767    0.9476    2.0572 H   0  0  0  0  0  0  0  0  0  0  0  0
    0.3424    3.6613   -0.7303 H   0  0  0  0  0  0  0  0  0  0  0  0
   -3.0847    0.6618   -2.7909 H   0  0  0  0  0  0  0  0  0  0  0  0
   -1.8642    2.5968   -1.9157 H   0  0  0  0  0  0  0  0  0  0  0  0
   -1.9548    4.6505   -0.6341 H   0  0  0  0  0  0  0  0  0  0  0  0
   -2.8910    4.3785    0.8451 H   0  0  0  0  0  0  0  0  0  0  0  0
   -1.3447    5.2437    0.9091 H   0  0  0  0  0  0  0  0  0  0  0  0
  1 12  2  0  0  0  0
  2 13  2  0  0  0  0
  3 22  2  0  0  0  0
  4  7  1  0  0  0  0
  4 13  1  0  0  0  0
  4 37  1  0  0  0  0
  5 12  1  0  0  0  0
  5 13  1  0  0  0  0
  5 14  1  0  0  0  0
  6 22  1  0  0  0  0
  6 23  1  0  0  0  0
  6 52  1  0  0  0  0
  7  8  1  0  0  0  0
  7  9  1  0  0  0  0
  7 12  1  0  0  0  0
  8 10  1  0  0  0  0
  8 29  1  0  0  0  0
  8 30  1  0  0  0  0
  9 11  1  0  0  0  0
  9 31  1  0  0  0  0
  9 32  1  0  0  0  0
 10 11  1  0  0  0  0
 10 33  1  0  0  0  0
 10 34  1  0  0  0  0
 11 35  1  0  0  0  0
 11 36  1  0  0  0  0
 14 15  1  0  0  0  0
 14 38  1  0  0  0  0
 14 39  1  0  0  0  0
 15 22  1  0  0  0  0
 15 40  1  0  0  0  0
 15 41  1  0  0  0  0
 16 17  1  0  0  0  0
 16 21  2  0  0  0  0
 16 25  1  0  0  0  0
 17 18  1  0  0  0  0
 17 42  1  0  0  0  0
 17 43  1  0  0  0  0
 18 19  1  0  0  0  0
 18 44  1  0  0  0  0
 18 45  1  0  0  0  0
 19 20  1  0  0  0  0
 19 46  1  0  0  0  0
 19 47  1  0  0  0  0
 20 21  1  0  0  0  0
 20 48  1  0  0  0  0
 20 49  1  0  0  0  0
 21 26  1  0  0  0  0
 23 24  1  0  0  0  0
 23 28  1  0  0  0  0
 23 50  1  0  0  0  0
 24 25  2  0  0  0  0
 24 27  1  0  0  0  0
 25 51  1  0  0  0  0
 26 27  2  0  0  0  0
 26 53  1  0  0  0  0
 27 54  1  0  0  0  0
 28 55  1  0  0  0  0
 28 56  1  0  0  0  0
 28 57  1  0  0  0  0
M  END
> <PUBCHEM_COMPOUND_CID>
17396109

> <PUBCHEM_CONFORMER_RMSD>
1

> <PUBCHEM_CONFORMER_DIVERSEORDER>
1
55
29
54
23
237
115
197
209
206
232
228
84
58
239
27
31
195
92
152
122
166
147
88
53
65
89
99
236
6
189
215
201
49
174
17
40
43
211
132
202
70
36
235
227
7
225
94
148
117
26
47
76
34
120
57
216
181
127
104
80
185
4
212
159
155
3
205
230
198
107
83
184
11
95
59
213
64
42
96
121
109
39
2
123
178
18
61
175
93
119
149
68
145
44
8
75
183
154
137
60
238
146
38
131
79
207
229
226
173
124
188
140
223
52
13
204
81
208
110
35
234
150
69
129
73
220
133
161
85
125
63
112
102
199
172
136
108
113
221
171
156
62
170
12
67
224
169
37
25
114
196
98
168
142
78
45
41
203
164
56
158
191
187
24
180
200
218
153
100
219
82
14
5
74
33
91
97
86
101
151
182
176
214
90
231
103
105
179
192
16
32
141
30
165
28
19
48
66
128
160
130
210
186
71
190
21
193
20
15
106
144
167
233
118
87
162
46
126
50
51
77
177
194
135
22
116
9
111
138
222
163
143
134
157
217
139
72
10

> <PUBCHEM_MMFF94_PARTIAL_CHARGES>
26
1 -0.57
12 0.57
13 0.69
14 0.3
15 0.06
16 -0.14
17 0.14
2 -0.57
20 0.14
21 -0.14
22 0.57
23 0.44
24 -0.14
25 -0.15
26 -0.15
27 -0.15
3 -0.57
37 0.37
4 -0.73
5 -0.42
51 0.15
52 0.37
53 0.15
54 0.15
6 -0.73
7 0.36

> <PUBCHEM_EFFECTIVE_ROTOR_COUNT>
8

> <PUBCHEM_PHARMACOPHORE_FEATURES>
9
1 1 acceptor
1 2 acceptor
1 3 acceptor
1 4 donor
1 6 donor
5 4 5 7 12 13 rings
5 7 8 9 10 11 rings
6 16 17 18 19 20 21 rings
6 16 21 24 25 26 27 rings

> <PUBCHEM_HEAVY_ATOM_COUNT>
28

> <PUBCHEM_ATOM_DEF_STEREO_COUNT>
0

> <PUBCHEM_ATOM_UDEF_STEREO_COUNT>
1

> <PUBCHEM_BOND_DEF_STEREO_COUNT>
0

> <PUBCHEM_BOND_UDEF_STEREO_COUNT>
0

> <PUBCHEM_ISOTOPIC_ATOM_COUNT>
0

> <PUBCHEM_COMPONENT_COUNT>
1

> <PUBCHEM_CACTVS_TAUTO_COUNT>
4

> <PUBCHEM_CONFORMER_ID>
0109718D00000001

> <PUBCHEM_MMFF94_ENERGY>
49.3976

> <PUBCHEM_FEATURE_SELFOVERLAP>
45.704

> <PUBCHEM_SHAPE_FINGERPRINT>
10316853 100 17621877587764080099
1100329 8 17616529558352129180
11513181 2 16386461829747167358
12553582 1 18408888447175462595
12596599 1 17532633686105834175
12788726 201 18044387247465887373
13122387 1 17834397104617365315
13140716 1 18268140955556556570
13402501 40 18127686037526598619
14251757 5 17255378935544420606
14787075 74 18340482262596958782
17909252 39 17896861331439751942
19319366 153 16691851729928539410
19591789 44 18265895752759604550
19930381 70 18338513020007535107
20764821 26 17834390120926559146
23559900 14 18201450151057162589
238 59 18342183215158403267
392239 28 18336829693406512304
445580 102 18411417327776594702
463206 1 18267023856301460455
5309563 4 18337670798532691379
7097593 13 18123744528563407676
9795274 37 18342746255527612619

> <PUBCHEM_SHAPE_MULTIPOLES>
543.68
8.13
5.37
1.43
0.19
1.07
-0.02
-3.74
1.26
0.28
-1.15
0.77
-0.2
-0.23

> <PUBCHEM_SHAPE_SELFOVERLAP>
1162.165

> <PUBCHEM_SHAPE_VOLUME>
303.1

> <PUBCHEM_COORDINATE_TYPE>
2
5
10

$$$$

