10857
  -OEChem-06261205023D

 24 24  0     1  0  0  0  0  0999 V2000
    0.1510   -0.6363    0.3839 O   0  0  0  0  0  0  0  0  0  0  0  0
    2.8978   -1.0942    0.8478 O   0  0  0  0  0  0  0  0  0  0  0  0
    4.7514    0.2835   -0.6867 O   0  0  0  0  0  0  0  0  0  0  0  0
    2.4576   -0.1881   -0.1663 C   0  0  1  0  0  0  0  0  0  0  0  0
    1.1163    0.4022    0.2536 C   0  0  0  0  0  0  0  0  0  0  0  0
    3.5180    0.8941   -0.3222 C   0  0  0  0  0  0  0  0  0  0  0  0
   -1.1567   -0.2920    0.1673 C   0  0  0  0  0  0  0  0  0  0  0  0
   -1.5858    0.9992    0.4540 C   0  0  0  0  0  0  0  0  0  0  0  0
   -2.0433   -1.2374   -0.3370 C   0  0  0  0  0  0  0  0  0  0  0  0
   -2.9181    1.3495    0.2341 C   0  0  0  0  0  0  0  0  0  0  0  0
   -3.3754   -0.8870   -0.5570 C   0  0  0  0  0  0  0  0  0  0  0  0
   -3.8128    0.4065   -0.2715 C   0  0  0  0  0  0  0  0  0  0  0  0
    2.3584   -0.7777   -1.0838 H   0  0  0  0  0  0  0  0  0  0  0  0
    0.8199    1.1327   -0.5104 H   0  0  0  0  0  0  0  0  0  0  0  0
    1.2131    0.9021    1.2250 H   0  0  0  0  0  0  0  0  0  0  0  0
    3.6826    1.4397    0.6129 H   0  0  0  0  0  0  0  0  0  0  0  0
    3.2445    1.6088   -1.1040 H   0  0  0  0  0  0  0  0  0  0  0  0
   -0.9298    1.7550    0.8747 H   0  0  0  0  0  0  0  0  0  0  0  0
   -1.7068   -2.2457   -0.5606 H   0  0  0  0  0  0  0  0  0  0  0  0
    2.9894   -0.5952    1.6775 H   0  0  0  0  0  0  0  0  0  0  0  0
   -3.2607    2.3546    0.4623 H   0  0  0  0  0  0  0  0  0  0  0  0
   -4.0722   -1.6215   -0.9503 H   0  0  0  0  0  0  0  0  0  0  0  0
   -4.8504    0.6786   -0.4413 H   0  0  0  0  0  0  0  0  0  0  0  0
    4.9794   -0.3527    0.0127 H   0  0  0  0  0  0  0  0  0  0  0  0
  1  5  1  0  0  0  0
  1  7  1  0  0  0  0
  2  4  1  0  0  0  0
  2 20  1  0  0  0  0
  3  6  1  0  0  0  0
  3 24  1  0  0  0  0
  4  5  1  0  0  0  0
  4  6  1  0  0  0  0
  4 13  1  0  0  0  0
  5 14  1  0  0  0  0
  5 15  1  0  0  0  0
  6 16  1  0  0  0  0
  6 17  1  0  0  0  0
  7  8  2  0  0  0  0
  7  9  1  0  0  0  0
  8 10  1  0  0  0  0
  8 18  1  0  0  0  0
  9 11  2  0  0  0  0
  9 19  1  0  0  0  0
 10 12  2  0  0  0  0
 10 21  1  0  0  0  0
 11 12  1  0  0  0  0
 11 22  1  0  0  0  0
 12 23  1  0  0  0  0
M  END
> <PUBCHEM_COMPOUND_CID>
10857

> <PUBCHEM_CONFORMER_RMSD>
0.6

> <PUBCHEM_CONFORMER_DIVERSEORDER>
1
42
10
40
31
2
28
17
14
38
30
6
37
15
20
4
18
23
7
8
29
24
3
39
9
33
27
13
36
43
12
41
5
16
19
25
32
26
21
34
22
11
35

> <PUBCHEM_MMFF94_PARTIAL_CHARGES>
19
1 -0.36
10 -0.15
11 -0.15
12 -0.15
18 0.15
19 0.15
2 -0.68
20 0.4
21 0.15
22 0.15
23 0.15
24 0.4
3 -0.68
4 0.28
5 0.28
6 0.28
7 0.08
8 -0.15
9 -0.15

> <PUBCHEM_EFFECTIVE_ROTOR_COUNT>
4

> <PUBCHEM_PHARMACOPHORE_FEATURES>
6
1 1 acceptor
1 2 acceptor
1 2 donor
1 3 acceptor
1 3 donor
6 7 8 9 10 11 12 rings

> <PUBCHEM_HEAVY_ATOM_COUNT>
12

> <PUBCHEM_ATOM_DEF_STEREO_COUNT>
0

> <PUBCHEM_ATOM_UDEF_STEREO_COUNT>
1

> <PUBCHEM_BOND_DEF_STEREO_COUNT>
0

> <PUBCHEM_BOND_UDEF_STEREO_COUNT>
0

> <PUBCHEM_ISOTOPIC_ATOM_COUNT>
0

> <PUBCHEM_COMPONENT_COUNT>
1

> <PUBCHEM_CACTVS_TAUTO_COUNT>
1

> <PUBCHEM_CONFORMER_ID>
00002A6900000001

> <PUBCHEM_MMFF94_ENERGY>
34.8954

> <PUBCHEM_FEATURE_SELFOVERLAP>
30.458

> <PUBCHEM_SHAPE_FINGERPRINT>
12932764 1 17458635496657119570
13024252 1 18060419106356373835
14144814 61 18411702096971732650
14325111 11 18411139155682105347
14993402 34 18341617005572503469
15669948 3 18261402121820198711
15775835 57 18343300387686217772
18186145 218 17632577179867784362
1986462 14 18040712562944995173
20279233 1 16515692147354745790
20300324 65 18261109643079000005
20645476 183 18342176635463866735
20645477 70 16916799521280766594
20711983 171 18336265729513800221
20871999 31 18337403660415206623
21061003 4 15936407802115319691
21119208 17 18408882927941851796
23402539 116 18260554428235143484
23402655 69 18341333378669711804
23559900 14 17967817158991364696
528716 315 18408321060362321991
93112 12 18334576815334515308

> <PUBCHEM_SHAPE_MULTIPOLES>
229.35
8.12
1.27
0.76
6.21
0.04
0.01
0.71
-1.68
-0.71
0.05
0.2
-0.05
-0.56

> <PUBCHEM_SHAPE_SELFOVERLAP>
463.033

> <PUBCHEM_SHAPE_VOLUME>
134.5

> <PUBCHEM_COORDINATE_TYPE>
2
5
10

$$$$

