17396449
  -OEChem-06241222562D

 51 53  0     0  0  0  0  0  0999 V2000
    2.8660   -6.2694    0.0000 Br  0  0  0  0  0  0  0  0  0  0  0  0
    6.3301    3.7306    0.0000 S   0  0  0  0  0  0  0  0  0  0  0  0
    7.3301    3.7306    0.0000 O   0  0  0  0  0  0  0  0  0  0  0  0
    5.3301    3.7306    0.0000 O   0  0  0  0  0  0  0  0  0  0  0  0
    3.7320    1.2306    0.0000 O   0  0  0  0  0  0  0  0  0  0  0  0
    2.8660   -2.2694    0.0000 O   0  0  0  0  0  0  0  0  0  0  0  0
    6.3301    4.7306    0.0000 N   0  0  0  0  0  0  0  0  0  0  0  0
    4.5981   -0.2694    0.0000 N   0  0  0  0  0  0  0  0  0  0  0  0
    7.1391    5.3184    0.0000 C   0  0  0  0  0  0  0  0  0  0  0  0
    5.5211    5.3184    0.0000 C   0  0  0  0  0  0  0  0  0  0  0  0
    5.8301    6.2694    0.0000 C   0  0  0  0  0  0  0  0  0  0  0  0
    6.8301    6.2694    0.0000 C   0  0  0  0  0  0  0  0  0  0  0  0
    6.3301    2.7306    0.0000 C   0  0  0  0  0  0  0  0  0  0  0  0
    5.4641    2.2306    0.0000 C   0  0  0  0  0  0  0  0  0  0  0  0
    7.1962    2.2306    0.0000 C   0  0  0  0  0  0  0  0  0  0  0  0
    5.4641    1.2306    0.0000 C   0  0  0  0  0  0  0  0  0  0  0  0
    7.1962    1.2306    0.0000 C   0  0  0  0  0  0  0  0  0  0  0  0
    6.3301    0.7306    0.0000 C   0  0  0  0  0  0  0  0  0  0  0  0
    4.5981    0.7306    0.0000 C   0  0  0  0  0  0  0  0  0  0  0  0
    3.7320   -0.7694    0.0000 C   0  0  0  0  0  0  0  0  0  0  0  0
    3.7320   -1.7694    0.0000 C   0  0  0  0  0  0  0  0  0  0  0  0
    5.4641   -0.7694    0.0000 C   0  0  0  0  0  0  0  0  0  0  0  0
    2.8660   -3.2694    0.0000 C   0  0  0  0  0  0  0  0  0  0  0  0
    2.0000   -3.7694    0.0000 C   0  0  0  0  0  0  0  0  0  0  0  0
    3.7320   -3.7694    0.0000 C   0  0  0  0  0  0  0  0  0  0  0  0
    2.0000   -4.7694    0.0000 C   0  0  0  0  0  0  0  0  0  0  0  0
    3.7320   -4.7694    0.0000 C   0  0  0  0  0  0  0  0  0  0  0  0
    2.8660   -5.2694    0.0000 C   0  0  0  0  0  0  0  0  0  0  0  0
    4.9547    5.5705    0.0000 H   0  0  0  0  0  0  0  0  0  0  0  0
    5.2111    4.7814    0.0000 H   0  0  0  0  0  0  0  0  0  0  0  0
    7.4491    4.7814    0.0000 H   0  0  0  0  0  0  0  0  0  0  0  0
    7.7055    5.5705    0.0000 H   0  0  0  0  0  0  0  0  0  0  0  0
    5.8949    6.8860    0.0000 H   0  0  0  0  0  0  0  0  0  0  0  0
    5.2237    6.3983    0.0000 H   0  0  0  0  0  0  0  0  0  0  0  0
    7.4366    6.3983    0.0000 H   0  0  0  0  0  0  0  0  0  0  0  0
    6.7653    6.8860    0.0000 H   0  0  0  0  0  0  0  0  0  0  0  0
    4.9272    2.5406    0.0000 H   0  0  0  0  0  0  0  0  0  0  0  0
    7.7331    2.5406    0.0000 H   0  0  0  0  0  0  0  0  0  0  0  0
    7.7331    0.9206    0.0000 H   0  0  0  0  0  0  0  0  0  0  0  0
    6.3301    0.1106    0.0000 H   0  0  0  0  0  0  0  0  0  0  0  0
    3.5200   -0.1868    0.0000 H   0  0  0  0  0  0  0  0  0  0  0  0
    3.1215   -0.8771    0.0000 H   0  0  0  0  0  0  0  0  0  0  0  0
    3.9441   -2.3520    0.0000 H   0  0  0  0  0  0  0  0  0  0  0  0
    4.3426   -1.6618    0.0000 H   0  0  0  0  0  0  0  0  0  0  0  0
    5.1541   -1.3064    0.0000 H   0  0  0  0  0  0  0  0  0  0  0  0
    6.0010   -1.0794    0.0000 H   0  0  0  0  0  0  0  0  0  0  0  0
    5.7741   -0.2325    0.0000 H   0  0  0  0  0  0  0  0  0  0  0  0
    1.4631   -3.4594    0.0000 H   0  0  0  0  0  0  0  0  0  0  0  0
    4.2690   -3.4594    0.0000 H   0  0  0  0  0  0  0  0  0  0  0  0
    1.4631   -5.0794    0.0000 H   0  0  0  0  0  0  0  0  0  0  0  0
    4.2690   -5.0794    0.0000 H   0  0  0  0  0  0  0  0  0  0  0  0
  1 28  1  0  0  0  0
  2  3  2  0  0  0  0
  2  4  2  0  0  0  0
  2  7  1  0  0  0  0
  2 13  1  0  0  0  0
  5 19  2  0  0  0  0
  6 21  1  0  0  0  0
  6 23  1  0  0  0  0
  7  9  1  0  0  0  0
  7 10  1  0  0  0  0
  8 19  1  0  0  0  0
  8 20  1  0  0  0  0
  8 22  1  0  0  0  0
  9 12  1  0  0  0  0
  9 31  1  0  0  0  0
  9 32  1  0  0  0  0
 10 11  1  0  0  0  0
 10 29  1  0  0  0  0
 10 30  1  0  0  0  0
 11 12  1  0  0  0  0
 11 33  1  0  0  0  0
 11 34  1  0  0  0  0
 12 35  1  0  0  0  0
 12 36  1  0  0  0  0
 13 14  1  0  0  0  0
 13 15  2  0  0  0  0
 14 16  2  0  0  0  0
 14 37  1  0  0  0  0
 15 17  1  0  0  0  0
 15 38  1  0  0  0  0
 16 18  1  0  0  0  0
 16 19  1  0  0  0  0
 17 18  2  0  0  0  0
 17 39  1  0  0  0  0
 18 40  1  0  0  0  0
 20 21  1  0  0  0  0
 20 41  1  0  0  0  0
 20 42  1  0  0  0  0
 21 43  1  0  0  0  0
 21 44  1  0  0  0  0
 22 45  1  0  0  0  0
 22 46  1  0  0  0  0
 22 47  1  0  0  0  0
 23 24  2  0  0  0  0
 23 25  1  0  0  0  0
 24 26  1  0  0  0  0
 24 48  1  0  0  0  0
 25 27  2  0  0  0  0
 25 49  1  0  0  0  0
 26 28  2  0  0  0  0
 26 50  1  0  0  0  0
 27 28  1  0  0  0  0
 27 51  1  0  0  0  0
M  END
> <PUBCHEM_COMPOUND_CID>
17396449

> <PUBCHEM_COMPOUND_CANONICALIZED>
1

> <PUBCHEM_CACTVS_COMPLEXITY>
610

> <PUBCHEM_CACTVS_HBOND_ACCEPTOR>
5

> <PUBCHEM_CACTVS_HBOND_DONOR>
0

> <PUBCHEM_CACTVS_ROTATABLE_BOND>
7

> <PUBCHEM_CACTVS_SUBSKEYS>
AAADceB7OABAEAAAAAAAAAAAAAAAAWAAAAAwYAAAAAAAAAABQAAAHgRAQAABrATh2AYyB4MABAKIAiFSEHDCCBAkIAQIiBkODOgOJjKEtRuHOSjkxhGYq5eYyACOABAAgAAAAAAAIAEAAAAAAAAAAAAAAA==

> <PUBCHEM_IUPAC_OPENEYE_NAME>
N-[2-(4-bromophenoxy)ethyl]-N-methyl-3-pyrrolidin-1-ylsulfonyl-benzamide

> <PUBCHEM_IUPAC_CAS_NAME>
N-[2-(4-bromophenoxy)ethyl]-N-methyl-3-(1-pyrrolidinylsulfonyl)benzamide

> <PUBCHEM_IUPAC_NAME>
N-[2-(4-bromophenoxy)ethyl]-N-methyl-3-pyrrolidin-1-ylsulfonylbenzamide

> <PUBCHEM_IUPAC_SYSTEMATIC_NAME>
N-[2-(4-bromanylphenoxy)ethyl]-N-methyl-3-pyrrolidin-1-ylsulfonyl-benzamide

> <PUBCHEM_IUPAC_TRADITIONAL_NAME>
N-[2-(4-bromophenoxy)ethyl]-N-methyl-3-pyrrolidinosulfonyl-benzamide

> <PUBCHEM_IUPAC_INCHI>
InChI=1S/C20H23BrN2O4S/c1-22(13-14-27-18-9-7-17(21)8-10-18)20(24)16-5-4-6-19(15-16)28(25,26)23-11-2-3-12-23/h4-10,15H,2-3,11-14H2,1H3

> <PUBCHEM_IUPAC_INCHIKEY>
WMEKDVMVBUYMBF-UHFFFAOYSA-N

> <PUBCHEM_XLOGP3_AA>
3.4

> <PUBCHEM_EXACT_MASS>
466.05619

> <PUBCHEM_MOLECULAR_FORMULA>
C20H23BrN2O4S

> <PUBCHEM_MOLECULAR_WEIGHT>
467.37662

> <PUBCHEM_OPENEYE_CAN_SMILES>
CN(CCOC1=CC=C(C=C1)Br)C(=O)C2=CC(=CC=C2)S(=O)(=O)N3CCCC3

> <PUBCHEM_OPENEYE_ISO_SMILES>
CN(CCOC1=CC=C(C=C1)Br)C(=O)C2=CC(=CC=C2)S(=O)(=O)N3CCCC3

> <PUBCHEM_CACTVS_TPSA>
75.3

> <PUBCHEM_MONOISOTOPIC_WEIGHT>
466.05619

> <PUBCHEM_TOTAL_CHARGE>
0

> <PUBCHEM_HEAVY_ATOM_COUNT>
28

> <PUBCHEM_ATOM_DEF_STEREO_COUNT>
0

> <PUBCHEM_ATOM_UDEF_STEREO_COUNT>
0

> <PUBCHEM_BOND_DEF_STEREO_COUNT>
0

> <PUBCHEM_BOND_UDEF_STEREO_COUNT>
0

> <PUBCHEM_ISOTOPIC_ATOM_COUNT>
0

> <PUBCHEM_COMPONENT_COUNT>
1

> <PUBCHEM_CACTVS_TAUTO_COUNT>
1

> <PUBCHEM_COORDINATE_TYPE>
1
5
255

> <PUBCHEM_BONDANNOTATIONS>
13  14  8
13  15  8
14  16  8
15  17  8
16  18  8
17  18  8
23  24  8
23  25  8
24  26  8
25  27  8
26  28  8
27  28  8

$$$$

