17395373
  -OEChem-06241222492D

 39 40  0     1  0  0  0  0  0999 V2000
    6.3301   -4.3080    0.0000 Cl  0  0  0  0  0  0  0  0  0  0  0  0
    5.4641   -0.8080    0.0000 O   0  0  0  0  0  0  0  0  0  0  0  0
    7.1962    0.1920    0.0000 O   0  0  0  0  0  0  0  0  0  0  0  0
    8.7788    2.5284    0.0000 O   0  0  0  0  0  0  0  0  0  0  0  0
    3.7320   -0.8080    0.0000 O   0  0  0  0  0  0  0  0  0  0  0  0
    2.0000   -2.8080    0.0000 O   0  5  0  0  0  0  0  0  0  0  0  0
    2.8660   -1.3080    0.0000 O   0  0  0  0  0  0  0  0  0  0  0  0
    6.3301    1.6920    0.0000 N   0  0  0  0  0  0  0  0  0  0  0  0
    8.1097    1.7853    0.0000 N   0  0  0  0  0  0  0  0  0  0  0  0
    2.8660   -2.3080    0.0000 N   0  3  0  0  0  0  0  0  0  0  0  0
    5.4641    0.1920    0.0000 C   0  0  3  0  0  0  0  0  0  0  0  0
    4.5981    0.6920    0.0000 C   0  0  0  0  0  0  0  0  0  0  0  0
    6.3301    0.6920    0.0000 C   0  0  0  0  0  0  0  0  0  0  0  0
    4.5981    1.6920    0.0000 C   0  0  0  0  0  0  0  0  0  0  0  0
    4.5981   -2.3080    0.0000 C   0  0  0  0  0  0  0  0  0  0  0  0
    4.5981   -1.3080    0.0000 C   0  0  0  0  0  0  0  0  0  0  0  0
    7.1962    2.1920    0.0000 C   0  0  0  0  0  0  0  0  0  0  0  0
    3.7320   -2.8080    0.0000 C   0  0  0  0  0  0  0  0  0  0  0  0
    5.4641   -2.8080    0.0000 C   0  0  0  0  0  0  0  0  0  0  0  0
    7.3007    3.1865    0.0000 C   0  0  0  0  0  0  0  0  0  0  0  0
    3.7320   -3.8080    0.0000 C   0  0  0  0  0  0  0  0  0  0  0  0
    8.2788    3.3944    0.0000 C   0  0  0  0  0  0  0  0  0  0  0  0
    5.4641   -3.8080    0.0000 C   0  0  0  0  0  0  0  0  0  0  0  0
    4.5981   -4.3080    0.0000 C   0  0  0  0  0  0  0  0  0  0  0  0
    8.6856    4.3080    0.0000 C   0  0  0  0  0  0  0  0  0  0  0  0
    6.0010   -0.1180    0.0000 H   0  0  0  0  0  0  0  0  0  0  0  0
    3.9875    0.7997    0.0000 H   0  0  0  0  0  0  0  0  0  0  0  0
    4.3860    0.1094    0.0000 H   0  0  0  0  0  0  0  0  0  0  0  0
    5.2181    1.6920    0.0000 H   0  0  0  0  0  0  0  0  0  0  0  0
    4.5981    2.3120    0.0000 H   0  0  0  0  0  0  0  0  0  0  0  0
    3.9781    1.6920    0.0000 H   0  0  0  0  0  0  0  0  0  0  0  0
    5.7932    2.0020    0.0000 H   0  0  0  0  0  0  0  0  0  0  0  0
    6.0010   -2.4980    0.0000 H   0  0  0  0  0  0  0  0  0  0  0  0
    6.8399    3.6014    0.0000 H   0  0  0  0  0  0  0  0  0  0  0  0
    3.1951   -4.1180    0.0000 H   0  0  0  0  0  0  0  0  0  0  0  0
    4.5981   -4.9280    0.0000 H   0  0  0  0  0  0  0  0  0  0  0  0
    9.2520    4.0558    0.0000 H   0  0  0  0  0  0  0  0  0  0  0  0
    8.9377    4.8744    0.0000 H   0  0  0  0  0  0  0  0  0  0  0  0
    8.1192    4.5602    0.0000 H   0  0  0  0  0  0  0  0  0  0  0  0
  1 23  1  0  0  0  0
  2 11  1  0  0  0  0
  2 16  1  0  0  0  0
  3 13  2  0  0  0  0
  4  9  1  0  0  0  0
  4 22  1  0  0  0  0
  5 16  2  0  0  0  0
  6 10  1  0  0  0  0
  7 10  2  0  0  0  0
  8 13  1  0  0  0  0
  8 17  1  0  0  0  0
  8 32  1  0  0  0  0
  9 17  2  0  0  0  0
 10 18  1  0  0  0  0
 11 12  1  0  0  0  0
 11 13  1  0  0  0  0
 11 26  1  0  0  0  0
 12 14  1  0  0  0  0
 12 27  1  0  0  0  0
 12 28  1  0  0  0  0
 14 29  1  0  0  0  0
 14 30  1  0  0  0  0
 14 31  1  0  0  0  0
 15 16  1  0  0  0  0
 15 18  2  0  0  0  0
 15 19  1  0  0  0  0
 17 20  1  0  0  0  0
 18 21  1  0  0  0  0
 19 23  2  0  0  0  0
 19 33  1  0  0  0  0
 20 22  2  0  0  0  0
 20 34  1  0  0  0  0
 21 24  2  0  0  0  0
 21 35  1  0  0  0  0
 22 25  1  0  0  0  0
 23 24  1  0  0  0  0
 24 36  1  0  0  0  0
 25 37  1  0  0  0  0
 25 38  1  0  0  0  0
 25 39  1  0  0  0  0
M  CHG  2   6  -1  10   1
M  END
> <PUBCHEM_COMPOUND_CID>
17395373

> <PUBCHEM_COMPOUND_CANONICALIZED>
1

> <PUBCHEM_CACTVS_COMPLEXITY>
514

> <PUBCHEM_CACTVS_HBOND_ACCEPTOR>
7

> <PUBCHEM_CACTVS_HBOND_DONOR>
1

> <PUBCHEM_CACTVS_ROTATABLE_BOND>
6

> <PUBCHEM_CACTVS_SUBSKEYS>
AAADccBzOAAEAAAAAAAAAAAAAAAAAWAAAAAwAAAAAAAAAAABwAAAHgIUAAAADB6hmiIz/JLQRACpAqfyewKCAAAlJwApmCF2btqKJjrBv52HMYhm1QvY6ceYyCCOAABAIAACAAAAAIBAAAQAAAAAAAAAAA==

> <PUBCHEM_IUPAC_OPENEYE_NAME>
1-[(5-methylisoxazol-3-yl)carbamoyl]propyl 5-chloro-2-nitro-benzoate

> <PUBCHEM_IUPAC_CAS_NAME>
5-chloro-2-nitrobenzoic acid [1-[(5-methyl-3-isoxazolyl)amino]-1-oxobutan-2-yl] ester

> <PUBCHEM_IUPAC_NAME>
[1-[(5-methyl-1,2-oxazol-3-yl)amino]-1-oxobutan-2-yl] 5-chloro-2-nitrobenzoate

> <PUBCHEM_IUPAC_SYSTEMATIC_NAME>
[1-[(5-methyl-1,2-oxazol-3-yl)amino]-1-oxidanylidene-butan-2-yl] 5-chloranyl-2-nitro-benzoate

> <PUBCHEM_IUPAC_TRADITIONAL_NAME>
5-chloro-2-nitro-benzoic acid 1-[(5-methylisoxazol-3-yl)carbamoyl]propyl ester

> <PUBCHEM_IUPAC_INCHI>
InChI=1S/C15H14ClN3O6/c1-3-12(14(20)17-13-6-8(2)25-18-13)24-15(21)10-7-9(16)4-5-11(10)19(22)23/h4-7,12H,3H2,1-2H3,(H,17,18,20)

> <PUBCHEM_IUPAC_INCHIKEY>
WMLZREHJHNZZHG-UHFFFAOYSA-N

> <PUBCHEM_XLOGP3_AA>
3.2

> <PUBCHEM_EXACT_MASS>
367.057113

> <PUBCHEM_MOLECULAR_FORMULA>
C15H14ClN3O6

> <PUBCHEM_MOLECULAR_WEIGHT>
367.74116

> <PUBCHEM_OPENEYE_CAN_SMILES>
CCC(C(=O)NC1=NOC(=C1)C)OC(=O)C2=C(C=CC(=C2)Cl)[N+](=O)[O-]

> <PUBCHEM_OPENEYE_ISO_SMILES>
CCC(C(=O)NC1=NOC(=C1)C)OC(=O)C2=C(C=CC(=C2)Cl)[N+](=O)[O-]

> <PUBCHEM_CACTVS_TPSA>
127

> <PUBCHEM_MONOISOTOPIC_WEIGHT>
367.057113

> <PUBCHEM_TOTAL_CHARGE>
0

> <PUBCHEM_HEAVY_ATOM_COUNT>
25

> <PUBCHEM_ATOM_DEF_STEREO_COUNT>
0

> <PUBCHEM_ATOM_UDEF_STEREO_COUNT>
1

> <PUBCHEM_BOND_DEF_STEREO_COUNT>
0

> <PUBCHEM_BOND_UDEF_STEREO_COUNT>
0

> <PUBCHEM_ISOTOPIC_ATOM_COUNT>
0

> <PUBCHEM_COMPONENT_COUNT>
1

> <PUBCHEM_CACTVS_TAUTO_COUNT>
10

> <PUBCHEM_COORDINATE_TYPE>
1
5
255

> <PUBCHEM_BONDANNOTATIONS>
11  12  3
15  18  8
15  19  8
17  20  8
18  21  8
19  23  8
20  22  8
21  24  8
23  24  8
4  22  8
4  9  8
9  17  8

$$$$

