17395552
  -OEChem-06241222513D

 31 31  0     1  0  0  0  0  0999 V2000
    0.6182    0.8005    0.9047 S   0  0  0  0  0  0  0  0  0  0  0  0
    3.4969    1.7743    0.6251 S   0  0  0  0  0  0  0  0  0  0  0  0
   -1.9522   -1.2068    1.8037 O   0  0  0  0  0  0  0  0  0  0  0  0
   -2.3790   -0.2877   -0.2880 N   0  0  0  0  0  0  0  0  0  0  0  0
    2.6700   -0.5159   -0.2431 N   0  0  0  0  0  0  0  0  0  0  0  0
   -3.8151   -0.1937   -0.1663 C   0  0  1  0  0  0  0  0  0  0  0  0
   -4.3678    0.9909   -0.9693 C   0  0  0  0  0  0  0  0  0  0  0  0
   -4.4562   -1.5014   -0.6188 C   0  0  0  0  0  0  0  0  0  0  0  0
   -3.7551    2.3214   -0.5512 C   0  0  0  0  0  0  0  0  0  0  0  0
   -1.5638   -0.7896    0.7139 C   0  0  0  0  0  0  0  0  0  0  0  0
   -0.0981   -0.7648    0.3496 C   0  0  0  0  0  0  0  0  0  0  0  0
    2.2894    0.5814    0.3725 C   0  0  0  0  0  0  0  0  0  0  0  0
    4.0149   -0.4164   -0.5420 C   0  0  0  0  0  0  0  0  0  0  0  0
    4.6347    0.7516   -0.1501 C   0  0  0  0  0  0  0  0  0  0  0  0
    4.6631   -1.5439   -1.2407 C   0  0  0  0  0  0  0  0  0  0  0  0
   -4.0568   -0.0442    0.8935 H   0  0  0  0  0  0  0  0  0  0  0  0
   -5.4553    1.0449   -0.8396 H   0  0  0  0  0  0  0  0  0  0  0  0
   -4.1794    0.8414   -2.0398 H   0  0  0  0  0  0  0  0  0  0  0  0
   -4.2229   -1.7161   -1.6678 H   0  0  0  0  0  0  0  0  0  0  0  0
   -4.0918   -2.3448   -0.0221 H   0  0  0  0  0  0  0  0  0  0  0  0
   -5.5452   -1.4605   -0.5126 H   0  0  0  0  0  0  0  0  0  0  0  0
   -1.9604   -0.0196   -1.1741 H   0  0  0  0  0  0  0  0  0  0  0  0
   -2.6814    2.3552   -0.7603 H   0  0  0  0  0  0  0  0  0  0  0  0
   -4.2266    3.1410   -1.1030 H   0  0  0  0  0  0  0  0  0  0  0  0
   -3.9051    2.5029    0.5178 H   0  0  0  0  0  0  0  0  0  0  0  0
    0.0237   -0.8818   -0.7324 H   0  0  0  0  0  0  0  0  0  0  0  0
    0.3927   -1.6097    0.8442 H   0  0  0  0  0  0  0  0  0  0  0  0
    5.6668    1.0472   -0.2756 H   0  0  0  0  0  0  0  0  0  0  0  0
    4.9053   -2.3403   -0.5302 H   0  0  0  0  0  0  0  0  0  0  0  0
    3.9982   -1.9573   -2.0058 H   0  0  0  0  0  0  0  0  0  0  0  0
    5.5888   -1.2314   -1.7345 H   0  0  0  0  0  0  0  0  0  0  0  0
  1 11  1  0  0  0  0
  1 12  1  0  0  0  0
  2 12  1  0  0  0  0
  2 14  1  0  0  0  0
  3 10  2  0  0  0  0
  4  6  1  0  0  0  0
  4 10  1  0  0  0  0
  4 22  1  0  0  0  0
  5 12  2  0  0  0  0
  5 13  1  0  0  0  0
  6  7  1  0  0  0  0
  6  8  1  0  0  0  0
  6 16  1  0  0  0  0
  7  9  1  0  0  0  0
  7 17  1  0  0  0  0
  7 18  1  0  0  0  0
  8 19  1  0  0  0  0
  8 20  1  0  0  0  0
  8 21  1  0  0  0  0
  9 23  1  0  0  0  0
  9 24  1  0  0  0  0
  9 25  1  0  0  0  0
 10 11  1  0  0  0  0
 11 26  1  0  0  0  0
 11 27  1  0  0  0  0
 13 14  2  0  0  0  0
 13 15  1  0  0  0  0
 14 28  1  0  0  0  0
 15 29  1  0  0  0  0
 15 30  1  0  0  0  0
 15 31  1  0  0  0  0
M  END
> <PUBCHEM_COMPOUND_CID>
17395552

> <PUBCHEM_CONFORMER_RMSD>
0.8

> <PUBCHEM_CONFORMER_DIVERSEORDER>
1
132
248
175
118
87
202
287
189
50
92
34
80
27
136
128
289
226
227
73
295
141
165
276
241
42
140
171
68
127
64
215
162
126
243
113
210
217
45
283
106
95
236
122
183
214
120
259
117
84
101
133
54
290
275
147
19
149
11
281
216
177
144
25
33
207
161
244
139
85
225
180
135
31
114
75
61
62
38
58
86
156
109
273
88
232
102
211
284
125
176
194
20
262
279
4
91
240
228
36
37
239
97
253
203
51
256
13
229
35
254
184
151
60
280
105
205
153
5
235
169
7
246
185
99
17
291
3
48
82
89
265
178
78
188
258
67
268
43
173
170
277
108
164
116
257
274
77
252
255
261
130
234
199
93
160
107
192
206
138
172
152
129
286
55
112
197
195
2
150
233
137
200
220
21
247
146
47
179
83
181
209
270
249
6
18
8
269
22
39
238
121
282
288
167
271
204
166
46
293
14
76
224
32
12
154
94
245
123
212
143
267
182
10
26
219
104
250
260
100
119
159
264
71
168
191
96
79
292
98
90
251
190
158
294
115
221
28
242
111
231
74
44
266
213
56
278
52
230
29
110
16
65
198
237
134
186
222
193
30
272
155
59
201
218
187
196
131
23
163
15
208
53
174
57
81
49
285
72
41
223
9
40
157
263
124
24
148
66
103
145
69
142
63
70

> <PUBCHEM_MMFF94_PARTIAL_CHARGES>
14
1 -0.29
10 0.57
11 0.29
12 0.43
13 0.05
14 -0.11
15 0.18
2 -0.08
22 0.37
28 0.15
3 -0.57
4 -0.73
5 -0.57
6 0.3

> <PUBCHEM_EFFECTIVE_ROTOR_COUNT>
6

> <PUBCHEM_PHARMACOPHORE_FEATURES>
5
1 3 acceptor
1 4 donor
1 5 acceptor
1 9 hydrophobe
5 2 5 12 13 14 rings

> <PUBCHEM_HEAVY_ATOM_COUNT>
15

> <PUBCHEM_ATOM_DEF_STEREO_COUNT>
0

> <PUBCHEM_ATOM_UDEF_STEREO_COUNT>
1

> <PUBCHEM_BOND_DEF_STEREO_COUNT>
0

> <PUBCHEM_BOND_UDEF_STEREO_COUNT>
0

> <PUBCHEM_ISOTOPIC_ATOM_COUNT>
0

> <PUBCHEM_COMPONENT_COUNT>
1

> <PUBCHEM_CACTVS_TAUTO_COUNT>
2

> <PUBCHEM_CONFORMER_ID>
01096F6000000001

> <PUBCHEM_MMFF94_ENERGY>
10.2687

> <PUBCHEM_FEATURE_SELFOVERLAP>
25.371

> <PUBCHEM_SHAPE_FINGERPRINT>
10498660 4 17916603028050652733
10680689 15 18342453725600403147
11471102 20 18187642484409785624
12916748 109 18131350795744267977
13081056 2 18410857642325190409
14123260 362 16988842791507471865
14573314 32 18411981368799123132
15375358 24 18341052921963902896
17834072 8 18337110167281400484
18186145 218 18409730672734010657
200 152 17095240332477201256
20279233 1 18340483370688108122
20300324 65 18412268311780891285
20621476 91 6843336675964416484
20645477 56 18341895130416694521
20645477 70 18113330917104592142
20671657 53 16588310466542532289
21618674 53 14836114438572453136
221357 26 18334020488653616325
23402539 116 18272098192246282581
23402655 69 18260548926756609356
23526113 38 18261674766206661618
23557571 272 17915736466452323498
23559900 14 18334296479104289528
23596394 208 18334294279796398614
3268164 11 18129677326420224319
32948 21 18271241724676050564
351380 3 14851883625605598549
4028521 119 18342746242859183301
4990 188 18410015429165987922
5281201 14 18408602543802704628
633830 44 18342184366314835015
90127 26 18272364261275613696
9709674 26 18339360764556873160
9882013 296 8718818795394604604

> <PUBCHEM_SHAPE_MULTIPOLES>
300.56
11.7
1.92
1.16
0.1
0.57
0.24
-0.08
-4.34
-0.4
-0.29
-0.3
-0.2
1.66

> <PUBCHEM_SHAPE_SELFOVERLAP>
567.36

> <PUBCHEM_SHAPE_VOLUME>
187.8

> <PUBCHEM_COORDINATE_TYPE>
2
5
10

$$$$

