6671
  -OEChem-06261201263D

 15 15  0     0  0  0  0  0  0999 V2000
    1.3434    2.2329    0.0001 Cl  0  0  0  0  0  0  0  0  0  0  0  0
   -0.8405   -2.7630    0.0000 Cl  0  0  0  0  0  0  0  0  0  0  0  0
    2.4179   -0.3596    1.4635 Cl  0  0  0  0  0  0  0  0  0  0  0  0
    2.4189   -0.3585   -1.4630 Cl  0  0  0  0  0  0  0  0  0  0  0  0
    0.1366   -0.2148   -0.0003 C   0  0  0  0  0  0  0  0  0  0  0  0
   -0.0187    1.1714    0.0000 C   0  0  0  0  0  0  0  0  0  0  0  0
   -0.9863   -1.0423   -0.0004 C   0  0  0  0  0  0  0  0  0  0  0  0
    1.5094   -0.8150   -0.0002 C   0  0  0  0  0  0  0  0  0  0  0  0
   -1.2967    1.7301    0.0003 C   0  0  0  0  0  0  0  0  0  0  0  0
   -2.2644   -0.4837   -0.0002 C   0  0  0  0  0  0  0  0  0  0  0  0
   -2.4196    0.9025    0.0001 C   0  0  0  0  0  0  0  0  0  0  0  0
    1.5234   -1.9029   -0.0006 H   0  0  0  0  0  0  0  0  0  0  0  0
   -1.4352    2.8084    0.0006 H   0  0  0  0  0  0  0  0  0  0  0  0
   -3.1498   -1.1144   -0.0002 H   0  0  0  0  0  0  0  0  0  0  0  0
   -3.4148    1.3376    0.0004 H   0  0  0  0  0  0  0  0  0  0  0  0
  1  6  1  0  0  0  0
  2  7  1  0  0  0  0
  3  8  1  0  0  0  0
  4  8  1  0  0  0  0
  5  6  2  0  0  0  0
  5  7  1  0  0  0  0
  5  8  1  0  0  0  0
  6  9  1  0  0  0  0
  7 10  2  0  0  0  0
  8 12  1  0  0  0  0
  9 11  2  0  0  0  0
  9 13  1  0  0  0  0
 10 11  1  0  0  0  0
 10 14  1  0  0  0  0
 11 15  1  0  0  0  0
M  END
> <PUBCHEM_COMPOUND_CID>
6671

> <PUBCHEM_CONFORMER_RMSD>
0.4

> <PUBCHEM_CONFORMER_DIVERSEORDER>
1

> <PUBCHEM_MMFF94_PARTIAL_CHARGES>
14
1 -0.18
10 -0.15
11 -0.15
13 0.15
14 0.15
15 0.15
2 -0.18
3 -0.29
4 -0.29
5 -0.14
6 0.18
7 0.18
8 0.72
9 -0.15

> <PUBCHEM_EFFECTIVE_ROTOR_COUNT>
1

> <PUBCHEM_PHARMACOPHORE_FEATURES>
1
6 5 6 7 9 10 11 rings

> <PUBCHEM_HEAVY_ATOM_COUNT>
11

> <PUBCHEM_ATOM_DEF_STEREO_COUNT>
0

> <PUBCHEM_ATOM_UDEF_STEREO_COUNT>
0

> <PUBCHEM_BOND_DEF_STEREO_COUNT>
0

> <PUBCHEM_BOND_UDEF_STEREO_COUNT>
0

> <PUBCHEM_ISOTOPIC_ATOM_COUNT>
0

> <PUBCHEM_COMPONENT_COUNT>
1

> <PUBCHEM_CACTVS_TAUTO_COUNT>
1

> <PUBCHEM_CONFORMER_ID>
00001A0F00000001

> <PUBCHEM_MMFF94_ENERGY>
29.6695

> <PUBCHEM_FEATURE_SELFOVERLAP>
5.074

> <PUBCHEM_SHAPE_FINGERPRINT>
12423570 1 5800822064535750964
12524768 44 18264202509168817863
12716758 59 18337377340359952206
15310529 11 16845565443944787741
161256 15 17978209587629525127
16945 1 18410856581362591367
193761 8 18122624955370115237
20645464 45 17968391133587914154
20645476 183 17846484954900932663
20645477 70 16246596215590588407
21040471 1 18194401319044034307
23419403 2 16818340320776533125
23552423 10 17984983687226461845
23559900 14 18189886695354356870
241688 4 17688583179518402057
2748010 2 17833833055383970205
4369600 1 18265603458812996940
5084963 1 18040427832546532851
54338 74 18124630584616873034

> <PUBCHEM_SHAPE_MULTIPOLES>
233.85
3.4
2.5
1.04
0.35
0.36
0
-0.02
0
-0.56
0
0.99
0.18
0

> <PUBCHEM_SHAPE_SELFOVERLAP>
449.628

> <PUBCHEM_SHAPE_VOLUME>
139.7

> <PUBCHEM_COORDINATE_TYPE>
2
5
10

$$$$

