10380
  -OEChem-06261204313D

 49 50  0     0  0  0  0  0  0999 V2000
   -2.2697    2.2832    1.2529 S   0  0  0  0  0  0  0  0  0  0  0  0
    5.1171   -0.2607   -0.9838 O   0  0  0  0  0  0  0  0  0  0  0  0
   -6.9360   -1.0506    0.0539 N   0  0  0  0  0  0  0  0  0  0  0  0
    0.2111    1.9123    0.4776 N   0  0  0  0  0  0  0  0  0  0  0  0
   -1.5165    0.3192   -0.2610 N   0  0  0  0  0  0  0  0  0  0  0  0
    7.1556   -1.2542   -0.2154 C   0  0  0  0  0  0  0  0  0  0  0  0
    8.3326   -1.1366    0.7488 C   0  0  0  0  0  0  0  0  0  0  0  0
    6.1933   -0.0835   -0.0731 C   0  0  0  0  0  0  0  0  0  0  0  0
    9.2684   -2.3292    0.6338 C   0  0  0  0  0  0  0  0  0  0  0  0
    3.9079    0.2757   -0.6243 C   0  0  0  0  0  0  0  0  0  0  0  0
   -5.5708   -0.7052   -0.0256 C   0  0  0  0  0  0  0  0  0  0  0  0
    1.4556    1.3613    0.1074 C   0  0  0  0  0  0  0  0  0  0  0  0
    2.7325   -0.3265   -1.0579 C   0  0  0  0  0  0  0  0  0  0  0  0
    3.8699    1.4150    0.1713 C   0  0  0  0  0  0  0  0  0  0  0  0
   -5.1273    0.1613   -1.0249 C   0  0  0  0  0  0  0  0  0  0  0  0
   -4.6639   -1.2302    0.8952 C   0  0  0  0  0  0  0  0  0  0  0  0
    1.5020    0.2183   -0.6907 C   0  0  0  0  0  0  0  0  0  0  0  0
    2.6394    1.9596    0.5384 C   0  0  0  0  0  0  0  0  0  0  0  0
   -2.8765   -0.0239   -0.1824 C   0  0  0  0  0  0  0  0  0  0  0  0
   -3.7771    0.5026   -1.1035 C   0  0  0  0  0  0  0  0  0  0  0  0
   -3.3137   -0.8887    0.8166 C   0  0  0  0  0  0  0  0  0  0  0  0
   -7.3365   -2.3465    0.5647 C   0  0  0  0  0  0  0  0  0  0  0  0
   -7.9554   -0.1195   -0.3872 C   0  0  0  0  0  0  0  0  0  0  0  0
   -1.0416    1.3467    0.3692 C   0  0  0  0  0  0  0  0  0  0  0  0
    7.5156   -1.3070   -1.2504 H   0  0  0  0  0  0  0  0  0  0  0  0
    6.6132   -2.1917   -0.0390 H   0  0  0  0  0  0  0  0  0  0  0  0
    7.9659   -1.0689    1.7797 H   0  0  0  0  0  0  0  0  0  0  0  0
    8.8923   -0.2169    0.5425 H   0  0  0  0  0  0  0  0  0  0  0  0
    6.7086    0.8561   -0.3038 H   0  0  0  0  0  0  0  0  0  0  0  0
    5.8441   -0.0622    0.9676 H   0  0  0  0  0  0  0  0  0  0  0  0
    8.7459   -3.2621    0.8685 H   0  0  0  0  0  0  0  0  0  0  0  0
   10.1048   -2.2235    1.3317 H   0  0  0  0  0  0  0  0  0  0  0  0
    9.6783   -2.4098   -0.3781 H   0  0  0  0  0  0  0  0  0  0  0  0
    2.7655   -1.2147   -1.6823 H   0  0  0  0  0  0  0  0  0  0  0  0
    4.7675    1.9271    0.5040 H   0  0  0  0  0  0  0  0  0  0  0  0
   -5.8049    0.5776   -1.7649 H   0  0  0  0  0  0  0  0  0  0  0  0
   -4.9783   -1.8980    1.6921 H   0  0  0  0  0  0  0  0  0  0  0  0
    0.6177   -0.2781   -1.0694 H   0  0  0  0  0  0  0  0  0  0  0  0
    2.6172    2.8542    1.1557 H   0  0  0  0  0  0  0  0  0  0  0  0
   -3.4397    1.1736   -1.8890 H   0  0  0  0  0  0  0  0  0  0  0  0
   -2.6141   -1.3022    1.5382 H   0  0  0  0  0  0  0  0  0  0  0  0
    0.2817    2.7721    1.0150 H   0  0  0  0  0  0  0  0  0  0  0  0
   -8.3594   -2.5934    0.2584 H   0  0  0  0  0  0  0  0  0  0  0  0
   -7.3093   -2.3574    1.6593 H   0  0  0  0  0  0  0  0  0  0  0  0
   -6.6917   -3.1455    0.1815 H   0  0  0  0  0  0  0  0  0  0  0  0
   -8.0549   -0.1408   -1.4775 H   0  0  0  0  0  0  0  0  0  0  0  0
   -7.7299    0.9040   -0.0670 H   0  0  0  0  0  0  0  0  0  0  0  0
   -8.9328   -0.3736    0.0380 H   0  0  0  0  0  0  0  0  0  0  0  0
   -2.5422    1.3654    2.1916 H   0  0  0  0  0  0  0  0  0  0  0  0
  1 24  1  0  0  0  0
  1 49  1  0  0  0  0
  2  8  1  0  0  0  0
  2 10  1  0  0  0  0
  3 11  1  0  0  0  0
  3 22  1  0  0  0  0
  3 23  1  0  0  0  0
  4 12  1  0  0  0  0
  4 24  1  0  0  0  0
  4 42  1  0  0  0  0
  5 19  1  0  0  0  0
  5 24  2  0  0  0  0
  6  7  1  0  0  0  0
  6  8  1  0  0  0  0
  6 25  1  0  0  0  0
  6 26  1  0  0  0  0
  7  9  1  0  0  0  0
  7 27  1  0  0  0  0
  7 28  1  0  0  0  0
  8 29  1  0  0  0  0
  8 30  1  0  0  0  0
  9 31  1  0  0  0  0
  9 32  1  0  0  0  0
  9 33  1  0  0  0  0
 10 13  2  0  0  0  0
 10 14  1  0  0  0  0
 11 15  2  0  0  0  0
 11 16  1  0  0  0  0
 12 17  2  0  0  0  0
 12 18  1  0  0  0  0
 13 17  1  0  0  0  0
 13 34  1  0  0  0  0
 14 18  2  0  0  0  0
 14 35  1  0  0  0  0
 15 20  1  0  0  0  0
 15 36  1  0  0  0  0
 16 21  2  0  0  0  0
 16 37  1  0  0  0  0
 17 38  1  0  0  0  0
 18 39  1  0  0  0  0
 19 20  2  0  0  0  0
 19 21  1  0  0  0  0
 20 40  1  0  0  0  0
 21 41  1  0  0  0  0
 22 43  1  0  0  0  0
 22 44  1  0  0  0  0
 22 45  1  0  0  0  0
 23 46  1  0  0  0  0
 23 47  1  0  0  0  0
 23 48  1  0  0  0  0
M  END
> <PUBCHEM_COMPOUND_CID>
10380

> <PUBCHEM_CONFORMER_RMSD>
0.8

> <PUBCHEM_CONFORMER_DIVERSEORDER>
2
71
30
38
75
61
17
54
36
69
66
53
28
15
22
78
76
81
45
47
3
49
34
25
44
73
72
23
5
80
21
37
48
79
77
41
1
56
59
24
13
35
50
12
26
68
51
29
16
43
67
60
65
7
84
57
27
83
4
74
40
55
33
82
20
39
14
64
9
62
31
70
11
46
10
42
19
6
32
63
52
85
58
8
18

> <PUBCHEM_MMFF94_PARTIAL_CHARGES>
31
1 -0.32
10 0.08
11 0.1
12 0.1
13 -0.15
14 -0.15
15 -0.15
16 -0.15
17 -0.15
18 -0.15
19 0.18
2 -0.36
20 -0.15
21 -0.15
22 0.37
23 0.37
24 0.64
3 -0.84
34 0.15
35 0.15
36 0.15
37 0.15
38 0.15
39 0.15
4 -0.55
40 0.15
41 0.15
42 0.4
49 0.18
5 -0.63
8 0.28

> <PUBCHEM_EFFECTIVE_ROTOR_COUNT>
8

> <PUBCHEM_PHARMACOPHORE_FEATURES>
7
1 2 acceptor
1 3 cation
1 4 donor
1 9 hydrophobe
3 4 5 24 cation
6 10 12 13 14 17 18 rings
6 11 15 16 19 20 21 rings

> <PUBCHEM_HEAVY_ATOM_COUNT>
24

> <PUBCHEM_ATOM_DEF_STEREO_COUNT>
0

> <PUBCHEM_ATOM_UDEF_STEREO_COUNT>
0

> <PUBCHEM_BOND_DEF_STEREO_COUNT>
0

> <PUBCHEM_BOND_UDEF_STEREO_COUNT>
0

> <PUBCHEM_ISOTOPIC_ATOM_COUNT>
0

> <PUBCHEM_COMPONENT_COUNT>
1

> <PUBCHEM_CACTVS_TAUTO_COUNT>
3

> <PUBCHEM_CONFORMER_ID>
0000288C00000002

> <PUBCHEM_MMFF94_ENERGY>
99.3105

> <PUBCHEM_FEATURE_SELFOVERLAP>
35.52

> <PUBCHEM_SHAPE_FINGERPRINT>
10 15 7348887776114730252
10429389 143 5906056903295314971
106641 1 5545192839845133909
10670039 82 16486981721400209965
10674148 151 18272090513615254641
11135609 99 18410573951372611454
11973863 73 18341044237571737985
12166972 35 18130784525480947157
12760667 363 18260264149081858441
13177829 20 14418138404793405502
13540713 4 16662598020965902388
13668630 136 18131071558899218498
13685833 64 18334292050291536653
13885169 127 18412545440108630893
14849402 71 15285936710797293218
15183329 4 16128659660810523520
15188451 53 18411418432432132480
15510800 12 18262223491677434238
15690457 1 18342178878164704346
15706992 2 5112000682531102170
1818759 1 18408317809652802086
2026 5 18272373117978999146
20505436 4 8718826466513079468
20771845 65 18410570644047807381
21033650 10 16486696990596228309
21095123 293 6771856399543261898
21267235 1 18114174238148988332
21304304 249 18409448085967697958
21792934 111 17749395866687682609
21792961 116 18340211873231733949
22224240 67 15430037660423455684
2297311 6 17775005661963166757
23198884 109 16056879126349047517
23559900 14 18271244894014424385
23576562 1 11527362880124911107
3004659 81 18059858337465915992
3178227 256 18040152903617011150
3383291 50 18334573542776028014
3711267 37 8574424383602240410
5104073 3 17314501733659994450
5718773 13 18411135831747021210
5758199 1 14490192709271448526
6138700 20 18413670206165095963
6438161 24 18343586239946740170
9689198 14 7492999683547663226
9953998 17 15285365015509767222

> <PUBCHEM_SHAPE_MULTIPOLES>
476.95
25.97
2.18
1.06
23.45
0.1
-0.01
-22.32
2.33
0.6
0.88
-0.25
0.06
-0.05

> <PUBCHEM_SHAPE_SELFOVERLAP>
978.285

> <PUBCHEM_SHAPE_VOLUME>
277.8

> <PUBCHEM_COORDINATE_TYPE>
2
5
10

$$$$

