47205059
  -OEChem-06241222583D

 30 31  0     0  0  0  0  0  0999 V2000
    6.3182    1.7755    0.2518 Cl  0  0  0  0  0  0  0  0  0  0  0  0
    1.3491   -1.3201   -0.3497 O   0  0  0  0  0  0  0  0  0  0  0  0
   -1.2011   -1.6506   -1.1461 O   0  0  0  0  0  0  0  0  0  0  0  0
   -2.0295   -1.1424    0.9666 N   0  0  0  0  0  0  0  0  0  0  0  0
   -4.3153    1.0467    0.9648 N   0  0  0  0  0  0  0  0  0  0  0  0
   -4.8384    2.1077    0.3272 N   0  0  0  0  0  0  0  0  0  0  0  0
   -3.4334   -1.2830    0.6563 C   0  0  0  0  0  0  0  0  0  0  0  0
   -4.0263   -0.0029    0.1429 C   0  0  0  0  0  0  0  0  0  0  0  0
    0.3471   -1.1262    0.6258 C   0  0  0  0  0  0  0  0  0  0  0  0
   -1.0276   -1.3404    0.0294 C   0  0  0  0  0  0  0  0  0  0  0  0
   -4.3858    0.3996   -1.1202 C   0  0  0  0  0  0  0  0  0  0  0  0
    2.5097   -0.5961   -0.2095 C   0  0  0  0  0  0  0  0  0  0  0  0
   -4.8790    1.7066   -0.9462 C   0  0  0  0  0  0  0  0  0  0  0  0
    2.9539   -0.2300    1.0610 C   0  0  0  0  0  0  0  0  0  0  0  0
    3.2429   -0.2280   -1.3376 C   0  0  0  0  0  0  0  0  0  0  0  0
    4.1311    0.5044    1.2035 C   0  0  0  0  0  0  0  0  0  0  0  0
    4.4201    0.5065   -1.1953 C   0  0  0  0  0  0  0  0  0  0  0  0
    4.8642    0.8727    0.0753 C   0  0  0  0  0  0  0  0  0  0  0  0
   -3.9442   -1.5949    1.5736 H   0  0  0  0  0  0  0  0  0  0  0  0
   -3.5588   -2.0779   -0.0874 H   0  0  0  0  0  0  0  0  0  0  0  0
   -1.7783   -0.8700    1.9127 H   0  0  0  0  0  0  0  0  0  0  0  0
    0.3518   -0.1019    1.0220 H   0  0  0  0  0  0  0  0  0  0  0  0
    0.4880   -1.8437    1.4422 H   0  0  0  0  0  0  0  0  0  0  0  0
   -4.3022   -0.1689   -2.0349 H   0  0  0  0  0  0  0  0  0  0  0  0
   -4.1813    1.1084    1.9665 H   0  0  0  0  0  0  0  0  0  0  0  0
   -5.2661    2.3833   -1.6943 H   0  0  0  0  0  0  0  0  0  0  0  0
    2.4264   -0.5202    1.9648 H   0  0  0  0  0  0  0  0  0  0  0  0
    2.9014   -0.5107   -2.3296 H   0  0  0  0  0  0  0  0  0  0  0  0
    4.4689    0.7776    2.2000 H   0  0  0  0  0  0  0  0  0  0  0  0
    4.9813    0.7860   -2.0832 H   0  0  0  0  0  0  0  0  0  0  0  0
  1 18  1  0  0  0  0
  2  9  1  0  0  0  0
  2 12  1  0  0  0  0
  3 10  2  0  0  0  0
  4  7  1  0  0  0  0
  4 10  1  0  0  0  0
  4 21  1  0  0  0  0
  5  6  1  0  0  0  0
  5  8  1  0  0  0  0
  5 25  1  0  0  0  0
  6 13  2  0  0  0  0
  7  8  1  0  0  0  0
  7 19  1  0  0  0  0
  7 20  1  0  0  0  0
  8 11  2  0  0  0  0
  9 10  1  0  0  0  0
  9 22  1  0  0  0  0
  9 23  1  0  0  0  0
 11 13  1  0  0  0  0
 11 24  1  0  0  0  0
 12 14  2  0  0  0  0
 12 15  1  0  0  0  0
 13 26  1  0  0  0  0
 14 16  1  0  0  0  0
 14 27  1  0  0  0  0
 15 17  2  0  0  0  0
 15 28  1  0  0  0  0
 16 18  2  0  0  0  0
 16 29  1  0  0  0  0
 17 18  1  0  0  0  0
 17 30  1  0  0  0  0
M  END
> <PUBCHEM_COMPOUND_CID>
47205059

> <PUBCHEM_CONFORMER_RMSD>
0.8

> <PUBCHEM_CONFORMER_DIVERSEORDER>
1
126
4
64
137
144
119
75
56
155
86
32
27
12
55
149
67
159
51
85
129
54
6
36
123
92
157
33
142
2
141
107
5
72
152
108
21
97
160
3
135
94
154
134
52
16
110
76
140
60
109
118
7
132
48
45
120
15
127
131
87
23
63
44
147
38
81
68
62
100
139
84
39
29
101
19
57
28
58
121
95
22
98
77
143
105
13
25
130
35
73
136
69
102
10
161
37
148
66
79
156
43
41
78
138
104
49
115
89
146
70
42
30
106
18
65
125
103
91
46
31
112
88
151
114
111
71
59
50
11
133
61
99
40
145
34
9
93
47
82
53
14
117
8
116
158
17
122
113
20
80
128
150
26
74
124
24
153
96
83
90

> <PUBCHEM_MMFF94_PARTIAL_CHARGES>
26
1 -0.18
10 0.57
11 -0.15
12 0.08
13 0.14
14 -0.15
15 -0.15
16 -0.15
17 -0.15
18 0.18
2 -0.36
21 0.37
24 0.15
25 0.27
26 0.15
27 0.15
28 0.15
29 0.15
3 -0.57
30 0.15
4 -0.73
5 0.3
6 -0.71
7 0.48
8 -0.33
9 0.34

> <PUBCHEM_EFFECTIVE_ROTOR_COUNT>
6

> <PUBCHEM_PHARMACOPHORE_FEATURES>
7
1 2 acceptor
1 3 acceptor
1 4 donor
1 5 donor
1 6 acceptor
5 5 6 8 11 13 rings
6 12 14 15 16 17 18 rings

> <PUBCHEM_HEAVY_ATOM_COUNT>
18

> <PUBCHEM_ATOM_DEF_STEREO_COUNT>
0

> <PUBCHEM_ATOM_UDEF_STEREO_COUNT>
0

> <PUBCHEM_BOND_DEF_STEREO_COUNT>
0

> <PUBCHEM_BOND_UDEF_STEREO_COUNT>
0

> <PUBCHEM_ISOTOPIC_ATOM_COUNT>
0

> <PUBCHEM_COMPONENT_COUNT>
1

> <PUBCHEM_CACTVS_TAUTO_COUNT>
4

> <PUBCHEM_CONFORMER_ID>
02D04AC300000001

> <PUBCHEM_MMFF94_ENERGY>
33.0762

> <PUBCHEM_FEATURE_SELFOVERLAP>
35.528

> <PUBCHEM_SHAPE_FINGERPRINT>
10014705 185 18187082810883720238
10498660 4 18261107486868222184
105312 117 18186237320854518487
11046707 91 8214142949945779291
11089746 13 18187936075251965466
11128504 68 14923947829561382099
11552529 35 15840122413313640401
12596602 18 15985097505593265521
12633257 1 15625941993751526306
12670546 177 15864072082911304157
12969540 114 17967538982022088263
13103583 49 13038900088467381869
13675066 3 14333412267808421391
13740256 8 9439403532062266938
14123255 352 18412829079215679929
1420 369 9367342639262498421
14251751 18 9295289439113244824
14251764 75 17612866411586382057
14252887 29 13686306777029333306
14341114 328 16917342615431163726
14576447 43 5184071427310159518
14950920 106 14620787193854311989
15188451 53 13182727114508403041
15209294 21 17632859728591697611
15238133 3 17775562018946551420
15880784 105 11599714074063880309
1601671 61 18343299262911351020
17780758 139 12391518598383538975
17870717 6 5545195004994155633
193927 3 8718823206431480171
200 152 4967618282157667926
20281389 69 18343021077752884568
20621476 21 9223229684517447596
20645477 56 18113896005624938947
20645477 70 16588287390084469886
20871999 31 14490186111542525674
21054139 6 5617540688168928564
21403212 168 11023559047103481935
22289505 5 17822007614949687792
23379529 103 6337800029155072405
23402655 69 17095518513319594810
235170 7 16588023545668797693
23559900 14 18270390711287900086
25122255 55 9655312453008252016
26918003 58 11959739256658596671
270888 7 18267586982707503241
2838139 119 18334581264847008312
2916195 48 18337392626322430584
341906 21 18342741810067441841
351380 3 7637397445500070949
4028521 119 18040150712513881147
4259306 186 6338953343574004853
441001 317 18411417302222665995
5104073 3 17846498153382835299
5352402 22 12607402217149369961
5924683 9 15266765634471160929
960060 61 15140679193894617386

> <PUBCHEM_SHAPE_MULTIPOLES>
345.62
14.79
1.86
1.27
2.24
0.45
-0.15
10.44
0.34
-1.57
0.03
0.32
0.01
0.45

> <PUBCHEM_SHAPE_SELFOVERLAP>
718.459

> <PUBCHEM_SHAPE_VOLUME>
197

> <PUBCHEM_COORDINATE_TYPE>
2
5
10

$$$$

