10546
  -OEChem-06261204403D

 35 34  0     0  0  0  0  0  0999 V2000
   -0.0047    0.8172    0.6099 P   0  0  0  0  0  0  0  0  0  0  0  0
    0.0016   -0.7625    0.9720 O   0  0  0  0  0  0  0  0  0  0  0  0
   -1.2724    0.9994   -0.3824 O   0  0  0  0  0  0  0  0  0  0  0  0
    1.2628    1.0099   -0.3810 O   0  0  0  0  0  0  0  0  0  0  0  0
   -0.0091    1.7281    1.8048 O   0  0  0  0  0  0  0  0  0  0  0  0
    0.0062   -1.7303   -0.0636 C   0  0  0  0  0  0  0  0  0  0  0  0
   -2.5731    0.7821    0.1373 C   0  0  0  0  0  0  0  0  0  0  0  0
    2.5646    0.8033    0.1401 C   0  0  0  0  0  0  0  0  0  0  0  0
    0.0115   -3.1176    0.5598 C   0  0  0  0  0  0  0  0  0  0  0  0
   -3.5898    1.0103   -0.9706 C   0  0  0  0  0  0  0  0  0  0  0  0
    3.5805    1.0400   -0.9668 C   0  0  0  0  0  0  0  0  0  0  0  0
    0.0317   -4.2102   -0.4939 C   0  0  0  0  0  0  0  0  0  0  0  0
   -5.0128    0.8091   -0.4816 C   0  0  0  0  0  0  0  0  0  0  0  0
    5.0031    0.8212   -0.4839 C   0  0  0  0  0  0  0  0  0  0  0  0
    0.8942   -1.5918   -0.6880 H   0  0  0  0  0  0  0  0  0  0  0  0
   -0.8815   -1.5995   -0.6901 H   0  0  0  0  0  0  0  0  0  0  0  0
   -2.7450    1.4783    0.9649 H   0  0  0  0  0  0  0  0  0  0  0  0
   -2.6466   -0.2403    0.5215 H   0  0  0  0  0  0  0  0  0  0  0  0
    2.6453   -0.2189    0.5234 H   0  0  0  0  0  0  0  0  0  0  0  0
    2.7307    1.4999    0.9685 H   0  0  0  0  0  0  0  0  0  0  0  0
    0.8815   -3.2210    1.2195 H   0  0  0  0  0  0  0  0  0  0  0  0
   -0.8695   -3.2353    1.2020 H   0  0  0  0  0  0  0  0  0  0  0  0
   -3.4745    2.0238   -1.3732 H   0  0  0  0  0  0  0  0  0  0  0  0
   -3.3827    0.3294   -1.8050 H   0  0  0  0  0  0  0  0  0  0  0  0
    3.3674    0.3720   -1.8100 H   0  0  0  0  0  0  0  0  0  0  0  0
    3.4709    2.0597   -1.3550 H   0  0  0  0  0  0  0  0  0  0  0  0
    0.9252   -4.1333   -1.1217 H   0  0  0  0  0  0  0  0  0  0  0  0
    0.0346   -5.1959   -0.0184 H   0  0  0  0  0  0  0  0  0  0  0  0
   -0.8493   -4.1476   -1.1406 H   0  0  0  0  0  0  0  0  0  0  0  0
   -5.2522    1.5072    0.3269 H   0  0  0  0  0  0  0  0  0  0  0  0
   -5.7221    0.9787   -1.2977 H   0  0  0  0  0  0  0  0  0  0  0  0
   -5.1594   -0.2102   -0.1105 H   0  0  0  0  0  0  0  0  0  0  0  0
    5.1433   -0.2047   -0.1288 H   0  0  0  0  0  0  0  0  0  0  0  0
    5.7118    0.9982   -1.2989 H   0  0  0  0  0  0  0  0  0  0  0  0
    5.2488    1.5052    0.3346 H   0  0  0  0  0  0  0  0  0  0  0  0
  1  2  1  0  0  0  0
  1  3  1  0  0  0  0
  1  4  1  0  0  0  0
  1  5  2  0  0  0  0
  2  6  1  0  0  0  0
  3  7  1  0  0  0  0
  4  8  1  0  0  0  0
  6  9  1  0  0  0  0
  6 15  1  0  0  0  0
  6 16  1  0  0  0  0
  7 10  1  0  0  0  0
  7 17  1  0  0  0  0
  7 18  1  0  0  0  0
  8 11  1  0  0  0  0
  8 19  1  0  0  0  0
  8 20  1  0  0  0  0
  9 12  1  0  0  0  0
  9 21  1  0  0  0  0
  9 22  1  0  0  0  0
 10 13  1  0  0  0  0
 10 23  1  0  0  0  0
 10 24  1  0  0  0  0
 11 14  1  0  0  0  0
 11 25  1  0  0  0  0
 11 26  1  0  0  0  0
 12 27  1  0  0  0  0
 12 28  1  0  0  0  0
 12 29  1  0  0  0  0
 13 30  1  0  0  0  0
 13 31  1  0  0  0  0
 13 32  1  0  0  0  0
 14 33  1  0  0  0  0
 14 34  1  0  0  0  0
 14 35  1  0  0  0  0
M  END
> <PUBCHEM_COMPOUND_CID>
10546

> <PUBCHEM_CONFORMER_RMSD>
0.8

> <PUBCHEM_CONFORMER_DIVERSEORDER>
1
51
10
38
68
28
33
62
45
53
70
26
65
14
57
17
47
69
63
76
2
55
56
15
50
43
52
73
9
18
66
75
59
11
54
36
46
16
25
44
3
32
42
13
4
74
34
39
72
61
19
37
30
23
71
41
20
12
5
40
22
29
7
64
8
35
27
31
48
24
58
67
60
21
6
49

> <PUBCHEM_MMFF94_PARTIAL_CHARGES>
8
1 1.51
2 -0.55
3 -0.55
4 -0.55
5 -0.7
6 0.28
7 0.28
8 0.28

> <PUBCHEM_EFFECTIVE_ROTOR_COUNT>
9

> <PUBCHEM_PHARMACOPHORE_FEATURES>
4
1 12 hydrophobe
1 13 hydrophobe
1 14 hydrophobe
1 5 acceptor

> <PUBCHEM_HEAVY_ATOM_COUNT>
14

> <PUBCHEM_ATOM_DEF_STEREO_COUNT>
0

> <PUBCHEM_ATOM_UDEF_STEREO_COUNT>
0

> <PUBCHEM_BOND_DEF_STEREO_COUNT>
0

> <PUBCHEM_BOND_UDEF_STEREO_COUNT>
0

> <PUBCHEM_ISOTOPIC_ATOM_COUNT>
0

> <PUBCHEM_COMPONENT_COUNT>
1

> <PUBCHEM_CACTVS_TAUTO_COUNT>
1

> <PUBCHEM_CONFORMER_ID>
0000293200000001

> <PUBCHEM_MMFF94_ENERGY>
2.3557

> <PUBCHEM_FEATURE_SELFOVERLAP>
20.297

> <PUBCHEM_SHAPE_FINGERPRINT>
10465860 250 7348891070370665293
10726558 24 18341611529420694117
116883 192 17688317780725982847
12500047 106 18339360756626445012
12555020 224 18337378440383289694
13052359 8 18340206271919425722
13911882 115 18129923651791019883
14943834 7 17539963292256549577
15502722 9 18198624530637905415
17539 30 17904766583218807926
18186145 218 18334582317061612153
187816 3 18259981574382861168
20602899 9 18334285457690771818
20645476 183 18272654498085652862
20645477 70 18126019384800566727
20711985 344 17837784326301533226
20871999 31 18264772047549414980
21524375 3 18060138738780008308
22218785 32 18342454846338973596
23402539 116 18408889516395745604
23530152 11 18411426102648039871
266924 1 17825381053471937993
298252 57 18131633365732092880
3060560 45 18343308075751738949
3250762 1 17613444345830632153
366044 4 18342738507306338164
81228 2 17621050759045239491
81539 233 18202006581060174743

> <PUBCHEM_SHAPE_MULTIPOLES>
268.49
7.6
3.65
1.1
0.1
7.25
0.27
-6.53
-3.38
-0.08
-0.14
0
-0.34
-0.01

> <PUBCHEM_SHAPE_SELFOVERLAP>
472.396

> <PUBCHEM_SHAPE_VOLUME>
176.2

> <PUBCHEM_COORDINATE_TYPE>
2
5
10

$$$$

