13573
  -OEChem-06241222392D

 21 19  0     0  0  0  0  0  0999 V2000
    0.0000    1.6200    0.0000 K   0  3  0  0  0  0  0  0  0  0  0  0
    0.8660    2.1200    0.0000 S   0  5  0  0  0  0  0  0  0  0  0  0
    1.7321    0.6200    0.0000 S   0  0  0  0  0  0  0  0  0  0  0  0
    2.5981    2.1200    0.0000 O   0  0  0  0  0  0  0  0  0  0  0  0
    5.1962    1.6200    0.0000 C   0  0  0  0  0  0  0  0  0  0  0  0
    4.3301    2.1200    0.0000 C   0  0  0  0  0  0  0  0  0  0  0  0
    5.1962    0.6200    0.0000 C   0  0  0  0  0  0  0  0  0  0  0  0
    6.0622    2.1200    0.0000 C   0  0  0  0  0  0  0  0  0  0  0  0
    3.4641    1.6200    0.0000 C   0  0  0  0  0  0  0  0  0  0  0  0
    1.7321    1.6200    0.0000 C   0  0  0  0  0  0  0  0  0  0  0  0
    4.6592    1.3100    0.0000 H   0  0  0  0  0  0  0  0  0  0  0  0
    4.7287    2.5949    0.0000 H   0  0  0  0  0  0  0  0  0  0  0  0
    3.9316    2.5949    0.0000 H   0  0  0  0  0  0  0  0  0  0  0  0
    5.8162    0.6200    0.0000 H   0  0  0  0  0  0  0  0  0  0  0  0
    5.1962    0.0000    0.0000 H   0  0  0  0  0  0  0  0  0  0  0  0
    4.5762    0.6200    0.0000 H   0  0  0  0  0  0  0  0  0  0  0  0
    5.7522    2.6569    0.0000 H   0  0  0  0  0  0  0  0  0  0  0  0
    6.5991    2.4300    0.0000 H   0  0  0  0  0  0  0  0  0  0  0  0
    6.3722    1.5831    0.0000 H   0  0  0  0  0  0  0  0  0  0  0  0
    3.0656    1.1451    0.0000 H   0  0  0  0  0  0  0  0  0  0  0  0
    3.8626    1.1451    0.0000 H   0  0  0  0  0  0  0  0  0  0  0  0
  2 10  1  0  0  0  0
  3 10  2  0  0  0  0
  4  9  1  0  0  0  0
  4 10  1  0  0  0  0
  5  6  1  0  0  0  0
  5  7  1  0  0  0  0
  5  8  1  0  0  0  0
  5 11  1  0  0  0  0
  6  9  1  0  0  0  0
  6 12  1  0  0  0  0
  6 13  1  0  0  0  0
  7 14  1  0  0  0  0
  7 15  1  0  0  0  0
  7 16  1  0  0  0  0
  8 17  1  0  0  0  0
  8 18  1  0  0  0  0
  8 19  1  0  0  0  0
  9 20  1  0  0  0  0
  9 21  1  0  0  0  0
M  CHG  2   1   1   2  -1
M  END
> <PUBCHEM_COMPOUND_CID>
13573

> <PUBCHEM_COMPOUND_CANONICALIZED>
1

> <PUBCHEM_CACTVS_COMPLEXITY>
85.5

> <PUBCHEM_CACTVS_HBOND_ACCEPTOR>
3

> <PUBCHEM_CACTVS_HBOND_DONOR>
0

> <PUBCHEM_CACTVS_ROTATABLE_BOND>
3

> <PUBCHEM_CACTVS_SUBSKEYS>
AAADccBgIABgQAAAAAAAAAAAAAAAAAAAAAAAAAAAAAAAAAAAAAAAGgQAAAAADQCggAICAAAABAAEAAAAAAAAAAAAAAAAAAAAAAAAAAAAAAAAAAAEAAAAAAAAAAAIAAAAAAAAAAAAAAAAAAAAAAAAAAAAAA==

> <PUBCHEM_IUPAC_OPENEYE_NAME>
potassium isopentyloxymethanedithioate

> <PUBCHEM_IUPAC_CAS_NAME>
potassium 3-methylbutoxymethanedithioate

> <PUBCHEM_IUPAC_NAME>
potassium 3-methylbutoxymethanedithioate

> <PUBCHEM_IUPAC_SYSTEMATIC_NAME>
potassium 3-methylbutoxymethanedithioate

> <PUBCHEM_IUPAC_TRADITIONAL_NAME>
potassium isoamoxymethanedithioate

> <PUBCHEM_IUPAC_INCHI>
InChI=1S/C6H12OS2.K/c1-5(2)3-4-7-6(8)9;/h5H,3-4H2,1-2H3,(H,8,9);/q;+1/p-1

> <PUBCHEM_IUPAC_INCHIKEY>
CMXOFNZFIJEFDA-UHFFFAOYSA-M

> <PUBCHEM_EXACT_MASS>
201.988839

> <PUBCHEM_MOLECULAR_FORMULA>
C6H11KOS2

> <PUBCHEM_MOLECULAR_WEIGHT>
202.37924

> <PUBCHEM_OPENEYE_CAN_SMILES>
CC(C)CCOC(=S)[S-].[K+]

> <PUBCHEM_OPENEYE_ISO_SMILES>
CC(C)CCOC(=S)[S-].[K+]

> <PUBCHEM_CACTVS_TPSA>
42.3

> <PUBCHEM_MONOISOTOPIC_WEIGHT>
201.988839

> <PUBCHEM_TOTAL_CHARGE>
0

> <PUBCHEM_HEAVY_ATOM_COUNT>
10

> <PUBCHEM_ATOM_DEF_STEREO_COUNT>
0

> <PUBCHEM_ATOM_UDEF_STEREO_COUNT>
0

> <PUBCHEM_BOND_DEF_STEREO_COUNT>
0

> <PUBCHEM_BOND_UDEF_STEREO_COUNT>
0

> <PUBCHEM_ISOTOPIC_ATOM_COUNT>
0

> <PUBCHEM_COMPONENT_COUNT>
2

> <PUBCHEM_CACTVS_TAUTO_COUNT>
1

> <PUBCHEM_COORDINATE_TYPE>
1
5
255

$$$$

