4226
  -OEChem-06251223582D

 34 36  0     0  0  0  0  0  0999 V2000
    4.5274    2.5725    0.0000 O   0  0  0  0  0  0  0  0  0  0  0  0
    7.7527   -1.9836    0.0000 O   0  0  0  0  0  0  0  0  0  0  0  0
   10.6895   -1.3712    0.0000 O   0  0  0  0  0  0  0  0  0  0  0  0
   10.3359    0.3244    0.0000 O   0  0  0  0  0  0  0  0  0  0  0  0
    7.0864   -1.2379    0.0000 N   0  0  0  0  0  0  0  0  0  0  0  0
    5.0274    1.0337    0.0000 C   0  0  0  0  0  0  0  0  0  0  0  0
    4.0274    1.0337    0.0000 C   0  0  0  0  0  0  0  0  0  0  0  0
    5.3364    1.9848    0.0000 C   0  0  0  0  0  0  0  0  0  0  0  0
    6.7328    0.4577    0.0000 C   0  0  0  0  0  0  0  0  0  0  0  0
    5.7123    0.2490    0.0000 C   0  0  0  0  0  0  0  0  0  0  0  0
    3.7183    1.9848    0.0000 C   0  0  0  0  0  0  0  0  0  0  0  0
    7.3991   -0.2881    0.0000 C   0  0  0  0  0  0  0  0  0  0  0  0
    6.3518    2.2170    0.0000 C   0  0  0  0  0  0  0  0  0  0  0  0
    7.0547    1.4483    0.0000 C   0  0  0  0  0  0  0  0  0  0  0  0
    8.3780   -0.0839    0.0000 C   0  0  0  0  0  0  0  0  0  0  0  0
    3.3424    0.2490    0.0000 C   0  0  0  0  0  0  0  0  0  0  0  0
    2.7029    2.2170    0.0000 C   0  0  0  0  0  0  0  0  0  0  0  0
    9.0443   -0.8296    0.0000 C   0  0  0  0  0  0  0  0  0  0  0  0
    2.3219    0.4577    0.0000 C   0  0  0  0  0  0  0  0  0  0  0  0
    2.0000    1.4483    0.0000 C   0  0  0  0  0  0  0  0  0  0  0  0
   10.0232   -0.6255    0.0000 C   0  0  0  0  0  0  0  0  0  0  0  0
    5.5139   -0.3384    0.0000 H   0  0  0  0  0  0  0  0  0  0  0  0
    6.5365    2.8088    0.0000 H   0  0  0  0  0  0  0  0  0  0  0  0
    7.6607    1.5796    0.0000 H   0  0  0  0  0  0  0  0  0  0  0  0
    8.9051    0.2426    0.0000 H   0  0  0  0  0  0  0  0  0  0  0  0
    8.1480    0.4918    0.0000 H   0  0  0  0  0  0  0  0  0  0  0  0
    3.5408   -0.3384    0.0000 H   0  0  0  0  0  0  0  0  0  0  0  0
    2.5182    2.8088    0.0000 H   0  0  0  0  0  0  0  0  0  0  0  0
    8.5172   -1.1562    0.0000 H   0  0  0  0  0  0  0  0  0  0  0  0
    9.2743   -1.4054    0.0000 H   0  0  0  0  0  0  0  0  0  0  0  0
    1.9088   -0.0047    0.0000 H   0  0  0  0  0  0  0  0  0  0  0  0
    1.3940    1.5796    0.0000 H   0  0  0  0  0  0  0  0  0  0  0  0
    7.5588   -2.5725    0.0000 H   0  0  0  0  0  0  0  0  0  0  0  0
   11.2964   -1.2446    0.0000 H   0  0  0  0  0  0  0  0  0  0  0  0
  1  8  1  0  0  0  0
  1 11  1  0  0  0  0
  2  5  1  0  0  0  0
  2 33  1  0  0  0  0
  3 21  1  0  0  0  0
  3 34  1  0  0  0  0
  4 21  2  0  0  0  0
  5 12  2  3  0  0  0
  6  7  1  0  0  0  0
  6  8  2  0  0  0  0
  6 10  1  0  0  0  0
  7 11  1  0  0  0  0
  7 16  2  0  0  0  0
  8 13  1  0  0  0  0
  9 10  2  0  0  0  0
  9 12  1  0  0  0  0
  9 14  1  0  0  0  0
 10 22  1  0  0  0  0
 11 17  2  0  0  0  0
 12 15  1  0  0  0  0
 13 14  2  0  0  0  0
 13 23  1  0  0  0  0
 14 24  1  0  0  0  0
 15 18  1  0  0  0  0
 15 25  1  0  0  0  0
 15 26  1  0  0  0  0
 16 19  1  0  0  0  0
 16 27  1  0  0  0  0
 17 20  1  0  0  0  0
 17 28  1  0  0  0  0
 18 21  1  0  0  0  0
 18 29  1  0  0  0  0
 18 30  1  0  0  0  0
 19 20  2  0  0  0  0
 19 31  1  0  0  0  0
 20 32  1  0  0  0  0
M  END
> <PUBCHEM_COMPOUND_CID>
4226

> <PUBCHEM_COMPOUND_CANONICALIZED>
1

> <PUBCHEM_CACTVS_COMPLEXITY>
423

> <PUBCHEM_CACTVS_HBOND_ACCEPTOR>
5

> <PUBCHEM_CACTVS_HBOND_DONOR>
2

> <PUBCHEM_CACTVS_ROTATABLE_BOND>
4

> <PUBCHEM_CACTVS_SUBSKEYS>
AAADccB6OAAAAAAAAAAAAAAAAAAAASAAAAAwYAAAAAAAAEgB/AAAHgAECAAADAyBmAAwDsAQBkCoA6DyCAACCAAkIAAIiAE2CNgMJrKENRqCeSCkwBEIqYeIyPCOoAACAAAIAABAAAQAABAAAAAAAAAAAA==

> <PUBCHEM_IUPAC_OPENEYE_NAME>
4-dibenzofuran-2-yl-4-hydroxyimino-butanoic acid

> <PUBCHEM_IUPAC_CAS_NAME>
4-(2-dibenzofuranyl)-4-hydroxyiminobutanoic acid

> <PUBCHEM_IUPAC_NAME>
4-dibenzofuran-2-yl-4-hydroxyiminobutanoic acid

> <PUBCHEM_IUPAC_SYSTEMATIC_NAME>
4-dibenzofuran-2-yl-4-hydroxyimino-butanoic acid

> <PUBCHEM_IUPAC_TRADITIONAL_NAME>
4-dibenzofuran-2-yl-4-hydroximino-butyric acid

> <PUBCHEM_IUPAC_INCHI>
InChI=1S/C16H13NO4/c18-16(19)8-6-13(17-20)10-5-7-15-12(9-10)11-3-1-2-4-14(11)21-15/h1-5,7,9,20H,6,8H2,(H,18,19)

> <PUBCHEM_IUPAC_INCHIKEY>
ODQJWIMYDRXPBG-UHFFFAOYSA-N

> <PUBCHEM_XLOGP3_AA>
3

> <PUBCHEM_EXACT_MASS>
283.084458

> <PUBCHEM_MOLECULAR_FORMULA>
C16H13NO4

> <PUBCHEM_MOLECULAR_WEIGHT>
283.27872

> <PUBCHEM_OPENEYE_CAN_SMILES>
C1=CC=C2C(=C1)C3=C(O2)C=CC(=C3)C(=NO)CCC(=O)O

> <PUBCHEM_OPENEYE_ISO_SMILES>
C1=CC=C2C(=C1)C3=C(O2)C=CC(=C3)C(=NO)CCC(=O)O

> <PUBCHEM_CACTVS_TPSA>
83

> <PUBCHEM_MONOISOTOPIC_WEIGHT>
283.084458

> <PUBCHEM_TOTAL_CHARGE>
0

> <PUBCHEM_HEAVY_ATOM_COUNT>
21

> <PUBCHEM_ATOM_DEF_STEREO_COUNT>
0

> <PUBCHEM_ATOM_UDEF_STEREO_COUNT>
0

> <PUBCHEM_BOND_DEF_STEREO_COUNT>
0

> <PUBCHEM_BOND_UDEF_STEREO_COUNT>
1

> <PUBCHEM_ISOTOPIC_ATOM_COUNT>
0

> <PUBCHEM_COMPONENT_COUNT>
1

> <PUBCHEM_CACTVS_TAUTO_COUNT>
3

> <PUBCHEM_COORDINATE_TYPE>
1
5
255

> <PUBCHEM_BONDANNOTATIONS>
1  11  8
1  8  8
11  17  8
13  14  8
16  19  8
17  20  8
19  20  8
5  12  1
6  10  8
6  7  8
6  8  8
7  11  8
7  16  8
8  13  8
9  10  8
9  14  8

$$$$

