7846949
  -OEChem-06241222483D

 49 51  0     0  0  0  0  0  0999 V2000
   -2.6238   -2.1908    1.0902 S   0  0  0  0  0  0  0  0  0  0  0  0
   -2.0620    2.2308    0.9468 O   0  0  0  0  0  0  0  0  0  0  0  0
   -0.1080    1.9928   -1.4680 O   0  0  0  0  0  0  0  0  0  0  0  0
   -3.2380    2.4070   -1.0301 O   0  0  0  0  0  0  0  0  0  0  0  0
    1.0124    1.8776    0.5968 N   0  0  0  0  0  0  0  0  0  0  0  0
   -2.2324   -0.9398   -1.1310 N   0  0  0  0  0  0  0  0  0  0  0  0
    2.3642   -0.1105    0.9740 C   0  0  0  0  0  0  0  0  0  0  0  0
    2.1531    1.0937    0.3022 C   0  0  0  0  0  0  0  0  0  0  0  0
    3.0660    1.5246   -0.6605 C   0  0  0  0  0  0  0  0  0  0  0  0
    1.4045   -0.5989    2.0104 C   0  0  0  0  0  0  0  0  0  0  0  0
   -4.3008   -0.2748    0.0439 C   0  0  0  0  0  0  0  0  0  0  0  0
    3.4881   -0.8837    0.6828 C   0  0  0  0  0  0  0  0  0  0  0  0
   -4.0782    1.0466    0.8027 C   0  0  0  0  0  0  0  0  0  0  0  0
    4.1898    0.7514   -0.9516 C   0  0  0  0  0  0  0  0  0  0  0  0
   -3.0541   -1.0547   -0.1139 C   0  0  0  0  0  0  0  0  0  0  0  0
    4.4009   -0.4527   -0.2800 C   0  0  0  0  0  0  0  0  0  0  0  0
    2.8671    2.8094   -1.3976 C   0  0  0  0  0  0  0  0  0  0  0  0
    1.7625   -0.1037    3.4079 C   0  0  0  0  0  0  0  0  0  0  0  0
   -1.2043   -2.5868    0.1953 C   0  0  0  0  0  0  0  0  0  0  0  0
   -1.1663   -1.8123   -0.9680 C   0  0  0  0  0  0  0  0  0  0  0  0
   -0.0015    2.2560   -0.2740 C   0  0  0  0  0  0  0  0  0  0  0  0
   -1.0492    3.0962    0.4235 C   0  0  0  0  0  0  0  0  0  0  0  0
   -3.1057    1.9701    0.1048 C   0  0  0  0  0  0  0  0  0  0  0  0
   -0.1967   -3.5159    0.5008 C   0  0  0  0  0  0  0  0  0  0  0  0
   -0.0804   -1.9754   -1.8554 C   0  0  0  0  0  0  0  0  0  0  0  0
    0.8667   -3.6578   -0.3942 C   0  0  0  0  0  0  0  0  0  0  0  0
    0.9261   -2.8985   -1.5575 C   0  0  0  0  0  0  0  0  0  0  0  0
    1.4117   -1.6947    2.0276 H   0  0  0  0  0  0  0  0  0  0  0  0
    0.3732   -0.3222    1.7653 H   0  0  0  0  0  0  0  0  0  0  0  0
   -5.0715   -0.8597    0.5605 H   0  0  0  0  0  0  0  0  0  0  0  0
   -4.7033   -0.0515   -0.9523 H   0  0  0  0  0  0  0  0  0  0  0  0
    3.6667   -1.8236    1.1985 H   0  0  0  0  0  0  0  0  0  0  0  0
   -5.0263    1.5864    0.9062 H   0  0  0  0  0  0  0  0  0  0  0  0
   -3.7247    0.8369    1.8199 H   0  0  0  0  0  0  0  0  0  0  0  0
    0.7482    1.8839    1.5794 H   0  0  0  0  0  0  0  0  0  0  0  0
    4.9085    1.0722   -1.7011 H   0  0  0  0  0  0  0  0  0  0  0  0
    5.2754   -1.0553   -0.5072 H   0  0  0  0  0  0  0  0  0  0  0  0
    2.2261    2.6588   -2.2707 H   0  0  0  0  0  0  0  0  0  0  0  0
    2.4484    3.5931   -0.7583 H   0  0  0  0  0  0  0  0  0  0  0  0
    3.8261    3.2007   -1.7577 H   0  0  0  0  0  0  0  0  0  0  0  0
    1.7476    0.9895    3.4640 H   0  0  0  0  0  0  0  0  0  0  0  0
    1.0456   -0.4903    4.1392 H   0  0  0  0  0  0  0  0  0  0  0  0
    2.7620   -0.4403    3.7035 H   0  0  0  0  0  0  0  0  0  0  0  0
   -0.6086    3.6423    1.2643 H   0  0  0  0  0  0  0  0  0  0  0  0
   -1.4518    3.8459   -0.2670 H   0  0  0  0  0  0  0  0  0  0  0  0
   -0.2355   -4.1109    1.4080 H   0  0  0  0  0  0  0  0  0  0  0  0
   -0.0227   -1.3854   -2.7658 H   0  0  0  0  0  0  0  0  0  0  0  0
    1.6584   -4.3696   -0.1754 H   0  0  0  0  0  0  0  0  0  0  0  0
    1.7624   -3.0204   -2.2404 H   0  0  0  0  0  0  0  0  0  0  0  0
  1 15  1  0  0  0  0
  1 19  1  0  0  0  0
  2 22  1  0  0  0  0
  2 23  1  0  0  0  0
  3 21  2  0  0  0  0
  4 23  2  0  0  0  0
  5  8  1  0  0  0  0
  5 21  1  0  0  0  0
  5 35  1  0  0  0  0
  6 15  2  0  0  0  0
  6 20  1  0  0  0  0
  7  8  1  0  0  0  0
  7 10  1  0  0  0  0
  7 12  2  0  0  0  0
  8  9  2  0  0  0  0
  9 14  1  0  0  0  0
  9 17  1  0  0  0  0
 10 18  1  0  0  0  0
 10 28  1  0  0  0  0
 10 29  1  0  0  0  0
 11 13  1  0  0  0  0
 11 15  1  0  0  0  0
 11 30  1  0  0  0  0
 11 31  1  0  0  0  0
 12 16  1  0  0  0  0
 12 32  1  0  0  0  0
 13 23  1  0  0  0  0
 13 33  1  0  0  0  0
 13 34  1  0  0  0  0
 14 16  2  0  0  0  0
 14 36  1  0  0  0  0
 16 37  1  0  0  0  0
 17 38  1  0  0  0  0
 17 39  1  0  0  0  0
 17 40  1  0  0  0  0
 18 41  1  0  0  0  0
 18 42  1  0  0  0  0
 18 43  1  0  0  0  0
 19 20  1  0  0  0  0
 19 24  2  0  0  0  0
 20 25  2  0  0  0  0
 21 22  1  0  0  0  0
 22 44  1  0  0  0  0
 22 45  1  0  0  0  0
 24 26  1  0  0  0  0
 24 46  1  0  0  0  0
 25 27  1  0  0  0  0
 25 47  1  0  0  0  0
 26 27  2  0  0  0  0
 26 48  1  0  0  0  0
 27 49  1  0  0  0  0
M  END
> <PUBCHEM_COMPOUND_CID>
7846949

> <PUBCHEM_CONFORMER_RMSD>
1

> <PUBCHEM_CONFORMER_DIVERSEORDER>
4
164
66
176
21
245
292
205
27
323
109
214
339
390
371
173
113
5
293
248
77
122
103
396
120
404
143
275
356
310
87
413
350
289
95
202
358
352
345
261
73
239
251
229
384
268
133
107
1
224
300
308
279
82
53
338
215
381
8
337
124
272
187
116
104
247
343
178
180
204
260
258
407
405
149
121
106
139
378
151
294
332
34
414
222
57
388
398
185
86
399
284
364
7
12
305
183
105
365
22
195
159
232
49
271
411
282
412
297
242
374
290
129
366
71
212
211
166
342
171
382
119
334
309
401
16
351
230
408
301
295
327
241
135
392
288
207
333
386
117
3
298
111
383
355
35
189
94
148
369
191
74
153
263
112
231
361
410
188
160
199
304
375
302
372
389
320
98
91
161
123
79
37
36
208
145
38
318
45
114
331
368
328
174
196
311
415
20
184
220
97
142
291
255
192
190
70
269
29
233
165
416
321
256
128
67
31
68
155
348
313
274
326
287
335
32
72
76
85
225
306
317
75
283
170
42
132
253
134
395
281
50
262
377
240
10
246
150
108
314
218
172
254
270
234
131
61
353
26
126
6
385
59
127
325
101
402
236
357
40
397
296
44
92
162
362
226
299
140
56
168
198
25
237
312
99
203
403
96
359
47
276
30
152
264
194
363
209
286
354
373
69
81
125
316
273
60
340
23
376
64
406
2
137
169
219
147
15
193
223
136
330
102
186
307
303
257
83
110
221
130
63
43
24
90
80
88
48
341
370
58
167
138
182
267
315
197
252
51
259
100
175
200
144
346
336
181
177
201
115
206
380
400
84
278
391
19
156
9
93
33
213
65
379
52
216
319
41
14
158
277
238
46
154
393
217
210
227
13
78
347
409
285
394
265
250
344
280
62
54
28
324
244
249
228
322
18
235
367
157
360
146
349
89
329
243
266
163
11
179
39
55
17
141
118
387

> <PUBCHEM_MMFF94_PARTIAL_CHARGES>
34
1 -0.08
10 0.14
11 0.18
12 -0.15
13 0.06
14 -0.15
15 0.2
16 -0.15
17 0.14
19 0.04
2 -0.43
20 0.23
21 0.57
22 0.34
23 0.66
24 -0.15
25 -0.15
26 -0.15
27 -0.15
3 -0.57
32 0.15
35 0.37
36 0.15
37 0.15
4 -0.57
46 0.15
47 0.15
48 0.15
49 0.15
5 -0.55
6 -0.57
7 -0.14
8 0.12
9 -0.14

> <PUBCHEM_EFFECTIVE_ROTOR_COUNT>
9

> <PUBCHEM_PHARMACOPHORE_FEATURES>
8
1 18 hydrophobe
1 3 acceptor
1 4 acceptor
1 5 donor
1 6 acceptor
5 1 6 15 19 20 rings
6 19 20 24 25 26 27 rings
6 7 8 9 12 14 16 rings

> <PUBCHEM_HEAVY_ATOM_COUNT>
27

> <PUBCHEM_ATOM_DEF_STEREO_COUNT>
0

> <PUBCHEM_ATOM_UDEF_STEREO_COUNT>
0

> <PUBCHEM_BOND_DEF_STEREO_COUNT>
0

> <PUBCHEM_BOND_UDEF_STEREO_COUNT>
0

> <PUBCHEM_ISOTOPIC_ATOM_COUNT>
0

> <PUBCHEM_COMPONENT_COUNT>
1

> <PUBCHEM_CACTVS_TAUTO_COUNT>
4

> <PUBCHEM_CONFORMER_ID>
0077BC2500000004

> <PUBCHEM_MMFF94_ENERGY>
66.882

> <PUBCHEM_FEATURE_SELFOVERLAP>
40.666

> <PUBCHEM_SHAPE_FINGERPRINT>
10616163 171 18410849971260372685
10759866 29 18200301127046534652
11014199 57 17254837473617939574
11513181 2 17824547606800046567
12156800 1 14134933041271953987
12422481 6 17759830399676359562
12553582 1 17832708971931873684
12788726 201 18042383781970433337
128993 33 17343247141859679038
13122387 1 17328864807928630327
13140716 1 18407760330696444457
14251745 187 18261110837037801274
14251751 93 18412823616033259528
14251757 17 17679277892659626038
14251757 5 18122325896971602492
16752209 62 18336845120881611973
17093844 170 18192713573333204878
17921350 177 17414169210826402420
19319366 153 17628922222727976698
20691752 17 17912068753892856681
20764821 26 17046555323362476909
20775438 99 16599602219248531231
20905425 154 17971189472290309415
21857420 4 15222644246888076687
3052486 1 18267857457987743038
3298306 158 18265341771173144877
3380486 77 17480636724561305222
35225 105 18187097160358939325
469060 322 13972283007930373986
90525 40 18409727352623979281

> <PUBCHEM_SHAPE_MULTIPOLES>
531.93
6.99
4.52
1.93
0.15
0.95
-1.23
-2.47
0.19
-1.35
1.1
1.06
0.37
-0.53

> <PUBCHEM_SHAPE_SELFOVERLAP>
1122.416

> <PUBCHEM_SHAPE_VOLUME>
299.5

> <PUBCHEM_COORDINATE_TYPE>
2
5
10

$$$$

