10640
  -OEChem-06261204473D

 18 19  0     0  0  0  0  0  0999 V2000
   -1.3872    2.3031   -0.0002 O   0  0  0  0  0  0  0  0  0  0  0  0
   -0.1177   -2.8809    0.0002 O   0  0  0  0  0  0  0  0  0  0  0  0
   -3.3044    0.4679   -0.0002 O   0  0  0  0  0  0  0  0  0  0  0  0
   -1.7089   -1.2195   -0.0004 N   0  0  0  0  0  0  0  0  0  0  0  0
    0.3505    0.6995    0.0003 C   0  0  0  0  0  0  0  0  0  0  0  0
    0.6645   -0.6599    0.0003 C   0  0  0  0  0  0  0  0  0  0  0  0
   -1.0547    1.1275    0.0006 C   0  0  0  0  0  0  0  0  0  0  0  0
   -0.3994   -1.6859    0.0000 C   0  0  0  0  0  0  0  0  0  0  0  0
    1.3677    1.6597    0.0000 C   0  0  0  0  0  0  0  0  0  0  0  0
    2.0063   -1.0598    0.0000 C   0  0  0  0  0  0  0  0  0  0  0  0
   -2.1401    0.0945    0.0000 C   0  0  0  0  0  0  0  0  0  0  0  0
    2.7024    1.2553   -0.0002 C   0  0  0  0  0  0  0  0  0  0  0  0
    3.0211   -0.1015   -0.0003 C   0  0  0  0  0  0  0  0  0  0  0  0
    1.1411    2.7223    0.0001 H   0  0  0  0  0  0  0  0  0  0  0  0
    2.2825   -2.1109   -0.0002 H   0  0  0  0  0  0  0  0  0  0  0  0
   -2.4360   -1.9296   -0.0007 H   0  0  0  0  0  0  0  0  0  0  0  0
    3.4945    1.9985   -0.0004 H   0  0  0  0  0  0  0  0  0  0  0  0
    4.0614   -0.4141   -0.0005 H   0  0  0  0  0  0  0  0  0  0  0  0
  1  7  2  0  0  0  0
  2  8  2  0  0  0  0
  3 11  2  0  0  0  0
  4  8  1  0  0  0  0
  4 11  1  0  0  0  0
  4 16  1  0  0  0  0
  5  6  1  0  0  0  0
  5  7  1  0  0  0  0
  5  9  2  0  0  0  0
  6  8  1  0  0  0  0
  6 10  2  0  0  0  0
  7 11  1  0  0  0  0
  9 12  1  0  0  0  0
  9 14  1  0  0  0  0
 10 13  1  0  0  0  0
 10 15  1  0  0  0  0
 12 13  2  0  0  0  0
 12 17  1  0  0  0  0
 13 18  1  0  0  0  0
M  END
> <PUBCHEM_COMPOUND_CID>
10640

> <PUBCHEM_CONFORMER_RMSD>
0.4

> <PUBCHEM_CONFORMER_DIVERSEORDER>
1

> <PUBCHEM_MMFF94_PARTIAL_CHARGES>
18
1 -0.57
10 -0.15
11 0.63
12 -0.15
13 -0.15
14 0.15
15 0.15
16 0.37
17 0.15
18 0.15
2 -0.57
3 -0.57
4 -0.49
5 0.09
6 0.09
7 0.48
8 0.54
9 -0.15

> <PUBCHEM_EFFECTIVE_ROTOR_COUNT>
0.2

> <PUBCHEM_PHARMACOPHORE_FEATURES>
6
1 1 acceptor
1 2 acceptor
1 3 acceptor
1 4 donor
6 4 5 6 7 8 11 rings
6 5 6 9 10 12 13 rings

> <PUBCHEM_HEAVY_ATOM_COUNT>
13

> <PUBCHEM_ATOM_DEF_STEREO_COUNT>
0

> <PUBCHEM_ATOM_UDEF_STEREO_COUNT>
0

> <PUBCHEM_BOND_DEF_STEREO_COUNT>
0

> <PUBCHEM_BOND_UDEF_STEREO_COUNT>
0

> <PUBCHEM_ISOTOPIC_ATOM_COUNT>
0

> <PUBCHEM_COMPONENT_COUNT>
1

> <PUBCHEM_CACTVS_TAUTO_COUNT>
3

> <PUBCHEM_CONFORMER_ID>
0000299000000001

> <PUBCHEM_MMFF94_ENERGY>
31.5157

> <PUBCHEM_FEATURE_SELFOVERLAP>
30.477

> <PUBCHEM_SHAPE_FINGERPRINT>
10967382 1 18410856572535240966
11471102 20 18339084903593184797
12382932 28 18265336101451908048
12423570 1 17748831855481290798
13380535 76 18336267860139410310
14325111 11 18410855443006574721
15775835 57 18411694370484010888
16945 1 18410573942507869700
193761 8 17618223248582136580
20645476 183 17845355683697847054
20871998 184 18044649798141354990
21040471 1 18410855464829401920
21501502 16 18266181621767310358
2334 1 18194402191017503335
23402539 116 18262532415298841022
23463225 33 18198346362849530482
23552423 10 17984141461678145100
23559900 14 18189889985473268350
241688 4 16392681320300982338
2748010 2 18338794494683532775
2897 32 18339642351287129532
5084963 1 18113901601755809400
528886 8 18410016515602686457
66348 1 18411981398805774128
7364860 26 17975134554191257239

> <PUBCHEM_SHAPE_MULTIPOLES>
244.94
3.94
2.39
0.59
0.07
0.73
0
-0.92
0
-0.33
0
0.05
-0.01
0

> <PUBCHEM_SHAPE_SELFOVERLAP>
541.532

> <PUBCHEM_SHAPE_VOLUME>
129.5

> <PUBCHEM_COORDINATE_TYPE>
2
5
10

$$$$

