7847025
  -OEChem-06241222482D

 48 51  0     0  0  0  0  0  0999 V2000
    4.6783    2.0368    0.0000 S   0  0  0  0  0  0  0  0  0  0  0  0
    8.2619   -0.5000    0.0000 O   0  0  0  0  0  0  0  0  0  0  0  0
    8.2619    1.2320    0.0000 O   0  0  0  0  0  0  0  0  0  0  0  0
    9.2619   -2.2320    0.0000 O   0  0  0  0  0  0  0  0  0  0  0  0
    4.6783    0.4273    0.0000 N   0  0  0  0  0  0  0  0  0  0  0  0
    6.2619    1.2320    0.0000 C   0  0  0  0  0  0  0  0  0  0  0  0
    6.7619    0.3660    0.0000 C   0  0  0  0  0  0  0  0  0  0  0  0
    5.2619    1.2320    0.0000 C   0  0  0  0  0  0  0  0  0  0  0  0
    3.7320    1.7320    0.0000 C   0  0  0  0  0  0  0  0  0  0  0  0
    3.7320    0.7321    0.0000 C   0  0  0  0  0  0  0  0  0  0  0  0
   12.7619   -1.3660    0.0000 C   0  0  0  0  0  0  0  0  0  0  0  0
   10.7619   -1.3660    0.0000 C   0  0  0  0  0  0  0  0  0  0  0  0
   13.7619   -1.3660    0.0000 C   0  0  0  0  0  0  0  0  0  0  0  0
    7.7619    0.3660    0.0000 C   0  0  0  0  0  0  0  0  0  0  0  0
   12.2619   -0.5000    0.0000 C   0  0  0  0  0  0  0  0  0  0  0  0
   12.2619   -2.2320    0.0000 C   0  0  0  0  0  0  0  0  0  0  0  0
    9.2619   -0.5000    0.0000 C   0  0  0  0  0  0  0  0  0  0  0  0
   11.2619   -0.5000    0.0000 C   0  0  0  0  0  0  0  0  0  0  0  0
   11.2619   -2.2320    0.0000 C   0  0  0  0  0  0  0  0  0  0  0  0
    9.7619   -1.3660    0.0000 C   0  0  0  0  0  0  0  0  0  0  0  0
    2.8660    2.2320    0.0000 C   0  0  0  0  0  0  0  0  0  0  0  0
    2.8660    0.2321    0.0000 C   0  0  0  0  0  0  0  0  0  0  0  0
    2.0000    1.7320    0.0000 C   0  0  0  0  0  0  0  0  0  0  0  0
    2.0000    0.7321    0.0000 C   0  0  0  0  0  0  0  0  0  0  0  0
   14.2619   -2.2320    0.0000 C   0  0  0  0  0  0  0  0  0  0  0  0
   14.2619   -0.5000    0.0000 C   0  0  0  0  0  0  0  0  0  0  0  0
   15.2619   -2.2320    0.0000 C   0  0  0  0  0  0  0  0  0  0  0  0
   15.2619   -0.5000    0.0000 C   0  0  0  0  0  0  0  0  0  0  0  0
   15.7619   -1.3660    0.0000 C   0  0  0  0  0  0  0  0  0  0  0  0
    6.8445    1.4441    0.0000 H   0  0  0  0  0  0  0  0  0  0  0  0
    6.1542    1.8426    0.0000 H   0  0  0  0  0  0  0  0  0  0  0  0
    6.1793    0.1540    0.0000 H   0  0  0  0  0  0  0  0  0  0  0  0
    6.8695   -0.2446    0.0000 H   0  0  0  0  0  0  0  0  0  0  0  0
   12.5719    0.0369    0.0000 H   0  0  0  0  0  0  0  0  0  0  0  0
   12.5719   -2.7690    0.0000 H   0  0  0  0  0  0  0  0  0  0  0  0
   10.9519    0.0369    0.0000 H   0  0  0  0  0  0  0  0  0  0  0  0
   10.9519   -2.7690    0.0000 H   0  0  0  0  0  0  0  0  0  0  0  0
    9.8445   -0.2879    0.0000 H   0  0  0  0  0  0  0  0  0  0  0  0
    9.1542    0.1106    0.0000 H   0  0  0  0  0  0  0  0  0  0  0  0
    2.8660    2.8521    0.0000 H   0  0  0  0  0  0  0  0  0  0  0  0
    2.8660   -0.3879    0.0000 H   0  0  0  0  0  0  0  0  0  0  0  0
    1.4631    2.0420    0.0000 H   0  0  0  0  0  0  0  0  0  0  0  0
    1.4631    0.4221    0.0000 H   0  0  0  0  0  0  0  0  0  0  0  0
   13.9519   -2.7690    0.0000 H   0  0  0  0  0  0  0  0  0  0  0  0
   13.9519    0.0369    0.0000 H   0  0  0  0  0  0  0  0  0  0  0  0
   15.5719   -2.7690    0.0000 H   0  0  0  0  0  0  0  0  0  0  0  0
   15.5719    0.0369    0.0000 H   0  0  0  0  0  0  0  0  0  0  0  0
   16.3819   -1.3660    0.0000 H   0  0  0  0  0  0  0  0  0  0  0  0
  1  8  1  0  0  0  0
  1  9  1  0  0  0  0
  2 14  1  0  0  0  0
  2 17  1  0  0  0  0
  3 14  2  0  0  0  0
  4 20  2  0  0  0  0
  5  8  2  0  0  0  0
  5 10  1  0  0  0  0
  6  7  1  0  0  0  0
  6  8  1  0  0  0  0
  6 30  1  0  0  0  0
  6 31  1  0  0  0  0
  7 14  1  0  0  0  0
  7 32  1  0  0  0  0
  7 33  1  0  0  0  0
  9 10  1  0  0  0  0
  9 21  2  0  0  0  0
 10 22  2  0  0  0  0
 11 13  1  0  0  0  0
 11 15  2  0  0  0  0
 11 16  1  0  0  0  0
 12 18  2  0  0  0  0
 12 19  1  0  0  0  0
 12 20  1  0  0  0  0
 13 25  2  0  0  0  0
 13 26  1  0  0  0  0
 15 18  1  0  0  0  0
 15 34  1  0  0  0  0
 16 19  2  0  0  0  0
 16 35  1  0  0  0  0
 17 20  1  0  0  0  0
 17 38  1  0  0  0  0
 17 39  1  0  0  0  0
 18 36  1  0  0  0  0
 19 37  1  0  0  0  0
 21 23  1  0  0  0  0
 21 40  1  0  0  0  0
 22 24  1  0  0  0  0
 22 41  1  0  0  0  0
 23 24  2  0  0  0  0
 23 42  1  0  0  0  0
 24 43  1  0  0  0  0
 25 27  1  0  0  0  0
 25 44  1  0  0  0  0
 26 28  2  0  0  0  0
 26 45  1  0  0  0  0
 27 29  2  0  0  0  0
 27 46  1  0  0  0  0
 28 29  1  0  0  0  0
 28 47  1  0  0  0  0
 29 48  1  0  0  0  0
M  END
> <PUBCHEM_COMPOUND_CID>
7847025

> <PUBCHEM_COMPOUND_CANONICALIZED>
1

> <PUBCHEM_CACTVS_COMPLEXITY>
554

> <PUBCHEM_CACTVS_HBOND_ACCEPTOR>
5

> <PUBCHEM_CACTVS_HBOND_DONOR>
0

> <PUBCHEM_CACTVS_ROTATABLE_BOND>
8

> <PUBCHEM_CACTVS_SUBSKEYS>
AAADceB6MABAAAAAAAAAAAAAAAAAAWAAAAAwYMAAAAAAAFgB9AAAHgQAAAAADAyh3gIwybIIFAisA6TyTAKD8KBlCjhImD1wZNgIILLglZWGIQhkwAHoyYe8yOCOwAAAAAAAAQCAAAAAAAACAAAAAAAAAA==

> <PUBCHEM_IUPAC_OPENEYE_NAME>
[2-oxo-2-(4-phenylphenyl)ethyl] 3-(1,3-benzothiazol-2-yl)propanoate

> <PUBCHEM_IUPAC_CAS_NAME>
3-(1,3-benzothiazol-2-yl)propanoic acid [2-oxo-2-(4-phenylphenyl)ethyl] ester

> <PUBCHEM_IUPAC_NAME>
[2-oxo-2-(4-phenylphenyl)ethyl] 3-(1,3-benzothiazol-2-yl)propanoate

> <PUBCHEM_IUPAC_SYSTEMATIC_NAME>
[2-oxidanylidene-2-(4-phenylphenyl)ethyl] 3-(1,3-benzothiazol-2-yl)propanoate

> <PUBCHEM_IUPAC_TRADITIONAL_NAME>
3-(1,3-benzothiazol-2-yl)propionic acid [2-keto-2-(4-phenylphenyl)ethyl] ester

> <PUBCHEM_IUPAC_INCHI>
InChI=1S/C24H19NO3S/c26-21(19-12-10-18(11-13-19)17-6-2-1-3-7-17)16-28-24(27)15-14-23-25-20-8-4-5-9-22(20)29-23/h1-13H,14-16H2

> <PUBCHEM_IUPAC_INCHIKEY>
MDRQUCFMVQWJGN-UHFFFAOYSA-N

> <PUBCHEM_XLOGP3_AA>
5.5

> <PUBCHEM_EXACT_MASS>
401.108564

> <PUBCHEM_MOLECULAR_FORMULA>
C24H19NO3S

> <PUBCHEM_MOLECULAR_WEIGHT>
401.47756

> <PUBCHEM_OPENEYE_CAN_SMILES>
C1=CC=C(C=C1)C2=CC=C(C=C2)C(=O)COC(=O)CCC3=NC4=CC=CC=C4S3

> <PUBCHEM_OPENEYE_ISO_SMILES>
C1=CC=C(C=C1)C2=CC=C(C=C2)C(=O)COC(=O)CCC3=NC4=CC=CC=C4S3

> <PUBCHEM_CACTVS_TPSA>
84.5

> <PUBCHEM_MONOISOTOPIC_WEIGHT>
401.108564

> <PUBCHEM_TOTAL_CHARGE>
0

> <PUBCHEM_HEAVY_ATOM_COUNT>
29

> <PUBCHEM_ATOM_DEF_STEREO_COUNT>
0

> <PUBCHEM_ATOM_UDEF_STEREO_COUNT>
0

> <PUBCHEM_BOND_DEF_STEREO_COUNT>
0

> <PUBCHEM_BOND_UDEF_STEREO_COUNT>
0

> <PUBCHEM_ISOTOPIC_ATOM_COUNT>
0

> <PUBCHEM_COMPONENT_COUNT>
1

> <PUBCHEM_CACTVS_TAUTO_COUNT>
4

> <PUBCHEM_COORDINATE_TYPE>
1
5
255

> <PUBCHEM_BONDANNOTATIONS>
1  8  8
1  9  8
10  22  8
11  15  8
11  16  8
12  18  8
12  19  8
13  25  8
13  26  8
15  18  8
16  19  8
21  23  8
22  24  8
23  24  8
25  27  8
26  28  8
27  29  8
28  29  8
5  10  8
5  8  8
9  10  8
9  21  8

$$$$

