17396061
  -OEChem-06241222543D

 52 53  0     0  0  0  0  0  0999 V2000
   -5.0831   -0.9652    0.3084 S   0  0  0  0  0  0  0  0  0  0  0  0
   -5.6107   -1.8095   -0.7476 O   0  0  0  0  0  0  0  0  0  0  0  0
   -5.2767   -1.3507    1.6942 O   0  0  0  0  0  0  0  0  0  0  0  0
    1.6436   -0.0808    1.5713 O   0  0  0  0  0  0  0  0  0  0  0  0
   -5.6350    0.6525    0.0796 N   0  0  0  0  0  0  0  0  0  0  0  0
    0.7848   -0.4753   -0.5856 N   0  0  0  0  0  0  0  0  0  0  0  0
    7.6510   -0.2365   -0.5099 N   0  0  0  0  0  0  0  0  0  0  0  0
    7.5317    1.0876   -0.7069 N   0  0  0  0  0  0  0  0  0  0  0  0
    4.2537    0.1073    0.7884 C   0  0  0  0  0  0  0  0  0  0  0  0
   -3.3382   -0.8196    0.0426 C   0  0  0  0  0  0  0  0  0  0  0  0
   -5.7967    1.1385   -1.3144 C   0  0  0  0  0  0  0  0  0  0  0  0
   -5.0897    1.7043    0.9748 C   0  0  0  0  0  0  0  0  0  0  0  0
    5.6383    0.2035    0.2158 C   0  0  0  0  0  0  0  0  0  0  0  0
    3.1744   -0.1695   -0.2605 C   0  0  0  0  0  0  0  0  0  0  0  0
    6.5444   -0.8138    0.0402 C   0  0  0  0  0  0  0  0  0  0  0  0
    6.3002    1.3506   -0.2617 C   0  0  0  0  0  0  0  0  0  0  0  0
   -2.4904   -0.5410    1.1146 C   0  0  0  0  0  0  0  0  0  0  0  0
   -2.8119   -0.9835   -1.2388 C   0  0  0  0  0  0  0  0  0  0  0  0
   -0.5897   -0.5902   -0.3762 C   0  0  0  0  0  0  0  0  0  0  0  0
    1.7872   -0.2226    0.3601 C   0  0  0  0  0  0  0  0  0  0  0  0
   -7.1939    0.8213   -1.8079 C   0  0  0  0  0  0  0  0  0  0  0  0
   -6.1103    2.8114    1.1444 C   0  0  0  0  0  0  0  0  0  0  0  0
   -1.1160   -0.4264    0.9051 C   0  0  0  0  0  0  0  0  0  0  0  0
   -1.4377   -0.8688   -1.4481 C   0  0  0  0  0  0  0  0  0  0  0  0
    6.4803   -2.2562    0.3307 C   0  0  0  0  0  0  0  0  0  0  0  0
    5.7905    2.7325   -0.3126 C   0  0  0  0  0  0  0  0  0  0  0  0
    4.0234    1.0402    1.3193 H   0  0  0  0  0  0  0  0  0  0  0  0
    4.2368   -0.6815    1.5520 H   0  0  0  0  0  0  0  0  0  0  0  0
   -5.6045    2.2106   -1.4111 H   0  0  0  0  0  0  0  0  0  0  0  0
   -5.0625    0.6585   -1.9686 H   0  0  0  0  0  0  0  0  0  0  0  0
   -4.8830    1.2798    1.9627 H   0  0  0  0  0  0  0  0  0  0  0  0
   -4.1525    2.1035    0.5725 H   0  0  0  0  0  0  0  0  0  0  0  0
    3.1787    0.6146   -1.0273 H   0  0  0  0  0  0  0  0  0  0  0  0
    3.3672   -1.1256   -0.7618 H   0  0  0  0  0  0  0  0  0  0  0  0
   -2.8799   -0.4053    2.1195 H   0  0  0  0  0  0  0  0  0  0  0  0
   -3.4526   -1.2014   -2.0884 H   0  0  0  0  0  0  0  0  0  0  0  0
   -7.3240    1.1812   -2.8334 H   0  0  0  0  0  0  0  0  0  0  0  0
   -7.9479    1.3073   -1.1796 H   0  0  0  0  0  0  0  0  0  0  0  0
   -7.3995   -0.2526   -1.8010 H   0  0  0  0  0  0  0  0  0  0  0  0
   -5.7655    3.5219    1.9030 H   0  0  0  0  0  0  0  0  0  0  0  0
   -7.0748    2.4098    1.4737 H   0  0  0  0  0  0  0  0  0  0  0  0
   -6.2816    3.3802    0.2265 H   0  0  0  0  0  0  0  0  0  0  0  0
   -0.5249   -0.2029    1.7822 H   0  0  0  0  0  0  0  0  0  0  0  0
   -1.0411   -0.9990   -2.4519 H   0  0  0  0  0  0  0  0  0  0  0  0
    1.0891   -0.5942   -1.5497 H   0  0  0  0  0  0  0  0  0  0  0  0
    8.5202   -0.6825   -0.7758 H   0  0  0  0  0  0  0  0  0  0  0  0
    6.5780   -2.4328    1.4065 H   0  0  0  0  0  0  0  0  0  0  0  0
    5.5244   -2.6760    0.0014 H   0  0  0  0  0  0  0  0  0  0  0  0
    7.2777   -2.8086   -0.1771 H   0  0  0  0  0  0  0  0  0  0  0  0
    4.8352    2.7724   -0.8460 H   0  0  0  0  0  0  0  0  0  0  0  0
    6.4856    3.4054   -0.8258 H   0  0  0  0  0  0  0  0  0  0  0  0
    5.6345    3.1202    0.6993 H   0  0  0  0  0  0  0  0  0  0  0  0
  1  2  2  0  0  0  0
  1  3  2  0  0  0  0
  1  5  1  0  0  0  0
  1 10  1  0  0  0  0
  4 20  2  0  0  0  0
  5 11  1  0  0  0  0
  5 12  1  0  0  0  0
  6 19  1  0  0  0  0
  6 20  1  0  0  0  0
  6 45  1  0  0  0  0
  7  8  1  0  0  0  0
  7 15  1  0  0  0  0
  7 46  1  0  0  0  0
  8 16  2  0  0  0  0
  9 13  1  0  0  0  0
  9 14  1  0  0  0  0
  9 27  1  0  0  0  0
  9 28  1  0  0  0  0
 10 17  2  0  0  0  0
 10 18  1  0  0  0  0
 11 21  1  0  0  0  0
 11 29  1  0  0  0  0
 11 30  1  0  0  0  0
 12 22  1  0  0  0  0
 12 31  1  0  0  0  0
 12 32  1  0  0  0  0
 13 15  2  0  0  0  0
 13 16  1  0  0  0  0
 14 20  1  0  0  0  0
 14 33  1  0  0  0  0
 14 34  1  0  0  0  0
 15 25  1  0  0  0  0
 16 26  1  0  0  0  0
 17 23  1  0  0  0  0
 17 35  1  0  0  0  0
 18 24  2  0  0  0  0
 18 36  1  0  0  0  0
 19 23  2  0  0  0  0
 19 24  1  0  0  0  0
 21 37  1  0  0  0  0
 21 38  1  0  0  0  0
 21 39  1  0  0  0  0
 22 40  1  0  0  0  0
 22 41  1  0  0  0  0
 22 42  1  0  0  0  0
 23 43  1  0  0  0  0
 24 44  1  0  0  0  0
 25 47  1  0  0  0  0
 25 48  1  0  0  0  0
 25 49  1  0  0  0  0
 26 50  1  0  0  0  0
 26 51  1  0  0  0  0
 26 52  1  0  0  0  0
M  END
> <PUBCHEM_COMPOUND_CID>
17396061

> <PUBCHEM_CONFORMER_RMSD>
1

> <PUBCHEM_CONFORMER_DIVERSEORDER>
1
6
17
31
27
11
29
4
8
33
12
10
24
7
35
38
37
14
32
26
20
18
25
23
21
36
16
15
34
13
5
22
28
9
2
30
3
19

> <PUBCHEM_MMFF94_PARTIAL_CHARGES>
30
1 1.45
10 -0.01
11 0.36
12 0.36
13 -0.18
14 0.06
15 -0.33
16 0.11
17 -0.15
18 -0.15
19 0.12
2 -0.65
20 0.57
23 -0.15
24 -0.15
25 0.18
26 0.18
3 -0.65
35 0.15
36 0.15
4 -0.57
43 0.15
44 0.15
45 0.37
46 0.27
5 -0.85
6 -0.55
7 0.3
8 -0.71
9 0.18

> <PUBCHEM_EFFECTIVE_ROTOR_COUNT>
9

> <PUBCHEM_PHARMACOPHORE_FEATURES>
8
1 2 acceptor
1 3 acceptor
1 4 acceptor
1 6 donor
1 7 donor
1 8 acceptor
5 7 8 13 15 16 rings
6 10 17 18 19 23 24 rings

> <PUBCHEM_HEAVY_ATOM_COUNT>
26

> <PUBCHEM_ATOM_DEF_STEREO_COUNT>
0

> <PUBCHEM_ATOM_UDEF_STEREO_COUNT>
0

> <PUBCHEM_BOND_DEF_STEREO_COUNT>
0

> <PUBCHEM_BOND_UDEF_STEREO_COUNT>
0

> <PUBCHEM_ISOTOPIC_ATOM_COUNT>
0

> <PUBCHEM_COMPONENT_COUNT>
1

> <PUBCHEM_CACTVS_TAUTO_COUNT>
2

> <PUBCHEM_CONFORMER_ID>
0109715D00000001

> <PUBCHEM_MMFF94_ENERGY>
37.6674

> <PUBCHEM_FEATURE_SELFOVERLAP>
40.613

> <PUBCHEM_SHAPE_FINGERPRINT>
10066227 112 18342742926738086628
10554248 39 17895192238280797772
10638233 991 18335701581750137656
11315181 36 18413389831121622877
11719270 70 17313103086066065454
11991303 11 17749396905758493550
12091667 2 18408884019122280587
12236239 1 18408040702188047042
13167372 99 18408882945464885056
13533116 47 17417541297742008426
13782708 43 6483362109949939020
13914758 101 17968097568109368994
14251752 14 18113621200647484274
14933364 13 18272932709230064516
15183329 4 17022904549349901334
15276724 80 18342460395500543492
15461852 350 18334582313694605599
17093844 174 16559033783910455223
17780758 139 14045737150067385733
19377110 9 13110971950244333156
20281389 69 17967253074649651744
21033648 29 17845665742346745412
21130935 74 17275108318974370098
21150785 3 18040159509223880759
23081809 10 18408326575216627902
23198884 109 18343302552666317875
23536379 177 18410011035704666042
2838139 119 18187365445844836769
3004659 81 17095238087111236272
328310 630 18343013368139298037
3383291 50 14562818716028799047
34797466 226 16559026083272016254
4073 2 18272927207103431754
4098825 35 18412263977868713258
44555599 121 18409441497319457136
4938544 92 16988849402100249453
5104073 3 14619974723517733092
5758199 1 16272211894274000585
6328613 192 18410011022398134720

> <PUBCHEM_SHAPE_MULTIPOLES>
501.39
24.63
2.13
1.39
19.71
1.22
-0.06
7.11
-3.35
-0.32
0.23
-2.34
0.06
-1.03

> <PUBCHEM_SHAPE_SELFOVERLAP>
1020.085

> <PUBCHEM_SHAPE_VOLUME>
293.5

> <PUBCHEM_COORDINATE_TYPE>
2
5
10

$$$$

