9104
  -OEChem-06261203243D

 50 57  0     0  0  0  0  0  0999 V2000
    0.7155   -0.9453   -0.0001 C   0  0  0  0  0  0  0  0  0  0  0  0
   -0.7155   -0.9452   -0.0005 C   0  0  0  0  0  0  0  0  0  0  0  0
    1.4517    0.2660   -0.0002 C   0  0  0  0  0  0  0  0  0  0  0  0
   -1.4517    0.2661   -0.0008 C   0  0  0  0  0  0  0  0  0  0  0  0
    1.4079   -2.1769    0.0006 C   0  0  0  0  0  0  0  0  0  0  0  0
   -1.4079   -2.1770   -0.0005 C   0  0  0  0  0  0  0  0  0  0  0  0
    2.8919    0.2363    0.0003 C   0  0  0  0  0  0  0  0  0  0  0  0
   -2.8920    0.2363   -0.0007 C   0  0  0  0  0  0  0  0  0  0  0  0
    3.5519   -1.0126    0.0010 C   0  0  0  0  0  0  0  0  0  0  0  0
   -3.5520   -1.0127   -0.0010 C   0  0  0  0  0  0  0  0  0  0  0  0
    0.6994    1.4544   -0.0007 C   0  0  0  0  0  0  0  0  0  0  0  0
   -0.6994    1.4543   -0.0010 C   0  0  0  0  0  0  0  0  0  0  0  0
    2.8052   -2.1942    0.0012 C   0  0  0  0  0  0  0  0  0  0  0  0
   -2.8053   -2.1942   -0.0011 C   0  0  0  0  0  0  0  0  0  0  0  0
    0.6952   -3.3795    0.0007 C   0  0  0  0  0  0  0  0  0  0  0  0
   -0.6952   -3.3795    0.0001 C   0  0  0  0  0  0  0  0  0  0  0  0
    3.7187    1.3908    0.0000 C   0  0  0  0  0  0  0  0  0  0  0  0
   -3.7186    1.3907    0.0000 C   0  0  0  0  0  0  0  0  0  0  0  0
    4.9567   -1.0832    0.0011 C   0  0  0  0  0  0  0  0  0  0  0  0
   -4.9567   -1.0832   -0.0010 C   0  0  0  0  0  0  0  0  0  0  0  0
    5.1254    1.3273    0.0003 C   0  0  0  0  0  0  0  0  0  0  0  0
   -5.1254    1.3273    0.0004 C   0  0  0  0  0  0  0  0  0  0  0  0
    5.7531    0.0694    0.0006 C   0  0  0  0  0  0  0  0  0  0  0  0
   -5.7531    0.0695   -0.0004 C   0  0  0  0  0  0  0  0  0  0  0  0
    5.9176    2.4887   -0.0003 C   0  0  0  0  0  0  0  0  0  0  0  0
   -5.9176    2.4887    0.0014 C   0  0  0  0  0  0  0  0  0  0  0  0
    7.1568   -0.0029    0.0000 C   0  0  0  0  0  0  0  0  0  0  0  0
   -7.1568   -0.0028   -0.0001 C   0  0  0  0  0  0  0  0  0  0  0  0
    7.3102    2.4036   -0.0007 C   0  0  0  0  0  0  0  0  0  0  0  0
   -7.3100    2.4036    0.0014 C   0  0  0  0  0  0  0  0  0  0  0  0
    7.9295    1.1582   -0.0008 C   0  0  0  0  0  0  0  0  0  0  0  0
   -7.9295    1.1582    0.0008 C   0  0  0  0  0  0  0  0  0  0  0  0
    1.1808    2.4290   -0.0008 H   0  0  0  0  0  0  0  0  0  0  0  0
   -1.1808    2.4289   -0.0013 H   0  0  0  0  0  0  0  0  0  0  0  0
    3.3246   -3.1534    0.0017 H   0  0  0  0  0  0  0  0  0  0  0  0
   -3.3246   -3.1534   -0.0012 H   0  0  0  0  0  0  0  0  0  0  0  0
    1.2156   -4.3353    0.0011 H   0  0  0  0  0  0  0  0  0  0  0  0
   -1.2156   -4.3352    0.0002 H   0  0  0  0  0  0  0  0  0  0  0  0
    3.2669    2.3812   -0.0006 H   0  0  0  0  0  0  0  0  0  0  0  0
   -3.2669    2.3812    0.0004 H   0  0  0  0  0  0  0  0  0  0  0  0
    5.4425   -2.0598    0.0014 H   0  0  0  0  0  0  0  0  0  0  0  0
   -5.4427   -2.0597   -0.0014 H   0  0  0  0  0  0  0  0  0  0  0  0
    5.4540    3.4731   -0.0005 H   0  0  0  0  0  0  0  0  0  0  0  0
   -5.4539    3.4731    0.0020 H   0  0  0  0  0  0  0  0  0  0  0  0
    7.6604   -0.9674    0.0001 H   0  0  0  0  0  0  0  0  0  0  0  0
   -7.6604   -0.9673   -0.0006 H   0  0  0  0  0  0  0  0  0  0  0  0
    7.9094    3.3093   -0.0012 H   0  0  0  0  0  0  0  0  0  0  0  0
   -7.9093    3.3093    0.0020 H   0  0  0  0  0  0  0  0  0  0  0  0
    9.0133    1.0893   -0.0013 H   0  0  0  0  0  0  0  0  0  0  0  0
   -9.0133    1.0894    0.0009 H   0  0  0  0  0  0  0  0  0  0  0  0
  1  2  1  0  0  0  0
  1  3  2  0  0  0  0
  1  5  1  0  0  0  0
  2  4  2  0  0  0  0
  2  6  1  0  0  0  0
  3  7  1  0  0  0  0
  3 11  1  0  0  0  0
  4  8  1  0  0  0  0
  4 12  1  0  0  0  0
  5 13  2  0  0  0  0
  5 15  1  0  0  0  0
  6 14  2  0  0  0  0
  6 16  1  0  0  0  0
  7  9  1  0  0  0  0
  7 17  2  0  0  0  0
  8 10  1  0  0  0  0
  8 18  2  0  0  0  0
  9 13  1  0  0  0  0
  9 19  2  0  0  0  0
 10 14  1  0  0  0  0
 10 20  2  0  0  0  0
 11 12  2  0  0  0  0
 11 33  1  0  0  0  0
 12 34  1  0  0  0  0
 13 35  1  0  0  0  0
 14 36  1  0  0  0  0
 15 16  2  0  0  0  0
 15 37  1  0  0  0  0
 16 38  1  0  0  0  0
 17 21  1  0  0  0  0
 17 39  1  0  0  0  0
 18 22  1  0  0  0  0
 18 40  1  0  0  0  0
 19 23  1  0  0  0  0
 19 41  1  0  0  0  0
 20 24  1  0  0  0  0
 20 42  1  0  0  0  0
 21 23  1  0  0  0  0
 21 25  2  0  0  0  0
 22 24  1  0  0  0  0
 22 26  2  0  0  0  0
 23 27  2  0  0  0  0
 24 28  2  0  0  0  0
 25 29  1  0  0  0  0
 25 43  1  0  0  0  0
 26 30  1  0  0  0  0
 26 44  1  0  0  0  0
 27 31  1  0  0  0  0
 27 45  1  0  0  0  0
 28 32  1  0  0  0  0
 28 46  1  0  0  0  0
 29 31  2  0  0  0  0
 29 47  1  0  0  0  0
 30 32  2  0  0  0  0
 30 48  1  0  0  0  0
 31 49  1  0  0  0  0
 32 50  1  0  0  0  0
M  END
> <PUBCHEM_COMPOUND_CID>
9104

> <PUBCHEM_CONFORMER_RMSD>
0.6

> <PUBCHEM_CONFORMER_DIVERSEORDER>
1

> <PUBCHEM_MMFF94_PARTIAL_CHARGES>
36
11 -0.15
12 -0.15
13 -0.15
14 -0.15
15 -0.15
16 -0.15
17 -0.15
18 -0.15
19 -0.15
20 -0.15
25 -0.15
26 -0.15
27 -0.15
28 -0.15
29 -0.15
30 -0.15
31 -0.15
32 -0.15
33 0.15
34 0.15
35 0.15
36 0.15
37 0.15
38 0.15
39 0.15
40 0.15
41 0.15
42 0.15
43 0.15
44 0.15
45 0.15
46 0.15
47 0.15
48 0.15
49 0.15
50 0.15

> <PUBCHEM_EFFECTIVE_ROTOR_COUNT>
0

> <PUBCHEM_PHARMACOPHORE_FEATURES>
8
6 1 2 3 4 11 12 rings
6 1 2 5 6 15 16 rings
6 1 3 5 7 9 13 rings
6 2 4 6 8 10 14 rings
6 21 23 25 27 29 31 rings
6 22 24 26 28 30 32 rings
6 7 9 17 19 21 23 rings
6 8 10 18 20 22 24 rings

> <PUBCHEM_HEAVY_ATOM_COUNT>
32

> <PUBCHEM_ATOM_DEF_STEREO_COUNT>
0

> <PUBCHEM_ATOM_UDEF_STEREO_COUNT>
0

> <PUBCHEM_BOND_DEF_STEREO_COUNT>
0

> <PUBCHEM_BOND_UDEF_STEREO_COUNT>
0

> <PUBCHEM_ISOTOPIC_ATOM_COUNT>
0

> <PUBCHEM_COMPONENT_COUNT>
1

> <PUBCHEM_CACTVS_TAUTO_COUNT>
1

> <PUBCHEM_CONFORMER_ID>
0000239000000001

> <PUBCHEM_MMFF94_ENERGY>
124.4624

> <PUBCHEM_FEATURE_SELFOVERLAP>
40.816

> <PUBCHEM_SHAPE_FINGERPRINT>
10 15 18202562882609995785
10050765 1 18050286165412793541
10165383 225 18410856563940440885
10190206 1 18189633661197653343
10280341 67 18044384829864167272
10835480 77 18270122452421360085
10906281 52 18410564089547210414
11007060 377 18338794512079855715
11135609 187 18409167731766396777
11135926 11 18340779207650575295
11136131 41 18200317761328635507
11719270 70 18335988657126864554
12013929 112 18199445755162137838
12013929 29 17688597478457522221
12539765 74 18113328738970481334
12788726 201 17531524394537007792
12838862 33 18338533987594749281
12925494 130 18264775359486723480
13248334 5 18122907796036994498
14117953 113 18413102871208438556
14394314 77 18409162251699980425
14790565 3 18410853261104984196
14849402 71 18407757032847649481
15183329 4 18334012800097563561
15289351 153 18335144249624164528
15400415 2 18410856559639841543
15461852 350 17676774189225400133
1577012 14 18410299107244890479
15840311 113 18342172305941212103
15849732 13 18202563964530466781
15890870 6 18410573985151464128
15927050 60 18410858741642685283
16087824 20 18411981385911147892
16758388 162 18271536359796930312
16989713 51 17314802793714599343
16992610 120 18272075073661181740
18608769 82 18338794508344265203
18681886 176 18409174277417862185
19053607 189 18265065806639533889
19611394 137 17916009171992039635
20554085 129 17968109620420936362
20642791 178 18058438812146243516
20715895 44 18410854348438507420
21033648 144 18272096028506009767
21033648 29 18263093132486784936
21298829 104 18411135840104957677
23559900 14 18188779327313595896
24771293 8 18341892978580395109
3178227 256 18339911650580332177
335352 9 18410290324996684422
3411729 13 18341333387159711875
350125 39 18411139147102941036
3633792 109 18261105322415740392
4073 2 18130501950992420290
4093350 32 17458624557829065326
4169191 19 18409731803028262669
5080951 261 16558751158125817667
5104073 3 18202281420122866915
5171179 24 17462578195014417851
5265222 85 18264767649898516320
5758199 1 18408602578426024689
5776283 40 18334858268705210024
6009941 240 17703505523855684185
6086070 43 17240770531783013562
6328613 192 18408603664852478929
99344 41 18411419522573318236
9961470 85 18046634403856287784

> <PUBCHEM_SHAPE_MULTIPOLES>
658.54
21.54
3.32
0.62
0
1.48
0
-17.8
0
0
0
0
0
0

> <PUBCHEM_SHAPE_SELFOVERLAP>
1571.481

> <PUBCHEM_SHAPE_VOLUME>
293.8

> <PUBCHEM_COORDINATE_TYPE>
2
5
10

$$$$

