17395310
  -OEChem-06241222493D

 49 51  0     0  0  0  0  0  0999 V2000
    1.8060    0.5272   -2.1211 O   0  0  0  0  0  0  0  0  0  0  0  0
   -4.5653    1.9057    1.2442 O   0  0  0  0  0  0  0  0  0  0  0  0
    5.3201   -2.7462   -0.3160 O   0  0  0  0  0  0  0  0  0  0  0  0
    0.0517    1.3063   -0.8137 N   0  0  0  0  0  0  0  0  0  0  0  0
   -2.7098    1.1112    0.0670 N   0  0  0  0  0  0  0  0  0  0  0  0
    2.2847    1.8848   -0.3259 N   0  0  0  0  0  0  0  0  0  0  0  0
   -0.9549    0.6160   -1.6224 C   0  0  0  0  0  0  0  0  0  0  0  0
   -0.4491    2.0897    0.3243 C   0  0  0  0  0  0  0  0  0  0  0  0
   -2.0819    0.0672   -0.7543 C   0  0  0  0  0  0  0  0  0  0  0  0
   -1.9499    2.3477    0.2472 C   0  0  0  0  0  0  0  0  0  0  0  0
    1.4108    1.1924   -1.1590 C   0  0  0  0  0  0  0  0  0  0  0  0
   -3.9956    1.0187    0.6100 C   0  0  0  0  0  0  0  0  0  0  0  0
   -4.7409   -0.2355    0.4153 C   0  0  0  0  0  0  0  0  0  0  0  0
    3.7159    1.8746   -0.5277 C   0  0  0  0  0  0  0  0  0  0  0  0
    4.3796    0.7498    0.2129 C   0  0  0  0  0  0  0  0  0  0  0  0
   -4.2254   -1.4362    0.9036 C   0  0  0  0  0  0  0  0  0  0  0  0
   -5.9630   -0.2234   -0.2570 C   0  0  0  0  0  0  0  0  0  0  0  0
    4.5451   -0.4903   -0.4042 C   0  0  0  0  0  0  0  0  0  0  0  0
    4.8285    0.9444    1.5190 C   0  0  0  0  0  0  0  0  0  0  0  0
   -4.9317   -2.6247    0.7193 C   0  0  0  0  0  0  0  0  0  0  0  0
   -6.6694   -1.4121   -0.4411 C   0  0  0  0  0  0  0  0  0  0  0  0
   -6.1537   -2.6127    0.0470 C   0  0  0  0  0  0  0  0  0  0  0  0
    5.1593   -1.5358    0.2853 C   0  0  0  0  0  0  0  0  0  0  0  0
    5.4427   -0.1010    2.2084 C   0  0  0  0  0  0  0  0  0  0  0  0
    5.6081   -1.3411    1.5916 C   0  0  0  0  0  0  0  0  0  0  0  0
    4.8382   -2.8763   -1.6527 C   0  0  0  0  0  0  0  0  0  0  0  0
   -0.4944   -0.1956   -2.1950 H   0  0  0  0  0  0  0  0  0  0  0  0
   -1.3425    1.3470   -2.3420 H   0  0  0  0  0  0  0  0  0  0  0  0
   -0.2026    1.5256    1.2316 H   0  0  0  0  0  0  0  0  0  0  0  0
    0.0735    3.0506    0.3657 H   0  0  0  0  0  0  0  0  0  0  0  0
   -2.8345   -0.4114   -1.3883 H   0  0  0  0  0  0  0  0  0  0  0  0
   -1.6757   -0.6833   -0.0670 H   0  0  0  0  0  0  0  0  0  0  0  0
   -2.2901    2.8716    1.1468 H   0  0  0  0  0  0  0  0  0  0  0  0
   -2.1835    2.9896   -0.6111 H   0  0  0  0  0  0  0  0  0  0  0  0
    1.9440    2.3499    0.5065 H   0  0  0  0  0  0  0  0  0  0  0  0
    3.9386    1.8132   -1.5996 H   0  0  0  0  0  0  0  0  0  0  0  0
    4.1014    2.8404   -0.1814 H   0  0  0  0  0  0  0  0  0  0  0  0
   -3.2876   -1.4624    1.4520 H   0  0  0  0  0  0  0  0  0  0  0  0
   -6.3743    0.7053   -0.6440 H   0  0  0  0  0  0  0  0  0  0  0  0
    4.1843   -0.5870   -1.4222 H   0  0  0  0  0  0  0  0  0  0  0  0
    4.7034    1.9052    2.0114 H   0  0  0  0  0  0  0  0  0  0  0  0
   -4.5331   -3.5587    1.1044 H   0  0  0  0  0  0  0  0  0  0  0  0
   -7.6208   -1.4029   -0.9648 H   0  0  0  0  0  0  0  0  0  0  0  0
   -6.7044   -3.5380   -0.0953 H   0  0  0  0  0  0  0  0  0  0  0  0
    5.7916    0.0502    3.2257 H   0  0  0  0  0  0  0  0  0  0  0  0
    6.0870   -2.1519    2.1339 H   0  0  0  0  0  0  0  0  0  0  0  0
    3.7524   -2.7406   -1.7045 H   0  0  0  0  0  0  0  0  0  0  0  0
    5.3737   -2.2128   -2.3401 H   0  0  0  0  0  0  0  0  0  0  0  0
    5.0469   -3.9025   -1.9725 H   0  0  0  0  0  0  0  0  0  0  0  0
  1 11  2  0  0  0  0
  2 12  2  0  0  0  0
  3 23  1  0  0  0  0
  3 26  1  0  0  0  0
  4  7  1  0  0  0  0
  4  8  1  0  0  0  0
  4 11  1  0  0  0  0
  5  9  1  0  0  0  0
  5 10  1  0  0  0  0
  5 12  1  0  0  0  0
  6 11  1  0  0  0  0
  6 14  1  0  0  0  0
  6 35  1  0  0  0  0
  7  9  1  0  0  0  0
  7 27  1  0  0  0  0
  7 28  1  0  0  0  0
  8 10  1  0  0  0  0
  8 29  1  0  0  0  0
  8 30  1  0  0  0  0
  9 31  1  0  0  0  0
  9 32  1  0  0  0  0
 10 33  1  0  0  0  0
 10 34  1  0  0  0  0
 12 13  1  0  0  0  0
 13 16  2  0  0  0  0
 13 17  1  0  0  0  0
 14 15  1  0  0  0  0
 14 36  1  0  0  0  0
 14 37  1  0  0  0  0
 15 18  2  0  0  0  0
 15 19  1  0  0  0  0
 16 20  1  0  0  0  0
 16 38  1  0  0  0  0
 17 21  2  0  0  0  0
 17 39  1  0  0  0  0
 18 23  1  0  0  0  0
 18 40  1  0  0  0  0
 19 24  2  0  0  0  0
 19 41  1  0  0  0  0
 20 22  2  0  0  0  0
 20 42  1  0  0  0  0
 21 22  1  0  0  0  0
 21 43  1  0  0  0  0
 22 44  1  0  0  0  0
 23 25  2  0  0  0  0
 24 25  1  0  0  0  0
 24 45  1  0  0  0  0
 25 46  1  0  0  0  0
 26 47  1  0  0  0  0
 26 48  1  0  0  0  0
 26 49  1  0  0  0  0
M  END
> <PUBCHEM_COMPOUND_CID>
17395310

> <PUBCHEM_CONFORMER_RMSD>
1

> <PUBCHEM_CONFORMER_DIVERSEORDER>
1
2
61
33
45
26
38
50
55
48
13
8
58
15
56
23
49
46
16
64
25
39
28
5
36
24
43
35
34
17
31
10
57
37
52
30
51
54
47
21
42
44
63
19
3
62
60
22
29
9
41
18
27
40
14
4
11
12
6
53
32
20
59
7

> <PUBCHEM_MMFF94_PARTIAL_CHARGES>
36
1 -0.57
10 0.3
11 0.69
12 0.54
13 0.09
14 0.44
15 -0.14
16 -0.15
17 -0.15
18 -0.15
19 -0.15
2 -0.57
20 -0.15
21 -0.15
22 -0.15
23 0.08
24 -0.15
25 -0.15
26 0.28
3 -0.36
35 0.37
38 0.15
39 0.15
4 -0.66
40 0.15
41 0.15
42 0.15
43 0.15
44 0.15
45 0.15
46 0.15
5 -0.66
6 -0.73
7 0.3
8 0.3
9 0.3

> <PUBCHEM_EFFECTIVE_ROTOR_COUNT>
8.2

> <PUBCHEM_PHARMACOPHORE_FEATURES>
7
1 1 acceptor
1 2 acceptor
1 3 acceptor
1 6 donor
6 13 16 17 20 21 22 rings
6 15 18 19 23 24 25 rings
6 4 5 7 8 9 10 rings

> <PUBCHEM_HEAVY_ATOM_COUNT>
26

> <PUBCHEM_ATOM_DEF_STEREO_COUNT>
0

> <PUBCHEM_ATOM_UDEF_STEREO_COUNT>
0

> <PUBCHEM_BOND_DEF_STEREO_COUNT>
0

> <PUBCHEM_BOND_UDEF_STEREO_COUNT>
0

> <PUBCHEM_ISOTOPIC_ATOM_COUNT>
0

> <PUBCHEM_COMPONENT_COUNT>
1

> <PUBCHEM_CACTVS_TAUTO_COUNT>
2

> <PUBCHEM_CONFORMER_ID>
01096E6E00000001

> <PUBCHEM_MMFF94_ENERGY>
75.7775

> <PUBCHEM_FEATURE_SELFOVERLAP>
35.52

> <PUBCHEM_SHAPE_FINGERPRINT>
10 15 17240768332791763489
10074138 170 17096662997671767263
10319926 262 18114736148272041325
10721379 63 8646229047036978844
11070050 100 15357692003008379374
11399510 152 17604443993360053002
11443803 9 18057878049734760348
117089 54 18191296290319907230
11796584 16 18201730586245806624
11991303 11 15623992748661663973
1200032 147 14852178252848193466
12422481 6 18187079580973453191
12596602 18 18186803590796404832
12661589 4 18263065678966385806
13533116 47 18342174427866416116
13627167 48 11023839383134033911
13782708 43 17988648467457129127
13914758 101 18202007651261658869
14211702 104 18340762668021765755
14251740 57 18408599280081168870
14251764 75 14781264107520963616
14848178 5 18272650117292896387
15001296 14 17916589726193876803
15183329 4 16559039268193412419
15188451 53 18342184353408976921
15348495 7 18187648037127786328
15721738 15 12031517622388799376
17492 89 18409728504324431436
1768 124 18335424521483063711
17857418 61 18130790036081684305
17959699 21 8430316831412903044
1813 80 17704351091585025876
18222031 100 17561362894226812188
19304144 158 11670620449895531558
1979834 28 17530956978070656646
20028762 73 18413674612649061298
20567600 234 16153709778228129713
20691028 202 8213876859837757507
21033648 29 16226035718044943377
21315763 87 18114184098982488938
21585480 29 17751658558332805798
22061861 79 15410898444254519049
25122255 55 18343298167541651063
2838139 119 8430321203420390000
3004659 81 18060135405948372036
312425 54 18188767369981764433
3383291 50 18272084956060034043
34797466 226 11887666294974229488
354706 109 18262535791539495627
3886686 26 17540806626375348466
474113 269 18334870398541770647
5085150 59 18334016090997424199
5104073 3 17749378304507990473
531348 171 17703800236697184149
543368 44 7348885577486990121
7970288 3 18056201508601790058
8863177 126 18336261362265685998
960060 61 15267337444826185428

> <PUBCHEM_SHAPE_MULTIPOLES>
502.52
18.82
3.1
1.61
5.42
1.4
0.01
13.54
5.07
-0.08
-0.24
-2.26
0.17
0.5

> <PUBCHEM_SHAPE_SELFOVERLAP>
1064.937

> <PUBCHEM_SHAPE_VOLUME>
279

> <PUBCHEM_COORDINATE_TYPE>
2
5
10

$$$$

