51090884
  -OEChem-06241223002D

 46 47  0     0  0  0  0  0  0999 V2000
    3.7320   -3.4239    0.0000 O   0  0  0  0  0  0  0  0  0  0  0  0
    7.1962   -0.4239    0.0000 O   0  0  0  0  0  0  0  0  0  0  0  0
    2.8660   -5.9239    0.0000 O   0  0  0  0  0  0  0  0  0  0  0  0
    5.4641   -0.4239    0.0000 N   0  0  0  0  0  0  0  0  0  0  0  0
    6.3301    4.0761    0.0000 N   0  0  0  0  0  0  0  0  0  0  0  0
    5.5211    4.6639    0.0000 N   0  0  0  0  0  0  0  0  0  0  0  0
    4.5981   -1.9239    0.0000 C   0  0  0  0  0  0  0  0  0  0  0  0
    5.4641   -1.4239    0.0000 C   0  0  0  0  0  0  0  0  0  0  0  0
    4.5981   -2.9239    0.0000 C   0  0  0  0  0  0  0  0  0  0  0  0
    6.3301    1.0761    0.0000 C   0  0  0  0  0  0  0  0  0  0  0  0
    6.3301    3.0761    0.0000 C   0  0  0  0  0  0  0  0  0  0  0  0
    6.3301    0.0761    0.0000 C   0  0  0  0  0  0  0  0  0  0  0  0
    7.1962    1.5761    0.0000 C   0  0  0  0  0  0  0  0  0  0  0  0
    5.4641    1.5761    0.0000 C   0  0  0  0  0  0  0  0  0  0  0  0
    7.1962    2.5761    0.0000 C   0  0  0  0  0  0  0  0  0  0  0  0
    5.4641    2.5761    0.0000 C   0  0  0  0  0  0  0  0  0  0  0  0
    3.7320   -4.4239    0.0000 C   0  0  0  0  0  0  0  0  0  0  0  0
    7.1391    4.6639    0.0000 C   0  0  0  0  0  0  0  0  0  0  0  0
    6.8301    5.6149    0.0000 C   0  0  0  0  0  0  0  0  0  0  0  0
    2.8660   -4.9239    0.0000 C   0  0  0  0  0  0  0  0  0  0  0  0
    5.8301    5.6149    0.0000 C   0  0  0  0  0  0  0  0  0  0  0  0
    7.4179    6.4239    0.0000 C   0  0  0  0  0  0  0  0  0  0  0  0
    2.0000   -6.4239    0.0000 C   0  0  0  0  0  0  0  0  0  0  0  0
    4.3860   -1.3413    0.0000 H   0  0  0  0  0  0  0  0  0  0  0  0
    3.9875   -2.0316    0.0000 H   0  0  0  0  0  0  0  0  0  0  0  0
    5.6762   -2.0065    0.0000 H   0  0  0  0  0  0  0  0  0  0  0  0
    6.0747   -1.3163    0.0000 H   0  0  0  0  0  0  0  0  0  0  0  0
    4.8101   -3.5065    0.0000 H   0  0  0  0  0  0  0  0  0  0  0  0
    5.2087   -2.8163    0.0000 H   0  0  0  0  0  0  0  0  0  0  0  0
    4.9272   -0.1139    0.0000 H   0  0  0  0  0  0  0  0  0  0  0  0
    7.7331    1.2661    0.0000 H   0  0  0  0  0  0  0  0  0  0  0  0
    4.9272    1.2661    0.0000 H   0  0  0  0  0  0  0  0  0  0  0  0
    7.7331    2.8861    0.0000 H   0  0  0  0  0  0  0  0  0  0  0  0
    4.9272    2.8861    0.0000 H   0  0  0  0  0  0  0  0  0  0  0  0
    3.9441   -5.0065    0.0000 H   0  0  0  0  0  0  0  0  0  0  0  0
    4.3426   -4.3163    0.0000 H   0  0  0  0  0  0  0  0  0  0  0  0
    7.7288    4.4723    0.0000 H   0  0  0  0  0  0  0  0  0  0  0  0
    2.6540   -4.3413    0.0000 H   0  0  0  0  0  0  0  0  0  0  0  0
    2.2554   -5.0316    0.0000 H   0  0  0  0  0  0  0  0  0  0  0  0
    5.4657    6.1165    0.0000 H   0  0  0  0  0  0  0  0  0  0  0  0
    7.9195    6.0595    0.0000 H   0  0  0  0  0  0  0  0  0  0  0  0
    7.7823    6.9255    0.0000 H   0  0  0  0  0  0  0  0  0  0  0  0
    6.9163    6.7884    0.0000 H   0  0  0  0  0  0  0  0  0  0  0  0
    1.6900   -5.8870    0.0000 H   0  0  0  0  0  0  0  0  0  0  0  0
    1.4631   -6.7339    0.0000 H   0  0  0  0  0  0  0  0  0  0  0  0
    2.3100   -6.9609    0.0000 H   0  0  0  0  0  0  0  0  0  0  0  0
  1  9  1  0  0  0  0
  1 17  1  0  0  0  0
  2 12  2  0  0  0  0
  3 20  1  0  0  0  0
  3 23  1  0  0  0  0
  4  8  1  0  0  0  0
  4 12  1  0  0  0  0
  4 30  1  0  0  0  0
  5  6  1  0  0  0  0
  5 11  1  0  0  0  0
  5 18  1  0  0  0  0
  6 21  2  0  0  0  0
  7  8  1  0  0  0  0
  7  9  1  0  0  0  0
  7 24  1  0  0  0  0
  7 25  1  0  0  0  0
  8 26  1  0  0  0  0
  8 27  1  0  0  0  0
  9 28  1  0  0  0  0
  9 29  1  0  0  0  0
 10 12  1  0  0  0  0
 10 13  2  0  0  0  0
 10 14  1  0  0  0  0
 11 15  2  0  0  0  0
 11 16  1  0  0  0  0
 13 15  1  0  0  0  0
 13 31  1  0  0  0  0
 14 16  2  0  0  0  0
 14 32  1  0  0  0  0
 15 33  1  0  0  0  0
 16 34  1  0  0  0  0
 17 20  1  0  0  0  0
 17 35  1  0  0  0  0
 17 36  1  0  0  0  0
 18 19  2  0  0  0  0
 18 37  1  0  0  0  0
 19 21  1  0  0  0  0
 19 22  1  0  0  0  0
 20 38  1  0  0  0  0
 20 39  1  0  0  0  0
 21 40  1  0  0  0  0
 22 41  1  0  0  0  0
 22 42  1  0  0  0  0
 22 43  1  0  0  0  0
 23 44  1  0  0  0  0
 23 45  1  0  0  0  0
 23 46  1  0  0  0  0
M  END
> <PUBCHEM_COMPOUND_CID>
51090884

> <PUBCHEM_COMPOUND_CANONICALIZED>
1

> <PUBCHEM_CACTVS_COMPLEXITY>
346

> <PUBCHEM_CACTVS_HBOND_ACCEPTOR>
4

> <PUBCHEM_CACTVS_HBOND_DONOR>
1

> <PUBCHEM_CACTVS_ROTATABLE_BOND>
9

> <PUBCHEM_CACTVS_SUBSKEYS>
AAADceB7MAAAAAAAAAAAAAAAAAAAAWAAAAAwAAAAAAAAAAABwAAAHgAYAAAADAjhmgY+wJLIBACqAjV3VACSBCA1ggAYmKEoZNgJIPLA1dGGpQhingDKyYcYiQCeCAAAAAAAAAAQAAAAAAAAAAAAAAAAAA==

> <PUBCHEM_IUPAC_OPENEYE_NAME>
N-[3-(2-methoxyethoxy)propyl]-4-(4-methylpyrazol-1-yl)benzamide

> <PUBCHEM_IUPAC_CAS_NAME>
N-[3-(2-methoxyethoxy)propyl]-4-(4-methyl-1-pyrazolyl)benzamide

> <PUBCHEM_IUPAC_NAME>
N-[3-(2-methoxyethoxy)propyl]-4-(4-methylpyrazol-1-yl)benzamide

> <PUBCHEM_IUPAC_SYSTEMATIC_NAME>
N-[3-(2-methoxyethoxy)propyl]-4-(4-methylpyrazol-1-yl)benzamide

> <PUBCHEM_IUPAC_TRADITIONAL_NAME>
N-[3-(2-methoxyethoxy)propyl]-4-(4-methylpyrazol-1-yl)benzamide

> <PUBCHEM_IUPAC_INCHI>
InChI=1S/C17H23N3O3/c1-14-12-19-20(13-14)16-6-4-15(5-7-16)17(21)18-8-3-9-23-11-10-22-2/h4-7,12-13H,3,8-11H2,1-2H3,(H,18,21)

> <PUBCHEM_IUPAC_INCHIKEY>
HHBYQORUVADTDH-UHFFFAOYSA-N

> <PUBCHEM_XLOGP3_AA>
1.6

> <PUBCHEM_EXACT_MASS>
317.173942

> <PUBCHEM_MOLECULAR_FORMULA>
C17H23N3O3

> <PUBCHEM_MOLECULAR_WEIGHT>
317.38282

> <PUBCHEM_OPENEYE_CAN_SMILES>
CC1=CN(N=C1)C2=CC=C(C=C2)C(=O)NCCCOCCOC

> <PUBCHEM_OPENEYE_ISO_SMILES>
CC1=CN(N=C1)C2=CC=C(C=C2)C(=O)NCCCOCCOC

> <PUBCHEM_CACTVS_TPSA>
65.4

> <PUBCHEM_MONOISOTOPIC_WEIGHT>
317.173942

> <PUBCHEM_TOTAL_CHARGE>
0

> <PUBCHEM_HEAVY_ATOM_COUNT>
23

> <PUBCHEM_ATOM_DEF_STEREO_COUNT>
0

> <PUBCHEM_ATOM_UDEF_STEREO_COUNT>
0

> <PUBCHEM_BOND_DEF_STEREO_COUNT>
0

> <PUBCHEM_BOND_UDEF_STEREO_COUNT>
0

> <PUBCHEM_ISOTOPIC_ATOM_COUNT>
0

> <PUBCHEM_COMPONENT_COUNT>
1

> <PUBCHEM_CACTVS_TAUTO_COUNT>
2

> <PUBCHEM_COORDINATE_TYPE>
1
5
255

> <PUBCHEM_BONDANNOTATIONS>
10  13  8
10  14  8
11  15  8
11  16  8
13  15  8
14  16  8
18  19  8
19  21  8
5  18  8
5  6  8
6  21  8

$$$$

