17395636
  -OEChem-06241222513D

 36 37  0     0  0  0  0  0  0999 V2000
    3.8538   -3.0585    0.0911 F   0  0  0  0  0  0  0  0  0  0  0  0
   -0.4614   -0.5226    1.4555 O   0  0  0  0  0  0  0  0  0  0  0  0
   -4.4299   -1.5000    0.4049 O   0  0  0  0  0  0  0  0  0  0  0  0
    0.4944    1.3179    0.4281 N   0  0  0  0  0  0  0  0  0  0  0  0
   -1.7072    0.6724   -0.1061 N   0  0  0  0  0  0  0  0  0  0  0  0
   -3.1284   -1.1025    0.6865 N   0  0  0  0  0  0  0  0  0  0  0  0
    1.7632    1.2214    1.1388 C   0  0  0  0  0  0  0  0  0  0  0  0
    0.3834    2.4189   -0.5265 C   0  0  0  0  0  0  0  0  0  0  0  0
    2.7693    0.4022    0.3834 C   0  0  0  0  0  0  0  0  0  0  0  0
   -0.5627    0.4039    0.6484 C   0  0  0  0  0  0  0  0  0  0  0  0
   -0.1659    3.6688    0.1294 C   0  0  0  0  0  0  0  0  0  0  0  0
    2.8456   -0.9749    0.5925 C   0  0  0  0  0  0  0  0  0  0  0  0
    3.6268    1.0178   -0.5285 C   0  0  0  0  0  0  0  0  0  0  0  0
   -2.9172   -0.0358   -0.0899 C   0  0  0  0  0  0  0  0  0  0  0  0
    3.7796   -1.7363   -0.1102 C   0  0  0  0  0  0  0  0  0  0  0  0
    4.5606    0.2565   -1.2310 C   0  0  0  0  0  0  0  0  0  0  0  0
    4.6371   -1.1206   -1.0220 C   0  0  0  0  0  0  0  0  0  0  0  0
   -4.0385    0.2832   -0.8751 C   0  0  0  0  0  0  0  0  0  0  0  0
   -4.9613   -0.6672   -0.5263 C   0  0  0  0  0  0  0  0  0  0  0  0
   -6.3414   -0.9445   -0.9431 C   0  0  0  0  0  0  0  0  0  0  0  0
    1.5859    0.7619    2.1192 H   0  0  0  0  0  0  0  0  0  0  0  0
    2.1488    2.2271    1.3450 H   0  0  0  0  0  0  0  0  0  0  0  0
    1.3784    2.6476   -0.9207 H   0  0  0  0  0  0  0  0  0  0  0  0
   -0.1978    2.1402   -1.4090 H   0  0  0  0  0  0  0  0  0  0  0  0
   -1.1707    3.5009    0.5299 H   0  0  0  0  0  0  0  0  0  0  0  0
    0.4703    3.9966    0.9580 H   0  0  0  0  0  0  0  0  0  0  0  0
   -0.2222    4.4856   -0.5968 H   0  0  0  0  0  0  0  0  0  0  0  0
    2.1867   -1.4687    1.3011 H   0  0  0  0  0  0  0  0  0  0  0  0
    3.5916    2.0908   -0.6937 H   0  0  0  0  0  0  0  0  0  0  0  0
   -1.7460    1.4809   -0.7128 H   0  0  0  0  0  0  0  0  0  0  0  0
    5.2307    0.7361   -1.9385 H   0  0  0  0  0  0  0  0  0  0  0  0
    5.3649   -1.7134   -1.5681 H   0  0  0  0  0  0  0  0  0  0  0  0
   -4.1618    1.0841   -1.5895 H   0  0  0  0  0  0  0  0  0  0  0  0
   -6.4183   -1.9459   -1.3776 H   0  0  0  0  0  0  0  0  0  0  0  0
   -7.0208   -0.8878   -0.0870 H   0  0  0  0  0  0  0  0  0  0  0  0
   -6.6803   -0.2229   -1.6928 H   0  0  0  0  0  0  0  0  0  0  0  0
  1 15  1  0  0  0  0
  2 10  2  0  0  0  0
  3  6  1  0  0  0  0
  3 19  1  0  0  0  0
  4  7  1  0  0  0  0
  4  8  1  0  0  0  0
  4 10  1  0  0  0  0
  5 10  1  0  0  0  0
  5 14  1  0  0  0  0
  5 30  1  0  0  0  0
  6 14  2  0  0  0  0
  7  9  1  0  0  0  0
  7 21  1  0  0  0  0
  7 22  1  0  0  0  0
  8 11  1  0  0  0  0
  8 23  1  0  0  0  0
  8 24  1  0  0  0  0
  9 12  2  0  0  0  0
  9 13  1  0  0  0  0
 11 25  1  0  0  0  0
 11 26  1  0  0  0  0
 11 27  1  0  0  0  0
 12 15  1  0  0  0  0
 12 28  1  0  0  0  0
 13 16  2  0  0  0  0
 13 29  1  0  0  0  0
 14 18  1  0  0  0  0
 15 17  2  0  0  0  0
 16 17  1  0  0  0  0
 16 31  1  0  0  0  0
 17 32  1  0  0  0  0
 18 19  2  0  0  0  0
 18 33  1  0  0  0  0
 19 20  1  0  0  0  0
 20 34  1  0  0  0  0
 20 35  1  0  0  0  0
 20 36  1  0  0  0  0
M  END
> <PUBCHEM_COMPOUND_CID>
17395636

> <PUBCHEM_CONFORMER_RMSD>
0.8

> <PUBCHEM_CONFORMER_DIVERSEORDER>
1
76
49
10
81
115
58
85
109
39
73
82
86
34
42
74
97
117
69
121
79
102
44
56
112
110
129
41
104
120
15
93
89
90
62
4
113
111
59
61
37
118
67
21
66
84
51
14
33
96
123
29
101
71
25
103
99
107
75
24
19
116
94
122
48
55
127
47
114
13
83
128
18
63
8
70
98
77
88
6
52
38
108
40
26
35
119
95
9
20
32
78
5
50
22
87
27
92
91
23
36
2
11
43
46
31
30
125
68
130
65
3
12
57
80
105
126
53
60
7
72
45
28
17
106
64
54
124
100
16

> <PUBCHEM_MMFF94_PARTIAL_CHARGES>
25
1 -0.19
10 0.69
12 -0.15
13 -0.15
14 0.35
15 0.19
16 -0.15
17 -0.15
18 -0.15
19 -0.04
2 -0.57
20 0.18
28 0.15
29 0.15
3 -0.02
30 0.37
31 0.15
32 0.15
33 0.15
4 -0.66
5 -0.49
6 -0.41
7 0.44
8 0.3
9 -0.14

> <PUBCHEM_EFFECTIVE_ROTOR_COUNT>
6

> <PUBCHEM_PHARMACOPHORE_FEATURES>
4
1 2 acceptor
1 5 donor
5 3 6 14 18 19 rings
6 9 12 13 15 16 17 rings

> <PUBCHEM_HEAVY_ATOM_COUNT>
20

> <PUBCHEM_ATOM_DEF_STEREO_COUNT>
0

> <PUBCHEM_ATOM_UDEF_STEREO_COUNT>
0

> <PUBCHEM_BOND_DEF_STEREO_COUNT>
0

> <PUBCHEM_BOND_UDEF_STEREO_COUNT>
0

> <PUBCHEM_ISOTOPIC_ATOM_COUNT>
0

> <PUBCHEM_COMPONENT_COUNT>
1

> <PUBCHEM_CACTVS_TAUTO_COUNT>
3

> <PUBCHEM_CONFORMER_ID>
01096FB400000001

> <PUBCHEM_MMFF94_ENERGY>
35.658

> <PUBCHEM_FEATURE_SELFOVERLAP>
20.297

> <PUBCHEM_SHAPE_FINGERPRINT>
10692045 39 10951501336743481492
11796584 16 17458341906078703791
122479 349 10159682595854614968
12596602 18 15936412225547038770
12616999 72 18272367551710990702
12617007 42 17846502486962982797
12633257 1 15357984434219730149
12670546 177 17775282742349297150
12824470 246 18041555970437357264
13533116 47 17895197632780677185
13955234 65 17972882458426035081
14178000 29 18335138665729141533
14251757 5 18272089465442975621
14366163 111 16343988000397717749
14576447 43 18410568531418828134
14866123 147 17904482149315156769
15183329 4 18408888473319637357
15188451 53 14851901244120635869
15210252 30 17346878936061330484
15342168 16 9727342541737610106
15342816 4 18261382373897948220
17349148 13 17022899013385028943
17492 89 18120655992455271710
1798214 20 18408041822931820710
1813 80 18113327609431349485
18222031 100 18259988154182678685
193927 3 17967802855980324038
20281475 54 18335979882550558720
20369508 70 18041003925353113752
20374829 77 18411985796915595410
20388580 30 18412540985784550452
20645477 70 18259705575404524324
20871999 31 18202560700376420397
21250096 35 18408885139607273053
21285901 2 18131075956217587060
221357 26 18343309154426788109
2215653 11 18411990139755422287
22224240 67 17823997632322634352
22950370 63 18410006658948335961
23559900 14 18267029358402317673
23622692 118 18197781205747214058
270888 7 11743537879032715534
2871803 45 18412821404731562214
3004659 81 18131636716170593346
314173 41 18337105666287412958
3421961 26 18334863783595782584
3472631 163 14979664456339597238
34797466 226 16917341516151911111
351380 3 17749106690375368806
4259306 186 18409735075175780799
4340502 62 17096380444926633816
4463277 69 18113898264545192924
46194498 28 17703509879042355693
465052 167 17822006484608313839
474 4 10519988175024858020
49207404 50 7637402951394982212
4990 188 18131637763783612177
56616090 13 13182728209065355494
7164475 11 18269836591871349476
7808743 9 9005900190949955458
94968 8 18334011692570597962
960060 61 18341892978532597174
9971528 1 18334863766695644177

> <PUBCHEM_SHAPE_MULTIPOLES>
377.64
12.16
2.72
1.1
11.74
1.59
0
-8.37
4.67
-1.78
-0.05
-0.26
-0.03
0.07

> <PUBCHEM_SHAPE_SELFOVERLAP>
789.761

> <PUBCHEM_SHAPE_VOLUME>
215

> <PUBCHEM_COORDINATE_TYPE>
2
5
10

$$$$

