9079
  -OEChem-06261203233D

 25 25  0     0  0  0  0  0  0999 V2000
    3.7775   -0.0186    0.1700 N   0  0  0  0  0  0  0  0  0  0  0  0
    4.6045    0.0102   -0.9925 N   0  0  0  0  0  0  0  0  0  0  0  0
    1.4268    0.0029    0.9379 C   0  0  0  0  0  0  0  0  0  0  0  0
   -0.0058    0.0018    0.5233 C   0  0  0  0  0  0  0  0  0  0  0  0
    2.3839    0.0060   -0.2611 C   0  0  0  0  0  0  0  0  0  0  0  0
   -0.6778    1.2090    0.3311 C   0  0  0  0  0  0  0  0  0  0  0  0
   -0.6739   -1.2070    0.3276 C   0  0  0  0  0  0  0  0  0  0  0  0
   -2.6857   -0.0011   -0.2521 C   0  0  0  0  0  0  0  0  0  0  0  0
   -2.0177    1.2076   -0.0565 C   0  0  0  0  0  0  0  0  0  0  0  0
   -2.0139   -1.2084   -0.0601 C   0  0  0  0  0  0  0  0  0  0  0  0
   -4.1179   -0.0025   -0.6675 C   0  0  0  0  0  0  0  0  0  0  0  0
    1.6237    0.8751    1.5758 H   0  0  0  0  0  0  0  0  0  0  0  0
    1.6255   -0.8721    1.5713 H   0  0  0  0  0  0  0  0  0  0  0  0
    2.1889    0.8973   -0.8733 H   0  0  0  0  0  0  0  0  0  0  0  0
    2.1740   -0.8702   -0.8893 H   0  0  0  0  0  0  0  0  0  0  0  0
   -0.1677    2.1575    0.4781 H   0  0  0  0  0  0  0  0  0  0  0  0
   -0.1611   -2.1543    0.4717 H   0  0  0  0  0  0  0  0  0  0  0  0
   -2.5296    2.1547   -0.2053 H   0  0  0  0  0  0  0  0  0  0  0  0
   -2.5230   -2.1565   -0.2118 H   0  0  0  0  0  0  0  0  0  0  0  0
    3.9763    0.7987    0.7458 H   0  0  0  0  0  0  0  0  0  0  0  0
   -4.6402   -0.8850   -0.2825 H   0  0  0  0  0  0  0  0  0  0  0  0
   -4.6434    0.8757   -0.2774 H   0  0  0  0  0  0  0  0  0  0  0  0
   -4.1923    0.0005   -1.7594 H   0  0  0  0  0  0  0  0  0  0  0  0
    4.5277    0.9222   -1.4422 H   0  0  0  0  0  0  0  0  0  0  0  0
    5.5784   -0.0769   -0.7048 H   0  0  0  0  0  0  0  0  0  0  0  0
  1  2  1  0  0  0  0
  1  5  1  0  0  0  0
  1 20  1  0  0  0  0
  2 24  1  0  0  0  0
  2 25  1  0  0  0  0
  3  4  1  0  0  0  0
  3  5  1  0  0  0  0
  3 12  1  0  0  0  0
  3 13  1  0  0  0  0
  4  6  2  0  0  0  0
  4  7  1  0  0  0  0
  5 14  1  0  0  0  0
  5 15  1  0  0  0  0
  6  9  1  0  0  0  0
  6 16  1  0  0  0  0
  7 10  2  0  0  0  0
  7 17  1  0  0  0  0
  8  9  2  0  0  0  0
  8 10  1  0  0  0  0
  8 11  1  0  0  0  0
  9 18  1  0  0  0  0
 10 19  1  0  0  0  0
 11 21  1  0  0  0  0
 11 22  1  0  0  0  0
 11 23  1  0  0  0  0
M  END
> <PUBCHEM_COMPOUND_CID>
9079

> <PUBCHEM_CONFORMER_RMSD>
0.6

> <PUBCHEM_CONFORMER_DIVERSEORDER>
1
6
3
4
2
5

> <PUBCHEM_MMFF94_PARTIAL_CHARGES>
18
1 -0.63
10 -0.15
11 0.14
16 0.15
17 0.15
18 0.15
19 0.15
2 -0.72
20 0.36
24 0.36
25 0.36
3 0.14
4 -0.14
5 0.27
6 -0.15
7 -0.15
8 -0.14
9 -0.15

> <PUBCHEM_EFFECTIVE_ROTOR_COUNT>
3

> <PUBCHEM_PHARMACOPHORE_FEATURES>
3
1 1 donor
1 2 donor
6 4 6 7 8 9 10 rings

> <PUBCHEM_HEAVY_ATOM_COUNT>
11

> <PUBCHEM_ATOM_DEF_STEREO_COUNT>
0

> <PUBCHEM_ATOM_UDEF_STEREO_COUNT>
0

> <PUBCHEM_BOND_DEF_STEREO_COUNT>
0

> <PUBCHEM_BOND_UDEF_STEREO_COUNT>
0

> <PUBCHEM_ISOTOPIC_ATOM_COUNT>
0

> <PUBCHEM_COMPONENT_COUNT>
1

> <PUBCHEM_CACTVS_TAUTO_COUNT>
1

> <PUBCHEM_CONFORMER_ID>
0000237700000001

> <PUBCHEM_MMFF94_ENERGY>
19.1709

> <PUBCHEM_FEATURE_SELFOVERLAP>
16.548

> <PUBCHEM_SHAPE_FINGERPRINT>
11062470 55 14620798218982132141
12032990 46 18262802857106162523
12119455 92 13758082882725477363
13024252 1 17561360673733721923
14911166 2 18410302397774992541
14993402 34 18130792256548121413
15775835 57 17346882251680604182
16945 1 18338815458856501243
200 152 16298386872490611774
20201158 50 17894909633342663246
20279233 1 17894351064656764898
20645476 183 17846782884097963699
20871999 31 18269840822129383983
21119208 17 18273495671794029268
21293036 1 18341899588645430037
22485316 2 16298391262010459462
22926399 37 16988841674552322148
23402539 116 18334584567608157477
23559900 14 18335423444374018160
2748010 2 18051147895235094531
528716 315 18341889675718538050

> <PUBCHEM_SHAPE_MULTIPOLES>
216.41
7.01
1.16
0.86
5.78
0
-0.01
-0.01
-2.73
-0.7
0.08
0.33
0
0

> <PUBCHEM_SHAPE_SELFOVERLAP>
434.241

> <PUBCHEM_SHAPE_VOLUME>
127.8

> <PUBCHEM_COORDINATE_TYPE>
2
5
10

$$$$

