9024
  -OEChem-06261203203D

 30 30  0     0  0  0  0  0  0999 V2000
   -2.4469   -0.7440   -0.0086 O   0  0  0  0  0  0  0  0  0  0  0  0
   -2.5606    1.5546    0.1905 O   0  0  0  0  0  0  0  0  0  0  0  0
   -1.0880   -0.6458   -0.4413 C   0  0  0  0  0  0  0  0  0  0  0  0
   -0.2504   -0.0145    0.6931 C   0  0  0  0  0  0  0  0  0  0  0  0
   -0.5866   -2.0713   -0.7042 C   0  0  0  0  0  0  0  0  0  0  0  0
   -1.0440    0.1646   -1.7396 C   0  0  0  0  0  0  0  0  0  0  0  0
    1.2327    0.0915    0.4198 C   0  0  0  0  0  0  0  0  0  0  0  0
    2.0648   -0.9544    0.7825 C   0  0  0  0  0  0  0  0  0  0  0  0
    1.7295    1.2327   -0.1875 C   0  0  0  0  0  0  0  0  0  0  0  0
   -3.0606    0.4410    0.2737 C   0  0  0  0  0  0  0  0  0  0  0  0
    3.4332   -0.8563    0.5305 C   0  0  0  0  0  0  0  0  0  0  0  0
    3.0980    1.3308   -0.4397 C   0  0  0  0  0  0  0  0  0  0  0  0
    3.9499    0.2862   -0.0807 C   0  0  0  0  0  0  0  0  0  0  0  0
   -4.4709    0.1849    0.7113 C   0  0  0  0  0  0  0  0  0  0  0  0
   -0.4025   -0.5972    1.6141 H   0  0  0  0  0  0  0  0  0  0  0  0
   -0.5851    0.9862    0.9799 H   0  0  0  0  0  0  0  0  0  0  0  0
   -1.2697   -2.5892   -1.3887 H   0  0  0  0  0  0  0  0  0  0  0  0
   -0.5812   -2.6644    0.2175 H   0  0  0  0  0  0  0  0  0  0  0  0
    0.4098   -2.0998   -1.1544 H   0  0  0  0  0  0  0  0  0  0  0  0
   -1.1398    1.2431   -1.5899 H   0  0  0  0  0  0  0  0  0  0  0  0
   -1.8535   -0.1378   -2.4144 H   0  0  0  0  0  0  0  0  0  0  0  0
   -0.0979    0.0119   -2.2714 H   0  0  0  0  0  0  0  0  0  0  0  0
    1.6760   -1.8462    1.2652 H   0  0  0  0  0  0  0  0  0  0  0  0
    1.0761    2.0535   -0.4683 H   0  0  0  0  0  0  0  0  0  0  0  0
    4.0968   -1.6688    0.8116 H   0  0  0  0  0  0  0  0  0  0  0  0
    3.5003    2.2206   -0.9147 H   0  0  0  0  0  0  0  0  0  0  0  0
    5.0155    0.3627   -0.2764 H   0  0  0  0  0  0  0  0  0  0  0  0
   -4.4727   -0.4306    1.6144 H   0  0  0  0  0  0  0  0  0  0  0  0
   -5.0246   -0.3074   -0.0921 H   0  0  0  0  0  0  0  0  0  0  0  0
   -4.9588    1.1373    0.9380 H   0  0  0  0  0  0  0  0  0  0  0  0
  1  3  1  0  0  0  0
  1 10  1  0  0  0  0
  2 10  2  0  0  0  0
  3  4  1  0  0  0  0
  3  5  1  0  0  0  0
  3  6  1  0  0  0  0
  4  7  1  0  0  0  0
  4 15  1  0  0  0  0
  4 16  1  0  0  0  0
  5 17  1  0  0  0  0
  5 18  1  0  0  0  0
  5 19  1  0  0  0  0
  6 20  1  0  0  0  0
  6 21  1  0  0  0  0
  6 22  1  0  0  0  0
  7  8  2  0  0  0  0
  7  9  1  0  0  0  0
  8 11  1  0  0  0  0
  8 23  1  0  0  0  0
  9 12  2  0  0  0  0
  9 24  1  0  0  0  0
 10 14  1  0  0  0  0
 11 13  2  0  0  0  0
 11 25  1  0  0  0  0
 12 13  1  0  0  0  0
 12 26  1  0  0  0  0
 13 27  1  0  0  0  0
 14 28  1  0  0  0  0
 14 29  1  0  0  0  0
 14 30  1  0  0  0  0
M  END
> <PUBCHEM_COMPOUND_CID>
9024

> <PUBCHEM_CONFORMER_RMSD>
0.6

> <PUBCHEM_CONFORMER_DIVERSEORDER>
2
12
10
6
1
13
14
3
7
11
9
8
4
5

> <PUBCHEM_MMFF94_PARTIAL_CHARGES>
17
1 -0.43
10 0.66
11 -0.15
12 -0.15
13 -0.15
14 0.06
2 -0.57
23 0.15
24 0.15
25 0.15
26 0.15
27 0.15
3 0.28
4 0.14
7 -0.14
8 -0.15
9 -0.15

> <PUBCHEM_EFFECTIVE_ROTOR_COUNT>
4

> <PUBCHEM_PHARMACOPHORE_FEATURES>
3
1 2 acceptor
3 3 5 6 hydrophobe
6 7 8 9 11 12 13 rings

> <PUBCHEM_HEAVY_ATOM_COUNT>
14

> <PUBCHEM_ATOM_DEF_STEREO_COUNT>
0

> <PUBCHEM_ATOM_UDEF_STEREO_COUNT>
0

> <PUBCHEM_BOND_DEF_STEREO_COUNT>
0

> <PUBCHEM_BOND_UDEF_STEREO_COUNT>
0

> <PUBCHEM_ISOTOPIC_ATOM_COUNT>
0

> <PUBCHEM_COMPONENT_COUNT>
1

> <PUBCHEM_CACTVS_TAUTO_COUNT>
1

> <PUBCHEM_CONFORMER_ID>
0000234000000002

> <PUBCHEM_MMFF94_ENERGY>
39.6942

> <PUBCHEM_FEATURE_SELFOVERLAP>
15.223

> <PUBCHEM_SHAPE_FINGERPRINT>
10922049 32 18335412478710906319
10922523 26 18114744935969918174
10980938 120 18343302574167352448
11062470 55 6266897965485896721
11471102 20 18202288004665998248
12173636 292 18334582304212919117
12251169 10 18272368676660106427
124424 183 15357695288821695342
12500047 106 15791739581186511100
12932764 1 17703806807448416618
13538477 17 18262242122780794498
13581323 91 17822015310750080920
13675066 3 18041002868606724458
14144814 61 18409733958468329472
14943859 89 17748826310873534227
15207287 21 13912319101405664444
15309172 13 18342181080696748711
15342168 16 17273122489273931540
15375358 24 14562536167531666546
15775835 57 18412259506565164948
15852999 172 13984663633476304892
16945 1 18201175316052255862
17844478 74 17060342941529068660
18186145 218 18272938215304310854
18511873 20 18260551129905923218
19422 9 18341896259924703226
20233049 118 17967254217211367792
20279233 1 14562529557597993068
20645476 183 18260546684514727182
20645477 56 18260552178025799072
20711983 171 18260828185366411709
21524375 3 18114181951820528967
23402539 116 17458350757800792913
23463225 33 18338518641866452858
2748010 2 17691145037759608718
276578 36 17821723974639527235
296302 2 14057009295334073850
474 4 17772187518702794108
74978 22 18042413443245966936
81228 2 17609522435521040287
81539 233 18114741659142233327
9939556 21 18337113354590083166

> <PUBCHEM_SHAPE_MULTIPOLES>
276.37
7.05
1.5
1.06
1.58
0.26
-0.33
-1.39
1.46
-0.21
-0.2
0.28
0.07
-0.58

> <PUBCHEM_SHAPE_SELFOVERLAP>
565.508

> <PUBCHEM_SHAPE_VOLUME>
159.7

> <PUBCHEM_COORDINATE_TYPE>
2
5
10

$$$$

