9711
  -OEChem-06261203583D

 33 33  0     1  0  0  0  0  0999 V2000
    1.5117   -1.2401   -0.6928 S   0  0  0  0  0  0  0  0  0  0  0  0
    0.1630    0.6759    0.7025 O   0  0  0  0  0  0  0  0  0  0  0  0
   -3.2053   -1.4086   -0.5825 O   0  0  0  0  0  0  0  0  0  0  0  0
   -2.7172    1.0001    0.7093 O   0  0  0  0  0  0  0  0  0  0  0  0
   -0.8938   -2.8427    0.3213 O   0  0  0  0  0  0  0  0  0  0  0  0
    0.7203    3.2531   -0.0012 O   0  0  0  0  0  0  0  0  0  0  0  0
   -1.8981   -0.8417   -0.6284 C   0  0  1  0  0  0  0  0  0  0  0  0
   -1.9837    0.6785   -0.4750 C   0  0  2  0  0  0  0  0  0  0  0  0
   -1.0524   -1.4388    0.4962 C   0  0  2  0  0  0  0  0  0  0  0  0
   -0.5785    1.2817   -0.3679 C   0  0  1  0  0  0  0  0  0  0  0  0
    0.3144   -0.7466    0.6053 C   0  0  1  0  0  0  0  0  0  0  0  0
   -0.6118    2.7824   -0.0957 C   0  0  0  0  0  0  0  0  0  0  0  0
    2.8909   -0.2062   -0.1580 C   0  0  0  0  0  0  0  0  0  0  0  0
    3.2723   -0.5589    1.2748 C   0  0  0  0  0  0  0  0  0  0  0  0
    4.0685   -0.3881   -1.1080 C   0  0  0  0  0  0  0  0  0  0  0  0
   -1.4747   -1.0990   -1.6063 H   0  0  0  0  0  0  0  0  0  0  0  0
   -2.5376    1.1116   -1.3147 H   0  0  0  0  0  0  0  0  0  0  0  0
   -1.5958   -1.3125    1.4413 H   0  0  0  0  0  0  0  0  0  0  0  0
   -0.0274    1.1179   -1.3018 H   0  0  0  0  0  0  0  0  0  0  0  0
    0.7343   -1.0932    1.5535 H   0  0  0  0  0  0  0  0  0  0  0  0
   -1.1074    3.0179    0.8515 H   0  0  0  0  0  0  0  0  0  0  0  0
   -1.1183    3.3211   -0.9020 H   0  0  0  0  0  0  0  0  0  0  0  0
    2.5927    0.8464   -0.2059 H   0  0  0  0  0  0  0  0  0  0  0  0
   -3.1067   -2.3736   -0.6533 H   0  0  0  0  0  0  0  0  0  0  0  0
   -2.1567    0.8082    1.4797 H   0  0  0  0  0  0  0  0  0  0  0  0
   -0.3460   -3.1700    1.0550 H   0  0  0  0  0  0  0  0  0  0  0  0
    4.2311   -0.0917    1.5308 H   0  0  0  0  0  0  0  0  0  0  0  0
    2.5582   -0.1748    2.0085 H   0  0  0  0  0  0  0  0  0  0  0  0
    3.3945   -1.6377    1.4233 H   0  0  0  0  0  0  0  0  0  0  0  0
    3.7982   -0.1208   -2.1358 H   0  0  0  0  0  0  0  0  0  0  0  0
    4.4382   -1.4200   -1.1060 H   0  0  0  0  0  0  0  0  0  0  0  0
    4.9017    0.2597   -0.8131 H   0  0  0  0  0  0  0  0  0  0  0  0
    1.1542    2.7654    0.7197 H   0  0  0  0  0  0  0  0  0  0  0  0
  1 11  1  0  0  0  0
  1 13  1  0  0  0  0
  2 10  1  0  0  0  0
  2 11  1  0  0  0  0
  3  7  1  0  0  0  0
  3 24  1  0  0  0  0
  4  8  1  0  0  0  0
  4 25  1  0  0  0  0
  5  9  1  0  0  0  0
  5 26  1  0  0  0  0
  6 12  1  0  0  0  0
  6 33  1  0  0  0  0
  7  8  1  0  0  0  0
  7  9  1  0  0  0  0
  7 16  1  0  0  0  0
  8 10  1  0  0  0  0
  8 17  1  0  0  0  0
  9 11  1  0  0  0  0
  9 18  1  0  0  0  0
 10 12  1  0  0  0  0
 10 19  1  0  0  0  0
 11 20  1  0  0  0  0
 12 21  1  0  0  0  0
 12 22  1  0  0  0  0
 13 14  1  0  0  0  0
 13 15  1  0  0  0  0
 13 23  1  0  0  0  0
 14 27  1  0  0  0  0
 14 28  1  0  0  0  0
 14 29  1  0  0  0  0
 15 30  1  0  0  0  0
 15 31  1  0  0  0  0
 15 32  1  0  0  0  0
M  END
> <PUBCHEM_COMPOUND_CID>
9711

> <PUBCHEM_CONFORMER_RMSD>
0.6

> <PUBCHEM_CONFORMER_DIVERSEORDER>
1
6
2
7
5
3
8
4

> <PUBCHEM_MMFF94_PARTIAL_CHARGES>
17
1 -0.46
10 0.28
11 0.51
12 0.28
13 0.23
2 -0.56
24 0.4
25 0.4
26 0.4
3 -0.68
33 0.4
4 -0.68
5 -0.68
6 -0.68
7 0.28
8 0.28
9 0.28

> <PUBCHEM_EFFECTIVE_ROTOR_COUNT>
4.2

> <PUBCHEM_PHARMACOPHORE_FEATURES>
11
1 2 acceptor
1 3 acceptor
1 3 donor
1 4 acceptor
1 4 donor
1 5 acceptor
1 5 donor
1 6 acceptor
1 6 donor
3 13 14 15 hydrophobe
6 2 7 8 9 10 11 rings

> <PUBCHEM_HEAVY_ATOM_COUNT>
15

> <PUBCHEM_ATOM_DEF_STEREO_COUNT>
5

> <PUBCHEM_ATOM_UDEF_STEREO_COUNT>
0

> <PUBCHEM_BOND_DEF_STEREO_COUNT>
0

> <PUBCHEM_BOND_UDEF_STEREO_COUNT>
0

> <PUBCHEM_ISOTOPIC_ATOM_COUNT>
0

> <PUBCHEM_COMPONENT_COUNT>
1

> <PUBCHEM_CACTVS_TAUTO_COUNT>
1

> <PUBCHEM_CONFORMER_ID>
000025EF00000001

> <PUBCHEM_MMFF94_ENERGY>
39.8216

> <PUBCHEM_FEATURE_SELFOVERLAP>
55.84

> <PUBCHEM_SHAPE_FINGERPRINT>
10989021 7 18337393716922454725
11132069 177 18261398883404009232
11680986 33 17980480057840190875
12716758 59 18192152818055571162
13024252 1 17774992522887866751
14614273 12 17770789210146724837
15490181 7 17760927741870220923
15775835 57 17632008766858134182
16945 1 18337397161370064604
17134986 127 17260463094612165684
193761 8 17979354153659408475
19868273 325 18411132511631442606
20510252 161 18337109081039724872
20871999 31 18411702092861472973
21501502 16 18265610979306149677
21524375 3 17477200995431938200
22802520 49 18042401516185375494
23402539 116 18336842964681578382
23419403 2 17178338036970794649
23557571 272 18260542342566346678
23559900 14 18335143141944718542
23598294 1 18343016696849553578
2748010 2 18194412095090658225
305870 269 17621886813136884914
3071541 250 18266171730267873141
3250762 1 17693938492820502659
353137 74 18196654218385295092
7364860 26 17903919959154305929
81228 2 18336260223534395650

> <PUBCHEM_SHAPE_MULTIPOLES>
283.2
5.04
2.85
1.01
4.08
1.67
0.05
-1.05
-0.72
-1.45
0.06
0.59
-0.15
-0.14

> <PUBCHEM_SHAPE_SELFOVERLAP>
543.527

> <PUBCHEM_SHAPE_VOLUME>
174.2

> <PUBCHEM_COORDINATE_TYPE>
2
5
10

$$$$

