47205590
  -OEChem-06241222592D

 37 38  0     1  0  0  0  0  0999 V2000
    6.1808    2.6682    0.0000 S   0  0  0  0  0  0  0  0  0  0  0  0
    2.8660   -2.6682    0.0000 S   0  0  0  0  0  0  0  0  0  0  0  0
    7.0468    3.1682    0.0000 O   0  0  0  0  0  0  0  0  0  0  0  0
    6.9239    1.9991    0.0000 O   0  0  0  0  0  0  0  0  0  0  0  0
    2.3660   -3.5342    0.0000 O   0  0  0  0  0  0  0  0  0  0  0  0
    3.3660   -3.5342    0.0000 O   0  0  0  0  0  0  0  0  0  0  0  0
    4.5981    0.3318    0.0000 O   0  0  0  0  0  0  0  0  0  0  0  0
    2.8660   -0.6682    0.0000 N   0  0  0  0  0  0  0  0  0  0  0  0
    3.7320    1.8318    0.0000 N   0  0  0  0  0  0  0  0  0  0  0  0
    4.5981    2.3318    0.0000 C   0  0  3  0  0  0  0  0  0  0  0  0
    5.5116    1.9251    0.0000 C   0  0  0  0  0  0  0  0  0  0  0  0
    4.7026    3.3263    0.0000 C   0  0  0  0  0  0  0  0  0  0  0  0
    5.6808    3.5342    0.0000 C   0  0  0  0  0  0  0  0  0  0  0  0
    3.7320   -1.1682    0.0000 C   0  0  0  0  0  0  0  0  0  0  0  0
    2.0000   -1.1682    0.0000 C   0  0  0  0  0  0  0  0  0  0  0  0
    2.0000   -2.1682    0.0000 C   0  0  0  0  0  0  0  0  0  0  0  0
    3.7320   -2.1682    0.0000 C   0  0  0  0  0  0  0  0  0  0  0  0
    2.8660    0.3318    0.0000 C   0  0  0  0  0  0  0  0  0  0  0  0
    3.7320    0.8318    0.0000 C   0  0  0  0  0  0  0  0  0  0  0  0
    4.0781    2.6695    0.0000 H   0  0  0  0  0  0  0  0  0  0  0  0
    5.2016    1.3881    0.0000 H   0  0  0  0  0  0  0  0  0  0  0  0
    6.0132    1.5606    0.0000 H   0  0  0  0  0  0  0  0  0  0  0  0
    4.6378    3.9429    0.0000 H   0  0  0  0  0  0  0  0  0  0  0  0
    4.0826    3.3263    0.0000 H   0  0  0  0  0  0  0  0  0  0  0  0
    6.2472    3.7864    0.0000 H   0  0  0  0  0  0  0  0  0  0  0  0
    5.4892    4.1239    0.0000 H   0  0  0  0  0  0  0  0  0  0  0  0
    1.7880   -0.5856    0.0000 H   0  0  0  0  0  0  0  0  0  0  0  0
    1.3894   -1.2759    0.0000 H   0  0  0  0  0  0  0  0  0  0  0  0
    4.3426   -1.2759    0.0000 H   0  0  0  0  0  0  0  0  0  0  0  0
    3.9441   -0.5856    0.0000 H   0  0  0  0  0  0  0  0  0  0  0  0
    3.1951    2.1418    0.0000 H   0  0  0  0  0  0  0  0  0  0  0  0
    3.9441   -2.7508    0.0000 H   0  0  0  0  0  0  0  0  0  0  0  0
    4.3426   -2.0605    0.0000 H   0  0  0  0  0  0  0  0  0  0  0  0
    1.3894   -2.0605    0.0000 H   0  0  0  0  0  0  0  0  0  0  0  0
    1.7880   -2.7508    0.0000 H   0  0  0  0  0  0  0  0  0  0  0  0
    2.6540    0.9144    0.0000 H   0  0  0  0  0  0  0  0  0  0  0  0
    2.2554    0.2241    0.0000 H   0  0  0  0  0  0  0  0  0  0  0  0
  1  3  2  0  0  0  0
  1  4  2  0  0  0  0
  1 11  1  0  0  0  0
  1 13  1  0  0  0  0
  2  5  2  0  0  0  0
  2  6  2  0  0  0  0
  2 16  1  0  0  0  0
  2 17  1  0  0  0  0
  7 19  2  0  0  0  0
  8 14  1  0  0  0  0
  8 15  1  0  0  0  0
  8 18  1  0  0  0  0
  9 10  1  0  0  0  0
  9 19  1  0  0  0  0
  9 31  1  0  0  0  0
 10 11  1  0  0  0  0
 10 12  1  0  0  0  0
 10 20  1  0  0  0  0
 11 21  1  0  0  0  0
 11 22  1  0  0  0  0
 12 13  1  0  0  0  0
 12 23  1  0  0  0  0
 12 24  1  0  0  0  0
 13 25  1  0  0  0  0
 13 26  1  0  0  0  0
 14 17  1  0  0  0  0
 14 29  1  0  0  0  0
 14 30  1  0  0  0  0
 15 16  1  0  0  0  0
 15 27  1  0  0  0  0
 15 28  1  0  0  0  0
 16 34  1  0  0  0  0
 16 35  1  0  0  0  0
 17 32  1  0  0  0  0
 17 33  1  0  0  0  0
 18 19  1  0  0  0  0
 18 36  1  0  0  0  0
 18 37  1  0  0  0  0
M  END
> <PUBCHEM_COMPOUND_CID>
47205590

> <PUBCHEM_COMPOUND_CANONICALIZED>
1

> <PUBCHEM_CACTVS_COMPLEXITY>
529

> <PUBCHEM_CACTVS_HBOND_ACCEPTOR>
6

> <PUBCHEM_CACTVS_HBOND_DONOR>
1

> <PUBCHEM_CACTVS_ROTATABLE_BOND>
3

> <PUBCHEM_CACTVS_SUBSKEYS>
AAADceBzOABgAAAAAAAAAAAAAAAAASAAAAAsAAAAAAAAAAAAAAAAHgQQAAAACCjFwASAAAPAAAoIAAEQEHBAAAAAABAAAICIAAAAQAAgACAUAAAAFgCgAAAAAAAAAAAAAAAAAAAAAAAAAAAAAAAAAAAAAA==

> <PUBCHEM_IUPAC_OPENEYE_NAME>
2-(1,1-dioxo-1,4-thiazinan-4-yl)-N-(1,1-dioxothiolan-3-yl)acetamide

> <PUBCHEM_IUPAC_CAS_NAME>
2-(1,1-dioxo-1,4-thiazinan-4-yl)-N-(1,1-dioxo-3-thiolanyl)acetamide

> <PUBCHEM_IUPAC_NAME>
2-(1,1-dioxo-1,4-thiazinan-4-yl)-N-(1,1-dioxothiolan-3-yl)acetamide

> <PUBCHEM_IUPAC_SYSTEMATIC_NAME>
2-[1,1-bis(oxidanylidene)-1,4-thiazinan-4-yl]-N-[1,1-bis(oxidanylidene)thiolan-3-yl]ethanamide

> <PUBCHEM_IUPAC_TRADITIONAL_NAME>
2-(1,1-diketo-1,4-thiazinan-4-yl)-N-(1,1-diketothiolan-3-yl)acetamide

> <PUBCHEM_IUPAC_INCHI>
InChI=1S/C10H18N2O5S2/c13-10(11-9-1-4-19(16,17)8-9)7-12-2-5-18(14,15)6-3-12/h9H,1-8H2,(H,11,13)

> <PUBCHEM_IUPAC_INCHIKEY>
OONFGBNWXMYERV-UHFFFAOYSA-N

> <PUBCHEM_XLOGP3_AA>
-1.7

> <PUBCHEM_EXACT_MASS>
310.065714

> <PUBCHEM_MOLECULAR_FORMULA>
C10H18N2O5S2

> <PUBCHEM_MOLECULAR_WEIGHT>
310.39032

> <PUBCHEM_OPENEYE_CAN_SMILES>
C1CS(=O)(=O)CC1NC(=O)CN2CCS(=O)(=O)CC2

> <PUBCHEM_OPENEYE_ISO_SMILES>
C1CS(=O)(=O)CC1NC(=O)CN2CCS(=O)(=O)CC2

> <PUBCHEM_CACTVS_TPSA>
117

> <PUBCHEM_MONOISOTOPIC_WEIGHT>
310.065714

> <PUBCHEM_TOTAL_CHARGE>
0

> <PUBCHEM_HEAVY_ATOM_COUNT>
19

> <PUBCHEM_ATOM_DEF_STEREO_COUNT>
0

> <PUBCHEM_ATOM_UDEF_STEREO_COUNT>
1

> <PUBCHEM_BOND_DEF_STEREO_COUNT>
0

> <PUBCHEM_BOND_UDEF_STEREO_COUNT>
0

> <PUBCHEM_ISOTOPIC_ATOM_COUNT>
0

> <PUBCHEM_COMPONENT_COUNT>
1

> <PUBCHEM_CACTVS_TAUTO_COUNT>
2

> <PUBCHEM_COORDINATE_TYPE>
1
5
255

> <PUBCHEM_BONDANNOTATIONS>
10  9  3

$$$$

