4665
  -OEChem-06261200162D

 39 42  0     0  0  0  0  0  0999 V2000
    2.0000    4.3874    0.0000 Cl  0  0  0  0  0  0  0  0  0  0  0  0
    4.8511   -4.3874    0.0000 F   0  0  0  0  0  0  0  0  0  0  0  0
    3.0911   -0.1087    0.0000 O   0  0  0  0  0  0  0  0  0  0  0  0
    4.3511    1.1514    0.0000 N   0  0  0  0  0  0  0  0  0  0  0  0
    5.3511    1.1514    0.0000 N   0  0  0  0  0  0  0  0  0  0  0  0
    8.5133   -0.7267    0.0000 N   0  0  0  0  0  0  0  0  0  0  0  0
    4.8511   -0.3875    0.0000 C   0  0  0  0  0  0  0  0  0  0  0  0
    5.6602    0.2003    0.0000 C   0  0  0  0  0  0  0  0  0  0  0  0
    4.0421    0.2003    0.0000 C   0  0  0  0  0  0  0  0  0  0  0  0
    4.8511   -1.3874    0.0000 C   0  0  0  0  0  0  0  0  0  0  0  0
    6.6112   -0.1087    0.0000 C   0  0  0  0  0  0  0  0  0  0  0  0
    3.7634    1.9604    0.0000 C   0  0  0  0  0  0  0  0  0  0  0  0
    3.9851   -1.8874    0.0000 C   0  0  0  0  0  0  0  0  0  0  0  0
    5.7172   -1.8874    0.0000 C   0  0  0  0  0  0  0  0  0  0  0  0
    4.1701    2.8739    0.0000 C   0  0  0  0  0  0  0  0  0  0  0  0
    2.7688    1.8559    0.0000 C   0  0  0  0  0  0  0  0  0  0  0  0
    7.3544    0.5604    0.0000 C   0  0  0  0  0  0  0  0  0  0  0  0
    6.8191   -1.0868    0.0000 C   0  0  0  0  0  0  0  0  0  0  0  0
    3.9851   -2.8874    0.0000 C   0  0  0  0  0  0  0  0  0  0  0  0
    5.7172   -2.8874    0.0000 C   0  0  0  0  0  0  0  0  0  0  0  0
    3.5823    3.6830    0.0000 C   0  0  0  0  0  0  0  0  0  0  0  0
    2.1810    2.6649    0.0000 C   0  0  0  0  0  0  0  0  0  0  0  0
    4.8511   -3.3874    0.0000 C   0  0  0  0  0  0  0  0  0  0  0  0
    2.5878    3.5784    0.0000 C   0  0  0  0  0  0  0  0  0  0  0  0
    8.3054    0.2514    0.0000 C   0  0  0  0  0  0  0  0  0  0  0  0
    7.7702   -1.3958    0.0000 C   0  0  0  0  0  0  0  0  0  0  0  0
    5.7156    1.6530    0.0000 H   0  0  0  0  0  0  0  0  0  0  0  0
    3.4482   -1.5774    0.0000 H   0  0  0  0  0  0  0  0  0  0  0  0
    6.2541   -1.5774    0.0000 H   0  0  0  0  0  0  0  0  0  0  0  0
    4.7867    2.9388    0.0000 H   0  0  0  0  0  0  0  0  0  0  0  0
    2.5167    1.2895    0.0000 H   0  0  0  0  0  0  0  0  0  0  0  0
    7.2254    1.1669    0.0000 H   0  0  0  0  0  0  0  0  0  0  0  0
    6.3584   -1.5017    0.0000 H   0  0  0  0  0  0  0  0  0  0  0  0
    3.4482   -3.1974    0.0000 H   0  0  0  0  0  0  0  0  0  0  0  0
    6.2541   -3.1974    0.0000 H   0  0  0  0  0  0  0  0  0  0  0  0
    3.8345    4.2494    0.0000 H   0  0  0  0  0  0  0  0  0  0  0  0
    1.5644    2.6001    0.0000 H   0  0  0  0  0  0  0  0  0  0  0  0
    8.7662    0.6663    0.0000 H   0  0  0  0  0  0  0  0  0  0  0  0
    7.8991   -2.0023    0.0000 H   0  0  0  0  0  0  0  0  0  0  0  0
  1 24  1  0  0  0  0
  2 23  1  0  0  0  0
  3  9  2  0  0  0  0
  4  5  1  0  0  0  0
  4  9  1  0  0  0  0
  4 12  1  0  0  0  0
  5  8  1  0  0  0  0
  5 27  1  0  0  0  0
  6 25  2  0  0  0  0
  6 26  1  0  0  0  0
  7  8  2  0  0  0  0
  7  9  1  0  0  0  0
  7 10  1  0  0  0  0
  8 11  1  0  0  0  0
 10 13  2  0  0  0  0
 10 14  1  0  0  0  0
 11 17  2  0  0  0  0
 11 18  1  0  0  0  0
 12 15  2  0  0  0  0
 12 16  1  0  0  0  0
 13 19  1  0  0  0  0
 13 28  1  0  0  0  0
 14 20  2  0  0  0  0
 14 29  1  0  0  0  0
 15 21  1  0  0  0  0
 15 30  1  0  0  0  0
 16 22  2  0  0  0  0
 16 31  1  0  0  0  0
 17 25  1  0  0  0  0
 17 32  1  0  0  0  0
 18 26  2  0  0  0  0
 18 33  1  0  0  0  0
 19 23  2  0  0  0  0
 19 34  1  0  0  0  0
 20 23  1  0  0  0  0
 20 35  1  0  0  0  0
 21 24  2  0  0  0  0
 21 36  1  0  0  0  0
 22 24  1  0  0  0  0
 22 37  1  0  0  0  0
 25 38  1  0  0  0  0
 26 39  1  0  0  0  0
M  END
> <PUBCHEM_COMPOUND_CID>
4665

> <PUBCHEM_COMPOUND_CANONICALIZED>
1

> <PUBCHEM_CACTVS_COMPLEXITY>
547

> <PUBCHEM_CACTVS_HBOND_ACCEPTOR>
4

> <PUBCHEM_CACTVS_HBOND_DONOR>
1

> <PUBCHEM_CACTVS_ROTATABLE_BOND>
3

> <PUBCHEM_CACTVS_SUBSKEYS>
AAADccB7IQAEAAAAAAAAAAAAAAAAAQAAAAA8YIAAAAAAAAAB0AAAHwIYAAAADArBmiw8wJJqEACoAjV3VACChCAxByAa+CE4ZtgIIHLBl5GEIAhghADIyUcYiICOAABAAAAAAAAAAIAAAAAAAAAAAAAAAA==

> <PUBCHEM_IUPAC_OPENEYE_NAME>
2-(4-chlorophenyl)-4-(4-fluorophenyl)-5-(4-pyridyl)-1H-pyrazol-3-one

> <PUBCHEM_IUPAC_CAS_NAME>
2-(4-chlorophenyl)-4-(4-fluorophenyl)-5-pyridin-4-yl-1H-pyrazol-3-one

> <PUBCHEM_IUPAC_NAME>
2-(4-chlorophenyl)-4-(4-fluorophenyl)-5-pyridin-4-yl-1H-pyrazol-3-one

> <PUBCHEM_IUPAC_SYSTEMATIC_NAME>
2-(4-chlorophenyl)-4-(4-fluorophenyl)-5-pyridin-4-yl-1H-pyrazol-3-one

> <PUBCHEM_IUPAC_TRADITIONAL_NAME>
2-(4-chlorophenyl)-4-(4-fluorophenyl)-5-(4-pyridyl)-3-pyrazolin-3-one

> <PUBCHEM_IUPAC_INCHI>
InChI=1S/C20H13ClFN3O/c21-15-3-7-17(8-4-15)25-20(26)18(13-1-5-16(22)6-2-13)19(24-25)14-9-11-23-12-10-14/h1-12,24H

> <PUBCHEM_IUPAC_INCHIKEY>
DZFBYHUKZSRPHU-UHFFFAOYSA-N

> <PUBCHEM_XLOGP3_AA>
4.4

> <PUBCHEM_EXACT_MASS>
365.073118

> <PUBCHEM_MOLECULAR_FORMULA>
C20H13ClFN3O

> <PUBCHEM_MOLECULAR_WEIGHT>
365.788123

> <PUBCHEM_OPENEYE_CAN_SMILES>
C1=CC(=CC=C1C2=C(NN(C2=O)C3=CC=C(C=C3)Cl)C4=CC=NC=C4)F

> <PUBCHEM_OPENEYE_ISO_SMILES>
C1=CC(=CC=C1C2=C(NN(C2=O)C3=CC=C(C=C3)Cl)C4=CC=NC=C4)F

> <PUBCHEM_CACTVS_TPSA>
45.2

> <PUBCHEM_MONOISOTOPIC_WEIGHT>
365.073118

> <PUBCHEM_TOTAL_CHARGE>
0

> <PUBCHEM_HEAVY_ATOM_COUNT>
26

> <PUBCHEM_ATOM_DEF_STEREO_COUNT>
0

> <PUBCHEM_ATOM_UDEF_STEREO_COUNT>
0

> <PUBCHEM_BOND_DEF_STEREO_COUNT>
0

> <PUBCHEM_BOND_UDEF_STEREO_COUNT>
0

> <PUBCHEM_ISOTOPIC_ATOM_COUNT>
0

> <PUBCHEM_COMPONENT_COUNT>
1

> <PUBCHEM_CACTVS_TAUTO_COUNT>
3

> <PUBCHEM_COORDINATE_TYPE>
1
5
255

> <PUBCHEM_BONDANNOTATIONS>
10  13  8
10  14  8
11  17  8
11  18  8
12  15  8
12  16  8
13  19  8
14  20  8
15  21  8
16  22  8
17  25  8
18  26  8
19  23  8
20  23  8
21  24  8
22  24  8
4  5  8
4  9  8
5  8  8
6  25  8
6  26  8
7  8  8
7  9  8

$$$$

