12363
  -OEChem-06261206522D

 19 19  0     0  0  0  0  0  0999 V2000
    4.1906    0.0000    0.0000 C   0  0  0  0  0  0  0  0  0  0  0  0
    3.7568   -0.9010    0.0000 C   0  0  0  0  0  0  0  0  0  0  0  0
    3.7568    0.9010    0.0000 C   0  0  0  0  0  0  0  0  0  0  0  0
    2.7818   -1.1235    0.0000 C   0  0  0  0  0  0  0  0  0  0  0  0
    2.7818    1.1235    0.0000 C   0  0  0  0  0  0  0  0  0  0  0  0
    2.0000   -0.5000    0.0000 C   0  0  0  0  0  0  0  0  0  0  0  0
    2.0000    0.5000    0.0000 C   0  0  0  0  0  0  0  0  0  0  0  0
    4.6754   -0.3866    0.0000 H   0  0  0  0  0  0  0  0  0  0  0  0
    4.6754    0.3866    0.0000 H   0  0  0  0  0  0  0  0  0  0  0  0
    3.7568   -1.5210    0.0000 H   0  0  0  0  0  0  0  0  0  0  0  0
    4.3612   -1.0389    0.0000 H   0  0  0  0  0  0  0  0  0  0  0  0
    4.3612    1.0389    0.0000 H   0  0  0  0  0  0  0  0  0  0  0  0
    3.7568    1.5210    0.0000 H   0  0  0  0  0  0  0  0  0  0  0  0
    2.2971   -1.5100    0.0000 H   0  0  0  0  0  0  0  0  0  0  0  0
    3.0508   -1.6821    0.0000 H   0  0  0  0  0  0  0  0  0  0  0  0
    3.0508    1.6821    0.0000 H   0  0  0  0  0  0  0  0  0  0  0  0
    2.2971    1.5100    0.0000 H   0  0  0  0  0  0  0  0  0  0  0  0
    1.4414    0.7690    0.0000 H   0  0  0  0  0  0  0  0  0  0  0  0
    1.4414   -0.7690    0.0000 H   0  0  0  0  0  0  0  0  0  0  0  0
  1  2  1  0  0  0  0
  1  3  1  0  0  0  0
  1  8  1  0  0  0  0
  1  9  1  0  0  0  0
  2  4  1  0  0  0  0
  2 10  1  0  0  0  0
  2 11  1  0  0  0  0
  3  5  1  0  0  0  0
  3 12  1  0  0  0  0
  3 13  1  0  0  0  0
  4  6  1  0  0  0  0
  4 14  1  0  0  0  0
  4 15  1  0  0  0  0
  5  7  1  0  0  0  0
  5 16  1  0  0  0  0
  5 17  1  0  0  0  0
  6  7  2  0  0  0  0
  6 19  1  0  0  0  0
  7 18  1  0  0  0  0
M  END
> <PUBCHEM_COMPOUND_CID>
12363

> <PUBCHEM_COMPOUND_CANONICALIZED>
1

> <PUBCHEM_CACTVS_COMPLEXITY>
54.4

> <PUBCHEM_CACTVS_HBOND_ACCEPTOR>
0

> <PUBCHEM_CACTVS_HBOND_DONOR>
0

> <PUBCHEM_CACTVS_ROTATABLE_BOND>
0

> <PUBCHEM_CACTVS_SUBSKEYS>
AAADccBgAAAAAAAAAAAAAAAAAAAAAAAAAAAAAAAABAAAAAAAAAAAGAAAAAAACACAAAAAAAAAAACAACBCAAAAAAAgAAAICAAAAAgAAAIAAQAAAAAAgAAIAAMAgAAAAAAAAAAAAAAAAAAAAAAAAAAAAAAAAA==

> <PUBCHEM_IUPAC_OPENEYE_NAME>
cycloheptene

> <PUBCHEM_IUPAC_CAS_NAME>
cycloheptene

> <PUBCHEM_IUPAC_NAME>
cycloheptene

> <PUBCHEM_IUPAC_SYSTEMATIC_NAME>
cycloheptene

> <PUBCHEM_IUPAC_TRADITIONAL_NAME>
cycloheptene

> <PUBCHEM_IUPAC_INCHI>
InChI=1S/C7H12/c1-2-4-6-7-5-3-1/h1-2H,3-7H2

> <PUBCHEM_IUPAC_INCHIKEY>
ZXIJMRYMVAMXQP-UHFFFAOYSA-N

> <PUBCHEM_XLOGP3>
3.4

> <PUBCHEM_EXACT_MASS>
96.0939

> <PUBCHEM_MOLECULAR_FORMULA>
C7H12

> <PUBCHEM_MOLECULAR_WEIGHT>
96.17018

> <PUBCHEM_OPENEYE_CAN_SMILES>
C1CCC=CCC1

> <PUBCHEM_OPENEYE_ISO_SMILES>
C1CCC=CCC1

> <PUBCHEM_CACTVS_TPSA>
0

> <PUBCHEM_MONOISOTOPIC_WEIGHT>
96.0939

> <PUBCHEM_TOTAL_CHARGE>
0

> <PUBCHEM_HEAVY_ATOM_COUNT>
7

> <PUBCHEM_ATOM_DEF_STEREO_COUNT>
0

> <PUBCHEM_ATOM_UDEF_STEREO_COUNT>
0

> <PUBCHEM_BOND_DEF_STEREO_COUNT>
0

> <PUBCHEM_BOND_UDEF_STEREO_COUNT>
0

> <PUBCHEM_ISOTOPIC_ATOM_COUNT>
0

> <PUBCHEM_COMPONENT_COUNT>
1

> <PUBCHEM_CACTVS_TAUTO_COUNT>
1

> <PUBCHEM_COORDINATE_TYPE>
1
5
255

$$$$

