11441
  -OEChem-06261205403D

 16 16  0     0  0  0  0  0  0999 V2000
   -2.9472   -1.8805    0.0005 Br  0  0  0  0  0  0  0  0  0  0  0  0
   -1.7833    2.3917   -0.0002 O   0  5  0  0  0  0  0  0  0  0  0  0
   -3.2237    0.7351   -0.0001 O   0  0  0  0  0  0  0  0  0  0  0  0
    3.6972   -0.4607    0.0005 O   0  5  0  0  0  0  0  0  0  0  0  0
    2.9186    1.5917   -0.0001 O   0  0  0  0  0  0  0  0  0  0  0  0
   -2.0472    1.1666    0.0001 N   0  3  0  0  0  0  0  0  0  0  0  0
    2.7394    0.3499    0.0002 N   0  3  0  0  0  0  0  0  0  0  0  0
   -0.9731    0.2327    0.0003 C   0  0  0  0  0  0  0  0  0  0  0  0
    1.4117   -0.1539   -0.0004 C   0  0  0  0  0  0  0  0  0  0  0  0
    0.3309    0.7279    0.0000 C   0  0  0  0  0  0  0  0  0  0  0  0
   -1.1963   -1.1441    0.0000 C   0  0  0  0  0  0  0  0  0  0  0  0
    1.1886   -1.5307   -0.0005 C   0  0  0  0  0  0  0  0  0  0  0  0
   -0.1155   -2.0258   -0.0004 C   0  0  0  0  0  0  0  0  0  0  0  0
    0.5125    1.8001    0.0003 H   0  0  0  0  0  0  0  0  0  0  0  0
    2.0061   -2.2472   -0.0006 H   0  0  0  0  0  0  0  0  0  0  0  0
   -0.2694   -3.1020   -0.0005 H   0  0  0  0  0  0  0  0  0  0  0  0
  1 11  1  0  0  0  0
  2  6  1  0  0  0  0
  3  6  2  0  0  0  0
  4  7  1  0  0  0  0
  5  7  2  0  0  0  0
  6  8  1  0  0  0  0
  7  9  1  0  0  0  0
  8 10  1  0  0  0  0
  8 11  2  0  0  0  0
  9 10  2  0  0  0  0
  9 12  1  0  0  0  0
 10 14  1  0  0  0  0
 11 13  1  0  0  0  0
 12 13  2  0  0  0  0
 12 15  1  0  0  0  0
 13 16  1  0  0  0  0
M  CHG  4   2  -1   4  -1   6   1   7   1
M  END
> <PUBCHEM_COMPOUND_CID>
11441

> <PUBCHEM_CONFORMER_RMSD>
0.6

> <PUBCHEM_CONFORMER_DIVERSEORDER>
1

> <PUBCHEM_MMFF94_PARTIAL_CHARGES>
16
1 -0.11
10 -0.15
11 0.11
12 -0.15
13 -0.15
14 0.15
15 0.15
16 0.15
2 -0.52
3 -0.52
4 -0.52
5 -0.52
6 0.91
7 0.91
8 0.13
9 0.13

> <PUBCHEM_EFFECTIVE_ROTOR_COUNT>
2

> <PUBCHEM_PHARMACOPHORE_FEATURES>
8
1 1 hydrophobe
1 2 acceptor
1 2 anion
1 3 acceptor
1 4 acceptor
1 4 anion
1 5 acceptor
6 8 9 10 11 12 13 rings

> <PUBCHEM_HEAVY_ATOM_COUNT>
13

> <PUBCHEM_ATOM_DEF_STEREO_COUNT>
0

> <PUBCHEM_ATOM_UDEF_STEREO_COUNT>
0

> <PUBCHEM_BOND_DEF_STEREO_COUNT>
0

> <PUBCHEM_BOND_UDEF_STEREO_COUNT>
0

> <PUBCHEM_ISOTOPIC_ATOM_COUNT>
0

> <PUBCHEM_COMPONENT_COUNT>
1

> <PUBCHEM_CACTVS_TAUTO_COUNT>
1

> <PUBCHEM_CONFORMER_ID>
00002CB100000001

> <PUBCHEM_MMFF94_ENERGY>
50.5149

> <PUBCHEM_FEATURE_SELFOVERLAP>
40.758

> <PUBCHEM_SHAPE_FINGERPRINT>
10608611 8 18408605855317272824
10967382 1 18266741461811000935
11132069 177 18408326562062421563
11206711 2 18410294666448932975
12032990 46 18195804077012415395
13380535 21 18336252552649276383
13380535 76 18338238270654360071
14325111 11 18410573963935090500
14614273 12 18272661168386122279
15775835 57 18411132571423433016
16945 1 18266740375284748679
193761 8 18266741470533369479
20510252 161 18334574586246411112
20871998 184 18260825947773184519
21040471 1 18338516468433620454
21501502 16 18411422851136270251
23402539 116 18190752946189974359
23402655 69 18263659497329258877
23463225 33 18342461464983861818
23552423 10 18342738541655780334
23559900 14 18260263084700005030
2748010 2 18337673022761228903
5084963 1 18114741538540238002
528886 8 18410299141625461602
53812653 166 18333735727498890674
6333449 129 18408887325998944727
7364860 26 18119810467496378190

> <PUBCHEM_SHAPE_MULTIPOLES>
240.04
5.01
2.29
0.59
1.92
0.41
0
0.15
0
-1.25
0
-0.06
-0.07
0

> <PUBCHEM_SHAPE_SELFOVERLAP>
494.706

> <PUBCHEM_SHAPE_VOLUME>
142.2

> <PUBCHEM_COORDINATE_TYPE>
2
5
10

$$$$

