7322
  -OEChem-06261202003D

 20 20  0     0  0  0  0  0  0999 V2000
    2.7235   -0.3632    0.0423 S   0  0  0  0  0  0  0  0  0  0  0  0
    3.1463   -0.4491   -1.5347 O   0  0  0  0  0  0  0  0  0  0  0  0
   -2.7947    1.7211    0.0561 O   0  0  0  0  0  0  0  0  0  0  0  0
    3.5795    0.6409    0.6571 O   0  0  0  0  0  0  0  0  0  0  0  0
    2.6716   -1.7176    0.5703 O   0  0  0  0  0  0  0  0  0  0  0  0
   -2.1011   -2.2833    0.5312 O   0  0  0  0  0  0  0  0  0  0  0  0
   -3.5065   -0.8705   -0.5621 O   0  0  0  0  0  0  0  0  0  0  0  0
    1.0876    0.2473    0.0458 C   0  0  0  0  0  0  0  0  0  0  0  0
    0.0116   -0.6390   -0.0043 C   0  0  0  0  0  0  0  0  0  0  0  0
   -1.2950   -0.1505   -0.0013 C   0  0  0  0  0  0  0  0  0  0  0  0
    0.8568    1.6220    0.0989 C   0  0  0  0  0  0  0  0  0  0  0  0
   -1.5256    1.2242    0.0519 C   0  0  0  0  0  0  0  0  0  0  0  0
   -0.4497    2.1105    0.1020 C   0  0  0  0  0  0  0  0  0  0  0  0
   -2.4043   -1.0928   -0.0532 C   0  0  0  0  0  0  0  0  0  0  0  0
    0.1992   -1.7077   -0.0680 H   0  0  0  0  0  0  0  0  0  0  0  0
    1.6792    2.3311    0.1313 H   0  0  0  0  0  0  0  0  0  0  0  0
   -0.6225    3.1825    0.1420 H   0  0  0  0  0  0  0  0  0  0  0  0
    3.1513    0.4103   -2.0184 H   0  0  0  0  0  0  0  0  0  0  0  0
   -3.4445    1.0007    0.0668 H   0  0  0  0  0  0  0  0  0  0  0  0
   -2.8531   -2.9119    0.4909 H   0  0  0  0  0  0  0  0  0  0  0  0
  1  2  1  0  0  0  0
  1  4  2  0  0  0  0
  1  5  2  0  0  0  0
  1  8  1  0  0  0  0
  2 18  1  0  0  0  0
  3 12  1  0  0  0  0
  3 19  1  0  0  0  0
  6 14  1  0  0  0  0
  6 20  1  0  0  0  0
  7 14  2  0  0  0  0
  8  9  2  0  0  0  0
  8 11  1  0  0  0  0
  9 10  1  0  0  0  0
  9 15  1  0  0  0  0
 10 12  2  0  0  0  0
 10 14  1  0  0  0  0
 11 13  2  0  0  0  0
 11 16  1  0  0  0  0
 12 13  1  0  0  0  0
 13 17  1  0  0  0  0
M  END
> <PUBCHEM_COMPOUND_CID>
7322

> <PUBCHEM_CONFORMER_RMSD>
0.6

> <PUBCHEM_CONFORMER_DIVERSEORDER>
1
2

> <PUBCHEM_MMFF94_PARTIAL_CHARGES>
20
1 1.49
10 0.09
11 -0.15
12 0.08
13 -0.15
14 0.63
15 0.15
16 0.15
17 0.15
18 0.5
19 0.45
2 -0.68
20 0.5
3 -0.53
4 -0.65
5 -0.65
6 -0.65
7 -0.57
8 -0.01
9 -0.15

> <PUBCHEM_EFFECTIVE_ROTOR_COUNT>
2

> <PUBCHEM_PHARMACOPHORE_FEATURES>
9
1 2 acceptor
1 3 donor
1 4 acceptor
1 5 acceptor
1 6 acceptor
1 7 acceptor
3 6 7 14 anion
4 1 2 4 5 anion
6 8 9 10 11 12 13 rings

> <PUBCHEM_HEAVY_ATOM_COUNT>
14

> <PUBCHEM_ATOM_DEF_STEREO_COUNT>
0

> <PUBCHEM_ATOM_UDEF_STEREO_COUNT>
0

> <PUBCHEM_BOND_DEF_STEREO_COUNT>
0

> <PUBCHEM_BOND_UDEF_STEREO_COUNT>
0

> <PUBCHEM_ISOTOPIC_ATOM_COUNT>
0

> <PUBCHEM_COMPONENT_COUNT>
1

> <PUBCHEM_CACTVS_TAUTO_COUNT>
4

> <PUBCHEM_CONFORMER_ID>
00001C9A00000001

> <PUBCHEM_MMFF94_ENERGY>
30.408

> <PUBCHEM_FEATURE_SELFOVERLAP>
45.784

> <PUBCHEM_SHAPE_FINGERPRINT>
11206711 2 18413673517352513021
12716758 59 18265893746994000992
12932764 1 18340195401557250456
13296908 3 18114179752723167108
14144814 61 18411983576317413059
14252887 29 18042394755801453778
15219456 202 17894348899882412988
16945 1 18342452612734303529
20201158 50 18341056207144697610
20645476 183 17915437583936277846
20645477 70 18047194042864008311
20715346 28 17894349982029477276
20871998 184 18186523215273097821
20871998 22 18262228928662386262
21501502 16 18410295847559612344
22802520 49 17969773279907462766
2334 1 18337390435419974801
23463225 33 18412265077016298592
23552423 10 18271520892812536316
23557571 272 18261107483143116164
23559900 14 18263365940530461726
2748010 2 18335989674796619869
3248919 1 17346873460061858354
3312278 4 18341894065222626434
7364860 26 18045220431875905072
8030462 33 18273207621317535166
81228 2 18338509837078228561
8809292 202 18337387274577077130

> <PUBCHEM_SHAPE_MULTIPOLES>
256.75
5.36
2.13
0.8
1.53
0.18
-0.18
-1.59
-0.38
-1.05
0.29
0.47
-0.13
0.09

> <PUBCHEM_SHAPE_SELFOVERLAP>
532.437

> <PUBCHEM_SHAPE_VOLUME>
146.8

> <PUBCHEM_COORDINATE_TYPE>
2
5
10

$$$$

