3699
  -OEChem-06251223363D

 36 36  0     0  0  0  0  0  0999 V2000
   -1.8253   -1.4892   -0.0532 P   0  0  0  0  0  0  0  0  0  0  0  0
   -1.7082    1.7007    0.0222 P   0  0  0  0  0  0  0  0  0  0  0  0
   -3.1585   -1.4176   -0.9648 O   0  0  0  0  0  0  0  0  0  0  0  0
   -2.4173   -1.3107    1.4420 O   0  0  0  0  0  0  0  0  0  0  0  0
   -0.5318    2.7126   -0.4331 O   0  0  0  0  0  0  0  0  0  0  0  0
   -2.8253    1.8989   -1.1300 O   0  0  0  0  0  0  0  0  0  0  0  0
   -0.9794   -2.7136   -0.2429 O   0  0  0  0  0  0  0  0  0  0  0  0
   -2.1915    1.8946    1.4292 O   0  0  0  0  0  0  0  0  0  0  0  0
    0.0878    0.0992    0.6274 N   0  0  0  0  0  0  0  0  0  0  0  0
    1.0296   -1.0089    0.4881 C   0  0  0  0  0  0  0  0  0  0  0  0
    2.2542   -0.8793    1.4026 C   0  0  0  0  0  0  0  0  0  0  0  0
    1.4009   -1.2766   -0.9765 C   0  0  0  0  0  0  0  0  0  0  0  0
    2.9880    0.4604    1.4360 C   0  0  0  0  0  0  0  0  0  0  0  0
    2.1367   -0.1705   -1.7263 C   0  0  0  0  0  0  0  0  0  0  0  0
    3.2764    1.1633    0.1127 C   0  0  0  0  0  0  0  0  0  0  0  0
    3.4610    0.2595   -1.0993 C   0  0  0  0  0  0  0  0  0  0  0  0
   -0.9973    0.0770   -0.3340 C   0  0  0  0  0  0  0  0  0  0  0  0
    0.5841   -1.9133    0.9029 H   0  0  0  0  0  0  0  0  0  0  0  0
    2.9747   -1.6685    1.1492 H   0  0  0  0  0  0  0  0  0  0  0  0
    1.9434   -1.0957    2.4347 H   0  0  0  0  0  0  0  0  0  0  0  0
    0.5488   -1.5713   -1.5949 H   0  0  0  0  0  0  0  0  0  0  0  0
    2.0485   -2.1655   -0.9909 H   0  0  0  0  0  0  0  0  0  0  0  0
    3.9432    0.2944    1.9520 H   0  0  0  0  0  0  0  0  0  0  0  0
    2.4344    1.1577    2.0783 H   0  0  0  0  0  0  0  0  0  0  0  0
    1.4897    0.7025   -1.8667 H   0  0  0  0  0  0  0  0  0  0  0  0
    2.3523   -0.5463   -2.7351 H   0  0  0  0  0  0  0  0  0  0  0  0
    4.1856    1.7638    0.2459 H   0  0  0  0  0  0  0  0  0  0  0  0
    2.4780    1.8881   -0.0910 H   0  0  0  0  0  0  0  0  0  0  0  0
    4.0085    0.8332   -1.8583 H   0  0  0  0  0  0  0  0  0  0  0  0
    4.0866   -0.6071   -0.8576 H   0  0  0  0  0  0  0  0  0  0  0  0
   -0.2747    0.1220    1.5802 H   0  0  0  0  0  0  0  0  0  0  0  0
   -0.6750    0.1395   -1.3757 H   0  0  0  0  0  0  0  0  0  0  0  0
   -3.7648   -2.1885   -0.9803 H   0  0  0  0  0  0  0  0  0  0  0  0
   -2.8907   -2.0627    1.8571 H   0  0  0  0  0  0  0  0  0  0  0  0
   -0.6590    3.6767   -0.3048 H   0  0  0  0  0  0  0  0  0  0  0  0
   -3.3689    2.7154   -1.1284 H   0  0  0  0  0  0  0  0  0  0  0  0
  1  3  1  0  0  0  0
  1  4  1  0  0  0  0
  1  7  2  0  0  0  0
  1 17  1  0  0  0  0
  2  5  1  0  0  0  0
  2  6  1  0  0  0  0
  2  8  2  0  0  0  0
  2 17  1  0  0  0  0
  3 33  1  0  0  0  0
  4 34  1  0  0  0  0
  5 35  1  0  0  0  0
  6 36  1  0  0  0  0
  9 10  1  0  0  0  0
  9 17  1  0  0  0  0
  9 31  1  0  0  0  0
 10 11  1  0  0  0  0
 10 12  1  0  0  0  0
 10 18  1  0  0  0  0
 11 13  1  0  0  0  0
 11 19  1  0  0  0  0
 11 20  1  0  0  0  0
 12 14  1  0  0  0  0
 12 21  1  0  0  0  0
 12 22  1  0  0  0  0
 13 15  1  0  0  0  0
 13 23  1  0  0  0  0
 13 24  1  0  0  0  0
 14 16  1  0  0  0  0
 14 25  1  0  0  0  0
 14 26  1  0  0  0  0
 15 16  1  0  0  0  0
 15 27  1  0  0  0  0
 15 28  1  0  0  0  0
 16 29  1  0  0  0  0
 16 30  1  0  0  0  0
 17 32  1  0  0  0  0
M  END
> <PUBCHEM_COMPOUND_CID>
3699

> <PUBCHEM_CONFORMER_RMSD>
0.6

> <PUBCHEM_CONFORMER_DIVERSEORDER>
1
4
2
3

> <PUBCHEM_MMFF94_PARTIAL_CHARGES>
16
1 1.24
10 0.27
17 0.27
2 1.24
3 -0.77
31 0.36
33 0.5
34 0.5
35 0.5
36 0.5
4 -0.77
5 -0.77
6 -0.77
7 -0.7
8 -0.7
9 -0.9

> <PUBCHEM_EFFECTIVE_ROTOR_COUNT>
5.4

> <PUBCHEM_PHARMACOPHORE_FEATURES>
11
1 3 acceptor
1 4 acceptor
1 5 acceptor
1 6 acceptor
1 7 acceptor
1 8 acceptor
1 9 cation
1 9 donor
4 1 3 4 7 anion
4 2 5 6 8 anion
7 10 11 12 13 14 15 16 rings

> <PUBCHEM_HEAVY_ATOM_COUNT>
17

> <PUBCHEM_ATOM_DEF_STEREO_COUNT>
0

> <PUBCHEM_ATOM_UDEF_STEREO_COUNT>
0

> <PUBCHEM_BOND_DEF_STEREO_COUNT>
0

> <PUBCHEM_BOND_UDEF_STEREO_COUNT>
0

> <PUBCHEM_ISOTOPIC_ATOM_COUNT>
0

> <PUBCHEM_COMPONENT_COUNT>
1

> <PUBCHEM_CACTVS_TAUTO_COUNT>
1

> <PUBCHEM_CONFORMER_ID>
00000E7300000001

> <PUBCHEM_MMFF94_ENERGY>
-28.7557

> <PUBCHEM_FEATURE_SELFOVERLAP>
55.892

> <PUBCHEM_SHAPE_FINGERPRINT>
11640471 11 17775849021092361412
13380536 127 18272928310867191794
13538477 17 18131348665271592992
13693222 7 18130786806340202196
13764800 53 18336258028769333393
14787075 74 17052725276180250722
15775835 57 18131349756383495700
15852999 172 18118425039852976902
16945 1 18339078164467795802
17357779 13 18115882806161663487
18186145 218 17899136293457928861
18981168 100 17822286928966784232
19868273 325 18338234851749304428
20525323 117 18410008814705258071
20905425 154 17545601154097193756
21501502 16 18335701693218677874
21524375 3 17980197809800937473
21947302 44 17750524047190075004
22802520 49 18041829740058070374
23402539 116 18262816063655915822
23419403 2 17322728086174710329
23557571 272 18260835851825058174
23598291 2 17702113658405277434
23598294 1 18342451539124264098
2748010 2 18336537321834137823
353137 74 18200304408021422070
6992083 37 17626410148144262114
81228 2 18408879612301049787

> <PUBCHEM_SHAPE_MULTIPOLES>
317.35
5.36
2.5
1.53
1.3
0.5
0.09
0.79
-0.24
-2.15
-0.13
0.6
-0.02
0.06

> <PUBCHEM_SHAPE_SELFOVERLAP>
594.56

> <PUBCHEM_SHAPE_VOLUME>
196

> <PUBCHEM_COORDINATE_TYPE>
2
5
10

$$$$

