11198
  -OEChem-06261205222D

 12 10  0     0  0  0  0  0  0999 V2000
    0.9030    0.0000    0.0000 Cl  0  0  0  0  0  0  0  0  0  0  0  0
    0.5369    3.1200    0.0000 N   0  0  0  0  0  0  0  0  0  0  0  0
    1.4030    3.6200    0.0000 C   0  0  0  0  0  0  0  0  0  0  0  0
    2.2690    3.1200    0.0000 C   0  0  0  0  0  0  0  0  0  0  0  0
    1.8015    4.0950    0.0000 H   0  0  0  0  0  0  0  0  0  0  0  0
    1.0044    4.0950    0.0000 H   0  0  0  0  0  0  0  0  0  0  0  0
    1.9590    2.5831    0.0000 H   0  0  0  0  0  0  0  0  0  0  0  0
    2.8059    2.8100    0.0000 H   0  0  0  0  0  0  0  0  0  0  0  0
    2.5790    3.6569    0.0000 H   0  0  0  0  0  0  0  0  0  0  0  0
    0.0000    3.4300    0.0000 H   0  0  0  0  0  0  0  0  0  0  0  0
    0.5369    2.5000    0.0000 H   0  0  0  0  0  0  0  0  0  0  0  0
    1.9030    0.0000    0.0000 H   0  0  0  0  0  0  0  0  0  0  0  0
  1 12  1  0  0  0  0
  2  3  1  0  0  0  0
  2 10  1  0  0  0  0
  2 11  1  0  0  0  0
  3  4  1  0  0  0  0
  3  5  1  0  0  0  0
  3  6  1  0  0  0  0
  4  7  1  0  0  0  0
  4  8  1  0  0  0  0
  4  9  1  0  0  0  0
M  END
> <PUBCHEM_COMPOUND_CID>
11198

> <PUBCHEM_COMPOUND_CANONICALIZED>
1

> <PUBCHEM_CACTVS_COMPLEXITY>
2.8

> <PUBCHEM_CACTVS_HBOND_ACCEPTOR>
1

> <PUBCHEM_CACTVS_HBOND_DONOR>
2

> <PUBCHEM_CACTVS_ROTATABLE_BOND>
0

> <PUBCHEM_CACTVS_SUBSKEYS>
AAADccBCAAAEAAAAAAAAAAAAAAAAAAAAAAAAAAAAAAAAAAAAAAAAHAAQAAAAAADBAAQCAABAAAAAAAAAAAAAAAAAAAAAAIAAAAAAAAAAAAAAAAAAEAAAAAAAAAAAAAAAAAAAAAAAAAAAAAAAAAAAAAAAAA==

> <PUBCHEM_IUPAC_OPENEYE_NAME>
ethanamine hydrochloride

> <PUBCHEM_IUPAC_CAS_NAME>
ethanamine hydrochloride

> <PUBCHEM_IUPAC_NAME>
ethanamine hydrochloride

> <PUBCHEM_IUPAC_SYSTEMATIC_NAME>
ethanamine hydrochloride

> <PUBCHEM_IUPAC_TRADITIONAL_NAME>
ethylamine hydrochloride

> <PUBCHEM_IUPAC_INCHI>
InChI=1S/C2H7N.ClH/c1-2-3;/h2-3H2,1H3;1H

> <PUBCHEM_IUPAC_INCHIKEY>
XWBDWHCCBGMXKG-UHFFFAOYSA-N

> <PUBCHEM_EXACT_MASS>
81.034527

> <PUBCHEM_MOLECULAR_FORMULA>
C2H8ClN

> <PUBCHEM_MOLECULAR_WEIGHT>
81.54462

> <PUBCHEM_OPENEYE_CAN_SMILES>
CCN.Cl

> <PUBCHEM_OPENEYE_ISO_SMILES>
CCN.Cl

> <PUBCHEM_CACTVS_TPSA>
26

> <PUBCHEM_MONOISOTOPIC_WEIGHT>
81.034527

> <PUBCHEM_TOTAL_CHARGE>
0

> <PUBCHEM_HEAVY_ATOM_COUNT>
4

> <PUBCHEM_ATOM_DEF_STEREO_COUNT>
0

> <PUBCHEM_ATOM_UDEF_STEREO_COUNT>
0

> <PUBCHEM_BOND_DEF_STEREO_COUNT>
0

> <PUBCHEM_BOND_UDEF_STEREO_COUNT>
0

> <PUBCHEM_ISOTOPIC_ATOM_COUNT>
0

> <PUBCHEM_COMPONENT_COUNT>
2

> <PUBCHEM_CACTVS_TAUTO_COUNT>
1

> <PUBCHEM_COORDINATE_TYPE>
1
5
255

$$$$

