9358
  -OEChem-06261203382D

 51 42  0     1  0  0  0  0  0999 V2000
    6.4050    3.8357    0.0000 Sb  0  0  0  0  0  0  0  0  0  0  0  0
    4.2509    2.2706    0.0000 Sb  0  0  0  0  0  0  0  0  0  0  0  0
    0.0000    5.4498    0.0000 K   0  3  0  0  0  0  0  0  0  0  0  0
    5.3381   10.8997    0.0000 K   0  3  0  0  0  0  0  0  0  0  0  0
    5.4050    3.8357    0.0000 O   0  0  0  0  0  0  0  0  0  0  0  0
    6.0960    2.8846    0.0000 O   0  0  0  0  0  0  0  0  0  0  0  0
    3.9399    3.2388    0.0000 O   0  0  0  0  0  0  0  0  0  0  0  0
    5.0755    1.6757    0.0000 O   0  0  0  0  0  0  0  0  0  0  0  0
    6.7140    4.7868    0.0000 O   0  0  0  0  0  0  0  0  0  0  0  0
    7.4050    3.8357    0.0000 O   0  0  0  0  0  0  0  0  0  0  0  0
    3.3577    2.7384    0.0000 O   0  0  0  0  0  0  0  0  0  0  0  0
    4.4198    1.2766    0.0000 O   0  0  0  0  0  0  0  0  0  0  0  0
    5.9050    6.3745    0.0000 O   0  0  0  0  0  0  0  0  0  0  0  0
    8.6651    2.5756    0.0000 O   0  0  0  0  0  0  0  0  0  0  0  0
    2.5140    4.2728    0.0000 O   0  0  0  0  0  0  0  0  0  0  0  0
    5.6183    0.0000    0.0000 O   0  0  0  0  0  0  0  0  0  0  0  0
   11.2132    4.1929    0.0000 O   0  0  0  0  0  0  0  0  0  0  0  0
   11.2132    6.7068    0.0000 O   0  0  0  0  0  0  0  0  0  0  0  0
    5.5895    8.3857    0.0000 O   0  0  0  0  0  0  0  0  0  0  0  0
    5.0960    4.7868    0.0000 C   0  0  3  0  0  0  0  0  0  0  0  0
    6.9050    2.2969    0.0000 C   0  0  3  0  0  0  0  0  0  0  0  0
    4.2636    4.2027    0.0000 C   0  0  3  0  0  0  0  0  0  0  0  0
    6.0923    1.6857    0.0000 C   0  0  3  0  0  0  0  0  0  0  0  0
    5.9050    5.3745    0.0000 C   0  0  0  0  0  0  0  0  0  0  0  0
    7.7140    2.8846    0.0000 C   0  0  0  0  0  0  0  0  0  0  0  0
    3.3644    3.7467    0.0000 C   0  0  0  0  0  0  0  0  0  0  0  0
    5.3808    0.9714    0.0000 C   0  0  0  0  0  0  0  0  0  0  0  0
    6.0406    4.3373    0.0000 H   0  0  0  0  0  0  0  0  0  0  0  0
    6.4050    4.4557    0.0000 H   0  0  0  0  0  0  0  0  0  0  0  0
    5.8154    4.0273    0.0000 H   0  0  0  0  0  0  0  0  0  0  0  0
    3.6309    2.2706    0.0000 H   0  0  0  0  0  0  0  0  0  0  0  0
    4.0593    1.6810    0.0000 H   0  0  0  0  0  0  0  0  0  0  0  0
    3.7493    1.9062    0.0000 H   0  0  0  0  0  0  0  0  0  0  0  0
    5.0406    3.3341    0.0000 H   0  0  0  0  0  0  0  0  0  0  0  0
    5.5064    2.6931    0.0000 H   0  0  0  0  0  0  0  0  0  0  0  0
    3.3199    3.2428    0.0000 H   0  0  0  0  0  0  0  0  0  0  0  0
    4.8878    1.0847    0.0000 H   0  0  0  0  0  0  0  0  0  0  0  0
    4.7357    5.2913    0.0000 H   0  0  0  0  0  0  0  0  0  0  0  0
    7.2736    1.7983    0.0000 H   0  0  0  0  0  0  0  0  0  0  0  0
    3.9446    4.7343    0.0000 H   0  0  0  0  0  0  0  0  0  0  0  0
    5.5209    1.4451    0.0000 H   0  0  0  0  0  0  0  0  0  0  0  0
    7.3037    4.9784    0.0000 H   0  0  0  0  0  0  0  0  0  0  0  0
    7.7695    4.3373    0.0000 H   0  0  0  0  0  0  0  0  0  0  0  0
    2.8262    2.4192    0.0000 H   0  0  0  0  0  0  0  0  0  0  0  0
    3.9520    0.8698    0.0000 H   0  0  0  0  0  0  0  0  0  0  0  0
   11.7501    4.5029    0.0000 H   0  0  0  0  0  0  0  0  0  0  0  0
   10.6763    4.5029    0.0000 H   0  0  0  0  0  0  0  0  0  0  0  0
   11.7501    7.0168    0.0000 H   0  0  0  0  0  0  0  0  0  0  0  0
   10.6763    7.0168    0.0000 H   0  0  0  0  0  0  0  0  0  0  0  0
    6.1265    8.6957    0.0000 H   0  0  0  0  0  0  0  0  0  0  0  0
    5.0526    8.6957    0.0000 H   0  0  0  0  0  0  0  0  0  0  0  0
  1 28  1  0  0  0  0
  1 29  1  0  0  0  0
  1 30  1  0  0  0  0
  2 31  1  0  0  0  0
  2 32  1  0  0  0  0
  2 33  1  0  0  0  0
  5 20  1  0  0  0  0
  5 34  1  0  0  0  0
  6 21  1  0  0  0  0
  6 35  1  0  0  0  0
  7 22  1  0  0  0  0
  7 36  1  0  0  0  0
  8 23  1  0  0  0  0
  8 37  1  0  0  0  0
  9 24  1  0  0  0  0
  9 42  1  0  0  0  0
 10 25  1  0  0  0  0
 10 43  1  0  0  0  0
 11 26  1  0  0  0  0
 11 44  1  0  0  0  0
 12 27  1  0  0  0  0
 12 45  1  0  0  0  0
 13 24  2  0  0  0  0
 14 25  2  0  0  0  0
 15 26  2  0  0  0  0
 16 27  2  0  0  0  0
 17 46  1  0  0  0  0
 17 47  1  0  0  0  0
 18 48  1  0  0  0  0
 18 49  1  0  0  0  0
 19 50  1  0  0  0  0
 19 51  1  0  0  0  0
 20 22  1  0  0  0  0
 20 24  1  0  0  0  0
 20 38  1  0  0  0  0
 21 23  1  0  0  0  0
 21 25  1  0  0  0  0
 21 39  1  0  0  0  0
 22 26  1  0  0  0  0
 22 40  1  0  0  0  0
 23 27  1  0  0  0  0
 23 41  1  0  0  0  0
M  CHG  2   3   1   4   1
M  END
> <PUBCHEM_COMPOUND_CID>
9358

> <PUBCHEM_COMPOUND_CANONICALIZED>
1

> <PUBCHEM_CACTVS_COMPLEXITY>
313

> <PUBCHEM_CACTVS_HBOND_ACCEPTOR>
15

> <PUBCHEM_CACTVS_HBOND_DONOR>
11

> <PUBCHEM_CACTVS_ROTATABLE_BOND>
0

> <PUBCHEM_CACTVS_SUBSKEYS>
AAADceBwPAAAYAAAAABAAAAAAAAAASJEiQAAAAAAAAAAAACQAAAAGgAACAAACBSggAIACAAAAgAIAACQCAIAAAAAAAAAAAFAAAABEBQAAAAAQAAFIAABAABDAAAAAAAAAAAAAAAAAAAAAAAAAAAAAAAAAA==

> <PUBCHEM_IUPAC_OPENEYE_NAME>
dipotassium; 2,3-dihydroxybutanedioic acid; stibane; trihydrate

> <PUBCHEM_IUPAC_CAS_NAME>
dipotassium; 2,3-dihydroxybutanedioic acid; stibine; trihydrate

> <PUBCHEM_IUPAC_NAME>
dipotassium; 2,3-dihydroxybutanedioic acid; stibane; trihydrate

> <PUBCHEM_IUPAC_SYSTEMATIC_NAME>
dipotassium; 2,3-bis(oxidanyl)butanedioic acid; stibane; trihydrate

> <PUBCHEM_IUPAC_TRADITIONAL_NAME>
dipotassium; stibine; tartaric acid; trihydrate

> <PUBCHEM_IUPAC_INCHI>
InChI=1S/2C4H6O6.2K.3H2O.2Sb.6H/c2*5-1(3(7)8)2(6)4(9)10;;;;;;;;;;;;;/h2*1-2,5-6H,(H,7,8)(H,9,10);;;3*1H2;;;;;;;;/q;;2*+1;;;;;;;;;;;

> <PUBCHEM_IUPAC_INCHIKEY>
YEOFXSGBTBPCGF-UHFFFAOYSA-N

> <PUBCHEM_EXACT_MASS>
681.846963

> <PUBCHEM_MOLECULAR_FORMULA>
C8H24K2O15Sb2+2

> <PUBCHEM_MOLECULAR_WEIGHT>
681.98376

> <PUBCHEM_OPENEYE_CAN_SMILES>
C(C(C(=O)O)O)(C(=O)O)O.C(C(C(=O)O)O)(C(=O)O)O.O.O.O.[K+].[K+].[SbH3].[SbH3]

> <PUBCHEM_OPENEYE_ISO_SMILES>
C(C(C(=O)O)O)(C(=O)O)O.C(C(C(=O)O)O)(C(=O)O)O.O.O.O.[K+].[K+].[SbH3].[SbH3]

> <PUBCHEM_CACTVS_TPSA>
233

> <PUBCHEM_MONOISOTOPIC_WEIGHT>
679.846565

> <PUBCHEM_TOTAL_CHARGE>
2

> <PUBCHEM_HEAVY_ATOM_COUNT>
27

> <PUBCHEM_ATOM_DEF_STEREO_COUNT>
0

> <PUBCHEM_ATOM_UDEF_STEREO_COUNT>
0

> <PUBCHEM_BOND_DEF_STEREO_COUNT>
0

> <PUBCHEM_BOND_UDEF_STEREO_COUNT>
0

> <PUBCHEM_ISOTOPIC_ATOM_COUNT>
0

> <PUBCHEM_COMPONENT_COUNT>
9

> <PUBCHEM_CACTVS_TAUTO_COUNT>
7

> <PUBCHEM_NONSTANDARDBOND>
1  10  6
1  5  6
1  6  6
1  9  6
2  11  6
2  12  6
2  7  6
2  8  6

> <PUBCHEM_COORDINATE_TYPE>
1
5
255

> <PUBCHEM_BONDANNOTATIONS>
1  10  4
1  5  4
1  6  4
1  9  4
2  11  4
2  12  4
2  7  4
2  8  4

$$$$

