11942
  -OEChem-06261206193D

 36 37  0     0  0  0  0  0  0999 V2000
    5.4869   -1.8175   -0.3996 O   0  0  0  0  0  0  0  0  0  0  0  0
   -5.4868   -1.8175    0.3997 O   0  0  0  0  0  0  0  0  0  0  0  0
    4.9054    0.3934    0.1767 N   0  0  0  0  0  0  0  0  0  0  0  0
   -4.9054    0.3934   -0.1767 N   0  0  0  0  0  0  0  0  0  0  0  0
    0.7230    0.3921    0.0265 C   0  0  0  0  0  0  0  0  0  0  0  0
   -0.7230    0.3921   -0.0266 C   0  0  0  0  0  0  0  0  0  0  0  0
    1.4084    1.5589    0.3645 C   0  0  0  0  0  0  0  0  0  0  0  0
   -1.4084    1.5589   -0.3645 C   0  0  0  0  0  0  0  0  0  0  0  0
    1.4315   -0.7745   -0.2615 C   0  0  0  0  0  0  0  0  0  0  0  0
   -1.4316   -0.7744    0.2615 C   0  0  0  0  0  0  0  0  0  0  0  0
    3.5110    0.3928    0.1264 C   0  0  0  0  0  0  0  0  0  0  0  0
   -3.5111    0.3928   -0.1264 C   0  0  0  0  0  0  0  0  0  0  0  0
    2.8023    1.5593    0.4143 C   0  0  0  0  0  0  0  0  0  0  0  0
   -2.8024    1.5593   -0.4143 C   0  0  0  0  0  0  0  0  0  0  0  0
    2.8256   -0.7742   -0.2116 C   0  0  0  0  0  0  0  0  0  0  0  0
   -2.8256   -0.7741    0.2116 C   0  0  0  0  0  0  0  0  0  0  0  0
    5.7807   -0.6707   -0.0778 C   0  0  0  0  0  0  0  0  0  0  0  0
   -5.7807   -0.6708    0.0778 C   0  0  0  0  0  0  0  0  0  0  0  0
    7.2226   -0.2598    0.0846 C   0  0  0  0  0  0  0  0  0  0  0  0
   -7.2226   -0.2597   -0.0845 C   0  0  0  0  0  0  0  0  0  0  0  0
    0.8989    2.4823    0.6263 H   0  0  0  0  0  0  0  0  0  0  0  0
   -0.8989    2.4822   -0.6263 H   0  0  0  0  0  0  0  0  0  0  0  0
    0.9413   -1.6973   -0.5595 H   0  0  0  0  0  0  0  0  0  0  0  0
   -0.9413   -1.6973    0.5596 H   0  0  0  0  0  0  0  0  0  0  0  0
    3.3238    2.4738    0.6857 H   0  0  0  0  0  0  0  0  0  0  0  0
   -3.3239    2.4740   -0.6855 H   0  0  0  0  0  0  0  0  0  0  0  0
    3.3050   -1.7123   -0.4540 H   0  0  0  0  0  0  0  0  0  0  0  0
   -3.3051   -1.7123    0.4540 H   0  0  0  0  0  0  0  0  0  0  0  0
    5.3302    1.2827    0.4312 H   0  0  0  0  0  0  0  0  0  0  0  0
   -5.3302    1.2828   -0.4311 H   0  0  0  0  0  0  0  0  0  0  0  0
    7.4654    0.5278   -0.6344 H   0  0  0  0  0  0  0  0  0  0  0  0
    7.8754   -1.1185   -0.0947 H   0  0  0  0  0  0  0  0  0  0  0  0
    7.3918    0.1077    1.1007 H   0  0  0  0  0  0  0  0  0  0  0  0
   -7.4655    0.5271    0.6351 H   0  0  0  0  0  0  0  0  0  0  0  0
   -7.8754   -1.1188    0.0938 H   0  0  0  0  0  0  0  0  0  0  0  0
   -7.3916    0.1087   -1.1003 H   0  0  0  0  0  0  0  0  0  0  0  0
  1 17  2  0  0  0  0
  2 18  2  0  0  0  0
  3 11  1  0  0  0  0
  3 17  1  0  0  0  0
  3 29  1  0  0  0  0
  4 12  1  0  0  0  0
  4 18  1  0  0  0  0
  4 30  1  0  0  0  0
  5  6  1  0  0  0  0
  5  7  2  0  0  0  0
  5  9  1  0  0  0  0
  6  8  2  0  0  0  0
  6 10  1  0  0  0  0
  7 13  1  0  0  0  0
  7 21  1  0  0  0  0
  8 14  1  0  0  0  0
  8 22  1  0  0  0  0
  9 15  2  0  0  0  0
  9 23  1  0  0  0  0
 10 16  2  0  0  0  0
 10 24  1  0  0  0  0
 11 13  2  0  0  0  0
 11 15  1  0  0  0  0
 12 14  2  0  0  0  0
 12 16  1  0  0  0  0
 13 25  1  0  0  0  0
 14 26  1  0  0  0  0
 15 27  1  0  0  0  0
 16 28  1  0  0  0  0
 17 19  1  0  0  0  0
 18 20  1  0  0  0  0
 19 31  1  0  0  0  0
 19 32  1  0  0  0  0
 19 33  1  0  0  0  0
 20 34  1  0  0  0  0
 20 35  1  0  0  0  0
 20 36  1  0  0  0  0
M  END
> <PUBCHEM_COMPOUND_CID>
11942

> <PUBCHEM_CONFORMER_RMSD>
0.8

> <PUBCHEM_CONFORMER_DIVERSEORDER>
1
2

> <PUBCHEM_MMFF94_PARTIAL_CHARGES>
28
1 -0.57
10 -0.15
11 0.12
12 0.12
13 -0.15
14 -0.15
15 -0.15
16 -0.15
17 0.57
18 0.57
19 0.06
2 -0.57
20 0.06
21 0.15
22 0.15
23 0.15
24 0.15
25 0.15
26 0.15
27 0.15
28 0.15
29 0.37
3 -0.55
30 0.37
4 -0.55
7 -0.15
8 -0.15
9 -0.15

> <PUBCHEM_EFFECTIVE_ROTOR_COUNT>
5

> <PUBCHEM_PHARMACOPHORE_FEATURES>
6
1 1 acceptor
1 2 acceptor
1 3 donor
1 4 donor
6 5 7 9 11 13 15 rings
6 6 8 10 12 14 16 rings

> <PUBCHEM_HEAVY_ATOM_COUNT>
20

> <PUBCHEM_ATOM_DEF_STEREO_COUNT>
0

> <PUBCHEM_ATOM_UDEF_STEREO_COUNT>
0

> <PUBCHEM_BOND_DEF_STEREO_COUNT>
0

> <PUBCHEM_BOND_UDEF_STEREO_COUNT>
0

> <PUBCHEM_ISOTOPIC_ATOM_COUNT>
0

> <PUBCHEM_COMPONENT_COUNT>
1

> <PUBCHEM_CACTVS_TAUTO_COUNT>
3

> <PUBCHEM_CONFORMER_ID>
00002EA600000001

> <PUBCHEM_MMFF94_ENERGY>
68.1515

> <PUBCHEM_FEATURE_SELFOVERLAP>
30.446

> <PUBCHEM_SHAPE_FINGERPRINT>
10 15 18337401448744614600
10366900 7 16415481557908791601
10968037 39 18201999923918823135
11315181 36 18411415103447648681
11524674 6 16877662344776466311
11963148 33 18341057345449220466
12166972 35 18342454824727584660
12236239 1 16081090363654988721
12403259 415 18338811060230423268
12516196 113 18259706705403130784
12616971 3 16515693212285459333
13073987 5 18114463478647908328
13288520 33 18412544310589922949
13533116 47 17967816033488491232
13685833 64 18407759244538723202
13862211 1 18410857663446547042
13885169 127 18335984263834224121
14170010 4 18333735689525108664
1420 363 18410854360785449591
14251764 18 18335136488649934952
14251764 46 18410856559639809067
14350574 20 18412545413800549020
18006028 8 18260268547065189425
18222031 100 17418377982434379156
19141452 34 18113621144697164015
200 152 17967254208267959449
21130935 74 18186519934024241178
21150785 3 15985101903375655526
21267235 1 18410569591400043745
21682296 61 18042676368338639006
220451 1 15123797267029934249
22224240 67 16805328786130774518
2297311 6 18411415137580663604
23035841 295 18273214197176086131
23402539 116 18411986836872668119
23522609 53 18194651891689898084
23559900 14 18342742871151412105
3004659 81 18059859449920552304
335352 9 18409730634015975559
34797466 226 17821721720699731452
3545911 37 18410857663446384646
4073 2 18129940070422513186
4214541 1 18410575115123891633
4340502 62 13984659252741668260
465052 167 18261108582749631286
5104073 3 18261398904915938560
542803 24 14405187282814825116

> <PUBCHEM_SHAPE_MULTIPOLES>
389.89
17.28
1.59
0.66
0
0.14
0
-6.56
0
0
0
0
0.03
0.73

> <PUBCHEM_SHAPE_SELFOVERLAP>
832.243

> <PUBCHEM_SHAPE_VOLUME>
216.8

> <PUBCHEM_COORDINATE_TYPE>
2
5
10

$$$$

