5103
  -OEChem-06261200312D

 66 69  0     0  0  0  0  0  0999 V2000
    9.8298   -0.2810    0.0000 O   0  0  0  0  0  0  0  0  0  0  0  0
    8.0698    2.7536    0.0000 O   0  0  0  0  0  0  0  0  0  0  0  0
    6.3378   -0.2464    0.0000 O   0  0  0  0  0  0  0  0  0  0  0  0
    5.0523    0.2215    0.0000 O   0  0  0  0  0  0  0  0  0  0  0  0
    5.6537    3.6330    0.0000 O   0  0  0  0  0  0  0  0  0  0  0  0
    8.9358   -1.7464    0.0000 O   0  0  0  0  0  0  0  0  0  0  0  0
    2.3985    2.4483    0.0000 O   0  0  0  0  0  0  0  0  0  0  0  0
    4.3269    4.7464    0.0000 O   0  0  0  0  0  0  0  0  0  0  0  0
   10.7358    0.2328    0.0000 C   0  0  0  0  0  0  0  0  0  0  0  0
    8.9358    0.2536    0.0000 C   0  0  0  0  0  0  0  0  0  0  0  0
    8.9358    1.2536    0.0000 C   0  0  0  0  0  0  0  0  0  0  0  0
    7.2038    1.2536    0.0000 C   0  0  0  0  0  0  0  0  0  0  0  0
    6.3378    1.7536    0.0000 C   0  0  0  0  0  0  0  0  0  0  0  0
    8.0698    1.7536    0.0000 C   0  0  0  0  0  0  0  0  0  0  0  0
   10.7358    1.2744    0.0000 C   0  0  0  0  0  0  0  0  0  0  0  0
    8.0698   -0.2464    0.0000 C   0  0  0  0  0  0  0  0  0  0  0  0
    7.2038    0.2536    0.0000 C   0  0  0  0  0  0  0  0  0  0  0  0
    9.8298    1.7883    0.0000 C   0  0  0  0  0  0  0  0  0  0  0  0
   11.7358    0.2290    0.0000 C   0  0  0  0  0  0  0  0  0  0  0  0
   11.2325   -0.6351    0.0000 C   0  0  0  0  0  0  0  0  0  0  0  0
    5.3530    1.9273    0.0000 C   0  0  0  0  0  0  0  0  0  0  0  0
    4.7102    1.1612    0.0000 C   0  0  0  0  0  0  0  0  0  0  0  0
    5.0110    2.8670    0.0000 C   0  0  0  0  0  0  0  0  0  0  0  0
    8.0698   -1.2464    0.0000 C   0  0  0  0  0  0  0  0  0  0  0  0
    3.7254    1.3349    0.0000 C   0  0  0  0  0  0  0  0  0  0  0  0
    4.0262    3.0407    0.0000 C   0  0  0  0  0  0  0  0  0  0  0  0
    3.3833    2.2746    0.0000 C   0  0  0  0  0  0  0  0  0  0  0  0
    3.0826    0.5688    0.0000 C   0  0  0  0  0  0  0  0  0  0  0  0
    7.2038   -1.7464    0.0000 C   0  0  0  0  0  0  0  0  0  0  0  0
    3.6842    3.9804    0.0000 C   0  0  0  0  0  0  0  0  0  0  0  0
    7.2038   -2.7464    0.0000 C   0  0  0  0  0  0  0  0  0  0  0  0
    2.6993    4.1540    0.0000 C   0  0  0  0  0  0  0  0  0  0  0  0
    6.3378   -3.2464    0.0000 C   0  0  0  0  0  0  0  0  0  0  0  0
    5.4717   -2.7464    0.0000 C   0  0  0  0  0  0  0  0  0  0  0  0
    6.3378   -4.2464    0.0000 C   0  0  0  0  0  0  0  0  0  0  0  0
    4.6057   -3.2464    0.0000 C   0  0  0  0  0  0  0  0  0  0  0  0
    5.4717   -4.7464    0.0000 C   0  0  0  0  0  0  0  0  0  0  0  0
    4.6057   -4.2464    0.0000 C   0  0  0  0  0  0  0  0  0  0  0  0
    6.8351    2.1239    0.0000 H   0  0  0  0  0  0  0  0  0  0  0  0
    6.1257    1.1710    0.0000 H   0  0  0  0  0  0  0  0  0  0  0  0
   11.2716    1.5865    0.0000 H   0  0  0  0  0  0  0  0  0  0  0  0
    9.8226    2.4083    0.0000 H   0  0  0  0  0  0  0  0  0  0  0  0
   11.7334   -0.3910    0.0000 H   0  0  0  0  0  0  0  0  0  0  0  0
   12.3558    0.2266    0.0000 H   0  0  0  0  0  0  0  0  0  0  0  0
   11.7382    0.8490    0.0000 H   0  0  0  0  0  0  0  0  0  0  0  0
   10.6944   -0.9431    0.0000 H   0  0  0  0  0  0  0  0  0  0  0  0
   11.5404   -1.1732    0.0000 H   0  0  0  0  0  0  0  0  0  0  0  0
   11.7706   -0.3272    0.0000 H   0  0  0  0  0  0  0  0  0  0  0  0
    8.6067    3.0636    0.0000 H   0  0  0  0  0  0  0  0  0  0  0  0
    5.8008    0.0636    0.0000 H   0  0  0  0  0  0  0  0  0  0  0  0
    2.6076    0.9673    0.0000 H   0  0  0  0  0  0  0  0  0  0  0  0
    2.6841    0.0939    0.0000 H   0  0  0  0  0  0  0  0  0  0  0  0
    3.5575    0.1703    0.0000 H   0  0  0  0  0  0  0  0  0  0  0  0
    6.6668   -1.4364    0.0000 H   0  0  0  0  0  0  0  0  0  0  0  0
    4.6537   -0.2535    0.0000 H   0  0  0  0  0  0  0  0  0  0  0  0
    6.2643    3.5254    0.0000 H   0  0  0  0  0  0  0  0  0  0  0  0
    7.7407   -3.0564    0.0000 H   0  0  0  0  0  0  0  0  0  0  0  0
    2.8070    4.7646    0.0000 H   0  0  0  0  0  0  0  0  0  0  0  0
    2.0888    4.2617    0.0000 H   0  0  0  0  0  0  0  0  0  0  0  0
    2.5917    3.5435    0.0000 H   0  0  0  0  0  0  0  0  0  0  0  0
    2.0000    1.9733    0.0000 H   0  0  0  0  0  0  0  0  0  0  0  0
    5.4717   -2.1264    0.0000 H   0  0  0  0  0  0  0  0  0  0  0  0
    6.8747   -4.5564    0.0000 H   0  0  0  0  0  0  0  0  0  0  0  0
    4.0688   -2.9364    0.0000 H   0  0  0  0  0  0  0  0  0  0  0  0
    5.4717   -5.3664    0.0000 H   0  0  0  0  0  0  0  0  0  0  0  0
    4.0688   -4.5564    0.0000 H   0  0  0  0  0  0  0  0  0  0  0  0
  1  9  1  0  0  0  0
  1 10  1  0  0  0  0
  2 14  1  0  0  0  0
  2 49  1  0  0  0  0
  3 17  1  0  0  0  0
  3 50  1  0  0  0  0
  4 22  1  0  0  0  0
  4 55  1  0  0  0  0
  5 23  1  0  0  0  0
  5 56  1  0  0  0  0
  6 24  2  0  0  0  0
  7 27  1  0  0  0  0
  7 61  1  0  0  0  0
  8 30  2  0  0  0  0
  9 15  1  0  0  0  0
  9 19  1  0  0  0  0
  9 20  1  0  0  0  0
 10 11  1  0  0  0  0
 10 16  2  0  0  0  0
 11 14  2  0  0  0  0
 11 18  1  0  0  0  0
 12 13  1  0  0  0  0
 12 14  1  0  0  0  0
 12 17  2  0  0  0  0
 13 21  1  0  0  0  0
 13 39  1  0  0  0  0
 13 40  1  0  0  0  0
 15 18  2  0  0  0  0
 15 41  1  0  0  0  0
 16 17  1  0  0  0  0
 16 24  1  0  0  0  0
 18 42  1  0  0  0  0
 19 43  1  0  0  0  0
 19 44  1  0  0  0  0
 19 45  1  0  0  0  0
 20 46  1  0  0  0  0
 20 47  1  0  0  0  0
 20 48  1  0  0  0  0
 21 22  1  0  0  0  0
 21 23  2  0  0  0  0
 22 25  2  0  0  0  0
 23 26  1  0  0  0  0
 24 29  1  0  0  0  0
 25 27  1  0  0  0  0
 25 28  1  0  0  0  0
 26 27  2  0  0  0  0
 26 30  1  0  0  0  0
 28 51  1  0  0  0  0
 28 52  1  0  0  0  0
 28 53  1  0  0  0  0
 29 31  2  3  0  0  0
 29 54  1  0  0  0  0
 30 32  1  0  0  0  0
 31 33  1  0  0  0  0
 31 57  1  0  0  0  0
 32 58  1  0  0  0  0
 32 59  1  0  0  0  0
 32 60  1  0  0  0  0
 33 34  2  0  0  0  0
 33 35  1  0  0  0  0
 34 36  1  0  0  0  0
 34 62  1  0  0  0  0
 35 37  2  0  0  0  0
 35 63  1  0  0  0  0
 36 38  2  0  0  0  0
 36 64  1  0  0  0  0
 37 38  1  0  0  0  0
 37 65  1  0  0  0  0
 38 66  1  0  0  0  0
M  END
> <PUBCHEM_COMPOUND_CID>
5103

> <PUBCHEM_COMPOUND_CANONICALIZED>
1

> <PUBCHEM_CACTVS_COMPLEXITY>
921

> <PUBCHEM_CACTVS_HBOND_ACCEPTOR>
8

> <PUBCHEM_CACTVS_HBOND_DONOR>
5

> <PUBCHEM_CACTVS_ROTATABLE_BOND>
6

> <PUBCHEM_CACTVS_SUBSKEYS>
AAADceB4PAAAAAAAAAAAAAAAAAAAAAAAAAAwYMEAAAAAAACBUAAAGgAACAAADESAmAAyBoAABgCIAqBSAAACCAAkIAAIiAEECMgMJzaGNRqCeWCl4BUIuYeI7OzOIAACCAAIAABAAAQQABAAAAAAAAAAAA==

> <PUBCHEM_IUPAC_OPENEYE_NAME>
1-[6-[(3-acetyl-2,4,6-trihydroxy-5-methyl-phenyl)methyl]-5,7-dihydroxy-2,2-dimethyl-chromen-8-yl]-3-phenyl-prop-2-en-1-one

> <PUBCHEM_IUPAC_CAS_NAME>
1-[6-[(3-acetyl-2,4,6-trihydroxy-5-methylphenyl)methyl]-5,7-dihydroxy-2,2-dimethyl-1-benzopyran-8-yl]-3-phenyl-2-propen-1-one

> <PUBCHEM_IUPAC_NAME>
1-[6-[(3-acetyl-2,4,6-trihydroxy-5-methylphenyl)methyl]-5,7-dihydroxy-2,2-dimethylchromen-8-yl]-3-phenylprop-2-en-1-one

> <PUBCHEM_IUPAC_SYSTEMATIC_NAME>
1-[6-[[3-ethanoyl-5-methyl-2,4,6-tris(oxidanyl)phenyl]methyl]-2,2-dimethyl-5,7-bis(oxidanyl)chromen-8-yl]-3-phenyl-prop-2-en-1-one

> <PUBCHEM_IUPAC_TRADITIONAL_NAME>
1-[6-(3-acetyl-2,4,6-trihydroxy-5-methyl-benzyl)-5,7-dihydroxy-2,2-dimethyl-chromen-8-yl]-3-phenyl-prop-2-en-1-one

> <PUBCHEM_IUPAC_INCHI>
InChI=1S/C30H28O8/c1-15-24(33)19(27(36)22(16(2)31)25(15)34)14-20-26(35)18-12-13-30(3,4)38-29(18)23(28(20)37)21(32)11-10-17-8-6-5-7-9-17/h5-13,33-37H,14H2,1-4H3

> <PUBCHEM_IUPAC_INCHIKEY>
DEZFNHCVIZBHBI-UHFFFAOYSA-N

> <PUBCHEM_XLOGP3_AA>
5.9

> <PUBCHEM_EXACT_MASS>
516.178418

> <PUBCHEM_MOLECULAR_FORMULA>
C30H28O8

> <PUBCHEM_MOLECULAR_WEIGHT>
516.53852

> <PUBCHEM_OPENEYE_CAN_SMILES>
CC1=C(C(=C(C(=C1O)C(=O)C)O)CC2=C(C3=C(C(=C2O)C(=O)C=CC4=CC=CC=C4)OC(C=C3)(C)C)O)O

> <PUBCHEM_OPENEYE_ISO_SMILES>
CC1=C(C(=C(C(=C1O)C(=O)C)O)CC2=C(C3=C(C(=C2O)C(=O)C=CC4=CC=CC=C4)OC(C=C3)(C)C)O)O

> <PUBCHEM_CACTVS_TPSA>
145

> <PUBCHEM_MONOISOTOPIC_WEIGHT>
516.178418

> <PUBCHEM_TOTAL_CHARGE>
0

> <PUBCHEM_HEAVY_ATOM_COUNT>
38

> <PUBCHEM_ATOM_DEF_STEREO_COUNT>
0

> <PUBCHEM_ATOM_UDEF_STEREO_COUNT>
0

> <PUBCHEM_BOND_DEF_STEREO_COUNT>
0

> <PUBCHEM_BOND_UDEF_STEREO_COUNT>
1

> <PUBCHEM_ISOTOPIC_ATOM_COUNT>
0

> <PUBCHEM_COMPONENT_COUNT>
1

> <PUBCHEM_CACTVS_TAUTO_COUNT>
630

> <PUBCHEM_COORDINATE_TYPE>
1
5
255

> <PUBCHEM_BONDANNOTATIONS>
10  11  8
10  16  8
11  14  8
12  14  8
12  17  8
16  17  8
21  22  8
21  23  8
22  25  8
23  26  8
25  27  8
26  27  8
29  31  1
33  34  8
33  35  8
34  36  8
35  37  8
36  38  8
37  38  8

$$$$

