17395388
  -OEChem-06241222492D

 37 38  0     1  0  0  0  0  0999 V2000
    3.7320   -0.8080    0.0000 O   0  0  0  0  0  0  0  0  0  0  0  0
    5.4641    0.1920    0.0000 O   0  0  0  0  0  0  0  0  0  0  0  0
    7.0468    2.5284    0.0000 O   0  0  0  0  0  0  0  0  0  0  0  0
    2.0000   -0.8080    0.0000 O   0  0  0  0  0  0  0  0  0  0  0  0
    4.5981    1.6920    0.0000 N   0  0  0  0  0  0  0  0  0  0  0  0
    6.3776    1.7853    0.0000 N   0  0  0  0  0  0  0  0  0  0  0  0
    3.7320    0.1920    0.0000 C   0  0  3  0  0  0  0  0  0  0  0  0
    2.8660    0.6920    0.0000 C   0  0  0  0  0  0  0  0  0  0  0  0
    4.5981    0.6920    0.0000 C   0  0  0  0  0  0  0  0  0  0  0  0
    2.8660    1.6920    0.0000 C   0  0  0  0  0  0  0  0  0  0  0  0
    5.4641    2.1920    0.0000 C   0  0  0  0  0  0  0  0  0  0  0  0
    2.8660   -1.3080    0.0000 C   0  0  0  0  0  0  0  0  0  0  0  0
    2.8660   -2.3080    0.0000 C   0  0  0  0  0  0  0  0  0  0  0  0
    5.5686    3.1865    0.0000 C   0  0  0  0  0  0  0  0  0  0  0  0
    6.5468    3.3944    0.0000 C   0  0  0  0  0  0  0  0  0  0  0  0
    2.0000   -2.8080    0.0000 C   0  0  0  0  0  0  0  0  0  0  0  0
    3.7320   -2.8080    0.0000 C   0  0  0  0  0  0  0  0  0  0  0  0
    6.9535    4.3080    0.0000 C   0  0  0  0  0  0  0  0  0  0  0  0
    2.0000   -3.8080    0.0000 C   0  0  0  0  0  0  0  0  0  0  0  0
    3.7320   -3.8080    0.0000 C   0  0  0  0  0  0  0  0  0  0  0  0
    2.8660   -4.3080    0.0000 C   0  0  0  0  0  0  0  0  0  0  0  0
    4.2690   -0.1180    0.0000 H   0  0  0  0  0  0  0  0  0  0  0  0
    2.2554    0.7997    0.0000 H   0  0  0  0  0  0  0  0  0  0  0  0
    2.6540    0.1094    0.0000 H   0  0  0  0  0  0  0  0  0  0  0  0
    3.4860    1.6920    0.0000 H   0  0  0  0  0  0  0  0  0  0  0  0
    2.8660    2.3120    0.0000 H   0  0  0  0  0  0  0  0  0  0  0  0
    2.2460    1.6920    0.0000 H   0  0  0  0  0  0  0  0  0  0  0  0
    4.0611    2.0020    0.0000 H   0  0  0  0  0  0  0  0  0  0  0  0
    5.1079    3.6014    0.0000 H   0  0  0  0  0  0  0  0  0  0  0  0
    1.4631   -2.4980    0.0000 H   0  0  0  0  0  0  0  0  0  0  0  0
    4.2690   -2.4980    0.0000 H   0  0  0  0  0  0  0  0  0  0  0  0
    7.5199    4.0558    0.0000 H   0  0  0  0  0  0  0  0  0  0  0  0
    7.2057    4.8744    0.0000 H   0  0  0  0  0  0  0  0  0  0  0  0
    6.3871    4.5602    0.0000 H   0  0  0  0  0  0  0  0  0  0  0  0
    1.4631   -4.1180    0.0000 H   0  0  0  0  0  0  0  0  0  0  0  0
    4.2690   -4.1180    0.0000 H   0  0  0  0  0  0  0  0  0  0  0  0
    2.8660   -4.9280    0.0000 H   0  0  0  0  0  0  0  0  0  0  0  0
  1  7  1  0  0  0  0
  1 12  1  0  0  0  0
  2  9  2  0  0  0  0
  3  6  1  0  0  0  0
  3 15  1  0  0  0  0
  4 12  2  0  0  0  0
  5  9  1  0  0  0  0
  5 11  1  0  0  0  0
  5 28  1  0  0  0  0
  6 11  2  0  0  0  0
  7  8  1  0  0  0  0
  7  9  1  0  0  0  0
  7 22  1  0  0  0  0
  8 10  1  0  0  0  0
  8 23  1  0  0  0  0
  8 24  1  0  0  0  0
 10 25  1  0  0  0  0
 10 26  1  0  0  0  0
 10 27  1  0  0  0  0
 11 14  1  0  0  0  0
 12 13  1  0  0  0  0
 13 16  2  0  0  0  0
 13 17  1  0  0  0  0
 14 15  2  0  0  0  0
 14 29  1  0  0  0  0
 15 18  1  0  0  0  0
 16 19  1  0  0  0  0
 16 30  1  0  0  0  0
 17 20  2  0  0  0  0
 17 31  1  0  0  0  0
 18 32  1  0  0  0  0
 18 33  1  0  0  0  0
 18 34  1  0  0  0  0
 19 21  2  0  0  0  0
 19 35  1  0  0  0  0
 20 21  1  0  0  0  0
 20 36  1  0  0  0  0
 21 37  1  0  0  0  0
M  END
> <PUBCHEM_COMPOUND_CID>
17395388

> <PUBCHEM_COMPOUND_CANONICALIZED>
1

> <PUBCHEM_CACTVS_COMPLEXITY>
369

> <PUBCHEM_CACTVS_HBOND_ACCEPTOR>
5

> <PUBCHEM_CACTVS_HBOND_DONOR>
1

> <PUBCHEM_CACTVS_ROTATABLE_BOND>
6

> <PUBCHEM_CACTVS_SUBSKEYS>
AAADceBzOAAAAAAAAAAAAAAAAAAAAWAAAAAwAAAAAAAAAAABwAAAHgAUAAAADBShmgIzvJLQBACpAqPyegKCAAAlIgApmCF2bNqKJjrAvZyHMYhm1QvY6ceIyCCOAAAAAAAAAAAAAAAAAAAAAAAAAAAAAA==

> <PUBCHEM_IUPAC_OPENEYE_NAME>
1-[(5-methylisoxazol-3-yl)carbamoyl]propyl benzoate

> <PUBCHEM_IUPAC_CAS_NAME>
benzoic acid [1-[(5-methyl-3-isoxazolyl)amino]-1-oxobutan-2-yl] ester

> <PUBCHEM_IUPAC_NAME>
[1-[(5-methyl-1,2-oxazol-3-yl)amino]-1-oxobutan-2-yl] benzoate

> <PUBCHEM_IUPAC_SYSTEMATIC_NAME>
[1-[(5-methyl-1,2-oxazol-3-yl)amino]-1-oxidanylidene-butan-2-yl] benzoate

> <PUBCHEM_IUPAC_TRADITIONAL_NAME>
benzoic acid 1-[(5-methylisoxazol-3-yl)carbamoyl]propyl ester

> <PUBCHEM_IUPAC_INCHI>
InChI=1S/C15H16N2O4/c1-3-12(14(18)16-13-9-10(2)21-17-13)20-15(19)11-7-5-4-6-8-11/h4-9,12H,3H2,1-2H3,(H,16,17,18)

> <PUBCHEM_IUPAC_INCHIKEY>
JLIGOEQPCFFXOG-UHFFFAOYSA-N

> <PUBCHEM_XLOGP3_AA>
2.8

> <PUBCHEM_EXACT_MASS>
288.111007

> <PUBCHEM_MOLECULAR_FORMULA>
C15H16N2O4

> <PUBCHEM_MOLECULAR_WEIGHT>
288.29854

> <PUBCHEM_OPENEYE_CAN_SMILES>
CCC(C(=O)NC1=NOC(=C1)C)OC(=O)C2=CC=CC=C2

> <PUBCHEM_OPENEYE_ISO_SMILES>
CCC(C(=O)NC1=NOC(=C1)C)OC(=O)C2=CC=CC=C2

> <PUBCHEM_CACTVS_TPSA>
81.4

> <PUBCHEM_MONOISOTOPIC_WEIGHT>
288.111007

> <PUBCHEM_TOTAL_CHARGE>
0

> <PUBCHEM_HEAVY_ATOM_COUNT>
21

> <PUBCHEM_ATOM_DEF_STEREO_COUNT>
0

> <PUBCHEM_ATOM_UDEF_STEREO_COUNT>
1

> <PUBCHEM_BOND_DEF_STEREO_COUNT>
0

> <PUBCHEM_BOND_UDEF_STEREO_COUNT>
0

> <PUBCHEM_ISOTOPIC_ATOM_COUNT>
0

> <PUBCHEM_COMPONENT_COUNT>
1

> <PUBCHEM_CACTVS_TAUTO_COUNT>
10

> <PUBCHEM_COORDINATE_TYPE>
1
5
255

> <PUBCHEM_BONDANNOTATIONS>
11  14  8
13  16  8
13  17  8
14  15  8
16  19  8
17  20  8
19  21  8
20  21  8
3  15  8
3  6  8
6  11  8
7  8  3

$$$$

