8448
  -OEChem-06261202512D

 16 15  0     0  0  0  0  0  0999 V2000
    2.5369    0.2500    0.0000 S   0  0  0  0  0  0  0  0  0  0  0  0
    5.1350   -0.2500    0.0000 S   0  0  0  0  0  0  0  0  0  0  0  0
    3.4030   -1.2500    0.0000 N   0  0  0  0  0  0  0  0  0  0  0  0
    4.2690    1.2500    0.0000 N   0  0  0  0  0  0  0  0  0  0  0  0
    3.4030   -0.2500    0.0000 C   0  0  0  0  0  0  0  0  0  0  0  0
    4.2690    0.2500    0.0000 C   0  0  0  0  0  0  0  0  0  0  0  0
    2.5369   -1.7500    0.0000 C   0  0  0  0  0  0  0  0  0  0  0  0
    5.1350    1.7500    0.0000 C   0  0  0  0  0  0  0  0  0  0  0  0
    2.2269   -1.2131    0.0000 H   0  0  0  0  0  0  0  0  0  0  0  0
    2.0000   -2.0600    0.0000 H   0  0  0  0  0  0  0  0  0  0  0  0
    2.8469   -2.2869    0.0000 H   0  0  0  0  0  0  0  0  0  0  0  0
    5.4450    1.2131    0.0000 H   0  0  0  0  0  0  0  0  0  0  0  0
    5.6719    2.0600    0.0000 H   0  0  0  0  0  0  0  0  0  0  0  0
    4.8250    2.2869    0.0000 H   0  0  0  0  0  0  0  0  0  0  0  0
    2.0000   -0.0600    0.0000 H   0  0  0  0  0  0  0  0  0  0  0  0
    5.6719    0.0600    0.0000 H   0  0  0  0  0  0  0  0  0  0  0  0
  1  5  1  0  0  0  0
  1 15  1  0  0  0  0
  2  6  1  0  0  0  0
  2 16  1  0  0  0  0
  3  5  2  0  0  0  0
  3  7  1  0  0  0  0
  4  6  2  0  0  0  0
  4  8  1  0  0  0  0
  5  6  1  0  0  0  0
  7  9  1  0  0  0  0
  7 10  1  0  0  0  0
  7 11  1  0  0  0  0
  8 12  1  0  0  0  0
  8 13  1  0  0  0  0
  8 14  1  0  0  0  0
M  END
> <PUBCHEM_COMPOUND_CID>
8448

> <PUBCHEM_COMPOUND_CANONICALIZED>
1

> <PUBCHEM_CACTVS_COMPLEXITY>
112

> <PUBCHEM_CACTVS_HBOND_ACCEPTOR>
4

> <PUBCHEM_CACTVS_HBOND_DONOR>
2

> <PUBCHEM_CACTVS_ROTATABLE_BOND>
1

> <PUBCHEM_CACTVS_SUBSKEYS>
AAADccBjAABgAAAAAAAAAAAAAAAAAAAAAAAAAAAAAAAAAAAAAAAAHAQAAAAAAAABQAQCAAIAAAQgAAAgBAAAEAAAAAAAAAAAAAAAAAAAAAAAAAAAAAAAAAAAAAAAAAAAAAAAAAAAAAAAAAAAAAAAAAAAAA==

> <PUBCHEM_IUPAC_OPENEYE_NAME>
N,N'-dimethylethanediimidothioic acid

> <PUBCHEM_IUPAC_CAS_NAME>
N,N'-dimethylethanediimidothioic acid

> <PUBCHEM_IUPAC_NAME>
N,N'-dimethylethanediimidothioic acid

> <PUBCHEM_IUPAC_SYSTEMATIC_NAME>
N,N'-dimethylethanediimidothioic acid

> <PUBCHEM_IUPAC_TRADITIONAL_NAME>
N,N'-dimethylethanediimidothioic acid

> <PUBCHEM_IUPAC_INCHI>
InChI=1S/C4H8N2S2/c1-5-3(7)4(8)6-2/h1-2H3,(H,5,7)(H,6,8)

> <PUBCHEM_IUPAC_INCHIKEY>
MQLIZYQZJMPNFI-UHFFFAOYSA-N

> <PUBCHEM_XLOGP3_AA>
1.1

> <PUBCHEM_EXACT_MASS>
148.01289

> <PUBCHEM_MOLECULAR_FORMULA>
C4H8N2S2

> <PUBCHEM_MOLECULAR_WEIGHT>
148.24972

> <PUBCHEM_OPENEYE_CAN_SMILES>
CN=C(C(=NC)S)S

> <PUBCHEM_OPENEYE_ISO_SMILES>
CN=C(C(=NC)S)S

> <PUBCHEM_CACTVS_TPSA>
26.7

> <PUBCHEM_MONOISOTOPIC_WEIGHT>
148.01289

> <PUBCHEM_TOTAL_CHARGE>
0

> <PUBCHEM_HEAVY_ATOM_COUNT>
8

> <PUBCHEM_ATOM_DEF_STEREO_COUNT>
0

> <PUBCHEM_ATOM_UDEF_STEREO_COUNT>
0

> <PUBCHEM_BOND_DEF_STEREO_COUNT>
0

> <PUBCHEM_BOND_UDEF_STEREO_COUNT>
0

> <PUBCHEM_ISOTOPIC_ATOM_COUNT>
0

> <PUBCHEM_COMPONENT_COUNT>
1

> <PUBCHEM_CACTVS_TAUTO_COUNT>
3

> <PUBCHEM_COORDINATE_TYPE>
1
5
255

$$$$

