17395688
  -OEChem-06241222513D

 43 45  0     1  0  0  0  0  0999 V2000
    4.8308    0.8676    0.1119 S   0  0  0  0  0  0  0  0  0  0  0  0
   -1.1322    0.4856    2.0112 O   0  0  0  0  0  0  0  0  0  0  0  0
   -3.0957   -1.7669   -0.4472 N   0  0  0  0  0  0  0  0  0  0  0  0
    0.3475   -0.7903   -1.4085 N   0  0  0  0  0  0  0  0  0  0  0  0
    1.3755   -1.8211    0.4740 N   0  0  0  0  0  0  0  0  0  0  0  0
    3.5381   -1.1241    1.3208 N   0  0  0  0  0  0  0  0  0  0  0  0
   -1.7849   -1.1291   -0.2717 C   0  0  1  0  0  0  0  0  0  0  0  0
   -0.8063   -1.6352   -1.3454 C   0  0  0  0  0  0  0  0  0  0  0  0
   -1.9235    0.3837   -0.2492 C   0  0  0  0  0  0  0  0  0  0  0  0
   -1.5913    1.1132    0.8924 C   0  0  0  0  0  0  0  0  0  0  0  0
   -3.9872   -1.4000    0.6498 C   0  0  0  0  0  0  0  0  0  0  0  0
   -2.9454   -3.2173   -0.5268 C   0  0  0  0  0  0  0  0  0  0  0  0
   -2.3910    1.0427   -1.3864 C   0  0  0  0  0  0  0  0  0  0  0  0
    1.4214   -0.8908   -0.5036 C   0  0  0  0  0  0  0  0  0  0  0  0
   -1.7269    2.5014    0.8971 C   0  0  0  0  0  0  0  0  0  0  0  0
   -2.5261    2.4312   -1.3821 C   0  0  0  0  0  0  0  0  0  0  0  0
    2.5245   -0.0380   -0.6130 C   0  0  0  0  0  0  0  0  0  0  0  0
   -2.1942    3.1604   -0.2402 C   0  0  0  0  0  0  0  0  0  0  0  0
    3.5320   -0.2148    0.3264 C   0  0  0  0  0  0  0  0  0  0  0  0
    2.8527    1.0191   -1.5192 C   0  0  0  0  0  0  0  0  0  0  0  0
    4.0736    1.5937   -1.2394 C   0  0  0  0  0  0  0  0  0  0  0  0
    2.4253   -1.8797    1.3167 C   0  0  0  0  0  0  0  0  0  0  0  0
   -0.8166    1.3086    3.1323 C   0  0  0  0  0  0  0  0  0  0  0  0
   -1.3716   -1.4581    0.6918 H   0  0  0  0  0  0  0  0  0  0  0  0
   -0.5014   -2.6754   -1.1803 H   0  0  0  0  0  0  0  0  0  0  0  0
   -1.2830   -1.6062   -2.3342 H   0  0  0  0  0  0  0  0  0  0  0  0
    0.3964   -0.0800   -2.1296 H   0  0  0  0  0  0  0  0  0  0  0  0
   -4.2412   -0.3353    0.6459 H   0  0  0  0  0  0  0  0  0  0  0  0
   -3.5718   -1.6597    1.6308 H   0  0  0  0  0  0  0  0  0  0  0  0
   -4.9470   -1.9212    0.5487 H   0  0  0  0  0  0  0  0  0  0  0  0
   -2.3699   -3.6294    0.3104 H   0  0  0  0  0  0  0  0  0  0  0  0
   -3.9296   -3.7021   -0.5167 H   0  0  0  0  0  0  0  0  0  0  0  0
   -2.4926   -3.5355   -1.4713 H   0  0  0  0  0  0  0  0  0  0  0  0
   -2.6570    0.4925   -2.2849 H   0  0  0  0  0  0  0  0  0  0  0  0
   -1.4886    3.1334    1.7455 H   0  0  0  0  0  0  0  0  0  0  0  0
   -2.8902    2.9442   -2.2673 H   0  0  0  0  0  0  0  0  0  0  0  0
   -2.2999    4.2414   -0.2379 H   0  0  0  0  0  0  0  0  0  0  0  0
    2.2274    1.3482   -2.3396 H   0  0  0  0  0  0  0  0  0  0  0  0
    4.5556    2.4058   -1.7652 H   0  0  0  0  0  0  0  0  0  0  0  0
    2.3638   -2.6341    2.0933 H   0  0  0  0  0  0  0  0  0  0  0  0
    0.0069    1.9956    2.9094 H   0  0  0  0  0  0  0  0  0  0  0  0
   -1.7022    1.8271    3.5152 H   0  0  0  0  0  0  0  0  0  0  0  0
   -0.4679    0.6448    3.9303 H   0  0  0  0  0  0  0  0  0  0  0  0
  1 19  1  0  0  0  0
  1 21  1  0  0  0  0
  2 10  1  0  0  0  0
  2 23  1  0  0  0  0
  3  7  1  0  0  0  0
  3 11  1  0  0  0  0
  3 12  1  0  0  0  0
  4  8  1  0  0  0  0
  4 14  1  0  0  0  0
  4 27  1  0  0  0  0
  5 14  1  0  0  0  0
  5 22  2  0  0  0  0
  6 19  2  0  0  0  0
  6 22  1  0  0  0  0
  7  8  1  0  0  0  0
  7  9  1  0  0  0  0
  7 24  1  0  0  0  0
  8 25  1  0  0  0  0
  8 26  1  0  0  0  0
  9 10  1  0  0  0  0
  9 13  2  0  0  0  0
 10 15  2  0  0  0  0
 11 28  1  0  0  0  0
 11 29  1  0  0  0  0
 11 30  1  0  0  0  0
 12 31  1  0  0  0  0
 12 32  1  0  0  0  0
 12 33  1  0  0  0  0
 13 16  1  0  0  0  0
 13 34  1  0  0  0  0
 14 17  2  0  0  0  0
 15 18  1  0  0  0  0
 15 35  1  0  0  0  0
 16 18  2  0  0  0  0
 16 36  1  0  0  0  0
 17 19  1  0  0  0  0
 17 20  1  0  0  0  0
 18 37  1  0  0  0  0
 20 21  2  0  0  0  0
 20 38  1  0  0  0  0
 21 39  1  0  0  0  0
 22 40  1  0  0  0  0
 23 41  1  0  0  0  0
 23 42  1  0  0  0  0
 23 43  1  0  0  0  0
M  END
> <PUBCHEM_COMPOUND_CID>
17395688

> <PUBCHEM_CONFORMER_RMSD>
0.8

> <PUBCHEM_CONFORMER_DIVERSEORDER>
1
25
82
42
81
97
14
121
54
76
56
59
47
86
109
103
28
31
71
35
95
100
117
53
52
64
114
27
20
36
55
34
122
116
119
105
26
73
29
113
10
65
72
69
67
96
108
104
43
83
30
111
99
50
11
58
84
98
15
32
38
22
13
112
79
6
94
88
62
85
110
5
37
17
51
9
74
118
63
120
107
66
60
2
115
80
91
93
87
68
48
75
41
39
7
89
40
23
101
78
18
70
44
45
102
19
8
90
77
16
21
92
33
46
12
4
106
57
49
24
61
3

> <PUBCHEM_MMFF94_PARTIAL_CHARGES>
30
1 -0.08
10 0.08
11 0.27
12 0.27
13 -0.15
14 0.41
15 -0.15
16 -0.15
18 -0.15
19 0.3
2 -0.36
20 -0.15
21 -0.11
22 0.47
23 0.28
27 0.4
3 -0.81
34 0.15
35 0.15
36 0.15
37 0.15
38 0.15
39 0.15
4 -0.87
40 0.15
5 -0.62
6 -0.57
7 0.41
8 0.37
9 -0.14

> <PUBCHEM_EFFECTIVE_ROTOR_COUNT>
6

> <PUBCHEM_PHARMACOPHORE_FEATURES>
9
1 2 acceptor
1 3 cation
1 4 cation
1 4 donor
1 6 acceptor
3 5 6 22 cation
5 1 17 19 20 21 rings
6 5 6 14 17 19 22 rings
6 9 10 13 15 16 18 rings

> <PUBCHEM_HEAVY_ATOM_COUNT>
23

> <PUBCHEM_ATOM_DEF_STEREO_COUNT>
0

> <PUBCHEM_ATOM_UDEF_STEREO_COUNT>
1

> <PUBCHEM_BOND_DEF_STEREO_COUNT>
0

> <PUBCHEM_BOND_UDEF_STEREO_COUNT>
0

> <PUBCHEM_ISOTOPIC_ATOM_COUNT>
0

> <PUBCHEM_COMPONENT_COUNT>
1

> <PUBCHEM_CACTVS_TAUTO_COUNT>
4

> <PUBCHEM_CONFORMER_ID>
01096FE800000001

> <PUBCHEM_MMFF94_ENERGY>
74.9732

> <PUBCHEM_FEATURE_SELFOVERLAP>
45.749

> <PUBCHEM_SHAPE_FINGERPRINT>
10165383 225 17107004123431504261
10764073 3 14422854257457491603
11578080 2 17976857240136377309
11582403 64 16555389078826668813
11640471 11 18337114595783026948
11725454 13 16339773770561885693
12173636 292 18044087080527760593
12403814 3 18413384337494551921
12467345 10 17775293802364798909
12633257 1 16056597681917512952
12714826 92 18260275113895916811
12788726 201 18413111649905059731
13224815 77 18335135401885974476
13764800 53 17676764374528763507
14251751 93 18409438203142045902
14787075 74 17982165613365678022
17492 89 18272655683365602626
18981168 100 17897145030549469334
19765921 60 17465397699954158673
20510252 161 18260828180876655422
20600515 1 17753871849638228095
20691752 17 17979654345982444915
20715895 44 17621052279559491589
22749437 52 18190750919255346412
22907989 373 18333454248391230157
23419403 2 17606704443343210369
23557571 272 17894623734512688598
23559900 14 18117280465576570302
23598288 3 18262535752631485094
350125 39 18044354235735424999
3797600 57 18335981957019782038
469060 322 18268981003751354017
7097593 13 17985276411060384202
9981440 41 17171550936154925330

> <PUBCHEM_SHAPE_MULTIPOLES>
451.39
7.6
3.24
1.98
6.76
0.29
1.29
-0.03
-0.69
-3.24
-0.28
-0.22
0.72
-1.07

> <PUBCHEM_SHAPE_SELFOVERLAP>
956.966

> <PUBCHEM_SHAPE_VOLUME>
255.1

> <PUBCHEM_COORDINATE_TYPE>
2
5
10

$$$$

