9573
  -OEChem-06261203503D

 29 30  0     0  0  0  0  0  0999 V2000
    5.1923    1.6542    0.7837 F   0  0  0  0  0  0  0  0  0  0  0  0
    3.0202    0.2564   -0.1932 O   0  0  0  0  0  0  0  0  0  0  0  0
    2.1808   -1.8656   -0.0429 O   0  0  0  0  0  0  0  0  0  0  0  0
    0.7866    0.0181   -0.0976 N   0  0  0  0  0  0  0  0  0  0  0  0
   -1.6463    0.3008   -0.0229 C   0  0  0  0  0  0  0  0  0  0  0  0
   -2.9263   -0.2973    0.0584 C   0  0  0  0  0  0  0  0  0  0  0  0
   -0.5048   -0.5173   -0.0200 C   0  0  0  0  0  0  0  0  0  0  0  0
   -1.5457    1.6992   -0.1047 C   0  0  0  0  0  0  0  0  0  0  0  0
   -3.0272   -1.6958    0.1399 C   0  0  0  0  0  0  0  0  0  0  0  0
   -0.6234   -1.9051    0.0620 C   0  0  0  0  0  0  0  0  0  0  0  0
   -4.0680    0.5205    0.0554 C   0  0  0  0  0  0  0  0  0  0  0  0
   -1.8823   -2.4932    0.1415 C   0  0  0  0  0  0  0  0  0  0  0  0
   -2.6906    2.4964   -0.1061 C   0  0  0  0  0  0  0  0  0  0  0  0
   -3.9495    1.9082   -0.0262 C   0  0  0  0  0  0  0  0  0  0  0  0
    2.0022   -0.6554   -0.1047 C   0  0  0  0  0  0  0  0  0  0  0  0
    4.3472   -0.2825   -0.2111 C   0  0  0  0  0  0  0  0  0  0  0  0
    5.3349    0.8583   -0.3115 C   0  0  0  0  0  0  0  0  0  0  0  0
   -0.5973    2.2225   -0.1694 H   0  0  0  0  0  0  0  0  0  0  0  0
   -4.0010   -2.1770    0.2030 H   0  0  0  0  0  0  0  0  0  0  0  0
    0.1999   -2.6028    0.0700 H   0  0  0  0  0  0  0  0  0  0  0  0
   -5.0620    0.0823    0.1169 H   0  0  0  0  0  0  0  0  0  0  0  0
   -1.9761   -3.5736    0.2052 H   0  0  0  0  0  0  0  0  0  0  0  0
    0.8770    1.0255   -0.1574 H   0  0  0  0  0  0  0  0  0  0  0  0
   -2.5998    3.5770   -0.1698 H   0  0  0  0  0  0  0  0  0  0  0  0
   -4.8404    2.5295   -0.0274 H   0  0  0  0  0  0  0  0  0  0  0  0
    4.4603   -0.9535   -1.0693 H   0  0  0  0  0  0  0  0  0  0  0  0
    4.5164   -0.8342    0.7201 H   0  0  0  0  0  0  0  0  0  0  0  0
    6.3657    0.4957   -0.3388 H   0  0  0  0  0  0  0  0  0  0  0  0
    5.1398    1.4789   -1.1906 H   0  0  0  0  0  0  0  0  0  0  0  0
  1 17  1  0  0  0  0
  2 15  1  0  0  0  0
  2 16  1  0  0  0  0
  3 15  2  0  0  0  0
  4  7  1  0  0  0  0
  4 15  1  0  0  0  0
  4 23  1  0  0  0  0
  5  6  1  0  0  0  0
  5  7  1  0  0  0  0
  5  8  2  0  0  0  0
  6  9  1  0  0  0  0
  6 11  2  0  0  0  0
  7 10  2  0  0  0  0
  8 13  1  0  0  0  0
  8 18  1  0  0  0  0
  9 12  2  0  0  0  0
  9 19  1  0  0  0  0
 10 12  1  0  0  0  0
 10 20  1  0  0  0  0
 11 14  1  0  0  0  0
 11 21  1  0  0  0  0
 12 22  1  0  0  0  0
 13 14  2  0  0  0  0
 13 24  1  0  0  0  0
 14 25  1  0  0  0  0
 16 17  1  0  0  0  0
 16 26  1  0  0  0  0
 16 27  1  0  0  0  0
 17 28  1  0  0  0  0
 17 29  1  0  0  0  0
M  END
> <PUBCHEM_COMPOUND_CID>
9573

> <PUBCHEM_CONFORMER_RMSD>
0.6

> <PUBCHEM_CONFORMER_DIVERSEORDER>
1
40
42
38
26
22
39
6
36
16
34
32
46
5
18
14
31
3
28
47
33
25
20
30
13
29
37
2
48
41
44
12
21
9
15
19
23
4
27
43
11
7
24
17
8
49
45
10
35

> <PUBCHEM_MMFF94_PARTIAL_CHARGES>
23
1 -0.34
10 -0.15
11 -0.15
12 -0.15
13 -0.15
14 -0.15
15 0.78
16 0.28
17 0.34
18 0.15
19 0.15
2 -0.43
20 0.15
21 0.15
22 0.15
23 0.37
24 0.15
25 0.15
3 -0.57
4 -0.55
7 0.12
8 -0.15
9 -0.15

> <PUBCHEM_EFFECTIVE_ROTOR_COUNT>
5

> <PUBCHEM_PHARMACOPHORE_FEATURES>
4
1 3 acceptor
1 4 donor
6 5 6 7 9 10 12 rings
6 5 6 8 11 13 14 rings

> <PUBCHEM_HEAVY_ATOM_COUNT>
17

> <PUBCHEM_ATOM_DEF_STEREO_COUNT>
0

> <PUBCHEM_ATOM_UDEF_STEREO_COUNT>
0

> <PUBCHEM_BOND_DEF_STEREO_COUNT>
0

> <PUBCHEM_BOND_UDEF_STEREO_COUNT>
0

> <PUBCHEM_ISOTOPIC_ATOM_COUNT>
0

> <PUBCHEM_COMPONENT_COUNT>
1

> <PUBCHEM_CACTVS_TAUTO_COUNT>
2

> <PUBCHEM_CONFORMER_ID>
0000256500000001

> <PUBCHEM_MMFF94_ENERGY>
47.532

> <PUBCHEM_FEATURE_SELFOVERLAP>
20.324

> <PUBCHEM_SHAPE_FINGERPRINT>
10014705 185 18412826888787718229
10319926 262 18337124393283885986
10411042 1 17762617283194833163
10493431 412 18336817715170446297
10608611 8 18408886260593724258
11595378 159 17703524258703917784
12107183 9 17910967060595904706
12173636 292 18339923817747752583
12390115 104 18117259540691030809
13214271 11 18336266760316487959
14508225 48 18046922480829832215
14790565 3 18047183331052431553
15042514 8 18268983199102634347
15196674 1 18411417353556811439
16087824 20 18409731747911054407
16945 1 18339642347672722131
1741750 31 18336826489176227914
17834072 32 18338514252241402508
20510252 161 18335415811773989139
20645477 56 18411694417607208524
20645477 70 16950552338183932086
22224240 67 18337378440678695537
23227448 37 18409167671309800428
23402539 116 18408890612086971359
23557571 272 18334845087650356094
23559900 14 18189054373267699902
245318 6 16768996335409995492
2748010 2 17908693279234517535
3071541 12 17617092951198754935
3545911 37 18410851088273512748
4214541 1 18411135849090069820
441001 317 18409168796839028104
474 4 17561073684177336772
5104073 3 18341610459995099610
573450 72 18272663333234431194
633830 44 17972600167352387797
7364860 26 17544475714464163967
9709674 26 18335976540945131406
9981440 41 18343021094574584379

> <PUBCHEM_SHAPE_MULTIPOLES>
325.86
9.74
2.6
0.63
14.67
0.16
-0.01
-5.04
-0.3
-1.99
-0.1
0.12
-0.05
0.38

> <PUBCHEM_SHAPE_SELFOVERLAP>
697.936

> <PUBCHEM_SHAPE_VOLUME>
180.3

> <PUBCHEM_COORDINATE_TYPE>
2
5
10

$$$$

