7727
  -OEChem-06261202162D

 26 26  0     1  0  0  0  0  0999 V2000
    3.7320   -1.1900    0.0000 N   0  0  0  0  0  0  0  0  0  0  0  0
    4.5981    0.3100    0.0000 C   0  0  3  0  0  0  0  0  0  0  0  0
    3.7320    0.8100    0.0000 C   0  0  0  0  0  0  0  0  0  0  0  0
    2.8660    0.3100    0.0000 C   0  0  0  0  0  0  0  0  0  0  0  0
    2.8660   -0.6900    0.0000 C   0  0  3  0  0  0  0  0  0  0  0  0
    4.5981   -0.6900    0.0000 C   0  0  0  0  0  0  0  0  0  0  0  0
    5.4641    0.8100    0.0000 C   0  0  0  0  0  0  0  0  0  0  0  0
    2.0000   -1.1900    0.0000 C   0  0  0  0  0  0  0  0  0  0  0  0
    5.4641    1.8100    0.0000 C   0  0  0  0  0  0  0  0  0  0  0  0
    4.5981    1.1600    0.0000 H   0  0  0  0  0  0  0  0  0  0  0  0
    4.1306    1.2850    0.0000 H   0  0  0  0  0  0  0  0  0  0  0  0
    3.3335    1.2850    0.0000 H   0  0  0  0  0  0  0  0  0  0  0  0
    2.6540    0.8926    0.0000 H   0  0  0  0  0  0  0  0  0  0  0  0
    2.2554    0.2023    0.0000 H   0  0  0  0  0  0  0  0  0  0  0  0
    2.8660   -1.5400    0.0000 H   0  0  0  0  0  0  0  0  0  0  0  0
    4.8101   -1.2726    0.0000 H   0  0  0  0  0  0  0  0  0  0  0  0
    5.2087   -0.5823    0.0000 H   0  0  0  0  0  0  0  0  0  0  0  0
    3.7320   -1.8100    0.0000 H   0  0  0  0  0  0  0  0  0  0  0  0
    5.6762    0.2274    0.0000 H   0  0  0  0  0  0  0  0  0  0  0  0
    6.0747    0.9177    0.0000 H   0  0  0  0  0  0  0  0  0  0  0  0
    1.6900   -0.6531    0.0000 H   0  0  0  0  0  0  0  0  0  0  0  0
    1.4631   -1.5000    0.0000 H   0  0  0  0  0  0  0  0  0  0  0  0
    2.3100   -1.7269    0.0000 H   0  0  0  0  0  0  0  0  0  0  0  0
    6.0841    1.8100    0.0000 H   0  0  0  0  0  0  0  0  0  0  0  0
    5.4641    2.4300    0.0000 H   0  0  0  0  0  0  0  0  0  0  0  0
    4.8441    1.8100    0.0000 H   0  0  0  0  0  0  0  0  0  0  0  0
  1  5  1  0  0  0  0
  1  6  1  0  0  0  0
  1 18  1  0  0  0  0
  2  3  1  0  0  0  0
  2  6  1  0  0  0  0
  2  7  1  0  0  0  0
  2 10  1  0  0  0  0
  3  4  1  0  0  0  0
  3 11  1  0  0  0  0
  3 12  1  0  0  0  0
  4  5  1  0  0  0  0
  4 13  1  0  0  0  0
  4 14  1  0  0  0  0
  5  8  1  0  0  0  0
  5 15  1  0  0  0  0
  6 16  1  0  0  0  0
  6 17  1  0  0  0  0
  7  9  1  0  0  0  0
  7 19  1  0  0  0  0
  7 20  1  0  0  0  0
  8 21  1  0  0  0  0
  8 22  1  0  0  0  0
  8 23  1  0  0  0  0
  9 24  1  0  0  0  0
  9 25  1  0  0  0  0
  9 26  1  0  0  0  0
M  END
> <PUBCHEM_COMPOUND_CID>
7727

> <PUBCHEM_COMPOUND_CANONICALIZED>
1

> <PUBCHEM_CACTVS_COMPLEXITY>
80.6

> <PUBCHEM_CACTVS_HBOND_ACCEPTOR>
1

> <PUBCHEM_CACTVS_HBOND_DONOR>
1

> <PUBCHEM_CACTVS_ROTATABLE_BOND>
1

> <PUBCHEM_CACTVS_SUBSKEYS>
AAADceByAAAAAAAAAAAAAAAAAAAAAAAAAAAsAAAAAAAAAAAAAAAAHAAQAAAADSjBAAQCAALAAAAAAAAAAAAAAAAAAAAAAIAIAAAAAAIAgAAEAAAAEACAAAEQgAAOAAAAAAAAAAAAAAAAAAAAAAAAAAAAAA==

> <PUBCHEM_IUPAC_OPENEYE_NAME>
5-ethyl-2-methyl-piperidine

> <PUBCHEM_IUPAC_CAS_NAME>
5-ethyl-2-methylpiperidine

> <PUBCHEM_IUPAC_NAME>
5-ethyl-2-methylpiperidine

> <PUBCHEM_IUPAC_SYSTEMATIC_NAME>
5-ethyl-2-methyl-piperidine

> <PUBCHEM_IUPAC_TRADITIONAL_NAME>
5-ethyl-2-methyl-piperidine

> <PUBCHEM_IUPAC_INCHI>
InChI=1S/C8H17N/c1-3-8-5-4-7(2)9-6-8/h7-9H,3-6H2,1-2H3

> <PUBCHEM_IUPAC_INCHIKEY>
XOFNHZHCGBPVGJ-UHFFFAOYSA-N

> <PUBCHEM_XLOGP3_AA>
1.9

> <PUBCHEM_EXACT_MASS>
127.1361

> <PUBCHEM_MOLECULAR_FORMULA>
C8H17N

> <PUBCHEM_MOLECULAR_WEIGHT>
127.22728

> <PUBCHEM_OPENEYE_CAN_SMILES>
CCC1CCC(NC1)C

> <PUBCHEM_OPENEYE_ISO_SMILES>
CCC1CCC(NC1)C

> <PUBCHEM_CACTVS_TPSA>
12

> <PUBCHEM_MONOISOTOPIC_WEIGHT>
127.1361

> <PUBCHEM_TOTAL_CHARGE>
0

> <PUBCHEM_HEAVY_ATOM_COUNT>
9

> <PUBCHEM_ATOM_DEF_STEREO_COUNT>
0

> <PUBCHEM_ATOM_UDEF_STEREO_COUNT>
2

> <PUBCHEM_BOND_DEF_STEREO_COUNT>
0

> <PUBCHEM_BOND_UDEF_STEREO_COUNT>
0

> <PUBCHEM_ISOTOPIC_ATOM_COUNT>
0

> <PUBCHEM_COMPONENT_COUNT>
1

> <PUBCHEM_CACTVS_TAUTO_COUNT>
1

> <PUBCHEM_COORDINATE_TYPE>
1
5
255

> <PUBCHEM_BONDANNOTATIONS>
2  10  3
5  15  3

$$$$

