586142
  -OEChem-06241222452D

 31 31  0     1  0  0  0  0  0999 V2000
    3.7601   -2.8370    0.0000 O   0  0  0  0  0  0  0  0  0  0  0  0
    5.0289    2.2334    0.0000 O   0  0  0  0  0  0  0  0  0  0  0  0
    3.7601   -1.8370    0.0000 N   0  0  3  0  0  0  0  0  0  0  0  0
    3.2601   -0.2981    0.0000 N   0  0  0  0  0  0  0  0  0  0  0  0
    4.4411    1.4244    0.0000 N   0  0  0  0  0  0  0  0  0  0  0  0
    4.5691   -1.2492    0.0000 C   0  0  0  0  0  0  0  0  0  0  0  0
    2.9511   -1.2492    0.0000 C   0  0  0  0  0  0  0  0  0  0  0  0
    4.2601   -0.2981    0.0000 C   0  0  0  0  0  0  0  0  0  0  0  0
    5.5201   -0.9402    0.0000 C   0  0  0  0  0  0  0  0  0  0  0  0
    5.1569   -2.0582    0.0000 C   0  0  0  0  0  0  0  0  0  0  0  0
    2.3633   -2.0582    0.0000 C   0  0  0  0  0  0  0  0  0  0  0  0
    2.0000   -0.9402    0.0000 C   0  0  0  0  0  0  0  0  0  0  0  0
    4.8479    0.5109    0.0000 C   0  0  0  0  0  0  0  0  0  0  0  0
    4.6222    3.1470    0.0000 C   0  0  0  0  0  0  0  0  0  0  0  0
    5.7117   -1.5298    0.0000 H   0  0  0  0  0  0  0  0  0  0  0  0
    6.1098   -0.7486    0.0000 H   0  0  0  0  0  0  0  0  0  0  0  0
    5.3286   -0.3505    0.0000 H   0  0  0  0  0  0  0  0  0  0  0  0
    5.6585   -1.6938    0.0000 H   0  0  0  0  0  0  0  0  0  0  0  0
    5.5213   -2.5598    0.0000 H   0  0  0  0  0  0  0  0  0  0  0  0
    4.6553   -2.4226    0.0000 H   0  0  0  0  0  0  0  0  0  0  0  0
    1.8617   -1.6938    0.0000 H   0  0  0  0  0  0  0  0  0  0  0  0
    1.9988   -2.5598    0.0000 H   0  0  0  0  0  0  0  0  0  0  0  0
    2.8649   -2.4226    0.0000 H   0  0  0  0  0  0  0  0  0  0  0  0
    2.1916   -0.3505    0.0000 H   0  0  0  0  0  0  0  0  0  0  0  0
    1.4103   -0.7486    0.0000 H   0  0  0  0  0  0  0  0  0  0  0  0
    1.8084   -1.5298    0.0000 H   0  0  0  0  0  0  0  0  0  0  0  0
    5.4645    0.4461    0.0000 H   0  0  0  0  0  0  0  0  0  0  0  0
    3.2231   -3.1470    0.0000 H   0  0  0  0  0  0  0  0  0  0  0  0
    4.0558    2.8948    0.0000 H   0  0  0  0  0  0  0  0  0  0  0  0
    4.3700    3.7134    0.0000 H   0  0  0  0  0  0  0  0  0  0  0  0
    5.1886    3.3992    0.0000 H   0  0  0  0  0  0  0  0  0  0  0  0
  1  3  1  0  0  0  0
  1 28  1  0  0  0  0
  2  5  1  0  0  0  0
  2 14  1  0  0  0  0
  3  6  1  0  0  0  0
  3  7  1  0  0  0  0
  4  7  1  0  0  0  0
  4  8  2  0  0  0  0
  5 13  2  3  0  0  0
  6  8  1  0  0  0  0
  6  9  1  0  0  0  0
  6 10  1  0  0  0  0
  7 11  1  0  0  0  0
  7 12  1  0  0  0  0
  8 13  1  0  0  0  0
  9 15  1  0  0  0  0
  9 16  1  0  0  0  0
  9 17  1  0  0  0  0
 10 18  1  0  0  0  0
 10 19  1  0  0  0  0
 10 20  1  0  0  0  0
 11 21  1  0  0  0  0
 11 22  1  0  0  0  0
 11 23  1  0  0  0  0
 12 24  1  0  0  0  0
 12 25  1  0  0  0  0
 12 26  1  0  0  0  0
 13 27  1  0  0  0  0
 14 29  1  0  0  0  0
 14 30  1  0  0  0  0
 14 31  1  0  0  0  0
M  END
> <PUBCHEM_COMPOUND_CID>
586142

> <PUBCHEM_COMPOUND_CANONICALIZED>
1

> <PUBCHEM_CACTVS_COMPLEXITY>
282

> <PUBCHEM_CACTVS_HBOND_ACCEPTOR>
5

> <PUBCHEM_CACTVS_HBOND_DONOR>
1

> <PUBCHEM_CACTVS_ROTATABLE_BOND>
2

> <PUBCHEM_CACTVS_SUBSKEYS>
AAADceBzMAAAAAAAAAAAAAAAAAAAAQAAAAAAAAAAAAAAAAAAAAAAHgAECAAADIjBAAYDAAIQAAAgARAhBAAAAAAAAAAgAAAwAACAAAAAAAAEAAAAAAKAAAAAAAAIAAAAAAAAAAAAAAAAAAAAAAAAAAAAAA==

> <PUBCHEM_IUPAC_OPENEYE_NAME>
1-(1-hydroxy-2,2,5,5-tetramethyl-imidazol-4-yl)-N-methoxy-methanimine

> <PUBCHEM_IUPAC_CAS_NAME>
1-(1-hydroxy-2,2,5,5-tetramethyl-4-imidazolyl)-N-methoxymethanimine

> <PUBCHEM_IUPAC_NAME>
1-(1-hydroxy-2,2,5,5-tetramethylimidazol-4-yl)-N-methoxymethanimine

> <PUBCHEM_IUPAC_SYSTEMATIC_NAME>
N-methoxy-1-(2,2,5,5-tetramethyl-1-oxidanyl-imidazol-4-yl)methanimine

> <PUBCHEM_IUPAC_TRADITIONAL_NAME>
(1-hydroxy-2,2,5,5-tetramethyl-3-imidazolin-4-yl)methylene-methoxy-amine

> <PUBCHEM_IUPAC_INCHI>
InChI=1S/C9H17N3O2/c1-8(2)7(6-10-14-5)11-9(3,4)12(8)13/h6,13H,1-5H3

> <PUBCHEM_IUPAC_INCHIKEY>
TYYMOCQXZWEQFQ-UHFFFAOYSA-N

> <PUBCHEM_XLOGP3_AA>
0.7

> <PUBCHEM_EXACT_MASS>
199.132077

> <PUBCHEM_MOLECULAR_FORMULA>
C9H17N3O2

> <PUBCHEM_MOLECULAR_WEIGHT>
199.25018

> <PUBCHEM_OPENEYE_CAN_SMILES>
CC1(C(=NC(N1O)(C)C)C=NOC)C

> <PUBCHEM_OPENEYE_ISO_SMILES>
CC1(C(=NC(N1O)(C)C)C=NOC)C

> <PUBCHEM_CACTVS_TPSA>
57.4

> <PUBCHEM_MONOISOTOPIC_WEIGHT>
199.132077

> <PUBCHEM_TOTAL_CHARGE>
0

> <PUBCHEM_HEAVY_ATOM_COUNT>
14

> <PUBCHEM_ATOM_DEF_STEREO_COUNT>
0

> <PUBCHEM_ATOM_UDEF_STEREO_COUNT>
0

> <PUBCHEM_BOND_DEF_STEREO_COUNT>
0

> <PUBCHEM_BOND_UDEF_STEREO_COUNT>
1

> <PUBCHEM_ISOTOPIC_ATOM_COUNT>
0

> <PUBCHEM_COMPONENT_COUNT>
1

> <PUBCHEM_CACTVS_TAUTO_COUNT>
1

> <PUBCHEM_COORDINATE_TYPE>
1
5
255

> <PUBCHEM_BONDANNOTATIONS>
5  13  1

$$$$

