17395709
  -OEChem-06241222523D

 38 39  0     1  0  0  0  0  0999 V2000
    0.2782    2.2415   -1.6230 S   0  0  0  0  0  0  0  0  0  0  0  0
   -3.7663   -1.3595    0.1680 S   0  0  0  0  0  0  0  0  0  0  0  0
   -2.4842    2.3304    0.4005 O   0  0  0  0  0  0  0  0  0  0  0  0
    2.0391   -1.2609   -1.4228 N   0  0  0  0  0  0  0  0  0  0  0  0
    1.9121    0.6116   -0.1150 N   0  0  0  0  0  0  0  0  0  0  0  0
   -0.8982    0.8280    1.1833 N   0  0  0  0  0  0  0  0  0  0  0  0
    1.2680   -0.3179   -1.9850 N   0  0  0  0  0  0  0  0  0  0  0  0
    3.2900   -1.3379    0.6707 C   0  0  0  0  0  0  0  0  0  0  0  0
    2.4040   -0.6497   -0.2938 C   0  0  0  0  0  0  0  0  0  0  0  0
   -0.1438    2.8291    0.0504 C   0  0  2  0  0  0  0  0  0  0  0  0
    2.6231   -1.5714    2.0459 C   0  0  0  0  0  0  0  0  0  0  0  0
    4.6430   -0.6171    0.8720 C   0  0  0  0  0  0  0  0  0  0  0  0
   -1.3117    1.9950    0.5564 C   0  0  0  0  0  0  0  0  0  0  0  0
    1.1974    0.7917   -1.2014 C   0  0  0  0  0  0  0  0  0  0  0  0
   -1.8265   -0.1342    1.7296 C   0  0  0  0  0  0  0  0  0  0  0  0
   -0.4894    4.3117    0.0031 C   0  0  0  0  0  0  0  0  0  0  0  0
   -2.1475   -1.1664    0.6921 C   0  0  0  0  0  0  0  0  0  0  0  0
   -1.2908   -2.0378    0.0560 C   0  0  0  0  0  0  0  0  0  0  0  0
   -1.9724   -2.8748   -0.8739 C   0  0  0  0  0  0  0  0  0  0  0  0
   -3.3239   -2.6114   -0.9132 C   0  0  0  0  0  0  0  0  0  0  0  0
    3.5313   -2.3351    0.2754 H   0  0  0  0  0  0  0  0  0  0  0  0
    0.7136    2.7149    0.7229 H   0  0  0  0  0  0  0  0  0  0  0  0
    2.3725   -0.6205    2.5290 H   0  0  0  0  0  0  0  0  0  0  0  0
    3.2887   -2.1303    2.7119 H   0  0  0  0  0  0  0  0  0  0  0  0
    1.6958   -2.1433    1.9341 H   0  0  0  0  0  0  0  0  0  0  0  0
    4.4982    0.3787    1.3053 H   0  0  0  0  0  0  0  0  0  0  0  0
    5.1603   -0.4932   -0.0856 H   0  0  0  0  0  0  0  0  0  0  0  0
    5.2944   -1.1907    1.5395 H   0  0  0  0  0  0  0  0  0  0  0  0
    2.2128   -2.1636   -1.8563 H   0  0  0  0  0  0  0  0  0  0  0  0
   -2.7192    0.3868    2.0919 H   0  0  0  0  0  0  0  0  0  0  0  0
   -1.3388   -0.6094    2.5875 H   0  0  0  0  0  0  0  0  0  0  0  0
    0.3663    4.9099   -0.3287 H   0  0  0  0  0  0  0  0  0  0  0  0
   -0.7747    4.6669    1.0000 H   0  0  0  0  0  0  0  0  0  0  0  0
   -1.3341    4.5192   -0.6643 H   0  0  0  0  0  0  0  0  0  0  0  0
    0.0937    0.6335    1.2800 H   0  0  0  0  0  0  0  0  0  0  0  0
   -0.2300   -2.0881    0.2565 H   0  0  0  0  0  0  0  0  0  0  0  0
   -1.4959   -3.6338   -1.4805 H   0  0  0  0  0  0  0  0  0  0  0  0
   -4.0728   -3.0949   -1.5245 H   0  0  0  0  0  0  0  0  0  0  0  0
  1 10  1  0  0  0  0
  1 14  1  0  0  0  0
  2 17  1  0  0  0  0
  2 20  1  0  0  0  0
  3 13  2  0  0  0  0
  4  7  1  0  0  0  0
  4  9  1  0  0  0  0
  4 29  1  0  0  0  0
  5  9  2  0  0  0  0
  5 14  1  0  0  0  0
  6 13  1  0  0  0  0
  6 15  1  0  0  0  0
  6 35  1  0  0  0  0
  7 14  2  0  0  0  0
  8  9  1  0  0  0  0
  8 11  1  0  0  0  0
  8 12  1  0  0  0  0
  8 21  1  0  0  0  0
 10 13  1  0  0  0  0
 10 16  1  0  0  0  0
 10 22  1  0  0  0  0
 11 23  1  0  0  0  0
 11 24  1  0  0  0  0
 11 25  1  0  0  0  0
 12 26  1  0  0  0  0
 12 27  1  0  0  0  0
 12 28  1  0  0  0  0
 15 17  1  0  0  0  0
 15 30  1  0  0  0  0
 15 31  1  0  0  0  0
 16 32  1  0  0  0  0
 16 33  1  0  0  0  0
 16 34  1  0  0  0  0
 17 18  2  0  0  0  0
 18 19  1  0  0  0  0
 18 36  1  0  0  0  0
 19 20  2  0  0  0  0
 19 37  1  0  0  0  0
 20 38  1  0  0  0  0
M  END
> <PUBCHEM_COMPOUND_CID>
17395709

> <PUBCHEM_CONFORMER_RMSD>
1.2

> <PUBCHEM_CONFORMER_DIVERSEORDER>
1
54
22
40
77
79
21
9
51
26
25
36
47
55
5
38
34
31
30
15
74
14
19
10
67
88
43
84
53
20
90
17
68
63
65
8
39
59
91
3
2
12
62
45
24
49
6
58
11
33
41
50
16
80
89
78
32
7
18
75
83
73
35
81
76
85
70
69
44
87
23
46
13
61
60
4
86
52
92
37
82
71
29
57
42
72
64
27
56
66
48
28

> <PUBCHEM_MMFF94_PARTIAL_CHARGES>
22
1 -0.28
10 0.29
13 0.57
14 0.57
15 0.48
17 -0.14
18 -0.15
19 -0.15
2 -0.08
20 -0.11
29 0.27
3 -0.57
35 0.37
36 0.15
37 0.15
38 0.15
4 0.3
5 -0.57
6 -0.73
7 -0.71
8 0.18
9 0.01

> <PUBCHEM_EFFECTIVE_ROTOR_COUNT>
7

> <PUBCHEM_PHARMACOPHORE_FEATURES>
9
1 16 hydrophobe
1 3 acceptor
1 4 donor
1 6 donor
3 4 5 9 cation
3 5 7 14 cation
3 8 11 12 hydrophobe
5 2 17 18 19 20 rings
5 4 5 7 9 14 rings

> <PUBCHEM_HEAVY_ATOM_COUNT>
20

> <PUBCHEM_ATOM_DEF_STEREO_COUNT>
0

> <PUBCHEM_ATOM_UDEF_STEREO_COUNT>
1

> <PUBCHEM_BOND_DEF_STEREO_COUNT>
0

> <PUBCHEM_BOND_UDEF_STEREO_COUNT>
0

> <PUBCHEM_ISOTOPIC_ATOM_COUNT>
0

> <PUBCHEM_COMPONENT_COUNT>
1

> <PUBCHEM_CACTVS_TAUTO_COUNT>
10

> <PUBCHEM_CONFORMER_ID>
01096FFD00000001

> <PUBCHEM_MMFF94_ENERGY>
30.6375

> <PUBCHEM_FEATURE_SELFOVERLAP>
48.418

> <PUBCHEM_SHAPE_FINGERPRINT>
11265709 11 18411700945952217219
11321824 6 18268975639558649497
11370993 70 17688881155844080824
11578080 2 17916044411376484948
12403259 327 15215790191884544267
12553582 1 18265030480116421927
12633257 1 18040715926278974002
12788726 201 18340753931926332461
13004483 165 18340787999511914010
13083527 12 18192161390620461520
13583140 156 17534659107279810834
13931106 250 18339367490686817805
14081887 123 18338527429791586008
14251757 17 14907637721362148570
19777482 4 16412693321211608930
20600515 1 18187926118964197159
20626108 58 17898585172134805487
21421861 104 18193824952029746129
22112679 90 18339625789898484986
22182313 1 15541197521430687973
23419403 2 17753366142898027865
23557571 272 18040995158908469106
238 59 16966886343260057191
257057 1 18339082588189132701
2748010 2 16830626633141262673
35225 105 17901699233486997426
484985 159 17483990389887983762
6338986 31 18411135792791329803
81228 2 18189034500042324539
85463 6 18272657878404399554
90316 7 18408881854105114867

> <PUBCHEM_SHAPE_MULTIPOLES>
393.5
5.96
4.3
1.71
1.35
4.7
-0.1
-5.9
1.05
-1.27
-0.17
0.52
-0.33
-1.54

> <PUBCHEM_SHAPE_SELFOVERLAP>
784.466

> <PUBCHEM_SHAPE_VOLUME>
236

> <PUBCHEM_COORDINATE_TYPE>
2
5
10

$$$$

