586173
  -OEChem-06241222453D

 33 34  0     0  0  0  0  0  0999 V2000
   -1.5172   -1.0985   -1.3400 S   0  0  0  0  0  0  0  0  0  0  0  0
    1.5175   -1.0977   -1.3407 S   0  0  0  0  0  0  0  0  0  0  0  0
   -3.6771   -0.7911    0.3935 C   0  0  0  0  0  0  0  0  0  0  0  0
    3.6775   -0.7910    0.3930 C   0  0  0  0  0  0  0  0  0  0  0  0
   -2.7817   -0.1726   -0.4790 C   0  0  0  0  0  0  0  0  0  0  0  0
    2.7808   -0.1731   -0.4802 C   0  0  0  0  0  0  0  0  0  0  0  0
   -0.0002   -0.2913   -0.7303 C   0  0  0  0  0  0  0  0  0  0  0  0
   -4.6501   -0.0344    1.0464 C   0  0  0  0  0  0  0  0  0  0  0  0
    4.6502   -0.0345    1.0467 C   0  0  0  0  0  0  0  0  0  0  0  0
   -2.8593    1.2027   -0.6985 C   0  0  0  0  0  0  0  0  0  0  0  0
    2.8595    1.2032   -0.6980 C   0  0  0  0  0  0  0  0  0  0  0  0
   -3.6347   -2.2615    0.6620 C   0  0  0  0  0  0  0  0  0  0  0  0
    3.6353   -2.2616    0.6605 C   0  0  0  0  0  0  0  0  0  0  0  0
   -4.7276    1.3411    0.8269 C   0  0  0  0  0  0  0  0  0  0  0  0
    4.7274    1.3410    0.8278 C   0  0  0  0  0  0  0  0  0  0  0  0
   -3.8322    1.9595   -0.0455 C   0  0  0  0  0  0  0  0  0  0  0  0
    3.8322    1.9599   -0.0445 C   0  0  0  0  0  0  0  0  0  0  0  0
    0.0001   -0.3231    0.3636 H   0  0  0  0  0  0  0  0  0  0  0  0
   -0.0004    0.7525   -1.0532 H   0  0  0  0  0  0  0  0  0  0  0  0
   -5.3568   -0.4981    1.7297 H   0  0  0  0  0  0  0  0  0  0  0  0
    5.3567   -0.4984    1.7298 H   0  0  0  0  0  0  0  0  0  0  0  0
   -2.1815    1.7087   -1.3813 H   0  0  0  0  0  0  0  0  0  0  0  0
    2.1817    1.7100   -1.3804 H   0  0  0  0  0  0  0  0  0  0  0  0
   -3.8054   -2.8281   -0.2594 H   0  0  0  0  0  0  0  0  0  0  0  0
   -2.6714   -2.5476    1.0970 H   0  0  0  0  0  0  0  0  0  0  0  0
   -4.4096   -2.5683    1.3736 H   0  0  0  0  0  0  0  0  0  0  0  0
    2.6721   -2.5481    1.0956 H   0  0  0  0  0  0  0  0  0  0  0  0
    3.8057   -2.8277   -0.2612 H   0  0  0  0  0  0  0  0  0  0  0  0
    4.4105   -2.5688    1.3716 H   0  0  0  0  0  0  0  0  0  0  0  0
   -5.4855    1.9304    1.3346 H   0  0  0  0  0  0  0  0  0  0  0  0
    5.4851    1.9302    1.3361 H   0  0  0  0  0  0  0  0  0  0  0  0
   -3.8943    3.0300   -0.2182 H   0  0  0  0  0  0  0  0  0  0  0  0
    3.8942    3.0305   -0.2164 H   0  0  0  0  0  0  0  0  0  0  0  0
  1  5  1  0  0  0  0
  1  7  1  0  0  0  0
  2  6  1  0  0  0  0
  2  7  1  0  0  0  0
  3  5  1  0  0  0  0
  3  8  2  0  0  0  0
  3 12  1  0  0  0  0
  4  6  1  0  0  0  0
  4  9  2  0  0  0  0
  4 13  1  0  0  0  0
  5 10  2  0  0  0  0
  6 11  2  0  0  0  0
  7 18  1  0  0  0  0
  7 19  1  0  0  0  0
  8 14  1  0  0  0  0
  8 20  1  0  0  0  0
  9 15  1  0  0  0  0
  9 21  1  0  0  0  0
 10 16  1  0  0  0  0
 10 22  1  0  0  0  0
 11 17  1  0  0  0  0
 11 23  1  0  0  0  0
 12 24  1  0  0  0  0
 12 25  1  0  0  0  0
 12 26  1  0  0  0  0
 13 27  1  0  0  0  0
 13 28  1  0  0  0  0
 13 29  1  0  0  0  0
 14 16  2  0  0  0  0
 14 30  1  0  0  0  0
 15 17  2  0  0  0  0
 15 31  1  0  0  0  0
 16 32  1  0  0  0  0
 17 33  1  0  0  0  0
M  END
> <PUBCHEM_COMPOUND_CID>
586173

> <PUBCHEM_CONFORMER_RMSD>
0.6

> <PUBCHEM_CONFORMER_DIVERSEORDER>
4
45
30
44
21
39
43
16
6
20
27
19
7
14
10
46
35
13
15
8
34
36
17
22
25
18
28
33
23
11
42
9
41
31
49
5
12
47
40
3
24
32
29
26
1
48
37
2
38

> <PUBCHEM_MMFF94_PARTIAL_CHARGES>
25
1 -0.33
10 -0.15
11 -0.15
12 0.14
13 0.14
14 -0.15
15 -0.15
16 -0.15
17 -0.15
2 -0.33
20 0.15
21 0.15
22 0.15
23 0.15
3 -0.14
30 0.15
31 0.15
32 0.15
33 0.15
4 -0.14
5 0.1
6 0.1
7 0.46
8 -0.15
9 -0.15

> <PUBCHEM_EFFECTIVE_ROTOR_COUNT>
4

> <PUBCHEM_PHARMACOPHORE_FEATURES>
2
6 3 5 8 10 14 16 rings
6 4 6 9 11 15 17 rings

> <PUBCHEM_HEAVY_ATOM_COUNT>
17

> <PUBCHEM_ATOM_DEF_STEREO_COUNT>
0

> <PUBCHEM_ATOM_UDEF_STEREO_COUNT>
0

> <PUBCHEM_BOND_DEF_STEREO_COUNT>
0

> <PUBCHEM_BOND_UDEF_STEREO_COUNT>
0

> <PUBCHEM_ISOTOPIC_ATOM_COUNT>
0

> <PUBCHEM_COMPONENT_COUNT>
1

> <PUBCHEM_CACTVS_TAUTO_COUNT>
1

> <PUBCHEM_CONFORMER_ID>
0008F1BD00000004

> <PUBCHEM_MMFF94_ENERGY>
47.4691

> <PUBCHEM_FEATURE_SELFOVERLAP>
10.149

> <PUBCHEM_SHAPE_FINGERPRINT>
10498660 4 16081089268406673354
11370993 144 18270964664651517471
11405975 8 18411136982418454890
11552529 35 18269276755379230419
12107183 9 17981048831479050859
12363563 72 14117802413893485702
12403259 118 18334582312771373861
12596602 18 17703792479063270089
12633257 1 17846497006673883260
12670546 56 18342461447772370111
12788726 201 17388846104998111615
12892183 10 18341894060795946310
13533116 47 18202564016508203299
13583140 156 18201453483508497278
13675066 3 18130509720614229526
14123260 362 15936406736894838751
1420 369 14476958982470765265
14341114 176 18341608256708212592
14341114 328 18272928284955021572
14576447 43 10375874100068198756
15188451 53 17060058091172384659
1813 80 15984817159776008414
19050596 39 18342457032202884206
193927 3 13758075224867340580
20645477 70 11959727179484535602
20671657 53 12751234796509408039
20715895 44 17973163121664716329
20871999 31 8286201651963781639
21065198 48 18412266112177542958
21065198 57 18341049713175160599
21065199 12 18341894099471685863
21503847 285 18335699473052765470
21859007 373 17415851446985826021
21864079 5 18040719130134815212
22646028 1 14908181949452399429
23403322 49 11600004341081206189
23503953 91 17989203750440337405
235170 7 5978101310887000793
23559900 14 18192692635099119079
27216 239 18259701199370919879
2838139 119 15650176222835517048
341906 21 16878236298266936658
351380 3 13542458778373115297
38570 142 17913469278657794212
4259306 186 11672059731531827473
5104073 3 18410292523070393923
5924683 9 18339927013710348671
633830 44 18113900480933168334
7808743 9 17897167910357518324
90127 26 18259978275747445950
960060 61 9727629501361092794

> <PUBCHEM_SHAPE_MULTIPOLES>
357.55
12.6
2.28
1.26
0
0.12
0.13
-3.06
-5.01
0
-0.25
0
0.26
0

> <PUBCHEM_SHAPE_SELFOVERLAP>
721.255

> <PUBCHEM_SHAPE_VOLUME>
209

> <PUBCHEM_COORDINATE_TYPE>
2
5
10

$$$$

