47205614
  -OEChem-06241222593D

 41 41  0     0  0  0  0  0  0999 V2000
   -3.9094    0.0679   -1.4543 O   0  0  0  0  0  0  0  0  0  0  0  0
   -1.1199   -0.4499    0.8533 O   0  0  0  0  0  0  0  0  0  0  0  0
    0.2186    1.2599   -0.0434 N   0  0  0  0  0  0  0  0  0  0  0  0
   -3.3688    1.0121    0.5964 N   0  0  0  0  0  0  0  0  0  0  0  0
    5.4423   -1.0105    0.0487 C   0  0  0  0  0  0  0  0  0  0  0  0
    4.0746   -0.4160    0.0255 C   0  0  0  0  0  0  0  0  0  0  0  0
    6.4102   -0.2256    0.9541 C   0  0  0  0  0  0  0  0  0  0  0  0
    6.0460   -1.1542   -1.3612 C   0  0  0  0  0  0  0  0  0  0  0  0
    2.9857   -1.1524    0.4921 C   0  0  0  0  0  0  0  0  0  0  0  0
    3.8844    0.8764   -0.4638 C   0  0  0  0  0  0  0  0  0  0  0  0
    1.5163    0.6960   -0.0193 C   0  0  0  0  0  0  0  0  0  0  0  0
    1.7065   -0.5964    0.4700 C   0  0  0  0  0  0  0  0  0  0  0  0
    2.6052    1.4323   -0.4861 C   0  0  0  0  0  0  0  0  0  0  0  0
   -5.4014   -0.2613    0.4238 C   0  0  0  0  0  0  0  0  0  0  0  0
   -6.2878   -1.0764   -0.5132 C   0  0  0  0  0  0  0  0  0  0  0  0
   -2.1323    1.6269    0.1755 C   0  0  0  0  0  0  0  0  0  0  0  0
   -0.9706    0.6711    0.3782 C   0  0  0  0  0  0  0  0  0  0  0  0
   -4.1620    0.2743   -0.2703 C   0  0  0  0  0  0  0  0  0  0  0  0
   -7.5377   -1.5741    0.1940 C   0  0  0  0  0  0  0  0  0  0  0  0
    5.3808   -2.0252    0.4654 H   0  0  0  0  0  0  0  0  0  0  0  0
    7.0063   -1.6792   -1.3157 H   0  0  0  0  0  0  0  0  0  0  0  0
    5.3790   -1.7292   -2.0132 H   0  0  0  0  0  0  0  0  0  0  0  0
    6.2201   -0.1814   -1.8334 H   0  0  0  0  0  0  0  0  0  0  0  0
    6.0054   -0.1326    1.9680 H   0  0  0  0  0  0  0  0  0  0  0  0
    7.3743   -0.7410    1.0230 H   0  0  0  0  0  0  0  0  0  0  0  0
    6.5986    0.7843    0.5741 H   0  0  0  0  0  0  0  0  0  0  0  0
    3.1175   -2.1607    0.8761 H   0  0  0  0  0  0  0  0  0  0  0  0
    4.7179    1.4678   -0.8324 H   0  0  0  0  0  0  0  0  0  0  0  0
    0.9145   -1.2275    0.8477 H   0  0  0  0  0  0  0  0  0  0  0  0
    2.4706    2.4403   -0.8702 H   0  0  0  0  0  0  0  0  0  0  0  0
   -5.9633    0.5911    0.8241 H   0  0  0  0  0  0  0  0  0  0  0  0
   -5.0808   -0.8812    1.2697 H   0  0  0  0  0  0  0  0  0  0  0  0
   -6.5809   -0.4666   -1.3762 H   0  0  0  0  0  0  0  0  0  0  0  0
   -5.7275   -1.9331   -0.9063 H   0  0  0  0  0  0  0  0  0  0  0  0
    0.1671    2.2060   -0.4152 H   0  0  0  0  0  0  0  0  0  0  0  0
   -1.9789    2.5219    0.7861 H   0  0  0  0  0  0  0  0  0  0  0  0
   -2.1966    1.9090   -0.8804 H   0  0  0  0  0  0  0  0  0  0  0  0
   -3.6490    1.1150    1.5675 H   0  0  0  0  0  0  0  0  0  0  0  0
   -8.1378   -0.7374    0.5657 H   0  0  0  0  0  0  0  0  0  0  0  0
   -8.1570   -2.1564   -0.4954 H   0  0  0  0  0  0  0  0  0  0  0  0
   -7.2789   -2.2155    1.0426 H   0  0  0  0  0  0  0  0  0  0  0  0
  1 18  2  0  0  0  0
  2 17  2  0  0  0  0
  3 11  1  0  0  0  0
  3 17  1  0  0  0  0
  3 35  1  0  0  0  0
  4 16  1  0  0  0  0
  4 18  1  0  0  0  0
  4 38  1  0  0  0  0
  5  6  1  0  0  0  0
  5  7  1  0  0  0  0
  5  8  1  0  0  0  0
  5 20  1  0  0  0  0
  6  9  2  0  0  0  0
  6 10  1  0  0  0  0
  7 24  1  0  0  0  0
  7 25  1  0  0  0  0
  7 26  1  0  0  0  0
  8 21  1  0  0  0  0
  8 22  1  0  0  0  0
  8 23  1  0  0  0  0
  9 12  1  0  0  0  0
  9 27  1  0  0  0  0
 10 13  2  0  0  0  0
 10 28  1  0  0  0  0
 11 12  2  0  0  0  0
 11 13  1  0  0  0  0
 12 29  1  0  0  0  0
 13 30  1  0  0  0  0
 14 15  1  0  0  0  0
 14 18  1  0  0  0  0
 14 31  1  0  0  0  0
 14 32  1  0  0  0  0
 15 19  1  0  0  0  0
 15 33  1  0  0  0  0
 15 34  1  0  0  0  0
 16 17  1  0  0  0  0
 16 36  1  0  0  0  0
 16 37  1  0  0  0  0
 19 39  1  0  0  0  0
 19 40  1  0  0  0  0
 19 41  1  0  0  0  0
M  END
> <PUBCHEM_COMPOUND_CID>
47205614

> <PUBCHEM_CONFORMER_RMSD>
0.8

> <PUBCHEM_CONFORMER_DIVERSEORDER>
1
96
50
78
76
28
37
91
46
60
97
38
73
23
66
6
41
56
22
70
75
45
74
8
43
32
65
86
11
53
61
58
82
55
16
34
13
84
68
64
17
36
93
94
15
100
33
99
24
29
79
31
49
69
25
81
88
12
48
85
20
18
92
4
2
59
9
27
26
98
89
35
14
10
39
80
95
42
71
44
7
54
67
63
57
30
77
83
5
21
87
40
19
62
52
90
72
47
3
51

> <PUBCHEM_MMFF94_PARTIAL_CHARGES>
21
1 -0.57
10 -0.15
11 0.12
12 -0.15
13 -0.15
14 0.06
16 0.36
17 0.57
18 0.57
2 -0.57
27 0.15
28 0.15
29 0.15
3 -0.55
30 0.15
35 0.37
38 0.37
4 -0.73
5 0.14
6 -0.14
9 -0.15

> <PUBCHEM_EFFECTIVE_ROTOR_COUNT>
8

> <PUBCHEM_PHARMACOPHORE_FEATURES>
7
1 1 acceptor
1 19 hydrophobe
1 2 acceptor
1 3 donor
1 4 donor
3 5 7 8 hydrophobe
6 6 9 10 11 12 13 rings

> <PUBCHEM_HEAVY_ATOM_COUNT>
19

> <PUBCHEM_ATOM_DEF_STEREO_COUNT>
0

> <PUBCHEM_ATOM_UDEF_STEREO_COUNT>
0

> <PUBCHEM_BOND_DEF_STEREO_COUNT>
0

> <PUBCHEM_BOND_UDEF_STEREO_COUNT>
0

> <PUBCHEM_ISOTOPIC_ATOM_COUNT>
0

> <PUBCHEM_COMPONENT_COUNT>
1

> <PUBCHEM_CACTVS_TAUTO_COUNT>
4

> <PUBCHEM_CONFORMER_ID>
02D04CEE00000001

> <PUBCHEM_MMFF94_ENERGY>
40.3039

> <PUBCHEM_FEATURE_SELFOVERLAP>
35.52

> <PUBCHEM_SHAPE_FINGERPRINT>
10 15 13984661443227612859
106641 1 18409176494158752064
11089746 13 11312049937763136907
12166972 35 18060697273618086029
12236239 1 18261108590727804865
12516196 113 18186522102961191608
12596602 18 17168141269198152498
12616971 3 17240490178078025589
13288520 33 18334012809388948769
13533116 47 18336263435964867017
13668630 136 18410291419532992655
13685833 64 18333731312304321027
13862211 1 18272372009923895994
13885169 127 18408323316069783721
14123256 10 17775287158098189531
14123256 34 18334851715048728647
1420 363 18333731325157528898
14251764 18 7420944266894578585
14341114 176 14779262025199993880
14350574 20 18343302557140535437
14576447 43 18342739650041744210
14729087 3 11024106529772231799
15048467 5 9871750187232405871
15142383 8 5256410478538664011
15183329 4 14764354863556519656
15348495 7 14201690719066417903
15716309 27 17095243622659572151
17834072 33 18411698785947755140
18222031 100 17918555730657780540
19489759 90 15195566823017145349
200 152 18408887360142587280
20028762 73 18334575741630303414
20281389 69 9079121046440356231
20526848 3 9799695913462991895
20645477 70 18272368698145602938
21054139 6 18343868818044705082
21150785 3 17275380989046310798
21267235 1 18408035221408727255
221357 26 17704076187750009389
22224240 67 14851607670305487189
22288116 15 13326565204527168611
22896161 15 18335422352977642688
23035841 295 18411980248472139115
23081809 10 17631727287708106560
23402539 116 18339926016592159813
23559900 14 18059289847020806009
23569943 247 17904754832816605314
2767999 5 11024110945499655007
29717793 49 18408881858484608148
3004659 81 18202567263476527041
33382 64 17095800027352223926
34797466 226 17240478079867309000
351380 3 18260832592308871023
4325135 7 18343584041002826703
465052 167 18187641367396516159

> <PUBCHEM_SHAPE_MULTIPOLES>
369.31
18.9
1.52
0.97
15.87
0.12
0.18
-10.32
1.38
0.41
0.07
-0.48
-0.13
-0.02

> <PUBCHEM_SHAPE_SELFOVERLAP>
741.698

> <PUBCHEM_SHAPE_VOLUME>
216.8

> <PUBCHEM_COORDINATE_TYPE>
2
5
10

$$$$

