582713
  -OEChem-06241222433D

 37 39  0     1  0  0  0  0  0999 V2000
    1.8985    1.8490   -1.7858 O   0  0  0  0  0  0  0  0  0  0  0  0
   -3.8024   -0.5218    0.6536 N   0  0  0  0  0  0  0  0  0  0  0  0
    0.5002    1.5323    0.0368 N   0  0  0  0  0  0  0  0  0  0  0  0
   -1.6970    3.5323    1.6837 N   0  0  0  0  0  0  0  0  0  0  0  0
   -2.2942    0.5664   -0.5579 C   0  0  0  0  0  0  0  0  0  0  0  0
   -1.5845    1.6465   -1.2730 C   0  0  0  0  0  0  0  0  0  0  0  0
   -1.8871   -0.7935   -0.4575 C   0  0  0  0  0  0  0  0  0  0  0  0
   -0.5557    2.4114   -0.4062 C   0  0  1  0  0  0  0  0  0  0  0  0
   -2.8507   -1.4543    0.3074 C   0  0  0  0  0  0  0  0  0  0  0  0
   -3.4748    0.7023    0.1355 C   0  0  0  0  0  0  0  0  0  0  0  0
   -0.7880   -1.5278   -0.9457 C   0  0  0  0  0  0  0  0  0  0  0  0
   -2.7698   -2.8183    0.6097 C   0  0  0  0  0  0  0  0  0  0  0  0
   -0.6940   -2.8929   -0.6512 C   0  0  0  0  0  0  0  0  0  0  0  0
   -1.6707   -3.5262    0.1148 C   0  0  0  0  0  0  0  0  0  0  0  0
    1.6544    1.3236   -0.7028 C   0  0  0  0  0  0  0  0  0  0  0  0
   -1.1950    3.0368    0.7623 C   0  0  0  0  0  0  0  0  0  0  0  0
    2.6334    0.3688   -0.1223 C   0  0  0  0  0  0  0  0  0  0  0  0
    3.4789   -0.3163   -0.9700 C   0  0  0  0  0  0  0  0  0  0  0  0
    2.6655    0.1977    1.2461 C   0  0  0  0  0  0  0  0  0  0  0  0
    4.3979   -1.2130   -0.4248 C   0  0  0  0  0  0  0  0  0  0  0  0
    3.5845   -0.6988    1.7914 C   0  0  0  0  0  0  0  0  0  0  0  0
    4.4506   -1.4041    0.9559 C   0  0  0  0  0  0  0  0  0  0  0  0
   -2.3215    2.3625   -1.6624 H   0  0  0  0  0  0  0  0  0  0  0  0
   -1.0777    1.2324   -2.1545 H   0  0  0  0  0  0  0  0  0  0  0  0
   -0.1100    3.1982   -1.0272 H   0  0  0  0  0  0  0  0  0  0  0  0
   -4.1138    1.5575    0.3066 H   0  0  0  0  0  0  0  0  0  0  0  0
   -4.6241   -0.7141    1.2098 H   0  0  0  0  0  0  0  0  0  0  0  0
   -0.0218   -1.0554   -1.5527 H   0  0  0  0  0  0  0  0  0  0  0  0
    0.3237    0.9874    0.8747 H   0  0  0  0  0  0  0  0  0  0  0  0
   -3.5296   -3.3123    1.2058 H   0  0  0  0  0  0  0  0  0  0  0  0
    0.1507   -3.4645   -1.0267 H   0  0  0  0  0  0  0  0  0  0  0  0
   -1.5779   -4.5874    0.3312 H   0  0  0  0  0  0  0  0  0  0  0  0
    3.4464   -0.1832   -2.0471 H   0  0  0  0  0  0  0  0  0  0  0  0
    2.0341    0.7518    1.9327 H   0  0  0  0  0  0  0  0  0  0  0  0
    5.0716   -1.7632   -1.0752 H   0  0  0  0  0  0  0  0  0  0  0  0
    3.6315   -0.8423    2.8670 H   0  0  0  0  0  0  0  0  0  0  0  0
    5.1673   -2.1011    1.3806 H   0  0  0  0  0  0  0  0  0  0  0  0
  1 15  2  0  0  0  0
  2  9  1  0  0  0  0
  2 10  1  0  0  0  0
  2 27  1  0  0  0  0
  3  8  1  0  0  0  0
  3 15  1  0  0  0  0
  3 29  1  0  0  0  0
  4 16  3  0  0  0  0
  5  6  1  0  0  0  0
  5  7  1  0  0  0  0
  5 10  2  0  0  0  0
  6  8  1  0  0  0  0
  6 23  1  0  0  0  0
  6 24  1  0  0  0  0
  7  9  1  0  0  0  0
  7 11  2  0  0  0  0
  8 16  1  0  0  0  0
  8 25  1  0  0  0  0
  9 12  2  0  0  0  0
 10 26  1  0  0  0  0
 11 13  1  0  0  0  0
 11 28  1  0  0  0  0
 12 14  1  0  0  0  0
 12 30  1  0  0  0  0
 13 14  2  0  0  0  0
 13 31  1  0  0  0  0
 14 32  1  0  0  0  0
 15 17  1  0  0  0  0
 17 18  2  0  0  0  0
 17 19  1  0  0  0  0
 18 20  1  0  0  0  0
 18 33  1  0  0  0  0
 19 21  2  0  0  0  0
 19 34  1  0  0  0  0
 20 22  2  0  0  0  0
 20 35  1  0  0  0  0
 21 22  1  0  0  0  0
 21 36  1  0  0  0  0
 22 37  1  0  0  0  0
M  END
> <PUBCHEM_COMPOUND_CID>
582713

> <PUBCHEM_CONFORMER_RMSD>
0.8

> <PUBCHEM_CONFORMER_DIVERSEORDER>
1
14
46
8
29
42
36
34
20
11
5
27
19
7
9
40
26
3
2
38
45
13
23
49
18
51
4
32
30
10
52
24
28
12
6
48
44
43
41
39
33
15
25
47
21
22
35
16
31
50
17
37

> <PUBCHEM_MMFF94_PARTIAL_CHARGES>
33
1 -0.57
10 -0.3
11 -0.15
12 -0.15
13 -0.15
14 -0.15
15 0.54
16 0.36
17 0.09
18 -0.15
19 -0.15
2 0.03
20 -0.15
21 -0.15
22 -0.15
26 0.15
27 0.27
28 0.15
29 0.37
3 -0.73
30 0.15
31 0.15
32 0.15
33 0.15
34 0.15
35 0.15
36 0.15
37 0.15
4 -0.56
5 -0.18
6 0.18
8 0.5
9 -0.15

> <PUBCHEM_EFFECTIVE_ROTOR_COUNT>
5

> <PUBCHEM_PHARMACOPHORE_FEATURES>
8
1 1 acceptor
1 2 cation
1 2 donor
1 3 donor
1 4 acceptor
5 2 5 7 9 10 rings
6 17 18 19 20 21 22 rings
6 7 9 11 12 13 14 rings

> <PUBCHEM_HEAVY_ATOM_COUNT>
22

> <PUBCHEM_ATOM_DEF_STEREO_COUNT>
0

> <PUBCHEM_ATOM_UDEF_STEREO_COUNT>
1

> <PUBCHEM_BOND_DEF_STEREO_COUNT>
0

> <PUBCHEM_BOND_UDEF_STEREO_COUNT>
0

> <PUBCHEM_ISOTOPIC_ATOM_COUNT>
0

> <PUBCHEM_COMPONENT_COUNT>
1

> <PUBCHEM_CACTVS_TAUTO_COUNT>
2

> <PUBCHEM_CONFORMER_ID>
0008E43900000001

> <PUBCHEM_MMFF94_ENERGY>
43.3122

> <PUBCHEM_FEATURE_SELFOVERLAP>
40.686

> <PUBCHEM_SHAPE_FINGERPRINT>
10366900 7 17822590355864391536
12156800 1 16261722622212726906
12553582 1 18340208496849368982
12633257 1 18337379475027367403
12788726 201 18188193373462816745
13140716 1 18337674109425157322
13726171 33 18122871362082110988
14081887 123 18263946362078820096
14178342 30 18048028872367598244
14251757 5 18340474609087037382
15403338 16 16699505331827684395
16752209 62 18198643174869449749
20291156 8 18201159858359469046
21634736 98 18131064888582736972
23559900 14 18408326584160204868
3027735 51 18122076548540293157
465052 167 17988066834485803507
602551 16 18264209274375331442
7097593 13 17977380534566901435

> <PUBCHEM_SHAPE_MULTIPOLES>
431.94
7.35
4.04
1.4
6.47
0.08
0.17
-3.18
1.61
-3.39
0.66
0.74
0.53
-0.63

> <PUBCHEM_SHAPE_SELFOVERLAP>
944.735

> <PUBCHEM_SHAPE_VOLUME>
231.8

> <PUBCHEM_COORDINATE_TYPE>
2
5
10

$$$$

