5567
  -OEChem-06261200452D

 52 54  0     0  0  0  0  0  0999 V2000
    8.5981    4.8660    0.0000 F   0  0  0  0  0  0  0  0  0  0  0  0
    7.5981    5.8660    0.0000 F   0  0  0  0  0  0  0  0  0  0  0  0
    7.5981    3.8660    0.0000 F   0  0  0  0  0  0  0  0  0  0  0  0
    2.8660   -5.8660    0.0000 F   0  0  0  0  0  0  0  0  0  0  0  0
    4.0981    4.0000    0.0000 O   0  0  0  0  0  0  0  0  0  0  0  0
    2.0000   -1.3660    0.0000 O   0  0  0  0  0  0  0  0  0  0  0  0
    4.5981    1.1340    0.0000 N   0  0  0  0  0  0  0  0  0  0  0  0
    4.5981    3.1340    0.0000 C   0  0  0  0  0  0  0  0  0  0  0  0
    5.4641    2.6340    0.0000 C   0  0  0  0  0  0  0  0  0  0  0  0
    3.7320    2.6340    0.0000 C   0  0  0  0  0  0  0  0  0  0  0  0
    5.4641    1.6340    0.0000 C   0  0  0  0  0  0  0  0  0  0  0  0
    3.7320    1.6340    0.0000 C   0  0  0  0  0  0  0  0  0  0  0  0
    5.0981    4.0000    0.0000 C   0  0  0  0  0  0  0  0  0  0  0  0
    4.5981    0.1340    0.0000 C   0  0  0  0  0  0  0  0  0  0  0  0
    3.7320   -0.3660    0.0000 C   0  0  0  0  0  0  0  0  0  0  0  0
    6.0981    4.0000    0.0000 C   0  0  0  0  0  0  0  0  0  0  0  0
    4.5981    4.8660    0.0000 C   0  0  0  0  0  0  0  0  0  0  0  0
    3.7320   -1.3660    0.0000 C   0  0  0  0  0  0  0  0  0  0  0  0
    6.5981    4.8660    0.0000 C   0  0  0  0  0  0  0  0  0  0  0  0
    5.0981    5.7320    0.0000 C   0  0  0  0  0  0  0  0  0  0  0  0
    6.0981    5.7320    0.0000 C   0  0  0  0  0  0  0  0  0  0  0  0
    2.8660   -1.8660    0.0000 C   0  0  0  0  0  0  0  0  0  0  0  0
    7.5981    4.8660    0.0000 C   0  0  0  0  0  0  0  0  0  0  0  0
    2.8660   -2.8660    0.0000 C   0  0  0  0  0  0  0  0  0  0  0  0
    2.0000   -3.3660    0.0000 C   0  0  0  0  0  0  0  0  0  0  0  0
    3.7320   -3.3660    0.0000 C   0  0  0  0  0  0  0  0  0  0  0  0
    2.0000   -4.3660    0.0000 C   0  0  0  0  0  0  0  0  0  0  0  0
    3.7320   -4.3660    0.0000 C   0  0  0  0  0  0  0  0  0  0  0  0
    2.8660   -4.8660    0.0000 C   0  0  0  0  0  0  0  0  0  0  0  0
    3.5200    3.2166    0.0000 H   0  0  0  0  0  0  0  0  0  0  0  0
    3.1215    2.5263    0.0000 H   0  0  0  0  0  0  0  0  0  0  0  0
    6.0747    2.5263    0.0000 H   0  0  0  0  0  0  0  0  0  0  0  0
    5.6762    3.2166    0.0000 H   0  0  0  0  0  0  0  0  0  0  0  0
    3.1215    1.7416    0.0000 H   0  0  0  0  0  0  0  0  0  0  0  0
    3.5200    1.0514    0.0000 H   0  0  0  0  0  0  0  0  0  0  0  0
    5.6762    1.0514    0.0000 H   0  0  0  0  0  0  0  0  0  0  0  0
    6.0747    1.7416    0.0000 H   0  0  0  0  0  0  0  0  0  0  0  0
    4.8101   -0.4486    0.0000 H   0  0  0  0  0  0  0  0  0  0  0  0
    5.2087    0.2416    0.0000 H   0  0  0  0  0  0  0  0  0  0  0  0
    3.5200    0.2166    0.0000 H   0  0  0  0  0  0  0  0  0  0  0  0
    3.1215   -0.4737    0.0000 H   0  0  0  0  0  0  0  0  0  0  0  0
    3.4781    4.0000    0.0000 H   0  0  0  0  0  0  0  0  0  0  0  0
    6.4081    3.4631    0.0000 H   0  0  0  0  0  0  0  0  0  0  0  0
    3.9781    4.8660    0.0000 H   0  0  0  0  0  0  0  0  0  0  0  0
    3.9441   -1.9486    0.0000 H   0  0  0  0  0  0  0  0  0  0  0  0
    4.3426   -1.2584    0.0000 H   0  0  0  0  0  0  0  0  0  0  0  0
    4.7881    6.2690    0.0000 H   0  0  0  0  0  0  0  0  0  0  0  0
    6.4081    6.2690    0.0000 H   0  0  0  0  0  0  0  0  0  0  0  0
    1.4631   -3.0560    0.0000 H   0  0  0  0  0  0  0  0  0  0  0  0
    4.2690   -3.0560    0.0000 H   0  0  0  0  0  0  0  0  0  0  0  0
    1.4631   -4.6760    0.0000 H   0  0  0  0  0  0  0  0  0  0  0  0
    4.2690   -4.6760    0.0000 H   0  0  0  0  0  0  0  0  0  0  0  0
  1 23  1  0  0  0  0
  2 23  1  0  0  0  0
  3 23  1  0  0  0  0
  4 29  1  0  0  0  0
  5  8  1  0  0  0  0
  5 42  1  0  0  0  0
  6 22  2  0  0  0  0
  7 11  1  0  0  0  0
  7 12  1  0  0  0  0
  7 14  1  0  0  0  0
  8  9  1  0  0  0  0
  8 10  1  0  0  0  0
  8 13  1  0  0  0  0
  9 11  1  0  0  0  0
  9 32  1  0  0  0  0
  9 33  1  0  0  0  0
 10 12  1  0  0  0  0
 10 30  1  0  0  0  0
 10 31  1  0  0  0  0
 11 36  1  0  0  0  0
 11 37  1  0  0  0  0
 12 34  1  0  0  0  0
 12 35  1  0  0  0  0
 13 16  2  0  0  0  0
 13 17  1  0  0  0  0
 14 15  1  0  0  0  0
 14 38  1  0  0  0  0
 14 39  1  0  0  0  0
 15 18  1  0  0  0  0
 15 40  1  0  0  0  0
 15 41  1  0  0  0  0
 16 19  1  0  0  0  0
 16 43  1  0  0  0  0
 17 20  2  0  0  0  0
 17 44  1  0  0  0  0
 18 22  1  0  0  0  0
 18 45  1  0  0  0  0
 18 46  1  0  0  0  0
 19 21  2  0  0  0  0
 19 23  1  0  0  0  0
 20 21  1  0  0  0  0
 20 47  1  0  0  0  0
 21 48  1  0  0  0  0
 22 24  1  0  0  0  0
 24 25  2  0  0  0  0
 24 26  1  0  0  0  0
 25 27  1  0  0  0  0
 25 49  1  0  0  0  0
 26 28  2  0  0  0  0
 26 50  1  0  0  0  0
 27 29  2  0  0  0  0
 27 51  1  0  0  0  0
 28 29  1  0  0  0  0
 28 52  1  0  0  0  0
M  END
> <PUBCHEM_COMPOUND_CID>
5567

> <PUBCHEM_COMPOUND_CANONICALIZED>
1

> <PUBCHEM_CACTVS_COMPLEXITY>
537

> <PUBCHEM_CACTVS_HBOND_ACCEPTOR>
7

> <PUBCHEM_CACTVS_HBOND_DONOR>
1

> <PUBCHEM_CACTVS_ROTATABLE_BOND>
6

> <PUBCHEM_CACTVS_SUBSKEYS>
AAADceB6McAAAAAAAAAAAAAAAAAAAAAAAAA8YIAAAAAAAAABQAAAHwAACAAADETBmBwwAIMAAgCIAqBSAAACAAAkAAAIiAEICMgIJjKAlRCEcQAmwAGImYecyOCOgAACAAAAAAAAAAQAAAAAAAAAAAAAAA==

> <PUBCHEM_IUPAC_OPENEYE_NAME>
1-(4-fluorophenyl)-4-[4-hydroxy-4-[3-(trifluoromethyl)phenyl]-1-piperidyl]butan-1-one

> <PUBCHEM_IUPAC_CAS_NAME>
1-(4-fluorophenyl)-4-[4-hydroxy-4-[3-(trifluoromethyl)phenyl]-1-piperidinyl]-1-butanone

> <PUBCHEM_IUPAC_NAME>
1-(4-fluorophenyl)-4-[4-hydroxy-4-[3-(trifluoromethyl)phenyl]piperidin-1-yl]butan-1-one

> <PUBCHEM_IUPAC_SYSTEMATIC_NAME>
1-(4-fluorophenyl)-4-[4-oxidanyl-4-[3-(trifluoromethyl)phenyl]piperidin-1-yl]butan-1-one

> <PUBCHEM_IUPAC_TRADITIONAL_NAME>
1-(4-fluorophenyl)-4-[4-hydroxy-4-[3-(trifluoromethyl)phenyl]piperidino]butan-1-one

> <PUBCHEM_IUPAC_INCHI>
InChI=1S/C22H23F4NO2/c23-19-8-6-16(7-9-19)20(28)5-2-12-27-13-10-21(29,11-14-27)17-3-1-4-18(15-17)22(24,25)26/h1,3-4,6-9,15,29H,2,5,10-14H2

> <PUBCHEM_IUPAC_INCHIKEY>
GPMXUUPHFNMNDH-UHFFFAOYSA-N

> <PUBCHEM_XLOGP3>
3.5

> <PUBCHEM_EXACT_MASS>
409.166492

> <PUBCHEM_MOLECULAR_FORMULA>
C22H23F4NO2

> <PUBCHEM_MOLECULAR_WEIGHT>
409.417133

> <PUBCHEM_OPENEYE_CAN_SMILES>
C1CN(CCC1(C2=CC(=CC=C2)C(F)(F)F)O)CCCC(=O)C3=CC=C(C=C3)F

> <PUBCHEM_OPENEYE_ISO_SMILES>
C1CN(CCC1(C2=CC(=CC=C2)C(F)(F)F)O)CCCC(=O)C3=CC=C(C=C3)F

> <PUBCHEM_CACTVS_TPSA>
40.5

> <PUBCHEM_MONOISOTOPIC_WEIGHT>
409.166492

> <PUBCHEM_TOTAL_CHARGE>
0

> <PUBCHEM_HEAVY_ATOM_COUNT>
29

> <PUBCHEM_ATOM_DEF_STEREO_COUNT>
0

> <PUBCHEM_ATOM_UDEF_STEREO_COUNT>
0

> <PUBCHEM_BOND_DEF_STEREO_COUNT>
0

> <PUBCHEM_BOND_UDEF_STEREO_COUNT>
0

> <PUBCHEM_ISOTOPIC_ATOM_COUNT>
0

> <PUBCHEM_COMPONENT_COUNT>
1

> <PUBCHEM_CACTVS_TAUTO_COUNT>
2

> <PUBCHEM_COORDINATE_TYPE>
1
5
255

> <PUBCHEM_BONDANNOTATIONS>
13  16  8
13  17  8
16  19  8
17  20  8
19  21  8
20  21  8
24  25  8
24  26  8
25  27  8
26  28  8
27  29  8
28  29  8

$$$$

