7273
  -OEChem-06261201583D

 22 21  0     0  0  0  0  0  0999 V2000
    0.7535    1.8405   -1.5582 S   0  0  0  0  0  0  0  0  0  0  0  0
   -0.7763    1.8708    1.5375 S   0  0  0  0  0  0  0  0  0  0  0  0
    5.1941   -0.5594   -0.4055 O   0  0  0  0  0  0  0  0  0  0  0  0
   -5.1931   -0.5569    0.4006 O   0  0  0  0  0  0  0  0  0  0  0  0
    3.7463   -1.4878    1.0844 O   0  0  0  0  0  0  0  0  0  0  0  0
   -3.7329   -1.5160   -1.0575 O   0  0  0  0  0  0  0  0  0  0  0  0
    1.6918    0.0097    0.1599 N   0  0  0  0  0  0  0  0  0  0  0  0
   -1.6884    0.0080   -0.1544 N   0  0  0  0  0  0  0  0  0  0  0  0
    2.9773    0.1946   -0.4975 C   0  0  0  0  0  0  0  0  0  0  0  0
   -2.9789    0.2048    0.4899 C   0  0  0  0  0  0  0  0  0  0  0  0
    0.6981    0.7087   -0.2460 C   0  0  0  0  0  0  0  0  0  0  0  0
   -0.6967    0.7177    0.2398 C   0  0  0  0  0  0  0  0  0  0  0  0
    3.9721   -0.7135    0.1663 C   0  0  0  0  0  0  0  0  0  0  0  0
   -3.9669   -0.7212   -0.1593 C   0  0  0  0  0  0  0  0  0  0  0  0
    3.3533    1.2140   -0.3593 H   0  0  0  0  0  0  0  0  0  0  0  0
    2.9314   -0.0838   -1.5560 H   0  0  0  0  0  0  0  0  0  0  0  0
   -3.3441    1.2275    0.3428 H   0  0  0  0  0  0  0  0  0  0  0  0
   -2.9369   -0.0579    1.5528 H   0  0  0  0  0  0  0  0  0  0  0  0
    1.9662    2.3657   -1.3450 H   0  0  0  0  0  0  0  0  0  0  0  0
    0.4908    2.3123    1.5205 H   0  0  0  0  0  0  0  0  0  0  0  0
    5.8671   -1.1417    0.0071 H   0  0  0  0  0  0  0  0  0  0  0  0
   -5.8619   -1.1504   -0.0029 H   0  0  0  0  0  0  0  0  0  0  0  0
  1 11  1  0  0  0  0
  1 19  1  0  0  0  0
  2 12  1  0  0  0  0
  2 20  1  0  0  0  0
  3 13  1  0  0  0  0
  3 21  1  0  0  0  0
  4 14  1  0  0  0  0
  4 22  1  0  0  0  0
  5 13  2  0  0  0  0
  6 14  2  0  0  0  0
  7  9  1  0  0  0  0
  7 11  2  0  0  0  0
  8 10  1  0  0  0  0
  8 12  2  0  0  0  0
  9 13  1  0  0  0  0
  9 15  1  0  0  0  0
  9 16  1  0  0  0  0
 10 14  1  0  0  0  0
 10 17  1  0  0  0  0
 10 18  1  0  0  0  0
 11 12  1  0  0  0  0
M  END
> <PUBCHEM_COMPOUND_CID>
7273

> <PUBCHEM_CONFORMER_RMSD>
0.6

> <PUBCHEM_CONFORMER_DIVERSEORDER>
1
69
19
40
42
11
54
16
41
66
2
68
55
63
8
35
15
64
33
28
5
48
36
12
45
61
7
25
17
44
52
56
4
46
22
24
13
62
6
34
39
30
29
3
38
47
18
49
26
53
37
59
58
10
51
31
50
23
32
60
67
65
9
57
21
14
20
27
43

> <PUBCHEM_MMFF94_PARTIAL_CHARGES>
18
1 -0.32
10 0.31
11 0.59
12 0.59
13 0.66
14 0.66
19 0.18
2 -0.32
20 0.18
21 0.5
22 0.5
3 -0.65
4 -0.65
5 -0.57
6 -0.57
7 -0.7
8 -0.7
9 0.31

> <PUBCHEM_EFFECTIVE_ROTOR_COUNT>
5

> <PUBCHEM_PHARMACOPHORE_FEATURES>
8
1 3 acceptor
1 4 acceptor
1 5 acceptor
1 6 acceptor
1 7 acceptor
1 8 acceptor
3 3 5 13 anion
3 4 6 14 anion

> <PUBCHEM_HEAVY_ATOM_COUNT>
14

> <PUBCHEM_ATOM_DEF_STEREO_COUNT>
0

> <PUBCHEM_ATOM_UDEF_STEREO_COUNT>
0

> <PUBCHEM_BOND_DEF_STEREO_COUNT>
0

> <PUBCHEM_BOND_UDEF_STEREO_COUNT>
0

> <PUBCHEM_ISOTOPIC_ATOM_COUNT>
0

> <PUBCHEM_COMPONENT_COUNT>
1

> <PUBCHEM_CACTVS_TAUTO_COUNT>
3

> <PUBCHEM_CONFORMER_ID>
00001C6900000001

> <PUBCHEM_MMFF94_ENERGY>
40.4902

> <PUBCHEM_FEATURE_SELFOVERLAP>
40.723

> <PUBCHEM_SHAPE_FINGERPRINT>
10465860 250 17966970521852622361
10610426 29 18410582781250196333
10726558 24 13038909945021901601
11046707 91 18333733524191281943
114248 4 15697998530805558102
122479 349 7997674424921030628
12251169 10 15719395018476281221
13690532 89 18272650142941380923
14252887 29 16153692220375359375
14350574 20 16845001330603680107
14943859 89 9655571911718462916
15775835 57 9223231840542881772
17834072 33 18335415751829387956
1798214 20 18202568379820085226
18186145 218 15769776823505505149
18380122 1 15647322091410771093
187816 3 15698278923614079452
200 152 18130787880097765960
20279233 1 15647323122962038573
204376 136 6122500220217850141
20645477 70 16773799251144063138
20671657 53 18131630080066280733
20871999 31 17203334450090750621
21256008 61 18060699477057192404
22218785 32 13758357777706906113
22485316 2 18410859858174685892
22854114 59 5184349603240329317
22959321 94 18187368735404338534
232386 152 17968376736999813479
23402539 116 17846218903309855540
23526113 38 16056879147839916224
23557571 272 16806147969332671673
298252 57 11239996754493345020
3086196 2 18040715913030341057
351380 3 18410855460128694474
366044 4 11384114137381690433
449060 50 6122509003747639173
4990 188 15770059414978144129
5902787 121 17677613064667323437

> <PUBCHEM_SHAPE_MULTIPOLES>
262.37
9.57
1.66
1.24
0.07
0.49
-0.01
-6.5
0.04
-0.04
0.01
0.02
0.56
-1.18

> <PUBCHEM_SHAPE_SELFOVERLAP>
496.271

> <PUBCHEM_SHAPE_VOLUME>
162.9

> <PUBCHEM_COORDINATE_TYPE>
2
5
10

$$$$

