14087
  -OEChem-06241222422D

 20 20  0     0  0  0  0  0  0999 V2000
    4.2320    1.4330    0.0000 O   0  0  0  0  0  0  0  0  0  0  0  0
    2.5000    1.4330    0.0000 O   0  0  0  0  0  0  0  0  0  0  0  0
    2.5000   -1.5670    0.0000 N   0  0  0  0  0  0  0  0  0  0  0  0
    2.0000   -2.4330    0.0000 C   0  0  0  0  0  0  0  0  0  0  0  0
    3.0000   -2.4330    0.0000 C   0  0  0  0  0  0  0  0  0  0  0  0
    2.5000   -0.5670    0.0000 C   0  0  0  0  0  0  0  0  0  0  0  0
    3.3660   -0.0670    0.0000 C   0  0  0  0  0  0  0  0  0  0  0  0
    3.3660    0.9330    0.0000 C   0  0  0  0  0  0  0  0  0  0  0  0
    4.2320    2.4330    0.0000 C   0  0  0  0  0  0  0  0  0  0  0  0
    3.1077   -3.0436    0.0000 H   0  0  0  0  0  0  0  0  0  0  0  0
    3.5826   -2.2210    0.0000 H   0  0  0  0  0  0  0  0  0  0  0  0
    1.4174   -2.2210    0.0000 H   0  0  0  0  0  0  0  0  0  0  0  0
    1.8923   -3.0436    0.0000 H   0  0  0  0  0  0  0  0  0  0  0  0
    2.2880    0.0156    0.0000 H   0  0  0  0  0  0  0  0  0  0  0  0
    1.8894   -0.6746    0.0000 H   0  0  0  0  0  0  0  0  0  0  0  0
    3.5781   -0.6496    0.0000 H   0  0  0  0  0  0  0  0  0  0  0  0
    3.9766    0.0407    0.0000 H   0  0  0  0  0  0  0  0  0  0  0  0
    4.8520    2.4330    0.0000 H   0  0  0  0  0  0  0  0  0  0  0  0
    4.2320    3.0530    0.0000 H   0  0  0  0  0  0  0  0  0  0  0  0
    3.6120    2.4330    0.0000 H   0  0  0  0  0  0  0  0  0  0  0  0
  1  8  1  0  0  0  0
  1  9  1  0  0  0  0
  2  8  2  0  0  0  0
  3  4  1  0  0  0  0
  3  5  1  0  0  0  0
  3  6  1  0  0  0  0
  4  5  1  0  0  0  0
  4 12  1  0  0  0  0
  4 13  1  0  0  0  0
  5 10  1  0  0  0  0
  5 11  1  0  0  0  0
  6  7  1  0  0  0  0
  6 14  1  0  0  0  0
  6 15  1  0  0  0  0
  7  8  1  0  0  0  0
  7 16  1  0  0  0  0
  7 17  1  0  0  0  0
  9 18  1  0  0  0  0
  9 19  1  0  0  0  0
  9 20  1  0  0  0  0
M  END
> <PUBCHEM_COMPOUND_CID>
14087

> <PUBCHEM_COMPOUND_CANONICALIZED>
1

> <PUBCHEM_CACTVS_COMPLEXITY>
110

> <PUBCHEM_CACTVS_HBOND_ACCEPTOR>
3

> <PUBCHEM_CACTVS_HBOND_DONOR>
0

> <PUBCHEM_CACTVS_ROTATABLE_BOND>
4

> <PUBCHEM_CACTVS_SUBSKEYS>
AAADccBiMAAAAAAAAAAAAAAAFgAAAAAAAAAAAAAAAAAAAAAAAAAAHgAAAAAACADBgAYCCAMABAAIAACQCAAAAAAAAAAAAAEIAAAAAAgAAAAEAAACAACAAAAAAAAAAAAAAAAAAAAAAAAAAAAAAAAAAAAAAA==

> <PUBCHEM_IUPAC_OPENEYE_NAME>
methyl 3-(aziridin-1-yl)propanoate

> <PUBCHEM_IUPAC_CAS_NAME>
3-(1-aziridinyl)propanoic acid methyl ester

> <PUBCHEM_IUPAC_NAME>
methyl 3-(aziridin-1-yl)propanoate

> <PUBCHEM_IUPAC_SYSTEMATIC_NAME>
methyl 3-(aziridin-1-yl)propanoate

> <PUBCHEM_IUPAC_TRADITIONAL_NAME>
3-ethyleniminopropionic acid methyl ester

> <PUBCHEM_IUPAC_INCHI>
InChI=1S/C6H11NO2/c1-9-6(8)2-3-7-4-5-7/h2-5H2,1H3

> <PUBCHEM_IUPAC_INCHIKEY>
IKMSGGHCWBSOOO-UHFFFAOYSA-N

> <PUBCHEM_XLOGP3_AA>
-0.1

> <PUBCHEM_EXACT_MASS>
129.078979

> <PUBCHEM_MOLECULAR_FORMULA>
C6H11NO2

> <PUBCHEM_MOLECULAR_WEIGHT>
129.15704

> <PUBCHEM_OPENEYE_CAN_SMILES>
COC(=O)CCN1CC1

> <PUBCHEM_OPENEYE_ISO_SMILES>
COC(=O)CCN1CC1

> <PUBCHEM_CACTVS_TPSA>
29.3

> <PUBCHEM_MONOISOTOPIC_WEIGHT>
129.078979

> <PUBCHEM_TOTAL_CHARGE>
0

> <PUBCHEM_HEAVY_ATOM_COUNT>
9

> <PUBCHEM_ATOM_DEF_STEREO_COUNT>
0

> <PUBCHEM_ATOM_UDEF_STEREO_COUNT>
0

> <PUBCHEM_BOND_DEF_STEREO_COUNT>
0

> <PUBCHEM_BOND_UDEF_STEREO_COUNT>
0

> <PUBCHEM_ISOTOPIC_ATOM_COUNT>
0

> <PUBCHEM_COMPONENT_COUNT>
1

> <PUBCHEM_CACTVS_TAUTO_COUNT>
1

> <PUBCHEM_COORDINATE_TYPE>
1
5
255

$$$$

