10318
  -OEChem-06261204282D

 49 48  0     0  0  0  0  0  0999 V2000
    7.4871    5.0600    0.0000 Cl  0  0  0  0  0  0  0  0  0  0  0  0
    1.4030    0.0000    0.0000 F   0  0  0  0  0  0  0  0  0  0  0  0
    2.2690    4.5000    0.0000 O   0  0  0  0  0  0  0  0  0  0  0  0
    0.5369    4.5000    0.0000 O   0  0  0  0  0  0  0  0  0  0  0  0
    3.1350    7.0000    0.0000 N   0  0  0  0  0  0  0  0  0  0  0  0
    4.0010    7.5000    0.0000 C   0  0  0  0  0  0  0  0  0  0  0  0
    2.2690    7.5000    0.0000 C   0  0  0  0  0  0  0  0  0  0  0  0
    3.1350    6.0000    0.0000 C   0  0  0  0  0  0  0  0  0  0  0  0
    4.0010    8.5000    0.0000 C   0  0  0  0  0  0  0  0  0  0  0  0
    2.2690    8.5000    0.0000 C   0  0  0  0  0  0  0  0  0  0  0  0
    4.8671    9.0000    0.0000 C   0  0  0  0  0  0  0  0  0  0  0  0
    1.4030    9.0000    0.0000 C   0  0  0  0  0  0  0  0  0  0  0  0
    2.2690    5.5000    0.0000 C   0  0  0  0  0  0  0  0  0  0  0  0
    1.4030   10.0000    0.0000 C   0  0  0  0  0  0  0  0  0  0  0  0
    4.8671   10.0000    0.0000 C   0  0  0  0  0  0  0  0  0  0  0  0
    1.4030    4.0000    0.0000 C   0  0  0  0  0  0  0  0  0  0  0  0
    1.4030    3.0000    0.0000 C   0  0  0  0  0  0  0  0  0  0  0  0
    0.5369    2.5000    0.0000 C   0  0  0  0  0  0  0  0  0  0  0  0
    2.2690    2.5000    0.0000 C   0  0  0  0  0  0  0  0  0  0  0  0
    0.5369    1.5000    0.0000 C   0  0  0  0  0  0  0  0  0  0  0  0
    2.2690    1.5000    0.0000 C   0  0  0  0  0  0  0  0  0  0  0  0
    1.4030    1.0000    0.0000 C   0  0  0  0  0  0  0  0  0  0  0  0
    1.6584    7.6077    0.0000 H   0  0  0  0  0  0  0  0  0  0  0  0
    2.0569    6.9174    0.0000 H   0  0  0  0  0  0  0  0  0  0  0  0
    4.2131    6.9174    0.0000 H   0  0  0  0  0  0  0  0  0  0  0  0
    4.6116    7.6077    0.0000 H   0  0  0  0  0  0  0  0  0  0  0  0
    3.3471    5.4174    0.0000 H   0  0  0  0  0  0  0  0  0  0  0  0
    3.7456    6.1077    0.0000 H   0  0  0  0  0  0  0  0  0  0  0  0
    2.8796    8.3923    0.0000 H   0  0  0  0  0  0  0  0  0  0  0  0
    2.4810    9.0826    0.0000 H   0  0  0  0  0  0  0  0  0  0  0  0
    3.7890    9.0826    0.0000 H   0  0  0  0  0  0  0  0  0  0  0  0
    3.3905    8.3923    0.0000 H   0  0  0  0  0  0  0  0  0  0  0  0
    0.7924    9.1077    0.0000 H   0  0  0  0  0  0  0  0  0  0  0  0
    1.1909    8.4174    0.0000 H   0  0  0  0  0  0  0  0  0  0  0  0
    5.0791    8.4174    0.0000 H   0  0  0  0  0  0  0  0  0  0  0  0
    5.4776    9.1077    0.0000 H   0  0  0  0  0  0  0  0  0  0  0  0
    2.0569    6.0826    0.0000 H   0  0  0  0  0  0  0  0  0  0  0  0
    1.6584    5.3923    0.0000 H   0  0  0  0  0  0  0  0  0  0  0  0
    5.4871   10.0000    0.0000 H   0  0  0  0  0  0  0  0  0  0  0  0
    2.0230   10.0000    0.0000 H   0  0  0  0  0  0  0  0  0  0  0  0
    1.4030   10.6200    0.0000 H   0  0  0  0  0  0  0  0  0  0  0  0
    0.7830   10.0000    0.0000 H   0  0  0  0  0  0  0  0  0  0  0  0
    4.8671   10.6200    0.0000 H   0  0  0  0  0  0  0  0  0  0  0  0
    4.2471   10.0000    0.0000 H   0  0  0  0  0  0  0  0  0  0  0  0
    0.0000    2.8100    0.0000 H   0  0  0  0  0  0  0  0  0  0  0  0
    2.8059    2.8100    0.0000 H   0  0  0  0  0  0  0  0  0  0  0  0
    0.0000    1.1900    0.0000 H   0  0  0  0  0  0  0  0  0  0  0  0
    2.8059    1.1900    0.0000 H   0  0  0  0  0  0  0  0  0  0  0  0
    8.4871    5.0600    0.0000 H   0  0  0  0  0  0  0  0  0  0  0  0
  1 49  1  0  0  0  0
  2 22  1  0  0  0  0
  3 13  1  0  0  0  0
  3 16  1  0  0  0  0
  4 16  2  0  0  0  0
  5  6  1  0  0  0  0
  5  7  1  0  0  0  0
  5  8  1  0  0  0  0
  6  9  1  0  0  0  0
  6 25  1  0  0  0  0
  6 26  1  0  0  0  0
  7 10  1  0  0  0  0
  7 23  1  0  0  0  0
  7 24  1  0  0  0  0
  8 13  1  0  0  0  0
  8 27  1  0  0  0  0
  8 28  1  0  0  0  0
  9 11  1  0  0  0  0
  9 31  1  0  0  0  0
  9 32  1  0  0  0  0
 10 12  1  0  0  0  0
 10 29  1  0  0  0  0
 10 30  1  0  0  0  0
 11 15  1  0  0  0  0
 11 35  1  0  0  0  0
 11 36  1  0  0  0  0
 12 14  1  0  0  0  0
 12 33  1  0  0  0  0
 12 34  1  0  0  0  0
 13 37  1  0  0  0  0
 13 38  1  0  0  0  0
 14 40  1  0  0  0  0
 14 41  1  0  0  0  0
 14 42  1  0  0  0  0
 15 39  1  0  0  0  0
 15 43  1  0  0  0  0
 15 44  1  0  0  0  0
 16 17  1  0  0  0  0
 17 18  2  0  0  0  0
 17 19  1  0  0  0  0
 18 20  1  0  0  0  0
 18 45  1  0  0  0  0
 19 21  2  0  0  0  0
 19 46  1  0  0  0  0
 20 22  2  0  0  0  0
 20 47  1  0  0  0  0
 21 22  1  0  0  0  0
 21 48  1  0  0  0  0
M  END
> <PUBCHEM_COMPOUND_CID>
10318

> <PUBCHEM_COMPOUND_CANONICALIZED>
1

> <PUBCHEM_CACTVS_COMPLEXITY>
270

> <PUBCHEM_CACTVS_HBOND_ACCEPTOR>
4

> <PUBCHEM_CACTVS_HBOND_DONOR>
1

> <PUBCHEM_CACTVS_ROTATABLE_BOND>
11

> <PUBCHEM_CACTVS_SUBSKEYS>
AAADceB6MQAEAAAAAAAAAAAAAAAAAAAAAAAwAAAAAAAAAAABAAAAHwAAAAAADADhmA4yCIMABACIAiDSCAACAAAkAAAIiAEICMgKJjKAtRiHMQAkwAGYqYeIyCCOAAAAAAAAAAAAAAAAAAAAAAAAAAAAAA==

> <PUBCHEM_IUPAC_OPENEYE_NAME>
2-(dibutylamino)ethyl 4-fluorobenzoate hydrochloride

> <PUBCHEM_IUPAC_CAS_NAME>
4-fluorobenzoic acid 2-(dibutylamino)ethyl ester hydrochloride

> <PUBCHEM_IUPAC_NAME>
2-(dibutylamino)ethyl 4-fluorobenzoate hydrochloride

> <PUBCHEM_IUPAC_SYSTEMATIC_NAME>
2-(dibutylamino)ethyl 4-fluoranylbenzoate hydrochloride

> <PUBCHEM_IUPAC_TRADITIONAL_NAME>
4-fluorobenzoic acid 2-(dibutylamino)ethyl ester hydrochloride

> <PUBCHEM_IUPAC_INCHI>
InChI=1S/C17H26FNO2.ClH/c1-3-5-11-19(12-6-4-2)13-14-21-17(20)15-7-9-16(18)10-8-15;/h7-10H,3-6,11-14H2,1-2H3;1H

> <PUBCHEM_IUPAC_INCHIKEY>
CMWBRWHYPIGOMG-UHFFFAOYSA-N

> <PUBCHEM_EXACT_MASS>
331.171435

> <PUBCHEM_MOLECULAR_FORMULA>
C17H27ClFNO2

> <PUBCHEM_MOLECULAR_WEIGHT>
331.853183

> <PUBCHEM_OPENEYE_CAN_SMILES>
CCCCN(CCCC)CCOC(=O)C1=CC=C(C=C1)F.Cl

> <PUBCHEM_OPENEYE_ISO_SMILES>
CCCCN(CCCC)CCOC(=O)C1=CC=C(C=C1)F.Cl

> <PUBCHEM_CACTVS_TPSA>
29.5

> <PUBCHEM_MONOISOTOPIC_WEIGHT>
331.171435

> <PUBCHEM_TOTAL_CHARGE>
0

> <PUBCHEM_HEAVY_ATOM_COUNT>
22

> <PUBCHEM_ATOM_DEF_STEREO_COUNT>
0

> <PUBCHEM_ATOM_UDEF_STEREO_COUNT>
0

> <PUBCHEM_BOND_DEF_STEREO_COUNT>
0

> <PUBCHEM_BOND_UDEF_STEREO_COUNT>
0

> <PUBCHEM_ISOTOPIC_ATOM_COUNT>
0

> <PUBCHEM_COMPONENT_COUNT>
2

> <PUBCHEM_CACTVS_TAUTO_COUNT>
1

> <PUBCHEM_COORDINATE_TYPE>
1
5
255

> <PUBCHEM_BONDANNOTATIONS>
17  18  8
17  19  8
18  20  8
19  21  8
20  22  8
21  22  8

$$$$

