11056
  -OEChem-06261205163D

 34 36  0     0  0  0  0  0  0999 V2000
    1.4585   -2.4106    0.0050 O   0  0  0  0  0  0  0  0  0  0  0  0
   -1.4580    2.4110    0.0065 O   0  0  0  0  0  0  0  0  0  0  0  0
   -1.2786   -2.3348   -0.0310 O   0  0  0  0  0  0  0  0  0  0  0  0
    1.2790    2.3348   -0.0300 O   0  0  0  0  0  0  0  0  0  0  0  0
    1.4456   -0.0313   -0.0127 C   0  0  0  0  0  0  0  0  0  0  0  0
   -1.4457    0.0317   -0.0138 C   0  0  0  0  0  0  0  0  0  0  0  0
    0.7875   -1.2009   -0.0099 C   0  0  0  0  0  0  0  0  0  0  0  0
   -0.7874    1.2012   -0.0100 C   0  0  0  0  0  0  0  0  0  0  0  0
    2.9196   -0.0048   -0.0005 C   0  0  0  0  0  0  0  0  0  0  0  0
   -2.9199    0.0048   -0.0009 C   0  0  0  0  0  0  0  0  0  0  0  0
   -0.6955   -1.2536   -0.0184 C   0  0  0  0  0  0  0  0  0  0  0  0
    0.6957    1.2538   -0.0178 C   0  0  0  0  0  0  0  0  0  0  0  0
    3.6236   -0.0010   -1.2026 C   0  0  0  0  0  0  0  0  0  0  0  0
   -3.6242    0.0022   -1.2029 C   0  0  0  0  0  0  0  0  0  0  0  0
    3.6033    0.0170    1.2132 C   0  0  0  0  0  0  0  0  0  0  0  0
   -3.6029   -0.0183    1.2129 C   0  0  0  0  0  0  0  0  0  0  0  0
    5.0182    0.0247   -1.1912 C   0  0  0  0  0  0  0  0  0  0  0  0
   -5.0188   -0.0237   -1.1909 C   0  0  0  0  0  0  0  0  0  0  0  0
    4.9978    0.0426    1.2247 C   0  0  0  0  0  0  0  0  0  0  0  0
   -4.9975   -0.0444    1.2250 C   0  0  0  0  0  0  0  0  0  0  0  0
    5.7053    0.0465    0.0224 C   0  0  0  0  0  0  0  0  0  0  0  0
   -5.7054   -0.0469    0.0230 C   0  0  0  0  0  0  0  0  0  0  0  0
    3.1017   -0.0172   -2.1563 H   0  0  0  0  0  0  0  0  0  0  0  0
   -3.1027    0.0195   -2.1567 H   0  0  0  0  0  0  0  0  0  0  0  0
    3.0655    0.0148    2.1580 H   0  0  0  0  0  0  0  0  0  0  0  0
   -3.0647   -0.0171    2.1575 H   0  0  0  0  0  0  0  0  0  0  0  0
    5.5691    0.0278   -2.1272 H   0  0  0  0  0  0  0  0  0  0  0  0
   -5.5701   -0.0259   -2.1266 H   0  0  0  0  0  0  0  0  0  0  0  0
    5.5330    0.0598    2.1696 H   0  0  0  0  0  0  0  0  0  0  0  0
   -5.5323   -0.0626    2.1701 H   0  0  0  0  0  0  0  0  0  0  0  0
    6.7911    0.0665    0.0315 H   0  0  0  0  0  0  0  0  0  0  0  0
   -6.7912   -0.0672    0.0325 H   0  0  0  0  0  0  0  0  0  0  0  0
    2.4182   -2.2730    0.0097 H   0  0  0  0  0  0  0  0  0  0  0  0
   -2.4177    2.2736    0.0106 H   0  0  0  0  0  0  0  0  0  0  0  0
  1  7  1  0  0  0  0
  1 33  1  0  0  0  0
  2  8  1  0  0  0  0
  2 34  1  0  0  0  0
  3 11  2  0  0  0  0
  4 12  2  0  0  0  0
  5  7  2  0  0  0  0
  5  9  1  0  0  0  0
  5 12  1  0  0  0  0
  6  8  2  0  0  0  0
  6 10  1  0  0  0  0
  6 11  1  0  0  0  0
  7 11  1  0  0  0  0
  8 12  1  0  0  0  0
  9 13  2  0  0  0  0
  9 15  1  0  0  0  0
 10 14  2  0  0  0  0
 10 16  1  0  0  0  0
 13 17  1  0  0  0  0
 13 23  1  0  0  0  0
 14 18  1  0  0  0  0
 14 24  1  0  0  0  0
 15 19  2  0  0  0  0
 15 25  1  0  0  0  0
 16 20  2  0  0  0  0
 16 26  1  0  0  0  0
 17 21  2  0  0  0  0
 17 27  1  0  0  0  0
 18 22  2  0  0  0  0
 18 28  1  0  0  0  0
 19 21  1  0  0  0  0
 19 29  1  0  0  0  0
 20 22  1  0  0  0  0
 20 30  1  0  0  0  0
 21 31  1  0  0  0  0
 22 32  1  0  0  0  0
M  END
> <PUBCHEM_COMPOUND_CID>
11056

> <PUBCHEM_CONFORMER_RMSD>
0.6

> <PUBCHEM_CONFORMER_DIVERSEORDER>
1

> <PUBCHEM_MMFF94_PARTIAL_CHARGES>
34
1 -0.53
10 0.03
11 0.54
12 0.54
13 -0.15
14 -0.15
15 -0.15
16 -0.15
17 -0.15
18 -0.15
19 -0.15
2 -0.53
20 -0.15
21 -0.15
22 -0.15
23 0.15
24 0.15
25 0.15
26 0.15
27 0.15
28 0.15
29 0.15
3 -0.57
30 0.15
31 0.15
32 0.15
33 0.45
34 0.45
4 -0.57
5 -0.01
6 -0.01
7 0.09
8 0.09
9 0.03

> <PUBCHEM_EFFECTIVE_ROTOR_COUNT>
2

> <PUBCHEM_PHARMACOPHORE_FEATURES>
7
1 1 donor
1 2 donor
1 3 acceptor
1 4 acceptor
6 10 14 16 18 20 22 rings
6 5 6 7 8 11 12 rings
6 9 13 15 17 19 21 rings

> <PUBCHEM_HEAVY_ATOM_COUNT>
22

> <PUBCHEM_ATOM_DEF_STEREO_COUNT>
0

> <PUBCHEM_ATOM_UDEF_STEREO_COUNT>
0

> <PUBCHEM_BOND_DEF_STEREO_COUNT>
0

> <PUBCHEM_BOND_UDEF_STEREO_COUNT>
0

> <PUBCHEM_ISOTOPIC_ATOM_COUNT>
0

> <PUBCHEM_COMPONENT_COUNT>
1

> <PUBCHEM_CACTVS_TAUTO_COUNT>
4

> <PUBCHEM_CONFORMER_ID>
00002B3000000001

> <PUBCHEM_MMFF94_ENERGY>
70.3723

> <PUBCHEM_FEATURE_SELFOVERLAP>
35.52

> <PUBCHEM_SHAPE_FINGERPRINT>
10366900 7 18409729568853497873
10595046 47 15791734087522490490
10670039 82 18199455723275147260
10906281 52 18271508888626863889
11287383 113 15769772446685618124
11578080 2 17316518186609759225
11646440 116 18186792561541739785
11796584 16 16559033800504886171
11963148 33 18272655614788953771
12011746 2 18410575097547980879
12390115 104 18042673082430220721
12403814 3 17561370577749095127
12553582 1 18410575084679091573
12788726 201 18272092750507297408
13140716 1 18266740173268058482
13533116 47 18339367469782083482
13583140 156 16917344810080389137
13760787 19 16917350316043937450
13862211 1 18410860957691796303
14341114 176 15841548582836982135
14787075 74 17749115452251162096
14790565 3 18338503201275141381
14911166 2 18410856546754887980
15099037 51 18411418388707012591
15196674 1 18338517576524496901
15209294 21 17822002168334986497
15788980 27 17060340716667411331
15848702 151 17095519608388581804
1601671 61 18412825785181557206
16752209 62 18340775930574703728
16945 1 18410575084663078934
17349148 13 18411983559058311948
17834072 33 15554446288461807914
19141452 34 17675927564480773726
19489759 90 15841552981310734973
200 152 18333736827485473149
20028762 73 18043245743911801535
21033648 29 18201176385351945877
21267235 1 18410848863058395150
21641784 216 18058716022447815804
22182313 1 18266741474643149319
2334 1 17906453229575602182
23402539 116 18260834795310576365
23559900 14 18262228929601331396
23569914 152 16818281325179512205
23569943 247 17679568197815810526
26918003 58 17775566442366973985
2748010 2 18122626325221998855
3004659 81 16845578647344019616
314173 85 18261109677465501929
335352 9 18410573967971582407
34797466 226 16415182490898666686
3759504 43 17561079176997890483
404807 14 14857183465004285518
4072396 5 18342750636531398114
4340502 62 16486970708719083930
465052 167 17917985062252158394
5104073 3 18266458706881282937
542803 24 17561363993448075021
7495541 125 17417805102410957221
9971528 1 17822007601621752000

> <PUBCHEM_SHAPE_MULTIPOLES>
429.27
12.42
1.66
1.16
0
0
-0.02
0
-0.11
0
0.01
0
0
0.01

> <PUBCHEM_SHAPE_SELFOVERLAP>
953.635

> <PUBCHEM_SHAPE_VOLUME>
227.5

> <PUBCHEM_COORDINATE_TYPE>
2
5
10

$$$$

