11010
  -OEChem-06261205132D

  9  6  0     0  0  0  0  0  0999 V2000
    3.4030    0.5000    0.0000 Zn  0  2  0  0  0  0  0  0  0  0  0  0
    2.5369    0.0000    0.0000 C   0  5  0  0  0  0  0  0  0  0  0  0
    4.2690    0.0000    0.0000 C   0  5  0  0  0  0  0  0  0  0  0  0
    2.0000   -0.3100    0.0000 H   0  0  0  0  0  0  0  0  0  0  0  0
    2.2269    0.5369    0.0000 H   0  0  0  0  0  0  0  0  0  0  0  0
    2.8469   -0.5369    0.0000 H   0  0  0  0  0  0  0  0  0  0  0  0
    4.8059   -0.3100    0.0000 H   0  0  0  0  0  0  0  0  0  0  0  0
    4.5790    0.5369    0.0000 H   0  0  0  0  0  0  0  0  0  0  0  0
    3.9590   -0.5369    0.0000 H   0  0  0  0  0  0  0  0  0  0  0  0
  2  4  1  0  0  0  0
  2  5  1  0  0  0  0
  2  6  1  0  0  0  0
  3  7  1  0  0  0  0
  3  8  1  0  0  0  0
  3  9  1  0  0  0  0
M  CHG  3   1   2   2  -1   3  -1
M  END
> <PUBCHEM_COMPOUND_CID>
11010

> <PUBCHEM_COMPOUND_CANONICALIZED>
1

> <PUBCHEM_CACTVS_COMPLEXITY>
2.8

> <PUBCHEM_CACTVS_HBOND_ACCEPTOR>
2

> <PUBCHEM_CACTVS_HBOND_DONOR>
0

> <PUBCHEM_CACTVS_ROTATABLE_BOND>
0

> <PUBCHEM_CACTVS_SUBSKEYS>
AAADcYBAAAAAAAACAAAAAAAAAAAAAAAAAAAAAAAAAAAAAAAAAAAAEAAAAAAAAAAAAAACAAAAAAAAAAAAAAAAAAAAAAAAAAAAAAAAAAAAAAAAAAAAAAAAAAAAAAAAAAAAAAAAAAAAAAAAAAAAAAAAAAAAAA==

> <PUBCHEM_IUPAC_OPENEYE_NAME>
zinc carbanide

> <PUBCHEM_IUPAC_CAS_NAME>
zinc carbanide

> <PUBCHEM_IUPAC_NAME>
zinc carbanide

> <PUBCHEM_IUPAC_SYSTEMATIC_NAME>
zinc carbanide

> <PUBCHEM_IUPAC_TRADITIONAL_NAME>
zinc carbanide

> <PUBCHEM_IUPAC_INCHI>
InChI=1S/2CH3.Zn/h2*1H3;/q2*-1;+2

> <PUBCHEM_IUPAC_INCHIKEY>
JRPGMCRJPQJYPE-UHFFFAOYSA-N

> <PUBCHEM_EXACT_MASS>
93.976092

> <PUBCHEM_MOLECULAR_FORMULA>
C2H6Zn

> <PUBCHEM_MOLECULAR_WEIGHT>
95.44904

> <PUBCHEM_OPENEYE_CAN_SMILES>
[CH3-].[CH3-].[Zn+2]

> <PUBCHEM_OPENEYE_ISO_SMILES>
[CH3-].[CH3-].[Zn+2]

> <PUBCHEM_CACTVS_TPSA>
0

> <PUBCHEM_MONOISOTOPIC_WEIGHT>
93.976092

> <PUBCHEM_TOTAL_CHARGE>
0

> <PUBCHEM_HEAVY_ATOM_COUNT>
3

> <PUBCHEM_ATOM_DEF_STEREO_COUNT>
0

> <PUBCHEM_ATOM_UDEF_STEREO_COUNT>
0

> <PUBCHEM_BOND_DEF_STEREO_COUNT>
0

> <PUBCHEM_BOND_UDEF_STEREO_COUNT>
0

> <PUBCHEM_ISOTOPIC_ATOM_COUNT>
0

> <PUBCHEM_COMPONENT_COUNT>
3

> <PUBCHEM_CACTVS_TAUTO_COUNT>
1

> <PUBCHEM_NONSTANDARDBOND>
1  2  6
1  3  6

> <PUBCHEM_COORDINATE_TYPE>
1
5
255

$$$$

