8338
  -OEChem-06261202452D

 28 29  0     0  0  0  0  0  0999 V2000
    4.2690   -2.0204    0.0000 S   0  0  0  0  0  0  0  0  0  0  0  0
    6.0174    2.0142    0.0000 S   0  0  0  0  0  0  0  0  0  0  0  0
    4.2690   -3.0204    0.0000 O   0  0  0  0  0  0  0  0  0  0  0  0
    6.0058    3.0142    0.0000 O   0  0  0  0  0  0  0  0  0  0  0  0
    3.2690   -2.0204    0.0000 O   0  0  0  0  0  0  0  0  0  0  0  0
    5.2690   -2.0204    0.0000 O   0  0  0  0  0  0  0  0  0  0  0  0
    7.0173    2.0258    0.0000 O   0  0  0  0  0  0  0  0  0  0  0  0
    5.0175    2.0027    0.0000 O   0  0  0  0  0  0  0  0  0  0  0  0
    2.5369   -1.0204    0.0000 N   0  0  0  0  0  0  0  0  0  0  0  0
    5.1350   -0.5204    0.0000 C   0  0  0  0  0  0  0  0  0  0  0  0
    5.1350    0.4796    0.0000 C   0  0  0  0  0  0  0  0  0  0  0  0
    4.2690   -1.0204    0.0000 C   0  0  0  0  0  0  0  0  0  0  0  0
    6.0290    1.0143    0.0000 C   0  0  0  0  0  0  0  0  0  0  0  0
    3.4030   -0.5204    0.0000 C   0  0  0  0  0  0  0  0  0  0  0  0
    4.2690    0.9796    0.0000 C   0  0  0  0  0  0  0  0  0  0  0  0
    6.0290   -1.0550    0.0000 C   0  0  0  0  0  0  0  0  0  0  0  0
    3.4030    0.4796    0.0000 C   0  0  0  0  0  0  0  0  0  0  0  0
    6.9350    0.5005    0.0000 C   0  0  0  0  0  0  0  0  0  0  0  0
    6.9350   -0.5412    0.0000 C   0  0  0  0  0  0  0  0  0  0  0  0
    4.2690    1.5996    0.0000 H   0  0  0  0  0  0  0  0  0  0  0  0
    6.0218   -1.6750    0.0000 H   0  0  0  0  0  0  0  0  0  0  0  0
    2.8660    0.7896    0.0000 H   0  0  0  0  0  0  0  0  0  0  0  0
    7.4708    0.8125    0.0000 H   0  0  0  0  0  0  0  0  0  0  0  0
    7.4708   -0.8532    0.0000 H   0  0  0  0  0  0  0  0  0  0  0  0
    2.0000   -0.7104    0.0000 H   0  0  0  0  0  0  0  0  0  0  0  0
    2.5369   -1.6404    0.0000 H   0  0  0  0  0  0  0  0  0  0  0  0
    4.8059   -3.3304    0.0000 H   0  0  0  0  0  0  0  0  0  0  0  0
    6.5391    3.3304    0.0000 H   0  0  0  0  0  0  0  0  0  0  0  0
  1  3  1  0  0  0  0
  1  5  2  0  0  0  0
  1  6  2  0  0  0  0
  1 12  1  0  0  0  0
  2  4  1  0  0  0  0
  2  7  2  0  0  0  0
  2  8  2  0  0  0  0
  2 13  1  0  0  0  0
  3 27  1  0  0  0  0
  4 28  1  0  0  0  0
  9 14  1  0  0  0  0
  9 25  1  0  0  0  0
  9 26  1  0  0  0  0
 10 11  2  0  0  0  0
 10 12  1  0  0  0  0
 10 16  1  0  0  0  0
 11 13  1  0  0  0  0
 11 15  1  0  0  0  0
 12 14  2  0  0  0  0
 13 18  2  0  0  0  0
 14 17  1  0  0  0  0
 15 17  2  0  0  0  0
 15 20  1  0  0  0  0
 16 19  2  0  0  0  0
 16 21  1  0  0  0  0
 17 22  1  0  0  0  0
 18 19  1  0  0  0  0
 18 23  1  0  0  0  0
 19 24  1  0  0  0  0
M  END
> <PUBCHEM_COMPOUND_CID>
8338

> <PUBCHEM_COMPOUND_CANONICALIZED>
1

> <PUBCHEM_CACTVS_COMPLEXITY>
531

> <PUBCHEM_CACTVS_HBOND_ACCEPTOR>
7

> <PUBCHEM_CACTVS_HBOND_DONOR>
3

> <PUBCHEM_CACTVS_ROTATABLE_BOND>
2

> <PUBCHEM_CACTVS_SUBSKEYS>
AAADccByOABgAAAAAAAAAAAAAAAAAAAAAAAwYAAAAAAAAADBUAAAHAQQCAAADAiBWAAwwcBAAIKAAiRCQHDCAEAgAgAIiBwAZIgIICKAkZGAIABgkAAIyAcQgIAOiAAAwAAUAQAQAAGAACgCAAAAAAAAAA==

> <PUBCHEM_IUPAC_OPENEYE_NAME>
2-aminonaphthalene-1,5-disulfonic acid

> <PUBCHEM_IUPAC_CAS_NAME>
2-aminonaphthalene-1,5-disulfonic acid

> <PUBCHEM_IUPAC_NAME>
2-aminonaphthalene-1,5-disulfonic acid

> <PUBCHEM_IUPAC_SYSTEMATIC_NAME>
2-azanylnaphthalene-1,5-disulfonic acid

> <PUBCHEM_IUPAC_TRADITIONAL_NAME>
2-aminonaphthalene-1,5-disulfonic acid

> <PUBCHEM_IUPAC_INCHI>
InChI=1S/C10H9NO6S2/c11-8-5-4-6-7(10(8)19(15,16)17)2-1-3-9(6)18(12,13)14/h1-5H,11H2,(H,12,13,14)(H,15,16,17)

> <PUBCHEM_IUPAC_INCHIKEY>
YAIKCRUPEVOINQ-UHFFFAOYSA-N

> <PUBCHEM_XLOGP3_AA>
0.5

> <PUBCHEM_EXACT_MASS>
302.987129

> <PUBCHEM_MOLECULAR_FORMULA>
C10H9NO6S2

> <PUBCHEM_MOLECULAR_WEIGHT>
303.31156

> <PUBCHEM_OPENEYE_CAN_SMILES>
C1=CC2=C(C=CC(=C2S(=O)(=O)O)N)C(=C1)S(=O)(=O)O

> <PUBCHEM_OPENEYE_ISO_SMILES>
C1=CC2=C(C=CC(=C2S(=O)(=O)O)N)C(=C1)S(=O)(=O)O

> <PUBCHEM_CACTVS_TPSA>
152

> <PUBCHEM_MONOISOTOPIC_WEIGHT>
302.987129

> <PUBCHEM_TOTAL_CHARGE>
0

> <PUBCHEM_HEAVY_ATOM_COUNT>
19

> <PUBCHEM_ATOM_DEF_STEREO_COUNT>
0

> <PUBCHEM_ATOM_UDEF_STEREO_COUNT>
0

> <PUBCHEM_BOND_DEF_STEREO_COUNT>
0

> <PUBCHEM_BOND_UDEF_STEREO_COUNT>
0

> <PUBCHEM_ISOTOPIC_ATOM_COUNT>
0

> <PUBCHEM_COMPONENT_COUNT>
1

> <PUBCHEM_CACTVS_TAUTO_COUNT>
1

> <PUBCHEM_COORDINATE_TYPE>
1
5
255

> <PUBCHEM_BONDANNOTATIONS>
10  11  8
10  12  8
10  16  8
11  13  8
11  15  8
12  14  8
13  18  8
14  17  8
15  17  8
16  19  8
18  19  8

$$$$

