14081
  -OEChem-06241222422D

 18 18  0     0  0  0  0  0  0999 V2000
    3.0878   -0.6739    0.0000 N   0  0  0  0  0  0  0  0  0  0  0  0
    2.2788   -0.0861    0.0000 N   0  0  0  0  0  0  0  0  0  0  0  0
    3.8968   -0.0861    0.0000 C   0  0  0  0  0  0  0  0  0  0  0  0
    2.5878    0.8649    0.0000 C   0  0  0  0  0  0  0  0  0  0  0  0
    3.5878    0.8649    0.0000 C   0  0  0  0  0  0  0  0  0  0  0  0
    4.8479   -0.3952    0.0000 C   0  0  0  0  0  0  0  0  0  0  0  0
    3.0878   -1.6739    0.0000 C   0  0  0  0  0  0  0  0  0  0  0  0
    2.0000    1.6739    0.0000 C   0  0  0  0  0  0  0  0  0  0  0  0
    3.9522    1.3665    0.0000 H   0  0  0  0  0  0  0  0  0  0  0  0
    4.6563   -0.9848    0.0000 H   0  0  0  0  0  0  0  0  0  0  0  0
    5.4375   -0.5868    0.0000 H   0  0  0  0  0  0  0  0  0  0  0  0
    5.0395    0.1945    0.0000 H   0  0  0  0  0  0  0  0  0  0  0  0
    2.4678   -1.6739    0.0000 H   0  0  0  0  0  0  0  0  0  0  0  0
    3.0878   -2.2939    0.0000 H   0  0  0  0  0  0  0  0  0  0  0  0
    3.7078   -1.6739    0.0000 H   0  0  0  0  0  0  0  0  0  0  0  0
    2.5016    2.0384    0.0000 H   0  0  0  0  0  0  0  0  0  0  0  0
    1.6356    2.1755    0.0000 H   0  0  0  0  0  0  0  0  0  0  0  0
    1.4984    1.3095    0.0000 H   0  0  0  0  0  0  0  0  0  0  0  0
  1  2  1  0  0  0  0
  1  3  1  0  0  0  0
  1  7  1  0  0  0  0
  2  4  2  0  0  0  0
  3  5  2  0  0  0  0
  3  6  1  0  0  0  0
  4  5  1  0  0  0  0
  4  8  1  0  0  0  0
  5  9  1  0  0  0  0
  6 10  1  0  0  0  0
  6 11  1  0  0  0  0
  6 12  1  0  0  0  0
  7 13  1  0  0  0  0
  7 14  1  0  0  0  0
  7 15  1  0  0  0  0
  8 16  1  0  0  0  0
  8 17  1  0  0  0  0
  8 18  1  0  0  0  0
M  END
> <PUBCHEM_COMPOUND_CID>
14081

> <PUBCHEM_COMPOUND_CANONICALIZED>
1

> <PUBCHEM_CACTVS_COMPLEXITY>
82.6

> <PUBCHEM_CACTVS_HBOND_ACCEPTOR>
1

> <PUBCHEM_CACTVS_HBOND_DONOR>
0

> <PUBCHEM_CACTVS_ROTATABLE_BOND>
0

> <PUBCHEM_CACTVS_SUBSKEYS>
AAADccBjAAAAAAAAAAAAAAAAAAAAAWAAAAAAAAAAAAAAAAABgAAAHAAIAAAACAiBFgQygJIIAACiASRiRACQBAAhggAQWCA4ZBgAIAJAwdAEhAhgCABISAIAAAAAAAAAAAAAAAAAAAAAAAAAAAAAAAAAAA==

> <PUBCHEM_IUPAC_OPENEYE_NAME>
1,3,5-trimethylpyrazole

> <PUBCHEM_IUPAC_CAS_NAME>
1,3,5-trimethylpyrazole

> <PUBCHEM_IUPAC_NAME>
1,3,5-trimethylpyrazole

> <PUBCHEM_IUPAC_SYSTEMATIC_NAME>
1,3,5-trimethylpyrazole

> <PUBCHEM_IUPAC_TRADITIONAL_NAME>
1,3,5-trimethylpyrazole

> <PUBCHEM_IUPAC_INCHI>
InChI=1S/C6H10N2/c1-5-4-6(2)8(3)7-5/h4H,1-3H3

> <PUBCHEM_IUPAC_INCHIKEY>
HNOQAFMOBRWDKQ-UHFFFAOYSA-N

> <PUBCHEM_XLOGP3_AA>
1

> <PUBCHEM_EXACT_MASS>
110.084398

> <PUBCHEM_MOLECULAR_FORMULA>
C6H10N2

> <PUBCHEM_MOLECULAR_WEIGHT>
110.157

> <PUBCHEM_OPENEYE_CAN_SMILES>
CC1=CC(=NN1C)C

> <PUBCHEM_OPENEYE_ISO_SMILES>
CC1=CC(=NN1C)C

> <PUBCHEM_CACTVS_TPSA>
17.8

> <PUBCHEM_MONOISOTOPIC_WEIGHT>
110.084398

> <PUBCHEM_TOTAL_CHARGE>
0

> <PUBCHEM_HEAVY_ATOM_COUNT>
8

> <PUBCHEM_ATOM_DEF_STEREO_COUNT>
0

> <PUBCHEM_ATOM_UDEF_STEREO_COUNT>
0

> <PUBCHEM_BOND_DEF_STEREO_COUNT>
0

> <PUBCHEM_BOND_UDEF_STEREO_COUNT>
0

> <PUBCHEM_ISOTOPIC_ATOM_COUNT>
0

> <PUBCHEM_COMPONENT_COUNT>
1

> <PUBCHEM_CACTVS_TAUTO_COUNT>
1

> <PUBCHEM_COORDINATE_TYPE>
1
5
255

> <PUBCHEM_BONDANNOTATIONS>
1  2  8
1  3  8
2  4  8
3  5  8
4  5  8

$$$$

