17396022
  -OEChem-06241222533D

 43 45  0     1  0  0  0  0  0999 V2000
   -1.5125   -2.2701    0.2831 S   0  0  0  0  0  0  0  0  0  0  0  0
   -2.6354    2.4671   -0.7416 F   0  0  0  0  0  0  0  0  0  0  0  0
    2.5356    2.3662    2.6538 O   0  0  0  0  0  0  0  0  0  0  0  0
    1.3100   -2.7711    0.1641 O   0  0  0  0  0  0  0  0  0  0  0  0
    1.7030   -1.4026   -1.6337 O   0  0  0  0  0  0  0  0  0  0  0  0
    1.2931    1.1472   -0.6269 N   0  0  2  0  0  0  0  0  0  0  0  0
    2.6120    1.7245    1.3853 C   0  0  1  0  0  0  0  0  0  0  0  0
    1.2358    1.7435    0.7136 C   0  0  0  0  0  0  0  0  0  0  0  0
    2.2448    1.8646   -1.4872 C   0  0  0  0  0  0  0  0  0  0  0  0
    3.6603    2.4217    0.5221 C   0  0  0  0  0  0  0  0  0  0  0  0
    3.6532    1.8491   -0.8894 C   0  0  0  0  0  0  0  0  0  0  0  0
   -0.0360    1.1289   -1.2370 C   0  0  0  0  0  0  0  0  0  0  0  0
   -0.8410    0.0247   -0.6313 C   0  0  0  0  0  0  0  0  0  0  0  0
   -2.2040    0.1728   -0.2064 C   0  0  0  0  0  0  0  0  0  0  0  0
   -0.3503   -1.2424   -0.4228 C   0  0  0  0  0  0  0  0  0  0  0  0
   -2.7022   -1.0225    0.3210 C   0  0  0  0  0  0  0  0  0  0  0  0
   -3.0638    1.2971   -0.2454 C   0  0  0  0  0  0  0  0  0  0  0  0
   -4.0220   -1.1207    0.8043 C   0  0  0  0  0  0  0  0  0  0  0  0
    0.9457   -1.7680   -0.7124 C   0  0  0  0  0  0  0  0  0  0  0  0
   -4.3733    1.2030    0.2331 C   0  0  0  0  0  0  0  0  0  0  0  0
   -4.8452    0.0057    0.7522 C   0  0  0  0  0  0  0  0  0  0  0  0
    2.5939   -3.3764   -0.0267 C   0  0  0  0  0  0  0  0  0  0  0  0
    2.7982   -4.4424    1.0285 C   0  0  0  0  0  0  0  0  0  0  0  0
    2.9125    0.6838    1.5613 H   0  0  0  0  0  0  0  0  0  0  0  0
    0.5421    1.1974    1.3650 H   0  0  0  0  0  0  0  0  0  0  0  0
    0.8602    2.7759    0.6757 H   0  0  0  0  0  0  0  0  0  0  0  0
    2.2922    1.3867   -2.4733 H   0  0  0  0  0  0  0  0  0  0  0  0
    1.9220    2.9026   -1.6434 H   0  0  0  0  0  0  0  0  0  0  0  0
    3.4586    3.5002    0.4917 H   0  0  0  0  0  0  0  0  0  0  0  0
    4.6539    2.3148    0.9729 H   0  0  0  0  0  0  0  0  0  0  0  0
    4.0318    0.8192   -0.8684 H   0  0  0  0  0  0  0  0  0  0  0  0
    4.3323    2.4267   -1.5265 H   0  0  0  0  0  0  0  0  0  0  0  0
   -0.5071    2.1121   -1.1592 H   0  0  0  0  0  0  0  0  0  0  0  0
    0.0379    0.9078   -2.3110 H   0  0  0  0  0  0  0  0  0  0  0  0
    3.4214    2.3319    3.0534 H   0  0  0  0  0  0  0  0  0  0  0  0
   -4.3999   -2.0539    1.2122 H   0  0  0  0  0  0  0  0  0  0  0  0
   -5.0231    2.0727    0.1976 H   0  0  0  0  0  0  0  0  0  0  0  0
   -5.8650   -0.0579    1.1220 H   0  0  0  0  0  0  0  0  0  0  0  0
    3.3723   -2.6106    0.0624 H   0  0  0  0  0  0  0  0  0  0  0  0
    2.6382   -3.8269   -1.0242 H   0  0  0  0  0  0  0  0  0  0  0  0
    3.7718   -4.9265    0.9121 H   0  0  0  0  0  0  0  0  0  0  0  0
    2.0141   -5.2040    0.9633 H   0  0  0  0  0  0  0  0  0  0  0  0
    2.7366   -4.0079    2.0317 H   0  0  0  0  0  0  0  0  0  0  0  0
  1 15  1  0  0  0  0
  1 16  1  0  0  0  0
  2 17  1  0  0  0  0
  3  7  1  0  0  0  0
  3 35  1  0  0  0  0
  4 19  1  0  0  0  0
  4 22  1  0  0  0  0
  5 19  2  0  0  0  0
  6  8  1  0  0  0  0
  6  9  1  0  0  0  0
  6 12  1  0  0  0  0
  7  8  1  0  0  0  0
  7 10  1  0  0  0  0
  7 24  1  0  0  0  0
  8 25  1  0  0  0  0
  8 26  1  0  0  0  0
  9 11  1  0  0  0  0
  9 27  1  0  0  0  0
  9 28  1  0  0  0  0
 10 11  1  0  0  0  0
 10 29  1  0  0  0  0
 10 30  1  0  0  0  0
 11 31  1  0  0  0  0
 11 32  1  0  0  0  0
 12 13  1  0  0  0  0
 12 33  1  0  0  0  0
 12 34  1  0  0  0  0
 13 14  1  0  0  0  0
 13 15  2  0  0  0  0
 14 16  1  0  0  0  0
 14 17  2  0  0  0  0
 15 19  1  0  0  0  0
 16 18  2  0  0  0  0
 17 20  1  0  0  0  0
 18 21  1  0  0  0  0
 18 36  1  0  0  0  0
 20 21  2  0  0  0  0
 20 37  1  0  0  0  0
 21 38  1  0  0  0  0
 22 23  1  0  0  0  0
 22 39  1  0  0  0  0
 22 40  1  0  0  0  0
 23 41  1  0  0  0  0
 23 42  1  0  0  0  0
 23 43  1  0  0  0  0
M  END
> <PUBCHEM_COMPOUND_CID>
17396022

> <PUBCHEM_CONFORMER_RMSD>
0.8

> <PUBCHEM_CONFORMER_DIVERSEORDER>
1
7
65
69
111
62
9
59
116
38
112
105
70
50
92
100
93
63
90
95
99
98
36
8
24
29
64
67
5
31
45
113
18
101
28
6
11
61
83
35
13
22
84
79
16
117
73
109
89
19
12
54
88
23
57
77
114
94
75
106
86
33
68
40
39
115
102
2
21
55
53
42
72
97
110
34
104
10
58
107
108
3
71
44
60
37
81
17
47
43
30
26
49
27
80
78
4
25
14
41
56
76
52
118
103
85
87
32
91
15
51
82
20
46
96
48
74
66

> <PUBCHEM_MMFF94_PARTIAL_CHARGES>
23
1 -0.08
12 0.45
13 -0.18
15 -0.05
16 0.04
17 0.19
18 -0.15
19 0.81
2 -0.19
20 -0.15
21 -0.15
22 0.28
3 -0.68
35 0.4
36 0.15
37 0.15
38 0.15
4 -0.43
5 -0.57
6 -0.81
7 0.28
8 0.27
9 0.27

> <PUBCHEM_EFFECTIVE_ROTOR_COUNT>
6.2

> <PUBCHEM_PHARMACOPHORE_FEATURES>
7
1 3 acceptor
1 3 donor
1 5 acceptor
1 6 cation
5 1 13 14 15 16 rings
6 14 16 17 18 20 21 rings
6 6 7 8 9 10 11 rings

> <PUBCHEM_HEAVY_ATOM_COUNT>
23

> <PUBCHEM_ATOM_DEF_STEREO_COUNT>
0

> <PUBCHEM_ATOM_UDEF_STEREO_COUNT>
1

> <PUBCHEM_BOND_DEF_STEREO_COUNT>
0

> <PUBCHEM_BOND_UDEF_STEREO_COUNT>
0

> <PUBCHEM_ISOTOPIC_ATOM_COUNT>
0

> <PUBCHEM_COMPONENT_COUNT>
1

> <PUBCHEM_CACTVS_TAUTO_COUNT>
1

> <PUBCHEM_CONFORMER_ID>
0109713600000001

> <PUBCHEM_MMFF94_ENERGY>
42.4

> <PUBCHEM_FEATURE_SELFOVERLAP>
35.58

> <PUBCHEM_SHAPE_FINGERPRINT>
10006869 2 17969769964926576833
1100329 8 17615680078245626409
11578080 2 17274267295257319030
11680986 33 18270402805888723845
12293681 160 16396091979832921380
12422481 6 18053419671226543602
12592029 89 18411974737490911354
12788726 201 16903832654284336034
12839892 36 18126567821295078011
13140716 1 18267019453579849054
13533116 47 18408602591817257307
14178342 30 18196085539299247127
16110190 28 18198650795138290370
16945 1 18267863874726651957
17349148 13 17984711017644851791
17980427 23 17389390625499182561
19784866 170 18269545066628773197
20028762 73 17542209169854373487
20600515 1 17617094046124960102
20642791 239 17695029547994829118
20691752 17 17632573855642238055
20832881 197 17968359209623601628
20905425 154 18336253626322210821
21120745 212 17323492560436483302
21524375 3 18116425938687769910
22182313 1 18060144275646682389
22956985 138 18272940431418739730
23366157 5 18059565918933744758
23419403 2 17907043981190122924
23559900 14 18200308943986947599
2748010 2 18343014536839400981
350125 39 18268417122449574469
43471831 8 18340768117960627119
495365 180 18334862766215820325
5104073 3 18266158674490265283
5265222 85 18123737674861590788
5895379 119 16011817996079863793
633830 44 17750230318382038349
7364860 26 18336539507972634439
7808743 9 17832421995477453996
81228 2 17107920729529206662
84936 182 18187637042111527249

> <PUBCHEM_SHAPE_MULTIPOLES>
447.32
7.65
4.43
1.45
5.58
4.98
0.49
-2.89
2
-5.44
1.03
-1.35
-0.76
0.56

> <PUBCHEM_SHAPE_SELFOVERLAP>
941.747

> <PUBCHEM_SHAPE_VOLUME>
254.1

> <PUBCHEM_COORDINATE_TYPE>
2
5
10

$$$$

