9972
  -OEChem-06261204133D

 18 18  0     0  0  0  0  0  0999 V2000
    3.8102   -0.2839   -0.0719 F   0  0  0  0  0  0  0  0  0  0  0  0
   -2.2441    1.4124    0.4069 O   0  0  0  0  0  0  0  0  0  0  0  0
   -2.5041   -0.7989   -0.2455 N   0  0  0  0  0  0  0  0  0  0  0  0
   -3.8832   -0.7161   -0.2444 N   0  0  0  0  0  0  0  0  0  0  0  0
   -0.2928    0.1620    0.0515 C   0  0  0  0  0  0  0  0  0  0  0  0
    0.5222    1.2691   -0.1840 C   0  0  0  0  0  0  0  0  0  0  0  0
    0.2780   -1.0959    0.2455 C   0  0  0  0  0  0  0  0  0  0  0  0
    1.9083    1.1184   -0.2256 C   0  0  0  0  0  0  0  0  0  0  0  0
    1.6642   -1.2466    0.2040 C   0  0  0  0  0  0  0  0  0  0  0  0
   -1.7381    0.3190    0.0949 C   0  0  0  0  0  0  0  0  0  0  0  0
    2.4793   -0.1394   -0.0315 C   0  0  0  0  0  0  0  0  0  0  0  0
    0.0973    2.2570   -0.3422 H   0  0  0  0  0  0  0  0  0  0  0  0
   -0.3179   -1.9780    0.4601 H   0  0  0  0  0  0  0  0  0  0  0  0
    2.5434    1.9798   -0.4100 H   0  0  0  0  0  0  0  0  0  0  0  0
    2.1099   -2.2245    0.3612 H   0  0  0  0  0  0  0  0  0  0  0  0
   -2.0991   -1.6756   -0.5566 H   0  0  0  0  0  0  0  0  0  0  0  0
   -4.1940   -0.9525   -1.1857 H   0  0  0  0  0  0  0  0  0  0  0  0
   -4.2230   -1.4630    0.3601 H   0  0  0  0  0  0  0  0  0  0  0  0
  1 11  1  0  0  0  0
  2 10  2  0  0  0  0
  3  4  1  0  0  0  0
  3 10  1  0  0  0  0
  3 16  1  0  0  0  0
  4 17  1  0  0  0  0
  4 18  1  0  0  0  0
  5  6  2  0  0  0  0
  5  7  1  0  0  0  0
  5 10  1  0  0  0  0
  6  8  1  0  0  0  0
  6 12  1  0  0  0  0
  7  9  2  0  0  0  0
  7 13  1  0  0  0  0
  8 11  2  0  0  0  0
  8 14  1  0  0  0  0
  9 11  1  0  0  0  0
  9 15  1  0  0  0  0
M  END
> <PUBCHEM_COMPOUND_CID>
9972

> <PUBCHEM_CONFORMER_RMSD>
0.4

> <PUBCHEM_CONFORMER_DIVERSEORDER>
1
3
2

> <PUBCHEM_MMFF94_PARTIAL_CHARGES>
18
1 -0.19
10 0.54
11 0.19
12 0.15
13 0.15
14 0.15
15 0.15
16 0.37
17 0.36
18 0.36
2 -0.57
3 -0.42
4 -0.73
5 0.09
6 -0.15
7 -0.15
8 -0.15
9 -0.15

> <PUBCHEM_EFFECTIVE_ROTOR_COUNT>
2

> <PUBCHEM_PHARMACOPHORE_FEATURES>
4
1 2 acceptor
1 3 donor
1 4 donor
6 5 6 7 8 9 11 rings

> <PUBCHEM_HEAVY_ATOM_COUNT>
11

> <PUBCHEM_ATOM_DEF_STEREO_COUNT>
0

> <PUBCHEM_ATOM_UDEF_STEREO_COUNT>
0

> <PUBCHEM_BOND_DEF_STEREO_COUNT>
0

> <PUBCHEM_BOND_UDEF_STEREO_COUNT>
0

> <PUBCHEM_ISOTOPIC_ATOM_COUNT>
0

> <PUBCHEM_COMPONENT_COUNT>
1

> <PUBCHEM_CACTVS_TAUTO_COUNT>
2

> <PUBCHEM_CONFORMER_ID>
000026F400000001

> <PUBCHEM_MMFF94_ENERGY>
26.0218

> <PUBCHEM_FEATURE_SELFOVERLAP>
21.803

> <PUBCHEM_SHAPE_FINGERPRINT>
11062470 55 13902192581769961575
12032990 46 18410287030176571278
12897270 3 18413110537292063783
14128692 85 18334858294500561773
14325111 11 18410572894467323184
14993402 34 18273208682253429414
16945 1 18341885277751128826
20201158 50 18344145886479740027
21040471 1 18341045208165793728
23402655 69 18340779229663345509
23552423 10 18343016730876546807
2748010 2 18124034795559725814
29004967 10 17988352771522084408
5084963 1 18411419496750714952
528886 8 18340209686386342432

> <PUBCHEM_SHAPE_MULTIPOLES>
203.27
5.15
1.4
0.62
1.77
0.14
-0.01
-0.88
0.38
-0.02
-0.05
0.02
0.01
-0.29

> <PUBCHEM_SHAPE_SELFOVERLAP>
425.129

> <PUBCHEM_SHAPE_VOLUME>
115.6

> <PUBCHEM_COORDINATE_TYPE>
2
5
10

$$$$

