5834
  -OEChem-06261200543D

 59 62  0     1  0  0  0  0  0999 V2000
   -2.2966   -0.6175    1.8967 O   0  0  0  0  0  0  0  0  0  0  0  0
    0.6059    1.2355   -2.0277 O   0  0  0  0  0  0  0  0  0  0  0  0
   -4.2100   -1.5843   -0.7683 O   0  0  0  0  0  0  0  0  0  0  0  0
   -5.5297    0.6493   -0.0695 O   0  0  0  0  0  0  0  0  0  0  0  0
    6.5850    1.6136    1.6176 O   0  0  0  0  0  0  0  0  0  0  0  0
   -5.7750    2.6465    1.0656 O   0  0  0  0  0  0  0  0  0  0  0  0
   -1.0971   -0.6568   -0.2500 C   0  0  1  0  0  0  0  0  0  0  0  0
    0.0354   -1.5111    0.3615 C   0  0  2  0  0  0  0  0  0  0  0  0
    1.4033   -1.2818   -0.2985 C   0  0  1  0  0  0  0  0  0  0  0  0
    1.8006    0.2265   -0.1244 C   0  0  2  0  0  0  0  0  0  0  0  0
   -2.2936   -1.1834    0.5892 C   0  0  1  0  0  0  0  0  0  0  0  0
   -0.7229    0.8245   -0.0423 C   0  0  0  0  0  0  0  0  0  0  0  0
   -0.5513   -2.9203    0.3739 C   0  0  0  0  0  0  0  0  0  0  0  0
    0.6682    1.1863   -0.6093 C   0  0  2  0  0  0  0  0  0  0  0  0
    3.2499    0.5293   -0.6770 C   0  0  1  0  0  0  0  0  0  0  0  0
   -2.0461   -2.7058    0.6898 C   0  0  0  0  0  0  0  0  0  0  0  0
    2.4619   -2.2114    0.3217 C   0  0  0  0  0  0  0  0  0  0  0  0
   -1.3465   -0.9551   -1.7546 C   0  0  0  0  0  0  0  0  0  0  0  0
    3.8618   -1.9308   -0.2101 C   0  0  0  0  0  0  0  0  0  0  0  0
    4.2067   -0.4753   -0.0253 C   0  0  0  0  0  0  0  0  0  0  0  0
   -3.6438   -0.8434    0.0339 C   0  0  0  0  0  0  0  0  0  0  0  0
    3.3800    0.3919   -2.2107 C   0  0  0  0  0  0  0  0  0  0  0  0
    3.6457    1.9607   -0.3443 C   0  0  0  0  0  0  0  0  0  0  0  0
    5.2716   -0.1218    0.7113 C   0  0  0  0  0  0  0  0  0  0  0  0
   -4.2597    0.4531    0.5155 C   0  0  0  0  0  0  0  0  0  0  0  0
    4.7035    2.3193    0.3898 C   0  0  0  0  0  0  0  0  0  0  0  0
    5.6010    1.2969    0.9579 C   0  0  0  0  0  0  0  0  0  0  0  0
   -6.1913    1.7957    0.2911 C   0  0  0  0  0  0  0  0  0  0  0  0
   -7.5172    1.8699   -0.4036 C   0  0  0  0  0  0  0  0  0  0  0  0
    0.1551   -1.2249    1.4198 H   0  0  0  0  0  0  0  0  0  0  0  0
    1.3414   -1.5236   -1.3644 H   0  0  0  0  0  0  0  0  0  0  0  0
    1.8537    0.3925    0.9655 H   0  0  0  0  0  0  0  0  0  0  0  0
   -0.7166    1.0661    1.0276 H   0  0  0  0  0  0  0  0  0  0  0  0
   -1.4801    1.4641   -0.5093 H   0  0  0  0  0  0  0  0  0  0  0  0
   -0.0768   -3.5560    1.1284 H   0  0  0  0  0  0  0  0  0  0  0  0
   -0.4310   -3.4133   -0.5972 H   0  0  0  0  0  0  0  0  0  0  0  0
    0.8964    2.2039   -0.2730 H   0  0  0  0  0  0  0  0  0  0  0  0
   -2.6431   -3.2944   -0.0149 H   0  0  0  0  0  0  0  0  0  0  0  0
   -2.2671   -3.0836    1.6948 H   0  0  0  0  0  0  0  0  0  0  0  0
    2.2108   -3.2580    0.1122 H   0  0  0  0  0  0  0  0  0  0  0  0
    2.4603   -2.0997    1.4142 H   0  0  0  0  0  0  0  0  0  0  0  0
   -2.0695   -0.2457   -2.1733 H   0  0  0  0  0  0  0  0  0  0  0  0
   -0.4427   -0.8868   -2.3624 H   0  0  0  0  0  0  0  0  0  0  0  0
   -1.7464   -1.9600   -1.9248 H   0  0  0  0  0  0  0  0  0  0  0  0
    3.9244   -2.1977   -1.2712 H   0  0  0  0  0  0  0  0  0  0  0  0
    4.5755   -2.5809    0.3105 H   0  0  0  0  0  0  0  0  0  0  0  0
    2.9229    1.2318   -2.7451 H   0  0  0  0  0  0  0  0  0  0  0  0
    4.4344    0.3749   -2.5174 H   0  0  0  0  0  0  0  0  0  0  0  0
    2.9216   -0.5256   -2.5917 H   0  0  0  0  0  0  0  0  0  0  0  0
    3.0360    2.7607   -0.7584 H   0  0  0  0  0  0  0  0  0  0  0  0
   -2.9036   -1.1337    2.4544 H   0  0  0  0  0  0  0  0  0  0  0  0
   -0.0773    1.8823   -2.2727 H   0  0  0  0  0  0  0  0  0  0  0  0
    5.9223   -0.8607    1.1670 H   0  0  0  0  0  0  0  0  0  0  0  0
   -3.6035    1.2830    0.2415 H   0  0  0  0  0  0  0  0  0  0  0  0
   -4.3943    0.4108    1.6007 H   0  0  0  0  0  0  0  0  0  0  0  0
    4.9340    3.3619    0.5754 H   0  0  0  0  0  0  0  0  0  0  0  0
   -8.1337    1.0146   -0.1162 H   0  0  0  0  0  0  0  0  0  0  0  0
   -7.3670    1.8902   -1.4859 H   0  0  0  0  0  0  0  0  0  0  0  0
   -8.0326    2.7873   -0.1054 H   0  0  0  0  0  0  0  0  0  0  0  0
  1 11  1  0  0  0  0
  1 51  1  0  0  0  0
  2 14  1  0  0  0  0
  2 52  1  0  0  0  0
  3 21  2  0  0  0  0
  4 25  1  0  0  0  0
  4 28  1  0  0  0  0
  5 27  2  0  0  0  0
  6 28  2  0  0  0  0
  7  8  1  0  0  0  0
  7 11  1  0  0  0  0
  7 12  1  0  0  0  0
  7 18  1  0  0  0  0
  8  9  1  0  0  0  0
  8 13  1  0  0  0  0
  8 30  1  0  0  0  0
  9 10  1  0  0  0  0
  9 17  1  0  0  0  0
  9 31  1  0  0  0  0
 10 14  1  0  0  0  0
 10 15  1  0  0  0  0
 10 32  1  0  0  0  0
 11 16  1  0  0  0  0
 11 21  1  0  0  0  0
 12 14  1  0  0  0  0
 12 33  1  0  0  0  0
 12 34  1  0  0  0  0
 13 16  1  0  0  0  0
 13 35  1  0  0  0  0
 13 36  1  0  0  0  0
 14 37  1  0  0  0  0
 15 20  1  0  0  0  0
 15 22  1  0  0  0  0
 15 23  1  0  0  0  0
 16 38  1  0  0  0  0
 16 39  1  0  0  0  0
 17 19  1  0  0  0  0
 17 40  1  0  0  0  0
 17 41  1  0  0  0  0
 18 42  1  0  0  0  0
 18 43  1  0  0  0  0
 18 44  1  0  0  0  0
 19 20  1  0  0  0  0
 19 45  1  0  0  0  0
 19 46  1  0  0  0  0
 20 24  2  0  0  0  0
 21 25  1  0  0  0  0
 22 47  1  0  0  0  0
 22 48  1  0  0  0  0
 22 49  1  0  0  0  0
 23 26  2  0  0  0  0
 23 50  1  0  0  0  0
 24 27  1  0  0  0  0
 24 53  1  0  0  0  0
 25 54  1  0  0  0  0
 25 55  1  0  0  0  0
 26 27  1  0  0  0  0
 26 56  1  0  0  0  0
 28 29  1  0  0  0  0
 29 57  1  0  0  0  0
 29 58  1  0  0  0  0
 29 59  1  0  0  0  0
M  END
> <PUBCHEM_COMPOUND_CID>
5834

> <PUBCHEM_CONFORMER_RMSD>
0.8

> <PUBCHEM_CONFORMER_DIVERSEORDER>
1
2
14
6
12
5
13
7
8
11
3
4
9
10

> <PUBCHEM_MMFF94_PARTIAL_CHARGES>
24
1 -0.68
11 0.34
14 0.28
15 0.28
19 0.14
2 -0.68
20 -0.28
21 0.45
23 -0.29
24 -0.14
25 0.34
26 -0.14
27 0.54
28 0.66
29 0.06
3 -0.57
4 -0.43
5 -0.57
50 0.15
51 0.4
52 0.4
53 0.15
56 0.15
6 -0.57

> <PUBCHEM_EFFECTIVE_ROTOR_COUNT>
5.4

> <PUBCHEM_PHARMACOPHORE_FEATURES>
11
1 1 acceptor
1 1 donor
1 2 acceptor
1 2 donor
1 3 acceptor
1 5 acceptor
1 6 acceptor
5 7 8 11 13 16 rings
6 15 20 23 24 26 27 rings
6 7 8 9 10 12 14 rings
6 9 10 15 17 19 20 rings

> <PUBCHEM_HEAVY_ATOM_COUNT>
29

> <PUBCHEM_ATOM_DEF_STEREO_COUNT>
7

> <PUBCHEM_ATOM_UDEF_STEREO_COUNT>
0

> <PUBCHEM_BOND_DEF_STEREO_COUNT>
0

> <PUBCHEM_BOND_UDEF_STEREO_COUNT>
0

> <PUBCHEM_ISOTOPIC_ATOM_COUNT>
0

> <PUBCHEM_COMPONENT_COUNT>
1

> <PUBCHEM_CACTVS_TAUTO_COUNT>
6

> <PUBCHEM_CONFORMER_ID>
000016CA00000001

> <PUBCHEM_MMFF94_ENERGY>
91.7012

> <PUBCHEM_FEATURE_SELFOVERLAP>
55.918

> <PUBCHEM_SHAPE_FINGERPRINT>
10411042 1 17547854512979745954
10906281 52 17845643760566526222
11089746 13 18260832600455856245
11578080 2 17677633985089272913
11961588 58 14562816513185081880
12035758 1 17632858646465401141
12236239 1 18113904857383633607
12422481 6 17346314938346430717
12633257 1 16773796952639941106
13073987 5 18411418389092602147
13140716 1 18056763118514488354
13224815 77 18200591372631241486
13583140 156 17823697460503905650
13726171 33 16771228472630309580
13782708 43 13254796819905862193
14178342 30 18126844894183641034
14251764 30 11312057647224132521
14790565 3 18339637945136071465
14955137 171 12031781466376839119
15142383 8 16845578642421694573
15238133 3 18271518728512938316
15788980 27 16486705653840162702
15840311 113 18337105791553868037
1813 80 16486981661666403934
20157964 124 18261109716299133335
20511986 3 18260558817765572787
20715895 44 18410573998152618736
21033648 29 18272642442191691515
21298829 104 18410575089053420569
21304253 335 18341888597702839711
21403212 168 17632303393446919049
21421861 104 17703241701764441266
21452121 103 18411139138940287498
21774942 28 17677046966250225928
21859007 373 17559690614176452813
22182313 1 17702959156765886966
22950370 63 9799698103437272971
23559900 14 18262497236044750126
2838139 119 18335702810406144469
335352 9 18341326794775166478
3472631 163 18040718060482093557
34797466 226 17312814970700025831
34934 24 18408325466814411146
350125 39 18342735260859428966
3633792 109 18115023129386068139
3680242 22 17917720127611398610
3862424 121 12966026713090479016
4093350 32 17749387108863769814
4340502 62 18412544340127238293
465052 167 11312056560744872808
5104073 3 17345750764095409536
7970288 3 9439140731493083256

> <PUBCHEM_SHAPE_MULTIPOLES>
561.59
15.02
2.9
1.37
12.98
0.52
-0.41
-12.56
3.8
0.95
0.54
-0.73
-0.26
0.25

> <PUBCHEM_SHAPE_SELFOVERLAP>
1207.961

> <PUBCHEM_SHAPE_VOLUME>
305.3

> <PUBCHEM_COORDINATE_TYPE>
2
5
10

$$$$

