582954
  -OEChem-06241222443D

 18 17  0     0  0  0  0  0  0999 V2000
   -1.7566    0.4446   -0.7349 O   0  0  0  0  0  0  0  0  0  0  0  0
    2.4140   -0.0359   -0.1826 O   0  0  0  0  0  0  0  0  0  0  0  0
   -1.5979   -0.2917    1.4640 O   0  0  0  0  0  0  0  0  0  0  0  0
    1.1513    0.4435    0.1892 N   0  0  0  0  0  0  0  0  0  0  0  0
    0.2443   -0.4552   -0.0221 C   0  0  0  0  0  0  0  0  0  0  0  0
    0.4618   -1.8304   -0.5827 C   0  0  0  0  0  0  0  0  0  0  0  0
   -1.1596   -0.0839    0.3498 C   0  0  0  0  0  0  0  0  0  0  0  0
   -3.1236    0.8227   -0.5500 C   0  0  0  0  0  0  0  0  0  0  0  0
    3.3662    0.9863    0.0694 C   0  0  0  0  0  0  0  0  0  0  0  0
   -0.4892   -2.3609   -0.6808 H   0  0  0  0  0  0  0  0  0  0  0  0
    1.1147   -2.3983    0.0856 H   0  0  0  0  0  0  0  0  0  0  0  0
    0.9255   -1.7560   -1.5701 H   0  0  0  0  0  0  0  0  0  0  0  0
   -3.2030    1.5914    0.2248 H   0  0  0  0  0  0  0  0  0  0  0  0
   -3.7268   -0.0521   -0.2887 H   0  0  0  0  0  0  0  0  0  0  0  0
   -3.4934    1.2350   -1.4926 H   0  0  0  0  0  0  0  0  0  0  0  0
    3.3819    1.2376    1.1345 H   0  0  0  0  0  0  0  0  0  0  0  0
    3.1357    1.8761   -0.5247 H   0  0  0  0  0  0  0  0  0  0  0  0
    4.3543    0.6180   -0.2189 H   0  0  0  0  0  0  0  0  0  0  0  0
  1  7  1  0  0  0  0
  1  8  1  0  0  0  0
  2  4  1  0  0  0  0
  2  9  1  0  0  0  0
  3  7  2  0  0  0  0
  4  5  2  0  0  0  0
  5  6  1  0  0  0  0
  5  7  1  0  0  0  0
  6 10  1  0  0  0  0
  6 11  1  0  0  0  0
  6 12  1  0  0  0  0
  8 13  1  0  0  0  0
  8 14  1  0  0  0  0
  8 15  1  0  0  0  0
  9 16  1  0  0  0  0
  9 17  1  0  0  0  0
  9 18  1  0  0  0  0
M  END
> <PUBCHEM_COMPOUND_CID>
582954

> <PUBCHEM_CONFORMER_RMSD>
0.6

> <PUBCHEM_CONFORMER_DIVERSEORDER>
1
4
5
2
3

> <PUBCHEM_MMFF94_PARTIAL_CHARGES>
9
1 -0.43
2 -0.22
3 -0.57
4 -0.51
5 0.39
6 0.06
7 0.72
8 0.28
9 0.28

> <PUBCHEM_EFFECTIVE_ROTOR_COUNT>
3

> <PUBCHEM_PHARMACOPHORE_FEATURES>
2
1 3 acceptor
1 4 acceptor

> <PUBCHEM_HEAVY_ATOM_COUNT>
9

> <PUBCHEM_ATOM_DEF_STEREO_COUNT>
0

> <PUBCHEM_ATOM_UDEF_STEREO_COUNT>
0

> <PUBCHEM_BOND_DEF_STEREO_COUNT>
0

> <PUBCHEM_BOND_UDEF_STEREO_COUNT>
1

> <PUBCHEM_ISOTOPIC_ATOM_COUNT>
0

> <PUBCHEM_COMPONENT_COUNT>
1

> <PUBCHEM_CACTVS_TAUTO_COUNT>
1

> <PUBCHEM_CONFORMER_ID>
0008E52A00000001

> <PUBCHEM_MMFF94_ENERGY>
17.2735

> <PUBCHEM_FEATURE_SELFOVERLAP>
10.149

> <PUBCHEM_SHAPE_FINGERPRINT>
12897270 3 18113911476144209197
14325111 11 18409452474891108718
14390081 3 18342461460372415933
21040471 1 18335143055465019902
21293036 1 17967820409506336053
228727 97 16805321106523293371
23211744 41 17773889764396554063
23552423 10 16227719164292809351

> <PUBCHEM_SHAPE_MULTIPOLES>
162.63
4.61
1.28
0.92
1.34
0.62
-0.24
-2.5
0.58
0.37
0.25
-0.53
0.04
0.31

> <PUBCHEM_SHAPE_SELFOVERLAP>
302.11

> <PUBCHEM_SHAPE_VOLUME>
103.7

> <PUBCHEM_COORDINATE_TYPE>
2
5
10

$$$$

