51090986
  -OEChem-06241223012D

 39 40  0     1  0  0  0  0  0999 V2000
    2.0000   -3.1682    0.0000 F   0  0  0  0  0  0  0  0  0  0  0  0
    2.3660   -1.8022    0.0000 F   0  0  0  0  0  0  0  0  0  0  0  0
    3.3660   -3.5342    0.0000 F   0  0  0  0  0  0  0  0  0  0  0  0
    9.1836    0.9469    0.0000 O   0  0  0  0  0  0  0  0  0  0  0  0
    7.1962   -1.1682    0.0000 O   0  0  0  0  0  0  0  0  0  0  0  0
    6.3301   -2.6682    0.0000 O   0  0  0  0  0  0  0  0  0  0  0  0
    8.0622    2.3318    0.0000 N   0  0  0  0  0  0  0  0  0  0  0  0
    6.3301    0.3318    0.0000 N   0  0  0  0  0  0  0  0  0  0  0  0
    4.5981   -2.6682    0.0000 N   0  0  0  0  0  0  0  0  0  0  0  0
    8.1667    3.3263    0.0000 C   0  0  0  0  0  0  0  0  0  0  0  0
    7.1962    1.8318    0.0000 C   0  0  0  0  0  0  0  0  0  0  0  0
    9.1448    3.5342    0.0000 C   0  0  0  0  0  0  0  0  0  0  0  0
    9.6448    2.6682    0.0000 C   0  0  0  0  0  0  0  0  0  0  0  0
    7.1962    0.8318    0.0000 C   0  0  3  0  0  0  0  0  0  0  0  0
    8.9757    1.9251    0.0000 C   0  0  0  0  0  0  0  0  0  0  0  0
    8.0622    0.3318    0.0000 C   0  0  0  0  0  0  0  0  0  0  0  0
    6.3301   -0.6682    0.0000 C   0  0  0  0  0  0  0  0  0  0  0  0
    5.4641   -1.1682    0.0000 C   0  0  0  0  0  0  0  0  0  0  0  0
    5.4641   -2.1682    0.0000 C   0  0  0  0  0  0  0  0  0  0  0  0
    4.5981   -0.6682    0.0000 C   0  0  0  0  0  0  0  0  0  0  0  0
    3.7320   -2.1682    0.0000 C   0  0  0  0  0  0  0  0  0  0  0  0
    3.7320   -1.1682    0.0000 C   0  0  0  0  0  0  0  0  0  0  0  0
    2.8660   -2.6682    0.0000 C   0  0  0  0  0  0  0  0  0  0  0  0
    8.1019    3.9429    0.0000 H   0  0  0  0  0  0  0  0  0  0  0  0
    7.5467    3.3263    0.0000 H   0  0  0  0  0  0  0  0  0  0  0  0
    6.9841    2.4144    0.0000 H   0  0  0  0  0  0  0  0  0  0  0  0
    6.5856    1.7241    0.0000 H   0  0  0  0  0  0  0  0  0  0  0  0
    9.7112    3.7864    0.0000 H   0  0  0  0  0  0  0  0  0  0  0  0
    8.9533    4.1239    0.0000 H   0  0  0  0  0  0  0  0  0  0  0  0
   10.0597    2.2074    0.0000 H   0  0  0  0  0  0  0  0  0  0  0  0
   10.1464    3.0326    0.0000 H   0  0  0  0  0  0  0  0  0  0  0  0
    6.6592    1.1418    0.0000 H   0  0  0  0  0  0  0  0  0  0  0  0
    7.7522   -0.2051    0.0000 H   0  0  0  0  0  0  0  0  0  0  0  0
    8.5991    0.0218    0.0000 H   0  0  0  0  0  0  0  0  0  0  0  0
    8.3722    0.8687    0.0000 H   0  0  0  0  0  0  0  0  0  0  0  0
    5.7932    0.6418    0.0000 H   0  0  0  0  0  0  0  0  0  0  0  0
    4.5981   -0.0482    0.0000 H   0  0  0  0  0  0  0  0  0  0  0  0
    4.5981   -3.2882    0.0000 H   0  0  0  0  0  0  0  0  0  0  0  0
    3.1951   -0.8582    0.0000 H   0  0  0  0  0  0  0  0  0  0  0  0
  1 23  1  0  0  0  0
  2 23  1  0  0  0  0
  3 23  1  0  0  0  0
  4 15  2  0  0  0  0
  5 17  2  0  0  0  0
  6 19  2  0  0  0  0
  7 10  1  0  0  0  0
  7 11  1  0  0  0  0
  7 15  1  0  0  0  0
  8 14  1  0  0  0  0
  8 17  1  0  0  0  0
  8 36  1  0  0  0  0
  9 19  1  0  0  0  0
  9 21  1  0  0  0  0
  9 38  1  0  0  0  0
 10 12  1  0  0  0  0
 10 24  1  0  0  0  0
 10 25  1  0  0  0  0
 11 14  1  0  0  0  0
 11 26  1  0  0  0  0
 11 27  1  0  0  0  0
 12 13  1  0  0  0  0
 12 28  1  0  0  0  0
 12 29  1  0  0  0  0
 13 15  1  0  0  0  0
 13 30  1  0  0  0  0
 13 31  1  0  0  0  0
 14 16  1  0  0  0  0
 14 32  1  0  0  0  0
 16 33  1  0  0  0  0
 16 34  1  0  0  0  0
 16 35  1  0  0  0  0
 17 18  1  0  0  0  0
 18 19  1  0  0  0  0
 18 20  2  0  0  0  0
 20 22  1  0  0  0  0
 20 37  1  0  0  0  0
 21 22  2  0  0  0  0
 21 23  1  0  0  0  0
 22 39  1  0  0  0  0
M  END
> <PUBCHEM_COMPOUND_CID>
51090986

> <PUBCHEM_COMPOUND_CANONICALIZED>
1

> <PUBCHEM_CACTVS_COMPLEXITY>
596

> <PUBCHEM_CACTVS_HBOND_ACCEPTOR>
6

> <PUBCHEM_CACTVS_HBOND_DONOR>
2

> <PUBCHEM_CACTVS_ROTATABLE_BOND>
4

> <PUBCHEM_CACTVS_SUBSKEYS>
AAADceBzMYAAAAAAAAAAAAAAAAAAAWAAAAAgAAAAAAAAAAAAAAAAHwAQAAAADCjBgBQCAAPAAACIAiVSUACAAAAAAgAACIEIAEAIQBgIwAAUAAAAFgCAgYAEAAAAAAAAAAAAAAAAAAAAAAAAAAAAAAAAAA==

> <PUBCHEM_IUPAC_OPENEYE_NAME>
N-[1-methyl-2-(2-oxopyrrolidin-1-yl)ethyl]-2-oxo-6-(trifluoromethyl)-1H-pyridine-3-carboxamide

> <PUBCHEM_IUPAC_CAS_NAME>
2-oxo-N-[1-(2-oxo-1-pyrrolidinyl)propan-2-yl]-6-(trifluoromethyl)-1H-pyridine-3-carboxamide

> <PUBCHEM_IUPAC_NAME>
2-oxo-N-[1-(2-oxopyrrolidin-1-yl)propan-2-yl]-6-(trifluoromethyl)-1H-pyridine-3-carboxamide

> <PUBCHEM_IUPAC_SYSTEMATIC_NAME>
2-oxidanylidene-N-[1-(2-oxidanylidenepyrrolidin-1-yl)propan-2-yl]-6-(trifluoromethyl)-1H-pyridine-3-carboxamide

> <PUBCHEM_IUPAC_TRADITIONAL_NAME>
2-keto-N-[2-(2-ketopyrrolidino)-1-methyl-ethyl]-6-(trifluoromethyl)-1H-pyridine-3-carboxamide

> <PUBCHEM_IUPAC_INCHI>
InChI=1S/C14H16F3N3O3/c1-8(7-20-6-2-3-11(20)21)18-12(22)9-4-5-10(14(15,16)17)19-13(9)23/h4-5,8H,2-3,6-7H2,1H3,(H,18,22)(H,19,23)

> <PUBCHEM_IUPAC_INCHIKEY>
PPNWSAOXSGGXSI-UHFFFAOYSA-N

> <PUBCHEM_XLOGP3_AA>
1.1

> <PUBCHEM_EXACT_MASS>
331.114376

> <PUBCHEM_MOLECULAR_FORMULA>
C14H16F3N3O3

> <PUBCHEM_MOLECULAR_WEIGHT>
331.29035

> <PUBCHEM_OPENEYE_CAN_SMILES>
CC(CN1CCCC1=O)NC(=O)C2=CC=C(NC2=O)C(F)(F)F

> <PUBCHEM_OPENEYE_ISO_SMILES>
CC(CN1CCCC1=O)NC(=O)C2=CC=C(NC2=O)C(F)(F)F

> <PUBCHEM_CACTVS_TPSA>
78.5

> <PUBCHEM_MONOISOTOPIC_WEIGHT>
331.114376

> <PUBCHEM_TOTAL_CHARGE>
0

> <PUBCHEM_HEAVY_ATOM_COUNT>
23

> <PUBCHEM_ATOM_DEF_STEREO_COUNT>
0

> <PUBCHEM_ATOM_UDEF_STEREO_COUNT>
1

> <PUBCHEM_BOND_DEF_STEREO_COUNT>
0

> <PUBCHEM_BOND_UDEF_STEREO_COUNT>
0

> <PUBCHEM_ISOTOPIC_ATOM_COUNT>
0

> <PUBCHEM_COMPONENT_COUNT>
1

> <PUBCHEM_CACTVS_TAUTO_COUNT>
14

> <PUBCHEM_COORDINATE_TYPE>
1
5
255

> <PUBCHEM_BONDANNOTATIONS>
14  16  3
18  19  8
18  20  8
20  22  8
21  22  8
9  19  8
9  21  8

$$$$

