582793
  -OEChem-06241222442D

 35 38  0     1  0  0  0  0  0999 V2000
    2.0000    0.2390    0.0000 S   0  0  0  0  0  0  0  0  0  0  0  0
    4.6660   -2.2818    0.0000 O   0  0  0  0  0  0  0  0  0  0  0  0
    2.9176   -2.3164    0.0000 O   0  0  0  0  0  0  0  0  0  0  0  0
    4.6660    0.7182    0.0000 N   0  0  3  0  0  0  0  0  0  0  0  0
    5.5321    0.2182    0.0000 C   0  0  3  0  0  0  0  0  0  0  0  0
    4.6500    1.7597    0.0000 C   0  0  0  0  0  0  0  0  0  0  0  0
    5.5321   -0.7818    0.0000 C   0  0  0  0  0  0  0  0  0  0  0  0
    6.4421    0.7251    0.0000 C   0  0  0  0  0  0  0  0  0  0  0  0
    3.8000    0.2182    0.0000 C   0  0  0  0  0  0  0  0  0  0  0  0
    5.5480    2.2875    0.0000 C   0  0  0  0  0  0  0  0  0  0  0  0
    6.4501    1.7667    0.0000 C   0  0  0  0  0  0  0  0  0  0  0  0
    3.8000   -0.7818    0.0000 C   0  0  0  0  0  0  0  0  0  0  0  0
    4.6660   -1.2818    0.0000 C   0  0  0  0  0  0  0  0  0  0  0  0
    2.9061    0.7529    0.0000 C   0  0  0  0  0  0  0  0  0  0  0  0
    7.3689    0.1610    0.0000 C   0  0  0  0  0  0  0  0  0  0  0  0
    2.9061   -1.3164    0.0000 C   0  0  0  0  0  0  0  0  0  0  0  0
    7.3855    2.3164    0.0000 C   0  0  0  0  0  0  0  0  0  0  0  0
    2.0000   -0.8026    0.0000 C   0  0  0  0  0  0  0  0  0  0  0  0
    8.3168    0.6889    0.0000 C   0  0  0  0  0  0  0  0  0  0  0  0
    8.3252    1.7739    0.0000 C   0  0  0  0  0  0  0  0  0  0  0  0
    6.0666   -0.0959    0.0000 H   0  0  0  0  0  0  0  0  0  0  0  0
    4.4319    2.3401    0.0000 H   0  0  0  0  0  0  0  0  0  0  0  0
    4.0408    1.6442    0.0000 H   0  0  0  0  0  0  0  0  0  0  0  0
    5.7441   -1.3644    0.0000 H   0  0  0  0  0  0  0  0  0  0  0  0
    6.1426   -0.6741    0.0000 H   0  0  0  0  0  0  0  0  0  0  0  0
    5.9453    2.7634    0.0000 H   0  0  0  0  0  0  0  0  0  0  0  0
    5.1470    2.7604    0.0000 H   0  0  0  0  0  0  0  0  0  0  0  0
    3.3107    1.2227    0.0000 H   0  0  0  0  0  0  0  0  0  0  0  0
    2.5124    1.2319    0.0000 H   0  0  0  0  0  0  0  0  0  0  0  0
    7.3570   -0.4589    0.0000 H   0  0  0  0  0  0  0  0  0  0  0  0
    7.3831    2.9364    0.0000 H   0  0  0  0  0  0  0  0  0  0  0  0
    1.3891   -0.6965    0.0000 H   0  0  0  0  0  0  0  0  0  0  0  0
    1.7909   -1.3863    0.0000 H   0  0  0  0  0  0  0  0  0  0  0  0
    8.8501    0.3727    0.0000 H   0  0  0  0  0  0  0  0  0  0  0  0
    8.8633    2.0818    0.0000 H   0  0  0  0  0  0  0  0  0  0  0  0
  1 14  1  0  0  0  0
  1 18  1  0  0  0  0
  2 13  2  0  0  0  0
  3 16  2  0  0  0  0
  4  5  1  0  0  0  0
  4  6  1  0  0  0  0
  4  9  1  0  0  0  0
  5  7  1  0  0  0  0
  5  8  1  0  0  0  0
  5 21  1  0  0  0  0
  6 10  1  0  0  0  0
  6 22  1  0  0  0  0
  6 23  1  0  0  0  0
  7 13  1  0  0  0  0
  7 24  1  0  0  0  0
  7 25  1  0  0  0  0
  8 11  1  0  0  0  0
  8 15  2  0  0  0  0
  9 12  2  0  0  0  0
  9 14  1  0  0  0  0
 10 11  1  0  0  0  0
 10 26  1  0  0  0  0
 10 27  1  0  0  0  0
 11 17  2  0  0  0  0
 12 13  1  0  0  0  0
 12 16  1  0  0  0  0
 14 28  1  0  0  0  0
 14 29  1  0  0  0  0
 15 19  1  0  0  0  0
 15 30  1  0  0  0  0
 16 18  1  0  0  0  0
 17 20  1  0  0  0  0
 17 31  1  0  0  0  0
 18 32  1  0  0  0  0
 18 33  1  0  0  0  0
 19 20  2  0  0  0  0
 19 34  1  0  0  0  0
 20 35  1  0  0  0  0
M  END
> <PUBCHEM_COMPOUND_CID>
582793

> <PUBCHEM_COMPOUND_CANONICALIZED>
1

> <PUBCHEM_CACTVS_COMPLEXITY>
499

> <PUBCHEM_CACTVS_HBOND_ACCEPTOR>
4

> <PUBCHEM_CACTVS_HBOND_DONOR>
0

> <PUBCHEM_CACTVS_ROTATABLE_BOND>
0

> <PUBCHEM_CACTVS_SUBSKEYS>
AAADccB6MABAAAAAAAAAAAAAAAAAAAAAAAA8QIEAAAAAAACxAAAAHgQAAAAADCzF2ASwAIMAAAiIAqRSQACCAAAgABAIiAEIBMgIIDqokRGEIAhggACoiUcYicCegAAAAAAQAAAAAAAAACAAAAAAAAAAAA==

> <PUBCHEM_IUPAC_INCHI>
InChI=1S/C16H15NO2S/c18-14-7-12-11-4-2-1-3-10(11)5-6-17(12)13-8-20-9-15(19)16(13)14/h1-4,12H,5-9H2

> <PUBCHEM_IUPAC_INCHIKEY>
ZBLAEIAEYYRZCO-UHFFFAOYSA-N

> <PUBCHEM_XLOGP3_AA>
1.9

> <PUBCHEM_EXACT_MASS>
285.08235

> <PUBCHEM_MOLECULAR_FORMULA>
C16H15NO2S

> <PUBCHEM_MOLECULAR_WEIGHT>
285.3608

> <PUBCHEM_OPENEYE_CAN_SMILES>
C1CN2C(CC(=O)C3=C2CSCC3=O)C4=CC=CC=C41

> <PUBCHEM_OPENEYE_ISO_SMILES>
C1CN2C(CC(=O)C3=C2CSCC3=O)C4=CC=CC=C41

> <PUBCHEM_CACTVS_TPSA>
62.7

> <PUBCHEM_MONOISOTOPIC_WEIGHT>
285.08235

> <PUBCHEM_TOTAL_CHARGE>
0

> <PUBCHEM_HEAVY_ATOM_COUNT>
20

> <PUBCHEM_ATOM_DEF_STEREO_COUNT>
0

> <PUBCHEM_ATOM_UDEF_STEREO_COUNT>
1

> <PUBCHEM_BOND_DEF_STEREO_COUNT>
0

> <PUBCHEM_BOND_UDEF_STEREO_COUNT>
0

> <PUBCHEM_ISOTOPIC_ATOM_COUNT>
0

> <PUBCHEM_COMPONENT_COUNT>
1

> <PUBCHEM_CACTVS_TAUTO_COUNT>
4

> <PUBCHEM_COORDINATE_TYPE>
1
5
255

> <PUBCHEM_BONDANNOTATIONS>
11  17  8
15  19  8
17  20  8
19  20  8
5  7  3
8  11  8
8  15  8

$$$$

