10764
  -OEChem-06261204562D

 52 51  0     0  0  0  0  0  0999 V2000
    7.1962    0.7500    0.0000 O   0  0  0  0  0  0  0  0  0  0  0  0
    6.3301    2.2500    0.0000 O   0  0  0  0  0  0  0  0  0  0  0  0
    9.7942    1.2500    0.0000 N   0  3  0  0  0  0  0  0  0  0  0  0
    5.4641    0.7500    0.0000 N   0  0  0  0  0  0  0  0  0  0  0  0
    8.9282    0.7500    0.0000 C   0  0  0  0  0  0  0  0  0  0  0  0
   10.6603    1.7500    0.0000 C   0  0  0  0  0  0  0  0  0  0  0  0
   10.2942    0.3840    0.0000 C   0  0  0  0  0  0  0  0  0  0  0  0
    9.2942    2.1160    0.0000 C   0  0  0  0  0  0  0  0  0  0  0  0
    8.0622    1.2500    0.0000 C   0  0  0  0  0  0  0  0  0  0  0  0
   11.5263    1.2500    0.0000 C   0  0  0  0  0  0  0  0  0  0  0  0
    4.5981    1.2500    0.0000 C   0  0  0  0  0  0  0  0  0  0  0  0
    5.4641   -0.2500    0.0000 C   0  0  0  0  0  0  0  0  0  0  0  0
    3.7320    0.7500    0.0000 C   0  0  0  0  0  0  0  0  0  0  0  0
    4.5981   -0.7500    0.0000 C   0  0  0  0  0  0  0  0  0  0  0  0
    6.3301    1.2500    0.0000 C   0  0  0  0  0  0  0  0  0  0  0  0
    2.8660    1.2500    0.0000 C   0  0  0  0  0  0  0  0  0  0  0  0
    4.5981   -1.7500    0.0000 C   0  0  0  0  0  0  0  0  0  0  0  0
    2.0000    0.7500    0.0000 C   0  0  0  0  0  0  0  0  0  0  0  0
    3.7320   -2.2500    0.0000 C   0  0  0  0  0  0  0  0  0  0  0  0
    8.5297    0.2751    0.0000 H   0  0  0  0  0  0  0  0  0  0  0  0
    9.3267    0.2751    0.0000 H   0  0  0  0  0  0  0  0  0  0  0  0
   11.0588    2.2250    0.0000 H   0  0  0  0  0  0  0  0  0  0  0  0
   10.2617    2.2250    0.0000 H   0  0  0  0  0  0  0  0  0  0  0  0
    9.8312    2.4260    0.0000 H   0  0  0  0  0  0  0  0  0  0  0  0
    8.9842    2.6530    0.0000 H   0  0  0  0  0  0  0  0  0  0  0  0
    8.7573    1.8060    0.0000 H   0  0  0  0  0  0  0  0  0  0  0  0
    9.7573    0.0740    0.0000 H   0  0  0  0  0  0  0  0  0  0  0  0
   10.6042   -0.1530    0.0000 H   0  0  0  0  0  0  0  0  0  0  0  0
   10.8312    0.6940    0.0000 H   0  0  0  0  0  0  0  0  0  0  0  0
    8.4607    1.7250    0.0000 H   0  0  0  0  0  0  0  0  0  0  0  0
    7.6636    1.7250    0.0000 H   0  0  0  0  0  0  0  0  0  0  0  0
   11.2163    0.7131    0.0000 H   0  0  0  0  0  0  0  0  0  0  0  0
   12.0632    0.9400    0.0000 H   0  0  0  0  0  0  0  0  0  0  0  0
   11.8363    1.7869    0.0000 H   0  0  0  0  0  0  0  0  0  0  0  0
    5.6762   -0.8326    0.0000 H   0  0  0  0  0  0  0  0  0  0  0  0
    4.9966    1.7250    0.0000 H   0  0  0  0  0  0  0  0  0  0  0  0
    4.1996    1.7250    0.0000 H   0  0  0  0  0  0  0  0  0  0  0  0
    6.0747   -0.1423    0.0000 H   0  0  0  0  0  0  0  0  0  0  0  0
    4.3860   -0.1674    0.0000 H   0  0  0  0  0  0  0  0  0  0  0  0
    3.9875   -0.8577    0.0000 H   0  0  0  0  0  0  0  0  0  0  0  0
    3.3335    0.2751    0.0000 H   0  0  0  0  0  0  0  0  0  0  0  0
    4.1306    0.2751    0.0000 H   0  0  0  0  0  0  0  0  0  0  0  0
    3.2646    1.7250    0.0000 H   0  0  0  0  0  0  0  0  0  0  0  0
    2.4675    1.7250    0.0000 H   0  0  0  0  0  0  0  0  0  0  0  0
    4.8101   -2.3326    0.0000 H   0  0  0  0  0  0  0  0  0  0  0  0
    5.2087   -1.6423    0.0000 H   0  0  0  0  0  0  0  0  0  0  0  0
    3.4220   -1.7131    0.0000 H   0  0  0  0  0  0  0  0  0  0  0  0
    3.1951   -2.5600    0.0000 H   0  0  0  0  0  0  0  0  0  0  0  0
    4.0420   -2.7869    0.0000 H   0  0  0  0  0  0  0  0  0  0  0  0
    1.6900    1.2869    0.0000 H   0  0  0  0  0  0  0  0  0  0  0  0
    1.4631    0.4400    0.0000 H   0  0  0  0  0  0  0  0  0  0  0  0
    2.3100    0.2131    0.0000 H   0  0  0  0  0  0  0  0  0  0  0  0
  1  9  1  0  0  0  0
  1 15  1  0  0  0  0
  2 15  2  0  0  0  0
  3  5  1  0  0  0  0
  3  6  1  0  0  0  0
  3  7  1  0  0  0  0
  3  8  1  0  0  0  0
  4 11  1  0  0  0  0
  4 12  1  0  0  0  0
  4 15  1  0  0  0  0
  5  9  1  0  0  0  0
  5 20  1  0  0  0  0
  5 21  1  0  0  0  0
  6 10  1  0  0  0  0
  6 22  1  0  0  0  0
  6 23  1  0  0  0  0
  7 27  1  0  0  0  0
  7 28  1  0  0  0  0
  7 29  1  0  0  0  0
  8 24  1  0  0  0  0
  8 25  1  0  0  0  0
  8 26  1  0  0  0  0
  9 30  1  0  0  0  0
  9 31  1  0  0  0  0
 10 32  1  0  0  0  0
 10 33  1  0  0  0  0
 10 34  1  0  0  0  0
 11 13  1  0  0  0  0
 11 36  1  0  0  0  0
 11 37  1  0  0  0  0
 12 14  1  0  0  0  0
 12 35  1  0  0  0  0
 12 38  1  0  0  0  0
 13 16  1  0  0  0  0
 13 41  1  0  0  0  0
 13 42  1  0  0  0  0
 14 17  1  0  0  0  0
 14 39  1  0  0  0  0
 14 40  1  0  0  0  0
 16 18  1  0  0  0  0
 16 43  1  0  0  0  0
 16 44  1  0  0  0  0
 17 19  1  0  0  0  0
 17 45  1  0  0  0  0
 17 46  1  0  0  0  0
 18 50  1  0  0  0  0
 18 51  1  0  0  0  0
 18 52  1  0  0  0  0
 19 47  1  0  0  0  0
 19 48  1  0  0  0  0
 19 49  1  0  0  0  0
M  CHG  1   3   1
M  END
> <PUBCHEM_COMPOUND_CID>
10764

> <PUBCHEM_COMPOUND_CANONICALIZED>
1

> <PUBCHEM_CACTVS_COMPLEXITY>
234

> <PUBCHEM_CACTVS_HBOND_ACCEPTOR>
2

> <PUBCHEM_CACTVS_HBOND_DONOR>
0

> <PUBCHEM_CACTVS_ROTATABLE_BOND>
11

> <PUBCHEM_CACTVS_SUBSKEYS>
AAADcfBzMAAAAAAAAAAAAAAAAAAAAAAAAAAAAAAAAAAAAAAAAAAAHgAAAAAACADhgAYCCAMABAAIAAAAGAAAAAAAAAAAAAAIAAACAAAAgAANAAAABgCQAAAAAAAAAAAAAAAAAAAAAAAAAAAAAAAAAAAAAA==

> <PUBCHEM_IUPAC_OPENEYE_NAME>
2-(dibutylcarbamoyloxy)ethyl-ethyl-dimethyl-ammonium

> <PUBCHEM_IUPAC_CAS_NAME>
2-[(dibutylamino)-oxomethoxy]ethyl-ethyl-dimethylammonium

> <PUBCHEM_IUPAC_NAME>
2-(dibutylcarbamoyloxy)ethyl-ethyl-dimethylazanium

> <PUBCHEM_IUPAC_SYSTEMATIC_NAME>
2-(dibutylcarbamoyloxy)ethyl-ethyl-dimethyl-azanium

> <PUBCHEM_IUPAC_TRADITIONAL_NAME>
2-(dibutylcarbamoyloxy)ethyl-ethyl-dimethyl-ammonium

> <PUBCHEM_IUPAC_INCHI>
InChI=1S/C15H33N2O2/c1-6-9-11-16(12-10-7-2)15(18)19-14-13-17(4,5)8-3/h6-14H2,1-5H3/q+1

> <PUBCHEM_IUPAC_INCHIKEY>
SDEXVKFYBBHUKN-UHFFFAOYSA-N

> <PUBCHEM_XLOGP3_AA>
3

> <PUBCHEM_EXACT_MASS>
273.254203

> <PUBCHEM_MOLECULAR_FORMULA>
C15H33N2O2+

> <PUBCHEM_MOLECULAR_WEIGHT>
273.43472

> <PUBCHEM_OPENEYE_CAN_SMILES>
CCCCN(CCCC)C(=O)OCC[N+](C)(C)CC

> <PUBCHEM_OPENEYE_ISO_SMILES>
CCCCN(CCCC)C(=O)OCC[N+](C)(C)CC

> <PUBCHEM_CACTVS_TPSA>
29.5

> <PUBCHEM_MONOISOTOPIC_WEIGHT>
273.254203

> <PUBCHEM_TOTAL_CHARGE>
1

> <PUBCHEM_HEAVY_ATOM_COUNT>
19

> <PUBCHEM_ATOM_DEF_STEREO_COUNT>
0

> <PUBCHEM_ATOM_UDEF_STEREO_COUNT>
0

> <PUBCHEM_BOND_DEF_STEREO_COUNT>
0

> <PUBCHEM_BOND_UDEF_STEREO_COUNT>
0

> <PUBCHEM_ISOTOPIC_ATOM_COUNT>
0

> <PUBCHEM_COMPONENT_COUNT>
1

> <PUBCHEM_CACTVS_TAUTO_COUNT>
1

> <PUBCHEM_COORDINATE_TYPE>
1
5
255

$$$$

