583351
  -OEChem-06241222452D

 39 42  0     1  0  0  0  0  0999 V2000
    5.0190   -1.4974    0.0000 O   0  0  0  0  0  0  0  0  0  0  0  0
    6.3997   -0.4515    0.0000 O   0  0  0  0  0  0  0  0  0  0  0  0
    3.3807    3.5341    0.0000 O   0  5  0  0  0  0  0  0  0  0  0  0
    2.0000    2.4883    0.0000 O   0  0  0  0  0  0  0  0  0  0  0  0
    2.9922    2.6127    0.0000 N   0  3  0  0  0  0  0  0  0  0  0  0
    6.5052   -1.3435    0.0000 C   0  0  3  0  0  0  0  0  0  0  0  0
    6.0052   -3.5341    0.0000 C   0  0  3  0  0  0  0  0  0  0  0  0
    5.6228   -2.2945    0.0000 C   0  0  0  0  0  0  0  0  0  0  0  0
    5.5052   -1.3435    0.0000 C   0  0  3  0  0  0  0  0  0  0  0  0
    5.1042   -3.1002    0.0000 C   0  0  3  0  0  0  0  0  0  0  0  0
    4.8817   -2.1253    0.0000 C   0  0  0  0  0  0  0  0  0  0  0  0
    7.1287   -2.1253    0.0000 C   0  0  0  0  0  0  0  0  0  0  0  0
    6.9062   -3.1002    0.0000 C   0  0  0  0  0  0  0  0  0  0  0  0
    4.5268   -1.5332    0.0000 C   0  0  0  0  0  0  0  0  0  0  0  0
    4.3050   -2.5048    0.0000 C   0  0  0  0  0  0  0  0  0  0  0  0
    5.4075   -0.5759    0.0000 C   0  0  0  0  0  0  0  0  0  0  0  0
    4.8036    0.2213    0.0000 C   0  0  0  0  0  0  0  0  0  0  0  0
    5.1921    1.1427    0.0000 C   0  0  0  0  0  0  0  0  0  0  0  0
    3.8114    0.0969    0.0000 C   0  0  0  0  0  0  0  0  0  0  0  0
    4.5883    1.9399    0.0000 C   0  0  0  0  0  0  0  0  0  0  0  0
    3.2076    0.8941    0.0000 C   0  0  0  0  0  0  0  0  0  0  0  0
    3.5960    1.8155    0.0000 C   0  0  0  0  0  0  0  0  0  0  0  0
    6.7742   -0.7849    0.0000 H   0  0  0  0  0  0  0  0  0  0  0  0
    6.0052   -4.1541    0.0000 H   0  0  0  0  0  0  0  0  0  0  0  0
    5.0711   -2.5773    0.0000 H   0  0  0  0  0  0  0  0  0  0  0  0
    5.4459   -0.7263    0.0000 H   0  0  0  0  0  0  0  0  0  0  0  0
    4.7831   -3.6306    0.0000 H   0  0  0  0  0  0  0  0  0  0  0  0
    4.4952   -1.6406    0.0000 H   0  0  0  0  0  0  0  0  0  0  0  0
    4.3231   -2.3943    0.0000 H   0  0  0  0  0  0  0  0  0  0  0  0
    7.6873   -2.3943    0.0000 H   0  0  0  0  0  0  0  0  0  0  0  0
    7.5153   -1.6406    0.0000 H   0  0  0  0  0  0  0  0  0  0  0  0
    7.0441   -3.7047    0.0000 H   0  0  0  0  0  0  0  0  0  0  0  0
    7.5262   -3.1002    0.0000 H   0  0  0  0  0  0  0  0  0  0  0  0
    4.0956   -1.0876    0.0000 H   0  0  0  0  0  0  0  0  0  0  0  0
    3.7232   -2.7192    0.0000 H   0  0  0  0  0  0  0  0  0  0  0  0
    5.8073    1.2198    0.0000 H   0  0  0  0  0  0  0  0  0  0  0  0
    3.5706   -0.4744    0.0000 H   0  0  0  0  0  0  0  0  0  0  0  0
    4.8291    2.5112    0.0000 H   0  0  0  0  0  0  0  0  0  0  0  0
    2.5924    0.8170    0.0000 H   0  0  0  0  0  0  0  0  0  0  0  0
  1  8  1  0  0  0  0
  1 16  1  0  0  0  0
  2 16  2  0  0  0  0
  3  5  1  0  0  0  0
  4  5  2  0  0  0  0
  5 22  1  0  0  0  0
  6  8  1  0  0  0  0
  6  9  1  0  0  0  0
  6 12  1  0  0  0  0
  6 23  1  0  0  0  0
  7  8  1  0  0  0  0
  7 10  1  0  0  0  0
  7 13  1  0  0  0  0
  7 24  1  0  0  0  0
  8 25  1  0  0  0  0
  9 11  1  0  0  0  0
  9 14  1  0  0  0  0
  9 26  1  0  0  0  0
 10 11  1  0  0  0  0
 10 15  1  0  0  0  0
 10 27  1  0  0  0  0
 11 28  1  0  0  0  0
 11 29  1  0  0  0  0
 12 13  1  0  0  0  0
 12 30  1  0  0  0  0
 12 31  1  0  0  0  0
 13 32  1  0  0  0  0
 13 33  1  0  0  0  0
 14 15  2  0  0  0  0
 14 34  1  0  0  0  0
 15 35  1  0  0  0  0
 16 17  1  0  0  0  0
 17 18  2  0  0  0  0
 17 19  1  0  0  0  0
 18 20  1  0  0  0  0
 18 36  1  0  0  0  0
 19 21  2  0  0  0  0
 19 37  1  0  0  0  0
 20 22  2  0  0  0  0
 20 38  1  0  0  0  0
 21 22  1  0  0  0  0
 21 39  1  0  0  0  0
M  CHG  2   3  -1   5   1
M  END
> <PUBCHEM_COMPOUND_CID>
583351

> <PUBCHEM_COMPOUND_CANONICALIZED>
1

> <PUBCHEM_CACTVS_COMPLEXITY>
483

> <PUBCHEM_CACTVS_HBOND_ACCEPTOR>
4

> <PUBCHEM_CACTVS_HBOND_DONOR>
0

> <PUBCHEM_CACTVS_ROTATABLE_BOND>
3

> <PUBCHEM_CACTVS_SUBSKEYS>
AAADceB6OAAAAAAAAAAAAAAAAAAAAYIAAAAwYAAABggAAAABAAAAHgAEAAAADRyhmAIwyIAQRACJAiTSSwCCAAAkAgAoiAEAbMoIJjKAtZmCMQBkwAEI6YeY2fGeiAAAAAAAAACQAAYAADAAAQAABAAAAA==

> <PUBCHEM_IUPAC_INCHI>
InChI=1S/C17H17NO4/c19-17(10-3-5-13(6-4-10)18(20)21)22-16-14-7-8-15(16)12-2-1-11(14)9-12/h1-6,11-12,14-16H,7-9H2

> <PUBCHEM_IUPAC_INCHIKEY>
UTGSGIKZAXQCDH-UHFFFAOYSA-N

> <PUBCHEM_XLOGP3_AA>
3.7

> <PUBCHEM_EXACT_MASS>
299.115758

> <PUBCHEM_MOLECULAR_FORMULA>
C17H17NO4

> <PUBCHEM_MOLECULAR_WEIGHT>
299.32118

> <PUBCHEM_OPENEYE_CAN_SMILES>
C1CC2C3CC(C1C2OC(=O)C4=CC=C(C=C4)[N+](=O)[O-])C=C3

> <PUBCHEM_OPENEYE_ISO_SMILES>
C1CC2C3CC(C1C2OC(=O)C4=CC=C(C=C4)[N+](=O)[O-])C=C3

> <PUBCHEM_CACTVS_TPSA>
72.1

> <PUBCHEM_MONOISOTOPIC_WEIGHT>
299.115758

> <PUBCHEM_TOTAL_CHARGE>
0

> <PUBCHEM_HEAVY_ATOM_COUNT>
22

> <PUBCHEM_ATOM_DEF_STEREO_COUNT>
0

> <PUBCHEM_ATOM_UDEF_STEREO_COUNT>
4

> <PUBCHEM_BOND_DEF_STEREO_COUNT>
0

> <PUBCHEM_BOND_UDEF_STEREO_COUNT>
0

> <PUBCHEM_ISOTOPIC_ATOM_COUNT>
0

> <PUBCHEM_COMPONENT_COUNT>
1

> <PUBCHEM_CACTVS_TAUTO_COUNT>
1

> <PUBCHEM_COORDINATE_TYPE>
1
5
255

> <PUBCHEM_BONDANNOTATIONS>
10  11  3
17  18  8
17  19  8
18  20  8
19  21  8
20  22  8
21  22  8
6  12  3
7  13  3
9  11  3

$$$$

