9496
  -OEChem-06261203453D

 33 32  0     0  0  0  0  0  0999 V2000
   -0.0071    0.4895    0.0038 N   0  0  0  0  0  0  0  0  0  0  0  0
    0.9959    2.5294    0.6545 N   0  0  0  0  0  0  0  0  0  0  0  0
   -0.9212    2.6188   -0.6332 N   0  0  0  0  0  0  0  0  0  0  0  0
   -1.0351   -0.2902   -0.6752 C   0  0  0  0  0  0  0  0  0  0  0  0
    1.0337   -0.2799    0.6865 C   0  0  0  0  0  0  0  0  0  0  0  0
   -2.2214   -0.5304    0.2570 C   0  0  0  0  0  0  0  0  0  0  0  0
    2.2048   -0.5434   -0.2584 C   0  0  0  0  0  0  0  0  0  0  0  0
   -3.3215   -1.3291   -0.4430 C   0  0  0  0  0  0  0  0  0  0  0  0
    3.3143   -1.3287    0.4421 C   0  0  0  0  0  0  0  0  0  0  0  0
   -0.0201    1.8929   -0.0214 C   0  0  0  0  0  0  0  0  0  0  0  0
   -4.4908   -1.6029    0.4893 C   0  0  0  0  0  0  0  0  0  0  0  0
    4.4684   -1.6259   -0.5020 C   0  0  0  0  0  0  0  0  0  0  0  0
   -0.6269   -1.2520   -1.0102 H   0  0  0  0  0  0  0  0  0  0  0  0
   -1.3658    0.2253   -1.5849 H   0  0  0  0  0  0  0  0  0  0  0  0
    0.6204   -1.2435    1.0133 H   0  0  0  0  0  0  0  0  0  0  0  0
    1.3611    0.2040    1.6129 H   0  0  0  0  0  0  0  0  0  0  0  0
   -2.6271    0.4289    0.6014 H   0  0  0  0  0  0  0  0  0  0  0  0
   -1.8873   -1.0690    1.1525 H   0  0  0  0  0  0  0  0  0  0  0  0
    2.6087    0.4057   -0.6314 H   0  0  0  0  0  0  0  0  0  0  0  0
    1.8566   -1.1012   -1.1366 H   0  0  0  0  0  0  0  0  0  0  0  0
   -2.9183   -2.2834   -0.8013 H   0  0  0  0  0  0  0  0  0  0  0  0
   -3.6806   -0.7782   -1.3200 H   0  0  0  0  0  0  0  0  0  0  0  0
    2.9150   -2.2738    0.8282 H   0  0  0  0  0  0  0  0  0  0  0  0
    3.6882   -0.7588    1.3007 H   0  0  0  0  0  0  0  0  0  0  0  0
   -5.2656   -2.1737   -0.0320 H   0  0  0  0  0  0  0  0  0  0  0  0
   -4.1704   -2.1824    1.3608 H   0  0  0  0  0  0  0  0  0  0  0  0
   -4.9374   -0.6681    0.8431 H   0  0  0  0  0  0  0  0  0  0  0  0
    5.2503   -2.1865    0.0198 H   0  0  0  0  0  0  0  0  0  0  0  0
    4.1333   -2.2243   -1.3553 H   0  0  0  0  0  0  0  0  0  0  0  0
    4.9111   -0.7003   -0.8836 H   0  0  0  0  0  0  0  0  0  0  0  0
    1.7949    2.0479    1.0469 H   0  0  0  0  0  0  0  0  0  0  0  0
    1.0347    3.5430    0.6874 H   0  0  0  0  0  0  0  0  0  0  0  0
   -0.6965    3.6098   -0.4932 H   0  0  0  0  0  0  0  0  0  0  0  0
  1  4  1  0  0  0  0
  1  5  1  0  0  0  0
  1 10  1  0  0  0  0
  2 10  1  0  0  0  0
  2 31  1  0  0  0  0
  2 32  1  0  0  0  0
  3 10  2  0  0  0  0
  3 33  1  0  0  0  0
  4  6  1  0  0  0  0
  4 13  1  0  0  0  0
  4 14  1  0  0  0  0
  5  7  1  0  0  0  0
  5 15  1  0  0  0  0
  5 16  1  0  0  0  0
  6  8  1  0  0  0  0
  6 17  1  0  0  0  0
  6 18  1  0  0  0  0
  7  9  1  0  0  0  0
  7 19  1  0  0  0  0
  7 20  1  0  0  0  0
  8 11  1  0  0  0  0
  8 21  1  0  0  0  0
  8 22  1  0  0  0  0
  9 12  1  0  0  0  0
  9 23  1  0  0  0  0
  9 24  1  0  0  0  0
 11 25  1  0  0  0  0
 11 26  1  0  0  0  0
 11 27  1  0  0  0  0
 12 28  1  0  0  0  0
 12 29  1  0  0  0  0
 12 30  1  0  0  0  0
M  END
> <PUBCHEM_COMPOUND_CID>
9496

> <PUBCHEM_CONFORMER_RMSD>
0.8

> <PUBCHEM_CONFORMER_DIVERSEORDER>
1
12
41
14
34
38
29
32
26
6
17
35
20
27
23
19
31
2
22
8
15
30
3
10
7
36
4
25
21
13
18
39
37
33
5
11
42
28
24
40
9
16

> <PUBCHEM_MMFF94_PARTIAL_CHARGES>
9
1 -0.79
10 0.55
2 -0.85
3 -0.85
31 0.4
32 0.4
33 0.4
4 0.37
5 0.37

> <PUBCHEM_EFFECTIVE_ROTOR_COUNT>
7

> <PUBCHEM_PHARMACOPHORE_FEATURES>
5
1 11 hydrophobe
1 12 hydrophobe
1 2 donor
1 3 donor
4 1 2 3 10 cation

> <PUBCHEM_HEAVY_ATOM_COUNT>
12

> <PUBCHEM_ATOM_DEF_STEREO_COUNT>
0

> <PUBCHEM_ATOM_UDEF_STEREO_COUNT>
0

> <PUBCHEM_BOND_DEF_STEREO_COUNT>
0

> <PUBCHEM_BOND_UDEF_STEREO_COUNT>
0

> <PUBCHEM_ISOTOPIC_ATOM_COUNT>
0

> <PUBCHEM_COMPONENT_COUNT>
1

> <PUBCHEM_CACTVS_TAUTO_COUNT>
1

> <PUBCHEM_CONFORMER_ID>
0000251800000001

> <PUBCHEM_MMFF94_ENERGY>
12.4689

> <PUBCHEM_FEATURE_SELFOVERLAP>
25.42

> <PUBCHEM_SHAPE_FINGERPRINT>
12032990 46 18410856559656068551
12119455 92 7132437882537181931
12841375 25 18411138021774062703
14252887 29 18338522923811671402
161256 15 18339370655845892028
18534176 82 17973170813971547340
20097449 115 18411419496893016317
20339313 130 18337388236681341563
204376 136 8862941688747511927
20645477 70 18196107547033594335
20671657 53 18410851028128269675
20708731 107 18056756533738663125
20711985 327 18260260837234831351
20871998 184 18114750463561322654
20871998 22 18409735027767590544
20871999 31 18272091646779414015
21061003 4 18408887334668202055
21296965 67 18410857667846944442
21426921 1 18195526115771951518
23402539 116 18272090552032537598
23532345 12 18113612366517162435
23557571 272 18116146860893387742
23598291 2 18115875092432470639
23598294 1 18194411206227873506
2748010 2 18196680465205014093
3071541 250 18411978027341044364
68521 5 18341612680419130061
7364860 26 18119248363703722553

> <PUBCHEM_SHAPE_MULTIPOLES>
232.01
7.29
2.65
0.82
0.11
2.33
0
-7.78
0.01
-0.01
0.02
-0.01
-0.01
0.49

> <PUBCHEM_SHAPE_SELFOVERLAP>
420.985

> <PUBCHEM_SHAPE_VOLUME>
146.7

> <PUBCHEM_COORDINATE_TYPE>
2
5
10

$$$$

