51091019
  -OEChem-06241223012D

 48 50  0     0  0  0  0  0  0999 V2000
    5.3500   -1.0375    0.0000 S   0  0  0  0  0  0  0  0  0  0  0  0
    6.2160    3.4625    0.0000 O   0  0  0  0  0  0  0  0  0  0  0  0
    4.3794   -2.5320    0.0000 N   0  0  0  0  0  0  0  0  0  0  0  0
    2.9013   -1.8739    0.0000 N   0  0  0  0  0  0  0  0  0  0  0  0
    3.5704   -1.1308    0.0000 N   0  0  0  0  0  0  0  0  0  0  0  0
    7.9480    3.4625    0.0000 N   0  0  0  0  0  0  0  0  0  0  0  0
    5.1226   -3.2012    0.0000 C   0  0  0  0  0  0  0  0  0  0  0  0
    5.4316   -4.1522    0.0000 C   0  0  0  0  0  0  0  0  0  0  0  0
    6.1007   -3.4091    0.0000 C   0  0  0  0  0  0  0  0  0  0  0  0
    3.4013   -2.7399    0.0000 C   0  0  0  0  0  0  0  0  0  0  0  0
    4.4839   -1.5375    0.0000 C   0  0  0  0  0  0  0  0  0  0  0  0
    2.9945   -3.6535    0.0000 C   0  0  0  0  0  0  0  0  0  0  0  0
    2.0000   -3.7580    0.0000 C   0  0  0  0  0  0  0  0  0  0  0  0
    3.5823   -4.4625    0.0000 C   0  0  0  0  0  0  0  0  0  0  0  0
    5.3500   -0.0375    0.0000 C   0  0  0  0  0  0  0  0  0  0  0  0
    6.2160    0.4625    0.0000 C   0  0  0  0  0  0  0  0  0  0  0  0
    6.2160    1.4625    0.0000 C   0  0  0  0  0  0  0  0  0  0  0  0
    7.0820   -0.0375    0.0000 C   0  0  0  0  0  0  0  0  0  0  0  0
    7.0820    1.9625    0.0000 C   0  0  0  0  0  0  0  0  0  0  0  0
    7.9480    0.4625    0.0000 C   0  0  0  0  0  0  0  0  0  0  0  0
    7.9480    1.4625    0.0000 C   0  0  0  0  0  0  0  0  0  0  0  0
    7.0820    2.9625    0.0000 C   0  0  0  0  0  0  0  0  0  0  0  0
    7.9480    4.4625    0.0000 C   0  0  0  0  0  0  0  0  0  0  0  0
    8.8141    2.9625    0.0000 C   0  0  0  0  0  0  0  0  0  0  0  0
    5.4040   -2.6487    0.0000 H   0  0  0  0  0  0  0  0  0  0  0  0
    6.6265   -3.7376    0.0000 H   0  0  0  0  0  0  0  0  0  0  0  0
    6.3330   -2.8342    0.0000 H   0  0  0  0  0  0  0  0  0  0  0  0
    4.8841   -4.4433    0.0000 H   0  0  0  0  0  0  0  0  0  0  0  0
    5.8133   -4.6408    0.0000 H   0  0  0  0  0  0  0  0  0  0  0  0
    3.6111   -3.5887    0.0000 H   0  0  0  0  0  0  0  0  0  0  0  0
    3.0807   -4.8269    0.0000 H   0  0  0  0  0  0  0  0  0  0  0  0
    1.9352   -3.1414    0.0000 H   0  0  0  0  0  0  0  0  0  0  0  0
    1.3834   -3.8228    0.0000 H   0  0  0  0  0  0  0  0  0  0  0  0
    2.0648   -4.3746    0.0000 H   0  0  0  0  0  0  0  0  0  0  0  0
    3.9467   -4.9641    0.0000 H   0  0  0  0  0  0  0  0  0  0  0  0
    4.0839   -4.0981    0.0000 H   0  0  0  0  0  0  0  0  0  0  0  0
    5.1379    0.5451    0.0000 H   0  0  0  0  0  0  0  0  0  0  0  0
    4.7394   -0.1452    0.0000 H   0  0  0  0  0  0  0  0  0  0  0  0
    5.6790    1.7725    0.0000 H   0  0  0  0  0  0  0  0  0  0  0  0
    7.0820   -0.6575    0.0000 H   0  0  0  0  0  0  0  0  0  0  0  0
    8.4850    0.1525    0.0000 H   0  0  0  0  0  0  0  0  0  0  0  0
    8.4850    1.7725    0.0000 H   0  0  0  0  0  0  0  0  0  0  0  0
    8.5041    2.4256    0.0000 H   0  0  0  0  0  0  0  0  0  0  0  0
    9.3510    2.6525    0.0000 H   0  0  0  0  0  0  0  0  0  0  0  0
    8.5680    4.4625    0.0000 H   0  0  0  0  0  0  0  0  0  0  0  0
    7.9480    5.0825    0.0000 H   0  0  0  0  0  0  0  0  0  0  0  0
    7.3280    4.4625    0.0000 H   0  0  0  0  0  0  0  0  0  0  0  0
    9.1241    3.4994    0.0000 H   0  0  0  0  0  0  0  0  0  0  0  0
  1 11  1  0  0  0  0
  1 15  1  0  0  0  0
  2 22  2  0  0  0  0
  3  7  1  0  0  0  0
  3 10  1  0  0  0  0
  3 11  1  0  0  0  0
  4  5  1  0  0  0  0
  4 10  2  0  0  0  0
  5 11  2  0  0  0  0
  6 22  1  0  0  0  0
  6 23  1  0  0  0  0
  6 24  1  0  0  0  0
  7  8  1  0  0  0  0
  7  9  1  0  0  0  0
  7 25  1  0  0  0  0
  8  9  1  0  0  0  0
  8 28  1  0  0  0  0
  8 29  1  0  0  0  0
  9 26  1  0  0  0  0
  9 27  1  0  0  0  0
 10 12  1  0  0  0  0
 12 13  1  0  0  0  0
 12 14  1  0  0  0  0
 12 30  1  0  0  0  0
 13 32  1  0  0  0  0
 13 33  1  0  0  0  0
 13 34  1  0  0  0  0
 14 31  1  0  0  0  0
 14 35  1  0  0  0  0
 14 36  1  0  0  0  0
 15 16  1  0  0  0  0
 15 37  1  0  0  0  0
 15 38  1  0  0  0  0
 16 17  2  0  0  0  0
 16 18  1  0  0  0  0
 17 19  1  0  0  0  0
 17 39  1  0  0  0  0
 18 20  2  0  0  0  0
 18 40  1  0  0  0  0
 19 21  2  0  0  0  0
 19 22  1  0  0  0  0
 20 21  1  0  0  0  0
 20 41  1  0  0  0  0
 21 42  1  0  0  0  0
 23 45  1  0  0  0  0
 23 46  1  0  0  0  0
 23 47  1  0  0  0  0
 24 43  1  0  0  0  0
 24 44  1  0  0  0  0
 24 48  1  0  0  0  0
M  END
> <PUBCHEM_COMPOUND_CID>
51091019

> <PUBCHEM_COMPOUND_CANONICALIZED>
1

> <PUBCHEM_CACTVS_COMPLEXITY>
441

> <PUBCHEM_CACTVS_HBOND_ACCEPTOR>
4

> <PUBCHEM_CACTVS_HBOND_DONOR>
0

> <PUBCHEM_CACTVS_ROTATABLE_BOND>
6

> <PUBCHEM_CACTVS_SUBSKEYS>
AAADceB7oABAAAAAAAAAAAAAGAAAAWAAAAAwAAAAAAAAAAABwAAAHgQIAAAADSjF2wSzEIcMEAiqAiNyNACS0AtkALAdyAE4BMiIKDKgnRGEIQhgigKIiYcYiECOAAACAAAAAAAAAAQAAAAAAAAAAAAAAA==

> <PUBCHEM_IUPAC_OPENEYE_NAME>
3-[(4-cyclopropyl-5-isopropyl-1,2,4-triazol-3-yl)sulfanylmethyl]-N,N-dimethyl-benzamide

> <PUBCHEM_IUPAC_CAS_NAME>
3-[[(4-cyclopropyl-5-propan-2-yl-1,2,4-triazol-3-yl)thio]methyl]-N,N-dimethylbenzamide

> <PUBCHEM_IUPAC_NAME>
3-[(4-cyclopropyl-5-propan-2-yl-1,2,4-triazol-3-yl)sulfanylmethyl]-N,N-dimethylbenzamide

> <PUBCHEM_IUPAC_SYSTEMATIC_NAME>
3-[(4-cyclopropyl-5-propan-2-yl-1,2,4-triazol-3-yl)sulfanylmethyl]-N,N-dimethyl-benzamide

> <PUBCHEM_IUPAC_TRADITIONAL_NAME>
3-[[(4-cyclopropyl-5-isopropyl-1,2,4-triazol-3-yl)thio]methyl]-N,N-dimethyl-benzamide

> <PUBCHEM_IUPAC_INCHI>
InChI=1S/C18H24N4OS/c1-12(2)16-19-20-18(22(16)15-8-9-15)24-11-13-6-5-7-14(10-13)17(23)21(3)4/h5-7,10,12,15H,8-9,11H2,1-4H3

> <PUBCHEM_IUPAC_INCHIKEY>
YIMLGFRZJVPOEN-UHFFFAOYSA-N

> <PUBCHEM_XLOGP3_AA>
2.8

> <PUBCHEM_EXACT_MASS>
344.167082

> <PUBCHEM_MOLECULAR_FORMULA>
C18H24N4OS

> <PUBCHEM_MOLECULAR_WEIGHT>
344.47436

> <PUBCHEM_OPENEYE_CAN_SMILES>
CC(C)C1=NN=C(N1C2CC2)SCC3=CC=CC(=C3)C(=O)N(C)C

> <PUBCHEM_OPENEYE_ISO_SMILES>
CC(C)C1=NN=C(N1C2CC2)SCC3=CC=CC(=C3)C(=O)N(C)C

> <PUBCHEM_CACTVS_TPSA>
76.3

> <PUBCHEM_MONOISOTOPIC_WEIGHT>
344.167082

> <PUBCHEM_TOTAL_CHARGE>
0

> <PUBCHEM_HEAVY_ATOM_COUNT>
24

> <PUBCHEM_ATOM_DEF_STEREO_COUNT>
0

> <PUBCHEM_ATOM_UDEF_STEREO_COUNT>
0

> <PUBCHEM_BOND_DEF_STEREO_COUNT>
0

> <PUBCHEM_BOND_UDEF_STEREO_COUNT>
0

> <PUBCHEM_ISOTOPIC_ATOM_COUNT>
0

> <PUBCHEM_COMPONENT_COUNT>
1

> <PUBCHEM_CACTVS_TAUTO_COUNT>
1

> <PUBCHEM_COORDINATE_TYPE>
1
5
255

> <PUBCHEM_BONDANNOTATIONS>
16  17  8
16  18  8
17  19  8
18  20  8
19  21  8
20  21  8
3  10  8
3  11  8
4  10  8
4  5  8
5  11  8

$$$$

