17396607
  -OEChem-06241222573D

 39 41  0     0  0  0  0  0  0999 V2000
   -3.6339   -0.7473    0.7640 O   0  0  0  0  0  0  0  0  0  0  0  0
   -1.4374    0.8410    1.2777 O   0  0  0  0  0  0  0  0  0  0  0  0
    2.8770    3.1069   -0.2667 O   0  0  0  0  0  0  0  0  0  0  0  0
    3.8649    1.0541    0.3586 N   0  0  0  0  0  0  0  0  0  0  0  0
    2.0892   -0.3689    0.0267 C   0  0  0  0  0  0  0  0  0  0  0  0
    1.6775    0.9892   -0.3120 C   0  0  0  0  0  0  0  0  0  0  0  0
    3.4250   -0.2726    0.4273 C   0  0  0  0  0  0  0  0  0  0  0  0
    0.4899    1.4137   -0.7477 C   0  0  0  0  0  0  0  0  0  0  0  0
   -0.6953    0.5695   -0.9861 C   0  0  0  0  0  0  0  0  0  0  0  0
    2.8478    1.9030   -0.0894 C   0  0  0  0  0  0  0  0  0  0  0  0
    1.4427   -1.5903    0.0139 C   0  0  0  0  0  0  0  0  0  0  0  0
   -1.6146    0.3135    0.0314 C   0  0  0  0  0  0  0  0  0  0  0  0
    4.1586   -1.3727    0.8256 C   0  0  0  0  0  0  0  0  0  0  0  0
   -2.7278   -0.4886   -0.2200 C   0  0  0  0  0  0  0  0  0  0  0  0
   -0.8893    0.0235   -2.2549 C   0  0  0  0  0  0  0  0  0  0  0  0
    2.1675   -2.7183    0.4136 C   0  0  0  0  0  0  0  0  0  0  0  0
    3.5123   -2.6104    0.8154 C   0  0  0  0  0  0  0  0  0  0  0  0
   -2.9218   -1.0345   -1.4889 C   0  0  0  0  0  0  0  0  0  0  0  0
   -2.0024   -0.7784   -2.5063 C   0  0  0  0  0  0  0  0  0  0  0  0
   -4.9787   -0.3332    0.5318 C   0  0  0  0  0  0  0  0  0  0  0  0
   -2.0172    2.1189    1.5262 C   0  0  0  0  0  0  0  0  0  0  0  0
   -5.6339   -0.0180    1.8596 C   0  0  0  0  0  0  0  0  0  0  0  0
    0.3342    2.4684   -0.9633 H   0  0  0  0  0  0  0  0  0  0  0  0
    4.8032    1.3461    0.6054 H   0  0  0  0  0  0  0  0  0  0  0  0
    0.4135   -1.7210   -0.2879 H   0  0  0  0  0  0  0  0  0  0  0  0
    5.1942   -1.2883    1.1347 H   0  0  0  0  0  0  0  0  0  0  0  0
   -0.1820    0.2129   -3.0588 H   0  0  0  0  0  0  0  0  0  0  0  0
    1.6871   -3.6934    0.4141 H   0  0  0  0  0  0  0  0  0  0  0  0
    4.0521   -3.5028    1.1210 H   0  0  0  0  0  0  0  0  0  0  0  0
   -3.7793   -1.6682   -1.6978 H   0  0  0  0  0  0  0  0  0  0  0  0
   -2.1523   -1.2054   -3.4937 H   0  0  0  0  0  0  0  0  0  0  0  0
   -5.0109    0.5586   -0.1065 H   0  0  0  0  0  0  0  0  0  0  0  0
   -5.5199   -1.1445    0.0333 H   0  0  0  0  0  0  0  0  0  0  0  0
   -5.6142   -0.8939    2.5166 H   0  0  0  0  0  0  0  0  0  0  0  0
   -5.0928    0.7800    2.3784 H   0  0  0  0  0  0  0  0  0  0  0  0
   -6.6725    0.2938    1.7188 H   0  0  0  0  0  0  0  0  0  0  0  0
   -1.8518    2.3703    2.5775 H   0  0  0  0  0  0  0  0  0  0  0  0
   -3.0949    2.1028    1.3378 H   0  0  0  0  0  0  0  0  0  0  0  0
   -1.5431    2.8861    0.9066 H   0  0  0  0  0  0  0  0  0  0  0  0
  1 14  1  0  0  0  0
  1 20  1  0  0  0  0
  2 12  1  0  0  0  0
  2 21  1  0  0  0  0
  3 10  2  0  0  0  0
  4  7  1  0  0  0  0
  4 10  1  0  0  0  0
  4 24  1  0  0  0  0
  5  6  1  0  0  0  0
  5  7  1  0  0  0  0
  5 11  2  0  0  0  0
  6  8  2  0  0  0  0
  6 10  1  0  0  0  0
  7 13  2  0  0  0  0
  8  9  1  0  0  0  0
  8 23  1  0  0  0  0
  9 12  2  0  0  0  0
  9 15  1  0  0  0  0
 11 16  1  0  0  0  0
 11 25  1  0  0  0  0
 12 14  1  0  0  0  0
 13 17  1  0  0  0  0
 13 26  1  0  0  0  0
 14 18  2  0  0  0  0
 15 19  2  0  0  0  0
 15 27  1  0  0  0  0
 16 17  2  0  0  0  0
 16 28  1  0  0  0  0
 17 29  1  0  0  0  0
 18 19  1  0  0  0  0
 18 30  1  0  0  0  0
 19 31  1  0  0  0  0
 20 22  1  0  0  0  0
 20 32  1  0  0  0  0
 20 33  1  0  0  0  0
 21 37  1  0  0  0  0
 21 38  1  0  0  0  0
 21 39  1  0  0  0  0
 22 34  1  0  0  0  0
 22 35  1  0  0  0  0
 22 36  1  0  0  0  0
M  END
> <PUBCHEM_COMPOUND_CID>
17396607

> <PUBCHEM_CONFORMER_RMSD>
0.8

> <PUBCHEM_CONFORMER_DIVERSEORDER>
1
3
2
5
7
6
4

> <PUBCHEM_MMFF94_PARTIAL_CHARGES>
30
1 -0.36
10 0.62
11 -0.15
12 0.08
13 -0.15
14 0.08
15 -0.15
16 -0.15
17 -0.15
18 -0.15
19 -0.15
2 -0.36
20 0.28
21 0.28
23 0.15
24 0.37
25 0.15
26 0.15
27 0.15
28 0.15
29 0.15
3 -0.57
30 0.15
31 0.15
4 -0.55
5 0.03
6 -0.01
7 0.12
8 -0.18
9 0.03

> <PUBCHEM_EFFECTIVE_ROTOR_COUNT>
4.2

> <PUBCHEM_PHARMACOPHORE_FEATURES>
7
1 1 acceptor
1 2 acceptor
1 3 acceptor
1 4 donor
5 4 5 6 7 10 rings
6 5 7 11 13 16 17 rings
6 9 12 14 15 18 19 rings

> <PUBCHEM_HEAVY_ATOM_COUNT>
22

> <PUBCHEM_ATOM_DEF_STEREO_COUNT>
0

> <PUBCHEM_ATOM_UDEF_STEREO_COUNT>
0

> <PUBCHEM_BOND_DEF_STEREO_COUNT>
1

> <PUBCHEM_BOND_UDEF_STEREO_COUNT>
0

> <PUBCHEM_ISOTOPIC_ATOM_COUNT>
0

> <PUBCHEM_COMPONENT_COUNT>
1

> <PUBCHEM_CACTVS_TAUTO_COUNT>
2

> <PUBCHEM_CONFORMER_ID>
0109737F00000001

> <PUBCHEM_MMFF94_ENERGY>
89.8458

> <PUBCHEM_FEATURE_SELFOVERLAP>
35.614

> <PUBCHEM_SHAPE_FINGERPRINT>
10764073 3 15111399538608141497
12236239 1 17968094183696342780
12363563 72 15985098600703911031
12422481 6 17898830604125458649
12467345 10 18339075016631178449
12553582 1 18339089293123757342
12633257 1 18411704283216334803
12892183 10 18341601582888294817
13140716 1 18125449609806534354
13533116 47 18342166770229397507
13583140 156 18412546513950727229
14341114 328 18187359905151999315
14787075 74 17540814988703041237
15375462 189 18187652353648571823
15475509 84 18262233459901045577
1813 80 18262512736545018790
20645477 70 18057068880755928358
212916 134 16153425069510420887
21421861 104 18261381273895592763
22112679 90 17459205000762153565
23557571 272 16630814300459105701
23598288 3 17895484716562897549
31174 14 18272934933759418694
3286 77 18130783503299322546
34934 24 17750230322877238305
4072396 5 17749382711629589697
458136 41 18200312087934773884
5352402 22 17989201538833029067
633830 44 18117833296681890452
7097593 13 18188209934903520138
77492 1 17968106256865178052
90316 7 17531254954385837473
9981440 41 15802167070487611600

> <PUBCHEM_SHAPE_MULTIPOLES>
430.16
9.04
2.55
1.78
5.99
0.4
0.77
-2.27
-4.78
-3.27
-0.46
2.26
-0.14
-1.32

> <PUBCHEM_SHAPE_SELFOVERLAP>
938.508

> <PUBCHEM_SHAPE_VOLUME>
235.2

> <PUBCHEM_COORDINATE_TYPE>
2
5
10

$$$$

