13182
  -OEChem-06261207523D

 10  9  0     0  0  0  0  0  0999 V2000
    2.6401   -1.1169   -0.0033 Cl  0  0  0  0  0  0  0  0  0  0  0  0
   -2.6401   -1.1169    0.0033 Cl  0  0  0  0  0  0  0  0  0  0  0  0
    2.0609    0.5602    0.0039 C   0  0  0  0  0  0  0  0  0  0  0  0
   -2.0608    0.5602   -0.0039 C   0  0  0  0  0  0  0  0  0  0  0  0
    0.6005    0.5566    0.0011 C   0  0  0  0  0  0  0  0  0  0  0  0
   -0.6006    0.5567   -0.0011 C   0  0  0  0  0  0  0  0  0  0  0  0
    2.4614    1.0610   -0.8815 H   0  0  0  0  0  0  0  0  0  0  0  0
    2.4581    1.0522    0.8957 H   0  0  0  0  0  0  0  0  0  0  0  0
   -2.4615    1.0609    0.8815 H   0  0  0  0  0  0  0  0  0  0  0  0
   -2.4581    1.0522   -0.8958 H   0  0  0  0  0  0  0  0  0  0  0  0
  1  3  1  0  0  0  0
  2  4  1  0  0  0  0
  3  5  1  0  0  0  0
  3  7  1  0  0  0  0
  3  8  1  0  0  0  0
  4  6  1  0  0  0  0
  4  9  1  0  0  0  0
  4 10  1  0  0  0  0
  5  6  3  0  0  0  0
M  END
> <PUBCHEM_COMPOUND_CID>
13182

> <PUBCHEM_CONFORMER_RMSD>
0.4

> <PUBCHEM_CONFORMER_DIVERSEORDER>
1

> <PUBCHEM_MMFF94_PARTIAL_CHARGES>
6
1 -0.29
2 -0.29
3 0.49
4 0.49
5 -0.2
6 -0.2

> <PUBCHEM_EFFECTIVE_ROTOR_COUNT>
0

> <PUBCHEM_PHARMACOPHORE_FEATURES>
0

> <PUBCHEM_HEAVY_ATOM_COUNT>
6

> <PUBCHEM_ATOM_DEF_STEREO_COUNT>
0

> <PUBCHEM_ATOM_UDEF_STEREO_COUNT>
0

> <PUBCHEM_BOND_DEF_STEREO_COUNT>
0

> <PUBCHEM_BOND_UDEF_STEREO_COUNT>
0

> <PUBCHEM_ISOTOPIC_ATOM_COUNT>
0

> <PUBCHEM_COMPONENT_COUNT>
1

> <PUBCHEM_CACTVS_TAUTO_COUNT>
1

> <PUBCHEM_CONFORMER_ID>
0000337E00000001

> <PUBCHEM_MMFF94_ENERGY>
-0.1799

> <PUBCHEM_FEATURE_SELFOVERLAP>
0

> <PUBCHEM_SHAPE_FINGERPRINT>
23552423 10 18273493476786185454
29004967 10 18186520999075403544
5460574 1 9223237346712281600

> <PUBCHEM_SHAPE_MULTIPOLES>
127.22
4.58
1.27
0.63
0
0.36
0
1.8
0
0
0
0
0.01
0

> <PUBCHEM_SHAPE_SELFOVERLAP>
210.336

> <PUBCHEM_SHAPE_VOLUME>
86.5

> <PUBCHEM_COORDINATE_TYPE>
2
5
10

$$$$

