12283
  -OEChem-06261206453D

 15 15  0     0  0  0  0  0  0999 V2000
   -0.8220    2.5362   -0.0004 O   0  0  0  0  0  0  0  0  0  0  0  0
   -1.8217   -1.9733    0.0001 O   0  0  0  0  0  0  0  0  0  0  0  0
    0.8850    0.9939    0.0001 N   0  0  0  0  0  0  0  0  0  0  0  0
   -1.3474    0.2906    0.0003 N   0  0  0  0  0  0  0  0  0  0  0  0
    1.3182   -0.3113   -0.0001 C   0  0  0  0  0  0  0  0  0  0  0  0
    0.4475   -1.3296   -0.0003 C   0  0  0  0  0  0  0  0  0  0  0  0
   -0.4522    1.3614    0.0003 C   0  0  0  0  0  0  0  0  0  0  0  0
   -1.0086   -1.0538   -0.0002 C   0  0  0  0  0  0  0  0  0  0  0  0
    2.8013   -0.5141    0.0002 C   0  0  0  0  0  0  0  0  0  0  0  0
    1.5877    1.7279    0.0000 H   0  0  0  0  0  0  0  0  0  0  0  0
    0.7653   -2.3659   -0.0004 H   0  0  0  0  0  0  0  0  0  0  0  0
    3.0697   -1.5759    0.0000 H   0  0  0  0  0  0  0  0  0  0  0  0
    3.2498   -0.0576    0.8889 H   0  0  0  0  0  0  0  0  0  0  0  0
    3.2503   -0.0571   -0.8881 H   0  0  0  0  0  0  0  0  0  0  0  0
   -2.3377    0.5181    0.0004 H   0  0  0  0  0  0  0  0  0  0  0  0
  1  7  2  0  0  0  0
  2  8  2  0  0  0  0
  3  5  1  0  0  0  0
  3  7  1  0  0  0  0
  3 10  1  0  0  0  0
  4  7  1  0  0  0  0
  4  8  1  0  0  0  0
  4 15  1  0  0  0  0
  5  6  2  0  0  0  0
  5  9  1  0  0  0  0
  6  8  1  0  0  0  0
  6 11  1  0  0  0  0
  9 12  1  0  0  0  0
  9 13  1  0  0  0  0
  9 14  1  0  0  0  0
M  END
> <PUBCHEM_COMPOUND_CID>
12283

> <PUBCHEM_CONFORMER_RMSD>
0.4

> <PUBCHEM_CONFORMER_DIVERSEORDER>
1

> <PUBCHEM_MMFF94_PARTIAL_CHARGES>
12
1 -0.57
10 0.37
11 0.15
15 0.37
2 -0.57
3 -0.54
4 -0.49
5 -0.03
6 -0.14
7 0.69
8 0.62
9 0.14

> <PUBCHEM_EFFECTIVE_ROTOR_COUNT>
0

> <PUBCHEM_PHARMACOPHORE_FEATURES>
5
1 1 acceptor
1 2 acceptor
1 3 donor
1 4 donor
6 3 4 5 6 7 8 rings

> <PUBCHEM_HEAVY_ATOM_COUNT>
9

> <PUBCHEM_ATOM_DEF_STEREO_COUNT>
0

> <PUBCHEM_ATOM_UDEF_STEREO_COUNT>
0

> <PUBCHEM_BOND_DEF_STEREO_COUNT>
0

> <PUBCHEM_BOND_UDEF_STEREO_COUNT>
0

> <PUBCHEM_ISOTOPIC_ATOM_COUNT>
0

> <PUBCHEM_COMPONENT_COUNT>
1

> <PUBCHEM_CACTVS_TAUTO_COUNT>
6

> <PUBCHEM_CONFORMER_ID>
00002FFB00000001

> <PUBCHEM_MMFF94_ENERGY>
15.0338

> <PUBCHEM_FEATURE_SELFOVERLAP>
25.414

> <PUBCHEM_SHAPE_FINGERPRINT>
18185500 45 18266456495031387254
21040471 1 17978229683918581636
23552423 10 18272927254637838558
23552449 1 18410015429197545442
241688 4 18338516339600315810
2748010 2 18265619783825355396
29004967 10 18052257289050154546

> <PUBCHEM_SHAPE_MULTIPOLES>
163.52
2.57
2.23
0.57
1.91
0.15
0
-0.02
0
-1.52
0
0.04
-0.01
0

> <PUBCHEM_SHAPE_SELFOVERLAP>
335.074

> <PUBCHEM_SHAPE_VOLUME>
93.4

> <PUBCHEM_COORDINATE_TYPE>
2
5
10

$$$$

