17396394
  -OEChem-06241222563D

 47 48  0     1  0  0  0  0  0999 V2000
   -3.2769    2.1680    0.3225 S   0  0  0  0  0  0  0  0  0  0  0  0
    1.8012   -0.6303   -1.9379 O   0  0  0  0  0  0  0  0  0  0  0  0
   -0.8132    3.1448   -1.3601 O   0  0  0  0  0  0  0  0  0  0  0  0
    0.4146    2.1401    0.3385 N   0  0  0  0  0  0  0  0  0  0  0  0
   -2.2523   -0.0435    1.4334 N   0  0  0  0  0  0  0  0  0  0  0  0
   -2.8064   -0.1638   -0.9087 N   0  0  0  0  0  0  0  0  0  0  0  0
    1.5844    1.8079   -0.4427 C   0  0  2  0  0  0  0  0  0  0  0  0
    2.2645    0.5644    0.0882 C   0  0  0  0  0  0  0  0  0  0  0  0
    2.5326    3.0024   -0.5250 C   0  0  0  0  0  0  0  0  0  0  0  0
    2.3389   -0.5933   -0.6865 C   0  0  0  0  0  0  0  0  0  0  0  0
    2.8202    0.5843    1.3674 C   0  0  0  0  0  0  0  0  0  0  0  0
   -0.6917    2.7844   -0.1904 C   0  0  0  0  0  0  0  0  0  0  0  0
    2.9693   -1.7308   -0.1819 C   0  0  0  0  0  0  0  0  0  0  0  0
    3.4504   -0.5532    1.8719 C   0  0  0  0  0  0  0  0  0  0  0  0
   -1.7734    3.0339    0.8340 C   0  0  0  0  0  0  0  0  0  0  0  0
    3.5250   -1.7107    1.0974 C   0  0  0  0  0  0  0  0  0  0  0  0
   -1.8779   -2.0821    0.2100 C   0  0  0  0  0  0  0  0  0  0  0  0
   -1.8393   -1.3260    1.3637 C   0  0  0  0  0  0  0  0  0  0  0  0
   -2.3764   -1.4425   -0.9066 C   0  0  0  0  0  0  0  0  0  0  0  0
   -2.7172    0.4676    0.2775 C   0  0  0  0  0  0  0  0  0  0  0  0
   -1.4129   -3.4945    0.1725 C   0  0  0  0  0  0  0  0  0  0  0  0
   -1.3197   -1.9119    2.6350 C   0  0  0  0  0  0  0  0  0  0  0  0
   -2.4665   -2.1607   -2.2127 C   0  0  0  0  0  0  0  0  0  0  0  0
    1.9229   -1.8544   -2.6594 C   0  0  0  0  0  0  0  0  0  0  0  0
    1.2343    1.6272   -1.4658 H   0  0  0  0  0  0  0  0  0  0  0  0
    2.0409    3.8575   -1.0023 H   0  0  0  0  0  0  0  0  0  0  0  0
    3.4247    2.7575   -1.1121 H   0  0  0  0  0  0  0  0  0  0  0  0
    2.8618    3.3356    0.4656 H   0  0  0  0  0  0  0  0  0  0  0  0
    0.4242    1.9209    1.3305 H   0  0  0  0  0  0  0  0  0  0  0  0
    2.7692    1.4735    1.9898 H   0  0  0  0  0  0  0  0  0  0  0  0
    3.0646   -2.6650   -0.7243 H   0  0  0  0  0  0  0  0  0  0  0  0
    3.8818   -0.5383    2.8685 H   0  0  0  0  0  0  0  0  0  0  0  0
   -1.4786    2.7094    1.8361 H   0  0  0  0  0  0  0  0  0  0  0  0
   -1.9676    4.1101    0.8747 H   0  0  0  0  0  0  0  0  0  0  0  0
    4.0152   -2.5961    1.4918 H   0  0  0  0  0  0  0  0  0  0  0  0
   -2.2414   -4.1688    0.4119 H   0  0  0  0  0  0  0  0  0  0  0  0
   -1.0095   -3.7742   -0.8055 H   0  0  0  0  0  0  0  0  0  0  0  0
   -0.5976   -3.6814    0.8783 H   0  0  0  0  0  0  0  0  0  0  0  0
   -1.8502   -2.8353    2.8882 H   0  0  0  0  0  0  0  0  0  0  0  0
   -1.4634   -1.2157    3.4688 H   0  0  0  0  0  0  0  0  0  0  0  0
   -0.2464   -2.1119    2.5569 H   0  0  0  0  0  0  0  0  0  0  0  0
   -1.4676   -2.3787   -2.6031 H   0  0  0  0  0  0  0  0  0  0  0  0
   -2.9824   -1.5451   -2.9579 H   0  0  0  0  0  0  0  0  0  0  0  0
   -3.0346   -3.0910   -2.1113 H   0  0  0  0  0  0  0  0  0  0  0  0
    2.9705   -2.1028   -2.8606 H   0  0  0  0  0  0  0  0  0  0  0  0
    1.3873   -2.6706   -2.1624 H   0  0  0  0  0  0  0  0  0  0  0  0
    1.4398   -1.7045   -3.6307 H   0  0  0  0  0  0  0  0  0  0  0  0
  1 15  1  0  0  0  0
  1 20  1  0  0  0  0
  2 10  1  0  0  0  0
  2 24  1  0  0  0  0
  3 12  2  0  0  0  0
  4  7  1  0  0  0  0
  4 12  1  0  0  0  0
  4 29  1  0  0  0  0
  5 18  2  0  0  0  0
  5 20  1  0  0  0  0
  6 19  1  0  0  0  0
  6 20  2  0  0  0  0
  7  8  1  0  0  0  0
  7  9  1  0  0  0  0
  7 25  1  0  0  0  0
  8 10  1  0  0  0  0
  8 11  2  0  0  0  0
  9 26  1  0  0  0  0
  9 27  1  0  0  0  0
  9 28  1  0  0  0  0
 10 13  2  0  0  0  0
 11 14  1  0  0  0  0
 11 30  1  0  0  0  0
 12 15  1  0  0  0  0
 13 16  1  0  0  0  0
 13 31  1  0  0  0  0
 14 16  2  0  0  0  0
 14 32  1  0  0  0  0
 15 33  1  0  0  0  0
 15 34  1  0  0  0  0
 16 35  1  0  0  0  0
 17 18  1  0  0  0  0
 17 19  2  0  0  0  0
 17 21  1  0  0  0  0
 18 22  1  0  0  0  0
 19 23  1  0  0  0  0
 21 36  1  0  0  0  0
 21 37  1  0  0  0  0
 21 38  1  0  0  0  0
 22 39  1  0  0  0  0
 22 40  1  0  0  0  0
 22 41  1  0  0  0  0
 23 42  1  0  0  0  0
 23 43  1  0  0  0  0
 23 44  1  0  0  0  0
 24 45  1  0  0  0  0
 24 46  1  0  0  0  0
 24 47  1  0  0  0  0
M  END
> <PUBCHEM_COMPOUND_CID>
17396394

> <PUBCHEM_CONFORMER_RMSD>
1

> <PUBCHEM_CONFORMER_DIVERSEORDER>
1
170
135
98
117
200
103
184
44
231
75
192
142
214
254
22
268
80
64
49
159
249
99
53
156
41
121
50
207
109
35
197
263
198
54
272
178
283
219
51
138
237
226
154
194
157
57
279
59
136
17
248
168
4
233
11
112
227
208
230
253
27
96
149
158
7
181
152
73
239
160
26
266
206
81
37
85
19
76
93
108
175
258
132
127
36
107
45
209
10
33
129
97
213
52
83
169
165
94
39
95
140
139
183
228
278
271
151
190
285
188
251
287
199
252
67
195
130
264
161
105
61
46
133
70
20
261
111
14
196
150
153
100
86
155
90
229
115
68
256
236
267
25
15
91
18
238
187
218
174
241
182
180
8
284
125
220
223
40
203
242
58
23
143
31
286
34
166
210
60
77
189
24
273
56
280
32
167
123
225
244
74
43
2
262
47
274
162
16
246
134
276
255
191
148
110
88
3
222
65
145
21
72
89
185
79
118
28
173
84
216
243
87
224
106
126
101
171
281
131
247
176
204
63
144
177
221
235
55
116
92
78
6
9
124
42
137
193
257
113
282
179
245
12
122
215
269
211
147
172
71
104
260
128
250
202
114
205
275
212
48
232
259
30
186
270
38
289
146
66
102
13
69
240
290
288
62
141
120
265
29
201
164
163
82
217
234
5
119
277

> <PUBCHEM_MMFF94_PARTIAL_CHARGES>
28
1 -0.33
10 0.08
11 -0.15
12 0.57
13 -0.15
14 -0.15
15 0.29
16 -0.15
17 -0.14
18 0.17
19 0.17
2 -0.36
20 0.72
21 0.14
22 0.14
23 0.14
24 0.28
29 0.37
3 -0.57
30 0.15
31 0.15
32 0.15
35 0.15
4 -0.73
5 -0.62
6 -0.62
7 0.44
8 -0.14

> <PUBCHEM_EFFECTIVE_ROTOR_COUNT>
7

> <PUBCHEM_PHARMACOPHORE_FEATURES>
7
1 2 acceptor
1 3 acceptor
1 4 donor
1 5 acceptor
3 5 6 20 cation
6 5 6 17 18 19 20 rings
6 8 10 11 13 14 16 rings

> <PUBCHEM_HEAVY_ATOM_COUNT>
24

> <PUBCHEM_ATOM_DEF_STEREO_COUNT>
0

> <PUBCHEM_ATOM_UDEF_STEREO_COUNT>
1

> <PUBCHEM_BOND_DEF_STEREO_COUNT>
0

> <PUBCHEM_BOND_UDEF_STEREO_COUNT>
0

> <PUBCHEM_ISOTOPIC_ATOM_COUNT>
0

> <PUBCHEM_COMPONENT_COUNT>
1

> <PUBCHEM_CACTVS_TAUTO_COUNT>
2

> <PUBCHEM_CONFORMER_ID>
010972AA00000001

> <PUBCHEM_MMFF94_ENERGY>
64.0819

> <PUBCHEM_FEATURE_SELFOVERLAP>
35.52

> <PUBCHEM_SHAPE_FINGERPRINT>
11370993 70 17169004433022987055
11578080 2 17131846382160668652
12422481 6 18044065013639363499
12553582 1 18120369861390535985
12633257 1 18115318902635786520
12788726 201 18408037420780837761
128993 33 17915151595007435250
14114207 22 16047905174225174547
1420 336 18413108376765304057
192875 21 18119552971216462839
19930381 70 18196938764649316139
20905425 154 18122620561555514792
23728640 28 18337677519929572369
238 59 17331696643144231871
3298306 158 17480585279633295469
35225 105 18126840723332001535
3797600 57 17107899838961733838
469060 322 15797137040722605848
484985 159 16977643299406852034
5283178 26 17318971247736060855
6438718 38 18265050412975039042
81228 2 18340491157015708617

> <PUBCHEM_SHAPE_MULTIPOLES>
471.08
5.98
4.33
2.19
2.06
1.71
-0.24
-0.78
0.84
-1.72
-0.63
0.33
-1.59
-0.3

> <PUBCHEM_SHAPE_SELFOVERLAP>
968.945

> <PUBCHEM_SHAPE_VOLUME>
274.6

> <PUBCHEM_COORDINATE_TYPE>
2
5
10

$$$$

