17396221
  -OEChem-06241222552D

 51 53  0     0  0  0  0  0  0999 V2000
    3.0000    3.7500    0.0000 S   0  0  0  0  0  0  0  0  0  0  0  0
    8.1962   -2.2500    0.0000 O   0  0  0  0  0  0  0  0  0  0  0  0
    2.0000    3.7500    0.0000 O   0  0  0  0  0  0  0  0  0  0  0  0
    4.0000    3.7500    0.0000 O   0  0  0  0  0  0  0  0  0  0  0  0
    3.8660   -0.7500    0.0000 O   0  0  0  0  0  0  0  0  0  0  0  0
    6.4641   -2.2500    0.0000 N   0  0  0  0  0  0  0  0  0  0  0  0
    5.5981   -1.7500    0.0000 N   0  0  0  0  0  0  0  0  0  0  0  0
    3.0000    4.7500    0.0000 N   0  0  0  0  0  0  0  0  0  0  0  0
    4.7320    0.7500    0.0000 N   0  0  0  0  0  0  0  0  0  0  0  0
    6.4641   -0.2500    0.0000 C   0  0  0  0  0  0  0  0  0  0  0  0
    7.3301   -0.7500    0.0000 C   0  0  0  0  0  0  0  0  0  0  0  0
    5.5981   -0.7500    0.0000 C   0  0  0  0  0  0  0  0  0  0  0  0
    7.3301   -1.7500    0.0000 C   0  0  0  0  0  0  0  0  0  0  0  0
    3.0000    2.7500    0.0000 C   0  0  0  0  0  0  0  0  0  0  0  0
    6.4641   -3.2500    0.0000 C   0  0  0  0  0  0  0  0  0  0  0  0
    3.8660    1.2500    0.0000 C   0  0  0  0  0  0  0  0  0  0  0  0
    4.7320   -0.2500    0.0000 C   0  0  0  0  0  0  0  0  0  0  0  0
    3.8660    2.2500    0.0000 C   0  0  0  0  0  0  0  0  0  0  0  0
    2.1340    2.2500    0.0000 C   0  0  0  0  0  0  0  0  0  0  0  0
    5.5981   -3.7500    0.0000 C   0  0  0  0  0  0  0  0  0  0  0  0
    3.0000    0.7500    0.0000 C   0  0  0  0  0  0  0  0  0  0  0  0
    7.3301   -3.7500    0.0000 C   0  0  0  0  0  0  0  0  0  0  0  0
    5.5981   -4.7500    0.0000 C   0  0  0  0  0  0  0  0  0  0  0  0
    2.1340    1.2500    0.0000 C   0  0  0  0  0  0  0  0  0  0  0  0
    2.1340    5.2500    0.0000 C   0  0  0  0  0  0  0  0  0  0  0  0
    3.8660    5.2500    0.0000 C   0  0  0  0  0  0  0  0  0  0  0  0
    7.3301   -4.7500    0.0000 C   0  0  0  0  0  0  0  0  0  0  0  0
    6.4641   -5.2500    0.0000 C   0  0  0  0  0  0  0  0  0  0  0  0
    4.7320   -5.2500    0.0000 C   0  0  0  0  0  0  0  0  0  0  0  0
    6.8626    0.2249    0.0000 H   0  0  0  0  0  0  0  0  0  0  0  0
    6.0656    0.2249    0.0000 H   0  0  0  0  0  0  0  0  0  0  0  0
    7.9407   -0.8577    0.0000 H   0  0  0  0  0  0  0  0  0  0  0  0
    7.5422   -0.1674    0.0000 H   0  0  0  0  0  0  0  0  0  0  0  0
    4.4030    2.5600    0.0000 H   0  0  0  0  0  0  0  0  0  0  0  0
    5.2690    1.0600    0.0000 H   0  0  0  0  0  0  0  0  0  0  0  0
    1.5970    2.5600    0.0000 H   0  0  0  0  0  0  0  0  0  0  0  0
    5.0611   -3.4400    0.0000 H   0  0  0  0  0  0  0  0  0  0  0  0
    3.0000    0.1300    0.0000 H   0  0  0  0  0  0  0  0  0  0  0  0
    7.8671   -3.4400    0.0000 H   0  0  0  0  0  0  0  0  0  0  0  0
    1.5970    0.9400    0.0000 H   0  0  0  0  0  0  0  0  0  0  0  0
    4.1760    4.7131    0.0000 H   0  0  0  0  0  0  0  0  0  0  0  0
    2.4440    5.7869    0.0000 H   0  0  0  0  0  0  0  0  0  0  0  0
    1.5970    5.5600    0.0000 H   0  0  0  0  0  0  0  0  0  0  0  0
    1.8240    4.7131    0.0000 H   0  0  0  0  0  0  0  0  0  0  0  0
    4.4030    5.5600    0.0000 H   0  0  0  0  0  0  0  0  0  0  0  0
    3.5560    5.7869    0.0000 H   0  0  0  0  0  0  0  0  0  0  0  0
    7.8671   -5.0600    0.0000 H   0  0  0  0  0  0  0  0  0  0  0  0
    6.4641   -5.8700    0.0000 H   0  0  0  0  0  0  0  0  0  0  0  0
    4.4220   -4.7131    0.0000 H   0  0  0  0  0  0  0  0  0  0  0  0
    4.1951   -5.5600    0.0000 H   0  0  0  0  0  0  0  0  0  0  0  0
    5.0420   -5.7869    0.0000 H   0  0  0  0  0  0  0  0  0  0  0  0
  1  3  2  0  0  0  0
  1  4  2  0  0  0  0
  1  8  1  0  0  0  0
  1 14  1  0  0  0  0
  2 13  2  0  0  0  0
  5 17  2  0  0  0  0
  6  7  1  0  0  0  0
  6 13  1  0  0  0  0
  6 15  1  0  0  0  0
  7 12  2  0  0  0  0
  8 25  1  0  0  0  0
  8 26  1  0  0  0  0
  9 16  1  0  0  0  0
  9 17  1  0  0  0  0
  9 35  1  0  0  0  0
 10 11  1  0  0  0  0
 10 12  1  0  0  0  0
 10 30  1  0  0  0  0
 10 31  1  0  0  0  0
 11 13  1  0  0  0  0
 11 32  1  0  0  0  0
 11 33  1  0  0  0  0
 12 17  1  0  0  0  0
 14 18  1  0  0  0  0
 14 19  2  0  0  0  0
 15 20  1  0  0  0  0
 15 22  2  0  0  0  0
 16 18  2  0  0  0  0
 16 21  1  0  0  0  0
 18 34  1  0  0  0  0
 19 24  1  0  0  0  0
 19 36  1  0  0  0  0
 20 23  2  0  0  0  0
 20 37  1  0  0  0  0
 21 24  2  0  0  0  0
 21 38  1  0  0  0  0
 22 27  1  0  0  0  0
 22 39  1  0  0  0  0
 23 28  1  0  0  0  0
 23 29  1  0  0  0  0
 24 40  1  0  0  0  0
 25 42  1  0  0  0  0
 25 43  1  0  0  0  0
 25 44  1  0  0  0  0
 26 41  1  0  0  0  0
 26 45  1  0  0  0  0
 26 46  1  0  0  0  0
 27 28  2  0  0  0  0
 27 47  1  0  0  0  0
 28 48  1  0  0  0  0
 29 49  1  0  0  0  0
 29 50  1  0  0  0  0
 29 51  1  0  0  0  0
M  END
> <PUBCHEM_COMPOUND_CID>
17396221

> <PUBCHEM_COMPOUND_CANONICALIZED>
1

> <PUBCHEM_CACTVS_COMPLEXITY>
759

> <PUBCHEM_CACTVS_HBOND_ACCEPTOR>
6

> <PUBCHEM_CACTVS_HBOND_DONOR>
1

> <PUBCHEM_CACTVS_ROTATABLE_BOND>
5

> <PUBCHEM_CACTVS_SUBSKEYS>
AAADceB7uABAAAAAAAAAAAAAAAAAAAAAAAAwYIAAAAAAAAABQAAAHgQYQAAADAiB2AQywYLAAAKoAyVyUHDSBBAhAgAaiBk4ZIgIIDLAkZGEIAxgnADIyAcYgwAOAAAAQCAAAAAAAACAQAAAAAAAAAAAAA==

> <PUBCHEM_IUPAC_OPENEYE_NAME>
N-[3-(dimethylsulfamoyl)phenyl]-1-(m-tolyl)-6-oxo-4,5-dihydropyridazine-3-carboxamide

> <PUBCHEM_IUPAC_CAS_NAME>
N-[3-(dimethylsulfamoyl)phenyl]-1-(3-methylphenyl)-6-oxo-4,5-dihydropyridazine-3-carboxamide

> <PUBCHEM_IUPAC_NAME>
N-[3-(dimethylsulfamoyl)phenyl]-1-(3-methylphenyl)-6-oxo-4,5-dihydropyridazine-3-carboxamide

> <PUBCHEM_IUPAC_SYSTEMATIC_NAME>
N-[3-(dimethylsulfamoyl)phenyl]-1-(3-methylphenyl)-6-oxidanylidene-4,5-dihydropyridazine-3-carboxamide

> <PUBCHEM_IUPAC_TRADITIONAL_NAME>
N-[3-(dimethylsulfamoyl)phenyl]-6-keto-1-(m-tolyl)-4,5-dihydropyridazine-3-carboxamide

> <PUBCHEM_IUPAC_INCHI>
InChI=1S/C20H22N4O4S/c1-14-6-4-8-16(12-14)24-19(25)11-10-18(22-24)20(26)21-15-7-5-9-17(13-15)29(27,28)23(2)3/h4-9,12-13H,10-11H2,1-3H3,(H,21,26)

> <PUBCHEM_IUPAC_INCHIKEY>
IJEYDIJXZWTLPB-UHFFFAOYSA-N

> <PUBCHEM_XLOGP3_AA>
1.5

> <PUBCHEM_EXACT_MASS>
414.136176

> <PUBCHEM_MOLECULAR_FORMULA>
C20H22N4O4S

> <PUBCHEM_MOLECULAR_WEIGHT>
414.47808

> <PUBCHEM_OPENEYE_CAN_SMILES>
CC1=CC(=CC=C1)N2C(=O)CCC(=N2)C(=O)NC3=CC(=CC=C3)S(=O)(=O)N(C)C

> <PUBCHEM_OPENEYE_ISO_SMILES>
CC1=CC(=CC=C1)N2C(=O)CCC(=N2)C(=O)NC3=CC(=CC=C3)S(=O)(=O)N(C)C

> <PUBCHEM_CACTVS_TPSA>
108

> <PUBCHEM_MONOISOTOPIC_WEIGHT>
414.136176

> <PUBCHEM_TOTAL_CHARGE>
0

> <PUBCHEM_HEAVY_ATOM_COUNT>
29

> <PUBCHEM_ATOM_DEF_STEREO_COUNT>
0

> <PUBCHEM_ATOM_UDEF_STEREO_COUNT>
0

> <PUBCHEM_BOND_DEF_STEREO_COUNT>
0

> <PUBCHEM_BOND_UDEF_STEREO_COUNT>
0

> <PUBCHEM_ISOTOPIC_ATOM_COUNT>
0

> <PUBCHEM_COMPONENT_COUNT>
1

> <PUBCHEM_CACTVS_TAUTO_COUNT>
4

> <PUBCHEM_COORDINATE_TYPE>
1
5
255

> <PUBCHEM_BONDANNOTATIONS>
14  18  8
14  19  8
15  20  8
15  22  8
16  18  8
16  21  8
19  24  8
20  23  8
21  24  8
22  27  8
23  28  8
27  28  8

$$$$

