10714
  -OEChem-06261204523D

 24 24  0     0  0  0  0  0  0999 V2000
   -2.4537    1.7349    0.5138 O   0  0  0  0  0  0  0  0  0  0  0  0
   -3.1229   -0.1853   -0.5018 O   0  0  0  0  0  0  0  0  0  0  0  0
    1.9126   -0.4686    0.0174 C   0  0  0  0  0  0  0  0  0  0  0  0
    1.5059    0.8631   -0.0655 C   0  0  0  0  0  0  0  0  0  0  0  0
   -0.3986   -1.1714    0.0625 C   0  0  0  0  0  0  0  0  0  0  0  0
   -0.8051    0.1604   -0.0204 C   0  0  0  0  0  0  0  0  0  0  0  0
    0.9603   -1.4860    0.0814 C   0  0  0  0  0  0  0  0  0  0  0  0
    0.1471    1.1777   -0.0844 C   0  0  0  0  0  0  0  0  0  0  0  0
    3.3619   -0.8296    0.0392 C   0  0  0  0  0  0  0  0  0  0  0  0
    2.5071    1.9694   -0.1341 C   0  0  0  0  0  0  0  0  0  0  0  0
   -1.3971   -2.2803    0.1336 C   0  0  0  0  0  0  0  0  0  0  0  0
   -2.2175    0.5157   -0.0417 C   0  0  0  0  0  0  0  0  0  0  0  0
    1.2774   -2.5243    0.1448 H   0  0  0  0  0  0  0  0  0  0  0  0
   -0.1551    2.2193   -0.1630 H   0  0  0  0  0  0  0  0  0  0  0  0
    3.5099   -1.9132    0.1056 H   0  0  0  0  0  0  0  0  0  0  0  0
    3.8571   -0.4921   -0.8770 H   0  0  0  0  0  0  0  0  0  0  0  0
    3.8575   -0.3828    0.9072 H   0  0  0  0  0  0  0  0  0  0  0  0
    3.1385    1.9740    0.7603 H   0  0  0  0  0  0  0  0  0  0  0  0
    3.1366    1.8649   -1.0238 H   0  0  0  0  0  0  0  0  0  0  0  0
    2.0254    2.9517   -0.1936 H   0  0  0  0  0  0  0  0  0  0  0  0
   -0.9141   -3.2376    0.3619 H   0  0  0  0  0  0  0  0  0  0  0  0
   -2.1254   -2.1072    0.9326 H   0  0  0  0  0  0  0  0  0  0  0  0
   -1.9105   -2.4018   -0.8254 H   0  0  0  0  0  0  0  0  0  0  0  0
   -3.4069    1.9659    0.4956 H   0  0  0  0  0  0  0  0  0  0  0  0
  1 12  1  0  0  0  0
  1 24  1  0  0  0  0
  2 12  2  0  0  0  0
  3  4  1  0  0  0  0
  3  7  2  0  0  0  0
  3  9  1  0  0  0  0
  4  8  2  0  0  0  0
  4 10  1  0  0  0  0
  5  6  2  0  0  0  0
  5  7  1  0  0  0  0
  5 11  1  0  0  0  0
  6  8  1  0  0  0  0
  6 12  1  0  0  0  0
  7 13  1  0  0  0  0
  8 14  1  0  0  0  0
  9 15  1  0  0  0  0
  9 16  1  0  0  0  0
  9 17  1  0  0  0  0
 10 18  1  0  0  0  0
 10 19  1  0  0  0  0
 10 20  1  0  0  0  0
 11 21  1  0  0  0  0
 11 22  1  0  0  0  0
 11 23  1  0  0  0  0
M  END
> <PUBCHEM_COMPOUND_CID>
10714

> <PUBCHEM_CONFORMER_RMSD>
0.4

> <PUBCHEM_CONFORMER_DIVERSEORDER>
2
3
1

> <PUBCHEM_MMFF94_PARTIAL_CHARGES>
15
1 -0.65
10 0.14
11 0.14
12 0.63
13 0.15
14 0.15
2 -0.57
24 0.5
3 -0.14
4 -0.14
5 -0.14
6 0.09
7 -0.15
8 -0.15
9 0.14

> <PUBCHEM_EFFECTIVE_ROTOR_COUNT>
1

> <PUBCHEM_PHARMACOPHORE_FEATURES>
4
1 1 acceptor
1 2 acceptor
3 1 2 12 anion
6 3 4 5 6 7 8 rings

> <PUBCHEM_HEAVY_ATOM_COUNT>
12

> <PUBCHEM_ATOM_DEF_STEREO_COUNT>
0

> <PUBCHEM_ATOM_UDEF_STEREO_COUNT>
0

> <PUBCHEM_BOND_DEF_STEREO_COUNT>
0

> <PUBCHEM_BOND_UDEF_STEREO_COUNT>
0

> <PUBCHEM_ISOTOPIC_ATOM_COUNT>
0

> <PUBCHEM_COMPONENT_COUNT>
1

> <PUBCHEM_CACTVS_TAUTO_COUNT>
1

> <PUBCHEM_CONFORMER_ID>
000029DA00000002

> <PUBCHEM_MMFF94_ENERGY>
36.7002

> <PUBCHEM_FEATURE_SELFOVERLAP>
20.355

> <PUBCHEM_SHAPE_FINGERPRINT>
12932764 1 17489879244978722274
13380535 21 18268415855059350860
13380535 76 18338804403394481218
14325111 11 18410856555450603165
14897335 6 18339085869739228244
14911166 2 18411980303816116742
14993402 34 18340488975351390894
16945 1 18411698828649475674
193761 8 18267302023994850674
19973954 147 18339078173041600810
20511035 2 18261680281366688086
21040471 1 18411135831329951888
21501502 16 18339361842788908198
2334 1 18196088841996897542
23402655 69 18049741899290004925
23463225 33 18197782317758725834
23552423 10 18200595770303102214
23559900 14 18335412518299347534
241688 4 17472694105965023258
2748010 2 18267581312817403014
5084963 1 18187933918682510729
528886 8 18266464389270740385
7364860 26 18334295328005730608

> <PUBCHEM_SHAPE_MULTIPOLES>
235.22
4.38
2.18
0.64
0.26
0.18
0
-0.63
0.15
-0.04
-0.13
-0.05
-0.02
-0.18

> <PUBCHEM_SHAPE_SELFOVERLAP>
492.918

> <PUBCHEM_SHAPE_VOLUME>
134.9

> <PUBCHEM_COORDINATE_TYPE>
2
5
10

$$$$

