11061
  -OEChem-06261205173D

 48 49  0     0  0  0  0  0  0999 V2000
    1.2185    0.3865   -0.9846 S   0  0  0  0  0  0  0  0  0  0  0  0
    0.1095   -0.8724    1.0504 O   0  0  0  0  0  0  0  0  0  0  0  0
    5.0878   -0.0633    0.1710 N   0  0  0  0  0  0  0  0  0  0  0  0
    3.9442    0.3338   -0.6497 C   0  0  0  0  0  0  0  0  0  0  0  0
   -1.4876   -0.0280   -0.5886 C   0  0  0  0  0  0  0  0  0  0  0  0
    5.0984   -1.5126    0.3658 C   0  0  0  0  0  0  0  0  0  0  0  0
    6.3378    0.3786   -0.4464 C   0  0  0  0  0  0  0  0  0  0  0  0
    2.6485   -0.0999    0.0242 C   0  0  0  0  0  0  0  0  0  0  0  0
   -2.4401   -1.1887   -0.3196 C   0  0  0  0  0  0  0  0  0  0  0  0
   -2.0816    1.3201   -0.1977 C   0  0  0  0  0  0  0  0  0  0  0  0
   -0.0981   -0.2744    0.0011 C   0  0  0  0  0  0  0  0  0  0  0  0
    6.2455   -1.9370    1.2670 C   0  0  0  0  0  0  0  0  0  0  0  0
    6.3444    1.8832   -0.6566 C   0  0  0  0  0  0  0  0  0  0  0  0
   -2.5085   -2.2167   -1.2352 C   0  0  0  0  0  0  0  0  0  0  0  0
   -2.9486    1.9429   -1.0705 C   0  0  0  0  0  0  0  0  0  0  0  0
   -3.2000   -1.1709    0.8301 C   0  0  0  0  0  0  0  0  0  0  0  0
   -1.7333    1.8734    1.0164 C   0  0  0  0  0  0  0  0  0  0  0  0
   -3.3793   -3.2782   -0.9894 C   0  0  0  0  0  0  0  0  0  0  0  0
   -3.4925    3.1765   -0.7129 C   0  0  0  0  0  0  0  0  0  0  0  0
   -4.0707   -2.2326    1.0759 C   0  0  0  0  0  0  0  0  0  0  0  0
   -2.2773    3.1070    1.3740 C   0  0  0  0  0  0  0  0  0  0  0  0
   -4.1602   -3.2863    0.1661 C   0  0  0  0  0  0  0  0  0  0  0  0
   -3.1568    3.7586    0.5094 C   0  0  0  0  0  0  0  0  0  0  0  0
    3.8946    1.4234   -0.7495 H   0  0  0  0  0  0  0  0  0  0  0  0
    4.0178   -0.0944   -1.6585 H   0  0  0  0  0  0  0  0  0  0  0  0
   -1.3554    0.0083   -1.6816 H   0  0  0  0  0  0  0  0  0  0  0  0
    4.2075   -1.8524    0.8996 H   0  0  0  0  0  0  0  0  0  0  0  0
    5.1482   -2.0579   -0.5849 H   0  0  0  0  0  0  0  0  0  0  0  0
    7.1875    0.1684    0.2112 H   0  0  0  0  0  0  0  0  0  0  0  0
    6.5253   -0.1271   -1.4021 H   0  0  0  0  0  0  0  0  0  0  0  0
    2.5572    0.3452    1.0210 H   0  0  0  0  0  0  0  0  0  0  0  0
    2.5629   -1.1847    0.1076 H   0  0  0  0  0  0  0  0  0  0  0  0
    7.2134   -1.9005    0.7577 H   0  0  0  0  0  0  0  0  0  0  0  0
    6.2972   -1.3258    2.1747 H   0  0  0  0  0  0  0  0  0  0  0  0
    6.1000   -2.9765    1.5824 H   0  0  0  0  0  0  0  0  0  0  0  0
    5.7240    2.1914   -1.5039 H   0  0  0  0  0  0  0  0  0  0  0  0
    6.0207    2.4223    0.2405 H   0  0  0  0  0  0  0  0  0  0  0  0
    7.3639    2.2154   -0.8839 H   0  0  0  0  0  0  0  0  0  0  0  0
   -1.9022   -2.2208   -2.1358 H   0  0  0  0  0  0  0  0  0  0  0  0
   -3.2166    1.4963   -2.0232 H   0  0  0  0  0  0  0  0  0  0  0  0
   -3.1421   -0.3825    1.5711 H   0  0  0  0  0  0  0  0  0  0  0  0
   -1.0644    1.3873    1.7180 H   0  0  0  0  0  0  0  0  0  0  0  0
   -3.4483   -4.0992   -1.6972 H   0  0  0  0  0  0  0  0  0  0  0  0
   -4.1779    3.6834   -1.3858 H   0  0  0  0  0  0  0  0  0  0  0  0
   -4.6753   -2.2420    1.9782 H   0  0  0  0  0  0  0  0  0  0  0  0
   -2.0190    3.5590    2.3272 H   0  0  0  0  0  0  0  0  0  0  0  0
   -4.8370   -4.1137    0.3584 H   0  0  0  0  0  0  0  0  0  0  0  0
   -3.5811    4.7186    0.7884 H   0  0  0  0  0  0  0  0  0  0  0  0
  1  8  1  0  0  0  0
  1 11  1  0  0  0  0
  2 11  2  0  0  0  0
  3  4  1  0  0  0  0
  3  6  1  0  0  0  0
  3  7  1  0  0  0  0
  4  8  1  0  0  0  0
  4 24  1  0  0  0  0
  4 25  1  0  0  0  0
  5  9  1  0  0  0  0
  5 10  1  0  0  0  0
  5 11  1  0  0  0  0
  5 26  1  0  0  0  0
  6 12  1  0  0  0  0
  6 27  1  0  0  0  0
  6 28  1  0  0  0  0
  7 13  1  0  0  0  0
  7 29  1  0  0  0  0
  7 30  1  0  0  0  0
  8 31  1  0  0  0  0
  8 32  1  0  0  0  0
  9 14  2  0  0  0  0
  9 16  1  0  0  0  0
 10 15  2  0  0  0  0
 10 17  1  0  0  0  0
 12 33  1  0  0  0  0
 12 34  1  0  0  0  0
 12 35  1  0  0  0  0
 13 36  1  0  0  0  0
 13 37  1  0  0  0  0
 13 38  1  0  0  0  0
 14 18  1  0  0  0  0
 14 39  1  0  0  0  0
 15 19  1  0  0  0  0
 15 40  1  0  0  0  0
 16 20  2  0  0  0  0
 16 41  1  0  0  0  0
 17 21  2  0  0  0  0
 17 42  1  0  0  0  0
 18 22  2  0  0  0  0
 18 43  1  0  0  0  0
 19 23  2  0  0  0  0
 19 44  1  0  0  0  0
 20 22  1  0  0  0  0
 20 45  1  0  0  0  0
 21 23  1  0  0  0  0
 21 46  1  0  0  0  0
 22 47  1  0  0  0  0
 23 48  1  0  0  0  0
M  END
> <PUBCHEM_COMPOUND_CID>
11061

> <PUBCHEM_CONFORMER_RMSD>
1

> <PUBCHEM_CONFORMER_DIVERSEORDER>
1
70
54
43
85
56
82
34
50
100
62
46
99
89
29
55
37
38
51
80
68
84
83
20
63
8
26
36
93
30
47
76
24
10
35
28
4
42
72
101
86
61
53
67
59
95
91
60
65
102
87
94
16
78
88
98
97
27
19
58
74
17
12
64
15
49
22
81
3
2
39
5
32
77
6
44
41
31
33
79
96
90
7
40
13
48
18
69
25
14
52
23
57
11
71
73
21
66
75
9
45
92

> <PUBCHEM_MMFF94_PARTIAL_CHARGES>
31
1 -0.37
10 -0.14
11 0.65
14 -0.15
15 -0.15
16 -0.15
17 -0.15
18 -0.15
19 -0.15
2 -0.57
20 -0.15
21 -0.15
22 -0.15
23 -0.15
3 -0.81
39 0.15
4 0.27
40 0.15
41 0.15
42 0.15
43 0.15
44 0.15
45 0.15
46 0.15
47 0.15
48 0.15
5 0.35
6 0.27
7 0.27
8 0.23
9 -0.14

> <PUBCHEM_EFFECTIVE_ROTOR_COUNT>
9

> <PUBCHEM_PHARMACOPHORE_FEATURES>
3
1 3 cation
6 10 15 17 19 21 23 rings
6 9 14 16 18 20 22 rings

> <PUBCHEM_HEAVY_ATOM_COUNT>
23

> <PUBCHEM_ATOM_DEF_STEREO_COUNT>
0

> <PUBCHEM_ATOM_UDEF_STEREO_COUNT>
0

> <PUBCHEM_BOND_DEF_STEREO_COUNT>
0

> <PUBCHEM_BOND_UDEF_STEREO_COUNT>
0

> <PUBCHEM_ISOTOPIC_ATOM_COUNT>
0

> <PUBCHEM_COMPONENT_COUNT>
1

> <PUBCHEM_CACTVS_TAUTO_COUNT>
1

> <PUBCHEM_CONFORMER_ID>
00002B3500000001

> <PUBCHEM_MMFF94_ENERGY>
56.7519

> <PUBCHEM_FEATURE_SELFOVERLAP>
15.223

> <PUBCHEM_SHAPE_FINGERPRINT>
10319688 45 18117846499079328167
10595046 47 18342457003050599740
10912923 1 18202847660928051824
11056379 131 18335692828400878678
11101153 10 18125994976069738572
11405975 8 18340207505175861290
11545043 162 18260275165984235434
12107183 9 18053105313954015650
12788726 201 18340774740837419858
12969540 37 17187287864269167311
13073987 5 18342177757209420954
13167823 11 18341897403045568794
13583140 156 17604163596494050514
14118638 360 18343582911621333958
14347332 77 18338801117733930826
14713325 29 18335413590996393367
14844126 61 18409172103906077339
16992779 147 16602917791887892545
17844677 252 18410286996286156100
1813 80 18046047273705468383
20101258 96 18336823087588990561
21304303 172 18115017508334148443
21426921 1 18409448076744461845
22182313 1 17604413206744298686
23081809 10 17846776313773290900
23557571 272 18259983777458075469
23559900 14 18339655429452392693
23598288 3 18335709355192446959
268830 7 5112006119637828414
283562 15 18342739585570294883
4409770 3 18410579496528188343
497634 4 18130791152931385422
5104073 3 18342182193900192632
5219985 9 18264766550656362207
5924683 9 18413389838925736334
9981440 41 17605845930466738799

> <PUBCHEM_SHAPE_MULTIPOLES>
466.33
13.97
4.49
1.25
32.57
1.23
0.11
-3.05
0.78
-8.01
0.38
-0.38
-0.01
-1.6

> <PUBCHEM_SHAPE_SELFOVERLAP>
952.605

> <PUBCHEM_SHAPE_VOLUME>
271.5

> <PUBCHEM_COORDINATE_TYPE>
2
5
10

$$$$

