9577
  -OEChem-06261203502D

 27 28  0     1  0  0  0  0  0999 V2000
    2.0000   -0.1567    0.0000 F   0  0  0  0  0  0  0  0  0  0  0  0
    8.1226    1.9615    0.0000 O   0  0  0  0  0  0  0  0  0  0  0  0
    6.4763    2.4996    0.0000 O   0  0  0  0  0  0  0  0  0  0  0  0
    5.5443   -1.9615    0.0000 N   0  0  0  0  0  0  0  0  0  0  0  0
    7.5013    0.0604    0.0000 N   0  0  0  0  0  0  0  0  0  0  0  0
    5.5443   -0.3520    0.0000 C   0  0  0  0  0  0  0  0  0  0  0  0
    5.8550    0.5985    0.0000 C   0  0  0  0  0  0  0  0  0  0  0  0
    4.5981   -0.6567    0.0000 C   0  0  0  0  0  0  0  0  0  0  0  0
    6.8335    0.8047    0.0000 C   0  0  3  0  0  0  0  0  0  0  0  0
    4.5981   -1.6567    0.0000 C   0  0  0  0  0  0  0  0  0  0  0  0
    6.1279   -1.1567    0.0000 C   0  0  0  0  0  0  0  0  0  0  0  0
    3.7320   -0.1567    0.0000 C   0  0  0  0  0  0  0  0  0  0  0  0
    3.7320   -2.1567    0.0000 C   0  0  0  0  0  0  0  0  0  0  0  0
    2.8660   -0.6567    0.0000 C   0  0  0  0  0  0  0  0  0  0  0  0
    7.1441    1.7552    0.0000 C   0  0  0  0  0  0  0  0  0  0  0  0
    2.8660   -1.6567    0.0000 C   0  0  0  0  0  0  0  0  0  0  0  0
    5.8344    1.2182    0.0000 H   0  0  0  0  0  0  0  0  0  0  0  0
    5.2411    0.6859    0.0000 H   0  0  0  0  0  0  0  0  0  0  0  0
    6.5694   -0.0032    0.0000 H   0  0  0  0  0  0  0  0  0  0  0  0
    6.7479   -1.1567    0.0000 H   0  0  0  0  0  0  0  0  0  0  0  0
    5.7369   -2.5508    0.0000 H   0  0  0  0  0  0  0  0  0  0  0  0
    3.7320    0.4633    0.0000 H   0  0  0  0  0  0  0  0  0  0  0  0
    3.7320   -2.7767    0.0000 H   0  0  0  0  0  0  0  0  0  0  0  0
    8.1080    0.1883    0.0000 H   0  0  0  0  0  0  0  0  0  0  0  0
    7.3087   -0.5289    0.0000 H   0  0  0  0  0  0  0  0  0  0  0  0
    2.3291   -1.9667    0.0000 H   0  0  0  0  0  0  0  0  0  0  0  0
    8.3152    2.5508    0.0000 H   0  0  0  0  0  0  0  0  0  0  0  0
  1 14  1  0  0  0  0
  2 15  1  0  0  0  0
  2 27  1  0  0  0  0
  3 15  2  0  0  0  0
  4 10  1  0  0  0  0
  4 11  1  0  0  0  0
  4 21  1  0  0  0  0
  5  9  1  0  0  0  0
  5 24  1  0  0  0  0
  5 25  1  0  0  0  0
  6  7  1  0  0  0  0
  6  8  1  0  0  0  0
  6 11  2  0  0  0  0
  7  9  1  0  0  0  0
  7 17  1  0  0  0  0
  7 18  1  0  0  0  0
  8 10  2  0  0  0  0
  8 12  1  0  0  0  0
  9 15  1  0  0  0  0
  9 19  1  0  0  0  0
 10 13  1  0  0  0  0
 11 20  1  0  0  0  0
 12 14  2  0  0  0  0
 12 22  1  0  0  0  0
 13 16  2  0  0  0  0
 13 23  1  0  0  0  0
 14 16  1  0  0  0  0
 16 26  1  0  0  0  0
M  END
> <PUBCHEM_COMPOUND_CID>
9577

> <PUBCHEM_COMPOUND_CANONICALIZED>
1

> <PUBCHEM_CACTVS_COMPLEXITY>
275

> <PUBCHEM_CACTVS_HBOND_ACCEPTOR>
4

> <PUBCHEM_CACTVS_HBOND_DONOR>
3

> <PUBCHEM_CACTVS_ROTATABLE_BOND>
3

> <PUBCHEM_CACTVS_SUBSKEYS>
AAADccBzMQAAAAAAAAAAAAAAAAAAAWAAAAAwAAAAAAAAAFgB8AAAHwAQCAAADCjBngw8yPLJkgCoAzT3TACCgCAxAiAI2aG4ZJgKIPLAkZGEYAhkkADIyAeY2fKOgAAAAAACAAAAAAAAAAQAAAAAAAAAAA==

> <PUBCHEM_IUPAC_OPENEYE_NAME>
2-amino-3-(5-fluoro-1H-indol-3-yl)propanoic acid

> <PUBCHEM_IUPAC_CAS_NAME>
2-amino-3-(5-fluoro-1H-indol-3-yl)propanoic acid

> <PUBCHEM_IUPAC_NAME>
2-amino-3-(5-fluoro-1H-indol-3-yl)propanoic acid

> <PUBCHEM_IUPAC_SYSTEMATIC_NAME>
2-azanyl-3-(5-fluoranyl-1H-indol-3-yl)propanoic acid

> <PUBCHEM_IUPAC_TRADITIONAL_NAME>
2-amino-3-(5-fluoro-1H-indol-3-yl)propionic acid

> <PUBCHEM_IUPAC_INCHI>
InChI=1S/C11H11FN2O2/c12-7-1-2-10-8(4-7)6(5-14-10)3-9(13)11(15)16/h1-2,4-5,9,14H,3,13H2,(H,15,16)

> <PUBCHEM_IUPAC_INCHIKEY>
INPQIVHQSQUEAJ-UHFFFAOYSA-N

> <PUBCHEM_XLOGP3>
-0.7

> <PUBCHEM_EXACT_MASS>
222.080456

> <PUBCHEM_MOLECULAR_FORMULA>
C11H11FN2O2

> <PUBCHEM_MOLECULAR_WEIGHT>
222.215643

> <PUBCHEM_OPENEYE_CAN_SMILES>
C1=CC2=C(C=C1F)C(=CN2)CC(C(=O)O)N

> <PUBCHEM_OPENEYE_ISO_SMILES>
C1=CC2=C(C=C1F)C(=CN2)CC(C(=O)O)N

> <PUBCHEM_CACTVS_TPSA>
79.1

> <PUBCHEM_MONOISOTOPIC_WEIGHT>
222.080456

> <PUBCHEM_TOTAL_CHARGE>
0

> <PUBCHEM_HEAVY_ATOM_COUNT>
16

> <PUBCHEM_ATOM_DEF_STEREO_COUNT>
0

> <PUBCHEM_ATOM_UDEF_STEREO_COUNT>
1

> <PUBCHEM_BOND_DEF_STEREO_COUNT>
0

> <PUBCHEM_BOND_UDEF_STEREO_COUNT>
0

> <PUBCHEM_ISOTOPIC_ATOM_COUNT>
0

> <PUBCHEM_COMPONENT_COUNT>
1

> <PUBCHEM_CACTVS_TAUTO_COUNT>
1

> <PUBCHEM_COORDINATE_TYPE>
1
5
255

> <PUBCHEM_BONDANNOTATIONS>
10  13  8
12  14  8
13  16  8
14  16  8
4  10  8
4  11  8
6  11  8
6  8  8
8  10  8
8  12  8
9  19  3

$$$$

