13688
  -OEChem-06241222392D

 32 33  0     0  0  0  0  0  0999 V2000
    3.5878   -2.6149    0.0000 O   0  0  0  0  0  0  0  0  0  0  0  0
    3.9538    1.4239    0.0000 N   0  0  0  0  0  0  0  0  0  0  0  0
    3.8968   -1.6639    0.0000 N   0  0  0  0  0  0  0  0  0  0  0  0
    3.0878    1.9239    0.0000 C   0  0  0  0  0  0  0  0  0  0  0  0
    4.8198    1.9239    0.0000 C   0  0  0  0  0  0  0  0  0  0  0  0
    3.0878    2.9239    0.0000 C   0  0  0  0  0  0  0  0  0  0  0  0
    4.8198    2.9239    0.0000 C   0  0  0  0  0  0  0  0  0  0  0  0
    3.9538    3.4239    0.0000 C   0  0  0  0  0  0  0  0  0  0  0  0
    3.9538    0.4239    0.0000 C   0  0  0  0  0  0  0  0  0  0  0  0
    3.0878   -0.0761    0.0000 C   0  0  0  0  0  0  0  0  0  0  0  0
    3.0878   -1.0761    0.0000 C   0  0  0  0  0  0  0  0  0  0  0  0
    2.2788   -1.6639    0.0000 C   0  0  0  0  0  0  0  0  0  0  0  0
    2.5878   -2.6149    0.0000 C   0  0  0  0  0  0  0  0  0  0  0  0
    2.0000   -3.4239    0.0000 C   0  0  0  0  0  0  0  0  0  0  0  0
    2.4772    2.0316    0.0000 H   0  0  0  0  0  0  0  0  0  0  0  0
    2.8757    1.3413    0.0000 H   0  0  0  0  0  0  0  0  0  0  0  0
    5.0319    1.3413    0.0000 H   0  0  0  0  0  0  0  0  0  0  0  0
    5.4304    2.0316    0.0000 H   0  0  0  0  0  0  0  0  0  0  0  0
    2.8757    3.5065    0.0000 H   0  0  0  0  0  0  0  0  0  0  0  0
    2.4772    2.8163    0.0000 H   0  0  0  0  0  0  0  0  0  0  0  0
    5.4304    2.8163    0.0000 H   0  0  0  0  0  0  0  0  0  0  0  0
    5.0319    3.5065    0.0000 H   0  0  0  0  0  0  0  0  0  0  0  0
    4.3523    3.8989    0.0000 H   0  0  0  0  0  0  0  0  0  0  0  0
    3.5553    3.8989    0.0000 H   0  0  0  0  0  0  0  0  0  0  0  0
    4.1659   -0.1587    0.0000 H   0  0  0  0  0  0  0  0  0  0  0  0
    4.5644    0.5316    0.0000 H   0  0  0  0  0  0  0  0  0  0  0  0
    2.8757    0.5065    0.0000 H   0  0  0  0  0  0  0  0  0  0  0  0
    2.4772   -0.1837    0.0000 H   0  0  0  0  0  0  0  0  0  0  0  0
    1.6891   -1.4723    0.0000 H   0  0  0  0  0  0  0  0  0  0  0  0
    1.4984   -3.0595    0.0000 H   0  0  0  0  0  0  0  0  0  0  0  0
    1.6356   -3.9255    0.0000 H   0  0  0  0  0  0  0  0  0  0  0  0
    2.5016   -3.7884    0.0000 H   0  0  0  0  0  0  0  0  0  0  0  0
  1  3  1  0  0  0  0
  1 13  1  0  0  0  0
  2  4  1  0  0  0  0
  2  5  1  0  0  0  0
  2  9  1  0  0  0  0
  3 11  2  0  0  0  0
  4  6  1  0  0  0  0
  4 15  1  0  0  0  0
  4 16  1  0  0  0  0
  5  7  1  0  0  0  0
  5 17  1  0  0  0  0
  5 18  1  0  0  0  0
  6  8  1  0  0  0  0
  6 19  1  0  0  0  0
  6 20  1  0  0  0  0
  7  8  1  0  0  0  0
  7 21  1  0  0  0  0
  7 22  1  0  0  0  0
  8 23  1  0  0  0  0
  8 24  1  0  0  0  0
  9 10  1  0  0  0  0
  9 25  1  0  0  0  0
  9 26  1  0  0  0  0
 10 11  1  0  0  0  0
 10 27  1  0  0  0  0
 10 28  1  0  0  0  0
 11 12  1  0  0  0  0
 12 13  2  0  0  0  0
 12 29  1  0  0  0  0
 13 14  1  0  0  0  0
 14 30  1  0  0  0  0
 14 31  1  0  0  0  0
 14 32  1  0  0  0  0
M  END
> <PUBCHEM_COMPOUND_CID>
13688

> <PUBCHEM_COMPOUND_CANONICALIZED>
1

> <PUBCHEM_CACTVS_COMPLEXITY>
169

> <PUBCHEM_CACTVS_HBOND_ACCEPTOR>
3

> <PUBCHEM_CACTVS_HBOND_DONOR>
0

> <PUBCHEM_CACTVS_ROTATABLE_BOND>
3

> <PUBCHEM_CACTVS_SUBSKEYS>
AAADceBzIAAAAAAAAAAAAAAAAAAAAWAAAAAsAAAAAAAAAAABgAAAHgAEAAAACAzBlgQyhJMQAACpAaRyQgCAAAAkIgAgGCE+bFoAJhoA0ZOEEYBmgBiISUOYEQIAAAAAAAAAAAAAAAAAAAAAAAAAAAAAAA==

> <PUBCHEM_IUPAC_OPENEYE_NAME>
5-methyl-3-[2-(1-piperidyl)ethyl]isoxazole

> <PUBCHEM_IUPAC_CAS_NAME>
5-methyl-3-[2-(1-piperidinyl)ethyl]isoxazole

> <PUBCHEM_IUPAC_NAME>
5-methyl-3-(2-piperidin-1-ylethyl)-1,2-oxazole

> <PUBCHEM_IUPAC_SYSTEMATIC_NAME>
5-methyl-3-(2-piperidin-1-ylethyl)-1,2-oxazole

> <PUBCHEM_IUPAC_TRADITIONAL_NAME>
5-methyl-3-(2-piperidinoethyl)isoxazole

> <PUBCHEM_IUPAC_INCHI>
InChI=1S/C11H18N2O/c1-10-9-11(12-14-10)5-8-13-6-3-2-4-7-13/h9H,2-8H2,1H3

> <PUBCHEM_IUPAC_INCHIKEY>
WAFHMWXIPPOZKR-UHFFFAOYSA-N

> <PUBCHEM_XLOGP3_AA>
1.9

> <PUBCHEM_EXACT_MASS>
194.141913

> <PUBCHEM_MOLECULAR_FORMULA>
C11H18N2O

> <PUBCHEM_MOLECULAR_WEIGHT>
194.27342

> <PUBCHEM_OPENEYE_CAN_SMILES>
CC1=CC(=NO1)CCN2CCCCC2

> <PUBCHEM_OPENEYE_ISO_SMILES>
CC1=CC(=NO1)CCN2CCCCC2

> <PUBCHEM_CACTVS_TPSA>
29.3

> <PUBCHEM_MONOISOTOPIC_WEIGHT>
194.141913

> <PUBCHEM_TOTAL_CHARGE>
0

> <PUBCHEM_HEAVY_ATOM_COUNT>
14

> <PUBCHEM_ATOM_DEF_STEREO_COUNT>
0

> <PUBCHEM_ATOM_UDEF_STEREO_COUNT>
0

> <PUBCHEM_BOND_DEF_STEREO_COUNT>
0

> <PUBCHEM_BOND_UDEF_STEREO_COUNT>
0

> <PUBCHEM_ISOTOPIC_ATOM_COUNT>
0

> <PUBCHEM_COMPONENT_COUNT>
1

> <PUBCHEM_CACTVS_TAUTO_COUNT>
1

> <PUBCHEM_COORDINATE_TYPE>
1
5
255

> <PUBCHEM_BONDANNOTATIONS>
1  13  8
1  3  8
11  12  8
12  13  8
3  11  8

$$$$

