12577
  -OEChem-06261207063D

 14 14  0     0  0  0  0  0  0999 V2000
    0.0400    0.5503    0.0000 O   0  0  0  0  0  0  0  0  0  0  0  0
   -3.3947   -0.4831   -0.0006 O   0  0  0  0  0  0  0  0  0  0  0  0
   -2.5584    1.6304    0.0004 O   0  0  0  0  0  0  0  0  0  0  0  0
    3.4178   -0.3552    0.0007 O   0  5  0  0  0  0  0  0  0  0  0  0
    2.4335    1.6070   -0.0006 O   0  0  0  0  0  0  0  0  0  0  0  0
    2.3609    0.3426    0.0000 N   0  3  0  0  0  0  0  0  0  0  0  0
   -1.0659   -0.2394    0.0002 C   0  0  0  0  0  0  0  0  0  0  0  0
    1.1129   -0.2835   -0.0004 C   0  0  0  0  0  0  0  0  0  0  0  0
   -0.7109   -1.5682    0.0002 C   0  0  0  0  0  0  0  0  0  0  0  0
    0.7042   -1.5969   -0.0003 C   0  0  0  0  0  0  0  0  0  0  0  0
   -2.3393    0.3960    0.0004 C   0  0  0  0  0  0  0  0  0  0  0  0
   -1.3802   -2.4170    0.0005 H   0  0  0  0  0  0  0  0  0  0  0  0
    1.3409   -2.4704   -0.0003 H   0  0  0  0  0  0  0  0  0  0  0  0
   -4.2559   -0.0132   -0.0008 H   0  0  0  0  0  0  0  0  0  0  0  0
  1  7  1  0  0  0  0
  1  8  1  0  0  0  0
  2 11  1  0  0  0  0
  2 14  1  0  0  0  0
  3 11  2  0  0  0  0
  4  6  1  0  0  0  0
  5  6  2  0  0  0  0
  6  8  1  0  0  0  0
  7  9  2  0  0  0  0
  7 11  1  0  0  0  0
  8 10  2  0  0  0  0
  9 10  1  0  0  0  0
  9 12  1  0  0  0  0
 10 13  1  0  0  0  0
M  CHG  2   4  -1   6   1
M  END
> <PUBCHEM_COMPOUND_CID>
12577

> <PUBCHEM_CONFORMER_RMSD>
0.4

> <PUBCHEM_CONFORMER_DIVERSEORDER>
1
2

> <PUBCHEM_MMFF94_PARTIAL_CHARGES>
14
1 -0.28
10 -0.15
11 0.81
12 0.15
13 0.15
14 0.5
2 -0.65
3 -0.57
4 -0.52
5 -0.52
6 0.96
7 0.05
8 0.22
9 -0.15

> <PUBCHEM_EFFECTIVE_ROTOR_COUNT>
2

> <PUBCHEM_PHARMACOPHORE_FEATURES>
8
1 1 acceptor
1 2 acceptor
1 3 acceptor
1 4 acceptor
1 4 anion
1 5 acceptor
3 2 3 11 anion
5 1 7 8 9 10 rings

> <PUBCHEM_HEAVY_ATOM_COUNT>
11

> <PUBCHEM_ATOM_DEF_STEREO_COUNT>
0

> <PUBCHEM_ATOM_UDEF_STEREO_COUNT>
0

> <PUBCHEM_BOND_DEF_STEREO_COUNT>
0

> <PUBCHEM_BOND_UDEF_STEREO_COUNT>
0

> <PUBCHEM_ISOTOPIC_ATOM_COUNT>
0

> <PUBCHEM_COMPONENT_COUNT>
1

> <PUBCHEM_CACTVS_TAUTO_COUNT>
1

> <PUBCHEM_CONFORMER_ID>
0000312100000001

> <PUBCHEM_MMFF94_ENERGY>
14.9025

> <PUBCHEM_FEATURE_SELFOVERLAP>
40.749

> <PUBCHEM_SHAPE_FINGERPRINT>
12932764 1 17168438124584481751
13380535 76 18410857663494474539
14325111 11 18410573989451725664
14390081 3 18409168826676887361
16945 1 18410575080410588967
19973954 147 18265893742925997425
20653085 51 18335972125554577504
21028194 46 18410571781838516048
21040471 1 18410855455907261890
23402655 69 18119826939492433429
23552423 10 18266460004357447095
2748010 2 17832990442787826591
29004967 10 9583513222342431766
5084963 1 18187082849395715427

> <PUBCHEM_SHAPE_MULTIPOLES>
192.05
4.69
1.58
0.56
0.22
0
0
1.33
0
-0.02
0
-0.02
-0.04
0

> <PUBCHEM_SHAPE_SELFOVERLAP>
405.37

> <PUBCHEM_SHAPE_VOLUME>
108.5

> <PUBCHEM_COORDINATE_TYPE>
2
5
10

$$$$

