854024
  -OEChem-06241222463D

 24 25  0     0  0  0  0  0  0999 V2000
    4.0605    0.8192   -0.2593 F   0  0  0  0  0  0  0  0  0  0  0  0
    0.2109   -2.1626   -0.1492 N   0  0  0  0  0  0  0  0  0  0  0  0
   -4.4950    1.3211   -0.3201 N   0  0  0  0  0  0  0  0  0  0  0  0
   -1.2622   -0.5702    0.3207 C   0  0  0  0  0  0  0  0  0  0  0  0
    0.0245    0.0293    0.2218 C   0  0  0  0  0  0  0  0  0  0  0  0
   -2.5330    0.1204    0.6201 C   0  0  0  0  0  0  0  0  0  0  0  0
    0.9306   -0.9914   -0.0740 C   0  0  0  0  0  0  0  0  0  0  0  0
   -1.1151   -1.9181    0.0877 C   0  0  0  0  0  0  0  0  0  0  0  0
   -3.2584    0.6178   -0.6437 C   0  0  0  0  0  0  0  0  0  0  0  0
    0.5068    1.3465    0.3558 C   0  0  0  0  0  0  0  0  0  0  0  0
    2.3003   -0.7598   -0.2433 C   0  0  0  0  0  0  0  0  0  0  0  0
    1.8744    1.5931    0.1893 C   0  0  0  0  0  0  0  0  0  0  0  0
    2.7556    0.5546   -0.1057 C   0  0  0  0  0  0  0  0  0  0  0  0
   -3.1967   -0.5577    1.1732 H   0  0  0  0  0  0  0  0  0  0  0  0
   -2.3436    0.9682    1.2913 H   0  0  0  0  0  0  0  0  0  0  0  0
   -1.8333   -2.7261    0.0685 H   0  0  0  0  0  0  0  0  0  0  0  0
    0.6053   -3.0711   -0.3507 H   0  0  0  0  0  0  0  0  0  0  0  0
   -3.4933   -0.2305   -1.2968 H   0  0  0  0  0  0  0  0  0  0  0  0
   -2.6036    1.2895   -1.2113 H   0  0  0  0  0  0  0  0  0  0  0  0
   -0.1662    2.1680    0.5841 H   0  0  0  0  0  0  0  0  0  0  0  0
    2.9872   -1.5673   -0.4726 H   0  0  0  0  0  0  0  0  0  0  0  0
    2.2522    2.6068    0.2912 H   0  0  0  0  0  0  0  0  0  0  0  0
   -4.9109    1.6848   -1.1765 H   0  0  0  0  0  0  0  0  0  0  0  0
   -4.2856    2.1305    0.2626 H   0  0  0  0  0  0  0  0  0  0  0  0
  1 13  1  0  0  0  0
  2  7  1  0  0  0  0
  2  8  1  0  0  0  0
  2 17  1  0  0  0  0
  3  9  1  0  0  0  0
  3 23  1  0  0  0  0
  3 24  1  0  0  0  0
  4  5  1  0  0  0  0
  4  6  1  0  0  0  0
  4  8  2  0  0  0  0
  5  7  2  0  0  0  0
  5 10  1  0  0  0  0
  6  9  1  0  0  0  0
  6 14  1  0  0  0  0
  6 15  1  0  0  0  0
  7 11  1  0  0  0  0
  8 16  1  0  0  0  0
  9 18  1  0  0  0  0
  9 19  1  0  0  0  0
 10 12  2  0  0  0  0
 10 20  1  0  0  0  0
 11 13  2  0  0  0  0
 11 21  1  0  0  0  0
 12 13  1  0  0  0  0
 12 22  1  0  0  0  0
M  END
> <PUBCHEM_COMPOUND_CID>
854024

> <PUBCHEM_CONFORMER_RMSD>
0.6

> <PUBCHEM_CONFORMER_DIVERSEORDER>
1
3
4
5
2

> <PUBCHEM_MMFF94_PARTIAL_CHARGES>
19
1 -0.19
10 -0.15
11 -0.15
12 -0.15
13 0.19
16 0.15
17 0.27
2 0.03
20 0.15
21 0.15
22 0.15
23 0.36
24 0.36
3 -0.99
4 -0.18
6 0.18
7 -0.15
8 -0.3
9 0.27

> <PUBCHEM_EFFECTIVE_ROTOR_COUNT>
2

> <PUBCHEM_PHARMACOPHORE_FEATURES>
6
1 2 cation
1 2 donor
1 3 cation
1 3 donor
5 2 4 5 7 8 rings
6 5 7 10 11 12 13 rings

> <PUBCHEM_HEAVY_ATOM_COUNT>
13

> <PUBCHEM_ATOM_DEF_STEREO_COUNT>
0

> <PUBCHEM_ATOM_UDEF_STEREO_COUNT>
0

> <PUBCHEM_BOND_DEF_STEREO_COUNT>
0

> <PUBCHEM_BOND_UDEF_STEREO_COUNT>
0

> <PUBCHEM_ISOTOPIC_ATOM_COUNT>
0

> <PUBCHEM_COMPONENT_COUNT>
1

> <PUBCHEM_CACTVS_TAUTO_COUNT>
1

> <PUBCHEM_CONFORMER_ID>
000D080800000001

> <PUBCHEM_MMFF94_ENERGY>
12.4711

> <PUBCHEM_FEATURE_SELFOVERLAP>
30.538

> <PUBCHEM_SHAPE_FINGERPRINT>
10608611 8 18265615377194515769
11206711 2 18047468928748625823
11401426 45 18187089451203658328
11471102 20 18337956795856783173
11543360 7 15357983326033862616
12654215 9 18340488983693334084
13380535 76 18409449184761848842
14325111 11 18410855438927618979
14897335 6 18408889524758527602
14911166 2 18334850628348039436
14993402 34 17240483610793162884
15219456 202 18271518775889336787
15279308 100 18338796719476624572
15775835 57 18413108364033311397
16945 1 18261662723355720290
18186145 218 18260256465089823833
20606313 2 18337675316484865421
21524375 3 18341899584503638415
231179 274 17846223301525262685
23402539 116 18261402138910254308
23402655 69 18261681471326142189
23559900 14 18187916237447222700
25 1 18410859897193375541
2748010 2 18190734228938373106
528886 8 18408606946128014498
53812653 166 18409731746491619800

> <PUBCHEM_SHAPE_MULTIPOLES>
250.3
5.81
1.9
0.7
2.66
0.58
0.01
-3.19
-1.03
0.05
-0.02
0.2
-0.04
0.3

> <PUBCHEM_SHAPE_SELFOVERLAP>
540.1

> <PUBCHEM_SHAPE_VOLUME>
139.8

> <PUBCHEM_COORDINATE_TYPE>
2
5
10

$$$$

