6764
  -OEChem-06261201292D

 22 24  0     0  0  0  0  0  0999 V2000
    4.6660   -2.2846    0.0000 O   0  0  0  0  0  0  0  0  0  0  0  0
    6.3981   -1.2846    0.0000 O   0  0  0  0  0  0  0  0  0  0  0  0
    6.4421    0.7222    0.0000 N   0  0  0  0  0  0  0  0  0  0  0  0
    2.9061   -1.3193    0.0000 N   0  0  0  0  0  0  0  0  0  0  0  0
    4.6660    0.7154    0.0000 C   0  0  0  0  0  0  0  0  0  0  0  0
    3.8000    0.2154    0.0000 C   0  0  0  0  0  0  0  0  0  0  0  0
    5.5321    0.2154    0.0000 C   0  0  0  0  0  0  0  0  0  0  0  0
    3.8000   -0.7846    0.0000 C   0  0  0  0  0  0  0  0  0  0  0  0
    5.5321   -0.7846    0.0000 C   0  0  0  0  0  0  0  0  0  0  0  0
    4.6660   -1.2846    0.0000 C   0  0  0  0  0  0  0  0  0  0  0  0
    4.6500    1.7569    0.0000 C   0  0  0  0  0  0  0  0  0  0  0  0
    2.9061    0.7500    0.0000 C   0  0  0  0  0  0  0  0  0  0  0  0
    2.0000    0.2362    0.0000 C   0  0  0  0  0  0  0  0  0  0  0  0
    5.5480    2.2846    0.0000 C   0  0  0  0  0  0  0  0  0  0  0  0
    6.4501    1.7638    0.0000 C   0  0  0  0  0  0  0  0  0  0  0  0
    2.0000   -0.8054    0.0000 C   0  0  0  0  0  0  0  0  0  0  0  0
    4.1095    2.0606    0.0000 H   0  0  0  0  0  0  0  0  0  0  0  0
    2.9132    1.3700    0.0000 H   0  0  0  0  0  0  0  0  0  0  0  0
    5.5456    2.9046    0.0000 H   0  0  0  0  0  0  0  0  0  0  0  0
    1.4643    0.5483    0.0000 H   0  0  0  0  0  0  0  0  0  0  0  0
    6.9882    2.0717    0.0000 H   0  0  0  0  0  0  0  0  0  0  0  0
    1.4643   -1.1175    0.0000 H   0  0  0  0  0  0  0  0  0  0  0  0
  1 10  2  0  0  0  0
  2  9  2  0  0  0  0
  3  7  1  0  0  0  0
  3 15  2  0  0  0  0
  4  8  1  0  0  0  0
  4 16  2  0  0  0  0
  5  6  1  0  0  0  0
  5  7  2  0  0  0  0
  5 11  1  0  0  0  0
  6  8  2  0  0  0  0
  6 12  1  0  0  0  0
  7  9  1  0  0  0  0
  8 10  1  0  0  0  0
  9 10  1  0  0  0  0
 11 14  2  0  0  0  0
 11 17  1  0  0  0  0
 12 13  2  0  0  0  0
 12 18  1  0  0  0  0
 13 16  1  0  0  0  0
 13 20  1  0  0  0  0
 14 15  1  0  0  0  0
 14 19  1  0  0  0  0
 15 21  1  0  0  0  0
 16 22  1  0  0  0  0
M  END
> <PUBCHEM_COMPOUND_CID>
6764

> <PUBCHEM_COMPOUND_CANONICALIZED>
1

> <PUBCHEM_CACTVS_COMPLEXITY>
297

> <PUBCHEM_CACTVS_HBOND_ACCEPTOR>
4

> <PUBCHEM_CACTVS_HBOND_DONOR>
0

> <PUBCHEM_CACTVS_ROTATABLE_BOND>
0

> <PUBCHEM_CACTVS_SUBSKEYS>
AAADcYBzMAAAAAAAAAAAAAAAAAAAAAAAAAA8WIAAAAAAAACx4AAAHgAAAAAADAzBngQ8gJIIEACoA7R3RACCgCA3AiAI2CG4ZNgIIPrAlbGEIQhggADIyQcYiYCegAAAAAAAAAAAAQCAACQAAAAAAAAAAA==

> <PUBCHEM_IUPAC_OPENEYE_NAME>
4,7-phenanthroline-5,6-dione

> <PUBCHEM_IUPAC_CAS_NAME>
4,7-phenanthroline-5,6-dione

> <PUBCHEM_IUPAC_NAME>
4,7-phenanthroline-5,6-dione

> <PUBCHEM_IUPAC_SYSTEMATIC_NAME>
4,7-phenanthroline-5,6-dione

> <PUBCHEM_IUPAC_TRADITIONAL_NAME>
4,7-phenanthroline-5,6-quinone

> <PUBCHEM_IUPAC_INCHI>
InChI=1S/C12H6N2O2/c15-11-9-7(3-1-5-13-9)8-4-2-6-14-10(8)12(11)16/h1-6H

> <PUBCHEM_IUPAC_INCHIKEY>
VLPADTBFADIFKG-UHFFFAOYSA-N

> <PUBCHEM_XLOGP3_AA>
1.1

> <PUBCHEM_EXACT_MASS>
210.042927

> <PUBCHEM_MOLECULAR_FORMULA>
C12H6N2O2

> <PUBCHEM_MOLECULAR_WEIGHT>
210.18824

> <PUBCHEM_OPENEYE_CAN_SMILES>
C1=CC2=C(C(=O)C(=O)C3=C2C=CC=N3)N=C1

> <PUBCHEM_OPENEYE_ISO_SMILES>
C1=CC2=C(C(=O)C(=O)C3=C2C=CC=N3)N=C1

> <PUBCHEM_CACTVS_TPSA>
59.9

> <PUBCHEM_MONOISOTOPIC_WEIGHT>
210.042927

> <PUBCHEM_TOTAL_CHARGE>
0

> <PUBCHEM_HEAVY_ATOM_COUNT>
16

> <PUBCHEM_ATOM_DEF_STEREO_COUNT>
0

> <PUBCHEM_ATOM_UDEF_STEREO_COUNT>
0

> <PUBCHEM_BOND_DEF_STEREO_COUNT>
0

> <PUBCHEM_BOND_UDEF_STEREO_COUNT>
0

> <PUBCHEM_ISOTOPIC_ATOM_COUNT>
0

> <PUBCHEM_COMPONENT_COUNT>
1

> <PUBCHEM_CACTVS_TAUTO_COUNT>
1

> <PUBCHEM_COORDINATE_TYPE>
1
5
255

> <PUBCHEM_BONDANNOTATIONS>
11  14  8
12  13  8
13  16  8
14  15  8
3  15  8
3  7  8
4  16  8
4  8  8
5  11  8
5  7  8
6  12  8
6  8  8

$$$$

