3774
  -OEChem-06251223403D

 32 33  0     1  0  0  0  0  0999 V2000
    2.7838    1.3982   -0.1658 O   0  0  0  0  0  0  0  0  0  0  0  0
    3.5145   -0.3651   -1.4334 O   0  0  0  0  0  0  0  0  0  0  0  0
   -2.6185    0.5805    0.2640 N   0  0  0  0  0  0  0  0  0  0  0  0
    0.7029    0.5552    0.5107 C   0  0  2  0  0  0  0  0  0  0  0  0
    1.5322   -0.5962   -0.0475 C   0  0  2  0  0  0  0  0  0  0  0  0
   -0.3024    1.0673   -0.5246 C   0  0  0  0  0  0  0  0  0  0  0  0
    1.7557    1.6043    0.8092 C   0  0  0  0  0  0  0  0  0  0  0  0
    2.0100   -1.5620    1.0278 C   0  0  0  0  0  0  0  0  0  0  0  0
    2.7138    0.1213   -0.6492 C   0  0  0  0  0  0  0  0  0  0  0  0
   -1.5700    0.2523   -0.5288 C   0  0  0  0  0  0  0  0  0  0  0  0
    0.8548   -2.3346    1.6424 C   0  0  0  0  0  0  0  0  0  0  0  0
   -1.8703   -0.8554   -1.2560 C   0  0  0  0  0  0  0  0  0  0  0  0
   -3.6242   -0.3264    0.0532 C   0  0  0  0  0  0  0  0  0  0  0  0
   -3.1856   -1.2318   -0.8877 C   0  0  0  0  0  0  0  0  0  0  0  0
   -2.6967    1.6925    1.1857 C   0  0  0  0  0  0  0  0  0  0  0  0
    0.1679    0.3116    1.4332 H   0  0  0  0  0  0  0  0  0  0  0  0
    1.0096   -1.1372   -0.8424 H   0  0  0  0  0  0  0  0  0  0  0  0
    0.1314    1.0574   -1.5336 H   0  0  0  0  0  0  0  0  0  0  0  0
   -0.5502    2.1178   -0.3299 H   0  0  0  0  0  0  0  0  0  0  0  0
    1.3855    2.6311    0.7369 H   0  0  0  0  0  0  0  0  0  0  0  0
    2.1995    1.4680    1.8016 H   0  0  0  0  0  0  0  0  0  0  0  0
    2.5627   -1.0387    1.8176 H   0  0  0  0  0  0  0  0  0  0  0  0
    2.7155   -2.2769    0.5857 H   0  0  0  0  0  0  0  0  0  0  0  0
    0.1914   -1.6936    2.2288 H   0  0  0  0  0  0  0  0  0  0  0  0
    0.2600   -2.8353    0.8717 H   0  0  0  0  0  0  0  0  0  0  0  0
    1.2415   -3.1047    2.3183 H   0  0  0  0  0  0  0  0  0  0  0  0
   -1.2332   -1.3503   -1.9754 H   0  0  0  0  0  0  0  0  0  0  0  0
   -4.5648   -0.2578    0.5834 H   0  0  0  0  0  0  0  0  0  0  0  0
   -3.7524   -2.0704   -1.2670 H   0  0  0  0  0  0  0  0  0  0  0  0
   -3.6257    1.6254    1.7582 H   0  0  0  0  0  0  0  0  0  0  0  0
   -1.8466    1.6472    1.8700 H   0  0  0  0  0  0  0  0  0  0  0  0
   -2.6876    2.6207    0.6092 H   0  0  0  0  0  0  0  0  0  0  0  0
  1  7  1  0  0  0  0
  1  9  1  0  0  0  0
  2  9  2  0  0  0  0
  3 10  1  0  0  0  0
  3 13  1  0  0  0  0
  3 15  1  0  0  0  0
  4  5  1  0  0  0  0
  4  6  1  0  0  0  0
  4  7  1  0  0  0  0
  4 16  1  0  0  0  0
  5  8  1  0  0  0  0
  5  9  1  0  0  0  0
  5 17  1  0  0  0  0
  6 10  1  0  0  0  0
  6 18  1  0  0  0  0
  6 19  1  0  0  0  0
  7 20  1  0  0  0  0
  7 21  1  0  0  0  0
  8 11  1  0  0  0  0
  8 22  1  0  0  0  0
  8 23  1  0  0  0  0
 10 12  2  0  0  0  0
 11 24  1  0  0  0  0
 11 25  1  0  0  0  0
 11 26  1  0  0  0  0
 12 14  1  0  0  0  0
 12 27  1  0  0  0  0
 13 14  2  0  0  0  0
 13 28  1  0  0  0  0
 14 29  1  0  0  0  0
 15 30  1  0  0  0  0
 15 31  1  0  0  0  0
 15 32  1  0  0  0  0
M  END
> <PUBCHEM_COMPOUND_CID>
3774

> <PUBCHEM_CONFORMER_RMSD>
0.6

> <PUBCHEM_CONFORMER_DIVERSEORDER>
5
12
55
46
54
37
10
48
18
29
56
52
20
32
62
47
33
14
23
34
58
59
50
9
61
40
30
42
41
19
57
3
51
60
17
38
21
44
31
35
13
26
24
27
16
15
1
2
4
36
7
11
64
22
43
25
6
49
53
63
28
39
8
45

> <PUBCHEM_MMFF94_PARTIAL_CHARGES>
15
1 -0.43
10 -0.33
12 -0.15
13 -0.3
14 -0.15
15 0.26
2 -0.57
27 0.15
28 0.15
29 0.15
3 0.05
5 0.06
6 0.18
7 0.28
9 0.66

> <PUBCHEM_EFFECTIVE_ROTOR_COUNT>
3.8

> <PUBCHEM_PHARMACOPHORE_FEATURES>
5
1 11 hydrophobe
1 2 acceptor
1 3 cation
5 1 4 5 7 9 rings
5 3 10 12 13 14 rings

> <PUBCHEM_HEAVY_ATOM_COUNT>
15

> <PUBCHEM_ATOM_DEF_STEREO_COUNT>
0

> <PUBCHEM_ATOM_UDEF_STEREO_COUNT>
2

> <PUBCHEM_BOND_DEF_STEREO_COUNT>
0

> <PUBCHEM_BOND_UDEF_STEREO_COUNT>
0

> <PUBCHEM_ISOTOPIC_ATOM_COUNT>
0

> <PUBCHEM_COMPONENT_COUNT>
1

> <PUBCHEM_CACTVS_TAUTO_COUNT>
2

> <PUBCHEM_CONFORMER_ID>
00000EBE00000005

> <PUBCHEM_MMFF94_ENERGY>
18.8636

> <PUBCHEM_FEATURE_SELFOVERLAP>
25.371

> <PUBCHEM_SHAPE_FINGERPRINT>
107287 299 17275097349363780810
12202030 40 16558458807637213963
124424 183 14273733009755756454
12932764 1 18341054098521451149
13221675 6 18260266330671887871
13538477 17 18261675994736346593
14144814 61 18113901576218178989
14787075 74 17544765529945142279
15279307 12 18412263943387993355
15375462 189 18268989954505273370
15775835 57 18413106186395266927
15852999 172 17202780214731532923
16752209 62 17895205453984766269
16945 1 17917712379020813324
17357779 13 17340676419344732859
18186145 218 18272084981269732484
18522851 12 18340198699902411555
19422 9 18261384550997902804
20231682 184 15195279799000847342
20442098 301 17822300050081453879
20645477 70 18341347659868676279
21730867 7 17632583755341356134
22445834 79 18411140276995656299
2255824 54 18341332206417784084
23175994 123 14562798989301821892
23236772 104 18335422310017329241
232386 152 18190197843363199330
23382010 3 18128236923280492700
23402539 116 18343581850580055636
23598291 2 18196087969928476555
23598294 1 17966966132585755217
2748010 2 14665835954680733823
2871803 45 18341340976809749855
53748568 43 18339355370167600619
74978 22 18187090589159203061
8030462 33 18342464750538637885
81228 2 17125628420356130050

> <PUBCHEM_SHAPE_MULTIPOLES>
291.97
5.83
1.96
1.37
1.64
0.41
0.11
0.09
-1.06
-0.39
0.93
-0.23
0.38
-1.01

> <PUBCHEM_SHAPE_SELFOVERLAP>
610.461

> <PUBCHEM_SHAPE_VOLUME>
169.7

> <PUBCHEM_COORDINATE_TYPE>
2
5
10

$$$$

