11211
  -OEChem-06261205242D

 30 29  0     0  0  0  0  0  0999 V2000
    7.5622    0.9330    0.0000 F   0  0  0  0  0  0  0  0  0  0  0  0
    8.5622   -0.7990    0.0000 F   0  0  0  0  0  0  0  0  0  0  0  0
    6.6962    0.4330    0.0000 F   0  0  0  0  0  0  0  0  0  0  0  0
    7.6962   -1.2990    0.0000 F   0  0  0  0  0  0  0  0  0  0  0  0
    8.4282    1.4330    0.0000 F   0  0  0  0  0  0  0  0  0  0  0  0
    9.4282   -0.2990    0.0000 F   0  0  0  0  0  0  0  0  0  0  0  0
    5.8301   -0.0670    0.0000 F   0  0  0  0  0  0  0  0  0  0  0  0
    6.8301   -1.7990    0.0000 F   0  0  0  0  0  0  0  0  0  0  0  0
   10.2942    0.2010    0.0000 F   0  0  0  0  0  0  0  0  0  0  0  0
    9.2942    1.9330    0.0000 F   0  0  0  0  0  0  0  0  0  0  0  0
   11.5263    2.0670    0.0000 F   0  0  0  0  0  0  0  0  0  0  0  0
   11.1603    0.7010    0.0000 F   0  0  0  0  0  0  0  0  0  0  0  0
   10.1603    2.4330    0.0000 F   0  0  0  0  0  0  0  0  0  0  0  0
    4.5981   -0.9330    0.0000 O   0  0  0  0  0  0  0  0  0  0  0  0
    3.7320   -2.4330    0.0000 O   0  0  0  0  0  0  0  0  0  0  0  0
    8.0622    0.0670    0.0000 C   0  0  0  0  0  0  0  0  0  0  0  0
    7.1962   -0.4330    0.0000 C   0  0  0  0  0  0  0  0  0  0  0  0
    8.9282    0.5670    0.0000 C   0  0  0  0  0  0  0  0  0  0  0  0
    6.3301   -0.9330    0.0000 C   0  0  0  0  0  0  0  0  0  0  0  0
    9.7942    1.0670    0.0000 C   0  0  0  0  0  0  0  0  0  0  0  0
    5.4641   -1.4330    0.0000 C   0  0  0  0  0  0  0  0  0  0  0  0
   10.6603    1.5670    0.0000 C   0  0  0  0  0  0  0  0  0  0  0  0
    3.7320   -1.4330    0.0000 C   0  0  0  0  0  0  0  0  0  0  0  0
    2.8660   -0.9330    0.0000 C   0  0  0  0  0  0  0  0  0  0  0  0
    2.0000   -1.4330    0.0000 C   0  0  0  0  0  0  0  0  0  0  0  0
    5.0656   -1.9080    0.0000 H   0  0  0  0  0  0  0  0  0  0  0  0
    5.8626   -1.9080    0.0000 H   0  0  0  0  0  0  0  0  0  0  0  0
    2.8660   -0.3130    0.0000 H   0  0  0  0  0  0  0  0  0  0  0  0
    1.4631   -1.1230    0.0000 H   0  0  0  0  0  0  0  0  0  0  0  0
    2.0000   -2.0530    0.0000 H   0  0  0  0  0  0  0  0  0  0  0  0
  1 16  1  0  0  0  0
  2 16  1  0  0  0  0
  3 17  1  0  0  0  0
  4 17  1  0  0  0  0
  5 18  1  0  0  0  0
  6 18  1  0  0  0  0
  7 19  1  0  0  0  0
  8 19  1  0  0  0  0
  9 20  1  0  0  0  0
 10 20  1  0  0  0  0
 11 22  1  0  0  0  0
 12 22  1  0  0  0  0
 13 22  1  0  0  0  0
 14 21  1  0  0  0  0
 14 23  1  0  0  0  0
 15 23  2  0  0  0  0
 16 17  1  0  0  0  0
 16 18  1  0  0  0  0
 17 19  1  0  0  0  0
 18 20  1  0  0  0  0
 19 21  1  0  0  0  0
 20 22  1  0  0  0  0
 21 26  1  0  0  0  0
 21 27  1  0  0  0  0
 23 24  1  0  0  0  0
 24 25  2  0  0  0  0
 24 28  1  0  0  0  0
 25 29  1  0  0  0  0
 25 30  1  0  0  0  0
M  END
> <PUBCHEM_COMPOUND_CID>
11211

> <PUBCHEM_COMPOUND_CANONICALIZED>
1

> <PUBCHEM_CACTVS_COMPLEXITY>
519

> <PUBCHEM_CACTVS_HBOND_ACCEPTOR>
15

> <PUBCHEM_CACTVS_HBOND_DONOR>
0

> <PUBCHEM_CACTVS_ROTATABLE_BOND>
8

> <PUBCHEM_CACTVS_SUBSKEYS>
AAADcYBwMcAAAAAAAAAAAAAAAAAAAAAAAAAAAAAAAAAAAAAAAAAAGwAAAAAACACggBIACAAABACIACDSCAAAAAAAAAAIAAAAAEAABAIAIAACAAAEAAAAIIGAwCAAAAAAAAAAAAAAAAAAAAAAAAAAAAAAAA==

> <PUBCHEM_IUPAC_OPENEYE_NAME>
2,2,3,3,4,4,5,5,6,6,7,7,7-tridecafluoroheptyl prop-2-enoate

> <PUBCHEM_IUPAC_CAS_NAME>
2-propenoic acid 2,2,3,3,4,4,5,5,6,6,7,7,7-tridecafluoroheptyl ester

> <PUBCHEM_IUPAC_NAME>
2,2,3,3,4,4,5,5,6,6,7,7,7-tridecafluoroheptyl prop-2-enoate

> <PUBCHEM_IUPAC_SYSTEMATIC_NAME>
2,2,3,3,4,4,5,5,6,6,7,7,7-tridecakis(fluoranyl)heptyl prop-2-enoate

> <PUBCHEM_IUPAC_TRADITIONAL_NAME>
acrylic acid 2,2,3,3,4,4,5,5,6,6,7,7,7-tridecafluoroheptyl ester

> <PUBCHEM_IUPAC_INCHI>
InChI=1S/C10H5F13O2/c1-2-4(24)25-3-5(11,12)6(13,14)7(15,16)8(17,18)9(19,20)10(21,22)23/h2H,1,3H2

> <PUBCHEM_IUPAC_INCHIKEY>
XJAVADKMAMZXPW-UHFFFAOYSA-N

> <PUBCHEM_XLOGP3_AA>
5.2

> <PUBCHEM_EXACT_MASS>
404.008196

> <PUBCHEM_MOLECULAR_FORMULA>
C10H5F13O2

> <PUBCHEM_MOLECULAR_WEIGHT>
404.124742

> <PUBCHEM_OPENEYE_CAN_SMILES>
C=CC(=O)OCC(C(C(C(C(C(F)(F)F)(F)F)(F)F)(F)F)(F)F)(F)F

> <PUBCHEM_OPENEYE_ISO_SMILES>
C=CC(=O)OCC(C(C(C(C(C(F)(F)F)(F)F)(F)F)(F)F)(F)F)(F)F

> <PUBCHEM_CACTVS_TPSA>
26.3

> <PUBCHEM_MONOISOTOPIC_WEIGHT>
404.008196

> <PUBCHEM_TOTAL_CHARGE>
0

> <PUBCHEM_HEAVY_ATOM_COUNT>
25

> <PUBCHEM_ATOM_DEF_STEREO_COUNT>
0

> <PUBCHEM_ATOM_UDEF_STEREO_COUNT>
0

> <PUBCHEM_BOND_DEF_STEREO_COUNT>
0

> <PUBCHEM_BOND_UDEF_STEREO_COUNT>
0

> <PUBCHEM_ISOTOPIC_ATOM_COUNT>
0

> <PUBCHEM_COMPONENT_COUNT>
1

> <PUBCHEM_CACTVS_TAUTO_COUNT>
1

> <PUBCHEM_COORDINATE_TYPE>
1
5
255

$$$$

