14316
  -OEChem-06241222433D

 20 21  0     0  0  0  0  0  0999 V2000
    0.3018    2.4435    0.0001 S   0  0  0  0  0  0  0  0  0  0  0  0
   -2.1467   -1.8132   -0.0008 O   0  0  0  0  0  0  0  0  0  0  0  0
    0.2734   -0.1419    0.0002 C   0  0  0  0  0  0  0  0  0  0  0  0
   -1.0931    0.2971    0.0000 C   0  0  0  0  0  0  0  0  0  0  0  0
    1.1538    0.9445   -0.0001 C   0  0  0  0  0  0  0  0  0  0  0  0
    0.8213   -1.4474    0.0005 C   0  0  0  0  0  0  0  0  0  0  0  0
   -1.2152    1.6664    0.0002 C   0  0  0  0  0  0  0  0  0  0  0  0
    2.5506    0.7607   -0.0005 C   0  0  0  0  0  0  0  0  0  0  0  0
   -2.2497   -0.5636    0.0000 C   0  0  0  0  0  0  0  0  0  0  0  0
    2.2064   -1.6332    0.0006 C   0  0  0  0  0  0  0  0  0  0  0  0
    3.0599   -0.5393   -0.0004 C   0  0  0  0  0  0  0  0  0  0  0  0
   -3.6626    0.0264    0.0002 C   0  0  0  0  0  0  0  0  0  0  0  0
    0.1900   -2.3307    0.0009 H   0  0  0  0  0  0  0  0  0  0  0  0
   -2.1131    2.2683    0.0003 H   0  0  0  0  0  0  0  0  0  0  0  0
    3.2264    1.6111   -0.0008 H   0  0  0  0  0  0  0  0  0  0  0  0
    2.6150   -2.6398    0.0009 H   0  0  0  0  0  0  0  0  0  0  0  0
    4.1356   -0.6936   -0.0007 H   0  0  0  0  0  0  0  0  0  0  0  0
   -3.8150    0.6291   -0.8990 H   0  0  0  0  0  0  0  0  0  0  0  0
   -3.8145    0.6292    0.8994 H   0  0  0  0  0  0  0  0  0  0  0  0
   -4.3954   -0.7862    0.0004 H   0  0  0  0  0  0  0  0  0  0  0  0
  1  5  1  0  0  0  0
  1  7  1  0  0  0  0
  2  9  2  0  0  0  0
  3  4  1  0  0  0  0
  3  5  1  0  0  0  0
  3  6  2  0  0  0  0
  4  7  2  0  0  0  0
  4  9  1  0  0  0  0
  5  8  2  0  0  0  0
  6 10  1  0  0  0  0
  6 13  1  0  0  0  0
  7 14  1  0  0  0  0
  8 11  1  0  0  0  0
  8 15  1  0  0  0  0
  9 12  1  0  0  0  0
 10 11  2  0  0  0  0
 10 16  1  0  0  0  0
 11 17  1  0  0  0  0
 12 18  1  0  0  0  0
 12 19  1  0  0  0  0
 12 20  1  0  0  0  0
M  END
> <PUBCHEM_COMPOUND_CID>
14316

> <PUBCHEM_CONFORMER_RMSD>
0.4

> <PUBCHEM_CONFORMER_DIVERSEORDER>
1
2
3
4

> <PUBCHEM_MMFF94_PARTIAL_CHARGES>
16
1 -0.08
10 -0.15
11 -0.15
12 0.06
13 0.15
14 0.15
15 0.15
16 0.15
17 0.15
2 -0.57
4 -0.09
5 0.04
6 -0.15
7 -0.11
8 -0.15
9 0.6

> <PUBCHEM_EFFECTIVE_ROTOR_COUNT>
1

> <PUBCHEM_PHARMACOPHORE_FEATURES>
3
1 2 acceptor
5 1 3 4 5 7 rings
6 3 5 6 8 10 11 rings

> <PUBCHEM_HEAVY_ATOM_COUNT>
12

> <PUBCHEM_ATOM_DEF_STEREO_COUNT>
0

> <PUBCHEM_ATOM_UDEF_STEREO_COUNT>
0

> <PUBCHEM_BOND_DEF_STEREO_COUNT>
0

> <PUBCHEM_BOND_UDEF_STEREO_COUNT>
0

> <PUBCHEM_ISOTOPIC_ATOM_COUNT>
0

> <PUBCHEM_COMPONENT_COUNT>
1

> <PUBCHEM_CACTVS_TAUTO_COUNT>
2

> <PUBCHEM_CONFORMER_ID>
000037EC00000001

> <PUBCHEM_MMFF94_ENERGY>
26.6996

> <PUBCHEM_FEATURE_SELFOVERLAP>
15.283

> <PUBCHEM_SHAPE_FINGERPRINT>
10130415 120 18413673525836835441
10219947 1 18408039598080609111
10967382 1 18410575067488497479
11132069 177 18409173186168763890
11471102 20 18411705370169426301
12032990 46 18410848884575682983
12382932 28 18408603643250840579
12897270 3 18411418418835126046
161256 15 18409452496397885904
16945 1 18410855451580594116
17990270 104 18268712705829161707
193761 8 17834396000778809890
20201158 50 18413109463413310579
20645477 70 18124041126869476039
20711985 365 18196373834340879093
20871998 184 18043254745486916214
20871998 22 18262509415743975351
21501502 16 18266455601889127824
2334 1 17762055441352562281
23402539 116 18263378025798364575
23463225 33 18411418431593342894
23552423 10 18272364325884531364
23559900 14 16892297154255323510
241688 4 18339922731115985648
2748010 2 18338239395898628156
3312278 4 18411976936260920115
528886 8 18409735032025537170
53812653 166 18261960626540413128
7364860 26 18191024508371603057
81228 2 18196083567529372352
8809292 202 18272928310609040891

> <PUBCHEM_SHAPE_MULTIPOLES>
244.93
4.6
2.22
0.62
1.52
0.67
0
-1.46
0
-0.14
0
-0.02
0.03
0

> <PUBCHEM_SHAPE_SELFOVERLAP>
519.629

> <PUBCHEM_SHAPE_VOLUME>
138.4

> <PUBCHEM_COORDINATE_TYPE>
2
5
10

$$$$

