47205215
  -OEChem-06241222582D

 36 38  0     0  0  0  0  0  0999 V2000
    6.1808    1.6970    0.0000 O   0  0  0  0  0  0  0  0  0  0  0  0
    9.7250   -1.1077    0.0000 N   0  0  0  0  0  0  0  0  0  0  0  0
    5.3147    0.1970    0.0000 N   0  0  0  0  0  0  0  0  0  0  0  0
    2.6691    0.6038    0.0000 N   0  0  0  0  0  0  0  0  0  0  0  0
    2.0000   -0.1394    0.0000 N   0  0  0  0  0  0  0  0  0  0  0  0
    8.7788    0.1970    0.0000 C   0  0  0  0  0  0  0  0  0  0  0  0
    9.7250    0.5018    0.0000 C   0  0  0  0  0  0  0  0  0  0  0  0
    8.7788   -0.8030    0.0000 C   0  0  0  0  0  0  0  0  0  0  0  0
   10.3087   -0.3030    0.0000 C   0  0  0  0  0  0  0  0  0  0  0  0
    7.9128    0.6970    0.0000 C   0  0  0  0  0  0  0  0  0  0  0  0
    7.0468    0.1970    0.0000 C   0  0  0  0  0  0  0  0  0  0  0  0
    7.9128   -1.3030    0.0000 C   0  0  0  0  0  0  0  0  0  0  0  0
    7.0468   -0.8030    0.0000 C   0  0  0  0  0  0  0  0  0  0  0  0
   10.0357    1.4523    0.0000 C   0  0  0  0  0  0  0  0  0  0  0  0
   11.3087   -0.3030    0.0000 C   0  0  0  0  0  0  0  0  0  0  0  0
    6.1808    0.6970    0.0000 C   0  0  0  0  0  0  0  0  0  0  0  0
    4.4487    0.6970    0.0000 C   0  0  0  0  0  0  0  0  0  0  0  0
    3.5827    0.1970    0.0000 C   0  0  0  0  0  0  0  0  0  0  0  0
    3.4782   -0.7975    0.0000 C   0  0  0  0  0  0  0  0  0  0  0  0
    2.5000   -1.0054    0.0000 C   0  0  0  0  0  0  0  0  0  0  0  0
    9.9177   -1.6970    0.0000 H   0  0  0  0  0  0  0  0  0  0  0  0
    7.9128    1.3170    0.0000 H   0  0  0  0  0  0  0  0  0  0  0  0
    7.9128   -1.9230    0.0000 H   0  0  0  0  0  0  0  0  0  0  0  0
    6.5098   -1.1130    0.0000 H   0  0  0  0  0  0  0  0  0  0  0  0
   10.6250    1.2597    0.0000 H   0  0  0  0  0  0  0  0  0  0  0  0
   10.2283    2.0416    0.0000 H   0  0  0  0  0  0  0  0  0  0  0  0
    9.4464    1.6449    0.0000 H   0  0  0  0  0  0  0  0  0  0  0  0
   11.3087   -0.9230    0.0000 H   0  0  0  0  0  0  0  0  0  0  0  0
   11.9287   -0.3030    0.0000 H   0  0  0  0  0  0  0  0  0  0  0  0
   11.3087    0.3170    0.0000 H   0  0  0  0  0  0  0  0  0  0  0  0
    4.8472    1.1720    0.0000 H   0  0  0  0  0  0  0  0  0  0  0  0
    4.0502    1.1720    0.0000 H   0  0  0  0  0  0  0  0  0  0  0  0
    5.3147   -0.4230    0.0000 H   0  0  0  0  0  0  0  0  0  0  0  0
    3.9389   -1.2124    0.0000 H   0  0  0  0  0  0  0  0  0  0  0  0
    2.5402    1.2102    0.0000 H   0  0  0  0  0  0  0  0  0  0  0  0
    2.2478   -1.5718    0.0000 H   0  0  0  0  0  0  0  0  0  0  0  0
  1 16  2  0  0  0  0
  2  8  1  0  0  0  0
  2  9  1  0  0  0  0
  2 21  1  0  0  0  0
  3 16  1  0  0  0  0
  3 17  1  0  0  0  0
  3 33  1  0  0  0  0
  4  5  1  0  0  0  0
  4 18  1  0  0  0  0
  4 35  1  0  0  0  0
  5 20  2  0  0  0  0
  6  7  1  0  0  0  0
  6  8  2  0  0  0  0
  6 10  1  0  0  0  0
  7  9  2  0  0  0  0
  7 14  1  0  0  0  0
  8 12  1  0  0  0  0
  9 15  1  0  0  0  0
 10 11  2  0  0  0  0
 10 22  1  0  0  0  0
 11 13  1  0  0  0  0
 11 16  1  0  0  0  0
 12 13  2  0  0  0  0
 12 23  1  0  0  0  0
 13 24  1  0  0  0  0
 14 25  1  0  0  0  0
 14 26  1  0  0  0  0
 14 27  1  0  0  0  0
 15 28  1  0  0  0  0
 15 29  1  0  0  0  0
 15 30  1  0  0  0  0
 17 18  1  0  0  0  0
 17 31  1  0  0  0  0
 17 32  1  0  0  0  0
 18 19  2  0  0  0  0
 19 20  1  0  0  0  0
 19 34  1  0  0  0  0
 20 36  1  0  0  0  0
M  END
> <PUBCHEM_COMPOUND_CID>
47205215

> <PUBCHEM_COMPOUND_CANONICALIZED>
1

> <PUBCHEM_CACTVS_COMPLEXITY>
362

> <PUBCHEM_CACTVS_HBOND_ACCEPTOR>
2

> <PUBCHEM_CACTVS_HBOND_DONOR>
3

> <PUBCHEM_CACTVS_ROTATABLE_BOND>
3

> <PUBCHEM_CACTVS_SUBSKEYS>
AAADceBzoAAAAAAAAAAAAAAAAAAAAWLAAAAwAAAAAAAAAFgB/AAAHgAYAAAADAjBngQ+wPLrkACqAzV3VACShCAlgiAYuaE4ZNgIYPLA1dGUpQhgngDIyYcYicCeiAACAAACAAAQAAQAAAQAAAAAAAAAAA==

> <PUBCHEM_IUPAC_OPENEYE_NAME>
2,3-dimethyl-N-(1H-pyrazol-5-ylmethyl)-1H-indole-5-carboxamide

> <PUBCHEM_IUPAC_CAS_NAME>
2,3-dimethyl-N-(1H-pyrazol-5-ylmethyl)-1H-indole-5-carboxamide

> <PUBCHEM_IUPAC_NAME>
2,3-dimethyl-N-(1H-pyrazol-5-ylmethyl)-1H-indole-5-carboxamide

> <PUBCHEM_IUPAC_SYSTEMATIC_NAME>
2,3-dimethyl-N-(1H-pyrazol-5-ylmethyl)-1H-indole-5-carboxamide

> <PUBCHEM_IUPAC_TRADITIONAL_NAME>
2,3-dimethyl-N-(1H-pyrazol-5-ylmethyl)-1H-indole-5-carboxamide

> <PUBCHEM_IUPAC_INCHI>
InChI=1S/C15H16N4O/c1-9-10(2)18-14-4-3-11(7-13(9)14)15(20)16-8-12-5-6-17-19-12/h3-7,18H,8H2,1-2H3,(H,16,20)(H,17,19)

> <PUBCHEM_IUPAC_INCHIKEY>
DCJROXQMWJEWFA-UHFFFAOYSA-N

> <PUBCHEM_XLOGP3_AA>
1.9

> <PUBCHEM_EXACT_MASS>
268.132411

> <PUBCHEM_MOLECULAR_FORMULA>
C15H16N4O

> <PUBCHEM_MOLECULAR_WEIGHT>
268.31374

> <PUBCHEM_OPENEYE_CAN_SMILES>
CC1=C(NC2=C1C=C(C=C2)C(=O)NCC3=CC=NN3)C

> <PUBCHEM_OPENEYE_ISO_SMILES>
CC1=C(NC2=C1C=C(C=C2)C(=O)NCC3=CC=NN3)C

> <PUBCHEM_CACTVS_TPSA>
73.6

> <PUBCHEM_MONOISOTOPIC_WEIGHT>
268.132411

> <PUBCHEM_TOTAL_CHARGE>
0

> <PUBCHEM_HEAVY_ATOM_COUNT>
20

> <PUBCHEM_ATOM_DEF_STEREO_COUNT>
0

> <PUBCHEM_ATOM_UDEF_STEREO_COUNT>
0

> <PUBCHEM_BOND_DEF_STEREO_COUNT>
0

> <PUBCHEM_BOND_UDEF_STEREO_COUNT>
0

> <PUBCHEM_ISOTOPIC_ATOM_COUNT>
0

> <PUBCHEM_COMPONENT_COUNT>
1

> <PUBCHEM_CACTVS_TAUTO_COUNT>
10

> <PUBCHEM_COORDINATE_TYPE>
1
5
255

> <PUBCHEM_BONDANNOTATIONS>
10  11  8
11  13  8
12  13  8
18  19  8
19  20  8
2  8  8
2  9  8
4  18  8
4  5  8
5  20  8
6  10  8
6  7  8
6  8  8
7  9  8
8  12  8

$$$$

