7013
  -OEChem-06261201403D

 30 32  0     0  0  0  0  0  0999 V2000
    0.7843   -0.5832   -0.4575 N   0  0  0  0  0  0  0  0  0  0  0  0
   -1.6295   -0.2616   -0.0936 C   0  0  0  0  0  0  0  0  0  0  0  0
   -0.3475    0.2594   -0.3335 C   0  0  0  0  0  0  0  0  0  0  0  0
   -2.7264    0.6253    0.0220 C   0  0  0  0  0  0  0  0  0  0  0  0
   -0.1497    1.6348   -0.4576 C   0  0  0  0  0  0  0  0  0  0  0  0
   -1.8469   -1.6431    0.0343 C   0  0  0  0  0  0  0  0  0  0  0  0
   -2.5089    2.0068   -0.1058 C   0  0  0  0  0  0  0  0  0  0  0  0
   -4.0083    0.1045    0.2621 C   0  0  0  0  0  0  0  0  0  0  0  0
    2.1438   -0.3941   -0.1607 C   0  0  0  0  0  0  0  0  0  0  0  0
   -1.2283    2.5069   -0.3439 C   0  0  0  0  0  0  0  0  0  0  0  0
   -3.1273   -2.1432    0.2728 C   0  0  0  0  0  0  0  0  0  0  0  0
   -4.2059   -1.2711    0.3865 C   0  0  0  0  0  0  0  0  0  0  0  0
    3.1249   -1.0647   -0.8971 C   0  0  0  0  0  0  0  0  0  0  0  0
    2.5250    0.4658    0.8735 C   0  0  0  0  0  0  0  0  0  0  0  0
    4.4752   -0.8773   -0.6016 C   0  0  0  0  0  0  0  0  0  0  0  0
    3.8753    0.6532    1.1688 C   0  0  0  0  0  0  0  0  0  0  0  0
    4.8503   -0.0183    0.4312 C   0  0  0  0  0  0  0  0  0  0  0  0
    0.5952   -1.4503   -0.9509 H   0  0  0  0  0  0  0  0  0  0  0  0
    0.8280    2.0574   -0.6715 H   0  0  0  0  0  0  0  0  0  0  0  0
   -1.0377   -2.3650   -0.0365 H   0  0  0  0  0  0  0  0  0  0  0  0
   -3.3375    2.7070   -0.0221 H   0  0  0  0  0  0  0  0  0  0  0  0
   -4.8660    0.7675    0.3548 H   0  0  0  0  0  0  0  0  0  0  0  0
   -1.0752    3.5772   -0.4470 H   0  0  0  0  0  0  0  0  0  0  0  0
   -3.2820   -3.2137    0.3721 H   0  0  0  0  0  0  0  0  0  0  0  0
   -5.2024   -1.6610    0.5728 H   0  0  0  0  0  0  0  0  0  0  0  0
    2.8469   -1.7366   -1.7054 H   0  0  0  0  0  0  0  0  0  0  0  0
    1.7885    0.9832    1.4824 H   0  0  0  0  0  0  0  0  0  0  0  0
    5.2345   -1.4002   -1.1756 H   0  0  0  0  0  0  0  0  0  0  0  0
    4.1676    1.3175    1.9769 H   0  0  0  0  0  0  0  0  0  0  0  0
    5.9016    0.1266    0.6622 H   0  0  0  0  0  0  0  0  0  0  0  0
  1  3  1  0  0  0  0
  1  9  1  0  0  0  0
  1 18  1  0  0  0  0
  2  3  1  0  0  0  0
  2  4  1  0  0  0  0
  2  6  2  0  0  0  0
  3  5  2  0  0  0  0
  4  7  1  0  0  0  0
  4  8  2  0  0  0  0
  5 10  1  0  0  0  0
  5 19  1  0  0  0  0
  6 11  1  0  0  0  0
  6 20  1  0  0  0  0
  7 10  2  0  0  0  0
  7 21  1  0  0  0  0
  8 12  1  0  0  0  0
  8 22  1  0  0  0  0
  9 13  2  0  0  0  0
  9 14  1  0  0  0  0
 10 23  1  0  0  0  0
 11 12  2  0  0  0  0
 11 24  1  0  0  0  0
 12 25  1  0  0  0  0
 13 15  1  0  0  0  0
 13 26  1  0  0  0  0
 14 16  2  0  0  0  0
 14 27  1  0  0  0  0
 15 17  2  0  0  0  0
 15 28  1  0  0  0  0
 16 17  1  0  0  0  0
 16 29  1  0  0  0  0
 17 30  1  0  0  0  0
M  END
> <PUBCHEM_COMPOUND_CID>
7013

> <PUBCHEM_CONFORMER_RMSD>
0.6

> <PUBCHEM_CONFORMER_DIVERSEORDER>
2
6
7
8
5
1
3
4

> <PUBCHEM_MMFF94_PARTIAL_CHARGES>
28
1 -0.6
10 -0.15
11 -0.15
12 -0.15
13 -0.15
14 -0.15
15 -0.15
16 -0.15
17 -0.15
18 0.4
19 0.15
20 0.15
21 0.15
22 0.15
23 0.15
24 0.15
25 0.15
26 0.15
27 0.15
28 0.15
29 0.15
3 0.1
30 0.15
5 -0.15
6 -0.15
7 -0.15
8 -0.15
9 0.1

> <PUBCHEM_EFFECTIVE_ROTOR_COUNT>
2

> <PUBCHEM_PHARMACOPHORE_FEATURES>
5
1 1 cation
1 1 donor
6 2 3 4 5 7 10 rings
6 2 4 6 8 11 12 rings
6 9 13 14 15 16 17 rings

> <PUBCHEM_HEAVY_ATOM_COUNT>
17

> <PUBCHEM_ATOM_DEF_STEREO_COUNT>
0

> <PUBCHEM_ATOM_UDEF_STEREO_COUNT>
0

> <PUBCHEM_BOND_DEF_STEREO_COUNT>
0

> <PUBCHEM_BOND_UDEF_STEREO_COUNT>
0

> <PUBCHEM_ISOTOPIC_ATOM_COUNT>
0

> <PUBCHEM_COMPONENT_COUNT>
1

> <PUBCHEM_CACTVS_TAUTO_COUNT>
1

> <PUBCHEM_CONFORMER_ID>
00001B6500000002

> <PUBCHEM_MMFF94_ENERGY>
68.5727

> <PUBCHEM_FEATURE_SELFOVERLAP>
25.398

> <PUBCHEM_SHAPE_FINGERPRINT>
10319926 262 18266196079176018074
10366900 7 18187654595605773642
10608611 8 18261398887989276104
10616163 171 18412541041698285198
11132069 177 18410573993952447265
11370993 144 17677037057686385363
11552529 35 17241050885990109159
12236239 1 17203326723887566326
13140716 1 18268138765618666171
13214271 11 18335145297274359933
14289901 80 18272083924871171384
14420673 8 17764879374456977034
15099037 37 18410577283776031405
15219456 202 18113621217990857748
15309172 13 16805604776233593206
15653759 3 18408042931265355240
17804303 29 18408881824135347537
17834074 16 18334012813319880230
1813 80 17775565308179350245
19049666 15 17971750223267882918
19141452 34 18187080612335413351
200 152 15123793989463348340
20510252 161 18262519307291099977
21065198 57 18334576884333417456
21065199 12 18334298686517065034
21065201 7 18341333396292517146
21079973 296 18410011018202893986
21267235 1 18341602690684142395
21637258 2 15984812676763503249
21650355 55 18412827967241312281
22122407 14 15864621774559711947
22854114 59 17821449045356291674
22943178 12 18188492488207120646
2297311 6 18337659876182853638
23175994 123 17240479234511567320
23366157 5 17628914530510796949
23402539 116 18408329878289026543
23557571 272 18335129925792200868
23559900 14 18337672044083789502
23845131 108 17471557202885589361
2748010 2 17908973645993614901
2838139 119 14997120449382150817
3009799 131 18340785766877720783
34934 24 18342464780999164715
4214541 1 18338234972403949548
43471831 8 18129665325844470355
474 4 16772371939201728580
5104073 3 18262240027369530858
573450 72 18059584636701537402
6049 1 18187363259695478544
77492 1 17203604917372034916
81228 2 18270102626155540985
90316 7 18130508634098831973
9709674 26 18262234546675080926

> <PUBCHEM_SHAPE_MULTIPOLES>
344.87
9.25
2.13
0.88
6.29
0.6
0.07
-2.75
1.37
-2.13
-0.17
0.66
0.02
0.89

> <PUBCHEM_SHAPE_SELFOVERLAP>
763.789

> <PUBCHEM_SHAPE_VOLUME>
182.9

> <PUBCHEM_COORDINATE_TYPE>
2
5
10

$$$$

