17395930
  -OEChem-06241222533D

 40 43  0     0  0  0  0  0  0999 V2000
   -2.8300   -4.4100   -1.0272 Cl  0  0  0  0  0  0  0  0  0  0  0  0
   -3.9050    1.9139    0.9412 O   0  0  0  0  0  0  0  0  0  0  0  0
    2.1545   -2.0670    1.2677 O   0  0  0  0  0  0  0  0  0  0  0  0
    4.7332   -2.1745    0.1861 O   0  0  0  0  0  0  0  0  0  0  0  0
   -1.6992    2.0869    0.2606 N   0  0  0  0  0  0  0  0  0  0  0  0
   -0.5503    0.1730   -0.6054 N   0  0  0  0  0  0  0  0  0  0  0  0
   -1.4785    3.5007    0.5486 C   0  0  0  0  0  0  0  0  0  0  0  0
   -0.0300    3.7578    0.1399 C   0  0  0  0  0  0  0  0  0  0  0  0
   -0.5637    1.4973   -0.2629 C   0  0  0  0  0  0  0  0  0  0  0  0
    0.4195    2.4097   -0.3529 C   0  0  0  0  0  0  0  0  0  0  0  0
   -2.8885    1.4059    0.4775 C   0  0  0  0  0  0  0  0  0  0  0  0
   -2.8730   -0.0430    0.1028 C   0  0  0  0  0  0  0  0  0  0  0  0
   -1.6969   -0.6134   -0.4295 C   0  0  0  0  0  0  0  0  0  0  0  0
    1.7520    2.2186   -0.8386 C   0  0  0  0  0  0  0  0  0  0  0  0
    2.4878    1.1302   -0.5828 C   0  0  0  0  0  0  0  0  0  0  0  0
   -4.0209   -0.8209    0.2814 C   0  0  0  0  0  0  0  0  0  0  0  0
   -1.6958   -1.9688   -0.7760 C   0  0  0  0  0  0  0  0  0  0  0  0
   -4.0012   -2.1706   -0.0698 C   0  0  0  0  0  0  0  0  0  0  0  0
   -2.8434   -2.7429   -0.5966 C   0  0  0  0  0  0  0  0  0  0  0  0
    1.9445    0.0534    0.2305 C   0  0  0  0  0  0  0  0  0  0  0  0
    3.8354    1.0162   -1.1163 C   0  0  0  0  0  0  0  0  0  0  0  0
    2.6653   -1.0450    0.4976 C   0  0  0  0  0  0  0  0  0  0  0  0
    4.5849   -0.0658   -0.8707 C   0  0  0  0  0  0  0  0  0  0  0  0
    4.0515   -1.1804   -0.0417 C   0  0  0  0  0  0  0  0  0  0  0  0
    2.4478   -1.8613    2.6366 C   0  0  0  0  0  0  0  0  0  0  0  0
   -1.6539    3.6817    1.6144 H   0  0  0  0  0  0  0  0  0  0  0  0
   -2.1915    4.1000   -0.0278 H   0  0  0  0  0  0  0  0  0  0  0  0
    0.0259    4.5164   -0.6479 H   0  0  0  0  0  0  0  0  0  0  0  0
    0.5653    4.0938    0.9955 H   0  0  0  0  0  0  0  0  0  0  0  0
    0.1787   -0.1869   -1.2057 H   0  0  0  0  0  0  0  0  0  0  0  0
    2.1614    3.0378   -1.4257 H   0  0  0  0  0  0  0  0  0  0  0  0
   -4.9339   -0.3969    0.6897 H   0  0  0  0  0  0  0  0  0  0  0  0
   -0.7935   -2.4183   -1.1858 H   0  0  0  0  0  0  0  0  0  0  0  0
   -4.8991   -2.7667    0.0730 H   0  0  0  0  0  0  0  0  0  0  0  0
    1.0916    0.1760    0.8831 H   0  0  0  0  0  0  0  0  0  0  0  0
    4.2367    1.8222   -1.7229 H   0  0  0  0  0  0  0  0  0  0  0  0
    5.5903   -0.1601   -1.2642 H   0  0  0  0  0  0  0  0  0  0  0  0
    3.5284   -1.8202    2.8123 H   0  0  0  0  0  0  0  0  0  0  0  0
    1.9710   -0.9500    3.0142 H   0  0  0  0  0  0  0  0  0  0  0  0
    2.0470   -2.7084    3.2015 H   0  0  0  0  0  0  0  0  0  0  0  0
  1 19  1  0  0  0  0
  2 11  2  0  0  0  0
  3 22  1  0  0  0  0
  3 25  1  0  0  0  0
  4 24  2  0  0  0  0
  5  7  1  0  0  0  0
  5  9  1  0  0  0  0
  5 11  1  0  0  0  0
  6  9  1  0  0  0  0
  6 13  1  0  0  0  0
  6 30  1  0  0  0  0
  7  8  1  0  0  0  0
  7 26  1  0  0  0  0
  7 27  1  0  0  0  0
  8 10  1  0  0  0  0
  8 28  1  0  0  0  0
  8 29  1  0  0  0  0
  9 10  2  0  0  0  0
 10 14  1  0  0  0  0
 11 12  1  0  0  0  0
 12 13  2  0  0  0  0
 12 16  1  0  0  0  0
 13 17  1  0  0  0  0
 14 15  2  0  0  0  0
 14 31  1  0  0  0  0
 15 20  1  0  0  0  0
 15 21  1  0  0  0  0
 16 18  2  0  0  0  0
 16 32  1  0  0  0  0
 17 19  2  0  0  0  0
 17 33  1  0  0  0  0
 18 19  1  0  0  0  0
 18 34  1  0  0  0  0
 20 22  2  0  0  0  0
 20 35  1  0  0  0  0
 21 23  2  0  0  0  0
 21 36  1  0  0  0  0
 22 24  1  0  0  0  0
 23 24  1  0  0  0  0
 23 37  1  0  0  0  0
 25 38  1  0  0  0  0
 25 39  1  0  0  0  0
 25 40  1  0  0  0  0
M  END
> <PUBCHEM_COMPOUND_CID>
17395930

> <PUBCHEM_CONFORMER_RMSD>
0.6

> <PUBCHEM_CONFORMER_DIVERSEORDER>
1
2

> <PUBCHEM_MMFF94_PARTIAL_CHARGES>
32
1 -0.18
10 -0.14
11 0.54
12 0.09
13 0.1
14 -0.15
16 -0.15
17 -0.15
18 -0.15
19 0.18
2 -0.57
20 -0.15
21 -0.15
22 0.09
23 -0.14
24 0.54
25 0.28
3 -0.36
30 0.4
31 0.15
32 0.15
33 0.15
34 0.15
35 0.15
36 0.15
37 0.15
4 -0.57
5 -0.47
6 -0.6
7 0.3
8 0.14
9 0.21

> <PUBCHEM_EFFECTIVE_ROTOR_COUNT>
2.6

> <PUBCHEM_PHARMACOPHORE_FEATURES>
9
1 2 acceptor
1 3 acceptor
1 4 acceptor
1 6 cation
1 6 donor
5 5 7 8 9 10 rings
6 12 13 16 17 18 19 rings
6 15 20 21 22 23 24 rings
6 5 6 9 11 12 13 rings

> <PUBCHEM_HEAVY_ATOM_COUNT>
25

> <PUBCHEM_ATOM_DEF_STEREO_COUNT>
0

> <PUBCHEM_ATOM_UDEF_STEREO_COUNT>
0

> <PUBCHEM_BOND_DEF_STEREO_COUNT>
1

> <PUBCHEM_BOND_UDEF_STEREO_COUNT>
0

> <PUBCHEM_ISOTOPIC_ATOM_COUNT>
0

> <PUBCHEM_COMPONENT_COUNT>
1

> <PUBCHEM_CACTVS_TAUTO_COUNT>
3

> <PUBCHEM_CONFORMER_ID>
010970DA00000001

> <PUBCHEM_MMFF94_ENERGY>
98.1972

> <PUBCHEM_FEATURE_SELFOVERLAP>
45.791

> <PUBCHEM_SHAPE_FINGERPRINT>
10369192 42 16881630362456597752
10616163 171 18409442622315525950
1100329 8 18409725175545474473
11578080 2 17986977200608426732
12403259 327 14346616216809460055
12553582 1 18337961095003183783
12788726 201 18412543249194820571
13140716 1 18407759248301291281
138480 1 15671817355209945741
14081887 123 18335436668177844432
14178342 30 18192442882724748736
14787075 74 18053380999130539220
14790565 3 18048303729074577665
14931854 50 18200309901543407878
15042514 8 18336820991776435533
15375462 189 18201997767692454776
15403338 16 16770140205221672369
15537594 2 18199166495149237096
16728300 4 17556303100713837067
16752209 62 18192163791549436429
17349148 13 18040721351218235861
19026451 147 17686928023677452286
20291156 8 18410855421505195772
21421861 104 18123475973307350577
21634736 98 18341604881180552740
21857420 4 15366187679932259958
23379529 103 18189038928528465342
23559900 14 18117281354750649725
238 59 17549545106632667882
238918 7 14955515212122491603
335352 9 18335412423493432501
352729 6 17978515565616692749
392239 28 18338522920176490016
4283 87 18341614750472203118
463206 1 18197492931046093595
7097593 13 18337951173850107245
86090 222 16549466662238792339

> <PUBCHEM_SHAPE_MULTIPOLES>
488.79
8.42
4.79
1.25
2.26
0.5
0.71
-6.03
-0.71
-2.79
0.12
0.86
-0.77
-2.42

> <PUBCHEM_SHAPE_SELFOVERLAP>
1078.13

> <PUBCHEM_SHAPE_VOLUME>
263.7

> <PUBCHEM_COORDINATE_TYPE>
2
5
10

$$$$

