17395579
  -OEChem-06241222513D

 48 50  0     1  0  0  0  0  0999 V2000
    1.2388    3.5516   -0.9812 S   0  0  0  0  0  0  0  0  0  0  0  0
   -1.7445    3.1880   -0.0381 O   0  0  0  0  0  0  0  0  0  0  0  0
   -0.8148    1.5504    1.3181 N   0  0  0  0  0  0  0  0  0  0  0  0
    2.3018    1.1452   -0.1560 N   0  0  0  0  0  0  0  0  0  0  0  0
    2.4779    0.0099   -2.1340 N   0  0  0  0  0  0  0  0  0  0  0  0
    1.9654    1.2366   -2.3133 N   0  0  0  0  0  0  0  0  0  0  0  0
   -1.9751   -0.3510    0.2329 C   0  0  2  0  0  0  0  0  0  0  0  0
   -1.9722    0.6878    1.3656 C   0  0  0  0  0  0  0  0  0  0  0  0
   -3.3550   -0.9405   -0.0103 C   0  0  0  0  0  0  0  0  0  0  0  0
   -0.9499   -1.4542    0.5165 C   0  0  0  0  0  0  0  0  0  0  0  0
    0.5425    3.4567    0.7009 C   0  0  2  0  0  0  0  0  0  0  0  0
   -4.2302   -1.1324    1.0588 C   0  0  0  0  0  0  0  0  0  0  0  0
   -3.7459   -1.2901   -1.3030 C   0  0  0  0  0  0  0  0  0  0  0  0
   -0.7990    2.7440    0.6103 C   0  0  0  0  0  0  0  0  0  0  0  0
   -5.4961   -1.6737    0.8353 C   0  0  0  0  0  0  0  0  0  0  0  0
   -5.0120   -1.8313   -1.5264 C   0  0  0  0  0  0  0  0  0  0  0  0
    0.3974    4.8590    1.2775 C   0  0  0  0  0  0  0  0  0  0  0  0
   -5.8870   -2.0230   -0.4574 C   0  0  0  0  0  0  0  0  0  0  0  0
    1.8637    1.9049   -1.1330 C   0  0  0  0  0  0  0  0  0  0  0  0
    2.6638    0.0038   -0.8124 C   0  0  0  0  0  0  0  0  0  0  0  0
    3.2189   -1.1561   -0.1485 C   0  0  0  0  0  0  0  0  0  0  0  0
    3.9755   -0.9988    1.0128 C   0  0  0  0  0  0  0  0  0  0  0  0
    2.9985   -2.4311   -0.6698 C   0  0  0  0  0  0  0  0  0  0  0  0
    4.5117   -2.1161    1.6528 C   0  0  0  0  0  0  0  0  0  0  0  0
    3.5346   -3.5485   -0.0297 C   0  0  0  0  0  0  0  0  0  0  0  0
    4.2912   -3.3909    1.1316 C   0  0  0  0  0  0  0  0  0  0  0  0
   -1.6683    0.1613   -0.6899 H   0  0  0  0  0  0  0  0  0  0  0  0
   -2.8619    1.3268    1.3086 H   0  0  0  0  0  0  0  0  0  0  0  0
   -1.9670    0.2102    2.3521 H   0  0  0  0  0  0  0  0  0  0  0  0
   -1.2096   -2.0203    1.4183 H   0  0  0  0  0  0  0  0  0  0  0  0
    0.0515   -1.0368    0.6574 H   0  0  0  0  0  0  0  0  0  0  0  0
   -0.8993   -2.1653   -0.3157 H   0  0  0  0  0  0  0  0  0  0  0  0
    0.0162    1.2496    1.8184 H   0  0  0  0  0  0  0  0  0  0  0  0
    1.2332    2.9101    1.3514 H   0  0  0  0  0  0  0  0  0  0  0  0
   -3.9519   -0.8889    2.0794 H   0  0  0  0  0  0  0  0  0  0  0  0
   -3.0728   -1.1479   -2.1442 H   0  0  0  0  0  0  0  0  0  0  0  0
   -6.1763   -1.8273    1.6680 H   0  0  0  0  0  0  0  0  0  0  0  0
   -5.3161   -2.1042   -2.5326 H   0  0  0  0  0  0  0  0  0  0  0  0
   -0.0308    4.8103    2.2852 H   0  0  0  0  0  0  0  0  0  0  0  0
   -0.2743    5.4827    0.6764 H   0  0  0  0  0  0  0  0  0  0  0  0
    1.3664    5.3645    1.3525 H   0  0  0  0  0  0  0  0  0  0  0  0
   -6.8723   -2.4456   -0.6311 H   0  0  0  0  0  0  0  0  0  0  0  0
    2.6353   -0.6361   -2.9030 H   0  0  0  0  0  0  0  0  0  0  0  0
    4.1629   -0.0143    1.4348 H   0  0  0  0  0  0  0  0  0  0  0  0
    2.4030   -2.5903   -1.5654 H   0  0  0  0  0  0  0  0  0  0  0  0
    5.1014   -1.9937    2.5566 H   0  0  0  0  0  0  0  0  0  0  0  0
    3.3607   -4.5417   -0.4335 H   0  0  0  0  0  0  0  0  0  0  0  0
    4.7081   -4.2610    1.6303 H   0  0  0  0  0  0  0  0  0  0  0  0
  1 11  1  0  0  0  0
  1 19  1  0  0  0  0
  2 14  2  0  0  0  0
  3  8  1  0  0  0  0
  3 14  1  0  0  0  0
  3 33  1  0  0  0  0
  4 19  1  0  0  0  0
  4 20  2  0  0  0  0
  5  6  1  0  0  0  0
  5 20  1  0  0  0  0
  5 43  1  0  0  0  0
  6 19  2  0  0  0  0
  7  8  1  0  0  0  0
  7  9  1  0  0  0  0
  7 10  1  0  0  0  0
  7 27  1  0  0  0  0
  8 28  1  0  0  0  0
  8 29  1  0  0  0  0
  9 12  2  0  0  0  0
  9 13  1  0  0  0  0
 10 30  1  0  0  0  0
 10 31  1  0  0  0  0
 10 32  1  0  0  0  0
 11 14  1  0  0  0  0
 11 17  1  0  0  0  0
 11 34  1  0  0  0  0
 12 15  1  0  0  0  0
 12 35  1  0  0  0  0
 13 16  2  0  0  0  0
 13 36  1  0  0  0  0
 15 18  2  0  0  0  0
 15 37  1  0  0  0  0
 16 18  1  0  0  0  0
 16 38  1  0  0  0  0
 17 39  1  0  0  0  0
 17 40  1  0  0  0  0
 17 41  1  0  0  0  0
 18 42  1  0  0  0  0
 20 21  1  0  0  0  0
 21 22  2  0  0  0  0
 21 23  1  0  0  0  0
 22 24  1  0  0  0  0
 22 44  1  0  0  0  0
 23 25  2  0  0  0  0
 23 45  1  0  0  0  0
 24 26  2  0  0  0  0
 24 46  1  0  0  0  0
 25 26  1  0  0  0  0
 25 47  1  0  0  0  0
 26 48  1  0  0  0  0
M  END
> <PUBCHEM_COMPOUND_CID>
17395579

> <PUBCHEM_CONFORMER_RMSD>
1.2

> <PUBCHEM_CONFORMER_DIVERSEORDER>
1
36
89
144
55
156
48
26
65
166
61
106
82
150
119
178
126
44
147
91
24
93
142
13
117
154
102
27
171
110
56
58
9
98
64
105
79
7
87
125
111
159
73
4
128
101
29
157
177
8
83
176
120
86
60
35
80
116
25
167
20
78
148
134
97
141
43
59
6
158
22
39
163
38
127
103
143
18
122
15
49
160
149
133
10
164
45
74
12
5
66
135
145
3
84
70
54
76
50
100
114
151
21
53
172
92
113
170
42
40
11
77
33
63
107
140
14
81
69
46
47
71
121
130
108
136
37
28
2
96
32
165
90
34
124
155
19
162
139
88
146
94
62
68
161
104
112
99
95
109
16
57
168
51
30
132
175
75
115
31
67
123
23
153
173
41
52
174
118
152
138
169
131
17
137
72
85
129

> <PUBCHEM_MMFF94_PARTIAL_CHARGES>
36
1 -0.28
11 0.29
12 -0.15
13 -0.15
14 0.57
15 -0.15
16 -0.15
18 -0.15
19 0.57
2 -0.57
20 0.13
21 0.05
22 -0.15
23 -0.15
24 -0.15
25 -0.15
26 -0.15
3 -0.73
33 0.37
35 0.15
36 0.15
37 0.15
38 0.15
4 -0.57
42 0.15
43 0.27
44 0.15
45 0.15
46 0.15
47 0.15
48 0.15
5 0.3
6 -0.71
7 0.14
8 0.3
9 -0.14

> <PUBCHEM_EFFECTIVE_ROTOR_COUNT>
8

> <PUBCHEM_PHARMACOPHORE_FEATURES>
10
1 10 hydrophobe
1 17 hydrophobe
1 2 acceptor
1 3 donor
1 5 donor
3 4 5 20 cation
3 4 6 19 cation
5 4 5 6 19 20 rings
6 21 22 23 24 25 26 rings
6 9 12 13 15 16 18 rings

> <PUBCHEM_HEAVY_ATOM_COUNT>
26

> <PUBCHEM_ATOM_DEF_STEREO_COUNT>
0

> <PUBCHEM_ATOM_UDEF_STEREO_COUNT>
2

> <PUBCHEM_BOND_DEF_STEREO_COUNT>
0

> <PUBCHEM_BOND_UDEF_STEREO_COUNT>
0

> <PUBCHEM_ISOTOPIC_ATOM_COUNT>
0

> <PUBCHEM_COMPONENT_COUNT>
1

> <PUBCHEM_CACTVS_TAUTO_COUNT>
6

> <PUBCHEM_CONFORMER_ID>
01096F7B00000001

> <PUBCHEM_MMFF94_ENERGY>
66.308

> <PUBCHEM_FEATURE_SELFOVERLAP>
53.492

> <PUBCHEM_SHAPE_FINGERPRINT>
11069576 57 18343293752410411830
11135609 149 18122093964737849197
11552529 35 17977388562366894312
11720765 8 18337691736493628077
12156800 1 16768217077443072836
12166972 35 18060702805499039518
12422481 6 17897427614176596059
12553582 1 18336809940546014458
12788726 201 18339349864172722346
13009979 54 18268983362173695698
13583140 156 17243606340545327794
13692114 37 17612017575740291193
13782708 43 17774995736421009371
14114206 34 17272546568603359870
14251757 17 17274833441056856495
14429115 67 18409169930383534986
14674994 50 17768820002043504092
1813 80 18187079542814534739
18681886 176 16010977694234400677
19026451 147 18341052930280115634
192875 21 18342738541650629050
20511986 3 17096926850751076081
20775530 9 18341040912929452902
21049683 118 16014964420011592553
21315764 21 17203886361999346127
2132832 1 18271524294806261014
345986 75 18040986320493313761
4017518 198 16827278645840724854
4058900 60 17689987943252724081
463206 1 18339362963702273043
484985 159 17339296923077884694
5265222 85 16247403931877392382
56633871 153 18048866683332691187
6438754 60 18202291328865580539
7164475 11 18338792424398344366
7471813 234 18412549824921892046

> <PUBCHEM_SHAPE_MULTIPOLES>
513.12
10.87
5.68
1.73
11.28
5.72
0.49
-14.69
-0.32
-4.24
-1.38
-0.52
0.24
-2.09

> <PUBCHEM_SHAPE_SELFOVERLAP>
1076.792

> <PUBCHEM_SHAPE_VOLUME>
291.5

> <PUBCHEM_COORDINATE_TYPE>
2
5
10

$$$$

