11835
  -OEChem-06261206102D

 52 54  0     0  0  0  0  0  0999 V2000
    5.4641   -0.7500    0.0000 O   0  0  0  0  0  0  0  0  0  0  0  0
    8.9942   -0.7742    0.0000 O   0  0  0  0  0  0  0  0  0  0  0  0
   10.7224   -1.7808    0.0000 O   0  0  0  0  0  0  0  0  0  0  0  0
    5.4641    2.2500    0.0000 O   0  0  0  0  0  0  0  0  0  0  0  0
   15.0583   -0.2975    0.0000 N   0  0  0  0  0  0  0  0  0  0  0  0
   11.5942   -0.2842    0.0000 N   0  0  0  0  0  0  0  0  0  0  0  0
   13.3263   -0.2908    0.0000 C   0  0  0  0  0  0  0  0  0  0  0  0
   14.1903   -0.7942    0.0000 C   0  0  0  0  0  0  0  0  0  0  0  0
   12.4583   -0.7875    0.0000 C   0  0  0  0  0  0  0  0  0  0  0  0
    6.3301    0.7500    0.0000 C   0  0  0  0  0  0  0  0  0  0  0  0
    6.3301   -0.2500    0.0000 C   0  0  0  0  0  0  0  0  0  0  0  0
   15.9224   -0.8009    0.0000 C   0  0  0  0  0  0  0  0  0  0  0  0
   15.0621    0.7025    0.0000 C   0  0  0  0  0  0  0  0  0  0  0  0
   10.7263   -0.7808    0.0000 C   0  0  0  0  0  0  0  0  0  0  0  0
    8.1301   -0.2708    0.0000 C   0  0  0  0  0  0  0  0  0  0  0  0
    7.2241   -0.7847    0.0000 C   0  0  0  0  0  0  0  0  0  0  0  0
    9.8622   -0.2775    0.0000 C   0  0  0  0  0  0  0  0  0  0  0  0
    4.5981   -0.2500    0.0000 C   0  0  0  0  0  0  0  0  0  0  0  0
    7.2241    1.2847    0.0000 C   0  0  0  0  0  0  0  0  0  0  0  0
    5.4641    1.2500    0.0000 C   0  0  0  0  0  0  0  0  0  0  0  0
    8.1301    0.7708    0.0000 C   0  0  0  0  0  0  0  0  0  0  0  0
    4.5981    0.7500    0.0000 C   0  0  0  0  0  0  0  0  0  0  0  0
    3.7320   -0.7500    0.0000 C   0  0  0  0  0  0  0  0  0  0  0  0
    2.8660   -0.2500    0.0000 C   0  0  0  0  0  0  0  0  0  0  0  0
    3.7320   -1.7500    0.0000 C   0  0  0  0  0  0  0  0  0  0  0  0
    2.0000   -0.7500    0.0000 C   0  0  0  0  0  0  0  0  0  0  0  0
    2.8660   -2.2500    0.0000 C   0  0  0  0  0  0  0  0  0  0  0  0
    2.0000   -1.7500    0.0000 C   0  0  0  0  0  0  0  0  0  0  0  0
   13.7266    0.1826    0.0000 H   0  0  0  0  0  0  0  0  0  0  0  0
   12.9296    0.1856    0.0000 H   0  0  0  0  0  0  0  0  0  0  0  0
   13.7900   -1.2676    0.0000 H   0  0  0  0  0  0  0  0  0  0  0  0
   14.5870   -1.2707    0.0000 H   0  0  0  0  0  0  0  0  0  0  0  0
   12.0579   -1.2609    0.0000 H   0  0  0  0  0  0  0  0  0  0  0  0
   12.8550   -1.2640    0.0000 H   0  0  0  0  0  0  0  0  0  0  0  0
   11.5966    0.3358    0.0000 H   0  0  0  0  0  0  0  0  0  0  0  0
   15.6103   -1.3366    0.0000 H   0  0  0  0  0  0  0  0  0  0  0  0
   15.6821    0.7001    0.0000 H   0  0  0  0  0  0  0  0  0  0  0  0
   15.0645    1.3225    0.0000 H   0  0  0  0  0  0  0  0  0  0  0  0
   14.4421    0.7049    0.0000 H   0  0  0  0  0  0  0  0  0  0  0  0
   16.4581   -1.1129    0.0000 H   0  0  0  0  0  0  0  0  0  0  0  0
   16.2344   -0.2651    0.0000 H   0  0  0  0  0  0  0  0  0  0  0  0
    7.2169   -1.4046    0.0000 H   0  0  0  0  0  0  0  0  0  0  0  0
   10.2625    0.1959    0.0000 H   0  0  0  0  0  0  0  0  0  0  0  0
    9.4655    0.1990    0.0000 H   0  0  0  0  0  0  0  0  0  0  0  0
    7.2169    1.9046    0.0000 H   0  0  0  0  0  0  0  0  0  0  0  0
    8.6659    1.0829    0.0000 H   0  0  0  0  0  0  0  0  0  0  0  0
    4.0611    1.0600    0.0000 H   0  0  0  0  0  0  0  0  0  0  0  0
    2.8660    0.3700    0.0000 H   0  0  0  0  0  0  0  0  0  0  0  0
    4.2690   -2.0600    0.0000 H   0  0  0  0  0  0  0  0  0  0  0  0
    1.4631   -0.4400    0.0000 H   0  0  0  0  0  0  0  0  0  0  0  0
    2.8660   -2.8700    0.0000 H   0  0  0  0  0  0  0  0  0  0  0  0
    1.4631   -2.0600    0.0000 H   0  0  0  0  0  0  0  0  0  0  0  0
  1 11  1  0  0  0  0
  1 18  1  0  0  0  0
  2 15  1  0  0  0  0
  2 17  1  0  0  0  0
  3 14  2  0  0  0  0
  4 20  2  0  0  0  0
  5  8  1  0  0  0  0
  5 12  1  0  0  0  0
  5 13  1  0  0  0  0
  6  9  1  0  0  0  0
  6 14  1  0  0  0  0
  6 35  1  0  0  0  0
  7  8  1  0  0  0  0
  7  9  1  0  0  0  0
  7 29  1  0  0  0  0
  7 30  1  0  0  0  0
  8 31  1  0  0  0  0
  8 32  1  0  0  0  0
  9 33  1  0  0  0  0
  9 34  1  0  0  0  0
 10 11  2  0  0  0  0
 10 19  1  0  0  0  0
 10 20  1  0  0  0  0
 11 16  1  0  0  0  0
 12 36  1  0  0  0  0
 12 40  1  0  0  0  0
 12 41  1  0  0  0  0
 13 37  1  0  0  0  0
 13 38  1  0  0  0  0
 13 39  1  0  0  0  0
 14 17  1  0  0  0  0
 15 16  2  0  0  0  0
 15 21  1  0  0  0  0
 16 42  1  0  0  0  0
 17 43  1  0  0  0  0
 17 44  1  0  0  0  0
 18 22  2  0  0  0  0
 18 23  1  0  0  0  0
 19 21  2  0  0  0  0
 19 45  1  0  0  0  0
 20 22  1  0  0  0  0
 21 46  1  0  0  0  0
 22 47  1  0  0  0  0
 23 24  2  0  0  0  0
 23 25  1  0  0  0  0
 24 26  1  0  0  0  0
 24 48  1  0  0  0  0
 25 27  2  0  0  0  0
 25 49  1  0  0  0  0
 26 28  2  0  0  0  0
 26 50  1  0  0  0  0
 27 28  1  0  0  0  0
 27 51  1  0  0  0  0
 28 52  1  0  0  0  0
M  END
> <PUBCHEM_COMPOUND_CID>
11835

> <PUBCHEM_COMPOUND_CANONICALIZED>
1

> <PUBCHEM_CACTVS_COMPLEXITY>
569

> <PUBCHEM_CACTVS_HBOND_ACCEPTOR>
5

> <PUBCHEM_CACTVS_HBOND_DONOR>
1

> <PUBCHEM_CACTVS_ROTATABLE_BOND>
8

> <PUBCHEM_CACTVS_SUBSKEYS>
AAADceB7OAAAAAAAAAAAAAAAAAAAAAAAAAAwYIAAAAAAAACBQAAAHgAQAAAADAThmAYyBoPABACIAqFSEAICCAAkIAAIiIFOCMgOJzaEdR6HOWCl9hWYqYeI7KzOIAAACAAIAABAAAAQABAAAAAAAAAAAA==

> <PUBCHEM_IUPAC_OPENEYE_NAME>
N-[3-(dimethylamino)propyl]-2-(4-oxo-2-phenyl-chromen-7-yl)oxy-acetamide

> <PUBCHEM_IUPAC_CAS_NAME>
N-[3-(dimethylamino)propyl]-2-[(4-oxo-2-phenyl-1-benzopyran-7-yl)oxy]acetamide

> <PUBCHEM_IUPAC_NAME>
N-[3-(dimethylamino)propyl]-2-(4-oxo-2-phenylchromen-7-yl)oxyacetamide

> <PUBCHEM_IUPAC_SYSTEMATIC_NAME>
N-[3-(dimethylamino)propyl]-2-(4-oxidanylidene-2-phenyl-chromen-7-yl)oxy-ethanamide

> <PUBCHEM_IUPAC_TRADITIONAL_NAME>
N-[3-(dimethylamino)propyl]-2-(4-keto-2-phenyl-chromen-7-yl)oxy-acetamide

> <PUBCHEM_IUPAC_INCHI>
InChI=1S/C22H24N2O4/c1-24(2)12-6-11-23-22(26)15-27-17-9-10-18-19(25)14-20(28-21(18)13-17)16-7-4-3-5-8-16/h3-5,7-10,13-14H,6,11-12,15H2,1-2H3,(H,23,26)

> <PUBCHEM_IUPAC_INCHIKEY>
RXBGAHUJPMHDIW-UHFFFAOYSA-N

> <PUBCHEM_XLOGP3>
3.7

> <PUBCHEM_EXACT_MASS>
380.173607

> <PUBCHEM_MOLECULAR_FORMULA>
C22H24N2O4

> <PUBCHEM_MOLECULAR_WEIGHT>
380.43696

> <PUBCHEM_OPENEYE_CAN_SMILES>
CN(C)CCCNC(=O)COC1=CC2=C(C=C1)C(=O)C=C(O2)C3=CC=CC=C3

> <PUBCHEM_OPENEYE_ISO_SMILES>
CN(C)CCCNC(=O)COC1=CC2=C(C=C1)C(=O)C=C(O2)C3=CC=CC=C3

> <PUBCHEM_CACTVS_TPSA>
67.9

> <PUBCHEM_MONOISOTOPIC_WEIGHT>
380.173607

> <PUBCHEM_TOTAL_CHARGE>
0

> <PUBCHEM_HEAVY_ATOM_COUNT>
28

> <PUBCHEM_ATOM_DEF_STEREO_COUNT>
0

> <PUBCHEM_ATOM_UDEF_STEREO_COUNT>
0

> <PUBCHEM_BOND_DEF_STEREO_COUNT>
0

> <PUBCHEM_BOND_UDEF_STEREO_COUNT>
0

> <PUBCHEM_ISOTOPIC_ATOM_COUNT>
0

> <PUBCHEM_COMPONENT_COUNT>
1

> <PUBCHEM_CACTVS_TAUTO_COUNT>
2

> <PUBCHEM_COORDINATE_TYPE>
1
5
255

> <PUBCHEM_BONDANNOTATIONS>
1  11  8
1  18  8
10  11  8
10  19  8
10  20  8
11  16  8
15  16  8
15  21  8
18  22  8
19  21  8
20  22  8
23  24  8
23  25  8
24  26  8
25  27  8
26  28  8
27  28  8

$$$$

