14009
  -OEChem-06241222413D

 66 69  0     0  0  0  0  0  0999 V2000
   -6.6606    1.9293    1.4804 Cl  0  0  0  0  0  0  0  0  0  0  0  0
   -4.3336   -2.8046   -1.8152 F   0  0  0  0  0  0  0  0  0  0  0  0
    8.2704   -0.6487   -0.2766 O   0  0  0  0  0  0  0  0  0  0  0  0
    0.3787    1.0856   -2.4309 O   0  0  0  0  0  0  0  0  0  0  0  0
    1.9781    0.7947    0.6143 N   0  0  0  0  0  0  0  0  0  0  0  0
    4.6509   -0.2601    0.2961 N   0  0  0  0  0  0  0  0  0  0  0  0
   -1.1465    1.8664   -0.8515 N   0  0  0  0  0  0  0  0  0  0  0  0
   -2.1716   -0.7776   -1.9382 N   0  0  0  0  0  0  0  0  0  0  0  0
    2.2093   -0.6321    0.3573 C   0  0  0  0  0  0  0  0  0  0  0  0
    3.1180    1.3779    1.3322 C   0  0  0  0  0  0  0  0  0  0  0  0
    3.5113   -0.8418   -0.4234 C   0  0  0  0  0  0  0  0  0  0  0  0
    4.4204    1.1670    0.5522 C   0  0  0  0  0  0  0  0  0  0  0  0
    0.7376    0.9931    1.3614 C   0  0  0  0  0  0  0  0  0  0  0  0
    0.1810    2.4083    1.1809 C   0  0  0  0  0  0  0  0  0  0  0  0
    5.8922   -0.4596   -0.4493 C   0  0  0  0  0  0  0  0  0  0  0  0
   -0.1607    2.7726   -0.2627 C   0  0  0  0  0  0  0  0  0  0  0  0
    7.0903   -0.4342    0.4864 C   0  0  0  0  0  0  0  0  0  0  0  0
   -2.4619    1.8297   -0.2721 C   0  0  0  0  0  0  0  0  0  0  0  0
   -0.7700    1.1331   -1.9829 C   0  0  0  0  0  0  0  0  0  0  0  0
   -3.2878    0.6869   -0.3072 C   0  0  0  0  0  0  0  0  0  0  0  0
   -1.8771    0.4117   -2.7094 C   0  0  0  0  0  0  0  0  0  0  0  0
   -2.8160   -0.6299   -0.8304 C   0  0  0  0  0  0  0  0  0  0  0  0
   -2.9623    2.9752    0.3782 C   0  0  0  0  0  0  0  0  0  0  0  0
    9.4309   -0.6364    0.5435 C   0  0  0  0  0  0  0  0  0  0  0  0
   -4.5909    0.7319    0.2212 C   0  0  0  0  0  0  0  0  0  0  0  0
   -4.2503    3.0056    0.9191 C   0  0  0  0  0  0  0  0  0  0  0  0
   -3.0812   -1.8606   -0.0304 C   0  0  0  0  0  0  0  0  0  0  0  0
   -5.0688    1.8884    0.8294 C   0  0  0  0  0  0  0  0  0  0  0  0
   10.6499   -0.8691   -0.3235 C   0  0  0  0  0  0  0  0  0  0  0  0
   -3.8375   -2.8994   -0.5732 C   0  0  0  0  0  0  0  0  0  0  0  0
   -2.5704   -1.9718    1.2628 C   0  0  0  0  0  0  0  0  0  0  0  0
   -4.0830   -4.0493    0.1774 C   0  0  0  0  0  0  0  0  0  0  0  0
   -2.8160   -3.1218    2.0133 C   0  0  0  0  0  0  0  0  0  0  0  0
   -3.5722   -4.1604    1.4706 C   0  0  0  0  0  0  0  0  0  0  0  0
    2.2450   -1.1978    1.2982 H   0  0  0  0  0  0  0  0  0  0  0  0
    1.3849   -1.0415   -0.2396 H   0  0  0  0  0  0  0  0  0  0  0  0
    2.9823    2.4570    1.4618 H   0  0  0  0  0  0  0  0  0  0  0  0
    3.2183    0.9391    2.3344 H   0  0  0  0  0  0  0  0  0  0  0  0
    3.6614   -1.9209   -0.5502 H   0  0  0  0  0  0  0  0  0  0  0  0
    3.4171   -0.4034   -1.4263 H   0  0  0  0  0  0  0  0  0  0  0  0
    4.3774    1.7328   -0.3886 H   0  0  0  0  0  0  0  0  0  0  0  0
    5.2361    1.5903    1.1483 H   0  0  0  0  0  0  0  0  0  0  0  0
   -0.0277    0.2867    1.0173 H   0  0  0  0  0  0  0  0  0  0  0  0
    0.8767    0.7813    2.4296 H   0  0  0  0  0  0  0  0  0  0  0  0
   -0.7028    2.5016    1.8217 H   0  0  0  0  0  0  0  0  0  0  0  0
    0.8912    3.1486    1.5672 H   0  0  0  0  0  0  0  0  0  0  0  0
    5.8934   -1.4443   -0.9372 H   0  0  0  0  0  0  0  0  0  0  0  0
    6.0132    0.2650   -1.2654 H   0  0  0  0  0  0  0  0  0  0  0  0
   -0.5127    3.8064   -0.3413 H   0  0  0  0  0  0  0  0  0  0  0  0
    0.7609    2.7600   -0.8560 H   0  0  0  0  0  0  0  0  0  0  0  0
    7.1732    0.5313    0.9969 H   0  0  0  0  0  0  0  0  0  0  0  0
    6.9969   -1.2235    1.2425 H   0  0  0  0  0  0  0  0  0  0  0  0
   -2.7456    1.0562   -2.8841 H   0  0  0  0  0  0  0  0  0  0  0  0
   -1.5098    0.1149   -3.6980 H   0  0  0  0  0  0  0  0  0  0  0  0
   -2.3918    3.8958    0.4521 H   0  0  0  0  0  0  0  0  0  0  0  0
   -5.2348   -0.1438    0.1684 H   0  0  0  0  0  0  0  0  0  0  0  0
    9.3596   -1.4270    1.2989 H   0  0  0  0  0  0  0  0  0  0  0  0
    9.5183    0.3319    1.0489 H   0  0  0  0  0  0  0  0  0  0  0  0
   -4.6020    3.9171    1.3959 H   0  0  0  0  0  0  0  0  0  0  0  0
   11.5636   -0.8659    0.2774 H   0  0  0  0  0  0  0  0  0  0  0  0
   10.7299   -0.0937   -1.0925 H   0  0  0  0  0  0  0  0  0  0  0  0
   10.5740   -1.8286   -0.8460 H   0  0  0  0  0  0  0  0  0  0  0  0
   -1.9770   -1.1726    1.6987 H   0  0  0  0  0  0  0  0  0  0  0  0
   -4.6719   -4.8579   -0.2454 H   0  0  0  0  0  0  0  0  0  0  0  0
   -2.4176   -3.2086    3.0199 H   0  0  0  0  0  0  0  0  0  0  0  0
   -3.7633   -5.0558    2.0548 H   0  0  0  0  0  0  0  0  0  0  0  0
  1 28  1  0  0  0  0
  2 30  1  0  0  0  0
  3 17  1  0  0  0  0
  3 24  1  0  0  0  0
  4 19  2  0  0  0  0
  5  9  1  0  0  0  0
  5 10  1  0  0  0  0
  5 13  1  0  0  0  0
  6 11  1  0  0  0  0
  6 12  1  0  0  0  0
  6 15  1  0  0  0  0
  7 16  1  0  0  0  0
  7 18  1  0  0  0  0
  7 19  1  0  0  0  0
  8 21  1  0  0  0  0
  8 22  2  0  0  0  0
  9 11  1  0  0  0  0
  9 35  1  0  0  0  0
  9 36  1  0  0  0  0
 10 12  1  0  0  0  0
 10 37  1  0  0  0  0
 10 38  1  0  0  0  0
 11 39  1  0  0  0  0
 11 40  1  0  0  0  0
 12 41  1  0  0  0  0
 12 42  1  0  0  0  0
 13 14  1  0  0  0  0
 13 43  1  0  0  0  0
 13 44  1  0  0  0  0
 14 16  1  0  0  0  0
 14 45  1  0  0  0  0
 14 46  1  0  0  0  0
 15 17  1  0  0  0  0
 15 47  1  0  0  0  0
 15 48  1  0  0  0  0
 16 49  1  0  0  0  0
 16 50  1  0  0  0  0
 17 51  1  0  0  0  0
 17 52  1  0  0  0  0
 18 20  2  0  0  0  0
 18 23  1  0  0  0  0
 19 21  1  0  0  0  0
 20 22  1  0  0  0  0
 20 25  1  0  0  0  0
 21 53  1  0  0  0  0
 21 54  1  0  0  0  0
 22 27  1  0  0  0  0
 23 26  2  0  0  0  0
 23 55  1  0  0  0  0
 24 29  1  0  0  0  0
 24 57  1  0  0  0  0
 24 58  1  0  0  0  0
 25 28  2  0  0  0  0
 25 56  1  0  0  0  0
 26 28  1  0  0  0  0
 26 59  1  0  0  0  0
 27 30  1  0  0  0  0
 27 31  2  0  0  0  0
 29 60  1  0  0  0  0
 29 61  1  0  0  0  0
 29 62  1  0  0  0  0
 30 32  2  0  0  0  0
 31 33  1  0  0  0  0
 31 63  1  0  0  0  0
 32 34  1  0  0  0  0
 32 64  1  0  0  0  0
 33 34  2  0  0  0  0
 33 65  1  0  0  0  0
 34 66  1  0  0  0  0
M  END
> <PUBCHEM_COMPOUND_CID>
14009

> <PUBCHEM_CONFORMER_RMSD>
1.2

> <PUBCHEM_CONFORMER_DIVERSEORDER>
1
7
116
104
11
74
48
84
83
112
106
101
41
67
33
118
105
86
99
87
62
110
85
47
76
45
24
9
103
19
44
26
117
78
51
35
89
55
6
98
75
39
60
79
109
58
121
43
4
61
5
82
29
65
38
21
12
57
71
119
13
111
95
93
80
81
122
72
70
28
108
23
73
54
92
64
77
53
113
17
37
52
27
115
94
2
32
50
20
34
31
42
30
14
88
15
102
22
59
120
36
40
97
66
107
49
114
8
91
16
56
90
69
100
63
96
68
3
25
46
18
10

> <PUBCHEM_MMFF94_PARTIAL_CHARGES>
39
1 -0.18
10 0.27
11 0.27
12 0.27
13 0.27
15 0.27
16 0.3
17 0.28
18 0.12
19 0.57
2 -0.19
20 0.09
21 0.31
22 0.28
23 -0.15
24 0.28
25 -0.15
26 -0.15
27 0.09
28 0.18
3 -0.56
30 0.19
31 -0.15
32 -0.15
33 -0.15
34 -0.15
4 -0.57
5 -0.81
55 0.15
56 0.15
59 0.15
6 -0.81
63 0.15
64 0.15
65 0.15
66 0.15
7 -0.48
8 -0.7
9 0.27

> <PUBCHEM_EFFECTIVE_ROTOR_COUNT>
10.6

> <PUBCHEM_PHARMACOPHORE_FEATURES>
9
1 3 acceptor
1 4 acceptor
1 5 cation
1 6 cation
1 8 acceptor
6 18 20 23 25 26 28 rings
6 27 30 31 32 33 34 rings
6 5 6 9 10 11 12 rings
7 7 8 18 19 20 21 22 rings

> <PUBCHEM_HEAVY_ATOM_COUNT>
34

> <PUBCHEM_ATOM_DEF_STEREO_COUNT>
0

> <PUBCHEM_ATOM_UDEF_STEREO_COUNT>
0

> <PUBCHEM_BOND_DEF_STEREO_COUNT>
0

> <PUBCHEM_BOND_UDEF_STEREO_COUNT>
0

> <PUBCHEM_ISOTOPIC_ATOM_COUNT>
0

> <PUBCHEM_COMPONENT_COUNT>
1

> <PUBCHEM_CACTVS_TAUTO_COUNT>
1

> <PUBCHEM_CONFORMER_ID>
000036B900000001

> <PUBCHEM_MMFF94_ENERGY>
100.5267

> <PUBCHEM_FEATURE_SELFOVERLAP>
45.683

> <PUBCHEM_SHAPE_FINGERPRINT>
11135926 11 18340496672566028430
11387372 6 18342172280593725859
11477941 20 16415765228309467484
11607047 191 18043523022931875609
12082328 90 18408887335422582734
12643181 29 18408886256731338802
13383661 66 15040988385638125251
1361 4 18341618166185052714
14118638 360 9583522006089148304
14279260 333 18188771773120087394
14856354 85 18411136948517535956
14866123 147 18411417298587452355
15183329 4 17203337702483780634
15361156 5 18260271824051734092
15444296 121 18187358861406992232
17974551 9 18187090507992908745
20775530 9 17843694270268329851
21133665 82 18115304625806265544
21304304 249 18409443654072924081
21795232 338 18410005503617841344
22899556 56 17749652053597983651
3383291 50 17967823734528636703
395649 100 18413670206629209290
4017518 198 18411703227329405479
4073 2 18410012122653028776
44802255 64 17845945159675276349
4616759 239 18041289858822344320
484985 159 18341620300071168035
5486654 36 18339361868701065361
6009941 240 18260548948284102592
9953998 17 18411418432216023460

> <PUBCHEM_SHAPE_MULTIPOLES>
662.64
20.43
4.36
1.87
73.67
3.64
0.95
6.05
-3.54
-9.93
-1.52
-1.87
0.13
-0.19

> <PUBCHEM_SHAPE_SELFOVERLAP>
1390.092

> <PUBCHEM_SHAPE_VOLUME>
374.1

> <PUBCHEM_COORDINATE_TYPE>
2
5
10

$$$$

