5127
  -OEChem-06261200323D

 32 32  0     1  0  0  0  0  0999 V2000
    3.3082    0.5861    0.1047 S   0  0  0  0  0  0  0  0  0  0  0  0
    0.7045   -1.4200    1.4641 O   0  0  0  0  0  0  0  0  0  0  0  0
    0.9995   -2.3329   -0.5916 O   0  0  0  0  0  0  0  0  0  0  0  0
    4.5646    1.1650   -0.5538 N   0  0  0  0  0  0  0  0  0  0  0  0
    3.6528   -0.8238    0.5950 N   0  0  0  0  0  0  0  0  0  0  0  0
    0.6537    0.0751   -0.4056 C   0  0  1  0  0  0  0  0  0  0  0  0
    1.9671    0.5412   -1.0420 C   0  0  0  0  0  0  0  0  0  0  0  0
   -0.5852    0.2100   -1.3152 C   0  0  0  0  0  0  0  0  0  0  0  0
   -1.9211    0.2524   -0.6105 C   0  0  0  0  0  0  0  0  0  0  0  0
    0.8040   -1.3496    0.1111 C   0  0  0  0  0  0  0  0  0  0  0  0
    2.7709    1.6014    1.4402 C   0  0  0  0  0  0  0  0  0  0  0  0
   -2.5976   -0.9317   -0.3683 C   0  0  0  0  0  0  0  0  0  0  0  0
   -2.4433    1.4748   -0.2207 C   0  0  0  0  0  0  0  0  0  0  0  0
   -3.8311   -0.8925    0.2820 C   0  0  0  0  0  0  0  0  0  0  0  0
   -3.6767    1.5140    0.4295 C   0  0  0  0  0  0  0  0  0  0  0  0
   -4.3705    0.3303    0.6810 C   0  0  0  0  0  0  0  0  0  0  0  0
    0.4616    0.7146    0.4650 H   0  0  0  0  0  0  0  0  0  0  0  0
    2.2615   -0.1169   -1.8671 H   0  0  0  0  0  0  0  0  0  0  0  0
    1.8568    1.5562   -1.4392 H   0  0  0  0  0  0  0  0  0  0  0  0
   -0.4913    1.1281   -1.9117 H   0  0  0  0  0  0  0  0  0  0  0  0
   -0.5966   -0.6031   -2.0539 H   0  0  0  0  0  0  0  0  0  0  0  0
    3.6347    1.8437    2.0641 H   0  0  0  0  0  0  0  0  0  0  0  0
    2.3388    2.5195    1.0373 H   0  0  0  0  0  0  0  0  0  0  0  0
    2.0347    1.0656    2.0409 H   0  0  0  0  0  0  0  0  0  0  0  0
   -2.1868   -1.8890   -0.6756 H   0  0  0  0  0  0  0  0  0  0  0  0
   -1.9091    2.4015   -0.4095 H   0  0  0  0  0  0  0  0  0  0  0  0
    4.8804    0.6514   -1.3815 H   0  0  0  0  0  0  0  0  0  0  0  0
    3.9077   -1.4780   -0.1503 H   0  0  0  0  0  0  0  0  0  0  0  0
   -4.3714   -1.8141    0.4777 H   0  0  0  0  0  0  0  0  0  0  0  0
   -4.0965    2.4660    0.7409 H   0  0  0  0  0  0  0  0  0  0  0  0
    0.8063   -2.3394    1.7905 H   0  0  0  0  0  0  0  0  0  0  0  0
   -5.3307    0.3608    1.1875 H   0  0  0  0  0  0  0  0  0  0  0  0
  1  4  2  0  0  0  0
  1  5  2  0  0  0  0
  1  7  1  0  0  0  0
  1 11  1  0  0  0  0
  2 10  1  0  0  0  0
  2 31  1  0  0  0  0
  3 10  2  0  0  0  0
  4 27  1  0  0  0  0
  5 28  1  0  0  0  0
  6  7  1  0  0  0  0
  6  8  1  0  0  0  0
  6 10  1  0  0  0  0
  6 17  1  0  0  0  0
  7 18  1  0  0  0  0
  7 19  1  0  0  0  0
  8  9  1  0  0  0  0
  8 20  1  0  0  0  0
  8 21  1  0  0  0  0
  9 12  2  0  0  0  0
  9 13  1  0  0  0  0
 11 22  1  0  0  0  0
 11 23  1  0  0  0  0
 11 24  1  0  0  0  0
 12 14  1  0  0  0  0
 12 25  1  0  0  0  0
 13 15  2  0  0  0  0
 13 26  1  0  0  0  0
 14 16  2  0  0  0  0
 14 29  1  0  0  0  0
 15 16  1  0  0  0  0
 15 30  1  0  0  0  0
 16 32  1  0  0  0  0
M  END
> <PUBCHEM_COMPOUND_CID>
5127

> <PUBCHEM_CONFORMER_RMSD>
0.6

> <PUBCHEM_CONFORMER_DIVERSEORDER>
3
42
39
7
50
31
47
18
48
13
1
38
30
45
4
28
8
41
23
17
15
16
35
49
19
33
12
21
32
46
22
10
6
24
14
2
5
27
40
20
25
29
37
43
44
34
11
36
26
9

> <PUBCHEM_MMFF94_PARTIAL_CHARGES>
24
1 0.97
10 0.66
11 0.11
12 -0.15
13 -0.15
14 -0.15
15 -0.15
16 -0.15
2 -0.65
25 0.15
26 0.15
27 0.4
28 0.4
29 0.15
3 -0.57
30 0.15
31 0.5
32 0.15
4 -0.99
5 -0.99
6 0.06
7 0.11
8 0.14
9 -0.14

> <PUBCHEM_EFFECTIVE_ROTOR_COUNT>
5

> <PUBCHEM_PHARMACOPHORE_FEATURES>
4
1 2 acceptor
1 3 acceptor
3 2 3 10 anion
6 9 12 13 14 15 16 rings

> <PUBCHEM_HEAVY_ATOM_COUNT>
16

> <PUBCHEM_ATOM_DEF_STEREO_COUNT>
0

> <PUBCHEM_ATOM_UDEF_STEREO_COUNT>
1

> <PUBCHEM_BOND_DEF_STEREO_COUNT>
0

> <PUBCHEM_BOND_UDEF_STEREO_COUNT>
0

> <PUBCHEM_ISOTOPIC_ATOM_COUNT>
0

> <PUBCHEM_COMPONENT_COUNT>
1

> <PUBCHEM_CACTVS_TAUTO_COUNT>
1

> <PUBCHEM_CONFORMER_ID>
0000140700000003

> <PUBCHEM_MMFF94_ENERGY>
39.1916

> <PUBCHEM_FEATURE_SELFOVERLAP>
20.356

> <PUBCHEM_SHAPE_FINGERPRINT>
10366900 7 18335985294346371769
10465860 71 8646495162413378152
10922049 32 18334852797301249182
11132069 177 18201726128180127013
12251169 10 17989203720312347245
12346645 44 18410855460223165967
12382932 28 18271527589040921773
12507560 40 18269548502781938733
13693222 15 16988850487951709797
13705890 14 10807933769228002516
14252887 29 16630528440648053860
14350558 41 12319732587670026489
15295992 7 18115027381815109264
15309172 13 17918279731558176262
15375358 24 17346606296201053599
15536298 74 18338792424588553959
15775835 57 18409165506540592964
17834072 14 11240003351546767713
18186145 218 17312824840571788648
19050596 39 18411981386131849417
200 152 12751235887662962269
201361 129 18261391203849503091
20233049 118 15502661541398775818
20279233 1 16630524055670957071
21256008 61 9799683801227624518
22854114 59 18343863311996520405
231179 274 17530965803943697096
23402539 116 18131074784029384767
23559900 14 18339077223737868623
474 4 18272928297750304748
5104073 3 18412823620581246889
633830 44 17967818223684727588
7364860 26 18116992384697318278
74978 22 6122488121458325645
81228 2 17692271646241161486
93112 12 9079105649204016229
9882013 296 17775288252676455488

> <PUBCHEM_SHAPE_MULTIPOLES>
311.42
8.29
1.81
1.17
0.25
0.36
0.11
-2.62
1.44
-0.21
0.28
-0.45
-0.09
-0.02

> <PUBCHEM_SHAPE_SELFOVERLAP>
619.566

> <PUBCHEM_SHAPE_VOLUME>
185.4

> <PUBCHEM_COORDINATE_TYPE>
2
5
10

$$$$

