17396639
  -OEChem-06241222573D

 38 39  0     1  0  0  0  0  0999 V2000
   -7.3466    1.6926    0.6379 Cl  0  0  0  0  0  0  0  0  0  0  0  0
   -3.9135   -0.3664   -2.4643 F   0  0  0  0  0  0  0  0  0  0  0  0
    1.2986   -1.5751    0.7287 O   0  0  0  0  0  0  0  0  0  0  0  0
   -0.9638   -0.5597    1.6521 O   0  0  0  0  0  0  0  0  0  0  0  0
    7.1390    0.8529    0.0947 O   0  0  0  0  0  0  0  0  0  0  0  0
   -2.0032   -0.6254   -0.4521 N   0  0  0  0  0  0  0  0  0  0  0  0
    0.2542   -1.4448   -0.2227 C   0  0  2  0  0  0  0  0  0  0  0  0
   -0.9640   -0.8193    0.4521 C   0  0  0  0  0  0  0  0  0  0  0  0
    2.4548   -0.8797    0.4805 C   0  0  0  0  0  0  0  0  0  0  0  0
   -0.0673   -2.8129   -0.8055 C   0  0  0  0  0  0  0  0  0  0  0  0
   -3.2802   -0.0727   -0.1937 C   0  0  0  0  0  0  0  0  0  0  0  0
    4.8052    0.5339   -0.0285 C   0  0  0  0  0  0  0  0  0  0  0  0
    2.4230    0.5107    0.3733 C   0  0  0  0  0  0  0  0  0  0  0  0
    3.6616   -1.5633    0.3332 C   0  0  0  0  0  0  0  0  0  0  0  0
    3.5982    1.2174    0.1187 C   0  0  0  0  0  0  0  0  0  0  0  0
    4.8369   -0.8565    0.0787 C   0  0  0  0  0  0  0  0  0  0  0  0
   -4.2139    0.0437   -1.2234 C   0  0  0  0  0  0  0  0  0  0  0  0
   -3.6042    0.3567    1.0933 C   0  0  0  0  0  0  0  0  0  0  0  0
    6.0303    1.2710   -0.2945 C   0  0  0  0  0  0  0  0  0  0  0  0
   -5.4716    0.5894   -0.9662 C   0  0  0  0  0  0  0  0  0  0  0  0
   -4.8618    0.9023    1.3506 C   0  0  0  0  0  0  0  0  0  0  0  0
   -5.7955    1.0186    0.3208 C   0  0  0  0  0  0  0  0  0  0  0  0
    5.9840    2.5867   -1.0638 C   0  0  0  0  0  0  0  0  0  0  0  0
    0.5468   -0.7865   -1.0529 H   0  0  0  0  0  0  0  0  0  0  0  0
   -0.4569   -3.4818   -0.0295 H   0  0  0  0  0  0  0  0  0  0  0  0
    0.8401   -3.2823   -1.2011 H   0  0  0  0  0  0  0  0  0  0  0  0
   -0.8052   -2.7648   -1.6114 H   0  0  0  0  0  0  0  0  0  0  0  0
   -1.8445   -0.8853   -1.4227 H   0  0  0  0  0  0  0  0  0  0  0  0
    1.4923    1.0575    0.4973 H   0  0  0  0  0  0  0  0  0  0  0  0
    3.6914   -2.6465    0.4139 H   0  0  0  0  0  0  0  0  0  0  0  0
    3.5470    2.3008    0.0546 H   0  0  0  0  0  0  0  0  0  0  0  0
    5.7671   -1.4066   -0.0373 H   0  0  0  0  0  0  0  0  0  0  0  0
   -2.9361    0.3026    1.9409 H   0  0  0  0  0  0  0  0  0  0  0  0
   -6.1889    0.6738   -1.7785 H   0  0  0  0  0  0  0  0  0  0  0  0
   -5.1015    1.2339    2.3579 H   0  0  0  0  0  0  0  0  0  0  0  0
    6.9260    2.7169   -1.6051 H   0  0  0  0  0  0  0  0  0  0  0  0
    5.1791    2.5760   -1.8037 H   0  0  0  0  0  0  0  0  0  0  0  0
    5.8468    3.4148   -0.3643 H   0  0  0  0  0  0  0  0  0  0  0  0
  1 22  1  0  0  0  0
  2 17  1  0  0  0  0
  3  7  1  0  0  0  0
  3  9  1  0  0  0  0
  4  8  2  0  0  0  0
  5 19  2  0  0  0  0
  6  8  1  0  0  0  0
  6 11  1  0  0  0  0
  6 28  1  0  0  0  0
  7  8  1  0  0  0  0
  7 10  1  0  0  0  0
  7 24  1  0  0  0  0
  9 13  2  0  0  0  0
  9 14  1  0  0  0  0
 10 25  1  0  0  0  0
 10 26  1  0  0  0  0
 10 27  1  0  0  0  0
 11 17  2  0  0  0  0
 11 18  1  0  0  0  0
 12 15  2  0  0  0  0
 12 16  1  0  0  0  0
 12 19  1  0  0  0  0
 13 15  1  0  0  0  0
 13 29  1  0  0  0  0
 14 16  2  0  0  0  0
 14 30  1  0  0  0  0
 15 31  1  0  0  0  0
 16 32  1  0  0  0  0
 17 20  1  0  0  0  0
 18 21  2  0  0  0  0
 18 33  1  0  0  0  0
 19 23  1  0  0  0  0
 20 22  2  0  0  0  0
 20 34  1  0  0  0  0
 21 22  1  0  0  0  0
 21 35  1  0  0  0  0
 23 36  1  0  0  0  0
 23 37  1  0  0  0  0
 23 38  1  0  0  0  0
M  END
> <PUBCHEM_COMPOUND_CID>
17396639

> <PUBCHEM_CONFORMER_RMSD>
0.8

> <PUBCHEM_CONFORMER_DIVERSEORDER>
2
157
148
41
198
166
58
81
84
19
183
202
187
179
188
74
175
70
36
150
99
128
204
192
91
200
60
14
124
79
190
93
37
83
95
43
12
50
100
156
87
55
33
149
116
165
61
181
153
39
164
59
10
154
196
89
111
197
115
66
178
97
177
142
53
169
160
135
159
26
8
16
163
29
136
176
86
186
201
139
56
62
76
18
75
121
54
112
203
131
110
140
106
6
72
68
30
127
191
194
113
102
57
141
152
42
47
117
129
171
96
40
17
138
199
195
185
174
107
5
31
85
147
168
162
27
46
44
67
49
108
120
92
145
182
52
137
109
11
24
173
167
71
32
130
65
78
122
38
143
155
134
126
20
170
161
189
133
82
3
144
114
15
104
125
184
119
101
48
193
146
64
73
105
34
63
22
180
158
4
69
103
90
80
94
123
45
23
172
28
7
118
132
1
205
151
25
98
9
88
77
51
21
13
35

> <PUBCHEM_MMFF94_PARTIAL_CHARGES>
30
1 -0.18
11 0.12
12 0.09
13 -0.15
14 -0.15
15 -0.15
16 -0.15
17 0.19
18 -0.15
19 0.42
2 -0.19
20 -0.15
21 -0.15
22 0.18
23 0.06
28 0.37
29 0.15
3 -0.36
30 0.15
31 0.15
32 0.15
33 0.15
34 0.15
35 0.15
4 -0.57
5 -0.57
6 -0.55
7 0.34
8 0.57
9 0.08

> <PUBCHEM_EFFECTIVE_ROTOR_COUNT>
6

> <PUBCHEM_PHARMACOPHORE_FEATURES>
6
1 3 acceptor
1 4 acceptor
1 5 acceptor
1 6 donor
6 11 17 18 20 21 22 rings
6 9 12 13 14 15 16 rings

> <PUBCHEM_HEAVY_ATOM_COUNT>
23

> <PUBCHEM_ATOM_DEF_STEREO_COUNT>
0

> <PUBCHEM_ATOM_UDEF_STEREO_COUNT>
1

> <PUBCHEM_BOND_DEF_STEREO_COUNT>
0

> <PUBCHEM_BOND_UDEF_STEREO_COUNT>
0

> <PUBCHEM_ISOTOPIC_ATOM_COUNT>
0

> <PUBCHEM_COMPONENT_COUNT>
1

> <PUBCHEM_CACTVS_TAUTO_COUNT>
4

> <PUBCHEM_CONFORMER_ID>
0109739F00000002

> <PUBCHEM_MMFF94_ENERGY>
69.3895

> <PUBCHEM_FEATURE_SELFOVERLAP>
30.455

> <PUBCHEM_SHAPE_FINGERPRINT>
10 15 16630804387811937564
10411042 1 17764308741028751906
106641 1 13829840301794467228
10670039 82 16588018065496133361
10753850 27 8142088637051635172
11089746 13 17967818207090212920
11796584 16 14345804850390337398
12236239 1 18041002868838748383
12403259 415 17489591220261606183
12516196 113 10375865273208999935
12596602 18 13183017427757441749
12788726 201 17603857953230015968
12892183 10 15482403039625451627
13631057 29 18267872684116987379
13668630 136 7132426918071250661
13685833 64 7853566920747415033
13955234 65 17702673301197347938
14528608 73 18113343006841210403
14840074 17 18409731772673237845
15081414 286 18201999937120593924
15183329 4 16515681164970272200
15575132 122 18334858376706963773
1577012 14 18259708908204356367
17134984 74 4895268188020172588
17870717 6 15285358414593224463
18335252 114 18335426806431720596
20281389 69 17918276471472465016
20526848 3 18410007745359011481
21033648 144 18271814518431173183
21033648 29 16916792928558454591
21033650 10 16226311694777843242
21304303 64 18343017787929820141
21315764 119 15936679436926680029
21637258 2 8646773274625803358
2215653 11 5039945235206389829
22224240 67 17490147517853804083
23081809 10 18187092766565288335
23402655 69 18334296436081049158
23559900 14 14923953327156541874
2838139 119 18343027679112525788
2916195 48 17561367270360428801
29717793 49 17676764349513327422
3004659 81 15068625985023606250
3014063 24 9511465511109063704
3472631 163 18335977580716944700
397830 11 17774425114811309411
4340502 62 16630807725133298586
474 4 18334858355026191139
5104073 3 18059582322183839178
5364581 5 16485832611258432637
543368 44 18333734598313044113
5718773 13 6988056617744446076
6608658 132 17458896145796745145

> <PUBCHEM_SHAPE_MULTIPOLES>
445.34
18.93
2.13
1.29
1.06
0.32
-0.37
-14.25
-1.1
-2.14
-0.4
1.67
0.01
-1.65

> <PUBCHEM_SHAPE_SELFOVERLAP>
936.897

> <PUBCHEM_SHAPE_VOLUME>
251.4

> <PUBCHEM_COORDINATE_TYPE>
2
5
10

$$$$

