582842
  -OEChem-06241222442D

 12 11  0     0  0  0  0  0  0999 V2000
    6.3301    1.0670    0.0000 Cl  0  0  0  0  0  0  0  0  0  0  0  0
    4.9641    1.4330    0.0000 Cl  0  0  0  0  0  0  0  0  0  0  0  0
    4.0981    0.9330    0.0000 F   0  0  0  0  0  0  0  0  0  0  0  0
    5.0981   -0.7990    0.0000 F   0  0  0  0  0  0  0  0  0  0  0  0
    5.9641   -0.2990    0.0000 F   0  0  0  0  0  0  0  0  0  0  0  0
    3.7320   -1.4330    0.0000 F   0  0  0  0  0  0  0  0  0  0  0  0
    2.0000   -0.4330    0.0000 F   0  0  0  0  0  0  0  0  0  0  0  0
    2.8660    1.0670    0.0000 F   0  0  0  0  0  0  0  0  0  0  0  0
    4.5981    0.0670    0.0000 C   0  0  0  0  0  0  0  0  0  0  0  0
    5.4641    0.5670    0.0000 C   0  0  0  0  0  0  0  0  0  0  0  0
    3.7320   -0.4330    0.0000 C   0  0  0  0  0  0  0  0  0  0  0  0
    2.8660    0.0670    0.0000 C   0  0  0  0  0  0  0  0  0  0  0  0
  1 10  1  0  0  0  0
  2 10  1  0  0  0  0
  3  9  1  0  0  0  0
  4  9  1  0  0  0  0
  5 10  1  0  0  0  0
  6 11  1  0  0  0  0
  7 12  1  0  0  0  0
  8 12  1  0  0  0  0
  9 10  1  0  0  0  0
  9 11  1  0  0  0  0
 11 12  2  0  0  0  0
M  END
> <PUBCHEM_COMPOUND_CID>
582842

> <PUBCHEM_COMPOUND_CANONICALIZED>
1

> <PUBCHEM_CACTVS_COMPLEXITY>
206

> <PUBCHEM_CACTVS_HBOND_ACCEPTOR>
6

> <PUBCHEM_CACTVS_HBOND_DONOR>
0

> <PUBCHEM_CACTVS_ROTATABLE_BOND>
2

> <PUBCHEM_CACTVS_SUBSKEYS>
AAADcQBgAcAGAAAAAAAAAAAAAAAAAAAAAAAAAAAAAAAAAAAAAAAACQIAAAAACAIAAJAAAAAAAACAAABAAAAAAAAgAAAAAAAAAggAAAAAAAAAAAAAAAAAAAAAAAAAAAAAAAAAAAAAAAAAAAAAAAAAAAAAAA==

> <PUBCHEM_IUPAC_OPENEYE_NAME>
4,4-dichloro-1,1,2,3,3,4-hexafluoro-but-1-ene

> <PUBCHEM_IUPAC_CAS_NAME>
4,4-dichloro-1,1,2,3,3,4-hexafluoro-1-butene

> <PUBCHEM_IUPAC_NAME>
4,4-dichloro-1,1,2,3,3,4-hexafluorobut-1-ene

> <PUBCHEM_IUPAC_SYSTEMATIC_NAME>
4,4-bis(chloranyl)-1,1,2,3,3,4-hexakis(fluoranyl)but-1-ene

> <PUBCHEM_IUPAC_TRADITIONAL_NAME>
4,4-dichloro-1,1,2,3,3,4-hexafluoro-but-1-ene

> <PUBCHEM_IUPAC_INCHI>
InChI=1S/C4Cl2F6/c5-4(6,12)3(10,11)1(7)2(8)9

> <PUBCHEM_IUPAC_INCHIKEY>
OZAWCRZCYBVMBW-UHFFFAOYSA-N

> <PUBCHEM_XLOGP3_AA>
3.1

> <PUBCHEM_EXACT_MASS>
231.928125

> <PUBCHEM_MOLECULAR_FORMULA>
C4Cl2F6

> <PUBCHEM_MOLECULAR_WEIGHT>
232.939219

> <PUBCHEM_OPENEYE_CAN_SMILES>
C(=C(F)F)(C(C(F)(Cl)Cl)(F)F)F

> <PUBCHEM_OPENEYE_ISO_SMILES>
C(=C(F)F)(C(C(F)(Cl)Cl)(F)F)F

> <PUBCHEM_CACTVS_TPSA>
0

> <PUBCHEM_MONOISOTOPIC_WEIGHT>
231.928125

> <PUBCHEM_TOTAL_CHARGE>
0

> <PUBCHEM_HEAVY_ATOM_COUNT>
12

> <PUBCHEM_ATOM_DEF_STEREO_COUNT>
0

> <PUBCHEM_ATOM_UDEF_STEREO_COUNT>
0

> <PUBCHEM_BOND_DEF_STEREO_COUNT>
0

> <PUBCHEM_BOND_UDEF_STEREO_COUNT>
0

> <PUBCHEM_ISOTOPIC_ATOM_COUNT>
0

> <PUBCHEM_COMPONENT_COUNT>
1

> <PUBCHEM_CACTVS_TAUTO_COUNT>
1

> <PUBCHEM_COORDINATE_TYPE>
1
5
255

$$$$

