14266
  -OEChem-06241222423D

 15 15  0     0  0  0  0  0  0999 V2000
   -0.7444    1.8392   -0.0012 O   0  0  0  0  0  0  0  0  0  0  0  0
    1.4288    0.7841    0.0025 C   0  0  0  0  0  0  0  0  0  0  0  0
    1.7363   -0.7080   -0.0018 C   0  0  0  0  0  0  0  0  0  0  0  0
   -0.6478   -0.5380    0.0002 C   0  0  0  0  0  0  0  0  0  0  0  0
   -0.0728    0.8181   -0.0004 C   0  0  0  0  0  0  0  0  0  0  0  0
    0.3972   -1.3692    0.0000 C   0  0  0  0  0  0  0  0  0  0  0  0
   -2.0973   -0.8262    0.0006 C   0  0  0  0  0  0  0  0  0  0  0  0
    1.8180    1.2769   -0.8928 H   0  0  0  0  0  0  0  0  0  0  0  0
    1.8138    1.2708    0.9030 H   0  0  0  0  0  0  0  0  0  0  0  0
    2.3143   -0.9942    0.8827 H   0  0  0  0  0  0  0  0  0  0  0  0
    2.3094   -0.9903   -0.8909 H   0  0  0  0  0  0  0  0  0  0  0  0
    0.2959   -2.4468    0.0001 H   0  0  0  0  0  0  0  0  0  0  0  0
   -2.2906   -1.9037    0.0009 H   0  0  0  0  0  0  0  0  0  0  0  0
   -2.5737   -0.3987   -0.8871 H   0  0  0  0  0  0  0  0  0  0  0  0
   -2.5732   -0.3982    0.8884 H   0  0  0  0  0  0  0  0  0  0  0  0
  1  5  2  0  0  0  0
  2  3  1  0  0  0  0
  2  5  1  0  0  0  0
  2  8  1  0  0  0  0
  2  9  1  0  0  0  0
  3  6  1  0  0  0  0
  3 10  1  0  0  0  0
  3 11  1  0  0  0  0
  4  5  1  0  0  0  0
  4  6  2  0  0  0  0
  4  7  1  0  0  0  0
  6 12  1  0  0  0  0
  7 13  1  0  0  0  0
  7 14  1  0  0  0  0
  7 15  1  0  0  0  0
M  END
> <PUBCHEM_COMPOUND_CID>
14266

> <PUBCHEM_CONFORMER_RMSD>
0.4

> <PUBCHEM_CONFORMER_DIVERSEORDER>
1

> <PUBCHEM_MMFF94_PARTIAL_CHARGES>
8
1 -0.57
12 0.15
2 0.06
3 0.14
4 -0.12
5 0.49
6 -0.29
7 0.14

> <PUBCHEM_EFFECTIVE_ROTOR_COUNT>
0.4

> <PUBCHEM_PHARMACOPHORE_FEATURES>
2
1 1 acceptor
5 2 3 4 5 6 rings

> <PUBCHEM_HEAVY_ATOM_COUNT>
7

> <PUBCHEM_ATOM_DEF_STEREO_COUNT>
0

> <PUBCHEM_ATOM_UDEF_STEREO_COUNT>
0

> <PUBCHEM_BOND_DEF_STEREO_COUNT>
0

> <PUBCHEM_BOND_UDEF_STEREO_COUNT>
0

> <PUBCHEM_ISOTOPIC_ATOM_COUNT>
0

> <PUBCHEM_COMPONENT_COUNT>
1

> <PUBCHEM_CACTVS_TAUTO_COUNT>
7

> <PUBCHEM_CONFORMER_ID>
000037BA00000001

> <PUBCHEM_MMFF94_ENERGY>
1.4159

> <PUBCHEM_FEATURE_SELFOVERLAP>
10.148

> <PUBCHEM_SHAPE_FINGERPRINT>
16714656 1 18337101251256172502
18185500 45 18263927631198823631
20096714 4 17689996734907451243
21040471 1 17762338015761604032
23552423 10 18127963325073758182
29004967 10 18269833121068074659

> <PUBCHEM_SHAPE_MULTIPOLES>
138.19
2.16
1.64
0.6
0.52
0.47
0
-0.45
0
-0.01
0
-0.01
-0.03
0

> <PUBCHEM_SHAPE_SELFOVERLAP>
278.836

> <PUBCHEM_SHAPE_VOLUME>
84.2

> <PUBCHEM_COORDINATE_TYPE>
2
5
10

$$$$

