7846964
  -OEChem-06241222483D

 46 48  0     1  0  0  0  0  0999 V2000
    3.5534    0.9249    0.8762 S   0  0  0  0  0  0  0  0  0  0  0  0
    0.9265   -2.0448    0.5401 O   0  0  0  0  0  0  0  0  0  0  0  0
   -0.7481   -0.1370    1.5752 O   0  0  0  0  0  0  0  0  0  0  0  0
    1.3773   -3.5012   -1.1913 O   0  0  0  0  0  0  0  0  0  0  0  0
   -2.2791   -0.6117   -0.1034 N   0  0  0  0  0  0  0  0  0  0  0  0
    2.0495    0.3370   -1.1350 N   0  0  0  0  0  0  0  0  0  0  0  0
   -3.1069    0.5541    0.0853 C   0  0  0  0  0  0  0  0  0  0  0  0
   -4.2604    0.2759    1.0405 C   0  0  0  0  0  0  0  0  0  0  0  0
   -3.8217    0.9578   -1.1988 C   0  0  0  0  0  0  0  0  0  0  0  0
   -5.3196   -0.4021    0.1760 C   0  0  0  0  0  0  0  0  0  0  0  0
   -5.0634    0.0694   -1.2557 C   0  0  0  0  0  0  0  0  0  0  0  0
   -1.1540   -0.8612    0.6689 C   0  0  0  0  0  0  0  0  0  0  0  0
   -0.4644   -2.1647    0.2922 C   0  0  2  0  0  0  0  0  0  0  0  0
   -0.9963   -3.3255    1.1177 C   0  0  0  0  0  0  0  0  0  0  0  0
    3.1895   -2.5335    0.1109 C   0  0  0  0  0  0  0  0  0  0  0  0
    1.7492   -2.7730   -0.2815 C   0  0  0  0  0  0  0  0  0  0  0  0
    3.8080   -1.3701   -0.6657 C   0  0  0  0  0  0  0  0  0  0  0  0
    3.0657   -0.0820   -0.4176 C   0  0  0  0  0  0  0  0  0  0  0  0
    2.3042    2.0404    0.4659 C   0  0  0  0  0  0  0  0  0  0  0  0
    1.6016    1.5533   -0.6405 C   0  0  0  0  0  0  0  0  0  0  0  0
    1.9702    3.2588    1.0788 C   0  0  0  0  0  0  0  0  0  0  0  0
    0.5271    2.3145   -1.1494 C   0  0  0  0  0  0  0  0  0  0  0  0
    0.9026    3.9924    0.5555 C   0  0  0  0  0  0  0  0  0  0  0  0
    0.1890    3.5284   -0.5441 C   0  0  0  0  0  0  0  0  0  0  0  0
   -2.4788    1.3702    0.4583 H   0  0  0  0  0  0  0  0  0  0  0  0
   -3.9785   -0.3411    1.8996 H   0  0  0  0  0  0  0  0  0  0  0  0
   -4.6603    1.2234    1.4226 H   0  0  0  0  0  0  0  0  0  0  0  0
   -3.2004    0.8512   -2.0938 H   0  0  0  0  0  0  0  0  0  0  0  0
   -4.1353    2.0069   -1.1310 H   0  0  0  0  0  0  0  0  0  0  0  0
   -5.2140   -1.4919    0.2310 H   0  0  0  0  0  0  0  0  0  0  0  0
   -6.3310   -0.1539    0.5131 H   0  0  0  0  0  0  0  0  0  0  0  0
   -5.9207    0.6162   -1.6616 H   0  0  0  0  0  0  0  0  0  0  0  0
   -4.8888   -0.7945   -1.9072 H   0  0  0  0  0  0  0  0  0  0  0  0
   -2.5726   -1.3025   -0.7883 H   0  0  0  0  0  0  0  0  0  0  0  0
   -0.6527   -2.3484   -0.7733 H   0  0  0  0  0  0  0  0  0  0  0  0
   -2.0769   -3.4424    0.9878 H   0  0  0  0  0  0  0  0  0  0  0  0
   -0.5079   -4.2649    0.8387 H   0  0  0  0  0  0  0  0  0  0  0  0
   -0.7988   -3.1681    2.1842 H   0  0  0  0  0  0  0  0  0  0  0  0
    3.7460   -3.4569   -0.0872 H   0  0  0  0  0  0  0  0  0  0  0  0
    3.2448   -2.3701    1.1940 H   0  0  0  0  0  0  0  0  0  0  0  0
    4.8663   -1.2674   -0.3989 H   0  0  0  0  0  0  0  0  0  0  0  0
    3.7720   -1.5857   -1.7410 H   0  0  0  0  0  0  0  0  0  0  0  0
    2.5226    3.6272    1.9378 H   0  0  0  0  0  0  0  0  0  0  0  0
   -0.0389    1.9600   -2.0062 H   0  0  0  0  0  0  0  0  0  0  0  0
    0.6271    4.9379    1.0154 H   0  0  0  0  0  0  0  0  0  0  0  0
   -0.6395    4.1115   -0.9364 H   0  0  0  0  0  0  0  0  0  0  0  0
  1 18  1  0  0  0  0
  1 19  1  0  0  0  0
  2 13  1  0  0  0  0
  2 16  1  0  0  0  0
  3 12  2  0  0  0  0
  4 16  2  0  0  0  0
  5  7  1  0  0  0  0
  5 12  1  0  0  0  0
  5 34  1  0  0  0  0
  6 18  2  0  0  0  0
  6 20  1  0  0  0  0
  7  8  1  0  0  0  0
  7  9  1  0  0  0  0
  7 25  1  0  0  0  0
  8 10  1  0  0  0  0
  8 26  1  0  0  0  0
  8 27  1  0  0  0  0
  9 11  1  0  0  0  0
  9 28  1  0  0  0  0
  9 29  1  0  0  0  0
 10 11  1  0  0  0  0
 10 30  1  0  0  0  0
 10 31  1  0  0  0  0
 11 32  1  0  0  0  0
 11 33  1  0  0  0  0
 12 13  1  0  0  0  0
 13 14  1  0  0  0  0
 13 35  1  0  0  0  0
 14 36  1  0  0  0  0
 14 37  1  0  0  0  0
 14 38  1  0  0  0  0
 15 16  1  0  0  0  0
 15 17  1  0  0  0  0
 15 39  1  0  0  0  0
 15 40  1  0  0  0  0
 17 18  1  0  0  0  0
 17 41  1  0  0  0  0
 17 42  1  0  0  0  0
 19 20  1  0  0  0  0
 19 21  2  0  0  0  0
 20 22  2  0  0  0  0
 21 23  1  0  0  0  0
 21 43  1  0  0  0  0
 22 24  1  0  0  0  0
 22 44  1  0  0  0  0
 23 24  2  0  0  0  0
 23 45  1  0  0  0  0
 24 46  1  0  0  0  0
M  END
> <PUBCHEM_COMPOUND_CID>
7846964

> <PUBCHEM_CONFORMER_RMSD>
1

> <PUBCHEM_CONFORMER_DIVERSEORDER>
1
16
112
170
119
89
174
162
50
27
165
222
138
92
4
106
102
158
164
66
155
144
79
45
137
179
184
201
120
24
166
133
159
131
173
194
211
142
134
209
117
5
104
8
35
168
107
149
212
94
193
93
188
30
160
36
216
135
175
2
43
207
100
64
192
124
9
90
25
122
14
73
127
123
20
86
111
204
39
34
83
181
72
48
103
56
74
13
69
113
195
145
169
130
153
214
97
59
185
31
224
217
18
96
21
203
115
108
98
210
110
199
139
22
58
141
80
223
180
10
118
109
61
17
63
136
143
57
67
26
46
105
167
126
129
208
84
176
53
37
65
75
38
81
99
163
148
54
121
11
42
71
101
187
70
197
205
88
76
186
198
82
15
152
47
51
40
128
12
116
202
55
77
171
44
23
150
178
52
182
218
219
156
151
68
78
183
19
172
114
7
215
91
221
161
177
125
6
85
87
189
157
95
28
132
41
154
32
213
147
191
49
29
60
196
220
62
190
33
3
146
206
140
200

> <PUBCHEM_MMFF94_PARTIAL_CHARGES>
24
1 -0.08
12 0.57
13 0.34
15 0.06
16 0.66
17 0.18
18 0.2
19 0.04
2 -0.43
20 0.23
21 -0.15
22 -0.15
23 -0.15
24 -0.15
3 -0.57
34 0.37
4 -0.57
43 0.15
44 0.15
45 0.15
46 0.15
5 -0.73
6 -0.57
7 0.3

> <PUBCHEM_EFFECTIVE_ROTOR_COUNT>
9

> <PUBCHEM_PHARMACOPHORE_FEATURES>
7
1 3 acceptor
1 4 acceptor
1 5 donor
1 6 acceptor
5 1 6 18 19 20 rings
5 7 8 9 10 11 rings
6 19 20 21 22 23 24 rings

> <PUBCHEM_HEAVY_ATOM_COUNT>
24

> <PUBCHEM_ATOM_DEF_STEREO_COUNT>
1

> <PUBCHEM_ATOM_UDEF_STEREO_COUNT>
0

> <PUBCHEM_BOND_DEF_STEREO_COUNT>
0

> <PUBCHEM_BOND_UDEF_STEREO_COUNT>
0

> <PUBCHEM_ISOTOPIC_ATOM_COUNT>
0

> <PUBCHEM_COMPONENT_COUNT>
1

> <PUBCHEM_CACTVS_TAUTO_COUNT>
4

> <PUBCHEM_CONFORMER_ID>
0077BC3400000001

> <PUBCHEM_MMFF94_ENERGY>
34.1297

> <PUBCHEM_FEATURE_SELFOVERLAP>
35.591

> <PUBCHEM_SHAPE_FINGERPRINT>
104564 63 17979339078572151878
11370993 70 18048042873855293409
11646440 116 18411411851919912122
12633257 1 18125745416852313384
12788726 201 18124027086520996018
13140716 1 18196089932686566904
13402501 40 18343867731391150621
13561361 72 17841703020598739211
14251757 17 17701546331684794949
15420108 30 18043831800936266498
17093844 170 18341900744139735012
17357779 13 18196929100835132878
19930381 70 18338518543488529833
20567600 299 18335138704562961313
20621476 13 18411705387038325381
20905425 154 18122342655728009628
21285901 2 18059860605187621365
21860390 5 18334288794769864351
23227448 37 18338519630015405887
23559900 14 18335984155731625905
3014063 31 18195250137683850005
3060560 45 18408328769718004366
350125 39 17835503943469573178
3524813 1 17917430977127209871
474 4 18263086535100227313
508706 21 17632303432149143541
574716 61 18115043921924037991
5939293 188 18411139108870176682
6443956 14 18338796826734931436

> <PUBCHEM_SHAPE_MULTIPOLES>
470.19
8.19
4.88
1.27
11.12
0.64
0
-0.37
0.88
-4.07
-0.32
0.3
0.11
1.23

> <PUBCHEM_SHAPE_SELFOVERLAP>
978.428

> <PUBCHEM_SHAPE_VOLUME>
268.7

> <PUBCHEM_COORDINATE_TYPE>
2
5
10

$$$$

