854189
  -OEChem-06241222473D

 34 35  0     1  0  0  0  0  0999 V2000
   -5.2405    2.4561    0.1609 Cl  0  0  0  0  0  0  0  0  0  0  0  0
    4.1221    0.6604   -1.4788 S   0  0  0  0  0  0  0  0  0  0  0  0
    0.7357   -0.1832    1.5774 O   0  0  0  0  0  0  0  0  0  0  0  0
    1.8140   -0.1187   -0.5112 N   0  0  0  0  0  0  0  0  0  0  0  0
    3.4281    0.8306    1.0056 N   0  0  0  0  0  0  0  0  0  0  0  0
   -0.4087   -1.0665   -0.3599 C   0  0  1  0  0  0  0  0  0  0  0  0
   -0.6386   -2.5187    0.1531 C   0  0  0  0  0  0  0  0  0  0  0  0
   -1.6341   -0.1718   -0.2268 C   0  0  0  0  0  0  0  0  0  0  0  0
    0.6190   -3.3870    0.0029 C   0  0  0  0  0  0  0  0  0  0  0  0
   -1.7863   -3.1964   -0.6113 C   0  0  0  0  0  0  0  0  0  0  0  0
    0.7698   -0.3911    0.3677 C   0  0  0  0  0  0  0  0  0  0  0  0
   -2.4751   -0.3504    0.8516 C   0  0  0  0  0  0  0  0  0  0  0  0
   -1.8650    0.7883   -1.1900 C   0  0  0  0  0  0  0  0  0  0  0  0
   -3.5980    0.4683    0.9726 C   0  0  0  0  0  0  0  0  0  0  0  0
   -2.9879    1.6070   -1.0689 C   0  0  0  0  0  0  0  0  0  0  0  0
   -3.8544    1.4470    0.0123 C   0  0  0  0  0  0  0  0  0  0  0  0
    3.0434    0.4539   -0.1755 C   0  0  0  0  0  0  0  0  0  0  0  0
    5.2495    1.3322   -0.3748 C   0  0  0  0  0  0  0  0  0  0  0  0
    4.7070    1.3399    0.8932 C   0  0  0  0  0  0  0  0  0  0  0  0
   -0.1767   -1.1485   -1.4314 H   0  0  0  0  0  0  0  0  0  0  0  0
   -0.8748   -2.5249    1.2232 H   0  0  0  0  0  0  0  0  0  0  0  0
    0.9541   -3.4213   -1.0394 H   0  0  0  0  0  0  0  0  0  0  0  0
    0.4252   -4.4144    0.3299 H   0  0  0  0  0  0  0  0  0  0  0  0
    1.4429   -3.0032    0.6128 H   0  0  0  0  0  0  0  0  0  0  0  0
   -2.7488   -2.7040   -0.4530 H   0  0  0  0  0  0  0  0  0  0  0  0
   -1.9055   -4.2349   -0.2824 H   0  0  0  0  0  0  0  0  0  0  0  0
   -1.5873   -3.2108   -1.6886 H   0  0  0  0  0  0  0  0  0  0  0  0
   -2.2983   -1.0779    1.6345 H   0  0  0  0  0  0  0  0  0  0  0  0
   -1.1945    0.9209   -2.0336 H   0  0  0  0  0  0  0  0  0  0  0  0
    1.7122   -0.3457   -1.4966 H   0  0  0  0  0  0  0  0  0  0  0  0
   -4.2616    0.3367    1.8234 H   0  0  0  0  0  0  0  0  0  0  0  0
   -3.1749    2.3656   -1.8247 H   0  0  0  0  0  0  0  0  0  0  0  0
    6.2224    1.6771   -0.6942 H   0  0  0  0  0  0  0  0  0  0  0  0
    5.2068    1.7100    1.7783 H   0  0  0  0  0  0  0  0  0  0  0  0
  1 16  1  0  0  0  0
  2 17  1  0  0  0  0
  2 18  1  0  0  0  0
  3 11  2  0  0  0  0
  4 11  1  0  0  0  0
  4 17  1  0  0  0  0
  4 30  1  0  0  0  0
  5 17  2  0  0  0  0
  5 19  1  0  0  0  0
  6  7  1  0  0  0  0
  6  8  1  0  0  0  0
  6 11  1  0  0  0  0
  6 20  1  0  0  0  0
  7  9  1  0  0  0  0
  7 10  1  0  0  0  0
  7 21  1  0  0  0  0
  8 12  2  0  0  0  0
  8 13  1  0  0  0  0
  9 22  1  0  0  0  0
  9 23  1  0  0  0  0
  9 24  1  0  0  0  0
 10 25  1  0  0  0  0
 10 26  1  0  0  0  0
 10 27  1  0  0  0  0
 12 14  1  0  0  0  0
 12 28  1  0  0  0  0
 13 15  2  0  0  0  0
 13 29  1  0  0  0  0
 14 16  2  0  0  0  0
 14 31  1  0  0  0  0
 15 16  1  0  0  0  0
 15 32  1  0  0  0  0
 18 19  2  0  0  0  0
 18 33  1  0  0  0  0
 19 34  1  0  0  0  0
M  END
> <PUBCHEM_COMPOUND_CID>
854189

> <PUBCHEM_CONFORMER_RMSD>
0.6

> <PUBCHEM_CONFORMER_DIVERSEORDER>
1
20
15
16
19
5
14
17
13
11
10
4
6
3
8
18
12
7
2
9

> <PUBCHEM_MMFF94_PARTIAL_CHARGES>
23
1 -0.18
11 0.57
12 -0.15
13 -0.15
14 -0.15
15 -0.15
16 0.18
17 0.44
18 -0.11
19 0.08
2 -0.08
28 0.15
29 0.15
3 -0.57
30 0.37
31 0.15
32 0.15
33 0.15
34 0.15
4 -0.49
5 -0.57
6 0.2
8 -0.14

> <PUBCHEM_EFFECTIVE_ROTOR_COUNT>
5

> <PUBCHEM_PHARMACOPHORE_FEATURES>
5
1 3 acceptor
1 4 donor
3 7 9 10 hydrophobe
5 2 5 17 18 19 rings
6 8 12 13 14 15 16 rings

> <PUBCHEM_HEAVY_ATOM_COUNT>
19

> <PUBCHEM_ATOM_DEF_STEREO_COUNT>
1

> <PUBCHEM_ATOM_UDEF_STEREO_COUNT>
0

> <PUBCHEM_BOND_DEF_STEREO_COUNT>
0

> <PUBCHEM_BOND_UDEF_STEREO_COUNT>
0

> <PUBCHEM_ISOTOPIC_ATOM_COUNT>
0

> <PUBCHEM_COMPONENT_COUNT>
1

> <PUBCHEM_CACTVS_TAUTO_COUNT>
3

> <PUBCHEM_CONFORMER_ID>
000D08AD00000001

> <PUBCHEM_MMFF94_ENERGY>
40.7705

> <PUBCHEM_FEATURE_SELFOVERLAP>
25.371

> <PUBCHEM_SHAPE_FINGERPRINT>
10165383 225 18409441509961298073
105312 117 18408601452954546428
12173636 292 18410296873946201950
12390115 104 18334845130874380945
12403259 118 17775001276116015061
12500047 106 18335702690057123070
12516196 113 9295278439696796588
12730499 353 18337381768845494897
12788726 201 17838604570592188390
13544592 145 18261659455397337398
13544653 18 11600001029170862535
13955234 65 18051969518252898299
14123255 52 18410013255759561833
14341114 328 16773504529881757321
15342168 16 18339363080061411885
1741750 31 18410014321143546898
17539 30 17972889059706502879
17834072 32 18411981338750624324
17980427 23 17560792222333441893
18186145 218 18113893858314805472
18222031 100 10879981484661925136
18785283 64 18127409183633991818
19784866 170 18201429333361357909
19784866 240 9871456643746240225
19784866 34 18334015038002241465
20374829 77 8790885164214521477
20388580 30 7853558124105805907
204376 136 18411701006345451431
20645477 56 18338511950592222804
20645477 70 16588569960504181188
21033648 29 18335706022535527112
21120745 212 17551211983440206558
21250096 35 7997965760789589021
212916 134 18336559252274605576
21524375 3 18272656748595878931
21618674 25 18270116950335768361
22079108 93 18114174221074315427
22224240 67 18337099104426704699
23227448 37 18265332802869935132
23403322 49 8286202742722373029
23557571 272 18116427047258700588
23559900 14 17343766364993711391
25 1 18040714796417594810
283562 15 18194412086749481471
2916195 48 18187090524671643760
293599 30 18409444808316943705
3004659 81 6338954451728658952
3729539 64 17976515511322343542
4028521 119 17967812755969904536
458136 41 18337669849207911851
463206 1 8141788483395147141
5104073 3 18056751247319965017
633830 44 18042122214272102237
77188 2 17113255001828852159
7808743 9 18341048515370233252
81228 2 17979080379322196035
8863177 126 6698367271256693525
9862522 239 17917445240602791245

> <PUBCHEM_SHAPE_MULTIPOLES>
380.9
10.04
3.12
1.22
5.6
3.33
0.02
-10.44
-0.17
-2.09
0.34
0.42
-0.27
0.13

> <PUBCHEM_SHAPE_SELFOVERLAP>
779.352

> <PUBCHEM_SHAPE_VOLUME>
223

> <PUBCHEM_COORDINATE_TYPE>
2
5
10

$$$$

