51090863
  -OEChem-06241223003D

 47 49  0     1  0  0  0  0  0999 V2000
    0.6711   -2.0638   -0.8280 O   0  0  0  0  0  0  0  0  0  0  0  0
    3.2407    2.0159    0.1184 O   0  0  0  0  0  0  0  0  0  0  0  0
    7.0243    0.2210    0.6670 O   0  0  0  0  0  0  0  0  0  0  0  0
   -3.4666    0.6852    0.2664 N   0  0  0  0  0  0  0  0  0  0  0  0
   -4.4481   -1.4362    0.5522 N   0  0  0  0  0  0  0  0  0  0  0  0
   -1.0023   -0.4773   -0.3677 N   0  0  0  0  0  0  0  0  0  0  0  0
    2.5567   -0.0942   -0.5598 N   0  0  0  0  0  0  0  0  0  0  0  0
   -3.8445    3.5462    0.2387 C   0  0  0  0  0  0  0  0  0  0  0  0
   -3.3908    2.8169    1.4972 C   0  0  0  0  0  0  0  0  0  0  0  0
   -3.3759    2.7952   -1.0018 C   0  0  0  0  0  0  0  0  0  0  0  0
   -3.8524    1.3445   -0.9894 C   0  0  0  0  0  0  0  0  0  0  0  0
   -3.8613    1.3631    1.5065 C   0  0  0  0  0  0  0  0  0  0  0  0
   -3.3480   -0.7099    0.2524 C   0  0  0  0  0  0  0  0  0  0  0  0
   -2.1172   -1.2614   -0.0651 C   0  0  0  0  0  0  0  0  0  0  0  0
   -2.0083   -2.6476   -0.0755 C   0  0  0  0  0  0  0  0  0  0  0  0
    1.2257    0.2796   -0.9627 C   0  0  2  0  0  0  0  0  0  0  0  0
    0.2931   -0.9022   -0.7035 C   0  0  0  0  0  0  0  0  0  0  0  0
   -4.3040   -2.7803    0.5320 C   0  0  0  0  0  0  0  0  0  0  0  0
   -3.1180   -3.4288    0.2277 C   0  0  0  0  0  0  0  0  0  0  0  0
    1.1932    0.6853   -2.4281 C   0  0  0  0  0  0  0  0  0  0  0  0
    3.4667    0.8197   -0.0449 C   0  0  0  0  0  0  0  0  0  0  0  0
    4.8078    0.2808    0.2989 C   0  0  0  0  0  0  0  0  0  0  0  0
    5.1619   -1.0374    0.6729 C   0  0  0  0  0  0  0  0  0  0  0  0
    5.9754    1.0079    0.3102 C   0  0  0  0  0  0  0  0  0  0  0  0
    6.5208   -1.0220    0.8861 C   0  0  0  0  0  0  0  0  0  0  0  0
   -3.4409    4.5646    0.2323 H   0  0  0  0  0  0  0  0  0  0  0  0
   -4.9380    3.6300    0.2316 H   0  0  0  0  0  0  0  0  0  0  0  0
   -2.2796    2.8183   -1.0458 H   0  0  0  0  0  0  0  0  0  0  0  0
   -3.7444    3.2979   -1.9029 H   0  0  0  0  0  0  0  0  0  0  0  0
   -3.7705    3.3339    2.3854 H   0  0  0  0  0  0  0  0  0  0  0  0
   -2.2951    2.8436    1.5534 H   0  0  0  0  0  0  0  0  0  0  0  0
   -3.4148    0.8265   -1.8519 H   0  0  0  0  0  0  0  0  0  0  0  0
   -4.9428    1.3025   -1.1023 H   0  0  0  0  0  0  0  0  0  0  0  0
   -4.9517    1.3189    1.6180 H   0  0  0  0  0  0  0  0  0  0  0  0
   -3.4200    0.8570    2.3738 H   0  0  0  0  0  0  0  0  0  0  0  0
   -1.1647    0.5267   -0.3327 H   0  0  0  0  0  0  0  0  0  0  0  0
   -1.1030   -3.1913   -0.3037 H   0  0  0  0  0  0  0  0  0  0  0  0
    0.9094    1.1316   -0.3490 H   0  0  0  0  0  0  0  0  0  0  0  0
   -5.1985   -3.3440    0.7757 H   0  0  0  0  0  0  0  0  0  0  0  0
   -3.0576   -4.5112    0.2269 H   0  0  0  0  0  0  0  0  0  0  0  0
    0.1809    0.9711   -2.7330 H   0  0  0  0  0  0  0  0  0  0  0  0
    1.8598    1.5334   -2.6173 H   0  0  0  0  0  0  0  0  0  0  0  0
    1.5128   -0.1399   -3.0748 H   0  0  0  0  0  0  0  0  0  0  0  0
    2.8423   -1.0598   -0.6947 H   0  0  0  0  0  0  0  0  0  0  0  0
    4.5155   -1.8968    0.7805 H   0  0  0  0  0  0  0  0  0  0  0  0
    6.2193    2.0394    0.1001 H   0  0  0  0  0  0  0  0  0  0  0  0
    7.2395   -1.7719    1.1824 H   0  0  0  0  0  0  0  0  0  0  0  0
  1 17  2  0  0  0  0
  2 21  2  0  0  0  0
  3 24  1  0  0  0  0
  3 25  1  0  0  0  0
  4 11  1  0  0  0  0
  4 12  1  0  0  0  0
  4 13  1  0  0  0  0
  5 13  1  0  0  0  0
  5 18  2  0  0  0  0
  6 14  1  0  0  0  0
  6 17  1  0  0  0  0
  6 36  1  0  0  0  0
  7 16  1  0  0  0  0
  7 21  1  0  0  0  0
  7 44  1  0  0  0  0
  8  9  1  0  0  0  0
  8 10  1  0  0  0  0
  8 26  1  0  0  0  0
  8 27  1  0  0  0  0
  9 12  1  0  0  0  0
  9 30  1  0  0  0  0
  9 31  1  0  0  0  0
 10 11  1  0  0  0  0
 10 28  1  0  0  0  0
 10 29  1  0  0  0  0
 11 32  1  0  0  0  0
 11 33  1  0  0  0  0
 12 34  1  0  0  0  0
 12 35  1  0  0  0  0
 13 14  2  0  0  0  0
 14 15  1  0  0  0  0
 15 19  2  0  0  0  0
 15 37  1  0  0  0  0
 16 17  1  0  0  0  0
 16 20  1  0  0  0  0
 16 38  1  0  0  0  0
 18 19  1  0  0  0  0
 18 39  1  0  0  0  0
 19 40  1  0  0  0  0
 20 41  1  0  0  0  0
 20 42  1  0  0  0  0
 20 43  1  0  0  0  0
 21 22  1  0  0  0  0
 22 23  1  0  0  0  0
 22 24  2  0  0  0  0
 23 25  2  0  0  0  0
 23 45  1  0  0  0  0
 24 46  1  0  0  0  0
 25 47  1  0  0  0  0
M  END
> <PUBCHEM_COMPOUND_CID>
51090863

> <PUBCHEM_CONFORMER_RMSD>
0.8

> <PUBCHEM_CONFORMER_DIVERSEORDER>
1
11
147
85
169
98
128
289
254
296
28
192
235
115
34
213
277
251
101
291
257
146
208
7
80
131
52
38
60
112
153
54
276
56
178
157
265
62
69
50
79
89
96
141
51
309
172
156
238
281
39
35
312
93
168
121
286
66
12
23
298
308
211
71
283
149
247
293
126
267
182
297
227
5
300
64
44
230
113
138
127
88
107
74
130
198
70
111
27
195
263
86
148
150
179
272
292
275
43
190
30
184
193
220
106
58
222
249
175
20
313
154
200
165
215
261
217
194
152
189
57
187
118
315
183
273
136
53
224
4
162
202
9
8
221
246
196
16
76
19
87
18
3
232
142
161
248
219
242
61
188
174
191
170
122
139
110
302
21
72
167
81
59
216
125
255
279
210
271
155
104
68
151
218
10
284
171
133
14
223
180
233
15
42
207
303
314
205
77
282
117
6
177
37
260
97
124
108
243
135
144
82
250
234
140
228
78
266
176
159
134
24
186
25
306
48
299
301
241
244
29
32
212
22
294
280
199
145
278
116
109
123
31
229
245
137
253
304
197
132
47
311
288
166
55
91
181
75
206
258
163
237
102
94
99
158
164
160
203
209
252
214
287
143
36
120
129
84
73
83
95
173
290
225
46
185
2
63
92
269
262
259
285
310
240
45
201
33
90
100
268
236
49
204
295
40
274
270
256
239
65
119
305
231
41
114
67
103
17
13
307
264
105
226
26

> <PUBCHEM_MMFF94_PARTIAL_CHARGES>
29
1 -0.57
11 0.37
12 0.37
13 0.41
14 0.12
15 -0.15
16 0.36
17 0.57
18 0.16
19 -0.15
2 -0.57
21 0.72
22 -0.09
23 -0.15
24 -0.01
25 -0.01
3 -0.28
36 0.37
37 0.15
39 0.15
4 -0.84
40 0.15
44 0.37
45 0.15
46 0.15
47 0.15
5 -0.62
6 -0.55
7 -0.73

> <PUBCHEM_EFFECTIVE_ROTOR_COUNT>
8.2

> <PUBCHEM_PHARMACOPHORE_FEATURES>
10
1 1 acceptor
1 2 acceptor
1 3 acceptor
1 4 cation
1 5 acceptor
1 6 donor
1 7 donor
5 3 22 23 24 25 rings
6 4 8 9 10 11 12 rings
6 5 13 14 15 18 19 rings

> <PUBCHEM_HEAVY_ATOM_COUNT>
25

> <PUBCHEM_ATOM_DEF_STEREO_COUNT>
0

> <PUBCHEM_ATOM_UDEF_STEREO_COUNT>
1

> <PUBCHEM_BOND_DEF_STEREO_COUNT>
0

> <PUBCHEM_BOND_UDEF_STEREO_COUNT>
0

> <PUBCHEM_ISOTOPIC_ATOM_COUNT>
0

> <PUBCHEM_COMPONENT_COUNT>
1

> <PUBCHEM_CACTVS_TAUTO_COUNT>
6

> <PUBCHEM_CONFORMER_ID>
030B95AF00000001

> <PUBCHEM_MMFF94_ENERGY>
67.1391

> <PUBCHEM_FEATURE_SELFOVERLAP>
50.743

> <PUBCHEM_SHAPE_FINGERPRINT>
100830 39 18410576201919416240
10291535 26 17968093157563364265
10319926 262 18334566963128087422
10764073 3 18122347049986404366
11049842 53 18125409094911228678
11545043 162 18334581213750188058
12107183 9 18125446560248223602
12422481 6 17916306211629680118
12596602 18 18271811177294510296
13009979 54 17915732094413200839
13073987 5 18411986819829968490
13103583 49 18272089413886828832
13403585 85 18335141951610828840
13583140 156 17894920602847477110
13965767 371 17841986977865709573
14178342 30 18341602720522190383
14420673 8 18341051934507293530
14466204 15 18408041831912119600
14844126 61 18340484470326706987
15021287 119 17275102834633428972
15326921 28 17839485593171401108
15484559 13 14212020875464215802
17780758 139 18342462508370725366
17844677 252 18340201891543056432
1813 80 16917069958544973982
21033648 29 17458637709113708946
21279426 13 18115862070312986798
21315764 268 18262806155272034320
22956985 138 17113822882605118043
23522609 53 17845632838728982948
244849 19 17677313039605471742
3117164 225 18268151040488037722
3886686 26 18198058286176543227
4214541 1 18412546487716309858
5104073 3 18340503205385015168
7226269 152 18040719220608982784
9981440 41 18260545662650348171

> <PUBCHEM_SHAPE_MULTIPOLES>
476.96
14.88
3.78
1.33
26.79
0.05
0.41
-1.82
-5.68
-7.5
-0.55
-0.26
-0.61
-0.32

> <PUBCHEM_SHAPE_SELFOVERLAP>
1008.517

> <PUBCHEM_SHAPE_VOLUME>
265.7

> <PUBCHEM_COORDINATE_TYPE>
2
5
10

$$$$

