5042
  -OEChem-06261200293D

 41 43  0     1  0  0  0  0  0999 V2000
   -6.6005   -1.9155    0.0104 Cl  0  0  0  0  0  0  0  0  0  0  0  0
   -0.9679    4.0069   -0.8423 O   0  0  0  0  0  0  0  0  0  0  0  0
    0.5893   -3.1529   -2.0058 O   0  0  0  0  0  0  0  0  0  0  0  0
    1.2150    4.4419   -0.4364 O   0  0  0  0  0  0  0  0  0  0  0  0
   -0.7633    0.7590    1.8896 O   0  0  0  0  0  0  0  0  0  0  0  0
   -0.7773    1.4276   -0.3188 N   0  0  0  0  0  0  0  0  0  0  0  0
    2.2830   -2.6615   -0.5304 N   0  0  0  0  0  0  0  0  0  0  0  0
    1.5010    1.5257   -1.2294 C   0  0  0  0  0  0  0  0  0  0  0  0
    0.4726    2.1437   -0.2781 C   0  0  1  0  0  0  0  0  0  0  0  0
    1.7667    0.0672   -0.9925 C   0  0  0  0  0  0  0  0  0  0  0  0
    2.8365   -0.3419   -0.0581 C   0  0  0  0  0  0  0  0  0  0  0  0
    3.0653   -1.7113    0.1477 C   0  0  0  0  0  0  0  0  0  0  0  0
    1.0433   -0.8750   -1.6193 C   0  0  0  0  0  0  0  0  0  0  0  0
    3.6390    0.5745    0.6373 C   0  0  0  0  0  0  0  0  0  0  0  0
    1.2774   -2.3272   -1.4094 C   0  0  0  0  0  0  0  0  0  0  0  0
    0.2941    3.6360   -0.5179 C   0  0  0  0  0  0  0  0  0  0  0  0
    4.0637   -2.1565    1.0203 C   0  0  0  0  0  0  0  0  0  0  0  0
   -1.3297    0.7636    0.7971 C   0  0  0  0  0  0  0  0  0  0  0  0
    4.6379    0.1321    1.5098 C   0  0  0  0  0  0  0  0  0  0  0  0
    4.8498   -1.2308    1.7009 C   0  0  0  0  0  0  0  0  0  0  0  0
   -2.6272    0.1028    0.6033 C   0  0  0  0  0  0  0  0  0  0  0  0
   -3.4772   -0.0631    1.6874 C   0  0  0  0  0  0  0  0  0  0  0  0
   -2.9842   -0.3440   -0.6610 C   0  0  0  0  0  0  0  0  0  0  0  0
   -4.7100   -0.6892    1.5034 C   0  0  0  0  0  0  0  0  0  0  0  0
   -4.2171   -0.9699   -0.8451 C   0  0  0  0  0  0  0  0  0  0  0  0
   -5.0801   -1.1424    0.2371 C   0  0  0  0  0  0  0  0  0  0  0  0
    2.4283    2.1099   -1.2431 H   0  0  0  0  0  0  0  0  0  0  0  0
    1.1195    1.6449   -2.2556 H   0  0  0  0  0  0  0  0  0  0  0  0
    0.8613    2.0770    0.7459 H   0  0  0  0  0  0  0  0  0  0  0  0
    0.2521   -0.6119   -2.3143 H   0  0  0  0  0  0  0  0  0  0  0  0
   -1.3057    1.4886   -1.1827 H   0  0  0  0  0  0  0  0  0  0  0  0
    3.5086    1.6476    0.5349 H   0  0  0  0  0  0  0  0  0  0  0  0
    2.4726   -3.6452   -0.3606 H   0  0  0  0  0  0  0  0  0  0  0  0
    4.2354   -3.2184    1.1752 H   0  0  0  0  0  0  0  0  0  0  0  0
    5.2489    0.8551    2.0428 H   0  0  0  0  0  0  0  0  0  0  0  0
    5.6261   -1.5707    2.3800 H   0  0  0  0  0  0  0  0  0  0  0  0
   -3.2068    0.2878    2.6794 H   0  0  0  0  0  0  0  0  0  0  0  0
   -2.3295   -0.2559   -1.5222 H   0  0  0  0  0  0  0  0  0  0  0  0
   -1.0386    4.9736   -0.9935 H   0  0  0  0  0  0  0  0  0  0  0  0
   -5.3727   -0.8161    2.3556 H   0  0  0  0  0  0  0  0  0  0  0  0
   -4.4896   -1.3243   -1.8360 H   0  0  0  0  0  0  0  0  0  0  0  0
  1 26  1  0  0  0  0
  2 16  1  0  0  0  0
  2 39  1  0  0  0  0
  3 15  2  0  0  0  0
  4 16  2  0  0  0  0
  5 18  2  0  0  0  0
  6  9  1  0  0  0  0
  6 18  1  0  0  0  0
  6 31  1  0  0  0  0
  7 12  1  0  0  0  0
  7 15  1  0  0  0  0
  7 33  1  0  0  0  0
  8  9  1  0  0  0  0
  8 10  1  0  0  0  0
  8 27  1  0  0  0  0
  8 28  1  0  0  0  0
  9 16  1  0  0  0  0
  9 29  1  0  0  0  0
 10 11  1  0  0  0  0
 10 13  2  0  0  0  0
 11 12  1  0  0  0  0
 11 14  2  0  0  0  0
 12 17  2  0  0  0  0
 13 15  1  0  0  0  0
 13 30  1  0  0  0  0
 14 19  1  0  0  0  0
 14 32  1  0  0  0  0
 17 20  1  0  0  0  0
 17 34  1  0  0  0  0
 18 21  1  0  0  0  0
 19 20  2  0  0  0  0
 19 35  1  0  0  0  0
 20 36  1  0  0  0  0
 21 22  2  0  0  0  0
 21 23  1  0  0  0  0
 22 24  1  0  0  0  0
 22 37  1  0  0  0  0
 23 25  2  0  0  0  0
 23 38  1  0  0  0  0
 24 26  2  0  0  0  0
 24 40  1  0  0  0  0
 25 26  1  0  0  0  0
 25 41  1  0  0  0  0
M  END
> <PUBCHEM_COMPOUND_CID>
5042

> <PUBCHEM_CONFORMER_RMSD>
0.8

> <PUBCHEM_CONFORMER_DIVERSEORDER>
1
33
25
30
18
42
3
16
46
29
20
4
48
51
59
45
5
28
62
34
26
9
35
61
57
53
44
31
8
17
2
58
13
52
43
32
27
15
24
37
56
47
19
50
41
11
40
10
55
38
60
7
54
22
23
21
6
12
49
14
39
36

> <PUBCHEM_MMFF94_PARTIAL_CHARGES>
38
1 -0.18
10 -0.17
11 0.03
12 0.12
13 -0.14
14 -0.15
15 0.62
16 0.66
17 -0.15
18 0.54
19 -0.15
2 -0.65
20 -0.15
21 0.09
22 -0.15
23 -0.15
24 -0.15
25 -0.15
26 0.18
3 -0.57
30 0.15
31 0.37
32 0.15
33 0.37
34 0.15
35 0.15
36 0.15
37 0.15
38 0.15
39 0.5
4 -0.57
40 0.15
41 0.15
5 -0.57
6 -0.73
7 -0.55
8 0.14
9 0.36

> <PUBCHEM_EFFECTIVE_ROTOR_COUNT>
6

> <PUBCHEM_PHARMACOPHORE_FEATURES>
10
1 2 acceptor
1 3 acceptor
1 4 acceptor
1 5 acceptor
1 6 donor
1 7 donor
3 2 4 16 anion
6 11 12 14 17 19 20 rings
6 21 22 23 24 25 26 rings
6 7 10 11 12 13 15 rings

> <PUBCHEM_HEAVY_ATOM_COUNT>
26

> <PUBCHEM_ATOM_DEF_STEREO_COUNT>
0

> <PUBCHEM_ATOM_UDEF_STEREO_COUNT>
1

> <PUBCHEM_BOND_DEF_STEREO_COUNT>
0

> <PUBCHEM_BOND_UDEF_STEREO_COUNT>
0

> <PUBCHEM_ISOTOPIC_ATOM_COUNT>
0

> <PUBCHEM_COMPONENT_COUNT>
1

> <PUBCHEM_CACTVS_TAUTO_COUNT>
4

> <PUBCHEM_CONFORMER_ID>
000013B200000001

> <PUBCHEM_MMFF94_ENERGY>
68.7249

> <PUBCHEM_FEATURE_SELFOVERLAP>
50.829

> <PUBCHEM_SHAPE_FINGERPRINT>
1100329 8 17976540508074073604
11578080 2 17751917166713689832
11796584 16 16702024166742559859
11828532 37 17489022657804001519
12160290 23 17410469392790824989
12363563 72 18131059472059264739
12553582 1 18338781382237880213
12596602 18 15864061071296464531
12633257 1 18343015554393728463
12788726 201 17912622881446076837
12895836 83 6988020406521420882
13083527 12 18342458145005894612
13134695 92 18272655597402576365
13544653 18 18201721777425858752
13692114 37 17544741792168534481
13878862 14 8356602166685045387
14178342 30 18115015441505547033
14251751 18 16917062222897462771
14341114 328 16877667846333997362
14787075 74 16878518816672663706
14840074 17 18335422322849658996
14848160 33 18272077284704266051
14863182 85 17241030025349283431
15463212 79 17184472019417242909
17138139 8 16740026364280346879
17349148 13 18335413552479117403
1813 80 18410002252427824545
1979834 28 18040703780238567479
20626108 58 18409449176593596043
20739085 24 18334007298529073086
21304303 282 17123986144926298677
21315764 119 15625953053725376187
21315764 371 17095512977254963083
21756936 100 15141548890929602442
2255824 54 18192131716928939805
23419403 2 17845116011596026940
392239 28 17095820831614792482
427121 178 17022900147114398718
439807 62 18057042403407083835
44802255 64 15116699756422003276
463206 1 18060699477068307939
469060 322 18044973179361619982
633830 44 10735870626329809235
7064713 232 17748826327969416699
7808743 9 6987730096659884162
81228 2 17910376613487030389
9709674 26 17832152993048120484

> <PUBCHEM_SHAPE_MULTIPOLES>
503.5
10.83
4
1.73
11.95
4.51
-0.15
-8.59
-5
-1.96
1.77
-0.48
-0.66
-0.43

> <PUBCHEM_SHAPE_SELFOVERLAP>
1083.906

> <PUBCHEM_SHAPE_VOLUME>
275.1

> <PUBCHEM_COORDINATE_TYPE>
2
5
10

$$$$

