47205776
  -OEChem-06241223003D

 39 40  0     0  0  0  0  0  0999 V2000
   -1.2473    2.0052    0.4946 O   0  0  0  0  0  0  0  0  0  0  0  0
   -3.0611   -1.1952   -0.7372 O   0  0  0  0  0  0  0  0  0  0  0  0
    0.5770    0.6348    0.0382 N   0  0  0  0  0  0  0  0  0  0  0  0
   -2.7440    0.0278    1.2129 N   0  0  0  0  0  0  0  0  0  0  0  0
    1.2145    1.6128   -0.8425 C   0  0  0  0  0  0  0  0  0  0  0  0
    2.6477    1.8790   -0.3998 C   0  0  0  0  0  0  0  0  0  0  0  0
    1.2513   -0.6666    0.1522 C   0  0  0  0  0  0  0  0  0  0  0  0
    3.4221    0.5954   -0.2635 C   0  0  0  0  0  0  0  0  0  0  0  0
    2.7534   -0.6097    0.0137 C   0  0  0  0  0  0  0  0  0  0  0  0
   -0.6766    0.9156    0.5870 C   0  0  0  0  0  0  0  0  0  0  0  0
    4.8200    0.6069   -0.3629 C   0  0  0  0  0  0  0  0  0  0  0  0
    3.4967   -1.7903    0.1570 C   0  0  0  0  0  0  0  0  0  0  0  0
   -1.3439   -0.2081    1.3415 C   0  0  0  0  0  0  0  0  0  0  0  0
    5.5478   -0.5731   -0.2146 C   0  0  0  0  0  0  0  0  0  0  0  0
    4.8866   -1.7714    0.0422 C   0  0  0  0  0  0  0  0  0  0  0  0
   -4.9692   -0.0927    0.2656 C   0  0  0  0  0  0  0  0  0  0  0  0
   -3.5081   -0.4927    0.1657 C   0  0  0  0  0  0  0  0  0  0  0  0
   -5.8080   -0.6590   -0.8764 C   0  0  0  0  0  0  0  0  0  0  0  0
   -7.2592   -0.2188   -0.7738 C   0  0  0  0  0  0  0  0  0  0  0  0
    1.1882    1.1984   -1.8582 H   0  0  0  0  0  0  0  0  0  0  0  0
    0.6512    2.5513   -0.8594 H   0  0  0  0  0  0  0  0  0  0  0  0
    3.1296    2.5387   -1.1306 H   0  0  0  0  0  0  0  0  0  0  0  0
    2.6518    2.3881    0.5718 H   0  0  0  0  0  0  0  0  0  0  0  0
    1.0182   -1.1063    1.1272 H   0  0  0  0  0  0  0  0  0  0  0  0
    0.8370   -1.3077   -0.6347 H   0  0  0  0  0  0  0  0  0  0  0  0
    5.3489    1.5363   -0.5585 H   0  0  0  0  0  0  0  0  0  0  0  0
    2.9937   -2.7319    0.3632 H   0  0  0  0  0  0  0  0  0  0  0  0
   -1.0658   -0.1610    2.3973 H   0  0  0  0  0  0  0  0  0  0  0  0
   -1.1176   -1.1917    0.9268 H   0  0  0  0  0  0  0  0  0  0  0  0
    6.6306   -0.5572   -0.2980 H   0  0  0  0  0  0  0  0  0  0  0  0
    5.4531   -2.6908    0.1572 H   0  0  0  0  0  0  0  0  0  0  0  0
   -3.1973    0.6123    1.9096 H   0  0  0  0  0  0  0  0  0  0  0  0
   -5.0225    1.0026    0.2633 H   0  0  0  0  0  0  0  0  0  0  0  0
   -5.3567   -0.4471    1.2281 H   0  0  0  0  0  0  0  0  0  0  0  0
   -5.3992   -0.3310   -1.8396 H   0  0  0  0  0  0  0  0  0  0  0  0
   -5.7593   -1.7544   -0.8680 H   0  0  0  0  0  0  0  0  0  0  0  0
   -7.7074   -0.5611    0.1644 H   0  0  0  0  0  0  0  0  0  0  0  0
   -7.8415   -0.6369   -1.6008 H   0  0  0  0  0  0  0  0  0  0  0  0
   -7.3424    0.8718   -0.8171 H   0  0  0  0  0  0  0  0  0  0  0  0
  1 10  2  0  0  0  0
  2 17  2  0  0  0  0
  3  5  1  0  0  0  0
  3  7  1  0  0  0  0
  3 10  1  0  0  0  0
  4 13  1  0  0  0  0
  4 17  1  0  0  0  0
  4 32  1  0  0  0  0
  5  6  1  0  0  0  0
  5 20  1  0  0  0  0
  5 21  1  0  0  0  0
  6  8  1  0  0  0  0
  6 22  1  0  0  0  0
  6 23  1  0  0  0  0
  7  9  1  0  0  0  0
  7 24  1  0  0  0  0
  7 25  1  0  0  0  0
  8  9  1  0  0  0  0
  8 11  2  0  0  0  0
  9 12  2  0  0  0  0
 10 13  1  0  0  0  0
 11 14  1  0  0  0  0
 11 26  1  0  0  0  0
 12 15  1  0  0  0  0
 12 27  1  0  0  0  0
 13 28  1  0  0  0  0
 13 29  1  0  0  0  0
 14 15  2  0  0  0  0
 14 30  1  0  0  0  0
 15 31  1  0  0  0  0
 16 17  1  0  0  0  0
 16 18  1  0  0  0  0
 16 33  1  0  0  0  0
 16 34  1  0  0  0  0
 18 19  1  0  0  0  0
 18 35  1  0  0  0  0
 18 36  1  0  0  0  0
 19 37  1  0  0  0  0
 19 38  1  0  0  0  0
 19 39  1  0  0  0  0
M  END
> <PUBCHEM_COMPOUND_CID>
47205776

> <PUBCHEM_CONFORMER_RMSD>
0.8

> <PUBCHEM_CONFORMER_DIVERSEORDER>
1
112
5
61
150
52
92
166
123
53
164
126
13
95
135
129
138
167
59
54
111
60
128
127
22
91
154
87
10
55
73
152
149
131
141
110
159
46
136
156
31
34
72
69
17
77
158
76
160
43
45
38
108
65
19
143
42
151
96
93
140
57
41
32
29
51
97
102
85
148
28
9
125
75
8
99
15
94
134
39
114
11
118
162
157
133
86
144
20
116
113
121
12
30
124
147
100
84
3
48
109
163
16
106
115
142
40
98
44
145
66
120
146
71
7
80
62
122
165
25
161
67
49
64
6
88
119
21
79
24
117
33
63
89
47
37
74
23
132
139
14
107
105
68
83
2
81
78
50
70
4
101
103
130
26
58
36
104
56
153
82
155
137
35
18
27
90

> <PUBCHEM_MMFF94_PARTIAL_CHARGES>
22
1 -0.57
10 0.57
11 -0.15
12 -0.15
13 0.36
14 -0.15
15 -0.15
16 0.06
17 0.57
2 -0.57
26 0.15
27 0.15
3 -0.66
30 0.15
31 0.15
32 0.37
4 -0.73
5 0.3
6 0.14
7 0.44
8 -0.14
9 -0.14

> <PUBCHEM_EFFECTIVE_ROTOR_COUNT>
6.8

> <PUBCHEM_PHARMACOPHORE_FEATURES>
6
1 1 acceptor
1 19 hydrophobe
1 2 acceptor
1 4 donor
6 3 5 6 7 8 9 rings
6 8 9 11 12 14 15 rings

> <PUBCHEM_HEAVY_ATOM_COUNT>
19

> <PUBCHEM_ATOM_DEF_STEREO_COUNT>
0

> <PUBCHEM_ATOM_UDEF_STEREO_COUNT>
0

> <PUBCHEM_BOND_DEF_STEREO_COUNT>
0

> <PUBCHEM_BOND_UDEF_STEREO_COUNT>
0

> <PUBCHEM_ISOTOPIC_ATOM_COUNT>
0

> <PUBCHEM_COMPONENT_COUNT>
1

> <PUBCHEM_CACTVS_TAUTO_COUNT>
2

> <PUBCHEM_CONFORMER_ID>
02D04D9000000001

> <PUBCHEM_MMFF94_ENERGY>
37.7905

> <PUBCHEM_FEATURE_SELFOVERLAP>
30.468

> <PUBCHEM_SHAPE_FINGERPRINT>
10447042 23 18408608067151557990
106641 1 14490482962649823114
10670039 82 15482403048679565167
11724838 91 9367337137973803857
11796584 16 17894909590683316375
11806522 49 18412258446167094360
12011746 2 18201429286369704278
12236239 1 18113615685877860075
12670543 26 18060142063538051285
12916748 109 11311781691180098931
13533116 47 18334013908573581090
13668630 136 18113615681873322999
14251752 14 16200159827880133338
15183329 4 18341337773254451981
15188451 53 17530968020231263302
15475509 35 14996827927591383684
17357779 13 17632301176795440948
17834072 8 17846500335742860599
18222031 100 17385438808551729777
19784866 240 18333446560573440711
200 152 18408040723309462129
20028762 73 18186803612562170990
20612939 158 18272646818731866869
20645477 70 18341894116989275598
21267235 1 18409719677533440482
21285901 2 17489592311130597862
221357 26 18131639993220058621
2215653 11 18060419114413701355
22224240 67 6266891368716784653
23402539 116 18261110803174064953
23536379 177 18411139139246002125
23557571 272 15936955436052028264
23559900 14 18271804558402085120
2871803 45 18060416945792736242
29717793 49 18260824908174587173
3004659 81 18412548703909001987
3009799 131 18060142037219660288
439807 62 18190465949030514207
46194498 28 17561363950356062533
465052 167 18040994025015880582
5283173 99 18058738034097042013
542803 24 12247679357366155803
602551 16 15864077533478088966
8988823 20 17749115456551384456

> <PUBCHEM_SHAPE_MULTIPOLES>
369.31
15.02
1.72
0.96
18.56
0.32
-0.11
-5.04
4.2
-1.88
0.12
0.82
0.02
-0.62

> <PUBCHEM_SHAPE_SELFOVERLAP>
762.193

> <PUBCHEM_SHAPE_VOLUME>
210.6

> <PUBCHEM_COORDINATE_TYPE>
2
5
10

$$$$

