11957
  -OEChem-06261206203D

 18 18  0     0  0  0  0  0  0999 V2000
    3.3735   -0.5826   -0.2173 O   0  0  0  0  0  0  0  0  0  0  0  0
    1.3363    0.2216    0.0641 N   0  0  0  0  0  0  0  0  0  0  0  0
    2.1629   -0.8182   -0.2862 N   0  0  0  0  0  0  0  0  0  0  0  0
   -0.0665    0.0796    0.0276 C   0  0  0  0  0  0  0  0  0  0  0  0
   -0.8727    1.1866   -0.2374 C   0  0  0  0  0  0  0  0  0  0  0  0
   -0.6476   -1.1677    0.2555 C   0  0  0  0  0  0  0  0  0  0  0  0
   -2.2600    1.0463   -0.2744 C   0  0  0  0  0  0  0  0  0  0  0  0
   -2.0349   -1.3081    0.2183 C   0  0  0  0  0  0  0  0  0  0  0  0
   -2.8411   -0.2011   -0.0466 C   0  0  0  0  0  0  0  0  0  0  0  0
    1.8499    1.5435    0.4964 C   0  0  0  0  0  0  0  0  0  0  0  0
   -0.4600    2.1705   -0.4403 H   0  0  0  0  0  0  0  0  0  0  0  0
   -0.0489   -2.0473    0.4769 H   0  0  0  0  0  0  0  0  0  0  0  0
   -2.8880    1.9071   -0.4851 H   0  0  0  0  0  0  0  0  0  0  0  0
   -2.4879   -2.2787    0.3983 H   0  0  0  0  0  0  0  0  0  0  0  0
    2.8733    1.4732    0.8820 H   0  0  0  0  0  0  0  0  0  0  0  0
    1.2486    1.9606    1.3130 H   0  0  0  0  0  0  0  0  0  0  0  0
    1.8608    2.2422   -0.3471 H   0  0  0  0  0  0  0  0  0  0  0  0
   -3.9212   -0.3105   -0.0759 H   0  0  0  0  0  0  0  0  0  0  0  0
  1  3  2  0  0  0  0
  2  3  1  0  0  0  0
  2  4  1  0  0  0  0
  2 10  1  0  0  0  0
  4  5  2  0  0  0  0
  4  6  1  0  0  0  0
  5  7  1  0  0  0  0
  5 11  1  0  0  0  0
  6  8  2  0  0  0  0
  6 12  1  0  0  0  0
  7  9  2  0  0  0  0
  7 13  1  0  0  0  0
  8  9  1  0  0  0  0
  8 14  1  0  0  0  0
  9 18  1  0  0  0  0
 10 15  1  0  0  0  0
 10 16  1  0  0  0  0
 10 17  1  0  0  0  0
M  END
> <PUBCHEM_COMPOUND_CID>
11957

> <PUBCHEM_CONFORMER_RMSD>
0.4

> <PUBCHEM_CONFORMER_DIVERSEORDER>
1
6
7
4
2
3
8
5
10
9

> <PUBCHEM_MMFF94_PARTIAL_CHARGES>
14
1 -0.16
10 0.37
11 0.15
12 0.15
13 0.15
14 0.15
18 0.15
2 -0.3
4 0.1
5 -0.15
6 -0.15
7 -0.15
8 -0.15
9 -0.15

> <PUBCHEM_EFFECTIVE_ROTOR_COUNT>
2

> <PUBCHEM_PHARMACOPHORE_FEATURES>
1
6 4 5 6 7 8 9 rings

> <PUBCHEM_HEAVY_ATOM_COUNT>
10

> <PUBCHEM_ATOM_DEF_STEREO_COUNT>
0

> <PUBCHEM_ATOM_UDEF_STEREO_COUNT>
0

> <PUBCHEM_BOND_DEF_STEREO_COUNT>
0

> <PUBCHEM_BOND_UDEF_STEREO_COUNT>
0

> <PUBCHEM_ISOTOPIC_ATOM_COUNT>
0

> <PUBCHEM_COMPONENT_COUNT>
1

> <PUBCHEM_CACTVS_TAUTO_COUNT>
1

> <PUBCHEM_CONFORMER_ID>
00002EB500000001

> <PUBCHEM_MMFF94_ENERGY>
35.1291

> <PUBCHEM_FEATURE_SELFOVERLAP>
5.074

> <PUBCHEM_SHAPE_FINGERPRINT>
10857977 72 18199194979593754033
12032990 46 18270394993512387651
12524768 44 18268154166886222569
12716758 59 18343025479993986763
12897270 3 18413110558608683703
12932764 1 17632305583120623657
14325111 11 18411139134175815157
15219456 202 18335705988080414040
16945 1 18339650035131289179
19973954 147 18410012096102834033
20201158 50 18334012825999157894
20645464 45 18336842904446352856
21040471 1 18271532008546425493
23552423 10 18130224852513147383
2748010 2 18340491049830994885
29004967 10 17240761804456907742
369184 2 18113338574730314505
5084963 1 18202561791403407269

> <PUBCHEM_SHAPE_MULTIPOLES>
189.96
4.34
1.54
0.65
1.89
0.17
0.02
-0.5
-0.23
-0.05
0.08
0
0.04
0.42

> <PUBCHEM_SHAPE_SELFOVERLAP>
387.475

> <PUBCHEM_SHAPE_VOLUME>
110.8

> <PUBCHEM_COORDINATE_TYPE>
2
5
10

$$$$

