13164
  -OEChem-06261207503D

 30 29  0     0  0  0  0  0  0999 V2000
   -3.4578    0.6612    0.2485 O   0  0  0  0  0  0  0  0  0  0  0  0
   -2.4796   -1.4413    0.0804 O   0  0  0  0  0  0  0  0  0  0  0  0
    2.6517   -0.3967   -0.0256 C   0  0  0  0  0  0  0  0  0  0  0  0
    1.4243    0.5062    0.1126 C   0  0  0  0  0  0  0  0  0  0  0  0
    3.9463    0.4179   -0.0069 C   0  0  0  0  0  0  0  0  0  0  0  0
    0.1277   -0.3079    0.0612 C   0  0  0  0  0  0  0  0  0  0  0  0
    5.1710   -0.4806   -0.1773 C   0  0  0  0  0  0  0  0  0  0  0  0
   -1.1163    0.5651    0.2251 C   0  0  0  0  0  0  0  0  0  0  0  0
    6.4617    0.3213   -0.1257 C   0  0  0  0  0  0  0  0  0  0  0  0
   -2.4089   -0.2239    0.1858 C   0  0  0  0  0  0  0  0  0  0  0  0
   -4.7029    0.0675    0.1817 C   0  0  0  0  0  0  0  0  0  0  0  0
   -5.6171    0.3112   -0.7598 C   0  0  0  0  0  0  0  0  0  0  0  0
    2.6648   -1.1285    0.7912 H   0  0  0  0  0  0  0  0  0  0  0  0
    2.5875   -0.9607   -0.9641 H   0  0  0  0  0  0  0  0  0  0  0  0
    1.4195    1.2505   -0.6928 H   0  0  0  0  0  0  0  0  0  0  0  0
    1.4764    1.0548    1.0608 H   0  0  0  0  0  0  0  0  0  0  0  0
    3.9248    1.1635   -0.8110 H   0  0  0  0  0  0  0  0  0  0  0  0
    4.0198    0.9662    0.9402 H   0  0  0  0  0  0  0  0  0  0  0  0
    0.0708   -0.8485   -0.8920 H   0  0  0  0  0  0  0  0  0  0  0  0
    0.1428   -1.0699    0.8507 H   0  0  0  0  0  0  0  0  0  0  0  0
    5.1137   -1.0107   -1.1351 H   0  0  0  0  0  0  0  0  0  0  0  0
    5.1890   -1.2397    0.6134 H   0  0  0  0  0  0  0  0  0  0  0  0
   -1.0721    1.0906    1.1858 H   0  0  0  0  0  0  0  0  0  0  0  0
   -1.1461    1.3058   -0.5823 H   0  0  0  0  0  0  0  0  0  0  0  0
    7.3244   -0.3406   -0.2505 H   0  0  0  0  0  0  0  0  0  0  0  0
    6.4899    1.0706   -0.9233 H   0  0  0  0  0  0  0  0  0  0  0  0
    6.5653    0.8369    0.8344 H   0  0  0  0  0  0  0  0  0  0  0  0
   -4.8699   -0.6211    0.9996 H   0  0  0  0  0  0  0  0  0  0  0  0
   -6.5774   -0.1914   -0.7391 H   0  0  0  0  0  0  0  0  0  0  0  0
   -5.4195    1.0132   -1.5620 H   0  0  0  0  0  0  0  0  0  0  0  0
  1 10  1  0  0  0  0
  1 11  1  0  0  0  0
  2 10  2  0  0  0  0
  3  4  1  0  0  0  0
  3  5  1  0  0  0  0
  3 13  1  0  0  0  0
  3 14  1  0  0  0  0
  4  6  1  0  0  0  0
  4 15  1  0  0  0  0
  4 16  1  0  0  0  0
  5  7  1  0  0  0  0
  5 17  1  0  0  0  0
  5 18  1  0  0  0  0
  6  8  1  0  0  0  0
  6 19  1  0  0  0  0
  6 20  1  0  0  0  0
  7  9  1  0  0  0  0
  7 21  1  0  0  0  0
  7 22  1  0  0  0  0
  8 10  1  0  0  0  0
  8 23  1  0  0  0  0
  8 24  1  0  0  0  0
  9 25  1  0  0  0  0
  9 26  1  0  0  0  0
  9 27  1  0  0  0  0
 11 12  2  0  0  0  0
 11 28  1  0  0  0  0
 12 29  1  0  0  0  0
 12 30  1  0  0  0  0
M  END
> <PUBCHEM_COMPOUND_CID>
13164

> <PUBCHEM_CONFORMER_RMSD>
0.8

> <PUBCHEM_CONFORMER_DIVERSEORDER>
1
54
117
101
170
66
239
125
146
142
167
231
22
236
116
27
219
235
38
2
197
65
77
134
83
234
103
21
111
13
15
44
139
87
199
89
132
171
108
148
151
9
136
240
47
230
181
10
241
31
106
92
213
159
43
180
201
49
228
20
3
233
78
204
8
112
168
102
99
68
56
214
76
42
41
242
16
212
182
145
30
59
122
175
232
198
14
223
153
217
118
164
58
28
224
18
105
200
17
194
216
154
6
61
113
95
115
193
4
226
110
120
129
137
25
53
109
141
7
64
67
191
165
88
90
62
91
29
208
55
60
179
202
35
74
157
229
57
160
24
72
163
123
192
107
96
149
172
206
227
26
114
205
5
169
97
48
131
203
195
19
86
37
237
69
225
133
34
11
130
40
80
161
173
12
185
177
82
52
162
36
79
221
75
50
33
119
39
187
158
135
155
140
81
174
46
210
73
188
207
144
32
183
147
196
93
121
100
178
218
166
126
209
94
23
128
45
222
184
84
186
220
150
70
152
71
98
63
211
238
51
138
190
104
85
176
215
156
143
189
127
124

> <PUBCHEM_MMFF94_PARTIAL_CHARGES>
9
1 -0.23
10 0.66
11 -0.07
12 -0.3
2 -0.57
28 0.15
29 0.15
30 0.15
8 0.06

> <PUBCHEM_EFFECTIVE_ROTOR_COUNT>
8

> <PUBCHEM_PHARMACOPHORE_FEATURES>
4
1 2 acceptor
1 9 hydrophobe
3 3 5 7 hydrophobe
3 4 6 8 hydrophobe

> <PUBCHEM_HEAVY_ATOM_COUNT>
12

> <PUBCHEM_ATOM_DEF_STEREO_COUNT>
0

> <PUBCHEM_ATOM_UDEF_STEREO_COUNT>
0

> <PUBCHEM_BOND_DEF_STEREO_COUNT>
0

> <PUBCHEM_BOND_UDEF_STEREO_COUNT>
0

> <PUBCHEM_ISOTOPIC_ATOM_COUNT>
0

> <PUBCHEM_COMPONENT_COUNT>
1

> <PUBCHEM_CACTVS_TAUTO_COUNT>
1

> <PUBCHEM_CONFORMER_ID>
0000336C00000001

> <PUBCHEM_MMFF94_ENERGY>
9.4185

> <PUBCHEM_FEATURE_SELFOVERLAP>
20.31

> <PUBCHEM_SHAPE_FINGERPRINT>
10968037 39 18335138682908627317
11401426 45 18343019986804622594
12091667 2 17132113541984474377
12714333 28 17704354372781458916
12815109 37 18342738520428447988
13533116 47 18041561455443468378
14123238 8 18410012147599853736
1420 363 7493285560206540884
14251718 22 14851607678293982684
15242433 33 18272370880062978770
15242439 84 18334576828398628968
17834072 33 14273746126934148648
17834072 8 18413109459070714709
17834076 25 18411138038922023548
187816 3 17894348886691543211
200 152 16950001443443859731
20279233 1 17749380464538930150
20645477 70 17822568434362168262
20767249 13 17676487250448810664
20767249 213 18342738511474581548
22485316 2 18410573985731940274
23218964 4 18202566193813340452
23402539 116 15913327974816402443
23559900 14 18260836951210241760
300161 21 18202570566364490946
366044 4 18412543210777946242
42788 4 18335419075954512464
8209 1 18408604764216121164

> <PUBCHEM_SHAPE_MULTIPOLES>
235.22
15.17
0.89
0.67
7.12
0.15
0.04
-1.1
2.19
-0.2
-0.02
-0.25
-0.02
0.11

> <PUBCHEM_SHAPE_SELFOVERLAP>
429.834

> <PUBCHEM_SHAPE_VOLUME>
149.8

> <PUBCHEM_COORDINATE_TYPE>
2
5
10

$$$$

