6922
  -OEChem-06261201352D

 17 17  0     0  0  0  0  0  0999 V2000
    4.2690    2.0000    0.0000 F   0  0  0  0  0  0  0  0  0  0  0  0
    5.2690    1.0000    0.0000 F   0  0  0  0  0  0  0  0  0  0  0  0
    3.2690    1.0000    0.0000 F   0  0  0  0  0  0  0  0  0  0  0  0
    2.5369    0.0000    0.0000 N   0  0  0  0  0  0  0  0  0  0  0  0
    4.2690    0.0000    0.0000 C   0  0  0  0  0  0  0  0  0  0  0  0
    3.4030   -0.5000    0.0000 C   0  0  0  0  0  0  0  0  0  0  0  0
    5.1350   -0.5000    0.0000 C   0  0  0  0  0  0  0  0  0  0  0  0
    4.2690    1.0000    0.0000 C   0  0  0  0  0  0  0  0  0  0  0  0
    3.4030   -1.5000    0.0000 C   0  0  0  0  0  0  0  0  0  0  0  0
    5.1350   -1.5000    0.0000 C   0  0  0  0  0  0  0  0  0  0  0  0
    4.2690   -2.0000    0.0000 C   0  0  0  0  0  0  0  0  0  0  0  0
    5.6720   -0.1900    0.0000 H   0  0  0  0  0  0  0  0  0  0  0  0
    2.8660   -1.8100    0.0000 H   0  0  0  0  0  0  0  0  0  0  0  0
    5.6720   -1.8100    0.0000 H   0  0  0  0  0  0  0  0  0  0  0  0
    4.2690   -2.6200    0.0000 H   0  0  0  0  0  0  0  0  0  0  0  0
    2.0000   -0.3100    0.0000 H   0  0  0  0  0  0  0  0  0  0  0  0
    2.5369    0.6200    0.0000 H   0  0  0  0  0  0  0  0  0  0  0  0
  1  8  1  0  0  0  0
  2  8  1  0  0  0  0
  3  8  1  0  0  0  0
  4  6  1  0  0  0  0
  4 16  1  0  0  0  0
  4 17  1  0  0  0  0
  5  6  1  0  0  0  0
  5  7  2  0  0  0  0
  5  8  1  0  0  0  0
  6  9  2  0  0  0  0
  7 10  1  0  0  0  0
  7 12  1  0  0  0  0
  9 11  1  0  0  0  0
  9 13  1  0  0  0  0
 10 11  2  0  0  0  0
 10 14  1  0  0  0  0
 11 15  1  0  0  0  0
M  END
> <PUBCHEM_COMPOUND_CID>
6922

> <PUBCHEM_COMPOUND_CANONICALIZED>
1

> <PUBCHEM_CACTVS_COMPLEXITY>
132

> <PUBCHEM_CACTVS_HBOND_ACCEPTOR>
4

> <PUBCHEM_CACTVS_HBOND_DONOR>
1

> <PUBCHEM_CACTVS_ROTATABLE_BOND>
0

> <PUBCHEM_CACTVS_SUBSKEYS>
AAADcYBiAYAAAAAAAAAAAAAAAAAAAAAAAAAwAAAAAAAAAAABAAAAHQAQAAAADAiBGBAwwIBAAACAAiRCQACCAAAgAgAIiAAAZIgIICKAkZGAIABgkAAIyAcQgAAOAAAAAAACAAAAAAAAAAQAAAAAAAAAAA==

> <PUBCHEM_IUPAC_OPENEYE_NAME>
2-(trifluoromethyl)aniline

> <PUBCHEM_IUPAC_CAS_NAME>
2-(trifluoromethyl)aniline

> <PUBCHEM_IUPAC_NAME>
2-(trifluoromethyl)aniline

> <PUBCHEM_IUPAC_SYSTEMATIC_NAME>
2-(trifluoromethyl)aniline

> <PUBCHEM_IUPAC_TRADITIONAL_NAME>
[2-(trifluoromethyl)phenyl]amine

> <PUBCHEM_IUPAC_INCHI>
InChI=1S/C7H6F3N/c8-7(9,10)5-3-1-2-4-6(5)11/h1-4H,11H2

> <PUBCHEM_IUPAC_INCHIKEY>
VBLXCTYLWZJBKA-UHFFFAOYSA-N

> <PUBCHEM_XLOGP3>
2.4

> <PUBCHEM_EXACT_MASS>
161.045234

> <PUBCHEM_MOLECULAR_FORMULA>
C7H6F3N

> <PUBCHEM_MOLECULAR_WEIGHT>
161.12445

> <PUBCHEM_OPENEYE_CAN_SMILES>
C1=CC=C(C(=C1)C(F)(F)F)N

> <PUBCHEM_OPENEYE_ISO_SMILES>
C1=CC=C(C(=C1)C(F)(F)F)N

> <PUBCHEM_CACTVS_TPSA>
26

> <PUBCHEM_MONOISOTOPIC_WEIGHT>
161.045234

> <PUBCHEM_TOTAL_CHARGE>
0

> <PUBCHEM_HEAVY_ATOM_COUNT>
11

> <PUBCHEM_ATOM_DEF_STEREO_COUNT>
0

> <PUBCHEM_ATOM_UDEF_STEREO_COUNT>
0

> <PUBCHEM_BOND_DEF_STEREO_COUNT>
0

> <PUBCHEM_BOND_UDEF_STEREO_COUNT>
0

> <PUBCHEM_ISOTOPIC_ATOM_COUNT>
0

> <PUBCHEM_COMPONENT_COUNT>
1

> <PUBCHEM_CACTVS_TAUTO_COUNT>
1

> <PUBCHEM_COORDINATE_TYPE>
1
5
255

> <PUBCHEM_BONDANNOTATIONS>
10  11  8
5  6  8
5  7  8
6  9  8
7  10  8
9  11  8

$$$$

