4853
  -OEChem-06261200222D

 55 57  0     1  0  0  0  0  0999 V2000
    4.0981   -0.3349    0.0000 O   0  0  0  0  0  0  0  0  0  0  0  0
    6.3301    1.7990    0.0000 N   0  0  0  0  0  0  0  0  0  0  0  0
    3.7320   -2.7010    0.0000 N   0  0  0  0  0  0  0  0  0  0  0  0
    5.4641    2.2990    0.0000 C   0  0  3  0  0  0  0  0  0  0  0  0
    7.1962    2.2990    0.0000 C   0  0  3  0  0  0  0  0  0  0  0  0
    5.4641    3.2990    0.0000 C   0  0  0  0  0  0  0  0  0  0  0  0
    7.1962    3.2990    0.0000 C   0  0  0  0  0  0  0  0  0  0  0  0
    6.3301    3.7990    0.0000 C   0  0  0  0  0  0  0  0  0  0  0  0
    6.3301    0.7990    0.0000 C   0  0  0  0  0  0  0  0  0  0  0  0
    5.4641    0.2990    0.0000 C   0  0  0  0  0  0  0  0  0  0  0  0
    8.0622    1.7990    0.0000 C   0  0  0  0  0  0  0  0  0  0  0  0
    4.5981    1.7990    0.0000 C   0  0  0  0  0  0  0  0  0  0  0  0
    5.4641   -0.7010    0.0000 C   0  0  0  0  0  0  0  0  0  0  0  0
    4.5981   -1.2010    0.0000 C   0  0  3  0  0  0  0  0  0  0  0  0
    5.0981   -2.0670    0.0000 C   0  0  0  0  0  0  0  0  0  0  0  0
    3.7320   -1.7010    0.0000 C   0  0  0  0  0  0  0  0  0  0  0  0
    6.0981   -2.0670    0.0000 C   0  0  0  0  0  0  0  0  0  0  0  0
    4.5981   -2.9330    0.0000 C   0  0  0  0  0  0  0  0  0  0  0  0
    2.8660   -1.2010    0.0000 C   0  0  0  0  0  0  0  0  0  0  0  0
    6.5981   -2.9330    0.0000 C   0  0  0  0  0  0  0  0  0  0  0  0
    5.0981   -3.7990    0.0000 C   0  0  0  0  0  0  0  0  0  0  0  0
    2.0000   -1.7010    0.0000 C   0  0  0  0  0  0  0  0  0  0  0  0
    6.0981   -3.7990    0.0000 C   0  0  0  0  0  0  0  0  0  0  0  0
    2.8660   -3.2010    0.0000 C   0  0  0  0  0  0  0  0  0  0  0  0
    2.0000   -2.7010    0.0000 C   0  0  0  0  0  0  0  0  0  0  0  0
    5.4641    1.6790    0.0000 H   0  0  0  0  0  0  0  0  0  0  0  0
    7.1962    1.6790    0.0000 H   0  0  0  0  0  0  0  0  0  0  0  0
    5.2520    3.8816    0.0000 H   0  0  0  0  0  0  0  0  0  0  0  0
    4.8535    3.1914    0.0000 H   0  0  0  0  0  0  0  0  0  0  0  0
    7.8067    3.1914    0.0000 H   0  0  0  0  0  0  0  0  0  0  0  0
    7.4082    3.8816    0.0000 H   0  0  0  0  0  0  0  0  0  0  0  0
    6.7287    4.2740    0.0000 H   0  0  0  0  0  0  0  0  0  0  0  0
    5.9316    4.2740    0.0000 H   0  0  0  0  0  0  0  0  0  0  0  0
    6.5422    0.2164    0.0000 H   0  0  0  0  0  0  0  0  0  0  0  0
    6.9407    0.9067    0.0000 H   0  0  0  0  0  0  0  0  0  0  0  0
    5.2520    0.8816    0.0000 H   0  0  0  0  0  0  0  0  0  0  0  0
    4.8535    0.1914    0.0000 H   0  0  0  0  0  0  0  0  0  0  0  0
    7.7522    1.2621    0.0000 H   0  0  0  0  0  0  0  0  0  0  0  0
    8.5991    1.4890    0.0000 H   0  0  0  0  0  0  0  0  0  0  0  0
    8.3722    2.3360    0.0000 H   0  0  0  0  0  0  0  0  0  0  0  0
    4.2881    2.3360    0.0000 H   0  0  0  0  0  0  0  0  0  0  0  0
    4.0611    1.4890    0.0000 H   0  0  0  0  0  0  0  0  0  0  0  0
    4.9081    1.2621    0.0000 H   0  0  0  0  0  0  0  0  0  0  0  0
    5.6762   -1.2836    0.0000 H   0  0  0  0  0  0  0  0  0  0  0  0
    6.0747   -0.5933    0.0000 H   0  0  0  0  0  0  0  0  0  0  0  0
    3.4781   -0.3349    0.0000 H   0  0  0  0  0  0  0  0  0  0  0  0
    6.4081   -1.5300    0.0000 H   0  0  0  0  0  0  0  0  0  0  0  0
    3.9781   -2.9330    0.0000 H   0  0  0  0  0  0  0  0  0  0  0  0
    2.8660   -0.5810    0.0000 H   0  0  0  0  0  0  0  0  0  0  0  0
    7.2181   -2.9330    0.0000 H   0  0  0  0  0  0  0  0  0  0  0  0
    4.7881   -4.3360    0.0000 H   0  0  0  0  0  0  0  0  0  0  0  0
    1.4631   -1.3910    0.0000 H   0  0  0  0  0  0  0  0  0  0  0  0
    6.4081   -4.3360    0.0000 H   0  0  0  0  0  0  0  0  0  0  0  0
    2.8660   -3.8210    0.0000 H   0  0  0  0  0  0  0  0  0  0  0  0
    1.4631   -3.0110    0.0000 H   0  0  0  0  0  0  0  0  0  0  0  0
  1 14  1  0  0  0  0
  1 46  1  0  0  0  0
  2  4  1  0  0  0  0
  2  5  1  0  0  0  0
  2  9  1  0  0  0  0
  3 16  1  0  0  0  0
  3 24  2  0  0  0  0
  4  6  1  0  0  0  0
  4 12  1  0  0  0  0
  4 26  1  0  0  0  0
  5  7  1  0  0  0  0
  5 11  1  0  0  0  0
  5 27  1  0  0  0  0
  6  8  1  0  0  0  0
  6 28  1  0  0  0  0
  6 29  1  0  0  0  0
  7  8  1  0  0  0  0
  7 30  1  0  0  0  0
  7 31  1  0  0  0  0
  8 32  1  0  0  0  0
  8 33  1  0  0  0  0
  9 10  1  0  0  0  0
  9 34  1  0  0  0  0
  9 35  1  0  0  0  0
 10 13  1  0  0  0  0
 10 36  1  0  0  0  0
 10 37  1  0  0  0  0
 11 38  1  0  0  0  0
 11 39  1  0  0  0  0
 11 40  1  0  0  0  0
 12 41  1  0  0  0  0
 12 42  1  0  0  0  0
 12 43  1  0  0  0  0
 13 14  1  0  0  0  0
 13 44  1  0  0  0  0
 13 45  1  0  0  0  0
 14 15  1  0  0  0  0
 14 16  1  0  0  0  0
 15 17  2  0  0  0  0
 15 18  1  0  0  0  0
 16 19  2  0  0  0  0
 17 20  1  0  0  0  0
 17 47  1  0  0  0  0
 18 21  2  0  0  0  0
 18 48  1  0  0  0  0
 19 22  1  0  0  0  0
 19 49  1  0  0  0  0
 20 23  2  0  0  0  0
 20 50  1  0  0  0  0
 21 23  1  0  0  0  0
 21 51  1  0  0  0  0
 22 25  2  0  0  0  0
 22 52  1  0  0  0  0
 23 53  1  0  0  0  0
 24 25  1  0  0  0  0
 24 54  1  0  0  0  0
 25 55  1  0  0  0  0
M  END
> <PUBCHEM_COMPOUND_CID>
4853

> <PUBCHEM_COMPOUND_CANONICALIZED>
1

> <PUBCHEM_CACTVS_COMPLEXITY>
386

> <PUBCHEM_CACTVS_HBOND_ACCEPTOR>
3

> <PUBCHEM_CACTVS_HBOND_DONOR>
1

> <PUBCHEM_CACTVS_ROTATABLE_BOND>
6

> <PUBCHEM_CACTVS_SUBSKEYS>
AAADceB7IAAAAAAAAAAAAAAAAAAAAAAAAAA8WIAAAAAAAAABwAAAHgAACAAADGzBngQ+gJMIEgCgAzRnRASCgCAxAiAI2CA4bJgKJuLAkZGEcAhkwAHY2AewwOAOgAAAAAAAAAAAAAAAAAAAAAAAAAAAAA==

> <PUBCHEM_IUPAC_OPENEYE_NAME>
4-(2,6-dimethyl-1-piperidyl)-1-phenyl-1-(2-pyridyl)butan-1-ol

> <PUBCHEM_IUPAC_CAS_NAME>
4-(2,6-dimethyl-1-piperidinyl)-1-phenyl-1-(2-pyridinyl)-1-butanol

> <PUBCHEM_IUPAC_NAME>
4-(2,6-dimethylpiperidin-1-yl)-1-phenyl-1-pyridin-2-ylbutan-1-ol

> <PUBCHEM_IUPAC_SYSTEMATIC_NAME>
4-(2,6-dimethylpiperidin-1-yl)-1-phenyl-1-pyridin-2-yl-butan-1-ol

> <PUBCHEM_IUPAC_TRADITIONAL_NAME>
4-(2,6-dimethylpiperidino)-1-phenyl-1-(2-pyridyl)butan-1-ol

> <PUBCHEM_IUPAC_INCHI>
InChI=1S/C22H30N2O/c1-18-10-8-11-19(2)24(18)17-9-15-22(25,20-12-4-3-5-13-20)21-14-6-7-16-23-21/h3-7,12-14,16,18-19,25H,8-11,15,17H2,1-2H3

> <PUBCHEM_IUPAC_INCHIKEY>
APUDBKTWDCXQJA-UHFFFAOYSA-N

> <PUBCHEM_XLOGP3_AA>
4

> <PUBCHEM_EXACT_MASS>
338.235814

> <PUBCHEM_MOLECULAR_FORMULA>
C22H30N2O

> <PUBCHEM_MOLECULAR_WEIGHT>
338.4864

> <PUBCHEM_OPENEYE_CAN_SMILES>
CC1CCCC(N1CCCC(C2=CC=CC=C2)(C3=CC=CC=N3)O)C

> <PUBCHEM_OPENEYE_ISO_SMILES>
CC1CCCC(N1CCCC(C2=CC=CC=C2)(C3=CC=CC=N3)O)C

> <PUBCHEM_CACTVS_TPSA>
36.4

> <PUBCHEM_MONOISOTOPIC_WEIGHT>
338.235814

> <PUBCHEM_TOTAL_CHARGE>
0

> <PUBCHEM_HEAVY_ATOM_COUNT>
25

> <PUBCHEM_ATOM_DEF_STEREO_COUNT>
0

> <PUBCHEM_ATOM_UDEF_STEREO_COUNT>
3

> <PUBCHEM_BOND_DEF_STEREO_COUNT>
0

> <PUBCHEM_BOND_UDEF_STEREO_COUNT>
0

> <PUBCHEM_ISOTOPIC_ATOM_COUNT>
0

> <PUBCHEM_COMPONENT_COUNT>
1

> <PUBCHEM_CACTVS_TAUTO_COUNT>
1

> <PUBCHEM_COORDINATE_TYPE>
1
5
255

> <PUBCHEM_BONDANNOTATIONS>
14  1  3
15  17  8
15  18  8
16  19  8
17  20  8
18  21  8
19  22  8
20  23  8
21  23  8
22  25  8
24  25  8
3  16  8
3  24  8
4  12  3
5  11  3

$$$$

