13663
  -OEChem-06241222393D

 23 24  0     0  0  0  0  0  0999 V2000
   -2.7146   -1.0002   -1.1518 O   0  0  0  0  0  0  0  0  0  0  0  0
    0.2470   -0.1925   -0.0177 C   0  0  0  0  0  0  0  0  0  0  0  0
    1.3119    0.7389    0.0175 C   0  0  0  0  0  0  0  0  0  0  0  0
   -1.0763    0.2777   -0.0353 C   0  0  0  0  0  0  0  0  0  0  0  0
    0.5366   -1.5666   -0.0343 C   0  0  0  0  0  0  0  0  0  0  0  0
    1.0223    2.1130    0.0340 C   0  0  0  0  0  0  0  0  0  0  0  0
   -1.3456    1.6465   -0.0186 C   0  0  0  0  0  0  0  0  0  0  0  0
    2.6352    0.2688    0.0351 C   0  0  0  0  0  0  0  0  0  0  0  0
   -0.2984    2.5624    0.0160 C   0  0  0  0  0  0  0  0  0  0  0  0
   -2.2268   -0.6208   -0.0721 C   0  0  0  0  0  0  0  0  0  0  0  0
    1.8572   -2.0160   -0.0164 C   0  0  0  0  0  0  0  0  0  0  0  0
    2.9046   -1.1000    0.0183 C   0  0  0  0  0  0  0  0  0  0  0  0
   -2.8532   -1.1113    1.2253 C   0  0  0  0  0  0  0  0  0  0  0  0
   -0.2513   -2.3154   -0.0623 H   0  0  0  0  0  0  0  0  0  0  0  0
    1.8252    2.8469    0.0609 H   0  0  0  0  0  0  0  0  0  0  0  0
   -2.3695    2.0120   -0.0323 H   0  0  0  0  0  0  0  0  0  0  0  0
    3.4695    0.9667    0.0621 H   0  0  0  0  0  0  0  0  0  0  0  0
   -0.5086    3.6279    0.0291 H   0  0  0  0  0  0  0  0  0  0  0  0
    2.0680   -3.0813   -0.0297 H   0  0  0  0  0  0  0  0  0  0  0  0
    3.9325   -1.4506    0.0323 H   0  0  0  0  0  0  0  0  0  0  0  0
   -3.8908   -0.7714    1.2741 H   0  0  0  0  0  0  0  0  0  0  0  0
   -2.3112   -0.7124    2.0874 H   0  0  0  0  0  0  0  0  0  0  0  0
   -2.8072   -2.2028    1.2566 H   0  0  0  0  0  0  0  0  0  0  0  0
  1 10  2  0  0  0  0
  2  3  1  0  0  0  0
  2  4  1  0  0  0  0
  2  5  2  0  0  0  0
  3  6  1  0  0  0  0
  3  8  2  0  0  0  0
  4  7  2  0  0  0  0
  4 10  1  0  0  0  0
  5 11  1  0  0  0  0
  5 14  1  0  0  0  0
  6  9  2  0  0  0  0
  6 15  1  0  0  0  0
  7  9  1  0  0  0  0
  7 16  1  0  0  0  0
  8 12  1  0  0  0  0
  8 17  1  0  0  0  0
  9 18  1  0  0  0  0
 10 13  1  0  0  0  0
 11 12  2  0  0  0  0
 11 19  1  0  0  0  0
 12 20  1  0  0  0  0
 13 21  1  0  0  0  0
 13 22  1  0  0  0  0
 13 23  1  0  0  0  0
M  END
> <PUBCHEM_COMPOUND_CID>
13663

> <PUBCHEM_CONFORMER_RMSD>
0.4

> <PUBCHEM_CONFORMER_DIVERSEORDER>
1
4
2
3

> <PUBCHEM_MMFF94_PARTIAL_CHARGES>
18
1 -0.57
10 0.42
11 -0.15
12 -0.15
13 0.06
14 0.15
15 0.15
16 0.15
17 0.15
18 0.15
19 0.15
20 0.15
4 0.09
5 -0.15
6 -0.15
7 -0.15
8 -0.15
9 -0.15

> <PUBCHEM_EFFECTIVE_ROTOR_COUNT>
1

> <PUBCHEM_PHARMACOPHORE_FEATURES>
3
1 1 acceptor
6 2 3 4 6 7 9 rings
6 2 3 5 8 11 12 rings

> <PUBCHEM_HEAVY_ATOM_COUNT>
13

> <PUBCHEM_ATOM_DEF_STEREO_COUNT>
0

> <PUBCHEM_ATOM_UDEF_STEREO_COUNT>
0

> <PUBCHEM_BOND_DEF_STEREO_COUNT>
0

> <PUBCHEM_BOND_UDEF_STEREO_COUNT>
0

> <PUBCHEM_ISOTOPIC_ATOM_COUNT>
0

> <PUBCHEM_COMPONENT_COUNT>
1

> <PUBCHEM_CACTVS_TAUTO_COUNT>
2

> <PUBCHEM_CONFORMER_ID>
0000355F00000001

> <PUBCHEM_MMFF94_ENERGY>
43.6588

> <PUBCHEM_FEATURE_SELFOVERLAP>
15.249

> <PUBCHEM_SHAPE_FINGERPRINT>
10967382 1 18194402195359735522
11206711 2 18340766035096368884
11471102 22 18197761224915606459
11578080 2 17242484684066108873
12423570 1 8973802658515368838
13140716 1 18266460000056893704
13380535 76 17688880047689569446
16945 1 18338517413389592676
193761 8 18266178512121706980
20201158 50 18343588421299736939
20645476 183 16833996593077327494
20645477 70 18124607379652786991
20871998 184 18045218494813414991
21501502 16 18267022949999661122
22802520 49 17755851271126271054
2334 1 18410574019796058600
23388829 49 18335427824391528748
23419403 2 16831293800370411984
23552423 10 18271521021993604724
23559900 14 17252867664721204198
241688 4 18339081604667957000
2748010 2 18337397140122133476
81228 2 18124318460732653424
8809292 202 18053376888403595130

> <PUBCHEM_SHAPE_MULTIPOLES>
261.66
4.02
2.54
0.8
0.29
1.14
-0.02
-2.09
-0.2
-0.14
-0.06
0.51
-0.22
0.12

> <PUBCHEM_SHAPE_SELFOVERLAP>
571.77

> <PUBCHEM_SHAPE_VOLUME>
143.6

> <PUBCHEM_COORDINATE_TYPE>
2
5
10

$$$$

