585204
  -OEChem-06241222453D

 61 61  0     1  0  0  0  0  0999 V2000
   -2.4002    0.6990   -0.7222 Si  0  0  0  0  0  0  0  0  0  0  0  0
   -1.6237   -0.5582    0.0600 O   0  0  0  0  0  0  0  0  0  0  0  0
   -1.8534   -1.8986   -0.3667 C   0  0  1  0  0  0  0  0  0  0  0  0
   -0.6824   -2.7675    0.1129 C   0  0  0  0  0  0  0  0  0  0  0  0
    0.5625   -2.5927   -0.7651 C   0  0  0  0  0  0  0  0  0  0  0  0
   -3.1798   -2.4111    0.2103 C   0  0  0  0  0  0  0  0  0  0  0  0
    1.7556   -3.4342   -0.3000 C   0  0  0  0  0  0  0  0  0  0  0  0
    3.0245   -3.3130   -1.1499 C   0  0  0  0  0  0  0  0  0  0  0  0
    3.6632   -1.9210   -1.1927 C   0  0  0  0  0  0  0  0  0  0  0  0
   -3.1934   -2.4231    1.7416 C   0  0  0  0  0  0  0  0  0  0  0  0
    4.0415   -1.3237    0.1669 C   0  0  0  0  0  0  0  0  0  0  0  0
   -1.4022    2.2679   -0.3273 C   0  0  0  0  0  0  0  0  0  0  0  0
   -4.1533    0.9313   -0.0973 C   0  0  0  0  0  0  0  0  0  0  0  0
   -2.4227    0.4555   -2.5817 C   0  0  0  0  0  0  0  0  0  0  0  0
    4.6306    0.0856    0.0652 C   0  0  0  0  0  0  0  0  0  0  0  0
   -4.5348   -2.8966    2.2805 C   0  0  0  0  0  0  0  0  0  0  0  0
    4.9345    0.7119    1.4286 C   0  0  0  0  0  0  0  0  0  0  0  0
   -2.0419    3.5064   -0.2746 C   0  0  0  0  0  0  0  0  0  0  0  0
   -0.0302    2.1811   -0.0906 C   0  0  0  0  0  0  0  0  0  0  0  0
   -1.3098    4.6579    0.0145 C   0  0  0  0  0  0  0  0  0  0  0  0
    0.7019    3.3327    0.1985 C   0  0  0  0  0  0  0  0  0  0  0  0
    5.4515    2.1395    1.3382 C   0  0  0  0  0  0  0  0  0  0  0  0
    0.0620    4.5711    0.2511 C   0  0  0  0  0  0  0  0  0  0  0  0
   -1.8996   -1.9691   -1.4613 H   0  0  0  0  0  0  0  0  0  0  0  0
   -0.9662   -3.8268    0.0932 H   0  0  0  0  0  0  0  0  0  0  0  0
   -0.4122   -2.5085    1.1439 H   0  0  0  0  0  0  0  0  0  0  0  0
    0.8455   -1.5339   -0.7688 H   0  0  0  0  0  0  0  0  0  0  0  0
    0.3193   -2.8605   -1.8006 H   0  0  0  0  0  0  0  0  0  0  0  0
   -3.3469   -3.4347   -0.1504 H   0  0  0  0  0  0  0  0  0  0  0  0
   -4.0260   -1.8300   -0.1595 H   0  0  0  0  0  0  0  0  0  0  0  0
    1.9849   -3.1983    0.7454 H   0  0  0  0  0  0  0  0  0  0  0  0
    1.4521   -4.4892   -0.3058 H   0  0  0  0  0  0  0  0  0  0  0  0
    2.7989   -3.6273   -2.1763 H   0  0  0  0  0  0  0  0  0  0  0  0
    3.7656   -4.0239   -0.7638 H   0  0  0  0  0  0  0  0  0  0  0  0
    4.5657   -1.9784   -1.8143 H   0  0  0  0  0  0  0  0  0  0  0  0
    2.9839   -1.2327   -1.7101 H   0  0  0  0  0  0  0  0  0  0  0  0
   -2.4173   -3.0901    2.1312 H   0  0  0  0  0  0  0  0  0  0  0  0
   -2.9908   -1.4210    2.1350 H   0  0  0  0  0  0  0  0  0  0  0  0
    4.7591   -1.9854    0.6668 H   0  0  0  0  0  0  0  0  0  0  0  0
    3.1527   -1.2753    0.8058 H   0  0  0  0  0  0  0  0  0  0  0  0
   -4.5872    1.8631   -0.4710 H   0  0  0  0  0  0  0  0  0  0  0  0
   -4.1739    0.9596    0.9962 H   0  0  0  0  0  0  0  0  0  0  0  0
   -4.8111    0.1264   -0.4330 H   0  0  0  0  0  0  0  0  0  0  0  0
   -1.4146    0.2608   -2.9596 H   0  0  0  0  0  0  0  0  0  0  0  0
   -2.8080    1.3492   -3.0819 H   0  0  0  0  0  0  0  0  0  0  0  0
   -3.0632   -0.3869   -2.8592 H   0  0  0  0  0  0  0  0  0  0  0  0
    3.9245    0.7304   -0.4731 H   0  0  0  0  0  0  0  0  0  0  0  0
    5.5494    0.0532   -0.5328 H   0  0  0  0  0  0  0  0  0  0  0  0
   -4.5232   -2.9026    3.3749 H   0  0  0  0  0  0  0  0  0  0  0  0
   -5.3438   -2.2355    1.9534 H   0  0  0  0  0  0  0  0  0  0  0  0
   -4.7595   -3.9116    1.9374 H   0  0  0  0  0  0  0  0  0  0  0  0
    5.6749    0.0966    1.9534 H   0  0  0  0  0  0  0  0  0  0  0  0
    4.0251    0.7073    2.0415 H   0  0  0  0  0  0  0  0  0  0  0  0
   -3.1064    3.6129   -0.4624 H   0  0  0  0  0  0  0  0  0  0  0  0
    0.4953    1.2298   -0.1286 H   0  0  0  0  0  0  0  0  0  0  0  0
   -1.8071    5.6228    0.0533 H   0  0  0  0  0  0  0  0  0  0  0  0
    1.7704    3.2652    0.3818 H   0  0  0  0  0  0  0  0  0  0  0  0
    6.3798    2.1819    0.7599 H   0  0  0  0  0  0  0  0  0  0  0  0
    5.6534    2.5352    2.3383 H   0  0  0  0  0  0  0  0  0  0  0  0
    4.7159    2.7908    0.8556 H   0  0  0  0  0  0  0  0  0  0  0  0
    0.6322    5.4678    0.4755 H   0  0  0  0  0  0  0  0  0  0  0  0
  1  2  1  0  0  0  0
  1 12  1  0  0  0  0
  1 13  1  0  0  0  0
  1 14  1  0  0  0  0
  2  3  1  0  0  0  0
  3  4  1  0  0  0  0
  3  6  1  0  0  0  0
  3 24  1  0  0  0  0
  4  5  1  0  0  0  0
  4 25  1  0  0  0  0
  4 26  1  0  0  0  0
  5  7  1  0  0  0  0
  5 27  1  0  0  0  0
  5 28  1  0  0  0  0
  6 10  1  0  0  0  0
  6 29  1  0  0  0  0
  6 30  1  0  0  0  0
  7  8  1  0  0  0  0
  7 31  1  0  0  0  0
  7 32  1  0  0  0  0
  8  9  1  0  0  0  0
  8 33  1  0  0  0  0
  8 34  1  0  0  0  0
  9 11  1  0  0  0  0
  9 35  1  0  0  0  0
  9 36  1  0  0  0  0
 10 16  1  0  0  0  0
 10 37  1  0  0  0  0
 10 38  1  0  0  0  0
 11 15  1  0  0  0  0
 11 39  1  0  0  0  0
 11 40  1  0  0  0  0
 12 18  2  0  0  0  0
 12 19  1  0  0  0  0
 13 41  1  0  0  0  0
 13 42  1  0  0  0  0
 13 43  1  0  0  0  0
 14 44  1  0  0  0  0
 14 45  1  0  0  0  0
 14 46  1  0  0  0  0
 15 17  1  0  0  0  0
 15 47  1  0  0  0  0
 15 48  1  0  0  0  0
 16 49  1  0  0  0  0
 16 50  1  0  0  0  0
 16 51  1  0  0  0  0
 17 22  1  0  0  0  0
 17 52  1  0  0  0  0
 17 53  1  0  0  0  0
 18 20  1  0  0  0  0
 18 54  1  0  0  0  0
 19 21  2  0  0  0  0
 19 55  1  0  0  0  0
 20 23  2  0  0  0  0
 20 56  1  0  0  0  0
 21 23  1  0  0  0  0
 21 57  1  0  0  0  0
 22 58  1  0  0  0  0
 22 59  1  0  0  0  0
 22 60  1  0  0  0  0
 23 61  1  0  0  0  0
M  END
> <PUBCHEM_COMPOUND_CID>
585204

> <PUBCHEM_CONFORMER_RMSD>
1.4

> <PUBCHEM_CONFORMER_DIVERSEORDER>
1
93
46
52
18
71
31
70
13
48
55
89
81
14
67
51
80
59
94
84
24
86
5
32
36
20
88
47
29
22
82
15
8
83
26
64
66
69
40
43
42
90
78
56
7
76
73
9
4
39
63
16
62
96
37
49
11
12
33
91
65
34
6
30
74
54
85
2
17
58
87
19
41
75
68
38
77
95
44
61
10
27
23
72
50
45
92
35
57
28
21
60
53
79
3
25

> <PUBCHEM_MMFF94_PARTIAL_CHARGES>
16
1 0.68
12 -0.22
13 -0.08
14 -0.08
18 -0.15
19 -0.15
2 -0.58
20 -0.15
21 -0.15
23 -0.15
3 0.28
54 0.15
55 0.15
56 0.15
57 0.15
61 0.15

> <PUBCHEM_EFFECTIVE_ROTOR_COUNT>
13

> <PUBCHEM_PHARMACOPHORE_FEATURES>
3
1 16 hydrophobe
1 22 hydrophobe
6 12 18 19 20 21 23 rings

> <PUBCHEM_HEAVY_ATOM_COUNT>
23

> <PUBCHEM_ATOM_DEF_STEREO_COUNT>
0

> <PUBCHEM_ATOM_UDEF_STEREO_COUNT>
1

> <PUBCHEM_BOND_DEF_STEREO_COUNT>
0

> <PUBCHEM_BOND_UDEF_STEREO_COUNT>
0

> <PUBCHEM_ISOTOPIC_ATOM_COUNT>
0

> <PUBCHEM_COMPONENT_COUNT>
1

> <PUBCHEM_CACTVS_TAUTO_COUNT>
1

> <PUBCHEM_CONFORMER_ID>
0008EDF400000001

> <PUBCHEM_MMFF94_ENERGY>
24.2216

> <PUBCHEM_FEATURE_SELFOVERLAP>
15.223

> <PUBCHEM_SHAPE_FINGERPRINT>
12553582 1 18193551169355228164
12788726 201 18053942033618359939
13402501 40 18335147462338686666
14251764 38 18192165982552410970
14363568 33 17979899528453654344
18785283 64 17834939885462712195
19930381 70 18337676295510477863
20398071 114 17976827806841366532
20642791 268 17970886905035676499
20764821 26 18120668937317383772
21049683 118 17485648474928135577
21796203 349 17838312117974481872
23227448 37 17398955371548952277
23558518 356 18051414268695491846
23559900 14 17684663399792586156
3187 122 18273215270411702774
474 4 16685685746202929727
50150288 127 16226870307225642424
508706 21 18193277631726169014
5309563 4 18266460914673885266

> <PUBCHEM_SHAPE_MULTIPOLES>
485.67
9.4
6.97
1.64
12.09
4.63
0.08
-2.7
3.7
-1.63
0.97
-0.96
-1.03
4.15

> <PUBCHEM_SHAPE_SELFOVERLAP>
920.522

> <PUBCHEM_SHAPE_VOLUME>
300.8

> <PUBCHEM_COORDINATE_TYPE>
2
5
10

$$$$

