17396161
  -OEChem-06241222553D

 42 44  0     0  0  0  0  0  0999 V2000
   -4.9102   -0.6413   -1.2499 F   0  0  0  0  0  0  0  0  0  0  0  0
   -3.2222   -2.0000   -1.0726 F   0  0  0  0  0  0  0  0  0  0  0  0
   -4.3787   -1.4667    0.6970 F   0  0  0  0  0  0  0  0  0  0  0  0
    2.5249   -1.7118   -0.6301 O   0  0  0  0  0  0  0  0  0  0  0  0
   -0.4792   -1.9565   -0.8465 O   0  0  0  0  0  0  0  0  0  0  0  0
   -1.8346    0.0748    0.5839 N   0  0  0  0  0  0  0  0  0  0  0  0
   -3.1127    1.4089   -0.6519 N   0  0  0  0  0  0  0  0  0  0  0  0
    0.4798   -2.6492    1.1525 N   0  0  0  0  0  0  0  0  0  0  0  0
   -1.2293    1.3046    0.6271 C   0  0  0  0  0  0  0  0  0  0  0  0
   -1.3678   -1.1241    1.2430 C   0  0  0  0  0  0  0  0  0  0  0  0
   -2.9549    0.1881   -0.1916 C   0  0  0  0  0  0  0  0  0  0  0  0
   -2.0460    2.1197   -0.1518 C   0  0  0  0  0  0  0  0  0  0  0  0
   -0.0729    1.7600    1.2612 C   0  0  0  0  0  0  0  0  0  0  0  0
   -0.4288   -1.9398    0.3804 C   0  0  0  0  0  0  0  0  0  0  0  0
   -1.7039    3.4723   -0.3190 C   0  0  0  0  0  0  0  0  0  0  0  0
   -3.8493   -0.9588   -0.4522 C   0  0  0  0  0  0  0  0  0  0  0  0
    1.4922   -3.5071    0.5818 C   0  0  0  0  0  0  0  0  0  0  0  0
    0.2525    3.1089    1.0842 C   0  0  0  0  0  0  0  0  0  0  0  0
   -0.5470    3.9514    0.3085 C   0  0  0  0  0  0  0  0  0  0  0  0
    2.7780   -2.7479    0.3099 C   0  0  0  0  0  0  0  0  0  0  0  0
    3.3064   -0.5898   -0.5381 C   0  0  0  0  0  0  0  0  0  0  0  0
    4.6136   -0.6872   -0.0608 C   0  0  0  0  0  0  0  0  0  0  0  0
    2.7946    0.6500   -0.9214 C   0  0  0  0  0  0  0  0  0  0  0  0
    5.4087    0.4549    0.0335 C   0  0  0  0  0  0  0  0  0  0  0  0
    3.5898    1.7921   -0.8272 C   0  0  0  0  0  0  0  0  0  0  0  0
    4.8969    1.6945   -0.3498 C   0  0  0  0  0  0  0  0  0  0  0  0
   -0.8787   -0.8217    2.1756 H   0  0  0  0  0  0  0  0  0  0  0  0
   -2.2220   -1.7469    1.5209 H   0  0  0  0  0  0  0  0  0  0  0  0
    0.5531    1.1089    1.8607 H   0  0  0  0  0  0  0  0  0  0  0  0
   -2.3184    4.1350   -0.9199 H   0  0  0  0  0  0  0  0  0  0  0  0
    1.6713   -4.3222    1.2897 H   0  0  0  0  0  0  0  0  0  0  0  0
    1.1015   -3.9320   -0.3493 H   0  0  0  0  0  0  0  0  0  0  0  0
    0.4457   -2.5714    2.1647 H   0  0  0  0  0  0  0  0  0  0  0  0
    1.1463    3.5074    1.5580 H   0  0  0  0  0  0  0  0  0  0  0  0
   -0.2676    4.9951    0.1886 H   0  0  0  0  0  0  0  0  0  0  0  0
    3.1373   -2.3483    1.2676 H   0  0  0  0  0  0  0  0  0  0  0  0
    3.5281   -3.4320   -0.1025 H   0  0  0  0  0  0  0  0  0  0  0  0
    5.0598   -1.6364    0.2208 H   0  0  0  0  0  0  0  0  0  0  0  0
    1.7777    0.7311   -1.2954 H   0  0  0  0  0  0  0  0  0  0  0  0
    6.4286    0.3786    0.3990 H   0  0  0  0  0  0  0  0  0  0  0  0
    3.1910    2.7572   -1.1256 H   0  0  0  0  0  0  0  0  0  0  0  0
    5.5164    2.5836   -0.2779 H   0  0  0  0  0  0  0  0  0  0  0  0
  1 16  1  0  0  0  0
  2 16  1  0  0  0  0
  3 16  1  0  0  0  0
  4 20  1  0  0  0  0
  4 21  1  0  0  0  0
  5 14  2  0  0  0  0
  6  9  1  0  0  0  0
  6 10  1  0  0  0  0
  6 11  1  0  0  0  0
  7 11  2  0  0  0  0
  7 12  1  0  0  0  0
  8 14  1  0  0  0  0
  8 17  1  0  0  0  0
  8 33  1  0  0  0  0
  9 12  1  0  0  0  0
  9 13  2  0  0  0  0
 10 14  1  0  0  0  0
 10 27  1  0  0  0  0
 10 28  1  0  0  0  0
 11 16  1  0  0  0  0
 12 15  2  0  0  0  0
 13 18  1  0  0  0  0
 13 29  1  0  0  0  0
 15 19  1  0  0  0  0
 15 30  1  0  0  0  0
 17 20  1  0  0  0  0
 17 31  1  0  0  0  0
 17 32  1  0  0  0  0
 18 19  2  0  0  0  0
 18 34  1  0  0  0  0
 19 35  1  0  0  0  0
 20 36  1  0  0  0  0
 20 37  1  0  0  0  0
 21 22  2  0  0  0  0
 21 23  1  0  0  0  0
 22 24  1  0  0  0  0
 22 38  1  0  0  0  0
 23 25  2  0  0  0  0
 23 39  1  0  0  0  0
 24 26  2  0  0  0  0
 24 40  1  0  0  0  0
 25 26  1  0  0  0  0
 25 41  1  0  0  0  0
 26 42  1  0  0  0  0
M  END
> <PUBCHEM_COMPOUND_CID>
17396161

> <PUBCHEM_CONFORMER_RMSD>
1

> <PUBCHEM_CONFORMER_DIVERSEORDER>
1
20
131
115
22
82
5
6
136
67
59
109
127
93
120
125
47
95
121
138
54
36
83
126
92
141
76
30
110
117
75
86
19
34
37
2
139
43
132
17
49
60
74
113
114
61
35
31
134
104
50
94
71
18
27
140
28
58
73
84
66
13
40
144
91
118
105
64
119
26
143
48
107
63
70
11
116
102
45
4
80
55
128
111
72
38
100
57
96
12
79
46
7
23
53
103
142
88
137
98
33
24
112
81
77
42
78
87
9
3
16
85
21
129
124
99
69
133
123
108
97
8
56
68
52
32
41
65
106
25
101
90
135
51
145
14
29
44
130
122
89
15
39
62
10

> <PUBCHEM_MMFF94_PARTIAL_CHARGES>
36
1 -0.34
10 0.32
11 0.01
12 0.23
13 -0.15
14 0.57
15 -0.15
16 1.2
17 0.3
18 -0.15
19 -0.15
2 -0.34
20 0.28
21 0.08
22 -0.15
23 -0.15
24 -0.15
25 -0.15
26 -0.15
29 0.15
3 -0.34
30 0.15
33 0.37
34 0.15
35 0.15
38 0.15
39 0.15
4 -0.36
40 0.15
41 0.15
42 0.15
5 -0.57
6 0.05
7 -0.57
8 -0.73
9 -0.15

> <PUBCHEM_EFFECTIVE_ROTOR_COUNT>
8

> <PUBCHEM_PHARMACOPHORE_FEATURES>
7
1 4 acceptor
1 5 acceptor
1 8 donor
3 6 7 11 cation
5 6 7 9 11 12 rings
6 21 22 23 24 25 26 rings
6 9 12 13 15 18 19 rings

> <PUBCHEM_HEAVY_ATOM_COUNT>
26

> <PUBCHEM_ATOM_DEF_STEREO_COUNT>
0

> <PUBCHEM_ATOM_UDEF_STEREO_COUNT>
0

> <PUBCHEM_BOND_DEF_STEREO_COUNT>
0

> <PUBCHEM_BOND_UDEF_STEREO_COUNT>
0

> <PUBCHEM_ISOTOPIC_ATOM_COUNT>
0

> <PUBCHEM_COMPONENT_COUNT>
1

> <PUBCHEM_CACTVS_TAUTO_COUNT>
2

> <PUBCHEM_CONFORMER_ID>
010971C100000001

> <PUBCHEM_MMFF94_ENERGY>
48.3951

> <PUBCHEM_FEATURE_SELFOVERLAP>
35.628

> <PUBCHEM_SHAPE_FINGERPRINT>
10498660 4 18410009978984215164
10670039 82 18340749504548085604
10693767 8 18043267751265665111
10708813 3 18053095413790706020
11135609 187 18266739082806087145
11370993 70 18342175592250751356
12107698 1 18263077876752744262
12403260 363 18341334495988800242
12788726 201 18411418402051142824
12838863 1 18340222812424064722
13122387 1 18411129273432258348
13402501 40 18189900821016535376
13583140 156 16909732041031238577
14787075 74 18337108969148964158
14790565 3 17614559667966819393
14931854 50 18410853253042668532
14932702 115 17544171806889753180
16989378 47 17534371975809721975
17492 54 18337671901801099629
17492 89 18266175226161067414
192875 21 18273211989452262724
19930381 70 18411980239090978592
20715895 44 18131640001525000701
20764821 26 17906173945343565884
20905425 154 18262800795004668502
2132832 1 17982475954770573514
22113638 7 18193837042314938564
22393880 68 18193549193923213430
22749437 52 18271236235839877300
23227448 37 18050849124108883589
23352939 185 18187083953877582995
23558518 356 18194949962862605136
23559900 14 18119535581568724648
463206 1 18265050245386950758
469060 322 18268971168360675073
6669772 16 17903088732769632789
9709674 26 18338788013978757806
9981440 41 18343864429062863322

> <PUBCHEM_SHAPE_MULTIPOLES>
486.56
9.02
4.62
1.1
5
1.15
0.08
-0.66
-2.6
-0.35
0.82
-0.36
-0.05
-0.69

> <PUBCHEM_SHAPE_SELFOVERLAP>
1053.105

> <PUBCHEM_SHAPE_VOLUME>
269

> <PUBCHEM_COORDINATE_TYPE>
2
5
10

$$$$

