11304
  -OEChem-06261205313D

 24 25  0     0  0  0  0  0  0999 V2000
    0.2162    0.7076   -0.0001 C   0  0  0  0  0  0  0  0  0  0  0  0
    0.2161   -0.7076    0.0000 C   0  0  0  0  0  0  0  0  0  0  0  0
   -1.0089    1.3945   -0.0001 C   0  0  0  0  0  0  0  0  0  0  0  0
   -1.0089   -1.3943    0.0000 C   0  0  0  0  0  0  0  0  0  0  0  0
   -2.2165    0.6959   -0.0002 C   0  0  0  0  0  0  0  0  0  0  0  0
   -2.2165   -0.6958   -0.0001 C   0  0  0  0  0  0  0  0  0  0  0  0
    1.4412    1.3943   -0.0001 C   0  0  0  0  0  0  0  0  0  0  0  0
    1.4411   -1.3945    0.0001 C   0  0  0  0  0  0  0  0  0  0  0  0
   -1.0805    2.8903    0.0003 C   0  0  0  0  0  0  0  0  0  0  0  0
   -1.0810   -2.8901    0.0001 C   0  0  0  0  0  0  0  0  0  0  0  0
    2.6489    0.6957   -0.0001 C   0  0  0  0  0  0  0  0  0  0  0  0
    2.6489   -0.6960    0.0000 C   0  0  0  0  0  0  0  0  0  0  0  0
   -3.1683    1.2206   -0.0002 H   0  0  0  0  0  0  0  0  0  0  0  0
   -3.1683   -1.2205    0.0000 H   0  0  0  0  0  0  0  0  0  0  0  0
    1.4908    2.4801   -0.0001 H   0  0  0  0  0  0  0  0  0  0  0  0
    1.4906   -2.4803    0.0001 H   0  0  0  0  0  0  0  0  0  0  0  0
   -0.5998    3.2990   -0.8947 H   0  0  0  0  0  0  0  0  0  0  0  0
   -0.6001    3.2984    0.8958 H   0  0  0  0  0  0  0  0  0  0  0  0
   -2.1152    3.2513    0.0002 H   0  0  0  0  0  0  0  0  0  0  0  0
   -2.1157   -3.2508    0.0001 H   0  0  0  0  0  0  0  0  0  0  0  0
   -0.6006   -3.2985    0.8955 H   0  0  0  0  0  0  0  0  0  0  0  0
   -0.6004   -3.2987   -0.8950 H   0  0  0  0  0  0  0  0  0  0  0  0
    3.5897    1.2385   -0.0001 H   0  0  0  0  0  0  0  0  0  0  0  0
    3.5896   -1.2389    0.0001 H   0  0  0  0  0  0  0  0  0  0  0  0
  1  2  1  0  0  0  0
  1  3  1  0  0  0  0
  1  7  2  0  0  0  0
  2  4  1  0  0  0  0
  2  8  2  0  0  0  0
  3  5  2  0  0  0  0
  3  9  1  0  0  0  0
  4  6  2  0  0  0  0
  4 10  1  0  0  0  0
  5  6  1  0  0  0  0
  5 13  1  0  0  0  0
  6 14  1  0  0  0  0
  7 11  1  0  0  0  0
  7 15  1  0  0  0  0
  8 12  1  0  0  0  0
  8 16  1  0  0  0  0
  9 17  1  0  0  0  0
  9 18  1  0  0  0  0
  9 19  1  0  0  0  0
 10 20  1  0  0  0  0
 10 21  1  0  0  0  0
 10 22  1  0  0  0  0
 11 12  2  0  0  0  0
 11 23  1  0  0  0  0
 12 24  1  0  0  0  0
M  END
> <PUBCHEM_COMPOUND_CID>
11304

> <PUBCHEM_CONFORMER_RMSD>
0.4

> <PUBCHEM_CONFORMER_DIVERSEORDER>
1

> <PUBCHEM_MMFF94_PARTIAL_CHARGES>
16
10 0.14
11 -0.15
12 -0.15
13 0.15
14 0.15
15 0.15
16 0.15
23 0.15
24 0.15
3 -0.14
4 -0.14
5 -0.15
6 -0.15
7 -0.15
8 -0.15
9 0.14

> <PUBCHEM_EFFECTIVE_ROTOR_COUNT>
0

> <PUBCHEM_PHARMACOPHORE_FEATURES>
2
6 1 2 3 4 5 6 rings
6 1 2 7 8 11 12 rings

> <PUBCHEM_HEAVY_ATOM_COUNT>
12

> <PUBCHEM_ATOM_DEF_STEREO_COUNT>
0

> <PUBCHEM_ATOM_UDEF_STEREO_COUNT>
0

> <PUBCHEM_BOND_DEF_STEREO_COUNT>
0

> <PUBCHEM_BOND_UDEF_STEREO_COUNT>
0

> <PUBCHEM_ISOTOPIC_ATOM_COUNT>
0

> <PUBCHEM_COMPONENT_COUNT>
1

> <PUBCHEM_CACTVS_TAUTO_COUNT>
1

> <PUBCHEM_CONFORMER_ID>
00002C2800000001

> <PUBCHEM_MMFF94_ENERGY>
38.6736

> <PUBCHEM_FEATURE_SELFOVERLAP>
10.175

> <PUBCHEM_SHAPE_FINGERPRINT>
1 1 17762620998250990132
10967382 1 18338517409062989863
11206711 2 18338796839609056772
12382932 28 18265336109878143448
12423570 1 13084178376251153558
12524768 44 18335133150901261254
13380535 76 17908709779976837017
16945 1 18410855460333877126
193761 8 18410856568514567270
20510252 161 18261113031829549296
20588541 1 18335416829185411251
20871998 184 18188205390596317967
21040471 1 18266458900460875904
2334 1 17978510828114225730
23402539 116 18261687994975159575
23552423 10 18127691522093853078
23559900 14 17684926200610801214
241688 4 18411420570529410752
2748010 2 18048880697536398124
2897 32 18195808693964471924
5084963 1 18041848448640180008
528886 8 18337677403638517802
66348 1 18339643454961777796

> <PUBCHEM_SHAPE_MULTIPOLES>
246.95
3.32
2.9
0.62
1.4
0
0
0
0
-1.31
0
0
0
0

> <PUBCHEM_SHAPE_SELFOVERLAP>
538.805

> <PUBCHEM_SHAPE_VOLUME>
127.4

> <PUBCHEM_COORDINATE_TYPE>
2
5
10

$$$$

