17396580
  -OEChem-06241222572D

 49 52  0     1  0  0  0  0  0999 V2000
   14.1904   -0.0241    0.0000 Cl  0  0  0  0  0  0  0  0  0  0  0  0
    2.0000    2.0000    0.0000 F   0  0  0  0  0  0  0  0  0  0  0  0
    2.8660    0.5000    0.0000 F   0  0  0  0  0  0  0  0  0  0  0  0
    3.7320    2.0000    0.0000 O   0  0  0  0  0  0  0  0  0  0  0  0
   10.6603    3.0000    0.0000 O   0  0  0  0  0  0  0  0  0  0  0  0
    8.0622    0.5000    0.0000 N   0  0  0  0  0  0  0  0  0  0  0  0
   10.6603    0.0000    0.0000 N   0  0  0  0  0  0  0  0  0  0  0  0
    9.7942    1.5000    0.0000 N   0  0  0  0  0  0  0  0  0  0  0  0
    7.1962    0.0000    0.0000 C   0  0  3  0  0  0  0  0  0  0  0  0
    6.3301    0.5000    0.0000 C   0  0  0  0  0  0  0  0  0  0  0  0
    7.1962   -1.0000    0.0000 C   0  0  0  0  0  0  0  0  0  0  0  0
    8.9282    0.0000    0.0000 C   0  0  0  0  0  0  0  0  0  0  0  0
    9.7942    0.5000    0.0000 C   0  0  0  0  0  0  0  0  0  0  0  0
    6.3301    1.5000    0.0000 C   0  0  0  0  0  0  0  0  0  0  0  0
    5.4641    0.0000    0.0000 C   0  0  0  0  0  0  0  0  0  0  0  0
    6.3301   -1.5000    0.0000 C   0  0  0  0  0  0  0  0  0  0  0  0
    8.0622   -1.5000    0.0000 C   0  0  0  0  0  0  0  0  0  0  0  0
   11.5263    0.5000    0.0000 C   0  0  0  0  0  0  0  0  0  0  0  0
   11.5263    1.5000    0.0000 C   0  0  0  0  0  0  0  0  0  0  0  0
    5.4641    2.0000    0.0000 C   0  0  0  0  0  0  0  0  0  0  0  0
    4.5981    0.5000    0.0000 C   0  0  0  0  0  0  0  0  0  0  0  0
    4.5981    1.5000    0.0000 C   0  0  0  0  0  0  0  0  0  0  0  0
    6.3301   -2.5000    0.0000 C   0  0  0  0  0  0  0  0  0  0  0  0
    8.0622   -2.5000    0.0000 C   0  0  0  0  0  0  0  0  0  0  0  0
   10.6603    2.0000    0.0000 C   0  0  0  0  0  0  0  0  0  0  0  0
   12.4202   -0.0347    0.0000 C   0  0  0  0  0  0  0  0  0  0  0  0
    7.1962   -3.0000    0.0000 C   0  0  0  0  0  0  0  0  0  0  0  0
   12.4202    2.0347    0.0000 C   0  0  0  0  0  0  0  0  0  0  0  0
   13.3263    0.4792    0.0000 C   0  0  0  0  0  0  0  0  0  0  0  0
   13.3263    1.5208    0.0000 C   0  0  0  0  0  0  0  0  0  0  0  0
    2.8660    1.5000    0.0000 C   0  0  0  0  0  0  0  0  0  0  0  0
    7.7331   -0.3100    0.0000 H   0  0  0  0  0  0  0  0  0  0  0  0
    8.0622    1.1200    0.0000 H   0  0  0  0  0  0  0  0  0  0  0  0
    8.5297   -0.4749    0.0000 H   0  0  0  0  0  0  0  0  0  0  0  0
    9.3267   -0.4749    0.0000 H   0  0  0  0  0  0  0  0  0  0  0  0
    6.8671    1.8100    0.0000 H   0  0  0  0  0  0  0  0  0  0  0  0
    5.4641   -0.6200    0.0000 H   0  0  0  0  0  0  0  0  0  0  0  0
    5.7932   -1.1900    0.0000 H   0  0  0  0  0  0  0  0  0  0  0  0
    8.5991   -1.1900    0.0000 H   0  0  0  0  0  0  0  0  0  0  0  0
   10.6603   -0.6200    0.0000 H   0  0  0  0  0  0  0  0  0  0  0  0
    5.4641    2.6200    0.0000 H   0  0  0  0  0  0  0  0  0  0  0  0
    4.0611    0.1900    0.0000 H   0  0  0  0  0  0  0  0  0  0  0  0
    5.7932   -2.8100    0.0000 H   0  0  0  0  0  0  0  0  0  0  0  0
    8.5991   -2.8100    0.0000 H   0  0  0  0  0  0  0  0  0  0  0  0
   12.4131   -0.6546    0.0000 H   0  0  0  0  0  0  0  0  0  0  0  0
    7.1962   -3.6200    0.0000 H   0  0  0  0  0  0  0  0  0  0  0  0
   12.4131    2.6546    0.0000 H   0  0  0  0  0  0  0  0  0  0  0  0
   13.8620    1.8329    0.0000 H   0  0  0  0  0  0  0  0  0  0  0  0
    2.8660    2.1200    0.0000 H   0  0  0  0  0  0  0  0  0  0  0  0
  1 29  1  0  0  0  0
  2 31  1  0  0  0  0
  3 31  1  0  0  0  0
  4 22  1  0  0  0  0
  4 31  1  0  0  0  0
  5 25  2  0  0  0  0
  6  9  1  0  0  0  0
  6 12  1  0  0  0  0
  6 33  1  0  0  0  0
  7 13  1  0  0  0  0
  7 18  1  0  0  0  0
  7 40  1  0  0  0  0
  8 13  2  0  0  0  0
  8 25  1  0  0  0  0
  9 10  1  0  0  0  0
  9 11  1  0  0  0  0
  9 32  1  0  0  0  0
 10 14  2  0  0  0  0
 10 15  1  0  0  0  0
 11 16  2  0  0  0  0
 11 17  1  0  0  0  0
 12 13  1  0  0  0  0
 12 34  1  0  0  0  0
 12 35  1  0  0  0  0
 14 20  1  0  0  0  0
 14 36  1  0  0  0  0
 15 21  2  0  0  0  0
 15 37  1  0  0  0  0
 16 23  1  0  0  0  0
 16 38  1  0  0  0  0
 17 24  2  0  0  0  0
 17 39  1  0  0  0  0
 18 19  2  0  0  0  0
 18 26  1  0  0  0  0
 19 25  1  0  0  0  0
 19 28  1  0  0  0  0
 20 22  2  0  0  0  0
 20 41  1  0  0  0  0
 21 22  1  0  0  0  0
 21 42  1  0  0  0  0
 23 27  2  0  0  0  0
 23 43  1  0  0  0  0
 24 27  1  0  0  0  0
 24 44  1  0  0  0  0
 26 29  2  0  0  0  0
 26 45  1  0  0  0  0
 27 46  1  0  0  0  0
 28 30  2  0  0  0  0
 28 47  1  0  0  0  0
 29 30  1  0  0  0  0
 30 48  1  0  0  0  0
 31 49  1  0  0  0  0
M  END
> <PUBCHEM_COMPOUND_CID>
17396580

> <PUBCHEM_COMPOUND_CANONICALIZED>
1

> <PUBCHEM_CACTVS_COMPLEXITY>
636

> <PUBCHEM_CACTVS_HBOND_ACCEPTOR>
5

> <PUBCHEM_CACTVS_HBOND_DONOR>
2

> <PUBCHEM_CACTVS_ROTATABLE_BOND>
7

> <PUBCHEM_CACTVS_SUBSKEYS>
AAADceB7MYAEAAAAAAAAAAAAAAAAAAAAAAAwYMEAAAAAAACBUAAAHwIQAAAADC7BmDYxxoLABACoAidydACCCAElJwAJiIEebsgMZjrF/5uUMahk0BHI6ceY2OOOJAAAAAICAABIAAAABAQAAAAAAAAAAA==

> <PUBCHEM_IUPAC_OPENEYE_NAME>
7-chloro-2-[[[[4-(difluoromethoxy)phenyl]-phenyl-methyl]amino]methyl]-1H-quinazolin-4-one

> <PUBCHEM_IUPAC_CAS_NAME>
7-chloro-2-[[[[4-(difluoromethoxy)phenyl]-phenylmethyl]amino]methyl]-1H-quinazolin-4-one

> <PUBCHEM_IUPAC_NAME>
7-chloro-2-[[[[4-(difluoromethoxy)phenyl]-phenylmethyl]amino]methyl]-1H-quinazolin-4-one

> <PUBCHEM_IUPAC_SYSTEMATIC_NAME>
2-[[[[4-[bis(fluoranyl)methoxy]phenyl]-phenyl-methyl]amino]methyl]-7-chloranyl-1H-quinazolin-4-one

> <PUBCHEM_IUPAC_TRADITIONAL_NAME>
7-chloro-2-[[[[4-(difluoromethoxy)phenyl]-phenyl-methyl]amino]methyl]-1H-quinazolin-4-one

> <PUBCHEM_IUPAC_INCHI>
InChI=1S/C23H18ClF2N3O2/c24-16-8-11-18-19(12-16)28-20(29-22(18)30)13-27-21(14-4-2-1-3-5-14)15-6-9-17(10-7-15)31-23(25)26/h1-12,21,23,27H,13H2,(H,28,29,30)

> <PUBCHEM_IUPAC_INCHIKEY>
LBAJHCUNKVCZFK-UHFFFAOYSA-N

> <PUBCHEM_XLOGP3_AA>
5

> <PUBCHEM_EXACT_MASS>
441.105561

> <PUBCHEM_MOLECULAR_FORMULA>
C23H18ClF2N3O2

> <PUBCHEM_MOLECULAR_WEIGHT>
441.857726

> <PUBCHEM_OPENEYE_CAN_SMILES>
C1=CC=C(C=C1)C(C2=CC=C(C=C2)OC(F)F)NCC3=NC(=O)C4=C(N3)C=C(C=C4)Cl

> <PUBCHEM_OPENEYE_ISO_SMILES>
C1=CC=C(C=C1)C(C2=CC=C(C=C2)OC(F)F)NCC3=NC(=O)C4=C(N3)C=C(C=C4)Cl

> <PUBCHEM_CACTVS_TPSA>
62.7

> <PUBCHEM_MONOISOTOPIC_WEIGHT>
441.105561

> <PUBCHEM_TOTAL_CHARGE>
0

> <PUBCHEM_HEAVY_ATOM_COUNT>
31

> <PUBCHEM_ATOM_DEF_STEREO_COUNT>
0

> <PUBCHEM_ATOM_UDEF_STEREO_COUNT>
1

> <PUBCHEM_BOND_DEF_STEREO_COUNT>
0

> <PUBCHEM_BOND_UDEF_STEREO_COUNT>
0

> <PUBCHEM_ISOTOPIC_ATOM_COUNT>
0

> <PUBCHEM_COMPONENT_COUNT>
1

> <PUBCHEM_CACTVS_TAUTO_COUNT>
13

> <PUBCHEM_COORDINATE_TYPE>
1
5
255

> <PUBCHEM_BONDANNOTATIONS>
10  14  8
10  15  8
11  16  8
11  17  8
14  20  8
15  21  8
16  23  8
17  24  8
18  19  8
18  26  8
19  25  8
19  28  8
20  22  8
21  22  8
23  27  8
24  27  8
26  29  8
28  30  8
29  30  8
9  6  3
7  13  8
7  18  8
8  13  8
8  25  8

$$$$

