17395793
  -OEChem-06241222523D

 32 33  0     1  0  0  0  0  0999 V2000
   -4.0437   -1.2451    1.0349 O   0  0  0  0  0  0  0  0  0  0  0  0
   -2.0973    0.4597    0.1469 N   0  0  1  0  0  0  0  0  0  0  0  0
   -5.4797   -0.4715   -0.5830 N   0  0  0  0  0  0  0  0  0  0  0  0
   -1.5564   -0.3578   -0.9430 C   0  0  0  0  0  0  0  0  0  0  0  0
   -0.1482   -0.8501   -0.5758 C   0  0  0  0  0  0  0  0  0  0  0  0
   -1.2819    1.6680    0.3442 C   0  0  0  0  0  0  0  0  0  0  0  0
    0.7446    0.2516   -0.0516 C   0  0  0  0  0  0  0  0  0  0  0  0
    0.2009    1.4100    0.3672 C   0  0  0  0  0  0  0  0  0  0  0  0
   -3.4934    0.8127   -0.1019 C   0  0  0  0  0  0  0  0  0  0  0  0
    2.2072    0.0122   -0.0105 C   0  0  0  0  0  0  0  0  0  0  0  0
   -4.3448   -0.4005    0.1941 C   0  0  0  0  0  0  0  0  0  0  0  0
    3.0930    1.0812   -0.1472 C   0  0  0  0  0  0  0  0  0  0  0  0
    2.6976   -1.2819    0.1649 C   0  0  0  0  0  0  0  0  0  0  0  0
    4.4690    0.8561   -0.1088 C   0  0  0  0  0  0  0  0  0  0  0  0
    4.0738   -1.5068    0.2033 C   0  0  0  0  0  0  0  0  0  0  0  0
    4.9594   -0.4378    0.0665 C   0  0  0  0  0  0  0  0  0  0  0  0
   -1.5205    0.2134   -1.8809 H   0  0  0  0  0  0  0  0  0  0  0  0
   -2.1798   -1.2403   -1.1294 H   0  0  0  0  0  0  0  0  0  0  0  0
    0.2934   -1.3045   -1.4715 H   0  0  0  0  0  0  0  0  0  0  0  0
   -0.2361   -1.6345    0.1871 H   0  0  0  0  0  0  0  0  0  0  0  0
   -1.5599    2.1223    1.3030 H   0  0  0  0  0  0  0  0  0  0  0  0
   -1.4809    2.4093   -0.4410 H   0  0  0  0  0  0  0  0  0  0  0  0
    0.8069    2.2223    0.7572 H   0  0  0  0  0  0  0  0  0  0  0  0
   -3.8306    1.5913    0.5941 H   0  0  0  0  0  0  0  0  0  0  0  0
   -3.6525    1.1812   -1.1222 H   0  0  0  0  0  0  0  0  0  0  0  0
    2.7524    2.1000   -0.3096 H   0  0  0  0  0  0  0  0  0  0  0  0
    2.0376   -2.1362    0.2859 H   0  0  0  0  0  0  0  0  0  0  0  0
    5.1591    1.6873   -0.2208 H   0  0  0  0  0  0  0  0  0  0  0  0
    4.4562   -2.5138    0.3421 H   0  0  0  0  0  0  0  0  0  0  0  0
    6.0308   -0.6132    0.0956 H   0  0  0  0  0  0  0  0  0  0  0  0
   -5.7140    0.2358   -1.2722 H   0  0  0  0  0  0  0  0  0  0  0  0
   -6.1314   -1.2428   -0.4837 H   0  0  0  0  0  0  0  0  0  0  0  0
  1 11  2  0  0  0  0
  2  4  1  0  0  0  0
  2  6  1  0  0  0  0
  2  9  1  0  0  0  0
  3 11  1  0  0  0  0
  3 31  1  0  0  0  0
  3 32  1  0  0  0  0
  4  5  1  0  0  0  0
  4 17  1  0  0  0  0
  4 18  1  0  0  0  0
  5  7  1  0  0  0  0
  5 19  1  0  0  0  0
  5 20  1  0  0  0  0
  6  8  1  0  0  0  0
  6 21  1  0  0  0  0
  6 22  1  0  0  0  0
  7  8  2  0  0  0  0
  7 10  1  0  0  0  0
  8 23  1  0  0  0  0
  9 11  1  0  0  0  0
  9 24  1  0  0  0  0
  9 25  1  0  0  0  0
 10 12  2  0  0  0  0
 10 13  1  0  0  0  0
 12 14  1  0  0  0  0
 12 26  1  0  0  0  0
 13 15  2  0  0  0  0
 13 27  1  0  0  0  0
 14 16  2  0  0  0  0
 14 28  1  0  0  0  0
 15 16  1  0  0  0  0
 15 29  1  0  0  0  0
 16 30  1  0  0  0  0
M  END
> <PUBCHEM_COMPOUND_CID>
17395793

> <PUBCHEM_CONFORMER_RMSD>
0.6

> <PUBCHEM_CONFORMER_DIVERSEORDER>
5
25
13
7
23
22
6
1
24
9
20
17
12
26
19
10
21
15
16
4
8
2
18
3
14
11

> <PUBCHEM_MMFF94_PARTIAL_CHARGES>
24
1 -0.57
10 0.03
11 0.57
12 -0.15
13 -0.15
14 -0.15
15 -0.15
16 -0.15
2 -0.81
23 0.15
26 0.15
27 0.15
28 0.15
29 0.15
3 -0.8
30 0.15
31 0.37
32 0.37
4 0.27
5 0.14
6 0.41
7 -0.17
8 -0.29
9 0.33

> <PUBCHEM_EFFECTIVE_ROTOR_COUNT>
3.8

> <PUBCHEM_PHARMACOPHORE_FEATURES>
5
1 1 acceptor
1 2 cation
1 3 donor
6 10 12 13 14 15 16 rings
6 2 4 5 6 7 8 rings

> <PUBCHEM_HEAVY_ATOM_COUNT>
16

> <PUBCHEM_ATOM_DEF_STEREO_COUNT>
0

> <PUBCHEM_ATOM_UDEF_STEREO_COUNT>
0

> <PUBCHEM_BOND_DEF_STEREO_COUNT>
0

> <PUBCHEM_BOND_UDEF_STEREO_COUNT>
0

> <PUBCHEM_ISOTOPIC_ATOM_COUNT>
0

> <PUBCHEM_COMPONENT_COUNT>
1

> <PUBCHEM_CACTVS_TAUTO_COUNT>
2

> <PUBCHEM_CONFORMER_ID>
0109705100000005

> <PUBCHEM_MMFF94_ENERGY>
39.0305

> <PUBCHEM_FEATURE_SELFOVERLAP>
25.371

> <PUBCHEM_SHAPE_FINGERPRINT>
11287383 113 17561081371736234292
12032990 46 18410008857649721188
12107183 9 17618222153412852177
12236239 1 18408321112266017340
12596602 18 16515688818655254699
13167823 11 18412828005542603130
13675066 3 18334299781448888712
13690532 89 18409730672639103804
13760787 5 18333737905232095013
13862211 1 18260271845383775679
14123238 8 18186801374450692134
14251764 18 18260824904950550441
14252887 29 17749101223382933310
15196674 1 18336547208843584736
15375462 189 18259991465734202808
17834072 33 18410576162731583894
17834076 25 12679464188133486215
187816 3 13542464271826100013
19422 9 18410288155215292904
200 152 18409169922030606961
20261772 1 17967255286341758686
20279233 1 16200426992474239232
20645477 70 18339927116530971166
21029758 27 18409164402771298013
21267235 1 18335414699641398230
22485316 2 18060139846976262939
23402539 116 18113344123960111893
23557571 272 17418099848868203277
23559900 14 18202563938850294520
26918003 58 18272934920563313018
2871803 45 18201721781710244162
3268164 11 15482680086712439567
42 15 18412261761549465982
4214541 1 18341050817177122805
465052 167 18261106344760570103
474 4 18059007269055197396
474229 33 18335139782452351967
5104073 3 18335985384567130880
5283173 99 18059022807993712517
5374978 207 18261399948940975192
537710 114 18334292054876868564
77779 3 18341611542273901908
9709674 26 18339072799995822226

> <PUBCHEM_SHAPE_MULTIPOLES>
313.44
10.83
1.51
0.77
3.77
0.13
0.01
-2.67
-0.36
-0.43
-0.17
0.35
-0.1
-0.08

> <PUBCHEM_SHAPE_SELFOVERLAP>
656.834

> <PUBCHEM_SHAPE_VOLUME>
176.5

> <PUBCHEM_COORDINATE_TYPE>
2
5
10

$$$$

