5535
  -OEChem-06261200442D

 94 99  0     0  0  0  0  0  0999 V2000
   15.0583   -4.6296    0.0000 S   0  0  0  0  0  0  0  0  0  0  0  0
    4.6660   -4.6296    0.0000 S   0  0  0  0  0  0  0  0  0  0  0  0
    9.8622    4.3704    0.0000 S   0  0  0  0  0  0  0  0  0  0  0  0
   13.3263   -0.6296    0.0000 O   0  0  0  0  0  0  0  0  0  0  0  0
    6.3981   -0.6296    0.0000 O   0  0  0  0  0  0  0  0  0  0  0  0
    7.2641    0.8704    0.0000 O   0  0  0  0  0  0  0  0  0  0  0  0
   15.0583   -0.6296    0.0000 O   0  0  0  0  0  0  0  0  0  0  0  0
    4.6660   -0.6296    0.0000 O   0  0  0  0  0  0  0  0  0  0  0  0
    6.3981    2.3704    0.0000 O   0  0  0  0  0  0  0  0  0  0  0  0
   15.0583   -5.6296    0.0000 O   0  0  0  0  0  0  0  0  0  0  0  0
    4.6660   -5.6296    0.0000 O   0  0  0  0  0  0  0  0  0  0  0  0
   10.7282    4.8704    0.0000 O   0  0  0  0  0  0  0  0  0  0  0  0
   14.0583   -4.6296    0.0000 O   0  0  0  0  0  0  0  0  0  0  0  0
   16.0583   -4.6296    0.0000 O   0  0  0  0  0  0  0  0  0  0  0  0
    5.6660   -4.6296    0.0000 O   0  0  0  0  0  0  0  0  0  0  0  0
    3.6660   -4.6296    0.0000 O   0  0  0  0  0  0  0  0  0  0  0  0
   10.3622    3.5043    0.0000 O   0  0  0  0  0  0  0  0  0  0  0  0
    9.3622    5.2364    0.0000 O   0  0  0  0  0  0  0  0  0  0  0  0
    9.8622   -1.6296    0.0000 N   0  0  0  0  0  0  0  0  0  0  0  0
   12.4603   -2.1296    0.0000 N   0  0  0  0  0  0  0  0  0  0  0  0
    7.2641   -2.1296    0.0000 N   0  0  0  0  0  0  0  0  0  0  0  0
    8.9962    0.8704    0.0000 N   0  0  0  0  0  0  0  0  0  0  0  0
   16.8183   -1.5950    0.0000 N   0  0  0  0  0  0  0  0  0  0  0  0
    2.9061   -1.5950    0.0000 N   0  0  0  0  0  0  0  0  0  0  0  0
    6.3541    4.3772    0.0000 N   0  0  0  0  0  0  0  0  0  0  0  0
   10.7282   -2.1296    0.0000 C   0  0  0  0  0  0  0  0  0  0  0  0
    8.9962   -2.1296    0.0000 C   0  0  0  0  0  0  0  0  0  0  0  0
    9.8622   -0.6296    0.0000 C   0  0  0  0  0  0  0  0  0  0  0  0
    8.9962   -0.1296    0.0000 C   0  0  0  0  0  0  0  0  0  0  0  0
    8.1301   -1.6296    0.0000 C   0  0  0  0  0  0  0  0  0  0  0  0
   11.5942   -1.6296    0.0000 C   0  0  0  0  0  0  0  0  0  0  0  0
   13.3263   -1.6296    0.0000 C   0  0  0  0  0  0  0  0  0  0  0  0
    6.3981   -1.6296    0.0000 C   0  0  0  0  0  0  0  0  0  0  0  0
    8.1301    1.3704    0.0000 C   0  0  0  0  0  0  0  0  0  0  0  0
   14.1923   -2.1296    0.0000 C   0  0  0  0  0  0  0  0  0  0  0  0
    5.5321   -2.1296    0.0000 C   0  0  0  0  0  0  0  0  0  0  0  0
    8.1301    2.3704    0.0000 C   0  0  0  0  0  0  0  0  0  0  0  0
    8.9962    3.8704    0.0000 C   0  0  0  0  0  0  0  0  0  0  0  0
   15.0583   -3.6296    0.0000 C   0  0  0  0  0  0  0  0  0  0  0  0
    4.6660   -3.6296    0.0000 C   0  0  0  0  0  0  0  0  0  0  0  0
   14.1923   -3.1296    0.0000 C   0  0  0  0  0  0  0  0  0  0  0  0
    5.5321   -3.1296    0.0000 C   0  0  0  0  0  0  0  0  0  0  0  0
    8.9962    2.8704    0.0000 C   0  0  0  0  0  0  0  0  0  0  0  0
   15.0583   -1.6296    0.0000 C   0  0  0  0  0  0  0  0  0  0  0  0
    4.6660   -1.6296    0.0000 C   0  0  0  0  0  0  0  0  0  0  0  0
    7.2641    2.8704    0.0000 C   0  0  0  0  0  0  0  0  0  0  0  0
    8.1301    4.3704    0.0000 C   0  0  0  0  0  0  0  0  0  0  0  0
    3.8000   -3.1296    0.0000 C   0  0  0  0  0  0  0  0  0  0  0  0
   15.9244   -3.1296    0.0000 C   0  0  0  0  0  0  0  0  0  0  0  0
   15.9244   -2.1296    0.0000 C   0  0  0  0  0  0  0  0  0  0  0  0
    3.8000   -2.1296    0.0000 C   0  0  0  0  0  0  0  0  0  0  0  0
    7.2641    3.8704    0.0000 C   0  0  0  0  0  0  0  0  0  0  0  0
   16.8183   -3.6643    0.0000 C   0  0  0  0  0  0  0  0  0  0  0  0
    2.9061   -3.6643    0.0000 C   0  0  0  0  0  0  0  0  0  0  0  0
    8.1462    5.4119    0.0000 C   0  0  0  0  0  0  0  0  0  0  0  0
   17.7244   -3.1505    0.0000 C   0  0  0  0  0  0  0  0  0  0  0  0
    2.0000   -3.1505    0.0000 C   0  0  0  0  0  0  0  0  0  0  0  0
    7.2482    5.9396    0.0000 C   0  0  0  0  0  0  0  0  0  0  0  0
   17.7244   -2.1088    0.0000 C   0  0  0  0  0  0  0  0  0  0  0  0
    2.0000   -2.1088    0.0000 C   0  0  0  0  0  0  0  0  0  0  0  0
    6.3461    5.4188    0.0000 C   0  0  0  0  0  0  0  0  0  0  0  0
   10.4728   -0.7373    0.0000 H   0  0  0  0  0  0  0  0  0  0  0  0
   10.0742   -0.0470    0.0000 H   0  0  0  0  0  0  0  0  0  0  0  0
    8.5976   -2.6046    0.0000 H   0  0  0  0  0  0  0  0  0  0  0  0
    9.3947   -2.6046    0.0000 H   0  0  0  0  0  0  0  0  0  0  0  0
   10.3297   -2.6046    0.0000 H   0  0  0  0  0  0  0  0  0  0  0  0
   11.1267   -2.6046    0.0000 H   0  0  0  0  0  0  0  0  0  0  0  0
    8.3856   -0.0220    0.0000 H   0  0  0  0  0  0  0  0  0  0  0  0
    8.7841   -0.7122    0.0000 H   0  0  0  0  0  0  0  0  0  0  0  0
    8.5287   -1.1547    0.0000 H   0  0  0  0  0  0  0  0  0  0  0  0
    7.7316   -1.1547    0.0000 H   0  0  0  0  0  0  0  0  0  0  0  0
   11.9928   -1.1547    0.0000 H   0  0  0  0  0  0  0  0  0  0  0  0
   11.1957   -1.1547    0.0000 H   0  0  0  0  0  0  0  0  0  0  0  0
   12.4603   -2.7496    0.0000 H   0  0  0  0  0  0  0  0  0  0  0  0
    7.2641   -2.7496    0.0000 H   0  0  0  0  0  0  0  0  0  0  0  0
    9.5331    1.1804    0.0000 H   0  0  0  0  0  0  0  0  0  0  0  0
   13.6554   -3.4396    0.0000 H   0  0  0  0  0  0  0  0  0  0  0  0
    6.0690   -3.4396    0.0000 H   0  0  0  0  0  0  0  0  0  0  0  0
    9.5331    2.5604    0.0000 H   0  0  0  0  0  0  0  0  0  0  0  0
   16.8111   -4.2842    0.0000 H   0  0  0  0  0  0  0  0  0  0  0  0
    2.9132   -4.2842    0.0000 H   0  0  0  0  0  0  0  0  0  0  0  0
    8.6867    5.7156    0.0000 H   0  0  0  0  0  0  0  0  0  0  0  0
   18.2601   -3.4625    0.0000 H   0  0  0  0  0  0  0  0  0  0  0  0
    1.4643   -3.4625    0.0000 H   0  0  0  0  0  0  0  0  0  0  0  0
    7.2506    6.5596    0.0000 H   0  0  0  0  0  0  0  0  0  0  0  0
    5.8080    5.7267    0.0000 H   0  0  0  0  0  0  0  0  0  0  0  0
    1.4643   -1.7968    0.0000 H   0  0  0  0  0  0  0  0  0  0  0  0
   18.2601   -1.7968    0.0000 H   0  0  0  0  0  0  0  0  0  0  0  0
   15.5953   -0.3196    0.0000 H   0  0  0  0  0  0  0  0  0  0  0  0
    4.1291   -0.3196    0.0000 H   0  0  0  0  0  0  0  0  0  0  0  0
    5.8612    2.6804    0.0000 H   0  0  0  0  0  0  0  0  0  0  0  0
   14.5214   -5.9396    0.0000 H   0  0  0  0  0  0  0  0  0  0  0  0
    4.1291   -5.9396    0.0000 H   0  0  0  0  0  0  0  0  0  0  0  0
   10.7282    5.4904    0.0000 H   0  0  0  0  0  0  0  0  0  0  0  0
  1 10  1  0  0  0  0
  1 13  2  0  0  0  0
  1 14  2  0  0  0  0
  1 39  1  0  0  0  0
  2 11  1  0  0  0  0
  2 15  2  0  0  0  0
  2 16  2  0  0  0  0
  2 40  1  0  0  0  0
  3 12  1  0  0  0  0
  3 17  2  0  0  0  0
  3 18  2  0  0  0  0
  3 38  1  0  0  0  0
  4 32  2  0  0  0  0
  5 33  2  0  0  0  0
  6 34  2  0  0  0  0
  7 44  1  0  0  0  0
  7 89  1  0  0  0  0
  8 45  1  0  0  0  0
  8 90  1  0  0  0  0
  9 46  1  0  0  0  0
  9 91  1  0  0  0  0
 10 92  1  0  0  0  0
 11 93  1  0  0  0  0
 12 94  1  0  0  0  0
 19 26  1  0  0  0  0
 19 27  1  0  0  0  0
 19 28  1  0  0  0  0
 20 31  1  0  0  0  0
 20 32  1  0  0  0  0
 20 74  1  0  0  0  0
 21 30  1  0  0  0  0
 21 33  1  0  0  0  0
 21 75  1  0  0  0  0
 22 29  1  0  0  0  0
 22 34  1  0  0  0  0
 22 76  1  0  0  0  0
 23 50  1  0  0  0  0
 23 59  2  0  0  0  0
 24 51  1  0  0  0  0
 24 60  2  0  0  0  0
 25 52  1  0  0  0  0
 25 61  2  0  0  0  0
 26 31  1  0  0  0  0
 26 66  1  0  0  0  0
 26 67  1  0  0  0  0
 27 30  1  0  0  0  0
 27 64  1  0  0  0  0
 27 65  1  0  0  0  0
 28 29  1  0  0  0  0
 28 62  1  0  0  0  0
 28 63  1  0  0  0  0
 29 68  1  0  0  0  0
 29 69  1  0  0  0  0
 30 70  1  0  0  0  0
 30 71  1  0  0  0  0
 31 72  1  0  0  0  0
 31 73  1  0  0  0  0
 32 35  1  0  0  0  0
 33 36  1  0  0  0  0
 34 37  1  0  0  0  0
 35 41  2  0  0  0  0
 35 44  1  0  0  0  0
 36 42  2  0  0  0  0
 36 45  1  0  0  0  0
 37 43  2  0  0  0  0
 37 46  1  0  0  0  0
 38 43  1  0  0  0  0
 38 47  2  0  0  0  0
 39 41  1  0  0  0  0
 39 49  2  0  0  0  0
 40 42  1  0  0  0  0
 40 48  2  0  0  0  0
 41 77  1  0  0  0  0
 42 78  1  0  0  0  0
 43 79  1  0  0  0  0
 44 50  2  0  0  0  0
 45 51  2  0  0  0  0
 46 52  2  0  0  0  0
 47 52  1  0  0  0  0
 47 55  1  0  0  0  0
 48 51  1  0  0  0  0
 48 54  1  0  0  0  0
 49 50  1  0  0  0  0
 49 53  1  0  0  0  0
 53 56  2  0  0  0  0
 53 80  1  0  0  0  0
 54 57  2  0  0  0  0
 54 81  1  0  0  0  0
 55 58  2  0  0  0  0
 55 82  1  0  0  0  0
 56 59  1  0  0  0  0
 56 83  1  0  0  0  0
 57 60  1  0  0  0  0
 57 84  1  0  0  0  0
 58 61  1  0  0  0  0
 58 85  1  0  0  0  0
 59 88  1  0  0  0  0
 60 87  1  0  0  0  0
 61 86  1  0  0  0  0
M  END
> <PUBCHEM_COMPOUND_CID>
5535

> <PUBCHEM_COMPOUND_CANONICALIZED>
1

> <PUBCHEM_CACTVS_COMPLEXITY>
1680

> <PUBCHEM_CACTVS_HBOND_ACCEPTOR>
19

> <PUBCHEM_CACTVS_HBOND_DONOR>
9

> <PUBCHEM_CACTVS_ROTATABLE_BOND>
15

> <PUBCHEM_CACTVS_SUBSKEYS>
AAADcfB/vABgAAAAAAAAAAAAAAAAAAAAAAA8ePECAAAAAACx/gAAHgQQCAAADAzB3gQ8x/PIEoKoAzV3VHTCgGA1YiAI2Lk9bNgKZvbSlZOUcUxm9hHY2YecyPCOQIABwCAOEACBAAOAQBwgAAAAAAAAAA==

> <PUBCHEM_IUPAC_OPENEYE_NAME>
7-[2-[bis[2-[(8-hydroxy-5-sulfo-quinoline-7-carbonyl)amino]ethyl]amino]ethylcarbamoyl]-8-hydroxy-quinoline-5-sulfonic acid

> <PUBCHEM_IUPAC_CAS_NAME>
7-[[2-[bis[2-[[(8-hydroxy-5-sulfo-7-quinolinyl)-oxomethyl]amino]ethyl]amino]ethylamino]-oxomethyl]-8-hydroxy-5-quinolinesulfonic acid

> <PUBCHEM_IUPAC_NAME>
7-[2-[bis[2-[(8-hydroxy-5-sulfoquinoline-7-carbonyl)amino]ethyl]amino]ethylcarbamoyl]-8-hydroxyquinoline-5-sulfonic acid

> <PUBCHEM_IUPAC_SYSTEMATIC_NAME>
7-[2-[bis[2-[(8-oxidanyl-5-sulfo-quinolin-7-yl)carbonylamino]ethyl]amino]ethylcarbamoyl]-8-oxidanyl-quinoline-5-sulfonic acid

> <PUBCHEM_IUPAC_TRADITIONAL_NAME>
7-[2-[bis[2-[(8-hydroxy-5-sulfo-quinoline-7-carbonyl)amino]ethyl]amino]ethylcarbamoyl]-8-hydroxy-quinoline-5-sulfonic acid

> <PUBCHEM_IUPAC_INCHI>
InChI=1S/C36H33N7O15S3/c44-31-22(16-25(59(50,51)52)19-4-1-7-37-28(19)31)34(47)40-10-13-43(14-11-41-35(48)23-17-26(60(53,54)55)20-5-2-8-38-29(20)32(23)45)15-12-42-36(49)24-18-27(61(56,57)58)21-6-3-9-39-30(21)33(24)46/h1-9,16-18,44-46H,10-15H2,(H,40,47)(H,41,48)(H,42,49)(H,50,51,52)(H,53,54,55)(H,56,57,58)

> <PUBCHEM_IUPAC_INCHIKEY>
MMVFEHRXPSUZLI-UHFFFAOYSA-N

> <PUBCHEM_XLOGP3_AA>
-1.5

> <PUBCHEM_EXACT_MASS>
899.119676

> <PUBCHEM_MOLECULAR_FORMULA>
C36H33N7O15S3

> <PUBCHEM_MOLECULAR_WEIGHT>
899.88012

> <PUBCHEM_OPENEYE_CAN_SMILES>
C1=CC2=C(C=C(C(=C2N=C1)O)C(=O)NCCN(CCNC(=O)C3=CC(=C4C=CC=NC4=C3O)S(=O)(=O)O)CCNC(=O)C5=CC(=C6C=CC=NC6=C5O)S(=O)(=O)O)S(=O)(=O)O

> <PUBCHEM_OPENEYE_ISO_SMILES>
C1=CC2=C(C=C(C(=C2N=C1)O)C(=O)NCCN(CCNC(=O)C3=CC(=C4C=CC=NC4=C3O)S(=O)(=O)O)CCNC(=O)C5=CC(=C6C=CC=NC6=C5O)S(=O)(=O)O)S(=O)(=O)O

> <PUBCHEM_CACTVS_TPSA>
378

> <PUBCHEM_MONOISOTOPIC_WEIGHT>
899.119676

> <PUBCHEM_TOTAL_CHARGE>
0

> <PUBCHEM_HEAVY_ATOM_COUNT>
61

> <PUBCHEM_ATOM_DEF_STEREO_COUNT>
0

> <PUBCHEM_ATOM_UDEF_STEREO_COUNT>
0

> <PUBCHEM_BOND_DEF_STEREO_COUNT>
0

> <PUBCHEM_BOND_UDEF_STEREO_COUNT>
0

> <PUBCHEM_ISOTOPIC_ATOM_COUNT>
0

> <PUBCHEM_COMPONENT_COUNT>
1

> <PUBCHEM_CACTVS_TAUTO_COUNT>
35

> <PUBCHEM_COORDINATE_TYPE>
1
5
255

> <PUBCHEM_BONDANNOTATIONS>
23  50  8
23  59  8
24  51  8
24  60  8
25  52  8
25  61  8
35  41  8
35  44  8
36  42  8
36  45  8
37  43  8
37  46  8
38  43  8
38  47  8
39  41  8
39  49  8
40  42  8
40  48  8
44  50  8
45  51  8
46  52  8
47  52  8
47  55  8
48  51  8
48  54  8
49  50  8
49  53  8
53  56  8
54  57  8
55  58  8
56  59  8
57  60  8
58  61  8

$$$$

