11429
  -OEChem-06261205403D

 16 15  0     1  0  0  0  0  0999 V2000
    0.0162    1.3482    0.2382 O   0  0  0  0  0  0  0  0  0  0  0  0
    2.4354    0.0159   -0.2142 O   0  0  0  0  0  0  0  0  0  0  0  0
    0.0209    0.0134   -0.2675 C   0  0  2  0  0  0  0  0  0  0  0  0
   -1.2400   -0.7032    0.2195 C   0  0  0  0  0  0  0  0  0  0  0  0
    1.2812   -0.6925    0.2255 C   0  0  0  0  0  0  0  0  0  0  0  0
   -2.5137    0.0181   -0.2016 C   0  0  0  0  0  0  0  0  0  0  0  0
    0.0256    0.0817   -1.3613 H   0  0  0  0  0  0  0  0  0  0  0  0
   -1.2341   -0.7647    1.3147 H   0  0  0  0  0  0  0  0  0  0  0  0
   -1.2580   -1.7282   -0.1681 H   0  0  0  0  0  0  0  0  0  0  0  0
    1.3164   -0.7098    1.3196 H   0  0  0  0  0  0  0  0  0  0  0  0
    1.3386   -1.7210   -0.1441 H   0  0  0  0  0  0  0  0  0  0  0  0
   -2.5749    1.0170    0.2415 H   0  0  0  0  0  0  0  0  0  0  0  0
   -2.5640    0.1195   -1.2903 H   0  0  0  0  0  0  0  0  0  0  0  0
   -3.3917   -0.5471    0.1270 H   0  0  0  0  0  0  0  0  0  0  0  0
    0.8324    1.7786   -0.0690 H   0  0  0  0  0  0  0  0  0  0  0  0
    2.4163    0.0294   -1.1863 H   0  0  0  0  0  0  0  0  0  0  0  0
  1  3  1  0  0  0  0
  1 15  1  0  0  0  0
  2  5  1  0  0  0  0
  2 16  1  0  0  0  0
  3  4  1  0  0  0  0
  3  5  1  0  0  0  0
  3  7  1  0  0  0  0
  4  6  1  0  0  0  0
  4  8  1  0  0  0  0
  4  9  1  0  0  0  0
  5 10  1  0  0  0  0
  5 11  1  0  0  0  0
  6 12  1  0  0  0  0
  6 13  1  0  0  0  0
  6 14  1  0  0  0  0
M  END
> <PUBCHEM_COMPOUND_CID>
11429

> <PUBCHEM_CONFORMER_RMSD>
0.4

> <PUBCHEM_CONFORMER_DIVERSEORDER>
5
10
6
16
1
17
4
14
7
3
9
12
13
15
8
11
2

> <PUBCHEM_MMFF94_PARTIAL_CHARGES>
6
1 -0.68
15 0.4
16 0.4
2 -0.68
3 0.28
5 0.28

> <PUBCHEM_EFFECTIVE_ROTOR_COUNT>
2

> <PUBCHEM_PHARMACOPHORE_FEATURES>
5
1 1 acceptor
1 1 donor
1 2 acceptor
1 2 donor
1 6 hydrophobe

> <PUBCHEM_HEAVY_ATOM_COUNT>
6

> <PUBCHEM_ATOM_DEF_STEREO_COUNT>
0

> <PUBCHEM_ATOM_UDEF_STEREO_COUNT>
1

> <PUBCHEM_BOND_DEF_STEREO_COUNT>
0

> <PUBCHEM_BOND_UDEF_STEREO_COUNT>
0

> <PUBCHEM_ISOTOPIC_ATOM_COUNT>
0

> <PUBCHEM_COMPONENT_COUNT>
1

> <PUBCHEM_CACTVS_TAUTO_COUNT>
1

> <PUBCHEM_CONFORMER_ID>
00002CA500000005

> <PUBCHEM_MMFF94_ENERGY>
4.4949

> <PUBCHEM_FEATURE_SELFOVERLAP>
25.379

> <PUBCHEM_SHAPE_FINGERPRINT>
139733 1 9439403527461136603
16714656 1 18334010613953681454
20096714 4 18337672988681000307
29004967 10 18410570678042633051
5460574 1 8358260345402632271

> <PUBCHEM_SHAPE_MULTIPOLES>
111.74
3.1
1
0.64
0.15
0.2
0
-0.21
0.27
-0.01
-0.11
0.03
-0.01
0

> <PUBCHEM_SHAPE_SELFOVERLAP>
193.38

> <PUBCHEM_SHAPE_VOLUME>
74.9

> <PUBCHEM_COORDINATE_TYPE>
2
5
10

$$$$

