582787
  -OEChem-06241222443D

 56 58  0     1  0  0  0  0  0999 V2000
   -2.8491    1.9965   -1.2044 O   0  0  0  0  0  0  0  0  0  0  0  0
    1.6264    2.4945   -0.6524 O   0  0  0  0  0  0  0  0  0  0  0  0
    0.9031    1.8517    1.4306 O   0  0  0  0  0  0  0  0  0  0  0  0
   -5.4345   -0.2239   -0.1251 O   0  0  0  0  0  0  0  0  0  0  0  0
   -7.1096    1.3266    0.1640 O   0  0  0  0  0  0  0  0  0  0  0  0
    0.4501   -3.2367    1.5780 N   0  0  0  0  0  0  0  0  0  0  0  0
   -0.2855    1.3244   -0.4913 N   0  0  0  0  0  0  0  0  0  0  0  0
   -3.5672    1.2783    0.8841 N   0  0  0  0  0  0  0  0  0  0  0  0
   -1.4904   -0.8272   -0.4076 C   0  0  0  0  0  0  0  0  0  0  0  0
   -0.4931   -1.7672    0.2074 C   0  0  0  0  0  0  0  0  0  0  0  0
   -1.3735    0.6066    0.1251 C   0  0  2  0  0  0  0  0  0  0  0  0
    0.8154   -2.0497   -0.2755 C   0  0  0  0  0  0  0  0  0  0  0  0
    1.3854   -2.9742    0.6023 C   0  0  0  0  0  0  0  0  0  0  0  0
   -0.6884   -2.5119    1.3478 C   0  0  0  0  0  0  0  0  0  0  0  0
   -2.6539    1.3861   -0.1555 C   0  0  0  0  0  0  0  0  0  0  0  0
    1.5718   -1.6062   -1.3784 C   0  0  0  0  0  0  0  0  0  0  0  0
    2.6792   -3.4795    0.4316 C   0  0  0  0  0  0  0  0  0  0  0  0
    2.8673   -2.1030   -1.5620 C   0  0  0  0  0  0  0  0  0  0  0  0
    3.4105   -3.0252   -0.6696 C   0  0  0  0  0  0  0  0  0  0  0  0
    0.7608    1.8864    0.2127 C   0  0  0  0  0  0  0  0  0  0  0  0
   -4.8789    1.8837    0.8515 C   0  0  0  0  0  0  0  0  0  0  0  0
    2.7663    3.1235   -0.0560 C   0  0  0  0  0  0  0  0  0  0  0  0
   -5.9372    0.9801    0.2636 C   0  0  0  0  0  0  0  0  0  0  0  0
    3.8865    2.1287    0.0283 C   0  0  0  0  0  0  0  0  0  0  0  0
    4.0224    1.3257    1.1609 C   0  0  0  0  0  0  0  0  0  0  0  0
    4.7918    2.0065   -1.0260 C   0  0  0  0  0  0  0  0  0  0  0  0
   -6.3788   -1.1380   -0.6928 C   0  0  0  0  0  0  0  0  0  0  0  0
    5.0635    0.4008    1.2392 C   0  0  0  0  0  0  0  0  0  0  0  0
    5.8328    1.0814   -0.9475 C   0  0  0  0  0  0  0  0  0  0  0  0
    5.9687    0.2785    0.1851 C   0  0  0  0  0  0  0  0  0  0  0  0
   -5.6620   -2.4175   -1.0682 C   0  0  0  0  0  0  0  0  0  0  0  0
   -1.3874   -0.8402   -1.5006 H   0  0  0  0  0  0  0  0  0  0  0  0
   -2.4958   -1.2185   -0.2011 H   0  0  0  0  0  0  0  0  0  0  0  0
   -1.2102    0.5893    1.2100 H   0  0  0  0  0  0  0  0  0  0  0  0
   -1.5338   -2.5911    2.0170 H   0  0  0  0  0  0  0  0  0  0  0  0
    0.5854   -3.8723    2.3520 H   0  0  0  0  0  0  0  0  0  0  0  0
   -0.2986    1.4481   -1.4995 H   0  0  0  0  0  0  0  0  0  0  0  0
    1.1648   -0.8881   -2.0845 H   0  0  0  0  0  0  0  0  0  0  0  0
    3.1032   -4.1969    1.1261 H   0  0  0  0  0  0  0  0  0  0  0  0
    3.4561   -1.7629   -2.4098 H   0  0  0  0  0  0  0  0  0  0  0  0
   -3.3313    0.7177    1.6976 H   0  0  0  0  0  0  0  0  0  0  0  0
    4.4194   -3.3965   -0.8305 H   0  0  0  0  0  0  0  0  0  0  0  0
   -5.1533    2.1155    1.8844 H   0  0  0  0  0  0  0  0  0  0  0  0
   -4.8362    2.8007    0.2563 H   0  0  0  0  0  0  0  0  0  0  0  0
    2.5334    3.5597    0.9236 H   0  0  0  0  0  0  0  0  0  0  0  0
    3.0508    3.9648   -0.6985 H   0  0  0  0  0  0  0  0  0  0  0  0
    3.3394    1.4158    1.9998 H   0  0  0  0  0  0  0  0  0  0  0  0
    4.6952    2.6242   -1.9148 H   0  0  0  0  0  0  0  0  0  0  0  0
   -6.8287   -0.6901   -1.5858 H   0  0  0  0  0  0  0  0  0  0  0  0
   -7.1634   -1.3548    0.0406 H   0  0  0  0  0  0  0  0  0  0  0  0
    5.1708   -0.2228    2.1219 H   0  0  0  0  0  0  0  0  0  0  0  0
    6.5370    0.9851   -1.7688 H   0  0  0  0  0  0  0  0  0  0  0  0
    6.7788   -0.4422    0.2460 H   0  0  0  0  0  0  0  0  0  0  0  0
   -6.3554   -3.1408   -1.5063 H   0  0  0  0  0  0  0  0  0  0  0  0
   -5.1902   -2.8671   -0.1882 H   0  0  0  0  0  0  0  0  0  0  0  0
   -4.8617   -2.2135   -1.7872 H   0  0  0  0  0  0  0  0  0  0  0  0
  1 15  2  0  0  0  0
  2 20  1  0  0  0  0
  2 22  1  0  0  0  0
  3 20  2  0  0  0  0
  4 23  1  0  0  0  0
  4 27  1  0  0  0  0
  5 23  2  0  0  0  0
  6 13  1  0  0  0  0
  6 14  1  0  0  0  0
  6 36  1  0  0  0  0
  7 11  1  0  0  0  0
  7 20  1  0  0  0  0
  7 37  1  0  0  0  0
  8 15  1  0  0  0  0
  8 21  1  0  0  0  0
  8 41  1  0  0  0  0
  9 10  1  0  0  0  0
  9 11  1  0  0  0  0
  9 32  1  0  0  0  0
  9 33  1  0  0  0  0
 10 12  1  0  0  0  0
 10 14  2  0  0  0  0
 11 15  1  0  0  0  0
 11 34  1  0  0  0  0
 12 13  1  0  0  0  0
 12 16  2  0  0  0  0
 13 17  2  0  0  0  0
 14 35  1  0  0  0  0
 16 18  1  0  0  0  0
 16 38  1  0  0  0  0
 17 19  1  0  0  0  0
 17 39  1  0  0  0  0
 18 19  2  0  0  0  0
 18 40  1  0  0  0  0
 19 42  1  0  0  0  0
 21 23  1  0  0  0  0
 21 43  1  0  0  0  0
 21 44  1  0  0  0  0
 22 24  1  0  0  0  0
 22 45  1  0  0  0  0
 22 46  1  0  0  0  0
 24 25  2  0  0  0  0
 24 26  1  0  0  0  0
 25 28  1  0  0  0  0
 25 47  1  0  0  0  0
 26 29  2  0  0  0  0
 26 48  1  0  0  0  0
 27 31  1  0  0  0  0
 27 49  1  0  0  0  0
 27 50  1  0  0  0  0
 28 30  2  0  0  0  0
 28 51  1  0  0  0  0
 29 30  1  0  0  0  0
 29 52  1  0  0  0  0
 30 53  1  0  0  0  0
 31 54  1  0  0  0  0
 31 55  1  0  0  0  0
 31 56  1  0  0  0  0
M  END
> <PUBCHEM_COMPOUND_CID>
582787

> <PUBCHEM_CONFORMER_RMSD>
1.2

> <PUBCHEM_CONFORMER_DIVERSEORDER>
2
113
61
32
18
101
131
76
125
88
79
24
83
163
42
26
123
34
117
159
7
148
145
30
29
166
160
93
56
62
108
17
8
122
142
137
82
81
75
124
165
94
103
109
4
151
153
46
132
154
110
55
51
52
70
150
69
68
158
25
155
95
71
129
138
12
91
118
115
87
15
162
39
77
21
134
135
127
144
66
10
116
119
146
112
23
60
33
73
164
43
11
120
64
149
90
140
31
89
102
141
36
67
106
84
111
72
105
96
85
139
136
28
114
152
9
48
13
157
92
5
80
40
58
78
126
97
86
107
98
53
45
27
99
100
57
156
44
49
59
37
14
54
74
63
133
128
41
161
50
22
3
104
47
65
20
6
121
130
19
38
143
16
147
1
35

> <PUBCHEM_MMFF94_PARTIAL_CHARGES>
42
1 -0.57
10 -0.18
11 0.36
13 -0.15
14 -0.3
15 0.57
16 -0.15
17 -0.15
18 -0.15
19 -0.15
2 -0.43
20 0.78
21 0.36
22 0.42
23 0.66
24 -0.14
25 -0.15
26 -0.15
27 0.28
28 -0.15
29 -0.15
3 -0.57
30 -0.15
35 0.15
36 0.27
37 0.37
38 0.15
39 0.15
4 -0.43
40 0.15
41 0.37
42 0.15
47 0.15
48 0.15
5 -0.57
51 0.15
52 0.15
53 0.15
6 0.03
7 -0.73
8 -0.73
9 0.18

> <PUBCHEM_EFFECTIVE_ROTOR_COUNT>
13

> <PUBCHEM_PHARMACOPHORE_FEATURES>
10
1 1 acceptor
1 3 acceptor
1 5 acceptor
1 6 cation
1 6 donor
1 7 donor
1 8 donor
5 6 10 12 13 14 rings
6 12 13 16 17 18 19 rings
6 24 25 26 28 29 30 rings

> <PUBCHEM_HEAVY_ATOM_COUNT>
31

> <PUBCHEM_ATOM_DEF_STEREO_COUNT>
0

> <PUBCHEM_ATOM_UDEF_STEREO_COUNT>
1

> <PUBCHEM_BOND_DEF_STEREO_COUNT>
0

> <PUBCHEM_BOND_UDEF_STEREO_COUNT>
0

> <PUBCHEM_ISOTOPIC_ATOM_COUNT>
0

> <PUBCHEM_COMPONENT_COUNT>
1

> <PUBCHEM_CACTVS_TAUTO_COUNT>
4

> <PUBCHEM_CONFORMER_ID>
0008E48300000002

> <PUBCHEM_MMFF94_ENERGY>
53.7707

> <PUBCHEM_FEATURE_SELFOVERLAP>
50.835

> <PUBCHEM_SHAPE_FINGERPRINT>
13617811 41 18130494301861829997
13692114 37 18189346666628725719
14784336 7 18186520981938298153
15664445 248 18044928215323345519
15968369 153 17899422986825133539
16112460 7 18115012096548963211
20028762 73 18335424508608191813
21197605 99 18336265622092502319
21814621 53 16298373686814646425
27425 322 16987711287080154476
3298306 158 18409730655839205156
3411729 13 18335980960371188913
392239 28 18196369436426308738
4093350 32 17531799273039829167
45266715 3 18060148609448902619
513532 50 17822002147419052828
5265222 85 18196077851719621036

> <PUBCHEM_SHAPE_MULTIPOLES>
593.68
14.74
4.47
1.3
17.47
2.35
0.06
-5.66
-1.6
-2.44
0.28
-0.6
0.41
-0.72

> <PUBCHEM_SHAPE_SELFOVERLAP>
1258.273

> <PUBCHEM_SHAPE_VOLUME>
330.8

> <PUBCHEM_COORDINATE_TYPE>
2
5
10

$$$$

