11146
  -OEChem-06261205202D

173172  0     0  0  0  0  0  0999 V2000
   20.1865    7.2500    0.0000 O   0  0  0  0  0  0  0  0  0  0  0  0
   17.5885    6.7500    0.0000 O   0  0  0  0  0  0  0  0  0  0  0  0
   18.4545    5.2500    0.0000 O   0  0  0  0  0  0  0  0  0  0  0  0
   21.0526    5.7500    0.0000 O   0  0  0  0  0  0  0  0  0  0  0  0
   16.7224    8.2500    0.0000 O   0  0  0  0  0  0  0  0  0  0  0  0
   19.3205    3.7500    0.0000 O   0  0  0  0  0  0  0  0  0  0  0  0
   27.9808    6.7500    0.0000 C   0  0  0  0  0  0  0  0  0  0  0  0
   28.8468    7.2500    0.0000 C   0  0  0  0  0  0  0  0  0  0  0  0
    9.7942    7.2500    0.0000 C   0  0  0  0  0  0  0  0  0  0  0  0
   14.9904   -1.7500    0.0000 C   0  0  0  0  0  0  0  0  0  0  0  0
    8.9282    6.7500    0.0000 C   0  0  0  0  0  0  0  0  0  0  0  0
   14.1244   -2.2500    0.0000 C   0  0  0  0  0  0  0  0  0  0  0  0
   27.1147    7.2500    0.0000 C   0  0  0  0  0  0  0  0  0  0  0  0
   29.7128    6.7500    0.0000 C   0  0  0  0  0  0  0  0  0  0  0  0
   10.6603    6.7500    0.0000 C   0  0  0  0  0  0  0  0  0  0  0  0
   14.9904   -0.7500    0.0000 C   0  0  0  0  0  0  0  0  0  0  0  0
    8.0622    7.2500    0.0000 C   0  0  0  0  0  0  0  0  0  0  0  0
   14.1244   -3.2500    0.0000 C   0  0  0  0  0  0  0  0  0  0  0  0
   26.2487    6.7500    0.0000 C   0  0  0  0  0  0  0  0  0  0  0  0
   30.5788    7.2500    0.0000 C   0  0  0  0  0  0  0  0  0  0  0  0
   11.5263    7.2500    0.0000 C   0  0  0  0  0  0  0  0  0  0  0  0
   15.8564   -0.2500    0.0000 C   0  0  0  0  0  0  0  0  0  0  0  0
    7.1962    6.7500    0.0000 C   0  0  0  0  0  0  0  0  0  0  0  0
   13.2583   -3.7500    0.0000 C   0  0  0  0  0  0  0  0  0  0  0  0
   25.3827    7.2500    0.0000 C   0  0  0  0  0  0  0  0  0  0  0  0
   31.4449    6.7500    0.0000 C   0  0  0  0  0  0  0  0  0  0  0  0
   12.3923    6.7500    0.0000 C   0  0  0  0  0  0  0  0  0  0  0  0
   15.8564    0.7500    0.0000 C   0  0  0  0  0  0  0  0  0  0  0  0
    6.3301    7.2500    0.0000 C   0  0  0  0  0  0  0  0  0  0  0  0
   13.2583   -4.7500    0.0000 C   0  0  0  0  0  0  0  0  0  0  0  0
   24.5167    6.7500    0.0000 C   0  0  0  0  0  0  0  0  0  0  0  0
   32.3109    7.2500    0.0000 C   0  0  0  0  0  0  0  0  0  0  0  0
   13.2583    7.2500    0.0000 C   0  0  0  0  0  0  0  0  0  0  0  0
   16.7224    1.2500    0.0000 C   0  0  0  0  0  0  0  0  0  0  0  0
    5.4641    6.7500    0.0000 C   0  0  0  0  0  0  0  0  0  0  0  0
   12.3923   -5.2500    0.0000 C   0  0  0  0  0  0  0  0  0  0  0  0
   23.6506    7.2500    0.0000 C   0  0  0  0  0  0  0  0  0  0  0  0
   33.1769    6.7500    0.0000 C   0  0  0  0  0  0  0  0  0  0  0  0
   14.1244    6.7500    0.0000 C   0  0  0  0  0  0  0  0  0  0  0  0
   16.7224    2.2500    0.0000 C   0  0  0  0  0  0  0  0  0  0  0  0
    4.5981    7.2500    0.0000 C   0  0  0  0  0  0  0  0  0  0  0  0
   12.3923   -6.2500    0.0000 C   0  0  0  0  0  0  0  0  0  0  0  0
   22.7846    6.7500    0.0000 C   0  0  0  0  0  0  0  0  0  0  0  0
   34.0429    7.2500    0.0000 C   0  0  0  0  0  0  0  0  0  0  0  0
   14.9904    7.2500    0.0000 C   0  0  0  0  0  0  0  0  0  0  0  0
   17.5885    2.7500    0.0000 C   0  0  0  0  0  0  0  0  0  0  0  0
    3.7320    6.7500    0.0000 C   0  0  0  0  0  0  0  0  0  0  0  0
   11.5263   -6.7500    0.0000 C   0  0  0  0  0  0  0  0  0  0  0  0
   21.9186    7.2500    0.0000 C   0  0  0  0  0  0  0  0  0  0  0  0
   34.9090    6.7500    0.0000 C   0  0  0  0  0  0  0  0  0  0  0  0
    2.8660    7.2500    0.0000 C   0  0  0  0  0  0  0  0  0  0  0  0
   11.5263   -7.7500    0.0000 C   0  0  0  0  0  0  0  0  0  0  0  0
   15.8564    6.7500    0.0000 C   0  0  0  0  0  0  0  0  0  0  0  0
   17.5885    3.7500    0.0000 C   0  0  0  0  0  0  0  0  0  0  0  0
   19.3205    6.7500    0.0000 C   0  0  0  0  0  0  0  0  0  0  0  0
   21.0526    6.7500    0.0000 C   0  0  0  0  0  0  0  0  0  0  0  0
   35.7750    7.2500    0.0000 C   0  0  0  0  0  0  0  0  0  0  0  0
    2.0000    6.7500    0.0000 C   0  0  0  0  0  0  0  0  0  0  0  0
   10.6603   -8.2500    0.0000 C   0  0  0  0  0  0  0  0  0  0  0  0
   16.7224    7.2500    0.0000 C   0  0  0  0  0  0  0  0  0  0  0  0
   18.4545    4.2500    0.0000 C   0  0  0  0  0  0  0  0  0  0  0  0
   18.4545    7.2500    0.0000 C   0  0  0  0  0  0  0  0  0  0  0  0
   19.3205    5.7500    0.0000 C   0  0  0  0  0  0  0  0  0  0  0  0
   27.5822    6.2750    0.0000 H   0  0  0  0  0  0  0  0  0  0  0  0
   28.3793    6.2750    0.0000 H   0  0  0  0  0  0  0  0  0  0  0  0
   29.2453    7.7250    0.0000 H   0  0  0  0  0  0  0  0  0  0  0  0
   28.4483    7.7250    0.0000 H   0  0  0  0  0  0  0  0  0  0  0  0
   15.2024   -2.3326    0.0000 H   0  0  0  0  0  0  0  0  0  0  0  0
   15.6010   -1.6423    0.0000 H   0  0  0  0  0  0  0  0  0  0  0  0
   10.1928    7.7250    0.0000 H   0  0  0  0  0  0  0  0  0  0  0  0
    9.3957    7.7250    0.0000 H   0  0  0  0  0  0  0  0  0  0  0  0
    8.5297    6.2750    0.0000 H   0  0  0  0  0  0  0  0  0  0  0  0
    9.3267    6.2750    0.0000 H   0  0  0  0  0  0  0  0  0  0  0  0
   13.9123   -1.6674    0.0000 H   0  0  0  0  0  0  0  0  0  0  0  0
   13.5138   -2.3577    0.0000 H   0  0  0  0  0  0  0  0  0  0  0  0
   27.5133    7.7250    0.0000 H   0  0  0  0  0  0  0  0  0  0  0  0
   26.7162    7.7250    0.0000 H   0  0  0  0  0  0  0  0  0  0  0  0
   29.3143    6.2750    0.0000 H   0  0  0  0  0  0  0  0  0  0  0  0
   30.1113    6.2750    0.0000 H   0  0  0  0  0  0  0  0  0  0  0  0
   10.2617    6.2750    0.0000 H   0  0  0  0  0  0  0  0  0  0  0  0
   11.0588    6.2750    0.0000 H   0  0  0  0  0  0  0  0  0  0  0  0
   14.7783   -0.1674    0.0000 H   0  0  0  0  0  0  0  0  0  0  0  0
   14.3798   -0.8577    0.0000 H   0  0  0  0  0  0  0  0  0  0  0  0
   14.3364   -3.8326    0.0000 H   0  0  0  0  0  0  0  0  0  0  0  0
   14.7349   -3.1423    0.0000 H   0  0  0  0  0  0  0  0  0  0  0  0
    8.4607    7.7250    0.0000 H   0  0  0  0  0  0  0  0  0  0  0  0
    7.6636    7.7250    0.0000 H   0  0  0  0  0  0  0  0  0  0  0  0
   25.8502    6.2750    0.0000 H   0  0  0  0  0  0  0  0  0  0  0  0
   26.6472    6.2750    0.0000 H   0  0  0  0  0  0  0  0  0  0  0  0
   30.9774    7.7250    0.0000 H   0  0  0  0  0  0  0  0  0  0  0  0
   30.1803    7.7250    0.0000 H   0  0  0  0  0  0  0  0  0  0  0  0
   11.9248    7.7250    0.0000 H   0  0  0  0  0  0  0  0  0  0  0  0
   11.1278    7.7250    0.0000 H   0  0  0  0  0  0  0  0  0  0  0  0
   16.0685   -0.8326    0.0000 H   0  0  0  0  0  0  0  0  0  0  0  0
   16.4670   -0.1423    0.0000 H   0  0  0  0  0  0  0  0  0  0  0  0
    6.7976    6.2750    0.0000 H   0  0  0  0  0  0  0  0  0  0  0  0
    7.5947    6.2750    0.0000 H   0  0  0  0  0  0  0  0  0  0  0  0
   13.0463   -3.1674    0.0000 H   0  0  0  0  0  0  0  0  0  0  0  0
   12.6477   -3.8577    0.0000 H   0  0  0  0  0  0  0  0  0  0  0  0
   25.7812    7.7250    0.0000 H   0  0  0  0  0  0  0  0  0  0  0  0
   24.9842    7.7250    0.0000 H   0  0  0  0  0  0  0  0  0  0  0  0
   31.0463    6.2750    0.0000 H   0  0  0  0  0  0  0  0  0  0  0  0
   31.8434    6.2750    0.0000 H   0  0  0  0  0  0  0  0  0  0  0  0
   15.6444    1.3326    0.0000 H   0  0  0  0  0  0  0  0  0  0  0  0
   15.2458    0.6423    0.0000 H   0  0  0  0  0  0  0  0  0  0  0  0
   11.9938    6.2750    0.0000 H   0  0  0  0  0  0  0  0  0  0  0  0
   12.7908    6.2750    0.0000 H   0  0  0  0  0  0  0  0  0  0  0  0
    6.7287    7.7250    0.0000 H   0  0  0  0  0  0  0  0  0  0  0  0
    5.9316    7.7250    0.0000 H   0  0  0  0  0  0  0  0  0  0  0  0
   13.4704   -5.3326    0.0000 H   0  0  0  0  0  0  0  0  0  0  0  0
   13.8689   -4.6423    0.0000 H   0  0  0  0  0  0  0  0  0  0  0  0
   24.1181    6.2750    0.0000 H   0  0  0  0  0  0  0  0  0  0  0  0
   24.9152    6.2750    0.0000 H   0  0  0  0  0  0  0  0  0  0  0  0
   32.7094    7.7250    0.0000 H   0  0  0  0  0  0  0  0  0  0  0  0
   31.9124    7.7250    0.0000 H   0  0  0  0  0  0  0  0  0  0  0  0
   16.9345    0.6674    0.0000 H   0  0  0  0  0  0  0  0  0  0  0  0
   17.3330    1.3577    0.0000 H   0  0  0  0  0  0  0  0  0  0  0  0
   13.6569    7.7250    0.0000 H   0  0  0  0  0  0  0  0  0  0  0  0
   12.8598    7.7250    0.0000 H   0  0  0  0  0  0  0  0  0  0  0  0
   12.1803   -4.6674    0.0000 H   0  0  0  0  0  0  0  0  0  0  0  0
   11.7817   -5.3577    0.0000 H   0  0  0  0  0  0  0  0  0  0  0  0
    5.0656    6.2750    0.0000 H   0  0  0  0  0  0  0  0  0  0  0  0
    5.8626    6.2750    0.0000 H   0  0  0  0  0  0  0  0  0  0  0  0
   24.0492    7.7250    0.0000 H   0  0  0  0  0  0  0  0  0  0  0  0
   23.2521    7.7250    0.0000 H   0  0  0  0  0  0  0  0  0  0  0  0
   32.7784    6.2750    0.0000 H   0  0  0  0  0  0  0  0  0  0  0  0
   33.5754    6.2750    0.0000 H   0  0  0  0  0  0  0  0  0  0  0  0
   16.5104    2.8326    0.0000 H   0  0  0  0  0  0  0  0  0  0  0  0
   16.1119    2.1423    0.0000 H   0  0  0  0  0  0  0  0  0  0  0  0
   13.7258    6.2750    0.0000 H   0  0  0  0  0  0  0  0  0  0  0  0
   14.5229    6.2750    0.0000 H   0  0  0  0  0  0  0  0  0  0  0  0
    4.9966    7.7250    0.0000 H   0  0  0  0  0  0  0  0  0  0  0  0
    4.1996    7.7250    0.0000 H   0  0  0  0  0  0  0  0  0  0  0  0
   12.6044   -6.8326    0.0000 H   0  0  0  0  0  0  0  0  0  0  0  0
   13.0029   -6.1423    0.0000 H   0  0  0  0  0  0  0  0  0  0  0  0
   22.3861    6.2750    0.0000 H   0  0  0  0  0  0  0  0  0  0  0  0
   23.1831    6.2750    0.0000 H   0  0  0  0  0  0  0  0  0  0  0  0
   34.4415    7.7250    0.0000 H   0  0  0  0  0  0  0  0  0  0  0  0
   33.6444    7.7250    0.0000 H   0  0  0  0  0  0  0  0  0  0  0  0
   15.3889    7.7250    0.0000 H   0  0  0  0  0  0  0  0  0  0  0  0
   17.8005    2.1674    0.0000 H   0  0  0  0  0  0  0  0  0  0  0  0
   18.1990    2.8577    0.0000 H   0  0  0  0  0  0  0  0  0  0  0  0
   14.5919    7.7250    0.0000 H   0  0  0  0  0  0  0  0  0  0  0  0
    3.3335    6.2750    0.0000 H   0  0  0  0  0  0  0  0  0  0  0  0
    4.1306    6.2750    0.0000 H   0  0  0  0  0  0  0  0  0  0  0  0
   11.3142   -6.1674    0.0000 H   0  0  0  0  0  0  0  0  0  0  0  0
   10.9157   -6.8577    0.0000 H   0  0  0  0  0  0  0  0  0  0  0  0
   22.3171    7.7250    0.0000 H   0  0  0  0  0  0  0  0  0  0  0  0
   21.5201    7.7250    0.0000 H   0  0  0  0  0  0  0  0  0  0  0  0
   34.5104    6.2750    0.0000 H   0  0  0  0  0  0  0  0  0  0  0  0
   35.3075    6.2750    0.0000 H   0  0  0  0  0  0  0  0  0  0  0  0
   11.7383   -8.3326    0.0000 H   0  0  0  0  0  0  0  0  0  0  0  0
    3.2646    7.7250    0.0000 H   0  0  0  0  0  0  0  0  0  0  0  0
    2.4675    7.7250    0.0000 H   0  0  0  0  0  0  0  0  0  0  0  0
   12.1369   -7.6423    0.0000 H   0  0  0  0  0  0  0  0  0  0  0  0
   15.4579    6.2750    0.0000 H   0  0  0  0  0  0  0  0  0  0  0  0
   17.3764    4.3326    0.0000 H   0  0  0  0  0  0  0  0  0  0  0  0
   16.9779    3.6423    0.0000 H   0  0  0  0  0  0  0  0  0  0  0  0
   16.2549    6.2750    0.0000 H   0  0  0  0  0  0  0  0  0  0  0  0
   19.8574    6.4400    0.0000 H   0  0  0  0  0  0  0  0  0  0  0  0
   36.0850    6.7131    0.0000 H   0  0  0  0  0  0  0  0  0  0  0  0
   36.3119    7.5600    0.0000 H   0  0  0  0  0  0  0  0  0  0  0  0
   35.4650    7.7869    0.0000 H   0  0  0  0  0  0  0  0  0  0  0  0
    1.6900    7.2869    0.0000 H   0  0  0  0  0  0  0  0  0  0  0  0
    1.4631    6.4400    0.0000 H   0  0  0  0  0  0  0  0  0  0  0  0
   10.3503   -7.7131    0.0000 H   0  0  0  0  0  0  0  0  0  0  0  0
   10.1233   -8.5600    0.0000 H   0  0  0  0  0  0  0  0  0  0  0  0
   10.9703   -8.7869    0.0000 H   0  0  0  0  0  0  0  0  0  0  0  0
    2.3100    6.2131    0.0000 H   0  0  0  0  0  0  0  0  0  0  0  0
   18.8530    7.7250    0.0000 H   0  0  0  0  0  0  0  0  0  0  0  0
   18.0560    7.7250    0.0000 H   0  0  0  0  0  0  0  0  0  0  0  0
   19.5326    5.1674    0.0000 H   0  0  0  0  0  0  0  0  0  0  0  0
   19.9311    5.8577    0.0000 H   0  0  0  0  0  0  0  0  0  0  0  0
  1 55  1  0  0  0  0
  1 56  1  0  0  0  0
  2 60  1  0  0  0  0
  2 62  1  0  0  0  0
  3 61  1  0  0  0  0
  3 63  1  0  0  0  0
  4 56  2  0  0  0  0
  5 60  2  0  0  0  0
  6 61  2  0  0  0  0
  7  8  1  0  0  0  0
  7 13  1  0  0  0  0
  7 64  1  0  0  0  0
  7 65  1  0  0  0  0
  8 14  1  0  0  0  0
  8 66  1  0  0  0  0
  8 67  1  0  0  0  0
  9 11  1  0  0  0  0
  9 15  1  0  0  0  0
  9 70  1  0  0  0  0
  9 71  1  0  0  0  0
 10 12  1  0  0  0  0
 10 16  1  0  0  0  0
 10 68  1  0  0  0  0
 10 69  1  0  0  0  0
 11 17  1  0  0  0  0
 11 72  1  0  0  0  0
 11 73  1  0  0  0  0
 12 18  1  0  0  0  0
 12 74  1  0  0  0  0
 12 75  1  0  0  0  0
 13 19  1  0  0  0  0
 13 76  1  0  0  0  0
 13 77  1  0  0  0  0
 14 20  1  0  0  0  0
 14 78  1  0  0  0  0
 14 79  1  0  0  0  0
 15 21  1  0  0  0  0
 15 80  1  0  0  0  0
 15 81  1  0  0  0  0
 16 22  1  0  0  0  0
 16 82  1  0  0  0  0
 16 83  1  0  0  0  0
 17 23  1  0  0  0  0
 17 86  1  0  0  0  0
 17 87  1  0  0  0  0
 18 24  1  0  0  0  0
 18 84  1  0  0  0  0
 18 85  1  0  0  0  0
 19 25  1  0  0  0  0
 19 88  1  0  0  0  0
 19 89  1  0  0  0  0
 20 26  1  0  0  0  0
 20 90  1  0  0  0  0
 20 91  1  0  0  0  0
 21 27  1  0  0  0  0
 21 92  1  0  0  0  0
 21 93  1  0  0  0  0
 22 28  1  0  0  0  0
 22 94  1  0  0  0  0
 22 95  1  0  0  0  0
 23 29  1  0  0  0  0
 23 96  1  0  0  0  0
 23 97  1  0  0  0  0
 24 30  1  0  0  0  0
 24 98  1  0  0  0  0
 24 99  1  0  0  0  0
 25 31  1  0  0  0  0
 25100  1  0  0  0  0
 25101  1  0  0  0  0
 26 32  1  0  0  0  0
 26102  1  0  0  0  0
 26103  1  0  0  0  0
 27 33  1  0  0  0  0
 27106  1  0  0  0  0
 27107  1  0  0  0  0
 28 34  1  0  0  0  0
 28104  1  0  0  0  0
 28105  1  0  0  0  0
 29 35  1  0  0  0  0
 29108  1  0  0  0  0
 29109  1  0  0  0  0
 30 36  1  0  0  0  0
 30110  1  0  0  0  0
 30111  1  0  0  0  0
 31 37  1  0  0  0  0
 31112  1  0  0  0  0
 31113  1  0  0  0  0
 32 38  1  0  0  0  0
 32114  1  0  0  0  0
 32115  1  0  0  0  0
 33 39  1  0  0  0  0
 33118  1  0  0  0  0
 33119  1  0  0  0  0
 34 40  1  0  0  0  0
 34116  1  0  0  0  0
 34117  1  0  0  0  0
 35 41  1  0  0  0  0
 35122  1  0  0  0  0
 35123  1  0  0  0  0
 36 42  1  0  0  0  0
 36120  1  0  0  0  0
 36121  1  0  0  0  0
 37 43  1  0  0  0  0
 37124  1  0  0  0  0
 37125  1  0  0  0  0
 38 44  1  0  0  0  0
 38126  1  0  0  0  0
 38127  1  0  0  0  0
 39 45  1  0  0  0  0
 39130  1  0  0  0  0
 39131  1  0  0  0  0
 40 46  1  0  0  0  0
 40128  1  0  0  0  0
 40129  1  0  0  0  0
 41 47  1  0  0  0  0
 41132  1  0  0  0  0
 41133  1  0  0  0  0
 42 48  1  0  0  0  0
 42134  1  0  0  0  0
 42135  1  0  0  0  0
 43 49  1  0  0  0  0
 43136  1  0  0  0  0
 43137  1  0  0  0  0
 44 50  1  0  0  0  0
 44138  1  0  0  0  0
 44139  1  0  0  0  0
 45 53  1  0  0  0  0
 45140  1  0  0  0  0
 45143  1  0  0  0  0
 46 54  1  0  0  0  0
 46141  1  0  0  0  0
 46142  1  0  0  0  0
 47 51  1  0  0  0  0
 47144  1  0  0  0  0
 47145  1  0  0  0  0
 48 52  1  0  0  0  0
 48146  1  0  0  0  0
 48147  1  0  0  0  0
 49 56  1  0  0  0  0
 49148  1  0  0  0  0
 49149  1  0  0  0  0
 50 57  1  0  0  0  0
 50150  1  0  0  0  0
 50151  1  0  0  0  0
 51 58  1  0  0  0  0
 51153  1  0  0  0  0
 51154  1  0  0  0  0
 52 59  1  0  0  0  0
 52152  1  0  0  0  0
 52155  1  0  0  0  0
 53 60  1  0  0  0  0
 53156  1  0  0  0  0
 53159  1  0  0  0  0
 54 61  1  0  0  0  0
 54157  1  0  0  0  0
 54158  1  0  0  0  0
 55 62  1  0  0  0  0
 55 63  1  0  0  0  0
 55160  1  0  0  0  0
 57161  1  0  0  0  0
 57162  1  0  0  0  0
 57163  1  0  0  0  0
 58164  1  0  0  0  0
 58165  1  0  0  0  0
 58169  1  0  0  0  0
 59166  1  0  0  0  0
 59167  1  0  0  0  0
 59168  1  0  0  0  0
 62170  1  0  0  0  0
 62171  1  0  0  0  0
 63172  1  0  0  0  0
 63173  1  0  0  0  0
M  END
> <PUBCHEM_COMPOUND_CID>
11146

> <PUBCHEM_COMPOUND_CANONICALIZED>
1

> <PUBCHEM_CACTVS_COMPLEXITY>
886

> <PUBCHEM_CACTVS_HBOND_ACCEPTOR>
6

> <PUBCHEM_CACTVS_HBOND_DONOR>
0

> <PUBCHEM_CACTVS_ROTATABLE_BOND>
56

> <PUBCHEM_CACTVS_SUBSKEYS>
AAADcfB8OAAAAAAAAAAAAAAAAAAAAAAAAAAAAAAAAAAAAAAAAAAAGgAAAAAACBSggAICCAAABAAIAACQCAAAAAAAAAAAAAEAAAABABIAAAACAAAFAAACAAGIyKCAAAAAAAAAAAAAAAAAAAAAAAAAAAAAAA==

> <PUBCHEM_IUPAC_OPENEYE_NAME>
2,3-di(octadecanoyloxy)propyl octadecanoate

> <PUBCHEM_IUPAC_CAS_NAME>
octadecanoic acid 2,3-bis(1-oxooctadecoxy)propyl ester

> <PUBCHEM_IUPAC_NAME>
2,3-di(octadecanoyloxy)propyl octadecanoate

> <PUBCHEM_IUPAC_SYSTEMATIC_NAME>
2,3-di(octadecanoyloxy)propyl octadecanoate

> <PUBCHEM_IUPAC_TRADITIONAL_NAME>
stearic acid 2,3-distearoyloxypropyl ester

> <PUBCHEM_IUPAC_INCHI>
InChI=1S/C57H110O6/c1-4-7-10-13-16-19-22-25-28-31-34-37-40-43-46-49-55(58)61-52-54(63-57(60)51-48-45-42-39-36-33-30-27-24-21-18-15-12-9-6-3)53-62-56(59)50-47-44-41-38-35-32-29-26-23-20-17-14-11-8-5-2/h54H,4-53H2,1-3H3

> <PUBCHEM_IUPAC_INCHIKEY>
DCXXMTOCNZCJGO-UHFFFAOYSA-N

> <PUBCHEM_XLOGP3_AA>
25.2

> <PUBCHEM_EXACT_MASS>
890.830241

> <PUBCHEM_MOLECULAR_FORMULA>
C57H110O6

> <PUBCHEM_MOLECULAR_WEIGHT>
891.4797

> <PUBCHEM_OPENEYE_CAN_SMILES>
CCCCCCCCCCCCCCCCCC(=O)OCC(COC(=O)CCCCCCCCCCCCCCCCC)OC(=O)CCCCCCCCCCCCCCCCC

> <PUBCHEM_OPENEYE_ISO_SMILES>
CCCCCCCCCCCCCCCCCC(=O)OCC(COC(=O)CCCCCCCCCCCCCCCCC)OC(=O)CCCCCCCCCCCCCCCCC

> <PUBCHEM_CACTVS_TPSA>
78.9

> <PUBCHEM_MONOISOTOPIC_WEIGHT>
890.830241

> <PUBCHEM_TOTAL_CHARGE>
0

> <PUBCHEM_HEAVY_ATOM_COUNT>
63

> <PUBCHEM_ATOM_DEF_STEREO_COUNT>
0

> <PUBCHEM_ATOM_UDEF_STEREO_COUNT>
0

> <PUBCHEM_BOND_DEF_STEREO_COUNT>
0

> <PUBCHEM_BOND_UDEF_STEREO_COUNT>
0

> <PUBCHEM_ISOTOPIC_ATOM_COUNT>
0

> <PUBCHEM_COMPONENT_COUNT>
1

> <PUBCHEM_CACTVS_TAUTO_COUNT>
1

> <PUBCHEM_COORDINATE_TYPE>
1
5
255

$$$$

