14297
  -OEChem-06241222432D

 18 18  0     1  0  0  0  0  0999 V2000
    3.4483    2.1730    0.0000 O   0  0  0  0  0  0  0  0  0  0  0  0
    3.4483   -2.1730    0.0000 O   0  0  0  0  0  0  0  0  0  0  0  0
    4.6730    0.9483    0.0000 O   0  0  0  0  0  0  0  0  0  0  0  0
    4.6730   -0.9483    0.0000 O   0  0  0  0  0  0  0  0  0  0  0  0
    3.0000    0.5000    0.0000 C   0  0  3  0  0  0  0  0  0  0  0  0
    3.0000   -0.5000    0.0000 C   0  0  3  0  0  0  0  0  0  0  0  0
    2.0000   -0.5000    0.0000 C   0  0  0  0  0  0  0  0  0  0  0  0
    2.0000    0.5000    0.0000 C   0  0  0  0  0  0  0  0  0  0  0  0
    3.7071   -1.2071    0.0000 C   0  0  0  0  0  0  0  0  0  0  0  0
    3.7071    1.2071    0.0000 C   0  0  0  0  0  0  0  0  0  0  0  0
    3.5728    0.2627    0.0000 H   0  0  0  0  0  0  0  0  0  0  0  0
    3.5728   -0.2627    0.0000 H   0  0  0  0  0  0  0  0  0  0  0  0
    1.3800   -0.5000    0.0000 H   0  0  0  0  0  0  0  0  0  0  0  0
    2.0000   -1.1200    0.0000 H   0  0  0  0  0  0  0  0  0  0  0  0
    2.0000    1.1200    0.0000 H   0  0  0  0  0  0  0  0  0  0  0  0
    1.3800    0.5000    0.0000 H   0  0  0  0  0  0  0  0  0  0  0  0
    3.8867    2.6114    0.0000 H   0  0  0  0  0  0  0  0  0  0  0  0
    3.8867   -2.6114    0.0000 H   0  0  0  0  0  0  0  0  0  0  0  0
  1 10  1  0  0  0  0
  1 17  1  0  0  0  0
  2  9  1  0  0  0  0
  2 18  1  0  0  0  0
  3 10  2  0  0  0  0
  4  9  2  0  0  0  0
  5  6  1  0  0  0  0
  5  8  1  0  0  0  0
  5 10  1  0  0  0  0
  5 11  1  0  0  0  0
  6  7  1  0  0  0  0
  6  9  1  0  0  0  0
  6 12  1  0  0  0  0
  7  8  1  0  0  0  0
  7 13  1  0  0  0  0
  7 14  1  0  0  0  0
  8 15  1  0  0  0  0
  8 16  1  0  0  0  0
M  END
> <PUBCHEM_COMPOUND_CID>
14297

> <PUBCHEM_COMPOUND_CANONICALIZED>
1

> <PUBCHEM_CACTVS_COMPLEXITY>
155

> <PUBCHEM_CACTVS_HBOND_ACCEPTOR>
4

> <PUBCHEM_CACTVS_HBOND_DONOR>
2

> <PUBCHEM_CACTVS_ROTATABLE_BOND>
2

> <PUBCHEM_CACTVS_SUBSKEYS>
AAADccBgOAAAAAAAAAAAAAAAAABgAAAAAAAAAAAAAAAAAAAAAAAAGgAACAAADQCAgAAACAAAAgAIAACQCAAAAAAAAAAAAAEAAAAAABIAAAAAQAAEAAAAAAHLSAAKgAAAAAAAAAAAAAAAAAAAAAAAAAAAAA==

> <PUBCHEM_IUPAC_OPENEYE_NAME>
cyclobutane-1,2-dicarboxylic acid

> <PUBCHEM_IUPAC_CAS_NAME>
cyclobutane-1,2-dicarboxylic acid

> <PUBCHEM_IUPAC_NAME>
cyclobutane-1,2-dicarboxylic acid

> <PUBCHEM_IUPAC_SYSTEMATIC_NAME>
cyclobutane-1,2-dicarboxylic acid

> <PUBCHEM_IUPAC_TRADITIONAL_NAME>
cyclobutane-1,2-dicarboxylic acid

> <PUBCHEM_IUPAC_INCHI>
InChI=1S/C6H8O4/c7-5(8)3-1-2-4(3)6(9)10/h3-4H,1-2H2,(H,7,8)(H,9,10)

> <PUBCHEM_IUPAC_INCHIKEY>
SUSAGCZZQKACKE-UHFFFAOYSA-N

> <PUBCHEM_XLOGP3_AA>
-0.2

> <PUBCHEM_EXACT_MASS>
144.042259

> <PUBCHEM_MOLECULAR_FORMULA>
C6H8O4

> <PUBCHEM_MOLECULAR_WEIGHT>
144.12532

> <PUBCHEM_OPENEYE_CAN_SMILES>
C1CC(C1C(=O)O)C(=O)O

> <PUBCHEM_OPENEYE_ISO_SMILES>
C1CC(C1C(=O)O)C(=O)O

> <PUBCHEM_CACTVS_TPSA>
74.6

> <PUBCHEM_MONOISOTOPIC_WEIGHT>
144.042259

> <PUBCHEM_TOTAL_CHARGE>
0

> <PUBCHEM_HEAVY_ATOM_COUNT>
10

> <PUBCHEM_ATOM_DEF_STEREO_COUNT>
0

> <PUBCHEM_ATOM_UDEF_STEREO_COUNT>
2

> <PUBCHEM_BOND_DEF_STEREO_COUNT>
0

> <PUBCHEM_BOND_UDEF_STEREO_COUNT>
0

> <PUBCHEM_ISOTOPIC_ATOM_COUNT>
0

> <PUBCHEM_COMPONENT_COUNT>
1

> <PUBCHEM_CACTVS_TAUTO_COUNT>
1

> <PUBCHEM_COORDINATE_TYPE>
1
5
255

> <PUBCHEM_BONDANNOTATIONS>
5  10  3
6  9  3

$$$$

