582950
  -OEChem-06241222442D

 31 33  0     0  0  0  0  0  0999 V2000
   10.1921    2.0994    0.0000 F   0  0  0  0  0  0  0  0  0  0  0  0
    6.2781    1.2745    0.0000 O   0  0  0  0  0  0  0  0  0  0  0  0
    4.3211    0.8621    0.0000 O   0  0  0  0  0  0  0  0  0  0  0  0
    4.6783   -0.8327    0.0000 N   0  0  0  0  0  0  0  0  0  0  0  0
    4.6783   -2.4422    0.0000 N   0  0  0  0  0  0  0  0  0  0  0  0
    3.7320   -1.1375    0.0000 C   0  0  0  0  0  0  0  0  0  0  0  0
    3.7320   -2.1375    0.0000 C   0  0  0  0  0  0  0  0  0  0  0  0
    4.9889    0.1178    0.0000 C   0  0  0  0  0  0  0  0  0  0  0  0
    5.2619   -1.6375    0.0000 C   0  0  0  0  0  0  0  0  0  0  0  0
    2.8660   -0.6375    0.0000 C   0  0  0  0  0  0  0  0  0  0  0  0
    5.9674    0.3240    0.0000 C   0  0  0  0  0  0  0  0  0  0  0  0
    2.8660   -2.6375    0.0000 C   0  0  0  0  0  0  0  0  0  0  0  0
    2.0000   -1.1375    0.0000 C   0  0  0  0  0  0  0  0  0  0  0  0
    2.0000   -2.1375    0.0000 C   0  0  0  0  0  0  0  0  0  0  0  0
    7.2566    1.4807    0.0000 C   0  0  0  0  0  0  0  0  0  0  0  0
    7.9244    0.7364    0.0000 C   0  0  0  0  0  0  0  0  0  0  0  0
    7.5673    2.4313    0.0000 C   0  0  0  0  0  0  0  0  0  0  0  0
    8.9030    0.9427    0.0000 C   0  0  0  0  0  0  0  0  0  0  0  0
    8.5458    2.6375    0.0000 C   0  0  0  0  0  0  0  0  0  0  0  0
    9.2136    1.8932    0.0000 C   0  0  0  0  0  0  0  0  0  0  0  0
    5.8819   -1.6375    0.0000 H   0  0  0  0  0  0  0  0  0  0  0  0
    2.8660   -0.0175    0.0000 H   0  0  0  0  0  0  0  0  0  0  0  0
    5.9880   -0.2957    0.0000 H   0  0  0  0  0  0  0  0  0  0  0  0
    6.5812    0.2366    0.0000 H   0  0  0  0  0  0  0  0  0  0  0  0
    2.8660   -3.2575    0.0000 H   0  0  0  0  0  0  0  0  0  0  0  0
    1.4631   -0.8275    0.0000 H   0  0  0  0  0  0  0  0  0  0  0  0
    1.4631   -2.4475    0.0000 H   0  0  0  0  0  0  0  0  0  0  0  0
    7.7318    0.1471    0.0000 H   0  0  0  0  0  0  0  0  0  0  0  0
    7.1532    2.8927    0.0000 H   0  0  0  0  0  0  0  0  0  0  0  0
    9.3170    0.4812    0.0000 H   0  0  0  0  0  0  0  0  0  0  0  0
    8.7384    3.2268    0.0000 H   0  0  0  0  0  0  0  0  0  0  0  0
  1 20  1  0  0  0  0
  2 11  1  0  0  0  0
  2 15  1  0  0  0  0
  3  8  2  0  0  0  0
  4  6  1  0  0  0  0
  4  8  1  0  0  0  0
  4  9  1  0  0  0  0
  5  7  1  0  0  0  0
  5  9  2  0  0  0  0
  6  7  1  0  0  0  0
  6 10  2  0  0  0  0
  7 12  2  0  0  0  0
  8 11  1  0  0  0  0
  9 21  1  0  0  0  0
 10 13  1  0  0  0  0
 10 22  1  0  0  0  0
 11 23  1  0  0  0  0
 11 24  1  0  0  0  0
 12 14  1  0  0  0  0
 12 25  1  0  0  0  0
 13 14  2  0  0  0  0
 13 26  1  0  0  0  0
 14 27  1  0  0  0  0
 15 16  2  0  0  0  0
 15 17  1  0  0  0  0
 16 18  1  0  0  0  0
 16 28  1  0  0  0  0
 17 19  2  0  0  0  0
 17 29  1  0  0  0  0
 18 20  2  0  0  0  0
 18 30  1  0  0  0  0
 19 20  1  0  0  0  0
 19 31  1  0  0  0  0
M  END
> <PUBCHEM_COMPOUND_CID>
582950

> <PUBCHEM_COMPOUND_CANONICALIZED>
1

> <PUBCHEM_CACTVS_COMPLEXITY>
345

> <PUBCHEM_CACTVS_HBOND_ACCEPTOR>
4

> <PUBCHEM_CACTVS_HBOND_DONOR>
0

> <PUBCHEM_CACTVS_ROTATABLE_BOND>
3

> <PUBCHEM_CACTVS_SUBSKEYS>
AAADccBzMQAAAAAAAAAAAAAAAAAAAWAAAAAwYAAAAAAAAFgB9AAAHwAAAAAACAyhlg411rcMFACoASVzdAKCiC0xMqAJ2CB+fJiObqLEuZ+XOCjsxxPY6CeQQAAAAAAAAAAAACAAAAAAAAAAQAAAAAAAAA==

> <PUBCHEM_IUPAC_OPENEYE_NAME>
1-(benzimidazol-1-yl)-2-(4-fluorophenoxy)ethanone

> <PUBCHEM_IUPAC_CAS_NAME>
1-(1-benzimidazolyl)-2-(4-fluorophenoxy)ethanone

> <PUBCHEM_IUPAC_NAME>
1-(benzimidazol-1-yl)-2-(4-fluorophenoxy)ethanone

> <PUBCHEM_IUPAC_SYSTEMATIC_NAME>
1-(benzimidazol-1-yl)-2-(4-fluoranylphenoxy)ethanone

> <PUBCHEM_IUPAC_TRADITIONAL_NAME>
1-(benzimidazol-1-yl)-2-(4-fluorophenoxy)ethanone

> <PUBCHEM_IUPAC_INCHI>
InChI=1S/C15H11FN2O2/c16-11-5-7-12(8-6-11)20-9-15(19)18-10-17-13-3-1-2-4-14(13)18/h1-8,10H,9H2

> <PUBCHEM_IUPAC_INCHIKEY>
GOYMCJWFTNXZSX-UHFFFAOYSA-N

> <PUBCHEM_XLOGP3_AA>
3.1

> <PUBCHEM_EXACT_MASS>
270.080456

> <PUBCHEM_MOLECULAR_FORMULA>
C15H11FN2O2

> <PUBCHEM_MOLECULAR_WEIGHT>
270.258443

> <PUBCHEM_OPENEYE_CAN_SMILES>
C1=CC=C2C(=C1)N=CN2C(=O)COC3=CC=C(C=C3)F

> <PUBCHEM_OPENEYE_ISO_SMILES>
C1=CC=C2C(=C1)N=CN2C(=O)COC3=CC=C(C=C3)F

> <PUBCHEM_CACTVS_TPSA>
44.1

> <PUBCHEM_MONOISOTOPIC_WEIGHT>
270.080456

> <PUBCHEM_TOTAL_CHARGE>
0

> <PUBCHEM_HEAVY_ATOM_COUNT>
20

> <PUBCHEM_ATOM_DEF_STEREO_COUNT>
0

> <PUBCHEM_ATOM_UDEF_STEREO_COUNT>
0

> <PUBCHEM_BOND_DEF_STEREO_COUNT>
0

> <PUBCHEM_BOND_UDEF_STEREO_COUNT>
0

> <PUBCHEM_ISOTOPIC_ATOM_COUNT>
0

> <PUBCHEM_COMPONENT_COUNT>
1

> <PUBCHEM_CACTVS_TAUTO_COUNT>
1

> <PUBCHEM_COORDINATE_TYPE>
1
5
255

> <PUBCHEM_BONDANNOTATIONS>
10  13  8
12  14  8
13  14  8
15  16  8
15  17  8
16  18  8
17  19  8
18  20  8
19  20  8
4  6  8
4  9  8
5  7  8
5  9  8
6  10  8
6  7  8
7  12  8

$$$$

