47205659
  -OEChem-06241222593D

 32 33  0     0  0  0  0  0  0999 V2000
   -4.7770   -1.9257    0.2384 F   0  0  0  0  0  0  0  0  0  0  0  0
    4.1284    0.8806    1.5801 O   0  0  0  0  0  0  0  0  0  0  0  0
    1.5842   -0.8497   -0.4428 O   0  0  0  0  0  0  0  0  0  0  0  0
   -4.8466    2.1162    0.0983 O   0  5  0  0  0  0  0  0  0  0  0  0
   -5.9331    0.2170    0.2764 O   0  0  0  0  0  0  0  0  0  0  0  0
    3.6068    0.9063   -0.6907 N   0  0  0  0  0  0  0  0  0  0  0  0
   -0.0365    0.8542   -0.3400 N   0  0  0  0  0  0  0  0  0  0  0  0
   -4.8653    0.8626    0.1455 N   0  3  0  0  0  0  0  0  0  0  0  0
    5.7578    0.0968    0.0751 C   0  0  0  0  0  0  0  0  0  0  0  0
    5.8341   -1.1637   -0.7356 C   0  0  0  0  0  0  0  0  0  0  0  0
    6.1845   -1.1875    0.7233 C   0  0  0  0  0  0  0  0  0  0  0  0
    4.4194    0.6675    0.4089 C   0  0  0  0  0  0  0  0  0  0  0  0
    2.2835    1.4493   -0.5945 C   0  0  0  0  0  0  0  0  0  0  0  0
    1.2635    0.3342   -0.4518 C   0  0  0  0  0  0  0  0  0  0  0  0
   -1.2356    0.1559   -0.1943 C   0  0  0  0  0  0  0  0  0  0  0  0
   -2.4411    0.8510   -0.0980 C   0  0  0  0  0  0  0  0  0  0  0  0
   -1.2285   -1.2381   -0.1445 C   0  0  0  0  0  0  0  0  0  0  0  0
   -3.6394    0.1521    0.0477 C   0  0  0  0  0  0  0  0  0  0  0  0
   -2.4267   -1.9370    0.0011 C   0  0  0  0  0  0  0  0  0  0  0  0
   -3.6323   -1.2418    0.0973 C   0  0  0  0  0  0  0  0  0  0  0  0
    6.5355    0.8371   -0.0832 H   0  0  0  0  0  0  0  0  0  0  0  0
    5.4978   -1.6869    1.3959 H   0  0  0  0  0  0  0  0  0  0  0  0
    7.2289   -1.2961    0.9891 H   0  0  0  0  0  0  0  0  0  0  0  0
    6.6430   -1.2544   -1.4504 H   0  0  0  0  0  0  0  0  0  0  0  0
    4.9176   -1.6576   -1.0349 H   0  0  0  0  0  0  0  0  0  0  0  0
    3.9577    0.6824   -1.6175 H   0  0  0  0  0  0  0  0  0  0  0  0
    2.2171    2.1162    0.2712 H   0  0  0  0  0  0  0  0  0  0  0  0
    2.0804    2.0136   -1.5096 H   0  0  0  0  0  0  0  0  0  0  0  0
   -0.1255    1.8679   -0.3678 H   0  0  0  0  0  0  0  0  0  0  0  0
   -2.4231    1.9380   -0.1390 H   0  0  0  0  0  0  0  0  0  0  0  0
   -0.3375   -1.8463   -0.2119 H   0  0  0  0  0  0  0  0  0  0  0  0
   -2.4228   -3.0224    0.0402 H   0  0  0  0  0  0  0  0  0  0  0  0
  1 20  1  0  0  0  0
  2 12  2  0  0  0  0
  3 14  2  0  0  0  0
  4  8  1  0  0  0  0
  5  8  2  0  0  0  0
  6 12  1  0  0  0  0
  6 13  1  0  0  0  0
  6 26  1  0  0  0  0
  7 14  1  0  0  0  0
  7 15  1  0  0  0  0
  7 29  1  0  0  0  0
  8 18  1  0  0  0  0
  9 10  1  0  0  0  0
  9 11  1  0  0  0  0
  9 12  1  0  0  0  0
  9 21  1  0  0  0  0
 10 11  1  0  0  0  0
 10 24  1  0  0  0  0
 10 25  1  0  0  0  0
 11 22  1  0  0  0  0
 11 23  1  0  0  0  0
 13 14  1  0  0  0  0
 13 27  1  0  0  0  0
 13 28  1  0  0  0  0
 15 16  2  0  0  0  0
 15 17  1  0  0  0  0
 16 18  1  0  0  0  0
 16 30  1  0  0  0  0
 17 19  2  0  0  0  0
 17 31  1  0  0  0  0
 18 20  2  0  0  0  0
 19 20  1  0  0  0  0
 19 32  1  0  0  0  0
M  CHG  2   4  -1   8   1
M  END
> <PUBCHEM_COMPOUND_CID>
47205659

> <PUBCHEM_CONFORMER_RMSD>
0.8

> <PUBCHEM_CONFORMER_DIVERSEORDER>
1
44
79
54
32
13
72
71
41
78
5
10
37
52
76
69
62
9
33
7
75
24
65
48
59
16
50
83
6
21
82
42
77
51
22
15
14
74
64
63
19
56
17
55
31
4
81
73
27
30
36
11
28
58
29
12
61
26
40
43
67
2
45
3
47
46
35
60
23
39
68
18
70
57
34
80
8
49
38
53
20
66
25

> <PUBCHEM_MMFF94_PARTIAL_CHARGES>
30
1 -0.19
10 -0.2
11 -0.2
12 0.63
13 0.36
14 0.57
15 0.12
16 -0.15
17 -0.15
18 0.13
19 -0.15
2 -0.57
20 0.19
21 0.1
22 0.1
23 0.1
24 0.1
25 0.1
26 0.37
29 0.37
3 -0.57
30 0.15
31 0.15
32 0.15
4 -0.52
5 -0.52
6 -0.73
7 -0.55
8 0.91
9 -0.1

> <PUBCHEM_EFFECTIVE_ROTOR_COUNT>
7.6

> <PUBCHEM_PHARMACOPHORE_FEATURES>
8
1 2 acceptor
1 3 acceptor
1 4 acceptor
1 4 anion
1 5 acceptor
1 6 donor
1 7 donor
6 15 16 17 18 19 20 rings

> <PUBCHEM_HEAVY_ATOM_COUNT>
20

> <PUBCHEM_ATOM_DEF_STEREO_COUNT>
0

> <PUBCHEM_ATOM_UDEF_STEREO_COUNT>
0

> <PUBCHEM_BOND_DEF_STEREO_COUNT>
0

> <PUBCHEM_BOND_UDEF_STEREO_COUNT>
0

> <PUBCHEM_ISOTOPIC_ATOM_COUNT>
0

> <PUBCHEM_COMPONENT_COUNT>
1

> <PUBCHEM_CACTVS_TAUTO_COUNT>
4

> <PUBCHEM_CONFORMER_ID>
02D04D1B00000001

> <PUBCHEM_MMFF94_ENERGY>
53.0547

> <PUBCHEM_FEATURE_SELFOVERLAP>
40.676

> <PUBCHEM_SHAPE_FINGERPRINT>
11089746 13 17530692017095648240
11545043 162 18261395520375980058
12236239 1 18131631171161903940
13167823 11 18272653403043046170
13533116 47 17604146034430942534
13675066 3 18260270707597009828
14251718 22 9727631709116655648
14251758 9 18411702105846575340
14341114 176 18407757028346466416
14420673 8 18341611572697843434
14528608 73 8430315745213269474
15042514 8 18196649589181391411
15183329 4 18272653463130474878
15196674 1 18411980217837577868
15348495 7 18113904806091504426
15537594 2 17203333320978497514
15788980 27 18272084981090286672
17844677 252 18409724033073630672
1813 80 17203891864543282742
19141452 34 18411139117317784150
19489759 90 18186802482911087105
20281389 69 18411981364462438177
21065198 57 18263646169354934712
21267235 1 18271518715649200067
23016692 55 18341321263516243646
23402539 116 18334299760005857037
23522609 53 17630580479827089180
23559900 14 18334013882946065504
26918003 58 18186238433345733208
2767999 5 4895551883700137770
3004659 81 18343858919109880308
351380 3 17418379099399877264
3545911 37 18408601483024565877
4073 2 17988075570644378098
4214541 1 18411699885179814549
465052 167 18273211994042719846
5104073 3 18338228258990570289
542803 24 17131830958827060694
559249 180 18413673521347072367
573450 72 18343025449749841537
5924683 9 17750242400156626119
9965369 4 18411983589265508003
9995097 60 18334293205801380286

> <PUBCHEM_SHAPE_MULTIPOLES>
365.9
15.82
1.78
0.82
8.09
0.29
-0.12
1.56
-2.28
-1.27
0
0.94
-0.06
0.09

> <PUBCHEM_SHAPE_SELFOVERLAP>
768.468

> <PUBCHEM_SHAPE_VOLUME>
206.7

> <PUBCHEM_COORDINATE_TYPE>
2
5
10

$$$$

