17395590
  -OEChem-06241222513D

 39 41  0     1  0  0  0  0  0999 V2000
   -4.5640    0.2170    1.3051 S   0  0  0  0  0  0  0  0  0  0  0  0
   -1.5959   -1.6371   -0.4075 N   0  0  1  0  0  0  0  0  0  0  0  0
    0.7042    0.3917    0.4981 N   0  0  0  0  0  0  0  0  0  0  0  0
    1.4850   -1.8859    0.4005 N   0  0  0  0  0  0  0  0  0  0  0  0
    3.7503   -2.3619   -0.0216 N   0  0  0  0  0  0  0  0  0  0  0  0
   -3.0328   -1.5863   -0.1448 C   0  0  0  0  0  0  0  0  0  0  0  0
   -0.8433   -1.4313    0.8321 C   0  0  0  0  0  0  0  0  0  0  0  0
   -3.5037   -0.1667    0.0164 C   0  0  0  0  0  0  0  0  0  0  0  0
    0.5399   -0.9454    0.5594 C   0  0  0  0  0  0  0  0  0  0  0  0
   -3.2019    0.9369   -0.7508 C   0  0  0  0  0  0  0  0  0  0  0  0
   -1.2308   -2.9139   -1.0184 C   0  0  0  0  0  0  0  0  0  0  0  0
    3.0216   -0.0502    0.0669 C   0  0  0  0  0  0  0  0  0  0  0  0
    1.9486    0.8370    0.2512 C   0  0  0  0  0  0  0  0  0  0  0  0
   -3.8494    2.1132   -0.2740 C   0  0  0  0  0  0  0  0  0  0  0  0
    2.7187   -1.4061    0.1550 C   0  0  0  0  0  0  0  0  0  0  0  0
   -2.3100    0.9160   -1.9349 C   0  0  0  0  0  0  0  0  0  0  0  0
   -4.6216    1.8637    0.8391 C   0  0  0  0  0  0  0  0  0  0  0  0
    4.3185    0.4268   -0.1907 C   0  0  0  0  0  0  0  0  0  0  0  0
    2.2128    2.2021    0.1703 C   0  0  0  0  0  0  0  0  0  0  0  0
    4.5540    1.7960   -0.2662 C   0  0  0  0  0  0  0  0  0  0  0  0
    3.4998    2.6843   -0.0854 C   0  0  0  0  0  0  0  0  0  0  0  0
   -3.3011   -2.2140    0.7154 H   0  0  0  0  0  0  0  0  0  0  0  0
   -3.5871   -1.9897   -1.0039 H   0  0  0  0  0  0  0  0  0  0  0  0
   -0.8136   -2.3418    1.4459 H   0  0  0  0  0  0  0  0  0  0  0  0
   -1.3187   -0.6713    1.4658 H   0  0  0  0  0  0  0  0  0  0  0  0
   -0.1762   -2.9388   -1.3088 H   0  0  0  0  0  0  0  0  0  0  0  0
   -1.7939   -3.0675   -1.9465 H   0  0  0  0  0  0  0  0  0  0  0  0
   -1.4319   -3.7650   -0.3573 H   0  0  0  0  0  0  0  0  0  0  0  0
   -3.7573    3.0956   -0.7197 H   0  0  0  0  0  0  0  0  0  0  0  0
   -1.2590    0.9248   -1.6315 H   0  0  0  0  0  0  0  0  0  0  0  0
   -2.4924    0.0363   -2.5607 H   0  0  0  0  0  0  0  0  0  0  0  0
   -2.4768    1.7963   -2.5655 H   0  0  0  0  0  0  0  0  0  0  0  0
   -5.2166    2.5698    1.4010 H   0  0  0  0  0  0  0  0  0  0  0  0
    5.1667   -0.2374   -0.3283 H   0  0  0  0  0  0  0  0  0  0  0  0
    1.4047    2.9182    0.3078 H   0  0  0  0  0  0  0  0  0  0  0  0
    5.5546    2.1688   -0.4629 H   0  0  0  0  0  0  0  0  0  0  0  0
    3.6751    3.7548   -0.1422 H   0  0  0  0  0  0  0  0  0  0  0  0
    4.4740   -2.1703   -0.7027 H   0  0  0  0  0  0  0  0  0  0  0  0
    3.4728   -3.3314    0.0805 H   0  0  0  0  0  0  0  0  0  0  0  0
  1  8  1  0  0  0  0
  1 17  1  0  0  0  0
  2  6  1  0  0  0  0
  2  7  1  0  0  0  0
  2 11  1  0  0  0  0
  3  9  2  0  0  0  0
  3 13  1  0  0  0  0
  4  9  1  0  0  0  0
  4 15  2  0  0  0  0
  5 15  1  0  0  0  0
  5 38  1  0  0  0  0
  5 39  1  0  0  0  0
  6  8  1  0  0  0  0
  6 22  1  0  0  0  0
  6 23  1  0  0  0  0
  7  9  1  0  0  0  0
  7 24  1  0  0  0  0
  7 25  1  0  0  0  0
  8 10  2  0  0  0  0
 10 14  1  0  0  0  0
 10 16  1  0  0  0  0
 11 26  1  0  0  0  0
 11 27  1  0  0  0  0
 11 28  1  0  0  0  0
 12 13  1  0  0  0  0
 12 15  1  0  0  0  0
 12 18  2  0  0  0  0
 13 19  2  0  0  0  0
 14 17  2  0  0  0  0
 14 29  1  0  0  0  0
 16 30  1  0  0  0  0
 16 31  1  0  0  0  0
 16 32  1  0  0  0  0
 17 33  1  0  0  0  0
 18 20  1  0  0  0  0
 18 34  1  0  0  0  0
 19 21  1  0  0  0  0
 19 35  1  0  0  0  0
 20 21  2  0  0  0  0
 20 36  1  0  0  0  0
 21 37  1  0  0  0  0
M  END
> <PUBCHEM_COMPOUND_CID>
17395590

> <PUBCHEM_CONFORMER_RMSD>
0.6

> <PUBCHEM_CONFORMER_DIVERSEORDER>
1
134
245
240
173
257
256
175
47
243
103
244
177
178
151
234
143
225
246
231
90
307
137
200
7
153
253
206
261
85
226
79
306
251
140
104
131
286
148
259
201
233
249
179
41
208
204
43
3
228
82
274
285
211
278
12
142
198
169
202
78
222
100
297
118
236
258
59
170
197
70
184
180
255
124
199
97
10
163
317
296
167
221
6
227
96
115
2
304
87
315
141
74
196
277
99
62
154
123
203
24
305
32
248
262
283
21
275
138
214
83
11
27
38
155
37
76
302
15
205
91
144
114
57
165
314
58
269
183
95
8
308
19
75
185
5
125
130
128
272
56
77
55
71
136
26
113
16
60
22
209
145
36
238
105
39
72
288
13
29
150
107
223
42
68
28
189
294
195
49
108
112
127
86
311
235
109
33
188
291
290
230
106
232
65
14
281
23
66
299
287
133
312
273
17
279
44
139
4
303
54
157
31
20
64
152
260
132
194
61
147
310
271
309
45
156
25
313
237
160
298
161
101
282
50
292
46
174
289
126
267
111
102
247
293
316
264
129
210
146
268
30
51
187
159
48
266
135
119
110
122
220
207
81
40
88
276
166
93
265
121
219
250
120
270
94
63
164
149
241
280
254
117
18
176
172
92
193
181
67
52
73
191
190
213
300
215
98
186
34
239
9
171
284
229
69
217
182
84
158
80
116
192
89
295
162
301
35
53
252
216
168
263
224
212
218
242

> <PUBCHEM_MMFF94_PARTIAL_CHARGES>
28
1 -0.08
10 -0.18
11 0.27
13 0.31
14 -0.15
15 0.41
16 0.18
17 -0.11
18 -0.15
19 -0.15
2 -0.81
20 -0.15
21 -0.15
29 0.15
3 -0.62
33 0.15
34 0.15
35 0.15
36 0.15
37 0.15
38 0.4
39 0.4
4 -0.62
5 -0.9
6 0.45
7 0.41
8 -0.14
9 0.48

> <PUBCHEM_EFFECTIVE_ROTOR_COUNT>
4

> <PUBCHEM_PHARMACOPHORE_FEATURES>
7
1 2 cation
1 5 donor
3 3 4 9 cation
3 4 5 15 cation
5 1 8 10 14 17 rings
6 12 13 18 19 20 21 rings
6 3 4 9 12 13 15 rings

> <PUBCHEM_HEAVY_ATOM_COUNT>
21

> <PUBCHEM_ATOM_DEF_STEREO_COUNT>
0

> <PUBCHEM_ATOM_UDEF_STEREO_COUNT>
0

> <PUBCHEM_BOND_DEF_STEREO_COUNT>
0

> <PUBCHEM_BOND_UDEF_STEREO_COUNT>
0

> <PUBCHEM_ISOTOPIC_ATOM_COUNT>
0

> <PUBCHEM_COMPONENT_COUNT>
1

> <PUBCHEM_CACTVS_TAUTO_COUNT>
3

> <PUBCHEM_CONFORMER_ID>
01096F8600000001

> <PUBCHEM_MMFF94_ENERGY>
61.1728

> <PUBCHEM_FEATURE_SELFOVERLAP>
35.697

> <PUBCHEM_SHAPE_FINGERPRINT>
10498660 4 17988098732960023789
11370993 144 18270676584305483169
11595378 159 16630538331541206596
11615756 256 18411983537726166645
116883 192 18044087093586313542
12173636 292 18187374194729648167
12403260 363 17979932514303705872
12422481 6 18127157297515106984
12633257 1 18341624749250734446
12788726 201 18122361081439468067
13464514 151 18412542081496556642
13583140 156 17273996781242693435
14713325 29 17983569702631028458
151778 21 18408881875579977071
15196674 1 18411699911197414753
15295992 7 18059284456899893715
1601671 61 18411982460317018832
17834072 32 18337107968843707089
18186145 218 18409732888836804326
18785283 64 18191578864570530647
21033648 29 16916792950365568245
21421861 104 17987529255067723962
21864079 5 18411706516909967345
221357 26 18189335671554054797
22182937 141 18340201895568777739
22393880 68 18188204278906241284
22907989 373 17970086469271133111
23227448 37 18410572843059493655
23402655 69 18335698291915705388
23559900 14 18259987106822861050
238 59 17479784744941540469
25 1 18413110537481915922
27216 239 18272367577670724785
350125 39 18335983078333436827
469060 322 16486420867580998903
474 4 17916866811687389836
4921388 177 15068628141440171317
5104073 3 18343303664756776066
543358 83 18409444804533179218
6287921 2 18059002878754427037
633830 44 18338238275096923199
7832392 63 18409452453521760676

> <PUBCHEM_SHAPE_MULTIPOLES>
416.1
10.09
3.12
1.09
0.36
0.47
-0.26
-5.3
0.89
-0.88
-0.35
1.17
-0.07
-0.36

> <PUBCHEM_SHAPE_SELFOVERLAP>
887.053

> <PUBCHEM_SHAPE_VOLUME>
235.6

> <PUBCHEM_COORDINATE_TYPE>
2
5
10

$$$$

