51090902
  -OEChem-06241223002D

 50 51  0     0  0  0  0  0  0999 V2000
    3.0000   -3.7500    0.0000 S   0  0  0  0  0  0  0  0  0  0  0  0
    2.0000   -3.7500    0.0000 O   0  0  0  0  0  0  0  0  0  0  0  0
    4.0000   -3.7500    0.0000 O   0  0  0  0  0  0  0  0  0  0  0  0
    2.1340    0.7500    0.0000 O   0  0  0  0  0  0  0  0  0  0  0  0
    5.5981    1.7500    0.0000 O   0  0  0  0  0  0  0  0  0  0  0  0
    3.0000   -2.7500    0.0000 N   0  0  0  0  0  0  0  0  0  0  0  0
    4.7320    3.2500    0.0000 N   0  0  0  0  0  0  0  0  0  0  0  0
    3.8660    0.7500    0.0000 N   0  0  0  0  0  0  0  0  0  0  0  0
    3.0000   -0.7500    0.0000 C   0  0  0  0  0  0  0  0  0  0  0  0
    3.8660   -1.2500    0.0000 C   0  0  0  0  0  0  0  0  0  0  0  0
    2.1340   -1.2500    0.0000 C   0  0  0  0  0  0  0  0  0  0  0  0
    2.1340   -2.2500    0.0000 C   0  0  0  0  0  0  0  0  0  0  0  0
    3.8660   -2.2500    0.0000 C   0  0  0  0  0  0  0  0  0  0  0  0
    3.0000    0.2500    0.0000 C   0  0  0  0  0  0  0  0  0  0  0  0
    5.5981    3.7500    0.0000 C   0  0  0  0  0  0  0  0  0  0  0  0
    3.8660    3.7500    0.0000 C   0  0  0  0  0  0  0  0  0  0  0  0
    3.8660    4.7500    0.0000 C   0  0  0  0  0  0  0  0  0  0  0  0
    5.5981    4.7500    0.0000 C   0  0  0  0  0  0  0  0  0  0  0  0
    4.7320    5.2500    0.0000 C   0  0  0  0  0  0  0  0  0  0  0  0
    3.0000   -4.7500    0.0000 C   0  0  0  0  0  0  0  0  0  0  0  0
    3.8660    1.7500    0.0000 C   0  0  0  0  0  0  0  0  0  0  0  0
    4.7320    2.2500    0.0000 C   0  0  0  0  0  0  0  0  0  0  0  0
    2.1340   -5.2500    0.0000 C   0  0  0  0  0  0  0  0  0  0  0  0
    3.5369   -0.4400    0.0000 H   0  0  0  0  0  0  0  0  0  0  0  0
    4.4766   -1.3577    0.0000 H   0  0  0  0  0  0  0  0  0  0  0  0
    4.0781   -0.6674    0.0000 H   0  0  0  0  0  0  0  0  0  0  0  0
    1.9219   -0.6674    0.0000 H   0  0  0  0  0  0  0  0  0  0  0  0
    1.5234   -1.3577    0.0000 H   0  0  0  0  0  0  0  0  0  0  0  0
    4.0781   -2.8326    0.0000 H   0  0  0  0  0  0  0  0  0  0  0  0
    4.4766   -2.1423    0.0000 H   0  0  0  0  0  0  0  0  0  0  0  0
    1.5234   -2.1423    0.0000 H   0  0  0  0  0  0  0  0  0  0  0  0
    1.9219   -2.8326    0.0000 H   0  0  0  0  0  0  0  0  0  0  0  0
    3.2554    3.8577    0.0000 H   0  0  0  0  0  0  0  0  0  0  0  0
    5.8101    3.1674    0.0000 H   0  0  0  0  0  0  0  0  0  0  0  0
    6.2087    3.8577    0.0000 H   0  0  0  0  0  0  0  0  0  0  0  0
    3.6540    3.1674    0.0000 H   0  0  0  0  0  0  0  0  0  0  0  0
    6.2087    4.6423    0.0000 H   0  0  0  0  0  0  0  0  0  0  0  0
    5.8101    5.3326    0.0000 H   0  0  0  0  0  0  0  0  0  0  0  0
    3.6540    5.3326    0.0000 H   0  0  0  0  0  0  0  0  0  0  0  0
    3.2554    4.6423    0.0000 H   0  0  0  0  0  0  0  0  0  0  0  0
    5.1306    5.7250    0.0000 H   0  0  0  0  0  0  0  0  0  0  0  0
    4.3335    5.7250    0.0000 H   0  0  0  0  0  0  0  0  0  0  0  0
    3.2120   -5.3326    0.0000 H   0  0  0  0  0  0  0  0  0  0  0  0
    3.6106   -4.6423    0.0000 H   0  0  0  0  0  0  0  0  0  0  0  0
    4.4030    0.4400    0.0000 H   0  0  0  0  0  0  0  0  0  0  0  0
    3.6540    2.3326    0.0000 H   0  0  0  0  0  0  0  0  0  0  0  0
    3.2554    1.6423    0.0000 H   0  0  0  0  0  0  0  0  0  0  0  0
    1.8240   -4.7131    0.0000 H   0  0  0  0  0  0  0  0  0  0  0  0
    1.5970   -5.5600    0.0000 H   0  0  0  0  0  0  0  0  0  0  0  0
    2.4440   -5.7869    0.0000 H   0  0  0  0  0  0  0  0  0  0  0  0
  1  2  2  0  0  0  0
  1  3  2  0  0  0  0
  1  6  1  0  0  0  0
  1 20  1  0  0  0  0
  4 14  2  0  0  0  0
  5 22  2  0  0  0  0
  6 12  1  0  0  0  0
  6 13  1  0  0  0  0
  7 15  1  0  0  0  0
  7 16  1  0  0  0  0
  7 22  1  0  0  0  0
  8 14  1  0  0  0  0
  8 21  1  0  0  0  0
  8 45  1  0  0  0  0
  9 10  1  0  0  0  0
  9 11  1  0  0  0  0
  9 14  1  0  0  0  0
  9 24  1  0  0  0  0
 10 13  1  0  0  0  0
 10 25  1  0  0  0  0
 10 26  1  0  0  0  0
 11 12  1  0  0  0  0
 11 27  1  0  0  0  0
 11 28  1  0  0  0  0
 12 31  1  0  0  0  0
 12 32  1  0  0  0  0
 13 29  1  0  0  0  0
 13 30  1  0  0  0  0
 15 18  1  0  0  0  0
 15 34  1  0  0  0  0
 15 35  1  0  0  0  0
 16 17  1  0  0  0  0
 16 33  1  0  0  0  0
 16 36  1  0  0  0  0
 17 19  1  0  0  0  0
 17 39  1  0  0  0  0
 17 40  1  0  0  0  0
 18 19  1  0  0  0  0
 18 37  1  0  0  0  0
 18 38  1  0  0  0  0
 19 41  1  0  0  0  0
 19 42  1  0  0  0  0
 20 23  1  0  0  0  0
 20 43  1  0  0  0  0
 20 44  1  0  0  0  0
 21 22  1  0  0  0  0
 21 46  1  0  0  0  0
 21 47  1  0  0  0  0
 23 48  1  0  0  0  0
 23 49  1  0  0  0  0
 23 50  1  0  0  0  0
M  END
> <PUBCHEM_COMPOUND_CID>
51090902

> <PUBCHEM_COMPOUND_CANONICALIZED>
1

> <PUBCHEM_CACTVS_COMPLEXITY>
515

> <PUBCHEM_CACTVS_HBOND_ACCEPTOR>
5

> <PUBCHEM_CACTVS_HBOND_DONOR>
1

> <PUBCHEM_CACTVS_ROTATABLE_BOND>
5

> <PUBCHEM_CACTVS_SUBSKEYS>
AAADceBzOABAAAAAAAAAAAAAAAAAAAAAAAAsWAAAAAAAAAAAAAAAHgQQQAAADQDFwASCAAPAAAIIAAEQEHBAAAAAAAAAAIGIAAAAQBIAgCAUAAAAFgCAAAAUAAAKAAAAAAAAAAAAAAAAAAAAAAAAAAAAAA==

> <PUBCHEM_IUPAC_OPENEYE_NAME>
1-ethylsulfonyl-N-[2-oxo-2-(1-piperidyl)ethyl]piperidine-4-carboxamide

> <PUBCHEM_IUPAC_CAS_NAME>
1-ethylsulfonyl-N-[2-oxo-2-(1-piperidinyl)ethyl]-4-piperidinecarboxamide

> <PUBCHEM_IUPAC_NAME>
1-ethylsulfonyl-N-(2-oxo-2-piperidin-1-ylethyl)piperidine-4-carboxamide

> <PUBCHEM_IUPAC_SYSTEMATIC_NAME>
1-ethylsulfonyl-N-(2-oxidanylidene-2-piperidin-1-yl-ethyl)piperidine-4-carboxamide

> <PUBCHEM_IUPAC_TRADITIONAL_NAME>
1-esyl-N-(2-keto-2-piperidino-ethyl)isonipecotamide

> <PUBCHEM_IUPAC_INCHI>
InChI=1S/C15H27N3O4S/c1-2-23(21,22)18-10-6-13(7-11-18)15(20)16-12-14(19)17-8-4-3-5-9-17/h13H,2-12H2,1H3,(H,16,20)

> <PUBCHEM_IUPAC_INCHIKEY>
YRABOJNSBGDMRD-UHFFFAOYSA-N

> <PUBCHEM_XLOGP3_AA>
0

> <PUBCHEM_EXACT_MASS>
345.172227

> <PUBCHEM_MOLECULAR_FORMULA>
C15H27N3O4S

> <PUBCHEM_MOLECULAR_WEIGHT>
345.45758

> <PUBCHEM_OPENEYE_CAN_SMILES>
CCS(=O)(=O)N1CCC(CC1)C(=O)NCC(=O)N2CCCCC2

> <PUBCHEM_OPENEYE_ISO_SMILES>
CCS(=O)(=O)N1CCC(CC1)C(=O)NCC(=O)N2CCCCC2

> <PUBCHEM_CACTVS_TPSA>
95.2

> <PUBCHEM_MONOISOTOPIC_WEIGHT>
345.172227

> <PUBCHEM_TOTAL_CHARGE>
0

> <PUBCHEM_HEAVY_ATOM_COUNT>
23

> <PUBCHEM_ATOM_DEF_STEREO_COUNT>
0

> <PUBCHEM_ATOM_UDEF_STEREO_COUNT>
0

> <PUBCHEM_BOND_DEF_STEREO_COUNT>
0

> <PUBCHEM_BOND_UDEF_STEREO_COUNT>
0

> <PUBCHEM_ISOTOPIC_ATOM_COUNT>
0

> <PUBCHEM_COMPONENT_COUNT>
1

> <PUBCHEM_CACTVS_TAUTO_COUNT>
2

> <PUBCHEM_COORDINATE_TYPE>
1
5
255

$$$$

