582692
  -OEChem-06241222432D

 19 19  0     0  0  0  0  0  0999 V2000
    5.4641   -1.0000    0.0000 N   0  0  0  0  0  0  0  0  0  0  0  0
    2.0000    0.0000    0.0000 N   0  0  0  0  0  0  0  0  0  0  0  0
    8.9282    0.0000    0.0000 N   0  0  0  0  0  0  0  0  0  0  0  0
    4.5981   -0.5000    0.0000 C   0  0  0  0  0  0  0  0  0  0  0  0
    6.3301   -0.5000    0.0000 C   0  0  0  0  0  0  0  0  0  0  0  0
    4.5981    0.5000    0.0000 C   0  0  0  0  0  0  0  0  0  0  0  0
    6.3301    0.5000    0.0000 C   0  0  0  0  0  0  0  0  0  0  0  0
    3.7320   -1.0000    0.0000 C   0  0  0  0  0  0  0  0  0  0  0  0
    7.1962   -1.0000    0.0000 C   0  0  0  0  0  0  0  0  0  0  0  0
    5.4641    1.0000    0.0000 C   0  0  0  0  0  0  0  0  0  0  0  0
    2.8660   -0.5000    0.0000 C   0  0  0  0  0  0  0  0  0  0  0  0
    8.0622   -0.5000    0.0000 C   0  0  0  0  0  0  0  0  0  0  0  0
    4.0611    0.8100    0.0000 H   0  0  0  0  0  0  0  0  0  0  0  0
    6.8671    0.8100    0.0000 H   0  0  0  0  0  0  0  0  0  0  0  0
    3.3335   -1.4750    0.0000 H   0  0  0  0  0  0  0  0  0  0  0  0
    4.1306   -1.4750    0.0000 H   0  0  0  0  0  0  0  0  0  0  0  0
    6.7976   -1.4750    0.0000 H   0  0  0  0  0  0  0  0  0  0  0  0
    7.5947   -1.4750    0.0000 H   0  0  0  0  0  0  0  0  0  0  0  0
    5.4641    1.6200    0.0000 H   0  0  0  0  0  0  0  0  0  0  0  0
  1  4  2  0  0  0  0
  1  5  1  0  0  0  0
  2 11  3  0  0  0  0
  3 12  3  0  0  0  0
  4  6  1  0  0  0  0
  4  8  1  0  0  0  0
  5  7  2  0  0  0  0
  5  9  1  0  0  0  0
  6 10  2  0  0  0  0
  6 13  1  0  0  0  0
  7 10  1  0  0  0  0
  7 14  1  0  0  0  0
  8 11  1  0  0  0  0
  8 15  1  0  0  0  0
  8 16  1  0  0  0  0
  9 12  1  0  0  0  0
  9 17  1  0  0  0  0
  9 18  1  0  0  0  0
 10 19  1  0  0  0  0
M  END
> <PUBCHEM_COMPOUND_CID>
582692

> <PUBCHEM_COMPOUND_CANONICALIZED>
1

> <PUBCHEM_CACTVS_COMPLEXITY>
205

> <PUBCHEM_CACTVS_HBOND_ACCEPTOR>
3

> <PUBCHEM_CACTVS_HBOND_DONOR>
0

> <PUBCHEM_CACTVS_ROTATABLE_BOND>
2

> <PUBCHEM_CACTVS_SUBSKEYS>
AAADcYBzAAAAAAAAAAAAAAAAAAAAAAAAAAAsAAAAAAAAAAABgAAAHAAAAAAACAiBFgAwgJIIEACwBSRiRACCgCAhAiAImCAwZJgIoOLAkZGEIAhggADIyA8QgIAAAAAAAAAAAAAAAAAAAAAAAAAAAAAAAA==

> <PUBCHEM_IUPAC_OPENEYE_NAME>
2-[6-(cyanomethyl)-2-pyridyl]acetonitrile

> <PUBCHEM_IUPAC_CAS_NAME>
2-[6-(cyanomethyl)-2-pyridinyl]acetonitrile

> <PUBCHEM_IUPAC_NAME>
2-[6-(cyanomethyl)pyridin-2-yl]acetonitrile

> <PUBCHEM_IUPAC_SYSTEMATIC_NAME>
2-[6-(cyanomethyl)pyridin-2-yl]ethanenitrile

> <PUBCHEM_IUPAC_TRADITIONAL_NAME>
2-[6-(cyanomethyl)-2-pyridyl]acetonitrile

> <PUBCHEM_IUPAC_INCHI>
InChI=1S/C9H7N3/c10-6-4-8-2-1-3-9(12-8)5-7-11/h1-3H,4-5H2

> <PUBCHEM_IUPAC_INCHIKEY>
ZSLMXJLUZXSZAF-UHFFFAOYSA-N

> <PUBCHEM_XLOGP3_AA>
0.2

> <PUBCHEM_EXACT_MASS>
157.063997

> <PUBCHEM_MOLECULAR_FORMULA>
C9H7N3

> <PUBCHEM_MOLECULAR_WEIGHT>
157.17198

> <PUBCHEM_OPENEYE_CAN_SMILES>
C1=CC(=NC(=C1)CC#N)CC#N

> <PUBCHEM_OPENEYE_ISO_SMILES>
C1=CC(=NC(=C1)CC#N)CC#N

> <PUBCHEM_CACTVS_TPSA>
60.5

> <PUBCHEM_MONOISOTOPIC_WEIGHT>
157.063997

> <PUBCHEM_TOTAL_CHARGE>
0

> <PUBCHEM_HEAVY_ATOM_COUNT>
12

> <PUBCHEM_ATOM_DEF_STEREO_COUNT>
0

> <PUBCHEM_ATOM_UDEF_STEREO_COUNT>
0

> <PUBCHEM_BOND_DEF_STEREO_COUNT>
0

> <PUBCHEM_BOND_UDEF_STEREO_COUNT>
0

> <PUBCHEM_ISOTOPIC_ATOM_COUNT>
0

> <PUBCHEM_COMPONENT_COUNT>
1

> <PUBCHEM_CACTVS_TAUTO_COUNT>
2

> <PUBCHEM_COORDINATE_TYPE>
1
5
255

> <PUBCHEM_BONDANNOTATIONS>
1  4  8
1  5  8
4  6  8
5  7  8
6  10  8
7  10  8

$$$$

