17396322
  -OEChem-06241222553D

 38 40  0     0  0  0  0  0  0999 V2000
    3.0658    1.2153    0.7745 S   0  0  0  0  0  0  0  0  0  0  0  0
    1.2327   -0.7767   -0.2242 O   0  0  0  0  0  0  0  0  0  0  0  0
   -3.1669   -1.4264    2.6311 O   0  0  0  0  0  0  0  0  0  0  0  0
    2.7846   -2.1037   -1.2666 O   0  0  0  0  0  0  0  0  0  0  0  0
   -1.8051   -0.2834   -0.9618 N   0  0  0  0  0  0  0  0  0  0  0  0
   -1.5193   -1.5424    1.0419 N   0  0  0  0  0  0  0  0  0  0  0  0
    5.5768    0.9114    0.2404 N   0  0  0  0  0  0  0  0  0  0  0  0
   -3.0382    0.2248   -0.5486 C   0  0  0  0  0  0  0  0  0  0  0  0
   -3.5413   -0.1550    0.7032 C   0  0  0  0  0  0  0  0  0  0  0  0
   -3.7788    1.0999   -1.3473 C   0  0  0  0  0  0  0  0  0  0  0  0
   -1.1222   -1.1398   -0.1302 C   0  0  0  0  0  0  0  0  0  0  0  0
   -4.7712    0.3315    1.1543 C   0  0  0  0  0  0  0  0  0  0  0  0
    0.2040   -1.6540   -0.6330 C   0  0  0  0  0  0  0  0  0  0  0  0
   -5.0076    1.5874   -0.8992 C   0  0  0  0  0  0  0  0  0  0  0  0
   -2.7305   -1.0890    1.5349 C   0  0  0  0  0  0  0  0  0  0  0  0
   -5.5019    1.2039    0.3478 C   0  0  0  0  0  0  0  0  0  0  0  0
   -3.2869    1.5368   -2.6895 C   0  0  0  0  0  0  0  0  0  0  0  0
    3.5300   -0.1538   -0.1481 C   0  0  0  0  0  0  0  0  0  0  0  0
    4.8969   -0.1467   -0.3306 C   0  0  0  0  0  0  0  0  0  0  0  0
    2.5146   -1.1063   -0.6054 C   0  0  0  0  0  0  0  0  0  0  0  0
    4.7124    1.6928    0.8491 C   0  0  0  0  0  0  0  0  0  0  0  0
    5.6826   -1.1556   -1.0707 C   0  0  0  0  0  0  0  0  0  0  0  0
    5.0695    2.9290    1.5780 C   0  0  0  0  0  0  0  0  0  0  0  0
   -1.4324   -0.0112   -1.8627 H   0  0  0  0  0  0  0  0  0  0  0  0
    0.1773   -1.7197   -1.7268 H   0  0  0  0  0  0  0  0  0  0  0  0
    0.3785   -2.6534   -0.2175 H   0  0  0  0  0  0  0  0  0  0  0  0
   -5.1733    0.0454    2.1218 H   0  0  0  0  0  0  0  0  0  0  0  0
   -5.5947    2.2685   -1.5099 H   0  0  0  0  0  0  0  0  0  0  0  0
   -6.4587    1.5862    0.6919 H   0  0  0  0  0  0  0  0  0  0  0  0
   -2.3324    2.0649   -2.5937 H   0  0  0  0  0  0  0  0  0  0  0  0
   -3.1598    0.6727   -3.3500 H   0  0  0  0  0  0  0  0  0  0  0  0
   -3.9884    2.2204   -3.1801 H   0  0  0  0  0  0  0  0  0  0  0  0
    5.3608   -1.2077   -2.1157 H   0  0  0  0  0  0  0  0  0  0  0  0
    6.7491   -0.9083   -1.0625 H   0  0  0  0  0  0  0  0  0  0  0  0
    5.5667   -2.1457   -0.6185 H   0  0  0  0  0  0  0  0  0  0  0  0
    4.5769    3.8017    1.1372 H   0  0  0  0  0  0  0  0  0  0  0  0
    4.7832    2.8602    2.6325 H   0  0  0  0  0  0  0  0  0  0  0  0
    6.1501    3.1005    1.5369 H   0  0  0  0  0  0  0  0  0  0  0  0
  1 18  1  0  0  0  0
  1 21  1  0  0  0  0
  2 13  1  0  0  0  0
  2 20  1  0  0  0  0
  3 15  2  0  0  0  0
  4 20  2  0  0  0  0
  5  8  1  0  0  0  0
  5 11  1  0  0  0  0
  5 24  1  0  0  0  0
  6 11  2  0  0  0  0
  6 15  1  0  0  0  0
  7 19  1  0  0  0  0
  7 21  2  0  0  0  0
  8  9  1  0  0  0  0
  8 10  2  0  0  0  0
  9 12  2  0  0  0  0
  9 15  1  0  0  0  0
 10 14  1  0  0  0  0
 10 17  1  0  0  0  0
 11 13  1  0  0  0  0
 12 16  1  0  0  0  0
 12 27  1  0  0  0  0
 13 25  1  0  0  0  0
 13 26  1  0  0  0  0
 14 16  2  0  0  0  0
 14 28  1  0  0  0  0
 16 29  1  0  0  0  0
 17 30  1  0  0  0  0
 17 31  1  0  0  0  0
 17 32  1  0  0  0  0
 18 19  2  0  0  0  0
 18 20  1  0  0  0  0
 19 22  1  0  0  0  0
 21 23  1  0  0  0  0
 22 33  1  0  0  0  0
 22 34  1  0  0  0  0
 22 35  1  0  0  0  0
 23 36  1  0  0  0  0
 23 37  1  0  0  0  0
 23 38  1  0  0  0  0
M  END
> <PUBCHEM_COMPOUND_CID>
17396322

> <PUBCHEM_CONFORMER_RMSD>
0.8

> <PUBCHEM_CONFORMER_DIVERSEORDER>
1
79
116
41
104
91
106
128
145
4
103
66
124
117
67
92
146
70
29
121
58
118
101
53
77
16
109
140
115
82
59
28
139
6
108
135
112
23
51
69
141
94
136
90
12
44
61
8
40
71
133
80
137
48
119
120
81
75
126
34
49
87
97
86
24
73
20
96
30
21
134
56
43
39
111
62
129
26
57
127
55
122
33
143
100
31
3
68
102
144
25
123
138
42
105
60
93
130
84
89
142
32
114
37
95
110
107
83
47
54
72
22
52
65
19
85
74
36
131
98
113
38
13
50
10
88
78
5
17
11
45
18
2
63
27
132
125
46
76
35
15
7
9
14
99
64

> <PUBCHEM_MMFF94_PARTIAL_CHARGES>
27
1 -0.08
10 -0.14
11 0.44
12 -0.15
13 0.34
14 -0.15
15 0.69
16 -0.15
17 0.14
18 -0.05
19 0.05
2 -0.43
20 0.81
21 0.2
22 0.18
23 0.18
24 0.4
27 0.15
28 0.15
29 0.15
3 -0.57
4 -0.57
5 -0.55
6 -0.66
7 -0.57
8 0.1
9 0.09

> <PUBCHEM_EFFECTIVE_ROTOR_COUNT>
4

> <PUBCHEM_PHARMACOPHORE_FEATURES>
8
1 3 acceptor
1 4 acceptor
1 5 donor
1 6 donor
1 7 acceptor
5 1 7 18 19 21 rings
6 5 6 8 9 11 15 rings
6 8 9 10 12 14 16 rings

> <PUBCHEM_HEAVY_ATOM_COUNT>
23

> <PUBCHEM_ATOM_DEF_STEREO_COUNT>
0

> <PUBCHEM_ATOM_UDEF_STEREO_COUNT>
0

> <PUBCHEM_BOND_DEF_STEREO_COUNT>
0

> <PUBCHEM_BOND_UDEF_STEREO_COUNT>
0

> <PUBCHEM_ISOTOPIC_ATOM_COUNT>
0

> <PUBCHEM_COMPONENT_COUNT>
1

> <PUBCHEM_CACTVS_TAUTO_COUNT>
3

> <PUBCHEM_CONFORMER_ID>
0109726200000001

> <PUBCHEM_MMFF94_ENERGY>
55.726

> <PUBCHEM_FEATURE_SELFOVERLAP>
40.655

> <PUBCHEM_SHAPE_FINGERPRINT>
10319926 262 17704076205029890922
10928967 22 12679198123631803616
11089746 13 18260269668162358622
11112241 14 18115039484585147361
11135609 149 17099175648503675702
11595378 159 15841556305140753325
12236239 1 16515402997097371463
12403259 415 18410849941464678986
12616971 3 16805597079799930482
12633257 1 16989123132385924429
13402501 40 18412830200234364477
14341114 328 15913607272292017400
14848178 96 17677337091844672840
15081414 286 18261387807306494648
15183329 4 16732695078475898924
15537594 2 13182733732820741690
1768 210 16880774946288741616
1813 80 12607398944427274202
19377110 9 14620797064184712220
193927 3 9367349262297215150
20511986 3 16298677178036186200
20554085 129 17274280447375775429
20645477 56 18343299292775817919
21033648 144 18041285370402274908
21033648 29 18342178843361484056
212916 134 17561367300673262827
21315763 76 17603308142082426776
21792961 116 18267293417920153030
22122407 14 17895742011132344665
22393880 68 7132176220698281712
23559900 14 17845362413880405918
2748736 6 17678193590033940848
2838139 119 18260553363220553277
2916195 48 18413393154914886413
341906 21 17632581569234540868
4371632 12 16518522144118578256
474 4 17676482865171592334
497634 4 17749675095533049895
5104073 3 18337397045981415818
574716 61 16877953706419595317
633830 44 17096347494016848374
90127 26 18341894061302056106
9981440 41 16701183152760414729

> <PUBCHEM_SHAPE_MULTIPOLES>
444.63
14.92
2.27
1.89
8.01
0.78
-0.04
7.34
0.16
2.61
0.3
-2.49
0.16
3.51

> <PUBCHEM_SHAPE_SELFOVERLAP>
950.603

> <PUBCHEM_SHAPE_VOLUME>
249.1

> <PUBCHEM_COORDINATE_TYPE>
2
5
10

$$$$

