11897
  -OEChem-06261206153D

 21 21  0     0  0  0  0  0  0999 V2000
    2.5447    1.4673   -0.4807 O   0  0  0  0  0  0  0  0  0  0  0  0
    2.8451   -0.5717    0.4778 O   0  0  0  0  0  0  0  0  0  0  0  0
   -0.0221   -1.0078   -0.0777 C   0  0  0  0  0  0  0  0  0  0  0  0
   -2.1565    0.1205    0.0135 C   0  0  0  0  0  0  0  0  0  0  0  0
    0.6313    0.2196    0.0335 C   0  0  0  0  0  0  0  0  0  0  0  0
   -1.4161   -1.0574   -0.0877 C   0  0  0  0  0  0  0  0  0  0  0  0
   -1.5029    1.3478    0.1247 C   0  0  0  0  0  0  0  0  0  0  0  0
   -0.1090    1.3974    0.1348 C   0  0  0  0  0  0  0  0  0  0  0  0
    0.7467   -2.2842   -0.1873 C   0  0  0  0  0  0  0  0  0  0  0  0
   -3.6469    0.0681    0.0025 C   0  0  0  0  0  0  0  0  0  0  0  0
    2.0858    0.3003    0.0466 C   0  0  0  0  0  0  0  0  0  0  0  0
   -1.9306   -2.0119   -0.1710 H   0  0  0  0  0  0  0  0  0  0  0  0
   -2.0688    2.2719    0.2090 H   0  0  0  0  0  0  0  0  0  0  0  0
    0.3698    2.3678    0.2364 H   0  0  0  0  0  0  0  0  0  0  0  0
    0.0886   -3.1257   -0.4329 H   0  0  0  0  0  0  0  0  0  0  0  0
    1.4892   -2.2319   -0.9904 H   0  0  0  0  0  0  0  0  0  0  0  0
    1.2343   -2.5259    0.7624 H   0  0  0  0  0  0  0  0  0  0  0  0
   -4.0074   -0.7469   -0.6343 H   0  0  0  0  0  0  0  0  0  0  0  0
   -4.0248   -0.0853    1.0182 H   0  0  0  0  0  0  0  0  0  0  0  0
   -4.0740    0.9959   -0.3930 H   0  0  0  0  0  0  0  0  0  0  0  0
    3.5246    1.5132   -0.4683 H   0  0  0  0  0  0  0  0  0  0  0  0
  1 11  1  0  0  0  0
  1 21  1  0  0  0  0
  2 11  2  0  0  0  0
  3  5  2  0  0  0  0
  3  6  1  0  0  0  0
  3  9  1  0  0  0  0
  4  6  2  0  0  0  0
  4  7  1  0  0  0  0
  4 10  1  0  0  0  0
  5  8  1  0  0  0  0
  5 11  1  0  0  0  0
  6 12  1  0  0  0  0
  7  8  2  0  0  0  0
  7 13  1  0  0  0  0
  8 14  1  0  0  0  0
  9 15  1  0  0  0  0
  9 16  1  0  0  0  0
  9 17  1  0  0  0  0
 10 18  1  0  0  0  0
 10 19  1  0  0  0  0
 10 20  1  0  0  0  0
M  END
> <PUBCHEM_COMPOUND_CID>
11897

> <PUBCHEM_CONFORMER_RMSD>
0.4

> <PUBCHEM_CONFORMER_DIVERSEORDER>
2
1
3

> <PUBCHEM_MMFF94_PARTIAL_CHARGES>
15
1 -0.65
10 0.14
11 0.63
12 0.15
13 0.15
14 0.15
2 -0.57
21 0.5
3 -0.14
4 -0.14
5 0.09
6 -0.15
7 -0.15
8 -0.15
9 0.14

> <PUBCHEM_EFFECTIVE_ROTOR_COUNT>
1

> <PUBCHEM_PHARMACOPHORE_FEATURES>
4
1 1 acceptor
1 2 acceptor
3 1 2 11 anion
6 3 4 5 6 7 8 rings

> <PUBCHEM_HEAVY_ATOM_COUNT>
11

> <PUBCHEM_ATOM_DEF_STEREO_COUNT>
0

> <PUBCHEM_ATOM_UDEF_STEREO_COUNT>
0

> <PUBCHEM_BOND_DEF_STEREO_COUNT>
0

> <PUBCHEM_BOND_UDEF_STEREO_COUNT>
0

> <PUBCHEM_ISOTOPIC_ATOM_COUNT>
0

> <PUBCHEM_COMPONENT_COUNT>
1

> <PUBCHEM_CACTVS_TAUTO_COUNT>
1

> <PUBCHEM_CONFORMER_ID>
00002E7900000002

> <PUBCHEM_MMFF94_ENERGY>
32.6494

> <PUBCHEM_FEATURE_SELFOVERLAP>
20.355

> <PUBCHEM_SHAPE_FINGERPRINT>
10219947 1 18342174453778326369
12897270 3 18410855481798320109
13380535 76 18411140242583612003
14325111 11 18411418388812643849
15775835 57 18338513049708328548
16945 1 18410289250431764863
193761 8 17833267901906785969
19973954 147 18121779692884482753
20201158 50 18340770429022089531
20645476 183 17844231948454515166
20645477 70 18264775531633269639
21040471 1 18336829676089414722
23235685 24 18411141320540892193
23402655 69 18191886711305685781
23463225 33 18341335573445258322
23552423 10 18267861877145028287
23559900 14 18116985595530734724
241688 4 17546724219430979586
2748010 2 18049444747143904421
369184 2 17203614774100543561
5084963 1 18187645842430684952
528862 383 18341901847624518339
528886 8 18409452449084381699

> <PUBCHEM_SHAPE_MULTIPOLES>
214.64
4.22
1.85
0.64
1.16
0.55
0
-0.58
0.08
-0.56
-0.12
-0.05
-0.01
-0.18

> <PUBCHEM_SHAPE_SELFOVERLAP>
449.742

> <PUBCHEM_SHAPE_VOLUME>
122.5

> <PUBCHEM_COORDINATE_TYPE>
2
5
10

$$$$

