854351
  -OEChem-06241222483D

 23 23  0     1  0  0  0  0  0999 V2000
    3.2961   -0.1443    0.7983 O   0  0  0  0  0  0  0  0  0  0  0  0
    2.3513    0.8313   -1.0282 O   0  0  0  0  0  0  0  0  0  0  0  0
   -1.2157   -1.3627    0.0078 N   0  0  0  0  0  0  0  0  0  0  0  0
   -0.1677   -0.3717   -0.2670 C   0  0  1  0  0  0  0  0  0  0  0  0
   -0.4640    0.9490    0.4567 C   0  0  0  0  0  0  0  0  0  0  0  0
   -1.8442    1.4850    0.0864 C   0  0  0  0  0  0  0  0  0  0  0  0
   -2.9089    0.4139    0.2967 C   0  0  0  0  0  0  0  0  0  0  0  0
   -2.5335   -0.8854   -0.4118 C   0  0  0  0  0  0  0  0  0  0  0  0
    1.1810   -0.9349    0.1771 C   0  0  0  0  0  0  0  0  0  0  0  0
    2.3056    0.0199   -0.1159 C   0  0  0  0  0  0  0  0  0  0  0  0
   -0.1310   -0.1874   -1.3492 H   0  0  0  0  0  0  0  0  0  0  0  0
    0.2769    1.7167    0.2105 H   0  0  0  0  0  0  0  0  0  0  0  0
   -0.4167    0.8022    1.5440 H   0  0  0  0  0  0  0  0  0  0  0  0
   -1.8443    1.8003   -0.9643 H   0  0  0  0  0  0  0  0  0  0  0  0
   -2.0781    2.3699    0.6885 H   0  0  0  0  0  0  0  0  0  0  0  0
   -3.0307    0.2260    1.3710 H   0  0  0  0  0  0  0  0  0  0  0  0
   -3.8744    0.7739   -0.0760 H   0  0  0  0  0  0  0  0  0  0  0  0
   -3.2791   -1.6548   -0.1832 H   0  0  0  0  0  0  0  0  0  0  0  0
   -2.5501   -0.7459   -1.4995 H   0  0  0  0  0  0  0  0  0  0  0  0
   -1.2366   -1.5612    1.0085 H   0  0  0  0  0  0  0  0  0  0  0  0
    1.1612   -1.1402    1.2553 H   0  0  0  0  0  0  0  0  0  0  0  0
    1.4016   -1.8753   -0.3417 H   0  0  0  0  0  0  0  0  0  0  0  0
    4.0474    0.4654    0.6368 H   0  0  0  0  0  0  0  0  0  0  0  0
  1 10  1  0  0  0  0
  1 23  1  0  0  0  0
  2 10  2  0  0  0  0
  3  4  1  0  0  0  0
  3  8  1  0  0  0  0
  3 20  1  0  0  0  0
  4  5  1  0  0  0  0
  4  9  1  0  0  0  0
  4 11  1  0  0  0  0
  5  6  1  0  0  0  0
  5 12  1  0  0  0  0
  5 13  1  0  0  0  0
  6  7  1  0  0  0  0
  6 14  1  0  0  0  0
  6 15  1  0  0  0  0
  7  8  1  0  0  0  0
  7 16  1  0  0  0  0
  7 17  1  0  0  0  0
  8 18  1  0  0  0  0
  8 19  1  0  0  0  0
  9 10  1  0  0  0  0
  9 21  1  0  0  0  0
  9 22  1  0  0  0  0
M  END
> <PUBCHEM_COMPOUND_CID>
854351

> <PUBCHEM_CONFORMER_RMSD>
0.6

> <PUBCHEM_CONFORMER_DIVERSEORDER>
1
11
8
2
10
4
3
7
6
9
5

> <PUBCHEM_MMFF94_PARTIAL_CHARGES>
9
1 -0.65
10 0.66
2 -0.57
20 0.36
23 0.5
3 -0.9
4 0.27
8 0.27
9 0.06

> <PUBCHEM_EFFECTIVE_ROTOR_COUNT>
3.2

> <PUBCHEM_PHARMACOPHORE_FEATURES>
6
1 1 acceptor
1 2 acceptor
1 3 cation
1 3 donor
3 1 2 10 anion
6 3 4 5 6 7 8 rings

> <PUBCHEM_HEAVY_ATOM_COUNT>
10

> <PUBCHEM_ATOM_DEF_STEREO_COUNT>
1

> <PUBCHEM_ATOM_UDEF_STEREO_COUNT>
0

> <PUBCHEM_BOND_DEF_STEREO_COUNT>
0

> <PUBCHEM_BOND_UDEF_STEREO_COUNT>
0

> <PUBCHEM_ISOTOPIC_ATOM_COUNT>
0

> <PUBCHEM_COMPONENT_COUNT>
1

> <PUBCHEM_CACTVS_TAUTO_COUNT>
1

> <PUBCHEM_CONFORMER_ID>
000D094F00000001

> <PUBCHEM_MMFF94_ENERGY>
0.315

> <PUBCHEM_FEATURE_SELFOVERLAP>
30.503

> <PUBCHEM_SHAPE_FINGERPRINT>
10857977 72 18187093818821297787
12716758 59 18187076312466202727
12897270 3 18334292063155203157
12932764 1 17603584127495041630
14325111 11 18336827588540149560
14390081 3 18186523232315862225
15775835 57 18343574144833778324
16945 1 18408600349147892455
20645464 45 17385731295856066994
20871998 184 18040714715156543151
21028194 46 18261391208234063130
21040471 1 18263641929916024545
23552423 10 18341046440473644351
29004967 10 15502373426402560106
3248919 1 18272932717319092438
369184 2 16487253261880109369
5084963 1 18337667637019880738
6333449 129 18041005041859929147

> <PUBCHEM_SHAPE_MULTIPOLES>
189.08
4.71
1.35
0.78
1.63
0.05
-0.05
0.28
0.2
-0.67
-0.02
0.29
0.07
-0.34

> <PUBCHEM_SHAPE_SELFOVERLAP>
368.519

> <PUBCHEM_SHAPE_VOLUME>
112.9

> <PUBCHEM_COORDINATE_TYPE>
2
5
10

$$$$

