4114
  -OEChem-06251223532D

 24 26  0     0  0  0  0  0  0999 V2000
    7.3424    0.0721    0.0000 O   0  0  0  0  0  0  0  0  0  0  0  0
    3.7702    0.3020    0.0000 O   0  0  0  0  0  0  0  0  0  0  0  0
    5.5301    1.2673    0.0000 O   0  0  0  0  0  0  0  0  0  0  0  0
    2.0000    0.2915    0.0000 O   0  0  0  0  0  0  0  0  0  0  0  0
    6.3961   -1.2327    0.0000 C   0  0  0  0  0  0  0  0  0  0  0  0
    6.3961   -0.2327    0.0000 C   0  0  0  0  0  0  0  0  0  0  0  0
    4.6641   -1.2327    0.0000 C   0  0  0  0  0  0  0  0  0  0  0  0
    4.6641   -0.2327    0.0000 C   0  0  0  0  0  0  0  0  0  0  0  0
    5.5301    0.2673    0.0000 C   0  0  0  0  0  0  0  0  0  0  0  0
    5.5301   -1.7327    0.0000 C   0  0  0  0  0  0  0  0  0  0  0  0
    7.3424   -1.5374    0.0000 C   0  0  0  0  0  0  0  0  0  0  0  0
    3.7702   -1.7673    0.0000 C   0  0  0  0  0  0  0  0  0  0  0  0
    7.9260   -0.7327    0.0000 C   0  0  0  0  0  0  0  0  0  0  0  0
    2.8641   -1.2535    0.0000 C   0  0  0  0  0  0  0  0  0  0  0  0
    2.8641   -0.2119    0.0000 C   0  0  0  0  0  0  0  0  0  0  0  0
    6.3961    1.7673    0.0000 C   0  0  0  0  0  0  0  0  0  0  0  0
    5.5301   -2.3527    0.0000 H   0  0  0  0  0  0  0  0  0  0  0  0
    7.5350   -2.1267    0.0000 H   0  0  0  0  0  0  0  0  0  0  0  0
    3.7773   -2.3873    0.0000 H   0  0  0  0  0  0  0  0  0  0  0  0
    8.5460   -0.7327    0.0000 H   0  0  0  0  0  0  0  0  0  0  0  0
    2.3284   -1.5656    0.0000 H   0  0  0  0  0  0  0  0  0  0  0  0
    6.7062    1.2304    0.0000 H   0  0  0  0  0  0  0  0  0  0  0  0
    6.9331    2.0773    0.0000 H   0  0  0  0  0  0  0  0  0  0  0  0
    6.0862    2.3043    0.0000 H   0  0  0  0  0  0  0  0  0  0  0  0
  1  6  1  0  0  0  0
  1 13  1  0  0  0  0
  2  8  1  0  0  0  0
  2 15  1  0  0  0  0
  3  9  1  0  0  0  0
  3 16  1  0  0  0  0
  4 15  2  0  0  0  0
  5  6  2  0  0  0  0
  5 10  1  0  0  0  0
  5 11  1  0  0  0  0
  6  9  1  0  0  0  0
  7  8  1  0  0  0  0
  7 10  2  0  0  0  0
  7 12  1  0  0  0  0
  8  9  2  0  0  0  0
 10 17  1  0  0  0  0
 11 13  2  0  0  0  0
 11 18  1  0  0  0  0
 12 14  2  0  0  0  0
 12 19  1  0  0  0  0
 13 20  1  0  0  0  0
 14 15  1  0  0  0  0
 14 21  1  0  0  0  0
 16 22  1  0  0  0  0
 16 23  1  0  0  0  0
 16 24  1  0  0  0  0
M  END
> <PUBCHEM_COMPOUND_CID>
4114

> <PUBCHEM_COMPOUND_CANONICALIZED>
1

> <PUBCHEM_CACTVS_COMPLEXITY>
325

> <PUBCHEM_CACTVS_HBOND_ACCEPTOR>
4

> <PUBCHEM_CACTVS_HBOND_DONOR>
0

> <PUBCHEM_CACTVS_ROTATABLE_BOND>
1

> <PUBCHEM_CACTVS_SUBSKEYS>
AAADccBwOAAAAAAAAAAAAAAAAAAAASAAAAAwQAAAAAAAAEiB8AAAGgAAAAAADASgmAIyDsAABECIAqjSiAICCAAkIAAIiAFGiMgNJzaENR6CO2Kl4BUKqYeI7PzOIAADCAAIQABAAAYQABCAAAAAAAAAAA==

> <PUBCHEM_IUPAC_OPENEYE_NAME>
9-methoxyfuro[3,2-g]chromen-7-one

> <PUBCHEM_IUPAC_CAS_NAME>
9-methoxy-7-furo[3,2-g][1]benzopyranone

> <PUBCHEM_IUPAC_NAME>
9-methoxyfuro[3,2-g]chromen-7-one

> <PUBCHEM_IUPAC_SYSTEMATIC_NAME>
9-methoxyfuro[3,2-g]chromen-7-one

> <PUBCHEM_IUPAC_TRADITIONAL_NAME>
9-methoxyfuro[3,2-g]chromen-7-one

> <PUBCHEM_IUPAC_INCHI>
InChI=1S/C12H8O4/c1-14-12-10-8(4-5-15-10)6-7-2-3-9(13)16-11(7)12/h2-6H,1H3

> <PUBCHEM_IUPAC_INCHIKEY>
QXKHYNVANLEOEG-UHFFFAOYSA-N

> <PUBCHEM_XLOGP3>
1.9

> <PUBCHEM_EXACT_MASS>
216.042259

> <PUBCHEM_MOLECULAR_FORMULA>
C12H8O4

> <PUBCHEM_MOLECULAR_WEIGHT>
216.18952

> <PUBCHEM_OPENEYE_CAN_SMILES>
COC1=C2C(=CC3=C1OC=C3)C=CC(=O)O2

> <PUBCHEM_OPENEYE_ISO_SMILES>
COC1=C2C(=CC3=C1OC=C3)C=CC(=O)O2

> <PUBCHEM_CACTVS_TPSA>
48.7

> <PUBCHEM_MONOISOTOPIC_WEIGHT>
216.042259

> <PUBCHEM_TOTAL_CHARGE>
0

> <PUBCHEM_HEAVY_ATOM_COUNT>
16

> <PUBCHEM_ATOM_DEF_STEREO_COUNT>
0

> <PUBCHEM_ATOM_UDEF_STEREO_COUNT>
0

> <PUBCHEM_BOND_DEF_STEREO_COUNT>
0

> <PUBCHEM_BOND_UDEF_STEREO_COUNT>
0

> <PUBCHEM_ISOTOPIC_ATOM_COUNT>
0

> <PUBCHEM_COMPONENT_COUNT>
1

> <PUBCHEM_CACTVS_TAUTO_COUNT>
1

> <PUBCHEM_COORDINATE_TYPE>
1
5
255

> <PUBCHEM_BONDANNOTATIONS>
1  13  8
1  6  8
11  13  8
12  14  8
14  15  8
2  15  8
2  8  8
5  10  8
5  11  8
5  6  8
6  9  8
7  10  8
7  12  8
7  8  8
8  9  8

$$$$

