13759
  -OEChem-06241222402D

 31 32  0     0  0  0  0  0  0999 V2000
    2.0000   -0.2500    0.0000 O   0  5  0  0  0  0  0  0  0  0  0  0
    2.8660    1.2500    0.0000 O   0  0  0  0  0  0  0  0  0  0  0  0
    5.4641   -3.2500    0.0000 O   0  5  0  0  0  0  0  0  0  0  0  0
    3.7320   -3.2500    0.0000 O   0  0  0  0  0  0  0  0  0  0  0  0
    4.5981    1.2500    0.0000 N   0  0  0  0  0  0  0  0  0  0  0  0
    2.8660    0.2500    0.0000 N   0  3  0  0  0  0  0  0  0  0  0  0
    4.5981   -2.7500    0.0000 N   0  3  0  0  0  0  0  0  0  0  0  0
    4.5981    0.2500    0.0000 C   0  0  0  0  0  0  0  0  0  0  0  0
    5.4641    1.7500    0.0000 C   0  0  0  0  0  0  0  0  0  0  0  0
    3.7320   -0.2500    0.0000 C   0  0  0  0  0  0  0  0  0  0  0  0
    5.4641   -0.2500    0.0000 C   0  0  0  0  0  0  0  0  0  0  0  0
    6.3301    1.2500    0.0000 C   0  0  0  0  0  0  0  0  0  0  0  0
    7.1962    1.7500    0.0000 C   0  0  0  0  0  0  0  0  0  0  0  0
    3.7320   -1.2500    0.0000 C   0  0  0  0  0  0  0  0  0  0  0  0
    4.5981   -1.7500    0.0000 C   0  0  0  0  0  0  0  0  0  0  0  0
    5.4641    2.7500    0.0000 C   0  0  0  0  0  0  0  0  0  0  0  0
    5.4641   -1.2500    0.0000 C   0  0  0  0  0  0  0  0  0  0  0  0
    7.1962    2.7500    0.0000 C   0  0  0  0  0  0  0  0  0  0  0  0
    6.3301    3.2500    0.0000 C   0  0  0  0  0  0  0  0  0  0  0  0
    8.0622    1.2500    0.0000 C   0  0  0  0  0  0  0  0  0  0  0  0
    4.0611    1.5600    0.0000 H   0  0  0  0  0  0  0  0  0  0  0  0
    6.0010    0.0600    0.0000 H   0  0  0  0  0  0  0  0  0  0  0  0
    6.3301    0.6300    0.0000 H   0  0  0  0  0  0  0  0  0  0  0  0
    3.1951   -1.5600    0.0000 H   0  0  0  0  0  0  0  0  0  0  0  0
    4.9272    3.0600    0.0000 H   0  0  0  0  0  0  0  0  0  0  0  0
    6.0010   -1.5600    0.0000 H   0  0  0  0  0  0  0  0  0  0  0  0
    7.7331    3.0600    0.0000 H   0  0  0  0  0  0  0  0  0  0  0  0
    6.3301    3.8700    0.0000 H   0  0  0  0  0  0  0  0  0  0  0  0
    7.7522    0.7131    0.0000 H   0  0  0  0  0  0  0  0  0  0  0  0
    8.5991    0.9400    0.0000 H   0  0  0  0  0  0  0  0  0  0  0  0
    8.3722    1.7869    0.0000 H   0  0  0  0  0  0  0  0  0  0  0  0
  1  6  1  0  0  0  0
  2  6  2  0  0  0  0
  3  7  1  0  0  0  0
  4  7  2  0  0  0  0
  5  8  1  0  0  0  0
  5  9  1  0  0  0  0
  5 21  1  0  0  0  0
  6 10  1  0  0  0  0
  7 15  1  0  0  0  0
  8 10  2  0  0  0  0
  8 11  1  0  0  0  0
  9 12  1  0  0  0  0
  9 16  2  0  0  0  0
 10 14  1  0  0  0  0
 11 17  2  0  0  0  0
 11 22  1  0  0  0  0
 12 13  2  0  0  0  0
 12 23  1  0  0  0  0
 13 18  1  0  0  0  0
 13 20  1  0  0  0  0
 14 15  2  0  0  0  0
 14 24  1  0  0  0  0
 15 17  1  0  0  0  0
 16 19  1  0  0  0  0
 16 25  1  0  0  0  0
 17 26  1  0  0  0  0
 18 19  2  0  0  0  0
 18 27  1  0  0  0  0
 19 28  1  0  0  0  0
 20 29  1  0  0  0  0
 20 30  1  0  0  0  0
 20 31  1  0  0  0  0
M  CHG  4   1  -1   3  -1   6   1   7   1
M  END
> <PUBCHEM_COMPOUND_CID>
13759

> <PUBCHEM_COMPOUND_CANONICALIZED>
1

> <PUBCHEM_CACTVS_COMPLEXITY>
366

> <PUBCHEM_CACTVS_HBOND_ACCEPTOR>
5

> <PUBCHEM_CACTVS_HBOND_DONOR>
1

> <PUBCHEM_CACTVS_ROTATABLE_BOND>
2

> <PUBCHEM_CACTVS_SUBSKEYS>
AAADccBzOAAAAAAAAAAAAAAAAAAAAAAAAAAwYAAAAAAAAAABQAAAHAAUAAAADAiBGAAywILQQACBAiRCQwCCAAAhAgAoiAAAdIoIYGLA0dGUIAhgkIDIyAcQgAAOAACAQAQAACAAAQCACAAAQAAAAAAAAA==

> <PUBCHEM_IUPAC_OPENEYE_NAME>
N-(m-tolyl)-2,4-dinitro-aniline

> <PUBCHEM_IUPAC_CAS_NAME>
N-(3-methylphenyl)-2,4-dinitroaniline

> <PUBCHEM_IUPAC_NAME>
N-(3-methylphenyl)-2,4-dinitroaniline

> <PUBCHEM_IUPAC_SYSTEMATIC_NAME>
N-(3-methylphenyl)-2,4-dinitro-aniline

> <PUBCHEM_IUPAC_TRADITIONAL_NAME>
(2,4-dinitrophenyl)-(m-tolyl)amine

> <PUBCHEM_IUPAC_INCHI>
InChI=1S/C13H11N3O4/c1-9-3-2-4-10(7-9)14-12-6-5-11(15(17)18)8-13(12)16(19)20/h2-8,14H,1H3

> <PUBCHEM_IUPAC_INCHIKEY>
PKFVVWUEBWQRKF-UHFFFAOYSA-N

> <PUBCHEM_XLOGP3>
4.1

> <PUBCHEM_EXACT_MASS>
273.074956

> <PUBCHEM_MOLECULAR_FORMULA>
C13H11N3O4

> <PUBCHEM_MOLECULAR_WEIGHT>
273.24414

> <PUBCHEM_OPENEYE_CAN_SMILES>
CC1=CC(=CC=C1)NC2=C(C=C(C=C2)[N+](=O)[O-])[N+](=O)[O-]

> <PUBCHEM_OPENEYE_ISO_SMILES>
CC1=CC(=CC=C1)NC2=C(C=C(C=C2)[N+](=O)[O-])[N+](=O)[O-]

> <PUBCHEM_CACTVS_TPSA>
104

> <PUBCHEM_MONOISOTOPIC_WEIGHT>
273.074956

> <PUBCHEM_TOTAL_CHARGE>
0

> <PUBCHEM_HEAVY_ATOM_COUNT>
20

> <PUBCHEM_ATOM_DEF_STEREO_COUNT>
0

> <PUBCHEM_ATOM_UDEF_STEREO_COUNT>
0

> <PUBCHEM_BOND_DEF_STEREO_COUNT>
0

> <PUBCHEM_BOND_UDEF_STEREO_COUNT>
0

> <PUBCHEM_ISOTOPIC_ATOM_COUNT>
0

> <PUBCHEM_COMPONENT_COUNT>
1

> <PUBCHEM_CACTVS_TAUTO_COUNT>
1

> <PUBCHEM_COORDINATE_TYPE>
1
5
255

> <PUBCHEM_BONDANNOTATIONS>
10  14  8
11  17  8
12  13  8
13  18  8
14  15  8
15  17  8
16  19  8
18  19  8
8  10  8
8  11  8
9  12  8
9  16  8

$$$$

