12308
  -OEChem-06261206473D

 12 11  0     0  0  0  0  0  0999 V2000
    2.7777    0.4025   -0.0119 Br  0  0  0  0  0  0  0  0  0  0  0  0
   -2.4713    0.4209   -0.0078 O   0  0  0  0  0  0  0  0  0  0  0  0
   -0.0646    0.2955    0.0233 C   0  0  0  0  0  0  0  0  0  0  0  0
   -1.3737   -0.4819   -0.0077 C   0  0  0  0  0  0  0  0  0  0  0  0
    1.1318   -0.6368    0.0040 C   0  0  0  0  0  0  0  0  0  0  0  0
   -0.0432    0.9363    0.9141 H   0  0  0  0  0  0  0  0  0  0  0  0
   -0.0345    0.9833   -0.8316 H   0  0  0  0  0  0  0  0  0  0  0  0
   -1.4360   -1.0994   -0.9097 H   0  0  0  0  0  0  0  0  0  0  0  0
   -1.4594   -1.1304    0.8702 H   0  0  0  0  0  0  0  0  0  0  0  0
    1.1505   -1.2612   -0.8934 H   0  0  0  0  0  0  0  0  0  0  0  0
    1.1702   -1.2728    0.8926 H   0  0  0  0  0  0  0  0  0  0  0  0
   -3.2820   -0.1157   -0.0277 H   0  0  0  0  0  0  0  0  0  0  0  0
  1  5  1  0  0  0  0
  2  4  1  0  0  0  0
  2 12  1  0  0  0  0
  3  4  1  0  0  0  0
  3  5  1  0  0  0  0
  3  6  1  0  0  0  0
  3  7  1  0  0  0  0
  4  8  1  0  0  0  0
  4  9  1  0  0  0  0
  5 10  1  0  0  0  0
  5 11  1  0  0  0  0
M  END
> <PUBCHEM_COMPOUND_CID>
12308

> <PUBCHEM_CONFORMER_RMSD>
0.4

> <PUBCHEM_CONFORMER_DIVERSEORDER>
1
9
7
5
8
2
6
3
4

> <PUBCHEM_MMFF94_PARTIAL_CHARGES>
5
1 -0.23
12 0.4
2 -0.68
4 0.28
5 0.23

> <PUBCHEM_EFFECTIVE_ROTOR_COUNT>
2

> <PUBCHEM_PHARMACOPHORE_FEATURES>
3
1 1 hydrophobe
1 2 acceptor
1 2 donor

> <PUBCHEM_HEAVY_ATOM_COUNT>
5

> <PUBCHEM_ATOM_DEF_STEREO_COUNT>
0

> <PUBCHEM_ATOM_UDEF_STEREO_COUNT>
0

> <PUBCHEM_BOND_DEF_STEREO_COUNT>
0

> <PUBCHEM_BOND_UDEF_STEREO_COUNT>
0

> <PUBCHEM_ISOTOPIC_ATOM_COUNT>
0

> <PUBCHEM_COMPONENT_COUNT>
1

> <PUBCHEM_CACTVS_TAUTO_COUNT>
1

> <PUBCHEM_CONFORMER_ID>
0000301400000001

> <PUBCHEM_MMFF94_ENERGY>
0.9314

> <PUBCHEM_FEATURE_SELFOVERLAP>
15.223

> <PUBCHEM_SHAPE_FINGERPRINT>
139733 1 9367343738668527147
14390081 3 18333453131652019936
16714656 1 18113054922031098524
20096714 4 18409449146449722736
29004967 10 12607408797266120460
5460574 1 9223232948649705890

> <PUBCHEM_SHAPE_MULTIPOLES>
102.97
4.04
0.84
0.63
0.49
0.04
0
-0.75
0.03
0.08
0
0.12
0
0

> <PUBCHEM_SHAPE_SELFOVERLAP>
160.945

> <PUBCHEM_SHAPE_VOLUME>
75.3

> <PUBCHEM_COORDINATE_TYPE>
2
5
10

$$$$

