51091016
  -OEChem-06241223012D

 40 41  0     0  0  0  0  0  0999 V2000
    4.4487   -1.1791    0.0000 S   0  0  0  0  0  0  0  0  0  0  0  0
    5.3147    3.3209    0.0000 O   0  0  0  0  0  0  0  0  0  0  0  0
    3.4782   -2.6736    0.0000 N   0  0  0  0  0  0  0  0  0  0  0  0
    2.5000   -2.8815    0.0000 N   0  0  0  0  0  0  0  0  0  0  0  0
    7.0468    3.3209    0.0000 N   0  0  0  0  0  0  0  0  0  0  0  0
    2.6691   -1.2724    0.0000 N   0  0  0  0  0  0  0  0  0  0  0  0
    2.0000   -2.0155    0.0000 N   0  0  0  0  0  0  0  0  0  0  0  0
    4.2213   -3.3428    0.0000 C   0  0  0  0  0  0  0  0  0  0  0  0
    4.0134   -4.3209    0.0000 C   0  0  0  0  0  0  0  0  0  0  0  0
    5.1724   -3.0337    0.0000 C   0  0  0  0  0  0  0  0  0  0  0  0
    5.3147    0.3209    0.0000 C   0  0  0  0  0  0  0  0  0  0  0  0
    3.5827   -1.6791    0.0000 C   0  0  0  0  0  0  0  0  0  0  0  0
    4.4487   -0.1791    0.0000 C   0  0  0  0  0  0  0  0  0  0  0  0
    6.1808    1.8209    0.0000 C   0  0  0  0  0  0  0  0  0  0  0  0
    5.3147    1.3209    0.0000 C   0  0  0  0  0  0  0  0  0  0  0  0
    6.1808   -0.1791    0.0000 C   0  0  0  0  0  0  0  0  0  0  0  0
    7.0468    1.3209    0.0000 C   0  0  0  0  0  0  0  0  0  0  0  0
    6.1808    2.8209    0.0000 C   0  0  0  0  0  0  0  0  0  0  0  0
    7.0468    0.3209    0.0000 C   0  0  0  0  0  0  0  0  0  0  0  0
    7.0468    4.3209    0.0000 C   0  0  0  0  0  0  0  0  0  0  0  0
    7.9128    2.8209    0.0000 C   0  0  0  0  0  0  0  0  0  0  0  0
    4.6820   -3.7576    0.0000 H   0  0  0  0  0  0  0  0  0  0  0  0
    5.3639   -3.6234    0.0000 H   0  0  0  0  0  0  0  0  0  0  0  0
    3.4069   -4.1920    0.0000 H   0  0  0  0  0  0  0  0  0  0  0  0
    3.8845   -4.9274    0.0000 H   0  0  0  0  0  0  0  0  0  0  0  0
    4.6198   -4.4498    0.0000 H   0  0  0  0  0  0  0  0  0  0  0  0
    5.7620   -2.8421    0.0000 H   0  0  0  0  0  0  0  0  0  0  0  0
    4.9808   -2.4441    0.0000 H   0  0  0  0  0  0  0  0  0  0  0  0
    4.2366    0.4035    0.0000 H   0  0  0  0  0  0  0  0  0  0  0  0
    3.8381   -0.2868    0.0000 H   0  0  0  0  0  0  0  0  0  0  0  0
    4.7778    1.6309    0.0000 H   0  0  0  0  0  0  0  0  0  0  0  0
    6.1808   -0.7991    0.0000 H   0  0  0  0  0  0  0  0  0  0  0  0
    7.5837    1.6309    0.0000 H   0  0  0  0  0  0  0  0  0  0  0  0
    7.5837    0.0109    0.0000 H   0  0  0  0  0  0  0  0  0  0  0  0
    7.6028    2.2840    0.0000 H   0  0  0  0  0  0  0  0  0  0  0  0
    8.4497    2.5109    0.0000 H   0  0  0  0  0  0  0  0  0  0  0  0
    7.6668    4.3209    0.0000 H   0  0  0  0  0  0  0  0  0  0  0  0
    7.0468    4.9409    0.0000 H   0  0  0  0  0  0  0  0  0  0  0  0
    6.4268    4.3209    0.0000 H   0  0  0  0  0  0  0  0  0  0  0  0
    8.2228    3.3578    0.0000 H   0  0  0  0  0  0  0  0  0  0  0  0
  1 12  1  0  0  0  0
  1 13  1  0  0  0  0
  2 18  2  0  0  0  0
  3  4  1  0  0  0  0
  3  8  1  0  0  0  0
  3 12  1  0  0  0  0
  4  7  2  0  0  0  0
  5 18  1  0  0  0  0
  5 20  1  0  0  0  0
  5 21  1  0  0  0  0
  6  7  1  0  0  0  0
  6 12  2  0  0  0  0
  8  9  1  0  0  0  0
  8 10  1  0  0  0  0
  8 22  1  0  0  0  0
  9 24  1  0  0  0  0
  9 25  1  0  0  0  0
  9 26  1  0  0  0  0
 10 23  1  0  0  0  0
 10 27  1  0  0  0  0
 10 28  1  0  0  0  0
 11 13  1  0  0  0  0
 11 15  2  0  0  0  0
 11 16  1  0  0  0  0
 13 29  1  0  0  0  0
 13 30  1  0  0  0  0
 14 15  1  0  0  0  0
 14 17  2  0  0  0  0
 14 18  1  0  0  0  0
 15 31  1  0  0  0  0
 16 19  2  0  0  0  0
 16 32  1  0  0  0  0
 17 19  1  0  0  0  0
 17 33  1  0  0  0  0
 19 34  1  0  0  0  0
 20 37  1  0  0  0  0
 20 38  1  0  0  0  0
 20 39  1  0  0  0  0
 21 35  1  0  0  0  0
 21 36  1  0  0  0  0
 21 40  1  0  0  0  0
M  END
> <PUBCHEM_COMPOUND_CID>
51091016

> <PUBCHEM_COMPOUND_CANONICALIZED>
1

> <PUBCHEM_CACTVS_COMPLEXITY>
352

> <PUBCHEM_CACTVS_HBOND_ACCEPTOR>
5

> <PUBCHEM_CACTVS_HBOND_DONOR>
0

> <PUBCHEM_CACTVS_ROTATABLE_BOND>
5

> <PUBCHEM_CACTVS_SUBSKEYS>
AAADceBzoABAAAAAAAAAAAAAAAAAAWAAAAAwAAAAAAAAAAABwAAAHgQIAAAADCjF2ASzEIcIAAiqAiFSNACCEANkgJAdyAEIBMiIIDKgnRGEIQhgggIIiYcYiECOAAACAAAAAAAAAAQAAAAAAAAAAAAAAA==

> <PUBCHEM_IUPAC_OPENEYE_NAME>
3-[(1-isopropyltetrazol-5-yl)sulfanylmethyl]-N,N-dimethyl-benzamide

> <PUBCHEM_IUPAC_CAS_NAME>
N,N-dimethyl-3-[[(1-propan-2-yl-5-tetrazolyl)thio]methyl]benzamide

> <PUBCHEM_IUPAC_NAME>
N,N-dimethyl-3-[(1-propan-2-yltetrazol-5-yl)sulfanylmethyl]benzamide

> <PUBCHEM_IUPAC_SYSTEMATIC_NAME>
N,N-dimethyl-3-[(1-propan-2-yl-1,2,3,4-tetrazol-5-yl)sulfanylmethyl]benzamide

> <PUBCHEM_IUPAC_TRADITIONAL_NAME>
3-[[(1-isopropyltetrazol-5-yl)thio]methyl]-N,N-dimethyl-benzamide

> <PUBCHEM_IUPAC_INCHI>
InChI=1S/C14H19N5OS/c1-10(2)19-14(15-16-17-19)21-9-11-6-5-7-12(8-11)13(20)18(3)4/h5-8,10H,9H2,1-4H3

> <PUBCHEM_IUPAC_INCHIKEY>
FRPVDXUFXGAKFC-UHFFFAOYSA-N

> <PUBCHEM_XLOGP3_AA>
2.1

> <PUBCHEM_EXACT_MASS>
305.131031

> <PUBCHEM_MOLECULAR_FORMULA>
C14H19N5OS

> <PUBCHEM_MOLECULAR_WEIGHT>
305.39856

> <PUBCHEM_OPENEYE_CAN_SMILES>
CC(C)N1C(=NN=N1)SCC2=CC=CC(=C2)C(=O)N(C)C

> <PUBCHEM_OPENEYE_ISO_SMILES>
CC(C)N1C(=NN=N1)SCC2=CC=CC(=C2)C(=O)N(C)C

> <PUBCHEM_CACTVS_TPSA>
89.2

> <PUBCHEM_MONOISOTOPIC_WEIGHT>
305.131031

> <PUBCHEM_TOTAL_CHARGE>
0

> <PUBCHEM_HEAVY_ATOM_COUNT>
21

> <PUBCHEM_ATOM_DEF_STEREO_COUNT>
0

> <PUBCHEM_ATOM_UDEF_STEREO_COUNT>
0

> <PUBCHEM_BOND_DEF_STEREO_COUNT>
0

> <PUBCHEM_BOND_UDEF_STEREO_COUNT>
0

> <PUBCHEM_ISOTOPIC_ATOM_COUNT>
0

> <PUBCHEM_COMPONENT_COUNT>
1

> <PUBCHEM_CACTVS_TAUTO_COUNT>
1

> <PUBCHEM_COORDINATE_TYPE>
1
5
255

> <PUBCHEM_BONDANNOTATIONS>
11  15  8
11  16  8
14  15  8
14  17  8
16  19  8
17  19  8
3  12  8
3  4  8
4  7  8
6  12  8
6  7  8

$$$$

