11558
  -OEChem-06261205493D

 13 13  0     1  0  0  0  0  0999 V2000
   -0.0212    0.9455    0.3433 O   0  0  0  0  0  0  0  0  0  0  0  0
   -2.2281    0.5796   -0.1976 O   0  0  0  0  0  0  0  0  0  0  0  0
    1.1463    0.1181    0.4467 C   0  0  1  0  0  0  0  0  0  0  0  0
    0.6441   -1.2310    0.1093 C   0  0  0  0  0  0  0  0  0  0  0  0
    2.2061    0.6205   -0.5188 C   0  0  0  0  0  0  0  0  0  0  0  0
   -0.6564   -1.2115   -0.1628 C   0  0  0  0  0  0  0  0  0  0  0  0
   -1.0909    0.1788   -0.0202 C   0  0  0  0  0  0  0  0  0  0  0  0
    1.5118    0.1573    1.4782 H   0  0  0  0  0  0  0  0  0  0  0  0
    1.2549   -2.1222    0.0932 H   0  0  0  0  0  0  0  0  0  0  0  0
    2.4865    1.6500   -0.2705 H   0  0  0  0  0  0  0  0  0  0  0  0
    3.1048   -0.0035   -0.4851 H   0  0  0  0  0  0  0  0  0  0  0  0
    1.8326    0.6394   -1.5492 H   0  0  0  0  0  0  0  0  0  0  0  0
   -1.2890   -2.0378   -0.4357 H   0  0  0  0  0  0  0  0  0  0  0  0
  1  3  1  0  0  0  0
  1  7  1  0  0  0  0
  2  7  2  0  0  0  0
  3  4  1  0  0  0  0
  3  5  1  0  0  0  0
  3  8  1  0  0  0  0
  4  6  2  0  0  0  0
  4  9  1  0  0  0  0
  5 10  1  0  0  0  0
  5 11  1  0  0  0  0
  5 12  1  0  0  0  0
  6  7  1  0  0  0  0
  6 13  1  0  0  0  0
M  END
> <PUBCHEM_COMPOUND_CID>
11558

> <PUBCHEM_CONFORMER_RMSD>
0.4

> <PUBCHEM_CONFORMER_DIVERSEORDER>
1
2

> <PUBCHEM_MMFF94_PARTIAL_CHARGES>
8
1 -0.43
13 0.15
2 -0.57
3 0.42
4 -0.29
6 -0.14
7 0.71
9 0.15

> <PUBCHEM_EFFECTIVE_ROTOR_COUNT>
0.4

> <PUBCHEM_PHARMACOPHORE_FEATURES>
2
1 2 acceptor
5 1 3 4 6 7 rings

> <PUBCHEM_HEAVY_ATOM_COUNT>
7

> <PUBCHEM_ATOM_DEF_STEREO_COUNT>
0

> <PUBCHEM_ATOM_UDEF_STEREO_COUNT>
1

> <PUBCHEM_BOND_DEF_STEREO_COUNT>
0

> <PUBCHEM_BOND_UDEF_STEREO_COUNT>
0

> <PUBCHEM_ISOTOPIC_ATOM_COUNT>
0

> <PUBCHEM_COMPONENT_COUNT>
1

> <PUBCHEM_CACTVS_TAUTO_COUNT>
1

> <PUBCHEM_CONFORMER_ID>
00002D2600000001

> <PUBCHEM_MMFF94_ENERGY>
3.4196

> <PUBCHEM_FEATURE_SELFOVERLAP>
10.148

> <PUBCHEM_SHAPE_FINGERPRINT>
16714656 1 18338791209007002180
20096714 4 18413109454780918090
21040471 1 18409455786121002818
23552423 10 18343300336653278750
29004967 10 17988353875191484017
5943 1 16175040080336887714

> <PUBCHEM_SHAPE_MULTIPOLES>
132.32
2.41
1.25
0.68
0.17
0.34
0
-0.77
0.4
-0.08
0.01
0.13
-0.01
-0.08

> <PUBCHEM_SHAPE_SELFOVERLAP>
269.075

> <PUBCHEM_SHAPE_VOLUME>
79.4

> <PUBCHEM_COORDINATE_TYPE>
2
5
10

$$$$

