7173
  -OEChem-06261201513D

 28 28  0     0  0  0  0  0  0999 V2000
   -1.2448    2.5885   -0.0076 Cl  0  0  0  0  0  0  0  0  0  0  0  0
   -5.4758   -0.5507   -1.1290 Cl  0  0  0  0  0  0  0  0  0  0  0  0
    3.2509   -0.7993    0.1373 O   0  0  0  0  0  0  0  0  0  0  0  0
   -0.0811    0.0538    1.1137 O   0  0  0  0  0  0  0  0  0  0  0  0
    2.4085    1.0702    1.1972 O   0  0  0  0  0  0  0  0  0  0  0  0
    4.3626   -0.0831   -0.4102 C   0  0  0  0  0  0  0  0  0  0  0  0
    5.3870   -1.0760   -0.9377 C   0  0  0  0  0  0  0  0  0  0  0  0
    3.8668    0.8533   -1.5015 C   0  0  0  0  0  0  0  0  0  0  0  0
    0.9457   -0.7434    0.5278 C   0  0  0  0  0  0  0  0  0  0  0  0
    2.2620   -0.0269    0.6758 C   0  0  0  0  0  0  0  0  0  0  0  0
   -1.3327   -0.0641    0.5869 C   0  0  0  0  0  0  0  0  0  0  0  0
   -1.9912    1.0337    0.0330 C   0  0  0  0  0  0  0  0  0  0  0  0
   -1.9551   -1.3123    0.6095 C   0  0  0  0  0  0  0  0  0  0  0  0
   -3.2721    0.8834   -0.4981 C   0  0  0  0  0  0  0  0  0  0  0  0
   -3.2361   -1.4625    0.0784 C   0  0  0  0  0  0  0  0  0  0  0  0
   -3.8947   -0.3646   -0.4754 C   0  0  0  0  0  0  0  0  0  0  0  0
    4.8366    0.4980    0.3908 H   0  0  0  0  0  0  0  0  0  0  0  0
    6.2646   -0.5659   -1.3463 H   0  0  0  0  0  0  0  0  0  0  0  0
    5.7139   -1.7478   -0.1367 H   0  0  0  0  0  0  0  0  0  0  0  0
    4.9515   -1.7080   -1.7195 H   0  0  0  0  0  0  0  0  0  0  0  0
    4.7069    1.3309   -2.0166 H   0  0  0  0  0  0  0  0  0  0  0  0
    3.2307    1.6528   -1.1103 H   0  0  0  0  0  0  0  0  0  0  0  0
    3.2716    0.3086   -2.2431 H   0  0  0  0  0  0  0  0  0  0  0  0
    1.0003   -1.6991    1.0588 H   0  0  0  0  0  0  0  0  0  0  0  0
    0.7590   -0.8996   -0.5414 H   0  0  0  0  0  0  0  0  0  0  0  0
   -1.4592   -2.1753    1.0454 H   0  0  0  0  0  0  0  0  0  0  0  0
   -3.7870    1.7389   -0.9301 H   0  0  0  0  0  0  0  0  0  0  0  0
   -3.7098   -2.4405    0.1048 H   0  0  0  0  0  0  0  0  0  0  0  0
  1 12  1  0  0  0  0
  2 16  1  0  0  0  0
  3  6  1  0  0  0  0
  3 10  1  0  0  0  0
  4  9  1  0  0  0  0
  4 11  1  0  0  0  0
  5 10  2  0  0  0  0
  6  7  1  0  0  0  0
  6  8  1  0  0  0  0
  6 17  1  0  0  0  0
  7 18  1  0  0  0  0
  7 19  1  0  0  0  0
  7 20  1  0  0  0  0
  8 21  1  0  0  0  0
  8 22  1  0  0  0  0
  8 23  1  0  0  0  0
  9 10  1  0  0  0  0
  9 24  1  0  0  0  0
  9 25  1  0  0  0  0
 11 12  2  0  0  0  0
 11 13  1  0  0  0  0
 12 14  1  0  0  0  0
 13 15  2  0  0  0  0
 13 26  1  0  0  0  0
 14 16  2  0  0  0  0
 14 27  1  0  0  0  0
 15 16  1  0  0  0  0
 15 28  1  0  0  0  0
M  END
> <PUBCHEM_COMPOUND_CID>
7173

> <PUBCHEM_CONFORMER_RMSD>
0.6

> <PUBCHEM_CONFORMER_DIVERSEORDER>
1
218
214
28
49
222
118
149
276
84
332
232
314
336
14
90
345
342
251
104
53
131
189
21
346
249
297
79
311
115
75
198
235
302
324
226
125
25
283
300
154
51
301
126
8
203
271
349
170
59
230
275
269
309
57
100
147
296
333
93
320
5
128
348
83
268
96
110
305
3
279
123
4
6
62
18
19
135
248
330
308
171
78
72
329
323
132
325
46
259
122
164
254
233
137
344
124
36
85
24
82
281
23
76
40
141
114
120
167
282
250
88
66
304
294
94
179
194
341
322
162
117
238
303
151
67
190
262
17
56
159
193
98
97
86
312
313
188
148
278
195
9
169
293
58
176
134
338
89
343
52
340
215
107
163
87
321
284
153
133
277
16
138
273
39
139
165
71
319
108
74
316
334
318
243
44
130
247
310
7
129
140
11
30
119
55
42
231
285
216
20
77
116
65
150
144
242
337
253
26
252
205
69
331
239
12
256
99
219
105
155
191
15
257
228
291
48
185
288
63
168
33
47
328
295
91
61
225
145
326
270
199
186
209
280
327
152
95
158
335
81
173
265
220
287
223
160
43
263
184
121
237
306
29
212
174
31
272
347
266
227
229
274
213
60
34
286
244
127
315
38
70
236
204
175
201
260
157
146
180
267
27
234
181
307
136
289
246
183
292
317
68
80
187
92
261
196
224
172
103
109
2
10
106
298
112
41
37
177
197
101
207
73
142
221
156
161
240
111
208
64
264
290
22
200
50
35
102
245
178
210
217
13
241
339
54
45
192
211
113
32
299
206
166
202
258
255
182
143

> <PUBCHEM_MMFF94_PARTIAL_CHARGES>
17
1 -0.18
10 0.66
11 0.08
12 0.18
13 -0.15
14 -0.15
15 -0.15
16 0.18
2 -0.18
26 0.15
27 0.15
28 0.15
3 -0.43
4 -0.36
5 -0.57
6 0.28
9 0.34

> <PUBCHEM_EFFECTIVE_ROTOR_COUNT>
5

> <PUBCHEM_PHARMACOPHORE_FEATURES>
4
1 4 acceptor
1 5 acceptor
3 6 7 8 hydrophobe
6 11 12 13 14 15 16 rings

> <PUBCHEM_HEAVY_ATOM_COUNT>
16

> <PUBCHEM_ATOM_DEF_STEREO_COUNT>
0

> <PUBCHEM_ATOM_UDEF_STEREO_COUNT>
0

> <PUBCHEM_BOND_DEF_STEREO_COUNT>
0

> <PUBCHEM_BOND_UDEF_STEREO_COUNT>
0

> <PUBCHEM_ISOTOPIC_ATOM_COUNT>
0

> <PUBCHEM_COMPONENT_COUNT>
1

> <PUBCHEM_CACTVS_TAUTO_COUNT>
1

> <PUBCHEM_CONFORMER_ID>
00001C0500000001

> <PUBCHEM_MMFF94_ENERGY>
38.9382

> <PUBCHEM_FEATURE_SELFOVERLAP>
20.304

> <PUBCHEM_SHAPE_FINGERPRINT>
10498660 4 18131633361484539620
11128504 68 18272650125592681020
12186901 62 18411984693304166117
12251169 10 8070022259948089786
12596602 18 8935000386486404399
13551218 46 6483366503395820597
13675066 3 5328749547669106458
14123260 362 16702290269988970174
1420 369 14851598886606743342
14350574 20 17603867797489989394
17870717 6 18334847350950622974
17959699 21 17275390901888936917
1813 80 15357967954683488240
18186145 218 18260551112530791291
187816 3 18273218599464907915
19784866 240 16443342065922543615
1986462 14 18114177570658358024
200 152 17022624182195347179
20300324 65 18412258458661865908
20374829 77 18187089451024414191
20432913 95 14779541292611195190
20645477 70 17240203222938887694
20671657 53 17603580837993094544
20871999 31 18342744035377589133
21065199 12 8502384316807849822
212916 134 11167947930963044309
21618674 25 12391516398970282817
21637258 2 15936704700556986719
22094290 60 18408601478582009528
22926399 37 17275105028939431317
23379529 103 17611485038497876199
23402539 116 18409451418498063021
23402655 69 17846778529185209244
23557571 272 18334009531722338109
23559900 14 18339929220943347616
2871803 45 18408889542133634146
2916195 48 12175907649605870351
3286 77 16877664534766265752
4028521 119 17847064397570702301
42 15 5617542890975207686
4259306 186 17894351098404658422
449060 50 11312057651614051994
465052 167 13912891852875122005
474 4 16343412930468463420

> <PUBCHEM_SHAPE_MULTIPOLES>
315.4
11.09
1.73
1.16
5.54
0.94
-0.15
-3.04
-5.62
-0.76
0.04
0.48
0.05
0.02

> <PUBCHEM_SHAPE_SELFOVERLAP>
625.276

> <PUBCHEM_SHAPE_VOLUME>
189.5

> <PUBCHEM_COORDINATE_TYPE>
2
5
10

$$$$

