9179
  -OEChem-06261203293D

 29 32  0     0  0  0  0  0  0999 V2000
   -4.0517   -0.4188    0.0000 N   0  0  0  0  0  0  0  0  0  0  0  0
   -0.3578    0.0863    0.0000 C   0  0  0  0  0  0  0  0  0  0  0  0
    0.0413   -1.2694    0.0000 C   0  0  0  0  0  0  0  0  0  0  0  0
   -1.7649    0.3985   -0.0001 C   0  0  0  0  0  0  0  0  0  0  0  0
    2.0433    0.7151   -0.0001 C   0  0  0  0  0  0  0  0  0  0  0  0
    2.4109   -0.6429    0.0002 C   0  0  0  0  0  0  0  0  0  0  0  0
    0.6772    1.0561   -0.0001 C   0  0  0  0  0  0  0  0  0  0  0  0
    1.4037   -1.6172    0.0004 C   0  0  0  0  0  0  0  0  0  0  0  0
   -2.7242   -0.6408   -0.0003 C   0  0  0  0  0  0  0  0  0  0  0  0
   -0.9293   -2.2722   -0.0003 C   0  0  0  0  0  0  0  0  0  0  0  0
   -2.2850   -1.9537   -0.0004 C   0  0  0  0  0  0  0  0  0  0  0  0
   -2.2901    1.7116    0.0001 C   0  0  0  0  0  0  0  0  0  0  0  0
    3.0489    1.6973   -0.0005 C   0  0  0  0  0  0  0  0  0  0  0  0
    3.7728   -0.9902    0.0005 C   0  0  0  0  0  0  0  0  0  0  0  0
    4.3973    1.3391   -0.0002 C   0  0  0  0  0  0  0  0  0  0  0  0
    4.7590   -0.0040    0.0000 C   0  0  0  0  0  0  0  0  0  0  0  0
   -3.6591    1.9496    0.0004 C   0  0  0  0  0  0  0  0  0  0  0  0
   -4.4921    0.8557    0.0002 C   0  0  0  0  0  0  0  0  0  0  0  0
    0.4260    2.1155   -0.0003 H   0  0  0  0  0  0  0  0  0  0  0  0
    1.6862   -2.6705    0.0006 H   0  0  0  0  0  0  0  0  0  0  0  0
   -0.6439   -3.3227   -0.0003 H   0  0  0  0  0  0  0  0  0  0  0  0
   -3.0077   -2.7682   -0.0004 H   0  0  0  0  0  0  0  0  0  0  0  0
   -1.6380    2.5806    0.0003 H   0  0  0  0  0  0  0  0  0  0  0  0
    2.7886    2.7539   -0.0008 H   0  0  0  0  0  0  0  0  0  0  0  0
    4.0766   -2.0349    0.0009 H   0  0  0  0  0  0  0  0  0  0  0  0
    5.1634    2.1088   -0.0003 H   0  0  0  0  0  0  0  0  0  0  0  0
    5.8080   -0.2850    0.0002 H   0  0  0  0  0  0  0  0  0  0  0  0
   -4.0528    2.9591    0.0006 H   0  0  0  0  0  0  0  0  0  0  0  0
   -5.5703    0.9734    0.0004 H   0  0  0  0  0  0  0  0  0  0  0  0
  1  9  1  0  0  0  0
  1 18  2  0  0  0  0
  2  3  1  0  0  0  0
  2  4  1  0  0  0  0
  2  7  2  0  0  0  0
  3  8  2  0  0  0  0
  3 10  1  0  0  0  0
  4  9  2  0  0  0  0
  4 12  1  0  0  0  0
  5  6  1  0  0  0  0
  5  7  1  0  0  0  0
  5 13  2  0  0  0  0
  6  8  1  0  0  0  0
  6 14  2  0  0  0  0
  7 19  1  0  0  0  0
  8 20  1  0  0  0  0
  9 11  1  0  0  0  0
 10 11  2  0  0  0  0
 10 21  1  0  0  0  0
 11 22  1  0  0  0  0
 12 17  2  0  0  0  0
 12 23  1  0  0  0  0
 13 15  1  0  0  0  0
 13 24  1  0  0  0  0
 14 16  1  0  0  0  0
 14 25  1  0  0  0  0
 15 16  2  0  0  0  0
 15 26  1  0  0  0  0
 16 27  1  0  0  0  0
 17 18  1  0  0  0  0
 17 28  1  0  0  0  0
 18 29  1  0  0  0  0
M  END
> <PUBCHEM_COMPOUND_CID>
9179

> <PUBCHEM_CONFORMER_RMSD>
0.4

> <PUBCHEM_CONFORMER_DIVERSEORDER>
1

> <PUBCHEM_MMFF94_PARTIAL_CHARGES>
24
1 -0.62
10 -0.15
11 -0.15
12 -0.15
13 -0.15
14 -0.15
15 -0.15
16 -0.15
17 -0.15
18 0.16
19 0.15
20 0.15
21 0.15
22 0.15
23 0.15
24 0.15
25 0.15
26 0.15
27 0.15
28 0.15
29 0.15
7 -0.15
8 -0.15
9 0.31

> <PUBCHEM_EFFECTIVE_ROTOR_COUNT>
0

> <PUBCHEM_PHARMACOPHORE_FEATURES>
5
1 1 acceptor
6 1 4 9 12 17 18 rings
6 2 3 4 9 10 11 rings
6 2 3 5 6 7 8 rings
6 5 6 13 14 15 16 rings

> <PUBCHEM_HEAVY_ATOM_COUNT>
18

> <PUBCHEM_ATOM_DEF_STEREO_COUNT>
0

> <PUBCHEM_ATOM_UDEF_STEREO_COUNT>
0

> <PUBCHEM_BOND_DEF_STEREO_COUNT>
0

> <PUBCHEM_BOND_UDEF_STEREO_COUNT>
0

> <PUBCHEM_ISOTOPIC_ATOM_COUNT>
0

> <PUBCHEM_COMPONENT_COUNT>
1

> <PUBCHEM_CACTVS_TAUTO_COUNT>
1

> <PUBCHEM_CONFORMER_ID>
000023DB00000001

> <PUBCHEM_MMFF94_ENERGY>
63.0528

> <PUBCHEM_FEATURE_SELFOVERLAP>
25.449

> <PUBCHEM_SHAPE_FINGERPRINT>
10411042 1 17257933689793544538
10608611 8 18336829701906853704
10616163 171 18337670811011723302
10646746 165 18410009927518525660
10967382 1 18338517546475563076
11132069 177 18411141320472314008
11471102 20 18409451409955477612
12173636 292 18410015416149126679
12390115 104 18116696573668484161
12403814 3 17775571939798668317
12500047 106 18408609136476958752
12644460 14 18129942419848544122
13140716 1 18412270527852108482
13380535 76 18409166627543076439
138480 1 17618223248625068643
14790565 3 18263917903557419017
14866123 147 16890312518343841442
15042514 8 18195804068807726163
15196674 1 18410575084673693382
15375358 24 18260829302131950126
15442244 35 18339645650212532978
15536298 74 18335420183955815598
16945 1 18266458706913177415
17492 89 18411418380360755858
18186145 218 18262512710031292572
200 152 17748830708935817591
20510252 161 18334572434715702633
20645477 56 18411698772683129453
20645477 70 17168133590250230030
21267235 1 18411128130459189706
21501502 16 18411423877786207358
21524375 3 18409730685608447159
23227448 37 18408887300065507103
23402539 116 18334021587800896765
23402655 69 18333452057820440748
23559900 14 18261110816333175942
2748010 2 18410566314461426807
3004659 81 18270953662016612782
335352 9 18338799043481173974
350125 39 18410570657137586673
3545911 37 18409445886501116204
4028521 119 18342464750686415589
4214541 1 18410575084737146308
474 4 17488738961643500876
495365 180 17385736768308936664
4990 188 18040709290644100532
5104073 3 18411981360082536626
633830 44 18116432725089473629
69090 78 18408888433931741031
7364860 26 18192712460736877806
77779 3 18411135827235483628
9709674 26 18335977606023070286

> <PUBCHEM_SHAPE_MULTIPOLES>
365.45
8.83
2.25
0.61
2.03
0.32
0
-3.1
0
-0.75
0
0.02
0
0

> <PUBCHEM_SHAPE_SELFOVERLAP>
842.625

> <PUBCHEM_SHAPE_VOLUME>
185.7

> <PUBCHEM_COORDINATE_TYPE>
2
5
10

$$$$

