854248
  -OEChem-06241222473D

 29 30  0     0  0  0  0  0  0999 V2000
    3.8002   -3.0839   -0.3663 Cl  0  0  0  0  0  0  0  0  0  0  0  0
    5.2385    2.0362    0.5526 Cl  0  0  0  0  0  0  0  0  0  0  0  0
   -0.0218    1.8464   -0.5831 O   0  0  0  0  0  0  0  0  0  0  0  0
   -0.6353   -0.2778    0.1376 N   0  0  0  0  0  0  0  0  0  0  0  0
   -2.0506   -0.2002    0.1093 C   0  0  0  0  0  0  0  0  0  0  0  0
   -4.8132   -0.0486    0.0541 C   0  0  0  0  0  0  0  0  0  0  0  0
    1.6923    0.3054   -0.1021 C   0  0  0  0  0  0  0  0  0  0  0  0
   -2.6539    0.9786   -0.2919 C   0  0  0  0  0  0  0  0  0  0  0  0
   -2.7947   -1.3050    0.4837 C   0  0  0  0  0  0  0  0  0  0  0  0
    0.2995    0.7137   -0.1981 C   0  0  0  0  0  0  0  0  0  0  0  0
   -4.0464    1.0551   -0.3198 C   0  0  0  0  0  0  0  0  0  0  0  0
   -4.1872   -1.2286    0.4559 C   0  0  0  0  0  0  0  0  0  0  0  0
    2.6819    1.2556    0.1498 C   0  0  0  0  0  0  0  0  0  0  0  0
    2.0381   -1.0364   -0.2616 C   0  0  0  0  0  0  0  0  0  0  0  0
   -6.3016    0.0323    0.0241 C   0  0  0  0  0  0  0  0  0  0  0  0
    3.3735   -1.4283   -0.1691 C   0  0  0  0  0  0  0  0  0  0  0  0
    4.0174    0.8637    0.2423 C   0  0  0  0  0  0  0  0  0  0  0  0
    4.3633   -0.4782    0.0827 C   0  0  0  0  0  0  0  0  0  0  0  0
   -0.2906   -1.1665    0.4897 H   0  0  0  0  0  0  0  0  0  0  0  0
   -2.1400    1.8768   -0.5969 H   0  0  0  0  0  0  0  0  0  0  0  0
   -2.3173   -2.2290    0.7974 H   0  0  0  0  0  0  0  0  0  0  0  0
   -4.5239    1.9788   -0.6363 H   0  0  0  0  0  0  0  0  0  0  0  0
   -4.7736   -2.0959    0.7476 H   0  0  0  0  0  0  0  0  0  0  0  0
    2.4163    2.3026    0.2789 H   0  0  0  0  0  0  0  0  0  0  0  0
    1.2993   -1.7965   -0.5010 H   0  0  0  0  0  0  0  0  0  0  0  0
   -6.6462    1.0533    0.2204 H   0  0  0  0  0  0  0  0  0  0  0  0
   -6.6752   -0.2814   -0.9557 H   0  0  0  0  0  0  0  0  0  0  0  0
   -6.7479   -0.6090    0.7917 H   0  0  0  0  0  0  0  0  0  0  0  0
    5.4049   -0.7837    0.1547 H   0  0  0  0  0  0  0  0  0  0  0  0
  1 16  1  0  0  0  0
  2 17  1  0  0  0  0
  3 10  2  0  0  0  0
  4  5  1  0  0  0  0
  4 10  1  0  0  0  0
  4 19  1  0  0  0  0
  5  8  2  0  0  0  0
  5  9  1  0  0  0  0
  6 11  2  0  0  0  0
  6 12  1  0  0  0  0
  6 15  1  0  0  0  0
  7 10  1  0  0  0  0
  7 13  2  0  0  0  0
  7 14  1  0  0  0  0
  8 11  1  0  0  0  0
  8 20  1  0  0  0  0
  9 12  2  0  0  0  0
  9 21  1  0  0  0  0
 11 22  1  0  0  0  0
 12 23  1  0  0  0  0
 13 17  1  0  0  0  0
 13 24  1  0  0  0  0
 14 16  2  0  0  0  0
 14 25  1  0  0  0  0
 15 26  1  0  0  0  0
 15 27  1  0  0  0  0
 15 28  1  0  0  0  0
 16 18  1  0  0  0  0
 17 18  2  0  0  0  0
 18 29  1  0  0  0  0
M  END
> <PUBCHEM_COMPOUND_CID>
854248

> <PUBCHEM_CONFORMER_RMSD>
0.6

> <PUBCHEM_CONFORMER_DIVERSEORDER>
1
3
2

> <PUBCHEM_MMFF94_PARTIAL_CHARGES>
26
1 -0.18
10 0.54
11 -0.15
12 -0.15
13 -0.15
14 -0.15
15 0.14
16 0.18
17 0.18
18 -0.15
19 0.37
2 -0.18
20 0.15
21 0.15
22 0.15
23 0.15
24 0.15
25 0.15
29 0.15
3 -0.57
4 -0.55
5 0.12
6 -0.14
7 0.09
8 -0.15
9 -0.15

> <PUBCHEM_EFFECTIVE_ROTOR_COUNT>
3

> <PUBCHEM_PHARMACOPHORE_FEATURES>
4
1 3 acceptor
1 4 donor
6 5 6 8 9 11 12 rings
6 7 13 14 16 17 18 rings

> <PUBCHEM_HEAVY_ATOM_COUNT>
18

> <PUBCHEM_ATOM_DEF_STEREO_COUNT>
0

> <PUBCHEM_ATOM_UDEF_STEREO_COUNT>
0

> <PUBCHEM_BOND_DEF_STEREO_COUNT>
0

> <PUBCHEM_BOND_UDEF_STEREO_COUNT>
0

> <PUBCHEM_ISOTOPIC_ATOM_COUNT>
0

> <PUBCHEM_COMPONENT_COUNT>
1

> <PUBCHEM_CACTVS_TAUTO_COUNT>
2

> <PUBCHEM_CONFORMER_ID>
000D08E800000001

> <PUBCHEM_MMFF94_ENERGY>
54.2026

> <PUBCHEM_FEATURE_SELFOVERLAP>
20.297

> <PUBCHEM_SHAPE_FINGERPRINT>
10366900 7 15791728585922955731
10835480 77 18411708690164062445
10912923 1 17530682117559930619
12107183 9 17684640313731077393
12236239 1 17603303743819559405
12507560 40 18410576201534177509
12596602 18 17095804321754952355
12730499 353 18409161087620560810
13073987 5 18335134315486154265
13167823 11 18334016103233401495
13533116 47 18186802508375013875
13675066 3 18201716245586914361
13955234 65 18333736827802075714
14252887 29 18342171168117665760
14341114 176 18409442587918799153
14386348 63 18343863316270284643
14866123 147 17327454130183539258
15196674 1 18411418444800030621
15375358 24 18343301440122082018
15536298 74 18411136956695993922
15961568 22 17489583412454649068
17834072 33 18260832578922776687
17844677 252 18335976566588100473
17859628 70 18261390117882829526
1813 80 16988840592246840213
19141452 34 18411135810567577335
19427546 62 18267584611742442528
200 152 18041000635714015883
20279233 1 18342733005432035643
20645477 56 18343304734773441481
20645477 70 18335420213873316038
21033650 10 16414349164153361420
21065198 48 18041272257376639825
21065198 57 18410574006800419413
21065199 12 18411698785625806865
21065201 7 17846781844667944091
21267235 1 18411692222847466566
21279426 13 18197784504039368213
220451 1 17822290163462292735
2215653 11 18340490058015589047
22224240 67 18261684654081401496
22485316 2 18410012121962068183
23402539 116 18334300864487626845
23557571 272 17704075126787449428
23559900 14 18339644537736648046
239999 70 18260260868048831902
26918003 58 18408887330066987491
2871803 45 18201438124863961674
300161 21 18410862031697182521
3004659 81 18130504240695285158
33824 294 18411139143398901978
3421961 26 18337111284706451458
34797466 226 17531238422782551372
34934 24 18337114475228628030
3545911 37 18411417297722184580
4073 2 18200870686675088675
4214541 1 18412262874115099485
42630746 31 18260830393639010734
5104073 3 18411698828570329273
5374978 207 18412268345903324432
542803 24 16877656855718129145
6025842 7 18334012800756900902
621550 34 18341339933428187052
77779 3 18410854377986300801
9709674 26 18342732992573955819
9971528 1 18201998837023221660
9981440 41 17191779390759539777

> <PUBCHEM_SHAPE_MULTIPOLES>
363.32
13.22
2.25
0.7
8.55
1.09
0.01
-0.3
1.09
-3.51
-0.11
-0.01
-0.01
1.06

> <PUBCHEM_SHAPE_SELFOVERLAP>
762.201

> <PUBCHEM_SHAPE_VOLUME>
206.7

> <PUBCHEM_COORDINATE_TYPE>
2
5
10

$$$$

