7847019
  -OEChem-06241222482D

 46 48  0     0  0  0  0  0  0999 V2000
    4.6783    3.7688    0.0000 S   0  0  0  0  0  0  0  0  0  0  0  0
    8.2619    1.2320    0.0000 O   0  0  0  0  0  0  0  0  0  0  0  0
    8.2619    2.9641    0.0000 O   0  0  0  0  0  0  0  0  0  0  0  0
    9.2619   -0.5000    0.0000 O   0  0  0  0  0  0  0  0  0  0  0  0
   13.7619   -3.0981    0.0000 O   0  0  0  0  0  0  0  0  0  0  0  0
   12.2619   -3.9641    0.0000 O   0  0  0  0  0  0  0  0  0  0  0  0
    4.6783    2.1594    0.0000 N   0  0  0  0  0  0  0  0  0  0  0  0
   10.7619    0.3660    0.0000 N   0  0  0  0  0  0  0  0  0  0  0  0
    6.2619    2.9641    0.0000 C   0  0  0  0  0  0  0  0  0  0  0  0
    6.7619    2.0981    0.0000 C   0  0  0  0  0  0  0  0  0  0  0  0
    5.2619    2.9641    0.0000 C   0  0  0  0  0  0  0  0  0  0  0  0
    3.7320    3.4641    0.0000 C   0  0  0  0  0  0  0  0  0  0  0  0
    3.7320    2.4641    0.0000 C   0  0  0  0  0  0  0  0  0  0  0  0
    7.7619    2.0981    0.0000 C   0  0  0  0  0  0  0  0  0  0  0  0
    2.8660    3.9641    0.0000 C   0  0  0  0  0  0  0  0  0  0  0  0
    2.8660    1.9641    0.0000 C   0  0  0  0  0  0  0  0  0  0  0  0
    2.0000    3.4641    0.0000 C   0  0  0  0  0  0  0  0  0  0  0  0
    2.0000    2.4641    0.0000 C   0  0  0  0  0  0  0  0  0  0  0  0
   11.2619   -0.5000    0.0000 C   0  0  0  0  0  0  0  0  0  0  0  0
    9.2619    1.2320    0.0000 C   0  0  0  0  0  0  0  0  0  0  0  0
    9.7619    0.3660    0.0000 C   0  0  0  0  0  0  0  0  0  0  0  0
   10.7619   -1.3660    0.0000 C   0  0  0  0  0  0  0  0  0  0  0  0
   12.2619   -0.5000    0.0000 C   0  0  0  0  0  0  0  0  0  0  0  0
   12.2619   -2.2320    0.0000 C   0  0  0  0  0  0  0  0  0  0  0  0
   11.2619   -2.2320    0.0000 C   0  0  0  0  0  0  0  0  0  0  0  0
   12.7619   -1.3660    0.0000 C   0  0  0  0  0  0  0  0  0  0  0  0
   12.7619   -3.0981    0.0000 C   0  0  0  0  0  0  0  0  0  0  0  0
   14.2619   -3.9641    0.0000 C   0  0  0  0  0  0  0  0  0  0  0  0
    6.8445    3.1761    0.0000 H   0  0  0  0  0  0  0  0  0  0  0  0
    6.1542    3.5747    0.0000 H   0  0  0  0  0  0  0  0  0  0  0  0
    6.1793    1.8860    0.0000 H   0  0  0  0  0  0  0  0  0  0  0  0
    6.8695    1.4875    0.0000 H   0  0  0  0  0  0  0  0  0  0  0  0
    2.8660    4.5841    0.0000 H   0  0  0  0  0  0  0  0  0  0  0  0
    2.8660    1.3441    0.0000 H   0  0  0  0  0  0  0  0  0  0  0  0
    1.4631    3.7741    0.0000 H   0  0  0  0  0  0  0  0  0  0  0  0
    1.4631    2.1541    0.0000 H   0  0  0  0  0  0  0  0  0  0  0  0
    9.8445    1.4441    0.0000 H   0  0  0  0  0  0  0  0  0  0  0  0
    9.1542    1.8426    0.0000 H   0  0  0  0  0  0  0  0  0  0  0  0
   11.0719    0.9030    0.0000 H   0  0  0  0  0  0  0  0  0  0  0  0
   10.1419   -1.3660    0.0000 H   0  0  0  0  0  0  0  0  0  0  0  0
   12.5719    0.0369    0.0000 H   0  0  0  0  0  0  0  0  0  0  0  0
   10.9519   -2.7690    0.0000 H   0  0  0  0  0  0  0  0  0  0  0  0
   13.3819   -1.3660    0.0000 H   0  0  0  0  0  0  0  0  0  0  0  0
   13.7249   -4.2741    0.0000 H   0  0  0  0  0  0  0  0  0  0  0  0
   14.5719   -4.5010    0.0000 H   0  0  0  0  0  0  0  0  0  0  0  0
   14.7988   -3.6541    0.0000 H   0  0  0  0  0  0  0  0  0  0  0  0
  1 11  1  0  0  0  0
  1 12  1  0  0  0  0
  2 14  1  0  0  0  0
  2 20  1  0  0  0  0
  3 14  2  0  0  0  0
  4 21  2  0  0  0  0
  5 27  1  0  0  0  0
  5 28  1  0  0  0  0
  6 27  2  0  0  0  0
  7 11  2  0  0  0  0
  7 13  1  0  0  0  0
  8 19  1  0  0  0  0
  8 21  1  0  0  0  0
  8 39  1  0  0  0  0
  9 10  1  0  0  0  0
  9 11  1  0  0  0  0
  9 29  1  0  0  0  0
  9 30  1  0  0  0  0
 10 14  1  0  0  0  0
 10 31  1  0  0  0  0
 10 32  1  0  0  0  0
 12 13  1  0  0  0  0
 12 15  2  0  0  0  0
 13 16  2  0  0  0  0
 15 17  1  0  0  0  0
 15 33  1  0  0  0  0
 16 18  1  0  0  0  0
 16 34  1  0  0  0  0
 17 18  2  0  0  0  0
 17 35  1  0  0  0  0
 18 36  1  0  0  0  0
 19 22  2  0  0  0  0
 19 23  1  0  0  0  0
 20 21  1  0  0  0  0
 20 37  1  0  0  0  0
 20 38  1  0  0  0  0
 22 25  1  0  0  0  0
 22 40  1  0  0  0  0
 23 26  2  0  0  0  0
 23 41  1  0  0  0  0
 24 25  2  0  0  0  0
 24 26  1  0  0  0  0
 24 27  1  0  0  0  0
 25 42  1  0  0  0  0
 26 43  1  0  0  0  0
 28 44  1  0  0  0  0
 28 45  1  0  0  0  0
 28 46  1  0  0  0  0
M  END
> <PUBCHEM_COMPOUND_CID>
7847019

> <PUBCHEM_COMPOUND_CANONICALIZED>
1

> <PUBCHEM_CACTVS_COMPLEXITY>
565

> <PUBCHEM_CACTVS_HBOND_ACCEPTOR>
7

> <PUBCHEM_CACTVS_HBOND_DONOR>
1

> <PUBCHEM_CACTVS_ROTATABLE_BOND>
9

> <PUBCHEM_CACTVS_SUBSKEYS>
AAADceB7OABAAAAAAAAAAAAAAAAAAWAAAAAwYAAAAAAAAFgB9AAAHgQQAAAADAih3gIyybLIFAisAyXyXAKD8KBlCjhImD1wbNgKJrLgtZ2HMQhk1AH46Ye82SOeCAAAAAAAAQAQAAAAAAACAAAAAAAAAA==

> <PUBCHEM_IUPAC_OPENEYE_NAME>
methyl 4-[[2-[3-(1,3-benzothiazol-2-yl)propanoyloxy]acetyl]amino]benzoate

> <PUBCHEM_IUPAC_CAS_NAME>
4-[[2-[3-(1,3-benzothiazol-2-yl)-1-oxopropoxy]-1-oxoethyl]amino]benzoic acid methyl ester

> <PUBCHEM_IUPAC_NAME>
methyl 4-[[2-[3-(1,3-benzothiazol-2-yl)propanoyloxy]acetyl]amino]benzoate

> <PUBCHEM_IUPAC_SYSTEMATIC_NAME>
methyl 4-[2-[3-(1,3-benzothiazol-2-yl)propanoyloxy]ethanoylamino]benzoate

> <PUBCHEM_IUPAC_TRADITIONAL_NAME>
4-[[2-[3-(1,3-benzothiazol-2-yl)propanoyloxy]acetyl]amino]benzoic acid methyl ester

> <PUBCHEM_IUPAC_INCHI>
InChI=1S/C20H18N2O5S/c1-26-20(25)13-6-8-14(9-7-13)21-17(23)12-27-19(24)11-10-18-22-15-4-2-3-5-16(15)28-18/h2-9H,10-12H2,1H3,(H,21,23)

> <PUBCHEM_IUPAC_INCHIKEY>
ZMFFRVCKDGZKMD-UHFFFAOYSA-N

> <PUBCHEM_XLOGP3_AA>
3.3

> <PUBCHEM_EXACT_MASS>
398.093643

> <PUBCHEM_MOLECULAR_FORMULA>
C20H18N2O5S

> <PUBCHEM_MOLECULAR_WEIGHT>
398.43232

> <PUBCHEM_OPENEYE_CAN_SMILES>
COC(=O)C1=CC=C(C=C1)NC(=O)COC(=O)CCC2=NC3=CC=CC=C3S2

> <PUBCHEM_OPENEYE_ISO_SMILES>
COC(=O)C1=CC=C(C=C1)NC(=O)COC(=O)CCC2=NC3=CC=CC=C3S2

> <PUBCHEM_CACTVS_TPSA>
123

> <PUBCHEM_MONOISOTOPIC_WEIGHT>
398.093643

> <PUBCHEM_TOTAL_CHARGE>
0

> <PUBCHEM_HEAVY_ATOM_COUNT>
28

> <PUBCHEM_ATOM_DEF_STEREO_COUNT>
0

> <PUBCHEM_ATOM_UDEF_STEREO_COUNT>
0

> <PUBCHEM_BOND_DEF_STEREO_COUNT>
0

> <PUBCHEM_BOND_UDEF_STEREO_COUNT>
0

> <PUBCHEM_ISOTOPIC_ATOM_COUNT>
0

> <PUBCHEM_COMPONENT_COUNT>
1

> <PUBCHEM_CACTVS_TAUTO_COUNT>
14

> <PUBCHEM_COORDINATE_TYPE>
1
5
255

> <PUBCHEM_BONDANNOTATIONS>
1  11  8
1  12  8
12  13  8
12  15  8
13  16  8
15  17  8
16  18  8
17  18  8
19  22  8
19  23  8
22  25  8
23  26  8
24  25  8
24  26  8
7  11  8
7  13  8

$$$$

