6422
  -OEChem-06261201183D

  8  7  0     0  0  0  0  0  0999 V2000
   -1.0632    1.2616   -0.0197 F   0  0  0  0  0  0  0  0  0  0  0  0
   -1.1343   -0.6123    1.0916 F   0  0  0  0  0  0  0  0  0  0  0  0
   -1.1076   -0.6386   -1.0875 F   0  0  0  0  0  0  0  0  0  0  0  0
    1.4528    1.1701    0.0004 O   0  0  0  0  0  0  0  0  0  0  0  0
    1.5489   -1.1023    0.0007 O   0  0  0  0  0  0  0  0  0  0  0  0
   -0.5947   -0.0118    0.0013 C   0  0  0  0  0  0  0  0  0  0  0  0
    0.8981   -0.0667    0.0132 C   0  0  0  0  0  0  0  0  0  0  0  0
    2.4330    1.1321   -0.0093 H   0  0  0  0  0  0  0  0  0  0  0  0
  1  6  1  0  0  0  0
  2  6  1  0  0  0  0
  3  6  1  0  0  0  0
  4  7  1  0  0  0  0
  4  8  1  0  0  0  0
  5  7  2  0  0  0  0
  6  7  1  0  0  0  0
M  END
> <PUBCHEM_COMPOUND_CID>
6422

> <PUBCHEM_CONFORMER_RMSD>
0.4

> <PUBCHEM_CONFORMER_DIVERSEORDER>
1

> <PUBCHEM_MMFF94_PARTIAL_CHARGES>
8
1 -0.34
2 -0.34
3 -0.34
4 -0.65
5 -0.57
6 1.08
7 0.66
8 0.5

> <PUBCHEM_EFFECTIVE_ROTOR_COUNT>
1

> <PUBCHEM_PHARMACOPHORE_FEATURES>
3
1 4 acceptor
1 5 acceptor
3 4 5 7 anion

> <PUBCHEM_HEAVY_ATOM_COUNT>
7

> <PUBCHEM_ATOM_DEF_STEREO_COUNT>
0

> <PUBCHEM_ATOM_UDEF_STEREO_COUNT>
0

> <PUBCHEM_BOND_DEF_STEREO_COUNT>
0

> <PUBCHEM_BOND_UDEF_STEREO_COUNT>
0

> <PUBCHEM_ISOTOPIC_ATOM_COUNT>
0

> <PUBCHEM_COMPONENT_COUNT>
1

> <PUBCHEM_CACTVS_TAUTO_COUNT>
1

> <PUBCHEM_CONFORMER_ID>
0000191600000001

> <PUBCHEM_MMFF94_ENERGY>
4.8399

> <PUBCHEM_FEATURE_SELFOVERLAP>
15.28

> <PUBCHEM_SHAPE_FINGERPRINT>
20096714 4 18338516472791995200
21015797 1 9943541724951915660
24536 1 18060140924991942132
29004967 10 18196936561156422171
5943 1 11954449416070142595

> <PUBCHEM_SHAPE_MULTIPOLES>
110.5
1.78
1.16
0.81
0.35
0.22
0
-0.05
0.01
0.19
-0.01
-0.32
-0.18
0

> <PUBCHEM_SHAPE_SELFOVERLAP>
213.866

> <PUBCHEM_SHAPE_VOLUME>
67.2

> <PUBCHEM_COORDINATE_TYPE>
2
5
10

$$$$

