6711
  -OEChem-06261201283D

 24 26  0     0  0  0  0  0  0999 V2000
   -3.4351   -2.2412    0.0020 Cl  0  0  0  0  0  0  0  0  0  0  0  0
    3.4344    2.2412    0.0012 Cl  0  0  0  0  0  0  0  0  0  0  0  0
   -0.6968   -2.5778   -0.0015 O   0  0  0  0  0  0  0  0  0  0  0  0
    0.6966    2.5780   -0.0009 O   0  0  0  0  0  0  0  0  0  0  0  0
   -1.4186   -0.3091   -0.0004 C   0  0  0  0  0  0  0  0  0  0  0  0
    1.4187    0.3091   -0.0003 C   0  0  0  0  0  0  0  0  0  0  0  0
   -1.0231    1.0302   -0.0005 C   0  0  0  0  0  0  0  0  0  0  0  0
    1.0232   -1.0302   -0.0005 C   0  0  0  0  0  0  0  0  0  0  0  0
   -0.4100   -1.3882   -0.0003 C   0  0  0  0  0  0  0  0  0  0  0  0
    0.4100    1.3882   -0.0006 C   0  0  0  0  0  0  0  0  0  0  0  0
   -2.7801   -0.6350    0.0000 C   0  0  0  0  0  0  0  0  0  0  0  0
    2.7803    0.6350    0.0005 C   0  0  0  0  0  0  0  0  0  0  0  0
   -1.9892    2.0435   -0.0002 C   0  0  0  0  0  0  0  0  0  0  0  0
    1.9893   -2.0436   -0.0003 C   0  0  0  0  0  0  0  0  0  0  0  0
   -3.7396    0.3779    0.0004 C   0  0  0  0  0  0  0  0  0  0  0  0
    3.7397   -0.3780    0.0008 C   0  0  0  0  0  0  0  0  0  0  0  0
   -3.3449    1.7144    0.0004 C   0  0  0  0  0  0  0  0  0  0  0  0
    3.3450   -1.7144    0.0004 C   0  0  0  0  0  0  0  0  0  0  0  0
   -1.7116    3.0941   -0.0002 H   0  0  0  0  0  0  0  0  0  0  0  0
    1.7117   -3.0942   -0.0004 H   0  0  0  0  0  0  0  0  0  0  0  0
   -4.8028    0.1490    0.0012 H   0  0  0  0  0  0  0  0  0  0  0  0
    4.8029   -0.1491    0.0014 H   0  0  0  0  0  0  0  0  0  0  0  0
   -4.0936    2.5013    0.0008 H   0  0  0  0  0  0  0  0  0  0  0  0
    4.0938   -2.5013    0.0006 H   0  0  0  0  0  0  0  0  0  0  0  0
  1 11  1  0  0  0  0
  2 12  1  0  0  0  0
  3  9  2  0  0  0  0
  4 10  2  0  0  0  0
  5  7  2  0  0  0  0
  5  9  1  0  0  0  0
  5 11  1  0  0  0  0
  6  8  2  0  0  0  0
  6 10  1  0  0  0  0
  6 12  1  0  0  0  0
  7 10  1  0  0  0  0
  7 13  1  0  0  0  0
  8  9  1  0  0  0  0
  8 14  1  0  0  0  0
 11 15  2  0  0  0  0
 12 16  2  0  0  0  0
 13 17  2  0  0  0  0
 13 19  1  0  0  0  0
 14 18  2  0  0  0  0
 14 20  1  0  0  0  0
 15 17  1  0  0  0  0
 15 21  1  0  0  0  0
 16 18  1  0  0  0  0
 16 22  1  0  0  0  0
 17 23  1  0  0  0  0
 18 24  1  0  0  0  0
M  END
> <PUBCHEM_COMPOUND_CID>
6711

> <PUBCHEM_CONFORMER_RMSD>
0.4

> <PUBCHEM_CONFORMER_DIVERSEORDER>
1

> <PUBCHEM_MMFF94_PARTIAL_CHARGES>
24
1 -0.18
10 0.4
11 0.18
12 0.18
13 -0.15
14 -0.15
15 -0.15
16 -0.15
17 -0.15
18 -0.15
19 0.15
2 -0.18
20 0.15
21 0.15
22 0.15
23 0.15
24 0.15
3 -0.57
4 -0.57
5 0.09
6 0.09
7 0.09
8 0.09
9 0.4

> <PUBCHEM_EFFECTIVE_ROTOR_COUNT>
0

> <PUBCHEM_PHARMACOPHORE_FEATURES>
5
1 3 acceptor
1 4 acceptor
6 5 6 7 8 9 10 rings
6 5 7 11 13 15 17 rings
6 6 8 12 14 16 18 rings

> <PUBCHEM_HEAVY_ATOM_COUNT>
18

> <PUBCHEM_ATOM_DEF_STEREO_COUNT>
0

> <PUBCHEM_ATOM_UDEF_STEREO_COUNT>
0

> <PUBCHEM_BOND_DEF_STEREO_COUNT>
0

> <PUBCHEM_BOND_UDEF_STEREO_COUNT>
0

> <PUBCHEM_ISOTOPIC_ATOM_COUNT>
0

> <PUBCHEM_COMPONENT_COUNT>
1

> <PUBCHEM_CACTVS_TAUTO_COUNT>
1

> <PUBCHEM_CONFORMER_ID>
00001A3700000001

> <PUBCHEM_MMFF94_ENERGY>
60.2521

> <PUBCHEM_FEATURE_SELFOVERLAP>
25.414

> <PUBCHEM_SHAPE_FINGERPRINT>
10411042 1 16321184890502097346
10608611 8 18410857672152552176
10616163 171 18409164389801818294
10863032 1 18409448093839843853
10967382 1 18338797930514795269
1100329 8 16176788930752938145
11132069 177 18338523039738734824
11471102 20 18339084911787331092
11578080 2 17345499091996869708
11680986 33 18412259502122387801
13140716 1 18338517555049660817
13897977 150 18338801220459932460
14223421 5 18410855434358358035
14790565 3 16325387240912284389
15196674 1 18410575067483209733
15442244 35 18410857706654760874
15536298 74 18334858333508766724
16945 1 18266741281369620486
17492 89 18410856551071993379
17804303 29 18266171914951408390
18186145 218 18262232338961325772
193761 8 18266459810687877125
19591789 44 18410572868718748342
200 152 18041573519879567237
20510252 161 18262515897060472401
20905425 154 18263356988911340262
21267235 1 18410565214897252727
21501502 16 18410856546754887694
221490 88 18411974754718519442
2334 1 18410575093253013511
23366157 5 18131632288269924370
23402539 116 18335432304295814654
23463225 33 18340205305582958388
23558518 356 18200871773464987291
23559900 14 18262804089909462986
238 59 17122588657268314845
2748010 2 18410575131907719303
335352 9 18122626316632064447
34934 24 18339932626551641915
350125 39 18411132537063662104
5104073 3 18410855451538228168
7097593 13 17842011162542217426
7364860 26 18408041823369709484
7832392 63 18337674229647019467
8809292 202 18342734143777918611
9709674 26 18408600391913520918

> <PUBCHEM_SHAPE_MULTIPOLES>
362.43
6.66
2.99
0.61
0
0
0
0
0
0
0
0
0
0

> <PUBCHEM_SHAPE_SELFOVERLAP>
802.556

> <PUBCHEM_SHAPE_VOLUME>
194.1

> <PUBCHEM_COORDINATE_TYPE>
2
5
10

$$$$

