12889
  -OEChem-06261207303D

 21 21  0     0  0  0  0  0  0999 V2000
    3.6328    0.2291   -0.0004 F   0  0  0  0  0  0  0  0  0  0  0  0
    2.7856    1.9068   -1.0829 F   0  0  0  0  0  0  0  0  0  0  0  0
    2.7661    1.8979    1.0916 F   0  0  0  0  0  0  0  0  0  0  0  0
   -3.5545    0.6356   -0.0002 F   0  0  0  0  0  0  0  0  0  0  0  0
   -2.5239    2.2066    1.0832 F   0  0  0  0  0  0  0  0  0  0  0  0
   -2.5048    2.1965   -1.0912 F   0  0  0  0  0  0  0  0  0  0  0  0
   -1.4423   -3.4936    0.0008 O   0  0  0  0  0  0  0  0  0  0  0  0
    0.8078   -3.8163   -0.0001 O   0  0  0  0  0  0  0  0  0  0  0  0
    1.2488    0.4282    0.0001 C   0  0  0  0  0  0  0  0  0  0  0  0
   -1.1633    0.5645    0.0000 C   0  0  0  0  0  0  0  0  0  0  0  0
    0.0821    1.1927    0.0003 C   0  0  0  0  0  0  0  0  0  0  0  0
   -0.0753   -1.5926   -0.0003 C   0  0  0  0  0  0  0  0  0  0  0  0
    1.1701   -0.9645   -0.0002 C   0  0  0  0  0  0  0  0  0  0  0  0
   -1.2420   -0.8281   -0.0003 C   0  0  0  0  0  0  0  0  0  0  0  0
    2.5804    1.0999   -0.0001 C   0  0  0  0  0  0  0  0  0  0  0  0
   -2.4106    1.3822    0.0001 C   0  0  0  0  0  0  0  0  0  0  0  0
   -0.1571   -3.0450   -0.0003 C   0  0  0  0  0  0  0  0  0  0  0  0
    0.1434    2.2784    0.0004 H   0  0  0  0  0  0  0  0  0  0  0  0
    2.0800   -1.5596   -0.0003 H   0  0  0  0  0  0  0  0  0  0  0  0
   -2.2230   -1.2950   -0.0005 H   0  0  0  0  0  0  0  0  0  0  0  0
   -1.4868   -4.4736    0.0015 H   0  0  0  0  0  0  0  0  0  0  0  0
  1 15  1  0  0  0  0
  2 15  1  0  0  0  0
  3 15  1  0  0  0  0
  4 16  1  0  0  0  0
  5 16  1  0  0  0  0
  6 16  1  0  0  0  0
  7 17  1  0  0  0  0
  7 21  1  0  0  0  0
  8 17  2  0  0  0  0
  9 11  2  0  0  0  0
  9 13  1  0  0  0  0
  9 15  1  0  0  0  0
 10 11  1  0  0  0  0
 10 14  2  0  0  0  0
 10 16  1  0  0  0  0
 11 18  1  0  0  0  0
 12 13  2  0  0  0  0
 12 14  1  0  0  0  0
 12 17  1  0  0  0  0
 13 19  1  0  0  0  0
 14 20  1  0  0  0  0
M  END
> <PUBCHEM_COMPOUND_CID>
12889

> <PUBCHEM_CONFORMER_RMSD>
0.6

> <PUBCHEM_CONFORMER_DIVERSEORDER>
1

> <PUBCHEM_MMFF94_PARTIAL_CHARGES>
21
1 -0.34
10 -0.14
11 -0.15
12 0.09
13 -0.15
14 -0.15
15 1.16
16 1.16
17 0.63
18 0.15
19 0.15
2 -0.34
20 0.15
21 0.5
3 -0.34
4 -0.34
5 -0.34
6 -0.34
7 -0.65
8 -0.57
9 -0.14

> <PUBCHEM_EFFECTIVE_ROTOR_COUNT>
3

> <PUBCHEM_PHARMACOPHORE_FEATURES>
4
1 7 acceptor
1 8 acceptor
3 7 8 17 anion
6 9 10 11 12 13 14 rings

> <PUBCHEM_HEAVY_ATOM_COUNT>
17

> <PUBCHEM_ATOM_DEF_STEREO_COUNT>
0

> <PUBCHEM_ATOM_UDEF_STEREO_COUNT>
0

> <PUBCHEM_BOND_DEF_STEREO_COUNT>
0

> <PUBCHEM_BOND_UDEF_STEREO_COUNT>
0

> <PUBCHEM_ISOTOPIC_ATOM_COUNT>
0

> <PUBCHEM_COMPONENT_COUNT>
1

> <PUBCHEM_CACTVS_TAUTO_COUNT>
1

> <PUBCHEM_CONFORMER_ID>
0000325900000001

> <PUBCHEM_MMFF94_ENERGY>
30.453

> <PUBCHEM_FEATURE_SELFOVERLAP>
20.355

> <PUBCHEM_SHAPE_FINGERPRINT>
1 1 18266461082029851948
10967382 1 18266740362283815238
12553582 1 17330831323441304438
13140716 1 18338517546480890242
13380535 76 18408324393003911518
14648413 74 17909830178141297889
15042514 8 18196651787418410258
15309172 13 18411409622900697305
15490181 7 18410567401025128343
15490181 8 18410581711840327851
16945 1 18050568443642807904
193761 8 18410573998089867078
19591789 44 18410565210565440103
20510252 161 18190460446005418880
20645476 183 18201143374480611756
20645477 70 18054798544654618901
20871998 184 18198611156125576387
21041028 32 17111272573541610865
21160774 45 18269280062888397367
21524375 3 18410575101843000067
22112679 90 16745915867590270034
2334 1 18411138021742173838
23402539 116 18046074748294951159
23419403 2 17032690232828454895
23530152 11 18410574002579519639
23557571 272 17758384181055612268
257057 1 17256535119180763882
2748010 2 18340476841884156807
305870 269 18266178516100059328
3071541 12 18049156975476086464
3071541 158 17550664851840520694
3071541 236 18195827188062026162
3071541 250 17472124554499317806
3091708 16 9339617353993312379
352729 6 18410856516711540427
458136 41 18194940024081377049
54173680 148 18123188996045139986
7364860 26 18049443943821567707
81228 2 17979073782172834002

> <PUBCHEM_SHAPE_MULTIPOLES>
294.47
4.41
3.97
0.78
0.98
4.47
0
-3.81
0
-0.97
0
0.04
-0.43
0

> <PUBCHEM_SHAPE_SELFOVERLAP>
632.163

> <PUBCHEM_SHAPE_VOLUME>
164.5

> <PUBCHEM_COORDINATE_TYPE>
2
5
10

$$$$

