9800
  -OEChem-06261204043D

 77 81  0     0  0  0  0  0  0999 V2000
    3.2162    4.0789    1.2198 Cl  0  0  0  0  0  0  0  0  0  0  0  0
    8.3822    0.6292    0.2119 S   0  0  0  0  0  0  0  0  0  0  0  0
   -3.9071    1.4536   -1.1036 O   0  0  0  0  0  0  0  0  0  0  0  0
   -5.0463    3.0641    0.0827 O   0  0  0  0  0  0  0  0  0  0  0  0
   -5.6908   -2.8033    0.6640 O   0  0  0  0  0  0  0  0  0  0  0  0
   -9.3232    0.3020    0.9786 O   0  0  0  0  0  0  0  0  0  0  0  0
   -8.3610   -2.2867    1.1874 O   0  0  0  0  0  0  0  0  0  0  0  0
    1.1603   -0.7353   -0.9197 N   0  0  0  0  0  0  0  0  0  0  0  0
   -1.2277    0.6985   -1.6946 N   0  0  0  0  0  0  0  0  0  0  0  0
    5.4643   -0.3789   -0.1527 N   0  0  0  0  0  0  0  0  0  0  0  0
    0.1802   -1.3271   -1.8386 C   0  0  0  0  0  0  0  0  0  0  0  0
    0.5016    0.2018   -0.0013 C   0  0  0  0  0  0  0  0  0  0  0  0
   -0.5690   -0.2377   -2.6137 C   0  0  0  0  0  0  0  0  0  0  0  0
   -0.2466    1.2912   -0.7773 C   0  0  0  0  0  0  0  0  0  0  0  0
    1.8710   -1.7753   -0.1785 C   0  0  0  0  0  0  0  0  0  0  0  0
    3.2245   -1.2833    0.3435 C   0  0  0  0  0  0  0  0  0  0  0  0
   -1.9402    1.7379   -2.4349 C   0  0  0  0  0  0  0  0  0  0  0  0
    4.1777   -0.7769   -0.7385 C   0  0  0  0  0  0  0  0  0  0  0  0
   -2.9658    2.4229   -1.5458 C   0  0  0  0  0  0  0  0  0  0  0  0
    5.6012    0.9680    0.2681 C   0  0  0  0  0  0  0  0  0  0  0  0
    6.4475   -1.3875    0.0099 C   0  0  0  0  0  0  0  0  0  0  0  0
    6.8723    1.5334    0.4911 C   0  0  0  0  0  0  0  0  0  0  0  0
    7.8025   -1.0555    0.2070 C   0  0  0  0  0  0  0  0  0  0  0  0
    4.4812    1.7911    0.5176 C   0  0  0  0  0  0  0  0  0  0  0  0
    6.1162   -2.7602    0.0188 C   0  0  0  0  0  0  0  0  0  0  0  0
    7.0023    2.8674    0.9166 C   0  0  0  0  0  0  0  0  0  0  0  0
    8.7725   -2.0597    0.3757 C   0  0  0  0  0  0  0  0  0  0  0  0
    4.6159    3.1149    0.9454 C   0  0  0  0  0  0  0  0  0  0  0  0
    7.0835   -3.7540    0.1919 C   0  0  0  0  0  0  0  0  0  0  0  0
   -4.8997    1.9109   -0.2913 C   0  0  0  0  0  0  0  0  0  0  0  0
    5.8779    3.6545    1.1421 C   0  0  0  0  0  0  0  0  0  0  0  0
    8.4135   -3.4034    0.3673 C   0  0  0  0  0  0  0  0  0  0  0  0
   -5.8109    0.8058    0.0996 C   0  0  0  0  0  0  0  0  0  0  0  0
   -7.1553    1.0698    0.3614 C   0  0  0  0  0  0  0  0  0  0  0  0
   -5.3232   -0.4968    0.2026 C   0  0  0  0  0  0  0  0  0  0  0  0
   -6.1798   -1.5355    0.5674 C   0  0  0  0  0  0  0  0  0  0  0  0
   -8.0121    0.0311    0.7261 C   0  0  0  0  0  0  0  0  0  0  0  0
   -7.5242   -1.2715    0.8290 C   0  0  0  0  0  0  0  0  0  0  0  0
   -4.3053   -2.9871    0.3800 C   0  0  0  0  0  0  0  0  0  0  0  0
   -9.7407    1.6597    0.8508 C   0  0  0  0  0  0  0  0  0  0  0  0
   -9.0358   -2.9711    0.1344 C   0  0  0  0  0  0  0  0  0  0  0  0
    0.6914   -1.9707   -2.5651 H   0  0  0  0  0  0  0  0  0  0  0  0
   -0.5380   -1.9542   -1.2928 H   0  0  0  0  0  0  0  0  0  0  0  0
   -0.2036   -0.3251    0.6563 H   0  0  0  0  0  0  0  0  0  0  0  0
    1.2347    0.6962    0.6438 H   0  0  0  0  0  0  0  0  0  0  0  0
   -1.3181   -0.7262   -3.2488 H   0  0  0  0  0  0  0  0  0  0  0  0
    0.1285    0.2916   -3.2772 H   0  0  0  0  0  0  0  0  0  0  0  0
    0.4761    1.9139   -1.3223 H   0  0  0  0  0  0  0  0  0  0  0  0
   -0.7363    1.9331   -0.0379 H   0  0  0  0  0  0  0  0  0  0  0  0
    1.2658   -2.1720    0.6469 H   0  0  0  0  0  0  0  0  0  0  0  0
    2.0820   -2.6274   -0.8387 H   0  0  0  0  0  0  0  0  0  0  0  0
    3.0562   -0.5173    1.1072 H   0  0  0  0  0  0  0  0  0  0  0  0
    3.6656   -2.1069    0.9131 H   0  0  0  0  0  0  0  0  0  0  0  0
   -2.4908    1.2754   -3.2647 H   0  0  0  0  0  0  0  0  0  0  0  0
   -1.2535    2.4732   -2.8719 H   0  0  0  0  0  0  0  0  0  0  0  0
    3.7328    0.0524   -1.3033 H   0  0  0  0  0  0  0  0  0  0  0  0
    4.3221   -1.5486   -1.5068 H   0  0  0  0  0  0  0  0  0  0  0  0
   -3.4930    3.1800   -2.1392 H   0  0  0  0  0  0  0  0  0  0  0  0
   -2.5075    2.9278   -0.6893 H   0  0  0  0  0  0  0  0  0  0  0  0
    3.4698    1.4305    0.3678 H   0  0  0  0  0  0  0  0  0  0  0  0
    5.1060   -3.1195   -0.1422 H   0  0  0  0  0  0  0  0  0  0  0  0
    7.9842    3.3082    1.0774 H   0  0  0  0  0  0  0  0  0  0  0  0
    9.8210   -1.8043    0.5157 H   0  0  0  0  0  0  0  0  0  0  0  0
    6.7935   -4.8006    0.1813 H   0  0  0  0  0  0  0  0  0  0  0  0
    6.0038    4.6824    1.4711 H   0  0  0  0  0  0  0  0  0  0  0  0
    9.1694   -4.1716    0.4983 H   0  0  0  0  0  0  0  0  0  0  0  0
   -7.4815    2.0996    0.2614 H   0  0  0  0  0  0  0  0  0  0  0  0
   -4.2686   -0.6545    0.0068 H   0  0  0  0  0  0  0  0  0  0  0  0
   -4.0913   -4.0541    0.5014 H   0  0  0  0  0  0  0  0  0  0  0  0
   -3.6713   -2.4541    1.0968 H   0  0  0  0  0  0  0  0  0  0  0  0
   -4.0677   -2.7334   -0.6588 H   0  0  0  0  0  0  0  0  0  0  0  0
  -10.8091    1.6913    1.0891 H   0  0  0  0  0  0  0  0  0  0  0  0
   -9.6350    2.0197   -0.1782 H   0  0  0  0  0  0  0  0  0  0  0  0
   -9.2353    2.3079    1.5749 H   0  0  0  0  0  0  0  0  0  0  0  0
   -9.6630   -3.7490    0.5783 H   0  0  0  0  0  0  0  0  0  0  0  0
   -8.3162   -3.4452   -0.5406 H   0  0  0  0  0  0  0  0  0  0  0  0
   -9.6768   -2.2820   -0.4246 H   0  0  0  0  0  0  0  0  0  0  0  0
  1 28  1  0  0  0  0
  2 22  1  0  0  0  0
  2 23  1  0  0  0  0
  3 19  1  0  0  0  0
  3 30  1  0  0  0  0
  4 30  2  0  0  0  0
  5 36  1  0  0  0  0
  5 39  1  0  0  0  0
  6 37  1  0  0  0  0
  6 40  1  0  0  0  0
  7 38  1  0  0  0  0
  7 41  1  0  0  0  0
  8 11  1  0  0  0  0
  8 12  1  0  0  0  0
  8 15  1  0  0  0  0
  9 13  1  0  0  0  0
  9 14  1  0  0  0  0
  9 17  1  0  0  0  0
 10 18  1  0  0  0  0
 10 20  1  0  0  0  0
 10 21  1  0  0  0  0
 11 13  1  0  0  0  0
 11 42  1  0  0  0  0
 11 43  1  0  0  0  0
 12 14  1  0  0  0  0
 12 44  1  0  0  0  0
 12 45  1  0  0  0  0
 13 46  1  0  0  0  0
 13 47  1  0  0  0  0
 14 48  1  0  0  0  0
 14 49  1  0  0  0  0
 15 16  1  0  0  0  0
 15 50  1  0  0  0  0
 15 51  1  0  0  0  0
 16 18  1  0  0  0  0
 16 52  1  0  0  0  0
 16 53  1  0  0  0  0
 17 19  1  0  0  0  0
 17 54  1  0  0  0  0
 17 55  1  0  0  0  0
 18 56  1  0  0  0  0
 18 57  1  0  0  0  0
 19 58  1  0  0  0  0
 19 59  1  0  0  0  0
 20 22  2  0  0  0  0
 20 24  1  0  0  0  0
 21 23  1  0  0  0  0
 21 25  2  0  0  0  0
 22 26  1  0  0  0  0
 23 27  2  0  0  0  0
 24 28  2  0  0  0  0
 24 60  1  0  0  0  0
 25 29  1  0  0  0  0
 25 61  1  0  0  0  0
 26 31  2  0  0  0  0
 26 62  1  0  0  0  0
 27 32  1  0  0  0  0
 27 63  1  0  0  0  0
 28 31  1  0  0  0  0
 29 32  2  0  0  0  0
 29 64  1  0  0  0  0
 30 33  1  0  0  0  0
 31 65  1  0  0  0  0
 32 66  1  0  0  0  0
 33 34  2  0  0  0  0
 33 35  1  0  0  0  0
 34 37  1  0  0  0  0
 34 67  1  0  0  0  0
 35 36  2  0  0  0  0
 35 68  1  0  0  0  0
 36 38  1  0  0  0  0
 37 38  2  0  0  0  0
 39 69  1  0  0  0  0
 39 70  1  0  0  0  0
 39 71  1  0  0  0  0
 40 72  1  0  0  0  0
 40 73  1  0  0  0  0
 40 74  1  0  0  0  0
 41 75  1  0  0  0  0
 41 76  1  0  0  0  0
 41 77  1  0  0  0  0
M  END
> <PUBCHEM_COMPOUND_CID>
9800

> <PUBCHEM_CONFORMER_RMSD>
1.2

> <PUBCHEM_CONFORMER_DIVERSEORDER>
3
96
61
47
53
101
70
52
34
99
37
28
94
104
105
102
25
54
51
57
40
67
16
73
106
76
97
32
71
103
85
72
42
36
63
79
69
75
92
60
49
87
100
4
83
91
30
22
64
14
31
11
95
66
77
89
80
46
38
65
9
39
78
55
44
35
23
20
59
29
50
86
81
88
62
21
82
17
107
58
33
24
93
56
12
18
26
27
68
8
43
98
74
1
13
48
6
15
19
7
41
10
84
90
5
2
45

> <PUBCHEM_MMFF94_PARTIAL_CHARGES>
49
1 -0.18
10 -0.57
11 0.27
12 0.27
13 0.27
14 0.27
15 0.27
17 0.27
18 0.37
19 0.28
2 -0.2
20 0.1
21 0.1
22 0.1
23 0.1
24 -0.15
25 -0.15
26 -0.15
27 -0.15
28 0.18
29 -0.15
3 -0.43
30 0.63
31 -0.15
32 -0.15
33 0.09
34 -0.15
35 -0.15
36 0.08
37 0.08
38 0.08
39 0.28
4 -0.57
40 0.28
41 0.28
5 -0.36
6 -0.36
60 0.15
61 0.15
62 0.15
63 0.15
64 0.15
65 0.15
66 0.15
67 0.15
68 0.15
7 -0.36
8 -0.81
9 -0.81

> <PUBCHEM_EFFECTIVE_ROTOR_COUNT>
13.6

> <PUBCHEM_PHARMACOPHORE_FEATURES>
12
1 10 cation
1 4 acceptor
1 5 acceptor
1 6 acceptor
1 7 acceptor
1 8 cation
1 9 cation
6 2 10 20 21 22 23 rings
6 20 22 24 26 28 31 rings
6 21 23 25 27 29 32 rings
6 33 34 35 36 37 38 rings
6 8 9 11 12 13 14 rings

> <PUBCHEM_HEAVY_ATOM_COUNT>
41

> <PUBCHEM_ATOM_DEF_STEREO_COUNT>
0

> <PUBCHEM_ATOM_UDEF_STEREO_COUNT>
0

> <PUBCHEM_BOND_DEF_STEREO_COUNT>
0

> <PUBCHEM_BOND_UDEF_STEREO_COUNT>
0

> <PUBCHEM_ISOTOPIC_ATOM_COUNT>
0

> <PUBCHEM_COMPONENT_COUNT>
1

> <PUBCHEM_CACTVS_TAUTO_COUNT>
1

> <PUBCHEM_CONFORMER_ID>
0000264800000003

> <PUBCHEM_MMFF94_ENERGY>
149.6769

> <PUBCHEM_FEATURE_SELFOVERLAP>
60.935

> <PUBCHEM_SHAPE_FINGERPRINT>
10190108 129 17917993888595217194
10258705 36 18342172288973294330
10580692 12 18410012100835606018
11456790 92 18261119621190083064
12106331 60 15913322533029691109
12144600 37 18412546530893063568
13383665 225 17774145801162945670
13811026 1 18341898497729174181
150020 25 18201164337963159141
15064986 96 17894623768872498908
15131766 46 17753900411508512352
16067689 302 18408885157562608908
16758388 162 18411987983534874402
16992779 147 18043258955399931232
18608769 82 18272374178951088716
19302320 297 18113901563686789852
19611394 137 18411135857100002508
3178227 256 18187086191508292086
397830 11 18413674608010728541
44426699 60 18202275893723595268
44426701 97 17917709072281930076
4625314 4 18412546535277714645
9953998 17 18411135845111724205

> <PUBCHEM_SHAPE_MULTIPOLES>
805.19
35.33
4.78
1.47
31.73
0.54
1.02
-13.1
-14.73
-5.94
-1.48
1.2
0.55
2.95

> <PUBCHEM_SHAPE_SELFOVERLAP>
1695.909

> <PUBCHEM_SHAPE_VOLUME>
455.9

> <PUBCHEM_COORDINATE_TYPE>
2
5
10

$$$$

