17395966
  -OEChem-06241222533D

 51 55  0     0  0  0  0  0  0999 V2000
   -0.1644    1.3474    1.3825 O   0  0  0  0  0  0  0  0  0  0  0  0
   -0.9246   -2.7163   -0.6558 O   0  0  0  0  0  0  0  0  0  0  0  0
    1.7342   -2.6905    0.2266 O   0  0  0  0  0  0  0  0  0  0  0  0
    4.3565   -1.3468   -0.0732 O   0  0  0  0  0  0  0  0  0  0  0  0
   -0.9646   -0.5546    0.2856 N   0  0  0  0  0  0  0  0  0  0  0  0
    1.1645   -0.5337    0.9902 N   0  0  0  0  0  0  0  0  0  0  0  0
   -2.3207   -0.1190    0.0331 C   0  0  0  0  0  0  0  0  0  0  0  0
   -4.5485   -0.7610   -0.9839 C   0  0  0  0  0  0  0  0  0  0  0  0
   -3.7527    1.6282   -1.1071 C   0  0  0  0  0  0  0  0  0  0  0  0
   -4.4819    0.6541    1.1010 C   0  0  0  0  0  0  0  0  0  0  0  0
   -3.1063   -1.2218   -0.7110 C   0  0  0  0  0  0  0  0  0  0  0  0
   -2.3134    1.1584   -0.8341 C   0  0  0  0  0  0  0  0  0  0  0  0
   -3.0399    0.1876    1.3654 C   0  0  0  0  0  0  0  0  0  0  0  0
   -4.5174    0.5146   -1.8428 C   0  0  0  0  0  0  0  0  0  0  0  0
   -5.2428   -0.4541    0.3537 C   0  0  0  0  0  0  0  0  0  0  0  0
   -4.4511    1.9225    0.2315 C   0  0  0  0  0  0  0  0  0  0  0  0
   -0.0059    0.2162    0.9377 C   0  0  0  0  0  0  0  0  0  0  0  0
   -0.4464   -1.7635   -0.0778 C   0  0  0  0  0  0  0  0  0  0  0  0
    0.9890   -1.7492    0.3979 C   0  0  0  0  0  0  0  0  0  0  0  0
    2.4025   -0.0840    1.5927 C   0  0  0  0  0  0  0  0  0  0  0  0
    3.2604    0.6697    0.6181 C   0  0  0  0  0  0  0  0  0  0  0  0
    4.1982    0.0030   -0.1703 C   0  0  0  0  0  0  0  0  0  0  0  0
    3.1115    2.0521    0.5058 C   0  0  0  0  0  0  0  0  0  0  0  0
    4.9871    0.7185   -1.0710 C   0  0  0  0  0  0  0  0  0  0  0  0
    3.9005    2.7677   -0.3949 C   0  0  0  0  0  0  0  0  0  0  0  0
    4.8383    2.1010   -1.1833 C   0  0  0  0  0  0  0  0  0  0  0  0
    5.3379   -1.9463   -0.9166 C   0  0  0  0  0  0  0  0  0  0  0  0
   -5.0961   -1.5494   -1.5123 H   0  0  0  0  0  0  0  0  0  0  0  0
   -3.7361    2.5342   -1.7233 H   0  0  0  0  0  0  0  0  0  0  0  0
   -4.9820    0.8689    2.0519 H   0  0  0  0  0  0  0  0  0  0  0  0
   -2.6440   -1.4560   -1.6785 H   0  0  0  0  0  0  0  0  0  0  0  0
   -3.1579   -2.1436   -0.1174 H   0  0  0  0  0  0  0  0  0  0  0  0
   -1.7984    0.9671   -1.7850 H   0  0  0  0  0  0  0  0  0  0  0  0
   -1.7668    1.9759   -0.3509 H   0  0  0  0  0  0  0  0  0  0  0  0
   -2.5216    0.9653    1.9373 H   0  0  0  0  0  0  0  0  0  0  0  0
   -3.0493   -0.7057    2.0043 H   0  0  0  0  0  0  0  0  0  0  0  0
   -5.5409    0.8442   -2.0601 H   0  0  0  0  0  0  0  0  0  0  0  0
   -4.0388    0.3058   -2.8074 H   0  0  0  0  0  0  0  0  0  0  0  0
   -6.2787   -0.1413    0.1745 H   0  0  0  0  0  0  0  0  0  0  0  0
   -5.2862   -1.3602    0.9705 H   0  0  0  0  0  0  0  0  0  0  0  0
   -5.4732    2.2770    0.0504 H   0  0  0  0  0  0  0  0  0  0  0  0
   -3.9242    2.7264    0.7601 H   0  0  0  0  0  0  0  0  0  0  0  0
    2.1621    0.5586    2.4486 H   0  0  0  0  0  0  0  0  0  0  0  0
    2.9416   -0.9513    1.9917 H   0  0  0  0  0  0  0  0  0  0  0  0
    2.3873    2.5866    1.1144 H   0  0  0  0  0  0  0  0  0  0  0  0
    5.7350    0.2695   -1.7152 H   0  0  0  0  0  0  0  0  0  0  0  0
    3.7850    3.8441   -0.4820 H   0  0  0  0  0  0  0  0  0  0  0  0
    5.4521    2.6594   -1.8842 H   0  0  0  0  0  0  0  0  0  0  0  0
    5.0869   -1.8274   -1.9761 H   0  0  0  0  0  0  0  0  0  0  0  0
    6.3458   -1.5870   -0.6827 H   0  0  0  0  0  0  0  0  0  0  0  0
    5.3279   -3.0212   -0.7074 H   0  0  0  0  0  0  0  0  0  0  0  0
  1 17  2  0  0  0  0
  2 18  2  0  0  0  0
  3 19  2  0  0  0  0
  4 22  1  0  0  0  0
  4 27  1  0  0  0  0
  5  7  1  0  0  0  0
  5 17  1  0  0  0  0
  5 18  1  0  0  0  0
  6 17  1  0  0  0  0
  6 19  1  0  0  0  0
  6 20  1  0  0  0  0
  7 11  1  0  0  0  0
  7 12  1  0  0  0  0
  7 13  1  0  0  0  0
  8 11  1  0  0  0  0
  8 14  1  0  0  0  0
  8 15  1  0  0  0  0
  8 28  1  0  0  0  0
  9 12  1  0  0  0  0
  9 14  1  0  0  0  0
  9 16  1  0  0  0  0
  9 29  1  0  0  0  0
 10 13  1  0  0  0  0
 10 15  1  0  0  0  0
 10 16  1  0  0  0  0
 10 30  1  0  0  0  0
 11 31  1  0  0  0  0
 11 32  1  0  0  0  0
 12 33  1  0  0  0  0
 12 34  1  0  0  0  0
 13 35  1  0  0  0  0
 13 36  1  0  0  0  0
 14 37  1  0  0  0  0
 14 38  1  0  0  0  0
 15 39  1  0  0  0  0
 15 40  1  0  0  0  0
 16 41  1  0  0  0  0
 16 42  1  0  0  0  0
 18 19  1  0  0  0  0
 20 21  1  0  0  0  0
 20 43  1  0  0  0  0
 20 44  1  0  0  0  0
 21 22  1  0  0  0  0
 21 23  2  0  0  0  0
 22 24  2  0  0  0  0
 23 25  1  0  0  0  0
 23 45  1  0  0  0  0
 24 26  1  0  0  0  0
 24 46  1  0  0  0  0
 25 26  2  0  0  0  0
 25 47  1  0  0  0  0
 26 48  1  0  0  0  0
 27 49  1  0  0  0  0
 27 50  1  0  0  0  0
 27 51  1  0  0  0  0
M  END
> <PUBCHEM_COMPOUND_CID>
17395966

> <PUBCHEM_CONFORMER_RMSD>
0.8

> <PUBCHEM_CONFORMER_DIVERSEORDER>
1
2
26
22
28
8
21
25
29
16
20
17
24
14
27
13
7
10
11
23
5
9
12
4
15
6
3
19
18

> <PUBCHEM_MMFF94_PARTIAL_CHARGES>
22
1 -0.57
17 0.69
18 0.63
19 0.63
2 -0.57
20 0.44
21 -0.14
22 0.08
23 -0.15
24 -0.15
25 -0.15
26 -0.15
27 0.28
3 -0.57
4 -0.36
45 0.15
46 0.15
47 0.15
48 0.15
5 -0.42
6 -0.42
7 0.3

> <PUBCHEM_EFFECTIVE_ROTOR_COUNT>
5.6

> <PUBCHEM_PHARMACOPHORE_FEATURES>
10
1 1 acceptor
1 2 acceptor
1 3 acceptor
1 4 acceptor
5 5 6 17 18 19 rings
6 21 22 23 24 25 26 rings
6 7 8 10 11 13 15 rings
6 7 8 9 11 12 14 rings
6 7 9 10 12 13 16 rings
6 8 9 10 14 15 16 rings

> <PUBCHEM_HEAVY_ATOM_COUNT>
27

> <PUBCHEM_ATOM_DEF_STEREO_COUNT>
0

> <PUBCHEM_ATOM_UDEF_STEREO_COUNT>
0

> <PUBCHEM_BOND_DEF_STEREO_COUNT>
0

> <PUBCHEM_BOND_UDEF_STEREO_COUNT>
0

> <PUBCHEM_ISOTOPIC_ATOM_COUNT>
0

> <PUBCHEM_COMPONENT_COUNT>
1

> <PUBCHEM_CACTVS_TAUTO_COUNT>
1

> <PUBCHEM_CONFORMER_ID>
010970FE00000001

> <PUBCHEM_MMFF94_ENERGY>
75.3815

> <PUBCHEM_FEATURE_SELFOVERLAP>
63.282

> <PUBCHEM_SHAPE_FINGERPRINT>
10498660 4 18342466910638597740
10670039 82 18412825802478088260
11595378 159 14620520063888716748
11796584 16 4823213896648129309
12616971 3 18187361056007834979
12633257 1 13614241434801890044
12670546 177 18261112945829599718
12788726 201 17386550466806215312
13224815 77 18201725067560659561
13583140 156 17418104225397517363
14251751 18 4751150826458496044
14528608 73 18341899567096851149
14790565 3 18334850649902244137
14840074 17 18201716220165595541
14848178 5 6338959957644533228
14955137 171 18270384019807772801
15183329 4 18409163316750753116
15575132 122 18272939306442639797
17349148 13 17312816082996309058
17844677 252 18272366503179924677
1813 80 4823213935281775002
18186145 218 18261116253049603496
19862831 5 17385446526855640385
21033648 29 15626236722749321429
21033650 10 15792829231717140282
21709351 56 18338239365780992646
21756936 100 17344908517262400752
21857420 4 15220957638604829564
221357 26 18412263947814953092
23227448 37 18129661876847925246
23559900 14 18186239507673022434
2838139 119 17917435276917260116
3004659 81 18334009523944734646
340366 18 18409164416389397374
341906 21 15698002946063613124
34797466 226 18059571360894347773
392239 28 8862949355543886164
4280585 95 17466498328247721198
463206 1 16370723755747004678
474 4 17346318146507782236
497634 4 18335980883778962061
5281201 14 18412263956425674804
633830 44 18273501169246841986
8988823 20 9583518685783600898

> <PUBCHEM_SHAPE_MULTIPOLES>
522.21
12.7
2.62
1.4
2.98
0.23
0.01
-3.35
3.76
2.34
0.51
-0.51
-0.26
-0.19

> <PUBCHEM_SHAPE_SELFOVERLAP>
1162.361

> <PUBCHEM_SHAPE_VOLUME>
271.5

> <PUBCHEM_COORDINATE_TYPE>
2
5
10

$$$$

