14271
  -OEChem-06241222423D

 13 13  0     0  0  0  0  0  0999 V2000
   -1.0864    1.1368    0.0001 O   0  0  0  0  0  0  0  0  0  0  0  0
    3.3994    0.1316    0.0004 O   0  0  0  0  0  0  0  0  0  0  0  0
    2.1468   -0.4875    0.0000 N   0  0  0  0  0  0  0  0  0  0  0  0
   -0.2028    0.1046   -0.0001 C   0  0  0  0  0  0  0  0  0  0  0  0
   -0.8669   -1.0999   -0.0001 C   0  0  0  0  0  0  0  0  0  0  0  0
   -2.2474   -0.7877    0.0002 C   0  0  0  0  0  0  0  0  0  0  0  0
   -2.3284    0.5853    0.0001 C   0  0  0  0  0  0  0  0  0  0  0  0
    1.1856    0.4169   -0.0006 C   0  0  0  0  0  0  0  0  0  0  0  0
   -0.4189   -2.0835   -0.0003 H   0  0  0  0  0  0  0  0  0  0  0  0
   -3.0792   -1.4771    0.0002 H   0  0  0  0  0  0  0  0  0  0  0  0
   -3.1507    1.2858    0.0002 H   0  0  0  0  0  0  0  0  0  0  0  0
    1.4600    1.4875   -0.0006 H   0  0  0  0  0  0  0  0  0  0  0  0
    3.9963   -0.6357    0.0008 H   0  0  0  0  0  0  0  0  0  0  0  0
  1  4  1  0  0  0  0
  1  7  1  0  0  0  0
  2  3  1  0  0  0  0
  2 13  1  0  0  0  0
  3  8  2  0  0  0  0
  4  5  2  0  0  0  0
  4  8  1  0  0  0  0
  5  6  1  0  0  0  0
  5  9  1  0  0  0  0
  6  7  2  0  0  0  0
  6 10  1  0  0  0  0
  7 11  1  0  0  0  0
  8 12  1  0  0  0  0
M  END
> <PUBCHEM_COMPOUND_CID>
14271

> <PUBCHEM_CONFORMER_RMSD>
0.4

> <PUBCHEM_CONFORMER_DIVERSEORDER>
1

> <PUBCHEM_MMFF94_PARTIAL_CHARGES>
13
1 -0.28
10 0.15
11 0.15
12 0.06
13 0.4
2 -0.34
3 -0.51
4 0.05
5 -0.15
6 -0.15
7 -0.01
8 0.47
9 0.15

> <PUBCHEM_EFFECTIVE_ROTOR_COUNT>
1

> <PUBCHEM_PHARMACOPHORE_FEATURES>
4
1 1 acceptor
1 2 anion
1 3 acceptor
5 1 4 5 6 7 rings

> <PUBCHEM_HEAVY_ATOM_COUNT>
8

> <PUBCHEM_ATOM_DEF_STEREO_COUNT>
0

> <PUBCHEM_ATOM_UDEF_STEREO_COUNT>
0

> <PUBCHEM_BOND_DEF_STEREO_COUNT>
0

> <PUBCHEM_BOND_UDEF_STEREO_COUNT>
1

> <PUBCHEM_ISOTOPIC_ATOM_COUNT>
0

> <PUBCHEM_COMPONENT_COUNT>
1

> <PUBCHEM_CACTVS_TAUTO_COUNT>
2

> <PUBCHEM_CONFORMER_ID>
000037BF00000001

> <PUBCHEM_MMFF94_ENERGY>
3.7732

> <PUBCHEM_FEATURE_SELFOVERLAP>
20.297

> <PUBCHEM_SHAPE_FINGERPRINT>
10857977 72 18335994059931465826
14325111 11 18410575110575339970
14390081 3 18334017189812433696
16714656 1 18411699889585369671
20871998 184 18115020780102670207
21040471 1 18266458891944800837
23552423 10 18201157633292038134
29004967 10 16443059495628939022
369184 2 15213019362194160383
5460574 1 9295289439076185090

> <PUBCHEM_SHAPE_MULTIPOLES>
147.92
4.07
1.06
0.58
3.17
0.04
0
0.05
0
-0.48
0
-0.06
0.01
0

> <PUBCHEM_SHAPE_SELFOVERLAP>
303.034

> <PUBCHEM_SHAPE_VOLUME>
87.2

> <PUBCHEM_COORDINATE_TYPE>
2
5
10

$$$$

