7217
  -OEChem-06261201542D

 58 57  0     0  0  0  0  0  0999 V2000
    5.4641   -0.2500    0.0000 O   0  0  0  0  0  0  0  0  0  0  0  0
   13.2583    0.2500    0.0000 O   0  0  0  0  0  0  0  0  0  0  0  0
    8.0622    0.2500    0.0000 O   0  0  0  0  0  0  0  0  0  0  0  0
   10.6603   -0.2500    0.0000 O   0  0  0  0  0  0  0  0  0  0  0  0
    4.5981    1.2500    0.0000 O   0  0  0  0  0  0  0  0  0  0  0  0
   14.1244   -1.2500    0.0000 O   0  0  0  0  0  0  0  0  0  0  0  0
    3.7320   -0.2500    0.0000 C   0  0  0  0  0  0  0  0  0  0  0  0
   14.9904    0.2500    0.0000 C   0  0  0  0  0  0  0  0  0  0  0  0
    2.8660    0.2500    0.0000 C   0  0  0  0  0  0  0  0  0  0  0  0
    3.7320   -1.2500    0.0000 C   0  0  0  0  0  0  0  0  0  0  0  0
   15.8564   -0.2500    0.0000 C   0  0  0  0  0  0  0  0  0  0  0  0
   14.9904    1.2500    0.0000 C   0  0  0  0  0  0  0  0  0  0  0  0
    4.5981    0.2500    0.0000 C   0  0  0  0  0  0  0  0  0  0  0  0
   14.1244   -0.2500    0.0000 C   0  0  0  0  0  0  0  0  0  0  0  0
    2.0000   -0.2500    0.0000 C   0  0  0  0  0  0  0  0  0  0  0  0
    2.8660   -1.7500    0.0000 C   0  0  0  0  0  0  0  0  0  0  0  0
   16.7224    0.2500    0.0000 C   0  0  0  0  0  0  0  0  0  0  0  0
   15.8564    1.7500    0.0000 C   0  0  0  0  0  0  0  0  0  0  0  0
    6.3301    0.2500    0.0000 C   0  0  0  0  0  0  0  0  0  0  0  0
   12.3923   -0.2500    0.0000 C   0  0  0  0  0  0  0  0  0  0  0  0
    7.1962   -0.2500    0.0000 C   0  0  0  0  0  0  0  0  0  0  0  0
   11.5263    0.2500    0.0000 C   0  0  0  0  0  0  0  0  0  0  0  0
    8.9282   -0.2500    0.0000 C   0  0  0  0  0  0  0  0  0  0  0  0
    9.7942    0.2500    0.0000 C   0  0  0  0  0  0  0  0  0  0  0  0
    3.7320    0.3700    0.0000 H   0  0  0  0  0  0  0  0  0  0  0  0
   15.5273    0.5600    0.0000 H   0  0  0  0  0  0  0  0  0  0  0  0
   14.7783    1.8326    0.0000 H   0  0  0  0  0  0  0  0  0  0  0  0
   14.3798    1.1423    0.0000 H   0  0  0  0  0  0  0  0  0  0  0  0
   15.4579   -0.7249    0.0000 H   0  0  0  0  0  0  0  0  0  0  0  0
   16.2549   -0.7249    0.0000 H   0  0  0  0  0  0  0  0  0  0  0  0
    3.2646    0.7249    0.0000 H   0  0  0  0  0  0  0  0  0  0  0  0
    2.4675    0.7249    0.0000 H   0  0  0  0  0  0  0  0  0  0  0  0
    3.9441   -1.8326    0.0000 H   0  0  0  0  0  0  0  0  0  0  0  0
    4.3426   -1.1423    0.0000 H   0  0  0  0  0  0  0  0  0  0  0  0
    2.5560   -1.2131    0.0000 H   0  0  0  0  0  0  0  0  0  0  0  0
    1.6900    0.2869    0.0000 H   0  0  0  0  0  0  0  0  0  0  0  0
    1.4631   -0.5600    0.0000 H   0  0  0  0  0  0  0  0  0  0  0  0
    2.3100   -0.7869    0.0000 H   0  0  0  0  0  0  0  0  0  0  0  0
    2.3291   -2.0600    0.0000 H   0  0  0  0  0  0  0  0  0  0  0  0
    3.1760   -2.2869    0.0000 H   0  0  0  0  0  0  0  0  0  0  0  0
   17.0324   -0.2869    0.0000 H   0  0  0  0  0  0  0  0  0  0  0  0
   17.2594    0.5600    0.0000 H   0  0  0  0  0  0  0  0  0  0  0  0
   16.4124    0.7869    0.0000 H   0  0  0  0  0  0  0  0  0  0  0  0
   16.1664    1.2131    0.0000 H   0  0  0  0  0  0  0  0  0  0  0  0
   16.3933    2.0600    0.0000 H   0  0  0  0  0  0  0  0  0  0  0  0
   15.5464    2.2869    0.0000 H   0  0  0  0  0  0  0  0  0  0  0  0
   11.9938   -0.7249    0.0000 H   0  0  0  0  0  0  0  0  0  0  0  0
   12.7908   -0.7249    0.0000 H   0  0  0  0  0  0  0  0  0  0  0  0
    6.7287    0.7249    0.0000 H   0  0  0  0  0  0  0  0  0  0  0  0
    5.9316    0.7249    0.0000 H   0  0  0  0  0  0  0  0  0  0  0  0
   11.9248    0.7249    0.0000 H   0  0  0  0  0  0  0  0  0  0  0  0
   11.1278    0.7249    0.0000 H   0  0  0  0  0  0  0  0  0  0  0  0
    6.7976   -0.7249    0.0000 H   0  0  0  0  0  0  0  0  0  0  0  0
    7.5947   -0.7249    0.0000 H   0  0  0  0  0  0  0  0  0  0  0  0
    8.5297   -0.7249    0.0000 H   0  0  0  0  0  0  0  0  0  0  0  0
    9.3267   -0.7249    0.0000 H   0  0  0  0  0  0  0  0  0  0  0  0
   10.1928    0.7249    0.0000 H   0  0  0  0  0  0  0  0  0  0  0  0
    9.3957    0.7249    0.0000 H   0  0  0  0  0  0  0  0  0  0  0  0
  1 13  1  0  0  0  0
  1 19  1  0  0  0  0
  2 14  1  0  0  0  0
  2 20  1  0  0  0  0
  3 21  1  0  0  0  0
  3 23  1  0  0  0  0
  4 22  1  0  0  0  0
  4 24  1  0  0  0  0
  5 13  2  0  0  0  0
  6 14  2  0  0  0  0
  7  9  1  0  0  0  0
  7 10  1  0  0  0  0
  7 13  1  0  0  0  0
  7 25  1  0  0  0  0
  8 11  1  0  0  0  0
  8 12  1  0  0  0  0
  8 14  1  0  0  0  0
  8 26  1  0  0  0  0
  9 15  1  0  0  0  0
  9 31  1  0  0  0  0
  9 32  1  0  0  0  0
 10 16  1  0  0  0  0
 10 33  1  0  0  0  0
 10 34  1  0  0  0  0
 11 17  1  0  0  0  0
 11 29  1  0  0  0  0
 11 30  1  0  0  0  0
 12 18  1  0  0  0  0
 12 27  1  0  0  0  0
 12 28  1  0  0  0  0
 15 36  1  0  0  0  0
 15 37  1  0  0  0  0
 15 38  1  0  0  0  0
 16 35  1  0  0  0  0
 16 39  1  0  0  0  0
 16 40  1  0  0  0  0
 17 41  1  0  0  0  0
 17 42  1  0  0  0  0
 17 43  1  0  0  0  0
 18 44  1  0  0  0  0
 18 45  1  0  0  0  0
 18 46  1  0  0  0  0
 19 21  1  0  0  0  0
 19 49  1  0  0  0  0
 19 50  1  0  0  0  0
 20 22  1  0  0  0  0
 20 47  1  0  0  0  0
 20 48  1  0  0  0  0
 21 53  1  0  0  0  0
 21 54  1  0  0  0  0
 22 51  1  0  0  0  0
 22 52  1  0  0  0  0
 23 24  1  0  0  0  0
 23 55  1  0  0  0  0
 23 56  1  0  0  0  0
 24 57  1  0  0  0  0
 24 58  1  0  0  0  0
M  END
> <PUBCHEM_COMPOUND_CID>
7217

> <PUBCHEM_COMPOUND_CANONICALIZED>
1

> <PUBCHEM_CACTVS_COMPLEXITY>
292

> <PUBCHEM_CACTVS_HBOND_ACCEPTOR>
6

> <PUBCHEM_CACTVS_HBOND_DONOR>
0

> <PUBCHEM_CACTVS_ROTATABLE_BOND>
17

> <PUBCHEM_CACTVS_SUBSKEYS>
AAADcfB4OAAAAAAAAAAAAAAAAAAAAAAAAAAAAAAAAAAAAAAAAAAAGgAAAAAADQCggAICCAAABAAIAACQCAAAAAAAAAAAAAEAAAABABIAAAACAAAEAAACAAAAAAAKAAAAAAAAAAAAAAAAAAAAAAAAAAAAAA==

> <PUBCHEM_IUPAC_OPENEYE_NAME>
2-[2-[2-(2-ethylbutanoyloxy)ethoxy]ethoxy]ethyl 2-ethylbutanoate

> <PUBCHEM_IUPAC_CAS_NAME>
2-ethylbutanoic acid 2-[2-[2-(2-ethyl-1-oxobutoxy)ethoxy]ethoxy]ethyl ester

> <PUBCHEM_IUPAC_NAME>
2-[2-[2-(2-ethylbutanoyloxy)ethoxy]ethoxy]ethyl 2-ethylbutanoate

> <PUBCHEM_IUPAC_SYSTEMATIC_NAME>
2-[2-[2-(2-ethylbutanoyloxy)ethoxy]ethoxy]ethyl 2-ethylbutanoate

> <PUBCHEM_IUPAC_TRADITIONAL_NAME>
2-ethylbutyric acid 2-[2-[2-(2-ethylbutanoyloxy)ethoxy]ethoxy]ethyl ester

> <PUBCHEM_IUPAC_INCHI>
InChI=1S/C18H34O6/c1-5-15(6-2)17(19)23-13-11-21-9-10-22-12-14-24-18(20)16(7-3)8-4/h15-16H,5-14H2,1-4H3

> <PUBCHEM_IUPAC_INCHIKEY>
JEYLQCXBYFQJRO-UHFFFAOYSA-N

> <PUBCHEM_XLOGP3_AA>
3.2

> <PUBCHEM_EXACT_MASS>
346.235539

> <PUBCHEM_MOLECULAR_FORMULA>
C18H34O6

> <PUBCHEM_MOLECULAR_WEIGHT>
346.45896

> <PUBCHEM_OPENEYE_CAN_SMILES>
CCC(CC)C(=O)OCCOCCOCCOC(=O)C(CC)CC

> <PUBCHEM_OPENEYE_ISO_SMILES>
CCC(CC)C(=O)OCCOCCOCCOC(=O)C(CC)CC

> <PUBCHEM_CACTVS_TPSA>
71.1

> <PUBCHEM_MONOISOTOPIC_WEIGHT>
346.235539

> <PUBCHEM_TOTAL_CHARGE>
0

> <PUBCHEM_HEAVY_ATOM_COUNT>
24

> <PUBCHEM_ATOM_DEF_STEREO_COUNT>
0

> <PUBCHEM_ATOM_UDEF_STEREO_COUNT>
0

> <PUBCHEM_BOND_DEF_STEREO_COUNT>
0

> <PUBCHEM_BOND_UDEF_STEREO_COUNT>
0

> <PUBCHEM_ISOTOPIC_ATOM_COUNT>
0

> <PUBCHEM_COMPONENT_COUNT>
1

> <PUBCHEM_CACTVS_TAUTO_COUNT>
1

> <PUBCHEM_COORDINATE_TYPE>
1
5
255

$$$$

