9093
  -OEChem-06261203242D

 24 25  0     0  0  0  0  0  0999 V2000
    4.5878   -0.8090    0.0000 O   0  0  0  0  0  0  0  0  0  0  0  0
    4.5878    0.8090    0.0000 O   0  0  0  0  0  0  0  0  0  0  0  0
    4.0000    0.0000    0.0000 C   0  0  0  0  0  0  0  0  0  0  0  0
    3.5000   -0.8660    0.0000 C   0  0  0  0  0  0  0  0  0  0  0  0
    3.5000    0.8660    0.0000 C   0  0  0  0  0  0  0  0  0  0  0  0
    2.5000   -0.8660    0.0000 C   0  0  0  0  0  0  0  0  0  0  0  0
    2.5000    0.8660    0.0000 C   0  0  0  0  0  0  0  0  0  0  0  0
    2.0000    0.0000    0.0000 C   0  0  0  0  0  0  0  0  0  0  0  0
    5.5388   -0.5000    0.0000 C   0  0  0  0  0  0  0  0  0  0  0  0
    5.5388    0.5000    0.0000 C   0  0  0  0  0  0  0  0  0  0  0  0
    4.0826    1.0781    0.0000 H   0  0  0  0  0  0  0  0  0  0  0  0
    3.3923    1.4766    0.0000 H   0  0  0  0  0  0  0  0  0  0  0  0
    3.3923   -1.4766    0.0000 H   0  0  0  0  0  0  0  0  0  0  0  0
    4.0826   -1.0781    0.0000 H   0  0  0  0  0  0  0  0  0  0  0  0
    1.9174   -1.0781    0.0000 H   0  0  0  0  0  0  0  0  0  0  0  0
    2.6077   -1.4766    0.0000 H   0  0  0  0  0  0  0  0  0  0  0  0
    2.6077    1.4766    0.0000 H   0  0  0  0  0  0  0  0  0  0  0  0
    1.9174    1.0781    0.0000 H   0  0  0  0  0  0  0  0  0  0  0  0
    1.5250    0.3985    0.0000 H   0  0  0  0  0  0  0  0  0  0  0  0
    1.5250   -0.3985    0.0000 H   0  0  0  0  0  0  0  0  0  0  0  0
    6.1554    0.4352    0.0000 H   0  0  0  0  0  0  0  0  0  0  0  0
    5.6678    1.1064    0.0000 H   0  0  0  0  0  0  0  0  0  0  0  0
    5.6678   -1.1064    0.0000 H   0  0  0  0  0  0  0  0  0  0  0  0
    6.1554   -0.4352    0.0000 H   0  0  0  0  0  0  0  0  0  0  0  0
  1  3  1  0  0  0  0
  1  9  1  0  0  0  0
  2  3  1  0  0  0  0
  2 10  1  0  0  0  0
  3  4  1  0  0  0  0
  3  5  1  0  0  0  0
  4  6  1  0  0  0  0
  4 13  1  0  0  0  0
  4 14  1  0  0  0  0
  5  7  1  0  0  0  0
  5 11  1  0  0  0  0
  5 12  1  0  0  0  0
  6  8  1  0  0  0  0
  6 15  1  0  0  0  0
  6 16  1  0  0  0  0
  7  8  1  0  0  0  0
  7 17  1  0  0  0  0
  7 18  1  0  0  0  0
  8 19  1  0  0  0  0
  8 20  1  0  0  0  0
  9 10  1  0  0  0  0
  9 23  1  0  0  0  0
  9 24  1  0  0  0  0
 10 21  1  0  0  0  0
 10 22  1  0  0  0  0
M  END
> <PUBCHEM_COMPOUND_CID>
9093

> <PUBCHEM_COMPOUND_CANONICALIZED>
1

> <PUBCHEM_CACTVS_COMPLEXITY>
108

> <PUBCHEM_CACTVS_HBOND_ACCEPTOR>
2

> <PUBCHEM_CACTVS_HBOND_DONOR>
0

> <PUBCHEM_CACTVS_ROTATABLE_BOND>
0

> <PUBCHEM_CACTVS_SUBSKEYS>
AAADccBwMAAAAAAAAAAAAAAAAAAAASAAAAAwAAAAAAAAAAAAAAAAGgAAAAAACASggAIACAAABAAAAAAAAAAAAAAAAAAAAAAAAAARAAIAAAAiAAAEAAAGAAGAQAAAAAAAAAAAAAAAAAAAAAAAAAAAAAAAAA==

> <PUBCHEM_IUPAC_OPENEYE_NAME>
1,4-dioxaspiro[4.5]decane

> <PUBCHEM_IUPAC_CAS_NAME>
1,4-dioxaspiro[4.5]decane

> <PUBCHEM_IUPAC_NAME>
1,4-dioxaspiro[4.5]decane

> <PUBCHEM_IUPAC_SYSTEMATIC_NAME>
1,4-dioxaspiro[4.5]decane

> <PUBCHEM_IUPAC_TRADITIONAL_NAME>
1,4-dioxaspiro[4.5]decane

> <PUBCHEM_IUPAC_INCHI>
InChI=1S/C8H14O2/c1-2-4-8(5-3-1)9-6-7-10-8/h1-7H2

> <PUBCHEM_IUPAC_INCHIKEY>
GZGPRZYZKBQPBQ-UHFFFAOYSA-N

> <PUBCHEM_XLOGP3_AA>
1.4

> <PUBCHEM_EXACT_MASS>
142.09938

> <PUBCHEM_MOLECULAR_FORMULA>
C8H14O2

> <PUBCHEM_MOLECULAR_WEIGHT>
142.19556

> <PUBCHEM_OPENEYE_CAN_SMILES>
C1CCC2(CC1)OCCO2

> <PUBCHEM_OPENEYE_ISO_SMILES>
C1CCC2(CC1)OCCO2

> <PUBCHEM_CACTVS_TPSA>
18.5

> <PUBCHEM_MONOISOTOPIC_WEIGHT>
142.09938

> <PUBCHEM_TOTAL_CHARGE>
0

> <PUBCHEM_HEAVY_ATOM_COUNT>
10

> <PUBCHEM_ATOM_DEF_STEREO_COUNT>
0

> <PUBCHEM_ATOM_UDEF_STEREO_COUNT>
0

> <PUBCHEM_BOND_DEF_STEREO_COUNT>
0

> <PUBCHEM_BOND_UDEF_STEREO_COUNT>
0

> <PUBCHEM_ISOTOPIC_ATOM_COUNT>
0

> <PUBCHEM_COMPONENT_COUNT>
1

> <PUBCHEM_CACTVS_TAUTO_COUNT>
1

> <PUBCHEM_COORDINATE_TYPE>
1
5
255

$$$$

