11845
  -OEChem-06261206113D

 12 12  0     0  0  0  0  0  0999 V2000
    0.0002   -2.8002    0.0001 I   0  0  0  0  0  0  0  0  0  0  0  0
   -3.1375   -0.8226   -0.0005 I   0  0  0  0  0  0  0  0  0  0  0  0
    3.1374   -0.8223   -0.0001 I   0  0  0  0  0  0  0  0  0  0  0  0
    0.0000   -0.6541    0.0002 C   0  0  0  0  0  0  0  0  0  0  0  0
   -1.2080    0.0435    0.0005 C   0  0  0  0  0  0  0  0  0  0  0  0
    1.2081    0.0433   -0.0001 C   0  0  0  0  0  0  0  0  0  0  0  0
   -1.2080    1.4383    0.0002 C   0  0  0  0  0  0  0  0  0  0  0  0
    1.2080    1.4383   -0.0002 C   0  0  0  0  0  0  0  0  0  0  0  0
   -0.0001    2.1357   -0.0001 C   0  0  0  0  0  0  0  0  0  0  0  0
   -2.1317    2.0121    0.0002 H   0  0  0  0  0  0  0  0  0  0  0  0
    2.1316    2.0120   -0.0004 H   0  0  0  0  0  0  0  0  0  0  0  0
   -0.0001    3.2218   -0.0003 H   0  0  0  0  0  0  0  0  0  0  0  0
  1  4  1  0  0  0  0
  2  5  1  0  0  0  0
  3  6  1  0  0  0  0
  4  5  2  0  0  0  0
  4  6  1  0  0  0  0
  5  7  1  0  0  0  0
  6  8  2  0  0  0  0
  7  9  2  0  0  0  0
  7 10  1  0  0  0  0
  8  9  1  0  0  0  0
  8 11  1  0  0  0  0
  9 12  1  0  0  0  0
M  END
> <PUBCHEM_COMPOUND_CID>
11845

> <PUBCHEM_CONFORMER_RMSD>
0.4

> <PUBCHEM_CONFORMER_DIVERSEORDER>
1

> <PUBCHEM_MMFF94_PARTIAL_CHARGES>
12
1 -0.08
10 0.15
11 0.15
12 0.15
2 -0.08
3 -0.08
4 0.08
5 0.08
6 0.08
7 -0.15
8 -0.15
9 -0.15

> <PUBCHEM_EFFECTIVE_ROTOR_COUNT>
0

> <PUBCHEM_PHARMACOPHORE_FEATURES>
4
1 1 hydrophobe
1 2 hydrophobe
1 3 hydrophobe
6 4 5 6 7 8 9 rings

> <PUBCHEM_HEAVY_ATOM_COUNT>
9

> <PUBCHEM_ATOM_DEF_STEREO_COUNT>
0

> <PUBCHEM_ATOM_UDEF_STEREO_COUNT>
0

> <PUBCHEM_BOND_DEF_STEREO_COUNT>
0

> <PUBCHEM_BOND_UDEF_STEREO_COUNT>
0

> <PUBCHEM_ISOTOPIC_ATOM_COUNT>
0

> <PUBCHEM_COMPONENT_COUNT>
1

> <PUBCHEM_CACTVS_TAUTO_COUNT>
1

> <PUBCHEM_CONFORMER_ID>
00002E4500000001

> <PUBCHEM_MMFF94_ENERGY>
27.8927

> <PUBCHEM_FEATURE_SELFOVERLAP>
20.297

> <PUBCHEM_SHAPE_FINGERPRINT>
12032990 46 18410569591400251619
12423570 1 5761651486023017970
15219459 52 18268427932243701719
16945 1 18410855464423284999
193761 8 17762338419552054247
20645477 70 18268156366574642743
20871998 184 18261397809804727014
20871998 22 18262225724680275463
21040471 1 17906453217007438753
23402539 116 18335150799296576486
23526114 1 18339928100077981783
23552423 10 17765425844108433086
241688 4 18410292544534719544
2748010 2 18411992350888294813
43471831 8 18197500842729670546
5084963 1 18186519907984853410
66348 1 18411419522483783890

> <PUBCHEM_SHAPE_MULTIPOLES>
221.02
4.15
2.86
0.71
0
0.76
0
1.27
0
0
0
0
0.12
0

> <PUBCHEM_SHAPE_SELFOVERLAP>
389.775

> <PUBCHEM_SHAPE_VOLUME>
152.8

> <PUBCHEM_COORDINATE_TYPE>
2
5
10

$$$$

