582800
  -OEChem-06241222443D

 39 41  0     0  0  0  0  0  0999 V2000
   -3.2997   -0.6742    2.0924 F   0  0  0  0  0  0  0  0  0  0  0  0
   -0.6826   -1.3834   -0.6540 O   0  0  0  0  0  0  0  0  0  0  0  0
   -3.3931    2.4150    0.2340 O   0  0  0  0  0  0  0  0  0  0  0  0
    1.1450    2.8048    0.5340 O   0  0  0  0  0  0  0  0  0  0  0  0
   -2.1123    0.4706   -0.1654 N   0  0  0  0  0  0  0  0  0  0  0  0
   -1.1286    2.5889    0.2698 N   0  0  0  0  0  0  0  0  0  0  0  0
    2.6291    0.4358    0.5503 N   0  0  0  0  0  0  0  0  0  0  0  0
   -3.3005   -0.3501   -0.2605 C   0  0  0  0  0  0  0  0  0  0  0  0
   -0.8151   -0.0627   -0.2488 C   0  0  0  0  0  0  0  0  0  0  0  0
    0.2905    0.6693   -0.0311 C   0  0  0  0  0  0  0  0  0  0  0  0
   -2.3023    1.8536    0.0971 C   0  0  0  0  0  0  0  0  0  0  0  0
    0.1644    2.1090    0.2855 C   0  0  0  0  0  0  0  0  0  0  0  0
   -3.8513   -0.8954    0.8907 C   0  0  0  0  0  0  0  0  0  0  0  0
   -3.8718   -0.5792   -1.5043 C   0  0  0  0  0  0  0  0  0  0  0  0
    1.6162    0.0391   -0.1435 C   0  0  0  0  0  0  0  0  0  0  0  0
    3.8282   -0.2643    0.3333 C   0  0  0  0  0  0  0  0  0  0  0  0
    4.7261    0.1540   -0.6449 C   0  0  0  0  0  0  0  0  0  0  0  0
   -4.9967   -1.6859    0.7960 C   0  0  0  0  0  0  0  0  0  0  0  0
   -5.0172   -1.3697   -1.5990 C   0  0  0  0  0  0  0  0  0  0  0  0
   -5.5796   -1.9230   -0.4488 C   0  0  0  0  0  0  0  0  0  0  0  0
    4.1070   -1.3845    1.1119 C   0  0  0  0  0  0  0  0  0  0  0  0
    5.9115   -0.5531   -0.8464 C   0  0  0  0  0  0  0  0  0  0  0  0
    4.4453    1.3531   -1.4903 C   0  0  0  0  0  0  0  0  0  0  0  0
    5.2924   -2.0916    0.9105 C   0  0  0  0  0  0  0  0  0  0  0  0
    6.1947   -1.6759   -0.0686 C   0  0  0  0  0  0  0  0  0  0  0  0
   -1.2451    3.5789    0.4679 H   0  0  0  0  0  0  0  0  0  0  0  0
   -3.4404   -0.1515   -2.4053 H   0  0  0  0  0  0  0  0  0  0  0  0
    1.7108   -0.8010   -0.8553 H   0  0  0  0  0  0  0  0  0  0  0  0
   -5.4345   -2.1165    1.6918 H   0  0  0  0  0  0  0  0  0  0  0  0
   -5.4711   -1.5542   -2.5683 H   0  0  0  0  0  0  0  0  0  0  0  0
   -6.4714   -2.5385   -0.5224 H   0  0  0  0  0  0  0  0  0  0  0  0
    3.4107   -1.7160    1.8776 H   0  0  0  0  0  0  0  0  0  0  0  0
    6.6247   -0.2436   -1.6058 H   0  0  0  0  0  0  0  0  0  0  0  0
    4.2000    2.2185   -0.8656 H   0  0  0  0  0  0  0  0  0  0  0  0
    5.3121    1.6332   -2.0988 H   0  0  0  0  0  0  0  0  0  0  0  0
    3.6124    1.1520   -2.1717 H   0  0  0  0  0  0  0  0  0  0  0  0
    0.1081   -1.7727   -0.2476 H   0  0  0  0  0  0  0  0  0  0  0  0
    5.5130   -2.9657    1.5161 H   0  0  0  0  0  0  0  0  0  0  0  0
    7.1175   -2.2267   -0.2254 H   0  0  0  0  0  0  0  0  0  0  0  0
  1 13  1  0  0  0  0
  2  9  1  0  0  0  0
  2 37  1  0  0  0  0
  3 11  2  0  0  0  0
  4 12  2  0  0  0  0
  5  8  1  0  0  0  0
  5  9  1  0  0  0  0
  5 11  1  0  0  0  0
  6 11  1  0  0  0  0
  6 12  1  0  0  0  0
  6 26  1  0  0  0  0
  7 15  2  0  0  0  0
  7 16  1  0  0  0  0
  8 13  1  0  0  0  0
  8 14  2  0  0  0  0
  9 10  2  0  0  0  0
 10 12  1  0  0  0  0
 10 15  1  0  0  0  0
 13 18  2  0  0  0  0
 14 19  1  0  0  0  0
 14 27  1  0  0  0  0
 15 28  1  0  0  0  0
 16 17  1  0  0  0  0
 16 21  2  0  0  0  0
 17 22  2  0  0  0  0
 17 23  1  0  0  0  0
 18 20  1  0  0  0  0
 18 29  1  0  0  0  0
 19 20  2  0  0  0  0
 19 30  1  0  0  0  0
 20 31  1  0  0  0  0
 21 24  1  0  0  0  0
 21 32  1  0  0  0  0
 22 25  1  0  0  0  0
 22 33  1  0  0  0  0
 23 34  1  0  0  0  0
 23 35  1  0  0  0  0
 23 36  1  0  0  0  0
 24 25  2  0  0  0  0
 24 38  1  0  0  0  0
 25 39  1  0  0  0  0
M  END
> <PUBCHEM_COMPOUND_CID>
582800

> <PUBCHEM_CONFORMER_RMSD>
0.6

> <PUBCHEM_CONFORMER_DIVERSEORDER>
1
26
22
6
34
24
2
32
23
30
5
7
17
8
36
9
12
14
25
28
19
3
13
31
16
27
4
15
20
10
33
18
11
29
21
35

> <PUBCHEM_MMFF94_PARTIAL_CHARGES>
36
1 -0.19
10 0.03
11 0.69
12 0.62
13 0.19
14 -0.15
15 0.38
16 0.18
17 -0.14
18 -0.15
19 -0.15
2 -0.53
20 -0.15
21 -0.15
22 -0.15
23 0.14
24 -0.15
25 -0.15
26 0.37
27 0.15
28 0.06
29 0.15
3 -0.57
30 0.15
31 0.15
32 0.15
33 0.15
37 0.45
38 0.15
39 0.15
4 -0.57
5 -0.29
6 -0.49
7 -0.63
8 0.12
9 0.19

> <PUBCHEM_EFFECTIVE_ROTOR_COUNT>
3

> <PUBCHEM_PHARMACOPHORE_FEATURES>
8
1 2 donor
1 3 acceptor
1 4 acceptor
1 6 donor
1 7 acceptor
6 16 17 21 22 24 25 rings
6 5 6 9 10 11 12 rings
6 8 13 14 18 19 20 rings

> <PUBCHEM_HEAVY_ATOM_COUNT>
25

> <PUBCHEM_ATOM_DEF_STEREO_COUNT>
0

> <PUBCHEM_ATOM_UDEF_STEREO_COUNT>
0

> <PUBCHEM_BOND_DEF_STEREO_COUNT>
0

> <PUBCHEM_BOND_UDEF_STEREO_COUNT>
0

> <PUBCHEM_ISOTOPIC_ATOM_COUNT>
0

> <PUBCHEM_COMPONENT_COUNT>
1

> <PUBCHEM_CACTVS_TAUTO_COUNT>
11

> <PUBCHEM_CONFORMER_ID>
0008E49000000001

> <PUBCHEM_MMFF94_ENERGY>
93.871

> <PUBCHEM_FEATURE_SELFOVERLAP>
40.598

> <PUBCHEM_SHAPE_FINGERPRINT>
10 15 7420944309475175239
10319926 262 14996550768840526483
10595046 47 18342734135778762732
10622 236 18057056911273353298
11545043 162 17895202146580269928
12166972 35 18060699472551034398
12236239 1 18272085037584238252
12422481 6 16950558870227685719
12516196 113 18335423443783258802
12553582 1 18335710411944234102
12760667 363 18410293614155753259
13533116 47 18341891849452050980
13544653 18 18412825780675476348
13675066 3 13767921321534837600
13782708 43 17386564795349864670
13862211 1 18261397719515721759
14347332 77 18410014346654927053
15183329 4 16486986110635428063
15188451 53 16733275551758965271
15250474 111 18130516339512949538
15348495 7 14057007083363223782
17349148 13 17821723888771803999
17844677 252 18333168371394696992
17857418 61 18409171012926296662
1813 80 18114454587448829868
18222031 100 18114186302252907340
18681886 176 18410294727575383410
18927931 339 18334856143086138647
19319366 153 18200317620164335306
19784866 34 10015593813174280873
20028762 73 17749677276992269703
21236236 1 18409166645086799513
21267235 1 18408880737714408510
21756936 100 13182744792635621191
22061861 79 17775008981192424526
22950370 63 18410006628714604032
23402539 116 18335142015739900191
23522609 53 18119496947784866801
23559900 14 17774443763785946821
25147074 1 18337092502519359225
2767999 5 10592047946674859438
2838139 119 12535354480156624238
3004659 81 18059861671019953074
312425 54 15574708084507437631
314194 84 18410854322136252594
329604 57 18342453734047815422
335352 9 18408609184660914557
34797466 226 16630241403219093007
351380 3 18334296448380518718
4015057 19 17775273942225688240
465052 167 18262233322398359422
497634 4 17989487441667639517
5104073 3 18260833726212198200
7495541 125 18113904870954097440
7970288 3 18335990770209011559
8863177 126 18127125265369834579

> <PUBCHEM_SHAPE_MULTIPOLES>
474.66
14.97
2.59
1.28
8.14
1.36
-0.07
-10.6
-2.08
-0.55
0.44
-0.58
-0.33
-1.23

> <PUBCHEM_SHAPE_SELFOVERLAP>
1038.577

> <PUBCHEM_SHAPE_VOLUME>
256.6

> <PUBCHEM_COORDINATE_TYPE>
2
5
10

$$$$

