12811
  -OEChem-06261207243D

 20 20  0     0  0  0  0  0  0999 V2000
   -2.4618   -1.5842    0.3916 S   0  0  0  0  0  0  0  0  0  0  0  0
    0.6405    1.8560    0.0718 O   0  0  0  0  0  0  0  0  0  0  0  0
    2.5760   -0.4053   -1.4067 O   0  0  0  0  0  0  0  0  0  0  0  0
   -0.1809   -0.3009    0.5355 N   0  0  0  0  0  0  0  0  0  0  0  0
   -2.1132    0.8888   -0.2759 N   0  0  0  0  0  0  0  0  0  0  0  0
    2.1478    0.2018    0.8859 C   0  0  0  0  0  0  0  0  0  0  0  0
    0.7798    0.6981    0.4560 C   0  0  0  0  0  0  0  0  0  0  0  0
    2.9982   -0.3150   -0.2549 C   0  0  0  0  0  0  0  0  0  0  0  0
   -1.5275   -0.1743    0.1834 C   0  0  0  0  0  0  0  0  0  0  0  0
    4.4015   -0.7351    0.0957 C   0  0  0  0  0  0  0  0  0  0  0  0
   -3.8186   -0.7107   -0.1892 C   0  0  0  0  0  0  0  0  0  0  0  0
   -3.4418    0.5807   -0.4933 C   0  0  0  0  0  0  0  0  0  0  0  0
    2.0442   -0.5951    1.6303 H   0  0  0  0  0  0  0  0  0  0  0  0
    2.6725    1.0385    1.3606 H   0  0  0  0  0  0  0  0  0  0  0  0
    0.0867   -1.2229    0.8696 H   0  0  0  0  0  0  0  0  0  0  0  0
    4.9459    0.1166    0.5109 H   0  0  0  0  0  0  0  0  0  0  0  0
    4.9191   -1.0800   -0.8037 H   0  0  0  0  0  0  0  0  0  0  0  0
    4.3686   -1.5522    0.8205 H   0  0  0  0  0  0  0  0  0  0  0  0
   -4.7938   -1.1675   -0.2785 H   0  0  0  0  0  0  0  0  0  0  0  0
   -4.1037    1.3441   -0.8795 H   0  0  0  0  0  0  0  0  0  0  0  0
  1  9  1  0  0  0  0
  1 11  1  0  0  0  0
  2  7  2  0  0  0  0
  3  8  2  0  0  0  0
  4  7  1  0  0  0  0
  4  9  1  0  0  0  0
  4 15  1  0  0  0  0
  5  9  2  0  0  0  0
  5 12  1  0  0  0  0
  6  7  1  0  0  0  0
  6  8  1  0  0  0  0
  6 13  1  0  0  0  0
  6 14  1  0  0  0  0
  8 10  1  0  0  0  0
 10 16  1  0  0  0  0
 10 17  1  0  0  0  0
 10 18  1  0  0  0  0
 11 12  2  0  0  0  0
 11 19  1  0  0  0  0
 12 20  1  0  0  0  0
M  END
> <PUBCHEM_COMPOUND_CID>
12811

> <PUBCHEM_CONFORMER_RMSD>
0.6

> <PUBCHEM_CONFORMER_DIVERSEORDER>
1
35
19
39
37
22
3
32
10
15
33
38
11
36
7
8
16
21
34
17
23
25
12
9
27
31
18
28
2
24
13
4
14
29
20
30
26
6
5

> <PUBCHEM_MMFF94_PARTIAL_CHARGES>
15
1 -0.08
10 0.06
11 -0.11
12 0.08
15 0.37
19 0.15
2 -0.57
20 0.15
3 -0.57
4 -0.49
5 -0.57
6 0.12
7 0.57
8 0.45
9 0.44

> <PUBCHEM_EFFECTIVE_ROTOR_COUNT>
4

> <PUBCHEM_PHARMACOPHORE_FEATURES>
5
1 2 acceptor
1 3 acceptor
1 4 donor
1 6 anion
5 1 5 9 11 12 rings

> <PUBCHEM_HEAVY_ATOM_COUNT>
12

> <PUBCHEM_ATOM_DEF_STEREO_COUNT>
0

> <PUBCHEM_ATOM_UDEF_STEREO_COUNT>
0

> <PUBCHEM_BOND_DEF_STEREO_COUNT>
0

> <PUBCHEM_BOND_UDEF_STEREO_COUNT>
0

> <PUBCHEM_ISOTOPIC_ATOM_COUNT>
0

> <PUBCHEM_COMPONENT_COUNT>
1

> <PUBCHEM_CACTVS_TAUTO_COUNT>
13

> <PUBCHEM_CONFORMER_ID>
0000320B00000001

> <PUBCHEM_MMFF94_ENERGY>
12.7545

> <PUBCHEM_FEATURE_SELFOVERLAP>
25.371

> <PUBCHEM_SHAPE_FINGERPRINT>
10465860 250 18410018753697346656
10465860 71 18341880896937280212
10751810 167 18060134340738525115
11062470 55 4751155220257278387
12032990 46 18339923719322259051
12251169 10 5039954052431461234
12932764 1 17560815303081521033
13296908 3 18335141959936960848
14252887 29 17240477022840916350
14911166 2 18342747325264385717
14993402 34 16486978375568061551
18186145 218 14549014369143266974
190213 19 16845854585332568123
1986462 14 18341896286074178743
20201158 50 18259701215886462614
20279233 1 18113899359767283894
20281407 28 18187361052003082738
20645476 183 17060340708288889547
20645477 70 17821731641192944366
20671657 53 18334290972487068472
20711983 171 16629975437495765279
21119208 17 16917067776179074670
22485316 2 18410296917238688050
23402539 116 18339652225369490028
23402655 69 15913334614767290070
23559900 14 18412548726196020626
581208 293 16805042921829161030
7364860 26 18118405038190870584
81228 2 17971177356282896536
93112 12 18271808986439098215

> <PUBCHEM_SHAPE_MULTIPOLES>
229.1
7.6
1.33
0.88
2.24
0.1
-0.12
-2.12
-1.12
-0.53
0.08
0.41
-0.05
0.4

> <PUBCHEM_SHAPE_SELFOVERLAP>
451.487

> <PUBCHEM_SHAPE_VOLUME>
137.6

> <PUBCHEM_COORDINATE_TYPE>
2
5
10

$$$$

