17396632
  -OEChem-06241222573D

 36 37  0     0  0  0  0  0  0999 V2000
    6.0189    2.7950    0.8953 Cl  0  0  0  0  0  0  0  0  0  0  0  0
    0.3907   -0.6521   -2.0245 O   0  0  0  0  0  0  0  0  0  0  0  0
   -6.0130    0.7608    0.9454 O   0  0  0  0  0  0  0  0  0  0  0  0
    1.2080   -1.7329   -0.1429 N   0  0  0  0  0  0  0  0  0  0  0  0
   -4.1096    1.1375   -0.3940 N   0  0  0  0  0  0  0  0  0  0  0  0
    2.5651   -1.8883   -0.6151 C   0  0  0  0  0  0  0  0  0  0  0  0
    3.4285   -0.7192   -0.2383 C   0  0  0  0  0  0  0  0  0  0  0  0
   -1.1143   -1.0153   -0.2634 C   0  0  0  0  0  0  0  0  0  0  0  0
    0.1952   -1.1169   -0.8875 C   0  0  0  0  0  0  0  0  0  0  0  0
   -3.2398    0.1090   -0.0299 C   0  0  0  0  0  0  0  0  0  0  0  0
   -1.9838    0.0123   -0.6287 C   0  0  0  0  0  0  0  0  0  0  0  0
   -1.5007   -1.9463    0.7008 C   0  0  0  0  0  0  0  0  0  0  0  0
    3.5319    0.3765   -1.0955 C   0  0  0  0  0  0  0  0  0  0  0  0
    4.1258   -0.7279    0.9697 C   0  0  0  0  0  0  0  0  0  0  0  0
   -3.6263   -0.8218    0.9344 C   0  0  0  0  0  0  0  0  0  0  0  0
   -2.7567   -1.8494    1.2998 C   0  0  0  0  0  0  0  0  0  0  0  0
    4.3326    1.4633   -0.7447 C   0  0  0  0  0  0  0  0  0  0  0  0
    4.9266    0.3589    1.3205 C   0  0  0  0  0  0  0  0  0  0  0  0
    5.0300    1.4545    0.4634 C   0  0  0  0  0  0  0  0  0  0  0  0
   -5.3978    1.3945    0.0940 C   0  0  0  0  0  0  0  0  0  0  0  0
   -6.0112    2.6077   -0.5588 C   0  0  0  0  0  0  0  0  0  0  0  0
    2.9604   -2.8140   -0.1818 H   0  0  0  0  0  0  0  0  0  0  0  0
    2.5595   -2.0235   -1.7031 H   0  0  0  0  0  0  0  0  0  0  0  0
    1.0289   -2.0298    0.8104 H   0  0  0  0  0  0  0  0  0  0  0  0
   -1.6864    0.7443   -1.3766 H   0  0  0  0  0  0  0  0  0  0  0  0
   -0.8682   -2.7796    0.9921 H   0  0  0  0  0  0  0  0  0  0  0  0
    2.9973    0.3960   -2.0411 H   0  0  0  0  0  0  0  0  0  0  0  0
    4.0516   -1.5747    1.6468 H   0  0  0  0  0  0  0  0  0  0  0  0
   -4.5816   -0.8136    1.4402 H   0  0  0  0  0  0  0  0  0  0  0  0
   -3.0598   -2.5790    2.0453 H   0  0  0  0  0  0  0  0  0  0  0  0
    4.4045    2.3098   -1.4228 H   0  0  0  0  0  0  0  0  0  0  0  0
    5.4640    0.3385    2.2651 H   0  0  0  0  0  0  0  0  0  0  0  0
   -3.7551    1.7755   -1.1034 H   0  0  0  0  0  0  0  0  0  0  0  0
   -7.0238    2.7625   -0.1760 H   0  0  0  0  0  0  0  0  0  0  0  0
   -5.4075    3.4919   -0.3360 H   0  0  0  0  0  0  0  0  0  0  0  0
   -6.0604    2.4617   -1.6416 H   0  0  0  0  0  0  0  0  0  0  0  0
  1 19  1  0  0  0  0
  2  9  2  0  0  0  0
  3 20  2  0  0  0  0
  4  6  1  0  0  0  0
  4  9  1  0  0  0  0
  4 24  1  0  0  0  0
  5 10  1  0  0  0  0
  5 20  1  0  0  0  0
  5 33  1  0  0  0  0
  6  7  1  0  0  0  0
  6 22  1  0  0  0  0
  6 23  1  0  0  0  0
  7 13  2  0  0  0  0
  7 14  1  0  0  0  0
  8  9  1  0  0  0  0
  8 11  2  0  0  0  0
  8 12  1  0  0  0  0
 10 11  1  0  0  0  0
 10 15  2  0  0  0  0
 11 25  1  0  0  0  0
 12 16  2  0  0  0  0
 12 26  1  0  0  0  0
 13 17  1  0  0  0  0
 13 27  1  0  0  0  0
 14 18  2  0  0  0  0
 14 28  1  0  0  0  0
 15 16  1  0  0  0  0
 15 29  1  0  0  0  0
 16 30  1  0  0  0  0
 17 19  2  0  0  0  0
 17 31  1  0  0  0  0
 18 19  1  0  0  0  0
 18 32  1  0  0  0  0
 20 21  1  0  0  0  0
 21 34  1  0  0  0  0
 21 35  1  0  0  0  0
 21 36  1  0  0  0  0
M  END
> <PUBCHEM_COMPOUND_CID>
17396632

> <PUBCHEM_CONFORMER_RMSD>
0.8

> <PUBCHEM_CONFORMER_DIVERSEORDER>
3
21
38
14
16
43
10
2
30
20
22
18
36
32
37
5
27
12
29
46
24
4
17
26
40
33
23
15
35
6
44
47
28
31
25
42
39
1
9
19
45
8
34
11
41
7
13

> <PUBCHEM_MMFF94_PARTIAL_CHARGES>
31
1 -0.18
10 0.12
11 -0.15
12 -0.15
13 -0.15
14 -0.15
15 -0.15
16 -0.15
17 -0.15
18 -0.15
19 0.18
2 -0.57
20 0.57
21 0.06
24 0.37
25 0.15
26 0.15
27 0.15
28 0.15
29 0.15
3 -0.57
30 0.15
31 0.15
32 0.15
33 0.37
4 -0.73
5 -0.55
6 0.44
7 -0.14
8 0.09
9 0.54

> <PUBCHEM_EFFECTIVE_ROTOR_COUNT>
6

> <PUBCHEM_PHARMACOPHORE_FEATURES>
6
1 2 acceptor
1 3 acceptor
1 4 donor
1 5 donor
6 7 13 14 17 18 19 rings
6 8 10 11 12 15 16 rings

> <PUBCHEM_HEAVY_ATOM_COUNT>
21

> <PUBCHEM_ATOM_DEF_STEREO_COUNT>
0

> <PUBCHEM_ATOM_UDEF_STEREO_COUNT>
0

> <PUBCHEM_BOND_DEF_STEREO_COUNT>
0

> <PUBCHEM_BOND_UDEF_STEREO_COUNT>
0

> <PUBCHEM_ISOTOPIC_ATOM_COUNT>
0

> <PUBCHEM_COMPONENT_COUNT>
1

> <PUBCHEM_CACTVS_TAUTO_COUNT>
4

> <PUBCHEM_CONFORMER_ID>
0109739800000003

> <PUBCHEM_MMFF94_ENERGY>
55.2941

> <PUBCHEM_FEATURE_SELFOVERLAP>
30.446

> <PUBCHEM_SHAPE_FINGERPRINT>
10319926 262 18060135440688386418
10498660 4 17095523959617785402
10692045 39 18058452186722129531
10730089 43 18410008828033317276
11128504 68 14490191613337512146
12403259 118 18199187295976298252
12633257 1 17346599630100723492
13955234 65 18267300030893519259
14123256 34 11095890393013028696
1420 369 12535631578703798920
14216079 64 9511451226828584969
14251751 18 9583527507794158800
14251764 30 10303805497596814813
14251764 38 18116991298070787153
14341114 328 17346035555219187764
14528608 73 16153712045981301137
14951699 99 18201995500282447884
15238133 3 18201996591599526420
17980427 23 18272087159029285159
1813 80 14333125286667950054
193927 3 12391525195569551186
20567600 234 18343297051029365877
20715895 44 18341053029053703161
21033648 29 18412255125677560466
212916 134 17988921202022840371
21475661 188 18409172073804259480
21637258 2 12463564063634302177
21641784 216 15357979031688780435
21859007 373 16700348631576118103
22849339 104 14346093979347221853
22950370 63 9223226369182172071
23503953 91 17632573838319892222
23559900 14 18200014266080933006
270888 7 18188778232698321792
2748736 6 18337961185509123097
2838139 119 18260839231996274061
2916195 48 18340768230336385553
3089732 80 9439396943535403809
312425 54 17418381285548683754
33382 64 10519695713632548197
3472631 163 17894916183400054324
34797466 226 17749101197655256407
3680242 22 18059291079702586049
465052 167 10952042381592981328
5104073 3 18060138730195264754
53917941 68 18130515210606203487
5718773 13 9583254829243364256
7808743 9 18046067060914978960
7970288 3 10951779585751359472
960060 61 6411295745625605546

> <PUBCHEM_SHAPE_MULTIPOLES>
412.34
15.54
2.62
1.31
3.35
1.08
0.1
14.31
-4.03
0.17
-0.27
-0.54
-0.18
1.57

> <PUBCHEM_SHAPE_SELFOVERLAP>
865.404

> <PUBCHEM_SHAPE_VOLUME>
232.7

> <PUBCHEM_COORDINATE_TYPE>
2
5
10

$$$$

