13338
  -OEChem-06261209073D

 47 49  0     1  0  0  0  0  0999 V2000
    0.3249    1.0433   -0.2833 O   0  0  0  0  0  0  0  0  0  0  0  0
    2.0691    3.1604    0.3926 N   0  0  0  0  0  0  0  0  0  0  0  0
   -0.5423    0.3385   -1.1646 C   0  0  1  0  0  0  0  0  0  0  0  0
    0.0882   -0.9491   -1.7296 C   0  0  0  0  0  0  0  0  0  0  0  0
   -1.9052    0.1423   -0.5268 C   0  0  0  0  0  0  0  0  0  0  0  0
   -1.0232   -1.2130    1.4719 C   0  0  0  0  0  0  0  0  0  0  0  0
    1.1707   -1.5926   -0.8925 C   0  0  0  0  0  0  0  0  0  0  0  0
   -2.1278   -0.5592    0.6754 C   0  0  0  0  0  0  0  0  0  0  0  0
   -0.5044   -2.4932    0.8121 C   0  0  0  0  0  0  0  0  0  0  0  0
    0.8970   -2.3203    0.2797 C   0  0  0  0  0  0  0  0  0  0  0  0
   -3.0165    0.6987   -1.1954 C   0  0  0  0  0  0  0  0  0  0  0  0
   -3.4446   -0.6831    1.1645 C   0  0  0  0  0  0  0  0  0  0  0  0
    2.5088   -1.4509   -1.3076 C   0  0  0  0  0  0  0  0  0  0  0  0
   -0.2013    2.3191    0.0335 C   0  0  0  0  0  0  0  0  0  0  0  0
    1.9641   -2.8834    1.0043 C   0  0  0  0  0  0  0  0  0  0  0  0
    0.7510    3.0161    0.9921 C   0  0  0  0  0  0  0  0  0  0  0  0
   -4.3114    0.5696   -0.6944 C   0  0  0  0  0  0  0  0  0  0  0  0
   -4.5258   -0.1230    0.4878 C   0  0  0  0  0  0  0  0  0  0  0  0
    3.5549   -2.0178   -0.5808 C   0  0  0  0  0  0  0  0  0  0  0  0
    3.2821   -2.7354    0.5763 C   0  0  0  0  0  0  0  0  0  0  0  0
    2.9987    3.7941    1.3310 C   0  0  0  0  0  0  0  0  0  0  0  0
    1.9929    3.9388   -0.8461 C   0  0  0  0  0  0  0  0  0  0  0  0
   -0.6809    0.9826   -2.0457 H   0  0  0  0  0  0  0  0  0  0  0  0
    0.5369   -0.6887   -2.6994 H   0  0  0  0  0  0  0  0  0  0  0  0
   -0.6774   -1.6921   -1.9877 H   0  0  0  0  0  0  0  0  0  0  0  0
   -0.2288   -0.4865    1.6785 H   0  0  0  0  0  0  0  0  0  0  0  0
   -1.4152   -1.4782    2.4633 H   0  0  0  0  0  0  0  0  0  0  0  0
   -1.1640   -2.8593    0.0158 H   0  0  0  0  0  0  0  0  0  0  0  0
   -0.4993   -3.2936    1.5643 H   0  0  0  0  0  0  0  0  0  0  0  0
   -2.8797    1.2451   -2.1266 H   0  0  0  0  0  0  0  0  0  0  0  0
   -3.6377   -1.2270    2.0869 H   0  0  0  0  0  0  0  0  0  0  0  0
    2.7476   -0.8889   -2.2080 H   0  0  0  0  0  0  0  0  0  0  0  0
   -0.3993    2.9075   -0.8692 H   0  0  0  0  0  0  0  0  0  0  0  0
   -1.1516    2.2286    0.5713 H   0  0  0  0  0  0  0  0  0  0  0  0
    1.7727   -3.4419    1.9180 H   0  0  0  0  0  0  0  0  0  0  0  0
    0.3316    3.9857    1.2891 H   0  0  0  0  0  0  0  0  0  0  0  0
    0.8385    2.4008    1.8968 H   0  0  0  0  0  0  0  0  0  0  0  0
   -5.1480    1.0085   -1.2298 H   0  0  0  0  0  0  0  0  0  0  0  0
   -5.5311   -0.2306    0.8837 H   0  0  0  0  0  0  0  0  0  0  0  0
    4.5798   -1.8962   -0.9183 H   0  0  0  0  0  0  0  0  0  0  0  0
    4.0927   -3.1768    1.1483 H   0  0  0  0  0  0  0  0  0  0  0  0
    3.0838    3.2003    2.2480 H   0  0  0  0  0  0  0  0  0  0  0  0
    2.6836    4.8079    1.6036 H   0  0  0  0  0  0  0  0  0  0  0  0
    4.0046    3.8482    0.9000 H   0  0  0  0  0  0  0  0  0  0  0  0
    1.5154    3.3764   -1.6542 H   0  0  0  0  0  0  0  0  0  0  0  0
    3.0006    4.1633   -1.2168 H   0  0  0  0  0  0  0  0  0  0  0  0
    1.4692    4.8921   -0.7097 H   0  0  0  0  0  0  0  0  0  0  0  0
  1  3  1  0  0  0  0
  1 14  1  0  0  0  0
  2 16  1  0  0  0  0
  2 21  1  0  0  0  0
  2 22  1  0  0  0  0
  3  4  1  0  0  0  0
  3  5  1  0  0  0  0
  3 23  1  0  0  0  0
  4  7  1  0  0  0  0
  4 24  1  0  0  0  0
  4 25  1  0  0  0  0
  5  8  1  0  0  0  0
  5 11  2  0  0  0  0
  6  8  1  0  0  0  0
  6  9  1  0  0  0  0
  6 26  1  0  0  0  0
  6 27  1  0  0  0  0
  7 10  1  0  0  0  0
  7 13  2  0  0  0  0
  8 12  2  0  0  0  0
  9 10  1  0  0  0  0
  9 28  1  0  0  0  0
  9 29  1  0  0  0  0
 10 15  2  0  0  0  0
 11 17  1  0  0  0  0
 11 30  1  0  0  0  0
 12 18  1  0  0  0  0
 12 31  1  0  0  0  0
 13 19  1  0  0  0  0
 13 32  1  0  0  0  0
 14 16  1  0  0  0  0
 14 33  1  0  0  0  0
 14 34  1  0  0  0  0
 15 20  1  0  0  0  0
 15 35  1  0  0  0  0
 16 36  1  0  0  0  0
 16 37  1  0  0  0  0
 17 18  2  0  0  0  0
 17 38  1  0  0  0  0
 18 39  1  0  0  0  0
 19 20  2  0  0  0  0
 19 40  1  0  0  0  0
 20 41  1  0  0  0  0
 21 42  1  0  0  0  0
 21 43  1  0  0  0  0
 21 44  1  0  0  0  0
 22 45  1  0  0  0  0
 22 46  1  0  0  0  0
 22 47  1  0  0  0  0
M  END
> <PUBCHEM_COMPOUND_CID>
13338

> <PUBCHEM_CONFORMER_RMSD>
0.8

> <PUBCHEM_CONFORMER_DIVERSEORDER>
13
11
34
19
23
32
29
12
9
24
16
18
30
31
10
8
33
2
20
5
15
3
28
35
14
26
4
7
25
21
1
22
6
27
17

> <PUBCHEM_MMFF94_PARTIAL_CHARGES>
30
1 -0.56
10 -0.14
11 -0.15
12 -0.15
13 -0.15
14 0.28
15 -0.15
16 0.27
17 -0.15
18 -0.15
19 -0.15
2 -0.81
20 -0.15
21 0.27
22 0.27
3 0.42
30 0.15
31 0.15
32 0.15
35 0.15
38 0.15
39 0.15
4 0.14
40 0.15
41 0.15
5 -0.14
6 0.14
7 -0.14
8 -0.14
9 0.14

> <PUBCHEM_EFFECTIVE_ROTOR_COUNT>
4.8

> <PUBCHEM_PHARMACOPHORE_FEATURES>
4
1 1 acceptor
1 2 cation
6 5 8 11 12 17 18 rings
6 7 10 13 15 19 20 rings

> <PUBCHEM_HEAVY_ATOM_COUNT>
22

> <PUBCHEM_ATOM_DEF_STEREO_COUNT>
0

> <PUBCHEM_ATOM_UDEF_STEREO_COUNT>
1

> <PUBCHEM_BOND_DEF_STEREO_COUNT>
0

> <PUBCHEM_BOND_UDEF_STEREO_COUNT>
0

> <PUBCHEM_ISOTOPIC_ATOM_COUNT>
0

> <PUBCHEM_COMPONENT_COUNT>
1

> <PUBCHEM_CACTVS_TAUTO_COUNT>
1

> <PUBCHEM_CONFORMER_ID>
0000341A0000000D

> <PUBCHEM_MMFF94_ENERGY>
76.1931

> <PUBCHEM_FEATURE_SELFOVERLAP>
20.297

> <PUBCHEM_SHAPE_FINGERPRINT>
108231 29 18341886458725093631
12592029 89 18118686517657233585
12788726 201 17619346949486757744
13134695 92 18338802337346576127
13140716 1 18120659033180925096
133893 2 18119562914144530405
13681431 1 18261390091500628069
14787075 74 18271231764478644982
15230672 131 17982724174939540548
17980427 23 17677611046128069041
1813 80 17896319288959371855
18785283 64 18270677563141301929
200 152 18057320802274178031
20510252 161 17984414410849848250
21524375 3 17828482466668006885
21731228 192 17905328429323254025
22182313 1 17917149378451132443
23419403 2 18200332011892447461
23557571 272 17758684729433315143
23558518 356 17832147121542957966
23559900 14 17989481935340295823
23728640 28 17473281876634818032
3187 122 17977974567488749368
3298306 158 18266177236426911908
35225 105 17035273788922044520
3610482 184 16971335444548849230
392239 28 18269275823745477866
5265222 85 17766545864759611476
532947 4 18410299073022217720
5895379 119 16809229986783558305
81228 2 17541929227789759197
9981440 41 14901647414473248247

> <PUBCHEM_SHAPE_MULTIPOLES>
441.9
6.31
4.93
1.51
4.56
6
0.11
-1.52
-0.17
-6.86
-1.56
-0.06
-0.05
1.03

> <PUBCHEM_SHAPE_SELFOVERLAP>
935.188

> <PUBCHEM_SHAPE_VOLUME>
246.9

> <PUBCHEM_COORDINATE_TYPE>
2
5
10

$$$$

