17395699
  -OEChem-06241222512D

 38 39  0     0  0  0  0  0  0999 V2000
    5.4641    1.5761    0.0000 S   0  0  0  0  0  0  0  0  0  0  0  0
    6.2731    3.1639    0.0000 S   0  0  0  0  0  0  0  0  0  0  0  0
    5.4641   -4.4239    0.0000 O   0  0  0  0  0  0  0  0  0  0  0  0
    5.4641   -0.4239    0.0000 O   0  0  0  0  0  0  0  0  0  0  0  0
    6.3301   -2.9239    0.0000 O   0  0  0  0  0  0  0  0  0  0  0  0
    3.7320   -0.4239    0.0000 N   0  0  0  0  0  0  0  0  0  0  0  0
    4.6551    3.1639    0.0000 N   0  0  0  0  0  0  0  0  0  0  0  0
    3.7320   -1.4239    0.0000 C   0  0  0  0  0  0  0  0  0  0  0  0
    2.8660   -1.9239    0.0000 C   0  0  0  0  0  0  0  0  0  0  0  0
    4.5981   -1.9239    0.0000 C   0  0  0  0  0  0  0  0  0  0  0  0
    4.5981   -2.9239    0.0000 C   0  0  0  0  0  0  0  0  0  0  0  0
    2.8660   -2.9239    0.0000 C   0  0  0  0  0  0  0  0  0  0  0  0
    3.7320   -3.4239    0.0000 C   0  0  0  0  0  0  0  0  0  0  0  0
    2.0000   -1.4239    0.0000 C   0  0  0  0  0  0  0  0  0  0  0  0
    4.5981    0.0761    0.0000 C   0  0  0  0  0  0  0  0  0  0  0  0
    4.5981    1.0761    0.0000 C   0  0  0  0  0  0  0  0  0  0  0  0
    5.4641   -3.4239    0.0000 C   0  0  0  0  0  0  0  0  0  0  0  0
    5.4641    2.5761    0.0000 C   0  0  0  0  0  0  0  0  0  0  0  0
    4.9641    4.1149    0.0000 C   0  0  0  0  0  0  0  0  0  0  0  0
    5.9641    4.1149    0.0000 C   0  0  0  0  0  0  0  0  0  0  0  0
    4.3763    4.9239    0.0000 C   0  0  0  0  0  0  0  0  0  0  0  0
    6.3301   -4.9239    0.0000 C   0  0  0  0  0  0  0  0  0  0  0  0
    5.1350   -1.6139    0.0000 H   0  0  0  0  0  0  0  0  0  0  0  0
    2.3291   -3.2339    0.0000 H   0  0  0  0  0  0  0  0  0  0  0  0
    3.1951   -0.1139    0.0000 H   0  0  0  0  0  0  0  0  0  0  0  0
    3.7320   -4.0439    0.0000 H   0  0  0  0  0  0  0  0  0  0  0  0
    2.3100   -0.8870    0.0000 H   0  0  0  0  0  0  0  0  0  0  0  0
    1.4631   -1.1139    0.0000 H   0  0  0  0  0  0  0  0  0  0  0  0
    1.6900   -1.9609    0.0000 H   0  0  0  0  0  0  0  0  0  0  0  0
    4.3860    1.6587    0.0000 H   0  0  0  0  0  0  0  0  0  0  0  0
    3.9875    0.9684    0.0000 H   0  0  0  0  0  0  0  0  0  0  0  0
    6.3285    4.6165    0.0000 H   0  0  0  0  0  0  0  0  0  0  0  0
    4.8779    5.2884    0.0000 H   0  0  0  0  0  0  0  0  0  0  0  0
    4.0119    5.4255    0.0000 H   0  0  0  0  0  0  0  0  0  0  0  0
    3.8747    4.5595    0.0000 H   0  0  0  0  0  0  0  0  0  0  0  0
    6.0201   -5.4609    0.0000 H   0  0  0  0  0  0  0  0  0  0  0  0
    6.8671   -5.2339    0.0000 H   0  0  0  0  0  0  0  0  0  0  0  0
    6.6401   -4.3870    0.0000 H   0  0  0  0  0  0  0  0  0  0  0  0
  1 16  1  0  0  0  0
  1 18  1  0  0  0  0
  2 18  1  0  0  0  0
  2 20  1  0  0  0  0
  3 17  1  0  0  0  0
  3 22  1  0  0  0  0
  4 15  2  0  0  0  0
  5 17  2  0  0  0  0
  6  8  1  0  0  0  0
  6 15  1  0  0  0  0
  6 25  1  0  0  0  0
  7 18  2  0  0  0  0
  7 19  1  0  0  0  0
  8  9  2  0  0  0  0
  8 10  1  0  0  0  0
  9 12  1  0  0  0  0
  9 14  1  0  0  0  0
 10 11  2  0  0  0  0
 10 23  1  0  0  0  0
 11 13  1  0  0  0  0
 11 17  1  0  0  0  0
 12 13  2  0  0  0  0
 12 24  1  0  0  0  0
 13 26  1  0  0  0  0
 14 27  1  0  0  0  0
 14 28  1  0  0  0  0
 14 29  1  0  0  0  0
 15 16  1  0  0  0  0
 16 30  1  0  0  0  0
 16 31  1  0  0  0  0
 19 20  2  0  0  0  0
 19 21  1  0  0  0  0
 20 32  1  0  0  0  0
 21 33  1  0  0  0  0
 21 34  1  0  0  0  0
 21 35  1  0  0  0  0
 22 36  1  0  0  0  0
 22 37  1  0  0  0  0
 22 38  1  0  0  0  0
M  END
> <PUBCHEM_COMPOUND_CID>
17395699

> <PUBCHEM_COMPOUND_CANONICALIZED>
1

> <PUBCHEM_CACTVS_COMPLEXITY>
408

> <PUBCHEM_CACTVS_HBOND_ACCEPTOR>
6

> <PUBCHEM_CACTVS_HBOND_DONOR>
1

> <PUBCHEM_CACTVS_ROTATABLE_BOND>
6

> <PUBCHEM_CACTVS_SUBSKEYS>
AAADceBzMABgAAAAAAAAAAAAAAAAAWAAAAAwAAAAAAAAAAABwAAAHgQQAAAADAiF3gKyyZLIFAisAyXyXACC8aBlCjgIiBUQbMgIJjLgtZmEMQhk1AHI6Ye8yDCOQAAAQAACAACAAACAAAQAAAAAAAAAAA==

> <PUBCHEM_IUPAC_OPENEYE_NAME>
methyl 4-methyl-3-[[2-(4-methylthiazol-2-yl)sulfanylacetyl]amino]benzoate

> <PUBCHEM_IUPAC_CAS_NAME>
4-methyl-3-[[2-[(4-methyl-2-thiazolyl)thio]-1-oxoethyl]amino]benzoic acid methyl ester

> <PUBCHEM_IUPAC_NAME>
methyl 4-methyl-3-[[2-[(4-methyl-1,3-thiazol-2-yl)sulfanyl]acetyl]amino]benzoate

> <PUBCHEM_IUPAC_SYSTEMATIC_NAME>
methyl 4-methyl-3-[2-[(4-methyl-1,3-thiazol-2-yl)sulfanyl]ethanoylamino]benzoate

> <PUBCHEM_IUPAC_TRADITIONAL_NAME>
4-methyl-3-[[2-[(4-methylthiazol-2-yl)thio]acetyl]amino]benzoic acid methyl ester

> <PUBCHEM_IUPAC_INCHI>
InChI=1S/C15H16N2O3S2/c1-9-4-5-11(14(19)20-3)6-12(9)17-13(18)8-22-15-16-10(2)7-21-15/h4-7H,8H2,1-3H3,(H,17,18)

> <PUBCHEM_IUPAC_INCHIKEY>
JNUMQKBUZPMYNR-UHFFFAOYSA-N

> <PUBCHEM_XLOGP3_AA>
3.3

> <PUBCHEM_EXACT_MASS>
336.060234

> <PUBCHEM_MOLECULAR_FORMULA>
C15H16N2O3S2

> <PUBCHEM_MOLECULAR_WEIGHT>
336.42914

> <PUBCHEM_OPENEYE_CAN_SMILES>
CC1=C(C=C(C=C1)C(=O)OC)NC(=O)CSC2=NC(=CS2)C

> <PUBCHEM_OPENEYE_ISO_SMILES>
CC1=C(C=C(C=C1)C(=O)OC)NC(=O)CSC2=NC(=CS2)C

> <PUBCHEM_CACTVS_TPSA>
122

> <PUBCHEM_MONOISOTOPIC_WEIGHT>
336.060234

> <PUBCHEM_TOTAL_CHARGE>
0

> <PUBCHEM_HEAVY_ATOM_COUNT>
22

> <PUBCHEM_ATOM_DEF_STEREO_COUNT>
0

> <PUBCHEM_ATOM_UDEF_STEREO_COUNT>
0

> <PUBCHEM_BOND_DEF_STEREO_COUNT>
0

> <PUBCHEM_BOND_UDEF_STEREO_COUNT>
0

> <PUBCHEM_ISOTOPIC_ATOM_COUNT>
0

> <PUBCHEM_COMPONENT_COUNT>
1

> <PUBCHEM_CACTVS_TAUTO_COUNT>
9

> <PUBCHEM_COORDINATE_TYPE>
1
5
255

> <PUBCHEM_BONDANNOTATIONS>
10  11  8
11  13  8
12  13  8
19  20  8
2  18  8
2  20  8
7  18  8
7  19  8
8  10  8
8  9  8
9  12  8

$$$$

