582868
  -OEChem-06241222443D

 60 59  0     1  0  0  0  0  0999 V2000
    5.8315    1.5069   -0.1084 Si  0  0  0  0  0  0  0  0  0  0  0  0
    4.7602    0.2766   -0.4890 O   0  0  0  0  0  0  0  0  0  0  0  0
    4.5505   -0.7840    0.4404 C   0  0  1  0  0  0  0  0  0  0  0  0
    3.1569   -1.3895    0.2169 C   0  0  0  0  0  0  0  0  0  0  0  0
    1.9960   -0.3926    0.3253 C   0  0  0  0  0  0  0  0  0  0  0  0
    0.6505   -1.0921    0.1084 C   0  0  0  0  0  0  0  0  0  0  0  0
   -0.5543   -0.1542    0.2400 C   0  0  0  0  0  0  0  0  0  0  0  0
   -1.8979   -0.8613    0.0446 C   0  0  0  0  0  0  0  0  0  0  0  0
   -3.0990    0.0888    0.1039 C   0  0  0  0  0  0  0  0  0  0  0  0
    5.6887   -1.8063    0.3460 C   0  0  0  0  0  0  0  0  0  0  0  0
   -4.4789   -0.5691   -0.0004 C   0  0  0  0  0  0  0  0  0  0  0  0
   -5.6738    0.3888   -0.0085 C   0  0  0  0  0  0  0  0  0  0  0  0
   -7.0255   -0.3258   -0.0650 C   0  0  0  0  0  0  0  0  0  0  0  0
    5.6495    1.9646    1.7103 C   0  0  0  0  0  0  0  0  0  0  0  0
    5.4931    3.0483   -1.1321 C   0  0  0  0  0  0  0  0  0  0  0  0
    7.6123    0.9750   -0.3979 C   0  0  0  0  0  0  0  0  0  0  0  0
   -8.1812    0.6773   -0.0776 C   0  0  0  0  0  0  0  0  0  0  0  0
    5.7402   -2.4791   -1.0202 C   0  0  0  0  0  0  0  0  0  0  0  0
   -9.5345   -0.0330   -0.0949 C   0  0  0  0  0  0  0  0  0  0  0  0
  -10.6841    0.9607   -0.1421 C   0  0  0  0  0  0  0  0  0  0  0  0
    4.5359   -0.3976    1.4676 H   0  0  0  0  0  0  0  0  0  0  0  0
    3.1057   -1.8210   -0.7899 H   0  0  0  0  0  0  0  0  0  0  0  0
    3.0027   -2.2101    0.9284 H   0  0  0  0  0  0  0  0  0  0  0  0
    2.1141    0.4055   -0.4166 H   0  0  0  0  0  0  0  0  0  0  0  0
    2.0111    0.0784    1.3153 H   0  0  0  0  0  0  0  0  0  0  0  0
    0.6382   -1.5528   -0.8872 H   0  0  0  0  0  0  0  0  0  0  0  0
    0.5461   -1.9070    0.8356 H   0  0  0  0  0  0  0  0  0  0  0  0
   -0.5376    0.3191    1.2294 H   0  0  0  0  0  0  0  0  0  0  0  0
   -0.4602    0.6518   -0.4982 H   0  0  0  0  0  0  0  0  0  0  0  0
   -1.9010   -1.3772   -0.9233 H   0  0  0  0  0  0  0  0  0  0  0  0
   -2.0122   -1.6333    0.8153 H   0  0  0  0  0  0  0  0  0  0  0  0
   -3.0565    0.6534    1.0439 H   0  0  0  0  0  0  0  0  0  0  0  0
   -3.0008    0.8261   -0.7029 H   0  0  0  0  0  0  0  0  0  0  0  0
    5.5389   -2.5811    1.1081 H   0  0  0  0  0  0  0  0  0  0  0  0
    6.6599   -1.3587    0.5587 H   0  0  0  0  0  0  0  0  0  0  0  0
   -4.5091   -1.1734   -0.9158 H   0  0  0  0  0  0  0  0  0  0  0  0
   -4.5925   -1.2703    0.8360 H   0  0  0  0  0  0  0  0  0  0  0  0
   -5.5820    1.0644   -0.8678 H   0  0  0  0  0  0  0  0  0  0  0  0
   -5.6328    1.0146    0.8917 H   0  0  0  0  0  0  0  0  0  0  0  0
   -7.0718   -0.9538   -0.9627 H   0  0  0  0  0  0  0  0  0  0  0  0
   -7.1230   -0.9910    0.8014 H   0  0  0  0  0  0  0  0  0  0  0  0
    6.0065    1.1592    2.3587 H   0  0  0  0  0  0  0  0  0  0  0  0
    6.2362    2.8607    1.9343 H   0  0  0  0  0  0  0  0  0  0  0  0
    4.6029    2.1720    1.9524 H   0  0  0  0  0  0  0  0  0  0  0  0
    5.6100    2.8334   -2.1982 H   0  0  0  0  0  0  0  0  0  0  0  0
    4.4726    3.4043   -0.9626 H   0  0  0  0  0  0  0  0  0  0  0  0
    6.1871    3.8502   -0.8637 H   0  0  0  0  0  0  0  0  0  0  0  0
    7.6992    0.4063   -1.3282 H   0  0  0  0  0  0  0  0  0  0  0  0
    8.2588    1.8547   -0.4756 H   0  0  0  0  0  0  0  0  0  0  0  0
    7.9898    0.3636    0.4255 H   0  0  0  0  0  0  0  0  0  0  0  0
   -8.1188    1.3234    0.8066 H   0  0  0  0  0  0  0  0  0  0  0  0
   -8.0936    1.3255   -0.9581 H   0  0  0  0  0  0  0  0  0  0  0  0
    4.8651   -3.1109   -1.1966 H   0  0  0  0  0  0  0  0  0  0  0  0
    5.8159   -1.7489   -1.8314 H   0  0  0  0  0  0  0  0  0  0  0  0
    6.6201   -3.1289   -1.0764 H   0  0  0  0  0  0  0  0  0  0  0  0
   -9.6369   -0.6613    0.7975 H   0  0  0  0  0  0  0  0  0  0  0  0
   -9.5967   -0.6947   -0.9667 H   0  0  0  0  0  0  0  0  0  0  0  0
  -10.6694    1.6193    0.7323 H   0  0  0  0  0  0  0  0  0  0  0  0
  -11.6423    0.4317   -0.1528 H   0  0  0  0  0  0  0  0  0  0  0  0
  -10.6293    1.5821   -1.0416 H   0  0  0  0  0  0  0  0  0  0  0  0
  1  2  1  0  0  0  0
  1 14  1  0  0  0  0
  1 15  1  0  0  0  0
  1 16  1  0  0  0  0
  2  3  1  0  0  0  0
  3  4  1  0  0  0  0
  3 10  1  0  0  0  0
  3 21  1  0  0  0  0
  4  5  1  0  0  0  0
  4 22  1  0  0  0  0
  4 23  1  0  0  0  0
  5  6  1  0  0  0  0
  5 24  1  0  0  0  0
  5 25  1  0  0  0  0
  6  7  1  0  0  0  0
  6 26  1  0  0  0  0
  6 27  1  0  0  0  0
  7  8  1  0  0  0  0
  7 28  1  0  0  0  0
  7 29  1  0  0  0  0
  8  9  1  0  0  0  0
  8 30  1  0  0  0  0
  8 31  1  0  0  0  0
  9 11  1  0  0  0  0
  9 32  1  0  0  0  0
  9 33  1  0  0  0  0
 10 18  1  0  0  0  0
 10 34  1  0  0  0  0
 10 35  1  0  0  0  0
 11 12  1  0  0  0  0
 11 36  1  0  0  0  0
 11 37  1  0  0  0  0
 12 13  1  0  0  0  0
 12 38  1  0  0  0  0
 12 39  1  0  0  0  0
 13 17  1  0  0  0  0
 13 40  1  0  0  0  0
 13 41  1  0  0  0  0
 14 42  1  0  0  0  0
 14 43  1  0  0  0  0
 14 44  1  0  0  0  0
 15 45  1  0  0  0  0
 15 46  1  0  0  0  0
 15 47  1  0  0  0  0
 16 48  1  0  0  0  0
 16 49  1  0  0  0  0
 16 50  1  0  0  0  0
 17 19  1  0  0  0  0
 17 51  1  0  0  0  0
 17 52  1  0  0  0  0
 18 53  1  0  0  0  0
 18 54  1  0  0  0  0
 18 55  1  0  0  0  0
 19 20  1  0  0  0  0
 19 56  1  0  0  0  0
 19 57  1  0  0  0  0
 20 58  1  0  0  0  0
 20 59  1  0  0  0  0
 20 60  1  0  0  0  0
M  END
> <PUBCHEM_COMPOUND_CID>
582868

> <PUBCHEM_CONFORMER_RMSD>
1.6

> <PUBCHEM_CONFORMER_DIVERSEORDER>
1
15
26
7
30
24
32
10
11
17
5
2
4
6
13
19
18
25
23
21
8
9
14
3
31
20
16
12
28
29
27
22
33

> <PUBCHEM_MMFF94_PARTIAL_CHARGES>
6
1 0.54
14 -0.08
15 -0.08
16 -0.08
2 -0.58
3 0.28

> <PUBCHEM_EFFECTIVE_ROTOR_COUNT>
14

> <PUBCHEM_PHARMACOPHORE_FEATURES>
2
1 18 hydrophobe
1 20 hydrophobe

> <PUBCHEM_HEAVY_ATOM_COUNT>
20

> <PUBCHEM_ATOM_DEF_STEREO_COUNT>
0

> <PUBCHEM_ATOM_UDEF_STEREO_COUNT>
1

> <PUBCHEM_BOND_DEF_STEREO_COUNT>
0

> <PUBCHEM_BOND_UDEF_STEREO_COUNT>
0

> <PUBCHEM_ISOTOPIC_ATOM_COUNT>
0

> <PUBCHEM_COMPONENT_COUNT>
1

> <PUBCHEM_CACTVS_TAUTO_COUNT>
1

> <PUBCHEM_CONFORMER_ID>
0008E4D400000001

> <PUBCHEM_MMFF94_ENERGY>
9.276

> <PUBCHEM_FEATURE_SELFOVERLAP>
10.149

> <PUBCHEM_SHAPE_FINGERPRINT>
10 15 17203611462722982305
11135609 127 18189057500151759936
11211813 74 18114467781831249009
11315181 36 18334292073232709107
11638347 137 15410621397241579912
12089408 11 18113620097911787183
125118 31 18341612637733662233
13533116 47 18333731347397516258
13617811 41 15068617180388297816
14251764 18 17966968336199416145
14251764 46 18408605889661472795
14428016 248 18186795895338785665
15183329 4 16949995924437264977
15510794 2 18273209794940681291
155225 1 18341894069771217044
15840311 113 18342454846228054783
16120349 18 18342178843372280525
1754908 1 16343698825589494873
195137 175 18113330926158737681
20157964 124 18412825790009449762
20281389 69 18131354128717900469
21150785 3 17312820468485043785
21360442 33 18190737733970499238
21792934 111 18336555983762399496
22224240 67 17561084705374979691
444735 82 18131628976407775317
67123 10 18412545406386851531
8209 1 18409731790311899531

> <PUBCHEM_SHAPE_MULTIPOLES>
423.93
34
2.31
0.94
92.64
0.47
-0.12
12.4
2.9
-6.87
0.46
-1.71
0.33
0.27

> <PUBCHEM_SHAPE_SELFOVERLAP>
753.837

> <PUBCHEM_SHAPE_VOLUME>
275.8

> <PUBCHEM_COORDINATE_TYPE>
2
5
10

$$$$

