17396591
  -OEChem-06241222573D

 38 40  0     0  0  0  0  0  0999 V2000
    7.8228    1.1083   -0.1266 S   0  0  0  0  0  0  0  0  0  0  0  0
    3.1254    0.0996   -0.1278 O   0  0  0  0  0  0  0  0  0  0  0  0
   -1.7197    1.5516   -0.9148 O   0  0  0  0  0  0  0  0  0  0  0  0
   -2.8605   -0.2388    0.0344 N   0  0  0  0  0  0  0  0  0  0  0  0
   -4.4147    1.4975   -0.3929 N   0  0  0  0  0  0  0  0  0  0  0  0
    5.6405    0.8466    1.2340 N   0  0  0  0  0  0  0  0  0  0  0  0
   -0.4912   -0.3872   -0.3893 C   0  0  0  0  0  0  0  0  0  0  0  0
    1.9160   -0.5163   -0.2307 C   0  0  0  0  0  0  0  0  0  0  0  0
    0.7480    0.2443   -0.2836 C   0  0  0  0  0  0  0  0  0  0  0  0
   -4.1903    0.2505    0.0787 C   0  0  0  0  0  0  0  0  0  0  0  0
   -5.1771   -0.5708    0.5999 C   0  0  0  0  0  0  0  0  0  0  0  0
   -1.7092    0.4055   -0.4443 C   0  0  0  0  0  0  0  0  0  0  0  0
   -0.5624   -1.7793   -0.4419 C   0  0  0  0  0  0  0  0  0  0  0  0
    1.8449   -1.9083   -0.2835 C   0  0  0  0  0  0  0  0  0  0  0  0
    4.2790   -0.7388   -0.0788 C   0  0  0  0  0  0  0  0  0  0  0  0
    0.6056   -2.5398   -0.3891 C   0  0  0  0  0  0  0  0  0  0  0  0
   -6.4778   -0.0809    0.6394 C   0  0  0  0  0  0  0  0  0  0  0  0
   -4.8916   -1.9421    1.1106 C   0  0  0  0  0  0  0  0  0  0  0  0
    5.5311    0.0494    0.1113 C   0  0  0  0  0  0  0  0  0  0  0  0
   -6.7482    1.1973    0.1634 C   0  0  0  0  0  0  0  0  0  0  0  0
   -5.6911    1.9396   -0.3382 C   0  0  0  0  0  0  0  0  0  0  0  0
    6.6133    0.0605   -0.7435 C   0  0  0  0  0  0  0  0  0  0  0  0
    6.8072    1.4519    1.2132 C   0  0  0  0  0  0  0  0  0  0  0  0
    0.8169    1.3285   -0.2377 H   0  0  0  0  0  0  0  0  0  0  0  0
   -1.4976   -2.3169   -0.5673 H   0  0  0  0  0  0  0  0  0  0  0  0
   -2.7384   -1.1569    0.4469 H   0  0  0  0  0  0  0  0  0  0  0  0
    2.7087   -2.5633   -0.2545 H   0  0  0  0  0  0  0  0  0  0  0  0
    4.3632   -1.3108   -1.0121 H   0  0  0  0  0  0  0  0  0  0  0  0
    4.2147   -1.4246    0.7765 H   0  0  0  0  0  0  0  0  0  0  0  0
    0.5505   -3.6234   -0.4412 H   0  0  0  0  0  0  0  0  0  0  0  0
   -7.2913   -0.6812    1.0376 H   0  0  0  0  0  0  0  0  0  0  0  0
   -4.4713   -2.5716    0.3192 H   0  0  0  0  0  0  0  0  0  0  0  0
   -4.1991   -1.9036    1.9580 H   0  0  0  0  0  0  0  0  0  0  0  0
   -5.8026   -2.4387    1.4633 H   0  0  0  0  0  0  0  0  0  0  0  0
   -7.7544    1.5999    0.1842 H   0  0  0  0  0  0  0  0  0  0  0  0
   -5.8491    2.9422   -0.7217 H   0  0  0  0  0  0  0  0  0  0  0  0
    6.7511   -0.4769   -1.6711 H   0  0  0  0  0  0  0  0  0  0  0  0
    7.1166    2.1313    1.9956 H   0  0  0  0  0  0  0  0  0  0  0  0
  1 22  1  0  0  0  0
  1 23  1  0  0  0  0
  2  8  1  0  0  0  0
  2 15  1  0  0  0  0
  3 12  2  0  0  0  0
  4 10  1  0  0  0  0
  4 12  1  0  0  0  0
  4 26  1  0  0  0  0
  5 10  1  0  0  0  0
  5 21  2  0  0  0  0
  6 19  1  0  0  0  0
  6 23  2  0  0  0  0
  7  9  2  0  0  0  0
  7 12  1  0  0  0  0
  7 13  1  0  0  0  0
  8  9  1  0  0  0  0
  8 14  2  0  0  0  0
  9 24  1  0  0  0  0
 10 11  2  0  0  0  0
 11 17  1  0  0  0  0
 11 18  1  0  0  0  0
 13 16  2  0  0  0  0
 13 25  1  0  0  0  0
 14 16  1  0  0  0  0
 14 27  1  0  0  0  0
 15 19  1  0  0  0  0
 15 28  1  0  0  0  0
 15 29  1  0  0  0  0
 16 30  1  0  0  0  0
 17 20  2  0  0  0  0
 17 31  1  0  0  0  0
 18 32  1  0  0  0  0
 18 33  1  0  0  0  0
 18 34  1  0  0  0  0
 19 22  2  0  0  0  0
 20 21  1  0  0  0  0
 20 35  1  0  0  0  0
 21 36  1  0  0  0  0
 22 37  1  0  0  0  0
 23 38  1  0  0  0  0
M  END
> <PUBCHEM_COMPOUND_CID>
17396591

> <PUBCHEM_CONFORMER_RMSD>
0.8

> <PUBCHEM_CONFORMER_DIVERSEORDER>
3
108
161
152
190
145
155
143
30
109
54
146
159
139
174
153
24
124
144
36
122
106
64
184
132
135
37
131
163
194
158
134
151
43
141
138
121
128
35
118
91
76
111
38
149
104
113
165
147
133
13
137
94
114
182
179
136
70
162
85
69
148
66
157
50
14
185
68
192
72
197
123
44
46
65
45
189
142
67
26
116
180
53
160
73
127
80
195
196
154
115
140
186
166
120
181
119
101
90
55
92
126
191
20
171
88
95
164
79
32
57
176
105
93
89
83
173
129
187
56
177
29
125
99
23
2
183
75
52
178
107
156
87
40
100
1
74
102
47
82
130
150
78
188
59
175
112
172
7
15
19
110
51
117
63
42
193
58
96
31
97
77
61
103
86
98
18
168
84
12
81
33
39
62
169
25
5
10
60
34
27
48
41
8
22
170
49
28
167
71
9
11
21
4
16
6
17

> <PUBCHEM_MMFF94_PARTIAL_CHARGES>
33
1 -0.08
10 0.43
11 -0.14
12 0.54
13 -0.15
14 -0.15
15 0.46
16 -0.15
17 -0.15
18 0.14
19 0.05
2 -0.36
20 -0.15
21 0.16
22 -0.11
23 0.23
24 0.15
25 0.15
26 0.37
27 0.15
3 -0.57
30 0.15
31 0.15
35 0.15
36 0.15
37 0.15
38 0.15
4 -0.55
5 -0.62
6 -0.57
7 0.09
8 0.08
9 -0.15

> <PUBCHEM_EFFECTIVE_ROTOR_COUNT>
6

> <PUBCHEM_PHARMACOPHORE_FEATURES>
8
1 2 acceptor
1 3 acceptor
1 4 donor
1 5 acceptor
1 6 acceptor
5 1 6 19 22 23 rings
6 5 10 11 17 20 21 rings
6 7 8 9 13 14 16 rings

> <PUBCHEM_HEAVY_ATOM_COUNT>
23

> <PUBCHEM_ATOM_DEF_STEREO_COUNT>
0

> <PUBCHEM_ATOM_UDEF_STEREO_COUNT>
0

> <PUBCHEM_BOND_DEF_STEREO_COUNT>
0

> <PUBCHEM_BOND_UDEF_STEREO_COUNT>
0

> <PUBCHEM_ISOTOPIC_ATOM_COUNT>
0

> <PUBCHEM_COMPONENT_COUNT>
1

> <PUBCHEM_CACTVS_TAUTO_COUNT>
3

> <PUBCHEM_CONFORMER_ID>
0109736F00000003

> <PUBCHEM_MMFF94_ENERGY>
66.4899

> <PUBCHEM_FEATURE_SELFOVERLAP>
40.601

> <PUBCHEM_SHAPE_FINGERPRINT>
10 15 18341895186272420330
10638233 991 15936412230073472048
106641 1 18131067104221411361
10670039 82 5400808233098519019
10835480 77 18340772662801118853
11315181 36 18186800284584176881
11646440 116 18113894945068697544
12596602 18 17989211460297095784
12670543 26 7853580110333479274
12730499 353 18186796998686568062
13288520 33 9079113358976209103
13403585 85 18343301487857468909
13533116 47 17822008761890760574
13685833 64 11239996763494255564
13964095 4 6916267333890437274
14251752 14 6988323819832110034
14251764 18 17418090997357233188
14933364 13 18335419067390990576
15183329 4 4751159614267246178
15188451 53 8718556004580653596
15461852 350 18040722442282308629
15716309 27 16343986905196796920
16760501 71 18337392613533058784
17093844 174 17632295684112601849
18006028 8 11167942455154054782
20281389 69 18410294718405219632
21033648 29 17896334523988826450
21130935 74 18270678783281708283
21150785 3 16081093675496851893
21236236 1 18115312167901005255
21521721 280 18113336410135518794
22224240 67 18412546504864751347
23198884 109 14490191604984830963
23559900 14 18411421709487307481
249999 5 18339081622397192722
293599 30 18261114071517427286
4073 2 18201994443493704747
4340502 62 17132116857889436770
5104073 3 18270676610185908019
5364581 5 18198902509601512129
5758199 1 18334573555607331515
6669772 16 17822566196573788598

> <PUBCHEM_SHAPE_MULTIPOLES>
450.5
21.86
2.03
0.92
14.59
0.67
-0.17
-11.23
-4.56
-1.15
0.07
0.36
-0.07
1.67

> <PUBCHEM_SHAPE_SELFOVERLAP>
961.273

> <PUBCHEM_SHAPE_VOLUME>
252.3

> <PUBCHEM_COORDINATE_TYPE>
2
5
10

$$$$

