10804
  -OEChem-06261204592D

 86 85  0     1  0  0  0  0  0999 V2000
   12.0632    2.4050    0.0000 O   0  0  0  0  0  0  0  0  0  0  0  0
   14.6613   -0.0950    0.0000 O   0  0  0  0  0  0  0  0  0  0  0  0
   13.7953    1.4050    0.0000 N   0  0  0  0  0  0  0  0  0  0  0  0
   11.1972   -2.0950    0.0000 N   0  0  0  0  0  0  0  0  0  0  0  0
    4.2690    0.9050    0.0000 N   0  0  0  0  0  0  0  0  0  0  0  0
   22.4555    1.4050    0.0000 N   0  0  0  0  0  0  0  0  0  0  0  0
    2.5369    0.9050    0.0000 N   0  0  0  0  0  0  0  0  0  0  0  0
    3.4030    2.4050    0.0000 N   0  0  0  0  0  0  0  0  0  0  0  0
   24.1876    1.4050    0.0000 N   0  0  0  0  0  0  0  0  0  0  0  0
   23.3215   -0.0950    0.0000 N   0  0  0  0  0  0  0  0  0  0  0  0
   12.9292    0.9050    0.0000 C   0  0  3  0  0  0  0  0  0  0  0  0
   12.0632    1.4050    0.0000 C   0  0  3  0  0  0  0  0  0  0  0  0
   11.1972    0.9050    0.0000 C   0  0  0  0  0  0  0  0  0  0  0  0
   12.9292   -0.0950    0.0000 C   0  0  0  0  0  0  0  0  0  0  0  0
   10.3312    1.4050    0.0000 C   0  0  0  0  0  0  0  0  0  0  0  0
    9.4651    0.9050    0.0000 C   0  0  0  0  0  0  0  0  0  0  0  0
   12.0632   -0.5950    0.0000 C   0  0  0  0  0  0  0  0  0  0  0  0
    8.5991    1.4050    0.0000 C   0  0  0  0  0  0  0  0  0  0  0  0
    7.7331    0.9050    0.0000 C   0  0  0  0  0  0  0  0  0  0  0  0
   14.6613    0.9050    0.0000 C   0  0  0  0  0  0  0  0  0  0  0  0
   15.5273    1.4050    0.0000 C   0  0  0  0  0  0  0  0  0  0  0  0
   16.3933    0.9050    0.0000 C   0  0  0  0  0  0  0  0  0  0  0  0
   12.0632   -1.5950    0.0000 C   0  0  0  0  0  0  0  0  0  0  0  0
    6.8671    1.4050    0.0000 C   0  0  0  0  0  0  0  0  0  0  0  0
   17.2594    1.4050    0.0000 C   0  0  0  0  0  0  0  0  0  0  0  0
   18.1254    0.9050    0.0000 C   0  0  0  0  0  0  0  0  0  0  0  0
   18.9914    1.4050    0.0000 C   0  0  0  0  0  0  0  0  0  0  0  0
    6.0010    0.9050    0.0000 C   0  0  0  0  0  0  0  0  0  0  0  0
   19.8574    0.9050    0.0000 C   0  0  0  0  0  0  0  0  0  0  0  0
   20.7235    1.4050    0.0000 C   0  0  0  0  0  0  0  0  0  0  0  0
    5.1350    1.4050    0.0000 C   0  0  0  0  0  0  0  0  0  0  0  0
   21.5895    0.9050    0.0000 C   0  0  0  0  0  0  0  0  0  0  0  0
    3.4030    1.4050    0.0000 C   0  0  0  0  0  0  0  0  0  0  0  0
   23.3215    0.9050    0.0000 C   0  0  0  0  0  0  0  0  0  0  0  0
   12.9292    1.5250    0.0000 H   0  0  0  0  0  0  0  0  0  0  0  0
   12.6002    1.7150    0.0000 H   0  0  0  0  0  0  0  0  0  0  0  0
   10.7987    0.4301    0.0000 H   0  0  0  0  0  0  0  0  0  0  0  0
   11.5957    0.4301    0.0000 H   0  0  0  0  0  0  0  0  0  0  0  0
   13.1413   -0.6776    0.0000 H   0  0  0  0  0  0  0  0  0  0  0  0
   13.5398    0.0127    0.0000 H   0  0  0  0  0  0  0  0  0  0  0  0
   10.7297    1.8800    0.0000 H   0  0  0  0  0  0  0  0  0  0  0  0
    9.9326    1.8800    0.0000 H   0  0  0  0  0  0  0  0  0  0  0  0
    9.0666    0.4301    0.0000 H   0  0  0  0  0  0  0  0  0  0  0  0
    9.8637    0.4301    0.0000 H   0  0  0  0  0  0  0  0  0  0  0  0
   13.7953    2.0250    0.0000 H   0  0  0  0  0  0  0  0  0  0  0  0
   11.8512   -0.0124    0.0000 H   0  0  0  0  0  0  0  0  0  0  0  0
   11.4526   -0.7027    0.0000 H   0  0  0  0  0  0  0  0  0  0  0  0
    8.9976    1.8800    0.0000 H   0  0  0  0  0  0  0  0  0  0  0  0
    8.2006    1.8800    0.0000 H   0  0  0  0  0  0  0  0  0  0  0  0
    7.3346    0.4301    0.0000 H   0  0  0  0  0  0  0  0  0  0  0  0
    8.1316    0.4301    0.0000 H   0  0  0  0  0  0  0  0  0  0  0  0
   15.9258    1.8800    0.0000 H   0  0  0  0  0  0  0  0  0  0  0  0
   15.1288    1.8800    0.0000 H   0  0  0  0  0  0  0  0  0  0  0  0
   15.9948    0.4301    0.0000 H   0  0  0  0  0  0  0  0  0  0  0  0
   16.7919    0.4301    0.0000 H   0  0  0  0  0  0  0  0  0  0  0  0
   11.5263    2.7150    0.0000 H   0  0  0  0  0  0  0  0  0  0  0  0
   12.2753   -2.1776    0.0000 H   0  0  0  0  0  0  0  0  0  0  0  0
   12.6738   -1.4873    0.0000 H   0  0  0  0  0  0  0  0  0  0  0  0
    7.2656    1.8800    0.0000 H   0  0  0  0  0  0  0  0  0  0  0  0
    6.4685    1.8800    0.0000 H   0  0  0  0  0  0  0  0  0  0  0  0
   17.6579    1.8800    0.0000 H   0  0  0  0  0  0  0  0  0  0  0  0
   16.8608    1.8800    0.0000 H   0  0  0  0  0  0  0  0  0  0  0  0
   17.7269    0.4301    0.0000 H   0  0  0  0  0  0  0  0  0  0  0  0
   18.5239    0.4301    0.0000 H   0  0  0  0  0  0  0  0  0  0  0  0
   19.3899    1.8800    0.0000 H   0  0  0  0  0  0  0  0  0  0  0  0
   18.5929    1.8800    0.0000 H   0  0  0  0  0  0  0  0  0  0  0  0
    5.6025    0.4301    0.0000 H   0  0  0  0  0  0  0  0  0  0  0  0
    6.3996    0.4301    0.0000 H   0  0  0  0  0  0  0  0  0  0  0  0
   19.4589    0.4301    0.0000 H   0  0  0  0  0  0  0  0  0  0  0  0
   20.2560    0.4301    0.0000 H   0  0  0  0  0  0  0  0  0  0  0  0
   21.1220    1.8800    0.0000 H   0  0  0  0  0  0  0  0  0  0  0  0
   20.3249    1.8800    0.0000 H   0  0  0  0  0  0  0  0  0  0  0  0
   11.1972   -2.7150    0.0000 H   0  0  0  0  0  0  0  0  0  0  0  0
   10.6603   -1.7850    0.0000 H   0  0  0  0  0  0  0  0  0  0  0  0
    5.5335    1.8800    0.0000 H   0  0  0  0  0  0  0  0  0  0  0  0
    4.7365    1.8800    0.0000 H   0  0  0  0  0  0  0  0  0  0  0  0
   21.1910    0.4301    0.0000 H   0  0  0  0  0  0  0  0  0  0  0  0
   21.9880    0.4301    0.0000 H   0  0  0  0  0  0  0  0  0  0  0  0
    2.0000    1.2150    0.0000 H   0  0  0  0  0  0  0  0  0  0  0  0
    2.5369    0.2850    0.0000 H   0  0  0  0  0  0  0  0  0  0  0  0
    2.8660    2.7150    0.0000 H   0  0  0  0  0  0  0  0  0  0  0  0
    3.9399    2.7150    0.0000 H   0  0  0  0  0  0  0  0  0  0  0  0
   23.8585   -0.4050    0.0000 H   0  0  0  0  0  0  0  0  0  0  0  0
   22.7846   -0.4050    0.0000 H   0  0  0  0  0  0  0  0  0  0  0  0
   24.7245    1.0950    0.0000 H   0  0  0  0  0  0  0  0  0  0  0  0
   24.1876    2.0250    0.0000 H   0  0  0  0  0  0  0  0  0  0  0  0
  1 12  1  0  0  0  0
  1 56  1  0  0  0  0
  2 20  2  0  0  0  0
  3 11  1  0  0  0  0
  3 20  1  0  0  0  0
  3 45  1  0  0  0  0
  4 23  1  0  0  0  0
  4 73  1  0  0  0  0
  4 74  1  0  0  0  0
  5 31  1  0  0  0  0
  5 33  2  0  0  0  0
  6 32  1  0  0  0  0
  6 34  2  0  0  0  0
  7 33  1  0  0  0  0
  7 79  1  0  0  0  0
  7 80  1  0  0  0  0
  8 33  1  0  0  0  0
  8 81  1  0  0  0  0
  8 82  1  0  0  0  0
  9 34  1  0  0  0  0
  9 85  1  0  0  0  0
  9 86  1  0  0  0  0
 10 34  1  0  0  0  0
 10 83  1  0  0  0  0
 10 84  1  0  0  0  0
 11 12  1  0  0  0  0
 11 14  1  0  0  0  0
 11 35  1  0  0  0  0
 12 13  1  0  0  0  0
 12 36  1  0  0  0  0
 13 15  1  0  0  0  0
 13 37  1  0  0  0  0
 13 38  1  0  0  0  0
 14 17  1  0  0  0  0
 14 39  1  0  0  0  0
 14 40  1  0  0  0  0
 15 16  1  0  0  0  0
 15 41  1  0  0  0  0
 15 42  1  0  0  0  0
 16 18  1  0  0  0  0
 16 43  1  0  0  0  0
 16 44  1  0  0  0  0
 17 23  1  0  0  0  0
 17 46  1  0  0  0  0
 17 47  1  0  0  0  0
 18 19  1  0  0  0  0
 18 48  1  0  0  0  0
 18 49  1  0  0  0  0
 19 24  1  0  0  0  0
 19 50  1  0  0  0  0
 19 51  1  0  0  0  0
 20 21  1  0  0  0  0
 21 22  1  0  0  0  0
 21 52  1  0  0  0  0
 21 53  1  0  0  0  0
 22 25  1  0  0  0  0
 22 54  1  0  0  0  0
 22 55  1  0  0  0  0
 23 57  1  0  0  0  0
 23 58  1  0  0  0  0
 24 28  1  0  0  0  0
 24 59  1  0  0  0  0
 24 60  1  0  0  0  0
 25 26  1  0  0  0  0
 25 61  1  0  0  0  0
 25 62  1  0  0  0  0
 26 27  1  0  0  0  0
 26 63  1  0  0  0  0
 26 64  1  0  0  0  0
 27 29  1  0  0  0  0
 27 65  1  0  0  0  0
 27 66  1  0  0  0  0
 28 31  1  0  0  0  0
 28 67  1  0  0  0  0
 28 68  1  0  0  0  0
 29 30  1  0  0  0  0
 29 69  1  0  0  0  0
 29 70  1  0  0  0  0
 30 32  1  0  0  0  0
 30 71  1  0  0  0  0
 30 72  1  0  0  0  0
 31 75  1  0  0  0  0
 31 76  1  0  0  0  0
 32 77  1  0  0  0  0
 32 78  1  0  0  0  0
M  END
> <PUBCHEM_COMPOUND_CID>
10804

> <PUBCHEM_COMPOUND_CANONICALIZED>
1

> <PUBCHEM_CACTVS_COMPLEXITY>
549

> <PUBCHEM_CACTVS_HBOND_ACCEPTOR>
5

> <PUBCHEM_CACTVS_HBOND_DONOR>
7

> <PUBCHEM_CACTVS_ROTATABLE_BOND>
23

> <PUBCHEM_CACTVS_SUBSKEYS>
AAADcfB78AAAAAAAAAAAAAAAAAAAAAAAAAAAAAAAAAAAAAAAAAAAHgAQCAAACDzhgAYBAALAAgAoAAEQNAAAAAEAAAAAAIEIAAACEBIAgAAEQAAEFgCQAAGY2KCAAAAAAAAAAAAAAAAAAAAAAAAAAAAAAA==

> <PUBCHEM_IUPAC_OPENEYE_NAME>
N-[1-(3-aminopropyl)-10-guanidino-2-hydroxy-decyl]-9-guanidino-nonanamide

> <PUBCHEM_IUPAC_CAS_NAME>
N-[1-amino-13-(diaminomethylideneamino)-5-hydroxytridecan-4-yl]-9-(diaminomethylideneamino)nonanamide

> <PUBCHEM_IUPAC_NAME>
N-[1-amino-13-(diaminomethylideneamino)-5-hydroxytridecan-4-yl]-9-(diaminomethylideneamino)nonanamide

> <PUBCHEM_IUPAC_SYSTEMATIC_NAME>
N-[1-azanyl-13-[bis(azanyl)methylideneamino]-5-oxidanyl-tridecan-4-yl]-9-[bis(azanyl)methylideneamino]nonanamide

> <PUBCHEM_IUPAC_TRADITIONAL_NAME>
N-[1-(3-aminopropyl)-10-guanidino-2-hydroxy-decyl]-9-guanidino-pelargonamide

> <PUBCHEM_IUPAC_INCHI>
InChI=1S/C24H52N8O2/c25-17-13-14-20(21(33)15-9-5-1-3-7-11-18-30-23(26)27)32-22(34)16-10-6-2-4-8-12-19-31-24(28)29/h20-21,33H,1-19,25H2,(H,32,34)(H4,26,27,30)(H4,28,29,31)

> <PUBCHEM_IUPAC_INCHIKEY>
UIPBKZGYQDPIPY-UHFFFAOYSA-N

> <PUBCHEM_XLOGP3_AA>
1.4

> <PUBCHEM_EXACT_MASS>
484.421323

> <PUBCHEM_MOLECULAR_FORMULA>
C24H52N8O2

> <PUBCHEM_MOLECULAR_WEIGHT>
484.72208

> <PUBCHEM_OPENEYE_CAN_SMILES>
C(CCCCN=C(N)N)CCCC(C(CCCN)NC(=O)CCCCCCCCN=C(N)N)O

> <PUBCHEM_OPENEYE_ISO_SMILES>
C(CCCCN=C(N)N)CCCC(C(CCCN)NC(=O)CCCCCCCCN=C(N)N)O

> <PUBCHEM_CACTVS_TPSA>
204

> <PUBCHEM_MONOISOTOPIC_WEIGHT>
484.421323

> <PUBCHEM_TOTAL_CHARGE>
0

> <PUBCHEM_HEAVY_ATOM_COUNT>
34

> <PUBCHEM_ATOM_DEF_STEREO_COUNT>
0

> <PUBCHEM_ATOM_UDEF_STEREO_COUNT>
2

> <PUBCHEM_BOND_DEF_STEREO_COUNT>
0

> <PUBCHEM_BOND_UDEF_STEREO_COUNT>
0

> <PUBCHEM_ISOTOPIC_ATOM_COUNT>
0

> <PUBCHEM_COMPONENT_COUNT>
1

> <PUBCHEM_CACTVS_TAUTO_COUNT>
8

> <PUBCHEM_COORDINATE_TYPE>
1
5
255

> <PUBCHEM_BONDANNOTATIONS>
12  1  3
11  14  3

$$$$

