12383
  -OEChem-06261206533D

 21 20  0     0  0  0  0  0  0999 V2000
   -2.5274    1.8037    0.4760 Cl  0  0  0  0  0  0  0  0  0  0  0  0
    2.5311    1.7844    0.5092 Cl  0  0  0  0  0  0  0  0  0  0  0  0
   -0.0035   -0.8730   -0.1376 O   0  0  0  0  0  0  0  0  0  0  0  0
   -1.1740   -1.0956    0.6384 C   0  0  0  0  0  0  0  0  0  0  0  0
    1.1760   -1.0957    0.6228 C   0  0  0  0  0  0  0  0  0  0  0  0
   -2.3957   -0.8397   -0.2360 C   0  0  0  0  0  0  0  0  0  0  0  0
    2.3865   -0.8401   -0.2671 C   0  0  0  0  0  0  0  0  0  0  0  0
   -2.4539    0.5718   -0.8046 C   0  0  0  0  0  0  0  0  0  0  0  0
    2.4609    0.5841   -0.8012 C   0  0  0  0  0  0  0  0  0  0  0  0
   -1.1713   -0.4486    1.5220 H   0  0  0  0  0  0  0  0  0  0  0  0
   -1.1899   -2.1377    0.9790 H   0  0  0  0  0  0  0  0  0  0  0  0
    1.1958   -2.1393    0.9583 H   0  0  0  0  0  0  0  0  0  0  0  0
    1.1835   -0.4549    1.5107 H   0  0  0  0  0  0  0  0  0  0  0  0
   -3.3042   -1.0483    0.3410 H   0  0  0  0  0  0  0  0  0  0  0  0
   -2.3808   -1.5400   -1.0802 H   0  0  0  0  0  0  0  0  0  0  0  0
    2.3493   -1.5206   -1.1265 H   0  0  0  0  0  0  0  0  0  0  0  0
    3.3000   -1.0741    0.2922 H   0  0  0  0  0  0  0  0  0  0  0  0
   -1.5814    0.7902   -1.4278 H   0  0  0  0  0  0  0  0  0  0  0  0
   -3.3480    0.6908   -1.4240 H   0  0  0  0  0  0  0  0  0  0  0  0
    3.3594    0.7116   -1.4125 H   0  0  0  0  0  0  0  0  0  0  0  0
    1.5929    0.8225   -1.4234 H   0  0  0  0  0  0  0  0  0  0  0  0
  1  8  1  0  0  0  0
  2  9  1  0  0  0  0
  3  4  1  0  0  0  0
  3  5  1  0  0  0  0
  4  6  1  0  0  0  0
  4 10  1  0  0  0  0
  4 11  1  0  0  0  0
  5  7  1  0  0  0  0
  5 12  1  0  0  0  0
  5 13  1  0  0  0  0
  6  8  1  0  0  0  0
  6 14  1  0  0  0  0
  6 15  1  0  0  0  0
  7  9  1  0  0  0  0
  7 16  1  0  0  0  0
  7 17  1  0  0  0  0
  8 18  1  0  0  0  0
  8 19  1  0  0  0  0
  9 20  1  0  0  0  0
  9 21  1  0  0  0  0
M  END
> <PUBCHEM_COMPOUND_CID>
12383

> <PUBCHEM_CONFORMER_RMSD>
0.6

> <PUBCHEM_CONFORMER_DIVERSEORDER>
11
69
121
132
107
8
135
119
2
126
125
12
37
23
102
35
108
5
109
111
22
79
117
78
51
116
136
1
101
24
122
47
16
118
104
129
64
99
9
112
113
6
45
3
44
36
114
15
103
128
49
33
130
71
14
98
106
41
124
91
137
50
10
120
95
93
105
54
18
59
21
127
123
38
17
48
66
7
92
55
86
115
60
84
90
58
26
134
76
110
88
57
43
42
75
4
83
70
61
85
100
34
27
56
40
39
29
65
94
28
19
72
25
89
73
87
131
13
62
30
46
96
67
133
81
77
52
53
80
82
31
68
74
32
97
20
63

> <PUBCHEM_MMFF94_PARTIAL_CHARGES>
7
1 -0.29
2 -0.29
3 -0.56
4 0.28
5 0.28
8 0.29
9 0.29

> <PUBCHEM_EFFECTIVE_ROTOR_COUNT>
6

> <PUBCHEM_PHARMACOPHORE_FEATURES>
1
1 3 acceptor

> <PUBCHEM_HEAVY_ATOM_COUNT>
9

> <PUBCHEM_ATOM_DEF_STEREO_COUNT>
0

> <PUBCHEM_ATOM_UDEF_STEREO_COUNT>
0

> <PUBCHEM_BOND_DEF_STEREO_COUNT>
0

> <PUBCHEM_BOND_UDEF_STEREO_COUNT>
0

> <PUBCHEM_ISOTOPIC_ATOM_COUNT>
0

> <PUBCHEM_COMPONENT_COUNT>
1

> <PUBCHEM_CACTVS_TAUTO_COUNT>
1

> <PUBCHEM_CONFORMER_ID>
0000305F0000000B

> <PUBCHEM_MMFF94_ENERGY>
6.2051

> <PUBCHEM_FEATURE_SELFOVERLAP>
5.074

> <PUBCHEM_SHAPE_FINGERPRINT>
10149128 111 18265328585359418489
10149128 76 18409168775216453056
10857977 72 15266762425829929103
12162725 195 18409173220233141934
12932764 1 18335692806757353646
13618510 140 18269836406913637692
14390081 3 18341052934389979095
15775835 57 18342167925122360837
19973954 147 18410572877049901768
20304884 271 18336262461370956417
20653085 51 18262229044900764411
21028194 46 18273215309013602415
22959321 54 18411141329262916461
230 275 18130511846870895604
305870 269 18130802135263117698
66348 1 18411418410082063845
8050 44 18339655433647217612

> <PUBCHEM_SHAPE_MULTIPOLES>
183.09
5.14
1.97
0.92
0
0.81
-0.03
1.91
-0.53
-0.02
0.43
0.01
0.07
0.02

> <PUBCHEM_SHAPE_SELFOVERLAP>
308.584

> <PUBCHEM_SHAPE_VOLUME>
125.4

> <PUBCHEM_COORDINATE_TYPE>
2
5
10

$$$$

