13608
  -OEChem-06241222393D

 20 21  0     0  0  0  0  0  0999 V2000
   -1.2985   -0.0009   -0.0270 C   0  0  0  0  0  0  0  0  0  0  0  0
    1.2985    0.0010   -0.0277 C   0  0  0  0  0  0  0  0  0  0  0  0
   -0.7726   -1.2507    0.7147 C   0  0  0  0  0  0  0  0  0  0  0  0
   -0.7745    1.2469    0.7191 C   0  0  0  0  0  0  0  0  0  0  0  0
    0.7749   -1.2499    0.7139 C   0  0  0  0  0  0  0  0  0  0  0  0
    0.7731    1.2477    0.7194 C   0  0  0  0  0  0  0  0  0  0  0  0
   -0.6719    0.0023   -1.4060 C   0  0  0  0  0  0  0  0  0  0  0  0
    0.6711    0.0036   -1.4064 C   0  0  0  0  0  0  0  0  0  0  0  0
   -2.3909   -0.0016   -0.0838 H   0  0  0  0  0  0  0  0  0  0  0  0
    2.3909    0.0018   -0.0851 H   0  0  0  0  0  0  0  0  0  0  0  0
   -1.1399   -2.1648    0.2315 H   0  0  0  0  0  0  0  0  0  0  0  0
   -1.1439   -1.2672    1.7464 H   0  0  0  0  0  0  0  0  0  0  0  0
   -1.1465    1.2597    1.7507 H   0  0  0  0  0  0  0  0  0  0  0  0
   -1.1425    2.1622    0.2387 H   0  0  0  0  0  0  0  0  0  0  0  0
    1.1473   -1.2666    1.7451 H   0  0  0  0  0  0  0  0  0  0  0  0
    1.1427   -2.1633    0.2298 H   0  0  0  0  0  0  0  0  0  0  0  0
    1.1401    2.1638    0.2398 H   0  0  0  0  0  0  0  0  0  0  0  0
    1.1448    1.2600    1.7509 H   0  0  0  0  0  0  0  0  0  0  0  0
   -1.2654    0.0036   -2.3104 H   0  0  0  0  0  0  0  0  0  0  0  0
    1.2641    0.0060   -2.3111 H   0  0  0  0  0  0  0  0  0  0  0  0
  1  3  1  0  0  0  0
  1  4  1  0  0  0  0
  1  7  1  0  0  0  0
  1  9  1  0  0  0  0
  2  5  1  0  0  0  0
  2  6  1  0  0  0  0
  2  8  1  0  0  0  0
  2 10  1  0  0  0  0
  3  5  1  0  0  0  0
  3 11  1  0  0  0  0
  3 12  1  0  0  0  0
  4  6  1  0  0  0  0
  4 13  1  0  0  0  0
  4 14  1  0  0  0  0
  5 15  1  0  0  0  0
  5 16  1  0  0  0  0
  6 17  1  0  0  0  0
  6 18  1  0  0  0  0
  7  8  2  0  0  0  0
  7 19  1  0  0  0  0
  8 20  1  0  0  0  0
M  END
> <PUBCHEM_COMPOUND_CID>
13608

> <PUBCHEM_CONFORMER_RMSD>
0.4

> <PUBCHEM_CONFORMER_DIVERSEORDER>
1

> <PUBCHEM_MMFF94_PARTIAL_CHARGES>
6
1 0.14
19 0.15
2 0.14
20 0.15
7 -0.29
8 -0.29

> <PUBCHEM_EFFECTIVE_ROTOR_COUNT>
0.8

> <PUBCHEM_PHARMACOPHORE_FEATURES>
1
8 1 2 3 4 5 6 7 8 rings

> <PUBCHEM_HEAVY_ATOM_COUNT>
8

> <PUBCHEM_ATOM_DEF_STEREO_COUNT>
0

> <PUBCHEM_ATOM_UDEF_STEREO_COUNT>
0

> <PUBCHEM_BOND_DEF_STEREO_COUNT>
0

> <PUBCHEM_BOND_UDEF_STEREO_COUNT>
0

> <PUBCHEM_ISOTOPIC_ATOM_COUNT>
0

> <PUBCHEM_COMPONENT_COUNT>
1

> <PUBCHEM_CACTVS_TAUTO_COUNT>
1

> <PUBCHEM_CONFORMER_ID>
0000352800000001

> <PUBCHEM_MMFF94_ENERGY>
20.9209

> <PUBCHEM_FEATURE_SELFOVERLAP>
5.074

> <PUBCHEM_SHAPE_FINGERPRINT>
12423570 1 17203892954721189663
13024252 1 16031173695305367182
137420 1 9187514746475163487
16945 1 6004371207685194112
21040471 1 9766013843244704534
29004967 10 16884080180903812606
5943 1 9096102758506964164

> <PUBCHEM_SHAPE_MULTIPOLES>
164.64
1.45
1.4
1.37
0
0.01
0.51
0
-0.04
0
-0.56
0
0
0

> <PUBCHEM_SHAPE_SELFOVERLAP>
346.011

> <PUBCHEM_SHAPE_VOLUME>
88

> <PUBCHEM_COORDINATE_TYPE>
2
5
10

$$$$

