51090989
  -OEChem-06241223013D

 45 46  0     1  0  0  0  0  0999 V2000
    4.1425   -0.4721   -0.2108 O   0  0  0  0  0  0  0  0  0  0  0  0
    6.5704    0.8470    0.2336 O   0  0  0  0  0  0  0  0  0  0  0  0
    1.6975   -0.2092   -1.3958 O   0  0  0  0  0  0  0  0  0  0  0  0
    0.7304   -1.1035    0.5476 N   0  0  0  0  0  0  0  0  0  0  0  0
   -1.4946   -1.1283    1.3874 N   0  0  0  0  0  0  0  0  0  0  0  0
    3.1024   -1.3517    0.1860 C   0  0  1  0  0  0  0  0  0  0  0  0
    4.2174    0.6673    0.6368 C   0  0  0  0  0  0  0  0  0  0  0  0
    1.7693   -0.8188   -0.3325 C   0  0  0  0  0  0  0  0  0  0  0  0
    3.3936   -2.7472   -0.3453 C   0  0  0  0  0  0  0  0  0  0  0  0
    5.3442    1.5643    0.1616 C   0  0  0  0  0  0  0  0  0  0  0  0
   -3.2593   -0.0692    0.1191 C   0  0  0  0  0  0  0  0  0  0  0  0
   -0.6346   -0.7551    0.4132 C   0  0  0  0  0  0  0  0  0  0  0  0
   -4.6565    0.2752    0.0000 C   0  0  0  0  0  0  0  0  0  0  0  0
   -2.3445    0.2972   -0.8619 C   0  0  0  0  0  0  0  0  0  0  0  0
   -1.0052   -0.0486   -0.7196 C   0  0  0  0  0  0  0  0  0  0  0  0
   -2.7879   -0.7747    1.2144 C   0  0  0  0  0  0  0  0  0  0  0  0
   -5.1245    1.4807    0.5229 C   0  0  0  0  0  0  0  0  0  0  0  0
   -5.5381   -0.5973   -0.6380 C   0  0  0  0  0  0  0  0  0  0  0  0
    7.6617    1.6344   -0.2220 C   0  0  0  0  0  0  0  0  0  0  0  0
   -6.4742    1.8136    0.4079 C   0  0  0  0  0  0  0  0  0  0  0  0
   -6.8877   -0.2645   -0.7531 C   0  0  0  0  0  0  0  0  0  0  0  0
   -7.3558    0.9410   -0.2301 C   0  0  0  0  0  0  0  0  0  0  0  0
    8.9336    0.8196   -0.1214 C   0  0  0  0  0  0  0  0  0  0  0  0
    3.0791   -1.4167    1.2818 H   0  0  0  0  0  0  0  0  0  0  0  0
    3.2735    1.2224    0.6191 H   0  0  0  0  0  0  0  0  0  0  0  0
    4.4248    0.3370    1.6615 H   0  0  0  0  0  0  0  0  0  0  0  0
    4.3597   -3.1061    0.0246 H   0  0  0  0  0  0  0  0  0  0  0  0
    2.6144   -3.4570   -0.0506 H   0  0  0  0  0  0  0  0  0  0  0  0
    3.4530   -2.7417   -1.4395 H   0  0  0  0  0  0  0  0  0  0  0  0
    5.3997    2.4595    0.7905 H   0  0  0  0  0  0  0  0  0  0  0  0
    5.1660    1.8610   -0.8786 H   0  0  0  0  0  0  0  0  0  0  0  0
    0.9426   -1.6251    1.3943 H   0  0  0  0  0  0  0  0  0  0  0  0
   -2.6610    0.8518   -1.7421 H   0  0  0  0  0  0  0  0  0  0  0  0
   -0.3573    0.2693   -1.5195 H   0  0  0  0  0  0  0  0  0  0  0  0
   -3.4500   -1.0906    2.0156 H   0  0  0  0  0  0  0  0  0  0  0  0
   -4.4509    2.1724    1.0232 H   0  0  0  0  0  0  0  0  0  0  0  0
   -5.1899   -1.5410   -1.0514 H   0  0  0  0  0  0  0  0  0  0  0  0
    7.7514    2.5358    0.3945 H   0  0  0  0  0  0  0  0  0  0  0  0
    7.4960    1.9310   -1.2638 H   0  0  0  0  0  0  0  0  0  0  0  0
   -6.8388    2.7521    0.8151 H   0  0  0  0  0  0  0  0  0  0  0  0
   -7.5743   -0.9437   -1.2498 H   0  0  0  0  0  0  0  0  0  0  0  0
   -8.4067    1.2002   -0.3197 H   0  0  0  0  0  0  0  0  0  0  0  0
    9.1088    0.5044    0.9125 H   0  0  0  0  0  0  0  0  0  0  0  0
    8.8561   -0.0921   -0.7230 H   0  0  0  0  0  0  0  0  0  0  0  0
    9.7963    1.3970   -0.4653 H   0  0  0  0  0  0  0  0  0  0  0  0
  1  6  1  0  0  0  0
  1  7  1  0  0  0  0
  2 10  1  0  0  0  0
  2 19  1  0  0  0  0
  3  8  2  0  0  0  0
  4  8  1  0  0  0  0
  4 12  1  0  0  0  0
  4 32  1  0  0  0  0
  5 12  2  0  0  0  0
  5 16  1  0  0  0  0
  6  8  1  0  0  0  0
  6  9  1  0  0  0  0
  6 24  1  0  0  0  0
  7 10  1  0  0  0  0
  7 25  1  0  0  0  0
  7 26  1  0  0  0  0
  9 27  1  0  0  0  0
  9 28  1  0  0  0  0
  9 29  1  0  0  0  0
 10 30  1  0  0  0  0
 10 31  1  0  0  0  0
 11 13  1  0  0  0  0
 11 14  1  0  0  0  0
 11 16  2  0  0  0  0
 12 15  1  0  0  0  0
 13 17  2  0  0  0  0
 13 18  1  0  0  0  0
 14 15  2  0  0  0  0
 14 33  1  0  0  0  0
 15 34  1  0  0  0  0
 16 35  1  0  0  0  0
 17 20  1  0  0  0  0
 17 36  1  0  0  0  0
 18 21  2  0  0  0  0
 18 37  1  0  0  0  0
 19 23  1  0  0  0  0
 19 38  1  0  0  0  0
 19 39  1  0  0  0  0
 20 22  2  0  0  0  0
 20 40  1  0  0  0  0
 21 22  1  0  0  0  0
 21 41  1  0  0  0  0
 22 42  1  0  0  0  0
 23 43  1  0  0  0  0
 23 44  1  0  0  0  0
 23 45  1  0  0  0  0
M  END
> <PUBCHEM_COMPOUND_CID>
51090989

> <PUBCHEM_CONFORMER_RMSD>
0.8

> <PUBCHEM_CONFORMER_DIVERSEORDER>
1
49
28
58
59
16
39
11
47
67
79
78
74
17
77
23
34
63
71
62
81
68
36
51
18
32
19
30
13
31
40
54
64
48
53
45
50
43
12
33
66
65
70
27
46
3
4
72
56
73
24
85
42
10
44
60
38
8
57
76
61
84
22
80
75
29
21
52
15
35
9
6
20
69
26
82
41
55
83
2
37
25
5
14
7

> <PUBCHEM_MMFF94_PARTIAL_CHARGES>
28
1 -0.56
10 0.28
12 0.43
14 -0.15
15 -0.15
16 0.16
17 -0.15
18 -0.15
19 0.28
2 -0.56
20 -0.15
21 -0.15
22 -0.15
3 -0.57
32 0.37
33 0.15
34 0.15
35 0.15
36 0.15
37 0.15
4 -0.55
40 0.15
41 0.15
42 0.15
5 -0.62
6 0.34
7 0.28
8 0.57

> <PUBCHEM_EFFECTIVE_ROTOR_COUNT>
9

> <PUBCHEM_PHARMACOPHORE_FEATURES>
6
1 1 acceptor
1 2 acceptor
1 3 acceptor
1 4 donor
6 13 17 18 20 21 22 rings
6 5 11 12 14 15 16 rings

> <PUBCHEM_HEAVY_ATOM_COUNT>
23

> <PUBCHEM_ATOM_DEF_STEREO_COUNT>
0

> <PUBCHEM_ATOM_UDEF_STEREO_COUNT>
1

> <PUBCHEM_BOND_DEF_STEREO_COUNT>
0

> <PUBCHEM_BOND_UDEF_STEREO_COUNT>
0

> <PUBCHEM_ISOTOPIC_ATOM_COUNT>
0

> <PUBCHEM_COMPONENT_COUNT>
1

> <PUBCHEM_CACTVS_TAUTO_COUNT>
5

> <PUBCHEM_CONFORMER_ID>
030B962D00000001

> <PUBCHEM_MMFF94_ENERGY>
66.1265

> <PUBCHEM_FEATURE_SELFOVERLAP>
30.456

> <PUBCHEM_SHAPE_FINGERPRINT>
10 15 16415480441638787564
10595046 47 18260832639759395331
10670039 82 15213009475321825058
10904742 90 18113339696181223814
11297750 10 17199961265336373070
11315181 36 18410013239692593901
11524674 6 13614518559098485065
12236239 1 18337955697020356111
13533116 47 17916025839948413858
13540713 4 16054935305702950750
13540713 5 15911334465651479846
13668630 136 6266885867491795973
13685833 64 9583522014694277032
13968360 50 16805316713399543358
14123256 10 14851602176630975444
14251764 18 18343588438658824360
14251764 46 18272371962874505772
15183329 4 16950279619970310897
15461852 350 18338514136303594663
15961568 22 18408038532929544852
17980427 23 17559954333937787774
18335252 114 18186803574328944720
18335252 98 18336261267792307691
2026 5 6843386185103243780
21033648 29 18267595620134467456
21150785 3 17022902341473103453
21585482 111 18269274723807419797
21641784 216 15936400165769054201
220451 1 17022626390568361647
22224240 67 17917715678188666866
23536379 177 18187929542854822899
23559900 14 17774425192242584854
23569943 247 7420684773334461685
246663 6 6988321650926483573
24771293 8 18131069346600918389
34797466 226 17603862308753893965
4073 2 18342735208824871811
4325135 7 18259706683611744253
465052 167 10807934877640769136
5104073 3 16557918981592937729
543368 44 18412546535847173489
5758199 1 18272370871367321714
636775 72 18413107259974573921

> <PUBCHEM_SHAPE_MULTIPOLES>
445.76
23.83
1.84
0.98
21.98
0.39
-0.04
-14.41
1.94
1.73
-0.11
-0.52
0.14
-0.16

> <PUBCHEM_SHAPE_SELFOVERLAP>
925.687

> <PUBCHEM_SHAPE_VOLUME>
253.1

> <PUBCHEM_COORDINATE_TYPE>
2
5
10

$$$$

