17395983
  -OEChem-06241222533D

 53 55  0     1  0  0  0  0  0999 V2000
    1.0918   -3.1560    0.3892 O   0  0  0  0  0  0  0  0  0  0  0  0
    3.2189   -0.5423    0.7204 N   0  0  1  0  0  0  0  0  0  0  0  0
    0.6286   -0.9735   -0.3456 N   0  0  0  0  0  0  0  0  0  0  0  0
   -2.8465   -0.2710   -0.1775 N   0  0  0  0  0  0  0  0  0  0  0  0
   -2.9582   -1.5850   -0.4367 N   0  0  0  0  0  0  0  0  0  0  0  0
    4.4274    0.1437    0.2677 C   0  0  0  0  0  0  0  0  0  0  0  0
    4.7421    1.3165    1.2028 C   0  0  0  0  0  0  0  0  0  0  0  0
    4.2444    0.6224   -1.1769 C   0  0  0  0  0  0  0  0  0  0  0  0
    5.9572    2.1049    0.7172 C   0  0  0  0  0  0  0  0  0  0  0  0
    5.4597    1.4122   -1.6597 C   0  0  0  0  0  0  0  0  0  0  0  0
    5.7840    2.5739   -0.7247 C   0  0  0  0  0  0  0  0  0  0  0  0
    2.9070   -1.6660   -0.1626 C   0  0  0  0  0  0  0  0  0  0  0  0
    3.3789   -1.0052    2.0987 C   0  0  0  0  0  0  0  0  0  0  0  0
    1.4456   -2.0473    0.0009 C   0  0  0  0  0  0  0  0  0  0  0  0
   -0.7711   -0.9354   -0.3262 C   0  0  0  0  0  0  0  0  0  0  0  0
   -1.5574    0.1682   -0.1017 C   0  0  0  0  0  0  0  0  0  0  0  0
   -1.6872   -1.9854   -0.5264 C   0  0  0  0  0  0  0  0  0  0  0  0
   -1.1961    1.5747    0.1720 C   0  0  0  0  0  0  0  0  0  0  0  0
   -3.9959    0.5025   -0.0140 C   0  0  0  0  0  0  0  0  0  0  0  0
   -1.3926   -3.4016   -0.8082 C   0  0  0  0  0  0  0  0  0  0  0  0
   -3.9827    1.8533   -0.3620 C   0  0  0  0  0  0  0  0  0  0  0  0
   -5.1595   -0.0755    0.4941 C   0  0  0  0  0  0  0  0  0  0  0  0
   -5.1328    2.6262   -0.2016 C   0  0  0  0  0  0  0  0  0  0  0  0
   -6.3096    0.6976    0.6543 C   0  0  0  0  0  0  0  0  0  0  0  0
   -6.2961    2.0484    0.3064 C   0  0  0  0  0  0  0  0  0  0  0  0
    5.2806   -0.5506    0.2890 H   0  0  0  0  0  0  0  0  0  0  0  0
    4.9790    0.9806    2.2179 H   0  0  0  0  0  0  0  0  0  0  0  0
    3.8793    1.9918    1.2739 H   0  0  0  0  0  0  0  0  0  0  0  0
    3.3467    1.2485   -1.2638 H   0  0  0  0  0  0  0  0  0  0  0  0
    4.1497   -0.1915   -1.8985 H   0  0  0  0  0  0  0  0  0  0  0  0
    6.1194    2.9712    1.3685 H   0  0  0  0  0  0  0  0  0  0  0  0
    6.8539    1.4772    0.7911 H   0  0  0  0  0  0  0  0  0  0  0  0
    6.3280    0.7447   -1.7257 H   0  0  0  0  0  0  0  0  0  0  0  0
    5.2741    1.7954   -2.6696 H   0  0  0  0  0  0  0  0  0  0  0  0
    4.9769    3.3154   -0.7719 H   0  0  0  0  0  0  0  0  0  0  0  0
    6.6983    3.0748   -1.0620 H   0  0  0  0  0  0  0  0  0  0  0  0
    3.5371   -2.5394    0.0490 H   0  0  0  0  0  0  0  0  0  0  0  0
    2.9886   -1.4799   -1.2339 H   0  0  0  0  0  0  0  0  0  0  0  0
    4.3073   -1.5687    2.2493 H   0  0  0  0  0  0  0  0  0  0  0  0
    3.3392   -0.1764    2.8124 H   0  0  0  0  0  0  0  0  0  0  0  0
    2.5493   -1.6578    2.3960 H   0  0  0  0  0  0  0  0  0  0  0  0
    1.0746   -0.0626   -0.4267 H   0  0  0  0  0  0  0  0  0  0  0  0
   -0.1791    1.6101    0.5844 H   0  0  0  0  0  0  0  0  0  0  0  0
   -1.8137    2.0497    0.9391 H   0  0  0  0  0  0  0  0  0  0  0  0
   -1.1542    2.1715   -0.7437 H   0  0  0  0  0  0  0  0  0  0  0  0
   -0.5416   -3.5139   -1.4863 H   0  0  0  0  0  0  0  0  0  0  0  0
   -2.2446   -3.8824   -1.3038 H   0  0  0  0  0  0  0  0  0  0  0  0
   -1.2102   -3.9563    0.1168 H   0  0  0  0  0  0  0  0  0  0  0  0
   -3.1686    2.3417   -0.8782 H   0  0  0  0  0  0  0  0  0  0  0  0
   -5.1995   -1.1225    0.7838 H   0  0  0  0  0  0  0  0  0  0  0  0
   -5.1323    3.6710   -0.4989 H   0  0  0  0  0  0  0  0  0  0  0  0
   -7.2155    0.2484    1.0506 H   0  0  0  0  0  0  0  0  0  0  0  0
   -7.1933    2.6486    0.4254 H   0  0  0  0  0  0  0  0  0  0  0  0
  1 14  2  0  0  0  0
  2  6  1  0  0  0  0
  2 12  1  0  0  0  0
  2 13  1  0  0  0  0
  3 14  1  0  0  0  0
  3 15  1  0  0  0  0
  3 42  1  0  0  0  0
  4  5  1  0  0  0  0
  4 16  1  0  0  0  0
  4 19  1  0  0  0  0
  5 17  2  0  0  0  0
  6  7  1  0  0  0  0
  6  8  1  0  0  0  0
  6 26  1  0  0  0  0
  7  9  1  0  0  0  0
  7 27  1  0  0  0  0
  7 28  1  0  0  0  0
  8 10  1  0  0  0  0
  8 29  1  0  0  0  0
  8 30  1  0  0  0  0
  9 11  1  0  0  0  0
  9 31  1  0  0  0  0
  9 32  1  0  0  0  0
 10 11  1  0  0  0  0
 10 33  1  0  0  0  0
 10 34  1  0  0  0  0
 11 35  1  0  0  0  0
 11 36  1  0  0  0  0
 12 14  1  0  0  0  0
 12 37  1  0  0  0  0
 12 38  1  0  0  0  0
 13 39  1  0  0  0  0
 13 40  1  0  0  0  0
 13 41  1  0  0  0  0
 15 16  2  0  0  0  0
 15 17  1  0  0  0  0
 16 18  1  0  0  0  0
 17 20  1  0  0  0  0
 18 43  1  0  0  0  0
 18 44  1  0  0  0  0
 18 45  1  0  0  0  0
 19 21  2  0  0  0  0
 19 22  1  0  0  0  0
 20 46  1  0  0  0  0
 20 47  1  0  0  0  0
 20 48  1  0  0  0  0
 21 23  1  0  0  0  0
 21 49  1  0  0  0  0
 22 24  2  0  0  0  0
 22 50  1  0  0  0  0
 23 25  2  0  0  0  0
 23 51  1  0  0  0  0
 24 25  1  0  0  0  0
 24 52  1  0  0  0  0
 25 53  1  0  0  0  0
M  END
> <PUBCHEM_COMPOUND_CID>
17395983

> <PUBCHEM_CONFORMER_RMSD>
1

> <PUBCHEM_CONFORMER_DIVERSEORDER>
7
56
40
28
58
16
6
34
50
37
20
44
42
26
14
12
38
52
49
59
27
8
24
13
11
30
31
10
29
36
39
19
35
5
41
47
15
48
53
9
32
43
54
22
45
21
1
55
4
51
17
18
33
60
3
23
46
25
2
57

> <PUBCHEM_MMFF94_PARTIAL_CHARGES>
26
1 -0.57
12 0.33
13 0.27
14 0.57
15 0.06
16 -0.33
17 0.11
18 0.18
19 -0.02
2 -0.81
20 0.18
21 -0.15
22 -0.15
23 -0.15
24 -0.15
25 -0.15
3 -0.49
4 0.59
42 0.37
49 0.15
5 -0.71
50 0.15
51 0.15
52 0.15
53 0.15
6 0.27

> <PUBCHEM_EFFECTIVE_ROTOR_COUNT>
7.2

> <PUBCHEM_PHARMACOPHORE_FEATURES>
7
1 1 acceptor
1 2 cation
1 3 donor
1 5 acceptor
5 4 5 15 16 17 rings
6 19 21 22 23 24 25 rings
6 6 7 8 9 10 11 rings

> <PUBCHEM_HEAVY_ATOM_COUNT>
25

> <PUBCHEM_ATOM_DEF_STEREO_COUNT>
0

> <PUBCHEM_ATOM_UDEF_STEREO_COUNT>
0

> <PUBCHEM_BOND_DEF_STEREO_COUNT>
0

> <PUBCHEM_BOND_UDEF_STEREO_COUNT>
0

> <PUBCHEM_ISOTOPIC_ATOM_COUNT>
0

> <PUBCHEM_COMPONENT_COUNT>
1

> <PUBCHEM_CACTVS_TAUTO_COUNT>
2

> <PUBCHEM_CONFORMER_ID>
0109710F00000007

> <PUBCHEM_MMFF94_ENERGY>
73.8872

> <PUBCHEM_FEATURE_SELFOVERLAP>
35.52

> <PUBCHEM_SHAPE_FINGERPRINT>
10 15 18343297077147310097
10411042 1 17544198177741108959
10493431 412 18411139125844395487
10498660 4 18259983747999933272
11720765 8 17749944596768822966
12390115 104 18187636986461698507
12422481 6 17417814005983852765
12596602 18 17704352195454755473
12760667 363 10015866483557582173
12788726 201 17981898449352821434
12895836 83 18335702702372228568
12895837 130 18197210339989958684
13540713 5 18265074507879797734
13782708 43 13470699143686777568
13965767 371 18131362925080130206
14020679 6 17703785869256294873
14211702 104 8934706808413575181
14251764 75 18409727365567209016
14341114 328 17560802100309770770
14347332 77 8790891774111011859
1454969 45 18409452462861022143
14790565 3 18190175866263653961
14840074 17 17989201525679297364
14848178 5 9655580699247768256
14849402 71 18128538361170990298
15183329 4 7060381418397224385
15188451 53 9583248206107868668
15297060 5 18261106340876728232
15342168 16 18410577322483757615
19377110 9 17703230620041974387
20626108 58 8718836396803891658
21302155 148 18412262830896323261
21315763 87 13758354457861132072
21315764 119 5112009422093353745
21365058 113 17466492830114705927
23559900 14 18115873082208791662
245318 6 17702082695791200196
270888 7 18411139104617582660
2748736 6 18410583902442532045
2838139 119 18261120681213444676
3472631 163 18335417937688102156
350125 39 18194120943938154326
4340502 62 16988839488419055083
5104073 3 18202005438372456498
5219985 13 18407760339370820839
550186 72 18411420601428125109
6034566 193 18337941325352947649
636775 72 17975981960800156800
6438161 24 8286197215289289325
7288768 16 17988923340526449738
7808743 9 18409733919877161162
960060 61 5472852679956281546

> <PUBCHEM_SHAPE_MULTIPOLES>
488.69
16.44
3.43
1.18
1.17
1.36
0.21
-15.76
0.98
0.04
-0.5
-1.84
-0.05
-1.09

> <PUBCHEM_SHAPE_SELFOVERLAP>
1030.297

> <PUBCHEM_SHAPE_VOLUME>
275.7

> <PUBCHEM_COORDINATE_TYPE>
2
5
10

$$$$

