582729
  -OEChem-06241222433D

 31 33  0     1  0  0  0  0  0999 V2000
   -3.4950   -1.5719    1.3911 Cl  0  0  0  0  0  0  0  0  0  0  0  0
   -2.8534    0.3510   -0.3515 N   0  0  0  0  0  0  0  0  0  0  0  0
   -0.2306    0.1772   -0.1031 C   0  0  0  0  0  0  0  0  0  0  0  0
   -0.9613   -1.0927    0.4251 C   0  0  0  0  0  0  0  0  0  0  0  0
   -0.8299    1.3584    0.7133 C   0  0  0  0  0  0  0  0  0  0  0  0
   -0.6779    0.4060   -1.5758 C   0  0  0  0  0  0  0  0  0  0  0  0
   -2.4530   -1.0125    0.0555 C   0  0  1  0  0  0  0  0  0  0  0  0
   -2.3640    1.3488    0.6230 C   0  0  0  0  0  0  0  0  0  0  0  0
   -2.1984    0.6386   -1.6477 C   0  0  0  0  0  0  0  0  0  0  0  0
    1.2879    0.0323   -0.0085 C   0  0  0  0  0  0  0  0  0  0  0  0
    2.0307    0.9240    0.7690 C   0  0  0  0  0  0  0  0  0  0  0  0
    1.9393   -0.9930   -0.6988 C   0  0  0  0  0  0  0  0  0  0  0  0
    3.4166    0.7918    0.8555 C   0  0  0  0  0  0  0  0  0  0  0  0
    3.3252   -1.1252   -0.6121 C   0  0  0  0  0  0  0  0  0  0  0  0
    4.0638   -0.2329    0.1651 C   0  0  0  0  0  0  0  0  0  0  0  0
   -0.8081   -1.1756    1.5095 H   0  0  0  0  0  0  0  0  0  0  0  0
   -0.5463   -2.0074   -0.0155 H   0  0  0  0  0  0  0  0  0  0  0  0
   -0.4527    2.3172    0.3338 H   0  0  0  0  0  0  0  0  0  0  0  0
   -0.5491    1.2895    1.7721 H   0  0  0  0  0  0  0  0  0  0  0  0
   -0.4221   -0.4615   -2.1970 H   0  0  0  0  0  0  0  0  0  0  0  0
   -0.1550    1.2691   -2.0077 H   0  0  0  0  0  0  0  0  0  0  0  0
   -2.6639   -1.7107   -0.7632 H   0  0  0  0  0  0  0  0  0  0  0  0
   -2.7974    1.1659    1.6135 H   0  0  0  0  0  0  0  0  0  0  0  0
   -2.7225    2.3466    0.3391 H   0  0  0  0  0  0  0  0  0  0  0  0
   -2.4094    1.6716   -1.9530 H   0  0  0  0  0  0  0  0  0  0  0  0
   -2.6342    0.0084   -2.4332 H   0  0  0  0  0  0  0  0  0  0  0  0
    1.5781    1.7402    1.3210 H   0  0  0  0  0  0  0  0  0  0  0  0
    1.3877   -1.7000   -1.3119 H   0  0  0  0  0  0  0  0  0  0  0  0
    3.9926    1.4870    1.4594 H   0  0  0  0  0  0  0  0  0  0  0  0
    3.8295   -1.9227   -1.1499 H   0  0  0  0  0  0  0  0  0  0  0  0
    5.1429   -0.3357    0.2322 H   0  0  0  0  0  0  0  0  0  0  0  0
  1  7  1  0  0  0  0
  2  7  1  0  0  0  0
  2  8  1  0  0  0  0
  2  9  1  0  0  0  0
  3  4  1  0  0  0  0
  3  5  1  0  0  0  0
  3  6  1  0  0  0  0
  3 10  1  0  0  0  0
  4  7  1  0  0  0  0
  4 16  1  0  0  0  0
  4 17  1  0  0  0  0
  5  8  1  0  0  0  0
  5 18  1  0  0  0  0
  5 19  1  0  0  0  0
  6  9  1  0  0  0  0
  6 20  1  0  0  0  0
  6 21  1  0  0  0  0
  7 22  1  0  0  0  0
  8 23  1  0  0  0  0
  8 24  1  0  0  0  0
  9 25  1  0  0  0  0
  9 26  1  0  0  0  0
 10 11  2  0  0  0  0
 10 12  1  0  0  0  0
 11 13  1  0  0  0  0
 11 27  1  0  0  0  0
 12 14  2  0  0  0  0
 12 28  1  0  0  0  0
 13 15  2  0  0  0  0
 13 29  1  0  0  0  0
 14 15  1  0  0  0  0
 14 30  1  0  0  0  0
 15 31  1  0  0  0  0
M  END
> <PUBCHEM_COMPOUND_CID>
582729

> <PUBCHEM_CONFORMER_RMSD>
0.6

> <PUBCHEM_CONFORMER_DIVERSEORDER>
1
2

> <PUBCHEM_MMFF94_PARTIAL_CHARGES>
17
1 -0.29
10 -0.14
11 -0.15
12 -0.15
13 -0.15
14 -0.15
15 -0.15
2 -0.81
27 0.15
28 0.15
29 0.15
3 0.14
30 0.15
31 0.15
7 0.56
8 0.27
9 0.27

> <PUBCHEM_EFFECTIVE_ROTOR_COUNT>
2.2

> <PUBCHEM_PHARMACOPHORE_FEATURES>
3
1 2 cation
6 10 11 12 13 14 15 rings
8 2 3 4 5 6 7 8 9 rings

> <PUBCHEM_HEAVY_ATOM_COUNT>
15

> <PUBCHEM_ATOM_DEF_STEREO_COUNT>
0

> <PUBCHEM_ATOM_UDEF_STEREO_COUNT>
1

> <PUBCHEM_BOND_DEF_STEREO_COUNT>
0

> <PUBCHEM_BOND_UDEF_STEREO_COUNT>
0

> <PUBCHEM_ISOTOPIC_ATOM_COUNT>
0

> <PUBCHEM_COMPONENT_COUNT>
1

> <PUBCHEM_CACTVS_TAUTO_COUNT>
1

> <PUBCHEM_CONFORMER_ID>
0008E44900000001

> <PUBCHEM_MMFF94_ENERGY>
52.332

> <PUBCHEM_FEATURE_SELFOVERLAP>
15.223

> <PUBCHEM_SHAPE_FINGERPRINT>
10608611 8 18259990392024456208
11471102 22 18113612365968464618
11543360 7 17346589760466265646
11578080 2 15193627164188669054
12251169 10 17313374600543708419
12932764 1 17489872665268354840
13024252 1 13614519684252763037
13214271 11 18259989266415807888
13296908 3 18408886235066741010
13581323 91 17704075083842862210
13583140 156 17842031869085466376
14144814 61 16732991929013457692
14289901 80 18187931646734546930
15219456 202 18334295357653640474
15309172 13 16443061707595106086
15653759 3 18411696582413196130
15775835 57 17632303418520254248
16945 1 18041282049907329553
17844478 74 18334290959385648288
18175812 5 18411983554942654014
18186145 218 18341332296696311390
19049666 15 18263922322719394538
200 152 17458922490756314229
20201158 50 18334018310862181878
20279233 1 18412834598507183166
20361792 2 16702017530912494543
20645477 70 17822860899848686686
21061003 4 18261954046697852033
21452121 199 17269465436395901955
21524375 3 17246385982748908849
23402539 116 17822017527786837525
23419403 2 17840044952715922029
23557571 272 17989213637418421972
23559900 14 18272657900259095846
2748010 2 18334013916888988164
3248919 1 18408893944680736852
369184 2 17967255303642745517
45790113 50 18187352225412746736
474 4 16228044401123725088
5104073 3 18260547861726020698
77492 1 16081092558594150246

> <PUBCHEM_SHAPE_MULTIPOLES>
305.58
6.46
1.49
1.33
3.34
0.18
0.3
1.48
-1.16
-0.81
-0.31
-0.57
-0.14
1.07

> <PUBCHEM_SHAPE_SELFOVERLAP>
648.87

> <PUBCHEM_SHAPE_VOLUME>
169.1

> <PUBCHEM_COORDINATE_TYPE>
2
5
10

$$$$

