12103
  -OEChem-06261206323D

 15 15  0     0  0  0  0  0  0999 V2000
   -3.1311   -0.7886   -0.8419 Cl  0  0  0  0  0  0  0  0  0  0  0  0
    2.7466   -1.6212   -0.1036 Cl  0  0  0  0  0  0  0  0  0  0  0  0
   -0.8602    0.0512    0.3403 C   0  0  0  0  0  0  0  0  0  0  0  0
    0.1725   -0.8840    0.2715 C   0  0  0  0  0  0  0  0  0  0  0  0
   -0.5936    1.4023    0.1180 C   0  0  0  0  0  0  0  0  0  0  0  0
   -2.2498   -0.3928    0.6507 C   0  0  0  0  0  0  0  0  0  0  0  0
    1.4718   -0.4681   -0.0197 C   0  0  0  0  0  0  0  0  0  0  0  0
    0.7056    1.8182   -0.1731 C   0  0  0  0  0  0  0  0  0  0  0  0
    1.7382    0.8830   -0.2420 C   0  0  0  0  0  0  0  0  0  0  0  0
   -0.0372   -1.9374    0.4438 H   0  0  0  0  0  0  0  0  0  0  0  0
   -1.3895    2.1406    0.1672 H   0  0  0  0  0  0  0  0  0  0  0  0
   -2.8082    0.3874    1.1785 H   0  0  0  0  0  0  0  0  0  0  0  0
   -2.2502   -1.2809    1.2915 H   0  0  0  0  0  0  0  0  0  0  0  0
    0.9130    2.8701   -0.3466 H   0  0  0  0  0  0  0  0  0  0  0  0
    2.7456    1.2217   -0.4698 H   0  0  0  0  0  0  0  0  0  0  0  0
  1  6  1  0  0  0  0
  2  7  1  0  0  0  0
  3  4  2  0  0  0  0
  3  5  1  0  0  0  0
  3  6  1  0  0  0  0
  4  7  1  0  0  0  0
  4 10  1  0  0  0  0
  5  8  2  0  0  0  0
  5 11  1  0  0  0  0
  6 12  1  0  0  0  0
  6 13  1  0  0  0  0
  7  9  2  0  0  0  0
  8  9  1  0  0  0  0
  8 14  1  0  0  0  0
  9 15  1  0  0  0  0
M  END
> <PUBCHEM_COMPOUND_CID>
12103

> <PUBCHEM_CONFORMER_RMSD>
0.4

> <PUBCHEM_CONFORMER_DIVERSEORDER>
1
4
3
2

> <PUBCHEM_MMFF94_PARTIAL_CHARGES>
13
1 -0.29
10 0.15
11 0.15
14 0.15
15 0.15
2 -0.18
3 -0.14
4 -0.15
5 -0.15
6 0.43
7 0.18
8 -0.15
9 -0.15

> <PUBCHEM_EFFECTIVE_ROTOR_COUNT>
1

> <PUBCHEM_PHARMACOPHORE_FEATURES>
1
6 3 4 5 7 8 9 rings

> <PUBCHEM_HEAVY_ATOM_COUNT>
9

> <PUBCHEM_ATOM_DEF_STEREO_COUNT>
0

> <PUBCHEM_ATOM_UDEF_STEREO_COUNT>
0

> <PUBCHEM_BOND_DEF_STEREO_COUNT>
0

> <PUBCHEM_BOND_UDEF_STEREO_COUNT>
0

> <PUBCHEM_ISOTOPIC_ATOM_COUNT>
0

> <PUBCHEM_COMPONENT_COUNT>
1

> <PUBCHEM_CACTVS_TAUTO_COUNT>
1

> <PUBCHEM_CONFORMER_ID>
00002F4700000001

> <PUBCHEM_MMFF94_ENERGY>
17.2219

> <PUBCHEM_FEATURE_SELFOVERLAP>
5.074

> <PUBCHEM_SHAPE_FINGERPRINT>
11206711 2 18129094696420276422
14128692 85 18334010609690375558
16945 1 18267576918860215296
20645477 70 18338806607114261151
20653085 51 13757776174737067118
20711985 344 17843409728304927416
20871998 184 17974284627497612022
21040471 1 17546719357565183376
23552423 10 18129649919954352626
241688 4 18269269239249285480
2748010 2 18340487867223565116
29004967 10 18270674273196151873
5084963 1 18260266382005903610

> <PUBCHEM_SHAPE_MULTIPOLES>
188.96
3.98
1.8
0.79
1.48
0.45
0.03
-2.22
0.72
-0.87
0.13
0.35
-0.08
-0.21

> <PUBCHEM_SHAPE_SELFOVERLAP>
369.293

> <PUBCHEM_SHAPE_VOLUME>
111.7

> <PUBCHEM_COORDINATE_TYPE>
2
5
10

$$$$

