6074
  -OEChem-06261201053D

 47 49  0     1  0  0  0  0  0999 V2000
    3.1661    0.2482   -1.0763 S   0  0  0  0  0  0  0  0  0  0  0  0
   -3.3060    0.1582   -0.1566 N   0  3  0  0  0  0  0  0  0  0  0  0
    0.4277   -0.0542    0.3639 N   0  0  0  0  0  0  0  0  0  0  0  0
   -1.8678    0.3409   -0.4993 C   0  0  1  0  0  0  0  0  0  0  0  0
   -1.0070   -0.2094    0.6368 C   0  0  0  0  0  0  0  0  0  0  0  0
   -3.6561   -1.3319   -0.0739 C   0  0  0  0  0  0  0  0  0  0  0  0
   -3.6245    0.8037    1.1968 C   0  0  0  0  0  0  0  0  0  0  0  0
   -4.2002    0.8047   -1.2209 C   0  0  0  0  0  0  0  0  0  0  0  0
   -1.6034   -0.3156   -1.8475 C   0  0  0  0  0  0  0  0  0  0  0  0
   -5.1284   -1.4810    0.2417 C   0  0  0  0  0  0  0  0  0  0  0  0
    1.2054   -1.2359    0.2669 C   0  0  0  0  0  0  0  0  0  0  0  0
    0.9380    1.2663    0.2841 C   0  0  0  0  0  0  0  0  0  0  0  0
    2.4752   -1.2214   -0.3433 C   0  0  0  0  0  0  0  0  0  0  0  0
    2.1816    1.5286   -0.3241 C   0  0  0  0  0  0  0  0  0  0  0  0
    0.7664   -2.4661    0.8035 C   0  0  0  0  0  0  0  0  0  0  0  0
    0.2497    2.3687    0.8363 C   0  0  0  0  0  0  0  0  0  0  0  0
    3.2454   -2.3948   -0.4304 C   0  0  0  0  0  0  0  0  0  0  0  0
    2.6867    2.8391   -0.3937 C   0  0  0  0  0  0  0  0  0  0  0  0
    1.5380   -3.6282    0.7188 C   0  0  0  0  0  0  0  0  0  0  0  0
    0.7586    3.6686    0.7688 C   0  0  0  0  0  0  0  0  0  0  0  0
    2.7776   -3.5932    0.0982 C   0  0  0  0  0  0  0  0  0  0  0  0
    1.9770    3.9045    0.1502 C   0  0  0  0  0  0  0  0  0  0  0  0
   -1.7174    1.4188   -0.6203 H   0  0  0  0  0  0  0  0  0  0  0  0
   -1.2173    0.2355    1.6140 H   0  0  0  0  0  0  0  0  0  0  0  0
   -1.2739   -1.2491    0.7561 H   0  0  0  0  0  0  0  0  0  0  0  0
   -3.4500   -1.8168   -1.0306 H   0  0  0  0  0  0  0  0  0  0  0  0
   -3.0914   -1.8128    0.7262 H   0  0  0  0  0  0  0  0  0  0  0  0
   -3.1293    1.7787    1.2371 H   0  0  0  0  0  0  0  0  0  0  0  0
   -4.7027    0.9655    1.2863 H   0  0  0  0  0  0  0  0  0  0  0  0
   -3.2873    0.1543    2.0095 H   0  0  0  0  0  0  0  0  0  0  0  0
   -4.2809    0.1486   -2.0918 H   0  0  0  0  0  0  0  0  0  0  0  0
   -5.1973    0.9851   -0.8080 H   0  0  0  0  0  0  0  0  0  0  0  0
   -3.7647    1.7701   -1.4982 H   0  0  0  0  0  0  0  0  0  0  0  0
   -2.2758   -0.0018   -2.6485 H   0  0  0  0  0  0  0  0  0  0  0  0
   -0.6025   -0.0282   -2.1940 H   0  0  0  0  0  0  0  0  0  0  0  0
   -1.5872   -1.4087   -1.8012 H   0  0  0  0  0  0  0  0  0  0  0  0
   -5.3604   -2.5514    0.3075 H   0  0  0  0  0  0  0  0  0  0  0  0
   -5.4166   -1.0575    1.2069 H   0  0  0  0  0  0  0  0  0  0  0  0
   -5.7868   -1.0859   -0.5362 H   0  0  0  0  0  0  0  0  0  0  0  0
   -0.1505   -2.5772    1.3726 H   0  0  0  0  0  0  0  0  0  0  0  0
   -0.6950    2.2534    1.3586 H   0  0  0  0  0  0  0  0  0  0  0  0
    4.2216   -2.3867   -0.9113 H   0  0  0  0  0  0  0  0  0  0  0  0
    3.6418    3.0440   -0.8735 H   0  0  0  0  0  0  0  0  0  0  0  0
    1.1736   -4.5545    1.1536 H   0  0  0  0  0  0  0  0  0  0  0  0
    0.2013    4.4920    1.2059 H   0  0  0  0  0  0  0  0  0  0  0  0
    3.3818   -4.4926    0.0313 H   0  0  0  0  0  0  0  0  0  0  0  0
    2.3764    4.9124    0.0942 H   0  0  0  0  0  0  0  0  0  0  0  0
  1 13  1  0  0  0  0
  1 14  1  0  0  0  0
  2  4  1  0  0  0  0
  2  6  1  0  0  0  0
  2  7  1  0  0  0  0
  2  8  1  0  0  0  0
  3  5  1  0  0  0  0
  3 11  1  0  0  0  0
  3 12  1  0  0  0  0
  4  5  1  0  0  0  0
  4  9  1  0  0  0  0
  4 23  1  0  0  0  0
  5 24  1  0  0  0  0
  5 25  1  0  0  0  0
  6 10  1  0  0  0  0
  6 26  1  0  0  0  0
  6 27  1  0  0  0  0
  7 28  1  0  0  0  0
  7 29  1  0  0  0  0
  7 30  1  0  0  0  0
  8 31  1  0  0  0  0
  8 32  1  0  0  0  0
  8 33  1  0  0  0  0
  9 34  1  0  0  0  0
  9 35  1  0  0  0  0
  9 36  1  0  0  0  0
 10 37  1  0  0  0  0
 10 38  1  0  0  0  0
 10 39  1  0  0  0  0
 11 13  1  0  0  0  0
 11 15  2  0  0  0  0
 12 14  1  0  0  0  0
 12 16  2  0  0  0  0
 13 17  2  0  0  0  0
 14 18  2  0  0  0  0
 15 19  1  0  0  0  0
 15 40  1  0  0  0  0
 16 20  1  0  0  0  0
 16 41  1  0  0  0  0
 17 21  1  0  0  0  0
 17 42  1  0  0  0  0
 18 22  1  0  0  0  0
 18 43  1  0  0  0  0
 19 21  2  0  0  0  0
 19 44  1  0  0  0  0
 20 22  2  0  0  0  0
 20 45  1  0  0  0  0
 21 46  1  0  0  0  0
 22 47  1  0  0  0  0
M  CHG  1   2   1
M  END
> <PUBCHEM_COMPOUND_CID>
6074

> <PUBCHEM_CONFORMER_RMSD>
0.8

> <PUBCHEM_CONFORMER_DIVERSEORDER>
3
1
2

> <PUBCHEM_MMFF94_PARTIAL_CHARGES>
28
1 -0.2
11 0.1
12 0.1
13 0.1
14 0.1
15 -0.15
16 -0.15
17 -0.15
18 -0.15
19 -0.15
2 -1.01
20 -0.15
21 -0.15
22 -0.15
3 -0.57
4 0.5
40 0.15
41 0.15
42 0.15
43 0.15
44 0.15
45 0.15
46 0.15
47 0.15
5 0.37
6 0.5
7 0.5
8 0.5

> <PUBCHEM_EFFECTIVE_ROTOR_COUNT>
4.4

> <PUBCHEM_PHARMACOPHORE_FEATURES>
5
1 2 cation
1 3 cation
6 1 3 11 12 13 14 rings
6 11 13 15 17 19 21 rings
6 12 14 16 18 20 22 rings

> <PUBCHEM_HEAVY_ATOM_COUNT>
22

> <PUBCHEM_ATOM_DEF_STEREO_COUNT>
0

> <PUBCHEM_ATOM_UDEF_STEREO_COUNT>
1

> <PUBCHEM_BOND_DEF_STEREO_COUNT>
0

> <PUBCHEM_BOND_UDEF_STEREO_COUNT>
0

> <PUBCHEM_ISOTOPIC_ATOM_COUNT>
0

> <PUBCHEM_COMPONENT_COUNT>
1

> <PUBCHEM_CACTVS_TAUTO_COUNT>
1

> <PUBCHEM_CONFORMER_ID>
000017BA00000003

> <PUBCHEM_MMFF94_ENERGY>
101.6506

> <PUBCHEM_FEATURE_SELFOVERLAP>
25.402

> <PUBCHEM_SHAPE_FINGERPRINT>
10165383 225 18056464063577603508
10411042 1 18266456705569752522
10693767 8 18114453509860490670
1100329 8 18338799988685143714
11045515 52 18056473096019965988
11265709 11 18122343742507936898
11578080 2 18060426837118627245
12107183 9 18118671361435071449
12553582 1 18193835083546568523
12730499 353 18197208158024837331
12788726 201 17330288671381530715
13004483 165 17834412484731748122
13009979 54 17677320748982246147
13134695 92 18266190593553214988
13140716 1 18192999205717185952
13533116 47 18409448056266852155
13583140 156 18411141312415143055
13681431 1 18266763413462827352
138480 1 18410575127807963274
13911987 19 18199446867052686710
13955234 65 18337671910860656291
14866123 147 16322038802276956363
14955137 171 18339374002210777258
15042514 8 17329702640242134304
15502722 9 18411140190885268149
16087824 20 17474384055554238513
1813 80 17970343934715942487
18785283 64 18270961228593421080
19591789 44 18050845516125306330
19930381 70 18339640027968376385
21041028 32 18122341543278803596
21304303 282 16602998640335596252
21452121 199 18196668490830697354
21524375 3 17912090456004199760
22112679 90 17901090134305126744
221490 88 18341607105789443899
2255824 54 18408604725529799454
23419403 2 17341297897096343296
23557571 272 17834702739054096330
23558518 356 17325497605071341988
23559900 14 18339938090488618123
23566358 27 18336549296509284623
23598288 3 17974570504731210646
23598291 2 18114169870019555153
238 59 18267590117426636603
25 1 18265049124553921932
2748010 2 17833529221124215972
3091708 16 9215436333451746248
314173 41 18337669849081584207
3323516 105 18341045233761634711
350125 39 18052815845510299874
352729 6 17400645922153065352
458136 41 18196362633345609681
474 4 18191870024244579184
5845 1 6531045592488833112
6287921 2 18057879152517416829
6438718 38 17105394550072237188
6442390 28 17835518224278017235
6443956 14 18340488975472645180
7164475 11 17761774366198486270
7364860 26 18410295782960971027
7471813 234 18193007134284804126
81228 2 17402077963023048880
84936 182 18261952925442745784

> <PUBCHEM_SHAPE_MULTIPOLES>
446.64
7.25
4.89
1.15
9.95
0.79
0.28
-2.35
1.21
-5.87
-1.32
0.49
0.09
-0.08

> <PUBCHEM_SHAPE_SELFOVERLAP>
932.679

> <PUBCHEM_SHAPE_VOLUME>
256.3

> <PUBCHEM_COORDINATE_TYPE>
2
5
10

$$$$

