17395938
  -OEChem-06241222532D

 46 48  0     1  0  0  0  0  0999 V2000
    6.6962    2.5194    0.0000 S   0  0  0  0  0  0  0  0  0  0  0  0
    6.6962    3.5194    0.0000 O   0  0  0  0  0  0  0  0  0  0  0  0
    5.7451    2.8284    0.0000 O   0  0  0  0  0  0  0  0  0  0  0  0
    5.4641   -0.0194    0.0000 O   0  0  0  0  0  0  0  0  0  0  0  0
    4.5981   -1.5194    0.0000 O   0  0  0  0  0  0  0  0  0  0  0  0
    7.1962   -0.0194    0.0000 N   0  0  0  0  0  0  0  0  0  0  0  0
    7.1962    0.9806    0.0000 C   0  0  3  0  0  0  0  0  0  0  0  0
    6.3871    1.5684    0.0000 C   0  0  0  0  0  0  0  0  0  0  0  0
    8.0052    1.5684    0.0000 C   0  0  0  0  0  0  0  0  0  0  0  0
    7.6962    2.5194    0.0000 C   0  0  0  0  0  0  0  0  0  0  0  0
    8.0622   -0.5194    0.0000 C   0  0  0  0  0  0  0  0  0  0  0  0
    6.3301   -0.5194    0.0000 C   0  0  0  0  0  0  0  0  0  0  0  0
    8.9282   -0.0194    0.0000 C   0  0  0  0  0  0  0  0  0  0  0  0
    6.3301   -1.5194    0.0000 C   0  0  0  0  0  0  0  0  0  0  0  0
    5.4641   -2.0194    0.0000 C   0  0  0  0  0  0  0  0  0  0  0  0
    7.1962   -2.0194    0.0000 C   0  0  0  0  0  0  0  0  0  0  0  0
    5.4641   -3.0194    0.0000 C   0  0  0  0  0  0  0  0  0  0  0  0
    7.1962   -3.0194    0.0000 C   0  0  0  0  0  0  0  0  0  0  0  0
    6.3301   -3.5194    0.0000 C   0  0  0  0  0  0  0  0  0  0  0  0
    3.7320   -2.0194    0.0000 C   0  0  0  0  0  0  0  0  0  0  0  0
    2.8660   -1.5194    0.0000 C   0  0  0  0  0  0  0  0  0  0  0  0
    3.7320   -3.0194    0.0000 C   0  0  0  0  0  0  0  0  0  0  0  0
    2.0000   -2.0194    0.0000 C   0  0  0  0  0  0  0  0  0  0  0  0
    2.8660   -3.5194    0.0000 C   0  0  0  0  0  0  0  0  0  0  0  0
    2.0000   -3.0194    0.0000 C   0  0  0  0  0  0  0  0  0  0  0  0
    6.6437    0.6991    0.0000 H   0  0  0  0  0  0  0  0  0  0  0  0
    5.8207    1.8205    0.0000 H   0  0  0  0  0  0  0  0  0  0  0  0
    6.0771    1.0314    0.0000 H   0  0  0  0  0  0  0  0  0  0  0  0
    8.3152    1.0314    0.0000 H   0  0  0  0  0  0  0  0  0  0  0  0
    8.5716    1.8205    0.0000 H   0  0  0  0  0  0  0  0  0  0  0  0
    8.3026    2.6483    0.0000 H   0  0  0  0  0  0  0  0  0  0  0  0
    7.6313    3.1360    0.0000 H   0  0  0  0  0  0  0  0  0  0  0  0
    7.6636   -0.9944    0.0000 H   0  0  0  0  0  0  0  0  0  0  0  0
    8.4607   -0.9944    0.0000 H   0  0  0  0  0  0  0  0  0  0  0  0
    9.2382   -0.5564    0.0000 H   0  0  0  0  0  0  0  0  0  0  0  0
    9.4651    0.2906    0.0000 H   0  0  0  0  0  0  0  0  0  0  0  0
    8.6182    0.5175    0.0000 H   0  0  0  0  0  0  0  0  0  0  0  0
    7.7331   -1.7094    0.0000 H   0  0  0  0  0  0  0  0  0  0  0  0
    4.9272   -3.3294    0.0000 H   0  0  0  0  0  0  0  0  0  0  0  0
    7.7331   -3.3294    0.0000 H   0  0  0  0  0  0  0  0  0  0  0  0
    6.3301   -4.1394    0.0000 H   0  0  0  0  0  0  0  0  0  0  0  0
    2.8660   -0.8994    0.0000 H   0  0  0  0  0  0  0  0  0  0  0  0
    4.2690   -3.3294    0.0000 H   0  0  0  0  0  0  0  0  0  0  0  0
    1.4631   -1.7094    0.0000 H   0  0  0  0  0  0  0  0  0  0  0  0
    2.8660   -4.1394    0.0000 H   0  0  0  0  0  0  0  0  0  0  0  0
    1.4631   -3.3294    0.0000 H   0  0  0  0  0  0  0  0  0  0  0  0
  1  2  2  0  0  0  0
  1  3  2  0  0  0  0
  1  8  1  0  0  0  0
  1 10  1  0  0  0  0
  4 12  2  0  0  0  0
  5 15  1  0  0  0  0
  5 20  1  0  0  0  0
  6  7  1  0  0  0  0
  6 11  1  0  0  0  0
  6 12  1  0  0  0  0
  7  8  1  0  0  0  0
  7  9  1  0  0  0  0
  7 26  1  0  0  0  0
  8 27  1  0  0  0  0
  8 28  1  0  0  0  0
  9 10  1  0  0  0  0
  9 29  1  0  0  0  0
  9 30  1  0  0  0  0
 10 31  1  0  0  0  0
 10 32  1  0  0  0  0
 11 13  1  0  0  0  0
 11 33  1  0  0  0  0
 11 34  1  0  0  0  0
 12 14  1  0  0  0  0
 13 35  1  0  0  0  0
 13 36  1  0  0  0  0
 13 37  1  0  0  0  0
 14 15  1  0  0  0  0
 14 16  2  0  0  0  0
 15 17  2  0  0  0  0
 16 18  1  0  0  0  0
 16 38  1  0  0  0  0
 17 19  1  0  0  0  0
 17 39  1  0  0  0  0
 18 19  2  0  0  0  0
 18 40  1  0  0  0  0
 19 41  1  0  0  0  0
 20 21  2  0  0  0  0
 20 22  1  0  0  0  0
 21 23  1  0  0  0  0
 21 42  1  0  0  0  0
 22 24  2  0  0  0  0
 22 43  1  0  0  0  0
 23 25  2  0  0  0  0
 23 44  1  0  0  0  0
 24 25  1  0  0  0  0
 24 45  1  0  0  0  0
 25 46  1  0  0  0  0
M  END
> <PUBCHEM_COMPOUND_CID>
17395938

> <PUBCHEM_COMPOUND_CANONICALIZED>
1

> <PUBCHEM_CACTVS_COMPLEXITY>
550

> <PUBCHEM_CACTVS_HBOND_ACCEPTOR>
4

> <PUBCHEM_CACTVS_HBOND_DONOR>
0

> <PUBCHEM_CACTVS_ROTATABLE_BOND>
5

> <PUBCHEM_CACTVS_SUBSKEYS>
AAADceB6OABAAAAAAAAAAAAAAAAAASAAAAAwYAAAAAAAAAABQAAAHgQAAAAADCzF2ASyBoMABAqIAiFSEHDCCAAkIBAIiAEODMgMJjaktRuGOWjm5hGoqYeYyCCOAAAAAAAIAAAAAAAAABAAAAAAAAAAAA==

> <PUBCHEM_IUPAC_OPENEYE_NAME>
N-(1,1-dioxothiolan-3-yl)-N-ethyl-2-phenoxy-benzamide

> <PUBCHEM_IUPAC_CAS_NAME>
N-(1,1-dioxo-3-thiolanyl)-N-ethyl-2-phenoxybenzamide

> <PUBCHEM_IUPAC_NAME>
N-(1,1-dioxothiolan-3-yl)-N-ethyl-2-phenoxybenzamide

> <PUBCHEM_IUPAC_SYSTEMATIC_NAME>
N-[1,1-bis(oxidanylidene)thiolan-3-yl]-N-ethyl-2-phenoxy-benzamide

> <PUBCHEM_IUPAC_TRADITIONAL_NAME>
N-(1,1-diketothiolan-3-yl)-N-ethyl-2-phenoxy-benzamide

> <PUBCHEM_IUPAC_INCHI>
InChI=1S/C19H21NO4S/c1-2-20(15-12-13-25(22,23)14-15)19(21)17-10-6-7-11-18(17)24-16-8-4-3-5-9-16/h3-11,15H,2,12-14H2,1H3

> <PUBCHEM_IUPAC_INCHIKEY>
ICMDKPBRORSNHB-UHFFFAOYSA-N

> <PUBCHEM_XLOGP3_AA>
2.9

> <PUBCHEM_EXACT_MASS>
359.119129

> <PUBCHEM_MOLECULAR_FORMULA>
C19H21NO4S

> <PUBCHEM_MOLECULAR_WEIGHT>
359.43934

> <PUBCHEM_OPENEYE_CAN_SMILES>
CCN(C1CCS(=O)(=O)C1)C(=O)C2=CC=CC=C2OC3=CC=CC=C3

> <PUBCHEM_OPENEYE_ISO_SMILES>
CCN(C1CCS(=O)(=O)C1)C(=O)C2=CC=CC=C2OC3=CC=CC=C3

> <PUBCHEM_CACTVS_TPSA>
72.1

> <PUBCHEM_MONOISOTOPIC_WEIGHT>
359.119129

> <PUBCHEM_TOTAL_CHARGE>
0

> <PUBCHEM_HEAVY_ATOM_COUNT>
25

> <PUBCHEM_ATOM_DEF_STEREO_COUNT>
0

> <PUBCHEM_ATOM_UDEF_STEREO_COUNT>
1

> <PUBCHEM_BOND_DEF_STEREO_COUNT>
0

> <PUBCHEM_BOND_UDEF_STEREO_COUNT>
0

> <PUBCHEM_ISOTOPIC_ATOM_COUNT>
0

> <PUBCHEM_COMPONENT_COUNT>
1

> <PUBCHEM_CACTVS_TAUTO_COUNT>
1

> <PUBCHEM_COORDINATE_TYPE>
1
5
255

> <PUBCHEM_BONDANNOTATIONS>
14  15  8
14  16  8
15  17  8
16  18  8
17  19  8
18  19  8
20  21  8
20  22  8
21  23  8
22  24  8
23  25  8
24  25  8
7  6  3

$$$$

