12387
  -OEChem-06261206533D

 28 27  0     0  0  0  0  0  0999 V2000
   -3.7320    0.3907   -0.0109 O   0  0  0  0  0  0  0  0  0  0  0  0
   -6.0054    0.3688   -0.0425 O   0  0  0  0  0  0  0  0  0  0  0  0
   -4.9136   -0.4016   -0.0319 N   0  0  0  0  0  0  0  0  0  0  0  0
    1.1855    0.3633    0.0830 C   0  0  0  0  0  0  0  0  0  0  0  0
    2.4791   -0.4561    0.0588 C   0  0  0  0  0  0  0  0  0  0  0  0
   -0.0799   -0.4949    0.0184 C   0  0  0  0  0  0  0  0  0  0  0  0
    3.7446    0.4040    0.0490 C   0  0  0  0  0  0  0  0  0  0  0  0
   -1.3375    0.3728    0.0221 C   0  0  0  0  0  0  0  0  0  0  0  0
    5.0014   -0.4622   -0.0484 C   0  0  0  0  0  0  0  0  0  0  0  0
   -2.6033   -0.4724   -0.0004 C   0  0  0  0  0  0  0  0  0  0  0  0
    6.2611    0.3877   -0.0972 C   0  0  0  0  0  0  0  0  0  0  0  0
    1.1661    0.9738    0.9942 H   0  0  0  0  0  0  0  0  0  0  0  0
    1.1893    1.0601   -0.7645 H   0  0  0  0  0  0  0  0  0  0  0  0
    2.4990   -1.1233    0.9295 H   0  0  0  0  0  0  0  0  0  0  0  0
    2.4743   -1.0980   -0.8311 H   0  0  0  0  0  0  0  0  0  0  0  0
   -0.0991   -1.1795    0.8748 H   0  0  0  0  0  0  0  0  0  0  0  0
   -0.0601   -1.1111   -0.8885 H   0  0  0  0  0  0  0  0  0  0  0  0
    3.7818    1.0132    0.9599 H   0  0  0  0  0  0  0  0  0  0  0  0
    3.7091    1.0954   -0.8016 H   0  0  0  0  0  0  0  0  0  0  0  0
   -1.3348    1.0485   -0.8424 H   0  0  0  0  0  0  0  0  0  0  0  0
   -1.3505    1.0197    0.9083 H   0  0  0  0  0  0  0  0  0  0  0  0
    5.0547   -1.1383    0.8127 H   0  0  0  0  0  0  0  0  0  0  0  0
    4.9560   -1.0859   -0.9488 H   0  0  0  0  0  0  0  0  0  0  0  0
   -2.6114   -1.1046   -0.8975 H   0  0  0  0  0  0  0  0  0  0  0  0
   -2.6359   -1.1162    0.8880 H   0  0  0  0  0  0  0  0  0  0  0  0
    6.3539    1.0032    0.8034 H   0  0  0  0  0  0  0  0  0  0  0  0
    6.2535    1.0512   -0.9678 H   0  0  0  0  0  0  0  0  0  0  0  0
    7.1471   -0.2513   -0.1649 H   0  0  0  0  0  0  0  0  0  0  0  0
  1  3  1  0  0  0  0
  1 10  1  0  0  0  0
  2  3  2  0  0  0  0
  4  5  1  0  0  0  0
  4  6  1  0  0  0  0
  4 12  1  0  0  0  0
  4 13  1  0  0  0  0
  5  7  1  0  0  0  0
  5 14  1  0  0  0  0
  5 15  1  0  0  0  0
  6  8  1  0  0  0  0
  6 16  1  0  0  0  0
  6 17  1  0  0  0  0
  7  9  1  0  0  0  0
  7 18  1  0  0  0  0
  7 19  1  0  0  0  0
  8 10  1  0  0  0  0
  8 20  1  0  0  0  0
  8 21  1  0  0  0  0
  9 11  1  0  0  0  0
  9 22  1  0  0  0  0
  9 23  1  0  0  0  0
 10 24  1  0  0  0  0
 10 25  1  0  0  0  0
 11 26  1  0  0  0  0
 11 27  1  0  0  0  0
 11 28  1  0  0  0  0
M  END
> <PUBCHEM_COMPOUND_CID>
12387

> <PUBCHEM_CONFORMER_RMSD>
0.8

> <PUBCHEM_CONFORMER_DIVERSEORDER>
1
8
58
11
5
112
3
191
170
92
114
59
165
15
100
65
22
142
39
13
106
153
4
38
149
148
188
186
2
7
158
53
47
97
26
108
101
12
49
139
32
50
72
135
128
88
44
160
117
120
107
118
54
93
189
35
115
46
190
62
178
177
41
152
40
52
154
37
42
122
159
185
171
79
95
75
174
34
145
146
43
86
144
18
113
6
81
48
24
134
157
184
126
156
87
80
82
61
71
164
96
77
56
28
181
66
173
16
161
182
68
20
104
136
78
130
29
30
90
127
57
129
141
23
69
175
183
123
89
45
9
131
150
121
138
36
74
25
172
155
105
67
91
10
17
27
33
103
163
85
19
63
109
99
98
76
84
162
55
187
21
110
133
176
51
31
169
73
124
143
166
111
14
116
70
151
125
179
94
168
64
180
83
119
102
137
60
147
140
132
167

> <PUBCHEM_MMFF94_PARTIAL_CHARGES>
4
1 -0.09
10 0.28
2 -0.3
3 0.12

> <PUBCHEM_EFFECTIVE_ROTOR_COUNT>
8

> <PUBCHEM_PHARMACOPHORE_FEATURES>
3
1 11 hydrophobe
3 4 6 8 hydrophobe
3 5 7 9 hydrophobe

> <PUBCHEM_HEAVY_ATOM_COUNT>
11

> <PUBCHEM_ATOM_DEF_STEREO_COUNT>
0

> <PUBCHEM_ATOM_UDEF_STEREO_COUNT>
0

> <PUBCHEM_BOND_DEF_STEREO_COUNT>
0

> <PUBCHEM_BOND_UDEF_STEREO_COUNT>
0

> <PUBCHEM_ISOTOPIC_ATOM_COUNT>
0

> <PUBCHEM_COMPONENT_COUNT>
1

> <PUBCHEM_CACTVS_TAUTO_COUNT>
1

> <PUBCHEM_CONFORMER_ID>
0000306300000001

> <PUBCHEM_MMFF94_ENERGY>
-0.5738

> <PUBCHEM_FEATURE_SELFOVERLAP>
15.236

> <PUBCHEM_SHAPE_FINGERPRINT>
12815109 37 18410856563955875372
14123238 8 18410856568245567918
14251718 22 18411982450962121794
17834072 33 18114184094845503972
17834076 25 18411419509598498626
187816 3 16081367453459709626
20645477 70 18187924053776226030
20719005 15 18409167714417358322
20767249 213 17418372480823573596
23402539 116 17822016402067471725
23521765 1 18335420166369705988
366044 4 18342175561780064954
42788 4 18410856559650358560
8209 1 18410575084663085436

> <PUBCHEM_SHAPE_MULTIPOLES>
209.66
15.01
0.77
0.59
2.93
0.02
0
-1.16
-0.58
-0.14
0
-0.14
0
0

> <PUBCHEM_SHAPE_SELFOVERLAP>
368.404

> <PUBCHEM_SHAPE_VOLUME>
138.1

> <PUBCHEM_COORDINATE_TYPE>
2
5
10

$$$$

