4977
  -OEChem-06261200273D

 31 32  0     1  0  0  0  0  0999 V2000
   -3.6483   -0.7720    1.1762 O   0  0  0  0  0  0  0  0  0  0  0  0
   -0.3749    2.2442   -0.4033 O   0  0  0  0  0  0  0  0  0  0  0  0
    3.8841    0.4652    0.4387 O   0  0  0  0  0  0  0  0  0  0  0  0
   -1.2972   -0.5988   -0.5288 N   0  0  0  0  0  0  0  0  0  0  0  0
    2.1179   -1.0174    0.1280 N   0  0  0  0  0  0  0  0  0  0  0  0
    1.7675    1.3768    0.0200 N   0  0  0  0  0  0  0  0  0  0  0  0
    0.0715   -2.3345   -0.2388 N   0  0  0  0  0  0  0  0  0  0  0  0
   -0.0574   -0.0739   -0.3013 C   0  0  0  0  0  0  0  0  0  0  0  0
   -2.5243    0.1200   -0.7753 C   0  0  0  0  0  0  0  0  0  0  0  0
    0.7606   -1.1568   -0.1275 C   0  0  0  0  0  0  0  0  0  0  0  0
   -3.2920    0.4378    0.5110 C   0  0  1  0  0  0  0  0  0  0  0  0
    0.3748    1.2848   -0.2429 C   0  0  0  0  0  0  0  0  0  0  0  0
   -1.1686   -1.9631   -0.4812 C   0  0  0  0  0  0  0  0  0  0  0  0
    2.6828    0.2797    0.2134 C   0  0  0  0  0  0  0  0  0  0  0  0
   -4.5827    1.1836    0.2020 C   0  0  0  0  0  0  0  0  0  0  0  0
    2.9561   -2.1964    0.3069 C   0  0  0  0  0  0  0  0  0  0  0  0
    2.3302    2.7207    0.1029 C   0  0  0  0  0  0  0  0  0  0  0  0
   -3.1321   -0.5217   -1.4264 H   0  0  0  0  0  0  0  0  0  0  0  0
   -2.2947    1.0248   -1.3457 H   0  0  0  0  0  0  0  0  0  0  0  0
   -2.6679    1.0266    1.1926 H   0  0  0  0  0  0  0  0  0  0  0  0
   -2.0065   -2.6308   -0.6296 H   0  0  0  0  0  0  0  0  0  0  0  0
   -5.1314    1.4013    1.1247 H   0  0  0  0  0  0  0  0  0  0  0  0
   -4.3811    2.1286   -0.3116 H   0  0  0  0  0  0  0  0  0  0  0  0
   -5.2477    0.5779   -0.4237 H   0  0  0  0  0  0  0  0  0  0  0  0
    3.9972   -1.9260    0.5003 H   0  0  0  0  0  0  0  0  0  0  0  0
    2.9123   -2.8042   -0.6020 H   0  0  0  0  0  0  0  0  0  0  0  0
    2.5783   -2.7750    1.1555 H   0  0  0  0  0  0  0  0  0  0  0  0
    1.5842    3.5035   -0.0512 H   0  0  0  0  0  0  0  0  0  0  0  0
    3.1162    2.8170   -0.6529 H   0  0  0  0  0  0  0  0  0  0  0  0
    2.7879    2.8471    1.0892 H   0  0  0  0  0  0  0  0  0  0  0  0
   -4.1036   -0.5313    2.0010 H   0  0  0  0  0  0  0  0  0  0  0  0
  1 11  1  0  0  0  0
  1 31  1  0  0  0  0
  2 12  2  0  0  0  0
  3 14  2  0  0  0  0
  4  8  1  0  0  0  0
  4  9  1  0  0  0  0
  4 13  1  0  0  0  0
  5 10  1  0  0  0  0
  5 14  1  0  0  0  0
  5 16  1  0  0  0  0
  6 12  1  0  0  0  0
  6 14  1  0  0  0  0
  6 17  1  0  0  0  0
  7 10  1  0  0  0  0
  7 13  2  0  0  0  0
  8 10  2  0  0  0  0
  8 12  1  0  0  0  0
  9 11  1  0  0  0  0
  9 18  1  0  0  0  0
  9 19  1  0  0  0  0
 11 15  1  0  0  0  0
 11 20  1  0  0  0  0
 13 21  1  0  0  0  0
 15 22  1  0  0  0  0
 15 23  1  0  0  0  0
 15 24  1  0  0  0  0
 16 25  1  0  0  0  0
 16 26  1  0  0  0  0
 16 27  1  0  0  0  0
 17 28  1  0  0  0  0
 17 29  1  0  0  0  0
 17 30  1  0  0  0  0
M  END
> <PUBCHEM_COMPOUND_CID>
4977

> <PUBCHEM_CONFORMER_RMSD>
0.6

> <PUBCHEM_CONFORMER_DIVERSEORDER>
1
2
7
4
3
5
6

> <PUBCHEM_MMFF94_PARTIAL_CHARGES>
18
1 -0.68
10 0.29
11 0.28
12 0.71
13 0.04
14 0.69
16 0.3
17 0.3
2 -0.57
21 0.15
3 -0.57
31 0.4
4 0.05
5 -0.42
6 -0.42
7 -0.57
8 -0.24
9 0.26

> <PUBCHEM_EFFECTIVE_ROTOR_COUNT>
2

> <PUBCHEM_PHARMACOPHORE_FEATURES>
7
1 1 acceptor
1 1 donor
1 2 acceptor
1 3 acceptor
3 4 7 13 cation
5 4 7 8 10 13 rings
6 5 6 8 10 12 14 rings

> <PUBCHEM_HEAVY_ATOM_COUNT>
17

> <PUBCHEM_ATOM_DEF_STEREO_COUNT>
0

> <PUBCHEM_ATOM_UDEF_STEREO_COUNT>
1

> <PUBCHEM_BOND_DEF_STEREO_COUNT>
0

> <PUBCHEM_BOND_UDEF_STEREO_COUNT>
0

> <PUBCHEM_ISOTOPIC_ATOM_COUNT>
0

> <PUBCHEM_COMPONENT_COUNT>
1

> <PUBCHEM_CACTVS_TAUTO_COUNT>
1

> <PUBCHEM_CONFORMER_ID>
0000137100000001

> <PUBCHEM_MMFF94_ENERGY>
25.686

> <PUBCHEM_FEATURE_SELFOVERLAP>
35.635

> <PUBCHEM_SHAPE_FINGERPRINT>
10219947 1 18337672013744705023
10411042 1 17544758292984199911
10967382 1 18410299133325553900
10980938 120 18411699855009385926
11132069 177 18261403247111828866
11471102 20 18338804514995059389
11471102 22 18342726412847017155
12251169 10 18409731742091118355
12382932 28 18337116657224722506
12390115 104 17759790456348754176
13140716 1 18195535800802099280
13172582 1 18409452504866358367
13380535 21 18268705013642928910
14178342 30 17977117768435908584
14790565 3 18339912732780981628
15442244 35 18408608071330623423
16945 1 18339373997725574172
17844478 74 17846782922725880069
18186145 218 18260547835576213199
21029758 27 18270677705339251470
21501502 16 18194126205066960966
21524375 3 18187365389988597607
22094290 62 18408605855201059329
22182313 1 18195260033900131076
23184049 59 18410011065463241517
2334 1 17835248848482694324
23463225 33 18411702096977026773
23557571 272 13984664724883027929
2748010 2 18050021166320520548
7832392 63 18335144150481207390

> <PUBCHEM_SHAPE_MULTIPOLES>
312.32
6.45
2.66
0.77
4.31
0.32
-0.04
1.25
-1.7
-1.68
0.1
0.4
-0.07
-0.06

> <PUBCHEM_SHAPE_SELFOVERLAP>
659.982

> <PUBCHEM_SHAPE_VOLUME>
177

> <PUBCHEM_COORDINATE_TYPE>
2
5
10

$$$$

