8261
  -OEChem-06261202423D

 17 16  0     0  0  0  0  0  0999 V2000
    1.2017   -1.2953   -0.0093 O   0  0  0  0  0  0  0  0  0  0  0  0
   -1.4553   -1.2173   -0.0112 O   0  0  0  0  0  0  0  0  0  0  0  0
    0.6345    0.0074   -0.0008 C   0  0  0  0  0  0  0  0  0  0  0  0
    1.1201    0.7513   -1.2453 C   0  0  0  0  0  0  0  0  0  0  0  0
    1.1020    0.7239    1.2627 C   0  0  0  0  0  0  0  0  0  0  0  0
   -0.8937   -0.1204    0.0068 C   0  0  0  0  0  0  0  0  0  0  0  0
   -1.7092    1.1505   -0.0029 C   0  0  0  0  0  0  0  0  0  0  0  0
    2.2141    0.7367   -1.3098 H   0  0  0  0  0  0  0  0  0  0  0  0
    0.7455    0.2660   -2.1541 H   0  0  0  0  0  0  0  0  0  0  0  0
    0.7912    1.7950   -1.2596 H   0  0  0  0  0  0  0  0  0  0  0  0
    0.7808    1.7698    1.2925 H   0  0  0  0  0  0  0  0  0  0  0  0
    0.7127    0.2248    2.1579 H   0  0  0  0  0  0  0  0  0  0  0  0
    2.1949    0.7028    1.3443 H   0  0  0  0  0  0  0  0  0  0  0  0
   -1.4816    1.7586    0.8746 H   0  0  0  0  0  0  0  0  0  0  0  0
   -2.7729    0.8951    0.0307 H   0  0  0  0  0  0  0  0  0  0  0  0
   -1.5231    1.7142   -0.9191 H   0  0  0  0  0  0  0  0  0  0  0  0
    2.1701   -1.2071    0.0031 H   0  0  0  0  0  0  0  0  0  0  0  0
  1  3  1  0  0  0  0
  1 17  1  0  0  0  0
  2  6  2  0  0  0  0
  3  4  1  0  0  0  0
  3  5  1  0  0  0  0
  3  6  1  0  0  0  0
  4  8  1  0  0  0  0
  4  9  1  0  0  0  0
  4 10  1  0  0  0  0
  5 11  1  0  0  0  0
  5 12  1  0  0  0  0
  5 13  1  0  0  0  0
  6  7  1  0  0  0  0
  7 14  1  0  0  0  0
  7 15  1  0  0  0  0
  7 16  1  0  0  0  0
M  END
> <PUBCHEM_COMPOUND_CID>
8261

> <PUBCHEM_CONFORMER_RMSD>
0.4

> <PUBCHEM_CONFORMER_DIVERSEORDER>
1
5
4
3
2

> <PUBCHEM_MMFF94_PARTIAL_CHARGES>
6
1 -0.68
17 0.4
2 -0.57
3 0.34
6 0.45
7 0.06

> <PUBCHEM_EFFECTIVE_ROTOR_COUNT>
1

> <PUBCHEM_PHARMACOPHORE_FEATURES>
4
1 1 acceptor
1 1 donor
1 2 acceptor
3 3 4 5 hydrophobe

> <PUBCHEM_HEAVY_ATOM_COUNT>
7

> <PUBCHEM_ATOM_DEF_STEREO_COUNT>
0

> <PUBCHEM_ATOM_UDEF_STEREO_COUNT>
0

> <PUBCHEM_BOND_DEF_STEREO_COUNT>
0

> <PUBCHEM_BOND_UDEF_STEREO_COUNT>
0

> <PUBCHEM_ISOTOPIC_ATOM_COUNT>
0

> <PUBCHEM_COMPONENT_COUNT>
1

> <PUBCHEM_CACTVS_TAUTO_COUNT>
2

> <PUBCHEM_CONFORMER_ID>
0000204500000001

> <PUBCHEM_MMFF94_ENERGY>
11.6422

> <PUBCHEM_FEATURE_SELFOVERLAP>
20.306

> <PUBCHEM_SHAPE_FINGERPRINT>
137420 1 8678297934988287804
20096714 4 17916851504429299781
21040471 1 18338517551045031841
24536 1 18131074809561558231
29004967 10 17272270612406241706
5084963 1 18198339761532262665
5943 1 13681532937795785128

> <PUBCHEM_SHAPE_MULTIPOLES>
132.32
2.01
1.31
1.08
0.62
0.22
0.02
-0.17
-0.01
0.17
-0.02
-0.54
-0.35
-0.01

> <PUBCHEM_SHAPE_SELFOVERLAP>
244.001

> <PUBCHEM_SHAPE_VOLUME>
85

> <PUBCHEM_COORDINATE_TYPE>
2
5
10

$$$$

