4849
  -OEChem-06261200223D

 43 45  0     0  0  0  0  0  0999 V2000
   -0.4451   -2.8833   -0.8600 S   0  0  0  0  0  0  0  0  0  0  0  0
    1.0999   -0.3220   -1.0349 O   0  0  0  0  0  0  0  0  0  0  0  0
   -1.5941   -3.7105   -1.1960 O   0  0  0  0  0  0  0  0  0  0  0  0
    0.6620   -2.7635   -1.7966 O   0  0  0  0  0  0  0  0  0  0  0  0
   -4.4886    1.6283    0.9924 O   0  0  0  0  0  0  0  0  0  0  0  0
   -5.0059   -0.5822    0.8815 O   0  0  0  0  0  0  0  0  0  0  0  0
    0.1812    2.2597   -0.4209 N   0  0  0  0  0  0  0  0  0  0  0  0
    0.1672   -3.3761    0.6564 N   0  0  0  0  0  0  0  0  0  0  0  0
    0.0633    3.4591    0.4048 C   0  0  0  0  0  0  0  0  0  0  0  0
    1.2676    2.3773   -1.3904 C   0  0  0  0  0  0  0  0  0  0  0  0
    1.3425    4.2365    0.1029 C   0  0  0  0  0  0  0  0  0  0  0  0
    1.6466    3.8555   -1.3355 C   0  0  0  0  0  0  0  0  0  0  0  0
   -0.6314    1.1531   -0.2992 C   0  0  0  0  0  0  0  0  0  0  0  0
   -0.1858   -0.1656   -0.6052 C   0  0  0  0  0  0  0  0  0  0  0  0
   -1.9792    1.2688    0.1454 C   0  0  0  0  0  0  0  0  0  0  0  0
   -1.0203   -1.2760   -0.4768 C   0  0  0  0  0  0  0  0  0  0  0  0
   -2.8136    0.1586    0.2738 C   0  0  0  0  0  0  0  0  0  0  0  0
   -2.3341   -1.1139   -0.0371 C   0  0  0  0  0  0  0  0  0  0  0  0
   -4.1835    0.3275    0.7320 C   0  0  0  0  0  0  0  0  0  0  0  0
    2.0732   -0.5394   -0.0765 C   0  0  0  0  0  0  0  0  0  0  0  0
    1.7083   -0.5886    1.2576 C   0  0  0  0  0  0  0  0  0  0  0  0
    3.3886   -0.7021   -0.4748 C   0  0  0  0  0  0  0  0  0  0  0  0
    2.6900   -0.8071    2.2241 C   0  0  0  0  0  0  0  0  0  0  0  0
    4.3702   -0.9207    0.4917 C   0  0  0  0  0  0  0  0  0  0  0  0
    4.0209   -0.9732    1.8412 C   0  0  0  0  0  0  0  0  0  0  0  0
   -0.0081    3.2238    1.4719 H   0  0  0  0  0  0  0  0  0  0  0  0
   -0.8133    4.0433    0.1028 H   0  0  0  0  0  0  0  0  0  0  0  0
    0.9670    2.0866   -2.4023 H   0  0  0  0  0  0  0  0  0  0  0  0
    2.1524    1.8183   -1.0864 H   0  0  0  0  0  0  0  0  0  0  0  0
    2.1526    3.8942    0.7584 H   0  0  0  0  0  0  0  0  0  0  0  0
    1.2207    5.3141    0.2428 H   0  0  0  0  0  0  0  0  0  0  0  0
    1.0078    4.4312   -2.0163 H   0  0  0  0  0  0  0  0  0  0  0  0
    2.6894    4.0337   -1.6128 H   0  0  0  0  0  0  0  0  0  0  0  0
   -2.3485    2.2653    0.3781 H   0  0  0  0  0  0  0  0  0  0  0  0
   -2.9855   -1.9771    0.0724 H   0  0  0  0  0  0  0  0  0  0  0  0
   -0.3600   -4.0907    1.1729 H   0  0  0  0  0  0  0  0  0  0  0  0
    1.1863   -3.4653    0.7523 H   0  0  0  0  0  0  0  0  0  0  0  0
    0.6975   -0.4639    1.6289 H   0  0  0  0  0  0  0  0  0  0  0  0
    3.6617   -0.6613   -1.5250 H   0  0  0  0  0  0  0  0  0  0  0  0
    2.4192   -0.8472    3.2752 H   0  0  0  0  0  0  0  0  0  0  0  0
    5.4065   -1.0500    0.1936 H   0  0  0  0  0  0  0  0  0  0  0  0
   -5.4140    1.7314    1.3012 H   0  0  0  0  0  0  0  0  0  0  0  0
    4.7853   -1.1433    2.5937 H   0  0  0  0  0  0  0  0  0  0  0  0
  1  3  2  0  0  0  0
  1  4  2  0  0  0  0
  1  8  1  0  0  0  0
  1 16  1  0  0  0  0
  2 14  1  0  0  0  0
  2 20  1  0  0  0  0
  5 19  1  0  0  0  0
  5 42  1  0  0  0  0
  6 19  2  0  0  0  0
  7  9  1  0  0  0  0
  7 10  1  0  0  0  0
  7 13  1  0  0  0  0
  8 36  1  0  0  0  0
  8 37  1  0  0  0  0
  9 11  1  0  0  0  0
  9 26  1  0  0  0  0
  9 27  1  0  0  0  0
 10 12  1  0  0  0  0
 10 28  1  0  0  0  0
 10 29  1  0  0  0  0
 11 12  1  0  0  0  0
 11 30  1  0  0  0  0
 11 31  1  0  0  0  0
 12 32  1  0  0  0  0
 12 33  1  0  0  0  0
 13 14  2  0  0  0  0
 13 15  1  0  0  0  0
 14 16  1  0  0  0  0
 15 17  2  0  0  0  0
 15 34  1  0  0  0  0
 16 18  2  0  0  0  0
 17 18  1  0  0  0  0
 17 19  1  0  0  0  0
 18 35  1  0  0  0  0
 20 21  2  0  0  0  0
 20 22  1  0  0  0  0
 21 23  1  0  0  0  0
 21 38  1  0  0  0  0
 22 24  2  0  0  0  0
 22 39  1  0  0  0  0
 23 25  2  0  0  0  0
 23 40  1  0  0  0  0
 24 25  1  0  0  0  0
 24 41  1  0  0  0  0
 25 43  1  0  0  0  0
M  END
> <PUBCHEM_COMPOUND_CID>
4849

> <PUBCHEM_CONFORMER_RMSD>
0.8

> <PUBCHEM_CONFORMER_DIVERSEORDER>
1
6
3
4
2
5

> <PUBCHEM_MMFF94_PARTIAL_CHARGES>
33
1 1.45
10 0.37
13 0.1
14 0.08
15 -0.15
16 -0.01
17 0.09
18 -0.15
19 0.63
2 -0.17
20 0.08
21 -0.15
22 -0.15
23 -0.15
24 -0.15
25 -0.15
3 -0.65
34 0.15
35 0.15
36 0.42
37 0.42
38 0.15
39 0.15
4 -0.65
40 0.15
41 0.15
42 0.5
43 0.15
5 -0.65
6 -0.57
7 -0.84
8 -0.98
9 0.37

> <PUBCHEM_EFFECTIVE_ROTOR_COUNT>
6

> <PUBCHEM_PHARMACOPHORE_FEATURES>
11
1 2 acceptor
1 3 acceptor
1 4 acceptor
1 5 acceptor
1 6 acceptor
1 7 cation
1 8 donor
3 5 6 19 anion
5 7 9 10 11 12 rings
6 13 14 15 16 17 18 rings
6 20 21 22 23 24 25 rings

> <PUBCHEM_HEAVY_ATOM_COUNT>
25

> <PUBCHEM_ATOM_DEF_STEREO_COUNT>
0

> <PUBCHEM_ATOM_UDEF_STEREO_COUNT>
0

> <PUBCHEM_BOND_DEF_STEREO_COUNT>
0

> <PUBCHEM_BOND_UDEF_STEREO_COUNT>
0

> <PUBCHEM_ISOTOPIC_ATOM_COUNT>
0

> <PUBCHEM_COMPONENT_COUNT>
1

> <PUBCHEM_CACTVS_TAUTO_COUNT>
1

> <PUBCHEM_CONFORMER_ID>
000012F100000001

> <PUBCHEM_MMFF94_ENERGY>
79.8836

> <PUBCHEM_FEATURE_SELFOVERLAP>
55.905

> <PUBCHEM_SHAPE_FINGERPRINT>
10162869 55 18334858360434443145
10165383 225 17895197761582431250
107951 10 17123916498026608348
1100329 8 18339074878627611466
11578080 2 17486806019832365980
12553582 1 18341623628602127114
12633257 1 18200013119809357699
12788726 201 18200590440570240216
13140716 1 18338790105807042699
133893 2 17484270477473420408
13583140 156 17775014453381393667
14022347 108 18340472465729447550
14178342 30 18190169269409756041
14223421 5 17688029029900306914
14713325 29 17762331823104773342
14787075 74 17775277262266576048
14790565 3 18337375124046694212
14943834 7 17977675212035430439
14955137 171 18340474629918100595
15475509 35 17203027614054824833
15513586 35 16319014660301169840
1601671 61 18338791346620301801
16945 1 18188223103141361366
17980427 23 17896334535776774588
19319366 153 17774431699549944370
20028762 73 18114182978740466527
20600515 1 18333452040951905244
20723712 36 18336539503783045249
20739085 24 17974826665682530659
20905425 154 17686332071268376100
21033648 29 17895205444972767841
21421861 104 17836086667463384219
22182313 1 17978506765444520301
229495 10 17489317373346968702
23366157 5 17986672558572430173
23419403 2 16456086414895064124
23558518 356 17405979666049855852
23598288 3 17699597992869797986
25147074 1 18118969083835225431
2748010 2 17905323279999935527
34934 24 18341325579520662348
394222 165 18126829526337176993
465052 167 18130496484089772651
484985 159 14614079322663643010
5104073 3 18196913532459634353
5265222 85 18262517113576278742
7097593 13 18268157456873453888
81228 2 17974045836159466838
90316 7 18269015213529583864
9981440 41 16967789527690260392

> <PUBCHEM_SHAPE_MULTIPOLES>
479.03
6.56
4.88
1.55
3.46
3.17
-0.23
-1.31
-3.75
-1.17
1.78
-0.91
-0.48
-1.54

> <PUBCHEM_SHAPE_SELFOVERLAP>
1027.311

> <PUBCHEM_SHAPE_VOLUME>
264.8

> <PUBCHEM_COORDINATE_TYPE>
2
5
10

$$$$

