4557
  -OEChem-06261200132D

 43 42  0     1  0  0  0  0  0999 V2000
    8.0622   -2.3450    0.0000 O   0  0  0  0  0  0  0  0  0  0  0  0
   14.9904    0.6550    0.0000 O   0  0  0  0  0  0  0  0  0  0  0  0
    5.4641   -0.8450    0.0000 C   0  0  0  0  0  0  0  0  0  0  0  0
    6.3301   -1.3450    0.0000 C   0  0  0  0  0  0  0  0  0  0  0  0
    4.5981   -1.3450    0.0000 C   0  0  0  0  0  0  0  0  0  0  0  0
    7.1962   -0.8450    0.0000 C   0  0  0  0  0  0  0  0  0  0  0  0
    3.7320   -0.8450    0.0000 C   0  0  0  0  0  0  0  0  0  0  0  0
    8.0622   -1.3450    0.0000 C   0  0  3  0  0  0  0  0  0  0  0  0
    2.8660   -1.3450    0.0000 C   0  0  0  0  0  0  0  0  0  0  0  0
    2.0000   -0.8450    0.0000 C   0  0  0  0  0  0  0  0  0  0  0  0
    8.9282   -0.8450    0.0000 C   0  0  0  0  0  0  0  0  0  0  0  0
    9.7942   -1.3450    0.0000 C   0  0  0  0  0  0  0  0  0  0  0  0
   10.6603   -0.8450    0.0000 C   0  0  0  0  0  0  0  0  0  0  0  0
   11.5263   -0.3450    0.0000 C   0  0  0  0  0  0  0  0  0  0  0  0
   12.3923    0.1550    0.0000 C   0  0  0  0  0  0  0  0  0  0  0  0
   14.1244    1.1550    0.0000 C   0  0  3  0  0  0  0  0  0  0  0  0
   13.2583    0.6550    0.0000 C   0  0  0  0  0  0  0  0  0  0  0  0
   14.1244    2.1550    0.0000 C   0  0  0  0  0  0  0  0  0  0  0  0
   14.9904    2.6550    0.0000 C   0  0  0  0  0  0  0  0  0  0  0  0
    5.8626   -0.3701    0.0000 H   0  0  0  0  0  0  0  0  0  0  0  0
    5.0656   -0.3701    0.0000 H   0  0  0  0  0  0  0  0  0  0  0  0
    5.9316   -1.8200    0.0000 H   0  0  0  0  0  0  0  0  0  0  0  0
    6.7287   -1.8200    0.0000 H   0  0  0  0  0  0  0  0  0  0  0  0
    4.1996   -1.8200    0.0000 H   0  0  0  0  0  0  0  0  0  0  0  0
    4.9966   -1.8200    0.0000 H   0  0  0  0  0  0  0  0  0  0  0  0
    7.5947   -0.3701    0.0000 H   0  0  0  0  0  0  0  0  0  0  0  0
    6.7976   -0.3701    0.0000 H   0  0  0  0  0  0  0  0  0  0  0  0
    4.1306   -0.3701    0.0000 H   0  0  0  0  0  0  0  0  0  0  0  0
    3.3335   -0.3701    0.0000 H   0  0  0  0  0  0  0  0  0  0  0  0
    7.3261   -1.7700    0.0000 H   0  0  0  0  0  0  0  0  0  0  0  0
    2.4675   -1.8200    0.0000 H   0  0  0  0  0  0  0  0  0  0  0  0
    3.2646   -1.8200    0.0000 H   0  0  0  0  0  0  0  0  0  0  0  0
    2.3100   -0.3081    0.0000 H   0  0  0  0  0  0  0  0  0  0  0  0
    1.4631   -0.5350    0.0000 H   0  0  0  0  0  0  0  0  0  0  0  0
    1.6900   -1.3819    0.0000 H   0  0  0  0  0  0  0  0  0  0  0  0
    8.9282   -0.2250    0.0000 H   0  0  0  0  0  0  0  0  0  0  0  0
    7.5252   -2.6550    0.0000 H   0  0  0  0  0  0  0  0  0  0  0  0
    9.7942   -1.9650    0.0000 H   0  0  0  0  0  0  0  0  0  0  0  0
   14.1244    0.3050    0.0000 H   0  0  0  0  0  0  0  0  0  0  0  0
   13.5874    2.4650    0.0000 H   0  0  0  0  0  0  0  0  0  0  0  0
   15.5273    0.9650    0.0000 H   0  0  0  0  0  0  0  0  0  0  0  0
   15.5273    2.3450    0.0000 H   0  0  0  0  0  0  0  0  0  0  0  0
   14.9904    3.2750    0.0000 H   0  0  0  0  0  0  0  0  0  0  0  0
  1  8  1  0  0  0  0
  1 37  1  0  0  0  0
  2 16  1  0  0  0  0
  2 41  1  0  0  0  0
  3  4  1  0  0  0  0
  3  5  1  0  0  0  0
  3 20  1  0  0  0  0
  3 21  1  0  0  0  0
  4  6  1  0  0  0  0
  4 22  1  0  0  0  0
  4 23  1  0  0  0  0
  5  7  1  0  0  0  0
  5 24  1  0  0  0  0
  5 25  1  0  0  0  0
  6  8  1  0  0  0  0
  6 26  1  0  0  0  0
  6 27  1  0  0  0  0
  7  9  1  0  0  0  0
  7 28  1  0  0  0  0
  7 29  1  0  0  0  0
  8 11  1  0  0  0  0
  8 30  1  0  0  0  0
  9 10  1  0  0  0  0
  9 31  1  0  0  0  0
  9 32  1  0  0  0  0
 10 33  1  0  0  0  0
 10 34  1  0  0  0  0
 10 35  1  0  0  0  0
 11 12  2  3  0  0  0
 11 36  1  0  0  0  0
 12 13  1  0  0  0  0
 12 38  1  0  0  0  0
 13 14  3  0  0  0  0
 14 15  1  0  0  0  0
 15 17  3  0  0  0  0
 16 17  1  0  0  0  0
 16 18  1  0  0  0  0
 16 39  1  0  0  0  0
 18 19  2  0  0  0  0
 18 40  1  0  0  0  0
 19 42  1  0  0  0  0
 19 43  1  0  0  0  0
M  END
> <PUBCHEM_COMPOUND_CID>
4557

> <PUBCHEM_COMPOUND_CANONICALIZED>
1

> <PUBCHEM_CACTVS_COMPLEXITY>
394

> <PUBCHEM_CACTVS_HBOND_ACCEPTOR>
2

> <PUBCHEM_CACTVS_HBOND_DONOR>
2

> <PUBCHEM_CACTVS_ROTATABLE_BOND>
9

> <PUBCHEM_CACTVS_SUBSKEYS>
AAADceB4MAAAAAAAAAAAAAAAAAAAAAAAAAAAAAAAAAAAAAAAAAAAGgAACAAACBSggAICAAAAAgDAECBCAAgAAAAgAAAICAAAAAgAFAIAAQAAUAAEgAAIEAOAwKAAAAAAAAAAAAAAAAAAAAAAAAAAAAAAAA==

> <PUBCHEM_IUPAC_OPENEYE_NAME>
heptadeca-1,8-dien-4,6-diyne-3,10-diol

> <PUBCHEM_IUPAC_CAS_NAME>
heptadeca-1,8-dien-4,6-diyne-3,10-diol

> <PUBCHEM_IUPAC_NAME>
heptadeca-1,8-dien-4,6-diyne-3,10-diol

> <PUBCHEM_IUPAC_SYSTEMATIC_NAME>
heptadeca-1,8-dien-4,6-diyne-3,10-diol

> <PUBCHEM_IUPAC_TRADITIONAL_NAME>
heptadeca-1,8-dien-4,6-diyne-3,10-diol

> <PUBCHEM_IUPAC_INCHI>
InChI=1S/C17H24O2/c1-3-5-6-7-11-14-17(19)15-12-9-8-10-13-16(18)4-2/h4,12,15-19H,2-3,5-7,11,14H2,1H3

> <PUBCHEM_IUPAC_INCHIKEY>
DSVMWGREWREVQQ-UHFFFAOYSA-N

> <PUBCHEM_XLOGP3_AA>
4.3

> <PUBCHEM_EXACT_MASS>
260.17763

> <PUBCHEM_MOLECULAR_FORMULA>
C17H24O2

> <PUBCHEM_MOLECULAR_WEIGHT>
260.37126

> <PUBCHEM_OPENEYE_CAN_SMILES>
CCCCCCCC(C=CC#CC#CC(C=C)O)O

> <PUBCHEM_OPENEYE_ISO_SMILES>
CCCCCCCC(C=CC#CC#CC(C=C)O)O

> <PUBCHEM_CACTVS_TPSA>
40.5

> <PUBCHEM_MONOISOTOPIC_WEIGHT>
260.17763

> <PUBCHEM_TOTAL_CHARGE>
0

> <PUBCHEM_HEAVY_ATOM_COUNT>
19

> <PUBCHEM_ATOM_DEF_STEREO_COUNT>
0

> <PUBCHEM_ATOM_UDEF_STEREO_COUNT>
2

> <PUBCHEM_BOND_DEF_STEREO_COUNT>
0

> <PUBCHEM_BOND_UDEF_STEREO_COUNT>
1

> <PUBCHEM_ISOTOPIC_ATOM_COUNT>
0

> <PUBCHEM_COMPONENT_COUNT>
1

> <PUBCHEM_CACTVS_TAUTO_COUNT>
1

> <PUBCHEM_COORDINATE_TYPE>
1
5
255

> <PUBCHEM_BONDANNOTATIONS>
11  12  1
16  39  3
8  30  3

$$$$

