583423
  -OEChem-06241222453D

 30 31  0     0  0  0  0  0  0999 V2000
    0.1384   -1.0646    0.5158 N   0  0  0  0  0  0  0  0  0  0  0  0
    0.1214    1.1573    0.4589 N   0  0  0  0  0  0  0  0  0  0  0  0
   -3.0168   -0.0372   -0.1870 C   0  0  0  0  0  0  0  0  0  0  0  0
   -2.0307    0.0246    1.0130 C   0  0  0  0  0  0  0  0  0  0  0  0
   -2.8488    1.2644   -0.9992 C   0  0  0  0  0  0  0  0  0  0  0  0
   -2.7121   -1.2236   -1.1179 C   0  0  0  0  0  0  0  0  0  0  0  0
   -4.4806   -0.1242    0.2786 C   0  0  0  0  0  0  0  0  0  0  0  0
   -0.5615    0.0786    0.6547 C   0  0  0  0  0  0  0  0  0  0  0  0
    1.4198   -0.6969    0.1943 C   0  0  0  0  0  0  0  0  0  0  0  0
    1.3834    0.6945    0.1649 C   0  0  0  0  0  0  0  0  0  0  0  0
    2.5724   -1.4392   -0.0653 C   0  0  0  0  0  0  0  0  0  0  0  0
    2.5573    1.4040   -0.1400 C   0  0  0  0  0  0  0  0  0  0  0  0
    3.7316   -0.7169   -0.3668 C   0  0  0  0  0  0  0  0  0  0  0  0
    3.7263    0.6793   -0.4041 C   0  0  0  0  0  0  0  0  0  0  0  0
   -2.2601    0.9029    1.6314 H   0  0  0  0  0  0  0  0  0  0  0  0
   -2.2009   -0.8466    1.6604 H   0  0  0  0  0  0  0  0  0  0  0  0
   -1.8565    1.3440   -1.4552 H   0  0  0  0  0  0  0  0  0  0  0  0
   -3.5781    1.3105   -1.8168 H   0  0  0  0  0  0  0  0  0  0  0  0
   -3.0053    2.1484   -0.3706 H   0  0  0  0  0  0  0  0  0  0  0  0
   -1.7332   -1.1329   -1.5996 H   0  0  0  0  0  0  0  0  0  0  0  0
   -2.7333   -2.1691   -0.5646 H   0  0  0  0  0  0  0  0  0  0  0  0
   -3.4558   -1.2938   -1.9203 H   0  0  0  0  0  0  0  0  0  0  0  0
   -5.1736   -0.1286   -0.5701 H   0  0  0  0  0  0  0  0  0  0  0  0
   -4.6510   -1.0401    0.8553 H   0  0  0  0  0  0  0  0  0  0  0  0
   -4.7406    0.7258    0.9193 H   0  0  0  0  0  0  0  0  0  0  0  0
   -0.2024   -2.0113    0.6238 H   0  0  0  0  0  0  0  0  0  0  0  0
    2.5739   -2.5229   -0.0358 H   0  0  0  0  0  0  0  0  0  0  0  0
    2.5637    2.4888   -0.1715 H   0  0  0  0  0  0  0  0  0  0  0  0
    4.6539   -1.2534   -0.5761 H   0  0  0  0  0  0  0  0  0  0  0  0
    4.6431    1.2128   -0.6417 H   0  0  0  0  0  0  0  0  0  0  0  0
  1  8  1  0  0  0  0
  1  9  1  0  0  0  0
  1 26  1  0  0  0  0
  2  8  2  0  0  0  0
  2 10  1  0  0  0  0
  3  4  1  0  0  0  0
  3  5  1  0  0  0  0
  3  6  1  0  0  0  0
  3  7  1  0  0  0  0
  4  8  1  0  0  0  0
  4 15  1  0  0  0  0
  4 16  1  0  0  0  0
  5 17  1  0  0  0  0
  5 18  1  0  0  0  0
  5 19  1  0  0  0  0
  6 20  1  0  0  0  0
  6 21  1  0  0  0  0
  6 22  1  0  0  0  0
  7 23  1  0  0  0  0
  7 24  1  0  0  0  0
  7 25  1  0  0  0  0
  9 10  1  0  0  0  0
  9 11  2  0  0  0  0
 10 12  2  0  0  0  0
 11 13  1  0  0  0  0
 11 27  1  0  0  0  0
 12 14  1  0  0  0  0
 12 28  1  0  0  0  0
 13 14  2  0  0  0  0
 13 29  1  0  0  0  0
 14 30  1  0  0  0  0
M  END
> <PUBCHEM_COMPOUND_CID>
583423

> <PUBCHEM_CONFORMER_RMSD>
0.6

> <PUBCHEM_CONFORMER_DIVERSEORDER>
1
2
3
4

> <PUBCHEM_MMFF94_PARTIAL_CHARGES>
15
1 0.03
10 0.23
11 -0.15
12 -0.15
13 -0.15
14 -0.15
2 -0.57
26 0.27
27 0.15
28 0.15
29 0.15
30 0.15
4 0.18
8 0.01
9 -0.15

> <PUBCHEM_EFFECTIVE_ROTOR_COUNT>
2

> <PUBCHEM_PHARMACOPHORE_FEATURES>
5
1 1 donor
3 1 2 8 cation
4 3 5 6 7 hydrophobe
5 1 2 8 9 10 rings
6 9 10 11 12 13 14 rings

> <PUBCHEM_HEAVY_ATOM_COUNT>
14

> <PUBCHEM_ATOM_DEF_STEREO_COUNT>
0

> <PUBCHEM_ATOM_UDEF_STEREO_COUNT>
0

> <PUBCHEM_BOND_DEF_STEREO_COUNT>
0

> <PUBCHEM_BOND_UDEF_STEREO_COUNT>
0

> <PUBCHEM_ISOTOPIC_ATOM_COUNT>
0

> <PUBCHEM_COMPONENT_COUNT>
1

> <PUBCHEM_CACTVS_TAUTO_COUNT>
2

> <PUBCHEM_CONFORMER_ID>
0008E6FF00000001

> <PUBCHEM_MMFF94_ENERGY>
28.6227

> <PUBCHEM_FEATURE_SELFOVERLAP>
25.482

> <PUBCHEM_SHAPE_FINGERPRINT>
10498660 4 16916520258317598245
10608611 8 18202283593334042020
10922523 26 18342177799299374501
11401426 45 18408327683407601352
11471102 20 18412260636363025416
12500047 106 5400807129022657449
12932764 1 18261683609765888953
13296908 3 18411419535531826283
13705890 14 18260550013335641538
14576447 43 18115315470561699998
14911166 2 18340476825289759166
14993402 34 17967246494791363590
15775835 57 18408885114159287815
16945 1 18339349821512907600
17844478 74 17988635299008414609
18186145 218 18060702809666879978
19422 9 18114179709815822039
200 152 18187083983557192808
20279233 1 17918267645388421210
20281407 28 4967616082880951477
20361792 2 16515695437331518585
20645477 70 18337388339571048894
21119208 17 18259703406472394063
22854114 59 9079113349721590803
23402539 116 17775013370537737452
23402655 69 18409729586001971469
23557571 272 17060335215267940431
23559900 14 17821450136900392770
25 1 18131071588293959787
2748010 2 17978495448253122344
3268164 11 16559040359379233271
4028521 119 17703522085645391805
42 15 8286203850833971677
93112 12 18410296912669225869

> <PUBCHEM_SHAPE_MULTIPOLES>
278.15
7.56
1.42
0.94
1.83
0.01
0.07
-0.17
1.32
-0.51
0.21
0.57
-0.02
-0.03

> <PUBCHEM_SHAPE_SELFOVERLAP>
591.008

> <PUBCHEM_SHAPE_VOLUME>
156

> <PUBCHEM_COORDINATE_TYPE>
2
5
10

$$$$

