5821
  -OEChem-06261200542D

 43 44  0     1  0  0  0  0  0999 V2000
    4.9319    0.0000    0.0000 Br  0  0  0  0  0  0  0  0  0  0  0  0
    4.8671    4.4806    0.0000 O   0  0  0  0  0  0  0  0  0  0  0  0
    4.0010    5.9806    0.0000 O   0  0  0  0  0  0  0  0  0  0  0  0
    3.1350    3.4806    0.0000 O   0  0  0  0  0  0  0  0  0  0  0  0
    7.7040    7.7655    0.0000 N   0  0  0  0  0  0  0  0  0  0  0  0
    8.4406    6.7829    0.0000 C   0  0  3  0  0  0  0  0  0  0  0  0
    8.1818    5.8170    0.0000 C   0  0  3  0  0  0  0  0  0  0  0  0
   10.2726    6.0241    0.0000 C   0  0  0  0  0  0  0  0  0  0  0  0
   10.0137    5.0582    0.0000 C   0  0  0  0  0  0  0  0  0  0  0  0
    6.6466    4.5738    0.0000 C   0  0  0  0  0  0  0  0  0  0  0  0
    5.8376    5.9751    0.0000 C   0  0  0  0  0  0  0  0  0  0  0  0
    5.7331    4.9806    0.0000 C   0  0  0  0  0  0  0  0  0  0  0  0
    7.2040    8.6315    0.0000 C   0  0  0  0  0  0  0  0  0  0  0  0
    4.0010    4.9806    0.0000 C   0  0  0  0  0  0  0  0  0  0  0  0
    3.1350    4.4806    0.0000 C   0  0  3  0  0  0  0  0  0  0  0  0
    2.2690    4.9806    0.0000 C   0  0  0  0  0  0  0  0  0  0  0  0
    2.2690    5.9806    0.0000 C   0  0  0  0  0  0  0  0  0  0  0  0
    1.4030    4.4806    0.0000 C   0  0  0  0  0  0  0  0  0  0  0  0
    1.4030    6.4806    0.0000 C   0  0  0  0  0  0  0  0  0  0  0  0
    0.5369    4.9806    0.0000 C   0  0  0  0  0  0  0  0  0  0  0  0
    0.5369    5.9806    0.0000 C   0  0  0  0  0  0  0  0  0  0  0  0
    8.4016    5.9338    0.0000 H   0  0  0  0  0  0  0  0  0  0  0  0
    8.3038    4.9758    0.0000 H   0  0  0  0  0  0  0  0  0  0  0  0
   10.8639    5.8376    0.0000 H   0  0  0  0  0  0  0  0  0  0  0  0
   10.4846    6.6067    0.0000 H   0  0  0  0  0  0  0  0  0  0  0  0
    9.8017    4.4755    0.0000 H   0  0  0  0  0  0  0  0  0  0  0  0
   10.6050    4.8717    0.0000 H   0  0  0  0  0  0  0  0  0  0  0  0
    6.3090    4.0538    0.0000 H   0  0  0  0  0  0  0  0  0  0  0  0
    7.1074    4.1590    0.0000 H   0  0  0  0  0  0  0  0  0  0  0  0
    5.7354    6.5866    0.0000 H   0  0  0  0  0  0  0  0  0  0  0  0
    5.2179    5.9562    0.0000 H   0  0  0  0  0  0  0  0  0  0  0  0
    5.7655    4.3614    0.0000 H   0  0  0  0  0  0  0  0  0  0  0  0
    7.7409    8.9415    0.0000 H   0  0  0  0  0  0  0  0  0  0  0  0
    6.8940    9.1685    0.0000 H   0  0  0  0  0  0  0  0  0  0  0  0
    6.6671    8.3215    0.0000 H   0  0  0  0  0  0  0  0  0  0  0  0
    3.8711    4.0556    0.0000 H   0  0  0  0  0  0  0  0  0  0  0  0
    2.5981    3.1706    0.0000 H   0  0  0  0  0  0  0  0  0  0  0  0
    2.8059    6.2906    0.0000 H   0  0  0  0  0  0  0  0  0  0  0  0
    1.4030    3.8606    0.0000 H   0  0  0  0  0  0  0  0  0  0  0  0
    1.4030    7.1006    0.0000 H   0  0  0  0  0  0  0  0  0  0  0  0
    0.0000    4.6706    0.0000 H   0  0  0  0  0  0  0  0  0  0  0  0
    0.0000    6.2906    0.0000 H   0  0  0  0  0  0  0  0  0  0  0  0
    5.9319    0.0000    0.0000 H   0  0  0  0  0  0  0  0  0  0  0  0
  1 43  1  0  0  0  0
  2 12  1  0  0  0  0
  2 14  1  0  0  0  0
  3 14  2  0  0  0  0
  4 15  1  0  0  0  0
  4 37  1  0  0  0  0
  5  6  1  0  0  0  0
  5  7  1  0  0  0  0
  5 13  1  0  0  0  0
  6  8  1  0  0  0  0
  6 11  1  0  0  0  0
  6 22  1  0  0  0  0
  7  9  1  0  0  0  0
  7 10  1  0  0  0  0
  7 23  1  0  0  0  0
  8  9  1  0  0  0  0
  8 24  1  0  0  0  0
  8 25  1  0  0  0  0
  9 26  1  0  0  0  0
  9 27  1  0  0  0  0
 10 12  1  0  0  0  0
 10 28  1  0  0  0  0
 10 29  1  0  0  0  0
 11 12  1  0  0  0  0
 11 30  1  0  0  0  0
 11 31  1  0  0  0  0
 12 32  1  0  0  0  0
 13 33  1  0  0  0  0
 13 34  1  0  0  0  0
 13 35  1  0  0  0  0
 14 15  1  0  0  0  0
 15 16  1  0  0  0  0
 15 36  1  0  0  0  0
 16 17  2  0  0  0  0
 16 18  1  0  0  0  0
 17 19  1  0  0  0  0
 17 38  1  0  0  0  0
 18 20  2  0  0  0  0
 18 39  1  0  0  0  0
 19 21  2  0  0  0  0
 19 40  1  0  0  0  0
 20 21  1  0  0  0  0
 20 41  1  0  0  0  0
 21 42  1  0  0  0  0
M  END
> <PUBCHEM_COMPOUND_CID>
5821

> <PUBCHEM_COMPOUND_CANONICALIZED>
1

> <PUBCHEM_CACTVS_COMPLEXITY>
340

> <PUBCHEM_CACTVS_HBOND_ACCEPTOR>
4

> <PUBCHEM_CACTVS_HBOND_DONOR>
1

> <PUBCHEM_CACTVS_ROTATABLE_BOND>
4

> <PUBCHEM_CACTVS_SUBSKEYS>
AAADceB6MAAAEAAAAAAAAAAAAAAAAWAAAAA8QAAABgAAAAABAAAAHgAACAAADDzhmAYyCIMABgCIAiDSCAICAAAgAAAIiAFICIgJNjKAlRCGcAAmwAGLmAeYyKCOAAAAAAAAAAAAAAAAAAAAAAAAAAAAAA==

> <PUBCHEM_IUPAC_OPENEYE_NAME>
(8-methyl-8-azabicyclo[3.2.1]octan-3-yl) 2-hydroxy-2-phenyl-acetate hydrobromide

> <PUBCHEM_IUPAC_CAS_NAME>
2-hydroxy-2-phenylacetic acid (8-methyl-8-azabicyclo[3.2.1]octan-3-yl) ester hydrobromide

> <PUBCHEM_IUPAC_NAME>
(8-methyl-8-azabicyclo[3.2.1]octan-3-yl) 2-hydroxy-2-phenylacetate hydrobromide

> <PUBCHEM_IUPAC_SYSTEMATIC_NAME>
(8-methyl-8-azabicyclo[3.2.1]octan-3-yl) 2-oxidanyl-2-phenyl-ethanoate hydrobromide

> <PUBCHEM_IUPAC_TRADITIONAL_NAME>
2-hydroxy-2-phenyl-acetic acid (8-methyl-8-azabicyclo[3.2.1]octan-3-yl) ester hydrobromide

> <PUBCHEM_IUPAC_INCHI>
InChI=1S/C16H21NO3.BrH/c1-17-12-7-8-13(17)10-14(9-12)20-16(19)15(18)11-5-3-2-4-6-11;/h2-6,12-15,18H,7-10H2,1H3;1H

> <PUBCHEM_IUPAC_INCHIKEY>
DWSGTFTVBLXELC-UHFFFAOYSA-N

> <PUBCHEM_EXACT_MASS>
355.078306

> <PUBCHEM_MOLECULAR_FORMULA>
C16H22BrNO3

> <PUBCHEM_MOLECULAR_WEIGHT>
356.25478

> <PUBCHEM_OPENEYE_CAN_SMILES>
CN1C2CCC1CC(C2)OC(=O)C(C3=CC=CC=C3)O.Br

> <PUBCHEM_OPENEYE_ISO_SMILES>
CN1C2CCC1CC(C2)OC(=O)C(C3=CC=CC=C3)O.Br

> <PUBCHEM_CACTVS_TPSA>
49.8

> <PUBCHEM_MONOISOTOPIC_WEIGHT>
355.078306

> <PUBCHEM_TOTAL_CHARGE>
0

> <PUBCHEM_HEAVY_ATOM_COUNT>
21

> <PUBCHEM_ATOM_DEF_STEREO_COUNT>
0

> <PUBCHEM_ATOM_UDEF_STEREO_COUNT>
3

> <PUBCHEM_BOND_DEF_STEREO_COUNT>
0

> <PUBCHEM_BOND_UDEF_STEREO_COUNT>
0

> <PUBCHEM_ISOTOPIC_ATOM_COUNT>
0

> <PUBCHEM_COMPONENT_COUNT>
2

> <PUBCHEM_CACTVS_TAUTO_COUNT>
1

> <PUBCHEM_COORDINATE_TYPE>
1
5
255

> <PUBCHEM_BONDANNOTATIONS>
15  36  3
16  17  8
16  18  8
17  19  8
18  20  8
19  21  8
20  21  8
6  22  3
7  23  3

$$$$

