11832
  -OEChem-06261206103D

 38 40  0     0  0  0  0  0  0999 V2000
    5.5553   -0.3525   -0.1621 N   0  0  0  0  0  0  0  0  0  0  0  0
   -0.4921    0.6155   -0.5185 N   0  0  0  0  0  0  0  0  0  0  0  0
    0.0877    0.5847    0.5904 N   0  0  0  0  0  0  0  0  0  0  0  0
   -2.7738   -0.2052   -0.1633 C   0  0  0  0  0  0  0  0  0  0  0  0
   -4.1459    0.0873    0.0237 C   0  0  0  0  0  0  0  0  0  0  0  0
   -1.8631    0.8506   -0.3309 C   0  0  0  0  0  0  0  0  0  0  0  0
    4.1783   -0.1168    0.0291 C   0  0  0  0  0  0  0  0  0  0  0  0
   -2.3531   -1.5451   -0.1772 C   0  0  0  0  0  0  0  0  0  0  0  0
   -4.5666    1.4271    0.0377 C   0  0  0  0  0  0  0  0  0  0  0  0
   -5.0566   -0.9685    0.1915 C   0  0  0  0  0  0  0  0  0  0  0  0
   -2.2988    2.1759   -0.3142 C   0  0  0  0  0  0  0  0  0  0  0  0
    3.6917    1.1901    0.0548 C   0  0  0  0  0  0  0  0  0  0  0  0
    3.3025   -1.1902    0.1910 C   0  0  0  0  0  0  0  0  0  0  0  0
    1.4605    0.3491    0.4030 C   0  0  0  0  0  0  0  0  0  0  0  0
   -3.6480    2.4636   -0.1303 C   0  0  0  0  0  0  0  0  0  0  0  0
   -3.2717   -2.5815   -0.0091 C   0  0  0  0  0  0  0  0  0  0  0  0
    2.3293    1.4237    0.2421 C   0  0  0  0  0  0  0  0  0  0  0  0
    1.9401   -0.9568    0.3783 C   0  0  0  0  0  0  0  0  0  0  0  0
   -4.6209   -2.2938    0.1748 C   0  0  0  0  0  0  0  0  0  0  0  0
    6.5358    0.6124    0.2947 C   0  0  0  0  0  0  0  0  0  0  0  0
    6.0095   -1.5695   -0.8055 C   0  0  0  0  0  0  0  0  0  0  0  0
   -1.3096   -1.8132   -0.3235 H   0  0  0  0  0  0  0  0  0  0  0  0
   -5.6163    1.6755    0.1800 H   0  0  0  0  0  0  0  0  0  0  0  0
   -6.1159   -0.7670    0.3367 H   0  0  0  0  0  0  0  0  0  0  0  0
   -1.5932    2.9925   -0.4449 H   0  0  0  0  0  0  0  0  0  0  0  0
    4.3445    2.0478   -0.0802 H   0  0  0  0  0  0  0  0  0  0  0  0
    3.6498   -2.2195    0.1883 H   0  0  0  0  0  0  0  0  0  0  0  0
   -3.9866    3.4955   -0.1176 H   0  0  0  0  0  0  0  0  0  0  0  0
    1.9580    2.4449    0.2586 H   0  0  0  0  0  0  0  0  0  0  0  0
    1.2654   -1.7988    0.5074 H   0  0  0  0  0  0  0  0  0  0  0  0
   -2.9336   -3.6137   -0.0232 H   0  0  0  0  0  0  0  0  0  0  0  0
   -5.3356   -3.1011    0.3053 H   0  0  0  0  0  0  0  0  0  0  0  0
    7.5288    0.1569    0.3806 H   0  0  0  0  0  0  0  0  0  0  0  0
    6.2822    1.0031    1.2866 H   0  0  0  0  0  0  0  0  0  0  0  0
    6.6168    1.4467   -0.4100 H   0  0  0  0  0  0  0  0  0  0  0  0
    6.0013   -2.4076   -0.1006 H   0  0  0  0  0  0  0  0  0  0  0  0
    7.0349   -1.4611   -1.1764 H   0  0  0  0  0  0  0  0  0  0  0  0
    5.3873   -1.8220   -1.6717 H   0  0  0  0  0  0  0  0  0  0  0  0
  1  7  1  0  0  0  0
  1 20  1  0  0  0  0
  1 21  1  0  0  0  0
  2  3  2  0  0  0  0
  2  6  1  0  0  0  0
  3 14  1  0  0  0  0
  4  5  1  0  0  0  0
  4  6  1  0  0  0  0
  4  8  2  0  0  0  0
  5  9  1  0  0  0  0
  5 10  2  0  0  0  0
  6 11  2  0  0  0  0
  7 12  2  0  0  0  0
  7 13  1  0  0  0  0
  8 16  1  0  0  0  0
  8 22  1  0  0  0  0
  9 15  2  0  0  0  0
  9 23  1  0  0  0  0
 10 19  1  0  0  0  0
 10 24  1  0  0  0  0
 11 15  1  0  0  0  0
 11 25  1  0  0  0  0
 12 17  1  0  0  0  0
 12 26  1  0  0  0  0
 13 18  2  0  0  0  0
 13 27  1  0  0  0  0
 14 17  2  0  0  0  0
 14 18  1  0  0  0  0
 15 28  1  0  0  0  0
 16 19  2  0  0  0  0
 16 31  1  0  0  0  0
 17 29  1  0  0  0  0
 18 30  1  0  0  0  0
 19 32  1  0  0  0  0
 20 33  1  0  0  0  0
 20 34  1  0  0  0  0
 20 35  1  0  0  0  0
 21 36  1  0  0  0  0
 21 37  1  0  0  0  0
 21 38  1  0  0  0  0
M  END
> <PUBCHEM_COMPOUND_CID>
11832

> <PUBCHEM_CONFORMER_RMSD>
0.6

> <PUBCHEM_CONFORMER_DIVERSEORDER>
2
4
6
5
3
1

> <PUBCHEM_MMFF94_PARTIAL_CHARGES>
30
1 -0.84
10 -0.15
11 -0.15
12 -0.15
13 -0.15
14 0.18
15 -0.15
16 -0.15
17 -0.15
18 -0.15
19 -0.15
2 -0.18
20 0.37
21 0.37
22 0.15
23 0.15
24 0.15
25 0.15
26 0.15
27 0.15
28 0.15
29 0.15
3 -0.18
30 0.15
31 0.15
32 0.15
6 0.18
7 0.1
8 -0.15
9 -0.15

> <PUBCHEM_EFFECTIVE_ROTOR_COUNT>
3

> <PUBCHEM_PHARMACOPHORE_FEATURES>
4
1 1 cation
6 4 5 6 9 11 15 rings
6 4 5 8 10 16 19 rings
6 7 12 13 14 17 18 rings

> <PUBCHEM_HEAVY_ATOM_COUNT>
21

> <PUBCHEM_ATOM_DEF_STEREO_COUNT>
0

> <PUBCHEM_ATOM_UDEF_STEREO_COUNT>
0

> <PUBCHEM_BOND_DEF_STEREO_COUNT>
0

> <PUBCHEM_BOND_UDEF_STEREO_COUNT>
0

> <PUBCHEM_ISOTOPIC_ATOM_COUNT>
0

> <PUBCHEM_COMPONENT_COUNT>
1

> <PUBCHEM_CACTVS_TAUTO_COUNT>
1

> <PUBCHEM_CONFORMER_ID>
00002E3800000002

> <PUBCHEM_MMFF94_ENERGY>
78.4371

> <PUBCHEM_FEATURE_SELFOVERLAP>
20.324

> <PUBCHEM_SHAPE_FINGERPRINT>
10411042 1 18123469381202931395
10595046 47 18343581816019694420
10616163 171 18410857659510620183
11128504 68 17131827643170356662
11315181 36 18201439159829708733
11524674 6 16950563276954263471
12107183 9 17765441228464711298
12236239 1 17846780715212857972
12821665 9 18128807552514340772
13167823 11 18413109450639016074
13288520 33 18410573968578210983
13631057 29 18410858715993291571
14341114 176 18409163316239283720
14420673 8 18337667650058367734
14461889 52 18335709296086018690
15042514 8 18340763746706968299
15183329 4 18341050808935367458
15196674 1 18410575072094766098
15250474 111 18200326497191966658
15537594 2 17917992814689129403
17804303 29 18408041789052084737
17844677 252 18409442566502309784
1813 80 17346604045110904125
18681886 176 18410015408361129664
18927931 339 18412821370366789583
200 152 18186521003491560368
20681677 155 18341051912277492217
21033648 29 17313684714288372952
21065198 57 18408888442442749208
21236236 1 18410573985262454931
21267235 1 18341888555301980987
21279426 13 18335979887146557270
21623969 137 17385437735501035230
21709351 56 18131073727367203556
221357 26 18408605833584064547
221490 88 18338233756923079680
22393880 68 18412547647732045698
2297311 6 18409161108694483565
23081809 10 17560799953353610784
23402539 116 17060623312936651892
23557571 272 18335134302058050108
23559900 14 18336837411320772985
335352 9 18411704275675478573
350125 39 18410010992602096592
3545911 37 18410294747953350737
4073 2 18272366452278653554
4214541 1 18410575102064780033
4325135 7 18342454808206332124
5104073 3 18335145301848948112
542803 24 17060335245227248884
559249 180 18339365265656439962
7062679 117 18413388726349787094
7495541 125 18113901516331490160
77779 3 18410856559708614712
7970288 3 17977106756446808039
9709674 26 18335419101608583791

> <PUBCHEM_SHAPE_MULTIPOLES>
417.23
14.74
2.49
0.7
16.21
0.25
0.02
3.14
0.54
-3.15
0.13
0.2
0.03
0.69

> <PUBCHEM_SHAPE_SELFOVERLAP>
912.398

> <PUBCHEM_SHAPE_VOLUME>
227

> <PUBCHEM_COORDINATE_TYPE>
2
5
10

$$$$

