47205795
  -OEChem-06241223003D

 39 39  0     0  0  0  0  0  0999 V2000
   -0.7363   -0.8339   -1.4358 O   0  0  0  0  0  0  0  0  0  0  0  0
   -2.7245    0.4951    1.2596 O   0  0  0  0  0  0  0  0  0  0  0  0
    0.6883   -2.1947   -0.2107 N   0  0  0  0  0  0  0  0  0  0  0  0
   -2.9285   -1.4144   -0.0447 N   0  0  0  0  0  0  0  0  0  0  0  0
    2.0642    4.0528   -0.3341 N   0  0  0  0  0  0  0  0  0  0  0  0
    1.8877   -1.8946   -0.9826 C   0  0  0  0  0  0  0  0  0  0  0  0
    2.6585   -0.7458   -0.3991 C   0  0  0  0  0  0  0  0  0  0  0  0
   -1.7054   -2.0451    0.3918 C   0  0  0  0  0  0  0  0  0  0  0  0
   -0.5556   -1.6264   -0.5074 C   0  0  0  0  0  0  0  0  0  0  0  0
   -4.6528    0.2557   -0.1847 C   0  0  0  0  0  0  0  0  0  0  0  0
   -5.1202    1.6135    0.3313 C   0  0  0  0  0  0  0  0  0  0  0  0
    0.8769   -3.1312    0.8945 C   0  0  0  0  0  0  0  0  0  0  0  0
   -3.3372   -0.1788    0.4357 C   0  0  0  0  0  0  0  0  0  0  0  0
    2.1991    0.5605   -0.5670 C   0  0  0  0  0  0  0  0  0  0  0  0
    3.8346   -0.9857    0.3115 C   0  0  0  0  0  0  0  0  0  0  0  0
   -6.4542    2.0126   -0.2782 C   0  0  0  0  0  0  0  0  0  0  0  0
    2.9160    1.6270   -0.0245 C   0  0  0  0  0  0  0  0  0  0  0  0
    4.5514    0.0808    0.8539 C   0  0  0  0  0  0  0  0  0  0  0  0
    4.0922    1.3872    0.6858 C   0  0  0  0  0  0  0  0  0  0  0  0
    2.4459    2.9656   -0.1954 C   0  0  0  0  0  0  0  0  0  0  0  0
    1.5959   -1.6358   -2.0082 H   0  0  0  0  0  0  0  0  0  0  0  0
    2.5042   -2.7982   -1.0607 H   0  0  0  0  0  0  0  0  0  0  0  0
   -1.8642   -3.1245    0.3174 H   0  0  0  0  0  0  0  0  0  0  0  0
   -1.4995   -1.7502    1.4251 H   0  0  0  0  0  0  0  0  0  0  0  0
   -4.5239    0.2927   -1.2730 H   0  0  0  0  0  0  0  0  0  0  0  0
   -5.4053   -0.5098    0.0401 H   0  0  0  0  0  0  0  0  0  0  0  0
   -4.3710    2.3796    0.0985 H   0  0  0  0  0  0  0  0  0  0  0  0
   -5.2168    1.5862    1.4232 H   0  0  0  0  0  0  0  0  0  0  0  0
   -3.4923   -1.8923   -0.7419 H   0  0  0  0  0  0  0  0  0  0  0  0
    1.6063   -2.7084    1.5919 H   0  0  0  0  0  0  0  0  0  0  0  0
   -0.0274   -3.3626    1.4546 H   0  0  0  0  0  0  0  0  0  0  0  0
    1.2716   -4.0687    0.4900 H   0  0  0  0  0  0  0  0  0  0  0  0
    1.2895    0.7539   -1.1294 H   0  0  0  0  0  0  0  0  0  0  0  0
    4.2027   -1.9986    0.4513 H   0  0  0  0  0  0  0  0  0  0  0  0
   -7.2325    1.2837   -0.0307 H   0  0  0  0  0  0  0  0  0  0  0  0
   -6.7689    2.9885    0.1043 H   0  0  0  0  0  0  0  0  0  0  0  0
   -6.3821    2.0821   -1.3683 H   0  0  0  0  0  0  0  0  0  0  0  0
    5.4670   -0.1060    1.4076 H   0  0  0  0  0  0  0  0  0  0  0  0
    4.6621    2.2079    1.1148 H   0  0  0  0  0  0  0  0  0  0  0  0
  1  9  2  0  0  0  0
  2 13  2  0  0  0  0
  3  6  1  0  0  0  0
  3  9  1  0  0  0  0
  3 12  1  0  0  0  0
  4  8  1  0  0  0  0
  4 13  1  0  0  0  0
  4 29  1  0  0  0  0
  5 20  3  0  0  0  0
  6  7  1  0  0  0  0
  6 21  1  0  0  0  0
  6 22  1  0  0  0  0
  7 14  2  0  0  0  0
  7 15  1  0  0  0  0
  8  9  1  0  0  0  0
  8 23  1  0  0  0  0
  8 24  1  0  0  0  0
 10 11  1  0  0  0  0
 10 13  1  0  0  0  0
 10 25  1  0  0  0  0
 10 26  1  0  0  0  0
 11 16  1  0  0  0  0
 11 27  1  0  0  0  0
 11 28  1  0  0  0  0
 12 30  1  0  0  0  0
 12 31  1  0  0  0  0
 12 32  1  0  0  0  0
 14 17  1  0  0  0  0
 14 33  1  0  0  0  0
 15 18  2  0  0  0  0
 15 34  1  0  0  0  0
 16 35  1  0  0  0  0
 16 36  1  0  0  0  0
 16 37  1  0  0  0  0
 17 19  2  0  0  0  0
 17 20  1  0  0  0  0
 18 19  1  0  0  0  0
 18 38  1  0  0  0  0
 19 39  1  0  0  0  0
M  END
> <PUBCHEM_COMPOUND_CID>
47205795

> <PUBCHEM_CONFORMER_RMSD>
1.2

> <PUBCHEM_CONFORMER_DIVERSEORDER>
1
27
45
73
85
99
86
15
88
105
82
87
3
109
43
89
62
46
91
36
29
19
6
79
20
97
17
78
75
16
52
59
80
69
2
96
84
34
92
63
67
32
54
101
37
9
77
103
13
47
65
110
98
53
28
56
25
23
61
57
5
14
58
106
71
33
107
12
49
94
8
48
108
68
38
83
21
10
22
81
11
40
104
4
74
95
18
50
51
93
60
72
70
31
42
102
44
35
30
24
26
76
41
66
7
55
39
100
64
90

> <PUBCHEM_MMFF94_PARTIAL_CHARGES>
23
1 -0.57
10 0.06
12 0.3
13 0.57
14 -0.15
15 -0.15
17 0.07
18 -0.15
19 -0.15
2 -0.57
20 0.48
29 0.37
3 -0.66
33 0.15
34 0.15
38 0.15
39 0.15
4 -0.73
5 -0.56
6 0.44
7 -0.14
8 0.36
9 0.57

> <PUBCHEM_EFFECTIVE_ROTOR_COUNT>
8

> <PUBCHEM_PHARMACOPHORE_FEATURES>
6
1 1 acceptor
1 16 hydrophobe
1 2 acceptor
1 4 donor
1 5 acceptor
6 7 14 15 17 18 19 rings

> <PUBCHEM_HEAVY_ATOM_COUNT>
20

> <PUBCHEM_ATOM_DEF_STEREO_COUNT>
0

> <PUBCHEM_ATOM_UDEF_STEREO_COUNT>
0

> <PUBCHEM_BOND_DEF_STEREO_COUNT>
0

> <PUBCHEM_BOND_UDEF_STEREO_COUNT>
0

> <PUBCHEM_ISOTOPIC_ATOM_COUNT>
0

> <PUBCHEM_COMPONENT_COUNT>
1

> <PUBCHEM_CACTVS_TAUTO_COUNT>
2

> <PUBCHEM_CONFORMER_ID>
02D04DA300000001

> <PUBCHEM_MMFF94_ENERGY>
36.9164

> <PUBCHEM_FEATURE_SELFOVERLAP>
30.446

> <PUBCHEM_SHAPE_FINGERPRINT>
12403259 118 18337400326729651155
12403260 363 18193851344319228870
12596602 18 13973381583745792357
12616999 72 7637399631748979826
12633257 1 18200887192502964416
12670546 177 5328453817522107635
13402501 40 18271248330241527533
13878862 14 17985848136037680165
14251764 38 18267023860490523383
14251764 75 18266162960256781161
14466204 15 18341341075530551216
14576447 43 9151176458771852902
14790565 3 17693652620436221316
15003188 100 18408888451649609293
15238133 3 18271241630598421580
15475509 84 17624707043029144738
17810953 82 18409445894885679765
17834072 32 18410009892905683641
20157964 124 18335986475826251599
20554085 129 16486692589330812113
20621476 13 18409445860631468945
20715895 44 18336548321715108705
21041028 32 17838630198984160730
21298829 104 18261391212957195273
21315763 129 18411702093315062133
21315763 76 18336270132456977185
21475661 188 18412262826564205309
21713013 43 8069764982717171138
21860390 5 18187638141485797644
21864079 5 18119805807704229828
22749437 52 18260822679055074481
23227448 37 18408323259686465959
23559900 14 18116147955863076727
33382 64 9799400149198308815
351380 180 18410575106507264977
465052 167 11383824996072628707
474 4 18409166601841779507
5104073 3 18129090295028598139
6328613 192 18339917109853257476

> <PUBCHEM_SHAPE_MULTIPOLES>
384.91
11.42
3.83
0.98
16.99
1.9
0.02
8.16
-1.48
-1.85
0.06
-0.16
-0.23
0.06

> <PUBCHEM_SHAPE_SELFOVERLAP>
778.255

> <PUBCHEM_SHAPE_VOLUME>
222.5

> <PUBCHEM_COORDINATE_TYPE>
2
5
10

$$$$

