582830
  -OEChem-06241222442D

 81 85  0     1  0  0  0  0  0999 V2000
    8.0622   -2.9509    0.0000 O   0  0  0  0  0  0  0  0  0  0  0  0
    5.4641   -0.4509    0.0000 O   0  0  0  0  0  0  0  0  0  0  0  0
    7.1962    0.5491    0.0000 O   0  0  0  0  0  0  0  0  0  0  0  0
    2.6691   -4.0032    0.0000 O   0  0  0  0  0  0  0  0  0  0  0  0
    9.5465    1.0002    0.0000 O   0  0  0  0  0  0  0  0  0  0  0  0
    8.6962    1.4151    0.0000 O   0  0  0  0  0  0  0  0  0  0  0  0
    6.3301    1.0491    0.0000 O   0  0  0  0  0  0  0  0  0  0  0  0
    8.0622   -1.9509    0.0000 C   0  0  3  0  0  0  0  0  0  0  0  0
    7.1962   -2.4509    0.0000 C   0  0  3  0  0  0  0  0  0  0  0  0
    6.3301   -1.9509    0.0000 C   0  0  3  0  0  0  0  0  0  0  0  0
    8.0622   -0.9509    0.0000 C   0  0  3  0  0  0  0  0  0  0  0  0
    5.4201   -2.4578    0.0000 C   0  0  3  0  0  0  0  0  0  0  0  0
    6.3301   -0.9509    0.0000 C   0  0  3  0  0  0  0  0  0  0  0  0
    7.1962   -0.4509    0.0000 C   0  0  3  0  0  0  0  0  0  0  0  0
    5.4121   -3.4994    0.0000 C   0  0  3  0  0  0  0  0  0  0  0  0
    9.0084   -0.6462    0.0000 C   0  0  3  0  0  0  0  0  0  0  0  0
    7.2122   -3.4924    0.0000 C   0  0  0  0  0  0  0  0  0  0  0  0
    9.0084   -2.2556    0.0000 C   0  0  0  0  0  0  0  0  0  0  0  0
    6.3142   -4.0202    0.0000 C   0  0  0  0  0  0  0  0  0  0  0  0
    9.5920   -1.4509    0.0000 C   0  0  0  0  0  0  0  0  0  0  0  0
    4.4933   -1.8937    0.0000 C   0  0  0  0  0  0  0  0  0  0  0  0
    8.0622    0.0491    0.0000 C   0  0  0  0  0  0  0  0  0  0  0  0
    4.4767   -4.0491    0.0000 C   0  0  0  0  0  0  0  0  0  0  0  0
    5.4278   -1.4578    0.0000 C   0  0  0  0  0  0  0  0  0  0  0  0
    3.5454   -2.4216    0.0000 C   0  0  0  0  0  0  0  0  0  0  0  0
    3.5370   -3.5066    0.0000 C   0  0  3  0  0  0  0  0  0  0  0  0
    9.7527    0.0217    0.0000 C   0  0  0  0  0  0  0  0  0  0  0  0
   10.7032   -0.2890    0.0000 C   0  0  0  0  0  0  0  0  0  0  0  0
    7.6962    1.4151    0.0000 C   0  0  0  0  0  0  0  0  0  0  0  0
    5.4641    0.5491    0.0000 C   0  0  0  0  0  0  0  0  0  0  0  0
    7.1962    2.2811    0.0000 C   0  0  0  0  0  0  0  0  0  0  0  0
    4.5981    1.0491    0.0000 C   0  0  0  0  0  0  0  0  0  0  0  0
    4.5981    2.0491    0.0000 C   0  0  0  0  0  0  0  0  0  0  0  0
    3.7321    2.5491    0.0000 C   0  0  0  0  0  0  0  0  0  0  0  0
    2.8660    2.0491    0.0000 C   0  0  0  0  0  0  0  0  0  0  0  0
    3.7321    3.5491    0.0000 C   0  0  0  0  0  0  0  0  0  0  0  0
    2.0000    2.5491    0.0000 C   0  0  0  0  0  0  0  0  0  0  0  0
    2.8660    4.0491    0.0000 C   0  0  0  0  0  0  0  0  0  0  0  0
    2.0000    3.5491    0.0000 C   0  0  0  0  0  0  0  0  0  0  0  0
    7.7355   -2.7568    0.0000 H   0  0  0  0  0  0  0  0  0  0  0  0
    6.8671   -1.6409    0.0000 H   0  0  0  0  0  0  0  0  0  0  0  0
    5.7932   -1.2609    0.0000 H   0  0  0  0  0  0  0  0  0  0  0  0
    6.6592   -0.1409    0.0000 H   0  0  0  0  0  0  0  0  0  0  0  0
    5.4145   -4.1194    0.0000 H   0  0  0  0  0  0  0  0  0  0  0  0
    8.6996   -0.1086    0.0000 H   0  0  0  0  0  0  0  0  0  0  0  0
    7.4302   -4.0728    0.0000 H   0  0  0  0  0  0  0  0  0  0  0  0
    7.8214   -3.3769    0.0000 H   0  0  0  0  0  0  0  0  0  0  0  0
    8.7574   -2.8226    0.0000 H   0  0  0  0  0  0  0  0  0  0  0  0
    9.5458   -2.5649    0.0000 H   0  0  0  0  0  0  0  0  0  0  0  0
    5.9169   -4.4961    0.0000 H   0  0  0  0  0  0  0  0  0  0  0  0
    6.7151   -4.4931    0.0000 H   0  0  0  0  0  0  0  0  0  0  0  0
   10.0529   -1.8656    0.0000 H   0  0  0  0  0  0  0  0  0  0  0  0
   10.0529   -1.0362    0.0000 H   0  0  0  0  0  0  0  0  0  0  0  0
    4.9015   -1.4270    0.0000 H   0  0  0  0  0  0  0  0  0  0  0  0
    4.1034   -1.4116    0.0000 H   0  0  0  0  0  0  0  0  0  0  0  0
    8.6822    0.0491    0.0000 H   0  0  0  0  0  0  0  0  0  0  0  0
    8.0622    0.6691    0.0000 H   0  0  0  0  0  0  0  0  0  0  0  0
    7.4422    0.0491    0.0000 H   0  0  0  0  0  0  0  0  0  0  0  0
    4.0794   -4.5251    0.0000 H   0  0  0  0  0  0  0  0  0  0  0  0
    4.8776   -4.5220    0.0000 H   0  0  0  0  0  0  0  0  0  0  0  0
    6.0478   -1.4626    0.0000 H   0  0  0  0  0  0  0  0  0  0  0  0
    5.4326   -0.8378    0.0000 H   0  0  0  0  0  0  0  0  0  0  0  0
    4.8079   -1.4530    0.0000 H   0  0  0  0  0  0  0  0  0  0  0  0
    3.3409   -1.8363    0.0000 H   0  0  0  0  0  0  0  0  0  0  0  0
    2.9337   -2.5230    0.0000 H   0  0  0  0  0  0  0  0  0  0  0  0
    3.0019   -3.1935    0.0000 H   0  0  0  0  0  0  0  0  0  0  0  0
    8.5991   -3.2609    0.0000 H   0  0  0  0  0  0  0  0  0  0  0  0
   10.5106   -0.8783    0.0000 H   0  0  0  0  0  0  0  0  0  0  0  0
   11.2925   -0.4816    0.0000 H   0  0  0  0  0  0  0  0  0  0  0  0
   10.8958    0.3003    0.0000 H   0  0  0  0  0  0  0  0  0  0  0  0
    2.1334   -3.6912    0.0000 H   0  0  0  0  0  0  0  0  0  0  0  0
    7.7331    2.5911    0.0000 H   0  0  0  0  0  0  0  0  0  0  0  0
    6.8862    2.8181    0.0000 H   0  0  0  0  0  0  0  0  0  0  0  0
    6.6592    1.9711    0.0000 H   0  0  0  0  0  0  0  0  0  0  0  0
    4.0611    0.7391    0.0000 H   0  0  0  0  0  0  0  0  0  0  0  0
    5.1350    2.3591    0.0000 H   0  0  0  0  0  0  0  0  0  0  0  0
    2.8660    1.4291    0.0000 H   0  0  0  0  0  0  0  0  0  0  0  0
    4.2690    3.8591    0.0000 H   0  0  0  0  0  0  0  0  0  0  0  0
    1.4631    2.2391    0.0000 H   0  0  0  0  0  0  0  0  0  0  0  0
    2.8660    4.6691    0.0000 H   0  0  0  0  0  0  0  0  0  0  0  0
    1.4631    3.8591    0.0000 H   0  0  0  0  0  0  0  0  0  0  0  0
  1  8  1  0  0  0  0
  1 67  1  0  0  0  0
  2 13  1  0  0  0  0
  2 30  1  0  0  0  0
  3 14  1  0  0  0  0
  3 29  1  0  0  0  0
  4 26  1  0  0  0  0
  4 71  1  0  0  0  0
  5 27  2  0  0  0  0
  6 29  2  0  0  0  0
  7 30  2  0  0  0  0
  8  9  1  0  0  0  0
  8 11  1  0  0  0  0
  8 18  1  0  0  0  0
  9 10  1  0  0  0  0
  9 17  1  0  0  0  0
  9 40  1  0  0  0  0
 10 12  1  0  0  0  0
 10 13  1  0  0  0  0
 10 41  1  0  0  0  0
 11 14  1  0  0  0  0
 11 16  1  0  0  0  0
 11 22  1  0  0  0  0
 12 15  1  0  0  0  0
 12 21  1  0  0  0  0
 12 24  1  0  0  0  0
 13 14  1  0  0  0  0
 13 42  1  0  0  0  0
 14 43  1  0  0  0  0
 15 19  1  0  0  0  0
 15 23  1  0  0  0  0
 15 44  1  0  0  0  0
 16 20  1  0  0  0  0
 16 27  1  0  0  0  0
 16 45  1  0  0  0  0
 17 19  1  0  0  0  0
 17 46  1  0  0  0  0
 17 47  1  0  0  0  0
 18 20  1  0  0  0  0
 18 48  1  0  0  0  0
 18 49  1  0  0  0  0
 19 50  1  0  0  0  0
 19 51  1  0  0  0  0
 20 52  1  0  0  0  0
 20 53  1  0  0  0  0
 21 25  1  0  0  0  0
 21 54  1  0  0  0  0
 21 55  1  0  0  0  0
 22 56  1  0  0  0  0
 22 57  1  0  0  0  0
 22 58  1  0  0  0  0
 23 26  1  0  0  0  0
 23 59  1  0  0  0  0
 23 60  1  0  0  0  0
 24 61  1  0  0  0  0
 24 62  1  0  0  0  0
 24 63  1  0  0  0  0
 25 26  1  0  0  0  0
 25 64  1  0  0  0  0
 25 65  1  0  0  0  0
 26 66  1  0  0  0  0
 27 28  1  0  0  0  0
 28 68  1  0  0  0  0
 28 69  1  0  0  0  0
 28 70  1  0  0  0  0
 29 31  1  0  0  0  0
 30 32  1  0  0  0  0
 31 72  1  0  0  0  0
 31 73  1  0  0  0  0
 31 74  1  0  0  0  0
 32 33  2  3  0  0  0
 32 75  1  0  0  0  0
 33 34  1  0  0  0  0
 33 76  1  0  0  0  0
 34 35  2  0  0  0  0
 34 36  1  0  0  0  0
 35 37  1  0  0  0  0
 35 77  1  0  0  0  0
 36 38  2  0  0  0  0
 36 78  1  0  0  0  0
 37 39  2  0  0  0  0
 37 79  1  0  0  0  0
 38 39  1  0  0  0  0
 38 80  1  0  0  0  0
 39 81  1  0  0  0  0
M  END
> <PUBCHEM_COMPOUND_CID>
582830

> <PUBCHEM_COMPOUND_CANONICALIZED>
1

> <PUBCHEM_CACTVS_COMPLEXITY>
1000

> <PUBCHEM_CACTVS_HBOND_ACCEPTOR>
7

> <PUBCHEM_CACTVS_HBOND_DONOR>
2

> <PUBCHEM_CACTVS_ROTATABLE_BOND>
7

> <PUBCHEM_CACTVS_SUBSKEYS>
AAADcfB8OAAAAAAAAAAAAAAAAAAAAYAAAAAwYMGAAAAAAGDBAAAAGgAACAAAD1SgmAIyCIAABgCIAqDSCAACAAAgAAAIiAEAAMgJNDKAMRCCcAAlgAAKqYfK7PzPgAAAAAAAAADCAAYQADCAAYAADAAAAA==

> <PUBCHEM_IUPAC_OPENEYE_NAME>
(12-acetoxy-17-acetyl-3,14-dihydroxy-10,13-dimethyl-1,2,3,4,5,6,7,8,9,11,12,15,16,17-tetradecahydrocyclopenta[a]phenanthren-11-yl) 3-phenylprop-2-enoate

> <PUBCHEM_IUPAC_CAS_NAME>
3-phenyl-2-propenoic acid (17-acetyl-12-acetyloxy-3,14-dihydroxy-10,13-dimethyl-1,2,3,4,5,6,7,8,9,11,12,15,16,17-tetradecahydrocyclopenta[a]phenanthren-11-yl) ester

> <PUBCHEM_IUPAC_NAME>
(17-acetyl-12-acetyloxy-3,14-dihydroxy-10,13-dimethyl-1,2,3,4,5,6,7,8,9,11,12,15,16,17-tetradecahydrocyclopenta[a]phenanthren-11-yl) 3-phenylprop-2-enoate

> <PUBCHEM_IUPAC_SYSTEMATIC_NAME>
[12-acetyloxy-17-ethanoyl-10,13-dimethyl-3,14-bis(oxidanyl)-1,2,3,4,5,6,7,8,9,11,12,15,16,17-tetradecahydrocyclopenta[a]phenanthren-11-yl] 3-phenylprop-2-enoate

> <PUBCHEM_IUPAC_TRADITIONAL_NAME>
3-phenylacrylic acid (12-acetoxy-17-acetyl-3,14-dihydroxy-10,13-dimethyl-1,2,3,4,5,6,7,8,9,11,12,15,16,17-tetradecahydrocyclopenta[a]phenanthren-11-yl) ester

> <PUBCHEM_IUPAC_INCHI>
InChI=1S/C32H42O7/c1-19(33)24-15-17-32(37)25-12-11-22-18-23(35)14-16-30(22,3)27(25)28(29(31(24,32)4)38-20(2)34)39-26(36)13-10-21-8-6-5-7-9-21/h5-10,13,22-25,27-29,35,37H,11-12,14-18H2,1-4H3

> <PUBCHEM_IUPAC_INCHIKEY>
AAHUGUDHVQKKSK-UHFFFAOYSA-N

> <PUBCHEM_XLOGP3_AA>
4.4

> <PUBCHEM_EXACT_MASS>
538.293054

> <PUBCHEM_MOLECULAR_FORMULA>
C32H42O7

> <PUBCHEM_MOLECULAR_WEIGHT>
538.67168

> <PUBCHEM_OPENEYE_CAN_SMILES>
CC(=O)C1CCC2(C1(C(C(C3C2CCC4C3(CCC(C4)O)C)OC(=O)C=CC5=CC=CC=C5)OC(=O)C)C)O

> <PUBCHEM_OPENEYE_ISO_SMILES>
CC(=O)C1CCC2(C1(C(C(C3C2CCC4C3(CCC(C4)O)C)OC(=O)C=CC5=CC=CC=C5)OC(=O)C)C)O

> <PUBCHEM_CACTVS_TPSA>
110

> <PUBCHEM_MONOISOTOPIC_WEIGHT>
538.293054

> <PUBCHEM_TOTAL_CHARGE>
0

> <PUBCHEM_HEAVY_ATOM_COUNT>
39

> <PUBCHEM_ATOM_DEF_STEREO_COUNT>
0

> <PUBCHEM_ATOM_UDEF_STEREO_COUNT>
10

> <PUBCHEM_BOND_DEF_STEREO_COUNT>
0

> <PUBCHEM_BOND_UDEF_STEREO_COUNT>
1

> <PUBCHEM_ISOTOPIC_ATOM_COUNT>
0

> <PUBCHEM_COMPONENT_COUNT>
1

> <PUBCHEM_CACTVS_TAUTO_COUNT>
3

> <PUBCHEM_COORDINATE_TYPE>
1
5
255

> <PUBCHEM_BONDANNOTATIONS>
8  1  3
10  41  3
11  22  3
12  24  3
15  44  3
16  27  3
13  2  3
14  3  3
32  33  1
34  35  8
34  36  8
35  37  8
36  38  8
37  39  8
38  39  8
26  4  3
9  40  3

$$$$

