10818
  -OEChem-06261205003D

 18 18  0     1  0  0  0  0  0999 V2000
    2.4279   -0.2028   -0.4209 S   0  0  2  0  0  0  0  0  0  0  0  0
    2.6233   -1.0154    0.9547 O   0  0  0  0  0  0  0  0  0  0  0  0
    2.9754    1.1800   -0.2041 O   0  0  0  0  0  0  0  0  0  0  0  0
   -2.1222    0.0624    0.0547 C   0  0  0  0  0  0  0  0  0  0  0  0
    0.6478   -0.0993   -0.2343 C   0  0  0  0  0  0  0  0  0  0  0  0
   -1.3376    1.2059    0.2039 C   0  0  0  0  0  0  0  0  0  0  0  0
   -1.5219   -1.1620   -0.2390 C   0  0  0  0  0  0  0  0  0  0  0  0
    0.0474    1.1251    0.0593 C   0  0  0  0  0  0  0  0  0  0  0  0
   -0.1369   -1.2429   -0.3835 C   0  0  0  0  0  0  0  0  0  0  0  0
   -3.6032    0.1490    0.2092 C   0  0  0  0  0  0  0  0  0  0  0  0
   -1.7940    2.1658    0.4310 H   0  0  0  0  0  0  0  0  0  0  0  0
   -2.1228   -2.0594   -0.3597 H   0  0  0  0  0  0  0  0  0  0  0  0
    0.6330    2.0320    0.1808 H   0  0  0  0  0  0  0  0  0  0  0  0
    0.3152   -2.2042   -0.6142 H   0  0  0  0  0  0  0  0  0  0  0  0
   -4.0159   -0.7899    0.5936 H   0  0  0  0  0  0  0  0  0  0  0  0
   -3.8811    0.9353    0.9193 H   0  0  0  0  0  0  0  0  0  0  0  0
   -4.0694    0.3676   -0.7566 H   0  0  0  0  0  0  0  0  0  0  0  0
    3.4583   -0.7393    1.4005 H   0  0  0  0  0  0  0  0  0  0  0  0
  1  2  1  0  0  0  0
  1  3  2  0  0  0  0
  1  5  1  0  0  0  0
  2 18  1  0  0  0  0
  4  6  2  0  0  0  0
  4  7  1  0  0  0  0
  4 10  1  0  0  0  0
  5  8  2  0  0  0  0
  5  9  1  0  0  0  0
  6  8  1  0  0  0  0
  6 11  1  0  0  0  0
  7  9  2  0  0  0  0
  7 12  1  0  0  0  0
  8 13  1  0  0  0  0
  9 14  1  0  0  0  0
 10 15  1  0  0  0  0
 10 16  1  0  0  0  0
 10 17  1  0  0  0  0
M  END
> <PUBCHEM_COMPOUND_CID>
10818

> <PUBCHEM_CONFORMER_RMSD>
0.4

> <PUBCHEM_CONFORMER_DIVERSEORDER>
1
2
3

> <PUBCHEM_MMFF94_PARTIAL_CHARGES>
15
1 0.49
10 0.14
11 0.15
12 0.15
13 0.15
14 0.15
18 0.5
2 -0.55
3 -0.5
4 -0.14
5 0.06
6 -0.15
7 -0.15
8 -0.15
9 -0.15

> <PUBCHEM_EFFECTIVE_ROTOR_COUNT>
1

> <PUBCHEM_PHARMACOPHORE_FEATURES>
1
6 4 5 6 7 8 9 rings

> <PUBCHEM_HEAVY_ATOM_COUNT>
10

> <PUBCHEM_ATOM_DEF_STEREO_COUNT>
0

> <PUBCHEM_ATOM_UDEF_STEREO_COUNT>
0

> <PUBCHEM_BOND_DEF_STEREO_COUNT>
0

> <PUBCHEM_BOND_UDEF_STEREO_COUNT>
0

> <PUBCHEM_ISOTOPIC_ATOM_COUNT>
0

> <PUBCHEM_COMPONENT_COUNT>
1

> <PUBCHEM_CACTVS_TAUTO_COUNT>
1

> <PUBCHEM_CONFORMER_ID>
00002A4200000001

> <PUBCHEM_MMFF94_ENERGY>
21.965

> <PUBCHEM_FEATURE_SELFOVERLAP>
5.074

> <PUBCHEM_SHAPE_FINGERPRINT>
10219947 1 18410851075356942725
10857977 72 18260271845314930923
11062470 55 18131348609553134213
12932764 1 18131914870773256142
14325111 11 18409444795516074093
14993402 34 18407758118967232469
15310529 11 17561085812684900149
15775835 57 18411976940793407092
16945 1 18260830423081322127
193761 8 17543623588298538829
20645464 45 17168441397397073306
20871998 184 17896593994994024543
21040471 1 18189894386516747999
23235685 24 18261110781403491541
23402655 69 18118134787071487061
23463225 33 18340207491626522418
23552423 10 18126003754365024173
2748010 2 18046630006003662325
29004967 10 16272207487795790702
369184 2 18059859471326472687
5084963 1 17895750836994452102
7364860 26 18334012818052677998

> <PUBCHEM_SHAPE_MULTIPOLES>
197.91
4.78
1.38
0.73
0.02
0.03
-0.06
0.34
-0.4
-0.12
0.01
-0.24
-0.1
-0.29

> <PUBCHEM_SHAPE_SELFOVERLAP>
394.047

> <PUBCHEM_SHAPE_VOLUME>
117.8

> <PUBCHEM_COORDINATE_TYPE>
2
5
10

$$$$

