9564
  -OEChem-06261203492D

 35 35  0     0  0  0  0  0  0999 V2000
    3.0000   -0.5950    0.0000 S   0  0  0  0  0  0  0  0  0  0  0  0
    4.0000   -0.5950    0.0000 O   0  0  0  0  0  0  0  0  0  0  0  0
    2.0000   -0.5950    0.0000 O   0  0  0  0  0  0  0  0  0  0  0  0
    4.7320    0.4050    0.0000 O   0  0  0  0  0  0  0  0  0  0  0  0
    3.8660    1.9050    0.0000 N   0  0  0  0  0  0  0  0  0  0  0  0
    3.0000    0.4050    0.0000 N   0  0  0  0  0  0  0  0  0  0  0  0
    3.0000   -4.5950    0.0000 N   0  0  0  0  0  0  0  0  0  0  0  0
    4.7320    3.4050    0.0000 C   0  0  0  0  0  0  0  0  0  0  0  0
    4.7320    2.4050    0.0000 C   0  0  0  0  0  0  0  0  0  0  0  0
    5.5981    3.9050    0.0000 C   0  0  0  0  0  0  0  0  0  0  0  0
    3.0000   -1.5950    0.0000 C   0  0  0  0  0  0  0  0  0  0  0  0
    5.5981    4.9050    0.0000 C   0  0  0  0  0  0  0  0  0  0  0  0
    3.8660    0.9050    0.0000 C   0  0  0  0  0  0  0  0  0  0  0  0
    2.1340   -2.0950    0.0000 C   0  0  0  0  0  0  0  0  0  0  0  0
    3.8660   -2.0950    0.0000 C   0  0  0  0  0  0  0  0  0  0  0  0
    3.0000   -3.5950    0.0000 C   0  0  0  0  0  0  0  0  0  0  0  0
    2.1340   -3.0950    0.0000 C   0  0  0  0  0  0  0  0  0  0  0  0
    3.8660   -3.0950    0.0000 C   0  0  0  0  0  0  0  0  0  0  0  0
    4.5200    3.9876    0.0000 H   0  0  0  0  0  0  0  0  0  0  0  0
    4.1215    3.2973    0.0000 H   0  0  0  0  0  0  0  0  0  0  0  0
    4.9441    1.8224    0.0000 H   0  0  0  0  0  0  0  0  0  0  0  0
    5.3426    2.5127    0.0000 H   0  0  0  0  0  0  0  0  0  0  0  0
    5.8101    3.3224    0.0000 H   0  0  0  0  0  0  0  0  0  0  0  0
    6.2087    4.0127    0.0000 H   0  0  0  0  0  0  0  0  0  0  0  0
    3.3291    2.2150    0.0000 H   0  0  0  0  0  0  0  0  0  0  0  0
    2.4631    0.7150    0.0000 H   0  0  0  0  0  0  0  0  0  0  0  0
    6.2181    4.9050    0.0000 H   0  0  0  0  0  0  0  0  0  0  0  0
    5.5981    5.5250    0.0000 H   0  0  0  0  0  0  0  0  0  0  0  0
    4.9781    4.9050    0.0000 H   0  0  0  0  0  0  0  0  0  0  0  0
    1.5970   -1.7850    0.0000 H   0  0  0  0  0  0  0  0  0  0  0  0
    4.4030   -1.7850    0.0000 H   0  0  0  0  0  0  0  0  0  0  0  0
    1.5970   -3.4050    0.0000 H   0  0  0  0  0  0  0  0  0  0  0  0
    4.4030   -3.4050    0.0000 H   0  0  0  0  0  0  0  0  0  0  0  0
    2.4631   -4.9050    0.0000 H   0  0  0  0  0  0  0  0  0  0  0  0
    3.5369   -4.9050    0.0000 H   0  0  0  0  0  0  0  0  0  0  0  0
  1  2  2  0  0  0  0
  1  3  2  0  0  0  0
  1  6  1  0  0  0  0
  1 11  1  0  0  0  0
  4 13  2  0  0  0  0
  5  9  1  0  0  0  0
  5 13  1  0  0  0  0
  5 25  1  0  0  0  0
  6 13  1  0  0  0  0
  6 26  1  0  0  0  0
  7 16  1  0  0  0  0
  7 34  1  0  0  0  0
  7 35  1  0  0  0  0
  8  9  1  0  0  0  0
  8 10  1  0  0  0  0
  8 19  1  0  0  0  0
  8 20  1  0  0  0  0
  9 21  1  0  0  0  0
  9 22  1  0  0  0  0
 10 12  1  0  0  0  0
 10 23  1  0  0  0  0
 10 24  1  0  0  0  0
 11 14  2  0  0  0  0
 11 15  1  0  0  0  0
 12 27  1  0  0  0  0
 12 28  1  0  0  0  0
 12 29  1  0  0  0  0
 14 17  1  0  0  0  0
 14 30  1  0  0  0  0
 15 18  2  0  0  0  0
 15 31  1  0  0  0  0
 16 17  2  0  0  0  0
 16 18  1  0  0  0  0
 17 32  1  0  0  0  0
 18 33  1  0  0  0  0
M  END
> <PUBCHEM_COMPOUND_CID>
9564

> <PUBCHEM_COMPOUND_CANONICALIZED>
1

> <PUBCHEM_CACTVS_COMPLEXITY>
356

> <PUBCHEM_CACTVS_HBOND_ACCEPTOR>
4

> <PUBCHEM_CACTVS_HBOND_DONOR>
3

> <PUBCHEM_CACTVS_ROTATABLE_BOND>
5

> <PUBCHEM_CACTVS_SUBSKEYS>
AAADceBzMABAAAAAAAAAAAAAAAAAAAAAAAAwAAAAAAAAAAABAAAAHgQQQAAACAjBUAQzwYLAAAKIACRCUHDCABAgAgAIiJgIZIiIICKAkZGEIABglgIIyAcQAAAAAAQAAAAAAAAACAAAAAAAAAAAAAAAAA==

> <PUBCHEM_IUPAC_OPENEYE_NAME>
1-(4-aminophenyl)sulfonyl-3-butyl-urea

> <PUBCHEM_IUPAC_CAS_NAME>
1-(4-aminophenyl)sulfonyl-3-butylurea

> <PUBCHEM_IUPAC_NAME>
1-(4-aminophenyl)sulfonyl-3-butylurea

> <PUBCHEM_IUPAC_SYSTEMATIC_NAME>
1-(4-aminophenyl)sulfonyl-3-butyl-urea

> <PUBCHEM_IUPAC_TRADITIONAL_NAME>
1-butyl-3-sulfanilyl-urea

> <PUBCHEM_IUPAC_INCHI>
InChI=1S/C11H17N3O3S/c1-2-3-8-13-11(15)14-18(16,17)10-6-4-9(12)5-7-10/h4-7H,2-3,8,12H2,1H3,(H2,13,14,15)

> <PUBCHEM_IUPAC_INCHIKEY>
VDTNNGKXZGSZIP-UHFFFAOYSA-N

> <PUBCHEM_XLOGP3>
1

> <PUBCHEM_EXACT_MASS>
271.099062

> <PUBCHEM_MOLECULAR_FORMULA>
C11H17N3O3S

> <PUBCHEM_MOLECULAR_WEIGHT>
271.33598

> <PUBCHEM_OPENEYE_CAN_SMILES>
CCCCNC(=O)NS(=O)(=O)C1=CC=C(C=C1)N

> <PUBCHEM_OPENEYE_ISO_SMILES>
CCCCNC(=O)NS(=O)(=O)C1=CC=C(C=C1)N

> <PUBCHEM_CACTVS_TPSA>
110

> <PUBCHEM_MONOISOTOPIC_WEIGHT>
271.099062

> <PUBCHEM_TOTAL_CHARGE>
0

> <PUBCHEM_HEAVY_ATOM_COUNT>
18

> <PUBCHEM_ATOM_DEF_STEREO_COUNT>
0

> <PUBCHEM_ATOM_UDEF_STEREO_COUNT>
0

> <PUBCHEM_BOND_DEF_STEREO_COUNT>
0

> <PUBCHEM_BOND_UDEF_STEREO_COUNT>
0

> <PUBCHEM_ISOTOPIC_ATOM_COUNT>
0

> <PUBCHEM_COMPONENT_COUNT>
1

> <PUBCHEM_CACTVS_TAUTO_COUNT>
3

> <PUBCHEM_COORDINATE_TYPE>
1
5
255

> <PUBCHEM_BONDANNOTATIONS>
11  14  8
11  15  8
14  17  8
15  18  8
16  17  8
16  18  8

$$$$

