5726
  -OEChem-06261200503D

 32 33  0     1  0  0  0  0  0999 V2000
    0.9179    0.5315    1.0162 O   0  0  0  0  0  0  0  0  0  0  0  0
    1.4340    3.2516    0.6483 O   0  0  0  0  0  0  0  0  0  0  0  0
   -1.3994   -2.8367    0.4450 O   0  0  0  0  0  0  0  0  0  0  0  0
   -5.0002   -0.0735   -0.2948 O   0  0  0  0  0  0  0  0  0  0  0  0
   -0.9903   -0.5506    0.2031 N   0  0  0  0  0  0  0  0  0  0  0  0
    3.3762   -1.0751    0.0188 N   0  0  0  0  0  0  0  0  0  0  0  0
   -3.1862   -1.4472    0.0750 N   0  0  0  0  0  0  0  0  0  0  0  0
    4.5937   -0.8733   -0.1225 N   0  3  0  0  0  0  0  0  0  0  0  0
    5.7139   -0.6970   -0.2456 N   0  5  0  0  0  0  0  0  0  0  0  0
    2.4910   -0.1125   -0.6492 C   0  0  1  0  0  0  0  0  0  0  0  0
    0.4293   -0.6519    0.3715 C   0  0  1  0  0  0  0  0  0  0  0  0
    1.1682   -0.7776   -0.9488 C   0  0  0  0  0  0  0  0  0  0  0  0
    2.1078    0.9803    0.3408 C   0  0  1  0  0  0  0  0  0  0  0  0
    1.7880    2.3039   -0.3432 C   0  0  0  0  0  0  0  0  0  0  0  0
   -1.5482    0.7051   -0.0156 C   0  0  0  0  0  0  0  0  0  0  0  0
   -1.8206   -1.6939    0.2554 C   0  0  0  0  0  0  0  0  0  0  0  0
   -2.8552    0.9375   -0.1879 C   0  0  0  0  0  0  0  0  0  0  0  0
   -3.7898   -0.2184   -0.1449 C   0  0  0  0  0  0  0  0  0  0  0  0
   -3.4299    2.2977   -0.4215 C   0  0  0  0  0  0  0  0  0  0  0  0
    2.9649    0.2740   -1.5597 H   0  0  0  0  0  0  0  0  0  0  0  0
    0.6659   -1.5024    1.0220 H   0  0  0  0  0  0  0  0  0  0  0  0
    0.6532   -0.2222   -1.7428 H   0  0  0  0  0  0  0  0  0  0  0  0
    1.2519   -1.8182   -1.2788 H   0  0  0  0  0  0  0  0  0  0  0  0
    2.8723    1.1458    1.1087 H   0  0  0  0  0  0  0  0  0  0  0  0
    0.9645    2.2269   -1.0581 H   0  0  0  0  0  0  0  0  0  0  0  0
    2.6654    2.6841   -0.8757 H   0  0  0  0  0  0  0  0  0  0  0  0
   -0.8710    1.5458   -0.0560 H   0  0  0  0  0  0  0  0  0  0  0  0
   -3.8003   -2.2562    0.1093 H   0  0  0  0  0  0  0  0  0  0  0  0
    0.6723    2.8969    1.1376 H   0  0  0  0  0  0  0  0  0  0  0  0
   -3.9504    2.3326   -1.3841 H   0  0  0  0  0  0  0  0  0  0  0  0
   -2.6564    3.0728   -0.4338 H   0  0  0  0  0  0  0  0  0  0  0  0
   -4.1431    2.5525    0.3692 H   0  0  0  0  0  0  0  0  0  0  0  0
  1 11  1  0  0  0  0
  1 13  1  0  0  0  0
  2 14  1  0  0  0  0
  2 29  1  0  0  0  0
  3 16  2  0  0  0  0
  4 18  2  0  0  0  0
  5 11  1  0  0  0  0
  5 15  1  0  0  0  0
  5 16  1  0  0  0  0
  6  8  2  0  0  0  0
  6 10  1  0  0  0  0
  7 16  1  0  0  0  0
  7 18  1  0  0  0  0
  7 28  1  0  0  0  0
  8  9  2  0  0  0  0
 10 12  1  0  0  0  0
 10 13  1  0  0  0  0
 10 20  1  0  0  0  0
 11 12  1  0  0  0  0
 11 21  1  0  0  0  0
 12 22  1  0  0  0  0
 12 23  1  0  0  0  0
 13 14  1  0  0  0  0
 13 24  1  0  0  0  0
 14 25  1  0  0  0  0
 14 26  1  0  0  0  0
 15 17  2  0  0  0  0
 15 27  1  0  0  0  0
 17 18  1  0  0  0  0
 17 19  1  0  0  0  0
 19 30  1  0  0  0  0
 19 31  1  0  0  0  0
 19 32  1  0  0  0  0
M  CHG  2   8   1   9  -1
M  END
> <PUBCHEM_COMPOUND_CID>
5726

> <PUBCHEM_CONFORMER_RMSD>
0.6

> <PUBCHEM_CONFORMER_DIVERSEORDER>
7
43
216
107
163
146
262
226
221
17
19
199
207
157
165
212
232
240
76
94
42
284
159
276
78
289
220
177
263
131
39
48
96
89
285
173
180
117
69
25
203
136
245
31
153
64
151
217
56
54
288
8
91
205
171
143
223
291
275
135
253
77
147
90
215
24
98
189
255
34
35
179
229
277
162
233
230
113
266
99
130
142
254
272
137
184
170
209
125
198
68
66
44
239
194
186
80
246
185
26
55
47
161
95
9
112
258
82
154
191
260
81
106
74
213
251
28
283
188
169
257
150
290
52
175
33
141
103
224
286
228
72
86
182
160
45
111
50
200
62
248
294
244
293
20
37
84
279
49
114
271
115
65
108
256
270
53
102
14
1
127
168
269
241
237
208
10
149
190
148
259
67
59
236
292
204
23
192
287
273
100
36
242
46
18
211
134
124
280
231
70
97
29
4
71
104
278
222
51
15
268
60
73
227
123
30
101
22
247
202
281
21
63
193
210
156
243
128
120
164
61
3
166
267
252
2
79
85
218
118
6
187
122
57
83
88
250
109
38
214
12
92
13
126
133
183
119
201
178
110
155
249
140
265
219
93
282
234
174
181
132
105
27
129
16
196
11
225
138
176
5
41
75
58
274
238
40
158
206
144
264
197
87
139
261
152
167
32
195
121
235
145
172
116

> <PUBCHEM_MMFF94_PARTIAL_CHARGES>
21
1 -0.56
10 0.25
11 0.58
13 0.28
14 0.28
15 -0.04
16 0.69
17 -0.12
18 0.62
19 0.14
2 -0.68
27 0.15
28 0.37
29 0.4
3 -0.57
4 -0.57
5 -0.47
6 -0.56
7 -0.49
8 0.69
9 -0.37

> <PUBCHEM_EFFECTIVE_ROTOR_COUNT>
4

> <PUBCHEM_PHARMACOPHORE_FEATURES>
8
1 1 acceptor
1 2 acceptor
1 2 donor
1 3 acceptor
1 4 acceptor
1 7 donor
5 1 10 11 12 13 rings
6 5 7 15 16 17 18 rings

> <PUBCHEM_HEAVY_ATOM_COUNT>
19

> <PUBCHEM_ATOM_DEF_STEREO_COUNT>
0

> <PUBCHEM_ATOM_UDEF_STEREO_COUNT>
3

> <PUBCHEM_BOND_DEF_STEREO_COUNT>
0

> <PUBCHEM_BOND_UDEF_STEREO_COUNT>
0

> <PUBCHEM_ISOTOPIC_ATOM_COUNT>
0

> <PUBCHEM_COMPONENT_COUNT>
1

> <PUBCHEM_CACTVS_TAUTO_COUNT>
3

> <PUBCHEM_CONFORMER_ID>
0000165E00000007

> <PUBCHEM_MMFF94_ENERGY>
37.9202

> <PUBCHEM_FEATURE_SELFOVERLAP>
40.599

> <PUBCHEM_SHAPE_FINGERPRINT>
10465860 250 18410295839418096618
10608611 8 18338237051036498889
12236239 1 17275102851116906935
12403259 226 18411141299192721269
12403260 363 18410017632710921311
124424 183 18410290315721031686
13134695 92 17385731279077462632
13140716 1 18266729195817342859
15042514 8 18270393872689941051
15099037 51 18411136952295603071
15196674 1 18339360760768269061
15219456 202 18264206915720874051
15375462 6 17978227158277429582
16945 1 18336249206806228443
17802600 8 18412266142490175437
17804303 29 18412822469250526927
18186145 218 18410864269718178005
200 152 17240204343783122015
20233049 118 18271245023068697396
21267235 1 18411972568332213355
21501502 16 18264203612985975375
21524375 3 18201719600262652419
221490 88 18268142063773968594
23175994 123 17603863416428162488
23366157 5 17986958445187402884
23402539 116 18263087758918051972
23557571 272 18261667190617613012
23559900 14 18336553715639676744
23622692 118 17970922063189536422
2748010 2 18051125896280897867
3004659 81 18130222787663201686
3084891 72 18193560188517329218
3286 77 18412546491837379693
335352 9 18411136944174809911
350125 39 18412821404694918233
351380 180 18408889529480685119
5104073 3 18338232657237398771
69090 78 18335143077071952687
7364860 26 18263926540646499576
74978 22 18412545370850752690
81228 2 17826490448193852312
8809292 202 18412259502238750611
93112 12 18411980221921554959
9709674 26 18194685869407453899
9981440 41 17123373296312084660

> <PUBCHEM_SHAPE_MULTIPOLES>
342.63
8.65
2.61
0.77
3.71
1.22
-0.02
-1.24
-1.16
-0.47
0.32
0.15
0.07
0.56

> <PUBCHEM_SHAPE_SELFOVERLAP>
717.33

> <PUBCHEM_SHAPE_VOLUME>
193.1

> <PUBCHEM_COORDINATE_TYPE>
2
5
10

$$$$

