47205095
  -OEChem-06241222583D

 31 32  0     0  0  0  0  0  0999 V2000
    0.7378   -0.7883   -1.8918 O   0  0  0  0  0  0  0  0  0  0  0  0
   -3.6538    2.1929    1.1506 O   0  5  0  0  0  0  0  0  0  0  0  0
   -4.3883    1.6696   -0.8509 O   0  0  0  0  0  0  0  0  0  0  0  0
    1.4527   -1.4539    0.2112 N   0  0  0  0  0  0  0  0  0  0  0  0
    3.4736    0.8312   -0.6335 N   0  0  0  0  0  0  0  0  0  0  0  0
   -3.6973    1.4198    0.1647 N   0  3  0  0  0  0  0  0  0  0  0  0
    4.1945    1.8871   -0.2194 N   0  0  0  0  0  0  0  0  0  0  0  0
   -0.8990   -1.0075   -0.2272 C   0  0  0  0  0  0  0  0  0  0  0  0
   -1.6246    0.1830   -0.2723 C   0  0  0  0  0  0  0  0  0  0  0  0
    2.8587   -1.5456   -0.1108 C   0  0  0  0  0  0  0  0  0  0  0  0
   -2.9365    0.2182    0.1999 C   0  0  0  0  0  0  0  0  0  0  0  0
    0.4730   -1.0765   -0.7126 C   0  0  0  0  0  0  0  0  0  0  0  0
    3.5850   -0.2628    0.1737 C   0  0  0  0  0  0  0  0  0  0  0  0
   -1.4854   -2.1626    0.2902 C   0  0  0  0  0  0  0  0  0  0  0  0
   -0.9901    1.4202   -0.8296 C   0  0  0  0  0  0  0  0  0  0  0  0
   -3.5230   -0.9367    0.7173 C   0  0  0  0  0  0  0  0  0  0  0  0
   -2.7973   -2.1272    0.7623 C   0  0  0  0  0  0  0  0  0  0  0  0
    4.4384    0.1029    1.1858 C   0  0  0  0  0  0  0  0  0  0  0  0
    4.7816    1.4363    0.8924 C   0  0  0  0  0  0  0  0  0  0  0  0
    2.9763   -1.8177   -1.1656 H   0  0  0  0  0  0  0  0  0  0  0  0
    3.2771   -2.3562    0.4953 H   0  0  0  0  0  0  0  0  0  0  0  0
    1.1756   -1.6495    1.1691 H   0  0  0  0  0  0  0  0  0  0  0  0
   -0.9358   -3.0999    0.3282 H   0  0  0  0  0  0  0  0  0  0  0  0
   -1.0669    1.4209   -1.9218 H   0  0  0  0  0  0  0  0  0  0  0  0
   -1.4434    2.3431   -0.4564 H   0  0  0  0  0  0  0  0  0  0  0  0
    0.0659    1.4917   -0.5466 H   0  0  0  0  0  0  0  0  0  0  0  0
   -4.5448   -0.9249    1.0889 H   0  0  0  0  0  0  0  0  0  0  0  0
   -3.2544   -3.0268    1.1641 H   0  0  0  0  0  0  0  0  0  0  0  0
    4.7648   -0.5056    2.0164 H   0  0  0  0  0  0  0  0  0  0  0  0
    2.9242    0.9283   -1.4784 H   0  0  0  0  0  0  0  0  0  0  0  0
    5.4350    2.0981    1.4425 H   0  0  0  0  0  0  0  0  0  0  0  0
  1 12  2  0  0  0  0
  2  6  1  0  0  0  0
  3  6  2  0  0  0  0
  4 10  1  0  0  0  0
  4 12  1  0  0  0  0
  4 22  1  0  0  0  0
  5  7  1  0  0  0  0
  5 13  1  0  0  0  0
  5 30  1  0  0  0  0
  6 11  1  0  0  0  0
  7 19  2  0  0  0  0
  8  9  2  0  0  0  0
  8 12  1  0  0  0  0
  8 14  1  0  0  0  0
  9 11  1  0  0  0  0
  9 15  1  0  0  0  0
 10 13  1  0  0  0  0
 10 20  1  0  0  0  0
 10 21  1  0  0  0  0
 11 16  2  0  0  0  0
 13 18  2  0  0  0  0
 14 17  2  0  0  0  0
 14 23  1  0  0  0  0
 15 24  1  0  0  0  0
 15 25  1  0  0  0  0
 15 26  1  0  0  0  0
 16 17  1  0  0  0  0
 16 27  1  0  0  0  0
 17 28  1  0  0  0  0
 18 19  1  0  0  0  0
 18 29  1  0  0  0  0
 19 31  1  0  0  0  0
M  CHG  2   2  -1   6   1
M  END
> <PUBCHEM_COMPOUND_CID>
47205095

> <PUBCHEM_CONFORMER_RMSD>
0.6

> <PUBCHEM_CONFORMER_DIVERSEORDER>
1
13
25
92
96
71
52
60
107
78
89
101
62
46
59
81
33
87
110
45
98
104
108
41
18
95
105
21
32
102
12
67
57
53
43
73
63
103
31
38
50
47
61
77
42
82
11
69
83
90
109
66
58
79
48
35
97
64
86
20
68
72
17
54
93
80
44
29
74
106
22
5
91
28
30
55
40
7
65
23
85
84
76
88
8
70
34
24
27
36
6
94
19
100
75
16
99
39
49
14
2
37
4
26
9
56
10
15
3
51

> <PUBCHEM_MMFF94_PARTIAL_CHARGES>
26
1 -0.57
10 0.48
11 0.13
12 0.54
13 -0.33
14 -0.15
15 0.14
16 -0.15
17 -0.15
18 -0.15
19 0.14
2 -0.52
22 0.37
23 0.15
27 0.15
28 0.15
29 0.15
3 -0.52
30 0.27
31 0.15
4 -0.73
5 0.3
6 0.91
7 -0.71
8 0.09
9 -0.14

> <PUBCHEM_EFFECTIVE_ROTOR_COUNT>
5

> <PUBCHEM_PHARMACOPHORE_FEATURES>
9
1 1 acceptor
1 2 acceptor
1 2 anion
1 3 acceptor
1 4 donor
1 5 donor
1 7 acceptor
5 5 7 13 18 19 rings
6 8 9 11 14 16 17 rings

> <PUBCHEM_HEAVY_ATOM_COUNT>
19

> <PUBCHEM_ATOM_DEF_STEREO_COUNT>
0

> <PUBCHEM_ATOM_UDEF_STEREO_COUNT>
0

> <PUBCHEM_BOND_DEF_STEREO_COUNT>
0

> <PUBCHEM_BOND_UDEF_STEREO_COUNT>
0

> <PUBCHEM_ISOTOPIC_ATOM_COUNT>
0

> <PUBCHEM_COMPONENT_COUNT>
1

> <PUBCHEM_CACTVS_TAUTO_COUNT>
4

> <PUBCHEM_CONFORMER_ID>
02D04AE700000001

> <PUBCHEM_MMFF94_ENERGY>
47.2644

> <PUBCHEM_FEATURE_SELFOVERLAP>
45.751

> <PUBCHEM_SHAPE_FINGERPRINT>
10498660 4 16950569852675234802
11132069 177 18201718474421779023
11405975 8 18339079393050248786
12173636 292 18335423443446142526
122479 349 18335139820996014822
12363563 72 12967141523022093778
12403259 118 18338527343776130312
12507560 40 18409444782842532622
12633257 1 18130235938393353440
13083527 12 18051123693079025087
13214271 11 18410859832526429031
13675066 3 17417520432273867091
14178342 30 17774997968738282002
14251764 30 7131849739054858085
14289901 80 18411418367470124762
14341114 328 17845939533368292920
15163728 17 15937518442209438809
15196674 1 18412263913576079064
15209294 21 18202848755285200658
15239191 94 11167933658607072480
19050596 39 18059861657966116394
193927 3 12535358930217256274
19784866 140 6555403215735057501
19862831 5 5689598272978604950
20281475 54 11311766289327194255
20871999 31 7493288858809995922
21065198 48 18130794417333474202
21065198 57 18411135866117601378
21065199 12 18341610404292574834
21864079 5 18189625934572274064
23403322 49 10159705698261829352
235170 7 14418138443248209952
23557571 272 18336809927629704790
23559900 14 18265050409108027966
27216 239 18335421231738172275
3009799 131 18129956572663031063
341906 21 18411975845529248140
474 4 18262521510387451653
49207404 50 18410569561820738354
5104073 3 18342738537460878354
53917941 68 18129678495047136711
633830 44 18115590490255214879
7064713 232 18413108355491291204
7097593 13 17916319401379683922
76465 3 11311761852847530345
7808743 9 17975414612672896040
90316 7 17704355480598354245

> <PUBCHEM_SHAPE_MULTIPOLES>
353.48
9.75
2.38
1.12
6.49
0.21
-0.14
4.95
2.84
-1.48
0.24
0.15
0.07
0.49

> <PUBCHEM_SHAPE_SELFOVERLAP>
756.387

> <PUBCHEM_SHAPE_VOLUME>
196.6

> <PUBCHEM_COORDINATE_TYPE>
2
5
10

$$$$

