586193
  -OEChem-06241222452D

 26 27  0     0  0  0  0  0  0999 V2000
    5.1350    2.0538    0.0000 S   0  0  0  0  0  0  0  0  0  0  0  0
    2.5369   -0.4462    0.0000 O   0  0  0  0  0  0  0  0  0  0  0  0
    3.4030    1.0538    0.0000 O   0  0  0  0  0  0  0  0  0  0  0  0
    4.2690   -3.4462    0.0000 O   0  0  0  0  0  0  0  0  0  0  0  0
    6.9146    2.1470    0.0000 N   0  0  0  0  0  0  0  0  0  0  0  0
    6.1056    3.5483    0.0000 N   0  0  0  0  0  0  0  0  0  0  0  0
    7.5837    2.8902    0.0000 N   0  0  0  0  0  0  0  0  0  0  0  0
    4.2690   -0.4462    0.0000 C   0  0  0  0  0  0  0  0  0  0  0  0
    4.2690    0.5538    0.0000 C   0  0  0  0  0  0  0  0  0  0  0  0
    5.1350    1.0538    0.0000 C   0  0  0  0  0  0  0  0  0  0  0  0
    3.4030   -0.9462    0.0000 C   0  0  0  0  0  0  0  0  0  0  0  0
    5.1350   -0.9462    0.0000 C   0  0  0  0  0  0  0  0  0  0  0  0
    3.4030   -1.9462    0.0000 C   0  0  0  0  0  0  0  0  0  0  0  0
    5.1350   -1.9462    0.0000 C   0  0  0  0  0  0  0  0  0  0  0  0
    4.2690   -2.4462    0.0000 C   0  0  0  0  0  0  0  0  0  0  0  0
    6.0010    2.5538    0.0000 C   0  0  0  0  0  0  0  0  0  0  0  0
    7.0837    3.7562    0.0000 C   0  0  0  0  0  0  0  0  0  0  0  0
    5.3471    0.4712    0.0000 H   0  0  0  0  0  0  0  0  0  0  0  0
    5.7456    1.1615    0.0000 H   0  0  0  0  0  0  0  0  0  0  0  0
    5.6720   -0.6362    0.0000 H   0  0  0  0  0  0  0  0  0  0  0  0
    2.8660   -2.2562    0.0000 H   0  0  0  0  0  0  0  0  0  0  0  0
    5.6720   -2.2562    0.0000 H   0  0  0  0  0  0  0  0  0  0  0  0
    7.0435    1.5406    0.0000 H   0  0  0  0  0  0  0  0  0  0  0  0
    2.0000   -0.7562    0.0000 H   0  0  0  0  0  0  0  0  0  0  0  0
    7.3359    4.3226    0.0000 H   0  0  0  0  0  0  0  0  0  0  0  0
    4.8059   -3.7562    0.0000 H   0  0  0  0  0  0  0  0  0  0  0  0
  1 10  1  0  0  0  0
  1 16  1  0  0  0  0
  2 11  1  0  0  0  0
  2 24  1  0  0  0  0
  3  9  2  0  0  0  0
  4 15  1  0  0  0  0
  4 26  1  0  0  0  0
  5  7  1  0  0  0  0
  5 16  1  0  0  0  0
  5 23  1  0  0  0  0
  6 16  2  0  0  0  0
  6 17  1  0  0  0  0
  7 17  2  0  0  0  0
  8  9  1  0  0  0  0
  8 11  2  0  0  0  0
  8 12  1  0  0  0  0
  9 10  1  0  0  0  0
 10 18  1  0  0  0  0
 10 19  1  0  0  0  0
 11 13  1  0  0  0  0
 12 14  2  0  0  0  0
 12 20  1  0  0  0  0
 13 15  2  0  0  0  0
 13 21  1  0  0  0  0
 14 15  1  0  0  0  0
 14 22  1  0  0  0  0
 17 25  1  0  0  0  0
M  END
> <PUBCHEM_COMPOUND_CID>
586193

> <PUBCHEM_COMPOUND_CANONICALIZED>
1

> <PUBCHEM_CACTVS_COMPLEXITY>
280

> <PUBCHEM_CACTVS_HBOND_ACCEPTOR>
6

> <PUBCHEM_CACTVS_HBOND_DONOR>
3

> <PUBCHEM_CACTVS_ROTATABLE_BOND>
4

> <PUBCHEM_CACTVS_SUBSKEYS>
AAADccBzMABAAAAAAAAAAAAAAAAAAWAAAAAwAAAAAAAAAAABwAAAHgQYCAAADASE2AS1FoZrEgiqAqBTJAASUgv0oJAN6AEOCMiILzaiFRKAcUAl4BUImYeI7KTOIAAACAAIAABAAAAQABAAAAAAAAAAAA==

> <PUBCHEM_IUPAC_OPENEYE_NAME>
1-(2,4-dihydroxyphenyl)-2-(1H-1,2,4-triazol-5-ylsulfanyl)ethanone

> <PUBCHEM_IUPAC_CAS_NAME>
1-(2,4-dihydroxyphenyl)-2-(1H-1,2,4-triazol-5-ylthio)ethanone

> <PUBCHEM_IUPAC_NAME>
1-(2,4-dihydroxyphenyl)-2-(1H-1,2,4-triazol-5-ylsulfanyl)ethanone

> <PUBCHEM_IUPAC_SYSTEMATIC_NAME>
1-[2,4-bis(oxidanyl)phenyl]-2-(1H-1,2,4-triazol-5-ylsulfanyl)ethanone

> <PUBCHEM_IUPAC_TRADITIONAL_NAME>
1-(2,4-dihydroxyphenyl)-2-(1H-1,2,4-triazol-5-ylthio)ethanone

> <PUBCHEM_IUPAC_INCHI>
InChI=1S/C10H9N3O3S/c14-6-1-2-7(8(15)3-6)9(16)4-17-10-11-5-12-13-10/h1-3,5,14-15H,4H2,(H,11,12,13)

> <PUBCHEM_IUPAC_INCHIKEY>
WXCCBYWNBVARCD-UHFFFAOYSA-N

> <PUBCHEM_XLOGP3_AA>
2.1

> <PUBCHEM_EXACT_MASS>
251.036462

> <PUBCHEM_MOLECULAR_FORMULA>
C10H9N3O3S

> <PUBCHEM_MOLECULAR_WEIGHT>
251.26176

> <PUBCHEM_OPENEYE_CAN_SMILES>
C1=CC(=C(C=C1O)O)C(=O)CSC2=NC=NN2

> <PUBCHEM_OPENEYE_ISO_SMILES>
C1=CC(=C(C=C1O)O)C(=O)CSC2=NC=NN2

> <PUBCHEM_CACTVS_TPSA>
124

> <PUBCHEM_MONOISOTOPIC_WEIGHT>
251.036462

> <PUBCHEM_TOTAL_CHARGE>
0

> <PUBCHEM_HEAVY_ATOM_COUNT>
17

> <PUBCHEM_ATOM_DEF_STEREO_COUNT>
0

> <PUBCHEM_ATOM_UDEF_STEREO_COUNT>
0

> <PUBCHEM_BOND_DEF_STEREO_COUNT>
0

> <PUBCHEM_BOND_UDEF_STEREO_COUNT>
0

> <PUBCHEM_ISOTOPIC_ATOM_COUNT>
0

> <PUBCHEM_COMPONENT_COUNT>
1

> <PUBCHEM_CACTVS_TAUTO_COUNT>
63

> <PUBCHEM_COORDINATE_TYPE>
1
5
255

> <PUBCHEM_BONDANNOTATIONS>
11  13  8
12  14  8
13  15  8
14  15  8
5  16  8
5  7  8
6  16  8
6  17  8
7  17  8
8  11  8
8  12  8

$$$$

