9794
  -OEChem-06261204042D

 14 13  0     0  0  0  0  0  0999 V2000
    2.0000   -0.8170    0.0000 F   0  0  0  0  0  0  0  0  0  0  0  0
    2.3660    0.5490    0.0000 F   0  0  0  0  0  0  0  0  0  0  0  0
    3.3660   -1.1830    0.0000 F   0  0  0  0  0  0  0  0  0  0  0  0
    4.5981   -0.3170    0.0000 O   0  0  0  0  0  0  0  0  0  0  0  0
    3.7320    1.1830    0.0000 O   0  0  0  0  0  0  0  0  0  0  0  0
    5.4641    0.1830    0.0000 C   0  0  0  0  0  0  0  0  0  0  0  0
    6.3301   -0.3170    0.0000 C   0  0  0  0  0  0  0  0  0  0  0  0
    3.7320    0.1830    0.0000 C   0  0  0  0  0  0  0  0  0  0  0  0
    2.8660   -0.3170    0.0000 C   0  0  0  0  0  0  0  0  0  0  0  0
    5.8626    0.6580    0.0000 H   0  0  0  0  0  0  0  0  0  0  0  0
    5.0656    0.6580    0.0000 H   0  0  0  0  0  0  0  0  0  0  0  0
    6.0201   -0.8539    0.0000 H   0  0  0  0  0  0  0  0  0  0  0  0
    6.8671   -0.6270    0.0000 H   0  0  0  0  0  0  0  0  0  0  0  0
    6.6401    0.2199    0.0000 H   0  0  0  0  0  0  0  0  0  0  0  0
  1  9  1  0  0  0  0
  2  9  1  0  0  0  0
  3  9  1  0  0  0  0
  4  6  1  0  0  0  0
  4  8  1  0  0  0  0
  5  8  2  0  0  0  0
  6  7  1  0  0  0  0
  6 10  1  0  0  0  0
  6 11  1  0  0  0  0
  7 12  1  0  0  0  0
  7 13  1  0  0  0  0
  7 14  1  0  0  0  0
  8  9  1  0  0  0  0
M  END
> <PUBCHEM_COMPOUND_CID>
9794

> <PUBCHEM_COMPOUND_CANONICALIZED>
1

> <PUBCHEM_CACTVS_COMPLEXITY>
107

> <PUBCHEM_CACTVS_HBOND_ACCEPTOR>
5

> <PUBCHEM_CACTVS_HBOND_DONOR>
0

> <PUBCHEM_CACTVS_ROTATABLE_BOND>
2

> <PUBCHEM_CACTVS_SUBSKEYS>
AAADcYBgMYAAAAAAAAAAAAAAAAAAAAAAAAAAAAAAAAAAAAAAAAAAGwAAAAAAAACggBICCAAABAAIAACQCAAAAAAAAAAAAAAAAAAAAAAAAAACAAAAAAAAAAAAAAAAAAAAAAAAAAAAAAAAAAAAAAAAAAAAAA==

> <PUBCHEM_IUPAC_OPENEYE_NAME>
ethyl 2,2,2-trifluoroacetate

> <PUBCHEM_IUPAC_CAS_NAME>
2,2,2-trifluoroacetic acid ethyl ester

> <PUBCHEM_IUPAC_NAME>
ethyl 2,2,2-trifluoroacetate

> <PUBCHEM_IUPAC_SYSTEMATIC_NAME>
ethyl 2,2,2-tris(fluoranyl)ethanoate

> <PUBCHEM_IUPAC_TRADITIONAL_NAME>
2,2,2-trifluoroacetic acid ethyl ester

> <PUBCHEM_IUPAC_INCHI>
InChI=1S/C4H5F3O2/c1-2-9-3(8)4(5,6)7/h2H2,1H3

> <PUBCHEM_IUPAC_INCHIKEY>
STSCVKRWJPWALQ-UHFFFAOYSA-N

> <PUBCHEM_XLOGP3>
1.2

> <PUBCHEM_EXACT_MASS>
142.024164

> <PUBCHEM_MOLECULAR_FORMULA>
C4H5F3O2

> <PUBCHEM_MOLECULAR_WEIGHT>
142.07651

> <PUBCHEM_OPENEYE_CAN_SMILES>
CCOC(=O)C(F)(F)F

> <PUBCHEM_OPENEYE_ISO_SMILES>
CCOC(=O)C(F)(F)F

> <PUBCHEM_CACTVS_TPSA>
26.3

> <PUBCHEM_MONOISOTOPIC_WEIGHT>
142.024164

> <PUBCHEM_TOTAL_CHARGE>
0

> <PUBCHEM_HEAVY_ATOM_COUNT>
9

> <PUBCHEM_ATOM_DEF_STEREO_COUNT>
0

> <PUBCHEM_ATOM_UDEF_STEREO_COUNT>
0

> <PUBCHEM_BOND_DEF_STEREO_COUNT>
0

> <PUBCHEM_BOND_UDEF_STEREO_COUNT>
0

> <PUBCHEM_ISOTOPIC_ATOM_COUNT>
0

> <PUBCHEM_COMPONENT_COUNT>
1

> <PUBCHEM_CACTVS_TAUTO_COUNT>
1

> <PUBCHEM_COORDINATE_TYPE>
1
5
255

$$$$

