12657
  -OEChem-06261207123D

 22 22  0     0  0  0  0  0  0999 V2000
    2.4990   -0.1569    0.5766 O   0  0  0  0  0  0  0  0  0  0  0  0
    0.6050   -1.3732    0.1918 N   0  0  0  0  0  0  0  0  0  0  0  0
   -2.0322    0.4784   -0.0578 C   0  0  0  0  0  0  0  0  0  0  0  0
   -1.0253    1.3666    0.6743 C   0  0  0  0  0  0  0  0  0  0  0  0
   -1.8634   -1.0212    0.2082 C   0  0  0  0  0  0  0  0  0  0  0  0
    0.1354    1.8673   -0.1885 C   0  0  0  0  0  0  0  0  0  0  0  0
   -0.6595   -1.6770   -0.4602 C   0  0  0  0  0  0  0  0  0  0  0  0
    0.9210    0.7987   -0.9377 C   0  0  0  0  0  0  0  0  0  0  0  0
    1.4199   -0.2825   -0.0067 C   0  0  0  0  0  0  0  0  0  0  0  0
   -3.0324    0.7501    0.3049 H   0  0  0  0  0  0  0  0  0  0  0  0
   -2.0366    0.6828   -1.1346 H   0  0  0  0  0  0  0  0  0  0  0  0
   -0.6439    0.8650    1.5715 H   0  0  0  0  0  0  0  0  0  0  0  0
   -1.5562    2.2561    1.0385 H   0  0  0  0  0  0  0  0  0  0  0  0
   -1.8416   -1.2067    1.2892 H   0  0  0  0  0  0  0  0  0  0  0  0
   -2.7631   -1.5210   -0.1733 H   0  0  0  0  0  0  0  0  0  0  0  0
    0.8214    2.4265    0.4608 H   0  0  0  0  0  0  0  0  0  0  0  0
   -0.2490    2.5892   -0.9200 H   0  0  0  0  0  0  0  0  0  0  0  0
   -0.7716   -2.7653   -0.3913 H   0  0  0  0  0  0  0  0  0  0  0  0
   -0.6083   -1.4330   -1.5245 H   0  0  0  0  0  0  0  0  0  0  0  0
    1.7988    1.2598   -1.4076 H   0  0  0  0  0  0  0  0  0  0  0  0
    0.3366    0.3873   -1.7626 H   0  0  0  0  0  0  0  0  0  0  0  0
    0.9461   -2.0693    0.8480 H   0  0  0  0  0  0  0  0  0  0  0  0
  1  9  2  0  0  0  0
  2  7  1  0  0  0  0
  2  9  1  0  0  0  0
  2 22  1  0  0  0  0
  3  4  1  0  0  0  0
  3  5  1  0  0  0  0
  3 10  1  0  0  0  0
  3 11  1  0  0  0  0
  4  6  1  0  0  0  0
  4 12  1  0  0  0  0
  4 13  1  0  0  0  0
  5  7  1  0  0  0  0
  5 14  1  0  0  0  0
  5 15  1  0  0  0  0
  6  8  1  0  0  0  0
  6 16  1  0  0  0  0
  6 17  1  0  0  0  0
  7 18  1  0  0  0  0
  7 19  1  0  0  0  0
  8  9  1  0  0  0  0
  8 20  1  0  0  0  0
  8 21  1  0  0  0  0
M  END
> <PUBCHEM_COMPOUND_CID>
12657

> <PUBCHEM_CONFORMER_RMSD>
0.4

> <PUBCHEM_CONFORMER_DIVERSEORDER>
1
7
2
8
12
9
10
11
3
4
5
6

> <PUBCHEM_MMFF94_PARTIAL_CHARGES>
6
1 -0.57
2 -0.73
22 0.37
7 0.3
8 0.06
9 0.57

> <PUBCHEM_EFFECTIVE_ROTOR_COUNT>
1.4

> <PUBCHEM_PHARMACOPHORE_FEATURES>
2
1 1 acceptor
1 2 donor

> <PUBCHEM_HEAVY_ATOM_COUNT>
9

> <PUBCHEM_ATOM_DEF_STEREO_COUNT>
0

> <PUBCHEM_ATOM_UDEF_STEREO_COUNT>
0

> <PUBCHEM_BOND_DEF_STEREO_COUNT>
0

> <PUBCHEM_BOND_UDEF_STEREO_COUNT>
0

> <PUBCHEM_ISOTOPIC_ATOM_COUNT>
0

> <PUBCHEM_COMPONENT_COUNT>
1

> <PUBCHEM_CACTVS_TAUTO_COUNT>
2

> <PUBCHEM_CONFORMER_ID>
0000317100000001

> <PUBCHEM_MMFF94_ENERGY>
14.4723

> <PUBCHEM_FEATURE_SELFOVERLAP>
10.148

> <PUBCHEM_SHAPE_FINGERPRINT>
16945 1 18341048609436994301
18185500 45 18412261705535588511
21040471 1 18193265519248201909
23235685 24 18338233894129969805
23552423 10 17693936293765196005
241688 4 17619899999667097491
2748010 2 17907008831145993797
29004967 10 16056880243087848156
66348 1 18050281771708326279

> <PUBCHEM_SHAPE_MULTIPOLES>
174.37
2.56
1.96
0.82
0.25
0.16
-0.06
-0.33
0.33
-0.34
-0.05
0.11
0.09
-0.27

> <PUBCHEM_SHAPE_SELFOVERLAP>
334.401

> <PUBCHEM_SHAPE_VOLUME>
104.9

> <PUBCHEM_COORDINATE_TYPE>
2
5
10

$$$$

