3953
  -OEChem-06251223472D

 31 33  0     0  0  0  0  0  0999 V2000
    7.5673   -3.3098    0.0000 Cl  0  0  0  0  0  0  0  0  0  0  0  0
    8.9030   -1.8212    0.0000 Cl  0  0  0  0  0  0  0  0  0  0  0  0
    5.9674    2.7204    0.0000 O   0  0  0  0  0  0  0  0  0  0  0  0
    4.3211    3.2585    0.0000 O   0  0  0  0  0  0  0  0  0  0  0  0
    4.6783   -0.0458    0.0000 N   0  0  0  0  0  0  0  0  0  0  0  0
    5.2619    0.7590    0.0000 N   0  0  0  0  0  0  0  0  0  0  0  0
    3.7320    0.2590    0.0000 C   0  0  0  0  0  0  0  0  0  0  0  0
    4.9889   -0.9963    0.0000 C   0  0  0  0  0  0  0  0  0  0  0  0
    3.7320    1.2590    0.0000 C   0  0  0  0  0  0  0  0  0  0  0  0
    5.9674   -1.2025    0.0000 C   0  0  0  0  0  0  0  0  0  0  0  0
    4.6783    1.5637    0.0000 C   0  0  0  0  0  0  0  0  0  0  0  0
    2.8660   -0.2410    0.0000 C   0  0  0  0  0  0  0  0  0  0  0  0
    2.8660    1.7590    0.0000 C   0  0  0  0  0  0  0  0  0  0  0  0
    2.0000    0.2590    0.0000 C   0  0  0  0  0  0  0  0  0  0  0  0
    6.2781   -2.1530    0.0000 C   0  0  0  0  0  0  0  0  0  0  0  0
    6.6353   -0.4582    0.0000 C   0  0  0  0  0  0  0  0  0  0  0  0
    2.0000    1.2590    0.0000 C   0  0  0  0  0  0  0  0  0  0  0  0
    4.9889    2.5142    0.0000 C   0  0  0  0  0  0  0  0  0  0  0  0
    7.2566   -2.3592    0.0000 C   0  0  0  0  0  0  0  0  0  0  0  0
    7.6138   -0.6644    0.0000 C   0  0  0  0  0  0  0  0  0  0  0  0
    7.9244   -1.6149    0.0000 C   0  0  0  0  0  0  0  0  0  0  0  0
    4.3751   -1.0836    0.0000 H   0  0  0  0  0  0  0  0  0  0  0  0
    4.9684   -1.6159    0.0000 H   0  0  0  0  0  0  0  0  0  0  0  0
    2.8660   -0.8610    0.0000 H   0  0  0  0  0  0  0  0  0  0  0  0
    2.8660    2.3790    0.0000 H   0  0  0  0  0  0  0  0  0  0  0  0
    5.8640   -2.6145    0.0000 H   0  0  0  0  0  0  0  0  0  0  0  0
    6.4427    0.1311    0.0000 H   0  0  0  0  0  0  0  0  0  0  0  0
    1.4631   -0.0510    0.0000 H   0  0  0  0  0  0  0  0  0  0  0  0
    1.4631    1.5690    0.0000 H   0  0  0  0  0  0  0  0  0  0  0  0
    8.0279   -0.2030    0.0000 H   0  0  0  0  0  0  0  0  0  0  0  0
    6.1600    3.3098    0.0000 H   0  0  0  0  0  0  0  0  0  0  0  0
  1 19  1  0  0  0  0
  2 21  1  0  0  0  0
  3 18  1  0  0  0  0
  3 31  1  0  0  0  0
  4 18  2  0  0  0  0
  5  6  1  0  0  0  0
  5  7  1  0  0  0  0
  5  8  1  0  0  0  0
  6 11  2  0  0  0  0
  7  9  1  0  0  0  0
  7 12  2  0  0  0  0
  8 10  1  0  0  0  0
  8 22  1  0  0  0  0
  8 23  1  0  0  0  0
  9 11  1  0  0  0  0
  9 13  2  0  0  0  0
 10 15  2  0  0  0  0
 10 16  1  0  0  0  0
 11 18  1  0  0  0  0
 12 14  1  0  0  0  0
 12 24  1  0  0  0  0
 13 17  1  0  0  0  0
 13 25  1  0  0  0  0
 14 17  2  0  0  0  0
 14 28  1  0  0  0  0
 15 19  1  0  0  0  0
 15 26  1  0  0  0  0
 16 20  2  0  0  0  0
 16 27  1  0  0  0  0
 17 29  1  0  0  0  0
 19 21  2  0  0  0  0
 20 21  1  0  0  0  0
 20 30  1  0  0  0  0
M  END
> <PUBCHEM_COMPOUND_CID>
3953

> <PUBCHEM_COMPOUND_CANONICALIZED>
1

> <PUBCHEM_CACTVS_COMPLEXITY>
396

> <PUBCHEM_CACTVS_HBOND_ACCEPTOR>
3

> <PUBCHEM_CACTVS_HBOND_DONOR>
1

> <PUBCHEM_CACTVS_ROTATABLE_BOND>
3

> <PUBCHEM_CACTVS_SUBSKEYS>
AAADccBzMAAGAAAAAAAAAAAAAAAAAWAAAAAwYAAAAAAAAFgB9AAAHgIICAAADArBniQwyPIIAgCqAyTyTASSBAAnhwAY2mG4btgKJrLB19GE9QhkyAHI2Qe8yKCOBAAAIAACAAQIAABAAAQACAAAAAAAAA==

> <PUBCHEM_IUPAC_OPENEYE_NAME>
1-[(3,4-dichlorophenyl)methyl]indazole-3-carboxylic acid

> <PUBCHEM_IUPAC_CAS_NAME>
1-[(3,4-dichlorophenyl)methyl]-3-indazolecarboxylic acid

> <PUBCHEM_IUPAC_NAME>
1-[(3,4-dichlorophenyl)methyl]indazole-3-carboxylic acid

> <PUBCHEM_IUPAC_SYSTEMATIC_NAME>
1-[(3,4-dichlorophenyl)methyl]indazole-3-carboxylic acid

> <PUBCHEM_IUPAC_TRADITIONAL_NAME>
1-(3,4-dichlorobenzyl)indazole-3-carboxylic acid

> <PUBCHEM_IUPAC_INCHI>
InChI=1S/C15H10Cl2N2O2/c16-11-6-5-9(7-12(11)17)8-19-13-4-2-1-3-10(13)14(18-19)15(20)21/h1-7H,8H2,(H,20,21)

> <PUBCHEM_IUPAC_INCHIKEY>
DGRMEXOCSJEPGJ-UHFFFAOYSA-N

> <PUBCHEM_XLOGP3_AA>
4.3

> <PUBCHEM_EXACT_MASS>
320.011933

> <PUBCHEM_MOLECULAR_FORMULA>
C15H10Cl2N2O2

> <PUBCHEM_MOLECULAR_WEIGHT>
321.1581

> <PUBCHEM_OPENEYE_CAN_SMILES>
C1=CC=C2C(=C1)C(=NN2CC3=CC(=C(C=C3)Cl)Cl)C(=O)O

> <PUBCHEM_OPENEYE_ISO_SMILES>
C1=CC=C2C(=C1)C(=NN2CC3=CC(=C(C=C3)Cl)Cl)C(=O)O

> <PUBCHEM_CACTVS_TPSA>
55.1

> <PUBCHEM_MONOISOTOPIC_WEIGHT>
320.011933

> <PUBCHEM_TOTAL_CHARGE>
0

> <PUBCHEM_HEAVY_ATOM_COUNT>
21

> <PUBCHEM_ATOM_DEF_STEREO_COUNT>
0

> <PUBCHEM_ATOM_UDEF_STEREO_COUNT>
0

> <PUBCHEM_BOND_DEF_STEREO_COUNT>
0

> <PUBCHEM_BOND_UDEF_STEREO_COUNT>
0

> <PUBCHEM_ISOTOPIC_ATOM_COUNT>
0

> <PUBCHEM_COMPONENT_COUNT>
1

> <PUBCHEM_CACTVS_TAUTO_COUNT>
1

> <PUBCHEM_COORDINATE_TYPE>
1
5
255

> <PUBCHEM_BONDANNOTATIONS>
10  15  8
10  16  8
12  14  8
13  17  8
14  17  8
15  19  8
16  20  8
19  21  8
20  21  8
5  6  8
5  7  8
6  11  8
7  12  8
7  9  8
9  11  8
9  13  8

$$$$

