17395353
  -OEChem-06241222493D

 42 43  0     0  0  0  0  0  0999 V2000
    1.9953    2.3348    0.2668 S   0  0  0  0  0  0  0  0  0  0  0  0
    2.2153    2.8366    1.6060 O   0  0  0  0  0  0  0  0  0  0  0  0
    2.5672    3.0012   -0.8832 O   0  0  0  0  0  0  0  0  0  0  0  0
   -3.7679   -0.0451   -1.7322 O   0  0  0  0  0  0  0  0  0  0  0  0
    3.7310   -3.3196    0.1446 O   0  0  0  0  0  0  0  0  0  0  0  0
    0.3124    2.1367    0.0140 N   0  0  0  0  0  0  0  0  0  0  0  0
   -2.3491    1.1792   -0.3647 N   0  0  0  0  0  0  0  0  0  0  0  0
   -4.1393   -0.0817    0.5303 N   0  0  0  0  0  0  0  0  0  0  0  0
   -0.0675    1.4699   -1.2655 C   0  0  0  0  0  0  0  0  0  0  0  0
   -0.4448    1.5697    1.1675 C   0  0  0  0  0  0  0  0  0  0  0  0
   -1.5600    1.6599   -1.5025 C   0  0  0  0  0  0  0  0  0  0  0  0
   -1.9449    1.7371    0.9351 C   0  0  0  0  0  0  0  0  0  0  0  0
    2.5123    0.6474    0.2305 C   0  0  0  0  0  0  0  0  0  0  0  0
   -3.4395    0.3243   -0.5997 C   0  0  0  0  0  0  0  0  0  0  0  0
    2.8867    0.0588   -0.9775 C   0  0  0  0  0  0  0  0  0  0  0  0
    2.5478   -0.0970    1.4096 C   0  0  0  0  0  0  0  0  0  0  0  0
    3.2965   -1.2741   -1.0062 C   0  0  0  0  0  0  0  0  0  0  0  0
    2.9575   -1.4299    1.3808 C   0  0  0  0  0  0  0  0  0  0  0  0
    3.3321   -2.0185    0.1729 C   0  0  0  0  0  0  0  0  0  0  0  0
   -5.2879   -0.9563    0.4504 C   0  0  0  0  0  0  0  0  0  0  0  0
   -4.8881   -2.3605    0.5381 C   0  0  0  0  0  0  0  0  0  0  0  0
    4.0990   -3.8585   -1.1242 C   0  0  0  0  0  0  0  0  0  0  0  0
   -4.5639   -3.5144    0.6093 C   0  0  0  0  0  0  0  0  0  0  0  0
    0.1473    0.3975   -1.2156 H   0  0  0  0  0  0  0  0  0  0  0  0
    0.4823    1.9094   -2.1035 H   0  0  0  0  0  0  0  0  0  0  0  0
   -0.1769    2.0893    2.0926 H   0  0  0  0  0  0  0  0  0  0  0  0
   -0.2158    0.5048    1.2806 H   0  0  0  0  0  0  0  0  0  0  0  0
   -1.8534    1.1520   -2.4265 H   0  0  0  0  0  0  0  0  0  0  0  0
   -1.7952    2.7242   -1.6249 H   0  0  0  0  0  0  0  0  0  0  0  0
   -2.4795    1.3060    1.7793 H   0  0  0  0  0  0  0  0  0  0  0  0
   -2.2017    2.8034    0.9054 H   0  0  0  0  0  0  0  0  0  0  0  0
    2.8657    0.6193   -1.9078 H   0  0  0  0  0  0  0  0  0  0  0  0
    2.2582    0.3397    2.3611 H   0  0  0  0  0  0  0  0  0  0  0  0
   -3.8463    0.1790    1.4606 H   0  0  0  0  0  0  0  0  0  0  0  0
    3.5731   -1.6686   -1.9780 H   0  0  0  0  0  0  0  0  0  0  0  0
    2.9821   -2.0052    2.3022 H   0  0  0  0  0  0  0  0  0  0  0  0
   -5.8294   -0.7666   -0.4822 H   0  0  0  0  0  0  0  0  0  0  0  0
   -5.9498   -0.6947    1.2822 H   0  0  0  0  0  0  0  0  0  0  0  0
    3.2520   -3.8671   -1.8186 H   0  0  0  0  0  0  0  0  0  0  0  0
    4.9724   -3.3458   -1.5412 H   0  0  0  0  0  0  0  0  0  0  0  0
    4.3888   -4.9016   -0.9605 H   0  0  0  0  0  0  0  0  0  0  0  0
   -4.2760   -4.5377    0.6724 H   0  0  0  0  0  0  0  0  0  0  0  0
  1  2  2  0  0  0  0
  1  3  2  0  0  0  0
  1  6  1  0  0  0  0
  1 13  1  0  0  0  0
  4 14  2  0  0  0  0
  5 19  1  0  0  0  0
  5 22  1  0  0  0  0
  6  9  1  0  0  0  0
  6 10  1  0  0  0  0
  7 11  1  0  0  0  0
  7 12  1  0  0  0  0
  7 14  1  0  0  0  0
  8 14  1  0  0  0  0
  8 20  1  0  0  0  0
  8 34  1  0  0  0  0
  9 11  1  0  0  0  0
  9 24  1  0  0  0  0
  9 25  1  0  0  0  0
 10 12  1  0  0  0  0
 10 26  1  0  0  0  0
 10 27  1  0  0  0  0
 11 28  1  0  0  0  0
 11 29  1  0  0  0  0
 12 30  1  0  0  0  0
 12 31  1  0  0  0  0
 13 15  2  0  0  0  0
 13 16  1  0  0  0  0
 15 17  1  0  0  0  0
 15 32  1  0  0  0  0
 16 18  2  0  0  0  0
 16 33  1  0  0  0  0
 17 19  2  0  0  0  0
 17 35  1  0  0  0  0
 18 19  1  0  0  0  0
 18 36  1  0  0  0  0
 20 21  1  0  0  0  0
 20 37  1  0  0  0  0
 20 38  1  0  0  0  0
 21 23  3  0  0  0  0
 22 39  1  0  0  0  0
 22 40  1  0  0  0  0
 22 41  1  0  0  0  0
 23 42  1  0  0  0  0
M  END
> <PUBCHEM_COMPOUND_CID>
17395353

> <PUBCHEM_CONFORMER_RMSD>
0.8

> <PUBCHEM_CONFORMER_DIVERSEORDER>
1
58
55
57
56
4
48
5
64
37
39
50
80
68
44
41
3
52
60
17
71
63
16
23
65
73
28
29
67
14
35
76
45
25
13
47
75
38
70
34
54
61
33
53
18
8
30
12
49
46
43
10
78
79
27
11
66
81
9
59
74
69
22
62
2
31
77
32
42
51
21
72
26
7
40
15
19
20
36
24
6

> <PUBCHEM_MMFF94_PARTIAL_CHARGES>
29
1 1.45
10 0.36
11 0.3
12 0.3
13 -0.01
14 0.69
15 -0.15
16 -0.15
17 -0.15
18 -0.15
19 0.08
2 -0.65
20 0.5
21 -0.2
22 0.28
23 -0.18
3 -0.65
32 0.15
33 0.15
34 0.37
35 0.15
36 0.15
4 -0.57
42 0.18
5 -0.36
6 -0.85
7 -0.66
8 -0.73
9 0.36

> <PUBCHEM_EFFECTIVE_ROTOR_COUNT>
7.2

> <PUBCHEM_PHARMACOPHORE_FEATURES>
8
1 2 acceptor
1 23 hydrophobe
1 3 acceptor
1 4 acceptor
1 5 acceptor
1 8 donor
6 13 15 16 17 18 19 rings
6 6 7 9 10 11 12 rings

> <PUBCHEM_HEAVY_ATOM_COUNT>
23

> <PUBCHEM_ATOM_DEF_STEREO_COUNT>
0

> <PUBCHEM_ATOM_UDEF_STEREO_COUNT>
0

> <PUBCHEM_BOND_DEF_STEREO_COUNT>
0

> <PUBCHEM_BOND_UDEF_STEREO_COUNT>
0

> <PUBCHEM_ISOTOPIC_ATOM_COUNT>
0

> <PUBCHEM_COMPONENT_COUNT>
1

> <PUBCHEM_CACTVS_TAUTO_COUNT>
2

> <PUBCHEM_CONFORMER_ID>
01096E9900000001

> <PUBCHEM_MMFF94_ENERGY>
45.2553

> <PUBCHEM_FEATURE_SELFOVERLAP>
40.612

> <PUBCHEM_SHAPE_FINGERPRINT>
10498660 4 11167357553195372782
108634 29 17773312335792439114
10928967 22 18059570326018915163
11796584 16 18058178386825089303
12107183 9 18190725622473123009
12596602 18 16735780131936056187
12969540 37 18411700980591510898
13255334 9 18343019944055760635
13257819 37 17697862693366087188
13533116 47 18335419029094838411
13583140 156 17968947362440354305
1361 87 18342172293579374583
14251740 57 18337386037753479687
14251751 18 18131081440869919827
14863182 85 18052815849668552468
15475509 35 18044935667761192235
15664445 248 17559671737753183613
17859628 70 18336543820130056664
20645477 70 18343303626239537897
20775530 9 18340207521712970667
21315759 227 18342187673440172443
21344244 181 17975107883336075236
23379529 103 18194112143502952006
23559900 14 18412832403794972541
25222932 49 17754733832558073071
463206 1 17914061059903539155
5486654 36 18189611824950345289
6433294 58 18339922593693272003
7970288 3 18194395830303521398
88748 71 18339073899612685179

> <PUBCHEM_SHAPE_MULTIPOLES>
438.76
10.44
4.5
1.51
11.36
3.16
-0.09
10.98
0.22
-2.71
0
-0.36
-0.33
1.62

> <PUBCHEM_SHAPE_SELFOVERLAP>
890.631

> <PUBCHEM_SHAPE_VOLUME>
254.9

> <PUBCHEM_COORDINATE_TYPE>
2
5
10

$$$$

