10000
  -OEChem-06261204142D

 11 10  0     0  0  0  0  0  0999 V2000
    5.4641    0.5000    0.0000 Cl  0  0  0  0  0  0  0  0  0  0  0  0
    2.0000   -0.5000    0.0000 F   0  0  0  0  0  0  0  0  0  0  0  0
    2.3660    0.8660    0.0000 F   0  0  0  0  0  0  0  0  0  0  0  0
    3.3660   -0.8660    0.0000 F   0  0  0  0  0  0  0  0  0  0  0  0
    3.7320    0.5000    0.0000 C   0  0  0  0  0  0  0  0  0  0  0  0
    2.8660    0.0000    0.0000 C   0  0  0  0  0  0  0  0  0  0  0  0
    4.5981    0.0000    0.0000 C   0  0  0  0  0  0  0  0  0  0  0  0
    4.1306    0.9749    0.0000 H   0  0  0  0  0  0  0  0  0  0  0  0
    3.3335    0.9749    0.0000 H   0  0  0  0  0  0  0  0  0  0  0  0
    4.1996   -0.4749    0.0000 H   0  0  0  0  0  0  0  0  0  0  0  0
    4.9966   -0.4749    0.0000 H   0  0  0  0  0  0  0  0  0  0  0  0
  1  7  1  0  0  0  0
  2  6  1  0  0  0  0
  3  6  1  0  0  0  0
  4  6  1  0  0  0  0
  5  6  1  0  0  0  0
  5  7  1  0  0  0  0
  5  8  1  0  0  0  0
  5  9  1  0  0  0  0
  7 10  1  0  0  0  0
  7 11  1  0  0  0  0
M  END
> <PUBCHEM_COMPOUND_CID>
10000

> <PUBCHEM_COMPOUND_CANONICALIZED>
1

> <PUBCHEM_CACTVS_COMPLEXITY>
48.6

> <PUBCHEM_CACTVS_HBOND_ACCEPTOR>
3

> <PUBCHEM_CACTVS_HBOND_DONOR>
0

> <PUBCHEM_CACTVS_ROTATABLE_BOND>
1

> <PUBCHEM_CACTVS_SUBSKEYS>
AAADcYBAAYAEAAAAAAAAAAAAAAAAAAAAAAAAAAAAAAAAAAAAAAAAGQIAAAAACAOAAFAAAAAAAAAAAAAAAAAAAAAAAAAAAAAAAgAAAAAAAAAAAAAAAAAAAAAAAAAAAAAAAAAAAAAAAAAAAAAAAAAAAAAAAA==

> <PUBCHEM_IUPAC_OPENEYE_NAME>
3-chloro-1,1,1-trifluoro-propane

> <PUBCHEM_IUPAC_CAS_NAME>
3-chloro-1,1,1-trifluoropropane

> <PUBCHEM_IUPAC_NAME>
3-chloro-1,1,1-trifluoropropane

> <PUBCHEM_IUPAC_SYSTEMATIC_NAME>
3-chloranyl-1,1,1-tris(fluoranyl)propane

> <PUBCHEM_IUPAC_TRADITIONAL_NAME>
3-chloro-1,1,1-trifluoro-propane

> <PUBCHEM_IUPAC_INCHI>
InChI=1S/C3H4ClF3/c4-2-1-3(5,6)7/h1-2H2

> <PUBCHEM_IUPAC_INCHIKEY>
ZPIFKCVYZBVZIV-UHFFFAOYSA-N

> <PUBCHEM_XLOGP3_AA>
2.3

> <PUBCHEM_EXACT_MASS>
131.995362

> <PUBCHEM_MOLECULAR_FORMULA>
C3H4ClF3

> <PUBCHEM_MOLECULAR_WEIGHT>
132.51207

> <PUBCHEM_OPENEYE_CAN_SMILES>
C(CCl)C(F)(F)F

> <PUBCHEM_OPENEYE_ISO_SMILES>
C(CCl)C(F)(F)F

> <PUBCHEM_CACTVS_TPSA>
0

> <PUBCHEM_MONOISOTOPIC_WEIGHT>
131.995362

> <PUBCHEM_TOTAL_CHARGE>
0

> <PUBCHEM_HEAVY_ATOM_COUNT>
7

> <PUBCHEM_ATOM_DEF_STEREO_COUNT>
0

> <PUBCHEM_ATOM_UDEF_STEREO_COUNT>
0

> <PUBCHEM_BOND_DEF_STEREO_COUNT>
0

> <PUBCHEM_BOND_UDEF_STEREO_COUNT>
0

> <PUBCHEM_ISOTOPIC_ATOM_COUNT>
0

> <PUBCHEM_COMPONENT_COUNT>
1

> <PUBCHEM_CACTVS_TAUTO_COUNT>
1

> <PUBCHEM_COORDINATE_TYPE>
1
5
255

$$$$

