6440
  -OEChem-06261201193D

 22 21  0     1  0  0  0  0  0999 V2000
    1.9826    0.3220    0.7971 O   0  0  0  0  0  0  0  0  0  0  0  0
   -2.0243   -1.0600    0.5941 O   0  0  0  0  0  0  0  0  0  0  0  0
   -0.2557    0.4440   -0.1771 C   0  0  0  0  0  0  0  0  0  0  0  0
    0.8594   -0.4754    0.4118 C   0  0  1  0  0  0  0  0  0  0  0  0
   -1.5279   -0.3570   -0.5374 C   0  0  0  0  0  0  0  0  0  0  0  0
    0.2273    1.1841   -1.4407 C   0  0  0  0  0  0  0  0  0  0  0  0
   -0.6233    1.5102    0.8817 C   0  0  0  0  0  0  0  0  0  0  0  0
    1.3619   -1.5678   -0.5294 C   0  0  0  0  0  0  0  0  0  0  0  0
    0.4872   -0.9520    1.3270 H   0  0  0  0  0  0  0  0  0  0  0  0
   -2.3235    0.3008   -0.9069 H   0  0  0  0  0  0  0  0  0  0  0  0
   -1.3287   -1.0891   -1.3261 H   0  0  0  0  0  0  0  0  0  0  0  0
    1.1404    1.7575   -1.2485 H   0  0  0  0  0  0  0  0  0  0  0  0
    0.4323    0.4889   -2.2613 H   0  0  0  0  0  0  0  0  0  0  0  0
   -0.5336    1.8884   -1.7969 H   0  0  0  0  0  0  0  0  0  0  0  0
   -0.8845    1.0539    1.8426 H   0  0  0  0  0  0  0  0  0  0  0  0
    0.2093    2.1993    1.0626 H   0  0  0  0  0  0  0  0  0  0  0  0
   -1.4778    2.1135    0.5542 H   0  0  0  0  0  0  0  0  0  0  0  0
    2.1285   -2.1704   -0.0286 H   0  0  0  0  0  0  0  0  0  0  0  0
    1.8432   -1.1446   -1.4166 H   0  0  0  0  0  0  0  0  0  0  0  0
    0.5611   -2.2418   -0.8432 H   0  0  0  0  0  0  0  0  0  0  0  0
    2.6317   -0.2670    1.2182 H   0  0  0  0  0  0  0  0  0  0  0  0
   -2.4238   -0.4102    1.1962 H   0  0  0  0  0  0  0  0  0  0  0  0
  1  4  1  0  0  0  0
  1 21  1  0  0  0  0
  2  5  1  0  0  0  0
  2 22  1  0  0  0  0
  3  4  1  0  0  0  0
  3  5  1  0  0  0  0
  3  6  1  0  0  0  0
  3  7  1  0  0  0  0
  4  8  1  0  0  0  0
  4  9  1  0  0  0  0
  5 10  1  0  0  0  0
  5 11  1  0  0  0  0
  6 12  1  0  0  0  0
  6 13  1  0  0  0  0
  6 14  1  0  0  0  0
  7 15  1  0  0  0  0
  7 16  1  0  0  0  0
  7 17  1  0  0  0  0
  8 18  1  0  0  0  0
  8 19  1  0  0  0  0
  8 20  1  0  0  0  0
M  END
> <PUBCHEM_COMPOUND_CID>
6440

> <PUBCHEM_CONFORMER_RMSD>
0.4

> <PUBCHEM_CONFORMER_DIVERSEORDER>
1
3
14
11
16
7
12
2
18
8
5
6
13
17
9
4
10
15

> <PUBCHEM_MMFF94_PARTIAL_CHARGES>
6
1 -0.68
2 -0.68
21 0.4
22 0.4
4 0.28
5 0.28

> <PUBCHEM_EFFECTIVE_ROTOR_COUNT>
2

> <PUBCHEM_PHARMACOPHORE_FEATURES>
5
1 1 acceptor
1 1 donor
1 2 acceptor
1 2 donor
3 3 6 7 hydrophobe

> <PUBCHEM_HEAVY_ATOM_COUNT>
8

> <PUBCHEM_ATOM_DEF_STEREO_COUNT>
0

> <PUBCHEM_ATOM_UDEF_STEREO_COUNT>
1

> <PUBCHEM_BOND_DEF_STEREO_COUNT>
0

> <PUBCHEM_BOND_UDEF_STEREO_COUNT>
0

> <PUBCHEM_ISOTOPIC_ATOM_COUNT>
0

> <PUBCHEM_COMPONENT_COUNT>
1

> <PUBCHEM_CACTVS_TAUTO_COUNT>
1

> <PUBCHEM_CONFORMER_ID>
0000192800000001

> <PUBCHEM_MMFF94_ENERGY>
20.5713

> <PUBCHEM_FEATURE_SELFOVERLAP>
25.371

> <PUBCHEM_SHAPE_FINGERPRINT>
12423570 1 7653269028806380765
137420 1 8488672071069606617
21040471 1 17543627990365769096
24536 1 17755328960105522306
29004967 10 18337115579061460627
5943 1 5787915846846445157

> <PUBCHEM_SHAPE_MULTIPOLES>
152.9
2.12
1.59
1.17
0.33
0.05
0.27
0.74
-0.34
-0.21
-0.01
-0.01
-0.39
0.16

> <PUBCHEM_SHAPE_SELFOVERLAP>
278.576

> <PUBCHEM_SHAPE_VOLUME>
99.3

> <PUBCHEM_COORDINATE_TYPE>
2
5
10

$$$$

