7847047
  -OEChem-06241222483D

 45 47  0     1  0  0  0  0  0999 V2000
    6.4046   -0.0073   -2.1443 F   0  0  0  0  0  0  0  0  0  0  0  0
    0.8417    0.2184    0.6744 O   0  0  0  0  0  0  0  0  0  0  0  0
   -0.3679    0.3297    2.6297 O   0  0  0  0  0  0  0  0  0  0  0  0
   -3.7193    0.2759   -1.1356 N   0  0  0  0  0  0  0  0  0  0  0  0
   -1.4881    0.2481    0.5266 C   0  0  0  0  0  0  0  0  0  0  0  0
   -1.9980    1.4575    0.0767 C   0  0  0  0  0  0  0  0  0  0  0  0
   -2.0934   -0.9572    0.1463 C   0  0  0  0  0  0  0  0  0  0  0  0
   -3.1058    1.4166   -0.7455 C   0  0  0  0  0  0  0  0  0  0  0  0
   -3.2223   -0.8963   -0.6975 C   0  0  0  0  0  0  0  0  0  0  0  0
    2.0644    0.2333    1.4188 C   0  0  2  0  0  0  0  0  0  0  0  0
   -3.7075    2.6808   -1.2667 C   0  0  0  0  0  0  0  0  0  0  0  0
   -0.3141    0.2712    1.3989 C   0  0  0  0  0  0  0  0  0  0  0  0
   -1.3771    2.7586    0.4627 C   0  0  0  0  0  0  0  0  0  0  0  0
   -1.6014   -2.1984    0.5847 C   0  0  0  0  0  0  0  0  0  0  0  0
    3.2306    0.1695    0.4613 C   0  0  0  0  0  0  0  0  0  0  0  0
   -3.8232   -2.0940   -1.0750 C   0  0  0  0  0  0  0  0  0  0  0  0
    2.0732   -0.9259    2.4092 C   0  0  0  0  0  0  0  0  0  0  0  0
   -4.7825    3.2355   -0.3372 C   0  0  0  0  0  0  0  0  0  0  0  0
   -2.2219   -3.3806    0.1916 C   0  0  0  0  0  0  0  0  0  0  0  0
   -3.3341   -3.3280   -0.6393 C   0  0  0  0  0  0  0  0  0  0  0  0
    4.4188    0.7985    0.7958 C   0  0  0  0  0  0  0  0  0  0  0  0
    3.0902   -0.5178   -0.7336 C   0  0  0  0  0  0  0  0  0  0  0  0
    5.4959    0.7387   -0.0886 C   0  0  0  0  0  0  0  0  0  0  0  0
    4.1673   -0.5776   -1.6179 C   0  0  0  0  0  0  0  0  0  0  0  0
    5.3701    0.0507   -1.2954 C   0  0  0  0  0  0  0  0  0  0  0  0
    2.1126    1.1880    1.9592 H   0  0  0  0  0  0  0  0  0  0  0  0
   -2.9487    3.4434   -1.4714 H   0  0  0  0  0  0  0  0  0  0  0  0
   -4.1696    2.4727   -2.2408 H   0  0  0  0  0  0  0  0  0  0  0  0
   -2.1266    3.4761    0.8083 H   0  0  0  0  0  0  0  0  0  0  0  0
   -0.6605    2.6791    1.2847 H   0  0  0  0  0  0  0  0  0  0  0  0
   -0.8400    3.1851   -0.3914 H   0  0  0  0  0  0  0  0  0  0  0  0
   -0.7347   -2.2736    1.2361 H   0  0  0  0  0  0  0  0  0  0  0  0
   -4.6959   -2.0797   -1.7254 H   0  0  0  0  0  0  0  0  0  0  0  0
    3.0881   -1.1171    2.7779 H   0  0  0  0  0  0  0  0  0  0  0  0
    1.7092   -1.8498    1.9454 H   0  0  0  0  0  0  0  0  0  0  0  0
    1.4690   -0.7443    3.3005 H   0  0  0  0  0  0  0  0  0  0  0  0
   -5.5968    2.5143   -0.2066 H   0  0  0  0  0  0  0  0  0  0  0  0
   -5.2081    4.1517   -0.7589 H   0  0  0  0  0  0  0  0  0  0  0  0
   -4.3872    3.4710    0.6552 H   0  0  0  0  0  0  0  0  0  0  0  0
   -1.8392   -4.3378    0.5324 H   0  0  0  0  0  0  0  0  0  0  0  0
   -3.8246   -4.2455   -0.9509 H   0  0  0  0  0  0  0  0  0  0  0  0
    4.5273    1.3347    1.7341 H   0  0  0  0  0  0  0  0  0  0  0  0
    2.1685   -1.0262   -1.0008 H   0  0  0  0  0  0  0  0  0  0  0  0
    6.4328    1.2271    0.1625 H   0  0  0  0  0  0  0  0  0  0  0  0
    4.0709   -1.1158   -2.5562 H   0  0  0  0  0  0  0  0  0  0  0  0
  1 25  1  0  0  0  0
  2 10  1  0  0  0  0
  2 12  1  0  0  0  0
  3 12  2  0  0  0  0
  4  8  2  0  0  0  0
  4  9  1  0  0  0  0
  5  6  2  0  0  0  0
  5  7  1  0  0  0  0
  5 12  1  0  0  0  0
  6  8  1  0  0  0  0
  6 13  1  0  0  0  0
  7  9  1  0  0  0  0
  7 14  2  0  0  0  0
  8 11  1  0  0  0  0
  9 16  2  0  0  0  0
 10 15  1  0  0  0  0
 10 17  1  0  0  0  0
 10 26  1  0  0  0  0
 11 18  1  0  0  0  0
 11 27  1  0  0  0  0
 11 28  1  0  0  0  0
 13 29  1  0  0  0  0
 13 30  1  0  0  0  0
 13 31  1  0  0  0  0
 14 19  1  0  0  0  0
 14 32  1  0  0  0  0
 15 21  2  0  0  0  0
 15 22  1  0  0  0  0
 16 20  1  0  0  0  0
 16 33  1  0  0  0  0
 17 34  1  0  0  0  0
 17 35  1  0  0  0  0
 17 36  1  0  0  0  0
 18 37  1  0  0  0  0
 18 38  1  0  0  0  0
 18 39  1  0  0  0  0
 19 20  2  0  0  0  0
 19 40  1  0  0  0  0
 20 41  1  0  0  0  0
 21 23  1  0  0  0  0
 21 42  1  0  0  0  0
 22 24  2  0  0  0  0
 22 43  1  0  0  0  0
 23 25  2  0  0  0  0
 23 44  1  0  0  0  0
 24 25  1  0  0  0  0
 24 45  1  0  0  0  0
M  END
> <PUBCHEM_COMPOUND_CID>
7847047

> <PUBCHEM_CONFORMER_RMSD>
0.8

> <PUBCHEM_CONFORMER_DIVERSEORDER>
1
10
14
32
27
25
19
29
22
28
2
26
4
31
30
13
6
16
18
23
5
20
9
11
21
12
15
8
24
17
3
7

> <PUBCHEM_MMFF94_PARTIAL_CHARGES>
30
1 -0.19
10 0.42
11 0.14
12 0.63
13 0.14
14 -0.15
15 -0.14
16 -0.15
19 -0.15
2 -0.43
20 -0.15
21 -0.15
22 -0.15
23 -0.15
24 -0.15
25 0.19
3 -0.57
32 0.15
33 0.15
4 -0.62
40 0.15
41 0.15
42 0.15
43 0.15
44 0.15
45 0.15
5 0.09
6 -0.14
8 0.17
9 0.31

> <PUBCHEM_EFFECTIVE_ROTOR_COUNT>
5

> <PUBCHEM_PHARMACOPHORE_FEATURES>
6
1 18 hydrophobe
1 3 acceptor
1 4 acceptor
6 15 21 22 23 24 25 rings
6 4 5 6 7 8 9 rings
6 7 9 14 16 19 20 rings

> <PUBCHEM_HEAVY_ATOM_COUNT>
25

> <PUBCHEM_ATOM_DEF_STEREO_COUNT>
1

> <PUBCHEM_ATOM_UDEF_STEREO_COUNT>
0

> <PUBCHEM_BOND_DEF_STEREO_COUNT>
0

> <PUBCHEM_BOND_UDEF_STEREO_COUNT>
0

> <PUBCHEM_ISOTOPIC_ATOM_COUNT>
0

> <PUBCHEM_COMPONENT_COUNT>
1

> <PUBCHEM_CACTVS_TAUTO_COUNT>
2

> <PUBCHEM_CONFORMER_ID>
0077BC8700000001

> <PUBCHEM_MMFF94_ENERGY>
79.2569

> <PUBCHEM_FEATURE_SELFOVERLAP>
30.477

> <PUBCHEM_SHAPE_FINGERPRINT>
10369192 42 14691129588850882478
10498660 4 18410016558874443960
105312 117 18339645645685399037
107951 10 18335422434808868671
10928967 22 14490457717396638484
11049842 53 18051435120714897818
11488393 25 16687656560423797819
11640471 11 17632302314645256338
12390115 104 18263081166961280841
12553582 1 18197516025628784371
12714826 92 18188214195521926395
12788726 201 18272100353148011419
12892183 10 9727634986609544128
12895836 83 18342175621925502749
12895837 130 18059558179898783948
13103583 49 14780090962309952823
13257819 37 18339930415429377605
13402501 40 17749946652993288126
13544653 18 17023176085904190498
13675066 3 11312064253332012528
13761468 95 17557988626232874260
14251757 5 18410009935997885357
14251764 38 18058165017188912156
14790565 3 18047756185358608457
14910302 57 18337115656877254846
15163728 17 17910674590213389389
15463212 79 18130795598027331475
15475509 35 6189713469726063949
15475509 8 18261680277636437839
15575132 122 17844250846654249869
15842332 3 17702407163073558162
15961568 22 17982741775166886244
16752209 62 18340506499055588899
17870717 6 18334009471508406583
19319366 153 17345481555577133609
20642791 178 17834127716232293027
20693207 138 18041000583599473600
20771845 171 17768550618285967653
20871999 31 18409739451910933437
21033650 10 18343017783549697272
21307412 95 18115876192176766199
21756936 100 17417800768868161560
22122407 14 15482403039894211613
22182313 1 17751379299564027320
22393880 68 18408039628773387734
22620623 9 18334865987188025927
22849339 104 18408890620450150167
235170 7 18187360996363563492
23557571 272 18262248719987978016
23559900 14 18187091697608639424
255183 451 17688592654897804655
312425 83 18271229613100424014
314194 84 15357696392886669076
3729539 64 17757821604479483391
3737641 26 4677446113327612012
4169191 19 16127232388272131180
46194498 28 18043260032855810640
474 4 16559038215894796328
484985 159 17095509704526748399
4921388 177 18334008393513546657
6034566 193 16702294650744985366
633830 44 16988559147936339074
6608658 132 17846785138866247581

> <PUBCHEM_SHAPE_MULTIPOLES>
490.49
11.7
3.37
1.85
15.83
0.61
-0.54
-2.59
7.07
-7.39
0.54
1.89
0.12
0.29

> <PUBCHEM_SHAPE_SELFOVERLAP>
1071.659

> <PUBCHEM_SHAPE_VOLUME>
269.2

> <PUBCHEM_COORDINATE_TYPE>
2
5
10

$$$$

