47205460
  -OEChem-06241222582D

 35 36  0     1  0  0  0  0  0999 V2000
    2.0000   -1.7694    0.0000 Br  0  0  0  0  0  0  0  0  0  0  0  0
    3.7320    1.2306    0.0000 O   0  0  0  0  0  0  0  0  0  0  0  0
    4.5981   -0.2694    0.0000 N   0  0  0  0  0  0  0  0  0  0  0  0
    5.4641    2.2306    0.0000 N   0  0  0  0  0  0  0  0  0  0  0  0
    4.9641    3.7694    0.0000 N   0  0  0  0  0  0  0  0  0  0  0  0
    3.7320   -0.7694    0.0000 C   0  0  3  0  0  0  0  0  0  0  0  0
    5.4641    1.2306    0.0000 C   0  0  3  0  0  0  0  0  0  0  0  0
    4.5981    0.7306    0.0000 C   0  0  0  0  0  0  0  0  0  0  0  0
    3.7320   -1.7694    0.0000 C   0  0  0  0  0  0  0  0  0  0  0  0
    2.8660   -0.2694    0.0000 C   0  0  0  0  0  0  0  0  0  0  0  0
    6.3301    0.7306    0.0000 C   0  0  0  0  0  0  0  0  0  0  0  0
    2.8660   -2.2694    0.0000 C   0  0  0  0  0  0  0  0  0  0  0  0
    4.5981   -2.2694    0.0000 C   0  0  0  0  0  0  0  0  0  0  0  0
    6.2731    2.8184    0.0000 C   0  0  0  0  0  0  0  0  0  0  0  0
    4.6551    2.8184    0.0000 C   0  0  0  0  0  0  0  0  0  0  0  0
    2.8660   -3.2694    0.0000 C   0  0  0  0  0  0  0  0  0  0  0  0
    4.5981   -3.2694    0.0000 C   0  0  0  0  0  0  0  0  0  0  0  0
    5.9641    3.7694    0.0000 C   0  0  0  0  0  0  0  0  0  0  0  0
    3.7320   -3.7694    0.0000 C   0  0  0  0  0  0  0  0  0  0  0  0
    3.7320   -0.1494    0.0000 H   0  0  0  0  0  0  0  0  0  0  0  0
    6.0010    1.5406    0.0000 H   0  0  0  0  0  0  0  0  0  0  0  0
    5.1350   -0.5794    0.0000 H   0  0  0  0  0  0  0  0  0  0  0  0
    3.1760    0.2675    0.0000 H   0  0  0  0  0  0  0  0  0  0  0  0
    2.3291    0.0406    0.0000 H   0  0  0  0  0  0  0  0  0  0  0  0
    2.5560   -0.8064    0.0000 H   0  0  0  0  0  0  0  0  0  0  0  0
    6.0201    0.1936    0.0000 H   0  0  0  0  0  0  0  0  0  0  0  0
    6.8671    0.4206    0.0000 H   0  0  0  0  0  0  0  0  0  0  0  0
    6.6401    1.2675    0.0000 H   0  0  0  0  0  0  0  0  0  0  0  0
    5.1350   -1.9594    0.0000 H   0  0  0  0  0  0  0  0  0  0  0  0
    6.8628    2.6268    0.0000 H   0  0  0  0  0  0  0  0  0  0  0  0
    4.0654    2.6268    0.0000 H   0  0  0  0  0  0  0  0  0  0  0  0
    2.3291   -3.5794    0.0000 H   0  0  0  0  0  0  0  0  0  0  0  0
    5.1350   -3.5794    0.0000 H   0  0  0  0  0  0  0  0  0  0  0  0
    6.3285    4.2710    0.0000 H   0  0  0  0  0  0  0  0  0  0  0  0
    3.7320   -4.3894    0.0000 H   0  0  0  0  0  0  0  0  0  0  0  0
  1 12  1  0  0  0  0
  2  8  2  0  0  0  0
  3  6  1  0  0  0  0
  3  8  1  0  0  0  0
  3 22  1  0  0  0  0
  4  7  1  0  0  0  0
  4 14  1  0  0  0  0
  4 15  1  0  0  0  0
  5 15  2  0  0  0  0
  5 18  1  0  0  0  0
  6  9  1  0  0  0  0
  6 10  1  0  0  0  0
  6 20  1  0  0  0  0
  7  8  1  0  0  0  0
  7 11  1  0  0  0  0
  7 21  1  0  0  0  0
  9 12  1  0  0  0  0
  9 13  2  0  0  0  0
 10 23  1  0  0  0  0
 10 24  1  0  0  0  0
 10 25  1  0  0  0  0
 11 26  1  0  0  0  0
 11 27  1  0  0  0  0
 11 28  1  0  0  0  0
 12 16  2  0  0  0  0
 13 17  1  0  0  0  0
 13 29  1  0  0  0  0
 14 18  2  0  0  0  0
 14 30  1  0  0  0  0
 15 31  1  0  0  0  0
 16 19  1  0  0  0  0
 16 32  1  0  0  0  0
 17 19  2  0  0  0  0
 17 33  1  0  0  0  0
 18 34  1  0  0  0  0
 19 35  1  0  0  0  0
M  END
> <PUBCHEM_COMPOUND_CID>
47205460

> <PUBCHEM_COMPOUND_CANONICALIZED>
1

> <PUBCHEM_CACTVS_COMPLEXITY>
313

> <PUBCHEM_CACTVS_HBOND_ACCEPTOR>
2

> <PUBCHEM_CACTVS_HBOND_DONOR>
1

> <PUBCHEM_CACTVS_ROTATABLE_BOND>
4

> <PUBCHEM_CACTVS_SUBSKEYS>
AAADceBzIAAAEAAAAAAAAAAAAAAAAWAAAAAwAAAAAAAAAAABwAAAHgBQAAABrCjBmgQ/kJfMEACoAjF3dACCgC0xEqQJyIGYNKiIaCKAmTGUIAholgKIijcQgIAOAAAAAAAAgAAAAAAAAAEAAAAAAAAAAA==

> <PUBCHEM_IUPAC_OPENEYE_NAME>
N-[1-(2-bromophenyl)ethyl]-2-imidazol-1-yl-propanamide

> <PUBCHEM_IUPAC_CAS_NAME>
N-[1-(2-bromophenyl)ethyl]-2-(1-imidazolyl)propanamide

> <PUBCHEM_IUPAC_NAME>
N-[1-(2-bromophenyl)ethyl]-2-imidazol-1-ylpropanamide

> <PUBCHEM_IUPAC_SYSTEMATIC_NAME>
N-[1-(2-bromophenyl)ethyl]-2-imidazol-1-yl-propanamide

> <PUBCHEM_IUPAC_TRADITIONAL_NAME>
N-[1-(2-bromophenyl)ethyl]-2-imidazol-1-yl-propionamide

> <PUBCHEM_IUPAC_INCHI>
InChI=1S/C14H16BrN3O/c1-10(12-5-3-4-6-13(12)15)17-14(19)11(2)18-8-7-16-9-18/h3-11H,1-2H3,(H,17,19)

> <PUBCHEM_IUPAC_INCHIKEY>
VPLQAMRRGRBXNG-UHFFFAOYSA-N

> <PUBCHEM_XLOGP3_AA>
2.4

> <PUBCHEM_EXACT_MASS>
321.047674

> <PUBCHEM_MOLECULAR_FORMULA>
C14H16BrN3O

> <PUBCHEM_MOLECULAR_WEIGHT>
322.20034

> <PUBCHEM_OPENEYE_CAN_SMILES>
CC(C1=CC=CC=C1Br)NC(=O)C(C)N2C=CN=C2

> <PUBCHEM_OPENEYE_ISO_SMILES>
CC(C1=CC=CC=C1Br)NC(=O)C(C)N2C=CN=C2

> <PUBCHEM_CACTVS_TPSA>
46.9

> <PUBCHEM_MONOISOTOPIC_WEIGHT>
321.047674

> <PUBCHEM_TOTAL_CHARGE>
0

> <PUBCHEM_HEAVY_ATOM_COUNT>
19

> <PUBCHEM_ATOM_DEF_STEREO_COUNT>
0

> <PUBCHEM_ATOM_UDEF_STEREO_COUNT>
2

> <PUBCHEM_BOND_DEF_STEREO_COUNT>
0

> <PUBCHEM_BOND_UDEF_STEREO_COUNT>
0

> <PUBCHEM_ISOTOPIC_ATOM_COUNT>
0

> <PUBCHEM_COMPONENT_COUNT>
1

> <PUBCHEM_CACTVS_TAUTO_COUNT>
2

> <PUBCHEM_COORDINATE_TYPE>
1
5
255

> <PUBCHEM_BONDANNOTATIONS>
12  16  8
13  17  8
14  18  8
16  19  8
17  19  8
4  14  8
4  15  8
5  15  8
5  18  8
6  10  3
7  11  3
9  12  8
9  13  8

$$$$

