5243
  -OEChem-06261200362D

 44 46  0     0  0  0  0  0  0999 V2000
    8.0622    3.6550    0.0000 S   0  0  0  0  0  0  0  0  0  0  0  0
    3.7320   -3.8450    0.0000 S   0  0  0  0  0  0  0  0  0  0  0  0
    4.5981   -3.3450    0.0000 O   0  0  0  0  0  0  0  0  0  0  0  0
    8.0622    2.6550    0.0000 O   0  0  0  0  0  0  0  0  0  0  0  0
    2.8660   -4.3450    0.0000 O   0  0  0  0  0  0  0  0  0  0  0  0
    8.0622    4.6550    0.0000 O   0  0  0  0  0  0  0  0  0  0  0  0
    4.2320   -4.7110    0.0000 O   0  0  0  0  0  0  0  0  0  0  0  0
    3.2320   -2.9790    0.0000 O   0  0  0  0  0  0  0  0  0  0  0  0
    9.0622    3.6550    0.0000 O   0  0  0  0  0  0  0  0  0  0  0  0
    7.0622    3.6550    0.0000 O   0  0  0  0  0  0  0  0  0  0  0  0
    3.7320    2.1550    0.0000 N   0  0  0  0  0  0  0  0  0  0  0  0
    4.5981    0.6550    0.0000 C   0  0  0  0  0  0  0  0  0  0  0  0
    4.5981   -0.3450    0.0000 C   0  0  0  0  0  0  0  0  0  0  0  0
    5.4641    1.1550    0.0000 C   0  0  0  0  0  0  0  0  0  0  0  0
    3.7320    1.1550    0.0000 C   0  0  0  0  0  0  0  0  0  0  0  0
    5.4641   -0.8450    0.0000 C   0  0  0  0  0  0  0  0  0  0  0  0
    5.4641    2.1550    0.0000 C   0  0  0  0  0  0  0  0  0  0  0  0
    3.7320   -0.8450    0.0000 C   0  0  0  0  0  0  0  0  0  0  0  0
    6.3301    0.6550    0.0000 C   0  0  0  0  0  0  0  0  0  0  0  0
    2.8660    0.6550    0.0000 C   0  0  0  0  0  0  0  0  0  0  0  0
    5.4641   -1.8450    0.0000 C   0  0  0  0  0  0  0  0  0  0  0  0
    6.3301    2.6550    0.0000 C   0  0  0  0  0  0  0  0  0  0  0  0
    3.7320   -1.8450    0.0000 C   0  0  0  0  0  0  0  0  0  0  0  0
    7.1962    1.1550    0.0000 C   0  0  0  0  0  0  0  0  0  0  0  0
    4.5981   -2.3450    0.0000 C   0  0  0  0  0  0  0  0  0  0  0  0
    7.1962    2.1550    0.0000 C   0  0  0  0  0  0  0  0  0  0  0  0
    2.0000    1.1550    0.0000 C   0  0  0  0  0  0  0  0  0  0  0  0
    2.8660    2.6550    0.0000 C   0  0  0  0  0  0  0  0  0  0  0  0
    2.0000    2.1550    0.0000 C   0  0  0  0  0  0  0  0  0  0  0  0
    4.5981    1.2750    0.0000 H   0  0  0  0  0  0  0  0  0  0  0  0
    4.9272    2.4650    0.0000 H   0  0  0  0  0  0  0  0  0  0  0  0
    6.0010   -0.5350    0.0000 H   0  0  0  0  0  0  0  0  0  0  0  0
    6.3301    0.0350    0.0000 H   0  0  0  0  0  0  0  0  0  0  0  0
    3.1951   -0.5350    0.0000 H   0  0  0  0  0  0  0  0  0  0  0  0
    2.8660    0.0350    0.0000 H   0  0  0  0  0  0  0  0  0  0  0  0
    6.3301    3.2750    0.0000 H   0  0  0  0  0  0  0  0  0  0  0  0
    6.0010   -2.1550    0.0000 H   0  0  0  0  0  0  0  0  0  0  0  0
    7.7331    0.8450    0.0000 H   0  0  0  0  0  0  0  0  0  0  0  0
    3.1951   -2.1550    0.0000 H   0  0  0  0  0  0  0  0  0  0  0  0
    1.4631    0.8450    0.0000 H   0  0  0  0  0  0  0  0  0  0  0  0
    2.8660    3.2750    0.0000 H   0  0  0  0  0  0  0  0  0  0  0  0
    1.4631    2.4650    0.0000 H   0  0  0  0  0  0  0  0  0  0  0  0
    8.5991    4.9650    0.0000 H   0  0  0  0  0  0  0  0  0  0  0  0
    2.8660   -4.9650    0.0000 H   0  0  0  0  0  0  0  0  0  0  0  0
  1  4  1  0  0  0  0
  1  6  1  0  0  0  0
  1  9  2  0  0  0  0
  1 10  2  0  0  0  0
  2  3  1  0  0  0  0
  2  5  1  0  0  0  0
  2  7  2  0  0  0  0
  2  8  2  0  0  0  0
  3 25  1  0  0  0  0
  4 26  1  0  0  0  0
  5 44  1  0  0  0  0
  6 43  1  0  0  0  0
 11 15  1  0  0  0  0
 11 28  2  0  0  0  0
 12 13  1  0  0  0  0
 12 14  1  0  0  0  0
 12 15  1  0  0  0  0
 12 30  1  0  0  0  0
 13 16  2  0  0  0  0
 13 18  1  0  0  0  0
 14 17  2  0  0  0  0
 14 19  1  0  0  0  0
 15 20  2  0  0  0  0
 16 21  1  0  0  0  0
 16 32  1  0  0  0  0
 17 22  1  0  0  0  0
 17 31  1  0  0  0  0
 18 23  2  0  0  0  0
 18 34  1  0  0  0  0
 19 24  2  0  0  0  0
 19 33  1  0  0  0  0
 20 27  1  0  0  0  0
 20 35  1  0  0  0  0
 21 25  2  0  0  0  0
 21 37  1  0  0  0  0
 22 26  2  0  0  0  0
 22 36  1  0  0  0  0
 23 25  1  0  0  0  0
 23 39  1  0  0  0  0
 24 26  1  0  0  0  0
 24 38  1  0  0  0  0
 27 29  2  0  0  0  0
 27 40  1  0  0  0  0
 28 29  1  0  0  0  0
 28 41  1  0  0  0  0
 29 42  1  0  0  0  0
M  END
> <PUBCHEM_COMPOUND_CID>
5243

> <PUBCHEM_COMPOUND_CANONICALIZED>
1

> <PUBCHEM_CACTVS_COMPLEXITY>
660

> <PUBCHEM_CACTVS_HBOND_ACCEPTOR>
9

> <PUBCHEM_CACTVS_HBOND_DONOR>
2

> <PUBCHEM_CACTVS_ROTATABLE_BOND>
7

> <PUBCHEM_CACTVS_SUBSKEYS>
AAADccB6PABgAAAAAAAAAAAAAAAAAAAAAAA8YIAAAAAAAAAB0AAAHgAACAAADQzBngQ8hpIIEICgAzRnRDCCgCAxIiAI2CA+bJgIJuLAkZOEMAhkwBHIyAeQwPAOoAAAAAAAAABAAAAAAAAAAAAAAAAAAA==

> <PUBCHEM_IUPAC_OPENEYE_NAME>
[4-[2-pyridyl-(4-sulfooxyphenyl)methyl]phenyl] hydrogen sulfate

> <PUBCHEM_IUPAC_CAS_NAME>
sulfuric acid [4-[2-pyridinyl-(4-sulfooxyphenyl)methyl]phenyl] ester

> <PUBCHEM_IUPAC_NAME>
[4-[pyridin-2-yl-(4-sulfooxyphenyl)methyl]phenyl] hydrogen sulfate

> <PUBCHEM_IUPAC_SYSTEMATIC_NAME>
[4-[pyridin-2-yl-(4-sulfooxyphenyl)methyl]phenyl] hydrogen sulfate

> <PUBCHEM_IUPAC_TRADITIONAL_NAME>
sulfuric acid [4-[2-pyridyl-(4-sulfoxyphenyl)methyl]phenyl] ester

> <PUBCHEM_IUPAC_INCHI>
InChI=1S/C18H15NO8S2/c20-28(21,22)26-15-8-4-13(5-9-15)18(17-3-1-2-12-19-17)14-6-10-16(11-7-14)27-29(23,24)25/h1-12,18H,(H,20,21,22)(H,23,24,25)

> <PUBCHEM_IUPAC_INCHIKEY>
UJIDKYTZIQTXPM-UHFFFAOYSA-N

> <PUBCHEM_XLOGP3_AA>
2.4

> <PUBCHEM_EXACT_MASS>
437.023908

> <PUBCHEM_MOLECULAR_FORMULA>
C18H15NO8S2

> <PUBCHEM_MOLECULAR_WEIGHT>
437.4436

> <PUBCHEM_OPENEYE_CAN_SMILES>
C1=CC=NC(=C1)C(C2=CC=C(C=C2)OS(=O)(=O)O)C3=CC=C(C=C3)OS(=O)(=O)O

> <PUBCHEM_OPENEYE_ISO_SMILES>
C1=CC=NC(=C1)C(C2=CC=C(C=C2)OS(=O)(=O)O)C3=CC=C(C=C3)OS(=O)(=O)O

> <PUBCHEM_CACTVS_TPSA>
157

> <PUBCHEM_MONOISOTOPIC_WEIGHT>
437.023908

> <PUBCHEM_TOTAL_CHARGE>
0

> <PUBCHEM_HEAVY_ATOM_COUNT>
29

> <PUBCHEM_ATOM_DEF_STEREO_COUNT>
0

> <PUBCHEM_ATOM_UDEF_STEREO_COUNT>
0

> <PUBCHEM_BOND_DEF_STEREO_COUNT>
0

> <PUBCHEM_BOND_UDEF_STEREO_COUNT>
0

> <PUBCHEM_ISOTOPIC_ATOM_COUNT>
0

> <PUBCHEM_COMPONENT_COUNT>
1

> <PUBCHEM_CACTVS_TAUTO_COUNT>
1

> <PUBCHEM_COORDINATE_TYPE>
1
5
255

> <PUBCHEM_BONDANNOTATIONS>
11  15  8
11  28  8
13  16  8
13  18  8
14  17  8
14  19  8
15  20  8
16  21  8
17  22  8
18  23  8
19  24  8
20  27  8
21  25  8
22  26  8
23  25  8
24  26  8
27  29  8
28  29  8

$$$$

