4850
  -OEChem-06261200223D

 40 43  0     0  0  0  0  0  0999 V2000
   -4.2522    1.6747    1.3484 O   0  0  0  0  0  0  0  0  0  0  0  0
   -5.7313    1.2667   -0.5099 O   0  0  0  0  0  0  0  0  0  0  0  0
   -0.0725   -1.2699    0.4051 N   0  0  0  0  0  0  0  0  0  0  0  0
    2.5871   -0.3062    0.0085 N   0  0  0  0  0  0  0  0  0  0  0  0
    4.0188    1.5054   -0.4853 N   0  0  0  0  0  0  0  0  0  0  0  0
    4.9150   -0.5980    0.2759 N   0  0  0  0  0  0  0  0  0  0  0  0
    0.2239   -0.3339   -0.6862 C   0  0  0  0  0  0  0  0  0  0  0  0
    1.0785   -2.1527    0.6323 C   0  0  0  0  0  0  0  0  0  0  0  0
    1.4405    0.5331   -0.3524 C   0  0  0  0  0  0  0  0  0  0  0  0
    2.3227   -1.3460    1.0110 C   0  0  0  0  0  0  0  0  0  0  0  0
   -1.2677   -2.0545    0.0978 C   0  0  0  0  0  0  0  0  0  0  0  0
   -2.4780   -1.1802   -0.0963 C   0  0  0  0  0  0  0  0  0  0  0  0
    3.8825    0.2174   -0.0698 C   0  0  0  0  0  0  0  0  0  0  0  0
   -2.7229   -0.1483    0.8027 C   0  0  0  0  0  0  0  0  0  0  0  0
   -3.3304   -1.4260   -1.1788 C   0  0  0  0  0  0  0  0  0  0  0  0
   -3.8440    0.6257    0.5834 C   0  0  0  0  0  0  0  0  0  0  0  0
   -4.6887    0.3927   -0.4777 C   0  0  0  0  0  0  0  0  0  0  0  0
   -4.4589   -0.6272   -1.3780 C   0  0  0  0  0  0  0  0  0  0  0  0
   -5.4482    2.0763    0.6494 C   0  0  0  0  0  0  0  0  0  0  0  0
    5.2809    1.9781   -0.5485 C   0  0  0  0  0  0  0  0  0  0  0  0
    6.1495   -0.0609    0.1893 C   0  0  0  0  0  0  0  0  0  0  0  0
    6.3955    1.2336   -0.2206 C   0  0  0  0  0  0  0  0  0  0  0  0
   -0.6021    0.3566   -0.8850 H   0  0  0  0  0  0  0  0  0  0  0  0
    0.4148   -0.8814   -1.6198 H   0  0  0  0  0  0  0  0  0  0  0  0
    1.2897   -2.7542   -0.2623 H   0  0  0  0  0  0  0  0  0  0  0  0
    0.8604   -2.8499    1.4504 H   0  0  0  0  0  0  0  0  0  0  0  0
    1.6624    1.1432   -1.2365 H   0  0  0  0  0  0  0  0  0  0  0  0
    1.2082    1.2148    0.4755 H   0  0  0  0  0  0  0  0  0  0  0  0
    2.1879   -0.8770    1.9940 H   0  0  0  0  0  0  0  0  0  0  0  0
    3.1561   -2.0533    1.0956 H   0  0  0  0  0  0  0  0  0  0  0  0
   -1.4907   -2.7387    0.9270 H   0  0  0  0  0  0  0  0  0  0  0  0
   -1.0999   -2.6763   -0.7920 H   0  0  0  0  0  0  0  0  0  0  0  0
   -2.0800    0.0475    1.6537 H   0  0  0  0  0  0  0  0  0  0  0  0
   -3.1281   -2.2367   -1.8737 H   0  0  0  0  0  0  0  0  0  0  0  0
   -5.1270   -0.8077   -2.2123 H   0  0  0  0  0  0  0  0  0  0  0  0
   -5.3348    3.1187    0.3304 H   0  0  0  0  0  0  0  0  0  0  0  0
   -6.2970    2.0098    1.3396 H   0  0  0  0  0  0  0  0  0  0  0  0
    5.3746    3.0062   -0.8814 H   0  0  0  0  0  0  0  0  0  0  0  0
    6.9631   -0.7220    0.4679 H   0  0  0  0  0  0  0  0  0  0  0  0
    7.3968    1.6384   -0.2807 H   0  0  0  0  0  0  0  0  0  0  0  0
  1 16  1  0  0  0  0
  1 19  1  0  0  0  0
  2 17  1  0  0  0  0
  2 19  1  0  0  0  0
  3  7  1  0  0  0  0
  3  8  1  0  0  0  0
  3 11  1  0  0  0  0
  4  9  1  0  0  0  0
  4 10  1  0  0  0  0
  4 13  1  0  0  0  0
  5 13  1  0  0  0  0
  5 20  2  0  0  0  0
  6 13  2  0  0  0  0
  6 21  1  0  0  0  0
  7  9  1  0  0  0  0
  7 23  1  0  0  0  0
  7 24  1  0  0  0  0
  8 10  1  0  0  0  0
  8 25  1  0  0  0  0
  8 26  1  0  0  0  0
  9 27  1  0  0  0  0
  9 28  1  0  0  0  0
 10 29  1  0  0  0  0
 10 30  1  0  0  0  0
 11 12  1  0  0  0  0
 11 31  1  0  0  0  0
 11 32  1  0  0  0  0
 12 14  2  0  0  0  0
 12 15  1  0  0  0  0
 14 16  1  0  0  0  0
 14 33  1  0  0  0  0
 15 18  2  0  0  0  0
 15 34  1  0  0  0  0
 16 17  2  0  0  0  0
 17 18  1  0  0  0  0
 18 35  1  0  0  0  0
 19 36  1  0  0  0  0
 19 37  1  0  0  0  0
 20 22  1  0  0  0  0
 20 38  1  0  0  0  0
 21 22  2  0  0  0  0
 21 39  1  0  0  0  0
 22 40  1  0  0  0  0
M  END
> <PUBCHEM_COMPOUND_CID>
4850

> <PUBCHEM_CONFORMER_RMSD>
0.8

> <PUBCHEM_CONFORMER_DIVERSEORDER>
1
13
18
19
9
5
4
12
8
14
10
7
15
6
17
16
3
11
22
2
21
20

> <PUBCHEM_MMFF94_PARTIAL_CHARGES>
28
1 -0.36
10 0.37
11 0.41
12 -0.14
13 0.72
14 -0.15
15 -0.15
16 0.08
17 0.08
18 -0.15
19 0.56
2 -0.36
20 0.16
21 0.16
22 -0.15
3 -0.81
33 0.15
34 0.15
35 0.15
38 0.15
39 0.15
4 -0.84
40 0.15
5 -0.62
6 -0.62
7 0.27
8 0.27
9 0.37

> <PUBCHEM_EFFECTIVE_ROTOR_COUNT>
4.8

> <PUBCHEM_PHARMACOPHORE_FEATURES>
9
1 1 acceptor
1 2 acceptor
1 3 cation
1 5 acceptor
4 4 5 6 13 cation
5 1 2 16 17 19 rings
6 12 14 15 16 17 18 rings
6 3 4 7 8 9 10 rings
6 5 6 13 20 21 22 rings

> <PUBCHEM_HEAVY_ATOM_COUNT>
22

> <PUBCHEM_ATOM_DEF_STEREO_COUNT>
0

> <PUBCHEM_ATOM_UDEF_STEREO_COUNT>
0

> <PUBCHEM_BOND_DEF_STEREO_COUNT>
0

> <PUBCHEM_BOND_UDEF_STEREO_COUNT>
0

> <PUBCHEM_ISOTOPIC_ATOM_COUNT>
0

> <PUBCHEM_COMPONENT_COUNT>
1

> <PUBCHEM_CACTVS_TAUTO_COUNT>
1

> <PUBCHEM_CONFORMER_ID>
000012F200000001

> <PUBCHEM_MMFF94_ENERGY>
65.7055

> <PUBCHEM_FEATURE_SELFOVERLAP>
45.825

> <PUBCHEM_SHAPE_FINGERPRINT>
10 15 17275098410089087377
10906281 52 18058999598427566982
11089746 13 18335144172288379168
117890 112 18408323268355359212
12236239 1 18409171016915204918
12596602 18 17846497036986607409
12788726 201 17822569542147161425
13073987 5 18341612556234629474
13103583 49 11743845793379376071
13167372 99 18410856581774249472
13177829 73 18408323293829867928
13288520 33 9295289443719454939
13583140 156 14548751559704379071
13631057 29 18269560425738499955
13785724 45 17909556395931946346
14739800 52 18115047228932714200
14790565 3 18343017766412422044
15183329 4 18334292089621456134
15348495 7 15841262658612152384
15716309 27 9583522022867545380
17349148 13 7060384747149814094
17780758 139 11887960947448648559
17870717 6 15719393928256032831
18222031 100 7060378098530098158
18608769 82 18337950074813623251
18643901 69 15647343979645001613
19427546 20 18334020467742938511
19489759 90 17530683195216881102
19784866 240 8142079867113512747
20281389 69 18131072636223989908
20511986 3 18336279993184586144
21150785 3 7997684338338410112
21315759 148 13758080718526248712
22950370 63 9727640505352239182
23198884 109 18040716965597677551
23402539 116 18187367618886726644
23402655 69 18335140877921973070
23559900 14 16805614650268545747
270888 7 18337670931782536481
2767999 5 18411422804165741712
2838139 119 18335140877700550344
293599 30 18343019978299285358
3472631 163 18261109708041703341
34797466 226 16661203638104821548
397830 11 13470398912777432220
441001 317 18334013861117716747
465052 167 10663825183176322320
474 4 18342459274682526755
5104073 3 17845941715322222314
543368 44 18408606942176100745
6299153 45 18265897033203366538
6328613 192 18341044113313708548
633830 44 18411699893917884134
636775 72 18262803952587418600
7062679 6 18408600370433221156
76465 3 9079114453528484803
7970288 3 9007051353532835601

> <PUBCHEM_SHAPE_MULTIPOLES>
421.09
15.99
2.14
1.04
9.71
0.08
-0.04
9.88
-1.06
-0.69
0.27
-0.99
-0.03
-1.79

> <PUBCHEM_SHAPE_SELFOVERLAP>
917.409

> <PUBCHEM_SHAPE_VOLUME>
227.6

> <PUBCHEM_COORDINATE_TYPE>
2
5
10

$$$$

