10048
  -OEChem-06261204163D

 28 29  0     1  0  0  0  0  0999 V2000
   -2.9327    0.2948   -0.1599 Cl  0  0  0  0  0  0  0  0  0  0  0  0
   -0.1785    0.6701    0.3374 C   0  0  1  0  0  0  0  0  0  0  0  0
    1.1311    0.0867   -0.2889 C   0  0  0  0  0  0  0  0  0  0  0  0
    0.5225   -1.3404   -0.3319 C   0  0  2  0  0  0  0  0  0  0  0  0
   -1.2472    0.2540   -0.7214 C   0  0  1  0  0  0  0  0  0  0  0  0
   -0.3521   -0.2112    1.6083 C   0  0  0  0  0  0  0  0  0  0  0  0
   -0.7936   -1.1612   -1.1293 C   0  0  0  0  0  0  0  0  0  0  0  0
    0.1101   -1.5984    1.1337 C   0  0  0  0  0  0  0  0  0  0  0  0
   -0.1771    2.1561    0.6476 C   0  0  0  0  0  0  0  0  0  0  0  0
    1.5155    0.6495   -1.6734 C   0  0  0  0  0  0  0  0  0  0  0  0
    2.4021    0.2001    0.5777 C   0  0  0  0  0  0  0  0  0  0  0  0
    1.1700   -2.1197   -0.7408 H   0  0  0  0  0  0  0  0  0  0  0  0
   -1.2212    0.9222   -1.5879 H   0  0  0  0  0  0  0  0  0  0  0  0
   -1.3753   -0.2369    1.9929 H   0  0  0  0  0  0  0  0  0  0  0  0
    0.2757    0.1405    2.4348 H   0  0  0  0  0  0  0  0  0  0  0  0
   -0.6037   -1.2055   -2.2074 H   0  0  0  0  0  0  0  0  0  0  0  0
   -1.5235   -1.9440   -0.8965 H   0  0  0  0  0  0  0  0  0  0  0  0
    0.9554   -1.9533    1.7325 H   0  0  0  0  0  0  0  0  0  0  0  0
   -0.6874   -2.3440    1.2204 H   0  0  0  0  0  0  0  0  0  0  0  0
    0.6299    2.4175    1.3397 H   0  0  0  0  0  0  0  0  0  0  0  0
   -0.0437    2.7524   -0.2608 H   0  0  0  0  0  0  0  0  0  0  0  0
   -1.1204    2.4627    1.1117 H   0  0  0  0  0  0  0  0  0  0  0  0
    2.3641    0.0917   -2.0869 H   0  0  0  0  0  0  0  0  0  0  0  0
    0.7248    0.6027   -2.4243 H   0  0  0  0  0  0  0  0  0  0  0  0
    1.8169    1.7000   -1.5932 H   0  0  0  0  0  0  0  0  0  0  0  0
    2.2829   -0.1407    1.6082 H   0  0  0  0  0  0  0  0  0  0  0  0
    3.2138   -0.3948    0.1430 H   0  0  0  0  0  0  0  0  0  0  0  0
    2.7430    1.2404    0.6287 H   0  0  0  0  0  0  0  0  0  0  0  0
  1  5  1  0  0  0  0
  2  3  1  0  0  0  0
  2  5  1  0  0  0  0
  2  6  1  0  0  0  0
  2  9  1  0  0  0  0
  3  4  1  0  0  0  0
  3 10  1  0  0  0  0
  3 11  1  0  0  0  0
  4  7  1  0  0  0  0
  4  8  1  0  0  0  0
  4 12  1  0  0  0  0
  5  7  1  0  0  0  0
  5 13  1  0  0  0  0
  6  8  1  0  0  0  0
  6 14  1  0  0  0  0
  6 15  1  0  0  0  0
  7 16  1  0  0  0  0
  7 17  1  0  0  0  0
  8 18  1  0  0  0  0
  8 19  1  0  0  0  0
  9 20  1  0  0  0  0
  9 21  1  0  0  0  0
  9 22  1  0  0  0  0
 10 23  1  0  0  0  0
 10 24  1  0  0  0  0
 10 25  1  0  0  0  0
 11 26  1  0  0  0  0
 11 27  1  0  0  0  0
 11 28  1  0  0  0  0
M  END
> <PUBCHEM_COMPOUND_CID>
10048

> <PUBCHEM_CONFORMER_RMSD>
0.4

> <PUBCHEM_CONFORMER_DIVERSEORDER>
1
4
3
2

> <PUBCHEM_MMFF94_PARTIAL_CHARGES>
2
1 -0.29
5 0.29

> <PUBCHEM_EFFECTIVE_ROTOR_COUNT>
1

> <PUBCHEM_PHARMACOPHORE_FEATURES>
2
3 3 10 11 hydrophobe
7 2 3 4 5 6 7 8 rings

> <PUBCHEM_HEAVY_ATOM_COUNT>
11

> <PUBCHEM_ATOM_DEF_STEREO_COUNT>
0

> <PUBCHEM_ATOM_UDEF_STEREO_COUNT>
3

> <PUBCHEM_BOND_DEF_STEREO_COUNT>
0

> <PUBCHEM_BOND_UDEF_STEREO_COUNT>
0

> <PUBCHEM_ISOTOPIC_ATOM_COUNT>
0

> <PUBCHEM_COMPONENT_COUNT>
1

> <PUBCHEM_CACTVS_TAUTO_COUNT>
1

> <PUBCHEM_CONFORMER_ID>
0000274000000001

> <PUBCHEM_MMFF94_ENERGY>
54.2513

> <PUBCHEM_FEATURE_SELFOVERLAP>
10.148

> <PUBCHEM_SHAPE_FINGERPRINT>
12423570 1 5450596807567661302
13024252 1 18130796633420365858
137420 1 17402567189799543611
15557651 10 18129118765459356941
16945 1 17987820581966148894
21040471 1 18130221554004644391
241688 4 17268069472944658482
369184 2 18262530195286019490
5084963 1 18129371777661267300
528886 8 17968108507449048741

> <PUBCHEM_SHAPE_MULTIPOLES>
228.24
2.55
1.65
1.48
0.91
0.23
0.04
0.43
0.35
0.01
-0.29
-0.25
-0.11
-0.21

> <PUBCHEM_SHAPE_SELFOVERLAP>
468.969

> <PUBCHEM_SHAPE_VOLUME>
135.4

> <PUBCHEM_COORDINATE_TYPE>
2
5
10

$$$$

