17396161
  -OEChem-06241222542D

 42 44  0     0  0  0  0  0  0999 V2000
    7.2619   -3.8704    0.0000 F   0  0  0  0  0  0  0  0  0  0  0  0
    6.2619   -4.8704    0.0000 F   0  0  0  0  0  0  0  0  0  0  0  0
    6.2619   -2.8704    0.0000 F   0  0  0  0  0  0  0  0  0  0  0  0
    3.6067    2.0188    0.0000 O   0  0  0  0  0  0  0  0  0  0  0  0
    3.3426   -1.5770    0.0000 O   0  0  0  0  0  0  0  0  0  0  0  0
    4.6783   -3.0657    0.0000 N   0  0  0  0  0  0  0  0  0  0  0  0
    4.6783   -4.6751    0.0000 N   0  0  0  0  0  0  0  0  0  0  0  0
    4.6318   -0.4203    0.0000 N   0  0  0  0  0  0  0  0  0  0  0  0
    3.7320   -3.3704    0.0000 C   0  0  0  0  0  0  0  0  0  0  0  0
    4.9889   -2.1151    0.0000 C   0  0  0  0  0  0  0  0  0  0  0  0
    5.2619   -3.8704    0.0000 C   0  0  0  0  0  0  0  0  0  0  0  0
    3.7320   -4.3704    0.0000 C   0  0  0  0  0  0  0  0  0  0  0  0
    2.8660   -2.8704    0.0000 C   0  0  0  0  0  0  0  0  0  0  0  0
    4.3211   -1.3708    0.0000 C   0  0  0  0  0  0  0  0  0  0  0  0
    2.8660   -4.8704    0.0000 C   0  0  0  0  0  0  0  0  0  0  0  0
    6.2619   -3.8704    0.0000 C   0  0  0  0  0  0  0  0  0  0  0  0
    3.9639    0.3240    0.0000 C   0  0  0  0  0  0  0  0  0  0  0  0
    2.0000   -3.3704    0.0000 C   0  0  0  0  0  0  0  0  0  0  0  0
    2.0000   -4.3704    0.0000 C   0  0  0  0  0  0  0  0  0  0  0  0
    4.2746    1.2745    0.0000 C   0  0  0  0  0  0  0  0  0  0  0  0
    3.9174    2.9693    0.0000 C   0  0  0  0  0  0  0  0  0  0  0  0
    4.8959    3.1756    0.0000 C   0  0  0  0  0  0  0  0  0  0  0  0
    3.2496    3.7136    0.0000 C   0  0  0  0  0  0  0  0  0  0  0  0
    5.2066    4.1261    0.0000 C   0  0  0  0  0  0  0  0  0  0  0  0
    3.5602    4.6642    0.0000 C   0  0  0  0  0  0  0  0  0  0  0  0
    4.5387    4.8704    0.0000 C   0  0  0  0  0  0  0  0  0  0  0  0
    5.5359   -2.4072    0.0000 H   0  0  0  0  0  0  0  0  0  0  0  0
    5.3715   -1.6272    0.0000 H   0  0  0  0  0  0  0  0  0  0  0  0
    2.8660   -2.2504    0.0000 H   0  0  0  0  0  0  0  0  0  0  0  0
    2.8660   -5.4904    0.0000 H   0  0  0  0  0  0  0  0  0  0  0  0
    3.4170    0.6160    0.0000 H   0  0  0  0  0  0  0  0  0  0  0  0
    3.5814   -0.1639    0.0000 H   0  0  0  0  0  0  0  0  0  0  0  0
    5.2384   -0.2924    0.0000 H   0  0  0  0  0  0  0  0  0  0  0  0
    1.4631   -3.0604    0.0000 H   0  0  0  0  0  0  0  0  0  0  0  0
    1.4631   -4.6804    0.0000 H   0  0  0  0  0  0  0  0  0  0  0  0
    4.8215    0.9825    0.0000 H   0  0  0  0  0  0  0  0  0  0  0  0
    4.6571    1.7624    0.0000 H   0  0  0  0  0  0  0  0  0  0  0  0
    5.3100    2.7141    0.0000 H   0  0  0  0  0  0  0  0  0  0  0  0
    2.6429    3.5858    0.0000 H   0  0  0  0  0  0  0  0  0  0  0  0
    5.8132    4.2539    0.0000 H   0  0  0  0  0  0  0  0  0  0  0  0
    3.1461    5.1256    0.0000 H   0  0  0  0  0  0  0  0  0  0  0  0
    4.7313    5.4597    0.0000 H   0  0  0  0  0  0  0  0  0  0  0  0
  1 16  1  0  0  0  0
  2 16  1  0  0  0  0
  3 16  1  0  0  0  0
  4 20  1  0  0  0  0
  4 21  1  0  0  0  0
  5 14  2  0  0  0  0
  6  9  1  0  0  0  0
  6 10  1  0  0  0  0
  6 11  1  0  0  0  0
  7 11  2  0  0  0  0
  7 12  1  0  0  0  0
  8 14  1  0  0  0  0
  8 17  1  0  0  0  0
  8 33  1  0  0  0  0
  9 12  1  0  0  0  0
  9 13  2  0  0  0  0
 10 14  1  0  0  0  0
 10 27  1  0  0  0  0
 10 28  1  0  0  0  0
 11 16  1  0  0  0  0
 12 15  2  0  0  0  0
 13 18  1  0  0  0  0
 13 29  1  0  0  0  0
 15 19  1  0  0  0  0
 15 30  1  0  0  0  0
 17 20  1  0  0  0  0
 17 31  1  0  0  0  0
 17 32  1  0  0  0  0
 18 19  2  0  0  0  0
 18 34  1  0  0  0  0
 19 35  1  0  0  0  0
 20 36  1  0  0  0  0
 20 37  1  0  0  0  0
 21 22  2  0  0  0  0
 21 23  1  0  0  0  0
 22 24  1  0  0  0  0
 22 38  1  0  0  0  0
 23 25  2  0  0  0  0
 23 39  1  0  0  0  0
 24 26  2  0  0  0  0
 24 40  1  0  0  0  0
 25 26  1  0  0  0  0
 25 41  1  0  0  0  0
 26 42  1  0  0  0  0
M  END
> <PUBCHEM_COMPOUND_CID>
17396161

> <PUBCHEM_COMPOUND_CANONICALIZED>
1

> <PUBCHEM_CACTVS_COMPLEXITY>
469

> <PUBCHEM_CACTVS_HBOND_ACCEPTOR>
6

> <PUBCHEM_CACTVS_HBOND_DONOR>
1

> <PUBCHEM_CACTVS_ROTATABLE_BOND>
6

> <PUBCHEM_CACTVS_SUBSKEYS>
AAADceB7MYAAAAAAAAAAAAAAAAAAAWAAAAAwYAAAAAAAAFgB9AAAHwAQAAAACAzhlxYx1rfMFACoASdydACCiC0hMqAJ2KC+fJiObqLEubuXOCjs1hPY6CeQQAAAAAAAAAAAACAAAAAAAAAAQAAAAAAAAA==

> <PUBCHEM_IUPAC_OPENEYE_NAME>
N-(2-phenoxyethyl)-2-[2-(trifluoromethyl)benzimidazol-1-yl]acetamide

> <PUBCHEM_IUPAC_CAS_NAME>
N-(2-phenoxyethyl)-2-[2-(trifluoromethyl)-1-benzimidazolyl]acetamide

> <PUBCHEM_IUPAC_NAME>
N-(2-phenoxyethyl)-2-[2-(trifluoromethyl)benzimidazol-1-yl]acetamide

> <PUBCHEM_IUPAC_SYSTEMATIC_NAME>
N-(2-phenoxyethyl)-2-[2-(trifluoromethyl)benzimidazol-1-yl]ethanamide

> <PUBCHEM_IUPAC_TRADITIONAL_NAME>
N-(2-phenoxyethyl)-2-[2-(trifluoromethyl)benzimidazol-1-yl]acetamide

> <PUBCHEM_IUPAC_INCHI>
InChI=1S/C18H16F3N3O2/c19-18(20,21)17-23-14-8-4-5-9-15(14)24(17)12-16(25)22-10-11-26-13-6-2-1-3-7-13/h1-9H,10-12H2,(H,22,25)

> <PUBCHEM_IUPAC_INCHIKEY>
VAGXLOFWICNZRY-UHFFFAOYSA-N

> <PUBCHEM_XLOGP3_AA>
3.5

> <PUBCHEM_EXACT_MASS>
363.119461

> <PUBCHEM_MOLECULAR_FORMULA>
C18H16F3N3O2

> <PUBCHEM_MOLECULAR_WEIGHT>
363.33375

> <PUBCHEM_OPENEYE_CAN_SMILES>
C1=CC=C(C=C1)OCCNC(=O)CN2C3=CC=CC=C3N=C2C(F)(F)F

> <PUBCHEM_OPENEYE_ISO_SMILES>
C1=CC=C(C=C1)OCCNC(=O)CN2C3=CC=CC=C3N=C2C(F)(F)F

> <PUBCHEM_CACTVS_TPSA>
56.2

> <PUBCHEM_MONOISOTOPIC_WEIGHT>
363.119461

> <PUBCHEM_TOTAL_CHARGE>
0

> <PUBCHEM_HEAVY_ATOM_COUNT>
26

> <PUBCHEM_ATOM_DEF_STEREO_COUNT>
0

> <PUBCHEM_ATOM_UDEF_STEREO_COUNT>
0

> <PUBCHEM_BOND_DEF_STEREO_COUNT>
0

> <PUBCHEM_BOND_UDEF_STEREO_COUNT>
0

> <PUBCHEM_ISOTOPIC_ATOM_COUNT>
0

> <PUBCHEM_COMPONENT_COUNT>
1

> <PUBCHEM_CACTVS_TAUTO_COUNT>
2

> <PUBCHEM_COORDINATE_TYPE>
1
5
255

> <PUBCHEM_BONDANNOTATIONS>
12  15  8
13  18  8
15  19  8
18  19  8
21  22  8
21  23  8
22  24  8
23  25  8
24  26  8
25  26  8
6  11  8
6  9  8
7  11  8
7  12  8
9  12  8
9  13  8

$$$$

