13206
  -OEChem-06261207533D

 14 14  0     0  0  0  0  0  0999 V2000
   -0.5113    0.7569    0.0005 O   0  0  0  0  0  0  0  0  0  0  0  0
    2.6919   -0.6472   -0.0006 O   0  5  0  0  0  0  0  0  0  0  0  0
    2.0146    1.4410    0.0000 O   0  0  0  0  0  0  0  0  0  0  0  0
    1.7519    0.2018    0.0001 N   0  3  0  0  0  0  0  0  0  0  0  0
   -1.7233    0.1424    0.0003 C   0  0  0  0  0  0  0  0  0  0  0  0
   -1.5720   -1.2248   -0.0001 C   0  0  0  0  0  0  0  0  0  0  0  0
    0.4242   -0.2288    0.0004 C   0  0  0  0  0  0  0  0  0  0  0  0
   -0.1773   -1.4659    0.0001 C   0  0  0  0  0  0  0  0  0  0  0  0
   -2.8987    1.0247   -0.0007 C   0  0  0  0  0  0  0  0  0  0  0  0
   -2.3656   -1.9582   -0.0006 H   0  0  0  0  0  0  0  0  0  0  0  0
    0.3207   -2.4252   -0.0002 H   0  0  0  0  0  0  0  0  0  0  0  0
   -2.8984    1.6664    0.8858 H   0  0  0  0  0  0  0  0  0  0  0  0
   -2.8987    1.6642   -0.8888 H   0  0  0  0  0  0  0  0  0  0  0  0
   -3.8275    0.4458    0.0002 H   0  0  0  0  0  0  0  0  0  0  0  0
  1  5  1  0  0  0  0
  1  7  1  0  0  0  0
  2  4  1  0  0  0  0
  3  4  2  0  0  0  0
  4  7  1  0  0  0  0
  5  6  2  0  0  0  0
  5  9  1  0  0  0  0
  6  8  1  0  0  0  0
  6 10  1  0  0  0  0
  7  8  2  0  0  0  0
  8 11  1  0  0  0  0
  9 12  1  0  0  0  0
  9 13  1  0  0  0  0
  9 14  1  0  0  0  0
M  CHG  2   2  -1   4   1
M  END
> <PUBCHEM_COMPOUND_CID>
13206

> <PUBCHEM_CONFORMER_RMSD>
0.4

> <PUBCHEM_CONFORMER_DIVERSEORDER>
1

> <PUBCHEM_MMFF94_PARTIAL_CHARGES>
11
1 -0.28
10 0.15
11 0.15
2 -0.52
3 -0.52
4 0.96
5 -0.04
6 -0.15
7 0.22
8 -0.15
9 0.18

> <PUBCHEM_EFFECTIVE_ROTOR_COUNT>
1

> <PUBCHEM_PHARMACOPHORE_FEATURES>
5
1 1 acceptor
1 2 acceptor
1 2 anion
1 3 acceptor
5 1 5 6 7 8 rings

> <PUBCHEM_HEAVY_ATOM_COUNT>
9

> <PUBCHEM_ATOM_DEF_STEREO_COUNT>
0

> <PUBCHEM_ATOM_UDEF_STEREO_COUNT>
0

> <PUBCHEM_BOND_DEF_STEREO_COUNT>
0

> <PUBCHEM_BOND_UDEF_STEREO_COUNT>
0

> <PUBCHEM_ISOTOPIC_ATOM_COUNT>
0

> <PUBCHEM_COMPONENT_COUNT>
1

> <PUBCHEM_CACTVS_TAUTO_COUNT>
1

> <PUBCHEM_CONFORMER_ID>
0000339600000001

> <PUBCHEM_MMFF94_ENERGY>
10.5629

> <PUBCHEM_FEATURE_SELFOVERLAP>
25.464

> <PUBCHEM_SHAPE_FINGERPRINT>
14325111 11 18410573985431123425
14390081 3 18335141955663371753
19973954 147 18338796697912136708
21040471 1 18410573989631132195
23552423 10 18272089340535073518
369184 2 18335139743733946379
5084963 1 18260551129816122571

> <PUBCHEM_SHAPE_MULTIPOLES>
162.63
3.65
1.45
0.57
0.4
0.12
0
-1.1
0
-0.12
0
-0.07
0.02
0

> <PUBCHEM_SHAPE_SELFOVERLAP>
336.937

> <PUBCHEM_SHAPE_VOLUME>
94.7

> <PUBCHEM_COORDINATE_TYPE>
2
5
10

$$$$

