17395857
  -OEChem-06241222523D

 37 40  0     1  0  0  0  0  0999 V2000
   -4.5722    0.1519   -1.8175 S   0  0  0  0  0  0  0  0  0  0  0  0
    3.2511   -1.4769   -0.7079 O   0  0  0  0  0  0  0  0  0  0  0  0
    1.6598   -2.9674    0.0465 O   0  0  0  0  0  0  0  0  0  0  0  0
   -0.8175   -0.3777    0.5185 N   0  0  2  0  0  0  0  0  0  0  0  0
    1.5160   -0.6952    0.5912 N   0  0  0  0  0  0  0  0  0  0  0  0
   -1.9070    0.3752    1.1935 C   0  0  1  0  0  0  0  0  0  0  0  0
   -1.2774   -1.6242   -0.1226 C   0  0  0  0  0  0  0  0  0  0  0  0
   -3.0443    0.5630    0.2153 C   0  0  0  0  0  0  0  0  0  0  0  0
   -2.2585   -1.3358   -1.2742 C   0  0  0  0  0  0  0  0  0  0  0  0
    0.3285   -0.6265    1.3884 C   0  0  0  0  0  0  0  0  0  0  0  0
   -3.2050   -0.2476   -0.8906 C   0  0  0  0  0  0  0  0  0  0  0  0
   -2.4182   -0.2460    2.5029 C   0  0  0  0  0  0  0  0  0  0  0  0
   -4.0796    1.5461    0.2850 C   0  0  0  0  0  0  0  0  0  0  0  0
    2.3198    0.3855    0.2758 C   0  0  0  0  0  0  0  0  0  0  0  0
   -4.9774    1.4326   -0.7550 C   0  0  0  0  0  0  0  0  0  0  0  0
    2.0812   -1.8182   -0.0041 C   0  0  0  0  0  0  0  0  0  0  0  0
    3.3481   -0.1091   -0.5003 C   0  0  0  0  0  0  0  0  0  0  0  0
    2.2219    1.7211    0.6056 C   0  0  0  0  0  0  0  0  0  0  0  0
    4.3422    0.7098   -0.9928 C   0  0  0  0  0  0  0  0  0  0  0  0
    3.2185    2.5704    0.1174 C   0  0  0  0  0  0  0  0  0  0  0  0
    4.2700    2.0691   -0.6751 C   0  0  0  0  0  0  0  0  0  0  0  0
   -1.5147    1.3747    1.4264 H   0  0  0  0  0  0  0  0  0  0  0  0
   -1.7481   -2.2886    0.6129 H   0  0  0  0  0  0  0  0  0  0  0  0
   -0.4598   -2.1864   -0.5734 H   0  0  0  0  0  0  0  0  0  0  0  0
   -2.7981   -2.2536   -1.5341 H   0  0  0  0  0  0  0  0  0  0  0  0
   -1.6946   -1.0161   -2.1598 H   0  0  0  0  0  0  0  0  0  0  0  0
    0.4627    0.1691    2.1305 H   0  0  0  0  0  0  0  0  0  0  0  0
    0.2131   -1.5664    1.9430 H   0  0  0  0  0  0  0  0  0  0  0  0
   -2.8601   -1.2352    2.3424 H   0  0  0  0  0  0  0  0  0  0  0  0
   -1.6194   -0.3452    3.2444 H   0  0  0  0  0  0  0  0  0  0  0  0
   -3.1955    0.3840    2.9509 H   0  0  0  0  0  0  0  0  0  0  0  0
   -4.1659    2.2945    1.0624 H   0  0  0  0  0  0  0  0  0  0  0  0
   -5.8509    2.0412   -0.9414 H   0  0  0  0  0  0  0  0  0  0  0  0
    1.4141    2.1140    1.2113 H   0  0  0  0  0  0  0  0  0  0  0  0
    5.1498    0.3215   -1.6023 H   0  0  0  0  0  0  0  0  0  0  0  0
    3.1837    3.6315    0.3499 H   0  0  0  0  0  0  0  0  0  0  0  0
    5.0332    2.7497   -1.0432 H   0  0  0  0  0  0  0  0  0  0  0  0
  1 11  1  0  0  0  0
  1 15  1  0  0  0  0
  2 16  1  0  0  0  0
  2 17  1  0  0  0  0
  3 16  2  0  0  0  0
  4  6  1  0  0  0  0
  4  7  1  0  0  0  0
  4 10  1  0  0  0  0
  5 10  1  0  0  0  0
  5 14  1  0  0  0  0
  5 16  1  0  0  0  0
  6  8  1  0  0  0  0
  6 12  1  0  0  0  0
  6 22  1  0  0  0  0
  7  9  1  0  0  0  0
  7 23  1  0  0  0  0
  7 24  1  0  0  0  0
  8 11  2  0  0  0  0
  8 13  1  0  0  0  0
  9 11  1  0  0  0  0
  9 25  1  0  0  0  0
  9 26  1  0  0  0  0
 10 27  1  0  0  0  0
 10 28  1  0  0  0  0
 12 29  1  0  0  0  0
 12 30  1  0  0  0  0
 12 31  1  0  0  0  0
 13 15  2  0  0  0  0
 13 32  1  0  0  0  0
 14 17  1  0  0  0  0
 14 18  2  0  0  0  0
 15 33  1  0  0  0  0
 17 19  2  0  0  0  0
 18 20  1  0  0  0  0
 18 34  1  0  0  0  0
 19 21  1  0  0  0  0
 19 35  1  0  0  0  0
 20 21  2  0  0  0  0
 20 36  1  0  0  0  0
 21 37  1  0  0  0  0
M  END
> <PUBCHEM_COMPOUND_CID>
17395857

> <PUBCHEM_CONFORMER_RMSD>
0.6

> <PUBCHEM_CONFORMER_DIVERSEORDER>
1
16
13
29
40
3
31
39
18
34
35
30
26
27
6
44
28
10
45
8
43
41
36
21
19
38
24
4
42
9
37
7
33
14
23
11
5
20
12
2
32
25
22
17
15

> <PUBCHEM_MMFF94_PARTIAL_CHARGES>
26
1 -0.08
10 0.57
11 -0.14
13 -0.15
14 0.12
15 -0.11
16 0.78
17 0.08
18 -0.15
19 -0.15
2 -0.23
20 -0.15
21 -0.15
3 -0.57
32 0.15
33 0.15
34 0.15
35 0.15
36 0.15
37 0.15
4 -0.81
5 -0.48
6 0.45
7 0.27
8 -0.18
9 0.18

> <PUBCHEM_EFFECTIVE_ROTOR_COUNT>
2.8

> <PUBCHEM_PHARMACOPHORE_FEATURES>
6
1 3 acceptor
1 4 cation
5 1 8 11 13 15 rings
5 2 5 14 16 17 rings
6 14 17 18 19 20 21 rings
6 4 6 7 8 9 11 rings

> <PUBCHEM_HEAVY_ATOM_COUNT>
21

> <PUBCHEM_ATOM_DEF_STEREO_COUNT>
0

> <PUBCHEM_ATOM_UDEF_STEREO_COUNT>
1

> <PUBCHEM_BOND_DEF_STEREO_COUNT>
0

> <PUBCHEM_BOND_UDEF_STEREO_COUNT>
0

> <PUBCHEM_ISOTOPIC_ATOM_COUNT>
0

> <PUBCHEM_COMPONENT_COUNT>
1

> <PUBCHEM_CACTVS_TAUTO_COUNT>
1

> <PUBCHEM_CONFORMER_ID>
0109709100000001

> <PUBCHEM_MMFF94_ENERGY>
53.9169

> <PUBCHEM_FEATURE_SELFOVERLAP>
30.618

> <PUBCHEM_SHAPE_FINGERPRINT>
10498660 4 18339364067344831197
11543360 7 18408895031550003975
11796584 16 13769582765636495964
12553582 1 16226044470861173339
12596602 18 13254790239894593556
12670546 177 18041001734861907093
12730499 353 18343575248719351971
12788726 201 17168415082312143721
12892183 10 12103577355145776166
13004483 165 17692548019066432306
13103583 49 10663285356725527188
13134695 92 18199188571835221306
14178342 30 15913318062084540763
14251764 30 10663003903693807560
14468879 13 18131070411720866657
14848178 96 18341897346688962724
15210252 30 18202561770172229748
16752209 62 16370727067077001099
18186145 218 17774444992162378755
193927 3 5833711322366430565
19862831 5 17821446846032316753
20645476 183 18187089455498937887
20645477 70 18410287055793446206
22079108 93 17632573864786054257
22393880 68 18187646852022319412
22907989 373 17386280987767658837
231179 274 18060137618178477568
23227448 37 18270399387047367933
23402655 69 18334572438958207908
23557571 272 17203311296101379699
23559900 14 15864364544430169673
23598291 2 17822842216693345818
238 59 18408603639066571586
25 1 18342171163923074586
3082319 5 17967814937728407443
341906 21 15626225749371773709
4028521 119 18413109433359225477
474 4 18130791118223753388
543358 83 18335418031971504468
5486654 36 8357720510857670876
633830 44 18057611060991044329
7471813 234 18117564139913542210
7808743 9 16486677087833218932
9981440 41 18195259814630011210

> <PUBCHEM_SHAPE_MULTIPOLES>
414.32
9.89
2.38
1.58
1.95
0.26
0.51
-5.41
-4.16
-2.05
-0.19
1.57
0.1
-0.11

> <PUBCHEM_SHAPE_SELFOVERLAP>
899.919

> <PUBCHEM_SHAPE_VOLUME>
230.4

> <PUBCHEM_COORDINATE_TYPE>
2
5
10

$$$$

