12951
  -OEChem-06261207353D

 43 45  0     1  0  0  0  0  0999 V2000
    2.9047    1.2966   -0.7741 S   0  0  1  0  0  0  0  0  0  0  0  0
    3.8462    1.1675   -1.9355 O   0  0  0  0  0  0  0  0  0  0  0  0
   -4.5833   -0.9466   -0.3235 N   0  0  0  0  0  0  0  0  0  0  0  0
    0.1491   -0.4632    0.0825 C   0  0  0  0  0  0  0  0  0  0  0  0
   -0.2165    0.9227    0.4316 C   0  0  0  0  0  0  0  0  0  0  0  0
    1.5104   -1.0437    0.2294 C   0  0  0  0  0  0  0  0  0  0  0  0
    0.3088    1.9820   -0.3250 C   0  0  0  0  0  0  0  0  0  0  0  0
    1.2772    1.7005   -1.4365 C   0  0  0  0  0  0  0  0  0  0  0  0
    2.7142   -0.3940   -0.1245 C   0  0  0  0  0  0  0  0  0  0  0  0
   -2.1926   -0.6721   -0.7897 C   0  0  0  0  0  0  0  0  0  0  0  0
   -0.8223   -1.1946   -0.4998 C   0  0  0  0  0  0  0  0  0  0  0  0
   -3.2548   -1.4809   -0.0460 C   0  0  0  0  0  0  0  0  0  0  0  0
   -1.0910    1.1893    1.4950 C   0  0  0  0  0  0  0  0  0  0  0  0
   -0.0469    3.2988   -0.0019 C   0  0  0  0  0  0  0  0  0  0  0  0
    1.5915   -2.3365    0.8005 C   0  0  0  0  0  0  0  0  0  0  0  0
    3.9371   -1.0696    0.0844 C   0  0  0  0  0  0  0  0  0  0  0  0
   -1.4404    2.5036    1.8032 C   0  0  0  0  0  0  0  0  0  0  0  0
   -0.9197    3.5569    1.0553 C   0  0  0  0  0  0  0  0  0  0  0  0
    2.8105   -2.9854    0.9910 C   0  0  0  0  0  0  0  0  0  0  0  0
    3.9863   -2.3518    0.6275 C   0  0  0  0  0  0  0  0  0  0  0  0
   -5.6031   -1.6924    0.4156 C   0  0  0  0  0  0  0  0  0  0  0  0
   -4.8652   -0.9870   -1.7594 C   0  0  0  0  0  0  0  0  0  0  0  0
    0.9269    0.9077   -2.1058 H   0  0  0  0  0  0  0  0  0  0  0  0
    1.3993    2.5924   -2.0618 H   0  0  0  0  0  0  0  0  0  0  0  0
   -2.3060   -0.8084   -1.8731 H   0  0  0  0  0  0  0  0  0  0  0  0
   -2.3445    0.3971   -0.6278 H   0  0  0  0  0  0  0  0  0  0  0  0
   -0.6243   -2.2097   -0.8389 H   0  0  0  0  0  0  0  0  0  0  0  0
   -3.1873   -2.5418   -0.3239 H   0  0  0  0  0  0  0  0  0  0  0  0
   -3.0573   -1.4182    1.0318 H   0  0  0  0  0  0  0  0  0  0  0  0
   -1.5008    0.3806    2.0954 H   0  0  0  0  0  0  0  0  0  0  0  0
    0.3575    4.1333   -0.5693 H   0  0  0  0  0  0  0  0  0  0  0  0
    0.6907   -2.8606    1.1176 H   0  0  0  0  0  0  0  0  0  0  0  0
    4.8829   -0.5925   -0.1682 H   0  0  0  0  0  0  0  0  0  0  0  0
   -2.1172    2.7058    2.6283 H   0  0  0  0  0  0  0  0  0  0  0  0
   -1.1898    4.5806    1.2979 H   0  0  0  0  0  0  0  0  0  0  0  0
    2.8363   -3.9790    1.4278 H   0  0  0  0  0  0  0  0  0  0  0  0
    4.9424   -2.8444    0.7760 H   0  0  0  0  0  0  0  0  0  0  0  0
   -5.4121   -1.6410    1.4933 H   0  0  0  0  0  0  0  0  0  0  0  0
   -5.6387   -2.7477    0.1210 H   0  0  0  0  0  0  0  0  0  0  0  0
   -6.5944   -1.2547    0.2535 H   0  0  0  0  0  0  0  0  0  0  0  0
   -5.9147   -0.7290   -1.9483 H   0  0  0  0  0  0  0  0  0  0  0  0
   -4.6845   -1.9764   -2.1950 H   0  0  0  0  0  0  0  0  0  0  0  0
   -4.2898   -0.2370   -2.3107 H   0  0  0  0  0  0  0  0  0  0  0  0
  1  2  2  0  0  0  0
  1  8  1  0  0  0  0
  1  9  1  0  0  0  0
  3 12  1  0  0  0  0
  3 21  1  0  0  0  0
  3 22  1  0  0  0  0
  4  5  1  0  0  0  0
  4  6  1  0  0  0  0
  4 11  2  0  0  0  0
  5  7  1  0  0  0  0
  5 13  2  0  0  0  0
  6  9  1  0  0  0  0
  6 15  2  0  0  0  0
  7  8  1  0  0  0  0
  7 14  2  0  0  0  0
  8 23  1  0  0  0  0
  8 24  1  0  0  0  0
  9 16  2  0  0  0  0
 10 11  1  0  0  0  0
 10 12  1  0  0  0  0
 10 25  1  0  0  0  0
 10 26  1  0  0  0  0
 11 27  1  0  0  0  0
 12 28  1  0  0  0  0
 12 29  1  0  0  0  0
 13 17  1  0  0  0  0
 13 30  1  0  0  0  0
 14 18  1  0  0  0  0
 14 31  1  0  0  0  0
 15 19  1  0  0  0  0
 15 32  1  0  0  0  0
 16 20  1  0  0  0  0
 16 33  1  0  0  0  0
 17 18  2  0  0  0  0
 17 34  1  0  0  0  0
 18 35  1  0  0  0  0
 19 20  2  0  0  0  0
 19 36  1  0  0  0  0
 20 37  1  0  0  0  0
 21 38  1  0  0  0  0
 21 39  1  0  0  0  0
 21 40  1  0  0  0  0
 22 41  1  0  0  0  0
 22 42  1  0  0  0  0
 22 43  1  0  0  0  0
M  END
> <PUBCHEM_COMPOUND_CID>
12951

> <PUBCHEM_CONFORMER_RMSD>
0.6

> <PUBCHEM_CONFORMER_DIVERSEORDER>
3
7
35
33
38
18
28
32
29
34
13
15
39
6
4
10
17
20
27
8
16
19
24
21
30
5
2
11
40
23
1
12
25
31
37
36
26
9
14
22

> <PUBCHEM_MMFF94_PARTIAL_CHARGES>
31
1 0.24
10 0.14
11 -0.29
12 0.27
13 -0.15
14 -0.15
15 -0.15
16 -0.15
17 -0.15
18 -0.15
19 -0.15
2 -0.5
20 -0.15
21 0.27
22 0.27
27 0.15
3 -0.81
30 0.15
31 0.15
32 0.15
33 0.15
34 0.15
35 0.15
36 0.15
37 0.15
4 -0.06
5 0.03
6 0.03
7 -0.14
8 0.34
9 0.06

> <PUBCHEM_EFFECTIVE_ROTOR_COUNT>
3.2

> <PUBCHEM_PHARMACOPHORE_FEATURES>
5
1 2 acceptor
1 3 cation
6 5 7 13 14 17 18 rings
6 6 9 15 16 19 20 rings
7 1 4 5 6 7 8 9 rings

> <PUBCHEM_HEAVY_ATOM_COUNT>
22

> <PUBCHEM_ATOM_DEF_STEREO_COUNT>
0

> <PUBCHEM_ATOM_UDEF_STEREO_COUNT>
0

> <PUBCHEM_BOND_DEF_STEREO_COUNT>
0

> <PUBCHEM_BOND_UDEF_STEREO_COUNT>
1

> <PUBCHEM_ISOTOPIC_ATOM_COUNT>
0

> <PUBCHEM_COMPONENT_COUNT>
1

> <PUBCHEM_CACTVS_TAUTO_COUNT>
1

> <PUBCHEM_CONFORMER_ID>
0000329700000003

> <PUBCHEM_MMFF94_ENERGY>
77.1769

> <PUBCHEM_FEATURE_SELFOVERLAP>
25.383

> <PUBCHEM_SHAPE_FINGERPRINT>
10165383 225 17696182617944140957
11135609 187 18057595483024012132
11265709 11 18408325505590364827
11578080 2 18189922926628028896
12035759 4 18339065064785823452
12293681 160 17904178366194609396
12553582 1 18187085023024135975
12788726 201 18260818319636648089
13004483 165 18264505025312046835
13009979 54 18264486359447313002
13134695 92 18262537909147542565
13140716 1 18264211472966180769
13540713 5 18197483220763152364
13911987 19 17770757054027448828
14178342 30 18050583029769159162
14251757 17 17488203636566046759
15309172 13 17256248675216925408
17980427 26 17756725039236202293
1813 80 18040715857543743959
19078846 21 18113611262731406379
20600515 1 17023475148608883179
21041028 32 18408608080294766639
22112679 90 18188758539534421049
23419403 2 17975736949314358932
23558518 356 18050840310614797011
25147074 1 18268978938504937532
266924 1 18339348747560268932
266924 78 17270563951106098708
312423 11 18338505460828378566
345986 75 18334299785875790195
34934 24 17970067729953883996
394222 165 17129869318683490536
46194498 28 17345755171137952975
6442390 28 17043167165987114811
6992083 37 17836927068325157416
7164475 11 18335983189643708518
7471813 234 18335433360572718439
81228 2 18123758822320362675

> <PUBCHEM_SHAPE_MULTIPOLES>
445.75
8.23
3.98
1.47
7.99
2.27
0.16
-7.75
1.89
-0.56
-1.37
0.21
0.62
-2.31

> <PUBCHEM_SHAPE_SELFOVERLAP>
939.814

> <PUBCHEM_SHAPE_VOLUME>
250.9

> <PUBCHEM_COORDINATE_TYPE>
2
5
10

$$$$

