14213
  -OEChem-06241222422D

 16 13  0     0  0  0  0  0  0999 V2000
    3.0739    1.5000    0.0000 O   0  5  0  0  0  0  0  0  0  0  0  0
    5.6720    1.0000    0.0000 O   0  5  0  0  0  0  0  0  0  0  0  0
    3.9399    0.0000    0.0000 O   0  0  0  0  0  0  0  0  0  0  0  0
    4.8059    2.5000    0.0000 O   0  0  0  0  0  0  0  0  0  0  0  0
    0.5369    2.7869    0.0000 N   0  3  0  0  0  0  0  0  0  0  0  0
    4.3729    5.0369    0.0000 N   0  3  0  0  0  0  0  0  0  0  0  0
    3.9399    1.0000    0.0000 C   0  0  0  0  0  0  0  0  0  0  0  0
    4.8059    1.5000    0.0000 C   0  0  0  0  0  0  0  0  0  0  0  0
    1.0739    3.0969    0.0000 H   0  0  0  0  0  0  0  0  0  0  0  0
    0.0000    2.4769    0.0000 H   0  0  0  0  0  0  0  0  0  0  0  0
    0.2269    3.3239    0.0000 H   0  0  0  0  0  0  0  0  0  0  0  0
    0.8469    2.2500    0.0000 H   0  0  0  0  0  0  0  0  0  0  0  0
    4.9098    5.3469    0.0000 H   0  0  0  0  0  0  0  0  0  0  0  0
    3.8360    4.7269    0.0000 H   0  0  0  0  0  0  0  0  0  0  0  0
    4.0629    5.5739    0.0000 H   0  0  0  0  0  0  0  0  0  0  0  0
    4.6829    4.5000    0.0000 H   0  0  0  0  0  0  0  0  0  0  0  0
  1  7  1  0  0  0  0
  2  8  1  0  0  0  0
  3  7  2  0  0  0  0
  4  8  2  0  0  0  0
  5  9  1  0  0  0  0
  5 10  1  0  0  0  0
  5 11  1  0  0  0  0
  5 12  1  0  0  0  0
  6 13  1  0  0  0  0
  6 14  1  0  0  0  0
  6 15  1  0  0  0  0
  6 16  1  0  0  0  0
  7  8  1  0  0  0  0
M  CHG  4   1  -1   2  -1   5   1   6   1
M  END
> <PUBCHEM_COMPOUND_CID>
14213

> <PUBCHEM_COMPOUND_CANONICALIZED>
1

> <PUBCHEM_CACTVS_COMPLEXITY>
60.5

> <PUBCHEM_CACTVS_HBOND_ACCEPTOR>
4

> <PUBCHEM_CACTVS_HBOND_DONOR>
2

> <PUBCHEM_CACTVS_ROTATABLE_BOND>
0

> <PUBCHEM_CACTVS_SUBSKEYS>
AAADccBDOAAAAAAAAAAAAAAAAAAAAAAAAAAAAAAAAAAAAAAAAAAACgAQAAAAAAAAgAAACAAAAAAIAACQCAIAAAAAAAAAAABAAAABAAAAAAAAAAAAAAAAAAAAAAAAAAAAAAAAAAAAAAAAAAAAAAAAAAAAAA==

> <PUBCHEM_IUPAC_OPENEYE_NAME>
diammonium oxalate

> <PUBCHEM_IUPAC_CAS_NAME>
diammonium oxalate

> <PUBCHEM_IUPAC_NAME>
diazanium oxalate

> <PUBCHEM_IUPAC_SYSTEMATIC_NAME>
diazanium ethanedioate

> <PUBCHEM_IUPAC_TRADITIONAL_NAME>
diammonium oxalate

> <PUBCHEM_IUPAC_INCHI>
InChI=1S/C2H2O4.2H3N/c3-1(4)2(5)6;;/h(H,3,4)(H,5,6);2*1H3

> <PUBCHEM_IUPAC_INCHIKEY>
VBIXEXWLHSRNKB-UHFFFAOYSA-N

> <PUBCHEM_EXACT_MASS>
124.048407

> <PUBCHEM_MOLECULAR_FORMULA>
C2H8N2O4

> <PUBCHEM_MOLECULAR_WEIGHT>
124.09592

> <PUBCHEM_OPENEYE_CAN_SMILES>
C(=O)(C(=O)[O-])[O-].[NH4+].[NH4+]

> <PUBCHEM_OPENEYE_ISO_SMILES>
C(=O)(C(=O)[O-])[O-].[NH4+].[NH4+]

> <PUBCHEM_CACTVS_TPSA>
82.3

> <PUBCHEM_MONOISOTOPIC_WEIGHT>
124.048407

> <PUBCHEM_TOTAL_CHARGE>
0

> <PUBCHEM_HEAVY_ATOM_COUNT>
8

> <PUBCHEM_ATOM_DEF_STEREO_COUNT>
0

> <PUBCHEM_ATOM_UDEF_STEREO_COUNT>
0

> <PUBCHEM_BOND_DEF_STEREO_COUNT>
0

> <PUBCHEM_BOND_UDEF_STEREO_COUNT>
0

> <PUBCHEM_ISOTOPIC_ATOM_COUNT>
0

> <PUBCHEM_COMPONENT_COUNT>
3

> <PUBCHEM_CACTVS_TAUTO_COUNT>
1

> <PUBCHEM_COORDINATE_TYPE>
1
5
255

$$$$

