17395794
  -OEChem-06241222522D

 38 39  0     0  0  0  0  0  0999 V2000
    4.5981    0.1488    0.0000 O   0  0  0  0  0  0  0  0  0  0  0  0
    2.8660   -0.8512    0.0000 O   0  0  0  0  0  0  0  0  0  0  0  0
    5.4641    3.6488    0.0000 O   0  0  0  0  0  0  0  0  0  0  0  0
    4.5981    2.1488    0.0000 O   0  0  0  0  0  0  0  0  0  0  0  0
    8.1097    3.2420    0.0000 N   0  0  0  0  0  0  0  0  0  0  0  0
    6.3301    2.1488    0.0000 N   0  0  0  0  0  0  0  0  0  0  0  0
    4.5981   -4.8512    0.0000 N   0  0  0  0  0  0  0  0  0  0  0  0
    7.1962    3.6488    0.0000 C   0  0  0  0  0  0  0  0  0  0  0  0
    7.3007    4.6433    0.0000 C   0  0  0  0  0  0  0  0  0  0  0  0
    8.7788    3.9852    0.0000 C   0  0  0  0  0  0  0  0  0  0  0  0
    6.3301    3.1488    0.0000 C   0  0  0  0  0  0  0  0  0  0  0  0
    8.2788    4.8512    0.0000 C   0  0  0  0  0  0  0  0  0  0  0  0
    8.3176    2.2639    0.0000 C   0  0  0  0  0  0  0  0  0  0  0  0
    4.5981   -0.8512    0.0000 C   0  0  0  0  0  0  0  0  0  0  0  0
    5.4641    0.6488    0.0000 C   0  0  0  0  0  0  0  0  0  0  0  0
    3.7320   -1.3512    0.0000 C   0  0  0  0  0  0  0  0  0  0  0  0
    5.4641    1.6488    0.0000 C   0  0  0  0  0  0  0  0  0  0  0  0
    5.4641   -1.3512    0.0000 C   0  0  0  0  0  0  0  0  0  0  0  0
    3.7320   -2.3512    0.0000 C   0  0  0  0  0  0  0  0  0  0  0  0
    4.5981   -2.8512    0.0000 C   0  0  0  0  0  0  0  0  0  0  0  0
    5.4641   -2.3512    0.0000 C   0  0  0  0  0  0  0  0  0  0  0  0
    2.0000   -1.3512    0.0000 C   0  0  0  0  0  0  0  0  0  0  0  0
    4.5981   -3.8512    0.0000 C   0  0  0  0  0  0  0  0  0  0  0  0
    6.8399    5.0582    0.0000 H   0  0  0  0  0  0  0  0  0  0  0  0
    9.3954    3.9204    0.0000 H   0  0  0  0  0  0  0  0  0  0  0  0
    8.5310    5.4176    0.0000 H   0  0  0  0  0  0  0  0  0  0  0  0
    7.7112    2.1350    0.0000 H   0  0  0  0  0  0  0  0  0  0  0  0
    8.4465    1.6574    0.0000 H   0  0  0  0  0  0  0  0  0  0  0  0
    8.9241    2.3928    0.0000 H   0  0  0  0  0  0  0  0  0  0  0  0
    5.6762    0.0662    0.0000 H   0  0  0  0  0  0  0  0  0  0  0  0
    6.0747    0.7564    0.0000 H   0  0  0  0  0  0  0  0  0  0  0  0
    6.8671    1.8388    0.0000 H   0  0  0  0  0  0  0  0  0  0  0  0
    6.0010   -1.0412    0.0000 H   0  0  0  0  0  0  0  0  0  0  0  0
    3.1951   -2.6612    0.0000 H   0  0  0  0  0  0  0  0  0  0  0  0
    6.0010   -2.6612    0.0000 H   0  0  0  0  0  0  0  0  0  0  0  0
    1.6900   -0.8143    0.0000 H   0  0  0  0  0  0  0  0  0  0  0  0
    1.4631   -1.6612    0.0000 H   0  0  0  0  0  0  0  0  0  0  0  0
    2.3100   -1.8882    0.0000 H   0  0  0  0  0  0  0  0  0  0  0  0
  1 14  1  0  0  0  0
  1 15  1  0  0  0  0
  2 16  1  0  0  0  0
  2 22  1  0  0  0  0
  3 11  2  0  0  0  0
  4 17  2  0  0  0  0
  5  8  1  0  0  0  0
  5 10  1  0  0  0  0
  5 13  1  0  0  0  0
  6 11  1  0  0  0  0
  6 17  1  0  0  0  0
  6 32  1  0  0  0  0
  7 23  3  0  0  0  0
  8  9  2  0  0  0  0
  8 11  1  0  0  0  0
  9 12  1  0  0  0  0
  9 24  1  0  0  0  0
 10 12  2  0  0  0  0
 10 25  1  0  0  0  0
 12 26  1  0  0  0  0
 13 27  1  0  0  0  0
 13 28  1  0  0  0  0
 13 29  1  0  0  0  0
 14 16  2  0  0  0  0
 14 18  1  0  0  0  0
 15 17  1  0  0  0  0
 15 30  1  0  0  0  0
 15 31  1  0  0  0  0
 16 19  1  0  0  0  0
 18 21  2  0  0  0  0
 18 33  1  0  0  0  0
 19 20  2  0  0  0  0
 19 34  1  0  0  0  0
 20 21  1  0  0  0  0
 20 23  1  0  0  0  0
 21 35  1  0  0  0  0
 22 36  1  0  0  0  0
 22 37  1  0  0  0  0
 22 38  1  0  0  0  0
M  END
> <PUBCHEM_COMPOUND_CID>
17395794

> <PUBCHEM_COMPOUND_CANONICALIZED>
1

> <PUBCHEM_CACTVS_COMPLEXITY>
487

> <PUBCHEM_CACTVS_HBOND_ACCEPTOR>
5

> <PUBCHEM_CACTVS_HBOND_DONOR>
1

> <PUBCHEM_CACTVS_ROTATABLE_BOND>
5

> <PUBCHEM_CACTVS_SUBSKEYS>
AAADccB7OAAAAAAAAAAAAAAAAAAAAWAAAAAwAAAAAAAAAAABwAAAHgAQAAAADAzhngY+hpPMFAC4BzV3VAKiiCA3IiAI2CH+7NgP5vLEtb+XOSrk1DHa6Y+YwRAOIAABAAAAQABAAAIAAACAAAAAAAAAAA==

> <PUBCHEM_IUPAC_OPENEYE_NAME>
N-[2-(4-cyano-2-methoxy-phenoxy)acetyl]-1-methyl-pyrrole-2-carboxamide

> <PUBCHEM_IUPAC_CAS_NAME>
N-[2-(4-cyano-2-methoxyphenoxy)-1-oxoethyl]-1-methyl-2-pyrrolecarboxamide

> <PUBCHEM_IUPAC_NAME>
N-[2-(4-cyano-2-methoxyphenoxy)acetyl]-1-methylpyrrole-2-carboxamide

> <PUBCHEM_IUPAC_SYSTEMATIC_NAME>
N-[2-(4-cyano-2-methoxy-phenoxy)ethanoyl]-1-methyl-pyrrole-2-carboxamide

> <PUBCHEM_IUPAC_TRADITIONAL_NAME>
N-[2-(4-cyano-2-methoxy-phenoxy)acetyl]-1-methyl-pyrrole-2-carboxamide

> <PUBCHEM_IUPAC_INCHI>
InChI=1S/C16H15N3O4/c1-19-7-3-4-12(19)16(21)18-15(20)10-23-13-6-5-11(9-17)8-14(13)22-2/h3-8H,10H2,1-2H3,(H,18,20,21)

> <PUBCHEM_IUPAC_INCHIKEY>
RSAKCYIWTNRURP-UHFFFAOYSA-N

> <PUBCHEM_XLOGP3_AA>
1.4

> <PUBCHEM_EXACT_MASS>
313.106256

> <PUBCHEM_MOLECULAR_FORMULA>
C16H15N3O4

> <PUBCHEM_MOLECULAR_WEIGHT>
313.308

> <PUBCHEM_OPENEYE_CAN_SMILES>
CN1C=CC=C1C(=O)NC(=O)COC2=C(C=C(C=C2)C#N)OC

> <PUBCHEM_OPENEYE_ISO_SMILES>
CN1C=CC=C1C(=O)NC(=O)COC2=C(C=C(C=C2)C#N)OC

> <PUBCHEM_CACTVS_TPSA>
93.4

> <PUBCHEM_MONOISOTOPIC_WEIGHT>
313.106256

> <PUBCHEM_TOTAL_CHARGE>
0

> <PUBCHEM_HEAVY_ATOM_COUNT>
23

> <PUBCHEM_ATOM_DEF_STEREO_COUNT>
0

> <PUBCHEM_ATOM_UDEF_STEREO_COUNT>
0

> <PUBCHEM_BOND_DEF_STEREO_COUNT>
0

> <PUBCHEM_BOND_UDEF_STEREO_COUNT>
0

> <PUBCHEM_ISOTOPIC_ATOM_COUNT>
0

> <PUBCHEM_COMPONENT_COUNT>
1

> <PUBCHEM_CACTVS_TAUTO_COUNT>
3

> <PUBCHEM_COORDINATE_TYPE>
1
5
255

> <PUBCHEM_BONDANNOTATIONS>
10  12  8
14  16  8
14  18  8
16  19  8
18  21  8
19  20  8
20  21  8
5  10  8
5  8  8
8  9  8
9  12  8

$$$$

