10139
  -OEChem-06261204202D

 28 29  0     0  0  0  0  0  0999 V2000
    2.0000    2.0000    0.0000 Cl  0  0  0  0  0  0  0  0  0  0  0  0
    3.3660    2.3660    0.0000 Cl  0  0  0  0  0  0  0  0  0  0  0  0
    2.3660    0.6340    0.0000 Cl  0  0  0  0  0  0  0  0  0  0  0  0
    7.1962    3.0000    0.0000 F   0  0  0  0  0  0  0  0  0  0  0  0
    3.7320   -3.0000    0.0000 F   0  0  0  0  0  0  0  0  0  0  0  0
    3.7320    1.0000    0.0000 C   0  0  0  0  0  0  0  0  0  0  0  0
    3.7320    0.0000    0.0000 C   0  0  0  0  0  0  0  0  0  0  0  0
    4.5981    1.5000    0.0000 C   0  0  0  0  0  0  0  0  0  0  0  0
    2.8660    1.5000    0.0000 C   0  0  0  0  0  0  0  0  0  0  0  0
    4.5981    2.5000    0.0000 C   0  0  0  0  0  0  0  0  0  0  0  0
    2.8660   -0.5000    0.0000 C   0  0  0  0  0  0  0  0  0  0  0  0
    5.4641    1.0000    0.0000 C   0  0  0  0  0  0  0  0  0  0  0  0
    4.5981   -0.5000    0.0000 C   0  0  0  0  0  0  0  0  0  0  0  0
    2.8660   -1.5000    0.0000 C   0  0  0  0  0  0  0  0  0  0  0  0
    5.4641    3.0000    0.0000 C   0  0  0  0  0  0  0  0  0  0  0  0
    4.5981   -1.5000    0.0000 C   0  0  0  0  0  0  0  0  0  0  0  0
    6.3301    1.5000    0.0000 C   0  0  0  0  0  0  0  0  0  0  0  0
    3.7320   -2.0000    0.0000 C   0  0  0  0  0  0  0  0  0  0  0  0
    6.3301    2.5000    0.0000 C   0  0  0  0  0  0  0  0  0  0  0  0
    3.7320    1.6200    0.0000 H   0  0  0  0  0  0  0  0  0  0  0  0
    2.3291   -0.1900    0.0000 H   0  0  0  0  0  0  0  0  0  0  0  0
    4.0611    2.8100    0.0000 H   0  0  0  0  0  0  0  0  0  0  0  0
    5.1350   -0.1900    0.0000 H   0  0  0  0  0  0  0  0  0  0  0  0
    5.4641    0.3800    0.0000 H   0  0  0  0  0  0  0  0  0  0  0  0
    2.3291   -1.8100    0.0000 H   0  0  0  0  0  0  0  0  0  0  0  0
    5.4641    3.6200    0.0000 H   0  0  0  0  0  0  0  0  0  0  0  0
    5.1350   -1.8100    0.0000 H   0  0  0  0  0  0  0  0  0  0  0  0
    6.8671    1.1900    0.0000 H   0  0  0  0  0  0  0  0  0  0  0  0
  1  9  1  0  0  0  0
  2  9  1  0  0  0  0
  3  9  1  0  0  0  0
  4 19  1  0  0  0  0
  5 18  1  0  0  0  0
  6  7  1  0  0  0  0
  6  8  1  0  0  0  0
  6  9  1  0  0  0  0
  6 20  1  0  0  0  0
  7 11  2  0  0  0  0
  7 13  1  0  0  0  0
  8 10  2  0  0  0  0
  8 12  1  0  0  0  0
 10 15  1  0  0  0  0
 10 22  1  0  0  0  0
 11 14  1  0  0  0  0
 11 21  1  0  0  0  0
 12 17  2  0  0  0  0
 12 24  1  0  0  0  0
 13 16  2  0  0  0  0
 13 23  1  0  0  0  0
 14 18  2  0  0  0  0
 14 25  1  0  0  0  0
 15 19  2  0  0  0  0
 15 26  1  0  0  0  0
 16 18  1  0  0  0  0
 16 27  1  0  0  0  0
 17 19  1  0  0  0  0
 17 28  1  0  0  0  0
M  END
> <PUBCHEM_COMPOUND_CID>
10139

> <PUBCHEM_COMPOUND_CANONICALIZED>
1

> <PUBCHEM_CACTVS_COMPLEXITY>
255

> <PUBCHEM_CACTVS_HBOND_ACCEPTOR>
2

> <PUBCHEM_CACTVS_HBOND_DONOR>
0

> <PUBCHEM_CACTVS_ROTATABLE_BOND>
2

> <PUBCHEM_CACTVS_SUBSKEYS>
AAADccBwAYAGAAAAAAAAAAAAAAAAAAAAAAAwYAAAAAAAAAABQAAAGQIAAAAADQKAGIgwAIAAAACAAiBCAAACAAAgAAAIiAAAAogIICKBERCAIAAggAAIiAcAgMAOgAAAAAAAAAAAAAAAAAAAAAAAAAAAAA==

> <PUBCHEM_IUPAC_OPENEYE_NAME>
1-fluoro-4-[2,2,2-trichloro-1-(4-fluorophenyl)ethyl]benzene

> <PUBCHEM_IUPAC_CAS_NAME>
1-fluoro-4-[2,2,2-trichloro-1-(4-fluorophenyl)ethyl]benzene

> <PUBCHEM_IUPAC_NAME>
1-fluoro-4-[2,2,2-trichloro-1-(4-fluorophenyl)ethyl]benzene

> <PUBCHEM_IUPAC_SYSTEMATIC_NAME>
1-fluoranyl-4-[2,2,2-tris(chloranyl)-1-(4-fluorophenyl)ethyl]benzene

> <PUBCHEM_IUPAC_TRADITIONAL_NAME>
1-fluoro-4-[2,2,2-trichloro-1-(4-fluorophenyl)ethyl]benzene

> <PUBCHEM_IUPAC_INCHI>
InChI=1S/C14H9Cl3F2/c15-14(16,17)13(9-1-5-11(18)6-2-9)10-3-7-12(19)8-4-10/h1-8,13H

> <PUBCHEM_IUPAC_INCHIKEY>
CLSXNIPAOWPLFR-UHFFFAOYSA-N

> <PUBCHEM_XLOGP3>
5.9

> <PUBCHEM_EXACT_MASS>
319.97379

> <PUBCHEM_MOLECULAR_FORMULA>
C14H9Cl3F2

> <PUBCHEM_MOLECULAR_WEIGHT>
321.577066

> <PUBCHEM_OPENEYE_CAN_SMILES>
C1=CC(=CC=C1C(C2=CC=C(C=C2)F)C(Cl)(Cl)Cl)F

> <PUBCHEM_OPENEYE_ISO_SMILES>
C1=CC(=CC=C1C(C2=CC=C(C=C2)F)C(Cl)(Cl)Cl)F

> <PUBCHEM_CACTVS_TPSA>
0

> <PUBCHEM_MONOISOTOPIC_WEIGHT>
319.97379

> <PUBCHEM_TOTAL_CHARGE>
0

> <PUBCHEM_HEAVY_ATOM_COUNT>
19

> <PUBCHEM_ATOM_DEF_STEREO_COUNT>
0

> <PUBCHEM_ATOM_UDEF_STEREO_COUNT>
0

> <PUBCHEM_BOND_DEF_STEREO_COUNT>
0

> <PUBCHEM_BOND_UDEF_STEREO_COUNT>
0

> <PUBCHEM_ISOTOPIC_ATOM_COUNT>
0

> <PUBCHEM_COMPONENT_COUNT>
1

> <PUBCHEM_CACTVS_TAUTO_COUNT>
1

> <PUBCHEM_COORDINATE_TYPE>
1
5
255

> <PUBCHEM_BONDANNOTATIONS>
10  15  8
11  14  8
12  17  8
13  16  8
14  18  8
15  19  8
16  18  8
17  19  8
7  11  8
7  13  8
8  10  8
8  12  8

$$$$

