51090932
  -OEChem-06241223003D

 34 35  0     1  0  0  0  0  0999 V2000
    3.7507    1.2338    1.1599 S   0  0  0  0  0  0  0  0  0  0  0  0
   -5.3384    2.0332    0.3700 F   0  0  0  0  0  0  0  0  0  0  0  0
   -4.1604    1.6016   -1.4124 F   0  0  0  0  0  0  0  0  0  0  0  0
   -5.2657    0.0008   -0.4148 F   0  0  0  0  0  0  0  0  0  0  0  0
    2.7919   -1.6943   -1.2107 O   0  0  0  0  0  0  0  0  0  0  0  0
   -2.4539   -0.1385    0.0469 N   0  0  1  0  0  0  0  0  0  0  0  0
    1.7815   -0.9120    0.7258 N   0  0  0  0  0  0  0  0  0  0  0  0
   -0.5029   -1.3781    0.0097 C   0  0  1  0  0  0  0  0  0  0  0  0
   -1.6696   -2.3688    0.0174 C   0  0  0  0  0  0  0  0  0  0  0  0
   -1.0993   -0.1055    0.5996 C   0  0  0  0  0  0  0  0  0  0  0  0
   -2.9163   -1.5147    0.2387 C   0  0  0  0  0  0  0  0  0  0  0  0
    0.7180   -1.8732    0.7668 C   0  0  0  0  0  0  0  0  0  0  0  0
   -3.3346    0.8373    0.6710 C   0  0  0  0  0  0  0  0  0  0  0  0
   -4.5321    1.1153   -0.2090 C   0  0  0  0  0  0  0  0  0  0  0  0
    2.7483   -0.8995   -0.2754 C   0  0  0  0  0  0  0  0  0  0  0  0
    3.7987    0.1447   -0.1607 C   0  0  0  0  0  0  0  0  0  0  0  0
    4.8666    0.3911   -0.9954 C   0  0  0  0  0  0  0  0  0  0  0  0
    5.6560    1.4881   -0.5445 C   0  0  0  0  0  0  0  0  0  0  0  0
    5.1614    2.0386    0.6173 C   0  0  0  0  0  0  0  0  0  0  0  0
   -0.2247   -1.1828   -1.0364 H   0  0  0  0  0  0  0  0  0  0  0  0
   -1.5744   -3.1168    0.8125 H   0  0  0  0  0  0  0  0  0  0  0  0
   -1.7174   -2.9008   -0.9395 H   0  0  0  0  0  0  0  0  0  0  0  0
   -1.1087   -0.1383    1.6969 H   0  0  0  0  0  0  0  0  0  0  0  0
   -0.5512    0.7855    0.2755 H   0  0  0  0  0  0  0  0  0  0  0  0
   -3.7020   -1.7888   -0.4717 H   0  0  0  0  0  0  0  0  0  0  0  0
   -3.2929   -1.6874    1.2549 H   0  0  0  0  0  0  0  0  0  0  0  0
    1.0694   -2.8190    0.3392 H   0  0  0  0  0  0  0  0  0  0  0  0
    0.4820   -2.0517    1.8217 H   0  0  0  0  0  0  0  0  0  0  0  0
   -3.6535    0.5287    1.6738 H   0  0  0  0  0  0  0  0  0  0  0  0
   -2.8017    1.7890    0.7925 H   0  0  0  0  0  0  0  0  0  0  0  0
    1.8235   -0.2147    1.4635 H   0  0  0  0  0  0  0  0  0  0  0  0
    5.0780   -0.1837   -1.8882 H   0  0  0  0  0  0  0  0  0  0  0  0
    6.5416    1.8550   -1.0468 H   0  0  0  0  0  0  0  0  0  0  0  0
    5.5609    2.8749    1.1734 H   0  0  0  0  0  0  0  0  0  0  0  0
  1 16  1  0  0  0  0
  1 19  1  0  0  0  0
  2 14  1  0  0  0  0
  3 14  1  0  0  0  0
  4 14  1  0  0  0  0
  5 15  2  0  0  0  0
  6 10  1  0  0  0  0
  6 11  1  0  0  0  0
  6 13  1  0  0  0  0
  7 12  1  0  0  0  0
  7 15  1  0  0  0  0
  7 31  1  0  0  0  0
  8  9  1  0  0  0  0
  8 10  1  0  0  0  0
  8 12  1  0  0  0  0
  8 20  1  0  0  0  0
  9 11  1  0  0  0  0
  9 21  1  0  0  0  0
  9 22  1  0  0  0  0
 10 23  1  0  0  0  0
 10 24  1  0  0  0  0
 11 25  1  0  0  0  0
 11 26  1  0  0  0  0
 12 27  1  0  0  0  0
 12 28  1  0  0  0  0
 13 14  1  0  0  0  0
 13 29  1  0  0  0  0
 13 30  1  0  0  0  0
 15 16  1  0  0  0  0
 16 17  2  0  0  0  0
 17 18  1  0  0  0  0
 17 32  1  0  0  0  0
 18 19  2  0  0  0  0
 18 33  1  0  0  0  0
 19 34  1  0  0  0  0
M  END
> <PUBCHEM_COMPOUND_CID>
51090932

> <PUBCHEM_CONFORMER_RMSD>
0.8

> <PUBCHEM_CONFORMER_DIVERSEORDER>
1
96
146
45
64
30
135
162
72
21
84
150
149
48
65
56
179
110
44
66
137
161
138
157
173
109
97
129
15
12
174
50
59
188
71
172
55
184
131
95
153
191
81
121
88
143
190
6
32
193
87
128
154
134
155
74
41
52
57
9
133
164
63
13
111
123
187
156
141
117
28
29
69
104
5
91
145
178
113
159
166
35
54
122
103
125
83
85
171
38
152
102
8
16
140
43
148
182
70
82
160
114
2
90
86
118
169
170
116
112
23
75
181
119
158
151
3
78
136
67
185
33
46
106
93
79
186
192
36
68
98
189
139
127
99
19
132
120
144
115
142
92
180
7
175
24
177
76
40
105
18
167
14
4
183
168
147
10
100
47
22
37
94
53
101
163
73
165
60
51
62
124
11
25
34
176
27
80
107
130
42
108
31
17
39
26
20
49
89
77
58
61
126

> <PUBCHEM_MMFF94_PARTIAL_CHARGES>
21
1 -0.08
10 0.27
11 0.27
12 0.3
13 0.27
14 1.02
15 0.71
16 -0.05
17 -0.15
18 -0.15
19 -0.11
2 -0.34
3 -0.34
31 0.37
32 0.15
33 0.15
34 0.15
4 -0.34
5 -0.57
6 -0.81
7 -0.73

> <PUBCHEM_EFFECTIVE_ROTOR_COUNT>
7

> <PUBCHEM_PHARMACOPHORE_FEATURES>
5
1 5 acceptor
1 6 cation
1 7 donor
5 1 16 17 18 19 rings
5 6 8 9 10 11 rings

> <PUBCHEM_HEAVY_ATOM_COUNT>
19

> <PUBCHEM_ATOM_DEF_STEREO_COUNT>
0

> <PUBCHEM_ATOM_UDEF_STEREO_COUNT>
1

> <PUBCHEM_BOND_DEF_STEREO_COUNT>
0

> <PUBCHEM_BOND_UDEF_STEREO_COUNT>
0

> <PUBCHEM_ISOTOPIC_ATOM_COUNT>
0

> <PUBCHEM_COMPONENT_COUNT>
1

> <PUBCHEM_CACTVS_TAUTO_COUNT>
2

> <PUBCHEM_CONFORMER_ID>
030B95F400000001

> <PUBCHEM_MMFF94_ENERGY>
26.9417

> <PUBCHEM_FEATURE_SELFOVERLAP>
25.371

> <PUBCHEM_SHAPE_FINGERPRINT>
10014705 185 18411699863678558803
10378564 45 18187917418272689254
10498660 4 18408038494590681376
11046707 91 8069759476722013090
11128504 68 16950567674752516049
11595378 159 16773526550342562676
11796584 16 8501840046031104714
12390115 104 18337378392758756731
12596602 18 15626217992455478572
12633257 1 14404895878079389498
12730499 353 18334003991425782602
12760667 363 9007059058983070401
12769317 202 18334300859770659864
12892183 10 13182752428897867790
12969540 114 18339371837288426821
13955234 65 17985544696092660083
14123255 352 18412544284603763320
14123256 34 9727363458882787592
14216079 64 9007055760696483665
14251732 14 16733279954121211485
14251764 30 6627172793666786309
14251764 38 18052538760238715596
14252887 29 13686034085635088040
14341114 328 15626216910223544060
14528608 73 18187087247421289836
14848178 96 18409166610706014360
15342816 4 6699538195315423714
17834072 32 18411698760109353544
17857418 61 9151175350364556321
17959699 21 18408603677605219688
19784866 34 18342460360987427851
20374829 77 7853583395841035938
20388580 30 6483348945991442706
20645477 56 18410851040881458763
20645477 70 17604138320411417798
20871999 31 17968104066717226279
212847 35 18413390947602110514
22289505 5 18114176446046995240
23227448 37 18337955575806366533
23402655 69 18186518800363299750
23503953 91 15338829850773808074
23557571 272 18264197037423109526
23559900 14 18187928443174968210
270888 7 18413671322323901284
2767999 5 18272093790005186724
2838139 119 18335426772340936020
2916195 48 18412262805041954712
3014063 24 11239706453923324617
316301 35 9007065639068569220
3472631 163 18413107238641175204
351380 3 7997972362402177620
3545911 37 18335977601706555506
4028521 119 18334290942553834882
441001 317 18411982425414000555
474 4 18060414690655317794
5104073 3 18202844374360693179
633830 44 18116152362741407455
7062679 13 8646497305997938076
7808743 9 18343303626371107960
7970288 3 8502364525467473653
960060 61 16153427272501427056

> <PUBCHEM_SHAPE_MULTIPOLES>
357.21
13.54
2.38
1.04
0.31
0.22
0.07
-10.31
2.15
-0.96
-0.05
0.51
-0.15
0.88

> <PUBCHEM_SHAPE_SELFOVERLAP>
729.576

> <PUBCHEM_SHAPE_VOLUME>
208.5

> <PUBCHEM_COORDINATE_TYPE>
2
5
10

$$$$

