17395876
  -OEChem-06241222533D

 38 39  0     1  0  0  0  0  0999 V2000
    0.7100   -4.1648    1.1585 S   0  0  0  0  0  0  0  0  0  0  0  0
    0.4669    2.2298    1.7598 O   0  0  0  0  0  0  0  0  0  0  0  0
    0.8494    2.3848   -0.5181 O   0  0  0  0  0  0  0  0  0  0  0  0
   -0.4306   -1.7692    1.3618 N   0  0  0  0  0  0  0  0  0  0  0  0
    1.6782   -1.8223    0.3419 N   0  0  0  0  0  0  0  0  0  0  0  0
   -0.6152   -0.3424    1.0967 C   0  0  1  0  0  0  0  0  0  0  0  0
    0.6532    0.2834    0.5604 C   0  0  0  0  0  0  0  0  0  0  0  0
    1.7181   -0.4507    0.1838 C   0  0  0  0  0  0  0  0  0  0  0  0
    2.9995    0.0582   -0.4137 C   0  0  0  0  0  0  0  0  0  0  0  0
   -1.7605   -0.1661    0.1512 C   0  0  0  0  0  0  0  0  0  0  0  0
    2.9359    0.0795   -1.9358 C   0  0  0  0  0  0  0  0  0  0  0  0
    0.6462   -2.5082    0.9376 C   0  0  0  0  0  0  0  0  0  0  0  0
    0.6731    1.7550    0.5079 C   0  0  0  0  0  0  0  0  0  0  0  0
   -2.5800    0.9584    0.2502 C   0  0  0  0  0  0  0  0  0  0  0  0
   -2.0091   -1.1259   -0.8301 C   0  0  0  0  0  0  0  0  0  0  0  0
    4.2284    0.6186   -2.5288 C   0  0  0  0  0  0  0  0  0  0  0  0
   -3.6479    1.1230   -0.6317 C   0  0  0  0  0  0  0  0  0  0  0  0
   -3.0772   -0.9611   -1.7121 C   0  0  0  0  0  0  0  0  0  0  0  0
   -3.8965    0.1634   -1.6128 C   0  0  0  0  0  0  0  0  0  0  0  0
    0.4580    3.6566    1.8732 C   0  0  0  0  0  0  0  0  0  0  0  0
   -0.8705    0.0821    2.0753 H   0  0  0  0  0  0  0  0  0  0  0  0
    3.2165    1.0666   -0.0398 H   0  0  0  0  0  0  0  0  0  0  0  0
    3.8443   -0.5581   -0.0789 H   0  0  0  0  0  0  0  0  0  0  0  0
   -1.1812   -2.2614    1.8379 H   0  0  0  0  0  0  0  0  0  0  0  0
    2.4845   -2.3566    0.0301 H   0  0  0  0  0  0  0  0  0  0  0  0
    2.7625   -0.9325   -2.3215 H   0  0  0  0  0  0  0  0  0  0  0  0
    2.1002    0.6996   -2.2800 H   0  0  0  0  0  0  0  0  0  0  0  0
   -2.4012    1.7129    1.0116 H   0  0  0  0  0  0  0  0  0  0  0  0
   -1.3841   -2.0042   -0.9570 H   0  0  0  0  0  0  0  0  0  0  0  0
    4.4159    1.6442   -2.1949 H   0  0  0  0  0  0  0  0  0  0  0  0
    4.1704    0.6231   -3.6218 H   0  0  0  0  0  0  0  0  0  0  0  0
    5.0830   -0.0004   -2.2371 H   0  0  0  0  0  0  0  0  0  0  0  0
   -4.2862    1.9983   -0.5543 H   0  0  0  0  0  0  0  0  0  0  0  0
   -3.2682   -1.7055   -2.4796 H   0  0  0  0  0  0  0  0  0  0  0  0
   -4.7274    0.2922   -2.3002 H   0  0  0  0  0  0  0  0  0  0  0  0
    0.2879    3.9130    2.9222 H   0  0  0  0  0  0  0  0  0  0  0  0
   -0.3535    4.0786    1.2724 H   0  0  0  0  0  0  0  0  0  0  0  0
    1.4234    4.0677    1.5629 H   0  0  0  0  0  0  0  0  0  0  0  0
  1 12  2  0  0  0  0
  2 13  1  0  0  0  0
  2 20  1  0  0  0  0
  3 13  2  0  0  0  0
  4  6  1  0  0  0  0
  4 12  1  0  0  0  0
  4 24  1  0  0  0  0
  5  8  1  0  0  0  0
  5 12  1  0  0  0  0
  5 25  1  0  0  0  0
  6  7  1  0  0  0  0
  6 10  1  0  0  0  0
  6 21  1  0  0  0  0
  7  8  2  0  0  0  0
  7 13  1  0  0  0  0
  8  9  1  0  0  0  0
  9 11  1  0  0  0  0
  9 22  1  0  0  0  0
  9 23  1  0  0  0  0
 10 14  2  0  0  0  0
 10 15  1  0  0  0  0
 11 16  1  0  0  0  0
 11 26  1  0  0  0  0
 11 27  1  0  0  0  0
 14 17  1  0  0  0  0
 14 28  1  0  0  0  0
 15 18  2  0  0  0  0
 15 29  1  0  0  0  0
 16 30  1  0  0  0  0
 16 31  1  0  0  0  0
 16 32  1  0  0  0  0
 17 19  2  0  0  0  0
 17 33  1  0  0  0  0
 18 19  1  0  0  0  0
 18 34  1  0  0  0  0
 19 35  1  0  0  0  0
 20 36  1  0  0  0  0
 20 37  1  0  0  0  0
 20 38  1  0  0  0  0
M  END
> <PUBCHEM_COMPOUND_CID>
17395876

> <PUBCHEM_CONFORMER_RMSD>
0.8

> <PUBCHEM_CONFORMER_DIVERSEORDER>
1
15
9
4
14
16
10
8
12
6
13
7
5
11
3
2

> <PUBCHEM_MMFF94_PARTIAL_CHARGES>
25
1 -0.38
10 -0.14
12 0.5
13 0.71
14 -0.15
15 -0.15
17 -0.15
18 -0.15
19 -0.15
2 -0.43
20 0.28
24 0.37
25 0.37
28 0.15
29 0.15
3 -0.57
33 0.15
34 0.15
35 0.15
4 -0.73
5 -0.54
6 0.58
7 -0.12
8 -0.03
9 0.14

> <PUBCHEM_EFFECTIVE_ROTOR_COUNT>
5.6

> <PUBCHEM_PHARMACOPHORE_FEATURES>
7
1 1 acceptor
1 16 hydrophobe
1 3 acceptor
1 4 donor
1 5 donor
6 10 14 15 17 18 19 rings
6 4 5 6 7 8 12 rings

> <PUBCHEM_HEAVY_ATOM_COUNT>
20

> <PUBCHEM_ATOM_DEF_STEREO_COUNT>
0

> <PUBCHEM_ATOM_UDEF_STEREO_COUNT>
1

> <PUBCHEM_BOND_DEF_STEREO_COUNT>
0

> <PUBCHEM_BOND_UDEF_STEREO_COUNT>
0

> <PUBCHEM_ISOTOPIC_ATOM_COUNT>
0

> <PUBCHEM_COMPONENT_COUNT>
1

> <PUBCHEM_CACTVS_TAUTO_COUNT>
5

> <PUBCHEM_CONFORMER_ID>
010970A400000001

> <PUBCHEM_MMFF94_ENERGY>
43.0237

> <PUBCHEM_FEATURE_SELFOVERLAP>
35.562

> <PUBCHEM_SHAPE_FINGERPRINT>
10165383 225 17915717856691364997
10465860 71 17822009817592469669
10756046 70 17043146837563770936
107951 10 16392881212706247766
12035759 4 17978780539291771894
12293681 160 18336536192706326768
13149001 5 18120645843146130238
14617773 55 17904195176453259600
14713325 29 16986848187130650350
14817 1 9609256298515810858
14943834 7 17689988359974353938
16945 1 18343022224361401041
19765921 60 18202274835979939674
19784866 34 18271798042867858788
19786989 88 17418092156618822335
20600515 1 17023767717412078187
20671657 53 17240756263996790068
21452121 99 17913216360279862618
22112679 90 17898298448565076011
22182313 1 17908421355421060946
22620623 9 16879892278742965204
22713019 5 17970044811982174428
22907989 373 17485914247125181807
23382010 3 18199745860594030716
23402539 116 18335685166695895084
23419403 2 17324897297655994526
23526113 38 18116709621604822040
23559900 14 15575001714409932682
238 59 18272100353031810631
25 1 18202281428802120703
266924 78 17412431973632349226
2748010 2 17330825821408818090
298252 57 17203321161762486868
3060560 45 18196397882052719175
394222 165 17418087741840542992
5262128 65 17749108833838290901
5845 1 10577326899023198651
7364860 26 18118435932322517337
7832392 63 18115040700624998193
81228 2 18043506482717289592
9925002 15 17329995106172075910

> <PUBCHEM_SHAPE_MULTIPOLES>
393.74
5.6
3.79
2.1
1.24
1.64
-0.72
-1.19
-5.65
-1.51
3.12
-1.03
-0.75
-0.86

> <PUBCHEM_SHAPE_SELFOVERLAP>
816.071

> <PUBCHEM_SHAPE_VOLUME>
227.3

> <PUBCHEM_COORDINATE_TYPE>
2
5
10

$$$$

