3919
  -OEChem-06251223463D

 25 25  0     0  0  0  0  0  0999 V2000
   -3.8886    2.0428    0.5582 F   0  0  0  0  0  0  0  0  0  0  0  0
    0.6647    1.4465   -0.5414 O   0  0  0  0  0  0  0  0  0  0  0  0
    3.0870    2.1232    0.1823 O   0  0  0  0  0  0  0  0  0  0  0  0
   -0.0441   -0.7638   -0.0419 N   0  0  0  0  0  0  0  0  0  0  0  0
    3.0621   -2.5365    0.6318 N   0  0  0  0  0  0  0  0  0  0  0  0
   -1.4417   -0.5775   -0.0627 C   0  0  0  0  0  0  0  0  0  0  0  0
   -1.9848    0.6651    0.2644 C   0  0  0  0  0  0  0  0  0  0  0  0
   -2.2818   -1.6357   -0.4101 C   0  0  0  0  0  0  0  0  0  0  0  0
    0.9882    0.1536   -0.1348 C   0  0  0  0  0  0  0  0  0  0  0  0
   -3.3673    0.8496    0.2440 C   0  0  0  0  0  0  0  0  0  0  0  0
   -3.6643   -1.4512   -0.4302 C   0  0  0  0  0  0  0  0  0  0  0  0
   -4.2071   -0.2085   -0.1032 C   0  0  0  0  0  0  0  0  0  0  0  0
    2.2970   -0.1311    0.0524 C   0  0  0  0  0  0  0  0  0  0  0  0
    3.3418    0.9449   -0.0624 C   0  0  0  0  0  0  0  0  0  0  0  0
    4.7212    0.5376   -0.5192 C   0  0  0  0  0  0  0  0  0  0  0  0
    2.7177   -1.4589    0.3728 C   0  0  0  0  0  0  0  0  0  0  0  0
    0.2423   -1.7350    0.0335 H   0  0  0  0  0  0  0  0  0  0  0  0
   -1.3824    1.5032    0.5976 H   0  0  0  0  0  0  0  0  0  0  0  0
   -1.8716   -2.6088   -0.6679 H   0  0  0  0  0  0  0  0  0  0  0  0
   -4.3183   -2.2750   -0.7008 H   0  0  0  0  0  0  0  0  0  0  0  0
   -5.2834   -0.0647   -0.1189 H   0  0  0  0  0  0  0  0  0  0  0  0
    4.6592   -0.2032   -1.3211 H   0  0  0  0  0  0  0  0  0  0  0  0
    5.2415    1.4138   -0.9179 H   0  0  0  0  0  0  0  0  0  0  0  0
    5.2879    0.1388    0.3258 H   0  0  0  0  0  0  0  0  0  0  0  0
   -0.0737    1.3647   -1.1681 H   0  0  0  0  0  0  0  0  0  0  0  0
  1 10  1  0  0  0  0
  2  9  1  0  0  0  0
  2 25  1  0  0  0  0
  3 14  2  0  0  0  0
  4  6  1  0  0  0  0
  4  9  1  0  0  0  0
  4 17  1  0  0  0  0
  5 16  3  0  0  0  0
  6  7  2  0  0  0  0
  6  8  1  0  0  0  0
  7 10  1  0  0  0  0
  7 18  1  0  0  0  0
  8 11  2  0  0  0  0
  8 19  1  0  0  0  0
  9 13  2  0  0  0  0
 10 12  2  0  0  0  0
 11 12  1  0  0  0  0
 11 20  1  0  0  0  0
 12 21  1  0  0  0  0
 13 14  1  0  0  0  0
 13 16  1  0  0  0  0
 14 15  1  0  0  0  0
 15 22  1  0  0  0  0
 15 23  1  0  0  0  0
 15 24  1  0  0  0  0
M  END
> <PUBCHEM_COMPOUND_CID>
3919

> <PUBCHEM_CONFORMER_RMSD>
0.6

> <PUBCHEM_CONFORMER_DIVERSEORDER>
3
30
59
15
23
5
36
38
60
32
1
43
51
48
16
50
7
35
58
49
37
61
27
18
9
52
33
44
53
28
26
12
31
8
57
56
39
54
24
4
47
45
42
13
25
20
29
46
2
6
55
17
14
34
21
40
19
10
22
11
41

> <PUBCHEM_MMFF94_PARTIAL_CHARGES>
22
1 -0.19
10 0.19
11 -0.15
12 -0.15
13 0.08
14 0.49
15 0.06
16 0.49
17 0.4
18 0.15
19 0.15
2 -0.53
20 0.15
21 0.15
25 0.45
3 -0.57
4 -0.6
5 -0.56
6 0.1
7 -0.15
8 -0.15
9 0.18

> <PUBCHEM_EFFECTIVE_ROTOR_COUNT>
3

> <PUBCHEM_PHARMACOPHORE_FEATURES>
6
1 2 donor
1 3 acceptor
1 4 cation
1 4 donor
1 5 acceptor
6 6 7 8 10 11 12 rings

> <PUBCHEM_HEAVY_ATOM_COUNT>
16

> <PUBCHEM_ATOM_DEF_STEREO_COUNT>
0

> <PUBCHEM_ATOM_UDEF_STEREO_COUNT>
0

> <PUBCHEM_BOND_DEF_STEREO_COUNT>
0

> <PUBCHEM_BOND_UDEF_STEREO_COUNT>
1

> <PUBCHEM_ISOTOPIC_ATOM_COUNT>
0

> <PUBCHEM_COMPONENT_COUNT>
1

> <PUBCHEM_CACTVS_TAUTO_COUNT>
8

> <PUBCHEM_CONFORMER_ID>
00000F4F00000003

> <PUBCHEM_MMFF94_ENERGY>
46.3575

> <PUBCHEM_FEATURE_SELFOVERLAP>
30.482

> <PUBCHEM_SHAPE_FINGERPRINT>
10616163 171 18335701585586455151
10980938 120 18343023285381729862
12107183 9 17905608061769232899
13167823 11 18408041805593968863
13533116 47 18412550924840033131
13675066 3 17846211198402211985
13760787 19 18408039610881322887
14144814 61 18411983550695308659
14178342 30 18196667210977987362
14289901 80 18337112276321287443
14325111 11 18409730664296991563
15196674 1 18411136969480454575
15442244 35 18338518663219820658
15536298 74 18408887347558313642
15669948 3 17968384446445452519
17492 89 18409167710155085487
17834072 33 18410577257953739974
18186145 218 17489590094758628627
19050596 39 18411422795433200514
19422 9 18411140259557629499
200 152 18261678064979018559
20279233 1 15698004024179512715
20281475 54 18411707594604016718
20645477 56 18335696170296930085
20645477 70 18411422838256864126
21267235 1 18337663140094494631
21501502 16 18409452500539807463
2255824 54 18202281424929568938
23402539 116 18187652354286940807
23402655 69 18410292523175875476
23463225 33 18410577326694374079
23557571 272 17894901911054820429
23559900 14 17750226062369602526
3545911 37 18341894065428309239
4214541 1 18408603673368300461
474 4 17915739782499827020
4990 188 18113606877395737164
5104073 3 18411418436263013371
543358 83 18338792424894352938
603831 33 18189630353550413479
7364860 26 18409450310723762386
77779 3 18409165506540567038
9709674 26 18409725140716562470

> <PUBCHEM_SHAPE_MULTIPOLES>
300.3
9.14
2.11
0.7
0.52
0.28
0.01
-1.06
0.22
0.52
-0.29
0.04
0.05
-0.96

> <PUBCHEM_SHAPE_SELFOVERLAP>
626.354

> <PUBCHEM_SHAPE_VOLUME>
169

> <PUBCHEM_COORDINATE_TYPE>
2
5
10

$$$$

