12462
  -OEChem-06261206583D

 24 24  0     0  0  0  0  0  0999 V2000
    0.0011   -1.7391   -0.0283 O   0  0  0  0  0  0  0  0  0  0  0  0
   -2.3943   -0.3535    0.0789 O   0  0  0  0  0  0  0  0  0  0  0  0
    2.3945   -0.3502    0.0788 O   0  0  0  0  0  0  0  0  0  0  0  0
    0.0003   -0.3795    0.0756 C   0  0  0  0  0  0  0  0  0  0  0  0
   -1.2082    0.3148    0.1304 C   0  0  0  0  0  0  0  0  0  0  0  0
    1.2076    0.3168    0.1295 C   0  0  0  0  0  0  0  0  0  0  0  0
   -1.2094    1.7055    0.2389 C   0  0  0  0  0  0  0  0  0  0  0  0
    1.2066    1.7074    0.2382 C   0  0  0  0  0  0  0  0  0  0  0  0
   -0.0020    2.4017    0.2929 C   0  0  0  0  0  0  0  0  0  0  0  0
    0.0033   -2.4809    1.1892 C   0  0  0  0  0  0  0  0  0  0  0  0
   -2.9591   -0.5728   -1.2122 C   0  0  0  0  0  0  0  0  0  0  0  0
    2.9595   -0.5702   -1.2121 C   0  0  0  0  0  0  0  0  0  0  0  0
   -2.1470    2.2530    0.2829 H   0  0  0  0  0  0  0  0  0  0  0  0
    2.1434    2.2563    0.2820 H   0  0  0  0  0  0  0  0  0  0  0  0
   -0.0029    3.4845    0.3780 H   0  0  0  0  0  0  0  0  0  0  0  0
   -0.8928   -2.2592    1.7773 H   0  0  0  0  0  0  0  0  0  0  0  0
    0.9011   -2.2585    1.7746 H   0  0  0  0  0  0  0  0  0  0  0  0
    0.0034   -3.5458    0.9411 H   0  0  0  0  0  0  0  0  0  0  0  0
   -3.8953   -1.1237   -1.0874 H   0  0  0  0  0  0  0  0  0  0  0  0
   -3.1769    0.3813   -1.7024 H   0  0  0  0  0  0  0  0  0  0  0  0
   -2.2826   -1.1687   -1.8329 H   0  0  0  0  0  0  0  0  0  0  0  0
    3.1758    0.3837   -1.7035 H   0  0  0  0  0  0  0  0  0  0  0  0
    2.2838   -1.1679   -1.8321 H   0  0  0  0  0  0  0  0  0  0  0  0
    3.8966   -1.1195   -1.0868 H   0  0  0  0  0  0  0  0  0  0  0  0
  1  4  1  0  0  0  0
  1 10  1  0  0  0  0
  2  5  1  0  0  0  0
  2 11  1  0  0  0  0
  3  6  1  0  0  0  0
  3 12  1  0  0  0  0
  4  5  2  0  0  0  0
  4  6  1  0  0  0  0
  5  7  1  0  0  0  0
  6  8  2  0  0  0  0
  7  9  2  0  0  0  0
  7 13  1  0  0  0  0
  8  9  1  0  0  0  0
  8 14  1  0  0  0  0
  9 15  1  0  0  0  0
 10 16  1  0  0  0  0
 10 17  1  0  0  0  0
 10 18  1  0  0  0  0
 11 19  1  0  0  0  0
 11 20  1  0  0  0  0
 11 21  1  0  0  0  0
 12 22  1  0  0  0  0
 12 23  1  0  0  0  0
 12 24  1  0  0  0  0
M  END
> <PUBCHEM_COMPOUND_CID>
12462

> <PUBCHEM_CONFORMER_RMSD>
0.6

> <PUBCHEM_CONFORMER_DIVERSEORDER>
1
4
3
2

> <PUBCHEM_MMFF94_PARTIAL_CHARGES>
15
1 -0.36
10 0.28
11 0.28
12 0.28
13 0.15
14 0.15
15 0.15
2 -0.36
3 -0.36
4 0.08
5 0.08
6 0.08
7 -0.15
8 -0.15
9 -0.15

> <PUBCHEM_EFFECTIVE_ROTOR_COUNT>
3

> <PUBCHEM_PHARMACOPHORE_FEATURES>
4
1 1 acceptor
1 2 acceptor
1 3 acceptor
6 4 5 6 7 8 9 rings

> <PUBCHEM_HEAVY_ATOM_COUNT>
12

> <PUBCHEM_ATOM_DEF_STEREO_COUNT>
0

> <PUBCHEM_ATOM_UDEF_STEREO_COUNT>
0

> <PUBCHEM_BOND_DEF_STEREO_COUNT>
0

> <PUBCHEM_BOND_UDEF_STEREO_COUNT>
0

> <PUBCHEM_ISOTOPIC_ATOM_COUNT>
0

> <PUBCHEM_COMPONENT_COUNT>
1

> <PUBCHEM_CACTVS_TAUTO_COUNT>
1

> <PUBCHEM_CONFORMER_ID>
000030AE00000001

> <PUBCHEM_MMFF94_ENERGY>
61.9654

> <PUBCHEM_FEATURE_SELFOVERLAP>
20.307

> <PUBCHEM_SHAPE_FINGERPRINT>
10353120 184 18409724079953890981
11206711 2 18340205292592847733
12138202 97 17769387023456739452
12524768 44 18191023400406859384
13380535 76 17833004749113023016
14128692 85 18113337487876975757
16945 1 18408885135291291179
18185500 45 18122349235565256785
193761 8 17690563408565856809
20511035 2 17328890702392330000
20588541 1 18050007696855135408
20645477 70 18044958783254035135
21040471 1 17907870504628194449
23388829 49 17910979137458813522
23402539 116 18336551603138246518
23552423 10 17839172266436706466
241688 4 18334293201311331600
2748010 2 17184189440095730512
5084963 1 18113899359698569329

> <PUBCHEM_SHAPE_MULTIPOLES>
229.35
3.42
2.48
1.01
0
0.1
-0.16
-0.78
-1.74
0
0.87
0
-0.43
0

> <PUBCHEM_SHAPE_SELFOVERLAP>
468.302

> <PUBCHEM_SHAPE_VOLUME>
134.7

> <PUBCHEM_COORDINATE_TYPE>
2
5
10

$$$$

