586257
  -OEChem-06241222463D

 28 29  0     1  0  0  0  0  0999 V2000
    1.8315    2.3727   -1.5581 Br  0  0  0  0  0  0  0  0  0  0  0  0
   -1.3494   -0.7195   -0.7697 O   0  0  0  0  0  0  0  0  0  0  0  0
   -0.9096    2.6160    0.3918 O   0  0  0  0  0  0  0  0  0  0  0  0
   -3.2318    1.0384    1.7168 O   0  0  0  0  0  0  0  0  0  0  0  0
   -3.5432   -2.4903   -0.9040 O   0  0  0  0  0  0  0  0  0  0  0  0
    4.6117   -1.1584    0.6583 O   0  0  0  0  0  0  0  0  0  0  0  0
    0.8472    0.0005   -0.2408 N   0  0  0  0  0  0  0  0  0  0  0  0
    3.2240    0.3939   -0.3260 N   0  0  0  0  0  0  0  0  0  0  0  0
   -1.0960    1.2242    0.5781 C   0  0  1  0  0  0  0  0  0  0  0  0
   -2.5611    0.8618    0.4841 C   0  0  1  0  0  0  0  0  0  0  0  0
   -0.4938    0.4196   -0.5654 C   0  0  2  0  0  0  0  0  0  0  0  0
   -2.4796   -0.6063    0.1091 C   0  0  1  0  0  0  0  0  0  0  0  0
   -3.7259   -1.1195   -0.5889 C   0  0  0  0  0  0  0  0  0  0  0  0
    1.0894   -1.1758    0.4574 C   0  0  0  0  0  0  0  0  0  0  0  0
    1.9933    0.7240   -0.5917 C   0  0  0  0  0  0  0  0  0  0  0  0
    2.3122   -1.6056    0.7808 C   0  0  0  0  0  0  0  0  0  0  0  0
    3.4813   -0.7758    0.3682 C   0  0  0  0  0  0  0  0  0  0  0  0
   -0.6845    0.9584    1.5588 H   0  0  0  0  0  0  0  0  0  0  0  0
   -3.0741    1.4551   -0.2825 H   0  0  0  0  0  0  0  0  0  0  0  0
   -0.5283    0.9694   -1.5108 H   0  0  0  0  0  0  0  0  0  0  0  0
   -2.2750   -1.2325    0.9871 H   0  0  0  0  0  0  0  0  0  0  0  0
   -3.8969   -0.5837   -1.5284 H   0  0  0  0  0  0  0  0  0  0  0  0
   -4.6073   -1.0187    0.0519 H   0  0  0  0  0  0  0  0  0  0  0  0
   -1.2748    2.8616   -0.4751 H   0  0  0  0  0  0  0  0  0  0  0  0
   -3.1498    1.9762    1.9606 H   0  0  0  0  0  0  0  0  0  0  0  0
    0.2155   -1.7421    0.7546 H   0  0  0  0  0  0  0  0  0  0  0  0
   -4.3533   -2.7921   -1.3492 H   0  0  0  0  0  0  0  0  0  0  0  0
    2.4827   -2.5213    1.3323 H   0  0  0  0  0  0  0  0  0  0  0  0
  1 15  1  0  0  0  0
  2 11  1  0  0  0  0
  2 12  1  0  0  0  0
  3  9  1  0  0  0  0
  3 24  1  0  0  0  0
  4 10  1  0  0  0  0
  4 25  1  0  0  0  0
  5 13  1  0  0  0  0
  5 27  1  0  0  0  0
  6 17  2  0  0  0  0
  7 11  1  0  0  0  0
  7 14  1  0  0  0  0
  7 15  1  0  0  0  0
  8 15  2  0  0  0  0
  8 17  1  0  0  0  0
  9 10  1  0  0  0  0
  9 11  1  0  0  0  0
  9 18  1  0  0  0  0
 10 12  1  0  0  0  0
 10 19  1  0  0  0  0
 11 20  1  0  0  0  0
 12 13  1  0  0  0  0
 12 21  1  0  0  0  0
 13 22  1  0  0  0  0
 13 23  1  0  0  0  0
 14 16  2  0  0  0  0
 14 26  1  0  0  0  0
 16 17  1  0  0  0  0
 16 28  1  0  0  0  0
M  END
> <PUBCHEM_COMPOUND_CID>
586257

> <PUBCHEM_CONFORMER_RMSD>
0.6

> <PUBCHEM_CONFORMER_DIVERSEORDER>
1
68
62
51
58
21
26
71
27
43
31
39
44
35
63
25
53
49
60
66
32
17
5
54
42
34
59
4
30
14
64
28
36
24
19
69
46
55
67
45
16
57
37
61
41
22
52
11
70
48
33
40
47
50
38
8
3
56
20
12
18
13
10
65
9
29
15
2
23
6
7

> <PUBCHEM_MMFF94_PARTIAL_CHARGES>
22
1 -0.14
10 0.28
11 0.65
12 0.28
13 0.28
14 -0.05
15 0.64
16 -0.14
17 0.77
2 -0.56
24 0.4
25 0.4
26 0.15
27 0.4
28 0.15
3 -0.68
4 -0.68
5 -0.68
6 -0.57
7 -0.52
8 -0.66
9 0.28

> <PUBCHEM_EFFECTIVE_ROTOR_COUNT>
3

> <PUBCHEM_PHARMACOPHORE_FEATURES>
12
1 1 hydrophobe
1 2 acceptor
1 3 acceptor
1 3 donor
1 4 acceptor
1 4 donor
1 5 acceptor
1 5 donor
1 6 acceptor
1 8 donor
5 2 9 10 11 12 rings
6 7 8 14 15 16 17 rings

> <PUBCHEM_HEAVY_ATOM_COUNT>
17

> <PUBCHEM_ATOM_DEF_STEREO_COUNT>
0

> <PUBCHEM_ATOM_UDEF_STEREO_COUNT>
4

> <PUBCHEM_BOND_DEF_STEREO_COUNT>
0

> <PUBCHEM_BOND_UDEF_STEREO_COUNT>
0

> <PUBCHEM_ISOTOPIC_ATOM_COUNT>
0

> <PUBCHEM_COMPONENT_COUNT>
1

> <PUBCHEM_CACTVS_TAUTO_COUNT>
1

> <PUBCHEM_CONFORMER_ID>
0008F21100000001

> <PUBCHEM_MMFF94_ENERGY>
47.1619

> <PUBCHEM_FEATURE_SELFOVERLAP>
60.897

> <PUBCHEM_SHAPE_FINGERPRINT>
11132069 177 18114175388899322265
11578080 2 18194147190314969541
11769659 78 18412832373529500998
11806522 49 18341057332937663070
12251169 10 18338510970864977736
12553582 1 18059568144101142386
13538477 17 18334289894397412465
13764800 53 16515960475563027995
15375462 189 18193548979085593171
15375462 478 18335146405412754612
16945 1 18190737724809799421
19422 9 18335979796371618254
19433438 48 18411140276637135746
200 152 18271815622163778439
20645477 70 17560523893402330095
20671657 53 18060427914606518966
21634736 98 18268990882524489110
21639500 275 17845928507723053084
22112679 90 18260819380805092397
22445834 79 18198620123779952698
2255824 54 18201710709653768396
23388829 49 18341891913465304980
23402539 116 18342468079397105882
23419403 2 17975735798015450853
23557571 272 17385709314192451036
23598291 2 18340474625813005212
2748010 2 17473528635401281533
312423 11 18339065000271519575
6992083 37 18196366133580691828
7097593 13 18193554695249188426
7615 1 18410567358259967925
77492 1 18410282593127084645
90316 7 18335416923865206785

> <PUBCHEM_SHAPE_MULTIPOLES>
316.49
6.89
2.42
1.17
0.45
0.85
0.04
-3.38
0.24
0.35
-0.42
-0.63
0.3
-2.07

> <PUBCHEM_SHAPE_SELFOVERLAP>
649.37

> <PUBCHEM_SHAPE_VOLUME>
185.9

> <PUBCHEM_COORDINATE_TYPE>
2
5
10

$$$$

