12704
  -OEChem-06261207163D

 22 21  0     0  0  0  0  0  0999 V2000
   -2.1004   -0.5636    0.3180 S   0  0  0  0  0  0  0  0  0  0  0  0
   -0.9066    2.0312    1.1106 S   0  0  0  0  0  0  0  0  0  0  0  0
    0.5664   -0.0729    0.0986 N   0  0  0  0  0  0  0  0  0  0  0  0
    1.8230    0.6739    0.1947 C   0  0  0  0  0  0  0  0  0  0  0  0
    0.7288   -1.4303   -0.4310 C   0  0  0  0  0  0  0  0  0  0  0  0
    2.1173    1.4218   -1.0946 C   0  0  0  0  0  0  0  0  0  0  0  0
    1.0213   -2.4225    0.6819 C   0  0  0  0  0  0  0  0  0  0  0  0
   -0.6704    0.4775    0.4892 C   0  0  0  0  0  0  0  0  0  0  0  0
   -2.5793   -0.1151   -1.3675 C   0  0  0  0  0  0  0  0  0  0  0  0
    1.7883    1.3810    1.0283 H   0  0  0  0  0  0  0  0  0  0  0  0
    2.6408   -0.0203    0.4197 H   0  0  0  0  0  0  0  0  0  0  0  0
   -0.1533   -1.7524   -0.9878 H   0  0  0  0  0  0  0  0  0  0  0  0
    1.5524   -1.4345   -1.1546 H   0  0  0  0  0  0  0  0  0  0  0  0
    2.2142    0.7342   -1.9409 H   0  0  0  0  0  0  0  0  0  0  0  0
    1.3219    2.1334   -1.3371 H   0  0  0  0  0  0  0  0  0  0  0  0
    3.0551    1.9786   -1.0029 H   0  0  0  0  0  0  0  0  0  0  0  0
    1.9435   -2.1663    1.2130 H   0  0  0  0  0  0  0  0  0  0  0  0
    0.2125   -2.4490    1.4188 H   0  0  0  0  0  0  0  0  0  0  0  0
    1.1385   -3.4295    0.2695 H   0  0  0  0  0  0  0  0  0  0  0  0
   -3.4234   -0.7362   -1.6786 H   0  0  0  0  0  0  0  0  0  0  0  0
   -1.7530   -0.2762   -2.0646 H   0  0  0  0  0  0  0  0  0  0  0  0
   -2.8860    0.9332   -1.4123 H   0  0  0  0  0  0  0  0  0  0  0  0
  1  8  1  0  0  0  0
  1  9  1  0  0  0  0
  2  8  2  0  0  0  0
  3  4  1  0  0  0  0
  3  5  1  0  0  0  0
  3  8  1  0  0  0  0
  4  6  1  0  0  0  0
  4 10  1  0  0  0  0
  4 11  1  0  0  0  0
  5  7  1  0  0  0  0
  5 12  1  0  0  0  0
  5 13  1  0  0  0  0
  6 14  1  0  0  0  0
  6 15  1  0  0  0  0
  6 16  1  0  0  0  0
  7 17  1  0  0  0  0
  7 18  1  0  0  0  0
  7 19  1  0  0  0  0
  9 20  1  0  0  0  0
  9 21  1  0  0  0  0
  9 22  1  0  0  0  0
M  END
> <PUBCHEM_COMPOUND_CID>
12704

> <PUBCHEM_CONFORMER_RMSD>
0.6

> <PUBCHEM_CONFORMER_DIVERSEORDER>
1
21
35
29
31
38
13
36
10
12
37
8
19
24
26
23
30
32
9
25
22
15
14
20
11
17
3
2
34
6
28
33
27
18
4
5
7
16

> <PUBCHEM_MMFF94_PARTIAL_CHARGES>
7
1 -0.37
2 -0.38
3 -0.66
4 0.3
5 0.3
8 0.58
9 0.23

> <PUBCHEM_EFFECTIVE_ROTOR_COUNT>
4

> <PUBCHEM_PHARMACOPHORE_FEATURES>
2
1 2 acceptor
1 9 hydrophobe

> <PUBCHEM_HEAVY_ATOM_COUNT>
9

> <PUBCHEM_ATOM_DEF_STEREO_COUNT>
0

> <PUBCHEM_ATOM_UDEF_STEREO_COUNT>
0

> <PUBCHEM_BOND_DEF_STEREO_COUNT>
0

> <PUBCHEM_BOND_UDEF_STEREO_COUNT>
0

> <PUBCHEM_ISOTOPIC_ATOM_COUNT>
0

> <PUBCHEM_COMPONENT_COUNT>
1

> <PUBCHEM_CACTVS_TAUTO_COUNT>
1

> <PUBCHEM_CONFORMER_ID>
000031A000000001

> <PUBCHEM_MMFF94_ENERGY>
17.6327

> <PUBCHEM_FEATURE_SELFOVERLAP>
10.148

> <PUBCHEM_SHAPE_FINGERPRINT>
12897270 3 18409446951563386957
137420 1 7655808900845728954
18185500 45 18187089451034833735
20653091 64 18197208363703330098
21040471 1 18195524788263099090
23211744 25 17976551515642093511
23419403 2 16606959420499688601
23552333 60 18261393403141764715
23552423 10 18339633563836750531
4369600 1 18042128656617505441
5084963 1 17845643751438735660
54338 74 17693109864695579107

> <PUBCHEM_SHAPE_MULTIPOLES>
187.93
3.13
2.37
1.24
0.81
0.46
-0.26
-0.3
-1.13
-0.83
0.73
0.33
-0.24
-0.81

> <PUBCHEM_SHAPE_SELFOVERLAP>
316.102

> <PUBCHEM_SHAPE_VOLUME>
129.4

> <PUBCHEM_COORDINATE_TYPE>
2
5
10

$$$$

