10246
  -OEChem-06261204233D

 38 41  0     1  0  0  0  0  0999 V2000
    2.3805   -2.5409   -0.1440 O   0  0  0  0  0  0  0  0  0  0  0  0
   -1.5010    0.6014    0.5462 N   0  0  1  0  0  0  0  0  0  0  0  0
    1.3857   -0.4357   -0.3978 N   0  0  0  0  0  0  0  0  0  0  0  0
   -0.7414   -0.0444   -1.7693 C   0  0  1  0  0  0  0  0  0  0  0  0
   -1.9138    0.0197   -0.7470 C   0  0  1  0  0  0  0  0  0  0  0  0
    0.3341    1.8396   -0.6256 C   0  0  1  0  0  0  0  0  0  0  0  0
   -0.1733    1.3567   -1.9815 C   0  0  0  0  0  0  0  0  0  0  0  0
   -0.8474    1.9092    0.3652 C   0  0  0  0  0  0  0  0  0  0  0  0
   -2.5648   -1.3603   -0.5360 C   0  0  0  0  0  0  0  0  0  0  0  0
    0.4281   -0.9617   -1.3783 C   0  0  0  0  0  0  0  0  0  0  0  0
   -2.6339    0.7278    1.4752 C   0  0  0  0  0  0  0  0  0  0  0  0
    1.4180    0.9266   -0.0838 C   0  0  0  0  0  0  0  0  0  0  0  0
   -3.7436   -1.2743    0.4286 C   0  0  0  0  0  0  0  0  0  0  0  0
   -3.3055   -0.6202    1.7325 C   0  0  0  0  0  0  0  0  0  0  0  0
    2.3835    1.4132    0.7148 C   0  0  0  0  0  0  0  0  0  0  0  0
    2.3386   -1.3373    0.1113 C   0  0  0  0  0  0  0  0  0  0  0  0
    3.3805    0.5453    1.2747 C   0  0  0  0  0  0  0  0  0  0  0  0
    3.3757   -0.7646    1.0148 C   0  0  0  0  0  0  0  0  0  0  0  0
   -1.1512   -0.4083   -2.7207 H   0  0  0  0  0  0  0  0  0  0  0  0
   -2.6814    0.6737   -1.1890 H   0  0  0  0  0  0  0  0  0  0  0  0
    0.7373    2.8528   -0.7542 H   0  0  0  0  0  0  0  0  0  0  0  0
   -0.9470    2.0319   -2.3668 H   0  0  0  0  0  0  0  0  0  0  0  0
    0.6367    1.3427   -2.7216 H   0  0  0  0  0  0  0  0  0  0  0  0
   -0.4821    2.2712    1.3351 H   0  0  0  0  0  0  0  0  0  0  0  0
   -1.5722    2.6510    0.0024 H   0  0  0  0  0  0  0  0  0  0  0  0
   -1.8425   -2.0759   -0.1275 H   0  0  0  0  0  0  0  0  0  0  0  0
   -2.9098   -1.7630   -1.4956 H   0  0  0  0  0  0  0  0  0  0  0  0
    0.0797   -1.9430   -1.0421 H   0  0  0  0  0  0  0  0  0  0  0  0
    1.0225   -1.1638   -2.2809 H   0  0  0  0  0  0  0  0  0  0  0  0
   -3.3768    1.4371    1.0872 H   0  0  0  0  0  0  0  0  0  0  0  0
   -2.2813    1.1208    2.4366 H   0  0  0  0  0  0  0  0  0  0  0  0
   -4.1414   -2.2759    0.6258 H   0  0  0  0  0  0  0  0  0  0  0  0
   -4.5517   -0.6890   -0.0265 H   0  0  0  0  0  0  0  0  0  0  0  0
   -4.1737   -0.4823    2.3868 H   0  0  0  0  0  0  0  0  0  0  0  0
   -2.6089   -1.2839    2.2603 H   0  0  0  0  0  0  0  0  0  0  0  0
    2.4253    2.4637    0.9822 H   0  0  0  0  0  0  0  0  0  0  0  0
    4.1318    0.9800    1.9243 H   0  0  0  0  0  0  0  0  0  0  0  0
    4.1190   -1.4325    1.4336 H   0  0  0  0  0  0  0  0  0  0  0  0
  1 16  2  0  0  0  0
  2  5  1  0  0  0  0
  2  8  1  0  0  0  0
  2 11  1  0  0  0  0
  3 10  1  0  0  0  0
  3 12  1  0  0  0  0
  3 16  1  0  0  0  0
  4  5  1  0  0  0  0
  4  7  1  0  0  0  0
  4 10  1  0  0  0  0
  4 19  1  0  0  0  0
  5  9  1  0  0  0  0
  5 20  1  0  0  0  0
  6  7  1  0  0  0  0
  6  8  1  0  0  0  0
  6 12  1  0  0  0  0
  6 21  1  0  0  0  0
  7 22  1  0  0  0  0
  7 23  1  0  0  0  0
  8 24  1  0  0  0  0
  8 25  1  0  0  0  0
  9 13  1  0  0  0  0
  9 26  1  0  0  0  0
  9 27  1  0  0  0  0
 10 28  1  0  0  0  0
 10 29  1  0  0  0  0
 11 14  1  0  0  0  0
 11 30  1  0  0  0  0
 11 31  1  0  0  0  0
 12 15  2  0  0  0  0
 13 14  1  0  0  0  0
 13 32  1  0  0  0  0
 13 33  1  0  0  0  0
 14 34  1  0  0  0  0
 14 35  1  0  0  0  0
 15 17  1  0  0  0  0
 15 36  1  0  0  0  0
 16 18  1  0  0  0  0
 17 18  2  0  0  0  0
 17 37  1  0  0  0  0
 18 38  1  0  0  0  0
M  END
> <PUBCHEM_COMPOUND_CID>
10246

> <PUBCHEM_CONFORMER_RMSD>
0.6

> <PUBCHEM_CONFORMER_DIVERSEORDER>
1
4
3
2

> <PUBCHEM_MMFF94_PARTIAL_CHARGES>
16
1 -0.57
10 0.3
11 0.27
12 -0.03
15 -0.15
16 0.62
17 -0.15
18 -0.14
2 -0.81
3 -0.47
36 0.15
37 0.15
38 0.15
5 0.27
6 0.14
8 0.27

> <PUBCHEM_EFFECTIVE_ROTOR_COUNT>
1.4

> <PUBCHEM_PHARMACOPHORE_FEATURES>
6
1 1 acceptor
1 2 cation
6 2 4 5 6 7 8 rings
6 2 5 9 11 13 14 rings
6 3 12 15 16 17 18 rings
6 3 4 6 7 10 12 rings

> <PUBCHEM_HEAVY_ATOM_COUNT>
18

> <PUBCHEM_ATOM_DEF_STEREO_COUNT>
1

> <PUBCHEM_ATOM_UDEF_STEREO_COUNT>
2

> <PUBCHEM_BOND_DEF_STEREO_COUNT>
0

> <PUBCHEM_BOND_UDEF_STEREO_COUNT>
0

> <PUBCHEM_ISOTOPIC_ATOM_COUNT>
0

> <PUBCHEM_COMPONENT_COUNT>
1

> <PUBCHEM_CACTVS_TAUTO_COUNT>
1

> <PUBCHEM_CONFORMER_ID>
0000280600000001

> <PUBCHEM_MMFF94_ENERGY>
32.8838

> <PUBCHEM_FEATURE_SELFOVERLAP>
31.97

> <PUBCHEM_SHAPE_FINGERPRINT>
10165383 225 5182957737399337793
10498660 4 7204494347531461667
10948715 1 4678824973052750729
11086676 242 18335695061598983114
11471102 22 18411143523837996642
11582403 64 15106711809147694085
12202030 40 17631177557500440218
12251169 10 18113615702989157651
12363563 72 17060061419323509587
12382932 28 18040429993010138937
12400797 245 18335417967399295418
12400797 292 11671780451056772530
12491281 212 8142085372749883203
12633257 1 17679570405517742379
12716301 132 17393288402604172701
13294875 104 6771590239928629516
13299463 15 11455013962754952804
13764800 53 14923939025163300915
14115302 16 14045754702928492859
14223421 5 18335708285929887938
14787075 74 16526122934862707165
14817 1 8343717345551753293
15309172 13 18041292005973837726
15422964 175 18343582966480138026
15775835 57 16588024580402234698
16752209 62 14044927857727148527
16945 1 18337955592954782052
17834072 14 18409455791106975701
18186145 218 8790889596356682482
18981168 100 6338089226166145074
19862831 5 11959738165652176371
20361792 2 17203319018452480205
21524375 3 6338958840910740709
21731516 1 16773501257105602169
22112679 90 15795408483926789469
22445834 79 18259988149692428603
22802520 49 12103262886098551845
23382010 3 10447922841550847093
23402539 116 11311517804680158048
23419403 2 16628300705040445044
23557571 272 14907905924858077716
23559900 14 15410077100985564088
2748010 2 18045239377487694812
3797600 57 16951121751256038051
427121 178 15575533792296874271
495365 180 14853547329160364241
5262128 65 13686009964365939778
549884 4 10015591575174455891
568465 68 18271253702938983976
576247 118 17489009552645205269
5845 1 6262902451884274301
598444 67 17330550354937814958
6442390 28 5328463756603782813
7097593 13 18115019822187501298
81228 2 17559685129403027765

> <PUBCHEM_SHAPE_MULTIPOLES>
354.6
5.65
2.03
1.72
0.58
0.19
-0.23
2.4
3.28
-0.67
-0.19
0.59
-0.23
0.13

> <PUBCHEM_SHAPE_SELFOVERLAP>
768.996

> <PUBCHEM_SHAPE_VOLUME>
187.5

> <PUBCHEM_COORDINATE_TYPE>
2
5
10

$$$$

