47205508
  -OEChem-06241222592D

 33 35  0     0  0  0  0  0  0999 V2000
    4.3211    0.6662    0.0000 O   0  0  0  0  0  0  0  0  0  0  0  0
    6.6353   -0.6162    0.0000 O   0  0  0  0  0  0  0  0  0  0  0  0
    8.8655    1.1129    0.0000 O   0  0  0  0  0  0  0  0  0  0  0  0
    4.6783   -1.0287    0.0000 N   0  0  0  0  0  0  0  0  0  0  0  0
    6.2781    1.0786    0.0000 N   0  0  0  0  0  0  0  0  0  0  0  0
    7.9986    0.6144    0.0000 N   0  0  0  0  0  0  0  0  0  0  0  0
    4.6783   -2.6381    0.0000 C   0  0  0  0  0  0  0  0  0  0  0  0
    5.2619   -1.8334    0.0000 C   0  0  0  0  0  0  0  0  0  0  0  0
    3.7320   -2.3334    0.0000 C   0  0  0  0  0  0  0  0  0  0  0  0
    3.7320   -1.3334    0.0000 C   0  0  0  0  0  0  0  0  0  0  0  0
    2.8660   -2.8334    0.0000 C   0  0  0  0  0  0  0  0  0  0  0  0
    2.8660   -0.8334    0.0000 C   0  0  0  0  0  0  0  0  0  0  0  0
    4.9889   -0.0781    0.0000 C   0  0  0  0  0  0  0  0  0  0  0  0
    2.0000   -2.3334    0.0000 C   0  0  0  0  0  0  0  0  0  0  0  0
    2.0000   -1.3334    0.0000 C   0  0  0  0  0  0  0  0  0  0  0  0
    5.9674    0.1281    0.0000 C   0  0  0  0  0  0  0  0  0  0  0  0
    7.2566    1.2848    0.0000 C   0  0  0  0  0  0  0  0  0  0  0  0
    7.6649    2.1977    0.0000 C   0  0  0  0  0  0  0  0  0  0  0  0
    8.6593    2.0914    0.0000 C   0  0  0  0  0  0  0  0  0  0  0  0
    9.3297    2.8334    0.0000 C   0  0  0  0  0  0  0  0  0  0  0  0
    4.4272   -3.2050    0.0000 H   0  0  0  0  0  0  0  0  0  0  0  0
    5.2156   -2.9474    0.0000 H   0  0  0  0  0  0  0  0  0  0  0  0
    5.7227   -2.2481    0.0000 H   0  0  0  0  0  0  0  0  0  0  0  0
    5.7227   -1.4187    0.0000 H   0  0  0  0  0  0  0  0  0  0  0  0
    2.8660   -3.4534    0.0000 H   0  0  0  0  0  0  0  0  0  0  0  0
    2.8660   -0.2134    0.0000 H   0  0  0  0  0  0  0  0  0  0  0  0
    1.4631   -2.6434    0.0000 H   0  0  0  0  0  0  0  0  0  0  0  0
    1.4631   -1.0234    0.0000 H   0  0  0  0  0  0  0  0  0  0  0  0
    5.8640    1.5401    0.0000 H   0  0  0  0  0  0  0  0  0  0  0  0
    7.3558    2.7351    0.0000 H   0  0  0  0  0  0  0  0  0  0  0  0
    9.7897    2.4177    0.0000 H   0  0  0  0  0  0  0  0  0  0  0  0
    9.7453    3.2934    0.0000 H   0  0  0  0  0  0  0  0  0  0  0  0
    8.8696    3.2490    0.0000 H   0  0  0  0  0  0  0  0  0  0  0  0
  1 13  2  0  0  0  0
  2 16  2  0  0  0  0
  3  6  1  0  0  0  0
  3 19  1  0  0  0  0
  4  8  1  0  0  0  0
  4 10  1  0  0  0  0
  4 13  1  0  0  0  0
  5 16  1  0  0  0  0
  5 17  1  0  0  0  0
  5 29  1  0  0  0  0
  6 17  2  0  0  0  0
  7  8  1  0  0  0  0
  7  9  1  0  0  0  0
  7 21  1  0  0  0  0
  7 22  1  0  0  0  0
  8 23  1  0  0  0  0
  8 24  1  0  0  0  0
  9 10  1  0  0  0  0
  9 11  2  0  0  0  0
 10 12  2  0  0  0  0
 11 14  1  0  0  0  0
 11 25  1  0  0  0  0
 12 15  1  0  0  0  0
 12 26  1  0  0  0  0
 13 16  1  0  0  0  0
 14 15  2  0  0  0  0
 14 27  1  0  0  0  0
 15 28  1  0  0  0  0
 17 18  1  0  0  0  0
 18 19  2  0  0  0  0
 18 30  1  0  0  0  0
 19 20  1  0  0  0  0
 20 31  1  0  0  0  0
 20 32  1  0  0  0  0
 20 33  1  0  0  0  0
M  END
> <PUBCHEM_COMPOUND_CID>
47205508

> <PUBCHEM_COMPOUND_CANONICALIZED>
1

> <PUBCHEM_CACTVS_COMPLEXITY>
401

> <PUBCHEM_CACTVS_HBOND_ACCEPTOR>
4

> <PUBCHEM_CACTVS_HBOND_DONOR>
1

> <PUBCHEM_CACTVS_ROTATABLE_BOND>
1

> <PUBCHEM_CACTVS_SUBSKEYS>
AAADccBzMAAAAAAAAAAAAAAAAAAAAWLAAAAwAAAAAAAAAFgBwAAAHgAUAAAADAzBmgQz9JPQAACpAqdycgCCAAAlIgApmCG+bNqIZCrAmbGUIIhilwrIyEcQgIAOAAAAAAACAAAAAAAAAAQAAAAAAAAAAA==

> <PUBCHEM_IUPAC_OPENEYE_NAME>
2-indolin-1-yl-N-(5-methylisoxazol-3-yl)-2-oxo-acetamide

> <PUBCHEM_IUPAC_CAS_NAME>
2-(2,3-dihydroindol-1-yl)-N-(5-methyl-3-isoxazolyl)-2-oxoacetamide

> <PUBCHEM_IUPAC_NAME>
2-(2,3-dihydroindol-1-yl)-N-(5-methyl-1,2-oxazol-3-yl)-2-oxoacetamide

> <PUBCHEM_IUPAC_SYSTEMATIC_NAME>
2-(2,3-dihydroindol-1-yl)-N-(5-methyl-1,2-oxazol-3-yl)-2-oxidanylidene-ethanamide

> <PUBCHEM_IUPAC_TRADITIONAL_NAME>
2-indolin-1-yl-2-keto-N-(5-methylisoxazol-3-yl)acetamide

> <PUBCHEM_IUPAC_INCHI>
InChI=1S/C14H13N3O3/c1-9-8-12(16-20-9)15-13(18)14(19)17-7-6-10-4-2-3-5-11(10)17/h2-5,8H,6-7H2,1H3,(H,15,16,18)

> <PUBCHEM_IUPAC_INCHIKEY>
NKRVXSROCUUVNW-UHFFFAOYSA-N

> <PUBCHEM_XLOGP3_AA>
1.8

> <PUBCHEM_EXACT_MASS>
271.095691

> <PUBCHEM_MOLECULAR_FORMULA>
C14H13N3O3

> <PUBCHEM_MOLECULAR_WEIGHT>
271.27132

> <PUBCHEM_OPENEYE_CAN_SMILES>
CC1=CC(=NO1)NC(=O)C(=O)N2CCC3=CC=CC=C32

> <PUBCHEM_OPENEYE_ISO_SMILES>
CC1=CC(=NO1)NC(=O)C(=O)N2CCC3=CC=CC=C32

> <PUBCHEM_CACTVS_TPSA>
75.4

> <PUBCHEM_MONOISOTOPIC_WEIGHT>
271.095691

> <PUBCHEM_TOTAL_CHARGE>
0

> <PUBCHEM_HEAVY_ATOM_COUNT>
20

> <PUBCHEM_ATOM_DEF_STEREO_COUNT>
0

> <PUBCHEM_ATOM_UDEF_STEREO_COUNT>
0

> <PUBCHEM_BOND_DEF_STEREO_COUNT>
0

> <PUBCHEM_BOND_UDEF_STEREO_COUNT>
0

> <PUBCHEM_ISOTOPIC_ATOM_COUNT>
0

> <PUBCHEM_COMPONENT_COUNT>
1

> <PUBCHEM_CACTVS_TAUTO_COUNT>
8

> <PUBCHEM_COORDINATE_TYPE>
1
5
255

> <PUBCHEM_BONDANNOTATIONS>
10  12  8
11  14  8
12  15  8
14  15  8
17  18  8
18  19  8
3  19  8
3  6  8
6  17  8
9  10  8
9  11  8

$$$$

