17396608
  -OEChem-06241222573D

 42 44  0     0  0  0  0  0  0999 V2000
    2.6119    0.6776   -1.4579 O   0  0  0  0  0  0  0  0  0  0  0  0
   -0.1431    1.3587    1.9606 O   0  0  0  0  0  0  0  0  0  0  0  0
   -2.9489    1.0546   -0.0451 N   0  0  0  0  0  0  0  0  0  0  0  0
    0.5460    2.9308    0.3964 N   0  0  0  0  0  0  0  0  0  0  0  0
   -1.0710    0.4440   -1.0652 N   0  0  0  0  0  0  0  0  0  0  0  0
   -1.5404    2.8901   -0.9314 C   0  0  0  0  0  0  0  0  0  0  0  0
   -1.8194    1.4605   -0.6994 C   0  0  0  0  0  0  0  0  0  0  0  0
   -0.7340    3.5568    0.1998 C   0  0  0  0  0  0  0  0  0  0  0  0
   -2.9282   -0.3152    0.0157 C   0  0  0  0  0  0  0  0  0  0  0  0
   -1.7463   -0.6722   -0.6277 C   0  0  0  0  0  0  0  0  0  0  0  0
    2.1808    1.4005    1.2798 C   0  0  0  0  0  0  0  0  0  0  0  0
    2.3483   -0.0234    0.8194 C   0  0  0  0  0  0  0  0  0  0  0  0
    0.7382    1.8684    1.2732 C   0  0  0  0  0  0  0  0  0  0  0  0
   -3.8145   -1.2444    0.5616 C   0  0  0  0  0  0  0  0  0  0  0  0
   -1.4130   -2.0324   -0.7426 C   0  0  0  0  0  0  0  0  0  0  0  0
    2.5561   -0.3171   -0.5284 C   0  0  0  0  0  0  0  0  0  0  0  0
   -3.4670   -2.5937    0.4384 C   0  0  0  0  0  0  0  0  0  0  0  0
    2.2937   -1.0544    1.7574 C   0  0  0  0  0  0  0  0  0  0  0  0
   -2.2881   -2.9828   -0.2019 C   0  0  0  0  0  0  0  0  0  0  0  0
    2.7095   -1.6417   -0.9379 C   0  0  0  0  0  0  0  0  0  0  0  0
    2.4469   -2.3789    1.3477 C   0  0  0  0  0  0  0  0  0  0  0  0
    2.6547   -2.6726    0.0001 C   0  0  0  0  0  0  0  0  0  0  0  0
    2.8278    0.2871   -2.8125 C   0  0  0  0  0  0  0  0  0  0  0  0
   -2.4783    3.4417   -1.0697 H   0  0  0  0  0  0  0  0  0  0  0  0
   -0.9816    2.9885   -1.8709 H   0  0  0  0  0  0  0  0  0  0  0  0
   -0.5498    4.6071   -0.0485 H   0  0  0  0  0  0  0  0  0  0  0  0
   -1.2984    3.5225    1.1387 H   0  0  0  0  0  0  0  0  0  0  0  0
   -3.6717    1.6547    0.3298 H   0  0  0  0  0  0  0  0  0  0  0  0
    1.3275    3.2815   -0.1492 H   0  0  0  0  0  0  0  0  0  0  0  0
    2.5464    1.5041    2.3100 H   0  0  0  0  0  0  0  0  0  0  0  0
    2.8228    2.0644    0.6889 H   0  0  0  0  0  0  0  0  0  0  0  0
   -4.7288   -0.9398    1.0582 H   0  0  0  0  0  0  0  0  0  0  0  0
   -0.5010   -2.3453   -1.2402 H   0  0  0  0  0  0  0  0  0  0  0  0
    2.1299   -0.8402    2.8102 H   0  0  0  0  0  0  0  0  0  0  0  0
   -4.1277   -3.3533    0.8489 H   0  0  0  0  0  0  0  0  0  0  0  0
   -2.0450   -4.0392   -0.2825 H   0  0  0  0  0  0  0  0  0  0  0  0
    2.8725   -1.9460   -1.9660 H   0  0  0  0  0  0  0  0  0  0  0  0
    2.4029   -3.1818    2.0778 H   0  0  0  0  0  0  0  0  0  0  0  0
    2.7725   -3.7045   -0.3177 H   0  0  0  0  0  0  0  0  0  0  0  0
    2.8439    1.2030   -3.4124 H   0  0  0  0  0  0  0  0  0  0  0  0
    2.0028   -0.3257   -3.1919 H   0  0  0  0  0  0  0  0  0  0  0  0
    3.8022   -0.1954   -2.9438 H   0  0  0  0  0  0  0  0  0  0  0  0
  1 16  1  0  0  0  0
  1 23  1  0  0  0  0
  2 13  2  0  0  0  0
  3  7  1  0  0  0  0
  3  9  1  0  0  0  0
  3 28  1  0  0  0  0
  4  8  1  0  0  0  0
  4 13  1  0  0  0  0
  4 29  1  0  0  0  0
  5  7  2  0  0  0  0
  5 10  1  0  0  0  0
  6  7  1  0  0  0  0
  6  8  1  0  0  0  0
  6 24  1  0  0  0  0
  6 25  1  0  0  0  0
  8 26  1  0  0  0  0
  8 27  1  0  0  0  0
  9 10  1  0  0  0  0
  9 14  2  0  0  0  0
 10 15  2  0  0  0  0
 11 12  1  0  0  0  0
 11 13  1  0  0  0  0
 11 30  1  0  0  0  0
 11 31  1  0  0  0  0
 12 16  1  0  0  0  0
 12 18  2  0  0  0  0
 14 17  1  0  0  0  0
 14 32  1  0  0  0  0
 15 19  1  0  0  0  0
 15 33  1  0  0  0  0
 16 20  2  0  0  0  0
 17 19  2  0  0  0  0
 17 35  1  0  0  0  0
 18 21  1  0  0  0  0
 18 34  1  0  0  0  0
 19 36  1  0  0  0  0
 20 22  1  0  0  0  0
 20 37  1  0  0  0  0
 21 22  2  0  0  0  0
 21 38  1  0  0  0  0
 22 39  1  0  0  0  0
 23 40  1  0  0  0  0
 23 41  1  0  0  0  0
 23 42  1  0  0  0  0
M  END
> <PUBCHEM_COMPOUND_CID>
17396608

> <PUBCHEM_CONFORMER_RMSD>
0.8

> <PUBCHEM_CONFORMER_DIVERSEORDER>
2
51
91
182
78
160
119
92
167
220
161
154
1
173
194
275
130
212
122
30
265
247
241
87
163
207
68
222
181
251
248
246
22
29
89
102
74
151
213
82
132
96
13
276
267
31
86
155
84
170
90
93
137
196
258
192
261
260
35
126
97
153
121
139
238
67
46
209
75
198
18
217
171
117
79
166
142
179
165
150
58
183
135
21
272
230
172
71
9
197
103
111
61
162
253
113
37
36
108
141
227
271
185
233
255
85
203
15
120
219
12
156
147
6
77
169
28
244
20
215
254
199
101
41
56
221
239
52
100
116
112
104
38
178
176
211
47
143
174
45
245
216
148
263
200
208
250
164
10
106
53
157
127
125
240
168
237
225
8
204
3
210
138
266
14
144
274
202
234
201
4
193
24
191
264
114
175
149
124
146
63
195
7
145
180
44
11
34
105
235
70
134
189
140
62
152
184
19
256
131
81
69
269
123
94
33
109
128
5
190
186
262
257
43
42
136
187
95
115
188
65
159
32
64
158
26
228
17
88
99
55
214
57
48
259
76
177
270
72
249
98
107
231
25
226
224
268
118
252
110
54
223
242
23
16
40
218
49
129
133
59
83
229
27
205
206
50
73
232
66
243
273
60
39
80
236

> <PUBCHEM_MMFF94_PARTIAL_CHARGES>
33
1 -0.36
10 0.23
11 0.2
12 -0.14
13 0.57
14 -0.15
15 -0.15
16 0.08
17 -0.15
18 -0.15
19 -0.15
2 -0.57
20 -0.15
21 -0.15
22 -0.15
23 0.28
28 0.27
29 0.37
3 0.03
32 0.15
33 0.15
34 0.15
35 0.15
36 0.15
37 0.15
38 0.15
39 0.15
4 -0.73
5 -0.57
6 0.18
7 0.01
8 0.3
9 -0.15

> <PUBCHEM_EFFECTIVE_ROTOR_COUNT>
7

> <PUBCHEM_PHARMACOPHORE_FEATURES>
8
1 1 acceptor
1 2 acceptor
1 3 donor
1 4 donor
3 3 5 7 cation
5 3 5 7 9 10 rings
6 12 16 18 20 21 22 rings
6 9 10 14 15 17 19 rings

> <PUBCHEM_HEAVY_ATOM_COUNT>
23

> <PUBCHEM_ATOM_DEF_STEREO_COUNT>
0

> <PUBCHEM_ATOM_UDEF_STEREO_COUNT>
0

> <PUBCHEM_BOND_DEF_STEREO_COUNT>
0

> <PUBCHEM_BOND_UDEF_STEREO_COUNT>
0

> <PUBCHEM_ISOTOPIC_ATOM_COUNT>
0

> <PUBCHEM_COMPONENT_COUNT>
1

> <PUBCHEM_CACTVS_TAUTO_COUNT>
4

> <PUBCHEM_CONFORMER_ID>
0109738000000002

> <PUBCHEM_MMFF94_ENERGY>
48.9987

> <PUBCHEM_FEATURE_SELFOVERLAP>
40.701

> <PUBCHEM_SHAPE_FINGERPRINT>
1100329 8 15667885493212657321
11067466 332 18127414458201692026
11140007 195 17096623492667481419
11578080 2 17558296266023777597
12156800 1 13993024375659734194
12553582 1 18340208471111343463
12596599 1 17824806867789371619
13009979 54 18059581338409649834
14251757 5 18120362418450167270
15664445 248 18126276455014095949
16752209 62 18048603916932756677
17492 54 17339551601653123572
20397935 3 18263365952929956644
23184049 29 18339094764378972098
23419403 2 11686800845408300284
238 59 17546447778182482587
2818148 4 17972847475574517386
3117164 225 18267846313212599435
5262128 65 12533420516670825505
598444 67 18191876832173658829
6287921 2 17541087671782080683
7097593 13 18191866730668866537

> <PUBCHEM_SHAPE_MULTIPOLES>
446.65
5.91
4.11
1.8
1.57
1.21
0.5
-3.84
0.36
1.44
-0.48
-1.86
0.31
0.12

> <PUBCHEM_SHAPE_SELFOVERLAP>
963.69

> <PUBCHEM_SHAPE_VOLUME>
246

> <PUBCHEM_COORDINATE_TYPE>
2
5
10

$$$$

