17395710
  -OEChem-06241222523D

 45 47  0     1  0  0  0  0  0999 V2000
   -3.5407   -2.1355    0.1748 S   0  0  0  0  0  0  0  0  0  0  0  0
   -1.0064    3.2183    1.7542 S   0  0  0  0  0  0  0  0  0  0  0  0
   -3.8544    0.7004    0.8257 O   0  0  0  0  0  0  0  0  0  0  0  0
   -2.7574    1.4788   -1.0654 N   0  0  0  0  0  0  0  0  0  0  0  0
    0.1333   -2.9549    1.2874 N   0  0  0  0  0  0  0  0  0  0  0  0
   -0.8803   -1.4863   -0.1439 N   0  0  0  0  0  0  0  0  0  0  0  0
   -1.2002   -3.1028    1.2913 N   0  0  0  0  0  0  0  0  0  0  0  0
   -3.5908   -0.7932   -1.0580 C   0  0  2  0  0  0  0  0  0  0  0  0
    4.1174   -0.4733   -0.5791 C   0  0  0  0  0  0  0  0  0  0  0  0
    1.5878   -1.4558    0.0678 C   0  0  0  0  0  0  0  0  0  0  0  0
    5.4698    0.0520   -0.9248 C   0  0  0  0  0  0  0  0  0  0  0  0
    0.2755   -1.9649    0.4036 C   0  0  0  0  0  0  0  0  0  0  0  0
   -3.4341    0.5264   -0.3165 C   0  0  0  0  0  0  0  0  0  0  0  0
   -2.4714    2.8036   -0.5662 C   0  0  0  0  0  0  0  0  0  0  0  0
    3.8762   -0.9959    0.6914 C   0  0  0  0  0  0  0  0  0  0  0  0
    3.0938   -0.4420   -1.5263 C   0  0  0  0  0  0  0  0  0  0  0  0
    2.6114   -1.4871    1.0149 C   0  0  0  0  0  0  0  0  0  0  0  0
    1.8291   -0.9332   -1.2028 C   0  0  0  0  0  0  0  0  0  0  0  0
   -4.9022   -0.8530   -1.8304 C   0  0  0  0  0  0  0  0  0  0  0  0
   -1.7951   -2.2263    0.4384 C   0  0  0  0  0  0  0  0  0  0  0  0
   -1.1271    2.8110    0.0953 C   0  0  0  0  0  0  0  0  0  0  0  0
    5.6148    1.5375   -0.6049 C   0  0  0  0  0  0  0  0  0  0  0  0
    0.1017    2.5244   -0.4573 C   0  0  0  0  0  0  0  0  0  0  0  0
    1.1562    2.6405    0.4938 C   0  0  0  0  0  0  0  0  0  0  0  0
    0.6932    3.0115    1.7370 C   0  0  0  0  0  0  0  0  0  0  0  0
   -2.7720   -0.9281   -1.7733 H   0  0  0  0  0  0  0  0  0  0  0  0
    5.6742   -0.1124   -1.9902 H   0  0  0  0  0  0  0  0  0  0  0  0
    6.2401   -0.5133   -0.3854 H   0  0  0  0  0  0  0  0  0  0  0  0
   -3.2727    3.1173    0.1114 H   0  0  0  0  0  0  0  0  0  0  0  0
   -2.4669    3.4838   -1.4246 H   0  0  0  0  0  0  0  0  0  0  0  0
    4.6642   -1.0214    1.4395 H   0  0  0  0  0  0  0  0  0  0  0  0
    3.2685   -0.0354   -2.5190 H   0  0  0  0  0  0  0  0  0  0  0  0
    2.4538   -1.8753    2.0180 H   0  0  0  0  0  0  0  0  0  0  0  0
    1.0464   -0.9003   -1.9569 H   0  0  0  0  0  0  0  0  0  0  0  0
   -2.4366    1.2445   -2.0005 H   0  0  0  0  0  0  0  0  0  0  0  0
   -5.0169   -1.8073   -2.3558 H   0  0  0  0  0  0  0  0  0  0  0  0
   -4.9373   -0.0552   -2.5811 H   0  0  0  0  0  0  0  0  0  0  0  0
   -5.7679   -0.7089   -1.1737 H   0  0  0  0  0  0  0  0  0  0  0  0
    0.7499   -3.5279    1.8574 H   0  0  0  0  0  0  0  0  0  0  0  0
    5.4599    1.7298    0.4622 H   0  0  0  0  0  0  0  0  0  0  0  0
    6.6177    1.8854   -0.8716 H   0  0  0  0  0  0  0  0  0  0  0  0
    4.8869    2.1357   -1.1635 H   0  0  0  0  0  0  0  0  0  0  0  0
    0.2432    2.2444   -1.4935 H   0  0  0  0  0  0  0  0  0  0  0  0
    2.2013    2.4608    0.2774 H   0  0  0  0  0  0  0  0  0  0  0  0
    1.2720    3.1703    2.6359 H   0  0  0  0  0  0  0  0  0  0  0  0
  1  8  1  0  0  0  0
  1 20  1  0  0  0  0
  2 21  1  0  0  0  0
  2 25  1  0  0  0  0
  3 13  2  0  0  0  0
  4 13  1  0  0  0  0
  4 14  1  0  0  0  0
  4 35  1  0  0  0  0
  5  7  1  0  0  0  0
  5 12  1  0  0  0  0
  5 39  1  0  0  0  0
  6 12  2  0  0  0  0
  6 20  1  0  0  0  0
  7 20  2  0  0  0  0
  8 13  1  0  0  0  0
  8 19  1  0  0  0  0
  8 26  1  0  0  0  0
  9 11  1  0  0  0  0
  9 15  2  0  0  0  0
  9 16  1  0  0  0  0
 10 12  1  0  0  0  0
 10 17  2  0  0  0  0
 10 18  1  0  0  0  0
 11 22  1  0  0  0  0
 11 27  1  0  0  0  0
 11 28  1  0  0  0  0
 14 21  1  0  0  0  0
 14 29  1  0  0  0  0
 14 30  1  0  0  0  0
 15 17  1  0  0  0  0
 15 31  1  0  0  0  0
 16 18  2  0  0  0  0
 16 32  1  0  0  0  0
 17 33  1  0  0  0  0
 18 34  1  0  0  0  0
 19 36  1  0  0  0  0
 19 37  1  0  0  0  0
 19 38  1  0  0  0  0
 21 23  2  0  0  0  0
 22 40  1  0  0  0  0
 22 41  1  0  0  0  0
 22 42  1  0  0  0  0
 23 24  1  0  0  0  0
 23 43  1  0  0  0  0
 24 25  2  0  0  0  0
 24 44  1  0  0  0  0
 25 45  1  0  0  0  0
M  END
> <PUBCHEM_COMPOUND_CID>
17395710

> <PUBCHEM_CONFORMER_RMSD>
1

> <PUBCHEM_CONFORMER_DIVERSEORDER>
1
86
66
174
193
16
209
128
140
180
194
272
156
200
150
89
146
213
139
110
54
130
181
2
69
123
233
9
149
276
186
77
15
136
65
51
116
37
72
289
25
283
207
114
6
198
4
36
101
121
27
196
143
142
60
243
113
145
266
131
227
55
244
48
274
157
211
252
293
282
13
226
219
67
167
153
7
63
135
173
254
175
85
197
82
61
212
291
106
285
41
277
47
32
111
58
158
234
257
118
154
19
241
73
18
221
163
122
232
33
292
8
251
223
275
62
12
290
3
50
159
229
206
161
91
137
35
184
218
107
94
71
166
152
134
31
87
155
97
228
281
17
262
169
246
171
195
259
215
124
225
79
144
204
105
100
190
162
141
217
10
214
21
189
265
20
253
56
45
261
14
263
199
258
26
92
11
38
183
23
230
187
236
78
239
80
210
255
231
138
182
216
201
88
59
30
112
74
29
98
5
52
102
95
43
57
151
235
188
93
287
53
288
220
295
34
273
202
250
260
127
28
177
278
49
40
75
103
76
84
126
264
245
44
39
117
247
294
90
129
42
249
170
172
224
115
296
191
268
270
22
279
147
242
271
267
132
46
248
83
237
176
109
24
133
125
104
208
269
280
68
185
222
284
70
240
119
165
120
164
286
148
256
205
203
238
179
160
178
108
81
64
192
99
168
96

> <PUBCHEM_MMFF94_PARTIAL_CHARGES>
32
1 -0.28
10 0.05
11 0.14
12 0.13
13 0.57
14 0.48
15 -0.15
16 -0.15
17 -0.15
18 -0.15
2 -0.08
20 0.57
21 -0.14
23 -0.15
24 -0.15
25 -0.11
3 -0.57
31 0.15
32 0.15
33 0.15
34 0.15
35 0.37
39 0.27
4 -0.73
43 0.15
44 0.15
45 0.15
5 0.3
6 -0.57
7 -0.71
8 0.29
9 -0.14

> <PUBCHEM_EFFECTIVE_ROTOR_COUNT>
8

> <PUBCHEM_PHARMACOPHORE_FEATURES>
10
1 19 hydrophobe
1 22 hydrophobe
1 3 acceptor
1 4 donor
1 5 donor
3 5 6 12 cation
3 6 7 20 cation
5 2 21 23 24 25 rings
5 5 6 7 12 20 rings
6 9 10 15 16 17 18 rings

> <PUBCHEM_HEAVY_ATOM_COUNT>
25

> <PUBCHEM_ATOM_DEF_STEREO_COUNT>
0

> <PUBCHEM_ATOM_UDEF_STEREO_COUNT>
1

> <PUBCHEM_BOND_DEF_STEREO_COUNT>
0

> <PUBCHEM_BOND_UDEF_STEREO_COUNT>
0

> <PUBCHEM_ISOTOPIC_ATOM_COUNT>
0

> <PUBCHEM_COMPONENT_COUNT>
1

> <PUBCHEM_CACTVS_TAUTO_COUNT>
6

> <PUBCHEM_CONFORMER_ID>
01096FFE00000001

> <PUBCHEM_MMFF94_ENERGY>
49.04

> <PUBCHEM_FEATURE_SELFOVERLAP>
53.492

> <PUBCHEM_SHAPE_FINGERPRINT>
10498660 4 18336832012345876103
108634 29 18410003335049681758
12156800 1 14972139600395415309
12596599 1 17822010938963945001
12788726 201 18409167731707990960
13032168 30 18335697312193975328
13122387 1 18410860975124678353
13402501 40 18265617580575983532
14081887 123 18117011080684455553
14117953 113 17333097923680533332
14251757 5 18341043034922937098
14363568 33 17618206322285179328
14739800 52 18269854038450265688
14765038 42 18190438588975443649
14787075 74 18408606959124011212
14790565 3 17758955218417147305
14931854 50 18412550924285580709
17357779 13 18187080629198277664
17492 54 18343027696234002287
17818456 19 18196106653459143290
19319366 153 18127413578160833363
20510252 161 18341324565428572658
20642791 35 18263663839504310557
20715895 44 16905827713875262357
20764821 26 18196935469970835377
20775438 99 17396739413544178231
20905425 154 18120929508197589269
21141583 151 18335419109918533954
23558518 356 17903634434229299898
238918 7 17469621615247641232
3052486 1 18268447886988794024
3493558 16 17197967502556260372
392239 28 18263093243992345936
469060 322 17914585428503161929
7226269 152 18343018861834589822

> <PUBCHEM_SHAPE_MULTIPOLES>
496.39
9.35
4.46
1.56
6.3
2.53
0.07
-1.52
-4.47
-2.06
2.14
-0.28
0.13
-0.15

> <PUBCHEM_SHAPE_SELFOVERLAP>
1028.04

> <PUBCHEM_SHAPE_VOLUME>
285.9

> <PUBCHEM_COORDINATE_TYPE>
2
5
10

$$$$

