47205304
  -OEChem-06241222583D

 34 35  0     0  0  0  0  0  0999 V2000
   -4.1706   -0.7434   -0.6820 O   0  0  0  0  0  0  0  0  0  0  0  0
    1.4958    2.0480   -0.3107 O   0  0  0  0  0  0  0  0  0  0  0  0
    1.8590    0.2423    1.0980 N   0  0  0  0  0  0  0  0  0  0  0  0
    4.5379   -1.3264    0.4795 N   0  0  0  0  0  0  0  0  0  0  0  0
    5.4392   -1.6609   -0.4596 N   0  0  0  0  0  0  0  0  0  0  0  0
    3.2202    0.5762    1.4513 C   0  0  0  0  0  0  0  0  0  0  0  0
    4.2102   -0.0022    0.4820 C   0  0  0  0  0  0  0  0  0  0  0  0
   -0.2861    0.5543   -0.0078 C   0  0  0  0  0  0  0  0  0  0  0  0
    1.0747    1.0094    0.2288 C   0  0  0  0  0  0  0  0  0  0  0  0
   -1.2769    1.4716   -0.3583 C   0  0  0  0  0  0  0  0  0  0  0  0
   -0.6008   -0.7989    0.1159 C   0  0  0  0  0  0  0  0  0  0  0  0
   -2.8970   -0.3178   -0.4611 C   0  0  0  0  0  0  0  0  0  0  0  0
   -2.5823    1.0357   -0.5849 C   0  0  0  0  0  0  0  0  0  0  0  0
   -1.9062   -1.2349   -0.1107 C   0  0  0  0  0  0  0  0  0  0  0  0
    4.9488    0.5691   -0.5252 C   0  0  0  0  0  0  0  0  0  0  0  0
    5.6864   -0.4989   -1.0701 C   0  0  0  0  0  0  0  0  0  0  0  0
   -5.2222    0.1755   -0.3888 C   0  0  0  0  0  0  0  0  0  0  0  0
   -6.4498   -0.5970   -0.0359 C   0  0  0  0  0  0  0  0  0  0  0  0
   -7.0803   -0.5016    1.1398 C   0  0  0  0  0  0  0  0  0  0  0  0
    3.3241    1.6662    1.4873 H   0  0  0  0  0  0  0  0  0  0  0  0
    3.4054    0.1864    2.4580 H   0  0  0  0  0  0  0  0  0  0  0  0
    1.4634   -0.5700    1.5590 H   0  0  0  0  0  0  0  0  0  0  0  0
   -1.0516    2.5300   -0.4613 H   0  0  0  0  0  0  0  0  0  0  0  0
    0.1451   -1.5511    0.3549 H   0  0  0  0  0  0  0  0  0  0  0  0
   -3.3169    1.7782   -0.8819 H   0  0  0  0  0  0  0  0  0  0  0  0
   -2.1446   -2.2912   -0.0196 H   0  0  0  0  0  0  0  0  0  0  0  0
    4.9527    1.6073   -0.8234 H   0  0  0  0  0  0  0  0  0  0  0  0
    4.1860   -2.0561    1.0867 H   0  0  0  0  0  0  0  0  0  0  0  0
    6.3936   -0.4787   -1.8869 H   0  0  0  0  0  0  0  0  0  0  0  0
   -4.9596    0.8388    0.4458 H   0  0  0  0  0  0  0  0  0  0  0  0
   -5.4267    0.7817   -1.2786 H   0  0  0  0  0  0  0  0  0  0  0  0
   -6.8493   -1.2719   -0.7883 H   0  0  0  0  0  0  0  0  0  0  0  0
   -7.9707   -1.0895    1.3341 H   0  0  0  0  0  0  0  0  0  0  0  0
   -6.7250    0.1574    1.9243 H   0  0  0  0  0  0  0  0  0  0  0  0
  1 12  1  0  0  0  0
  1 17  1  0  0  0  0
  2  9  2  0  0  0  0
  3  6  1  0  0  0  0
  3  9  1  0  0  0  0
  3 22  1  0  0  0  0
  4  5  1  0  0  0  0
  4  7  1  0  0  0  0
  4 28  1  0  0  0  0
  5 16  2  0  0  0  0
  6  7  1  0  0  0  0
  6 20  1  0  0  0  0
  6 21  1  0  0  0  0
  7 15  2  0  0  0  0
  8  9  1  0  0  0  0
  8 10  2  0  0  0  0
  8 11  1  0  0  0  0
 10 13  1  0  0  0  0
 10 23  1  0  0  0  0
 11 14  2  0  0  0  0
 11 24  1  0  0  0  0
 12 13  2  0  0  0  0
 12 14  1  0  0  0  0
 13 25  1  0  0  0  0
 14 26  1  0  0  0  0
 15 16  1  0  0  0  0
 15 27  1  0  0  0  0
 16 29  1  0  0  0  0
 17 18  1  0  0  0  0
 17 30  1  0  0  0  0
 17 31  1  0  0  0  0
 18 19  2  0  0  0  0
 18 32  1  0  0  0  0
 19 33  1  0  0  0  0
 19 34  1  0  0  0  0
M  END
> <PUBCHEM_COMPOUND_CID>
47205304

> <PUBCHEM_CONFORMER_RMSD>
0.8

> <PUBCHEM_CONFORMER_DIVERSEORDER>
1
78
58
52
74
49
71
67
51
38
25
68
26
13
39
42
84
2
72
73
34
63
59
5
61
77
10
82
20
19
66
27
56
54
85
55
48
41
53
36
31
83
50
43
22
69
35
46
12
40
76
75
65
45
24
18
79
11
47
8
62
81
15
44
6
7
23
21
17
70
57
80
29
64
60
30
14
28
4
32
33
37
9
3
16

> <PUBCHEM_MMFF94_PARTIAL_CHARGES>
30
1 -0.36
10 -0.15
11 -0.15
12 0.08
13 -0.15
14 -0.15
15 -0.15
16 0.14
17 0.42
18 -0.29
19 -0.3
2 -0.57
22 0.37
23 0.15
24 0.15
25 0.15
26 0.15
27 0.15
28 0.27
29 0.15
3 -0.73
32 0.15
33 0.15
34 0.15
4 0.3
5 -0.71
6 0.48
7 -0.33
8 0.09
9 0.54

> <PUBCHEM_EFFECTIVE_ROTOR_COUNT>
7

> <PUBCHEM_PHARMACOPHORE_FEATURES>
8
1 1 acceptor
1 19 hydrophobe
1 2 acceptor
1 3 donor
1 4 donor
1 5 acceptor
5 4 5 7 15 16 rings
6 8 10 11 12 13 14 rings

> <PUBCHEM_HEAVY_ATOM_COUNT>
19

> <PUBCHEM_ATOM_DEF_STEREO_COUNT>
0

> <PUBCHEM_ATOM_UDEF_STEREO_COUNT>
0

> <PUBCHEM_BOND_DEF_STEREO_COUNT>
0

> <PUBCHEM_BOND_UDEF_STEREO_COUNT>
0

> <PUBCHEM_ISOTOPIC_ATOM_COUNT>
0

> <PUBCHEM_COMPONENT_COUNT>
1

> <PUBCHEM_CACTVS_TAUTO_COUNT>
4

> <PUBCHEM_CONFORMER_ID>
02D04BB800000001

> <PUBCHEM_MMFF94_ENERGY>
40.5663

> <PUBCHEM_FEATURE_SELFOVERLAP>
40.595

> <PUBCHEM_SHAPE_FINGERPRINT>
11128504 68 17489587870556003764
11401426 45 8502373352062317737
11796584 16 16950563233946385958
12166972 35 18114180809449276393
12236239 1 17060341846365103661
12916748 109 18060704991800520624
13533116 47 17894632530779823152
13685833 64 18261112980611428426
13914758 101 15647323178728204027
14251718 22 14117801314977644627
14251764 18 17530683204096920856
14528608 73 15410895171531611526
14617045 38 18408601470235200798
17834072 33 14836405822138896519
18769570 83 15430308140864403819
19141452 34 17894918382222849951
20157964 124 10663824083158402592
20281389 69 16588025693658490961
20645477 70 17821450162670099036
20871999 31 18273214227209357988
21150785 3 15697995219818218151
21267235 1 18412541024343758029
2215653 11 18334303066908966503
2297311 6 18413388756810470149
23016692 55 18335133189935573948
23035841 295 18202284706147140867
23402539 116 14851609869376299513
23522609 53 18191277482156847369
23536379 177 16226047778128247003
23559900 14 18263933150574878816
2767999 5 8286201652042961251
2838139 119 14779265341663827041
3004659 81 18272372014556726474
34797466 226 15697993054827991230
4072396 5 6266901259905316584
4325135 7 12967129401985990435
4463277 17 18343866615200962861
465052 167 18259983769295486798
5207 217 13542459856763250065
5374978 207 8070028878751110078

> <PUBCHEM_SHAPE_MULTIPOLES>
364.33
16.43
1.45
1.02
8.95
0.17
-0.21
-5.91
-0.12
-0.81
0.14
-0.36
0.01
0.51

> <PUBCHEM_SHAPE_SELFOVERLAP>
766.279

> <PUBCHEM_SHAPE_VOLUME>
205

> <PUBCHEM_COORDINATE_TYPE>
2
5
10

$$$$

