9421
  -OEChem-06261203412D

 58 60  0     1  0  0  0  0  0999 V2000
    2.0000   -1.9585    0.0000 Cl  0  0  0  0  0  0  0  0  0  0  0  0
    9.0602   -1.9585    0.0000 O   0  0  0  0  0  0  0  0  0  0  0  0
    8.1282    2.5173    0.0000 N   0  0  0  0  0  0  0  0  0  0  0  0
    5.5301   -0.9827    0.0000 N   0  0  0  0  0  0  0  0  0  0  0  0
    5.5301   -3.9827    0.0000 N   0  0  0  0  0  0  0  0  0  0  0  0
    6.3961   -0.4827    0.0000 C   0  0  3  0  0  0  0  0  0  0  0  0
    6.3961    0.5173    0.0000 C   0  0  0  0  0  0  0  0  0  0  0  0
    7.2622    1.0173    0.0000 C   0  0  0  0  0  0  0  0  0  0  0  0
    7.2622    2.0173    0.0000 C   0  0  0  0  0  0  0  0  0  0  0  0
    5.5301   -1.9827    0.0000 C   0  0  0  0  0  0  0  0  0  0  0  0
    7.2622   -0.9827    0.0000 C   0  0  0  0  0  0  0  0  0  0  0  0
    8.1282    3.5173    0.0000 C   0  0  0  0  0  0  0  0  0  0  0  0
    8.9942    2.0173    0.0000 C   0  0  0  0  0  0  0  0  0  0  0  0
    6.3961   -2.4827    0.0000 C   0  0  0  0  0  0  0  0  0  0  0  0
    4.6641   -2.4827    0.0000 C   0  0  0  0  0  0  0  0  0  0  0  0
    6.3961   -3.4827    0.0000 C   0  0  0  0  0  0  0  0  0  0  0  0
    4.6641   -3.4827    0.0000 C   0  0  0  0  0  0  0  0  0  0  0  0
    9.8602    2.5173    0.0000 C   0  0  0  0  0  0  0  0  0  0  0  0
    8.9942    4.0173    0.0000 C   0  0  0  0  0  0  0  0  0  0  0  0
    7.2901   -1.9480    0.0000 C   0  0  0  0  0  0  0  0  0  0  0  0
    3.7702   -1.9480    0.0000 C   0  0  0  0  0  0  0  0  0  0  0  0
    7.2901   -4.0173    0.0000 C   0  0  0  0  0  0  0  0  0  0  0  0
    3.7702   -4.0173    0.0000 C   0  0  0  0  0  0  0  0  0  0  0  0
    8.1962   -2.4618    0.0000 C   0  0  0  0  0  0  0  0  0  0  0  0
    8.1962   -3.5035    0.0000 C   0  0  0  0  0  0  0  0  0  0  0  0
    2.8641   -2.4618    0.0000 C   0  0  0  0  0  0  0  0  0  0  0  0
    2.8641   -3.5035    0.0000 C   0  0  0  0  0  0  0  0  0  0  0  0
    9.9282   -2.4552    0.0000 C   0  0  0  0  0  0  0  0  0  0  0  0
    5.8592   -0.1727    0.0000 H   0  0  0  0  0  0  0  0  0  0  0  0
    6.1841    1.0999    0.0000 H   0  0  0  0  0  0  0  0  0  0  0  0
    5.7856    0.4097    0.0000 H   0  0  0  0  0  0  0  0  0  0  0  0
    7.4742    0.4347    0.0000 H   0  0  0  0  0  0  0  0  0  0  0  0
    7.8728    1.1250    0.0000 H   0  0  0  0  0  0  0  0  0  0  0  0
    7.0501    2.5999    0.0000 H   0  0  0  0  0  0  0  0  0  0  0  0
    6.6516    1.9097    0.0000 H   0  0  0  0  0  0  0  0  0  0  0  0
    4.9932   -0.6727    0.0000 H   0  0  0  0  0  0  0  0  0  0  0  0
    6.9522   -1.5196    0.0000 H   0  0  0  0  0  0  0  0  0  0  0  0
    7.7991   -1.2927    0.0000 H   0  0  0  0  0  0  0  0  0  0  0  0
    7.5722   -0.4457    0.0000 H   0  0  0  0  0  0  0  0  0  0  0  0
    7.9162    4.0999    0.0000 H   0  0  0  0  0  0  0  0  0  0  0  0
    7.5176    3.4097    0.0000 H   0  0  0  0  0  0  0  0  0  0  0  0
    8.5957    1.5424    0.0000 H   0  0  0  0  0  0  0  0  0  0  0  0
    9.3928    1.5424    0.0000 H   0  0  0  0  0  0  0  0  0  0  0  0
    9.3042    3.4804    0.0000 H   0  0  0  0  0  0  0  0  0  0  0  0
   10.1703    1.9804    0.0000 H   0  0  0  0  0  0  0  0  0  0  0  0
   10.3972    2.8273    0.0000 H   0  0  0  0  0  0  0  0  0  0  0  0
    9.5502    3.0543    0.0000 H   0  0  0  0  0  0  0  0  0  0  0  0
    9.5312    4.3273    0.0000 H   0  0  0  0  0  0  0  0  0  0  0  0
    8.6842    4.5543    0.0000 H   0  0  0  0  0  0  0  0  0  0  0  0
    7.2829   -1.3280    0.0000 H   0  0  0  0  0  0  0  0  0  0  0  0
    3.7773   -1.3280    0.0000 H   0  0  0  0  0  0  0  0  0  0  0  0
    7.2829   -4.6373    0.0000 H   0  0  0  0  0  0  0  0  0  0  0  0
    3.7773   -4.6373    0.0000 H   0  0  0  0  0  0  0  0  0  0  0  0
    8.7319   -3.8156    0.0000 H   0  0  0  0  0  0  0  0  0  0  0  0
    2.3284   -3.8156    0.0000 H   0  0  0  0  0  0  0  0  0  0  0  0
    9.6203   -2.9933    0.0000 H   0  0  0  0  0  0  0  0  0  0  0  0
   10.4663   -2.7631    0.0000 H   0  0  0  0  0  0  0  0  0  0  0  0
   10.2361   -1.9170    0.0000 H   0  0  0  0  0  0  0  0  0  0  0  0
  1 26  1  0  0  0  0
  2 24  1  0  0  0  0
  2 28  1  0  0  0  0
  3  9  1  0  0  0  0
  3 12  1  0  0  0  0
  3 13  1  0  0  0  0
  4  6  1  0  0  0  0
  4 10  1  0  0  0  0
  4 36  1  0  0  0  0
  5 16  1  0  0  0  0
  5 17  2  0  0  0  0
  6  7  1  0  0  0  0
  6 11  1  0  0  0  0
  6 29  1  0  0  0  0
  7  8  1  0  0  0  0
  7 30  1  0  0  0  0
  7 31  1  0  0  0  0
  8  9  1  0  0  0  0
  8 32  1  0  0  0  0
  8 33  1  0  0  0  0
  9 34  1  0  0  0  0
  9 35  1  0  0  0  0
 10 14  1  0  0  0  0
 10 15  2  0  0  0  0
 11 37  1  0  0  0  0
 11 38  1  0  0  0  0
 11 39  1  0  0  0  0
 12 19  1  0  0  0  0
 12 40  1  0  0  0  0
 12 41  1  0  0  0  0
 13 18  1  0  0  0  0
 13 42  1  0  0  0  0
 13 43  1  0  0  0  0
 14 16  2  0  0  0  0
 14 20  1  0  0  0  0
 15 17  1  0  0  0  0
 15 21  1  0  0  0  0
 16 22  1  0  0  0  0
 17 23  1  0  0  0  0
 18 45  1  0  0  0  0
 18 46  1  0  0  0  0
 18 47  1  0  0  0  0
 19 44  1  0  0  0  0
 19 48  1  0  0  0  0
 19 49  1  0  0  0  0
 20 24  2  0  0  0  0
 20 50  1  0  0  0  0
 21 26  2  0  0  0  0
 21 51  1  0  0  0  0
 22 25  2  0  0  0  0
 22 52  1  0  0  0  0
 23 27  2  0  0  0  0
 23 53  1  0  0  0  0
 24 25  1  0  0  0  0
 25 54  1  0  0  0  0
 26 27  1  0  0  0  0
 27 55  1  0  0  0  0
 28 56  1  0  0  0  0
 28 57  1  0  0  0  0
 28 58  1  0  0  0  0
M  END
> <PUBCHEM_COMPOUND_CID>
9421

> <PUBCHEM_COMPOUND_CANONICALIZED>
1

> <PUBCHEM_CACTVS_COMPLEXITY>
461

> <PUBCHEM_CACTVS_HBOND_ACCEPTOR>
4

> <PUBCHEM_CACTVS_HBOND_DONOR>
1

> <PUBCHEM_CACTVS_ROTATABLE_BOND>
9

> <PUBCHEM_CACTVS_SUBSKEYS>
AAADceB7IAAEAAAAAAAAAAAAAAAAAAAAAAA8YIAAAAAAAACx/AAAHgIQAAAADC7BniYyxvPIFACgAyRiRACCiCAhJyAImKA+bpgMJuLF89uENChk0BHI6AewwPAOAEBBIAACAAAAgIJAAAQAAAAAAAAAAA==

> <PUBCHEM_IUPAC_OPENEYE_NAME>
N4-(2-chloro-7-methoxy-acridin-9-yl)-N1,N1-diethyl-pentane-1,4-diamine

> <PUBCHEM_IUPAC_CAS_NAME>
N4-(2-chloro-7-methoxy-9-acridinyl)-N1,N1-diethylpentane-1,4-diamine

> <PUBCHEM_IUPAC_NAME>
4-N-(2-chloro-7-methoxyacridin-9-yl)-1-N,1-N-diethylpentane-1,4-diamine

> <PUBCHEM_IUPAC_SYSTEMATIC_NAME>
N4-(2-chloranyl-7-methoxy-acridin-9-yl)-N1,N1-diethyl-pentane-1,4-diamine

> <PUBCHEM_IUPAC_TRADITIONAL_NAME>
4-[(2-chloro-7-methoxy-acridin-9-yl)amino]pentyl-diethyl-amine

> <PUBCHEM_IUPAC_INCHI>
InChI=1S/C23H30ClN3O/c1-5-27(6-2)13-7-8-16(3)25-23-19-14-17(24)9-11-21(19)26-22-12-10-18(28-4)15-20(22)23/h9-12,14-16H,5-8,13H2,1-4H3,(H,25,26)

> <PUBCHEM_IUPAC_INCHIKEY>
SVUDQUZYHLUPQN-UHFFFAOYSA-N

> <PUBCHEM_XLOGP3_AA>
6

> <PUBCHEM_EXACT_MASS>
399.20774

> <PUBCHEM_MOLECULAR_FORMULA>
C23H30ClN3O

> <PUBCHEM_MOLECULAR_WEIGHT>
399.9568

> <PUBCHEM_OPENEYE_CAN_SMILES>
CCN(CC)CCCC(C)NC1=C2C=C(C=CC2=NC3=C1C=C(C=C3)OC)Cl

> <PUBCHEM_OPENEYE_ISO_SMILES>
CCN(CC)CCCC(C)NC1=C2C=C(C=CC2=NC3=C1C=C(C=C3)OC)Cl

> <PUBCHEM_CACTVS_TPSA>
37.4

> <PUBCHEM_MONOISOTOPIC_WEIGHT>
399.20774

> <PUBCHEM_TOTAL_CHARGE>
0

> <PUBCHEM_HEAVY_ATOM_COUNT>
28

> <PUBCHEM_ATOM_DEF_STEREO_COUNT>
0

> <PUBCHEM_ATOM_UDEF_STEREO_COUNT>
1

> <PUBCHEM_BOND_DEF_STEREO_COUNT>
0

> <PUBCHEM_BOND_UDEF_STEREO_COUNT>
0

> <PUBCHEM_ISOTOPIC_ATOM_COUNT>
0

> <PUBCHEM_COMPONENT_COUNT>
1

> <PUBCHEM_CACTVS_TAUTO_COUNT>
2

> <PUBCHEM_COORDINATE_TYPE>
1
5
255

> <PUBCHEM_BONDANNOTATIONS>
10  14  8
10  15  8
14  16  8
14  20  8
15  17  8
15  21  8
16  22  8
17  23  8
20  24  8
21  26  8
22  25  8
23  27  8
24  25  8
26  27  8
5  16  8
5  17  8
6  11  3

$$$$

