4833
  -OEChem-06261200212D

 84 92  0     1  0  0  0  0  0999 V2000
    2.0769   -4.1356    0.0000 O   0  0  0  0  0  0  0  0  0  0  0  0
    5.6147   -4.0060    0.0000 O   0  0  0  0  0  0  0  0  0  0  0  0
    5.6147    4.0060    0.0000 O   0  0  0  0  0  0  0  0  0  0  0  0
    2.0769    4.1356    0.0000 O   0  0  0  0  0  0  0  0  0  0  0  0
    3.8470   -4.1018    0.0000 N   0  0  0  0  0  0  0  0  0  0  0  0
    3.0730   -6.6318    0.0000 N   0  0  0  0  0  0  0  0  0  0  0  0
    3.8470    4.1018    0.0000 N   0  0  0  0  0  0  0  0  0  0  0  0
    3.0730    6.6318    0.0000 N   0  0  0  0  0  0  0  0  0  0  0  0
    4.6501   -0.5000    0.0000 C   0  0  3  0  0  0  0  0  0  0  0  0
    3.7841   -1.0000    0.0000 C   0  0  0  0  0  0  0  0  0  0  0  0
    3.8001   -2.0415    0.0000 C   0  0  0  0  0  0  0  0  0  0  0  0
    2.9021   -2.5693    0.0000 C   0  0  3  0  0  0  0  0  0  0  0  0
    4.6501    0.5000    0.0000 C   0  0  0  0  0  0  0  0  0  0  0  0
    2.9180   -0.5000    0.0000 C   0  0  0  0  0  0  0  0  0  0  0  0
    3.7841    1.0000    0.0000 C   0  0  0  0  0  0  0  0  0  0  0  0
    2.9180    0.5000    0.0000 C   0  0  0  0  0  0  0  0  0  0  0  0
    4.6772   -2.5043    0.0000 C   0  0  0  0  0  0  0  0  0  0  0  0
    3.8001    2.0415    0.0000 C   0  0  0  0  0  0  0  0  0  0  0  0
    5.5095   -0.9948    0.0000 C   0  0  0  0  0  0  0  0  0  0  0  0
    2.9282   -3.6107    0.0000 C   0  0  0  0  0  0  0  0  0  0  0  0
    2.0000   -2.0484    0.0000 C   0  0  0  0  0  0  0  0  0  0  0  0
    2.0080   -1.0068    0.0000 C   0  0  0  0  0  0  0  0  0  0  0  0
    5.5230   -1.9864    0.0000 C   0  0  0  0  0  0  0  0  0  0  0  0
    4.7274   -3.5449    0.0000 C   0  0  0  0  0  0  0  0  0  0  0  0
    4.6772    2.5043    0.0000 C   0  0  0  0  0  0  0  0  0  0  0  0
    2.9021    2.5693    0.0000 C   0  0  0  0  0  0  0  0  0  0  0  0
    3.8836   -5.1012    0.0000 C   0  0  0  0  0  0  0  0  0  0  0  0
    5.5095    0.9948    0.0000 C   0  0  0  0  0  0  0  0  0  0  0  0
    3.0364   -5.6325    0.0000 C   0  0  0  0  0  0  0  0  0  0  0  0
    2.0080    1.0068    0.0000 C   0  0  0  0  0  0  0  0  0  0  0  0
    5.5230    1.9864    0.0000 C   0  0  0  0  0  0  0  0  0  0  0  0
    2.2258   -7.1632    0.0000 C   0  0  0  0  0  0  0  0  0  0  0  0
    3.9567   -7.0998    0.0000 C   0  0  0  0  0  0  0  0  0  0  0  0
    2.0000    2.0484    0.0000 C   0  0  0  0  0  0  0  0  0  0  0  0
    2.2624   -8.1625    0.0000 C   0  0  0  0  0  0  0  0  0  0  0  0
    3.9933   -8.0992    0.0000 C   0  0  0  0  0  0  0  0  0  0  0  0
    3.8836    5.1012    0.0000 C   0  0  0  0  0  0  0  0  0  0  0  0
    4.7274    3.5449    0.0000 C   0  0  0  0  0  0  0  0  0  0  0  0
    3.0364    5.6325    0.0000 C   0  0  0  0  0  0  0  0  0  0  0  0
    2.9282    3.6107    0.0000 C   0  0  0  0  0  0  0  0  0  0  0  0
    3.1462   -8.6305    0.0000 C   0  0  0  0  0  0  0  0  0  0  0  0
    3.9567    7.0998    0.0000 C   0  0  0  0  0  0  0  0  0  0  0  0
    2.2258    7.1632    0.0000 C   0  0  0  0  0  0  0  0  0  0  0  0
    2.2624    8.1625    0.0000 C   0  0  0  0  0  0  0  0  0  0  0  0
    3.9933    8.0992    0.0000 C   0  0  0  0  0  0  0  0  0  0  0  0
    3.1462    8.6305    0.0000 C   0  0  0  0  0  0  0  0  0  0  0  0
    5.1868   -0.1897    0.0000 H   0  0  0  0  0  0  0  0  0  0  0  0
    2.3691   -2.8860    0.0000 H   0  0  0  0  0  0  0  0  0  0  0  0
    6.0442   -0.6808    0.0000 H   0  0  0  0  0  0  0  0  0  0  0  0
    1.4619   -2.3564    0.0000 H   0  0  0  0  0  0  0  0  0  0  0  0
    1.4747   -0.6907    0.0000 H   0  0  0  0  0  0  0  0  0  0  0  0
    6.0659   -2.2858    0.0000 H   0  0  0  0  0  0  0  0  0  0  0  0
    4.1168   -5.6756    0.0000 H   0  0  0  0  0  0  0  0  0  0  0  0
    4.4898   -4.9712    0.0000 H   0  0  0  0  0  0  0  0  0  0  0  0
    6.0442    0.6808    0.0000 H   0  0  0  0  0  0  0  0  0  0  0  0
    2.8032   -5.0581    0.0000 H   0  0  0  0  0  0  0  0  0  0  0  0
    2.4302   -5.7624    0.0000 H   0  0  0  0  0  0  0  0  0  0  0  0
    1.4747    0.6907    0.0000 H   0  0  0  0  0  0  0  0  0  0  0  0
    6.0659    2.2858    0.0000 H   0  0  0  0  0  0  0  0  0  0  0  0
    1.9926   -6.5887    0.0000 H   0  0  0  0  0  0  0  0  0  0  0  0
    4.5708   -7.1851    0.0000 H   0  0  0  0  0  0  0  0  0  0  0  0
    4.1473   -6.5098    0.0000 H   0  0  0  0  0  0  0  0  0  0  0  0
    1.6196   -7.2931    0.0000 H   0  0  0  0  0  0  0  0  0  0  0  0
    1.4619    2.3564    0.0000 H   0  0  0  0  0  0  0  0  0  0  0  0
    4.2266   -8.6736    0.0000 H   0  0  0  0  0  0  0  0  0  0  0  0
    4.5996   -7.9692    0.0000 H   0  0  0  0  0  0  0  0  0  0  0  0
    1.6483   -8.0773    0.0000 H   0  0  0  0  0  0  0  0  0  0  0  0
    2.0718   -8.7525    0.0000 H   0  0  0  0  0  0  0  0  0  0  0  0
    4.4898    4.9712    0.0000 H   0  0  0  0  0  0  0  0  0  0  0  0
    4.1168    5.6756    0.0000 H   0  0  0  0  0  0  0  0  0  0  0  0
    2.4302    5.7624    0.0000 H   0  0  0  0  0  0  0  0  0  0  0  0
    2.8032    5.0581    0.0000 H   0  0  0  0  0  0  0  0  0  0  0  0
    2.7653   -9.1197    0.0000 H   0  0  0  0  0  0  0  0  0  0  0  0
    3.5618   -9.0906    0.0000 H   0  0  0  0  0  0  0  0  0  0  0  0
    1.6196    7.2931    0.0000 H   0  0  0  0  0  0  0  0  0  0  0  0
    1.9926    6.5887    0.0000 H   0  0  0  0  0  0  0  0  0  0  0  0
    4.1473    6.5098    0.0000 H   0  0  0  0  0  0  0  0  0  0  0  0
    4.5708    7.1851    0.0000 H   0  0  0  0  0  0  0  0  0  0  0  0
    2.0718    8.7525    0.0000 H   0  0  0  0  0  0  0  0  0  0  0  0
    4.5996    7.9692    0.0000 H   0  0  0  0  0  0  0  0  0  0  0  0
    4.2266    8.6736    0.0000 H   0  0  0  0  0  0  0  0  0  0  0  0
    1.6483    8.0773    0.0000 H   0  0  0  0  0  0  0  0  0  0  0  0
    3.5618    9.0906    0.0000 H   0  0  0  0  0  0  0  0  0  0  0  0
    2.7653    9.1197    0.0000 H   0  0  0  0  0  0  0  0  0  0  0  0
  1 20  2  0  0  0  0
  2 24  2  0  0  0  0
  3 38  2  0  0  0  0
  4 40  2  0  0  0  0
  5 20  1  0  0  0  0
  5 24  1  0  0  0  0
  5 27  1  0  0  0  0
  6 29  1  0  0  0  0
  6 32  1  0  0  0  0
  6 33  1  0  0  0  0
  7 37  1  0  0  0  0
  7 38  1  0  0  0  0
  7 40  1  0  0  0  0
  8 39  1  0  0  0  0
  8 42  1  0  0  0  0
  8 43  1  0  0  0  0
  9 10  1  0  0  0  0
  9 13  1  0  0  0  0
  9 19  1  0  0  0  0
  9 47  1  0  0  0  0
 10 11  1  0  0  0  0
 10 14  2  0  0  0  0
 11 12  1  0  0  0  0
 11 17  2  0  0  0  0
 12 20  1  0  0  0  0
 12 21  1  0  0  0  0
 12 48  1  0  0  0  0
 13 15  2  0  0  0  0
 13 28  1  0  0  0  0
 14 16  1  0  0  0  0
 14 22  1  0  0  0  0
 15 16  1  0  0  0  0
 15 18  1  0  0  0  0
 16 30  2  0  0  0  0
 17 23  1  0  0  0  0
 17 24  1  0  0  0  0
 18 25  2  0  0  0  0
 18 26  1  0  0  0  0
 19 23  2  0  0  0  0
 19 49  1  0  0  0  0
 21 22  2  0  0  0  0
 21 50  1  0  0  0  0
 22 51  1  0  0  0  0
 23 52  1  0  0  0  0
 25 31  1  0  0  0  0
 25 38  1  0  0  0  0
 26 34  2  0  0  0  0
 26 40  1  0  0  0  0
 27 29  1  0  0  0  0
 27 53  1  0  0  0  0
 27 54  1  0  0  0  0
 28 31  2  0  0  0  0
 28 55  1  0  0  0  0
 29 56  1  0  0  0  0
 29 57  1  0  0  0  0
 30 34  1  0  0  0  0
 30 58  1  0  0  0  0
 31 59  1  0  0  0  0
 32 35  1  0  0  0  0
 32 60  1  0  0  0  0
 32 63  1  0  0  0  0
 33 36  1  0  0  0  0
 33 61  1  0  0  0  0
 33 62  1  0  0  0  0
 34 64  1  0  0  0  0
 35 41  1  0  0  0  0
 35 67  1  0  0  0  0
 35 68  1  0  0  0  0
 36 41  1  0  0  0  0
 36 65  1  0  0  0  0
 36 66  1  0  0  0  0
 37 39  1  0  0  0  0
 37 69  1  0  0  0  0
 37 70  1  0  0  0  0
 39 71  1  0  0  0  0
 39 72  1  0  0  0  0
 41 73  1  0  0  0  0
 41 74  1  0  0  0  0
 42 45  1  0  0  0  0
 42 77  1  0  0  0  0
 42 78  1  0  0  0  0
 43 44  1  0  0  0  0
 43 75  1  0  0  0  0
 43 76  1  0  0  0  0
 44 46  1  0  0  0  0
 44 79  1  0  0  0  0
 44 82  1  0  0  0  0
 45 46  1  0  0  0  0
 45 80  1  0  0  0  0
 45 81  1  0  0  0  0
 46 83  1  0  0  0  0
 46 84  1  0  0  0  0
M  END
> <PUBCHEM_COMPOUND_CID>
4833

> <PUBCHEM_COMPOUND_CANONICALIZED>
1

> <PUBCHEM_CACTVS_COMPLEXITY>
1480

> <PUBCHEM_CACTVS_HBOND_ACCEPTOR>
6

> <PUBCHEM_CACTVS_HBOND_DONOR>
0

> <PUBCHEM_CACTVS_ROTATABLE_BOND>
6

> <PUBCHEM_CACTVS_SUBSKEYS>
AAADcfB/uAAAAAAAAAAAAAAAAAAAAAAAAAA8eLECAAAAAACxQAAAHgAAAAAADQDBmAQwAMMAAACIAiFSEACCAAAkAAAIiAEIBMgIYDKAlRGUIQhghiCIiYcYi8COwAACAAAQAACAAAQAACAAAAAAAAAAAA==

> <PUBCHEM_IUPAC_INCHI>
InChI=1S/C38H38N4O4/c43-35-27-11-7-23-25-9-13-29-34-30(38(46)42(37(29)45)22-20-40-17-5-2-6-18-40)14-10-26(32(25)34)24-8-12-28(33(27)31(23)24)36(44)41(35)21-19-39-15-3-1-4-16-39/h7-14,23,28H,1-6,15-22H2

> <PUBCHEM_IUPAC_INCHIKEY>
KFRQKIBLZPTZAS-UHFFFAOYSA-N

> <PUBCHEM_XLOGP3_AA>
3.7

> <PUBCHEM_EXACT_MASS>
614.289306

> <PUBCHEM_MOLECULAR_FORMULA>
C38H38N4O4

> <PUBCHEM_MOLECULAR_WEIGHT>
614.73272

> <PUBCHEM_OPENEYE_CAN_SMILES>
C1CCN(CC1)CCN2C(=O)C3C=CC4=C5C3=C(C2=O)C=CC5C6=CC=C7C8=C(C=CC4=C68)C(=O)N(C7=O)CCN9CCCCC9

> <PUBCHEM_OPENEYE_ISO_SMILES>
C1CCN(CC1)CCN2C(=O)C3C=CC4=C5C3=C(C2=O)C=CC5C6=CC=C7C8=C(C=CC4=C68)C(=O)N(C7=O)CCN9CCCCC9

> <PUBCHEM_CACTVS_TPSA>
81.2

> <PUBCHEM_MONOISOTOPIC_WEIGHT>
614.289306

> <PUBCHEM_TOTAL_CHARGE>
0

> <PUBCHEM_HEAVY_ATOM_COUNT>
46

> <PUBCHEM_ATOM_DEF_STEREO_COUNT>
0

> <PUBCHEM_ATOM_UDEF_STEREO_COUNT>
2

> <PUBCHEM_BOND_DEF_STEREO_COUNT>
0

> <PUBCHEM_BOND_UDEF_STEREO_COUNT>
0

> <PUBCHEM_ISOTOPIC_ATOM_COUNT>
0

> <PUBCHEM_COMPONENT_COUNT>
1

> <PUBCHEM_CACTVS_TAUTO_COUNT>
18

> <PUBCHEM_COORDINATE_TYPE>
1
5
255

> <PUBCHEM_BONDANNOTATIONS>
12  21  3
13  15  8
13  28  8
15  16  8
15  18  8
16  30  8
18  25  8
18  26  8
25  31  8
26  34  8
28  31  8
30  34  8
9  19  3

$$$$

