3401
  -OEChem-06251223233D

 42 45  0     1  0  0  0  0  0999 V2000
    0.3985   -0.6795    2.4303 F   0  0  0  0  0  0  0  0  0  0  0  0
    4.9491    1.8574    0.2885 F   0  0  0  0  0  0  0  0  0  0  0  0
   -0.7599    0.0447   -1.6846 N   0  0  0  0  0  0  0  0  0  0  0  0
   -1.9719   -0.2694   -3.4119 N   0  0  0  0  0  0  0  0  0  0  0  0
   -0.3377    0.0161   -0.2081 C   0  0  2  0  0  0  0  0  0  0  0  0
    1.1737    0.5426   -0.0660 C   0  0  0  0  0  0  0  0  0  0  0  0
   -0.1169   -1.5040    0.2636 C   0  0  0  0  0  0  0  0  0  0  0  0
   -1.3955    0.7966    0.4966 C   0  0  0  0  0  0  0  0  0  0  0  0
    1.3385    1.6441    0.6802 C   0  0  0  0  0  0  0  0  0  0  0  0
    2.1036   -0.1781   -0.7093 C   0  0  0  0  0  0  0  0  0  0  0  0
    0.2303   -1.6738    1.5475 C   0  0  0  0  0  0  0  0  0  0  0  0
   -0.3043   -2.4369   -0.6817 C   0  0  0  0  0  0  0  0  0  0  0  0
   -0.0103    0.5571   -2.6333 C   0  0  0  0  0  0  0  0  0  0  0  0
   -1.5979    2.1401    0.1805 C   0  0  0  0  0  0  0  0  0  0  0  0
   -2.1825    0.1832    1.4712 C   0  0  0  0  0  0  0  0  0  0  0  0
   -1.9037   -0.4420   -2.1105 C   0  0  0  0  0  0  0  0  0  0  0  0
   -0.7943    0.3524   -3.7442 C   0  0  0  0  0  0  0  0  0  0  0  0
    2.6507    2.1009    0.8035 C   0  0  0  0  0  0  0  0  0  0  0  0
    3.4158    0.2785   -0.5861 C   0  0  0  0  0  0  0  0  0  0  0  0
    0.4215   -2.9947    1.9536 C   0  0  0  0  0  0  0  0  0  0  0  0
   -0.1129   -3.7575   -0.2755 C   0  0  0  0  0  0  0  0  0  0  0  0
   -2.5873    2.8702    0.8393 C   0  0  0  0  0  0  0  0  0  0  0  0
   -3.1719    0.9134    2.1298 C   0  0  0  0  0  0  0  0  0  0  0  0
    3.6894    1.4182    0.1705 C   0  0  0  0  0  0  0  0  0  0  0  0
    0.2500   -4.0364    1.0419 C   0  0  0  0  0  0  0  0  0  0  0  0
   -3.3742    2.2568    1.8138 C   0  0  0  0  0  0  0  0  0  0  0  0
    0.5901    2.1778    1.2433 H   0  0  0  0  0  0  0  0  0  0  0  0
    1.9283   -1.0542   -1.3195 H   0  0  0  0  0  0  0  0  0  0  0  0
   -0.5087   -2.3138   -1.7316 H   0  0  0  0  0  0  0  0  0  0  0  0
    0.9367    1.0693   -2.5595 H   0  0  0  0  0  0  0  0  0  0  0  0
   -1.0135    2.6424   -0.5860 H   0  0  0  0  0  0  0  0  0  0  0  0
   -2.1216   -0.8673    1.7261 H   0  0  0  0  0  0  0  0  0  0  0  0
   -2.6768   -0.9009   -1.5078 H   0  0  0  0  0  0  0  0  0  0  0  0
   -0.5778    0.6352   -4.7640 H   0  0  0  0  0  0  0  0  0  0  0  0
    2.8669    2.9803    1.4033 H   0  0  0  0  0  0  0  0  0  0  0  0
    4.2245   -0.2500   -1.0823 H   0  0  0  0  0  0  0  0  0  0  0  0
    0.7052   -3.2114    2.9793 H   0  0  0  0  0  0  0  0  0  0  0  0
   -0.2293   -4.5689   -0.9884 H   0  0  0  0  0  0  0  0  0  0  0  0
   -2.7480    3.9150    0.5901 H   0  0  0  0  0  0  0  0  0  0  0  0
   -3.7944    0.4332    2.8793 H   0  0  0  0  0  0  0  0  0  0  0  0
    0.4030   -5.0644    1.3571 H   0  0  0  0  0  0  0  0  0  0  0  0
   -4.1473    2.8242    2.3238 H   0  0  0  0  0  0  0  0  0  0  0  0
  1 11  1  0  0  0  0
  2 24  1  0  0  0  0
  3  5  1  0  0  0  0
  3 13  1  0  0  0  0
  3 16  1  0  0  0  0
  4 16  2  0  0  0  0
  4 17  1  0  0  0  0
  5  6  1  0  0  0  0
  5  7  1  0  0  0  0
  5  8  1  0  0  0  0
  6  9  2  0  0  0  0
  6 10  1  0  0  0  0
  7 11  1  0  0  0  0
  7 12  2  0  0  0  0
  8 14  2  0  0  0  0
  8 15  1  0  0  0  0
  9 18  1  0  0  0  0
  9 27  1  0  0  0  0
 10 19  2  0  0  0  0
 10 28  1  0  0  0  0
 11 20  2  0  0  0  0
 12 21  1  0  0  0  0
 12 29  1  0  0  0  0
 13 17  2  0  0  0  0
 13 30  1  0  0  0  0
 14 22  1  0  0  0  0
 14 31  1  0  0  0  0
 15 23  2  0  0  0  0
 15 32  1  0  0  0  0
 16 33  1  0  0  0  0
 17 34  1  0  0  0  0
 18 24  2  0  0  0  0
 18 35  1  0  0  0  0
 19 24  1  0  0  0  0
 19 36  1  0  0  0  0
 20 25  1  0  0  0  0
 20 37  1  0  0  0  0
 21 25  2  0  0  0  0
 21 38  1  0  0  0  0
 22 26  2  0  0  0  0
 22 39  1  0  0  0  0
 23 26  1  0  0  0  0
 23 40  1  0  0  0  0
 25 41  1  0  0  0  0
 26 42  1  0  0  0  0
M  END
> <PUBCHEM_COMPOUND_CID>
3401

> <PUBCHEM_CONFORMER_RMSD>
0.8

> <PUBCHEM_CONFORMER_DIVERSEORDER>
2
10
4
12
11
3
6
9
1
13
8
7
5

> <PUBCHEM_MMFF94_PARTIAL_CHARGES>
42
1 -0.19
10 -0.15
11 0.19
12 -0.15
13 -0.3
14 -0.15
15 -0.15
16 0.04
17 0.08
18 -0.15
19 -0.15
2 -0.19
20 -0.15
21 -0.15
22 -0.15
23 -0.15
24 0.19
25 -0.15
26 -0.15
27 0.15
28 0.15
29 0.15
3 0.05
30 0.15
31 0.15
32 0.15
33 0.15
34 0.15
35 0.15
36 0.15
37 0.15
38 0.15
39 0.15
4 -0.57
40 0.15
41 0.15
42 0.15
5 0.69
6 -0.14
7 -0.14
8 -0.14
9 -0.15

> <PUBCHEM_EFFECTIVE_ROTOR_COUNT>
4

> <PUBCHEM_PHARMACOPHORE_FEATURES>
5
3 3 4 16 cation
5 3 4 13 16 17 rings
6 6 9 10 18 19 24 rings
6 7 11 12 20 21 25 rings
6 8 14 15 22 23 26 rings

> <PUBCHEM_HEAVY_ATOM_COUNT>
26

> <PUBCHEM_ATOM_DEF_STEREO_COUNT>
0

> <PUBCHEM_ATOM_UDEF_STEREO_COUNT>
1

> <PUBCHEM_BOND_DEF_STEREO_COUNT>
0

> <PUBCHEM_BOND_UDEF_STEREO_COUNT>
0

> <PUBCHEM_ISOTOPIC_ATOM_COUNT>
0

> <PUBCHEM_COMPONENT_COUNT>
1

> <PUBCHEM_CACTVS_TAUTO_COUNT>
1

> <PUBCHEM_CONFORMER_ID>
00000D4900000002

> <PUBCHEM_MMFF94_ENERGY>
127.6081

> <PUBCHEM_FEATURE_SELFOVERLAP>
25.372

> <PUBCHEM_SHAPE_FINGERPRINT>
10863032 1 18188756349016509099
10948715 1 18042107890429582425
11578080 2 16409832473317921236
11582403 64 17895464938038071809
12035759 4 17970655041062327437
12082328 90 17903618707178297764
12788726 201 17969513605904996178
12930653 34 18268129003031817953
13004483 165 17685772420166810506
13149001 5 17110770715297537591
133893 2 17910986812607361394
14713325 29 17168138992733616645
14817 1 6242253387354327191
14863182 85 17841390905324955659
14955137 171 17903918108461511594
16945 1 17898553530651286728
17980427 23 17344887686528810925
17980427 26 18265891539591807724
20600515 1 17266660552063282990
20602899 9 17983610474860856286
20905425 154 17398647478165444168
21330990 113 17485901310889050414
21524375 3 17822282517988470017
21756936 100 18335413540000709048
22149856 69 4672307292564201463
23419403 2 17270319043575482087
23559900 14 17126163114241983209
25222932 49 18334003975216110619
266924 78 17980791494529695565
298252 57 17168417259401353176
394222 165 17628115378730094387
469060 322 16843896243486056715
68419 9 17608125183637448741
7364860 26 17907279298068738731
81228 2 18052533270895302794
9981440 41 17271769136599978620
9999458 23 18124009459347342396

> <PUBCHEM_SHAPE_MULTIPOLES>
510.56
4.72
3.91
3.06
0.75
3.55
3.45
-5.42
-2.34
2.05
-1.95
-1.87
0.51
-0.68

> <PUBCHEM_SHAPE_SELFOVERLAP>
1160.315

> <PUBCHEM_SHAPE_VOLUME>
266.7

> <PUBCHEM_COORDINATE_TYPE>
2
5
10

$$$$

