47205772
  -OEChem-06241223003D

 38 38  0     0  0  0  0  0  0999 V2000
    2.1361    0.2834   -1.0365 S   0  0  0  0  0  0  0  0  0  0  0  0
   -0.8733    1.8089   -1.4319 O   0  0  0  0  0  0  0  0  0  0  0  0
   -0.4900   -2.6680   -1.0069 O   0  0  0  0  0  0  0  0  0  0  0  0
   -1.2691   -0.1241   -0.1391 N   0  0  0  0  0  0  0  0  0  0  0  0
    0.9753   -2.7915    0.7605 N   0  0  0  0  0  0  0  0  0  0  0  0
   -2.6310   -0.3283   -0.5490 C   0  0  0  0  0  0  0  0  0  0  0  0
   -3.6250    0.3945    0.3539 C   0  0  0  0  0  0  0  0  0  0  0  0
   -5.0783    0.1572   -0.0630 C   0  0  0  0  0  0  0  0  0  0  0  0
   -0.7208   -1.0920    0.8172 C   0  0  0  0  0  0  0  0  0  0  0  0
   -0.4982    0.9528   -0.6315 C   0  0  0  0  0  0  0  0  0  0  0  0
    0.8910    1.0666   -0.1598 C   0  0  0  0  0  0  0  0  0  0  0  0
   -6.0475    0.8398    0.8896 C   0  0  0  0  0  0  0  0  0  0  0  0
    3.3317    0.8486    0.0513 C   0  0  0  0  0  0  0  0  0  0  0  0
    1.3780    1.7433    0.9369 C   0  0  0  0  0  0  0  0  0  0  0  0
    4.7481    0.4854   -0.1711 C   0  0  0  0  0  0  0  0  0  0  0  0
   -0.0836   -2.2413    0.0704 C   0  0  0  0  0  0  0  0  0  0  0  0
    2.7918    1.6171    1.0592 C   0  0  0  0  0  0  0  0  0  0  0  0
    5.0648   -0.9524    0.2499 C   0  0  0  0  0  0  0  0  0  0  0  0
   -2.7449    0.0509   -1.5718 H   0  0  0  0  0  0  0  0  0  0  0  0
   -2.8476   -1.4021   -0.5821 H   0  0  0  0  0  0  0  0  0  0  0  0
   -3.4866    0.0608    1.3900 H   0  0  0  0  0  0  0  0  0  0  0  0
   -3.4130    1.4712    0.3465 H   0  0  0  0  0  0  0  0  0  0  0  0
   -5.2890   -0.9184   -0.0793 H   0  0  0  0  0  0  0  0  0  0  0  0
   -5.2393    0.5360   -1.0788 H   0  0  0  0  0  0  0  0  0  0  0  0
   -0.0028   -0.6147    1.4880 H   0  0  0  0  0  0  0  0  0  0  0  0
   -1.5300   -1.4879    1.4410 H   0  0  0  0  0  0  0  0  0  0  0  0
   -5.8814    1.9216    0.9092 H   0  0  0  0  0  0  0  0  0  0  0  0
   -7.0797    0.6601    0.5728 H   0  0  0  0  0  0  0  0  0  0  0  0
   -5.9331    0.4556    1.9082 H   0  0  0  0  0  0  0  0  0  0  0  0
    0.7530    2.3028    1.6212 H   0  0  0  0  0  0  0  0  0  0  0  0
    5.0180    0.6200   -1.2259 H   0  0  0  0  0  0  0  0  0  0  0  0
    5.3961    1.1645    0.3969 H   0  0  0  0  0  0  0  0  0  0  0  0
    3.3785    2.0684    1.8492 H   0  0  0  0  0  0  0  0  0  0  0  0
    4.8254   -1.1143    1.3065 H   0  0  0  0  0  0  0  0  0  0  0  0
    6.1297   -1.1604    0.1054 H   0  0  0  0  0  0  0  0  0  0  0  0
    4.4957   -1.6782   -0.3402 H   0  0  0  0  0  0  0  0  0  0  0  0
    1.4888   -3.5805    0.3819 H   0  0  0  0  0  0  0  0  0  0  0  0
    1.2867   -2.4367    1.6590 H   0  0  0  0  0  0  0  0  0  0  0  0
  1 11  1  0  0  0  0
  1 13  1  0  0  0  0
  2 10  2  0  0  0  0
  3 16  2  0  0  0  0
  4  6  1  0  0  0  0
  4  9  1  0  0  0  0
  4 10  1  0  0  0  0
  5 16  1  0  0  0  0
  5 37  1  0  0  0  0
  5 38  1  0  0  0  0
  6  7  1  0  0  0  0
  6 19  1  0  0  0  0
  6 20  1  0  0  0  0
  7  8  1  0  0  0  0
  7 21  1  0  0  0  0
  7 22  1  0  0  0  0
  8 12  1  0  0  0  0
  8 23  1  0  0  0  0
  8 24  1  0  0  0  0
  9 16  1  0  0  0  0
  9 25  1  0  0  0  0
  9 26  1  0  0  0  0
 10 11  1  0  0  0  0
 11 14  2  0  0  0  0
 12 27  1  0  0  0  0
 12 28  1  0  0  0  0
 12 29  1  0  0  0  0
 13 15  1  0  0  0  0
 13 17  2  0  0  0  0
 14 17  1  0  0  0  0
 14 30  1  0  0  0  0
 15 18  1  0  0  0  0
 15 31  1  0  0  0  0
 15 32  1  0  0  0  0
 17 33  1  0  0  0  0
 18 34  1  0  0  0  0
 18 35  1  0  0  0  0
 18 36  1  0  0  0  0
M  END
> <PUBCHEM_COMPOUND_CID>
47205772

> <PUBCHEM_CONFORMER_RMSD>
1

> <PUBCHEM_CONFORMER_DIVERSEORDER>
2
48
71
50
36
40
66
73
39
96
56
43
91
70
77
47
44
97
94
87
55
26
62
12
34
42
19
89
82
68
46
79
81
85
51
67
63
17
93
95
32
90
74
33
53
35
100
54
6
75
80
99
5
78
25
58
21
4
14
83
60
88
84
69
59
52
20
23
65
3
98
38
10
37
92
45
41
76
8
72
30
49
18
86
16
64
31
61
13
29
27
11
22
15
1
24
28
57
9
7

> <PUBCHEM_MMFF94_PARTIAL_CHARGES>
18
1 -0.08
10 0.71
11 -0.05
13 -0.14
14 -0.15
15 0.18
16 0.57
17 -0.15
2 -0.57
3 -0.57
30 0.15
33 0.15
37 0.37
38 0.37
4 -0.66
5 -0.8
6 0.3
9 0.36

> <PUBCHEM_EFFECTIVE_ROTOR_COUNT>
8

> <PUBCHEM_PHARMACOPHORE_FEATURES>
6
1 12 hydrophobe
1 18 hydrophobe
1 2 acceptor
1 3 acceptor
1 5 donor
5 1 11 13 14 17 rings

> <PUBCHEM_HEAVY_ATOM_COUNT>
18

> <PUBCHEM_ATOM_DEF_STEREO_COUNT>
0

> <PUBCHEM_ATOM_UDEF_STEREO_COUNT>
0

> <PUBCHEM_BOND_DEF_STEREO_COUNT>
0

> <PUBCHEM_BOND_UDEF_STEREO_COUNT>
0

> <PUBCHEM_ISOTOPIC_ATOM_COUNT>
0

> <PUBCHEM_COMPONENT_COUNT>
1

> <PUBCHEM_CACTVS_TAUTO_COUNT>
6

> <PUBCHEM_CONFORMER_ID>
02D04D8C00000002

> <PUBCHEM_MMFF94_ENERGY>
29.7687

> <PUBCHEM_FEATURE_SELFOVERLAP>
30.446

> <PUBCHEM_SHAPE_MULTIPOLES>
352.58
10
2.36
1.09
7.74
1.79
-0.08
-2.47
1.98
-0.76
0.19
-0.01
-0.18
-0.05

> <PUBCHEM_SHAPE_SELFOVERLAP>
691.423

> <PUBCHEM_SHAPE_VOLUME>
212.5

> <PUBCHEM_COORDINATE_TYPE>
2
5
10

$$$$

