13535
  -OEChem-06241222393D

 25 24  0     1  0  0  0  0  0999 V2000
    0.0161    0.2640    0.6626 S   0  0  0  0  0  0  0  0  0  0  0  0
   -3.2373   -1.5989    0.9364 O   0  0  0  0  0  0  0  0  0  0  0  0
    3.1454   -1.6824    0.8616 O   0  0  0  0  0  0  0  0  0  0  0  0
   -2.8589   -1.1228   -1.2491 O   0  0  0  0  0  0  0  0  0  0  0  0
    2.8334   -1.0711   -1.3006 O   0  0  0  0  0  0  0  0  0  0  0  0
   -3.7831    1.4857   -0.2455 N   0  0  0  0  0  0  0  0  0  0  0  0
    3.8263    1.4583   -0.1682 N   0  0  0  0  0  0  0  0  0  0  0  0
   -1.3506    1.2210   -0.0680 C   0  0  0  0  0  0  0  0  0  0  0  0
    1.3896    1.2421    0.0144 C   0  0  0  0  0  0  0  0  0  0  0  0
   -2.7178    0.6810    0.3558 C   0  0  2  0  0  0  0  0  0  0  0  0
    2.7462    0.6481    0.3983 C   0  0  1  0  0  0  0  0  0  0  0  0
   -2.9286   -0.7564   -0.0817 C   0  0  0  0  0  0  0  0  0  0  0  0
    2.9196   -0.7687   -0.1160 C   0  0  0  0  0  0  0  0  0  0  0  0
   -1.2423    1.1826   -1.1582 H   0  0  0  0  0  0  0  0  0  0  0  0
   -1.2483    2.2651    0.2487 H   0  0  0  0  0  0  0  0  0  0  0  0
    1.3055    2.2632    0.4032 H   0  0  0  0  0  0  0  0  0  0  0  0
    1.2918    1.2860   -1.0768 H   0  0  0  0  0  0  0  0  0  0  0  0
   -2.8215    0.7381    1.4460 H   0  0  0  0  0  0  0  0  0  0  0  0
    2.8540    0.6475    1.4900 H   0  0  0  0  0  0  0  0  0  0  0  0
   -3.6785    1.4942   -1.2599 H   0  0  0  0  0  0  0  0  0  0  0  0
   -3.6837    2.4562    0.0509 H   0  0  0  0  0  0  0  0  0  0  0  0
    4.7241    1.1192    0.1759 H   0  0  0  0  0  0  0  0  0  0  0  0
    3.7416    2.4193    0.1612 H   0  0  0  0  0  0  0  0  0  0  0  0
   -3.3827   -2.5163    0.6209 H   0  0  0  0  0  0  0  0  0  0  0  0
    3.2370   -2.5898    0.5004 H   0  0  0  0  0  0  0  0  0  0  0  0
  1  8  1  0  0  0  0
  1  9  1  0  0  0  0
  2 12  1  0  0  0  0
  2 24  1  0  0  0  0
  3 13  1  0  0  0  0
  3 25  1  0  0  0  0
  4 12  2  0  0  0  0
  5 13  2  0  0  0  0
  6 10  1  0  0  0  0
  6 20  1  0  0  0  0
  6 21  1  0  0  0  0
  7 11  1  0  0  0  0
  7 22  1  0  0  0  0
  7 23  1  0  0  0  0
  8 10  1  0  0  0  0
  8 14  1  0  0  0  0
  8 15  1  0  0  0  0
  9 11  1  0  0  0  0
  9 16  1  0  0  0  0
  9 17  1  0  0  0  0
 10 12  1  0  0  0  0
 10 18  1  0  0  0  0
 11 13  1  0  0  0  0
 11 19  1  0  0  0  0
M  END
> <PUBCHEM_COMPOUND_CID>
13535

> <PUBCHEM_CONFORMER_RMSD>
0.6

> <PUBCHEM_CONFORMER_DIVERSEORDER>
1
60
19
34
47
27
33
35
18
44
62
29
10
11
6
8
58
59
38
13
21
4
52
15
63
51
31
40
14
12
36
45
37
3
22
56
43
57
42
5
20
23
55
2
49
30
65
46
28
48
54
16
64
24
61
53
25
7
39
50
26
32
9
41
17

> <PUBCHEM_MMFF94_PARTIAL_CHARGES>
19
1 -0.46
10 0.33
11 0.33
12 0.66
13 0.66
2 -0.65
20 0.36
21 0.36
22 0.36
23 0.36
24 0.5
25 0.5
3 -0.65
4 -0.57
5 -0.57
6 -0.99
7 -0.99
8 0.23
9 0.23

> <PUBCHEM_EFFECTIVE_ROTOR_COUNT>
6

> <PUBCHEM_PHARMACOPHORE_FEATURES>
10
1 2 acceptor
1 3 acceptor
1 4 acceptor
1 5 acceptor
1 6 cation
1 6 donor
1 7 cation
1 7 donor
3 2 4 12 anion
3 3 5 13 anion

> <PUBCHEM_HEAVY_ATOM_COUNT>
13

> <PUBCHEM_ATOM_DEF_STEREO_COUNT>
2

> <PUBCHEM_ATOM_UDEF_STEREO_COUNT>
0

> <PUBCHEM_BOND_DEF_STEREO_COUNT>
0

> <PUBCHEM_BOND_UDEF_STEREO_COUNT>
0

> <PUBCHEM_ISOTOPIC_ATOM_COUNT>
0

> <PUBCHEM_COMPONENT_COUNT>
1

> <PUBCHEM_CACTVS_TAUTO_COUNT>
1

> <PUBCHEM_CONFORMER_ID>
000034DF00000001

> <PUBCHEM_MMFF94_ENERGY>
16.064

> <PUBCHEM_FEATURE_SELFOVERLAP>
50.861

> <PUBCHEM_SHAPE_FINGERPRINT>
11769659 78 18335709342222830416
12932764 1 18129939091280570056
13296908 3 18409727365535261505
14251710 61 18335126601118540670
14325111 11 18410856559661187544
17834074 16 18410290294029644617
18186145 218 17203612605194683338
20279233 1 17240775002843870688
20281407 28 17603588516988482977
20442098 301 18040437685148853534
20645477 70 18260831535303876238
22169311 21 18113909263961849049
22485316 2 18410015446193058224
23402539 116 18131639976188018376
23402655 69 18411134766516146868
3248919 1 18202008685393806585
581208 293 18412830162112038464
93112 12 18412262869450945017

> <PUBCHEM_SHAPE_MULTIPOLES>
237.94
7.83
1.79
0.96
0.08
0.19
-0.11
0.79
-0.45
-0.01
0.02
0.01
0.36
0.07

> <PUBCHEM_SHAPE_SELFOVERLAP>
441.508

> <PUBCHEM_SHAPE_VOLUME>
149.8

> <PUBCHEM_COORDINATE_TYPE>
2
5
10

$$$$

