13578
  -OEChem-06241222393D

 18 17  0     0  0  0  0  0  0999 V2000
   -0.0074    0.3927   -0.0094 O   0  0  0  0  0  0  0  0  0  0  0  0
   -3.5751   -0.2930   -0.0001 O   0  0  0  0  0  0  0  0  0  0  0  0
    3.6072   -0.2780    0.0215 N   0  0  0  0  0  0  0  0  0  0  0  0
    1.1663   -0.4095   -0.0102 C   0  0  0  0  0  0  0  0  0  0  0  0
   -1.1838   -0.4045   -0.0069 C   0  0  0  0  0  0  0  0  0  0  0  0
    2.3903    0.4879   -0.0130 C   0  0  0  0  0  0  0  0  0  0  0  0
   -2.3975    0.5045    0.0180 C   0  0  0  0  0  0  0  0  0  0  0  0
    1.1689   -1.0474    0.8824 H   0  0  0  0  0  0  0  0  0  0  0  0
    1.1665   -1.0525   -0.8990 H   0  0  0  0  0  0  0  0  0  0  0  0
   -1.2087   -1.0399   -0.9004 H   0  0  0  0  0  0  0  0  0  0  0  0
   -1.1949   -1.0636    0.8698 H   0  0  0  0  0  0  0  0  0  0  0  0
    2.3726    1.1314   -0.9004 H   0  0  0  0  0  0  0  0  0  0  0  0
    2.3514    1.1625    0.8500 H   0  0  0  0  0  0  0  0  0  0  0  0
   -2.4070    1.1825   -0.8418 H   0  0  0  0  0  0  0  0  0  0  0  0
   -2.4033    1.1223    0.9216 H   0  0  0  0  0  0  0  0  0  0  0  0
    4.4105    0.3466   -0.0316 H   0  0  0  0  0  0  0  0  0  0  0  0
    3.6629   -0.8852   -0.7950 H   0  0  0  0  0  0  0  0  0  0  0  0
   -3.5684   -0.8068   -0.8257 H   0  0  0  0  0  0  0  0  0  0  0  0
  1  4  1  0  0  0  0
  1  5  1  0  0  0  0
  2  7  1  0  0  0  0
  2 18  1  0  0  0  0
  3  6  1  0  0  0  0
  3 16  1  0  0  0  0
  3 17  1  0  0  0  0
  4  6  1  0  0  0  0
  4  8  1  0  0  0  0
  4  9  1  0  0  0  0
  5  7  1  0  0  0  0
  5 10  1  0  0  0  0
  5 11  1  0  0  0  0
  6 12  1  0  0  0  0
  6 13  1  0  0  0  0
  7 14  1  0  0  0  0
  7 15  1  0  0  0  0
M  END
> <PUBCHEM_COMPOUND_CID>
13578

> <PUBCHEM_CONFORMER_RMSD>
0.6

> <PUBCHEM_CONFORMER_DIVERSEORDER>
2
16
25
26
5
20
13
1
27
24
4
23
17
11
18
3
6
14
8
21
15
22
10
19
12
7
9

> <PUBCHEM_MMFF94_PARTIAL_CHARGES>
10
1 -0.56
16 0.36
17 0.36
18 0.4
2 -0.68
3 -0.99
4 0.28
5 0.28
6 0.27
7 0.28

> <PUBCHEM_EFFECTIVE_ROTOR_COUNT>
4

> <PUBCHEM_PHARMACOPHORE_FEATURES>
5
1 1 acceptor
1 2 acceptor
1 2 donor
1 3 cation
1 3 donor

> <PUBCHEM_HEAVY_ATOM_COUNT>
7

> <PUBCHEM_ATOM_DEF_STEREO_COUNT>
0

> <PUBCHEM_ATOM_UDEF_STEREO_COUNT>
0

> <PUBCHEM_BOND_DEF_STEREO_COUNT>
0

> <PUBCHEM_BOND_UDEF_STEREO_COUNT>
0

> <PUBCHEM_ISOTOPIC_ATOM_COUNT>
0

> <PUBCHEM_COMPONENT_COUNT>
1

> <PUBCHEM_CACTVS_TAUTO_COUNT>
1

> <PUBCHEM_CONFORMER_ID>
0000350A00000002

> <PUBCHEM_MMFF94_ENERGY>
3.7229

> <PUBCHEM_FEATURE_SELFOVERLAP>
25.371

> <PUBCHEM_SHAPE_FINGERPRINT>
11062470 55 18410855464428455809
14325111 11 18410573993746679974
14390081 3 18334579044338256409
5460574 1 9367347033071947493

> <PUBCHEM_SHAPE_MULTIPOLES>
127.34
5.94
0.75
0.58
0.07
0.02
0
-0.17
0.04
-0.01
0
0.01
0
-0.01

> <PUBCHEM_SHAPE_SELFOVERLAP>
220.159

> <PUBCHEM_SHAPE_VOLUME>
85

> <PUBCHEM_COORDINATE_TYPE>
2
5
10

$$$$

