5767
  -OEChem-06261200522D

 56 60  0     1  0  0  0  0  0999 V2000
   12.1179    2.8348    0.0000 O   0  0  0  0  0  0  0  0  0  0  0  0
    5.4679   -1.4727    0.0000 O   0  0  0  0  0  0  0  0  0  0  0  0
    4.6077    0.0306    0.0000 O   0  0  0  0  0  0  0  0  0  0  0  0
   10.8610    1.5796    0.0000 C   0  0  1  0  0  0  0  0  0  0  0  0
   10.8610    0.5796    0.0000 C   0  0  2  0  0  0  0  0  0  0  0  0
    9.9950    0.0796    0.0000 C   0  0  1  0  0  0  0  0  0  0  0  0
    9.1290    0.5796    0.0000 C   0  0  2  0  0  0  0  0  0  0  0  0
   11.8072    1.8843    0.0000 C   0  0  1  0  0  0  0  0  0  0  0  0
    9.9950    2.0796    0.0000 C   0  0  0  0  0  0  0  0  0  0  0  0
   11.8072    0.2749    0.0000 C   0  0  0  0  0  0  0  0  0  0  0  0
    9.1290    1.5796    0.0000 C   0  0  0  0  0  0  0  0  0  0  0  0
   12.3908    1.0796    0.0000 C   0  0  0  0  0  0  0  0  0  0  0  0
   10.0110   -0.9619    0.0000 C   0  0  0  0  0  0  0  0  0  0  0  0
   10.8610    2.5796    0.0000 C   0  0  0  0  0  0  0  0  0  0  0  0
    8.2190    0.0728    0.0000 C   0  0  0  0  0  0  0  0  0  0  0  0
    9.1130   -1.4897    0.0000 C   0  0  0  0  0  0  0  0  0  0  0  0
    8.2109   -0.9688    0.0000 C   0  0  0  0  0  0  0  0  0  0  0  0
    7.2921    0.6368    0.0000 C   0  0  0  0  0  0  0  0  0  0  0  0
    7.2755   -1.5186    0.0000 C   0  0  0  0  0  0  0  0  0  0  0  0
    6.3442    0.1089    0.0000 C   0  0  0  0  0  0  0  0  0  0  0  0
    6.3359   -0.9761    0.0000 C   0  0  0  0  0  0  0  0  0  0  0  0
    4.6038   -0.9694    0.0000 C   0  0  0  0  0  0  0  0  0  0  0  0
    3.7359   -1.4661    0.0000 C   0  0  0  0  0  0  0  0  0  0  0  0
    2.8718   -0.9627    0.0000 C   0  0  0  0  0  0  0  0  0  0  0  0
    3.7320   -2.4660    0.0000 C   0  0  0  0  0  0  0  0  0  0  0  0
    2.0038   -1.4594    0.0000 C   0  0  0  0  0  0  0  0  0  0  0  0
    2.8641   -2.9627    0.0000 C   0  0  0  0  0  0  0  0  0  0  0  0
    2.0000   -2.4594    0.0000 C   0  0  0  0  0  0  0  0  0  0  0  0
   10.9510   -0.2656    0.0000 H   0  0  0  0  0  0  0  0  0  0  0  0
   10.7344   -0.3397    0.0000 H   0  0  0  0  0  0  0  0  0  0  0  0
    9.8651    1.0046    0.0000 H   0  0  0  0  0  0  0  0  0  0  0  0
   12.4197    1.9805    0.0000 H   0  0  0  0  0  0  0  0  0  0  0  0
   10.3935    2.5546    0.0000 H   0  0  0  0  0  0  0  0  0  0  0  0
    9.5965    2.5546    0.0000 H   0  0  0  0  0  0  0  0  0  0  0  0
   11.5562   -0.2920    0.0000 H   0  0  0  0  0  0  0  0  0  0  0  0
   12.3446   -0.0344    0.0000 H   0  0  0  0  0  0  0  0  0  0  0  0
    8.9169    2.1622    0.0000 H   0  0  0  0  0  0  0  0  0  0  0  0
    8.5184    1.4719    0.0000 H   0  0  0  0  0  0  0  0  0  0  0  0
   12.8517    0.6649    0.0000 H   0  0  0  0  0  0  0  0  0  0  0  0
   12.8517    1.4943    0.0000 H   0  0  0  0  0  0  0  0  0  0  0  0
   10.2291   -1.5423    0.0000 H   0  0  0  0  0  0  0  0  0  0  0  0
   10.6202   -0.8464    0.0000 H   0  0  0  0  0  0  0  0  0  0  0  0
   11.4810    2.5796    0.0000 H   0  0  0  0  0  0  0  0  0  0  0  0
   10.8610    3.1996    0.0000 H   0  0  0  0  0  0  0  0  0  0  0  0
   10.2410    2.5796    0.0000 H   0  0  0  0  0  0  0  0  0  0  0  0
    8.7157   -1.9656    0.0000 H   0  0  0  0  0  0  0  0  0  0  0  0
    9.5140   -1.9626    0.0000 H   0  0  0  0  0  0  0  0  0  0  0  0
   12.7246    2.9627    0.0000 H   0  0  0  0  0  0  0  0  0  0  0  0
    7.3041    1.2567    0.0000 H   0  0  0  0  0  0  0  0  0  0  0  0
    7.2779   -2.1386    0.0000 H   0  0  0  0  0  0  0  0  0  0  0  0
    5.8109    0.4251    0.0000 H   0  0  0  0  0  0  0  0  0  0  0  0
    2.8742   -0.3427    0.0000 H   0  0  0  0  0  0  0  0  0  0  0  0
    4.2678   -2.7781    0.0000 H   0  0  0  0  0  0  0  0  0  0  0  0
    1.4681   -1.1473    0.0000 H   0  0  0  0  0  0  0  0  0  0  0  0
    2.8617   -3.5827    0.0000 H   0  0  0  0  0  0  0  0  0  0  0  0
    1.4619   -2.7673    0.0000 H   0  0  0  0  0  0  0  0  0  0  0  0
  8  1  1  6  0  0  0
  1 48  1  0  0  0  0
  2 21  1  0  0  0  0
  2 22  1  0  0  0  0
  3 22  2  0  0  0  0
  4  5  1  0  0  0  0
  4  8  1  0  0  0  0
  4  9  1  0  0  0  0
  4 14  1  1  0  0  0
  5  6  1  0  0  0  0
  5 10  1  0  0  0  0
  5 29  1  6  0  0  0
  6  7  1  0  0  0  0
  6 13  1  0  0  0  0
  6 30  1  1  0  0  0
  7 11  1  0  0  0  0
  7 15  1  0  0  0  0
  7 31  1  6  0  0  0
  8 12  1  0  0  0  0
  8 32  1  0  0  0  0
  9 11  1  0  0  0  0
  9 33  1  0  0  0  0
  9 34  1  0  0  0  0
 10 12  1  0  0  0  0
 10 35  1  0  0  0  0
 10 36  1  0  0  0  0
 11 37  1  0  0  0  0
 11 38  1  0  0  0  0
 12 39  1  0  0  0  0
 12 40  1  0  0  0  0
 13 16  1  0  0  0  0
 13 41  1  0  0  0  0
 13 42  1  0  0  0  0
 14 43  1  0  0  0  0
 14 44  1  0  0  0  0
 14 45  1  0  0  0  0
 15 17  2  0  0  0  0
 15 18  1  0  0  0  0
 16 17  1  0  0  0  0
 16 46  1  0  0  0  0
 16 47  1  0  0  0  0
 17 19  1  0  0  0  0
 18 20  2  0  0  0  0
 18 49  1  0  0  0  0
 19 21  2  0  0  0  0
 19 50  1  0  0  0  0
 20 21  1  0  0  0  0
 20 51  1  0  0  0  0
 22 23  1  0  0  0  0
 23 24  2  0  0  0  0
 23 25  1  0  0  0  0
 24 26  1  0  0  0  0
 24 52  1  0  0  0  0
 25 27  2  0  0  0  0
 25 53  1  0  0  0  0
 26 28  2  0  0  0  0
 26 54  1  0  0  0  0
 27 28  1  0  0  0  0
 27 55  1  0  0  0  0
 28 56  1  0  0  0  0
M  END
> <PUBCHEM_COMPOUND_CID>
5767

> <PUBCHEM_COMPOUND_CANONICALIZED>
1

> <PUBCHEM_CACTVS_COMPLEXITY>
582

> <PUBCHEM_CACTVS_HBOND_ACCEPTOR>
3

> <PUBCHEM_CACTVS_HBOND_DONOR>
1

> <PUBCHEM_CACTVS_ROTATABLE_BOND>
3

> <PUBCHEM_CACTVS_SUBSKEYS>
AAADceB4MAAAAAAAAAAAAAAAAAAAAYAAAAAwYMGAAAAAAGDBQAAAGgAACAAADxSgmAIyDoAABgCIAiDSCAACCAAkIAAIiAEGCMgMNjKENRqCeyCkwBEIqYeIyPCPoAABAAAQAADAAAYAACAAAIAADAAAAA==

> <PUBCHEM_IUPAC_OPENEYE_NAME>
[(8R,9S,13S,14S,17R)-17-hydroxy-13-methyl-6,7,8,9,11,12,14,15,16,17-decahydrocyclopenta[a]phenanthren-3-yl] benzoate

> <PUBCHEM_IUPAC_CAS_NAME>
benzoic acid [(8R,9S,13S,14S,17R)-17-hydroxy-13-methyl-6,7,8,9,11,12,14,15,16,17-decahydrocyclopenta[a]phenanthren-3-yl] ester

> <PUBCHEM_IUPAC_NAME>
[(8R,9S,13S,14S,17R)-17-hydroxy-13-methyl-6,7,8,9,11,12,14,15,16,17-decahydrocyclopenta[a]phenanthren-3-yl] benzoate

> <PUBCHEM_IUPAC_SYSTEMATIC_NAME>
[(8R,9S,13S,14S,17R)-13-methyl-17-oxidanyl-6,7,8,9,11,12,14,15,16,17-decahydrocyclopenta[a]phenanthren-3-yl] benzoate

> <PUBCHEM_IUPAC_TRADITIONAL_NAME>
benzoic acid [(8R,9S,13S,14S,17R)-17-hydroxy-13-methyl-6,7,8,9,11,12,14,15,16,17-decahydrocyclopenta[a]phenanthren-3-yl] ester

> <PUBCHEM_IUPAC_INCHI>
InChI=1S/C25H28O3/c1-25-14-13-20-19-10-8-18(28-24(27)16-5-3-2-4-6-16)15-17(19)7-9-21(20)22(25)11-12-23(25)26/h2-6,8,10,15,20-23,26H,7,9,11-14H2,1H3/t20-,21-,22+,23-,25+/m1/s1

> <PUBCHEM_IUPAC_INCHIKEY>
UYIFTLBWAOGQBI-ABMICEGHSA-N

> <PUBCHEM_XLOGP3>
4.5

> <PUBCHEM_EXACT_MASS>
376.203845

> <PUBCHEM_MOLECULAR_FORMULA>
C25H28O3

> <PUBCHEM_MOLECULAR_WEIGHT>
376.48802

> <PUBCHEM_OPENEYE_CAN_SMILES>
CC12CCC3C(C1CCC2O)CCC4=C3C=CC(=C4)OC(=O)C5=CC=CC=C5

> <PUBCHEM_OPENEYE_ISO_SMILES>
C[C@]12CC[C@H]3[C@H]([C@@H]1CC[C@H]2O)CCC4=C3C=CC(=C4)OC(=O)C5=CC=CC=C5

> <PUBCHEM_CACTVS_TPSA>
46.5

> <PUBCHEM_MONOISOTOPIC_WEIGHT>
376.203845

> <PUBCHEM_TOTAL_CHARGE>
0

> <PUBCHEM_HEAVY_ATOM_COUNT>
28

> <PUBCHEM_ATOM_DEF_STEREO_COUNT>
5

> <PUBCHEM_ATOM_UDEF_STEREO_COUNT>
0

> <PUBCHEM_BOND_DEF_STEREO_COUNT>
0

> <PUBCHEM_BOND_UDEF_STEREO_COUNT>
0

> <PUBCHEM_ISOTOPIC_ATOM_COUNT>
0

> <PUBCHEM_COMPONENT_COUNT>
1

> <PUBCHEM_CACTVS_TAUTO_COUNT>
1

> <PUBCHEM_COORDINATE_TYPE>
1
5
255

> <PUBCHEM_BONDANNOTATIONS>
8  1  6
15  17  8
15  18  8
17  19  8
18  20  8
19  21  8
20  21  8
23  24  8
23  25  8
24  26  8
25  27  8
26  28  8
27  28  8
4  14  5
5  29  6
6  30  5
7  31  6

$$$$

