9286
  -OEChem-06261203343D

 26 28  0     0  0  0  0  0  0999 V2000
    0.0000    1.1456    0.0002 N   0  3  0  0  0  0  0  0  0  0  0  0
    0.0000   -1.5853    0.0003 N   0  0  0  0  0  0  0  0  0  0  0  0
    1.1796    0.5007    0.0003 C   0  0  0  0  0  0  0  0  0  0  0  0
   -1.1797    0.5006    0.0002 C   0  0  0  0  0  0  0  0  0  0  0  0
    1.1613   -0.9058    0.0003 C   0  0  0  0  0  0  0  0  0  0  0  0
   -1.1613   -0.9058    0.0003 C   0  0  0  0  0  0  0  0  0  0  0  0
    0.0000    2.6219    0.0003 C   0  0  0  0  0  0  0  0  0  0  0  0
    2.3824    1.2154    0.0000 C   0  0  0  0  0  0  0  0  0  0  0  0
   -2.3825    1.2153   -0.0001 C   0  0  0  0  0  0  0  0  0  0  0  0
    2.3860   -1.5671    0.0000 C   0  0  0  0  0  0  0  0  0  0  0  0
   -2.3860   -1.5672    0.0000 C   0  0  0  0  0  0  0  0  0  0  0  0
    3.5922    0.5287   -0.0006 C   0  0  0  0  0  0  0  0  0  0  0  0
   -3.5921    0.5288   -0.0005 C   0  0  0  0  0  0  0  0  0  0  0  0
    3.5939   -0.8629   -0.0003 C   0  0  0  0  0  0  0  0  0  0  0  0
   -3.5939   -0.8629   -0.0003 C   0  0  0  0  0  0  0  0  0  0  0  0
   -0.8401    3.0317    0.5602 H   0  0  0  0  0  0  0  0  0  0  0  0
    0.8399    3.0316    0.5605 H   0  0  0  0  0  0  0  0  0  0  0  0
    0.0002    2.9660   -1.0367 H   0  0  0  0  0  0  0  0  0  0  0  0
    2.4652    2.2934   -0.0482 H   0  0  0  0  0  0  0  0  0  0  0  0
   -2.4652    2.2934   -0.0484 H   0  0  0  0  0  0  0  0  0  0  0  0
    2.4143   -2.6550   -0.0006 H   0  0  0  0  0  0  0  0  0  0  0  0
   -2.4143   -2.6550   -0.0007 H   0  0  0  0  0  0  0  0  0  0  0  0
    4.5312    1.0740   -0.0120 H   0  0  0  0  0  0  0  0  0  0  0  0
   -4.5311    1.0741   -0.0117 H   0  0  0  0  0  0  0  0  0  0  0  0
    4.5355   -1.4046   -0.0031 H   0  0  0  0  0  0  0  0  0  0  0  0
   -4.5355   -1.4046   -0.0031 H   0  0  0  0  0  0  0  0  0  0  0  0
  1  3  2  0  0  0  0
  1  4  1  0  0  0  0
  1  7  1  0  0  0  0
  2  5  2  0  0  0  0
  2  6  1  0  0  0  0
  3  5  1  0  0  0  0
  3  8  1  0  0  0  0
  4  6  1  0  0  0  0
  4  9  2  0  0  0  0
  5 10  1  0  0  0  0
  6 11  2  0  0  0  0
  7 16  1  0  0  0  0
  7 17  1  0  0  0  0
  7 18  1  0  0  0  0
  8 12  2  0  0  0  0
  8 19  1  0  0  0  0
  9 13  1  0  0  0  0
  9 20  1  0  0  0  0
 10 14  2  0  0  0  0
 10 21  1  0  0  0  0
 11 15  1  0  0  0  0
 11 22  1  0  0  0  0
 12 14  1  0  0  0  0
 12 23  1  0  0  0  0
 13 15  2  0  0  0  0
 13 24  1  0  0  0  0
 14 25  1  0  0  0  0
 15 26  1  0  0  0  0
M  CHG  1   1   1
M  END
> <PUBCHEM_COMPOUND_CID>
9286

> <PUBCHEM_CONFORMER_RMSD>
0.4

> <PUBCHEM_CONFORMER_DIVERSEORDER>
1

> <PUBCHEM_MMFF94_PARTIAL_CHARGES>
23
1 -0.21
10 -0.15
11 -0.15
12 -0.15
13 -0.15
14 -0.15
15 -0.15
19 0.15
2 -0.62
20 0.15
21 0.15
22 0.15
23 0.15
24 0.15
25 0.15
26 0.15
3 0.36
4 0.36
5 0.31
6 0.31
7 0.49
8 -0.15
9 -0.15

> <PUBCHEM_EFFECTIVE_ROTOR_COUNT>
0

> <PUBCHEM_PHARMACOPHORE_FEATURES>
4
1 2 acceptor
6 1 2 3 4 5 6 rings
6 3 5 8 10 12 14 rings
6 4 6 9 11 13 15 rings

> <PUBCHEM_HEAVY_ATOM_COUNT>
15

> <PUBCHEM_ATOM_DEF_STEREO_COUNT>
0

> <PUBCHEM_ATOM_UDEF_STEREO_COUNT>
0

> <PUBCHEM_BOND_DEF_STEREO_COUNT>
0

> <PUBCHEM_BOND_UDEF_STEREO_COUNT>
0

> <PUBCHEM_ISOTOPIC_ATOM_COUNT>
0

> <PUBCHEM_COMPONENT_COUNT>
1

> <PUBCHEM_CACTVS_TAUTO_COUNT>
1

> <PUBCHEM_CONFORMER_ID>
0000244600000001

> <PUBCHEM_MMFF94_ENERGY>
63.7745

> <PUBCHEM_FEATURE_SELFOVERLAP>
20.366

> <PUBCHEM_SHAPE_FINGERPRINT>
10608611 8 18410859858174997697
10967382 1 18410855438679790022
11132069 177 18409454690967639448
11471102 20 18410860957686339839
11806522 49 18338802187254932999
12032990 46 18410851062081865059
12382932 28 18408885156771357104
13140716 1 18410855507383390994
13221675 6 18410856563934932258
13296908 3 18410854364916996931
13380535 76 18410856559640257287
14144814 61 18410573989478125571
14325111 11 18410575084668412128
15196674 1 18410575088958085191
15442244 35 18194683902412691690
15536298 74 18334012787655415570
16945 1 18410575088958117668
17844478 74 17988638614533263045
18186145 218 17989490740097287038
193761 8 17689998263873636583
200 152 18041007215625129639
20201158 50 18411419518209766107
20510252 161 18261111932217668736
20645477 70 18336831982577030495
21029758 11 18335147479450321689
21267235 1 18410846664035587810
21501502 16 18410573998041653770
221490 88 18197490731933108794
2334 1 18410855430063514146
23402539 116 18261684734820532342
23402655 69 18336278937408712837
23463225 33 18412262843775716532
23559900 14 18336270145526098962
2748010 2 18410013238526828326
3071541 158 18272371932066313341
3312278 4 18411134740381878577
335352 9 18050286169585922303
34934 24 18410303505291063722
5104073 3 18410856559639816546
528886 8 18410016541367260970
537710 114 18411975845318407340
53812653 166 18262241027706643552
69090 78 18333737918307004687
7364860 26 18191868911826976496
8809292 202 18272365347891965515
9709674 26 18410006624399148358

> <PUBCHEM_SHAPE_MULTIPOLES>
298.73
6.11
2.11
0.61
0
0.65
0
-0.98
0
0
0
0
0
0

> <PUBCHEM_SHAPE_SELFOVERLAP>
674.999

> <PUBCHEM_SHAPE_VOLUME>
157.2

> <PUBCHEM_COORDINATE_TYPE>
2
5
10

$$$$

