7920
  -OEChem-06261202272D

 13 13  0     0  0  0  0  0  0999 V2000
    4.8479   -0.5852    0.0000 O   0  0  0  0  0  0  0  0  0  0  0  0
    3.0878   -0.8639    0.0000 N   0  0  0  0  0  0  0  0  0  0  0  0
    2.2788   -0.2761    0.0000 N   0  0  0  0  0  0  0  0  0  0  0  0
    3.5878    0.6749    0.0000 C   0  0  0  0  0  0  0  0  0  0  0  0
    2.5878    0.6749    0.0000 C   0  0  0  0  0  0  0  0  0  0  0  0
    3.8968   -0.2761    0.0000 C   0  0  0  0  0  0  0  0  0  0  0  0
    2.0000    1.4839    0.0000 C   0  0  0  0  0  0  0  0  0  0  0  0
    4.1942    0.8038    0.0000 H   0  0  0  0  0  0  0  0  0  0  0  0
    3.5230    1.2915    0.0000 H   0  0  0  0  0  0  0  0  0  0  0  0
    2.5016    1.8484    0.0000 H   0  0  0  0  0  0  0  0  0  0  0  0
    1.6356    1.9855    0.0000 H   0  0  0  0  0  0  0  0  0  0  0  0
    1.4984    1.1195    0.0000 H   0  0  0  0  0  0  0  0  0  0  0  0
    3.0878   -1.4839    0.0000 H   0  0  0  0  0  0  0  0  0  0  0  0
  1  6  2  0  0  0  0
  2  3  1  0  0  0  0
  2  6  1  0  0  0  0
  2 13  1  0  0  0  0
  3  5  2  0  0  0  0
  4  5  1  0  0  0  0
  4  6  1  0  0  0  0
  4  8  1  0  0  0  0
  4  9  1  0  0  0  0
  5  7  1  0  0  0  0
  7 10  1  0  0  0  0
  7 11  1  0  0  0  0
  7 12  1  0  0  0  0
M  END
> <PUBCHEM_COMPOUND_CID>
7920

> <PUBCHEM_COMPOUND_CANONICALIZED>
1

> <PUBCHEM_CACTVS_COMPLEXITY>
128

> <PUBCHEM_CACTVS_HBOND_ACCEPTOR>
2

> <PUBCHEM_CACTVS_HBOND_DONOR>
1

> <PUBCHEM_CACTVS_ROTATABLE_BOND>
0

> <PUBCHEM_CACTVS_SUBSKEYS>
AAADcYBjIAAAAAAAAAAAAAAAAAAAAQAAAAAAAAAAAAAAAAAAAAAAHgAYAAAACAiBgAACAABiAAAoAQEwEAAQAAAAAAASAAEwAAAAABAAgAAAAAAAGAAAAAAAAAAAAAAAAAAAAAAAAAAAAAAAAAAAAAAAAA==

> <PUBCHEM_IUPAC_OPENEYE_NAME>
3-methyl-1,4-dihydropyrazol-5-one

> <PUBCHEM_IUPAC_CAS_NAME>
3-methyl-1,4-dihydropyrazol-5-one

> <PUBCHEM_IUPAC_NAME>
3-methyl-1,4-dihydropyrazol-5-one

> <PUBCHEM_IUPAC_SYSTEMATIC_NAME>
3-methyl-1,4-dihydropyrazol-5-one

> <PUBCHEM_IUPAC_TRADITIONAL_NAME>
5-methyl-2-pyrazolin-3-one

> <PUBCHEM_IUPAC_INCHI>
InChI=1S/C4H6N2O/c1-3-2-4(7)6-5-3/h2H2,1H3,(H,6,7)

> <PUBCHEM_IUPAC_INCHIKEY>
NHLAPJMCARJFOG-UHFFFAOYSA-N

> <PUBCHEM_XLOGP3_AA>
-0.5

> <PUBCHEM_EXACT_MASS>
98.048013

> <PUBCHEM_MOLECULAR_FORMULA>
C4H6N2O

> <PUBCHEM_MOLECULAR_WEIGHT>
98.10324

> <PUBCHEM_OPENEYE_CAN_SMILES>
CC1=NNC(=O)C1

> <PUBCHEM_OPENEYE_ISO_SMILES>
CC1=NNC(=O)C1

> <PUBCHEM_CACTVS_TPSA>
41.5

> <PUBCHEM_MONOISOTOPIC_WEIGHT>
98.048013

> <PUBCHEM_TOTAL_CHARGE>
0

> <PUBCHEM_HEAVY_ATOM_COUNT>
7

> <PUBCHEM_ATOM_DEF_STEREO_COUNT>
0

> <PUBCHEM_ATOM_UDEF_STEREO_COUNT>
0

> <PUBCHEM_BOND_DEF_STEREO_COUNT>
0

> <PUBCHEM_BOND_UDEF_STEREO_COUNT>
0

> <PUBCHEM_ISOTOPIC_ATOM_COUNT>
0

> <PUBCHEM_COMPONENT_COUNT>
1

> <PUBCHEM_CACTVS_TAUTO_COUNT>
5

> <PUBCHEM_COORDINATE_TYPE>
1
5
255

> <PUBCHEM_BONDANNOTATIONS>
2  3  8
2  6  8
3  5  8
4  5  8
4  6  8

$$$$

