9362
  -OEChem-06261203393D

 23 25  0     0  0  0  0  0  0999 V2000
    0.0003    2.4539    0.0006 O   0  5  0  0  0  0  0  0  0  0  0  0
    0.0000    1.1576    0.0001 N   0  3  0  0  0  0  0  0  0  0  0  0
    0.0000   -1.5733    0.0003 N   0  0  0  0  0  0  0  0  0  0  0  0
    1.1796    0.5126    0.0002 C   0  0  0  0  0  0  0  0  0  0  0  0
   -1.1797    0.5126    0.0001 C   0  0  0  0  0  0  0  0  0  0  0  0
    1.1613   -0.8938    0.0003 C   0  0  0  0  0  0  0  0  0  0  0  0
   -1.1613   -0.8938    0.0003 C   0  0  0  0  0  0  0  0  0  0  0  0
    2.3824    1.2273   -0.0001 C   0  0  0  0  0  0  0  0  0  0  0  0
   -2.3825    1.2274   -0.0002 C   0  0  0  0  0  0  0  0  0  0  0  0
    2.3860   -1.5551    0.0001 C   0  0  0  0  0  0  0  0  0  0  0  0
   -2.3860   -1.5551    0.0000 C   0  0  0  0  0  0  0  0  0  0  0  0
    3.5922    0.5406   -0.0007 C   0  0  0  0  0  0  0  0  0  0  0  0
   -3.5921    0.5408   -0.0006 C   0  0  0  0  0  0  0  0  0  0  0  0
    3.5939   -0.8509   -0.0003 C   0  0  0  0  0  0  0  0  0  0  0  0
   -3.5940   -0.8509   -0.0003 C   0  0  0  0  0  0  0  0  0  0  0  0
    2.4108    2.3135   -0.0002 H   0  0  0  0  0  0  0  0  0  0  0  0
   -2.4107    2.3135   -0.0003 H   0  0  0  0  0  0  0  0  0  0  0  0
    2.4143   -2.6430    0.0002 H   0  0  0  0  0  0  0  0  0  0  0  0
   -2.4144   -2.6429    0.0001 H   0  0  0  0  0  0  0  0  0  0  0  0
    4.5305    1.0870   -0.0011 H   0  0  0  0  0  0  0  0  0  0  0  0
   -4.5305    1.0871   -0.0010 H   0  0  0  0  0  0  0  0  0  0  0  0
    4.5355   -1.3926   -0.0005 H   0  0  0  0  0  0  0  0  0  0  0  0
   -4.5355   -1.3925   -0.0005 H   0  0  0  0  0  0  0  0  0  0  0  0
  1  2  1  0  0  0  0
  2  4  2  0  0  0  0
  2  5  1  0  0  0  0
  3  6  2  0  0  0  0
  3  7  1  0  0  0  0
  4  6  1  0  0  0  0
  4  8  1  0  0  0  0
  5  7  1  0  0  0  0
  5  9  2  0  0  0  0
  6 10  1  0  0  0  0
  7 11  2  0  0  0  0
  8 12  2  0  0  0  0
  8 16  1  0  0  0  0
  9 13  1  0  0  0  0
  9 17  1  0  0  0  0
 10 14  2  0  0  0  0
 10 18  1  0  0  0  0
 11 15  1  0  0  0  0
 11 19  1  0  0  0  0
 12 14  1  0  0  0  0
 12 20  1  0  0  0  0
 13 15  2  0  0  0  0
 13 21  1  0  0  0  0
 14 22  1  0  0  0  0
 15 23  1  0  0  0  0
M  CHG  2   1  -1   2   1
M  END
> <PUBCHEM_COMPOUND_CID>
9362

> <PUBCHEM_CONFORMER_RMSD>
0.4

> <PUBCHEM_CONFORMER_DIVERSEORDER>
1

> <PUBCHEM_MMFF94_PARTIAL_CHARGES>
23
1 -0.75
10 -0.15
11 -0.15
12 -0.15
13 -0.15
14 -0.15
15 -0.15
16 0.15
17 0.15
18 0.15
19 0.15
2 0.57
20 0.15
21 0.15
22 0.15
23 0.15
3 -0.62
4 0.09
5 0.09
6 0.31
7 0.31
8 -0.15
9 -0.15

> <PUBCHEM_EFFECTIVE_ROTOR_COUNT>
0

> <PUBCHEM_PHARMACOPHORE_FEATURES>
5
1 1 anion
1 3 acceptor
6 2 3 4 5 6 7 rings
6 4 6 8 10 12 14 rings
6 5 7 9 11 13 15 rings

> <PUBCHEM_HEAVY_ATOM_COUNT>
15

> <PUBCHEM_ATOM_DEF_STEREO_COUNT>
0

> <PUBCHEM_ATOM_UDEF_STEREO_COUNT>
0

> <PUBCHEM_BOND_DEF_STEREO_COUNT>
0

> <PUBCHEM_BOND_UDEF_STEREO_COUNT>
0

> <PUBCHEM_ISOTOPIC_ATOM_COUNT>
0

> <PUBCHEM_COMPONENT_COUNT>
1

> <PUBCHEM_CACTVS_TAUTO_COUNT>
1

> <PUBCHEM_CONFORMER_ID>
0000249200000001

> <PUBCHEM_MMFF94_ENERGY>
51.4826

> <PUBCHEM_FEATURE_SELFOVERLAP>
25.441

> <PUBCHEM_SHAPE_FINGERPRINT>
10411042 1 15672385803644106667
10608611 8 18410859862469964992
10967382 1 18410855455886123910
11132069 177 18409454686667384392
11471102 20 18410860961997137886
11806522 49 18338802187265495495
12032990 46 18410568491888519907
12382932 28 18408603681794607480
13140716 1 18410574032401431570
13221675 6 18410856563934945250
13296908 3 18411135835598766275
13380535 76 18410575084663546627
14144814 61 18410292514496140163
14325111 11 18410575084668412128
15196674 1 18410575084663130887
15219456 202 18409449189082917086
15442244 35 18194402423109352234
15536298 74 18334294262637420458
16945 1 18410855464423148581
17844478 74 17988920089509967213
18186145 218 17989490740097287038
193761 8 17689998259562832035
200 152 18041007219914796191
20201158 50 18411419522499478139
20510252 161 18260547869851861041
20645477 70 18337113457553741151
21267235 1 18410846668330568098
21501502 16 18410573993746692962
2334 1 18410856529575148418
23402539 116 18261684730525617014
23402655 69 18335997462442558181
23463225 33 18412262843781017270
23559900 14 18335987571043126190
2748010 2 18410294709208591166
3312278 4 18410571786138751737
335352 9 18050567644562671926
34934 24 18410584975972878538
5104073 3 18410856559639816546
528886 8 18409735066406426522
537710 114 18411412895375516004
53812653 166 18261959552729913400
69090 78 18333737918306998191
7364860 26 18191587445508778712
8809292 202 18272365356460814091
9709674 26 18410006624393873606

> <PUBCHEM_SHAPE_MULTIPOLES>
292.86
6.21
1.95
0.6
0
0.33
0
-0.68
0
0
0
0
-0.01
0

> <PUBCHEM_SHAPE_SELFOVERLAP>
667.179

> <PUBCHEM_SHAPE_VOLUME>
153.2

> <PUBCHEM_COORDINATE_TYPE>
2
5
10

$$$$

