11158
  -OEChem-06261205203D

 16 16  0     0  0  0  0  0  0999 V2000
   -3.2151   -0.5327   -0.0004 O   0  0  0  0  0  0  0  0  0  0  0  0
    3.1919   -0.2745   -0.0003 N   0  0  0  0  0  0  0  0  0  0  0  0
   -0.9772    0.2353    0.0004 C   0  0  0  0  0  0  0  0  0  0  0  0
    1.7919   -0.1034   -0.0001 C   0  0  0  0  0  0  0  0  0  0  0  0
   -0.1384    1.3497    0.0002 C   0  0  0  0  0  0  0  0  0  0  0  0
   -0.4316   -1.0485    0.0003 C   0  0  0  0  0  0  0  0  0  0  0  0
    1.2461    1.1803   -0.0001 C   0  0  0  0  0  0  0  0  0  0  0  0
    0.9530   -1.2179    0.0001 C   0  0  0  0  0  0  0  0  0  0  0  0
   -2.4207    0.4118   -0.0001 C   0  0  0  0  0  0  0  0  0  0  0  0
   -0.5484    2.3563    0.0001 H   0  0  0  0  0  0  0  0  0  0  0  0
   -1.0659   -1.9310    0.0004 H   0  0  0  0  0  0  0  0  0  0  0  0
    1.8894    2.0566   -0.0002 H   0  0  0  0  0  0  0  0  0  0  0  0
    1.3662   -2.2234    0.0001 H   0  0  0  0  0  0  0  0  0  0  0  0
   -2.7925    1.4506   -0.0002 H   0  0  0  0  0  0  0  0  0  0  0  0
    3.5881   -1.2050    0.0000 H   0  0  0  0  0  0  0  0  0  0  0  0
    3.8005    0.5331    0.0002 H   0  0  0  0  0  0  0  0  0  0  0  0
  1  9  2  0  0  0  0
  2  4  1  0  0  0  0
  2 15  1  0  0  0  0
  2 16  1  0  0  0  0
  3  5  2  0  0  0  0
  3  6  1  0  0  0  0
  3  9  1  0  0  0  0
  4  7  2  0  0  0  0
  4  8  1  0  0  0  0
  5  7  1  0  0  0  0
  5 10  1  0  0  0  0
  6  8  2  0  0  0  0
  6 11  1  0  0  0  0
  7 12  1  0  0  0  0
  8 13  1  0  0  0  0
  9 14  1  0  0  0  0
M  END
> <PUBCHEM_COMPOUND_CID>
11158

> <PUBCHEM_CONFORMER_RMSD>
0.4

> <PUBCHEM_CONFORMER_DIVERSEORDER>
1

> <PUBCHEM_MMFF94_PARTIAL_CHARGES>
16
1 -0.57
10 0.15
11 0.15
12 0.15
13 0.15
14 0.06
15 0.4
16 0.4
2 -0.9
3 0.09
4 0.1
5 -0.15
6 -0.15
7 -0.15
8 -0.15
9 0.42

> <PUBCHEM_EFFECTIVE_ROTOR_COUNT>
1

> <PUBCHEM_PHARMACOPHORE_FEATURES>
4
1 1 acceptor
1 2 cation
1 2 donor
6 3 4 5 6 7 8 rings

> <PUBCHEM_HEAVY_ATOM_COUNT>
9

> <PUBCHEM_ATOM_DEF_STEREO_COUNT>
0

> <PUBCHEM_ATOM_UDEF_STEREO_COUNT>
0

> <PUBCHEM_BOND_DEF_STEREO_COUNT>
0

> <PUBCHEM_BOND_UDEF_STEREO_COUNT>
0

> <PUBCHEM_ISOTOPIC_ATOM_COUNT>
0

> <PUBCHEM_COMPONENT_COUNT>
1

> <PUBCHEM_CACTVS_TAUTO_COUNT>
4

> <PUBCHEM_CONFORMER_ID>
00002B9600000001

> <PUBCHEM_MMFF94_ENERGY>
30.9743

> <PUBCHEM_FEATURE_SELFOVERLAP>
20.297

> <PUBCHEM_SHAPE_FINGERPRINT>
10857977 72 18410584988931549297
12032990 46 18410284830910729094
12897270 3 18412266168122666717
14325111 11 18410573976582790945
16945 1 18410855468755026148
193761 8 17690279305190428196
21040471 1 18194402195238565636
21293036 1 18341041952533045932
23235685 24 18410578379098206244
23402655 69 18193858148333474797
23552423 10 17983850357242565798
2748010 2 18122904226902022070
29004967 10 18413103987303413689
5084963 1 18409729560258404969

> <PUBCHEM_SHAPE_MULTIPOLES>
174.37
3.88
1.34
0.6
0.82
0.1
0
-0.47
0
-0.16
0
0
0.01
0

> <PUBCHEM_SHAPE_SELFOVERLAP>
363.564

> <PUBCHEM_SHAPE_VOLUME>
98.7

> <PUBCHEM_COORDINATE_TYPE>
2
5
10

$$$$

