10831
  -OEChem-06261205013D

 56 58  0     1  0  0  0  0  0999 V2000
    0.1533    2.2585   -0.7926 O   0  0  0  0  0  0  0  0  0  0  0  0
    0.6543   -0.3768   -0.0604 O   0  0  0  0  0  0  0  0  0  0  0  0
   -0.9406    2.9807    1.0813 O   0  0  0  0  0  0  0  0  0  0  0  0
    0.4128   -1.7351    1.7635 O   0  0  0  0  0  0  0  0  0  0  0  0
    3.7227    1.3368   -0.3895 N   0  0  0  0  0  0  0  0  0  0  0  0
   -2.0812    2.1508   -0.7871 N   0  0  0  0  0  0  0  0  0  0  0  0
   -0.0012   -2.4923   -0.4125 N   0  0  0  0  0  0  0  0  0  0  0  0
    4.7557    1.0129   -1.3833 C   0  0  0  0  0  0  0  0  0  0  0  0
    4.1722    2.4039    0.5156 C   0  0  0  0  0  0  0  0  0  0  0  0
    6.0511    0.5628   -0.7060 C   0  0  0  0  0  0  0  0  0  0  0  0
    5.4484    1.9991    1.2551 C   0  0  0  0  0  0  0  0  0  0  0  0
    6.5542    1.6106    0.2806 C   0  0  0  0  0  0  0  0  0  0  0  0
    2.4768    1.7198   -1.0530 C   0  0  0  0  0  0  0  0  0  0  0  0
    1.3338    1.9262   -0.0562 C   0  0  2  0  0  0  0  0  0  0  0  0
    1.0443    0.6924    0.7958 C   0  0  0  0  0  0  0  0  0  0  0  0
   -0.9700    2.5107   -0.0494 C   0  0  0  0  0  0  0  0  0  0  0  0
    0.3559   -1.5694    0.5511 C   0  0  0  0  0  0  0  0  0  0  0  0
   -3.4411    2.2393   -0.4116 C   0  0  0  0  0  0  0  0  0  0  0  0
   -0.3830   -3.8406   -0.2273 C   0  0  0  0  0  0  0  0  0  0  0  0
   -4.4195    1.8233   -1.3007 C   0  0  0  0  0  0  0  0  0  0  0  0
   -3.7697    2.7396    0.8384 C   0  0  0  0  0  0  0  0  0  0  0  0
   -0.7079   -4.6122   -1.3318 C   0  0  0  0  0  0  0  0  0  0  0  0
   -0.4246   -4.3651    1.0548 C   0  0  0  0  0  0  0  0  0  0  0  0
   -5.7614    1.9101   -0.9304 C   0  0  0  0  0  0  0  0  0  0  0  0
   -5.1119    2.8262    1.2087 C   0  0  0  0  0  0  0  0  0  0  0  0
   -6.1075    2.4114    0.3242 C   0  0  0  0  0  0  0  0  0  0  0  0
   -1.0844   -5.9429   -1.1494 C   0  0  0  0  0  0  0  0  0  0  0  0
   -0.8009   -5.6959    1.2371 C   0  0  0  0  0  0  0  0  0  0  0  0
   -1.1308   -6.4847    0.1350 C   0  0  0  0  0  0  0  0  0  0  0  0
    4.9597    1.8761   -2.0305 H   0  0  0  0  0  0  0  0  0  0  0  0
    4.4085    0.1966   -2.0283 H   0  0  0  0  0  0  0  0  0  0  0  0
    3.4365    2.6115    1.2975 H   0  0  0  0  0  0  0  0  0  0  0  0
    4.3442    3.3389   -0.0338 H   0  0  0  0  0  0  0  0  0  0  0  0
    6.8182    0.3710   -1.4646 H   0  0  0  0  0  0  0  0  0  0  0  0
    5.8796   -0.3838   -0.1778 H   0  0  0  0  0  0  0  0  0  0  0  0
    5.7888    2.8267    1.8879 H   0  0  0  0  0  0  0  0  0  0  0  0
    5.2350    1.1535    1.9215 H   0  0  0  0  0  0  0  0  0  0  0  0
    7.4211    1.2258    0.8288 H   0  0  0  0  0  0  0  0  0  0  0  0
    6.8877    2.4998   -0.2683 H   0  0  0  0  0  0  0  0  0  0  0  0
    2.6059    2.6327   -1.6510 H   0  0  0  0  0  0  0  0  0  0  0  0
    2.1786    0.9437   -1.7708 H   0  0  0  0  0  0  0  0  0  0  0  0
    1.5483    2.7834    0.5901 H   0  0  0  0  0  0  0  0  0  0  0  0
    1.9347    0.3979    1.3633 H   0  0  0  0  0  0  0  0  0  0  0  0
    0.2417    0.8718    1.5180 H   0  0  0  0  0  0  0  0  0  0  0  0
   -1.9013    1.7750   -1.7149 H   0  0  0  0  0  0  0  0  0  0  0  0
    0.0112   -2.1635   -1.3750 H   0  0  0  0  0  0  0  0  0  0  0  0
   -4.1607    1.4309   -2.2803 H   0  0  0  0  0  0  0  0  0  0  0  0
   -3.0565    3.0789    1.5754 H   0  0  0  0  0  0  0  0  0  0  0  0
   -0.6750   -4.2002   -2.3366 H   0  0  0  0  0  0  0  0  0  0  0  0
   -0.1837   -3.8180    1.9545 H   0  0  0  0  0  0  0  0  0  0  0  0
   -6.5369    1.5871   -1.6189 H   0  0  0  0  0  0  0  0  0  0  0  0
   -5.3829    3.2163    2.1855 H   0  0  0  0  0  0  0  0  0  0  0  0
   -7.1525    2.4788    0.6126 H   0  0  0  0  0  0  0  0  0  0  0  0
   -1.3412   -6.5573   -2.0075 H   0  0  0  0  0  0  0  0  0  0  0  0
   -0.8374   -6.1192    2.2368 H   0  0  0  0  0  0  0  0  0  0  0  0
   -1.4239   -7.5207    0.2770 H   0  0  0  0  0  0  0  0  0  0  0  0
  1 14  1  0  0  0  0
  1 16  1  0  0  0  0
  2 15  1  0  0  0  0
  2 17  1  0  0  0  0
  3 16  2  0  0  0  0
  4 17  2  0  0  0  0
  5  8  1  0  0  0  0
  5  9  1  0  0  0  0
  5 13  1  0  0  0  0
  6 16  1  0  0  0  0
  6 18  1  0  0  0  0
  6 45  1  0  0  0  0
  7 17  1  0  0  0  0
  7 19  1  0  0  0  0
  7 46  1  0  0  0  0
  8 10  1  0  0  0  0
  8 30  1  0  0  0  0
  8 31  1  0  0  0  0
  9 11  1  0  0  0  0
  9 32  1  0  0  0  0
  9 33  1  0  0  0  0
 10 12  1  0  0  0  0
 10 34  1  0  0  0  0
 10 35  1  0  0  0  0
 11 12  1  0  0  0  0
 11 36  1  0  0  0  0
 11 37  1  0  0  0  0
 12 38  1  0  0  0  0
 12 39  1  0  0  0  0
 13 14  1  0  0  0  0
 13 40  1  0  0  0  0
 13 41  1  0  0  0  0
 14 15  1  0  0  0  0
 14 42  1  0  0  0  0
 15 43  1  0  0  0  0
 15 44  1  0  0  0  0
 18 20  2  0  0  0  0
 18 21  1  0  0  0  0
 19 22  2  0  0  0  0
 19 23  1  0  0  0  0
 20 24  1  0  0  0  0
 20 47  1  0  0  0  0
 21 25  2  0  0  0  0
 21 48  1  0  0  0  0
 22 27  1  0  0  0  0
 22 49  1  0  0  0  0
 23 28  2  0  0  0  0
 23 50  1  0  0  0  0
 24 26  2  0  0  0  0
 24 51  1  0  0  0  0
 25 26  1  0  0  0  0
 25 52  1  0  0  0  0
 26 53  1  0  0  0  0
 27 29  2  0  0  0  0
 27 54  1  0  0  0  0
 28 29  1  0  0  0  0
 28 55  1  0  0  0  0
 29 56  1  0  0  0  0
M  END
> <PUBCHEM_COMPOUND_CID>
10831

> <PUBCHEM_CONFORMER_RMSD>
1

> <PUBCHEM_CONFORMER_DIVERSEORDER>
1
307
190
200
113
205
317
206
310
233
129
270
215
238
287
107
178
202
219
194
225
157
275
123
240
256
269
292
198
179
32
255
204
56
273
227
245
168
131
220
332
103
327
115
265
333
294
45
50
261
148
154
326
150
19
100
12
303
263
41
199
228
323
322
293
57
159
280
284
311
135
324
232
244
213
295
97
235
257
306
66
250
319
140
239
301
166
283
155
309
34
43
313
78
192
16
300
53
83
246
288
120
42
183
96
224
297
304
110
55
211
171
86
149
315
61
174
22
336
133
264
84
73
185
203
268
195
290
229
249
127
28
247
272
125
337
30
291
217
282
7
62
3
305
118
252
137
335
209
165
108
289
95
187
122
279
242
197
214
98
267
147
222
37
146
91
193
8
9
20
302
77
271
93
262
36
153
210
260
124
143
145
162
182
49
266
11
321
254
68
299
226
201
298
285
181
82
128
80
241
15
172
236
334
170
156
278
189
25
258
119
340
21
51
221
218
196
10
114
237
191
112
58
248
64
60
308
296
33
243
177
223
23
180
39
102
230
134
281
101
70
46
160
126
158
314
328
121
188
79
54
251
151
184
312
6
69
47
152
31
65
94
234
136
13
81
176
286
161
89
29
18
208
338
167
142
87
276
132
92
186
329
277
212
169
117
138
144
17
99
75
85
24
163
339
318
116
207
88
71
274
90
325
175
164
4
141
231
104
316
105
67
63
35
106
27
216
259
38
331
52
26
59
330
109
14
139
48
111
253
173
72
2
40
130
5
320
44
76
74

> <PUBCHEM_MMFF94_PARTIAL_CHARGES>
38
1 -0.43
13 0.27
14 0.28
15 0.28
16 0.78
17 0.78
18 0.12
19 0.12
2 -0.43
20 -0.15
21 -0.15
22 -0.15
23 -0.15
24 -0.15
25 -0.15
26 -0.15
27 -0.15
28 -0.15
29 -0.15
3 -0.57
4 -0.57
45 0.37
46 0.37
47 0.15
48 0.15
49 0.15
5 -0.81
50 0.15
51 0.15
52 0.15
53 0.15
54 0.15
55 0.15
56 0.15
6 -0.55
7 -0.55
8 0.27
9 0.27

> <PUBCHEM_EFFECTIVE_ROTOR_COUNT>
12.2

> <PUBCHEM_PHARMACOPHORE_FEATURES>
8
1 3 acceptor
1 4 acceptor
1 5 cation
1 6 donor
1 7 donor
6 18 20 21 24 25 26 rings
6 19 22 23 27 28 29 rings
6 5 8 9 10 11 12 rings

> <PUBCHEM_HEAVY_ATOM_COUNT>
29

> <PUBCHEM_ATOM_DEF_STEREO_COUNT>
0

> <PUBCHEM_ATOM_UDEF_STEREO_COUNT>
1

> <PUBCHEM_BOND_DEF_STEREO_COUNT>
0

> <PUBCHEM_BOND_UDEF_STEREO_COUNT>
0

> <PUBCHEM_ISOTOPIC_ATOM_COUNT>
0

> <PUBCHEM_COMPONENT_COUNT>
1

> <PUBCHEM_CACTVS_TAUTO_COUNT>
4

> <PUBCHEM_CONFORMER_ID>
00002A4F00000001

> <PUBCHEM_MMFF94_ENERGY>
68.5171

> <PUBCHEM_FEATURE_SELFOVERLAP>
40.594

> <PUBCHEM_SHAPE_FINGERPRINT>
102385 1 17907294347656366244
10319688 140 18050567640995600565
10815517 723 18120644735345826627
11135926 11 18340209708500093149
11445158 3 17771081667893030910
11488393 25 17839181062381918824
11524674 6 18342455949903300385
11719270 70 18269561687746429601
11991303 11 18272362041104296790
12293681 4 17976548212780854679
12977781 61 17896298274111589862
13692114 37 18337112276410814997
13968360 50 18270124642168690357
15629462 23 17974021556414165111
15775530 1 17830459375606275576
16993438 75 18116156562913721830
19319366 153 18262809591366917685
20028762 73 18191873546397252454
20505436 4 17894912988387744717
20587220 17 17683769441226599321
21344244 181 18263350534039692246
21365058 27 18410283740031260173
21796203 349 17182464813817079723
38695281 34 18411980290609298769
4461854 278 18267846334476283219
6669772 16 18336824311944476422
6691757 9 18335132090904397000
9658208 31 18335985281651841648

> <PUBCHEM_SHAPE_MULTIPOLES>
558.39
12.4
9.79
1.38
7.16
26.26
-0.06
-20.8
0.61
-9.04
-0.5
-0.1
0.35
-0.12

> <PUBCHEM_SHAPE_SELFOVERLAP>
1170.977

> <PUBCHEM_SHAPE_VOLUME>
312.5

> <PUBCHEM_COORDINATE_TYPE>
2
5
10

$$$$

