5219
  -OEChem-06261200353D

 22 23  0     0  0  0  0  0  0999 V2000
   -3.5618   -0.1343   -0.2987 O   0  0  0  0  0  0  0  0  0  0  0  0
    2.7419    1.0331   -0.2822 O   0  0  0  0  0  0  0  0  0  0  0  0
   -0.7708   -0.0179    0.2645 N   0  0  0  0  0  0  0  0  0  0  0  0
    0.6744    0.1226    0.1113 N   0  3  0  0  0  0  0  0  0  0  0  0
    1.3320    1.3661   -0.2480 N   0  5  0  0  0  0  0  0  0  0  0  0
    3.9707   -0.9479    0.1054 N   0  0  0  0  0  0  0  0  0  0  0  0
   -1.5601    1.1959    0.0282 C   0  0  0  0  0  0  0  0  0  0  0  0
   -1.3749   -1.1780   -0.3999 C   0  0  0  0  0  0  0  0  0  0  0  0
   -3.0186    0.9753    0.4158 C   0  0  0  0  0  0  0  0  0  0  0  0
   -2.8388   -1.3275    0.0012 C   0  0  0  0  0  0  0  0  0  0  0  0
    1.5277   -0.8061    0.2716 C   0  0  0  0  0  0  0  0  0  0  0  0
    2.8782   -0.2815    0.0307 C   0  0  0  0  0  0  0  0  0  0  0  0
   -1.5054    1.4752   -1.0323 H   0  0  0  0  0  0  0  0  0  0  0  0
   -1.1777    2.0347    0.6221 H   0  0  0  0  0  0  0  0  0  0  0  0
   -0.8570   -2.1059   -0.1335 H   0  0  0  0  0  0  0  0  0  0  0  0
   -1.3025   -1.0556   -1.4884 H   0  0  0  0  0  0  0  0  0  0  0  0
   -3.1285    0.8062    1.4941 H   0  0  0  0  0  0  0  0  0  0  0  0
   -3.6106    1.8593    0.1581 H   0  0  0  0  0  0  0  0  0  0  0  0
   -3.2980   -2.1454   -0.5633 H   0  0  0  0  0  0  0  0  0  0  0  0
   -2.9434   -1.5617    1.0677 H   0  0  0  0  0  0  0  0  0  0  0  0
    1.3363   -1.8458    0.5540 H   0  0  0  0  0  0  0  0  0  0  0  0
    4.7572   -0.3266   -0.1126 H   0  0  0  0  0  0  0  0  0  0  0  0
  1  9  1  0  0  0  0
  1 10  1  0  0  0  0
  2  5  1  0  0  0  0
  2 12  1  0  0  0  0
  3  4  1  0  0  0  0
  3  7  1  0  0  0  0
  3  8  1  0  0  0  0
  4  5  1  0  0  0  0
  4 11  2  0  0  0  0
  6 12  2  0  0  0  0
  6 22  1  0  0  0  0
  7  9  1  0  0  0  0
  7 13  1  0  0  0  0
  7 14  1  0  0  0  0
  8 10  1  0  0  0  0
  8 15  1  0  0  0  0
  8 16  1  0  0  0  0
  9 17  1  0  0  0  0
  9 18  1  0  0  0  0
 10 19  1  0  0  0  0
 10 20  1  0  0  0  0
 11 12  1  0  0  0  0
 11 21  1  0  0  0  0
M  CHG  2   4   1   5  -1
M  END
> <PUBCHEM_COMPOUND_CID>
5219

> <PUBCHEM_CONFORMER_RMSD>
0.6

> <PUBCHEM_CONFORMER_DIVERSEORDER>
1
5
4
2
3

> <PUBCHEM_MMFF94_PARTIAL_CHARGES>
14
1 -0.56
10 0.28
11 0.34
12 0.6
2 -0.52
21 0.06
22 0.4
3 -0.37
4 -0.12
5 -0.08
6 -0.85
7 0.27
8 0.27
9 0.28

> <PUBCHEM_EFFECTIVE_ROTOR_COUNT>
2.2

> <PUBCHEM_PHARMACOPHORE_FEATURES>
4
1 1 acceptor
1 6 donor
5 2 4 5 11 12 rings
6 1 3 7 8 9 10 rings

> <PUBCHEM_HEAVY_ATOM_COUNT>
12

> <PUBCHEM_ATOM_DEF_STEREO_COUNT>
0

> <PUBCHEM_ATOM_UDEF_STEREO_COUNT>
0

> <PUBCHEM_BOND_DEF_STEREO_COUNT>
0

> <PUBCHEM_BOND_UDEF_STEREO_COUNT>
0

> <PUBCHEM_ISOTOPIC_ATOM_COUNT>
0

> <PUBCHEM_COMPONENT_COUNT>
1

> <PUBCHEM_CACTVS_TAUTO_COUNT>
1

> <PUBCHEM_CONFORMER_ID>
0000146300000001

> <PUBCHEM_MMFF94_ENERGY>
25.5691

> <PUBCHEM_FEATURE_SELFOVERLAP>
20.297

> <PUBCHEM_SHAPE_FINGERPRINT>
11062470 55 6338952256667580683
12932764 1 17274833457835493298
14144814 61 18410856572524750083
14325111 11 18410292497295223801
15775835 57 18342171202372077785
18186145 218 17775573021882474178
190213 19 18413110554181854074
19422 9 18412539890504157367
20201158 50 18334294292338506591
20279233 1 16153427259321061342
20871998 184 18041275457586432103
21119208 17 18342178886005156407
23402539 116 18041007262943733349
23402655 69 18342459265591393372
23463225 33 18411138082109385182
23552423 10 18271527485766397807
3248919 1 17240754090653452593
7364860 26 18262238794577110392

> <PUBCHEM_SHAPE_MULTIPOLES>
215.29
6.36
1.44
0.63
1.83
0.06
0.01
-0.78
0.05
-0.38
-0.05
-0.08
-0.01
-0.33

> <PUBCHEM_SHAPE_SELFOVERLAP>
435.221

> <PUBCHEM_SHAPE_VOLUME>
124.2

> <PUBCHEM_COORDINATE_TYPE>
2
5
10

$$$$

