586305
  -OEChem-06241222462D

 27 28  0     1  0  0  0  0  0999 V2000
    4.6783    0.6824    0.0000 O   0  0  0  0  0  0  0  0  0  0  0  0
    3.7320   -0.6224    0.0000 C   0  0  3  0  0  0  0  0  0  0  0  0
    4.6783   -0.9271    0.0000 C   0  0  3  0  0  0  0  0  0  0  0  0
    2.8660   -1.1224    0.0000 C   0  0  0  0  0  0  0  0  0  0  0  0
    3.7320    0.3776    0.0000 C   0  0  0  0  0  0  0  0  0  0  0  0
    2.0000   -0.6224    0.0000 C   0  0  0  0  0  0  0  0  0  0  0  0
    5.2619   -0.1224    0.0000 C   0  0  0  0  0  0  0  0  0  0  0  0
    2.0000    0.3776    0.0000 C   0  0  0  0  0  0  0  0  0  0  0  0
    2.8660    0.8776    0.0000 C   0  0  0  0  0  0  0  0  0  0  0  0
    4.9889   -1.8776    0.0000 C   0  0  0  0  0  0  0  0  0  0  0  0
    2.8660    1.8776    0.0000 C   0  0  0  0  0  0  0  0  0  0  0  0
    3.8220   -1.4676    0.0000 H   0  0  0  0  0  0  0  0  0  0  0  0
    5.5180   -1.0590    0.0000 H   0  0  0  0  0  0  0  0  0  0  0  0
    2.4675   -1.5973    0.0000 H   0  0  0  0  0  0  0  0  0  0  0  0
    3.2646   -1.5973    0.0000 H   0  0  0  0  0  0  0  0  0  0  0  0
    1.3894   -0.5147    0.0000 H   0  0  0  0  0  0  0  0  0  0  0  0
    1.7880   -1.2050    0.0000 H   0  0  0  0  0  0  0  0  0  0  0  0
    5.7227   -0.5371    0.0000 H   0  0  0  0  0  0  0  0  0  0  0  0
    5.7227    0.2924    0.0000 H   0  0  0  0  0  0  0  0  0  0  0  0
    1.7880    0.9602    0.0000 H   0  0  0  0  0  0  0  0  0  0  0  0
    1.3894    0.2700    0.0000 H   0  0  0  0  0  0  0  0  0  0  0  0
    4.3996   -2.0702    0.0000 H   0  0  0  0  0  0  0  0  0  0  0  0
    5.1815   -2.4670    0.0000 H   0  0  0  0  0  0  0  0  0  0  0  0
    5.5783   -1.6850    0.0000 H   0  0  0  0  0  0  0  0  0  0  0  0
    3.4860    1.8776    0.0000 H   0  0  0  0  0  0  0  0  0  0  0  0
    2.8660    2.4976    0.0000 H   0  0  0  0  0  0  0  0  0  0  0  0
    2.2460    1.8776    0.0000 H   0  0  0  0  0  0  0  0  0  0  0  0
  1  5  1  0  0  0  0
  1  7  1  0  0  0  0
  2  3  1  0  0  0  0
  2  4  1  0  0  0  0
  2  5  1  0  0  0  0
  2 12  1  0  0  0  0
  3  7  1  0  0  0  0
  3 10  1  0  0  0  0
  3 13  1  0  0  0  0
  4  6  1  0  0  0  0
  4 14  1  0  0  0  0
  4 15  1  0  0  0  0
  5  9  2  0  0  0  0
  6  8  1  0  0  0  0
  6 16  1  0  0  0  0
  6 17  1  0  0  0  0
  7 18  1  0  0  0  0
  7 19  1  0  0  0  0
  8  9  1  0  0  0  0
  8 20  1  0  0  0  0
  8 21  1  0  0  0  0
  9 11  1  0  0  0  0
 10 22  1  0  0  0  0
 10 23  1  0  0  0  0
 10 24  1  0  0  0  0
 11 25  1  0  0  0  0
 11 26  1  0  0  0  0
 11 27  1  0  0  0  0
M  END
> <PUBCHEM_COMPOUND_CID>
586305

> <PUBCHEM_COMPOUND_CANONICALIZED>
1

> <PUBCHEM_CACTVS_COMPLEXITY>
193

> <PUBCHEM_CACTVS_HBOND_ACCEPTOR>
1

> <PUBCHEM_CACTVS_HBOND_DONOR>
0

> <PUBCHEM_CACTVS_ROTATABLE_BOND>
0

> <PUBCHEM_CACTVS_SUBSKEYS>
AAADceBwIAAAAAAAAAAAAAAAAAAAASAAAAAgAAAAAAAAAEAAAAAAGgAAAAAADQSggAICAAAABACAAgBAAAAACAAgIAAACAAAAAgAAAIAAAACAAAEgAAIAAOAwOAOgAAAAAAAAAAAAAAAAAAAAAAAAAAAAA==

> <PUBCHEM_IUPAC_OPENEYE_NAME>
3,7-dimethyl-2,3,3a,4,5,6-hexahydrobenzofuran

> <PUBCHEM_IUPAC_CAS_NAME>
3,7-dimethyl-2,3,3a,4,5,6-hexahydrobenzofuran

> <PUBCHEM_IUPAC_NAME>
3,7-dimethyl-2,3,3a,4,5,6-hexahydro-1-benzofuran

> <PUBCHEM_IUPAC_SYSTEMATIC_NAME>
3,7-dimethyl-2,3,3a,4,5,6-hexahydro-1-benzofuran

> <PUBCHEM_IUPAC_TRADITIONAL_NAME>
3,7-dimethyl-2,3,3a,4,5,6-hexahydrobenzofuran

> <PUBCHEM_IUPAC_INCHI>
InChI=1S/C10H16O/c1-7-4-3-5-9-8(2)6-11-10(7)9/h8-9H,3-6H2,1-2H3

> <PUBCHEM_IUPAC_INCHIKEY>
YWSBRMYYZMGIEY-UHFFFAOYSA-N

> <PUBCHEM_XLOGP3_AA>
2.2

> <PUBCHEM_EXACT_MASS>
152.120115

> <PUBCHEM_MOLECULAR_FORMULA>
C10H16O

> <PUBCHEM_MOLECULAR_WEIGHT>
152.23344

> <PUBCHEM_OPENEYE_CAN_SMILES>
CC1COC2=C(CCCC12)C

> <PUBCHEM_OPENEYE_ISO_SMILES>
CC1COC2=C(CCCC12)C

> <PUBCHEM_CACTVS_TPSA>
9.2

> <PUBCHEM_MONOISOTOPIC_WEIGHT>
152.120115

> <PUBCHEM_TOTAL_CHARGE>
0

> <PUBCHEM_HEAVY_ATOM_COUNT>
11

> <PUBCHEM_ATOM_DEF_STEREO_COUNT>
0

> <PUBCHEM_ATOM_UDEF_STEREO_COUNT>
2

> <PUBCHEM_BOND_DEF_STEREO_COUNT>
0

> <PUBCHEM_BOND_UDEF_STEREO_COUNT>
0

> <PUBCHEM_ISOTOPIC_ATOM_COUNT>
0

> <PUBCHEM_COMPONENT_COUNT>
1

> <PUBCHEM_CACTVS_TAUTO_COUNT>
1

> <PUBCHEM_COORDINATE_TYPE>
1
5
255

> <PUBCHEM_BONDANNOTATIONS>
2  12  3
3  13  3

$$$$

