12832
  -OEChem-06261207253D

 27 28  0     1  0  0  0  0  0999 V2000
    0.0103   -2.6070    0.3422 Cl  0  0  0  0  0  0  0  0  0  0  0  0
   -0.8816    2.2130    0.1668 N   0  0  0  0  0  0  0  0  0  0  0  0
    4.0011   -1.0464   -0.0094 N   0  0  0  0  0  0  0  0  0  0  0  0
    1.8805   -0.0724    0.8237 C   0  0  0  0  0  0  0  0  0  0  0  0
    0.5989    0.5964    0.5158 C   0  0  0  0  0  0  0  0  0  0  0  0
    2.7742   -0.3523   -0.4120 C   0  0  1  0  0  0  0  0  0  0  0  0
   -0.6521   -0.0058    0.2040 C   0  0  0  0  0  0  0  0  0  0  0  0
   -1.5636    1.0303   -0.0103 C   0  0  0  0  0  0  0  0  0  0  0  0
    0.4258    1.9611    0.4849 C   0  0  0  0  0  0  0  0  0  0  0  0
    3.1670    0.9293   -1.1469 C   0  0  0  0  0  0  0  0  0  0  0  0
   -1.0977   -1.3371    0.0831 C   0  0  0  0  0  0  0  0  0  0  0  0
   -2.9040    0.8006   -0.3405 C   0  0  0  0  0  0  0  0  0  0  0  0
   -2.4356   -1.5819   -0.2467 C   0  0  0  0  0  0  0  0  0  0  0  0
   -3.3232   -0.5279   -0.4545 C   0  0  0  0  0  0  0  0  0  0  0  0
    2.4464    0.5797    1.5070 H   0  0  0  0  0  0  0  0  0  0  0  0
    1.7290   -0.9817    1.4114 H   0  0  0  0  0  0  0  0  0  0  0  0
    2.2321   -0.9974   -1.1136 H   0  0  0  0  0  0  0  0  0  0  0  0
    1.1130    2.7772    0.6608 H   0  0  0  0  0  0  0  0  0  0  0  0
   -1.2883    3.1337    0.0750 H   0  0  0  0  0  0  0  0  0  0  0  0
    3.8657    0.7141   -1.9640 H   0  0  0  0  0  0  0  0  0  0  0  0
    3.6496    1.6480   -0.4751 H   0  0  0  0  0  0  0  0  0  0  0  0
    2.2966    1.4126   -1.6010 H   0  0  0  0  0  0  0  0  0  0  0  0
   -3.5957    1.6204   -0.5027 H   0  0  0  0  0  0  0  0  0  0  0  0
    4.5488   -1.2839   -0.8356 H   0  0  0  0  0  0  0  0  0  0  0  0
    3.7614   -1.9295    0.4395 H   0  0  0  0  0  0  0  0  0  0  0  0
   -2.7975   -2.6028   -0.3444 H   0  0  0  0  0  0  0  0  0  0  0  0
   -4.3582   -0.7408   -0.7098 H   0  0  0  0  0  0  0  0  0  0  0  0
  1 11  1  0  0  0  0
  2  8  1  0  0  0  0
  2  9  1  0  0  0  0
  2 19  1  0  0  0  0
  3  6  1  0  0  0  0
  3 24  1  0  0  0  0
  3 25  1  0  0  0  0
  4  5  1  0  0  0  0
  4  6  1  0  0  0  0
  4 15  1  0  0  0  0
  4 16  1  0  0  0  0
  5  7  1  0  0  0  0
  5  9  2  0  0  0  0
  6 10  1  0  0  0  0
  6 17  1  0  0  0  0
  7  8  2  0  0  0  0
  7 11  1  0  0  0  0
  8 12  1  0  0  0  0
  9 18  1  0  0  0  0
 10 20  1  0  0  0  0
 10 21  1  0  0  0  0
 10 22  1  0  0  0  0
 11 13  2  0  0  0  0
 12 14  2  0  0  0  0
 12 23  1  0  0  0  0
 13 14  1  0  0  0  0
 13 26  1  0  0  0  0
 14 27  1  0  0  0  0
M  END
> <PUBCHEM_COMPOUND_CID>
12832

> <PUBCHEM_CONFORMER_RMSD>
0.6

> <PUBCHEM_CONFORMER_DIVERSEORDER>
1
5
6
4
2
7
3

> <PUBCHEM_MMFF94_PARTIAL_CHARGES>
19
1 -0.18
11 0.18
12 -0.15
13 -0.15
14 -0.15
18 0.15
19 0.27
2 0.03
23 0.15
24 0.36
25 0.36
26 0.15
27 0.15
3 -0.99
4 0.18
5 -0.18
6 0.27
8 -0.15
9 -0.3

> <PUBCHEM_EFFECTIVE_ROTOR_COUNT>
2

> <PUBCHEM_PHARMACOPHORE_FEATURES>
6
1 2 cation
1 2 donor
1 3 cation
1 3 donor
5 2 5 7 8 9 rings
6 7 8 11 12 13 14 rings

> <PUBCHEM_HEAVY_ATOM_COUNT>
14

> <PUBCHEM_ATOM_DEF_STEREO_COUNT>
0

> <PUBCHEM_ATOM_UDEF_STEREO_COUNT>
1

> <PUBCHEM_BOND_DEF_STEREO_COUNT>
0

> <PUBCHEM_BOND_UDEF_STEREO_COUNT>
0

> <PUBCHEM_ISOTOPIC_ATOM_COUNT>
0

> <PUBCHEM_COMPONENT_COUNT>
1

> <PUBCHEM_CACTVS_TAUTO_COUNT>
1

> <PUBCHEM_CONFORMER_ID>
0000322000000001

> <PUBCHEM_MMFF94_ENERGY>
18.692

> <PUBCHEM_FEATURE_SELFOVERLAP>
30.538

> <PUBCHEM_SHAPE_FINGERPRINT>
10062212 137 18340217395874166459
10465860 71 18335688413137594580
11206711 2 18340218422687387333
11458722 379 18338513170310661598
12032990 46 18337391543953969427
12524768 44 17762067544823532195
14115302 16 18272087184561497054
14614273 12 18128260188638384493
14911166 2 18410023147570352749
16945 1 18337966670113203801
18186145 218 17203612575235420068
18619055 16 18342173328523138822
193761 8 17690284807101615243
20201158 50 18113898277651796822
20645476 183 17846783996304537370
20871999 31 18339075986797739503
22721475 48 18260824873735668790
22802520 49 18263640680101815978
2334 1 18122354484263264337
23402539 116 18337118946727128022
23463225 33 18269842067606446842
23552423 10 18053383481077992275
23557571 272 18113614604211149136
23559900 14 18334019423912657506
2748010 2 18123485890428865689
353137 74 18267304411753970219
43471831 8 18268998763489043794
7364860 26 17900264095893001937
81228 2 18042389382892377448

> <PUBCHEM_SHAPE_MULTIPOLES>
280.02
5.31
2.32
0.85
2.63
0.42
0.06
0.82
1.54
-0.42
-0.26
0.36
-0.08
-0.2

> <PUBCHEM_SHAPE_SELFOVERLAP>
590.757

> <PUBCHEM_SHAPE_VOLUME>
159.4

> <PUBCHEM_COORDINATE_TYPE>
2
5
10

$$$$

