854044
  -OEChem-06241222472D

 27 28  0     0  0  0  0  0  0999 V2000
    2.0000   -1.0154    0.0000 Cl  0  0  0  0  0  0  0  0  0  0  0  0
    3.7320    0.9846    0.0000 O   0  0  0  0  0  0  0  0  0  0  0  0
    7.2622    1.0087    0.0000 O   0  0  0  0  0  0  0  0  0  0  0  0
    2.0000    0.9846    0.0000 O   0  0  0  0  0  0  0  0  0  0  0  0
    9.8622    0.5188    0.0000 O   0  0  0  0  0  0  0  0  0  0  0  0
    8.9904    2.0154    0.0000 O   0  0  0  0  0  0  0  0  0  0  0  0
    4.5981   -0.5154    0.0000 C   0  0  0  0  0  0  0  0  0  0  0  0
    4.5981    0.4846    0.0000 C   0  0  0  0  0  0  0  0  0  0  0  0
    3.7320   -1.0154    0.0000 C   0  0  0  0  0  0  0  0  0  0  0  0
    5.4920   -1.0501    0.0000 C   0  0  0  0  0  0  0  0  0  0  0  0
    5.4920    1.0192    0.0000 C   0  0  0  0  0  0  0  0  0  0  0  0
    6.3981    0.5054    0.0000 C   0  0  0  0  0  0  0  0  0  0  0  0
    6.3981   -0.5362    0.0000 C   0  0  0  0  0  0  0  0  0  0  0  0
    2.8660   -0.5154    0.0000 C   0  0  0  0  0  0  0  0  0  0  0  0
    3.7320   -2.0154    0.0000 C   0  0  0  0  0  0  0  0  0  0  0  0
    2.8660    0.4846    0.0000 C   0  0  0  0  0  0  0  0  0  0  0  0
    8.1301    0.5121    0.0000 C   0  0  0  0  0  0  0  0  0  0  0  0
    8.9942    1.0154    0.0000 C   0  0  0  0  0  0  0  0  0  0  0  0
    5.4848   -1.6700    0.0000 H   0  0  0  0  0  0  0  0  0  0  0  0
    5.4848    1.6392    0.0000 H   0  0  0  0  0  0  0  0  0  0  0  0
    6.9338   -0.8483    0.0000 H   0  0  0  0  0  0  0  0  0  0  0  0
    3.1120   -2.0154    0.0000 H   0  0  0  0  0  0  0  0  0  0  0  0
    3.7320   -2.6354    0.0000 H   0  0  0  0  0  0  0  0  0  0  0  0
    4.3520   -2.0154    0.0000 H   0  0  0  0  0  0  0  0  0  0  0  0
    7.7334    0.0356    0.0000 H   0  0  0  0  0  0  0  0  0  0  0  0
    8.5305    0.0387    0.0000 H   0  0  0  0  0  0  0  0  0  0  0  0
   10.3979    0.8308    0.0000 H   0  0  0  0  0  0  0  0  0  0  0  0
  1 14  1  0  0  0  0
  2  8  1  0  0  0  0
  2 16  1  0  0  0  0
  3 12  1  0  0  0  0
  3 17  1  0  0  0  0
  4 16  2  0  0  0  0
  5 18  1  0  0  0  0
  5 27  1  0  0  0  0
  6 18  2  0  0  0  0
  7  8  2  0  0  0  0
  7  9  1  0  0  0  0
  7 10  1  0  0  0  0
  8 11  1  0  0  0  0
  9 14  2  0  0  0  0
  9 15  1  0  0  0  0
 10 13  2  0  0  0  0
 10 19  1  0  0  0  0
 11 12  2  0  0  0  0
 11 20  1  0  0  0  0
 12 13  1  0  0  0  0
 13 21  1  0  0  0  0
 14 16  1  0  0  0  0
 15 22  1  0  0  0  0
 15 23  1  0  0  0  0
 15 24  1  0  0  0  0
 17 18  1  0  0  0  0
 17 25  1  0  0  0  0
 17 26  1  0  0  0  0
M  END
> <PUBCHEM_COMPOUND_CID>
854044

> <PUBCHEM_COMPOUND_CANONICALIZED>
1

> <PUBCHEM_CACTVS_COMPLEXITY>
403

> <PUBCHEM_CACTVS_HBOND_ACCEPTOR>
5

> <PUBCHEM_CACTVS_HBOND_DONOR>
1

> <PUBCHEM_CACTVS_ROTATABLE_BOND>
3

> <PUBCHEM_CACTVS_SUBSKEYS>
AAADccBwOAAEAAAAAAAAAAAAAAAAAAAAAAAwQAAAAAAAAACBAAAAGgIACAAADAagmAIyDoAABgCIAiDSCAICCAAgIAAIiABGCchNJyKEMR6COiClwBULqQeA4KwOIAAACAAIAABAAAAQABAAAAAAAAAAAA==

> <PUBCHEM_IUPAC_OPENEYE_NAME>
2-(3-chloro-4-methyl-2-oxo-chromen-7-yl)oxyacetic acid

> <PUBCHEM_IUPAC_CAS_NAME>
2-[(3-chloro-4-methyl-2-oxo-1-benzopyran-7-yl)oxy]acetic acid

> <PUBCHEM_IUPAC_NAME>
2-(3-chloro-4-methyl-2-oxochromen-7-yl)oxyacetic acid

> <PUBCHEM_IUPAC_SYSTEMATIC_NAME>
2-(3-chloranyl-4-methyl-2-oxidanylidene-chromen-7-yl)oxyethanoic acid

> <PUBCHEM_IUPAC_TRADITIONAL_NAME>
2-(3-chloro-2-keto-4-methyl-chromen-7-yl)oxyacetic acid

> <PUBCHEM_IUPAC_INCHI>
InChI=1S/C12H9ClO5/c1-6-8-3-2-7(17-5-10(14)15)4-9(8)18-12(16)11(6)13/h2-4H,5H2,1H3,(H,14,15)

> <PUBCHEM_IUPAC_INCHIKEY>
MXLOCRJKRZBQBM-UHFFFAOYSA-N

> <PUBCHEM_XLOGP3_AA>
2.2

> <PUBCHEM_EXACT_MASS>
268.013851

> <PUBCHEM_MOLECULAR_FORMULA>
C12H9ClO5

> <PUBCHEM_MOLECULAR_WEIGHT>
268.64986

> <PUBCHEM_OPENEYE_CAN_SMILES>
CC1=C(C(=O)OC2=C1C=CC(=C2)OCC(=O)O)Cl

> <PUBCHEM_OPENEYE_ISO_SMILES>
CC1=C(C(=O)OC2=C1C=CC(=C2)OCC(=O)O)Cl

> <PUBCHEM_CACTVS_TPSA>
72.8

> <PUBCHEM_MONOISOTOPIC_WEIGHT>
268.013851

> <PUBCHEM_TOTAL_CHARGE>
0

> <PUBCHEM_HEAVY_ATOM_COUNT>
18

> <PUBCHEM_ATOM_DEF_STEREO_COUNT>
0

> <PUBCHEM_ATOM_UDEF_STEREO_COUNT>
0

> <PUBCHEM_BOND_DEF_STEREO_COUNT>
0

> <PUBCHEM_BOND_UDEF_STEREO_COUNT>
0

> <PUBCHEM_ISOTOPIC_ATOM_COUNT>
0

> <PUBCHEM_COMPONENT_COUNT>
1

> <PUBCHEM_CACTVS_TAUTO_COUNT>
1

> <PUBCHEM_COORDINATE_TYPE>
1
5
255

> <PUBCHEM_BONDANNOTATIONS>
10  13  8
11  12  8
12  13  8
14  16  8
2  16  8
2  8  8
7  10  8
7  8  8
7  9  8
8  11  8
9  14  8

$$$$

