9855
  -OEChem-06261204083D

 24 23  0     0  0  0  0  0  0999 V2000
   -4.0420    1.0256   -0.3760 F   0  0  0  0  0  0  0  0  0  0  0  0
    4.8567   -0.0681   -0.2113 O   0  0  0  0  0  0  0  0  0  0  0  0
   -0.0871   -0.5889   -0.1329 C   0  0  0  0  0  0  0  0  0  0  0  0
    1.1012    0.2913    0.2608 C   0  0  0  0  0  0  0  0  0  0  0  0
   -1.4126    0.0478    0.2918 C   0  0  0  0  0  0  0  0  0  0  0  0
    2.4564   -0.3061   -0.1350 C   0  0  0  0  0  0  0  0  0  0  0  0
   -2.6039   -0.8146   -0.1291 C   0  0  0  0  0  0  0  0  0  0  0  0
    3.6552    0.5836    0.1728 C   0  0  0  0  0  0  0  0  0  0  0  0
   -3.9239   -0.1705    0.2590 C   0  0  0  0  0  0  0  0  0  0  0  0
   -0.0822   -0.7439   -1.2185 H   0  0  0  0  0  0  0  0  0  0  0  0
    0.0155   -1.5750    0.3358 H   0  0  0  0  0  0  0  0  0  0  0  0
    0.9938    1.2746   -0.2138 H   0  0  0  0  0  0  0  0  0  0  0  0
    1.0890    0.4591    1.3448 H   0  0  0  0  0  0  0  0  0  0  0  0
   -1.4239    0.1849    1.3798 H   0  0  0  0  0  0  0  0  0  0  0  0
   -1.5005    1.0433   -0.1603 H   0  0  0  0  0  0  0  0  0  0  0  0
    2.5909   -1.2724    0.3677 H   0  0  0  0  0  0  0  0  0  0  0  0
    2.4567   -0.5352   -1.2084 H   0  0  0  0  0  0  0  0  0  0  0  0
   -2.5311   -1.8054    0.3331 H   0  0  0  0  0  0  0  0  0  0  0  0
   -2.5818   -0.9509   -1.2166 H   0  0  0  0  0  0  0  0  0  0  0  0
    3.7059    0.8005    1.2446 H   0  0  0  0  0  0  0  0  0  0  0  0
    3.5820    1.5289   -0.3745 H   0  0  0  0  0  0  0  0  0  0  0  0
   -4.7673   -0.7970   -0.0446 H   0  0  0  0  0  0  0  0  0  0  0  0
   -3.9857    0.0081    1.3365 H   0  0  0  0  0  0  0  0  0  0  0  0
    5.5894    0.5341    0.0033 H   0  0  0  0  0  0  0  0  0  0  0  0
  1  9  1  0  0  0  0
  2  8  1  0  0  0  0
  2 24  1  0  0  0  0
  3  4  1  0  0  0  0
  3  5  1  0  0  0  0
  3 10  1  0  0  0  0
  3 11  1  0  0  0  0
  4  6  1  0  0  0  0
  4 12  1  0  0  0  0
  4 13  1  0  0  0  0
  5  7  1  0  0  0  0
  5 14  1  0  0  0  0
  5 15  1  0  0  0  0
  6  8  1  0  0  0  0
  6 16  1  0  0  0  0
  6 17  1  0  0  0  0
  7  9  1  0  0  0  0
  7 18  1  0  0  0  0
  7 19  1  0  0  0  0
  8 20  1  0  0  0  0
  8 21  1  0  0  0  0
  9 22  1  0  0  0  0
  9 23  1  0  0  0  0
M  END
> <PUBCHEM_COMPOUND_CID>
9855

> <PUBCHEM_CONFORMER_RMSD>
0.6

> <PUBCHEM_CONFORMER_DIVERSEORDER>
1
77
155
4
161
165
166
84
136
23
2
156
38
135
159
168
63
8
149
67
178
43
47
163
109
72
12
114
130
15
157
53
75
46
176
41
167
3
50
152
71
111
91
83
30
150
99
6
65
112
92
121
22
58
181
51
18
117
66
142
7
126
171
11
182
133
151
16
81
48
59
134
131
25
10
172
21
89
119
36
128
179
73
35
76
88
24
180
70
14
144
68
174
64
125
34
153
90
120
29
110
146
86
93
132
169
19
162
44
60
170
127
20
33
175
145
164
137
82
129
107
52
27
177
148
96
56
39
17
154
80
113
173
5
140
106
124
87
141
28
158
101
143
118
13
79
139
123
105
9
147
62
26
102
37
103
78
160
69
61
42
97
54
95
104
55
98
100
32
74
122
57
115
40
45
85
138
94
31
108
49
116

> <PUBCHEM_MMFF94_PARTIAL_CHARGES>
5
1 -0.34
2 -0.68
24 0.4
8 0.28
9 0.34

> <PUBCHEM_EFFECTIVE_ROTOR_COUNT>
6

> <PUBCHEM_PHARMACOPHORE_FEATURES>
3
1 2 acceptor
1 2 donor
5 3 4 5 6 7 hydrophobe

> <PUBCHEM_HEAVY_ATOM_COUNT>
9

> <PUBCHEM_ATOM_DEF_STEREO_COUNT>
0

> <PUBCHEM_ATOM_UDEF_STEREO_COUNT>
0

> <PUBCHEM_BOND_DEF_STEREO_COUNT>
0

> <PUBCHEM_BOND_UDEF_STEREO_COUNT>
0

> <PUBCHEM_ISOTOPIC_ATOM_COUNT>
0

> <PUBCHEM_COMPONENT_COUNT>
1

> <PUBCHEM_CACTVS_TAUTO_COUNT>
1

> <PUBCHEM_CONFORMER_ID>
0000267F00000001

> <PUBCHEM_MMFF94_ENERGY>
-0.0375

> <PUBCHEM_FEATURE_SELFOVERLAP>
15.223

> <PUBCHEM_SHAPE_FINGERPRINT>
11062470 55 18412825780749342378
12932764 1 15554180159366400571
14123238 8 11312055444005909082
14325111 11 18409167696984541411
17834076 25 18411417310569961834
18342897 14 16774079574510154476
190213 19 17530679892529370842
20645477 70 17968372459112803222
20719005 15 18409448068070144035
20767249 213 17561085826377040765
21119208 17 17967250892727091750
22485316 2 18259706687959556310
23402539 116 18187653500309966060
42788 4 18413388722613917508

> <PUBCHEM_SHAPE_MULTIPOLES>
172.07
9.23
0.86
0.64
2.73
0.03
0.02
1.17
-0.51
-0.37
-0.05
-0.09
0.01
0.21

> <PUBCHEM_SHAPE_SELFOVERLAP>
302.314

> <PUBCHEM_SHAPE_VOLUME>
112.9

> <PUBCHEM_COORDINATE_TYPE>
2
5
10

$$$$

