12451
  -OEChem-06261206573D

 82 85  0     1  0  0  0  0  0999 V2000
    5.2286    0.9021    0.8675 O   0  0  0  0  0  0  0  0  0  0  0  0
    7.3913    1.4035    0.2388 O   0  0  0  0  0  0  0  0  0  0  0  0
   -1.4577   -0.5452    0.0212 C   0  0  1  0  0  0  0  0  0  0  0  0
   -0.5747   -0.1544   -1.1807 C   0  0  2  0  0  0  0  0  0  0  0  0
    0.9252   -0.2028   -0.8719 C   0  0  1  0  0  0  0  0  0  0  0  0
    1.3119   -1.6351   -0.4060 C   0  0  1  0  0  0  0  0  0  0  0  0
   -2.8526   -0.3330   -0.6163 C   0  0  2  0  0  0  0  0  0  0  0  0
   -1.1294   -2.0012    0.3810 C   0  0  0  0  0  0  0  0  0  0  0  0
    2.8521   -1.7538   -0.0582 C   0  0  1  0  0  0  0  0  0  0  0  0
   -1.1855    1.1564   -1.6668 C   0  0  0  0  0  0  0  0  0  0  0  0
    0.3653   -2.1765    0.7013 C   0  0  0  0  0  0  0  0  0  0  0  0
   -2.6946    0.9839   -1.4124 C   0  0  0  0  0  0  0  0  0  0  0  0
    1.7469    0.1759   -2.1126 C   0  0  0  0  0  0  0  0  0  0  0  0
   -4.0399   -0.3107    0.3358 C   0  0  1  0  0  0  0  0  0  0  0  0
   -1.2680    0.3610    1.2631 C   0  0  0  0  0  0  0  0  0  0  0  0
    3.7168   -0.8947   -0.9903 C   0  0  0  0  0  0  0  0  0  0  0  0
    3.1696   -1.2901    1.3905 C   0  0  0  0  0  0  0  0  0  0  0  0
    3.2073   -0.0694   -1.9207 C   0  0  0  0  0  0  0  0  0  0  0  0
    3.2386   -3.2473   -0.2217 C   0  0  0  0  0  0  0  0  0  0  0  0
    5.2085   -0.9122   -0.7342 C   0  0  0  0  0  0  0  0  0  0  0  0
    4.6703   -1.2698    1.7274 C   0  0  0  0  0  0  0  0  0  0  0  0
   -5.2290    0.4276   -0.3167 C   0  0  0  0  0  0  0  0  0  0  0  0
    5.5013   -0.4906    0.7083 C   0  0  2  0  0  0  0  0  0  0  0  0
   -4.4041   -1.7402    0.7509 C   0  0  0  0  0  0  0  0  0  0  0  0
   -6.4959    0.4395    0.5447 C   0  0  0  0  0  0  0  0  0  0  0  0
   -7.6944    1.1113   -0.1387 C   0  0  0  0  0  0  0  0  0  0  0  0
   -8.9819    1.2179    0.7004 C   0  0  0  0  0  0  0  0  0  0  0  0
    6.2722    1.7436    0.5971 C   0  0  0  0  0  0  0  0  0  0  0  0
   -9.4555   -0.1835    1.0977 C   0  0  0  0  0  0  0  0  0  0  0  0
  -10.1018    1.9517   -0.0374 C   0  0  0  0  0  0  0  0  0  0  0  0
    5.8220    3.1697    0.8112 C   0  0  0  0  0  0  0  0  0  0  0  0
    6.9369    4.1667    0.5475 C   0  0  0  0  0  0  0  0  0  0  0  0
   -0.7503   -0.8868   -1.9872 H   0  0  0  0  0  0  0  0  0  0  0  0
    1.1642    0.5150   -0.0779 H   0  0  0  0  0  0  0  0  0  0  0  0
    1.1343   -2.2845   -1.2790 H   0  0  0  0  0  0  0  0  0  0  0  0
   -3.0227   -1.1255   -1.3615 H   0  0  0  0  0  0  0  0  0  0  0  0
   -1.4040   -2.6758   -0.4392 H   0  0  0  0  0  0  0  0  0  0  0  0
   -1.6698   -2.3306    1.2698 H   0  0  0  0  0  0  0  0  0  0  0  0
   -0.7954    2.0125   -1.1048 H   0  0  0  0  0  0  0  0  0  0  0  0
   -0.9800    1.3348   -2.7272 H   0  0  0  0  0  0  0  0  0  0  0  0
    0.5693   -1.6771    1.6534 H   0  0  0  0  0  0  0  0  0  0  0  0
    0.5562   -3.2426    0.8663 H   0  0  0  0  0  0  0  0  0  0  0  0
   -3.0239    1.8664   -0.8545 H   0  0  0  0  0  0  0  0  0  0  0  0
   -3.2498    0.9463   -2.3559 H   0  0  0  0  0  0  0  0  0  0  0  0
    1.5989    1.2410   -2.3274 H   0  0  0  0  0  0  0  0  0  0  0  0
    1.4108   -0.3789   -2.9968 H   0  0  0  0  0  0  0  0  0  0  0  0
   -3.8049    0.2492    1.2466 H   0  0  0  0  0  0  0  0  0  0  0  0
   -1.6081    1.3871    1.0911 H   0  0  0  0  0  0  0  0  0  0  0  0
   -1.8228   -0.0309    2.1230 H   0  0  0  0  0  0  0  0  0  0  0  0
   -0.2236    0.4272    1.5799 H   0  0  0  0  0  0  0  0  0  0  0  0
    2.7616   -0.2843    1.5556 H   0  0  0  0  0  0  0  0  0  0  0  0
    2.6840   -1.9493    2.1196 H   0  0  0  0  0  0  0  0  0  0  0  0
    3.8754    0.5171   -2.5465 H   0  0  0  0  0  0  0  0  0  0  0  0
    3.0485   -3.5929   -1.2448 H   0  0  0  0  0  0  0  0  0  0  0  0
    4.2939   -3.4443   -0.0121 H   0  0  0  0  0  0  0  0  0  0  0  0
    2.6646   -3.8854    0.4579 H   0  0  0  0  0  0  0  0  0  0  0  0
    5.7276   -0.2390   -1.4275 H   0  0  0  0  0  0  0  0  0  0  0  0
    5.6051   -1.9150   -0.9252 H   0  0  0  0  0  0  0  0  0  0  0  0
    5.0428   -2.2985    1.7926 H   0  0  0  0  0  0  0  0  0  0  0  0
    4.7934   -0.8249    2.7226 H   0  0  0  0  0  0  0  0  0  0  0  0
   -4.9901    1.4757   -0.5177 H   0  0  0  0  0  0  0  0  0  0  0  0
   -5.4636   -0.0414   -1.2812 H   0  0  0  0  0  0  0  0  0  0  0  0
    6.5561   -0.6934    0.9351 H   0  0  0  0  0  0  0  0  0  0  0  0
   -3.5999   -2.2511    1.2712 H   0  0  0  0  0  0  0  0  0  0  0  0
   -5.2346   -1.7526    1.4624 H   0  0  0  0  0  0  0  0  0  0  0  0
   -4.6947   -2.3449   -0.1147 H   0  0  0  0  0  0  0  0  0  0  0  0
   -6.7871   -0.5881    0.7732 H   0  0  0  0  0  0  0  0  0  0  0  0
   -6.2874    0.9421    1.4965 H   0  0  0  0  0  0  0  0  0  0  0  0
   -7.9144    0.5755   -1.0717 H   0  0  0  0  0  0  0  0  0  0  0  0
   -7.3956    2.1255   -0.4349 H   0  0  0  0  0  0  0  0  0  0  0  0
   -8.7572    1.7783    1.6166 H   0  0  0  0  0  0  0  0  0  0  0  0
   -8.7524   -0.6675    1.7821 H   0  0  0  0  0  0  0  0  0  0  0  0
  -10.4181   -0.1316    1.6187 H   0  0  0  0  0  0  0  0  0  0  0  0
   -9.5838   -0.8267    0.2205 H   0  0  0  0  0  0  0  0  0  0  0  0
  -10.9936    2.0392    0.5921 H   0  0  0  0  0  0  0  0  0  0  0  0
  -10.3833    1.4249   -0.9555 H   0  0  0  0  0  0  0  0  0  0  0  0
   -9.7845    2.9633   -0.3115 H   0  0  0  0  0  0  0  0  0  0  0  0
    5.4807    3.2736    1.8466 H   0  0  0  0  0  0  0  0  0  0  0  0
    4.9849    3.3733    0.1350 H   0  0  0  0  0  0  0  0  0  0  0  0
    6.5813    5.1885    0.7118 H   0  0  0  0  0  0  0  0  0  0  0  0
    7.2962    4.0909   -0.4841 H   0  0  0  0  0  0  0  0  0  0  0  0
    7.7886    3.9892    1.2125 H   0  0  0  0  0  0  0  0  0  0  0  0
  1 23  1  0  0  0  0
  1 28  1  0  0  0  0
  2 28  2  0  0  0  0
  3  4  1  0  0  0  0
  3  7  1  0  0  0  0
  3  8  1  0  0  0  0
  3 15  1  0  0  0  0
  4  5  1  0  0  0  0
  4 10  1  0  0  0  0
  4 33  1  0  0  0  0
  5  6  1  0  0  0  0
  5 13  1  0  0  0  0
  5 34  1  0  0  0  0
  6  9  1  0  0  0  0
  6 11  1  0  0  0  0
  6 35  1  0  0  0  0
  7 12  1  0  0  0  0
  7 14  1  0  0  0  0
  7 36  1  0  0  0  0
  8 11  1  0  0  0  0
  8 37  1  0  0  0  0
  8 38  1  0  0  0  0
  9 16  1  0  0  0  0
  9 17  1  0  0  0  0
  9 19  1  0  0  0  0
 10 12  1  0  0  0  0
 10 39  1  0  0  0  0
 10 40  1  0  0  0  0
 11 41  1  0  0  0  0
 11 42  1  0  0  0  0
 12 43  1  0  0  0  0
 12 44  1  0  0  0  0
 13 18  1  0  0  0  0
 13 45  1  0  0  0  0
 13 46  1  0  0  0  0
 14 22  1  0  0  0  0
 14 24  1  0  0  0  0
 14 47  1  0  0  0  0
 15 48  1  0  0  0  0
 15 49  1  0  0  0  0
 15 50  1  0  0  0  0
 16 18  2  0  0  0  0
 16 20  1  0  0  0  0
 17 21  1  0  0  0  0
 17 51  1  0  0  0  0
 17 52  1  0  0  0  0
 18 53  1  0  0  0  0
 19 54  1  0  0  0  0
 19 55  1  0  0  0  0
 19 56  1  0  0  0  0
 20 23  1  0  0  0  0
 20 57  1  0  0  0  0
 20 58  1  0  0  0  0
 21 23  1  0  0  0  0
 21 59  1  0  0  0  0
 21 60  1  0  0  0  0
 22 25  1  0  0  0  0
 22 61  1  0  0  0  0
 22 62  1  0  0  0  0
 23 63  1  0  0  0  0
 24 64  1  0  0  0  0
 24 65  1  0  0  0  0
 24 66  1  0  0  0  0
 25 26  1  0  0  0  0
 25 67  1  0  0  0  0
 25 68  1  0  0  0  0
 26 27  1  0  0  0  0
 26 69  1  0  0  0  0
 26 70  1  0  0  0  0
 27 29  1  0  0  0  0
 27 30  1  0  0  0  0
 27 71  1  0  0  0  0
 28 31  1  0  0  0  0
 29 72  1  0  0  0  0
 29 73  1  0  0  0  0
 29 74  1  0  0  0  0
 30 75  1  0  0  0  0
 30 76  1  0  0  0  0
 30 77  1  0  0  0  0
 31 32  1  0  0  0  0
 31 78  1  0  0  0  0
 31 79  1  0  0  0  0
 32 80  1  0  0  0  0
 32 81  1  0  0  0  0
 32 82  1  0  0  0  0
M  END
> <PUBCHEM_COMPOUND_CID>
12451

> <PUBCHEM_CONFORMER_RMSD>
1

> <PUBCHEM_CONFORMER_DIVERSEORDER>
1
407
130
154
425
406
411
352
362
205
176
351
419
207
365
127
381
274
8
281
339
99
258
370
155
19
73
16
297
244
333
331
295
75
374
87
47
305
190
267
356
393
317
132
272
139
55
391
138
107
328
378
387
31
316
122
72
95
369
400
191
226
423
57
372
29
228
341
126
368
265
161
345
213
134
24
428
424
375
84
222
240
270
66
353
169
255
200
150
354
76
404
171
142
416
229
288
279
202
128
373
399
219
123
90
232
59
389
211
291
330
380
28
422
89
433
193
386
157
376
141
43
181
320
220
421
246
125
100
367
384
61
196
149
286
83
153
349
392
129
412
358
301
245
340
30
323
103
237
54
382
263
67
236
285
302
13
394
348
62
271
269
81
363
56
215
284
408
239
131
94
319
403
93
230
197
327
253
182
39
252
309
170
249
410
322
195
371
189
241
60
276
395
68
140
247
254
366
329
273
120
179
104
175
401
146
65
160
235
46
347
259
225
287
152
289
78
4
82
290
299
414
429
199
315
298
344
143
321
25
185
6
248
361
172
137
11
350
238
147
135
355
310
20
101
264
167
14
12
343
217
91
115
390
148
165
206
77
27
174
234
63
303
108
383
413
86
74
162
97
335
106
388
432
208
318
201
306
227
111
342
307
164
431
409
79
5
277
243
280
397
52
163
186
36
26
92
260
282
17
293
18
324
256
102
212
426
360
233
192
325
194
183
278
304
121
144
2
71
332
53
23
117
359
178
7
151
402
296
173
427
166
266
313
417
85
204
21
420
35
188
415
3
37
64
105
311
51
418
15
116
216
184
292
314
112
98
145
405
124
42
283
156
44
133
158
203
187
346
119
218
209
337
88
231
96
334
45
159
275
308
379
242
430
338
22
136
221
33
300
250
312
48
41
214
377
110
9
268
262
180
40
224
385
396
294
261
114
210
49
257
168
109
70
118
251
326
58
69
223
38
198
113
32
336
34
10
177
357
364
398
80
50

> <PUBCHEM_MMFF94_PARTIAL_CHARGES>
11
1 -0.43
13 0.14
16 -0.28
18 -0.29
2 -0.57
20 0.14
23 0.28
28 0.66
31 0.06
53 0.15
9 0.14

> <PUBCHEM_EFFECTIVE_ROTOR_COUNT>
10

> <PUBCHEM_PHARMACOPHORE_FEATURES>
9
1 2 acceptor
1 24 hydrophobe
1 32 hydrophobe
3 27 29 30 hydrophobe
5 14 22 25 26 27 hydrophobe
5 3 4 7 10 12 rings
6 3 4 5 6 8 11 rings
6 5 6 9 13 16 18 rings
6 9 16 17 20 21 23 rings

> <PUBCHEM_HEAVY_ATOM_COUNT>
32

> <PUBCHEM_ATOM_DEF_STEREO_COUNT>
4

> <PUBCHEM_ATOM_UDEF_STEREO_COUNT>
4

> <PUBCHEM_BOND_DEF_STEREO_COUNT>
0

> <PUBCHEM_BOND_UDEF_STEREO_COUNT>
0

> <PUBCHEM_ISOTOPIC_ATOM_COUNT>
0

> <PUBCHEM_COMPONENT_COUNT>
1

> <PUBCHEM_CACTVS_TAUTO_COUNT>
1

> <PUBCHEM_CONFORMER_ID>
000030A300000001

> <PUBCHEM_MMFF94_ENERGY>
88.3848

> <PUBCHEM_FEATURE_SELFOVERLAP>
45.78

> <PUBCHEM_SHAPE_FINGERPRINT>
10 15 18202001040863514843
10165383 225 18411136936249864038
10693767 8 9151177541193873572
11181472 205 17605263181383963305
11408170 132 14057268853535882553
11578821 258 18261675969864290281
11719270 70 17989200495604824003
12522641 24 18342180028841614922
12539765 74 17822286912230436311
12633257 1 15267066913737316434
12838862 33 17775293768606479815
13383668 362 17844799292697699465
13617811 41 15140961768208941681
13782708 43 13039187000476985257
14040221 8 15936678380638655073
14114211 68 15502365729995460940
14202775 3 8646472039766392373
14251764 18 18060696209325662359
14849402 71 18261393322155292369
15131766 46 17823710667982333136
15183329 4 17917416675798476991
15475509 35 12967139285486758956
15840311 113 18410008853396997733
16728433 110 18409728479472616601
18393751 57 18130795542092971698
19315958 150 18335979844323594995
2026 5 10591501502439623192
20771845 140 15410899565077772152
20771845 171 16877936182952794686
21057603 130 12391510855180204224
21130935 74 18128815421358949667
21267235 1 17345749823302737030
21344244 78 16200435775735133900
21521721 280 18409731777105211899
21781051 124 11023812995123803657
21792934 111 17704356593722974941
22224240 67 18343020013128782171
23559900 14 17916582193354411854
23576562 1 14057588725789517521
24771293 8 18270966739189404061
27425 322 18040718043719378702
3418910 222 17240474807202580969
34797466 226 18040431126786533743
4258327 124 17240763944068208501
439807 62 10447929477117460505
4625314 4 18187364311488050622
504579 68 5545197221054660697
5104073 3 17845382213679114120

> <PUBCHEM_SHAPE_MULTIPOLES>
646.81
25.3
3.02
1.55
53.04
1.88
0.41
20.54
-8.96
-6.63
-0.86
-1.01
0.05
1.44

> <PUBCHEM_SHAPE_SELFOVERLAP>
1332.717

> <PUBCHEM_SHAPE_VOLUME>
371.3

> <PUBCHEM_COORDINATE_TYPE>
2
5
10

$$$$

