14157
  -OEChem-06241222423D

 35 36  0     1  0  0  0  0  0999 V2000
   -2.3914   -1.8578   -1.7913 O   0  0  0  0  0  0  0  0  0  0  0  0
   -0.3130   -1.9943   -0.0010 O   0  0  0  0  0  0  0  0  0  0  0  0
    0.4304    0.0730   -0.8328 N   0  0  0  0  0  0  0  0  0  0  0  0
    2.4844    1.2345   -0.6816 N   0  0  0  0  0  0  0  0  0  0  0  0
   -1.8279   -0.6409   -1.3051 C   0  0  1  0  0  0  0  0  0  0  0  0
   -2.7908    0.0175   -0.3758 C   0  0  0  0  0  0  0  0  0  0  0  0
   -0.4872   -0.9529   -0.6274 C   0  0  0  0  0  0  0  0  0  0  0  0
    1.7644    0.1433   -0.3664 C   0  0  0  0  0  0  0  0  0  0  0  0
    3.5327   -0.8623    0.8407 C   0  0  0  0  0  0  0  0  0  0  0  0
    2.2225   -0.9221    0.3790 C   0  0  0  0  0  0  0  0  0  0  0  0
    3.7532    1.2573   -0.2155 C   0  0  0  0  0  0  0  0  0  0  0  0
    4.3193    0.2448    0.5423 C   0  0  0  0  0  0  0  0  0  0  0  0
   -3.6606   -0.7576    0.3914 C   0  0  0  0  0  0  0  0  0  0  0  0
   -2.8214    1.4082   -0.2731 C   0  0  0  0  0  0  0  0  0  0  0  0
    4.0922   -1.9811    1.6518 C   0  0  0  0  0  0  0  0  0  0  0  0
   -4.5611   -0.1421    1.2608 C   0  0  0  0  0  0  0  0  0  0  0  0
   -3.7218    2.0238    0.5964 C   0  0  0  0  0  0  0  0  0  0  0  0
    4.5680    2.4602   -0.5557 C   0  0  0  0  0  0  0  0  0  0  0  0
   -4.5917    1.2485    1.3633 C   0  0  0  0  0  0  0  0  0  0  0  0
   -1.6689   -0.0077   -2.1864 H   0  0  0  0  0  0  0  0  0  0  0  0
    0.1382    0.8827   -1.3742 H   0  0  0  0  0  0  0  0  0  0  0  0
    1.6687   -1.8068    0.6437 H   0  0  0  0  0  0  0  0  0  0  0  0
    5.3453    0.3155    0.8894 H   0  0  0  0  0  0  0  0  0  0  0  0
   -3.6493   -1.8430    0.3417 H   0  0  0  0  0  0  0  0  0  0  0  0
   -2.1492    2.0242   -0.8645 H   0  0  0  0  0  0  0  0  0  0  0  0
    5.0457   -1.7080    2.1165 H   0  0  0  0  0  0  0  0  0  0  0  0
    3.4039   -2.2524    2.4593 H   0  0  0  0  0  0  0  0  0  0  0  0
    4.2617   -2.8577    1.0183 H   0  0  0  0  0  0  0  0  0  0  0  0
   -5.2362   -0.7455    1.8604 H   0  0  0  0  0  0  0  0  0  0  0  0
   -3.7455    3.1067    0.6767 H   0  0  0  0  0  0  0  0  0  0  0  0
    3.9893    3.1708   -1.1550 H   0  0  0  0  0  0  0  0  0  0  0  0
    4.8903    2.9722    0.3565 H   0  0  0  0  0  0  0  0  0  0  0  0
    5.4506    2.1708   -1.1348 H   0  0  0  0  0  0  0  0  0  0  0  0
   -5.2921    1.7278    2.0409 H   0  0  0  0  0  0  0  0  0  0  0  0
   -1.7978   -2.1970   -2.4832 H   0  0  0  0  0  0  0  0  0  0  0  0
  1  5  1  0  0  0  0
  1 35  1  0  0  0  0
  2  7  2  0  0  0  0
  3  7  1  0  0  0  0
  3  8  1  0  0  0  0
  3 21  1  0  0  0  0
  4  8  1  0  0  0  0
  4 11  2  0  0  0  0
  5  6  1  0  0  0  0
  5  7  1  0  0  0  0
  5 20  1  0  0  0  0
  6 13  2  0  0  0  0
  6 14  1  0  0  0  0
  8 10  2  0  0  0  0
  9 10  1  0  0  0  0
  9 12  2  0  0  0  0
  9 15  1  0  0  0  0
 10 22  1  0  0  0  0
 11 12  1  0  0  0  0
 11 18  1  0  0  0  0
 12 23  1  0  0  0  0
 13 16  1  0  0  0  0
 13 24  1  0  0  0  0
 14 17  2  0  0  0  0
 14 25  1  0  0  0  0
 15 26  1  0  0  0  0
 15 27  1  0  0  0  0
 15 28  1  0  0  0  0
 16 19  2  0  0  0  0
 16 29  1  0  0  0  0
 17 19  1  0  0  0  0
 17 30  1  0  0  0  0
 18 31  1  0  0  0  0
 18 32  1  0  0  0  0
 18 33  1  0  0  0  0
 19 34  1  0  0  0  0
M  END
> <PUBCHEM_COMPOUND_CID>
14157

> <PUBCHEM_CONFORMER_RMSD>
0.6

> <PUBCHEM_CONFORMER_DIVERSEORDER>
4
13
16
6
11
9
14
18
17
7
12
21
3
1
8
5
20
2
19
10
15

> <PUBCHEM_MMFF94_PARTIAL_CHARGES>
28
1 -0.68
10 -0.15
11 0.17
12 -0.15
13 -0.15
14 -0.15
15 0.14
16 -0.15
17 -0.15
18 0.14
19 -0.15
2 -0.57
21 0.37
22 0.15
23 0.15
24 0.15
25 0.15
29 0.15
3 -0.55
30 0.15
34 0.15
35 0.4
4 -0.62
5 0.48
6 -0.14
7 0.57
8 0.43
9 -0.14

> <PUBCHEM_EFFECTIVE_ROTOR_COUNT>
4

> <PUBCHEM_PHARMACOPHORE_FEATURES>
7
1 1 acceptor
1 1 donor
1 2 acceptor
1 3 donor
1 4 acceptor
6 4 8 9 10 11 12 rings
6 6 13 14 16 17 19 rings

> <PUBCHEM_HEAVY_ATOM_COUNT>
19

> <PUBCHEM_ATOM_DEF_STEREO_COUNT>
0

> <PUBCHEM_ATOM_UDEF_STEREO_COUNT>
1

> <PUBCHEM_BOND_DEF_STEREO_COUNT>
0

> <PUBCHEM_BOND_UDEF_STEREO_COUNT>
0

> <PUBCHEM_ISOTOPIC_ATOM_COUNT>
0

> <PUBCHEM_COMPONENT_COUNT>
1

> <PUBCHEM_CACTVS_TAUTO_COUNT>
3

> <PUBCHEM_CONFORMER_ID>
0000374D00000004

> <PUBCHEM_MMFF94_ENERGY>
50.9908

> <PUBCHEM_FEATURE_SELFOVERLAP>
35.525

> <PUBCHEM_SHAPE_FINGERPRINT>
10670039 82 17386549379984550616
11046707 91 12967123917724060293
11370993 144 17703788180074943025
11552529 35 18128813036887293907
11796584 16 14331470612421025706
12107183 9 17981892156902875353
12363563 72 13542455462985202423
12403259 118 18337113479223561513
12596602 18 18202278083354933201
12644460 14 17917718994061551712
12670546 177 7565338725980108673
12670546 56 18411424989976761831
12788726 201 17899990334641047855
12892183 10 18060129934244536809
13583140 156 17845946232994827405
13675066 3 18261115217925620146
14252887 29 16917071053492244544
14341114 176 18131060554591561281
14341114 328 18336817654861036609
14739800 52 17897465908258313208
15842332 3 18263943067675464614
1741750 31 17458063794008761599
18222031 100 14764337233016534419
19078846 21 18041008323478869560
19377110 9 18267596718938888674
193927 3 14189277288760298393
19862831 5 7565343124047738101
20567600 299 5039078875488537986
20645477 56 17385437696513727431
20671657 53 11095873853062277727
20739085 24 18059568131316441628
21065198 48 18413670201489963187
21065199 12 17917710218726181401
21065201 7 16733268945793360910
21503847 285 18411975897411584392
21756936 100 18264765459586579876
21864079 5 18408040693323903404
22646028 28 10519989261609476732
22849341 161 18267020747151138450
23403322 49 11239994530264521817
23557571 272 16298386803876597951
23559900 14 16805316709093869926
27216 239 18334570266168791537
314173 85 14692565533697938103
3268164 11 16660659422962165909
341906 21 17385450911990843376
38570 142 18056735686611597748
4028521 119 15285635538625659331
4921388 177 14057012602786401005
5104073 3 18342740719251406672
5352402 22 17132111368219456306
633830 44 18335136522498133230
7615 1 18262821574230669502
7808743 9 18040993995046204032

> <PUBCHEM_SHAPE_MULTIPOLES>
369.31
11.09
2.23
1.36
0.63
0.45
0
3.46
4.36
1.39
0.05
-0.68
-0.47
-2.16

> <PUBCHEM_SHAPE_SELFOVERLAP>
785.475

> <PUBCHEM_SHAPE_VOLUME>
205.7

> <PUBCHEM_COORDINATE_TYPE>
2
5
10

$$$$

