17395275
  -OEChem-06241222493D

 28 30  0     0  0  0  0  0  0999 V2000
    0.0236    0.4064    0.2130 S   0  0  0  0  0  0  0  0  0  0  0  0
    5.3512    0.8882   -1.8207 F   0  0  0  0  0  0  0  0  0  0  0  0
   -2.7084    0.2524    0.0362 N   0  0  0  0  0  0  0  0  0  0  0  0
   -1.6693   -1.6552   -0.2743 N   0  0  0  0  0  0  0  0  0  0  0  0
   -3.0257   -1.8859   -0.3918 N   0  0  0  0  0  0  0  0  0  0  0  0
   -1.4981   -0.3771   -0.0198 C   0  0  0  0  0  0  0  0  0  0  0  0
   -3.6454   -0.7400   -0.2052 C   0  0  0  0  0  0  0  0  0  0  0  0
    1.2328   -0.9494    0.0183 C   0  0  0  0  0  0  0  0  0  0  0  0
    2.6345   -0.4619    0.1878 C   0  0  0  0  0  0  0  0  0  0  0  0
   -3.0323    1.5820    0.2745 C   0  0  0  0  0  0  0  0  0  0  0  0
   -5.0158   -0.3585   -0.2052 C   0  0  0  0  0  0  0  0  0  0  0  0
    3.3526   -0.0056   -0.9176 C   0  0  0  0  0  0  0  0  0  0  0  0
    3.2248   -0.4616    1.4516 C   0  0  0  0  0  0  0  0  0  0  0  0
   -4.3269    1.9414    0.2735 C   0  0  0  0  0  0  0  0  0  0  0  0
   -5.3434    0.9286    0.0243 C   0  0  0  0  0  0  0  0  0  0  0  0
    4.6611    0.4508   -0.7592 C   0  0  0  0  0  0  0  0  0  0  0  0
    4.5332   -0.0053    1.6100 C   0  0  0  0  0  0  0  0  0  0  0  0
    5.2515    0.4509    0.5046 C   0  0  0  0  0  0  0  0  0  0  0  0
    1.0144   -1.7337    0.7527 H   0  0  0  0  0  0  0  0  0  0  0  0
    1.1079   -1.4027   -0.9720 H   0  0  0  0  0  0  0  0  0  0  0  0
   -2.2376    2.2949    0.4544 H   0  0  0  0  0  0  0  0  0  0  0  0
   -5.7797   -1.1053   -0.3895 H   0  0  0  0  0  0  0  0  0  0  0  0
    2.9045    0.0005   -1.9077 H   0  0  0  0  0  0  0  0  0  0  0  0
    2.6760   -0.8133    2.3213 H   0  0  0  0  0  0  0  0  0  0  0  0
   -4.6377    2.9634    0.4531 H   0  0  0  0  0  0  0  0  0  0  0  0
   -6.3810    1.2447    0.0295 H   0  0  0  0  0  0  0  0  0  0  0  0
    4.9929   -0.0048    2.5939 H   0  0  0  0  0  0  0  0  0  0  0  0
    6.2703    0.8062    0.6277 H   0  0  0  0  0  0  0  0  0  0  0  0
  1  6  1  0  0  0  0
  1  8  1  0  0  0  0
  2 16  1  0  0  0  0
  3  6  1  0  0  0  0
  3  7  1  0  0  0  0
  3 10  1  0  0  0  0
  4  5  1  0  0  0  0
  4  6  2  0  0  0  0
  5  7  2  0  0  0  0
  7 11  1  0  0  0  0
  8  9  1  0  0  0  0
  8 19  1  0  0  0  0
  8 20  1  0  0  0  0
  9 12  2  0  0  0  0
  9 13  1  0  0  0  0
 10 14  2  0  0  0  0
 10 21  1  0  0  0  0
 11 15  2  0  0  0  0
 11 22  1  0  0  0  0
 12 16  1  0  0  0  0
 12 23  1  0  0  0  0
 13 17  2  0  0  0  0
 13 24  1  0  0  0  0
 14 15  1  0  0  0  0
 14 25  1  0  0  0  0
 15 26  1  0  0  0  0
 16 18  2  0  0  0  0
 17 18  1  0  0  0  0
 17 27  1  0  0  0  0
 18 28  1  0  0  0  0
M  END
> <PUBCHEM_COMPOUND_CID>
17395275

> <PUBCHEM_CONFORMER_RMSD>
0.6

> <PUBCHEM_CONFORMER_DIVERSEORDER>
1
43
59
51
49
34
29
55
8
94
46
60
63
85
44
41
54
72
18
45
91
61
3
36
48
28
57
53
62
47
58
19
52
27
93
64
38
20
78
40
25
56
30
2
17
35
77
32
5
92
9
83
31
37
12
23
84
33
65
75
11
10
79
22
80
66
71
96
39
95
26
21
50
7
24
42
74
70
69
73
76
68
86
67
14
6
89
90
4
13
82
81
87
88
15
16

> <PUBCHEM_MMFF94_PARTIAL_CHARGES>
26
1 -0.29
10 -0.18
11 -0.11
12 -0.15
13 -0.15
14 -0.15
15 -0.15
16 0.19
17 -0.15
18 -0.15
2 -0.19
21 0.15
22 0.15
23 0.15
24 0.15
25 0.15
26 0.15
27 0.15
28 0.15
3 0.33
4 -0.34
5 -0.34
6 0.24
7 0.14
8 0.37
9 -0.14

> <PUBCHEM_EFFECTIVE_ROTOR_COUNT>
3

> <PUBCHEM_PHARMACOPHORE_FEATURES>
5
3 3 4 6 cation
3 3 5 7 cation
5 3 4 5 6 7 rings
6 3 7 10 11 14 15 rings
6 9 12 13 16 17 18 rings

> <PUBCHEM_HEAVY_ATOM_COUNT>
18

> <PUBCHEM_ATOM_DEF_STEREO_COUNT>
0

> <PUBCHEM_ATOM_UDEF_STEREO_COUNT>
0

> <PUBCHEM_BOND_DEF_STEREO_COUNT>
0

> <PUBCHEM_BOND_UDEF_STEREO_COUNT>
0

> <PUBCHEM_ISOTOPIC_ATOM_COUNT>
0

> <PUBCHEM_COMPONENT_COUNT>
1

> <PUBCHEM_CACTVS_TAUTO_COUNT>
1

> <PUBCHEM_CONFORMER_ID>
01096E4B00000001

> <PUBCHEM_MMFF94_ENERGY>
36.0364

> <PUBCHEM_FEATURE_SELFOVERLAP>
27.952

> <PUBCHEM_SHAPE_FINGERPRINT>
10498660 4 18187082884003646664
10670039 82 18337380656333486036
10912923 1 17846502512874730426
12107183 9 17481159219980090576
12236239 1 17988926669072784491
12390115 104 17823125891368844593
12596602 18 17346876750017629833
12616971 3 17632585946154465890
12916748 109 18409726279261983091
12969540 114 17022915570083164765
13760787 5 17418381285380059662
13897977 58 18413668015726220853
13955234 65 16343430557610546976
14341114 328 17917712400648578682
14386348 63 17313101938728943774
14573314 32 17530962509782921796
15242439 84 17385722500005670222
15375358 24 17821451265532688790
15880784 105 15841548570210705793
17844677 252 17967531255365639832
19489759 90 18259708899872709139
20645477 56 18260831509977066851
20645477 70 15646765713395025516
21033648 29 16660657270671750379
22061861 79 16008744723546193868
221357 26 16008749138582605520
2215653 11 17168145654370271581
2297311 6 18040145206877393385
23175994 123 16587744214038666377
23402539 116 18261404342813747333
23557571 272 18041267824986259981
23559900 14 18113895009482306574
23596394 208 16950555632138842190
300161 21 18202290194856615660
3004659 81 18337107986261297346
34797466 226 17676764271571218444
3545911 37 18186800296340086763
4214541 1 18335423473674034529
474 4 17417804007384155580
5104073 3 16773515452663872456
5281201 14 16443059504804611912
542803 24 18059856168623190138
543368 44 18058723602938108820
573450 72 18342187664797237274
90127 26 16805321102191357544
960060 61 13840269174010739488

> <PUBCHEM_SHAPE_MULTIPOLES>
352.06
14.07
1.49
1.12
2.98
0
-0.01
3.81
-0.78
-2.05
-0.05
2.17
0.13
-0.74

> <PUBCHEM_SHAPE_SELFOVERLAP>
755.145

> <PUBCHEM_SHAPE_VOLUME>
197.9

> <PUBCHEM_COORDINATE_TYPE>
2
5
10

$$$$

