47205619
  -OEChem-06241222593D

 27 27  0     0  0  0  0  0  0999 V2000
   -2.3016   -0.0078   -0.1966 O   0  0  0  0  0  0  0  0  0  0  0  0
    3.6622   -1.3768    0.4644 O   0  0  0  0  0  0  0  0  0  0  0  0
    0.1378    1.9973   -0.7516 O   0  0  0  0  0  0  0  0  0  0  0  0
   -2.1741    1.9987    0.9688 O   0  0  0  0  0  0  0  0  0  0  0  0
    0.3971   -0.0297    0.4468 N   0  0  0  0  0  0  0  0  0  0  0  0
    2.3252   -1.4364    0.8382 N   0  0  0  0  0  0  0  0  0  0  0  0
   -4.2273   -1.3923   -0.5718 C   0  0  0  0  0  0  0  0  0  0  0  0
   -3.7034   -0.1151    0.0667 C   0  0  0  0  0  0  0  0  0  0  0  0
   -5.7182   -1.5665   -0.3455 C   0  0  0  0  0  0  0  0  0  0  0  0
    1.7670   -0.3482    0.3004 C   0  0  0  0  0  0  0  0  0  0  0  0
    3.8694   -0.2623   -0.2826 C   0  0  0  0  0  0  0  0  0  0  0  0
    2.6939    0.4279   -0.4169 C   0  0  0  0  0  0  0  0  0  0  0  0
   -0.2592    1.0663   -0.0712 C   0  0  0  0  0  0  0  0  0  0  0  0
   -1.7072    1.0860    0.3162 C   0  0  0  0  0  0  0  0  0  0  0  0
    5.2383   -0.0412   -0.7652 C   0  0  0  0  0  0  0  0  0  0  0  0
   -4.0130   -1.3805   -1.6472 H   0  0  0  0  0  0  0  0  0  0  0  0
   -3.6852   -2.2550   -0.1664 H   0  0  0  0  0  0  0  0  0  0  0  0
   -4.2180    0.7563   -0.3553 H   0  0  0  0  0  0  0  0  0  0  0  0
   -3.8675   -0.1403    1.1505 H   0  0  0  0  0  0  0  0  0  0  0  0
   -5.9493   -1.6188    0.7232 H   0  0  0  0  0  0  0  0  0  0  0  0
   -6.2808   -0.7332   -0.7785 H   0  0  0  0  0  0  0  0  0  0  0  0
   -6.0675   -2.4918   -0.8141 H   0  0  0  0  0  0  0  0  0  0  0  0
    2.5569    1.3516   -0.9583 H   0  0  0  0  0  0  0  0  0  0  0  0
   -0.1278   -0.7011    1.0018 H   0  0  0  0  0  0  0  0  0  0  0  0
    5.9338    0.0434    0.0754 H   0  0  0  0  0  0  0  0  0  0  0  0
    5.5625   -0.8733   -1.3978 H   0  0  0  0  0  0  0  0  0  0  0  0
    5.3057    0.8786   -1.3546 H   0  0  0  0  0  0  0  0  0  0  0  0
  1  8  1  0  0  0  0
  1 14  1  0  0  0  0
  2  6  1  0  0  0  0
  2 11  1  0  0  0  0
  3 13  2  0  0  0  0
  4 14  2  0  0  0  0
  5 10  1  0  0  0  0
  5 13  1  0  0  0  0
  5 24  1  0  0  0  0
  6 10  2  0  0  0  0
  7  8  1  0  0  0  0
  7  9  1  0  0  0  0
  7 16  1  0  0  0  0
  7 17  1  0  0  0  0
  8 18  1  0  0  0  0
  8 19  1  0  0  0  0
  9 20  1  0  0  0  0
  9 21  1  0  0  0  0
  9 22  1  0  0  0  0
 10 12  1  0  0  0  0
 11 12  2  0  0  0  0
 11 15  1  0  0  0  0
 12 23  1  0  0  0  0
 13 14  1  0  0  0  0
 15 25  1  0  0  0  0
 15 26  1  0  0  0  0
 15 27  1  0  0  0  0
M  END
> <PUBCHEM_COMPOUND_CID>
47205619

> <PUBCHEM_CONFORMER_RMSD>
0.8

> <PUBCHEM_CONFORMER_DIVERSEORDER>
1
17
5
18
20
13
23
6
3
15
12
21
14
16
24
22
8
10
19
2
11
7
4
9

> <PUBCHEM_MMFF94_PARTIAL_CHARGES>
15
1 -0.43
10 0.35
11 -0.04
12 -0.15
13 0.63
14 0.72
15 0.18
2 -0.02
23 0.15
24 0.37
3 -0.57
4 -0.57
5 -0.49
6 -0.41
8 0.28

> <PUBCHEM_EFFECTIVE_ROTOR_COUNT>
6

> <PUBCHEM_PHARMACOPHORE_FEATURES>
5
1 3 acceptor
1 4 acceptor
1 5 donor
1 9 hydrophobe
5 2 6 10 11 12 rings

> <PUBCHEM_HEAVY_ATOM_COUNT>
15

> <PUBCHEM_ATOM_DEF_STEREO_COUNT>
0

> <PUBCHEM_ATOM_UDEF_STEREO_COUNT>
0

> <PUBCHEM_BOND_DEF_STEREO_COUNT>
0

> <PUBCHEM_BOND_UDEF_STEREO_COUNT>
0

> <PUBCHEM_ISOTOPIC_ATOM_COUNT>
0

> <PUBCHEM_COMPONENT_COUNT>
1

> <PUBCHEM_CACTVS_TAUTO_COUNT>
8

> <PUBCHEM_CONFORMER_ID>
02D04CF300000001

> <PUBCHEM_MMFF94_ENERGY>
13.7593

> <PUBCHEM_FEATURE_SELFOVERLAP>
25.374

> <PUBCHEM_SHAPE_FINGERPRINT>
11046707 91 18260831497102720899
114248 4 16271930394007780575
117890 112 11600001029846264982
11806522 49 18411700954526502820
12714333 28 15626510471143306335
13675066 3 9151169865812528396
14576447 43 18342177752144573566
15342816 4 18412822521080395454
15501527 24 18272364244290689550
17834072 33 18411416206874435532
17834072 8 18412272735997990245
1798214 20 18342464716384874743
19422 9 18337669836233072882
200 152 18273214205249068881
20279233 1 15267053774778210920
20281475 54 18338519762884487810
20388580 30 18340770330343382461
20671657 53 18342739590054971357
20871999 31 18131359626418522805
21256008 61 18272371940661243077
21426921 1 18262516008946367377
221490 88 17913763925824005515
22485316 2 18341334478191706965
23402539 116 18411983580564823079
23402655 69 18130790126086262444
2871803 45 18202005434082529402
33382 64 17023170674514917086
351380 3 18334860485425019575
465052 167 18187642445534067031

> <PUBCHEM_SHAPE_MULTIPOLES>
275.25
11.13
1.75
0.83
4.13
0.44
0
-6.43
2.28
1.22
-0.13
-0.19
0.03
-0.97

> <PUBCHEM_SHAPE_SELFOVERLAP>
554.804

> <PUBCHEM_SHAPE_VOLUME>
159.8

> <PUBCHEM_COORDINATE_TYPE>
2
5
10

$$$$

