17396643
  -OEChem-06241222573D

 37 39  0     1  0  0  0  0  0999 V2000
   -5.9273   -0.8743   -0.5861 S   0  0  0  0  0  0  0  0  0  0  0  0
    2.4410    1.8139   -1.0287 O   0  0  0  0  0  0  0  0  0  0  0  0
    0.4705    1.7669    0.5915 O   0  0  0  0  0  0  0  0  0  0  0  0
    4.1970    1.9726    0.3890 O   0  0  0  0  0  0  0  0  0  0  0  0
   -0.9802    0.6170   -0.8635 N   0  0  0  0  0  0  0  0  0  0  0  0
    1.6586   -0.3651   -1.8131 C   0  0  0  0  0  0  0  0  0  0  0  0
    1.2981    1.0733   -1.4857 C   0  0  1  0  0  0  0  0  0  0  0  0
    2.3929   -0.9677   -0.6536 C   0  0  0  0  0  0  0  0  0  0  0  0
    3.1936   -0.1537    0.1548 C   0  0  0  0  0  0  0  0  0  0  0  0
    0.2105    1.1943   -0.4575 C   0  0  0  0  0  0  0  0  0  0  0  0
    3.3251    1.2925   -0.1366 C   0  0  0  0  0  0  0  0  0  0  0  0
    2.3225   -2.3413   -0.3935 C   0  0  0  0  0  0  0  0  0  0  0  0
    3.9042   -0.7063    1.2260 C   0  0  0  0  0  0  0  0  0  0  0  0
    3.0278   -2.8907    0.6772 C   0  0  0  0  0  0  0  0  0  0  0  0
    3.8153   -2.0739    1.4867 C   0  0  0  0  0  0  0  0  0  0  0  0
   -2.1640    0.5738   -0.1219 C   0  0  0  0  0  0  0  0  0  0  0  0
   -3.2977   -0.0424   -0.6518 C   0  0  0  0  0  0  0  0  0  0  0  0
   -2.2114    1.1472    1.1486 C   0  0  0  0  0  0  0  0  0  0  0  0
   -4.4787   -0.0852    0.0891 C   0  0  0  0  0  0  0  0  0  0  0  0
   -3.3924    1.1046    1.8896 C   0  0  0  0  0  0  0  0  0  0  0  0
   -4.5260    0.4883    1.3598 C   0  0  0  0  0  0  0  0  0  0  0  0
   -5.2794   -2.5438   -0.8204 C   0  0  0  0  0  0  0  0  0  0  0  0
    0.9459    1.5707   -2.3975 H   0  0  0  0  0  0  0  0  0  0  0  0
    2.3365   -0.3863   -2.6757 H   0  0  0  0  0  0  0  0  0  0  0  0
    0.7779   -0.9630   -2.0686 H   0  0  0  0  0  0  0  0  0  0  0  0
    1.7166   -2.9899   -1.0207 H   0  0  0  0  0  0  0  0  0  0  0  0
    4.5308   -0.0901    1.8651 H   0  0  0  0  0  0  0  0  0  0  0  0
   -1.0219    0.1982   -1.7892 H   0  0  0  0  0  0  0  0  0  0  0  0
    2.9655   -3.9561    0.8784 H   0  0  0  0  0  0  0  0  0  0  0  0
    4.3655   -2.5040    2.3187 H   0  0  0  0  0  0  0  0  0  0  0  0
   -3.2528   -0.4785   -1.6476 H   0  0  0  0  0  0  0  0  0  0  0  0
   -1.3854    1.6429    1.6366 H   0  0  0  0  0  0  0  0  0  0  0  0
   -3.4307    1.5505    2.8794 H   0  0  0  0  0  0  0  0  0  0  0  0
   -5.4373    0.4643    1.9524 H   0  0  0  0  0  0  0  0  0  0  0  0
   -6.0950   -3.2026   -1.1307 H   0  0  0  0  0  0  0  0  0  0  0  0
   -4.8608   -2.9305    0.1130 H   0  0  0  0  0  0  0  0  0  0  0  0
   -4.5118   -2.5631   -1.5984 H   0  0  0  0  0  0  0  0  0  0  0  0
  1 19  1  0  0  0  0
  1 22  1  0  0  0  0
  2  7  1  0  0  0  0
  2 11  1  0  0  0  0
  3 10  2  0  0  0  0
  4 11  2  0  0  0  0
  5 10  1  0  0  0  0
  5 16  1  0  0  0  0
  5 28  1  0  0  0  0
  6  7  1  0  0  0  0
  6  8  1  0  0  0  0
  6 24  1  0  0  0  0
  6 25  1  0  0  0  0
  7 10  1  0  0  0  0
  7 23  1  0  0  0  0
  8  9  1  0  0  0  0
  8 12  2  0  0  0  0
  9 11  1  0  0  0  0
  9 13  2  0  0  0  0
 12 14  1  0  0  0  0
 12 26  1  0  0  0  0
 13 15  1  0  0  0  0
 13 27  1  0  0  0  0
 14 15  2  0  0  0  0
 14 29  1  0  0  0  0
 15 30  1  0  0  0  0
 16 17  2  0  0  0  0
 16 18  1  0  0  0  0
 17 19  1  0  0  0  0
 17 31  1  0  0  0  0
 18 20  2  0  0  0  0
 18 32  1  0  0  0  0
 19 21  2  0  0  0  0
 20 21  1  0  0  0  0
 20 33  1  0  0  0  0
 21 34  1  0  0  0  0
 22 35  1  0  0  0  0
 22 36  1  0  0  0  0
 22 37  1  0  0  0  0
M  END
> <PUBCHEM_COMPOUND_CID>
17396643

> <PUBCHEM_CONFORMER_RMSD>
0.8

> <PUBCHEM_CONFORMER_DIVERSEORDER>
3
27
66
12
16
65
9
14
55
59
61
7
48
53
2
49
63
33
67
28
68
22
35
51
57
21
45
69
11
6
64
39
36
50
38
44
46
62
20
42
31
54
58
47
70
1
26
18
8
60
40
30
23
4
24
52
71
56
41
10
43
17
19
13
37
29
5
34
32
15
25

> <PUBCHEM_MMFF94_PARTIAL_CHARGES>
31
1 -0.33
10 0.57
11 0.63
12 -0.15
13 -0.15
14 -0.15
15 -0.15
16 0.12
17 -0.15
18 -0.15
19 0.1
2 -0.43
20 -0.15
21 -0.15
22 0.23
26 0.15
27 0.15
28 0.37
29 0.15
3 -0.57
30 0.15
31 0.15
32 0.15
33 0.15
34 0.15
4 -0.57
5 -0.55
6 0.14
7 0.34
8 -0.14
9 0.09

> <PUBCHEM_EFFECTIVE_ROTOR_COUNT>
4.6

> <PUBCHEM_PHARMACOPHORE_FEATURES>
7
1 22 hydrophobe
1 3 acceptor
1 4 acceptor
1 5 donor
6 16 17 18 19 20 21 rings
6 2 6 7 8 9 11 rings
6 8 9 12 13 14 15 rings

> <PUBCHEM_HEAVY_ATOM_COUNT>
22

> <PUBCHEM_ATOM_DEF_STEREO_COUNT>
0

> <PUBCHEM_ATOM_UDEF_STEREO_COUNT>
1

> <PUBCHEM_BOND_DEF_STEREO_COUNT>
0

> <PUBCHEM_BOND_UDEF_STEREO_COUNT>
0

> <PUBCHEM_ISOTOPIC_ATOM_COUNT>
0

> <PUBCHEM_COMPONENT_COUNT>
1

> <PUBCHEM_CACTVS_TAUTO_COUNT>
2

> <PUBCHEM_CONFORMER_ID>
010973A300000003

> <PUBCHEM_MMFF94_ENERGY>
68.9547

> <PUBCHEM_FEATURE_SELFOVERLAP>
35.546

> <PUBCHEM_SHAPE_FINGERPRINT>
10042902 136 18192140706264179902
10366900 7 18341883074565164584
10447042 23 18337682940220517383
10498660 4 7204187621914418635
114674 6 17774718770479048730
11545043 162 16081634686461731253
11595378 159 17313106384173251569
12107183 9 17831009488123176849
12363563 72 17416958603085227498
12410352 35 18408606959482863055
12553582 1 18198609120036998894
12596602 18 18040434360870553337
12892183 10 17313674861501669403
13533116 47 18410575089469716987
13544653 18 18130787914236049220
13583140 156 17750536103000056649
14251739 40 18341615927483048903
14251740 57 18186798114502657767
14251764 30 17682669972395709550
14341114 328 18040156218825251136
14848160 33 17988919019778352002
14848178 5 18413113870530070619
15119646 104 18410579479470092999
15142526 21 17827647954739289592
16752209 62 14117248307630888581
17134984 74 18269841909188925471
17138139 8 17901959538733904327
17349148 13 18411417315324118375
17818456 19 18048024457442255961
17857418 61 18335988588982140983
18681886 176 17168417160897180556
19377110 9 18114454587965418043
19862831 5 13542456579581909853
20028762 73 18337117847037347166
20511986 3 18335998492960246391
20645477 70 17917716802800036110
20775530 9 16983215688507709786
21065198 48 18187641427357499825
21065201 7 17168969218918689989
21421861 104 18264474247560573064
21728266 224 18187089451615108479
22224240 67 18269562650605016112
23559900 14 16879611886097721045
251288 83 18335139825654875166
3009799 131 10447639250120708546
339767 52 18260278442970662903
341906 21 16588583227199456289
3737641 26 17689146138622044222
3797600 57 17530965765747914648
427121 178 15502383326608217534
439807 62 18196942081145030871
4463277 69 17917710244411394278
46194498 28 14906740468392135511
5104073 3 16733529624817992171
5161694 15 15913322494691190923
573450 72 18114176476027305665
6442390 28 13912903998505000548
6823239 73 17459168811525979870
7808743 9 14780420855016688786
8988823 20 18411705378648863933
960060 61 17275097353659021207

> <PUBCHEM_SHAPE_MULTIPOLES>
434.01
11.76
2.59
1.57
12.63
1.47
0.19
4.87
1.78
-1.73
0.18
0.04
-0.08
-2.2

> <PUBCHEM_SHAPE_SELFOVERLAP>
931.173

> <PUBCHEM_SHAPE_VOLUME>
240.6

> <PUBCHEM_COORDINATE_TYPE>
2
5
10

$$$$

