7872
  -OEChem-06261202242D

 27 26  0     0  0  0  0  0  0999 V2000
    3.7320    0.5000    0.0000 S   0  0  0  0  0  0  0  0  0  0  0  0
    2.8660    0.0000    0.0000 C   0  0  0  0  0  0  0  0  0  0  0  0
    4.5981    0.0000    0.0000 C   0  0  0  0  0  0  0  0  0  0  0  0
    2.0000   -0.5000    0.0000 C   0  0  0  0  0  0  0  0  0  0  0  0
    2.3660    0.8660    0.0000 C   0  0  0  0  0  0  0  0  0  0  0  0
    3.3660   -0.8660    0.0000 C   0  0  0  0  0  0  0  0  0  0  0  0
    5.4641   -0.5000    0.0000 C   0  0  0  0  0  0  0  0  0  0  0  0
    5.0981    0.8660    0.0000 C   0  0  0  0  0  0  0  0  0  0  0  0
    4.0981   -0.8660    0.0000 C   0  0  0  0  0  0  0  0  0  0  0  0
    5.1541   -1.0369    0.0000 H   0  0  0  0  0  0  0  0  0  0  0  0
    6.0010   -0.8100    0.0000 H   0  0  0  0  0  0  0  0  0  0  0  0
    5.7741    0.0369    0.0000 H   0  0  0  0  0  0  0  0  0  0  0  0
    5.6350    0.5560    0.0000 H   0  0  0  0  0  0  0  0  0  0  0  0
    5.4081    1.4030    0.0000 H   0  0  0  0  0  0  0  0  0  0  0  0
    4.5611    1.1760    0.0000 H   0  0  0  0  0  0  0  0  0  0  0  0
    3.5611   -0.5560    0.0000 H   0  0  0  0  0  0  0  0  0  0  0  0
    3.7881   -1.4030    0.0000 H   0  0  0  0  0  0  0  0  0  0  0  0
    4.6350   -1.1760    0.0000 H   0  0  0  0  0  0  0  0  0  0  0  0
    2.8291   -1.1760    0.0000 H   0  0  0  0  0  0  0  0  0  0  0  0
    3.6760   -1.4030    0.0000 H   0  0  0  0  0  0  0  0  0  0  0  0
    3.9030   -0.5560    0.0000 H   0  0  0  0  0  0  0  0  0  0  0  0
    2.9030    1.1760    0.0000 H   0  0  0  0  0  0  0  0  0  0  0  0
    2.0560    1.4030    0.0000 H   0  0  0  0  0  0  0  0  0  0  0  0
    1.8291    0.5560    0.0000 H   0  0  0  0  0  0  0  0  0  0  0  0
    1.6900    0.0369    0.0000 H   0  0  0  0  0  0  0  0  0  0  0  0
    1.4631   -0.8100    0.0000 H   0  0  0  0  0  0  0  0  0  0  0  0
    2.3100   -1.0369    0.0000 H   0  0  0  0  0  0  0  0  0  0  0  0
  1  2  1  0  0  0  0
  1  3  1  0  0  0  0
  2  4  1  0  0  0  0
  2  5  1  0  0  0  0
  2  6  1  0  0  0  0
  3  7  1  0  0  0  0
  3  8  1  0  0  0  0
  3  9  1  0  0  0  0
  4 25  1  0  0  0  0
  4 26  1  0  0  0  0
  4 27  1  0  0  0  0
  5 22  1  0  0  0  0
  5 23  1  0  0  0  0
  5 24  1  0  0  0  0
  6 19  1  0  0  0  0
  6 20  1  0  0  0  0
  6 21  1  0  0  0  0
  7 10  1  0  0  0  0
  7 11  1  0  0  0  0
  7 12  1  0  0  0  0
  8 13  1  0  0  0  0
  8 14  1  0  0  0  0
  8 15  1  0  0  0  0
  9 16  1  0  0  0  0
  9 17  1  0  0  0  0
  9 18  1  0  0  0  0
M  END
> <PUBCHEM_COMPOUND_CID>
7872

> <PUBCHEM_COMPOUND_CANONICALIZED>
1

> <PUBCHEM_CACTVS_COMPLEXITY>
69.7

> <PUBCHEM_CACTVS_HBOND_ACCEPTOR>
1

> <PUBCHEM_CACTVS_HBOND_DONOR>
0

> <PUBCHEM_CACTVS_ROTATABLE_BOND>
2

> <PUBCHEM_CACTVS_SUBSKEYS>
AAADceBwAABAAAAAAAAAAAAAAAAAAAAAAAAAAAAAAAAAAAAAAAAAGAQAAAAADACAQAACAAAAAAgAAAAAAAAAAAAAABAAAAAAAAAAAAAAAAAAAAAAAAAgAAAAAAAAAAAAAAAAAAAAAAAAAAAAAAAAAAAAAA==

> <PUBCHEM_IUPAC_OPENEYE_NAME>
2-tert-butylsulfanyl-2-methyl-propane

> <PUBCHEM_IUPAC_CAS_NAME>
2-(tert-butylthio)-2-methylpropane

> <PUBCHEM_IUPAC_NAME>
2-tert-butylsulfanyl-2-methylpropane

> <PUBCHEM_IUPAC_SYSTEMATIC_NAME>
2-tert-butylsulfanyl-2-methyl-propane

> <PUBCHEM_IUPAC_TRADITIONAL_NAME>
2-(tert-butylthio)-2-methyl-propane

> <PUBCHEM_IUPAC_INCHI>
InChI=1S/C8H18S/c1-7(2,3)9-8(4,5)6/h1-6H3

> <PUBCHEM_IUPAC_INCHIKEY>
LNMBCRKRCIMQLW-UHFFFAOYSA-N

> <PUBCHEM_XLOGP3_AA>
2.8

> <PUBCHEM_EXACT_MASS>
146.112922

> <PUBCHEM_MOLECULAR_FORMULA>
C8H18S

> <PUBCHEM_MOLECULAR_WEIGHT>
146.29352

> <PUBCHEM_OPENEYE_CAN_SMILES>
CC(C)(C)SC(C)(C)C

> <PUBCHEM_OPENEYE_ISO_SMILES>
CC(C)(C)SC(C)(C)C

> <PUBCHEM_CACTVS_TPSA>
25.3

> <PUBCHEM_MONOISOTOPIC_WEIGHT>
146.112922

> <PUBCHEM_TOTAL_CHARGE>
0

> <PUBCHEM_HEAVY_ATOM_COUNT>
9

> <PUBCHEM_ATOM_DEF_STEREO_COUNT>
0

> <PUBCHEM_ATOM_UDEF_STEREO_COUNT>
0

> <PUBCHEM_BOND_DEF_STEREO_COUNT>
0

> <PUBCHEM_BOND_UDEF_STEREO_COUNT>
0

> <PUBCHEM_ISOTOPIC_ATOM_COUNT>
0

> <PUBCHEM_COMPONENT_COUNT>
1

> <PUBCHEM_CACTVS_TAUTO_COUNT>
1

> <PUBCHEM_COORDINATE_TYPE>
1
5
255

$$$$

