7846979
  -OEChem-06241222483D

 43 44  0     1  0  0  0  0  0999 V2000
   -3.3634   -1.4111    1.2698 S   0  0  0  0  0  0  0  0  0  0  0  0
    0.9004   -0.7757    0.5472 O   0  0  0  0  0  0  0  0  0  0  0  0
    3.4643   -1.1079    0.7512 O   0  0  0  0  0  0  0  0  0  0  0  0
    0.9006   -1.8956   -1.4697 O   0  0  0  0  0  0  0  0  0  0  0  0
    6.0329   -0.1467    0.1118 O   0  0  0  0  0  0  0  0  0  0  0  0
    3.9834    0.8322   -0.4328 N   0  0  0  0  0  0  0  0  0  0  0  0
   -2.4133   -0.8963   -1.0721 N   0  0  0  0  0  0  0  0  0  0  0  0
    5.9620    1.8205   -1.0730 N   0  0  0  0  0  0  0  0  0  0  0  0
    1.3111    1.6034    0.6850 C   0  0  0  0  0  0  0  0  0  0  0  0
    1.6533    0.2842   -0.0343 C   0  0  1  0  0  0  0  0  0  0  0  0
   -0.1509    1.9982    0.4413 C   0  0  0  0  0  0  0  0  0  0  0  0
    1.5714    1.5273    2.1913 C   0  0  0  0  0  0  0  0  0  0  0  0
    3.1176   -0.0950    0.1471 C   0  0  0  0  0  0  0  0  0  0  0  0
   -0.2035   -2.8478    0.4772 C   0  0  0  0  0  0  0  0  0  0  0  0
   -1.6001   -3.0513   -0.1121 C   0  0  0  0  0  0  0  0  0  0  0  0
    0.5886   -1.8134   -0.2898 C   0  0  0  0  0  0  0  0  0  0  0  0
   -2.3994   -1.7736   -0.0958 C   0  0  0  0  0  0  0  0  0  0  0  0
   -3.8624    0.0569    0.5155 C   0  0  0  0  0  0  0  0  0  0  0  0
   -3.2481    0.1595   -0.7362 C   0  0  0  0  0  0  0  0  0  0  0  0
   -4.7348    1.0464    0.9969 C   0  0  0  0  0  0  0  0  0  0  0  0
   -3.5181    1.2937   -1.5324 C   0  0  0  0  0  0  0  0  0  0  0  0
   -4.9849    2.1585    0.1890 C   0  0  0  0  0  0  0  0  0  0  0  0
   -4.3855    2.2825   -1.0596 C   0  0  0  0  0  0  0  0  0  0  0  0
    5.3789    0.7510   -0.4156 C   0  0  0  0  0  0  0  0  0  0  0  0
    1.9344    2.4103    0.2808 H   0  0  0  0  0  0  0  0  0  0  0  0
    1.4426    0.3934   -1.1060 H   0  0  0  0  0  0  0  0  0  0  0  0
   -0.8390    1.2747    0.8891 H   0  0  0  0  0  0  0  0  0  0  0  0
   -0.3631    2.0577   -0.6310 H   0  0  0  0  0  0  0  0  0  0  0  0
   -0.3652    2.9789    0.8793 H   0  0  0  0  0  0  0  0  0  0  0  0
    2.6232    1.3152    2.4066 H   0  0  0  0  0  0  0  0  0  0  0  0
    1.3292    2.4825    2.6705 H   0  0  0  0  0  0  0  0  0  0  0  0
    0.9622    0.7536    2.6706 H   0  0  0  0  0  0  0  0  0  0  0  0
    0.3637   -3.7849    0.4516 H   0  0  0  0  0  0  0  0  0  0  0  0
   -0.2744   -2.5530    1.5314 H   0  0  0  0  0  0  0  0  0  0  0  0
   -1.5168   -3.3922   -1.1517 H   0  0  0  0  0  0  0  0  0  0  0  0
   -2.1217   -3.8435    0.4378 H   0  0  0  0  0  0  0  0  0  0  0  0
    3.5810    1.6229   -0.9281 H   0  0  0  0  0  0  0  0  0  0  0  0
   -5.2061    0.9563    1.9708 H   0  0  0  0  0  0  0  0  0  0  0  0
   -3.0543    1.4011   -2.5088 H   0  0  0  0  0  0  0  0  0  0  0  0
   -5.6568    2.9360    0.5427 H   0  0  0  0  0  0  0  0  0  0  0  0
   -4.5915    3.1548   -1.6738 H   0  0  0  0  0  0  0  0  0  0  0  0
    6.9703    1.9048   -1.1460 H   0  0  0  0  0  0  0  0  0  0  0  0
    5.4048    2.5524   -1.5007 H   0  0  0  0  0  0  0  0  0  0  0  0
  1 17  1  0  0  0  0
  1 18  1  0  0  0  0
  2 10  1  0  0  0  0
  2 16  1  0  0  0  0
  3 13  2  0  0  0  0
  4 16  2  0  0  0  0
  5 24  2  0  0  0  0
  6 13  1  0  0  0  0
  6 24  1  0  0  0  0
  6 37  1  0  0  0  0
  7 17  2  0  0  0  0
  7 19  1  0  0  0  0
  8 24  1  0  0  0  0
  8 42  1  0  0  0  0
  8 43  1  0  0  0  0
  9 10  1  0  0  0  0
  9 11  1  0  0  0  0
  9 12  1  0  0  0  0
  9 25  1  0  0  0  0
 10 13  1  0  0  0  0
 10 26  1  0  0  0  0
 11 27  1  0  0  0  0
 11 28  1  0  0  0  0
 11 29  1  0  0  0  0
 12 30  1  0  0  0  0
 12 31  1  0  0  0  0
 12 32  1  0  0  0  0
 14 15  1  0  0  0  0
 14 16  1  0  0  0  0
 14 33  1  0  0  0  0
 14 34  1  0  0  0  0
 15 17  1  0  0  0  0
 15 35  1  0  0  0  0
 15 36  1  0  0  0  0
 18 19  1  0  0  0  0
 18 20  2  0  0  0  0
 19 21  2  0  0  0  0
 20 22  1  0  0  0  0
 20 38  1  0  0  0  0
 21 23  1  0  0  0  0
 21 39  1  0  0  0  0
 22 23  2  0  0  0  0
 22 40  1  0  0  0  0
 23 41  1  0  0  0  0
M  END
> <PUBCHEM_COMPOUND_CID>
7846979

> <PUBCHEM_CONFORMER_RMSD>
1

> <PUBCHEM_CONFORMER_DIVERSEORDER>
1
178
123
246
84
63
237
120
194
31
195
56
174
33
91
26
108
51
53
136
9
62
204
50
94
217
233
134
201
76
180
113
196
205
247
241
216
229
189
142
110
39
47
28
90
162
223
141
14
58
209
80
167
119
185
155
140
219
137
18
75
109
227
161
74
228
250
239
12
89
77
188
150
82
148
100
190
139
181
121
20
48
79
132
135
240
105
42
146
3
224
235
158
131
183
160
252
214
25
2
68
54
133
251
61
4
88
130
67
197
49
231
59
10
70
117
72
36
81
208
126
249
40
143
95
106
45
114
107
206
122
248
34
30
187
11
97
244
210
52
238
24
169
154
179
22
101
115
71
73
85
164
96
23
65
177
124
234
175
215
230
118
191
17
35
83
69
171
170
129
43
128
168
21
112
104
157
151
125
172
152
138
220
57
200
212
156
60
193
87
13
192
93
41
232
166
221
203
218
6
145
19
99
207
243
8
184
38
102
86
153
27
199
163
198
92
66
159
236
15
226
29
103
78
165
98
222
44
55
245
37
5
182
144
32
147
16
213
7
116
173
111
186
46
202
225
242
64
211
176
127
149

> <PUBCHEM_MMFF94_PARTIAL_CHARGES>
28
1 -0.08
10 0.34
13 0.57
14 0.06
15 0.18
16 0.66
17 0.2
18 0.04
19 0.23
2 -0.43
20 -0.15
21 -0.15
22 -0.15
23 -0.15
24 0.69
3 -0.57
37 0.37
38 0.15
39 0.15
4 -0.57
40 0.15
41 0.15
42 0.37
43 0.37
5 -0.57
6 -0.49
7 -0.57
8 -0.8

> <PUBCHEM_EFFECTIVE_ROTOR_COUNT>
9

> <PUBCHEM_PHARMACOPHORE_FEATURES>
9
1 3 acceptor
1 4 acceptor
1 5 acceptor
1 6 donor
1 7 acceptor
1 8 donor
3 9 11 12 hydrophobe
5 1 7 17 18 19 rings
6 18 19 20 21 22 23 rings

> <PUBCHEM_HEAVY_ATOM_COUNT>
24

> <PUBCHEM_ATOM_DEF_STEREO_COUNT>
1

> <PUBCHEM_ATOM_UDEF_STEREO_COUNT>
0

> <PUBCHEM_BOND_DEF_STEREO_COUNT>
0

> <PUBCHEM_BOND_UDEF_STEREO_COUNT>
0

> <PUBCHEM_ISOTOPIC_ATOM_COUNT>
0

> <PUBCHEM_COMPONENT_COUNT>
1

> <PUBCHEM_CACTVS_TAUTO_COUNT>
10

> <PUBCHEM_CONFORMER_ID>
0077BC4300000001

> <PUBCHEM_MMFF94_ENERGY>
39.5402

> <PUBCHEM_FEATURE_SELFOVERLAP>
45.794

> <PUBCHEM_SHAPE_FINGERPRINT>
10165383 225 18409721868689292321
10366900 7 18260842522268530101
10675989 125 17404872930393310565
10759866 29 18130511920001449458
11014199 57 17621596116496442890
12166972 35 5617242737244054705
12403259 226 17756429261955078987
12788726 201 17968657254109672912
13402501 40 18410854395551499721
13944108 23 17903641027168318257
14251757 5 18411135818445556888
14713325 29 18200305520750781123
14790565 3 18337947991053039808
14931854 50 18041565861874263813
1601671 61 18334296474598390424
17349148 13 6915985902132522288
18219364 16 18338230566152691051
18608769 82 18337951195799885803
21279426 13 18335412517671677958
23559900 14 18260266318578374240
350125 39 18338232661938781035
508706 21 18264220114408634251
5252454 2 18411146865623168273
5283173 99 18338235939109721104
7226269 152 18260548926993934528
7808743 9 18342738507464366453

> <PUBCHEM_SHAPE_MULTIPOLES>
459.34
11.78
3.1
1.37
11.29
1.35
-0.22
-7.49
1.71
-1.91
0.09
-0.4
-0.4
0.43

> <PUBCHEM_SHAPE_SELFOVERLAP>
947.75

> <PUBCHEM_SHAPE_VOLUME>
264.2

> <PUBCHEM_COORDINATE_TYPE>
2
5
10

$$$$

