8880
  -OEChem-06261203123D

 16 15  0     0  0  0  0  0  0999 V2000
    2.4211    0.8660    0.4408 O   0  0  0  0  0  0  0  0  0  0  0  0
   -1.5448   -1.1647    0.5047 O   0  0  0  0  0  0  0  0  0  0  0  0
   -0.1529    0.3231   -0.6214 N   0  0  0  0  0  0  0  0  0  0  0  0
    0.9712   -0.5645   -0.8134 C   0  0  0  0  0  0  0  0  0  0  0  0
    1.9373   -0.4680    0.3566 C   0  0  0  0  0  0  0  0  0  0  0  0
   -1.3169   -0.0577    0.0238 C   0  0  0  0  0  0  0  0  0  0  0  0
   -2.3150    1.0658    0.1088 C   0  0  0  0  0  0  0  0  0  0  0  0
    1.4606   -0.2530   -1.7419 H   0  0  0  0  0  0  0  0  0  0  0  0
    0.6108   -1.5917   -0.9270 H   0  0  0  0  0  0  0  0  0  0  0  0
    2.7917   -1.1339    0.2054 H   0  0  0  0  0  0  0  0  0  0  0  0
    1.4570   -0.7254    1.3061 H   0  0  0  0  0  0  0  0  0  0  0  0
   -0.0697    1.2731   -0.9720 H   0  0  0  0  0  0  0  0  0  0  0  0
   -3.2805    0.6763    0.4432 H   0  0  0  0  0  0  0  0  0  0  0  0
   -1.9618    1.8142    0.8236 H   0  0  0  0  0  0  0  0  0  0  0  0
   -2.4463    1.5315   -0.8721 H   0  0  0  0  0  0  0  0  0  0  0  0
    1.6548    1.4454    0.5918 H   0  0  0  0  0  0  0  0  0  0  0  0
  1  5  1  0  0  0  0
  1 16  1  0  0  0  0
  2  6  2  0  0  0  0
  3  4  1  0  0  0  0
  3  6  1  0  0  0  0
  3 12  1  0  0  0  0
  4  5  1  0  0  0  0
  4  8  1  0  0  0  0
  4  9  1  0  0  0  0
  5 10  1  0  0  0  0
  5 11  1  0  0  0  0
  6  7  1  0  0  0  0
  7 13  1  0  0  0  0
  7 14  1  0  0  0  0
  7 15  1  0  0  0  0
M  END
> <PUBCHEM_COMPOUND_CID>
8880

> <PUBCHEM_CONFORMER_RMSD>
0.4

> <PUBCHEM_CONFORMER_DIVERSEORDER>
1
2
11
9
6
10
7
4
8
3
5

> <PUBCHEM_MMFF94_PARTIAL_CHARGES>
9
1 -0.68
12 0.37
16 0.4
2 -0.57
3 -0.73
4 0.3
5 0.28
6 0.57
7 0.06

> <PUBCHEM_EFFECTIVE_ROTOR_COUNT>
3

> <PUBCHEM_PHARMACOPHORE_FEATURES>
4
1 1 acceptor
1 1 donor
1 2 acceptor
1 3 donor

> <PUBCHEM_HEAVY_ATOM_COUNT>
7

> <PUBCHEM_ATOM_DEF_STEREO_COUNT>
0

> <PUBCHEM_ATOM_UDEF_STEREO_COUNT>
0

> <PUBCHEM_BOND_DEF_STEREO_COUNT>
0

> <PUBCHEM_BOND_UDEF_STEREO_COUNT>
0

> <PUBCHEM_ISOTOPIC_ATOM_COUNT>
0

> <PUBCHEM_COMPONENT_COUNT>
1

> <PUBCHEM_CACTVS_TAUTO_COUNT>
2

> <PUBCHEM_CONFORMER_ID>
000022B000000001

> <PUBCHEM_MMFF94_ENERGY>
3.2087

> <PUBCHEM_FEATURE_SELFOVERLAP>
20.3

> <PUBCHEM_SHAPE_FINGERPRINT>
12897270 3 7781504923803597392
12932741 1 18187633734780812118
14390081 3 18040157326742508801
20096714 4 16298391240593697046
21040471 1 18128524054365063511
24536 1 18335415789803312804
29004967 10 18259699004104645866
5460574 1 9655569712663383389

> <PUBCHEM_SHAPE_MULTIPOLES>
127.34
3.45
1.09
0.8
0.22
0.01
-0.08
0.89
0.6
-0.18
0.13
0.12
-0.07
0.26

> <PUBCHEM_SHAPE_SELFOVERLAP>
227.808

> <PUBCHEM_SHAPE_VOLUME>
82.5

> <PUBCHEM_COORDINATE_TYPE>
2
5
10

$$$$

