17395858
  -OEChem-06241222522D

 56 59  0     1  0  0  0  0  0999 V2000
    4.9889    0.3982    0.0000 O   0  0  0  0  0  0  0  0  0  0  0  0
    4.9889    3.9087    0.0000 O   0  0  0  0  0  0  0  0  0  0  0  0
   10.7619   -3.9087    0.0000 O   0  0  0  0  0  0  0  0  0  0  0  0
    5.2619    2.1535    0.0000 N   0  0  0  0  0  0  0  0  0  0  0  0
    6.7619    1.2874    0.0000 N   0  0  3  0  0  0  0  0  0  0  0  0
    9.7619   -2.1767    0.0000 N   0  0  0  0  0  0  0  0  0  0  0  0
    3.7320    2.6535    0.0000 C   0  0  3  0  0  0  0  0  0  0  0  0
    3.7320    1.6535    0.0000 C   0  0  3  0  0  0  0  0  0  0  0  0
    2.8660    1.1535    0.0000 C   0  0  0  0  0  0  0  0  0  0  0  0
    2.8660    3.1535    0.0000 C   0  0  0  0  0  0  0  0  0  0  0  0
    2.0000    1.6535    0.0000 C   0  0  0  0  0  0  0  0  0  0  0  0
    2.0000    2.6535    0.0000 C   0  0  0  0  0  0  0  0  0  0  0  0
    4.6783    2.9582    0.0000 C   0  0  0  0  0  0  0  0  0  0  0  0
    4.6783    1.3487    0.0000 C   0  0  0  0  0  0  0  0  0  0  0  0
    6.2619    2.1535    0.0000 C   0  0  0  0  0  0  0  0  0  0  0  0
    7.7619    1.2874    0.0000 C   0  0  0  0  0  0  0  0  0  0  0  0
    6.2619    0.4214    0.0000 C   0  0  0  0  0  0  0  0  0  0  0  0
    8.2619    0.4214    0.0000 C   0  0  0  0  0  0  0  0  0  0  0  0
    9.2619   -1.3106    0.0000 C   0  0  0  0  0  0  0  0  0  0  0  0
   10.7619   -2.1767    0.0000 C   0  0  0  0  0  0  0  0  0  0  0  0
    9.2619   -3.0427    0.0000 C   0  0  0  0  0  0  0  0  0  0  0  0
    7.7619   -0.4446    0.0000 C   0  0  0  0  0  0  0  0  0  0  0  0
    9.2619    0.4214    0.0000 C   0  0  0  0  0  0  0  0  0  0  0  0
    8.2619   -1.3106    0.0000 C   0  0  0  0  0  0  0  0  0  0  0  0
    9.7619   -0.4446    0.0000 C   0  0  0  0  0  0  0  0  0  0  0  0
   11.2619   -3.0427    0.0000 C   0  0  0  0  0  0  0  0  0  0  0  0
    9.7619   -3.9087    0.0000 C   0  0  0  0  0  0  0  0  0  0  0  0
    3.7977    1.0369    0.0000 H   0  0  0  0  0  0  0  0  0  0  0  0
    3.7977    3.2700    0.0000 H   0  0  0  0  0  0  0  0  0  0  0  0
    2.4675    0.6785    0.0000 H   0  0  0  0  0  0  0  0  0  0  0  0
    3.2646    0.6785    0.0000 H   0  0  0  0  0  0  0  0  0  0  0  0
    3.2646    3.6284    0.0000 H   0  0  0  0  0  0  0  0  0  0  0  0
    2.4675    3.6284    0.0000 H   0  0  0  0  0  0  0  0  0  0  0  0
    1.3894    1.7611    0.0000 H   0  0  0  0  0  0  0  0  0  0  0  0
    1.7880    1.0708    0.0000 H   0  0  0  0  0  0  0  0  0  0  0  0
    1.7880    3.2361    0.0000 H   0  0  0  0  0  0  0  0  0  0  0  0
    1.3894    2.5458    0.0000 H   0  0  0  0  0  0  0  0  0  0  0  0
    6.8445    2.3655    0.0000 H   0  0  0  0  0  0  0  0  0  0  0  0
    6.1542    2.7640    0.0000 H   0  0  0  0  0  0  0  0  0  0  0  0
    8.3445    1.4995    0.0000 H   0  0  0  0  0  0  0  0  0  0  0  0
    7.6542    1.8980    0.0000 H   0  0  0  0  0  0  0  0  0  0  0  0
    5.7249    0.7314    0.0000 H   0  0  0  0  0  0  0  0  0  0  0  0
    5.9519   -0.1155    0.0000 H   0  0  0  0  0  0  0  0  0  0  0  0
    6.7988    0.1114    0.0000 H   0  0  0  0  0  0  0  0  0  0  0  0
    8.7869   -2.6442    0.0000 H   0  0  0  0  0  0  0  0  0  0  0  0
    8.7869   -3.4412    0.0000 H   0  0  0  0  0  0  0  0  0  0  0  0
   11.3445   -1.9646    0.0000 H   0  0  0  0  0  0  0  0  0  0  0  0
   10.6542   -1.5661    0.0000 H   0  0  0  0  0  0  0  0  0  0  0  0
    7.1419   -0.4446    0.0000 H   0  0  0  0  0  0  0  0  0  0  0  0
    9.5719    0.9583    0.0000 H   0  0  0  0  0  0  0  0  0  0  0  0
    9.1793   -4.1208    0.0000 H   0  0  0  0  0  0  0  0  0  0  0  0
    9.8695   -4.5193    0.0000 H   0  0  0  0  0  0  0  0  0  0  0  0
   11.7368   -3.4412    0.0000 H   0  0  0  0  0  0  0  0  0  0  0  0
   11.7368   -2.6442    0.0000 H   0  0  0  0  0  0  0  0  0  0  0  0
    7.9519   -1.8476    0.0000 H   0  0  0  0  0  0  0  0  0  0  0  0
   10.3819   -0.4446    0.0000 H   0  0  0  0  0  0  0  0  0  0  0  0
  1 14  2  0  0  0  0
  2 13  2  0  0  0  0
  3 26  1  0  0  0  0
  3 27  1  0  0  0  0
  4 13  1  0  0  0  0
  4 14  1  0  0  0  0
  4 15  1  0  0  0  0
  5 15  1  0  0  0  0
  5 16  1  0  0  0  0
  5 17  1  0  0  0  0
  6 19  1  0  0  0  0
  6 20  1  0  0  0  0
  6 21  1  0  0  0  0
  7  8  1  0  0  0  0
  7 10  1  0  0  0  0
  7 13  1  0  0  0  0
  7 29  1  0  0  0  0
  8  9  1  0  0  0  0
  8 14  1  0  0  0  0
  8 28  1  0  0  0  0
  9 11  1  0  0  0  0
  9 30  1  0  0  0  0
  9 31  1  0  0  0  0
 10 12  1  0  0  0  0
 10 32  1  0  0  0  0
 10 33  1  0  0  0  0
 11 12  1  0  0  0  0
 11 34  1  0  0  0  0
 11 35  1  0  0  0  0
 12 36  1  0  0  0  0
 12 37  1  0  0  0  0
 15 38  1  0  0  0  0
 15 39  1  0  0  0  0
 16 18  1  0  0  0  0
 16 40  1  0  0  0  0
 16 41  1  0  0  0  0
 17 42  1  0  0  0  0
 17 43  1  0  0  0  0
 17 44  1  0  0  0  0
 18 22  2  0  0  0  0
 18 23  1  0  0  0  0
 19 24  2  0  0  0  0
 19 25  1  0  0  0  0
 20 26  1  0  0  0  0
 20 47  1  0  0  0  0
 20 48  1  0  0  0  0
 21 27  1  0  0  0  0
 21 45  1  0  0  0  0
 21 46  1  0  0  0  0
 22 24  1  0  0  0  0
 22 49  1  0  0  0  0
 23 25  2  0  0  0  0
 23 50  1  0  0  0  0
 24 55  1  0  0  0  0
 25 56  1  0  0  0  0
 26 53  1  0  0  0  0
 26 54  1  0  0  0  0
 27 51  1  0  0  0  0
 27 52  1  0  0  0  0
M  END
> <PUBCHEM_COMPOUND_CID>
17395858

> <PUBCHEM_COMPOUND_CANONICALIZED>
1

> <PUBCHEM_CACTVS_COMPLEXITY>
517

> <PUBCHEM_CACTVS_HBOND_ACCEPTOR>
5

> <PUBCHEM_CACTVS_HBOND_DONOR>
0

> <PUBCHEM_CACTVS_ROTATABLE_BOND>
5

> <PUBCHEM_CACTVS_SUBSKEYS>
AAADceB7MAAAAAAAAAAAAAAAAAAAAWAAAAA8YIAAAAAAAFgBAAAAHgAAAAAADQjhmAYzwIMABACIAiVSUACCAAAhAgAIiAEIZIiKIDLAkZGHIAhohyLYyAcdiICOiAAAAAAAAAAQAAAAACAAAAAAAAAAAA==

> <PUBCHEM_IUPAC_OPENEYE_NAME>
2-[[methyl-[(4-morpholinophenyl)methyl]amino]methyl]-3a,4,5,6,7,7a-hexahydroisoindole-1,3-dione

> <PUBCHEM_IUPAC_CAS_NAME>
2-[[methyl-[[4-(4-morpholinyl)phenyl]methyl]amino]methyl]-3a,4,5,6,7,7a-hexahydroisoindole-1,3-dione

> <PUBCHEM_IUPAC_NAME>
2-[[methyl-[(4-morpholin-4-ylphenyl)methyl]amino]methyl]-3a,4,5,6,7,7a-hexahydroisoindole-1,3-dione

> <PUBCHEM_IUPAC_SYSTEMATIC_NAME>
2-[[methyl-[(4-morpholin-4-ylphenyl)methyl]amino]methyl]-3a,4,5,6,7,7a-hexahydroisoindole-1,3-dione

> <PUBCHEM_IUPAC_TRADITIONAL_NAME>
2-[[methyl-(4-morpholinobenzyl)amino]methyl]-3a,4,5,6,7,7a-hexahydroisoindole-1,3-quinone

> <PUBCHEM_IUPAC_INCHI>
InChI=1S/C21H29N3O3/c1-22(15-24-20(25)18-4-2-3-5-19(18)21(24)26)14-16-6-8-17(9-7-16)23-10-12-27-13-11-23/h6-9,18-19H,2-5,10-15H2,1H3

> <PUBCHEM_IUPAC_INCHIKEY>
HYJXQSBVTSHATN-UHFFFAOYSA-N

> <PUBCHEM_XLOGP3_AA>
2.2

> <PUBCHEM_EXACT_MASS>
371.220892

> <PUBCHEM_MOLECULAR_FORMULA>
C21H29N3O3

> <PUBCHEM_MOLECULAR_WEIGHT>
371.47326

> <PUBCHEM_OPENEYE_CAN_SMILES>
CN(CC1=CC=C(C=C1)N2CCOCC2)CN3C(=O)C4CCCCC4C3=O

> <PUBCHEM_OPENEYE_ISO_SMILES>
CN(CC1=CC=C(C=C1)N2CCOCC2)CN3C(=O)C4CCCCC4C3=O

> <PUBCHEM_CACTVS_TPSA>
53.1

> <PUBCHEM_MONOISOTOPIC_WEIGHT>
371.220892

> <PUBCHEM_TOTAL_CHARGE>
0

> <PUBCHEM_HEAVY_ATOM_COUNT>
27

> <PUBCHEM_ATOM_DEF_STEREO_COUNT>
0

> <PUBCHEM_ATOM_UDEF_STEREO_COUNT>
2

> <PUBCHEM_BOND_DEF_STEREO_COUNT>
0

> <PUBCHEM_BOND_UDEF_STEREO_COUNT>
0

> <PUBCHEM_ISOTOPIC_ATOM_COUNT>
0

> <PUBCHEM_COMPONENT_COUNT>
1

> <PUBCHEM_CACTVS_TAUTO_COUNT>
3

> <PUBCHEM_COORDINATE_TYPE>
1
5
255

> <PUBCHEM_BONDANNOTATIONS>
18  22  8
18  23  8
19  24  8
19  25  8
22  24  8
23  25  8
7  10  3
8  9  3

$$$$

