17395910
  -OEChem-06241222533D

 45 47  0     0  0  0  0  0  0999 V2000
   -2.2630   -1.3289    0.0642 O   0  0  0  0  0  0  0  0  0  0  0  0
    5.1336   -2.4728   -1.2538 O   0  0  0  0  0  0  0  0  0  0  0  0
    2.6986    2.2722    1.3606 O   0  0  0  0  0  0  0  0  0  0  0  0
   -1.4546    0.6064   -1.7596 O   0  0  0  0  0  0  0  0  0  0  0  0
    3.8213    0.6703    0.0788 N   0  0  0  0  0  0  0  0  0  0  0  0
    6.1691   -0.8402   -0.0340 N   0  0  0  0  0  0  0  0  0  0  0  0
    5.1094    1.3453    0.1705 C   0  0  0  0  0  0  0  0  0  0  0  0
    6.1244    0.3809    0.7410 C   0  0  0  0  0  0  0  0  0  0  0  0
    3.8034   -0.5574   -0.7159 C   0  0  0  0  0  0  0  0  0  0  0  0
    5.0812   -1.3841   -0.6777 C   0  0  0  0  0  0  0  0  0  0  0  0
    2.6994    1.2410    0.6897 C   0  0  0  0  0  0  0  0  0  0  0  0
    1.4006    0.5701    0.5228 C   0  0  0  0  0  0  0  0  0  0  0  0
    0.5749    0.9055   -0.5502 C   0  0  0  0  0  0  0  0  0  0  0  0
    0.9946   -0.4008    1.4384 C   0  0  0  0  0  0  0  0  0  0  0  0
   -0.6569    0.2700   -0.7078 C   0  0  0  0  0  0  0  0  0  0  0  0
   -1.0630   -0.7007    0.2079 C   0  0  0  0  0  0  0  0  0  0  0  0
   -0.2372   -1.0360    1.2809 C   0  0  0  0  0  0  0  0  0  0  0  0
   -3.1987   -1.1911    1.1317 C   0  0  0  0  0  0  0  0  0  0  0  0
   -4.4578   -0.5702    0.6024 C   0  0  0  0  0  0  0  0  0  0  0  0
   -5.4827   -1.3801    0.1129 C   0  0  0  0  0  0  0  0  0  0  0  0
   -4.6039    0.8171    0.6000 C   0  0  0  0  0  0  0  0  0  0  0  0
   -6.6532   -0.8029   -0.3793 C   0  0  0  0  0  0  0  0  0  0  0  0
   -5.7746    1.3942    0.1080 C   0  0  0  0  0  0  0  0  0  0  0  0
   -0.9657    1.6079   -2.6496 C   0  0  0  0  0  0  0  0  0  0  0  0
   -6.7992    0.5843   -0.3818 C   0  0  0  0  0  0  0  0  0  0  0  0
    5.3875    1.6593   -0.8427 H   0  0  0  0  0  0  0  0  0  0  0  0
    5.0447    2.2425    0.7936 H   0  0  0  0  0  0  0  0  0  0  0  0
    5.8667    0.0998    1.7680 H   0  0  0  0  0  0  0  0  0  0  0  0
    7.1274    0.8178    0.7413 H   0  0  0  0  0  0  0  0  0  0  0  0
    3.6323   -0.2576   -1.7562 H   0  0  0  0  0  0  0  0  0  0  0  0
    2.9816   -1.2074   -0.4065 H   0  0  0  0  0  0  0  0  0  0  0  0
    7.0258   -1.3847   -0.0115 H   0  0  0  0  0  0  0  0  0  0  0  0
    0.9457    1.6675   -1.2281 H   0  0  0  0  0  0  0  0  0  0  0  0
    1.6315   -0.6712    2.2766 H   0  0  0  0  0  0  0  0  0  0  0  0
   -0.5368   -1.7972    1.9964 H   0  0  0  0  0  0  0  0  0  0  0  0
   -2.8122   -0.5876    1.9641 H   0  0  0  0  0  0  0  0  0  0  0  0
   -3.4035   -2.1892    1.5369 H   0  0  0  0  0  0  0  0  0  0  0  0
   -5.3801   -2.4620    0.1076 H   0  0  0  0  0  0  0  0  0  0  0  0
   -3.8116    1.4586    0.9765 H   0  0  0  0  0  0  0  0  0  0  0  0
   -7.4509   -1.4334   -0.7611 H   0  0  0  0  0  0  0  0  0  0  0  0
   -5.8879    2.4744    0.1053 H   0  0  0  0  0  0  0  0  0  0  0  0
   -0.8449    2.5724   -2.1448 H   0  0  0  0  0  0  0  0  0  0  0  0
   -0.0509    1.2848   -3.1580 H   0  0  0  0  0  0  0  0  0  0  0  0
   -1.7265    1.7487   -3.4246 H   0  0  0  0  0  0  0  0  0  0  0  0
   -7.7105    1.0339   -0.7653 H   0  0  0  0  0  0  0  0  0  0  0  0
  1 16  1  0  0  0  0
  1 18  1  0  0  0  0
  2 10  2  0  0  0  0
  3 11  2  0  0  0  0
  4 15  1  0  0  0  0
  4 24  1  0  0  0  0
  5  7  1  0  0  0  0
  5  9  1  0  0  0  0
  5 11  1  0  0  0  0
  6  8  1  0  0  0  0
  6 10  1  0  0  0  0
  6 32  1  0  0  0  0
  7  8  1  0  0  0  0
  7 26  1  0  0  0  0
  7 27  1  0  0  0  0
  8 28  1  0  0  0  0
  8 29  1  0  0  0  0
  9 10  1  0  0  0  0
  9 30  1  0  0  0  0
  9 31  1  0  0  0  0
 11 12  1  0  0  0  0
 12 13  2  0  0  0  0
 12 14  1  0  0  0  0
 13 15  1  0  0  0  0
 13 33  1  0  0  0  0
 14 17  2  0  0  0  0
 14 34  1  0  0  0  0
 15 16  2  0  0  0  0
 16 17  1  0  0  0  0
 17 35  1  0  0  0  0
 18 19  1  0  0  0  0
 18 36  1  0  0  0  0
 18 37  1  0  0  0  0
 19 20  2  0  0  0  0
 19 21  1  0  0  0  0
 20 22  1  0  0  0  0
 20 38  1  0  0  0  0
 21 23  2  0  0  0  0
 21 39  1  0  0  0  0
 22 25  2  0  0  0  0
 22 40  1  0  0  0  0
 23 25  1  0  0  0  0
 23 41  1  0  0  0  0
 24 42  1  0  0  0  0
 24 43  1  0  0  0  0
 24 44  1  0  0  0  0
 25 45  1  0  0  0  0
M  END
> <PUBCHEM_COMPOUND_CID>
17395910

> <PUBCHEM_CONFORMER_RMSD>
1

> <PUBCHEM_CONFORMER_DIVERSEORDER>
2
43
34
90
87
128
115
113
14
62
44
114
60
71
19
126
108
39
121
61
105
106
46
65
50
135
92
26
84
101
79
131
133
109
69
134
63
102
66
76
127
17
104
85
119
45
96
55
70
25
86
111
5
100
27
94
136
21
57
73
52
103
32
40
93
31
68
122
89
11
24
99
130
30
74
107
78
75
88
123
18
42
112
13
91
51
125
83
77
33
6
38
80
97
124
110
117
48
15
67
116
132
22
118
53
20
56
98
3
54
129
95
28
36
23
4
82
35
120
8
37
81
64
41
58
9
7
16
29
59
10
47
49
12
1
72

> <PUBCHEM_MMFF94_PARTIAL_CHARGES>
34
1 -0.36
10 0.57
11 0.54
12 0.09
13 -0.15
14 -0.15
15 0.08
16 0.08
17 -0.15
18 0.42
19 -0.14
2 -0.57
20 -0.15
21 -0.15
22 -0.15
23 -0.15
24 0.28
25 -0.15
3 -0.57
32 0.37
33 0.15
34 0.15
35 0.15
38 0.15
39 0.15
4 -0.36
40 0.15
41 0.15
45 0.15
5 -0.66
6 -0.73
7 0.3
8 0.3
9 0.36

> <PUBCHEM_EFFECTIVE_ROTOR_COUNT>
7

> <PUBCHEM_PHARMACOPHORE_FEATURES>
8
1 1 acceptor
1 2 acceptor
1 3 acceptor
1 4 acceptor
1 6 donor
6 12 13 14 15 16 17 rings
6 19 20 21 22 23 25 rings
6 5 6 7 8 9 10 rings

> <PUBCHEM_HEAVY_ATOM_COUNT>
25

> <PUBCHEM_ATOM_DEF_STEREO_COUNT>
0

> <PUBCHEM_ATOM_UDEF_STEREO_COUNT>
0

> <PUBCHEM_BOND_DEF_STEREO_COUNT>
0

> <PUBCHEM_BOND_UDEF_STEREO_COUNT>
0

> <PUBCHEM_ISOTOPIC_ATOM_COUNT>
0

> <PUBCHEM_COMPONENT_COUNT>
1

> <PUBCHEM_CACTVS_TAUTO_COUNT>
2

> <PUBCHEM_CONFORMER_ID>
010970C600000002

> <PUBCHEM_MMFF94_ENERGY>
90.925

> <PUBCHEM_FEATURE_SELFOVERLAP>
40.599

> <PUBCHEM_SHAPE_FINGERPRINT>
10906281 52 15984816090972534521
11089746 13 18410016507482412801
12011746 2 17847065480551255189
12166972 35 18334854975224643633
12616971 3 13614244728936304818
12788726 201 15984835860464859669
13533116 47 17531242881507133386
13583140 156 17241890869818126803
13617811 41 16989124266152127046
13899415 154 16558742408607145333
14294032 229 16485577730560964108
14573314 32 18409163307838967427
14790565 3 17274816901048148477
14856354 85 15482383193272764595
15183329 4 18334007315455695666
15475509 8 17845926424584546471
15849732 13 16660364783641667076
1601671 61 17489590052209485837
17349148 13 14345785042032686323
173720 79 15357697495997152941
17980427 23 16878206620180293121
19141452 34 18339642235281269358
19784866 170 17418380203296078331
20511986 3 16081666486900861168
20567600 75 18334009514732054727
21033648 29 18339367353727899977
21150785 3 15791735174170328616
21267235 1 17846210022177363131
21279426 13 18337107981348800797
21521721 280 10952045658811290165
21641784 216 15698001885286014599
23402539 116 15719382941750834619
23536379 177 18113898269024750507
23559900 14 18334017155763743769
23569943 247 18128538369439373371
23622692 88 15791732992574959220
2838139 119 17676207975107915993
3004659 81 18411976971491200482
3014965 18 18260547852777525414
314173 85 17632858611973924037
3633792 109 18261393395074205915
4073 2 18270115699978416426
4325135 7 10303810982238156699
437815 12 18410851075119871252
6328613 192 17988636350922442165
8988823 20 16225769614719047770

> <PUBCHEM_SHAPE_MULTIPOLES>
481.05
17.31
1.84
1.48
5.07
0.07
0.49
-2.15
0.72
-0.42
0.35
-0.69
0.4
1.66

> <PUBCHEM_SHAPE_SELFOVERLAP>
1028.607

> <PUBCHEM_SHAPE_VOLUME>
265

> <PUBCHEM_COORDINATE_TYPE>
2
5
10

$$$$

