10458
  -OEChem-06261204342D

 41 40  0     0  0  0  0  0  0999 V2000
    2.5369    0.7500    0.0000 O   0  0  0  0  0  0  0  0  0  0  0  0
   14.6613    0.7500    0.0000 O   0  0  0  0  0  0  0  0  0  0  0  0
    3.4030   -0.7500    0.0000 O   0  0  0  0  0  0  0  0  0  0  0  0
   13.7953   -0.7500    0.0000 O   0  0  0  0  0  0  0  0  0  0  0  0
    8.5991    0.2500    0.0000 C   0  0  0  0  0  0  0  0  0  0  0  0
    7.7331    0.7500    0.0000 C   0  0  0  0  0  0  0  0  0  0  0  0
    9.4651    0.7500    0.0000 C   0  0  0  0  0  0  0  0  0  0  0  0
    6.8671    0.2500    0.0000 C   0  0  0  0  0  0  0  0  0  0  0  0
   10.3312    0.2500    0.0000 C   0  0  0  0  0  0  0  0  0  0  0  0
   11.1972    0.7500    0.0000 C   0  0  0  0  0  0  0  0  0  0  0  0
    6.0010    0.7500    0.0000 C   0  0  0  0  0  0  0  0  0  0  0  0
    5.1350    0.2500    0.0000 C   0  0  0  0  0  0  0  0  0  0  0  0
   12.0632    0.2500    0.0000 C   0  0  0  0  0  0  0  0  0  0  0  0
    4.2690    0.7500    0.0000 C   0  0  0  0  0  0  0  0  0  0  0  0
   12.9292    0.7500    0.0000 C   0  0  0  0  0  0  0  0  0  0  0  0
    3.4030    0.2500    0.0000 C   0  0  0  0  0  0  0  0  0  0  0  0
   13.7953    0.2500    0.0000 C   0  0  0  0  0  0  0  0  0  0  0  0
    8.2006   -0.2249    0.0000 H   0  0  0  0  0  0  0  0  0  0  0  0
    8.9976   -0.2249    0.0000 H   0  0  0  0  0  0  0  0  0  0  0  0
    8.1316    1.2250    0.0000 H   0  0  0  0  0  0  0  0  0  0  0  0
    7.3346    1.2250    0.0000 H   0  0  0  0  0  0  0  0  0  0  0  0
    9.8637    1.2250    0.0000 H   0  0  0  0  0  0  0  0  0  0  0  0
    9.0666    1.2250    0.0000 H   0  0  0  0  0  0  0  0  0  0  0  0
    6.4685   -0.2249    0.0000 H   0  0  0  0  0  0  0  0  0  0  0  0
    7.2656   -0.2249    0.0000 H   0  0  0  0  0  0  0  0  0  0  0  0
    9.9326   -0.2249    0.0000 H   0  0  0  0  0  0  0  0  0  0  0  0
   10.7297   -0.2249    0.0000 H   0  0  0  0  0  0  0  0  0  0  0  0
   11.5957    1.2250    0.0000 H   0  0  0  0  0  0  0  0  0  0  0  0
   10.7987    1.2250    0.0000 H   0  0  0  0  0  0  0  0  0  0  0  0
    6.3996    1.2250    0.0000 H   0  0  0  0  0  0  0  0  0  0  0  0
    5.6025    1.2250    0.0000 H   0  0  0  0  0  0  0  0  0  0  0  0
    4.7365   -0.2249    0.0000 H   0  0  0  0  0  0  0  0  0  0  0  0
    5.5335   -0.2249    0.0000 H   0  0  0  0  0  0  0  0  0  0  0  0
   11.6647   -0.2249    0.0000 H   0  0  0  0  0  0  0  0  0  0  0  0
   12.4617   -0.2249    0.0000 H   0  0  0  0  0  0  0  0  0  0  0  0
    4.6675    1.2250    0.0000 H   0  0  0  0  0  0  0  0  0  0  0  0
    3.8705    1.2250    0.0000 H   0  0  0  0  0  0  0  0  0  0  0  0
   13.3278    1.2250    0.0000 H   0  0  0  0  0  0  0  0  0  0  0  0
   12.5307    1.2250    0.0000 H   0  0  0  0  0  0  0  0  0  0  0  0
    2.0000    0.4400    0.0000 H   0  0  0  0  0  0  0  0  0  0  0  0
   15.1982    0.4400    0.0000 H   0  0  0  0  0  0  0  0  0  0  0  0
  1 16  1  0  0  0  0
  1 40  1  0  0  0  0
  2 17  1  0  0  0  0
  2 41  1  0  0  0  0
  3 16  2  0  0  0  0
  4 17  2  0  0  0  0
  5  6  1  0  0  0  0
  5  7  1  0  0  0  0
  5 18  1  0  0  0  0
  5 19  1  0  0  0  0
  6  8  1  0  0  0  0
  6 20  1  0  0  0  0
  6 21  1  0  0  0  0
  7  9  1  0  0  0  0
  7 22  1  0  0  0  0
  7 23  1  0  0  0  0
  8 11  1  0  0  0  0
  8 24  1  0  0  0  0
  8 25  1  0  0  0  0
  9 10  1  0  0  0  0
  9 26  1  0  0  0  0
  9 27  1  0  0  0  0
 10 13  1  0  0  0  0
 10 28  1  0  0  0  0
 10 29  1  0  0  0  0
 11 12  1  0  0  0  0
 11 30  1  0  0  0  0
 11 31  1  0  0  0  0
 12 14  1  0  0  0  0
 12 32  1  0  0  0  0
 12 33  1  0  0  0  0
 13 15  1  0  0  0  0
 13 34  1  0  0  0  0
 13 35  1  0  0  0  0
 14 16  1  0  0  0  0
 14 36  1  0  0  0  0
 14 37  1  0  0  0  0
 15 17  1  0  0  0  0
 15 38  1  0  0  0  0
 15 39  1  0  0  0  0
M  END
> <PUBCHEM_COMPOUND_CID>
10458

> <PUBCHEM_COMPOUND_CANONICALIZED>
1

> <PUBCHEM_CACTVS_COMPLEXITY>
192

> <PUBCHEM_CACTVS_HBOND_ACCEPTOR>
4

> <PUBCHEM_CACTVS_HBOND_DONOR>
2

> <PUBCHEM_CACTVS_ROTATABLE_BOND>
12

> <PUBCHEM_CACTVS_SUBSKEYS>
AAADceBwOAAAAAAAAAAAAAAAAAAAAAAAAAAAAAAAAAAAAAAAAAAAGgAACAAACACAgAAACAAAAgAIAACQCAAAAAAAAAAAAAEAAAAAABIAAAAAQAAEAAAAAAGIyKCAAAAAAAAAAAAAAAAAAAAAAAAAAAAAAA==

> <PUBCHEM_IUPAC_OPENEYE_NAME>
tridecanedioic acid

> <PUBCHEM_IUPAC_CAS_NAME>
tridecanedioic acid

> <PUBCHEM_IUPAC_NAME>
tridecanedioic acid

> <PUBCHEM_IUPAC_SYSTEMATIC_NAME>
tridecanedioic acid

> <PUBCHEM_IUPAC_TRADITIONAL_NAME>
brassylic acid

> <PUBCHEM_IUPAC_INCHI>
InChI=1S/C13H24O4/c14-12(15)10-8-6-4-2-1-3-5-7-9-11-13(16)17/h1-11H2,(H,14,15)(H,16,17)

> <PUBCHEM_IUPAC_INCHIKEY>
DXNCZXXFRKPEPY-UHFFFAOYSA-N

> <PUBCHEM_XLOGP3>
3.7

> <PUBCHEM_EXACT_MASS>
244.167459

> <PUBCHEM_MOLECULAR_FORMULA>
C13H24O4

> <PUBCHEM_MOLECULAR_WEIGHT>
244.32726

> <PUBCHEM_OPENEYE_CAN_SMILES>
C(CCCCCC(=O)O)CCCCCC(=O)O

> <PUBCHEM_OPENEYE_ISO_SMILES>
C(CCCCCC(=O)O)CCCCCC(=O)O

> <PUBCHEM_CACTVS_TPSA>
74.6

> <PUBCHEM_MONOISOTOPIC_WEIGHT>
244.167459

> <PUBCHEM_TOTAL_CHARGE>
0

> <PUBCHEM_HEAVY_ATOM_COUNT>
17

> <PUBCHEM_ATOM_DEF_STEREO_COUNT>
0

> <PUBCHEM_ATOM_UDEF_STEREO_COUNT>
0

> <PUBCHEM_BOND_DEF_STEREO_COUNT>
0

> <PUBCHEM_BOND_UDEF_STEREO_COUNT>
0

> <PUBCHEM_ISOTOPIC_ATOM_COUNT>
0

> <PUBCHEM_COMPONENT_COUNT>
1

> <PUBCHEM_CACTVS_TAUTO_COUNT>
1

> <PUBCHEM_COORDINATE_TYPE>
1
5
255

$$$$

