9430
  -OEChem-06261203423D

 35 37  0     0  0  0  0  0  0999 V2000
    1.3376    1.6233    0.0146 N   0  0  0  0  0  0  0  0  0  0  0  0
   -2.6616   -1.1525   -0.0060 N   0  0  0  0  0  0  0  0  0  0  0  0
    3.9320   -1.7091    0.3374 C   0  0  0  0  0  0  0  0  0  0  0  0
    2.4778   -2.0004   -0.0315 C   0  0  0  0  0  0  0  0  0  0  0  0
    4.4259   -0.4592   -0.3817 C   0  0  0  0  0  0  0  0  0  0  0  0
    3.6047    0.7558    0.0442 C   0  0  0  0  0  0  0  0  0  0  0  0
    1.6004   -0.7798    0.0147 C   0  0  0  0  0  0  0  0  0  0  0  0
    2.1189    0.5127    0.0044 C   0  0  0  0  0  0  0  0  0  0  0  0
    0.2120   -0.9135    0.0042 C   0  0  0  0  0  0  0  0  0  0  0  0
   -0.6142    0.2171    0.0074 C   0  0  0  0  0  0  0  0  0  0  0  0
   -0.0006    1.4835    0.0138 C   0  0  0  0  0  0  0  0  0  0  0  0
   -2.0152    0.1070    0.0033 C   0  0  0  0  0  0  0  0  0  0  0  0
   -0.8197    2.6092    0.0186 C   0  0  0  0  0  0  0  0  0  0  0  0
   -2.8117    1.2484    0.0076 C   0  0  0  0  0  0  0  0  0  0  0  0
   -2.2125    2.5015    0.0157 C   0  0  0  0  0  0  0  0  0  0  0  0
   -4.0822   -1.2907   -0.0110 C   0  0  0  0  0  0  0  0  0  0  0  0
   -4.4914   -2.7532   -0.0557 C   0  0  0  0  0  0  0  0  0  0  0  0
    4.0192   -1.5654    1.4219 H   0  0  0  0  0  0  0  0  0  0  0  0
    4.5580   -2.5696    0.0764 H   0  0  0  0  0  0  0  0  0  0  0  0
    2.0887   -2.7682    0.6478 H   0  0  0  0  0  0  0  0  0  0  0  0
    2.4393   -2.4086   -1.0493 H   0  0  0  0  0  0  0  0  0  0  0  0
    4.3464   -0.6036   -1.4667 H   0  0  0  0  0  0  0  0  0  0  0  0
    5.4841   -0.2864   -0.1561 H   0  0  0  0  0  0  0  0  0  0  0  0
    3.8561    1.6061   -0.6004 H   0  0  0  0  0  0  0  0  0  0  0  0
    3.8718    1.0335    1.0713 H   0  0  0  0  0  0  0  0  0  0  0  0
   -0.1861   -1.9236   -0.0091 H   0  0  0  0  0  0  0  0  0  0  0  0
   -0.3741    3.6022    0.0241 H   0  0  0  0  0  0  0  0  0  0  0  0
   -3.8963    1.2170    0.0065 H   0  0  0  0  0  0  0  0  0  0  0  0
   -2.1018   -1.9938    0.0060 H   0  0  0  0  0  0  0  0  0  0  0  0
   -2.8246    3.3987    0.0196 H   0  0  0  0  0  0  0  0  0  0  0  0
   -4.5177   -0.8436    0.8904 H   0  0  0  0  0  0  0  0  0  0  0  0
   -4.5172   -0.7962   -0.8877 H   0  0  0  0  0  0  0  0  0  0  0  0
   -4.1013   -3.2425   -0.9545 H   0  0  0  0  0  0  0  0  0  0  0  0
   -4.1055   -3.2952    0.8143 H   0  0  0  0  0  0  0  0  0  0  0  0
   -5.5819   -2.8458   -0.0610 H   0  0  0  0  0  0  0  0  0  0  0  0
  1  8  2  0  0  0  0
  1 11  1  0  0  0  0
  2 12  1  0  0  0  0
  2 16  1  0  0  0  0
  2 29  1  0  0  0  0
  3  4  1  0  0  0  0
  3  5  1  0  0  0  0
  3 18  1  0  0  0  0
  3 19  1  0  0  0  0
  4  7  1  0  0  0  0
  4 20  1  0  0  0  0
  4 21  1  0  0  0  0
  5  6  1  0  0  0  0
  5 22  1  0  0  0  0
  5 23  1  0  0  0  0
  6  8  1  0  0  0  0
  6 24  1  0  0  0  0
  6 25  1  0  0  0  0
  7  8  1  0  0  0  0
  7  9  2  0  0  0  0
  9 10  1  0  0  0  0
  9 26  1  0  0  0  0
 10 11  2  0  0  0  0
 10 12  1  0  0  0  0
 11 13  1  0  0  0  0
 12 14  2  0  0  0  0
 13 15  2  0  0  0  0
 13 27  1  0  0  0  0
 14 15  1  0  0  0  0
 14 28  1  0  0  0  0
 15 30  1  0  0  0  0
 16 17  1  0  0  0  0
 16 31  1  0  0  0  0
 16 32  1  0  0  0  0
 17 33  1  0  0  0  0
 17 34  1  0  0  0  0
 17 35  1  0  0  0  0
M  END
> <PUBCHEM_COMPOUND_CID>
9430

> <PUBCHEM_CONFORMER_RMSD>
0.6

> <PUBCHEM_CONFORMER_DIVERSEORDER>
1
2

> <PUBCHEM_MMFF94_PARTIAL_CHARGES>
18
1 -0.62
11 0.31
12 0.1
13 -0.15
14 -0.15
15 -0.15
16 0.37
2 -0.87
26 0.15
27 0.15
28 0.15
29 0.4
30 0.15
4 0.14
6 0.14
7 -0.14
8 0.17
9 -0.15

> <PUBCHEM_EFFECTIVE_ROTOR_COUNT>
2.8

> <PUBCHEM_PHARMACOPHORE_FEATURES>
6
1 1 acceptor
1 2 cation
1 2 donor
6 1 7 8 9 10 11 rings
6 10 11 12 13 14 15 rings
6 3 4 5 6 7 8 rings

> <PUBCHEM_HEAVY_ATOM_COUNT>
17

> <PUBCHEM_ATOM_DEF_STEREO_COUNT>
0

> <PUBCHEM_ATOM_UDEF_STEREO_COUNT>
0

> <PUBCHEM_BOND_DEF_STEREO_COUNT>
0

> <PUBCHEM_BOND_UDEF_STEREO_COUNT>
0

> <PUBCHEM_ISOTOPIC_ATOM_COUNT>
0

> <PUBCHEM_COMPONENT_COUNT>
1

> <PUBCHEM_CACTVS_TAUTO_COUNT>
2

> <PUBCHEM_CONFORMER_ID>
000024D600000001

> <PUBCHEM_MMFF94_ENERGY>
50.7936

> <PUBCHEM_FEATURE_SELFOVERLAP>
30.501

> <PUBCHEM_SHAPE_FINGERPRINT>
10608611 8 18337676446367544152
10616163 171 18336827605820693886
10967382 1 18122344579715115320
11132069 177 18267027343867464000
11578080 2 17387155116871316193
11806522 49 18341332201811625830
12032990 46 18409728434950469639
12403259 226 18409172116859518384
12553582 1 18263654973980252743
13140716 1 18335706103991777216
13544653 18 18271239426821347099
138480 1 15672385807343423241
14178342 30 18267881651527750978
14576447 43 18338237037866961943
14787075 74 18200310992390987482
14790565 3 17115219270862250605
14965852 173 18337955708945116697
15042514 8 18338513170452592713
15196674 1 18410855495062854628
15352361 1 18338798914585013191
15442244 35 17979638158598761842
15536298 74 18263364853740153496
16945 1 18410014303874214696
17492 89 18339080496778079450
19141452 34 18335977653900232505
200 152 18260274031880598031
20281475 54 18340768247168010690
20510252 161 18334295379028386912
20645477 70 17838065810506403663
20871998 184 18186522141663123239
21267235 1 18410566284665914822
21501502 16 18340764948601569792
221490 88 17837770032982889243
2334 1 18410575101848255328
23402539 116 18412831282539378998
23463225 33 18268709596773992700
23557571 272 18187356683609795348
23559900 14 18336836398056462232
2748010 2 18408895048102437524
2871803 45 18341899571360345167
3091708 16 9495534721773543545
3312278 4 18337109080765528592
335352 9 17834396001000310932
3421961 26 18121497952131665347
46194498 28 17342676465766443439
5104073 3 18335425711773905234
54173680 148 18338236088937353385
633830 44 16414619618571063612
7097593 13 17624426667807142410
8809292 202 18341890848181280555
8863177 126 17627779822407122763
9709674 26 18118121604729879806

> <PUBCHEM_SHAPE_MULTIPOLES>
339.89
8.04
2.94
0.62
0.45
0.17
0
-5.58
-0.18
-2.55
0.04
0.07
-0.02
-0.13

> <PUBCHEM_SHAPE_SELFOVERLAP>
736.185

> <PUBCHEM_SHAPE_VOLUME>
184.2

> <PUBCHEM_COORDINATE_TYPE>
2
5
10

$$$$

