4642
  -OEChem-06261200153D

 53 55  0     1  0  0  0  0  0999 V2000
   -2.7616    0.1546    1.6429 O   0  0  0  0  0  0  0  0  0  0  0  0
    0.7244   -0.0298    0.8090 O   0  0  0  0  0  0  0  0  0  0  0  0
   -0.4095   -0.3332    2.7923 O   0  0  0  0  0  0  0  0  0  0  0  0
    3.5081   -1.2682   -0.1868 N   0  0  0  0  0  0  0  0  0  0  0  0
    3.5269    1.0904    0.2815 N   0  0  0  0  0  0  0  0  0  0  0  0
   -1.8553   -1.0465   -0.1961 C   0  0  0  0  0  0  0  0  0  0  0  0
   -3.1617   -0.8904   -0.9860 C   0  0  0  0  0  0  0  0  0  0  0  0
   -1.8453   -2.3654    0.5885 C   0  0  0  0  0  0  0  0  0  0  0  0
   -1.6471    0.1409    0.7422 C   0  0  1  0  0  0  0  0  0  0  0  0
   -3.4192   -2.0918   -1.8927 C   0  0  0  0  0  0  0  0  0  0  0  0
   -2.1047   -3.5643   -0.3210 C   0  0  0  0  0  0  0  0  0  0  0  0
   -3.3997   -3.4016   -1.1109 C   0  0  0  0  0  0  0  0  0  0  0  0
   -1.5951    1.5208    0.0926 C   0  0  0  0  0  0  0  0  0  0  0  0
   -0.3958   -0.1069    1.5884 C   0  0  0  0  0  0  0  0  0  0  0  0
   -2.1295    2.5940    0.7719 C   0  0  0  0  0  0  0  0  0  0  0  0
   -1.0157    1.6465   -1.1513 C   0  0  0  0  0  0  0  0  0  0  0  0
    1.9660   -0.2359    1.4897 C   0  0  0  0  0  0  0  0  0  0  0  0
   -2.0823    3.8551    0.1778 C   0  0  0  0  0  0  0  0  0  0  0  0
   -0.9683    2.9076   -1.7453 C   0  0  0  0  0  0  0  0  0  0  0  0
    3.0740   -0.1109    0.4606 C   0  0  0  0  0  0  0  0  0  0  0  0
    4.5921   -1.1909   -1.1615 C   0  0  0  0  0  0  0  0  0  0  0  0
    5.4571    0.0208   -0.8480 C   0  0  0  0  0  0  0  0  0  0  0  0
   -1.5016    4.0120   -1.0808 C   0  0  0  0  0  0  0  0  0  0  0  0
    4.5793    1.2580   -0.7270 C   0  0  0  0  0  0  0  0  0  0  0  0
    2.8646   -2.5647   -0.0302 C   0  0  0  0  0  0  0  0  0  0  0  0
   -1.0289   -1.1150   -0.9158 H   0  0  0  0  0  0  0  0  0  0  0  0
   -3.1542    0.0087   -1.6098 H   0  0  0  0  0  0  0  0  0  0  0  0
   -4.0204   -0.7987   -0.3103 H   0  0  0  0  0  0  0  0  0  0  0  0
   -0.8799   -2.5296    1.0799 H   0  0  0  0  0  0  0  0  0  0  0  0
   -2.6082   -2.3548    1.3767 H   0  0  0  0  0  0  0  0  0  0  0  0
   -4.3878   -1.9764   -2.3923 H   0  0  0  0  0  0  0  0  0  0  0  0
   -2.6560   -2.1246   -2.6800 H   0  0  0  0  0  0  0  0  0  0  0  0
   -2.1528   -4.4795    0.2799 H   0  0  0  0  0  0  0  0  0  0  0  0
   -1.2649   -3.6832   -1.0168 H   0  0  0  0  0  0  0  0  0  0  0  0
   -4.2529   -3.4281   -0.4219 H   0  0  0  0  0  0  0  0  0  0  0  0
   -3.5195   -4.2447   -1.8004 H   0  0  0  0  0  0  0  0  0  0  0  0
   -3.5306    0.5645    1.2125 H   0  0  0  0  0  0  0  0  0  0  0  0
   -2.5637    2.5147    1.7633 H   0  0  0  0  0  0  0  0  0  0  0  0
   -0.5746    0.8143   -1.6875 H   0  0  0  0  0  0  0  0  0  0  0  0
    2.0948    0.5446    2.2492 H   0  0  0  0  0  0  0  0  0  0  0  0
    1.9792   -1.2120    1.9820 H   0  0  0  0  0  0  0  0  0  0  0  0
   -2.4914    4.7166    0.6977 H   0  0  0  0  0  0  0  0  0  0  0  0
   -0.5118    3.0310   -2.7231 H   0  0  0  0  0  0  0  0  0  0  0  0
    5.2107   -2.0951   -1.1297 H   0  0  0  0  0  0  0  0  0  0  0  0
    4.1676   -1.1075   -2.1687 H   0  0  0  0  0  0  0  0  0  0  0  0
    5.9922   -0.1422    0.0962 H   0  0  0  0  0  0  0  0  0  0  0  0
    6.2093    0.1623   -1.6313 H   0  0  0  0  0  0  0  0  0  0  0  0
   -1.4623    4.9944   -1.5421 H   0  0  0  0  0  0  0  0  0  0  0  0
    4.1181    1.5044   -1.6905 H   0  0  0  0  0  0  0  0  0  0  0  0
    5.2021    2.1118   -0.4393 H   0  0  0  0  0  0  0  0  0  0  0  0
    3.2269   -3.2861   -0.7709 H   0  0  0  0  0  0  0  0  0  0  0  0
    3.0737   -2.9764    0.9620 H   0  0  0  0  0  0  0  0  0  0  0  0
    1.7814   -2.4825   -0.1663 H   0  0  0  0  0  0  0  0  0  0  0  0
  1  9  1  0  0  0  0
  1 37  1  0  0  0  0
  2 14  1  0  0  0  0
  2 17  1  0  0  0  0
  3 14  2  0  0  0  0
  4 20  1  0  0  0  0
  4 21  1  0  0  0  0
  4 25  1  0  0  0  0
  5 20  2  0  0  0  0
  5 24  1  0  0  0  0
  6  7  1  0  0  0  0
  6  8  1  0  0  0  0
  6  9  1  0  0  0  0
  6 26  1  0  0  0  0
  7 10  1  0  0  0  0
  7 27  1  0  0  0  0
  7 28  1  0  0  0  0
  8 11  1  0  0  0  0
  8 29  1  0  0  0  0
  8 30  1  0  0  0  0
  9 13  1  0  0  0  0
  9 14  1  0  0  0  0
 10 12  1  0  0  0  0
 10 31  1  0  0  0  0
 10 32  1  0  0  0  0
 11 12  1  0  0  0  0
 11 33  1  0  0  0  0
 11 34  1  0  0  0  0
 12 35  1  0  0  0  0
 12 36  1  0  0  0  0
 13 15  2  0  0  0  0
 13 16  1  0  0  0  0
 15 18  1  0  0  0  0
 15 38  1  0  0  0  0
 16 19  2  0  0  0  0
 16 39  1  0  0  0  0
 17 20  1  0  0  0  0
 17 40  1  0  0  0  0
 17 41  1  0  0  0  0
 18 23  2  0  0  0  0
 18 42  1  0  0  0  0
 19 23  1  0  0  0  0
 19 43  1  0  0  0  0
 21 22  1  0  0  0  0
 21 44  1  0  0  0  0
 21 45  1  0  0  0  0
 22 24  1  0  0  0  0
 22 46  1  0  0  0  0
 22 47  1  0  0  0  0
 23 48  1  0  0  0  0
 24 49  1  0  0  0  0
 24 50  1  0  0  0  0
 25 51  1  0  0  0  0
 25 52  1  0  0  0  0
 25 53  1  0  0  0  0
M  END
> <PUBCHEM_COMPOUND_CID>
4642

> <PUBCHEM_CONFORMER_RMSD>
0.8

> <PUBCHEM_CONFORMER_DIVERSEORDER>
2
493
150
161
376
431
262
302
290
448
404
370
467
380
233
193
276
339
425
327
254
363
120
334
492
170
424
228
234
144
241
190
125
357
462
419
490
443
470
297
323
365
231
322
157
128
446
417
191
298
271
294
463
374
116
346
292
245
215
34
104
427
371
154
74
67
494
391
139
313
412
421
379
434
303
38
401
406
332
306
103
426
468
63
386
476
110
223
107
407
285
387
352
458
282
48
361
168
138
477
466
394
330
183
171
442
243
340
250
195
266
204
307
471
270
497
121
58
483
192
288
130
86
316
373
400
454
77
403
101
197
208
18
487
143
169
9
480
217
362
213
410
438
457
126
51
156
278
415
461
499
319
212
72
488
237
81
158
80
66
396
367
342
52
79
246
485
20
368
317
119
353
31
88
336
460
318
159
189
225
439
179
113
452
92
312
68
181
142
397
293
436
315
59
335
54
251
25
320
284
205
447
133
95
474
347
338
299
106
252
355
381
39
115
482
24
385
35
186
269
41
227
354
105
388
102
151
304
182
1
219
100
123
455
333
135
275
40
428
90
140
402
13
30
141
229
437
173
224
94
46
127
155
411
390
372
256
220
433
176
218
475
201
350
145
28
221
440
264
498
98
382
64
366
62
200
364
162
413
255
232
489
203
418
291
109
207
61
78
239
328
75
310
163
265
258
160
124
111
19
295
89
222
435
199
325
136
478
416
73
398
414
286
464
10
496
174
469
479
395
481
71
153
472
83
344
393
244
43
429
348
248
56
273
65
148
409
7
378
3
242
423
22
263
216
445
441
309
377
17
185
184
76
432
331
134
6
29
131
137
60
289
209
178
422
444
384
122
149
236
118
486
451
491
187
267
188
55
326
164
85
324
210
399
459
99
152
279
11
32
369
235
165
57
351
146
420
240
389
194
147
12
260
96
287
301
277
359
87
196
383
272
305
453
108
180
84
21
129
281
375
259
280
132
4
408
329
211
308
45
341
202
70
47
473
50
465
172
274
311
358
26
23
53
42
249
300
349
449
296
82
214
198
8
230
261
450
177
337
430
14
166
484
314
268
283
33
206
114
226
392
257
93
16
360
343
167
37
91
36
345
238
112
495
175
356
456
321
15
117
253
97
69
247
27
44
405
5
49

> <PUBCHEM_MMFF94_PARTIAL_CHARGES>
24
1 -0.68
13 -0.14
14 0.66
15 -0.15
16 -0.15
17 0.34
18 -0.15
19 -0.15
2 -0.43
20 0.44
21 0.37
23 -0.15
24 0.25
25 0.37
3 -0.57
37 0.4
38 0.15
39 0.15
4 -0.79
42 0.15
43 0.15
48 0.15
5 -0.7
9 0.48

> <PUBCHEM_EFFECTIVE_ROTOR_COUNT>
8

> <PUBCHEM_PHARMACOPHORE_FEATURES>
7
1 1 acceptor
1 1 donor
1 3 acceptor
3 4 5 20 cation
6 13 15 16 18 19 23 rings
6 4 5 20 21 22 24 rings
6 6 7 8 10 11 12 rings

> <PUBCHEM_HEAVY_ATOM_COUNT>
25

> <PUBCHEM_ATOM_DEF_STEREO_COUNT>
0

> <PUBCHEM_ATOM_UDEF_STEREO_COUNT>
1

> <PUBCHEM_BOND_DEF_STEREO_COUNT>
0

> <PUBCHEM_BOND_UDEF_STEREO_COUNT>
0

> <PUBCHEM_ISOTOPIC_ATOM_COUNT>
0

> <PUBCHEM_COMPONENT_COUNT>
1

> <PUBCHEM_CACTVS_TAUTO_COUNT>
1

> <PUBCHEM_CONFORMER_ID>
0000122200000002

> <PUBCHEM_MMFF94_ENERGY>
60.8623

> <PUBCHEM_FEATURE_SELFOVERLAP>
35.528

> <PUBCHEM_SHAPE_FINGERPRINT>
10165383 225 18044646749025947889
10498660 4 18271252616650199542
10871710 139 18343297089357069453
11045515 52 18198628735395051133
11101153 10 18197489624828981652
11477941 20 18269260297771304876
11578080 2 17822871813392559488
12160290 23 18198360609293111489
12173636 292 18192723464353328401
12553582 1 18340493240148641899
12788726 201 18342190976438347507
13004483 165 18337402547380860519
13681431 1 17907871604292458689
14863182 85 16311920447690256923
14910302 57 18259990383544972866
14955137 171 18268700633477887763
15463212 79 18199472228296447178
15475509 8 18335151847875154535
15664445 248 18051715255682144073
15849732 13 18337379471317599067
1813 80 18193285083272933419
18785283 64 17112968025167418409
19930381 70 17906730302607135920
20693207 138 17821739325052856738
20775438 99 17686390521610787461
21120745 212 18191009141131696277
22393880 68 18334851775674214622
22907989 373 18336281127108674437
23557571 272 18193019065656570696
238 59 16691922107072579061
25222932 49 5607363943307045567
25265897 201 17974816726816985220
26353 1 18126019177903788277
340366 18 17692259950992694458
3729539 64 17108450105697382726
4280585 95 18123489184563390746
44062 13 18262510528815926886
46194498 28 17406296342921825567
463206 1 17908137685832561502
497634 4 17749937895997556560
5081480 168 17767435421210806503
531348 171 18269545213090496374
6287921 2 18268976619339233716
6786 2 17828472910555768121
6913067 236 17973183754855638560
7399639 24 18043547010155106736
81228 2 18340221721195929537
84936 31 17108493584035934553

> <PUBCHEM_SHAPE_MULTIPOLES>
486.92
8.25
4.79
1.8
13.55
1.93
0.52
-3.33
-3.38
-5.74
-1.93
-0.7
0.03
-0.78

> <PUBCHEM_SHAPE_SELFOVERLAP>
1021.914

> <PUBCHEM_SHAPE_VOLUME>
270

> <PUBCHEM_COORDINATE_TYPE>
2
5
10

$$$$

