13034
  -OEChem-06261207403D

 22 22  0     0  0  0  0  0  0999 V2000
    3.3605    0.0004    1.0945 O   0  0  0  0  0  0  0  0  0  0  0  0
   -1.3817   -0.0001   -0.2873 C   0  0  0  0  0  0  0  0  0  0  0  0
   -2.8728   -0.0001   -0.2993 C   0  0  0  0  0  0  0  0  0  0  0  0
    1.4079   -0.0001   -0.2634 C   0  0  0  0  0  0  0  0  0  0  0  0
   -0.6844    1.2079   -0.2814 C   0  0  0  0  0  0  0  0  0  0  0  0
   -0.6843   -1.2081   -0.2811 C   0  0  0  0  0  0  0  0  0  0  0  0
    0.7105    1.2078   -0.2696 C   0  0  0  0  0  0  0  0  0  0  0  0
    0.7105   -1.2080   -0.2691 C   0  0  0  0  0  0  0  0  0  0  0  0
   -3.4651    0.0004    1.1077 C   0  0  0  0  0  0  0  0  0  0  0  0
    2.8990    0.0000   -0.2510 C   0  0  0  0  0  0  0  0  0  0  0  0
   -3.2428    0.8737   -0.8501 H   0  0  0  0  0  0  0  0  0  0  0  0
   -3.2428   -0.8745   -0.8494 H   0  0  0  0  0  0  0  0  0  0  0  0
   -1.2161    2.1557   -0.2838 H   0  0  0  0  0  0  0  0  0  0  0  0
   -1.2160   -2.1560   -0.2831 H   0  0  0  0  0  0  0  0  0  0  0  0
    1.2425    2.1556   -0.2631 H   0  0  0  0  0  0  0  0  0  0  0  0
    1.2426   -2.1557   -0.2621 H   0  0  0  0  0  0  0  0  0  0  0  0
   -3.1502   -0.8850    1.6703 H   0  0  0  0  0  0  0  0  0  0  0  0
   -4.5586    0.0003    1.0572 H   0  0  0  0  0  0  0  0  0  0  0  0
   -3.1503    0.8863    1.6696 H   0  0  0  0  0  0  0  0  0  0  0  0
    3.3044   -0.8803   -0.7617 H   0  0  0  0  0  0  0  0  0  0  0  0
    3.3033    0.8824   -0.7580 H   0  0  0  0  0  0  0  0  0  0  0  0
    2.8919   -0.7013    1.5780 H   0  0  0  0  0  0  0  0  0  0  0  0
  1 10  1  0  0  0  0
  1 22  1  0  0  0  0
  2  3  1  0  0  0  0
  2  5  2  0  0  0  0
  2  6  1  0  0  0  0
  3  9  1  0  0  0  0
  3 11  1  0  0  0  0
  3 12  1  0  0  0  0
  4  7  2  0  0  0  0
  4  8  1  0  0  0  0
  4 10  1  0  0  0  0
  5  7  1  0  0  0  0
  5 13  1  0  0  0  0
  6  8  2  0  0  0  0
  6 14  1  0  0  0  0
  7 15  1  0  0  0  0
  8 16  1  0  0  0  0
  9 17  1  0  0  0  0
  9 18  1  0  0  0  0
  9 19  1  0  0  0  0
 10 20  1  0  0  0  0
 10 21  1  0  0  0  0
M  END
> <PUBCHEM_COMPOUND_CID>
13034

> <PUBCHEM_CONFORMER_RMSD>
0.4

> <PUBCHEM_CONFORMER_DIVERSEORDER>
1
8
7
2
5
4
6
3

> <PUBCHEM_MMFF94_PARTIAL_CHARGES>
14
1 -0.68
10 0.42
13 0.15
14 0.15
15 0.15
16 0.15
2 -0.14
22 0.4
3 0.14
4 -0.14
5 -0.15
6 -0.15
7 -0.15
8 -0.15

> <PUBCHEM_EFFECTIVE_ROTOR_COUNT>
2

> <PUBCHEM_PHARMACOPHORE_FEATURES>
4
1 1 acceptor
1 1 donor
1 9 hydrophobe
6 2 4 5 6 7 8 rings

> <PUBCHEM_HEAVY_ATOM_COUNT>
10

> <PUBCHEM_ATOM_DEF_STEREO_COUNT>
0

> <PUBCHEM_ATOM_UDEF_STEREO_COUNT>
0

> <PUBCHEM_BOND_DEF_STEREO_COUNT>
0

> <PUBCHEM_BOND_UDEF_STEREO_COUNT>
0

> <PUBCHEM_ISOTOPIC_ATOM_COUNT>
0

> <PUBCHEM_COMPONENT_COUNT>
1

> <PUBCHEM_CACTVS_TAUTO_COUNT>
1

> <PUBCHEM_CONFORMER_ID>
000032EA00000001

> <PUBCHEM_MMFF94_ENERGY>
21.0313

> <PUBCHEM_FEATURE_SELFOVERLAP>
20.297

> <PUBCHEM_SHAPE_FINGERPRINT>
10219947 1 18411417314954606509
10857977 72 18342737420806017969
11062470 55 14923941254034887075
11769659 78 15698004019778862233
12032990 46 18341322374947636118
124424 183 17632025212314336125
14325111 11 18409166614578735053
15310529 11 16773799177591223740
16945 1 18410855460149261071
19026448 4 15769780134529268245
19026448 5 15719396152379140245
21040471 1 18336825303585919311
23235685 24 18407760334901247236
23402655 69 18193576673446441541
23552423 10 17841995481647559844
2748010 2 18122344854561354733
29004967 10 18272080621830330549
369184 2 18335435564191433086

> <PUBCHEM_SHAPE_MULTIPOLES>
199.93
4.98
1.21
0.88
0.34
0
0.21
0
1.75
-0.04
-0.16
0.07
0
0

> <PUBCHEM_SHAPE_SELFOVERLAP>
405.432

> <PUBCHEM_SHAPE_VOLUME>
117.2

> <PUBCHEM_COORDINATE_TYPE>
2
5
10

$$$$

