47205513
  -OEChem-06241222593D

 36 37  0     0  0  0  0  0  0999 V2000
   -4.8032    0.2041    0.5387 S   0  0  0  0  0  0  0  0  0  0  0  0
   -5.7979    1.2582    0.5216 O   0  0  0  0  0  0  0  0  0  0  0  0
   -5.0510   -1.0466    1.2287 O   0  0  0  0  0  0  0  0  0  0  0  0
    0.3914    1.2677   -0.9696 O   0  0  0  0  0  0  0  0  0  0  0  0
   -1.9239   -0.1943   -0.6299 N   0  0  0  0  0  0  0  0  0  0  0  0
    1.6351   -0.6150   -0.3216 N   0  0  0  0  0  0  0  0  0  0  0  0
    3.0831    1.2556   -0.2343 N   0  0  0  0  0  0  0  0  0  0  0  0
   -4.3583   -0.1616   -1.1423 C   0  0  0  0  0  0  0  0  0  0  0  0
   -3.2827    0.8906    1.1498 C   0  0  0  0  0  0  0  0  0  0  0  0
   -2.0922   -0.0022    0.8208 C   0  0  0  0  0  0  0  0  0  0  0  0
   -3.0498   -0.9392   -1.2193 C   0  0  0  0  0  0  0  0  0  0  0  0
   -0.6671   -0.8992   -0.8961 C   0  0  0  0  0  0  0  0  0  0  0  0
    0.4956    0.0662   -0.7445 C   0  0  0  0  0  0  0  0  0  0  0  0
    2.9168   -0.0747   -0.0598 C   0  0  0  0  0  0  0  0  0  0  0  0
    3.9212   -0.9341    0.3554 C   0  0  0  0  0  0  0  0  0  0  0  0
    5.1773   -0.3935    0.6077 C   0  0  0  0  0  0  0  0  0  0  0  0
    3.7009   -2.3977    0.5344 C   0  0  0  0  0  0  0  0  0  0  0  0
    5.3873    0.9707    0.4395 C   0  0  0  0  0  0  0  0  0  0  0  0
    4.3173    1.7449    0.0205 C   0  0  0  0  0  0  0  0  0  0  0  0
   -4.2825    0.7912   -1.6771 H   0  0  0  0  0  0  0  0  0  0  0  0
   -5.1802   -0.7382   -1.5776 H   0  0  0  0  0  0  0  0  0  0  0  0
   -3.3927    1.0097    2.2321 H   0  0  0  0  0  0  0  0  0  0  0  0
   -3.1660    1.8834    0.7023 H   0  0  0  0  0  0  0  0  0  0  0  0
   -2.1998   -0.9703    1.3276 H   0  0  0  0  0  0  0  0  0  0  0  0
   -1.2049    0.4814    1.2468 H   0  0  0  0  0  0  0  0  0  0  0  0
   -2.8507   -1.1267   -2.2818 H   0  0  0  0  0  0  0  0  0  0  0  0
   -3.1605   -1.9180   -0.7348 H   0  0  0  0  0  0  0  0  0  0  0  0
   -0.5577   -1.7829   -0.2560 H   0  0  0  0  0  0  0  0  0  0  0  0
   -0.6225   -1.2395   -1.9389 H   0  0  0  0  0  0  0  0  0  0  0  0
    1.5410   -1.6179   -0.1904 H   0  0  0  0  0  0  0  0  0  0  0  0
    6.0021   -1.0204    0.9352 H   0  0  0  0  0  0  0  0  0  0  0  0
    4.6122   -2.9048    0.8708 H   0  0  0  0  0  0  0  0  0  0  0  0
    3.4057   -2.8637   -0.4116 H   0  0  0  0  0  0  0  0  0  0  0  0
    2.9328   -2.5843    1.2923 H   0  0  0  0  0  0  0  0  0  0  0  0
    6.3579    1.4141    0.6301 H   0  0  0  0  0  0  0  0  0  0  0  0
    4.4290    2.8142   -0.1258 H   0  0  0  0  0  0  0  0  0  0  0  0
  1  2  2  0  0  0  0
  1  3  2  0  0  0  0
  1  8  1  0  0  0  0
  1  9  1  0  0  0  0
  4 13  2  0  0  0  0
  5 10  1  0  0  0  0
  5 11  1  0  0  0  0
  5 12  1  0  0  0  0
  6 13  1  0  0  0  0
  6 14  1  0  0  0  0
  6 30  1  0  0  0  0
  7 14  1  0  0  0  0
  7 19  2  0  0  0  0
  8 11  1  0  0  0  0
  8 20  1  0  0  0  0
  8 21  1  0  0  0  0
  9 10  1  0  0  0  0
  9 22  1  0  0  0  0
  9 23  1  0  0  0  0
 10 24  1  0  0  0  0
 10 25  1  0  0  0  0
 11 26  1  0  0  0  0
 11 27  1  0  0  0  0
 12 13  1  0  0  0  0
 12 28  1  0  0  0  0
 12 29  1  0  0  0  0
 14 15  2  0  0  0  0
 15 16  1  0  0  0  0
 15 17  1  0  0  0  0
 16 18  2  0  0  0  0
 16 31  1  0  0  0  0
 17 32  1  0  0  0  0
 17 33  1  0  0  0  0
 17 34  1  0  0  0  0
 18 19  1  0  0  0  0
 18 35  1  0  0  0  0
 19 36  1  0  0  0  0
M  END
> <PUBCHEM_COMPOUND_CID>
47205513

> <PUBCHEM_CONFORMER_RMSD>
0.6

> <PUBCHEM_CONFORMER_DIVERSEORDER>
2
97
96
64
123
98
102
61
72
17
117
6
20
121
38
126
58
101
56
69
90
88
42
119
109
66
44
104
71
16
85
68
127
19
74
87
50
59
41
29
82
124
77
118
94
34
86
89
26
95
122
5
113
106
21
47
92
39
23
110
125
22
75
70
65
67
46
103
24
73
18
25
115
48
1
78
112
40
53
36
116
83
28
107
49
91
35
114
30
27
15
79
93
120
37
3
33
4
31
60
12
80
111
11
62
52
57
54
81
14
32
108
10
99
45
7
100
55
13
9
8
51
84
43
76
105
63

> <PUBCHEM_MMFF94_PARTIAL_CHARGES>
23
1 1.09
10 0.27
11 0.27
12 0.33
13 0.57
14 0.43
15 -0.14
16 -0.15
17 0.14
18 -0.15
19 0.16
2 -0.65
3 -0.65
30 0.37
31 0.15
35 0.15
36 0.15
4 -0.57
5 -0.81
6 -0.55
7 -0.62
8 0.11
9 0.11

> <PUBCHEM_EFFECTIVE_ROTOR_COUNT>
5

> <PUBCHEM_PHARMACOPHORE_FEATURES>
8
1 2 acceptor
1 3 acceptor
1 4 acceptor
1 5 cation
1 6 donor
1 7 acceptor
6 1 5 8 9 10 11 rings
6 7 14 15 16 18 19 rings

> <PUBCHEM_HEAVY_ATOM_COUNT>
19

> <PUBCHEM_ATOM_DEF_STEREO_COUNT>
0

> <PUBCHEM_ATOM_UDEF_STEREO_COUNT>
0

> <PUBCHEM_BOND_DEF_STEREO_COUNT>
0

> <PUBCHEM_BOND_UDEF_STEREO_COUNT>
0

> <PUBCHEM_ISOTOPIC_ATOM_COUNT>
0

> <PUBCHEM_COMPONENT_COUNT>
1

> <PUBCHEM_CACTVS_TAUTO_COUNT>
3

> <PUBCHEM_CONFORMER_ID>
02D04C8900000002

> <PUBCHEM_MMFF94_ENERGY>
39.3644

> <PUBCHEM_FEATURE_SELFOVERLAP>
40.616

> <PUBCHEM_SHAPE_MULTIPOLES>
362.31
14.11
1.61
1.15
2.36
0.23
-0.01
-1.96
3.69
-1.63
0.16
1.13
0.11
-0.93

> <PUBCHEM_SHAPE_SELFOVERLAP>
737.081

> <PUBCHEM_SHAPE_VOLUME>
210.3

> <PUBCHEM_COORDINATE_TYPE>
2
5
10

$$$$

