583157
  -OEChem-06241222443D

 29 31  0     1  0  0  0  0  0999 V2000
    1.8185    1.3170    0.6631 O   0  0  0  0  0  0  0  0  0  0  0  0
   -0.0478    1.7606   -0.6680 N   0  0  0  0  0  0  0  0  0  0  0  0
    0.7936   -0.5046   -0.7498 C   0  0  1  0  0  0  0  0  0  0  0  0
    1.2062    1.0053   -0.5932 C   0  0  2  0  0  0  0  0  0  0  0  0
    1.7403   -1.4882   -0.0453 C   0  0  0  0  0  0  0  0  0  0  0  0
   -0.6079   -0.4401   -0.1798 C   0  0  0  0  0  0  0  0  0  0  0  0
    2.2847   -0.9526    1.2695 C   0  0  0  0  0  0  0  0  0  0  0  0
    0.6837   -0.8840   -2.2408 C   0  0  0  0  0  0  0  0  0  0  0  0
   -1.0333    0.8957   -0.1786 C   0  0  0  0  0  0  0  0  0  0  0  0
    2.8594    0.4319    1.0440 C   0  0  0  0  0  0  0  0  0  0  0  0
   -1.4519   -1.4596    0.2303 C   0  0  0  0  0  0  0  0  0  0  0  0
   -2.3237    1.2311    0.1923 C   0  0  0  0  0  0  0  0  0  0  0  0
   -2.7437   -1.1235    0.6399 C   0  0  0  0  0  0  0  0  0  0  0  0
   -3.1781    0.2109    0.6164 C   0  0  0  0  0  0  0  0  0  0  0  0
    1.8893    1.3221   -1.3899 H   0  0  0  0  0  0  0  0  0  0  0  0
    2.6018   -1.6851   -0.6983 H   0  0  0  0  0  0  0  0  0  0  0  0
    1.2607   -2.4596    0.1217 H   0  0  0  0  0  0  0  0  0  0  0  0
    1.4759   -0.9075    2.0082 H   0  0  0  0  0  0  0  0  0  0  0  0
    3.0562   -1.6264    1.6568 H   0  0  0  0  0  0  0  0  0  0  0  0
    0.0068   -0.2189   -2.7902 H   0  0  0  0  0  0  0  0  0  0  0  0
    1.6629   -0.8302   -2.7298 H   0  0  0  0  0  0  0  0  0  0  0  0
    0.3046   -1.9057   -2.3614 H   0  0  0  0  0  0  0  0  0  0  0  0
   -0.0897    2.7526   -0.4773 H   0  0  0  0  0  0  0  0  0  0  0  0
    3.2923    0.8099    1.9756 H   0  0  0  0  0  0  0  0  0  0  0  0
    3.6491    0.4335    0.2838 H   0  0  0  0  0  0  0  0  0  0  0  0
   -1.1352   -2.4965    0.2201 H   0  0  0  0  0  0  0  0  0  0  0  0
   -2.6681    2.2596    0.1658 H   0  0  0  0  0  0  0  0  0  0  0  0
   -3.4262   -1.9040    0.9653 H   0  0  0  0  0  0  0  0  0  0  0  0
   -4.1921    0.4504    0.9251 H   0  0  0  0  0  0  0  0  0  0  0  0
  1  4  1  0  0  0  0
  1 10  1  0  0  0  0
  2  4  1  0  0  0  0
  2  9  1  0  0  0  0
  2 23  1  0  0  0  0
  3  4  1  0  0  0  0
  3  5  1  0  0  0  0
  3  6  1  0  0  0  0
  3  8  1  0  0  0  0
  4 15  1  0  0  0  0
  5  7  1  0  0  0  0
  5 16  1  0  0  0  0
  5 17  1  0  0  0  0
  6  9  1  0  0  0  0
  6 11  2  0  0  0  0
  7 10  1  0  0  0  0
  7 18  1  0  0  0  0
  7 19  1  0  0  0  0
  8 20  1  0  0  0  0
  8 21  1  0  0  0  0
  8 22  1  0  0  0  0
  9 12  2  0  0  0  0
 10 24  1  0  0  0  0
 10 25  1  0  0  0  0
 11 13  1  0  0  0  0
 11 26  1  0  0  0  0
 12 14  1  0  0  0  0
 12 27  1  0  0  0  0
 13 14  2  0  0  0  0
 13 28  1  0  0  0  0
 14 29  1  0  0  0  0
M  END
> <PUBCHEM_COMPOUND_CID>
583157

> <PUBCHEM_CONFORMER_RMSD>
0.4

> <PUBCHEM_CONFORMER_DIVERSEORDER>
1
3
2
4

> <PUBCHEM_MMFF94_PARTIAL_CHARGES>
16
1 -0.56
10 0.28
11 -0.15
12 -0.15
13 -0.15
14 -0.15
2 -0.87
23 0.4
26 0.15
27 0.15
28 0.15
29 0.15
3 0.14
4 0.65
6 -0.14
9 0.1

> <PUBCHEM_EFFECTIVE_ROTOR_COUNT>
1

> <PUBCHEM_PHARMACOPHORE_FEATURES>
6
1 1 acceptor
1 2 cation
1 2 donor
5 2 3 4 6 9 rings
6 1 3 4 5 7 10 rings
6 6 9 11 12 13 14 rings

> <PUBCHEM_HEAVY_ATOM_COUNT>
14

> <PUBCHEM_ATOM_DEF_STEREO_COUNT>
0

> <PUBCHEM_ATOM_UDEF_STEREO_COUNT>
2

> <PUBCHEM_BOND_DEF_STEREO_COUNT>
0

> <PUBCHEM_BOND_UDEF_STEREO_COUNT>
0

> <PUBCHEM_ISOTOPIC_ATOM_COUNT>
0

> <PUBCHEM_COMPONENT_COUNT>
1

> <PUBCHEM_CACTVS_TAUTO_COUNT>
1

> <PUBCHEM_CONFORMER_ID>
0008E5F500000001

> <PUBCHEM_MMFF94_ENERGY>
53.6036

> <PUBCHEM_FEATURE_SELFOVERLAP>
30.754

> <PUBCHEM_SHAPE_FINGERPRINT>
11067466 332 16265419996385850219
12251169 10 18410299098702117168
12326174 3 15430578667209652412
12382932 28 18411141328951492129
12423570 1 7195575100326610516
12524768 44 18261659455017515903
12696612 119 18412542080905842841
13571099 52 16153717539070412649
14817 1 13321291920114896166
15557651 10 15140958439609247928
15775835 57 17603875442341788098
16945 1 18337113367047749508
17804303 29 18053381282123659378
20361792 2 15482675701297622330
20559304 39 18058997411603540771
20653085 51 5689023318760169322
21501925 9 18342176618663467859
22445834 79 18130795563488414299
232386 152 18131342020793935123
23388829 49 17903651687044161439
23419403 2 10319823599860312535
23552423 10 17915442918697037957
23559900 14 17760351589847495126
2748010 2 18338786935867957725
369184 2 18341339945890647363

> <PUBCHEM_SHAPE_MULTIPOLES>
277.26
4.16
1.7
1.36
1.33
0.13
0.58
-0.13
-1.94
0.03
0.04
-0.74
-0.32
0.22

> <PUBCHEM_SHAPE_SELFOVERLAP>
605.675

> <PUBCHEM_SHAPE_VOLUME>
151.9

> <PUBCHEM_COORDINATE_TYPE>
2
5
10

$$$$

