9994
  -OEChem-06261204142D

 13 13  0     0  0  0  0  0  0999 V2000
    2.0000    1.1830    0.0000 O   0  0  0  0  0  0  0  0  0  0  0  0
    2.8660   -0.3170    0.0000 N   0  0  0  0  0  0  0  0  0  0  0  0
    2.3660   -1.1830    0.0000 C   0  0  0  0  0  0  0  0  0  0  0  0
    3.3660   -1.1830    0.0000 C   0  0  0  0  0  0  0  0  0  0  0  0
    2.8660    0.6830    0.0000 C   0  0  0  0  0  0  0  0  0  0  0  0
    3.7320    1.1830    0.0000 C   0  0  0  0  0  0  0  0  0  0  0  0
    1.7834   -0.9710    0.0000 H   0  0  0  0  0  0  0  0  0  0  0  0
    2.2584   -1.7936    0.0000 H   0  0  0  0  0  0  0  0  0  0  0  0
    3.4737   -1.7936    0.0000 H   0  0  0  0  0  0  0  0  0  0  0  0
    3.9486   -0.9710    0.0000 H   0  0  0  0  0  0  0  0  0  0  0  0
    4.0420    0.6461    0.0000 H   0  0  0  0  0  0  0  0  0  0  0  0
    4.2690    1.4930    0.0000 H   0  0  0  0  0  0  0  0  0  0  0  0
    3.4220    1.7200    0.0000 H   0  0  0  0  0  0  0  0  0  0  0  0
  1  5  2  0  0  0  0
  2  3  1  0  0  0  0
  2  4  1  0  0  0  0
  2  5  1  0  0  0  0
  3  4  1  0  0  0  0
  3  7  1  0  0  0  0
  3  8  1  0  0  0  0
  4  9  1  0  0  0  0
  4 10  1  0  0  0  0
  5  6  1  0  0  0  0
  6 11  1  0  0  0  0
  6 12  1  0  0  0  0
  6 13  1  0  0  0  0
M  END
> <PUBCHEM_COMPOUND_CID>
9994

> <PUBCHEM_COMPOUND_CANONICALIZED>
1

> <PUBCHEM_CACTVS_COMPLEXITY>
75.6

> <PUBCHEM_CACTVS_HBOND_ACCEPTOR>
1

> <PUBCHEM_CACTVS_HBOND_DONOR>
0

> <PUBCHEM_CACTVS_ROTATABLE_BOND>
0

> <PUBCHEM_CACTVS_SUBSKEYS>
AAADcYBiIAAAAAAAAAAAAAAAFgAAAAAAAAAAAAAAAAAAAAAAAAAAHgAAAAAAAADBgAQCAAMAAAAIAAEQEAAAAAAAAAAAAAAIAAAAAAAAAAAAAAAABgCAAAAAAAAAAAAAAAAAAAAAAAAAAAAAAAAAAAAAAA==

> <PUBCHEM_IUPAC_OPENEYE_NAME>
1-(aziridin-1-yl)ethanone

> <PUBCHEM_IUPAC_CAS_NAME>
1-(1-aziridinyl)ethanone

> <PUBCHEM_IUPAC_NAME>
1-(aziridin-1-yl)ethanone

> <PUBCHEM_IUPAC_SYSTEMATIC_NAME>
1-(aziridin-1-yl)ethanone

> <PUBCHEM_IUPAC_TRADITIONAL_NAME>
1-ethyleniminoethanone

> <PUBCHEM_IUPAC_INCHI>
InChI=1S/C4H7NO/c1-4(6)5-2-3-5/h2-3H2,1H3

> <PUBCHEM_IUPAC_INCHIKEY>
OTIXUSNHAKOJBX-UHFFFAOYSA-N

> <PUBCHEM_XLOGP3_AA>
-0.5

> <PUBCHEM_EXACT_MASS>
85.052764

> <PUBCHEM_MOLECULAR_FORMULA>
C4H7NO

> <PUBCHEM_MOLECULAR_WEIGHT>
85.10448

> <PUBCHEM_OPENEYE_CAN_SMILES>
CC(=O)N1CC1

> <PUBCHEM_OPENEYE_ISO_SMILES>
CC(=O)N1CC1

> <PUBCHEM_CACTVS_TPSA>
20.1

> <PUBCHEM_MONOISOTOPIC_WEIGHT>
85.052764

> <PUBCHEM_TOTAL_CHARGE>
0

> <PUBCHEM_HEAVY_ATOM_COUNT>
6

> <PUBCHEM_ATOM_DEF_STEREO_COUNT>
0

> <PUBCHEM_ATOM_UDEF_STEREO_COUNT>
0

> <PUBCHEM_BOND_DEF_STEREO_COUNT>
0

> <PUBCHEM_BOND_UDEF_STEREO_COUNT>
0

> <PUBCHEM_ISOTOPIC_ATOM_COUNT>
0

> <PUBCHEM_COMPONENT_COUNT>
1

> <PUBCHEM_CACTVS_TAUTO_COUNT>
1

> <PUBCHEM_COORDINATE_TYPE>
1
5
255

$$$$

