17395525
  -OEChem-06241222503D

 45 46  0     0  0  0  0  0  0999 V2000
   -2.1050    0.9964    0.8454 O   0  0  0  0  0  0  0  0  0  0  0  0
    5.8544   -1.0869   -0.0820 O   0  0  0  0  0  0  0  0  0  0  0  0
    0.2091    2.2734    0.8555 O   0  0  0  0  0  0  0  0  0  0  0  0
    5.7713    1.1247   -0.6802 O   0  0  0  0  0  0  0  0  0  0  0  0
   -3.1521   -1.5517    1.2158 O   0  0  0  0  0  0  0  0  0  0  0  0
    1.7022   -0.8659   -0.1578 N   0  0  0  0  0  0  0  0  0  0  0  0
    2.8436    1.0066    0.1925 C   0  0  0  0  0  0  0  0  0  0  0  0
    1.5835    0.4505    0.2040 C   0  0  0  0  0  0  0  0  0  0  0  0
    3.7518   -0.0113   -0.1901 C   0  0  0  0  0  0  0  0  0  0  0  0
    3.0190   -1.1583   -0.4009 C   0  0  0  0  0  0  0  0  0  0  0  0
    0.2980    1.0868    0.5331 C   0  0  0  0  0  0  0  0  0  0  0  0
    3.1868    2.4069    0.5192 C   0  0  0  0  0  0  0  0  0  0  0  0
    3.4312   -2.5150   -0.8110 C   0  0  0  0  0  0  0  0  0  0  0  0
   -0.9609    0.2338    0.4663 C   0  0  0  0  0  0  0  0  0  0  0  0
    5.1761    0.0868   -0.3431 C   0  0  0  0  0  0  0  0  0  0  0  0
   -3.2954    0.6484    0.2822 C   0  0  0  0  0  0  0  0  0  0  0  0
   -3.8208   -0.6303    0.4679 C   0  0  0  0  0  0  0  0  0  0  0  0
   -5.7353   -0.0398   -0.8826 C   0  0  0  0  0  0  0  0  0  0  0  0
   -3.9900    1.5829   -0.4859 C   0  0  0  0  0  0  0  0  0  0  0  0
   -5.0409   -0.9743   -0.1144 C   0  0  0  0  0  0  0  0  0  0  0  0
   -5.2097    1.2389   -1.0684 C   0  0  0  0  0  0  0  0  0  0  0  0
   -7.0394   -0.4076   -1.5056 C   0  0  0  0  0  0  0  0  0  0  0  0
    7.2800   -1.0596   -0.2162 C   0  0  0  0  0  0  0  0  0  0  0  0
   -3.7577   -2.8354    1.3565 C   0  0  0  0  0  0  0  0  0  0  0  0
    0.9401   -1.5253   -0.2355 H   0  0  0  0  0  0  0  0  0  0  0  0
    4.2542    2.5419    0.7134 H   0  0  0  0  0  0  0  0  0  0  0  0
    2.6679    2.7391    1.4242 H   0  0  0  0  0  0  0  0  0  0  0  0
    2.9059    3.0711   -0.3046 H   0  0  0  0  0  0  0  0  0  0  0  0
    3.9327   -3.0316    0.0135 H   0  0  0  0  0  0  0  0  0  0  0  0
    2.5714   -3.1242   -1.1102 H   0  0  0  0  0  0  0  0  0  0  0  0
    4.1142   -2.4759   -1.6658 H   0  0  0  0  0  0  0  0  0  0  0  0
   -0.8401   -0.5963    1.1697 H   0  0  0  0  0  0  0  0  0  0  0  0
   -1.0659   -0.1422   -0.5589 H   0  0  0  0  0  0  0  0  0  0  0  0
   -3.5853    2.5802   -0.6349 H   0  0  0  0  0  0  0  0  0  0  0  0
   -5.4994   -1.9518   -0.0078 H   0  0  0  0  0  0  0  0  0  0  0  0
   -5.7388    1.9766   -1.6658 H   0  0  0  0  0  0  0  0  0  0  0  0
   -6.8725   -1.0506   -2.3757 H   0  0  0  0  0  0  0  0  0  0  0  0
   -7.6747   -0.9376   -0.7879 H   0  0  0  0  0  0  0  0  0  0  0  0
   -7.5939    0.4775   -1.8350 H   0  0  0  0  0  0  0  0  0  0  0  0
    7.5566   -0.8130   -1.2454 H   0  0  0  0  0  0  0  0  0  0  0  0
    7.7106   -0.3382    0.4845 H   0  0  0  0  0  0  0  0  0  0  0  0
    7.6630   -2.0551    0.0228 H   0  0  0  0  0  0  0  0  0  0  0  0
   -4.7162   -2.7743    1.8831 H   0  0  0  0  0  0  0  0  0  0  0  0
   -3.8419   -3.3498    0.3932 H   0  0  0  0  0  0  0  0  0  0  0  0
   -3.0906   -3.4389    1.9809 H   0  0  0  0  0  0  0  0  0  0  0  0
  1 14  1  0  0  0  0
  1 16  1  0  0  0  0
  2 15  1  0  0  0  0
  2 23  1  0  0  0  0
  3 11  2  0  0  0  0
  4 15  2  0  0  0  0
  5 17  1  0  0  0  0
  5 24  1  0  0  0  0
  6  8  1  0  0  0  0
  6 10  1  0  0  0  0
  6 25  1  0  0  0  0
  7  8  2  0  0  0  0
  7  9  1  0  0  0  0
  7 12  1  0  0  0  0
  8 11  1  0  0  0  0
  9 10  2  0  0  0  0
  9 15  1  0  0  0  0
 10 13  1  0  0  0  0
 11 14  1  0  0  0  0
 12 26  1  0  0  0  0
 12 27  1  0  0  0  0
 12 28  1  0  0  0  0
 13 29  1  0  0  0  0
 13 30  1  0  0  0  0
 13 31  1  0  0  0  0
 14 32  1  0  0  0  0
 14 33  1  0  0  0  0
 16 17  2  0  0  0  0
 16 19  1  0  0  0  0
 17 20  1  0  0  0  0
 18 20  2  0  0  0  0
 18 21  1  0  0  0  0
 18 22  1  0  0  0  0
 19 21  2  0  0  0  0
 19 34  1  0  0  0  0
 20 35  1  0  0  0  0
 21 36  1  0  0  0  0
 22 37  1  0  0  0  0
 22 38  1  0  0  0  0
 22 39  1  0  0  0  0
 23 40  1  0  0  0  0
 23 41  1  0  0  0  0
 23 42  1  0  0  0  0
 24 43  1  0  0  0  0
 24 44  1  0  0  0  0
 24 45  1  0  0  0  0
M  END
> <PUBCHEM_COMPOUND_CID>
17395525

> <PUBCHEM_CONFORMER_RMSD>
1.2

> <PUBCHEM_CONFORMER_DIVERSEORDER>
2
34
16
60
23
3
46
39
12
8
38
25
63
64
43
31
27
30
14
55
29
67
35
40
62
32
65
45
49
19
6
70
37
24
58
44
47
59
21
61
9
69
1
41
7
66
18
17
52
11
50
42
15
28
4
26
53
54
56
22
33
13
51
5
10
68
20
36
57
48

> <PUBCHEM_MMFF94_PARTIAL_CHARGES>
28
1 -0.36
10 -0.33
11 0.59
12 0.18
13 0.18
14 0.34
15 0.81
16 0.08
17 0.08
18 -0.14
19 -0.15
2 -0.43
20 -0.15
21 -0.15
22 0.14
23 0.28
24 0.28
25 0.27
3 -0.57
34 0.15
35 0.15
36 0.15
4 -0.57
5 -0.36
6 0.03
7 -0.18
8 -0.24
9 -0.09

> <PUBCHEM_EFFECTIVE_ROTOR_COUNT>
7

> <PUBCHEM_PHARMACOPHORE_FEATURES>
8
1 1 acceptor
1 3 acceptor
1 4 acceptor
1 5 acceptor
1 6 cation
1 6 donor
5 6 7 8 9 10 rings
6 16 17 18 19 20 21 rings

> <PUBCHEM_HEAVY_ATOM_COUNT>
24

> <PUBCHEM_ATOM_DEF_STEREO_COUNT>
0

> <PUBCHEM_ATOM_UDEF_STEREO_COUNT>
0

> <PUBCHEM_BOND_DEF_STEREO_COUNT>
0

> <PUBCHEM_BOND_UDEF_STEREO_COUNT>
0

> <PUBCHEM_ISOTOPIC_ATOM_COUNT>
0

> <PUBCHEM_COMPONENT_COUNT>
1

> <PUBCHEM_CACTVS_TAUTO_COUNT>
18

> <PUBCHEM_CONFORMER_ID>
01096F4500000002

> <PUBCHEM_MMFF94_ENERGY>
67.7236

> <PUBCHEM_FEATURE_SELFOVERLAP>
40.608

> <PUBCHEM_SHAPE_FINGERPRINT>
10447042 23 18334861649308038982
10670039 82 17417820590669877173
10835480 77 18341052925932458964
11315181 36 18040152920517506937
11719270 70 18335988644806568918
11796584 16 18060418023771908450
12236239 1 16950281801861228041
12516196 113 17676491656863957400
13668630 136 17167861954800760885
13862211 1 18187363264248674870
14251752 14 17918278666406462234
14849402 71 5905462144492852874
14931854 50 18341900731476256031
15183329 4 17989492956289563577
15188451 53 14707217591569848997
15961568 22 17488744450348689436
18608769 82 17988634157048709691
18681886 176 18186528704679119544
200 152 17748828523087796329
20028762 73 17894349991036683142
20645477 70 18113618992944643013
21033650 10 17274824713715342461
21267235 1 18186516609465807213
221357 26 18408892836911821757
221490 88 18338791200338063520
22393880 68 18202005395617754283
23198884 109 17917715712574720725
23402539 116 16415474948222485636
23559900 14 18339928100041675801
3004659 81 18341619217243446400
314194 84 17894628171298359622
351380 3 17095528396176545165
4015057 19 18334298626572555345
4073 2 18201433653655164387
5283173 99 18271811262835614285
9709674 26 18339643348294496795

> <PUBCHEM_SHAPE_MULTIPOLES>
459.58
17.95
2.36
1.08
2.61
0.58
0.01
4.18
6.32
0.3
-0.54
-1.35
0.24
1.6

> <PUBCHEM_SHAPE_SELFOVERLAP>
973.331

> <PUBCHEM_SHAPE_VOLUME>
259.8

> <PUBCHEM_COORDINATE_TYPE>
2
5
10

$$$$

