51090870
  -OEChem-06241223003D

 47 48  0     0  0  0  0  0  0999 V2000
   -5.8551   -0.2942   -0.0288 O   0  0  0  0  0  0  0  0  0  0  0  0
   -1.3348   -2.6442    0.1950 O   0  0  0  0  0  0  0  0  0  0  0  0
    0.2517   -0.9268   -0.0198 N   0  0  0  0  0  0  0  0  0  0  0  0
    3.3700    2.3692   -0.7915 N   0  0  0  0  0  0  0  0  0  0  0  0
    1.7909    1.2959    0.2714 N   0  0  0  0  0  0  0  0  0  0  0  0
    3.7457    1.0856   -0.8980 N   0  0  0  0  0  0  0  0  0  0  0  0
    1.5722    3.7872    0.1660 C   0  0  0  0  0  0  0  0  0  0  0  0
    2.2074    2.4856   -0.0954 C   0  0  0  0  0  0  0  0  0  0  0  0
   -3.5152   -0.8693    0.0515 C   0  0  0  0  0  0  0  0  0  0  0  0
   -2.0788   -0.3628   -0.0381 C   0  0  0  0  0  0  0  0  0  0  0  0
    2.7016   -0.9511   -0.0687 C   0  0  0  0  0  0  0  0  0  0  0  0
    1.4833   -1.6218    0.0369 C   0  0  0  0  0  0  0  0  0  0  0  0
    2.7574    0.4772   -0.2387 C   0  0  0  0  0  0  0  0  0  0  0  0
    0.1688    3.9192   -0.4738 C   0  0  0  0  0  0  0  0  0  0  0  0
    1.4733    4.1241    1.6738 C   0  0  0  0  0  0  0  0  0  0  0  0
   -4.5428    0.2409   -0.1420 C   0  0  0  0  0  0  0  0  0  0  0  0
   -1.0300   -1.4627    0.0701 C   0  0  0  0  0  0  0  0  0  0  0  0
    3.8982   -1.6653   -0.0100 C   0  0  0  0  0  0  0  0  0  0  0  0
    1.4614   -3.0068    0.2010 C   0  0  0  0  0  0  0  0  0  0  0  0
    3.8765   -3.0504    0.1542 C   0  0  0  0  0  0  0  0  0  0  0  0
    2.6581   -3.7211    0.2597 C   0  0  0  0  0  0  0  0  0  0  0  0
   -6.8446    0.7105   -0.2031 C   0  0  0  0  0  0  0  0  0  0  0  0
   -8.2152    0.0811   -0.0718 C   0  0  0  0  0  0  0  0  0  0  0  0
    2.1917    4.5749   -0.2854 H   0  0  0  0  0  0  0  0  0  0  0  0
   -3.6822   -1.3565    1.0206 H   0  0  0  0  0  0  0  0  0  0  0  0
   -3.6883   -1.6517   -0.6986 H   0  0  0  0  0  0  0  0  0  0  0  0
   -1.9292    0.1499   -0.9964 H   0  0  0  0  0  0  0  0  0  0  0  0
   -1.8946    0.3652    0.7614 H   0  0  0  0  0  0  0  0  0  0  0  0
   -0.5271    3.1859   -0.0507 H   0  0  0  0  0  0  0  0  0  0  0  0
    0.2204    3.7457   -1.5543 H   0  0  0  0  0  0  0  0  0  0  0  0
   -0.2427    4.9202   -0.3082 H   0  0  0  0  0  0  0  0  0  0  0  0
    2.4640    4.0962    2.1405 H   0  0  0  0  0  0  0  0  0  0  0  0
    1.0542    5.1247    1.8228 H   0  0  0  0  0  0  0  0  0  0  0  0
    0.8363    3.4024    2.1973 H   0  0  0  0  0  0  0  0  0  0  0  0
   -4.4172    0.6943   -1.1324 H   0  0  0  0  0  0  0  0  0  0  0  0
   -4.3982    1.0161    0.6198 H   0  0  0  0  0  0  0  0  0  0  0  0
    0.3134    0.0798   -0.1432 H   0  0  0  0  0  0  0  0  0  0  0  0
    3.9462    3.0895   -1.2107 H   0  0  0  0  0  0  0  0  0  0  0  0
    4.8645   -1.1716   -0.0808 H   0  0  0  0  0  0  0  0  0  0  0  0
    0.5679   -3.6059    0.2932 H   0  0  0  0  0  0  0  0  0  0  0  0
    4.8082   -3.6066    0.2020 H   0  0  0  0  0  0  0  0  0  0  0  0
    2.6430   -4.7996    0.3885 H   0  0  0  0  0  0  0  0  0  0  0  0
   -6.7412    1.1648   -1.1949 H   0  0  0  0  0  0  0  0  0  0  0  0
   -6.7218    1.4883    0.5589 H   0  0  0  0  0  0  0  0  0  0  0  0
   -8.3505   -0.7076   -0.8193 H   0  0  0  0  0  0  0  0  0  0  0  0
   -8.3313   -0.3885    0.9106 H   0  0  0  0  0  0  0  0  0  0  0  0
   -9.0028    0.8287   -0.2010 H   0  0  0  0  0  0  0  0  0  0  0  0
  1 16  1  0  0  0  0
  1 22  1  0  0  0  0
  2 17  2  0  0  0  0
  3 12  1  0  0  0  0
  3 17  1  0  0  0  0
  3 37  1  0  0  0  0
  4  6  1  0  0  0  0
  4  8  1  0  0  0  0
  4 38  1  0  0  0  0
  5  8  2  0  0  0  0
  5 13  1  0  0  0  0
  6 13  2  0  0  0  0
  7  8  1  0  0  0  0
  7 14  1  0  0  0  0
  7 15  1  0  0  0  0
  7 24  1  0  0  0  0
  9 10  1  0  0  0  0
  9 16  1  0  0  0  0
  9 25  1  0  0  0  0
  9 26  1  0  0  0  0
 10 17  1  0  0  0  0
 10 27  1  0  0  0  0
 10 28  1  0  0  0  0
 11 12  1  0  0  0  0
 11 13  1  0  0  0  0
 11 18  2  0  0  0  0
 12 19  2  0  0  0  0
 14 29  1  0  0  0  0
 14 30  1  0  0  0  0
 14 31  1  0  0  0  0
 15 32  1  0  0  0  0
 15 33  1  0  0  0  0
 15 34  1  0  0  0  0
 16 35  1  0  0  0  0
 16 36  1  0  0  0  0
 18 20  1  0  0  0  0
 18 39  1  0  0  0  0
 19 21  1  0  0  0  0
 19 40  1  0  0  0  0
 20 21  2  0  0  0  0
 20 41  1  0  0  0  0
 21 42  1  0  0  0  0
 22 23  1  0  0  0  0
 22 43  1  0  0  0  0
 22 44  1  0  0  0  0
 23 45  1  0  0  0  0
 23 46  1  0  0  0  0
 23 47  1  0  0  0  0
M  END
> <PUBCHEM_COMPOUND_CID>
51090870

> <PUBCHEM_CONFORMER_RMSD>
1

> <PUBCHEM_CONFORMER_DIVERSEORDER>
1
22
35
38
23
13
43
29
17
40
46
31
28
52
32
44
45
8
19
42
34
24
15
9
25
47
54
53
39
55
41
10
49
48
21
20
11
51
30
7
6
16
50
26
27
14
37
36
18
4
33
2
5
12
3

> <PUBCHEM_MMFF94_PARTIAL_CHARGES>
25
1 -0.56
10 0.06
11 0.05
12 0.12
13 0.46
16 0.28
17 0.57
18 -0.15
19 -0.15
2 -0.57
20 -0.15
21 -0.15
22 0.28
3 -0.55
37 0.37
38 0.27
39 0.15
4 0.3
40 0.15
41 0.15
42 0.15
5 -0.57
6 -0.71
7 0.18
8 0.01

> <PUBCHEM_EFFECTIVE_ROTOR_COUNT>
9

> <PUBCHEM_PHARMACOPHORE_FEATURES>
9
1 1 acceptor
1 2 acceptor
1 3 donor
1 4 donor
3 4 5 8 cation
3 5 6 13 cation
3 7 14 15 hydrophobe
5 4 5 6 8 13 rings
6 11 12 18 19 20 21 rings

> <PUBCHEM_HEAVY_ATOM_COUNT>
23

> <PUBCHEM_ATOM_DEF_STEREO_COUNT>
0

> <PUBCHEM_ATOM_UDEF_STEREO_COUNT>
0

> <PUBCHEM_BOND_DEF_STEREO_COUNT>
0

> <PUBCHEM_BOND_UDEF_STEREO_COUNT>
0

> <PUBCHEM_ISOTOPIC_ATOM_COUNT>
0

> <PUBCHEM_COMPONENT_COUNT>
1

> <PUBCHEM_CACTVS_TAUTO_COUNT>
77

> <PUBCHEM_CONFORMER_ID>
030B95B600000001

> <PUBCHEM_MMFF94_ENERGY>
44.5386

> <PUBCHEM_FEATURE_SELFOVERLAP>
48.418

> <PUBCHEM_SHAPE_FINGERPRINT>
10162869 55 18336562547068870911
10165383 225 18201713999535615492
10411042 1 18051694644309202938
10688039 33 18058729250693340101
11045977 3 18059848472728117995
11059845 2 17326643313906581048
12166972 35 18187087303909889011
12173636 292 17401769618936773254
12730499 353 18341322293712522723
12769317 202 18339649940447011813
13533116 47 18410293610530621021
138480 1 18411138060681949960
13878862 14 18270984396332662685
13965767 371 17984163473375416296
14866123 147 16539337466996602314
15322687 12 18336827481551401193
15420108 30 17972902267189243514
15483637 11 17980764054311682661
17844677 252 18339073908940948631
18335252 114 18338808930954721469
21049683 118 17702681955935926363
21344244 78 18055093195990277002
21860390 5 18333724728050956695
221357 26 18342177829701671183
23559900 14 18409735058207427891
44555599 121 18261668299241954113
513532 50 18040708182473999278

> <PUBCHEM_SHAPE_MULTIPOLES>
441.67
13.01
5.59
0.8
41.17
4.48
-0.16
-2.93
1.19
-7.79
-1.13
-0.38
0.64
-0.13

> <PUBCHEM_SHAPE_SELFOVERLAP>
911.057

> <PUBCHEM_SHAPE_VOLUME>
256.2

> <PUBCHEM_COORDINATE_TYPE>
2
5
10

$$$$

