4698
  -OEChem-06261200172D

 48 49  0     1  0  0  0  0  0999 V2000
    2.8660    1.3100    0.0000 S   0  0  0  0  0  0  0  0  0  0  0  0
    4.5981   -0.6900    0.0000 O   0  0  0  0  0  0  0  0  0  0  0  0
    8.9282   -2.1900    0.0000 O   0  0  0  0  0  0  0  0  0  0  0  0
    3.7320   -2.1900    0.0000 O   0  0  0  0  0  0  0  0  0  0  0  0
    8.0622   -0.6900    0.0000 O   0  0  0  0  0  0  0  0  0  0  0  0
    6.3301   -3.6900    0.0000 N   0  0  0  0  0  0  0  0  0  0  0  0
    6.3301   -1.6900    0.0000 C   0  0  3  0  0  0  0  0  0  0  0  0
    5.4641   -2.1900    0.0000 C   0  0  0  0  0  0  0  0  0  0  0  0
    7.1962   -2.1900    0.0000 C   0  0  0  0  0  0  0  0  0  0  0  0
    5.4641   -3.1900    0.0000 C   0  0  0  0  0  0  0  0  0  0  0  0
    7.1962   -3.1900    0.0000 C   0  0  0  0  0  0  0  0  0  0  0  0
    6.3301   -0.6900    0.0000 C   0  0  0  0  0  0  0  0  0  0  0  0
    4.5981   -1.6900    0.0000 C   0  0  0  0  0  0  0  0  0  0  0  0
    4.5981   -3.6900    0.0000 C   0  0  0  0  0  0  0  0  0  0  0  0
    8.0622   -3.6900    0.0000 C   0  0  0  0  0  0  0  0  0  0  0  0
    8.0622   -1.6900    0.0000 C   0  0  0  0  0  0  0  0  0  0  0  0
    3.7320   -0.1900    0.0000 C   0  0  0  0  0  0  0  0  0  0  0  0
    3.7320    0.8100    0.0000 C   0  0  0  0  0  0  0  0  0  0  0  0
    9.7942   -1.6900    0.0000 C   0  0  0  0  0  0  0  0  0  0  0  0
    2.8660    2.3100    0.0000 C   0  0  0  0  0  0  0  0  0  0  0  0
    3.7320    2.8100    0.0000 C   0  0  0  0  0  0  0  0  0  0  0  0
    2.0000    2.8100    0.0000 C   0  0  0  0  0  0  0  0  0  0  0  0
    3.7320    3.8100    0.0000 C   0  0  0  0  0  0  0  0  0  0  0  0
    2.0000    3.8100    0.0000 C   0  0  0  0  0  0  0  0  0  0  0  0
    2.8660    4.3100    0.0000 C   0  0  0  0  0  0  0  0  0  0  0  0
    6.8671   -1.3800    0.0000 H   0  0  0  0  0  0  0  0  0  0  0  0
    6.9501   -0.6900    0.0000 H   0  0  0  0  0  0  0  0  0  0  0  0
    6.3301   -0.0700    0.0000 H   0  0  0  0  0  0  0  0  0  0  0  0
    5.7101   -0.6900    0.0000 H   0  0  0  0  0  0  0  0  0  0  0  0
    6.3301   -4.3100    0.0000 H   0  0  0  0  0  0  0  0  0  0  0  0
    4.2881   -3.1531    0.0000 H   0  0  0  0  0  0  0  0  0  0  0  0
    4.0611   -4.0000    0.0000 H   0  0  0  0  0  0  0  0  0  0  0  0
    4.9081   -4.2269    0.0000 H   0  0  0  0  0  0  0  0  0  0  0  0
    7.7522   -4.2269    0.0000 H   0  0  0  0  0  0  0  0  0  0  0  0
    8.5991   -4.0000    0.0000 H   0  0  0  0  0  0  0  0  0  0  0  0
    8.3722   -3.1531    0.0000 H   0  0  0  0  0  0  0  0  0  0  0  0
    3.1215   -0.0823    0.0000 H   0  0  0  0  0  0  0  0  0  0  0  0
    3.5200   -0.7726    0.0000 H   0  0  0  0  0  0  0  0  0  0  0  0
    4.3426    0.7023    0.0000 H   0  0  0  0  0  0  0  0  0  0  0  0
    3.9441    1.3926    0.0000 H   0  0  0  0  0  0  0  0  0  0  0  0
   10.1042   -2.2269    0.0000 H   0  0  0  0  0  0  0  0  0  0  0  0
   10.3312   -1.3800    0.0000 H   0  0  0  0  0  0  0  0  0  0  0  0
    9.4842   -1.1531    0.0000 H   0  0  0  0  0  0  0  0  0  0  0  0
    4.2690    2.5000    0.0000 H   0  0  0  0  0  0  0  0  0  0  0  0
    1.4631    2.5000    0.0000 H   0  0  0  0  0  0  0  0  0  0  0  0
    4.2690    4.1200    0.0000 H   0  0  0  0  0  0  0  0  0  0  0  0
    1.4631    4.1200    0.0000 H   0  0  0  0  0  0  0  0  0  0  0  0
    2.8660    4.9300    0.0000 H   0  0  0  0  0  0  0  0  0  0  0  0
  1 18  1  0  0  0  0
  1 20  1  0  0  0  0
  2 13  1  0  0  0  0
  2 17  1  0  0  0  0
  3 16  1  0  0  0  0
  3 19  1  0  0  0  0
  4 13  2  0  0  0  0
  5 16  2  0  0  0  0
  6 10  1  0  0  0  0
  6 11  1  0  0  0  0
  6 30  1  0  0  0  0
  7  8  1  0  0  0  0
  7  9  1  0  0  0  0
  7 12  1  0  0  0  0
  7 26  1  0  0  0  0
  8 10  2  0  0  0  0
  8 13  1  0  0  0  0
  9 11  2  0  0  0  0
  9 16  1  0  0  0  0
 10 14  1  0  0  0  0
 11 15  1  0  0  0  0
 12 27  1  0  0  0  0
 12 28  1  0  0  0  0
 12 29  1  0  0  0  0
 14 31  1  0  0  0  0
 14 32  1  0  0  0  0
 14 33  1  0  0  0  0
 15 34  1  0  0  0  0
 15 35  1  0  0  0  0
 15 36  1  0  0  0  0
 17 18  1  0  0  0  0
 17 37  1  0  0  0  0
 17 38  1  0  0  0  0
 18 39  1  0  0  0  0
 18 40  1  0  0  0  0
 19 41  1  0  0  0  0
 19 42  1  0  0  0  0
 19 43  1  0  0  0  0
 20 21  2  0  0  0  0
 20 22  1  0  0  0  0
 21 23  1  0  0  0  0
 21 44  1  0  0  0  0
 22 24  2  0  0  0  0
 22 45  1  0  0  0  0
 23 25  2  0  0  0  0
 23 46  1  0  0  0  0
 24 25  1  0  0  0  0
 24 47  1  0  0  0  0
 25 48  1  0  0  0  0
M  END
> <PUBCHEM_COMPOUND_CID>
4698

> <PUBCHEM_COMPOUND_CANONICALIZED>
1

> <PUBCHEM_CACTVS_COMPLEXITY>
576

> <PUBCHEM_CACTVS_HBOND_ACCEPTOR>
6

> <PUBCHEM_CACTVS_HBOND_DONOR>
1

> <PUBCHEM_CACTVS_ROTATABLE_BOND>
8

> <PUBCHEM_CACTVS_SUBSKEYS>
AAADceB6OABAAAAAAAAAAAAAAAAAAAAAAAAwQAAAAAAAAAABAAAAHgQQAAAADQil0AKyCYLABAiIAiTSSAACAAAgCBAIiBkAAMgIJDKgMRCCMAAkkACoqUeIJggKAAAAAAAAAAAAAAAAAAAAAAAAAAAAAA==

> <PUBCHEM_IUPAC_OPENEYE_NAME>
O3-methyl O5-(2-phenylsulfanylethyl) 2,4,6-trimethyl-1,4-dihydropyridine-3,5-dicarboxylate

> <PUBCHEM_IUPAC_CAS_NAME>
2,4,6-trimethyl-1,4-dihydropyridine-3,5-dicarboxylic acid O3-methyl ester O5-[2-(phenylthio)ethyl] ester

> <PUBCHEM_IUPAC_NAME>
3-O-methyl 5-O-(2-phenylsulfanylethyl) 2,4,6-trimethyl-1,4-dihydropyridine-3,5-dicarboxylate

> <PUBCHEM_IUPAC_SYSTEMATIC_NAME>
O3-methyl O5-(2-phenylsulfanylethyl) 2,4,6-trimethyl-1,4-dihydropyridine-3,5-dicarboxylate

> <PUBCHEM_IUPAC_TRADITIONAL_NAME>
2,4,6-trimethyl-1,4-dihydropyridine-3,5-dicarboxylic acid O3-methyl ester O5-[2-(phenylthio)ethyl] ester

> <PUBCHEM_IUPAC_INCHI>
InChI=1S/C19H23NO4S/c1-12-16(18(21)23-4)13(2)20-14(3)17(12)19(22)24-10-11-25-15-8-6-5-7-9-15/h5-9,12,20H,10-11H2,1-4H3

> <PUBCHEM_IUPAC_INCHIKEY>
DHCNAWNKZMNTIS-UHFFFAOYSA-N

> <PUBCHEM_XLOGP3_AA>
3.6

> <PUBCHEM_EXACT_MASS>
361.134779

> <PUBCHEM_MOLECULAR_FORMULA>
C19H23NO4S

> <PUBCHEM_MOLECULAR_WEIGHT>
361.45522

> <PUBCHEM_OPENEYE_CAN_SMILES>
CC1C(=C(NC(=C1C(=O)OCCSC2=CC=CC=C2)C)C)C(=O)OC

> <PUBCHEM_OPENEYE_ISO_SMILES>
CC1C(=C(NC(=C1C(=O)OCCSC2=CC=CC=C2)C)C)C(=O)OC

> <PUBCHEM_CACTVS_TPSA>
89.9

> <PUBCHEM_MONOISOTOPIC_WEIGHT>
361.134779

> <PUBCHEM_TOTAL_CHARGE>
0

> <PUBCHEM_HEAVY_ATOM_COUNT>
25

> <PUBCHEM_ATOM_DEF_STEREO_COUNT>
0

> <PUBCHEM_ATOM_UDEF_STEREO_COUNT>
1

> <PUBCHEM_BOND_DEF_STEREO_COUNT>
0

> <PUBCHEM_BOND_UDEF_STEREO_COUNT>
0

> <PUBCHEM_ISOTOPIC_ATOM_COUNT>
0

> <PUBCHEM_COMPONENT_COUNT>
1

> <PUBCHEM_CACTVS_TAUTO_COUNT>
5

> <PUBCHEM_COORDINATE_TYPE>
1
5
255

> <PUBCHEM_BONDANNOTATIONS>
20  21  8
20  22  8
21  23  8
22  24  8
23  25  8
24  25  8
7  12  3

$$$$

