17395885
  -OEChem-06241222532D

 35 37  0     0  0  0  0  0  0999 V2000
    5.9422   -0.0964    0.0000 S   0  0  0  0  0  0  0  0  0  0  0  0
    6.3326    1.6983    0.0000 O   0  0  0  0  0  0  0  0  0  0  0  0
    4.6783   -3.9637    0.0000 N   0  0  0  0  0  0  0  0  0  0  0  0
    4.4026   -0.5937    0.0000 N   0  0  0  0  0  0  0  0  0  0  0  0
    4.6844    1.1659    0.0000 N   0  0  0  0  0  0  0  0  0  0  0  0
    3.7320   -2.6590    0.0000 C   0  0  0  0  0  0  0  0  0  0  0  0
    4.6783   -2.3542    0.0000 C   0  0  0  0  0  0  0  0  0  0  0  0
    3.7320   -3.6590    0.0000 C   0  0  0  0  0  0  0  0  0  0  0  0
    4.9889   -1.4037    0.0000 C   0  0  0  0  0  0  0  0  0  0  0  0
    5.2619   -3.1590    0.0000 C   0  0  0  0  0  0  0  0  0  0  0  0
    2.8660   -2.1590    0.0000 C   0  0  0  0  0  0  0  0  0  0  0  0
    2.8660   -4.1590    0.0000 C   0  0  0  0  0  0  0  0  0  0  0  0
    5.0474    2.8595    0.0000 C   0  0  0  0  0  0  0  0  0  0  0  0
    5.7178    3.6014    0.0000 C   0  0  0  0  0  0  0  0  0  0  0  0
    4.9917    0.2143    0.0000 C   0  0  0  0  0  0  0  0  0  0  0  0
    2.0000   -2.6590    0.0000 C   0  0  0  0  0  0  0  0  0  0  0  0
    5.9405   -1.0964    0.0000 C   0  0  0  0  0  0  0  0  0  0  0  0
    2.0000   -3.6590    0.0000 C   0  0  0  0  0  0  0  0  0  0  0  0
    5.3548    1.9079    0.0000 C   0  0  0  0  0  0  0  0  0  0  0  0
    5.4104    4.5530    0.0000 C   0  0  0  0  0  0  0  0  0  0  0  0
    5.8819   -3.1590    0.0000 H   0  0  0  0  0  0  0  0  0  0  0  0
    4.8709   -4.5530    0.0000 H   0  0  0  0  0  0  0  0  0  0  0  0
    2.8660   -1.5390    0.0000 H   0  0  0  0  0  0  0  0  0  0  0  0
    2.8660   -4.7790    0.0000 H   0  0  0  0  0  0  0  0  0  0  0  0
    4.6665    3.3487    0.0000 H   0  0  0  0  0  0  0  0  0  0  0  0
    4.4995    2.5693    0.0000 H   0  0  0  0  0  0  0  0  0  0  0  0
    6.0987    3.1122    0.0000 H   0  0  0  0  0  0  0  0  0  0  0  0
    6.2658    3.8916    0.0000 H   0  0  0  0  0  0  0  0  0  0  0  0
    6.4415   -1.4617    0.0000 H   0  0  0  0  0  0  0  0  0  0  0  0
    1.4631   -2.3490    0.0000 H   0  0  0  0  0  0  0  0  0  0  0  0
    1.4631   -3.9690    0.0000 H   0  0  0  0  0  0  0  0  0  0  0  0
    4.0781    1.2958    0.0000 H   0  0  0  0  0  0  0  0  0  0  0  0
    6.0004    4.7436    0.0000 H   0  0  0  0  0  0  0  0  0  0  0  0
    5.2199    5.1430    0.0000 H   0  0  0  0  0  0  0  0  0  0  0  0
    4.8205    4.3625    0.0000 H   0  0  0  0  0  0  0  0  0  0  0  0
  1 15  1  0  0  0  0
  1 17  1  0  0  0  0
  2 19  2  0  0  0  0
  3  8  1  0  0  0  0
  3 10  1  0  0  0  0
  3 22  1  0  0  0  0
  4  9  1  0  0  0  0
  4 15  2  0  0  0  0
  5 15  1  0  0  0  0
  5 19  1  0  0  0  0
  5 32  1  0  0  0  0
  6  7  1  0  0  0  0
  6  8  1  0  0  0  0
  6 11  2  0  0  0  0
  7  9  1  0  0  0  0
  7 10  2  0  0  0  0
  8 12  2  0  0  0  0
  9 17  2  0  0  0  0
 10 21  1  0  0  0  0
 11 16  1  0  0  0  0
 11 23  1  0  0  0  0
 12 18  1  0  0  0  0
 12 24  1  0  0  0  0
 13 14  1  0  0  0  0
 13 19  1  0  0  0  0
 13 25  1  0  0  0  0
 13 26  1  0  0  0  0
 14 20  1  0  0  0  0
 14 27  1  0  0  0  0
 14 28  1  0  0  0  0
 16 18  2  0  0  0  0
 16 30  1  0  0  0  0
 17 29  1  0  0  0  0
 18 31  1  0  0  0  0
 20 33  1  0  0  0  0
 20 34  1  0  0  0  0
 20 35  1  0  0  0  0
M  END
> <PUBCHEM_COMPOUND_CID>
17395885

> <PUBCHEM_COMPOUND_CANONICALIZED>
1

> <PUBCHEM_CACTVS_COMPLEXITY>
352

> <PUBCHEM_CACTVS_HBOND_ACCEPTOR>
3

> <PUBCHEM_CACTVS_HBOND_DONOR>
2

> <PUBCHEM_CACTVS_ROTATABLE_BOND>
4

> <PUBCHEM_CACTVS_SUBSKEYS>
AAADccBzIABAAAAAAAAAAAAAAAAAAWLAAAAwAAAAAAAAAFgB/AAAHgQQAAAADAjF3gS/0fLJkAisAzV3dACC8KlxCjkJ2bU4ZJiIIPLg2ZGEIAhokQLIyCcQgMAOgAAAAAACAAAAAAAAAAQAAAAAAAAAAA==

> <PUBCHEM_IUPAC_OPENEYE_NAME>
N-[4-(1H-indol-3-yl)thiazol-2-yl]butanamide

> <PUBCHEM_IUPAC_CAS_NAME>
N-[4-(1H-indol-3-yl)-2-thiazolyl]butanamide

> <PUBCHEM_IUPAC_NAME>
N-[4-(1H-indol-3-yl)-1,3-thiazol-2-yl]butanamide

> <PUBCHEM_IUPAC_SYSTEMATIC_NAME>
N-[4-(1H-indol-3-yl)-1,3-thiazol-2-yl]butanamide

> <PUBCHEM_IUPAC_TRADITIONAL_NAME>
N-[4-(1H-indol-3-yl)thiazol-2-yl]butyramide

> <PUBCHEM_IUPAC_INCHI>
InChI=1S/C15H15N3OS/c1-2-5-14(19)18-15-17-13(9-20-15)11-8-16-12-7-4-3-6-10(11)12/h3-4,6-9,16H,2,5H2,1H3,(H,17,18,19)

> <PUBCHEM_IUPAC_INCHIKEY>
WFLPWKAFJPTQOS-UHFFFAOYSA-N

> <PUBCHEM_XLOGP3_AA>
3.1

> <PUBCHEM_EXACT_MASS>
285.093583

> <PUBCHEM_MOLECULAR_FORMULA>
C15H15N3OS

> <PUBCHEM_MOLECULAR_WEIGHT>
285.3641

> <PUBCHEM_OPENEYE_CAN_SMILES>
CCCC(=O)NC1=NC(=CS1)C2=CNC3=CC=CC=C32

> <PUBCHEM_OPENEYE_ISO_SMILES>
CCCC(=O)NC1=NC(=CS1)C2=CNC3=CC=CC=C32

> <PUBCHEM_CACTVS_TPSA>
86

> <PUBCHEM_MONOISOTOPIC_WEIGHT>
285.093583

> <PUBCHEM_TOTAL_CHARGE>
0

> <PUBCHEM_HEAVY_ATOM_COUNT>
20

> <PUBCHEM_ATOM_DEF_STEREO_COUNT>
0

> <PUBCHEM_ATOM_UDEF_STEREO_COUNT>
0

> <PUBCHEM_BOND_DEF_STEREO_COUNT>
0

> <PUBCHEM_BOND_UDEF_STEREO_COUNT>
0

> <PUBCHEM_ISOTOPIC_ATOM_COUNT>
0

> <PUBCHEM_COMPONENT_COUNT>
1

> <PUBCHEM_CACTVS_TAUTO_COUNT>
5

> <PUBCHEM_COORDINATE_TYPE>
1
5
255

> <PUBCHEM_BONDANNOTATIONS>
1  15  8
1  17  8
11  16  8
12  18  8
16  18  8
3  10  8
3  8  8
4  15  8
4  9  8
6  11  8
6  7  8
6  8  8
7  10  8
8  12  8
9  17  8

$$$$

