586319
  -OEChem-06241222463D

 33 34  0     0  0  0  0  0  0999 V2000
    2.2379    1.5703    0.1849 S   0  0  0  0  0  0  0  0  0  0  0  0
    3.4628    2.0406   -0.4513 O   0  0  0  0  0  0  0  0  0  0  0  0
    1.9254    2.0298    1.5326 O   0  0  0  0  0  0  0  0  0  0  0  0
    0.9192    1.9257   -0.8655 N   0  0  0  0  0  0  0  0  0  0  0  0
   -3.9270   -0.5208    0.1298 N   0  0  0  0  0  0  0  0  0  0  0  0
   -2.1236   -0.1416   -1.3230 N   0  0  0  0  0  0  0  0  0  0  0  0
   -2.1944    0.8845    0.8563 N   0  0  0  0  0  0  0  0  0  0  0  0
    2.2743   -0.1752    0.1838 C   0  0  0  0  0  0  0  0  0  0  0  0
   -0.3435    1.2880   -0.6061 C   0  0  0  0  0  0  0  0  0  0  0  0
    3.0440   -0.8560   -0.7593 C   0  0  0  0  0  0  0  0  0  0  0  0
    1.5324   -0.8889    1.1250 C   0  0  0  0  0  0  0  0  0  0  0  0
   -2.6871    0.1048   -0.1249 C   0  0  0  0  0  0  0  0  0  0  0  0
   -0.9406    0.4721   -1.5328 C   0  0  0  0  0  0  0  0  0  0  0  0
   -1.0091    1.4667    0.5797 C   0  0  0  0  0  0  0  0  0  0  0  0
    3.0720   -2.2507   -0.7613 C   0  0  0  0  0  0  0  0  0  0  0  0
    1.5605   -2.2835    1.1232 C   0  0  0  0  0  0  0  0  0  0  0  0
    2.3303   -2.9643    0.1799 C   0  0  0  0  0  0  0  0  0  0  0  0
   -4.5338   -1.3775   -0.8684 C   0  0  0  0  0  0  0  0  0  0  0  0
   -4.5997   -0.3242    1.3976 C   0  0  0  0  0  0  0  0  0  0  0  0
    1.1526    2.0228   -1.8625 H   0  0  0  0  0  0  0  0  0  0  0  0
    3.6234   -0.3216   -1.5067 H   0  0  0  0  0  0  0  0  0  0  0  0
    0.9319   -0.3829    1.8750 H   0  0  0  0  0  0  0  0  0  0  0  0
   -0.4860    0.2720   -2.4974 H   0  0  0  0  0  0  0  0  0  0  0  0
   -0.6350    2.1098    1.3679 H   0  0  0  0  0  0  0  0  0  0  0  0
    3.6698   -2.7811   -1.4968 H   0  0  0  0  0  0  0  0  0  0  0  0
    0.9841   -2.8394    1.8569 H   0  0  0  0  0  0  0  0  0  0  0  0
    2.3518   -4.0502    0.1783 H   0  0  0  0  0  0  0  0  0  0  0  0
   -3.8844   -2.2306   -1.0938 H   0  0  0  0  0  0  0  0  0  0  0  0
   -4.7227   -0.8224   -1.7939 H   0  0  0  0  0  0  0  0  0  0  0  0
   -5.4948   -1.7821   -0.5335 H   0  0  0  0  0  0  0  0  0  0  0  0
   -4.8263    0.7359    1.5570 H   0  0  0  0  0  0  0  0  0  0  0  0
   -3.9782   -0.6813    2.2261 H   0  0  0  0  0  0  0  0  0  0  0  0
   -5.5491   -0.8680    1.4479 H   0  0  0  0  0  0  0  0  0  0  0  0
  1  2  2  0  0  0  0
  1  3  2  0  0  0  0
  1  4  1  0  0  0  0
  1  8  1  0  0  0  0
  4  9  1  0  0  0  0
  4 20  1  0  0  0  0
  5 12  1  0  0  0  0
  5 18  1  0  0  0  0
  5 19  1  0  0  0  0
  6 12  1  0  0  0  0
  6 13  2  0  0  0  0
  7 12  2  0  0  0  0
  7 14  1  0  0  0  0
  8 10  2  0  0  0  0
  8 11  1  0  0  0  0
  9 13  1  0  0  0  0
  9 14  2  0  0  0  0
 10 15  1  0  0  0  0
 10 21  1  0  0  0  0
 11 16  2  0  0  0  0
 11 22  1  0  0  0  0
 13 23  1  0  0  0  0
 14 24  1  0  0  0  0
 15 17  2  0  0  0  0
 15 25  1  0  0  0  0
 16 17  1  0  0  0  0
 16 26  1  0  0  0  0
 17 27  1  0  0  0  0
 18 28  1  0  0  0  0
 18 29  1  0  0  0  0
 18 30  1  0  0  0  0
 19 31  1  0  0  0  0
 19 32  1  0  0  0  0
 19 33  1  0  0  0  0
M  END
> <PUBCHEM_COMPOUND_CID>
586319

> <PUBCHEM_CONFORMER_RMSD>
0.6

> <PUBCHEM_CONFORMER_DIVERSEORDER>
1
18
4
17
12
7
10
6
14
3
2
8
15
13
16
11
5
9

> <PUBCHEM_MMFF94_PARTIAL_CHARGES>
27
1 1.45
10 -0.15
11 -0.15
12 0.72
13 0.16
14 0.16
15 -0.15
16 -0.15
17 -0.15
18 0.37
19 0.37
2 -0.65
20 0.42
21 0.15
22 0.15
23 0.15
24 0.15
25 0.15
26 0.15
27 0.15
3 -0.65
4 -0.76
5 -0.84
6 -0.62
7 -0.62
8 -0.01
9 0.2

> <PUBCHEM_EFFECTIVE_ROTOR_COUNT>
4

> <PUBCHEM_PHARMACOPHORE_FEATURES>
7
1 2 acceptor
1 3 acceptor
1 4 donor
1 6 acceptor
4 5 6 7 12 cation
6 6 7 9 12 13 14 rings
6 8 10 11 15 16 17 rings

> <PUBCHEM_HEAVY_ATOM_COUNT>
19

> <PUBCHEM_ATOM_DEF_STEREO_COUNT>
0

> <PUBCHEM_ATOM_UDEF_STEREO_COUNT>
0

> <PUBCHEM_BOND_DEF_STEREO_COUNT>
0

> <PUBCHEM_BOND_UDEF_STEREO_COUNT>
0

> <PUBCHEM_ISOTOPIC_ATOM_COUNT>
0

> <PUBCHEM_COMPONENT_COUNT>
1

> <PUBCHEM_CACTVS_TAUTO_COUNT>
1

> <PUBCHEM_CONFORMER_ID>
0008F24F00000001

> <PUBCHEM_MMFF94_ENERGY>
54.4507

> <PUBCHEM_FEATURE_SELFOVERLAP>
35.539

> <PUBCHEM_SHAPE_FINGERPRINT>
11067466 332 18131350804413219966
11140007 195 16588855927157034895
12553582 1 18123752216660648234
12596599 1 18044087075784348475
12778500 126 18118094048910494049
13296908 3 18342747337985913333
13464513 79 18413388731077517926
13533116 47 18333450916219145355
13583140 156 18115035091598182461
14178342 30 17900558786541552369
14251764 30 17606105419802014430
14252887 29 18201715120300467913
15295992 7 7132441267229543205
15375462 189 18187081762748046416
15635459 17 18131354107153776499
15664445 248 16917061157471058981
17349148 13 17341797183098507786
17818456 19 18116705417285897001
18981168 100 8357395124140607076
19422 9 18187357765999647449
20291156 8 18336826514888204163
20442098 301 18260555545142996071
20645477 70 18341344331221211367
21731516 1 18193565686107253094
22445834 79 18260268555296375901
2255824 54 18411415077540616852
23557571 272 16199611154435064189
23728640 28 16253651369404068570
2871803 45 18272652359002087526
31174 14 18409172125011226332
3323516 105 18273206512841452427
33824 294 18342741767133670866
7097593 13 18115583897691106491
7364860 26 18333735714983221152
81228 2 17038689409146309320
94968 8 18271802458046915574

> <PUBCHEM_SHAPE_MULTIPOLES>
363.2
7.49
2.8
1.38
8.07
0.67
0.06
3.17
0.16
-3.05
0.21
0.43
-0.01
-0.1

> <PUBCHEM_SHAPE_SELFOVERLAP>
753.447

> <PUBCHEM_SHAPE_VOLUME>
209.2

> <PUBCHEM_COORDINATE_TYPE>
2
5
10

$$$$

