9714
  -OEChem-06261203582D

 26 27  0     0  0  0  0  0  0999 V2000
    2.0000   -1.7220    0.0000 F   0  0  0  0  0  0  0  0  0  0  0  0
    2.3660   -0.3560    0.0000 F   0  0  0  0  0  0  0  0  0  0  0  0
    3.3660   -2.0880    0.0000 F   0  0  0  0  0  0  0  0  0  0  0  0
    6.3301   -1.2220    0.0000 N   0  0  0  0  0  0  0  0  0  0  0  0
    4.5981   -1.2220    0.0000 N   0  0  0  0  0  0  0  0  0  0  0  0
    5.4641    0.2780    0.0000 N   0  0  0  0  0  0  0  0  0  0  0  0
    3.7320    0.2780    0.0000 N   0  0  0  0  0  0  0  0  0  0  0  0
    4.5981    1.7780    0.0000 N   0  0  0  0  0  0  0  0  0  0  0  0
    7.1962   -0.7220    0.0000 C   0  0  0  0  0  0  0  0  0  0  0  0
    5.4641   -0.7220    0.0000 C   0  0  0  0  0  0  0  0  0  0  0  0
    8.0622   -1.2220    0.0000 C   0  0  0  0  0  0  0  0  0  0  0  0
    7.1962    0.2780    0.0000 C   0  0  0  0  0  0  0  0  0  0  0  0
    3.7320   -0.7220    0.0000 C   0  0  0  0  0  0  0  0  0  0  0  0
    8.9282   -0.7220    0.0000 C   0  0  0  0  0  0  0  0  0  0  0  0
    8.0622    0.7780    0.0000 C   0  0  0  0  0  0  0  0  0  0  0  0
    4.5981    0.7780    0.0000 C   0  0  0  0  0  0  0  0  0  0  0  0
    2.8660   -1.2220    0.0000 C   0  0  0  0  0  0  0  0  0  0  0  0
    8.9282    0.2780    0.0000 C   0  0  0  0  0  0  0  0  0  0  0  0
    6.3301   -1.8420    0.0000 H   0  0  0  0  0  0  0  0  0  0  0  0
    8.0622   -1.8420    0.0000 H   0  0  0  0  0  0  0  0  0  0  0  0
    6.6592    0.5880    0.0000 H   0  0  0  0  0  0  0  0  0  0  0  0
    9.4651   -1.0320    0.0000 H   0  0  0  0  0  0  0  0  0  0  0  0
    8.0622    1.3980    0.0000 H   0  0  0  0  0  0  0  0  0  0  0  0
    9.4651    0.5880    0.0000 H   0  0  0  0  0  0  0  0  0  0  0  0
    4.0611    2.0880    0.0000 H   0  0  0  0  0  0  0  0  0  0  0  0
    5.1350    2.0880    0.0000 H   0  0  0  0  0  0  0  0  0  0  0  0
  1 17  1  0  0  0  0
  2 17  1  0  0  0  0
  3 17  1  0  0  0  0
  4  9  1  0  0  0  0
  4 10  1  0  0  0  0
  4 19  1  0  0  0  0
  5 10  2  0  0  0  0
  5 13  1  0  0  0  0
  6 10  1  0  0  0  0
  6 16  2  0  0  0  0
  7 13  2  0  0  0  0
  7 16  1  0  0  0  0
  8 16  1  0  0  0  0
  8 25  1  0  0  0  0
  8 26  1  0  0  0  0
  9 11  2  0  0  0  0
  9 12  1  0  0  0  0
 11 14  1  0  0  0  0
 11 20  1  0  0  0  0
 12 15  2  0  0  0  0
 12 21  1  0  0  0  0
 13 17  1  0  0  0  0
 14 18  2  0  0  0  0
 14 22  1  0  0  0  0
 15 18  1  0  0  0  0
 15 23  1  0  0  0  0
 18 24  1  0  0  0  0
M  END
> <PUBCHEM_COMPOUND_CID>
9714

> <PUBCHEM_COMPOUND_CANONICALIZED>
1

> <PUBCHEM_CACTVS_COMPLEXITY>
267

> <PUBCHEM_CACTVS_HBOND_ACCEPTOR>
8

> <PUBCHEM_CACTVS_HBOND_DONOR>
2

> <PUBCHEM_CACTVS_ROTATABLE_BOND>
2

> <PUBCHEM_CACTVS_SUBSKEYS>
AAADccBzgYAAAAAAAAAAAAAAAAAAAAAAAAA8QAAAAAAAAAABwAAAHQAQAAAACAiBExAx0IbIEACgACZiZACCgAkhAqAJiAAAZIiIKCLAmZGEIAhokAJIyCcQAAAAAAAAAAAAAAAAAAAAAAAAAAAAAAAAAA==

> <PUBCHEM_IUPAC_OPENEYE_NAME>
N2-phenyl-6-(trifluoromethyl)-1,3,5-triazine-2,4-diamine

> <PUBCHEM_IUPAC_CAS_NAME>
N2-phenyl-6-(trifluoromethyl)-1,3,5-triazine-2,4-diamine

> <PUBCHEM_IUPAC_NAME>
2-N-phenyl-6-(trifluoromethyl)-1,3,5-triazine-2,4-diamine

> <PUBCHEM_IUPAC_SYSTEMATIC_NAME>
N2-phenyl-6-(trifluoromethyl)-1,3,5-triazine-2,4-diamine

> <PUBCHEM_IUPAC_TRADITIONAL_NAME>
[4-amino-6-(trifluoromethyl)-s-triazin-2-yl]-phenyl-amine

> <PUBCHEM_IUPAC_INCHI>
InChI=1S/C10H8F3N5/c11-10(12,13)7-16-8(14)18-9(17-7)15-6-4-2-1-3-5-6/h1-5H,(H3,14,15,16,17,18)

> <PUBCHEM_IUPAC_INCHIKEY>
AEQDCEOQPMWHKU-UHFFFAOYSA-N

> <PUBCHEM_XLOGP3_AA>
2.4

> <PUBCHEM_EXACT_MASS>
255.07318

> <PUBCHEM_MOLECULAR_FORMULA>
C10H8F3N5

> <PUBCHEM_MOLECULAR_WEIGHT>
255.19923

> <PUBCHEM_OPENEYE_CAN_SMILES>
C1=CC=C(C=C1)NC2=NC(=NC(=N2)N)C(F)(F)F

> <PUBCHEM_OPENEYE_ISO_SMILES>
C1=CC=C(C=C1)NC2=NC(=NC(=N2)N)C(F)(F)F

> <PUBCHEM_CACTVS_TPSA>
76.7

> <PUBCHEM_MONOISOTOPIC_WEIGHT>
255.07318

> <PUBCHEM_TOTAL_CHARGE>
0

> <PUBCHEM_HEAVY_ATOM_COUNT>
18

> <PUBCHEM_ATOM_DEF_STEREO_COUNT>
0

> <PUBCHEM_ATOM_UDEF_STEREO_COUNT>
0

> <PUBCHEM_BOND_DEF_STEREO_COUNT>
0

> <PUBCHEM_BOND_UDEF_STEREO_COUNT>
0

> <PUBCHEM_ISOTOPIC_ATOM_COUNT>
0

> <PUBCHEM_COMPONENT_COUNT>
1

> <PUBCHEM_CACTVS_TAUTO_COUNT>
9

> <PUBCHEM_COORDINATE_TYPE>
1
5
255

> <PUBCHEM_BONDANNOTATIONS>
11  14  8
12  15  8
14  18  8
15  18  8
5  10  8
5  13  8
6  10  8
6  16  8
7  13  8
7  16  8
9  11  8
9  12  8

$$$$

