17395481
  -OEChem-06241222502D

 38 40  0     0  0  0  0  0  0999 V2000
    5.3768    4.3556    0.0000 S   0  0  0  0  0  0  0  0  0  0  0  0
    4.0981    2.5955    0.0000 O   0  0  0  0  0  0  0  0  0  0  0  0
    2.8660    0.0566    0.0000 O   0  0  0  0  0  0  0  0  0  0  0  0
    2.8380    1.3354    0.0000 O   0  0  0  0  0  0  0  0  0  0  0  0
    3.7320   -1.4434    0.0000 N   0  0  0  0  0  0  0  0  0  0  0  0
    4.5981    1.0566    0.0000 N   0  0  0  0  0  0  0  0  0  0  0  0
    5.4071    1.6444    0.0000 N   0  0  0  0  0  0  0  0  0  0  0  0
    2.8660   -1.9434    0.0000 C   0  0  0  0  0  0  0  0  0  0  0  0
    4.5981    0.0566    0.0000 C   0  0  0  0  0  0  0  0  0  0  0  0
    3.7320   -0.4434    0.0000 C   0  0  0  0  0  0  0  0  0  0  0  0
    2.8660   -2.9434    0.0000 C   0  0  0  0  0  0  0  0  0  0  0  0
    4.5981   -1.9434    0.0000 C   0  0  0  0  0  0  0  0  0  0  0  0
    2.0000   -3.4434    0.0000 C   0  0  0  0  0  0  0  0  0  0  0  0
    3.7320   -3.4434    0.0000 C   0  0  0  0  0  0  0  0  0  0  0  0
    5.0981    2.5955    0.0000 C   0  0  0  0  0  0  0  0  0  0  0  0
    3.7891    1.6444    0.0000 C   0  0  0  0  0  0  0  0  0  0  0  0
    5.6859    3.4045    0.0000 C   0  0  0  0  0  0  0  0  0  0  0  0
    2.0000   -4.4434    0.0000 C   0  0  0  0  0  0  0  0  0  0  0  0
    3.7320   -4.4434    0.0000 C   0  0  0  0  0  0  0  0  0  0  0  0
    2.8660   -4.9434    0.0000 C   0  0  0  0  0  0  0  0  0  0  0  0
    6.6859    3.4045    0.0000 C   0  0  0  0  0  0  0  0  0  0  0  0
    6.9949    4.3556    0.0000 C   0  0  0  0  0  0  0  0  0  0  0  0
    6.1859    4.9434    0.0000 C   0  0  0  0  0  0  0  0  0  0  0  0
    2.6540   -1.3607    0.0000 H   0  0  0  0  0  0  0  0  0  0  0  0
    2.2554   -2.0510    0.0000 H   0  0  0  0  0  0  0  0  0  0  0  0
    4.8101   -0.5260    0.0000 H   0  0  0  0  0  0  0  0  0  0  0  0
    5.2087    0.1643    0.0000 H   0  0  0  0  0  0  0  0  0  0  0  0
    4.2881   -2.4803    0.0000 H   0  0  0  0  0  0  0  0  0  0  0  0
    5.1350   -2.2534    0.0000 H   0  0  0  0  0  0  0  0  0  0  0  0
    4.9081   -1.4064    0.0000 H   0  0  0  0  0  0  0  0  0  0  0  0
    1.4631   -3.1334    0.0000 H   0  0  0  0  0  0  0  0  0  0  0  0
    4.2690   -3.1334    0.0000 H   0  0  0  0  0  0  0  0  0  0  0  0
    1.4631   -4.7534    0.0000 H   0  0  0  0  0  0  0  0  0  0  0  0
    4.2690   -4.7534    0.0000 H   0  0  0  0  0  0  0  0  0  0  0  0
    2.8660   -5.5634    0.0000 H   0  0  0  0  0  0  0  0  0  0  0  0
    7.0503    2.9029    0.0000 H   0  0  0  0  0  0  0  0  0  0  0  0
    7.5845    4.5472    0.0000 H   0  0  0  0  0  0  0  0  0  0  0  0
    6.1859    5.5634    0.0000 H   0  0  0  0  0  0  0  0  0  0  0  0
  1 17  1  0  0  0  0
  1 23  1  0  0  0  0
  2 15  1  0  0  0  0
  2 16  1  0  0  0  0
  3 10  2  0  0  0  0
  4 16  2  0  0  0  0
  5  8  1  0  0  0  0
  5 10  1  0  0  0  0
  5 12  1  0  0  0  0
  6  7  1  0  0  0  0
  6  9  1  0  0  0  0
  6 16  1  0  0  0  0
  7 15  2  0  0  0  0
  8 11  1  0  0  0  0
  8 24  1  0  0  0  0
  8 25  1  0  0  0  0
  9 10  1  0  0  0  0
  9 26  1  0  0  0  0
  9 27  1  0  0  0  0
 11 13  2  0  0  0  0
 11 14  1  0  0  0  0
 12 28  1  0  0  0  0
 12 29  1  0  0  0  0
 12 30  1  0  0  0  0
 13 18  1  0  0  0  0
 13 31  1  0  0  0  0
 14 19  2  0  0  0  0
 14 32  1  0  0  0  0
 15 17  1  0  0  0  0
 17 21  2  0  0  0  0
 18 20  2  0  0  0  0
 18 33  1  0  0  0  0
 19 20  1  0  0  0  0
 19 34  1  0  0  0  0
 20 35  1  0  0  0  0
 21 22  1  0  0  0  0
 21 36  1  0  0  0  0
 22 23  2  0  0  0  0
 22 37  1  0  0  0  0
 23 38  1  0  0  0  0
M  END
> <PUBCHEM_COMPOUND_CID>
17395481

> <PUBCHEM_COMPOUND_CANONICALIZED>
1

> <PUBCHEM_CACTVS_COMPLEXITY>
491

> <PUBCHEM_CACTVS_HBOND_ACCEPTOR>
5

> <PUBCHEM_CACTVS_HBOND_DONOR>
0

> <PUBCHEM_CACTVS_ROTATABLE_BOND>
5

> <PUBCHEM_CACTVS_SUBSKEYS>
AAADccB7MABAAAAAAAAAAAAAAAAAASIAAAAwAAAAAAAAAAABwAAAHgQIAAAADADF2ASyCYMABAisAiFyGACTAIAgCBBaiBioDJgIZqKgsTmcMAhkzgGoqAeQgAAOAAAAAAAAAAAAAAAAAAAAAAAAAAAAAA==

> <PUBCHEM_IUPAC_OPENEYE_NAME>
N-benzyl-N-methyl-2-[2-oxo-5-(2-thienyl)-1,3,4-oxadiazol-3-yl]acetamide

> <PUBCHEM_IUPAC_CAS_NAME>
N-methyl-2-(2-oxo-5-thiophen-2-yl-1,3,4-oxadiazol-3-yl)-N-(phenylmethyl)acetamide

> <PUBCHEM_IUPAC_NAME>
N-benzyl-N-methyl-2-(2-oxo-5-thiophen-2-yl-1,3,4-oxadiazol-3-yl)acetamide

> <PUBCHEM_IUPAC_SYSTEMATIC_NAME>
N-methyl-2-(2-oxidanylidene-5-thiophen-2-yl-1,3,4-oxadiazol-3-yl)-N-(phenylmethyl)ethanamide

> <PUBCHEM_IUPAC_TRADITIONAL_NAME>
N-benzyl-2-[2-keto-5-(2-thienyl)-1,3,4-oxadiazol-3-yl]-N-methyl-acetamide

> <PUBCHEM_IUPAC_INCHI>
InChI=1S/C16H15N3O3S/c1-18(10-12-6-3-2-4-7-12)14(20)11-19-16(21)22-15(17-19)13-8-5-9-23-13/h2-9H,10-11H2,1H3

> <PUBCHEM_IUPAC_INCHIKEY>
NUAOEVXOVOYAIL-UHFFFAOYSA-N

> <PUBCHEM_XLOGP3_AA>
2.6

> <PUBCHEM_EXACT_MASS>
329.083412

> <PUBCHEM_MOLECULAR_FORMULA>
C16H15N3O3S

> <PUBCHEM_MOLECULAR_WEIGHT>
329.3736

> <PUBCHEM_OPENEYE_CAN_SMILES>
CN(CC1=CC=CC=C1)C(=O)CN2C(=O)OC(=N2)C3=CC=CS3

> <PUBCHEM_OPENEYE_ISO_SMILES>
CN(CC1=CC=CC=C1)C(=O)CN2C(=O)OC(=N2)C3=CC=CS3

> <PUBCHEM_CACTVS_TPSA>
90.4

> <PUBCHEM_MONOISOTOPIC_WEIGHT>
329.083412

> <PUBCHEM_TOTAL_CHARGE>
0

> <PUBCHEM_HEAVY_ATOM_COUNT>
23

> <PUBCHEM_ATOM_DEF_STEREO_COUNT>
0

> <PUBCHEM_ATOM_UDEF_STEREO_COUNT>
0

> <PUBCHEM_BOND_DEF_STEREO_COUNT>
0

> <PUBCHEM_BOND_UDEF_STEREO_COUNT>
0

> <PUBCHEM_ISOTOPIC_ATOM_COUNT>
0

> <PUBCHEM_COMPONENT_COUNT>
1

> <PUBCHEM_CACTVS_TAUTO_COUNT>
1

> <PUBCHEM_COORDINATE_TYPE>
1
5
255

> <PUBCHEM_BONDANNOTATIONS>
1  17  8
1  23  8
11  13  8
11  14  8
13  18  8
14  19  8
17  21  8
18  20  8
19  20  8
2  15  8
2  16  8
21  22  8
22  23  8
6  16  8
6  7  8
7  15  8

$$$$

