12581
  -OEChem-06261207073D

 19 19  0     0  0  0  0  0  0999 V2000
    4.4788   -0.0636    0.0584 N   0  0  0  0  0  0  0  0  0  0  0  0
    1.0199    0.0553    0.6420 C   0  0  0  0  0  0  0  0  0  0  0  0
   -0.4364    0.0216    0.3207 C   0  0  0  0  0  0  0  0  0  0  0  0
    1.9343    0.0719   -0.5951 C   0  0  0  0  0  0  0  0  0  0  0  0
   -1.1444    1.2135    0.1671 C   0  0  0  0  0  0  0  0  0  0  0  0
   -1.0901   -1.2017    0.1743 C   0  0  0  0  0  0  0  0  0  0  0  0
   -2.5064    1.1820   -0.1329 C   0  0  0  0  0  0  0  0  0  0  0  0
   -2.4519   -1.2333   -0.1259 C   0  0  0  0  0  0  0  0  0  0  0  0
   -3.1600   -0.0414   -0.2795 C   0  0  0  0  0  0  0  0  0  0  0  0
    3.3563   -0.0044   -0.2291 C   0  0  0  0  0  0  0  0  0  0  0  0
    1.2380    0.9298    1.2706 H   0  0  0  0  0  0  0  0  0  0  0  0
    1.2697   -0.8098    1.2722 H   0  0  0  0  0  0  0  0  0  0  0  0
    1.6869   -0.7723   -1.2503 H   0  0  0  0  0  0  0  0  0  0  0  0
    1.7522    0.9832   -1.1773 H   0  0  0  0  0  0  0  0  0  0  0  0
   -0.6461    2.1731    0.2767 H   0  0  0  0  0  0  0  0  0  0  0  0
   -0.5493   -2.1374    0.2895 H   0  0  0  0  0  0  0  0  0  0  0  0
   -3.0577    2.1100   -0.2531 H   0  0  0  0  0  0  0  0  0  0  0  0
   -2.9610   -2.1859   -0.2406 H   0  0  0  0  0  0  0  0  0  0  0  0
   -4.2203   -0.0659   -0.5134 H   0  0  0  0  0  0  0  0  0  0  0  0
  1 10  3  0  0  0  0
  2  3  1  0  0  0  0
  2  4  1  0  0  0  0
  2 11  1  0  0  0  0
  2 12  1  0  0  0  0
  3  5  2  0  0  0  0
  3  6  1  0  0  0  0
  4 10  1  0  0  0  0
  4 13  1  0  0  0  0
  4 14  1  0  0  0  0
  5  7  1  0  0  0  0
  5 15  1  0  0  0  0
  6  8  2  0  0  0  0
  6 16  1  0  0  0  0
  7  9  2  0  0  0  0
  7 17  1  0  0  0  0
  8  9  1  0  0  0  0
  8 18  1  0  0  0  0
  9 19  1  0  0  0  0
M  END
> <PUBCHEM_COMPOUND_CID>
12581

> <PUBCHEM_CONFORMER_RMSD>
0.4

> <PUBCHEM_CONFORMER_DIVERSEORDER>
1
6
5
2
3
4

> <PUBCHEM_MMFF94_PARTIAL_CHARGES>
15
1 -0.56
10 0.36
15 0.15
16 0.15
17 0.15
18 0.15
19 0.15
2 0.14
3 -0.14
4 0.2
5 -0.15
6 -0.15
7 -0.15
8 -0.15
9 -0.15

> <PUBCHEM_EFFECTIVE_ROTOR_COUNT>
2

> <PUBCHEM_PHARMACOPHORE_FEATURES>
2
1 1 acceptor
6 3 5 6 7 8 9 rings

> <PUBCHEM_HEAVY_ATOM_COUNT>
10

> <PUBCHEM_ATOM_DEF_STEREO_COUNT>
0

> <PUBCHEM_ATOM_UDEF_STEREO_COUNT>
0

> <PUBCHEM_BOND_DEF_STEREO_COUNT>
0

> <PUBCHEM_BOND_UDEF_STEREO_COUNT>
0

> <PUBCHEM_ISOTOPIC_ATOM_COUNT>
0

> <PUBCHEM_COMPONENT_COUNT>
1

> <PUBCHEM_CACTVS_TAUTO_COUNT>
1

> <PUBCHEM_CONFORMER_ID>
0000312500000001

> <PUBCHEM_MMFF94_ENERGY>
18.3973

> <PUBCHEM_FEATURE_SELFOVERLAP>
10.148

> <PUBCHEM_SHAPE_FINGERPRINT>
11062470 55 17603302661313753392
13024252 1 17632574942474451859
14325111 11 18411418440478696038
14911166 2 18410304601240973549
15775835 57 18060138790213964917
20201158 50 17894909637568993814
20279233 1 17676483956335573454
21061003 4 16877938308929827234
21119208 17 18060703892040752358
23402539 116 18335711558573817453
23552423 10 18200315390437394569
23559900 14 18261115210153031802
6333449 129 18334577949248001469

> <PUBCHEM_SHAPE_MULTIPOLES>
200.81
6.36
1.21
0.72
6.86
0.01
-0.01
0.11
0.72
-1.04
-0.01
0.06
0
-0.01

> <PUBCHEM_SHAPE_SELFOVERLAP>
407.007

> <PUBCHEM_SHAPE_VOLUME>
115

> <PUBCHEM_COORDINATE_TYPE>
2
5
10

$$$$

