12643
  -OEChem-06261207112D

 35 35  0     0  0  0  0  0  0999 V2000
    3.4030   -1.0000    0.0000 O   0  0  0  0  0  0  0  0  0  0  0  0
    4.2690   -2.5000    0.0000 O   0  0  0  0  0  0  0  0  0  0  0  0
    2.5369   -2.5000    0.0000 N   0  0  0  0  0  0  0  0  0  0  0  0
    5.1350    2.0000    0.0000 C   0  0  0  0  0  0  0  0  0  0  0  0
    6.0010    2.5000    0.0000 C   0  0  0  0  0  0  0  0  0  0  0  0
    4.2690    2.5000    0.0000 C   0  0  0  0  0  0  0  0  0  0  0  0
    5.1350    1.0000    0.0000 C   0  0  0  0  0  0  0  0  0  0  0  0
    6.0010    3.5000    0.0000 C   0  0  0  0  0  0  0  0  0  0  0  0
    4.2690    3.5000    0.0000 C   0  0  0  0  0  0  0  0  0  0  0  0
    4.2690    0.5000    0.0000 C   0  0  0  0  0  0  0  0  0  0  0  0
    6.0010    0.5000    0.0000 C   0  0  0  0  0  0  0  0  0  0  0  0
    4.2690   -0.5000    0.0000 C   0  0  0  0  0  0  0  0  0  0  0  0
    6.0010   -0.5000    0.0000 C   0  0  0  0  0  0  0  0  0  0  0  0
    5.1350   -1.0000    0.0000 C   0  0  0  0  0  0  0  0  0  0  0  0
    3.4030   -2.0000    0.0000 C   0  0  0  0  0  0  0  0  0  0  0  0
    2.5369   -3.5000    0.0000 C   0  0  0  0  0  0  0  0  0  0  0  0
    5.1350    2.6200    0.0000 H   0  0  0  0  0  0  0  0  0  0  0  0
    6.2131    1.9174    0.0000 H   0  0  0  0  0  0  0  0  0  0  0  0
    6.6116    2.6077    0.0000 H   0  0  0  0  0  0  0  0  0  0  0  0
    3.6584    2.6077    0.0000 H   0  0  0  0  0  0  0  0  0  0  0  0
    4.0569    1.9174    0.0000 H   0  0  0  0  0  0  0  0  0  0  0  0
    4.8890    3.5000    0.0000 H   0  0  0  0  0  0  0  0  0  0  0  0
    6.6210    3.5000    0.0000 H   0  0  0  0  0  0  0  0  0  0  0  0
    6.0010    4.1200    0.0000 H   0  0  0  0  0  0  0  0  0  0  0  0
    5.3810    3.5000    0.0000 H   0  0  0  0  0  0  0  0  0  0  0  0
    4.2690    4.1200    0.0000 H   0  0  0  0  0  0  0  0  0  0  0  0
    3.6490    3.5000    0.0000 H   0  0  0  0  0  0  0  0  0  0  0  0
    3.7320    0.8100    0.0000 H   0  0  0  0  0  0  0  0  0  0  0  0
    6.5380    0.8100    0.0000 H   0  0  0  0  0  0  0  0  0  0  0  0
    6.5380   -0.8100    0.0000 H   0  0  0  0  0  0  0  0  0  0  0  0
    5.1350   -1.6200    0.0000 H   0  0  0  0  0  0  0  0  0  0  0  0
    2.0000   -2.1900    0.0000 H   0  0  0  0  0  0  0  0  0  0  0  0
    1.9169   -3.5000    0.0000 H   0  0  0  0  0  0  0  0  0  0  0  0
    2.5369   -4.1200    0.0000 H   0  0  0  0  0  0  0  0  0  0  0  0
    3.1569   -3.5000    0.0000 H   0  0  0  0  0  0  0  0  0  0  0  0
  1 12  1  0  0  0  0
  1 15  1  0  0  0  0
  2 15  2  0  0  0  0
  3 15  1  0  0  0  0
  3 16  1  0  0  0  0
  3 32  1  0  0  0  0
  4  5  1  0  0  0  0
  4  6  1  0  0  0  0
  4  7  1  0  0  0  0
  4 17  1  0  0  0  0
  5  8  1  0  0  0  0
  5 18  1  0  0  0  0
  5 19  1  0  0  0  0
  6  9  1  0  0  0  0
  6 20  1  0  0  0  0
  6 21  1  0  0  0  0
  7 10  2  0  0  0  0
  7 11  1  0  0  0  0
  8 23  1  0  0  0  0
  8 24  1  0  0  0  0
  8 25  1  0  0  0  0
  9 22  1  0  0  0  0
  9 26  1  0  0  0  0
  9 27  1  0  0  0  0
 10 12  1  0  0  0  0
 10 28  1  0  0  0  0
 11 13  2  0  0  0  0
 11 29  1  0  0  0  0
 12 14  2  0  0  0  0
 13 14  1  0  0  0  0
 13 30  1  0  0  0  0
 14 31  1  0  0  0  0
 16 33  1  0  0  0  0
 16 34  1  0  0  0  0
 16 35  1  0  0  0  0
M  END
> <PUBCHEM_COMPOUND_CID>
12643

> <PUBCHEM_COMPOUND_CANONICALIZED>
1

> <PUBCHEM_CACTVS_COMPLEXITY>
214

> <PUBCHEM_CACTVS_HBOND_ACCEPTOR>
2

> <PUBCHEM_CACTVS_HBOND_DONOR>
1

> <PUBCHEM_CACTVS_ROTATABLE_BOND>
5

> <PUBCHEM_CACTVS_SUBSKEYS>
AAADceByMAAAAAAAAAAAAAAAAAAAAAAAAAAwAAAAAAAAAAABAAAAHgAQAAAADQSAmAQyDoLABACIAiBCGAACCAAgIAAIiIAOCIkMJiKEMRqIMiAkwhEIqAeAwPAOgAABAAAAAAAAAAIAAAAAAAAAAAAAAA==

> <PUBCHEM_IUPAC_OPENEYE_NAME>
[3-(1-ethylpropyl)phenyl] N-methylcarbamate

> <PUBCHEM_IUPAC_CAS_NAME>
N-methylcarbamic acid (3-pentan-3-ylphenyl) ester

> <PUBCHEM_IUPAC_NAME>
(3-pentan-3-ylphenyl) N-methylcarbamate

> <PUBCHEM_IUPAC_SYSTEMATIC_NAME>
(3-pentan-3-ylphenyl) N-methylcarbamate

> <PUBCHEM_IUPAC_TRADITIONAL_NAME>
N-methylcarbamic acid [3-(1-ethylpropyl)phenyl] ester

> <PUBCHEM_IUPAC_INCHI>
InChI=1S/C13H19NO2/c1-4-10(5-2)11-7-6-8-12(9-11)16-13(15)14-3/h6-10H,4-5H2,1-3H3,(H,14,15)

> <PUBCHEM_IUPAC_INCHIKEY>
SMSFWBAOKCZZBF-UHFFFAOYSA-N

> <PUBCHEM_XLOGP3>
3.7

> <PUBCHEM_EXACT_MASS>
221.141579

> <PUBCHEM_MOLECULAR_FORMULA>
C13H19NO2

> <PUBCHEM_MOLECULAR_WEIGHT>
221.29546

> <PUBCHEM_OPENEYE_CAN_SMILES>
CCC(CC)C1=CC(=CC=C1)OC(=O)NC

> <PUBCHEM_OPENEYE_ISO_SMILES>
CCC(CC)C1=CC(=CC=C1)OC(=O)NC

> <PUBCHEM_CACTVS_TPSA>
38.3

> <PUBCHEM_MONOISOTOPIC_WEIGHT>
221.141579

> <PUBCHEM_TOTAL_CHARGE>
0

> <PUBCHEM_HEAVY_ATOM_COUNT>
16

> <PUBCHEM_ATOM_DEF_STEREO_COUNT>
0

> <PUBCHEM_ATOM_UDEF_STEREO_COUNT>
0

> <PUBCHEM_BOND_DEF_STEREO_COUNT>
0

> <PUBCHEM_BOND_UDEF_STEREO_COUNT>
0

> <PUBCHEM_ISOTOPIC_ATOM_COUNT>
0

> <PUBCHEM_COMPONENT_COUNT>
1

> <PUBCHEM_CACTVS_TAUTO_COUNT>
2

> <PUBCHEM_COORDINATE_TYPE>
1
5
255

> <PUBCHEM_BONDANNOTATIONS>
10  12  8
11  13  8
12  14  8
13  14  8
7  10  8
7  11  8

$$$$

