17396368
  -OEChem-06241222563D

 36 37  0     0  0  0  0  0  0999 V2000
   -3.9073   -1.4456    1.7454 F   0  0  0  0  0  0  0  0  0  0  0  0
   -3.4370   -3.2328    0.5789 F   0  0  0  0  0  0  0  0  0  0  0  0
   -5.4171   -2.3270    0.3934 F   0  0  0  0  0  0  0  0  0  0  0  0
    2.4039    0.3668   -1.0288 O   0  0  0  0  0  0  0  0  0  0  0  0
   -3.6053   -1.2672   -0.5142 O   0  0  0  0  0  0  0  0  0  0  0  0
    0.3630    1.9397   -0.6327 O   0  0  0  0  0  0  0  0  0  0  0  0
    4.4926    2.3976    0.6760 O   0  5  0  0  0  0  0  0  0  0  0  0
    3.2501    1.2884    2.1058 O   0  0  0  0  0  0  0  0  0  0  0  0
   -1.1992    0.1759   -0.6351 N   0  0  0  0  0  0  0  0  0  0  0  0
    4.0020    1.3260    1.1034 N   0  3  0  0  0  0  0  0  0  0  0  0
   -2.4221    0.8188   -0.4293 C   0  0  0  0  0  0  0  0  0  0  0  0
   -3.6090    0.0884   -0.3717 C   0  0  0  0  0  0  0  0  0  0  0  0
    1.1538   -0.2863   -0.9497 C   0  0  0  0  0  0  0  0  0  0  0  0
    3.5084   -0.3421   -0.6203 C   0  0  0  0  0  0  0  0  0  0  0  0
    0.0752    0.7497   -0.7191 C   0  0  0  0  0  0  0  0  0  0  0  0
   -2.4486    2.2056   -0.2808 C   0  0  0  0  0  0  0  0  0  0  0  0
    4.3085    0.1124    0.4281 C   0  0  0  0  0  0  0  0  0  0  0  0
   -4.8225    0.7449   -0.1656 C   0  0  0  0  0  0  0  0  0  0  0  0
   -3.6622    2.8619   -0.0748 C   0  0  0  0  0  0  0  0  0  0  0  0
    3.8239   -1.5345   -1.2720 C   0  0  0  0  0  0  0  0  0  0  0  0
   -4.8490    2.1315   -0.0173 C   0  0  0  0  0  0  0  0  0  0  0  0
    5.4239   -0.6254    0.8246 C   0  0  0  0  0  0  0  0  0  0  0  0
    4.9393   -2.2723   -0.8752 C   0  0  0  0  0  0  0  0  0  0  0  0
    5.7392   -1.8177    0.1729 C   0  0  0  0  0  0  0  0  0  0  0  0
   -4.1048   -2.0568    0.5581 C   0  0  0  0  0  0  0  0  0  0  0  0
    0.9501   -0.8054   -1.8927 H   0  0  0  0  0  0  0  0  0  0  0  0
    1.1246   -1.0027   -0.1190 H   0  0  0  0  0  0  0  0  0  0  0  0
   -1.2546   -0.8358   -0.7339 H   0  0  0  0  0  0  0  0  0  0  0  0
   -1.5766    2.8428   -0.3120 H   0  0  0  0  0  0  0  0  0  0  0  0
   -5.7563    0.1908   -0.1262 H   0  0  0  0  0  0  0  0  0  0  0  0
   -3.6845    3.9418    0.0407 H   0  0  0  0  0  0  0  0  0  0  0  0
    3.2151   -1.8973   -2.0956 H   0  0  0  0  0  0  0  0  0  0  0  0
   -5.7939    2.6429    0.1413 H   0  0  0  0  0  0  0  0  0  0  0  0
    6.0569   -0.2836    1.6399 H   0  0  0  0  0  0  0  0  0  0  0  0
    5.1860   -3.1998   -1.3838 H   0  0  0  0  0  0  0  0  0  0  0  0
    6.6080   -2.3920    0.4814 H   0  0  0  0  0  0  0  0  0  0  0  0
  1 25  1  0  0  0  0
  2 25  1  0  0  0  0
  3 25  1  0  0  0  0
  4 13  1  0  0  0  0
  4 14  1  0  0  0  0
  5 12  1  0  0  0  0
  5 25  1  0  0  0  0
  6 15  2  0  0  0  0
  7 10  1  0  0  0  0
  8 10  2  0  0  0  0
  9 11  1  0  0  0  0
  9 15  1  0  0  0  0
  9 28  1  0  0  0  0
 10 17  1  0  0  0  0
 11 12  1  0  0  0  0
 11 16  2  0  0  0  0
 12 18  2  0  0  0  0
 13 15  1  0  0  0  0
 13 26  1  0  0  0  0
 13 27  1  0  0  0  0
 14 17  1  0  0  0  0
 14 20  2  0  0  0  0
 16 19  1  0  0  0  0
 16 29  1  0  0  0  0
 17 22  2  0  0  0  0
 18 21  1  0  0  0  0
 18 30  1  0  0  0  0
 19 21  2  0  0  0  0
 19 31  1  0  0  0  0
 20 23  1  0  0  0  0
 20 32  1  0  0  0  0
 21 33  1  0  0  0  0
 22 24  1  0  0  0  0
 22 34  1  0  0  0  0
 23 24  2  0  0  0  0
 23 35  1  0  0  0  0
 24 36  1  0  0  0  0
M  CHG  2   7  -1  10   1
M  END
> <PUBCHEM_COMPOUND_CID>
17396368

> <PUBCHEM_CONFORMER_RMSD>
1

> <PUBCHEM_CONFORMER_DIVERSEORDER>
1
139
70
69
62
78
50
133
91
24
142
97
31
37
89
147
67
144
73
2
4
76
43
85
12
112
103
14
8
107
95
132
143
125
106
42
127
60
41
83
7
45
84
54
145
121
21
39
29
13
134
64
35
74
58
148
79
36
116
86
105
68
52
81
138
16
5
93
113
15
40
149
25
61
30
104
75
119
151
88
6
101
114
26
23
71
111
82
17
126
98
72
108
3
122
117
87
34
118
20
110
59
51
124
115
57
123
130
18
137
22
99
66
150
131
48
56
63
94
53
47
65
9
140
33
146
141
55
109
80
19
100
120
46
77
49
10
11
129
102
90
136
32
27
96
44
135
28
128
92
38

> <PUBCHEM_MMFF94_PARTIAL_CHARGES>
34
1 -0.34
10 0.91
11 0.12
12 0.08
13 0.34
14 0.08
15 0.57
16 -0.15
17 0.13
18 -0.15
19 -0.15
2 -0.34
20 -0.15
21 -0.15
22 -0.15
23 -0.15
24 -0.15
25 1.3
28 0.37
29 0.15
3 -0.34
30 0.15
31 0.15
32 0.15
33 0.15
34 0.15
35 0.15
36 0.15
4 -0.36
5 -0.36
6 -0.57
7 -0.52
8 -0.52
9 -0.55

> <PUBCHEM_EFFECTIVE_ROTOR_COUNT>
8

> <PUBCHEM_PHARMACOPHORE_FEATURES>
9
1 4 acceptor
1 5 acceptor
1 6 acceptor
1 7 acceptor
1 7 anion
1 8 acceptor
1 9 donor
6 11 12 16 18 19 21 rings
6 14 17 20 22 23 24 rings

> <PUBCHEM_HEAVY_ATOM_COUNT>
25

> <PUBCHEM_ATOM_DEF_STEREO_COUNT>
0

> <PUBCHEM_ATOM_UDEF_STEREO_COUNT>
0

> <PUBCHEM_BOND_DEF_STEREO_COUNT>
0

> <PUBCHEM_BOND_UDEF_STEREO_COUNT>
0

> <PUBCHEM_ISOTOPIC_ATOM_COUNT>
0

> <PUBCHEM_COMPONENT_COUNT>
1

> <PUBCHEM_CACTVS_TAUTO_COUNT>
2

> <PUBCHEM_CONFORMER_ID>
0109729000000001

> <PUBCHEM_MMFF94_ENERGY>
87.5162

> <PUBCHEM_FEATURE_SELFOVERLAP>
45.762

> <PUBCHEM_SHAPE_FINGERPRINT>
10319926 262 18337120050459870192
11045977 3 18261677068446418132
11370993 144 17967805098301295281
11405975 8 18335137639300354000
11545043 162 18410012160753813594
11796584 16 18268711782938875998
12553582 1 15913325814579819028
12616971 3 17060047181538468188
13583140 156 18040439905588825908
13675066 3 18333732433322434212
14251751 18 18411417328246060722
14341114 176 18187928438768782864
14420673 8 18266457801049825918
14844126 61 18413387623292700891
14950920 106 17604142653695672867
15042514 8 18342448245691670805
15188451 53 18272097075560281047
15348495 7 18407478868572701440
15537594 2 17131833217578970977
17349148 13 16773795909115817026
17492 89 18270112405806558711
17844677 252 18408599258210550388
1813 80 17346599690167443244
21033648 29 17894927238260518624
21065198 57 18335140929350765540
21065199 12 18334579027337748276
21065201 7 18342744052061735468
21133410 52 16459115350850648054
22122407 14 16443346498661460585
23559900 14 18409731793984491716
312425 54 18341619264851843488
3383291 50 18343579630361947883
351380 3 16558463183987445868
4015057 19 17968960655132123997
4073 2 18412824707450779506
484985 159 16916487191828467331
5104073 3 18334856125605680096
5364581 5 18335994060296158016
559249 180 18131632326940571439
5924683 9 18408324367835579151
7495541 125 18409729582603419708
8863177 126 18409445921336030702
960060 61 14261356847234805518

> <PUBCHEM_SHAPE_MULTIPOLES>
453.36
15.18
3.12
1.21
5.24
0.78
-0.36
4.21
-2.49
-3.02
-0.66
0.89
0.05
2.41

> <PUBCHEM_SHAPE_SELFOVERLAP>
969.632

> <PUBCHEM_SHAPE_VOLUME>
250.5

> <PUBCHEM_COORDINATE_TYPE>
2
5
10

$$$$

