5475
  -OEChem-06261200422D

 64 66  0     0  0  0  0  0  0999 V2000
    5.9706    0.5248    0.0000 O   0  0  0  0  0  0  0  0  0  0  0  0
   12.9800    0.5248    0.0000 O   0  0  0  0  0  0  0  0  0  0  0  0
    9.4754    2.4374    0.0000 O   0  0  0  0  0  0  0  0  0  0  0  0
    3.6493   -0.7446    0.0000 N   0  0  0  0  0  0  0  0  0  0  0  0
   15.3014   -0.7446    0.0000 N   0  0  0  0  0  0  0  0  0  0  0  0
    9.9754   -0.1015    0.0000 C   0  0  0  0  0  0  0  0  0  0  0  0
    8.9754   -0.1015    0.0000 C   0  0  0  0  0  0  0  0  0  0  0  0
    8.6663    0.8496    0.0000 C   0  0  0  0  0  0  0  0  0  0  0  0
   10.2844    0.8496    0.0000 C   0  0  0  0  0  0  0  0  0  0  0  0
    9.4754    1.4374    0.0000 C   0  0  0  0  0  0  0  0  0  0  0  0
    4.3213   -0.0040    0.0000 C   0  0  0  0  0  0  0  0  0  0  0  0
   14.6294   -0.0040    0.0000 C   0  0  0  0  0  0  0  0  0  0  0  0
    7.6509    1.0819    0.0000 C   0  0  0  0  0  0  0  0  0  0  0  0
   11.2998    1.0819    0.0000 C   0  0  0  0  0  0  0  0  0  0  0  0
    8.2904   -0.8862    0.0000 C   0  0  0  0  0  0  0  0  0  0  0  0
   10.6603   -0.8862    0.0000 C   0  0  0  0  0  0  0  0  0  0  0  0
    6.9480    0.3132    0.0000 C   0  0  0  0  0  0  0  0  0  0  0  0
   12.0027    0.3132    0.0000 C   0  0  0  0  0  0  0  0  0  0  0  0
    5.2987   -0.2157    0.0000 C   0  0  0  0  0  0  0  0  0  0  0  0
   13.6520   -0.2157    0.0000 C   0  0  0  0  0  0  0  0  0  0  0  0
    2.6720   -0.5329    0.0000 C   0  0  0  0  0  0  0  0  0  0  0  0
    3.9547   -1.6968    0.0000 C   0  0  0  0  0  0  0  0  0  0  0  0
   16.2787   -0.5329    0.0000 C   0  0  0  0  0  0  0  0  0  0  0  0
   14.9960   -1.6968    0.0000 C   0  0  0  0  0  0  0  0  0  0  0  0
    7.2699   -0.6775    0.0000 C   0  0  0  0  0  0  0  0  0  0  0  0
   11.6808   -0.6775    0.0000 C   0  0  0  0  0  0  0  0  0  0  0  0
   15.6680   -2.4374    0.0000 C   0  0  0  0  0  0  0  0  0  0  0  0
   16.9507   -1.2735    0.0000 C   0  0  0  0  0  0  0  0  0  0  0  0
    3.2827   -2.4374    0.0000 C   0  0  0  0  0  0  0  0  0  0  0  0
    2.0000   -1.2735    0.0000 C   0  0  0  0  0  0  0  0  0  0  0  0
    4.5558    0.5699    0.0000 H   0  0  0  0  0  0  0  0  0  0  0  0
    3.7968    0.3265    0.0000 H   0  0  0  0  0  0  0  0  0  0  0  0
   15.1539    0.3265    0.0000 H   0  0  0  0  0  0  0  0  0  0  0  0
   14.3949    0.5699    0.0000 H   0  0  0  0  0  0  0  0  0  0  0  0
    7.4662    1.6737    0.0000 H   0  0  0  0  0  0  0  0  0  0  0  0
   11.4845    1.6737    0.0000 H   0  0  0  0  0  0  0  0  0  0  0  0
    8.4888   -1.4736    0.0000 H   0  0  0  0  0  0  0  0  0  0  0  0
   10.4619   -1.4736    0.0000 H   0  0  0  0  0  0  0  0  0  0  0  0
    5.0642   -0.7897    0.0000 H   0  0  0  0  0  0  0  0  0  0  0  0
    5.8232   -0.5463    0.0000 H   0  0  0  0  0  0  0  0  0  0  0  0
   13.1275   -0.5463    0.0000 H   0  0  0  0  0  0  0  0  0  0  0  0
   13.8865   -0.7897    0.0000 H   0  0  0  0  0  0  0  0  0  0  0  0
   14.4475   -1.4079    0.0000 H   0  0  0  0  0  0  0  0  0  0  0  0
   14.6162   -2.1869    0.0000 H   0  0  0  0  0  0  0  0  0  0  0  0
   16.8032   -0.2023    0.0000 H   0  0  0  0  0  0  0  0  0  0  0  0
   16.0442    0.0410    0.0000 H   0  0  0  0  0  0  0  0  0  0  0  0
    4.3345   -2.1869    0.0000 H   0  0  0  0  0  0  0  0  0  0  0  0
    4.5032   -1.4079    0.0000 H   0  0  0  0  0  0  0  0  0  0  0  0
    2.9065    0.0410    0.0000 H   0  0  0  0  0  0  0  0  0  0  0  0
    2.1475   -0.2023    0.0000 H   0  0  0  0  0  0  0  0  0  0  0  0
    6.8568   -1.1398    0.0000 H   0  0  0  0  0  0  0  0  0  0  0  0
   12.0939   -1.1398    0.0000 H   0  0  0  0  0  0  0  0  0  0  0  0
   15.2089   -2.8540    0.0000 H   0  0  0  0  0  0  0  0  0  0  0  0
   16.0846   -2.8965    0.0000 H   0  0  0  0  0  0  0  0  0  0  0  0
   16.1272   -2.0208    0.0000 H   0  0  0  0  0  0  0  0  0  0  0  0
   16.4915   -1.6901    0.0000 H   0  0  0  0  0  0  0  0  0  0  0  0
   17.3673   -1.7326    0.0000 H   0  0  0  0  0  0  0  0  0  0  0  0
   17.4098   -0.8568    0.0000 H   0  0  0  0  0  0  0  0  0  0  0  0
    2.8235   -2.0208    0.0000 H   0  0  0  0  0  0  0  0  0  0  0  0
    2.8660   -2.8965    0.0000 H   0  0  0  0  0  0  0  0  0  0  0  0
    3.7418   -2.8540    0.0000 H   0  0  0  0  0  0  0  0  0  0  0  0
    1.5408   -0.8568    0.0000 H   0  0  0  0  0  0  0  0  0  0  0  0
    1.5834   -1.7326    0.0000 H   0  0  0  0  0  0  0  0  0  0  0  0
    2.4592   -1.6901    0.0000 H   0  0  0  0  0  0  0  0  0  0  0  0
  1 17  1  0  0  0  0
  1 19  1  0  0  0  0
  2 18  1  0  0  0  0
  2 20  1  0  0  0  0
  3 10  2  0  0  0  0
  4 11  1  0  0  0  0
  4 21  1  0  0  0  0
  4 22  1  0  0  0  0
  5 12  1  0  0  0  0
  5 23  1  0  0  0  0
  5 24  1  0  0  0  0
  6  7  1  0  0  0  0
  6  9  2  0  0  0  0
  6 16  1  0  0  0  0
  7  8  2  0  0  0  0
  7 15  1  0  0  0  0
  8 10  1  0  0  0  0
  8 13  1  0  0  0  0
  9 10  1  0  0  0  0
  9 14  1  0  0  0  0
 11 19  1  0  0  0  0
 11 31  1  0  0  0  0
 11 32  1  0  0  0  0
 12 20  1  0  0  0  0
 12 33  1  0  0  0  0
 12 34  1  0  0  0  0
 13 17  2  0  0  0  0
 13 35  1  0  0  0  0
 14 18  2  0  0  0  0
 14 36  1  0  0  0  0
 15 25  2  0  0  0  0
 15 37  1  0  0  0  0
 16 26  2  0  0  0  0
 16 38  1  0  0  0  0
 17 25  1  0  0  0  0
 18 26  1  0  0  0  0
 19 39  1  0  0  0  0
 19 40  1  0  0  0  0
 20 41  1  0  0  0  0
 20 42  1  0  0  0  0
 21 30  1  0  0  0  0
 21 49  1  0  0  0  0
 21 50  1  0  0  0  0
 22 29  1  0  0  0  0
 22 47  1  0  0  0  0
 22 48  1  0  0  0  0
 23 28  1  0  0  0  0
 23 45  1  0  0  0  0
 23 46  1  0  0  0  0
 24 27  1  0  0  0  0
 24 43  1  0  0  0  0
 24 44  1  0  0  0  0
 25 51  1  0  0  0  0
 26 52  1  0  0  0  0
 27 53  1  0  0  0  0
 27 54  1  0  0  0  0
 27 55  1  0  0  0  0
 28 56  1  0  0  0  0
 28 57  1  0  0  0  0
 28 58  1  0  0  0  0
 29 59  1  0  0  0  0
 29 60  1  0  0  0  0
 29 61  1  0  0  0  0
 30 62  1  0  0  0  0
 30 63  1  0  0  0  0
 30 64  1  0  0  0  0
M  END
> <PUBCHEM_COMPOUND_CID>
5475

> <PUBCHEM_COMPOUND_CANONICALIZED>
1

> <PUBCHEM_CACTVS_COMPLEXITY>
477

> <PUBCHEM_CACTVS_HBOND_ACCEPTOR>
5

> <PUBCHEM_CACTVS_HBOND_DONOR>
0

> <PUBCHEM_CACTVS_ROTATABLE_BOND>
12

> <PUBCHEM_CACTVS_SUBSKEYS>
AAADcfB7MAAAAAAAAAAAAAAAAAAAAYAAAAAwYAAAAAAAAGABQAAAHgAAAAAADAThmAYyBoMABACIAqBSAAACCAAkIAAIiAEOCMgOJjKENRqDOSCkwBGYqYeKyPCOoAABAAAQAABAAAIAACAAAQAACAAAAA==

> <PUBCHEM_IUPAC_OPENEYE_NAME>
2,7-bis[2-(diethylamino)ethoxy]fluoren-9-one

> <PUBCHEM_IUPAC_CAS_NAME>
2,7-bis[2-(diethylamino)ethoxy]-9-fluorenone

> <PUBCHEM_IUPAC_NAME>
2,7-bis[2-(diethylamino)ethoxy]fluoren-9-one

> <PUBCHEM_IUPAC_SYSTEMATIC_NAME>
2,7-bis[2-(diethylamino)ethoxy]fluoren-9-one

> <PUBCHEM_IUPAC_TRADITIONAL_NAME>
2,7-bis[2-(diethylamino)ethoxy]fluoren-9-one

> <PUBCHEM_IUPAC_INCHI>
InChI=1S/C25H34N2O3/c1-5-26(6-2)13-15-29-19-9-11-21-22-12-10-20(30-16-14-27(7-3)8-4)18-24(22)25(28)23(21)17-19/h9-12,17-18H,5-8,13-16H2,1-4H3

> <PUBCHEM_IUPAC_INCHIKEY>
MPMFCABZENCRHV-UHFFFAOYSA-N

> <PUBCHEM_XLOGP3>
4.7

> <PUBCHEM_EXACT_MASS>
410.256943

> <PUBCHEM_MOLECULAR_FORMULA>
C25H34N2O3

> <PUBCHEM_MOLECULAR_WEIGHT>
410.54906

> <PUBCHEM_OPENEYE_CAN_SMILES>
CCN(CC)CCOC1=CC2=C(C=C1)C3=C(C2=O)C=C(C=C3)OCCN(CC)CC

> <PUBCHEM_OPENEYE_ISO_SMILES>
CCN(CC)CCOC1=CC2=C(C=C1)C3=C(C2=O)C=C(C=C3)OCCN(CC)CC

> <PUBCHEM_CACTVS_TPSA>
42

> <PUBCHEM_MONOISOTOPIC_WEIGHT>
410.256943

> <PUBCHEM_TOTAL_CHARGE>
0

> <PUBCHEM_HEAVY_ATOM_COUNT>
30

> <PUBCHEM_ATOM_DEF_STEREO_COUNT>
0

> <PUBCHEM_ATOM_UDEF_STEREO_COUNT>
0

> <PUBCHEM_BOND_DEF_STEREO_COUNT>
0

> <PUBCHEM_BOND_UDEF_STEREO_COUNT>
0

> <PUBCHEM_ISOTOPIC_ATOM_COUNT>
0

> <PUBCHEM_COMPONENT_COUNT>
1

> <PUBCHEM_CACTVS_TAUTO_COUNT>
1

> <PUBCHEM_COORDINATE_TYPE>
1
5
255

> <PUBCHEM_BONDANNOTATIONS>
13  17  8
14  18  8
15  25  8
16  26  8
17  25  8
18  26  8
6  16  8
6  9  8
7  15  8
7  8  8
8  13  8
9  14  8

$$$$

