5163
  -OEChem-06261200333D

 38 41  0     0  0  0  0  0  0999 V2000
   -1.2925   -1.2689    0.0006 O   0  0  0  0  0  0  0  0  0  0  0  0
   -0.2321    0.7970    0.0030 N   0  0  0  0  0  0  0  0  0  0  0  0
    5.1520   -0.4251   -0.0019 N   0  0  0  0  0  0  0  0  0  0  0  0
   -2.5711    0.6705    0.0049 N   0  0  0  0  0  0  0  0  0  0  0  0
   -5.3425   -1.7746   -0.0059 N   0  0  0  0  0  0  0  0  0  0  0  0
    1.9713    1.4663   -0.0013 C   0  0  0  0  0  0  0  0  0  0  0  0
    1.2141    2.7549   -0.0048 C   0  0  0  0  0  0  0  0  0  0  0  0
    1.1156    0.3646    0.0018 C   0  0  0  0  0  0  0  0  0  0  0  0
   -0.2394    2.2776    0.0048 C   0  0  0  0  0  0  0  0  0  0  0  0
    3.8512    0.0276   -0.0010 C   0  0  0  0  0  0  0  0  0  0  0  0
    3.3565    1.3365   -0.0032 C   0  0  0  0  0  0  0  0  0  0  0  0
    3.0237   -1.1011    0.0023 C   0  0  0  0  0  0  0  0  0  0  0  0
    1.6190   -0.9346    0.0036 C   0  0  0  0  0  0  0  0  0  0  0  0
    3.8774   -2.2412    0.0036 C   0  0  0  0  0  0  0  0  0  0  0  0
   -1.3637   -0.0400    0.0020 C   0  0  0  0  0  0  0  0  0  0  0  0
    5.1779   -1.7934    0.0011 C   0  0  0  0  0  0  0  0  0  0  0  0
    6.3325    0.4120   -0.0064 C   0  0  0  0  0  0  0  0  0  0  0  0
   -3.8898    0.1502    0.0021 C   0  0  0  0  0  0  0  0  0  0  0  0
   -4.9872    0.9980    0.0028 C   0  0  0  0  0  0  0  0  0  0  0  0
   -4.1125   -1.2136   -0.0022 C   0  0  0  0  0  0  0  0  0  0  0  0
   -6.2688    0.4586   -0.0008 C   0  0  0  0  0  0  0  0  0  0  0  0
   -6.3915   -0.9215   -0.0051 C   0  0  0  0  0  0  0  0  0  0  0  0
    1.4310    3.3400   -0.9038 H   0  0  0  0  0  0  0  0  0  0  0  0
    1.4394    3.3515    0.8846 H   0  0  0  0  0  0  0  0  0  0  0  0
   -0.7810    2.6331   -0.8792 H   0  0  0  0  0  0  0  0  0  0  0  0
   -0.7683    2.6292    0.8981 H   0  0  0  0  0  0  0  0  0  0  0  0
    4.0104    2.2008   -0.0061 H   0  0  0  0  0  0  0  0  0  0  0  0
    0.9861   -1.8125    0.0065 H   0  0  0  0  0  0  0  0  0  0  0  0
    3.5724   -3.2787    0.0061 H   0  0  0  0  0  0  0  0  0  0  0  0
    6.1118   -2.3392    0.0010 H   0  0  0  0  0  0  0  0  0  0  0  0
    6.3172    1.0347    0.8917 H   0  0  0  0  0  0  0  0  0  0  0  0
    7.2278   -0.2149   -0.0066 H   0  0  0  0  0  0  0  0  0  0  0  0
    6.3136    1.0299   -0.9078 H   0  0  0  0  0  0  0  0  0  0  0  0
   -2.5271    1.6844    0.0084 H   0  0  0  0  0  0  0  0  0  0  0  0
   -4.8609    2.0772    0.0059 H   0  0  0  0  0  0  0  0  0  0  0  0
   -3.3398   -1.9674   -0.0032 H   0  0  0  0  0  0  0  0  0  0  0  0
   -7.1440    1.0982   -0.0004 H   0  0  0  0  0  0  0  0  0  0  0  0
   -7.3691   -1.3921   -0.0081 H   0  0  0  0  0  0  0  0  0  0  0  0
  1 15  2  0  0  0  0
  2  8  1  0  0  0  0
  2  9  1  0  0  0  0
  2 15  1  0  0  0  0
  3 10  1  0  0  0  0
  3 16  1  0  0  0  0
  3 17  1  0  0  0  0
  4 15  1  0  0  0  0
  4 18  1  0  0  0  0
  4 34  1  0  0  0  0
  5 20  1  0  0  0  0
  5 22  2  0  0  0  0
  6  7  1  0  0  0  0
  6  8  2  0  0  0  0
  6 11  1  0  0  0  0
  7  9  1  0  0  0  0
  7 23  1  0  0  0  0
  7 24  1  0  0  0  0
  8 13  1  0  0  0  0
  9 25  1  0  0  0  0
  9 26  1  0  0  0  0
 10 11  2  0  0  0  0
 10 12  1  0  0  0  0
 11 27  1  0  0  0  0
 12 13  2  0  0  0  0
 12 14  1  0  0  0  0
 13 28  1  0  0  0  0
 14 16  2  0  0  0  0
 14 29  1  0  0  0  0
 16 30  1  0  0  0  0
 17 31  1  0  0  0  0
 17 32  1  0  0  0  0
 17 33  1  0  0  0  0
 18 19  1  0  0  0  0
 18 20  2  0  0  0  0
 19 21  2  0  0  0  0
 19 35  1  0  0  0  0
 20 36  1  0  0  0  0
 21 22  1  0  0  0  0
 21 37  1  0  0  0  0
 22 38  1  0  0  0  0
M  END
> <PUBCHEM_COMPOUND_CID>
5163

> <PUBCHEM_CONFORMER_RMSD>
0.6

> <PUBCHEM_CONFORMER_DIVERSEORDER>
1
42
25
30
39
11
29
24
14
35
22
23
41
26
2
40
13
28
37
27
3
33
34
36
4
17
21
38
12
32
5
19
31
6
20
18
16
8
15
7
9
10

> <PUBCHEM_MMFF94_PARTIAL_CHARGES>
30
1 -0.57
10 -0.15
11 -0.15
13 -0.15
14 -0.15
15 0.69
16 -0.3
17 0.26
18 0.12
19 -0.15
2 -0.48
20 0.16
21 -0.15
22 0.16
27 0.15
28 0.15
29 0.15
3 0.05
30 0.15
34 0.37
35 0.15
36 0.15
37 0.15
38 0.15
4 -0.55
5 -0.62
6 -0.14
7 0.14
8 0.12
9 0.3

> <PUBCHEM_EFFECTIVE_ROTOR_COUNT>
3.6

> <PUBCHEM_PHARMACOPHORE_FEATURES>
8
1 1 acceptor
1 3 cation
1 4 donor
1 5 acceptor
5 2 6 7 8 9 rings
5 3 10 12 14 16 rings
6 5 18 19 20 21 22 rings
6 6 8 10 11 12 13 rings

> <PUBCHEM_HEAVY_ATOM_COUNT>
22

> <PUBCHEM_ATOM_DEF_STEREO_COUNT>
0

> <PUBCHEM_ATOM_UDEF_STEREO_COUNT>
0

> <PUBCHEM_BOND_DEF_STEREO_COUNT>
0

> <PUBCHEM_BOND_UDEF_STEREO_COUNT>
0

> <PUBCHEM_ISOTOPIC_ATOM_COUNT>
0

> <PUBCHEM_COMPONENT_COUNT>
1

> <PUBCHEM_CACTVS_TAUTO_COUNT>
2

> <PUBCHEM_CONFORMER_ID>
0000142B00000001

> <PUBCHEM_MMFF94_ENERGY>
65.1469

> <PUBCHEM_FEATURE_SELFOVERLAP>
40.776

> <PUBCHEM_SHAPE_FINGERPRINT>
10411042 1 18266458901241799042
10688039 33 18130787901404317532
10906281 52 18266719394564413722
11578080 2 16879931633828810418
11963148 33 18410299125032311366
12107183 9 17760081118307061849
12236239 1 18040151829363425673
12516196 113 18335139795379152992
12596602 18 17313103025197629115
12838862 33 18337690649982225288
13167823 11 18409732833656597583
13402501 40 18413388743704119347
13533116 47 18187646877454844336
13685833 64 18413385436874440891
13862211 1 18412546543719878266
14170010 4 18410576158526625104
14251764 18 18334009493747796033
14341114 176 18411415090794679801
15183329 4 18412828001748522953
15196674 1 18410573976888746049
15352361 1 18411136956600807961
15927050 60 17756993303394507500
17492 89 18051133889569145754
17844677 252 18410287008965647785
17857418 61 18408886235214421031
1813 80 17632860832282326692
18681886 176 18261118435045944731
200 152 18259704506163389481
20028762 73 18259989275053969303
20612939 158 18201152170167945637
20645477 70 18412825785202623686
21049683 271 18270112418818912324
21150785 3 11959728236600359499
21236236 1 18336828718697479169
21267235 1 18409161134685807446
21279426 13 18269276944531208957
21792934 111 18264785396772131096
221357 26 18342744022476915021
221490 88 18198054790188435715
22224240 67 16950291702304216470
22950370 63 18411135865668584781
23402539 116 18334862731449757031
23522609 53 18123437648898294084
23559900 14 18411143498495597433
2871803 45 18272931669911347426
3004659 81 18202281416318061006
314194 84 18334579027205996375
335352 9 18410575102824344725
3421961 26 18408606933317465808
34797466 226 16660640731481037368
350125 39 18410011048225902221
4073 2 18059288756278246891
4214541 1 18410575098402802433
4463277 17 18410573998041647276
46194498 28 17561082471311393788
465052 167 18260545641117197294
5104073 3 18189343540387900448
542803 24 13398633857641535719
6138700 20 18340204197360667939
8863177 126 17987222345158010595
9709674 26 18198902505538335075
9971528 1 18272371936535477213

> <PUBCHEM_SHAPE_MULTIPOLES>
426.96
15.7
2.3
0.6
11.87
0.52
0
-5.78
0.03
-1.22
0
-0.02
0.01
-0.01

> <PUBCHEM_SHAPE_SELFOVERLAP>
949.745

> <PUBCHEM_SHAPE_VOLUME>
228.5

> <PUBCHEM_COORDINATE_TYPE>
2
5
10

$$$$

