9473
  -OEChem-06261203443D

 24 25  0     0  0  0  0  0  0999 V2000
    2.8006   -1.6324   -0.1519 O   0  0  0  0  0  0  0  0  0  0  0  0
    3.6986    0.5075    0.4979 O   0  0  0  0  0  0  0  0  0  0  0  0
   -2.4396   -0.0775    0.3225 O   0  0  0  0  0  0  0  0  0  0  0  0
   -4.4223   -0.1174   -0.8626 O   0  0  0  0  0  0  0  0  0  0  0  0
   -0.2798    0.3308   -0.4983 C   0  0  0  0  0  0  0  0  0  0  0  0
    1.8617   -0.6475   -0.1803 C   0  0  0  0  0  0  0  0  0  0  0  0
    2.3745    0.5743    0.1909 C   0  0  0  0  0  0  0  0  0  0  0  0
    0.5363   -0.8024   -0.5314 C   0  0  0  0  0  0  0  0  0  0  0  0
    0.2442    1.5792   -0.1190 C   0  0  0  0  0  0  0  0  0  0  0  0
    1.5902    1.7087    0.2316 C   0  0  0  0  0  0  0  0  0  0  0  0
   -1.7208    0.2170   -0.8688 C   0  0  0  0  0  0  0  0  0  0  0  0
    3.9620   -0.8932    0.2781 C   0  0  0  0  0  0  0  0  0  0  0  0
   -3.7922   -0.2201    0.1812 C   0  0  0  0  0  0  0  0  0  0  0  0
   -4.4136   -0.5270    1.5100 C   0  0  0  0  0  0  0  0  0  0  0  0
    0.1472   -1.7730   -0.8198 H   0  0  0  0  0  0  0  0  0  0  0  0
   -0.3956    2.4580   -0.0929 H   0  0  0  0  0  0  0  0  0  0  0  0
   -2.0825    1.1557   -1.3061 H   0  0  0  0  0  0  0  0  0  0  0  0
   -1.8679   -0.5818   -1.6060 H   0  0  0  0  0  0  0  0  0  0  0  0
    1.9979    2.6692    0.5254 H   0  0  0  0  0  0  0  0  0  0  0  0
    4.7413   -0.9879   -0.4869 H   0  0  0  0  0  0  0  0  0  0  0  0
    4.3310   -1.3318    1.2123 H   0  0  0  0  0  0  0  0  0  0  0  0
   -4.2245    0.2942    2.2058 H   0  0  0  0  0  0  0  0  0  0  0  0
   -4.0087   -1.4640    1.9006 H   0  0  0  0  0  0  0  0  0  0  0  0
   -5.4948   -0.6385    1.3879 H   0  0  0  0  0  0  0  0  0  0  0  0
  1  6  1  0  0  0  0
  1 12  1  0  0  0  0
  2  7  1  0  0  0  0
  2 12  1  0  0  0  0
  3 11  1  0  0  0  0
  3 13  1  0  0  0  0
  4 13  2  0  0  0  0
  5  8  2  0  0  0  0
  5  9  1  0  0  0  0
  5 11  1  0  0  0  0
  6  7  2  0  0  0  0
  6  8  1  0  0  0  0
  7 10  1  0  0  0  0
  8 15  1  0  0  0  0
  9 10  2  0  0  0  0
  9 16  1  0  0  0  0
 10 19  1  0  0  0  0
 11 17  1  0  0  0  0
 11 18  1  0  0  0  0
 12 20  1  0  0  0  0
 12 21  1  0  0  0  0
 13 14  1  0  0  0  0
 14 22  1  0  0  0  0
 14 23  1  0  0  0  0
 14 24  1  0  0  0  0
M  END
> <PUBCHEM_COMPOUND_CID>
9473

> <PUBCHEM_CONFORMER_RMSD>
0.6

> <PUBCHEM_CONFORMER_DIVERSEORDER>
2
10
7
3
11
4
6
5
12
9
1
8

> <PUBCHEM_MMFF94_PARTIAL_CHARGES>
17
1 -0.36
10 -0.15
11 0.42
12 0.56
13 0.66
14 0.06
15 0.15
16 0.15
19 0.15
2 -0.36
3 -0.43
4 -0.57
5 -0.14
6 0.08
7 0.08
8 -0.15
9 -0.15

> <PUBCHEM_EFFECTIVE_ROTOR_COUNT>
3.6

> <PUBCHEM_PHARMACOPHORE_FEATURES>
5
1 1 acceptor
1 2 acceptor
1 4 acceptor
5 1 2 6 7 12 rings
6 5 6 7 8 9 10 rings

> <PUBCHEM_HEAVY_ATOM_COUNT>
14

> <PUBCHEM_ATOM_DEF_STEREO_COUNT>
0

> <PUBCHEM_ATOM_UDEF_STEREO_COUNT>
0

> <PUBCHEM_BOND_DEF_STEREO_COUNT>
0

> <PUBCHEM_BOND_UDEF_STEREO_COUNT>
0

> <PUBCHEM_ISOTOPIC_ATOM_COUNT>
0

> <PUBCHEM_COMPONENT_COUNT>
1

> <PUBCHEM_CACTVS_TAUTO_COUNT>
1

> <PUBCHEM_CONFORMER_ID>
0000250100000002

> <PUBCHEM_MMFF94_ENERGY>
28.448

> <PUBCHEM_FEATURE_SELFOVERLAP>
25.527

> <PUBCHEM_SHAPE_FINGERPRINT>
10219947 1 18333452044856255183
11471102 20 18409454669672267980
11471102 22 18410285904594258153
11543360 7 15841540882034583814
11796584 16 16916797334809999722
12032990 46 18339360872300333774
12251169 10 18260829280588424847
13705890 14 16917347047837458446
14251717 144 18408046203819685199
14252887 29 18334009527685865934
15375462 189 18341337755346939882
15501101 241 18411703166498061524
16945 1 18262535731630966700
17844478 74 18272656765665063036
18915474 69 13830129460378019577
200 152 18041292010685471669
20279233 1 18131634474276578159
20281407 28 17632293493009069067
20645477 70 18337964475269092215
20871998 22 18116144653058846454
21501925 9 18410016550078638104
22485316 2 17489873734630731147
231179 274 6483355503920888154
23402539 116 5400797233170029361
23557571 272 17203341047366330348
26918003 58 18412541003570444491
2748010 2 18046078313465648100
4047638 21 7493285555753136166
42 15 18411695491802596265
4990 188 12535345731244678936
77492 1 17385729062842364325

> <PUBCHEM_SHAPE_MULTIPOLES>
264.64
8.23
1.38
0.95
6.51
0.28
-0.13
-2.39
-2.02
-1.15
-0.05
0.91
-0.07
0.42

> <PUBCHEM_SHAPE_SELFOVERLAP>
565.968

> <PUBCHEM_SHAPE_VOLUME>
147.5

> <PUBCHEM_COORDINATE_TYPE>
2
5
10

$$$$

