17395638
  -OEChem-06241222512D

 50 52  0     1  0  0  0  0  0999 V2000
    6.3776    0.6987    0.0000 S   0  0  0  0  0  0  0  0  0  0  0  0
    5.0334    3.7473    0.0000 O   0  0  0  0  0  0  0  0  0  0  0  0
    3.8744    2.4601    0.0000 O   0  0  0  0  0  0  0  0  0  0  0  0
    5.4641   -0.8945    0.0000 O   0  0  0  0  0  0  0  0  0  0  0  0
    4.5981    0.6055    0.0000 N   0  0  0  0  0  0  0  0  0  0  0  0
    3.7320   -1.8945    0.0000 N   0  0  0  0  0  0  0  0  0  0  0  0
    6.9535    3.2214    0.0000 C   0  0  0  0  0  0  0  0  0  0  0  0
    7.7625    3.8092    0.0000 C   0  0  0  0  0  0  0  0  0  0  0  0
    6.8490    4.2160    0.0000 C   0  0  0  0  0  0  0  0  0  0  0  0
    6.5468    2.3079    0.0000 C   0  0  0  0  0  0  0  0  0  0  0  0
    5.5686    2.1000    0.0000 C   0  0  0  0  0  0  0  0  0  0  0  0
    7.0468    1.4419    0.0000 C   0  0  0  0  0  0  0  0  0  0  0  0
    5.4641    1.1055    0.0000 C   0  0  0  0  0  0  0  0  0  0  0  0
    4.8255    2.7691    0.0000 C   0  0  0  0  0  0  0  0  0  0  0  0
    4.5981   -0.3945    0.0000 C   0  0  0  0  0  0  0  0  0  0  0  0
    3.7320   -0.8945    0.0000 C   0  0  0  0  0  0  0  0  0  0  0  0
    2.8660   -2.3945    0.0000 C   0  0  3  0  0  0  0  0  0  0  0  0
    2.8660   -3.3945    0.0000 C   0  0  0  0  0  0  0  0  0  0  0  0
    4.2902    4.4164    0.0000 C   0  0  0  0  0  0  0  0  0  0  0  0
    2.0000   -1.8945    0.0000 C   0  0  0  0  0  0  0  0  0  0  0  0
    2.0000   -3.8945    0.0000 C   0  0  0  0  0  0  0  0  0  0  0  0
    3.7320   -3.8945    0.0000 C   0  0  0  0  0  0  0  0  0  0  0  0
    4.4982    5.3945    0.0000 C   0  0  0  0  0  0  0  0  0  0  0  0
    2.0000   -4.8945    0.0000 C   0  0  0  0  0  0  0  0  0  0  0  0
    3.7320   -4.8945    0.0000 C   0  0  0  0  0  0  0  0  0  0  0  0
    2.8660   -5.3945    0.0000 C   0  0  0  0  0  0  0  0  0  0  0  0
    6.3412    3.3184    0.0000 H   0  0  0  0  0  0  0  0  0  0  0  0
    6.9990    4.8176    0.0000 H   0  0  0  0  0  0  0  0  0  0  0  0
    6.2305    4.2592    0.0000 H   0  0  0  0  0  0  0  0  0  0  0  0
    8.2085    3.3785    0.0000 H   0  0  0  0  0  0  0  0  0  0  0  0
    8.1092    4.3232    0.0000 H   0  0  0  0  0  0  0  0  0  0  0  0
    7.6634    1.3771    0.0000 H   0  0  0  0  0  0  0  0  0  0  0  0
    4.0611    0.9155    0.0000 H   0  0  0  0  0  0  0  0  0  0  0  0
    2.8660   -1.7745    0.0000 H   0  0  0  0  0  0  0  0  0  0  0  0
    3.5200   -0.3119    0.0000 H   0  0  0  0  0  0  0  0  0  0  0  0
    3.1215   -1.0022    0.0000 H   0  0  0  0  0  0  0  0  0  0  0  0
    4.2690   -2.2045    0.0000 H   0  0  0  0  0  0  0  0  0  0  0  0
    2.3100   -1.3576    0.0000 H   0  0  0  0  0  0  0  0  0  0  0  0
    1.4631   -1.5845    0.0000 H   0  0  0  0  0  0  0  0  0  0  0  0
    1.6900   -2.4315    0.0000 H   0  0  0  0  0  0  0  0  0  0  0  0
    3.7154    4.6486    0.0000 H   0  0  0  0  0  0  0  0  0  0  0  0
    3.9617    3.8906    0.0000 H   0  0  0  0  0  0  0  0  0  0  0  0
    1.4631   -3.5845    0.0000 H   0  0  0  0  0  0  0  0  0  0  0  0
    4.2690   -3.5845    0.0000 H   0  0  0  0  0  0  0  0  0  0  0  0
    5.1046    5.2656    0.0000 H   0  0  0  0  0  0  0  0  0  0  0  0
    4.6271    6.0010    0.0000 H   0  0  0  0  0  0  0  0  0  0  0  0
    3.8917    5.5234    0.0000 H   0  0  0  0  0  0  0  0  0  0  0  0
    1.4631   -5.2045    0.0000 H   0  0  0  0  0  0  0  0  0  0  0  0
    4.2690   -5.2045    0.0000 H   0  0  0  0  0  0  0  0  0  0  0  0
    2.8660   -6.0145    0.0000 H   0  0  0  0  0  0  0  0  0  0  0  0
  1 12  1  0  0  0  0
  1 13  1  0  0  0  0
  2 14  1  0  0  0  0
  2 19  1  0  0  0  0
  3 14  2  0  0  0  0
  4 15  2  0  0  0  0
  5 13  1  0  0  0  0
  5 15  1  0  0  0  0
  5 33  1  0  0  0  0
  6 16  1  0  0  0  0
  6 17  1  0  0  0  0
  6 37  1  0  0  0  0
  7  8  1  0  0  0  0
  7  9  1  0  0  0  0
  7 10  1  0  0  0  0
  7 27  1  0  0  0  0
  8  9  1  0  0  0  0
  8 30  1  0  0  0  0
  8 31  1  0  0  0  0
  9 28  1  0  0  0  0
  9 29  1  0  0  0  0
 10 11  1  0  0  0  0
 10 12  2  0  0  0  0
 11 13  2  0  0  0  0
 11 14  1  0  0  0  0
 12 32  1  0  0  0  0
 15 16  1  0  0  0  0
 16 35  1  0  0  0  0
 16 36  1  0  0  0  0
 17 18  1  0  0  0  0
 17 20  1  0  0  0  0
 17 34  1  0  0  0  0
 18 21  2  0  0  0  0
 18 22  1  0  0  0  0
 19 23  1  0  0  0  0
 19 41  1  0  0  0  0
 19 42  1  0  0  0  0
 20 38  1  0  0  0  0
 20 39  1  0  0  0  0
 20 40  1  0  0  0  0
 21 24  1  0  0  0  0
 21 43  1  0  0  0  0
 22 25  2  0  0  0  0
 22 44  1  0  0  0  0
 23 45  1  0  0  0  0
 23 46  1  0  0  0  0
 23 47  1  0  0  0  0
 24 26  2  0  0  0  0
 24 48  1  0  0  0  0
 25 26  1  0  0  0  0
 25 49  1  0  0  0  0
 26 50  1  0  0  0  0
M  END
> <PUBCHEM_COMPOUND_CID>
17395638

> <PUBCHEM_COMPOUND_CANONICALIZED>
1

> <PUBCHEM_CACTVS_COMPLEXITY>
491

> <PUBCHEM_CACTVS_HBOND_ACCEPTOR>
5

> <PUBCHEM_CACTVS_HBOND_DONOR>
2

> <PUBCHEM_CACTVS_ROTATABLE_BOND>
9

> <PUBCHEM_CACTVS_SUBSKEYS>
AAADceB7MABAAAAAAAAAAAAAGAAAASAAAAAwAAAAAAAAAAABwAAAHgQQAAAADSjl2AayiYLABAiMAiHSWACDAIBlCBkIiJGITMgIZjrgtbmWMYhm1AHo6UeYyIAOgAAAAAAAAAAAAAAAAAAAAAAAAAAAAA==

> <PUBCHEM_IUPAC_OPENEYE_NAME>
ethyl 4-cyclopropyl-2-[[2-(1-phenylethylamino)acetyl]amino]thiophene-3-carboxylate

> <PUBCHEM_IUPAC_CAS_NAME>
4-cyclopropyl-2-[[1-oxo-2-(1-phenylethylamino)ethyl]amino]-3-thiophenecarboxylic acid ethyl ester

> <PUBCHEM_IUPAC_NAME>
ethyl 4-cyclopropyl-2-[[2-(1-phenylethylamino)acetyl]amino]thiophene-3-carboxylate

> <PUBCHEM_IUPAC_SYSTEMATIC_NAME>
ethyl 4-cyclopropyl-2-[2-(1-phenylethylamino)ethanoylamino]thiophene-3-carboxylate

> <PUBCHEM_IUPAC_TRADITIONAL_NAME>
4-cyclopropyl-2-[[2-(1-phenylethylamino)acetyl]amino]thiophene-3-carboxylic acid ethyl ester

> <PUBCHEM_IUPAC_INCHI>
InChI=1S/C20H24N2O3S/c1-3-25-20(24)18-16(15-9-10-15)12-26-19(18)22-17(23)11-21-13(2)14-7-5-4-6-8-14/h4-8,12-13,15,21H,3,9-11H2,1-2H3,(H,22,23)

> <PUBCHEM_IUPAC_INCHIKEY>
CESVJSFVEKBZJB-UHFFFAOYSA-N

> <PUBCHEM_XLOGP3_AA>
4.3

> <PUBCHEM_EXACT_MASS>
372.150764

> <PUBCHEM_MOLECULAR_FORMULA>
C20H24N2O3S

> <PUBCHEM_MOLECULAR_WEIGHT>
372.48116

> <PUBCHEM_OPENEYE_CAN_SMILES>
CCOC(=O)C1=C(SC=C1C2CC2)NC(=O)CNC(C)C3=CC=CC=C3

> <PUBCHEM_OPENEYE_ISO_SMILES>
CCOC(=O)C1=C(SC=C1C2CC2)NC(=O)CNC(C)C3=CC=CC=C3

> <PUBCHEM_CACTVS_TPSA>
95.7

> <PUBCHEM_MONOISOTOPIC_WEIGHT>
372.150764

> <PUBCHEM_TOTAL_CHARGE>
0

> <PUBCHEM_HEAVY_ATOM_COUNT>
26

> <PUBCHEM_ATOM_DEF_STEREO_COUNT>
0

> <PUBCHEM_ATOM_UDEF_STEREO_COUNT>
1

> <PUBCHEM_BOND_DEF_STEREO_COUNT>
0

> <PUBCHEM_BOND_UDEF_STEREO_COUNT>
0

> <PUBCHEM_ISOTOPIC_ATOM_COUNT>
0

> <PUBCHEM_COMPONENT_COUNT>
1

> <PUBCHEM_CACTVS_TAUTO_COUNT>
7

> <PUBCHEM_COORDINATE_TYPE>
1
5
255

> <PUBCHEM_BONDANNOTATIONS>
1  12  8
1  13  8
10  11  8
10  12  8
11  13  8
17  20  3
18  21  8
18  22  8
21  24  8
22  25  8
24  26  8
25  26  8

$$$$

