17395308
  -OEChem-06241222492D

 46 48  0     0  0  0  0  0  0999 V2000
   14.0410    1.6080    0.0000 O   0  0  0  0  0  0  0  0  0  0  0  0
    8.7788   -1.4161    0.0000 O   0  0  0  0  0  0  0  0  0  0  0  0
    2.6691   -0.0094    0.0000 O   0  0  0  0  0  0  0  0  0  0  0  0
    6.1808    1.0839    0.0000 O   0  0  0  0  0  0  0  0  0  0  0  0
    7.9128    0.0839    0.0000 N   0  0  0  0  0  0  0  0  0  0  0  0
    5.3147   -0.4161    0.0000 N   0  0  0  0  0  0  0  0  0  0  0  0
   11.3769    0.0839    0.0000 C   0  0  0  0  0  0  0  0  0  0  0  0
    9.6448    0.0839    0.0000 C   0  0  0  0  0  0  0  0  0  0  0  0
   11.3769    1.0839    0.0000 C   0  0  0  0  0  0  0  0  0  0  0  0
   10.5109   -0.4161    0.0000 C   0  0  0  0  0  0  0  0  0  0  0  0
    7.0468   -0.4161    0.0000 C   0  0  0  0  0  0  0  0  0  0  0  0
    8.7788   -0.4161    0.0000 C   0  0  0  0  0  0  0  0  0  0  0  0
    9.6448    1.0839    0.0000 C   0  0  0  0  0  0  0  0  0  0  0  0
   10.5109    1.5839    0.0000 C   0  0  0  0  0  0  0  0  0  0  0  0
   12.2708    1.6186    0.0000 C   0  0  0  0  0  0  0  0  0  0  0  0
   12.2708   -0.4508    0.0000 C   0  0  0  0  0  0  0  0  0  0  0  0
    6.1808    0.0839    0.0000 C   0  0  0  0  0  0  0  0  0  0  0  0
   13.1769    1.1047    0.0000 C   0  0  0  0  0  0  0  0  0  0  0  0
    7.9128    1.0839    0.0000 C   0  0  0  0  0  0  0  0  0  0  0  0
   13.1769    0.0631    0.0000 C   0  0  0  0  0  0  0  0  0  0  0  0
    4.4487    0.0839    0.0000 C   0  0  0  0  0  0  0  0  0  0  0  0
    3.5827   -0.4161    0.0000 C   0  0  0  0  0  0  0  0  0  0  0  0
    3.4782   -1.4106    0.0000 C   0  0  0  0  0  0  0  0  0  0  0  0
    2.5000   -1.6186    0.0000 C   0  0  0  0  0  0  0  0  0  0  0  0
    2.0000   -0.7525    0.0000 C   0  0  0  0  0  0  0  0  0  0  0  0
   14.9090    1.1114    0.0000 C   0  0  0  0  0  0  0  0  0  0  0  0
   10.5109   -1.0361    0.0000 H   0  0  0  0  0  0  0  0  0  0  0  0
    6.6482   -0.8911    0.0000 H   0  0  0  0  0  0  0  0  0  0  0  0
    7.4453   -0.8911    0.0000 H   0  0  0  0  0  0  0  0  0  0  0  0
    9.1079    1.3939    0.0000 H   0  0  0  0  0  0  0  0  0  0  0  0
   10.5109    2.2039    0.0000 H   0  0  0  0  0  0  0  0  0  0  0  0
   12.2637    2.2385    0.0000 H   0  0  0  0  0  0  0  0  0  0  0  0
   12.2637   -1.0707    0.0000 H   0  0  0  0  0  0  0  0  0  0  0  0
    8.5328    1.0839    0.0000 H   0  0  0  0  0  0  0  0  0  0  0  0
    7.9128    1.7039    0.0000 H   0  0  0  0  0  0  0  0  0  0  0  0
    7.2928    1.0839    0.0000 H   0  0  0  0  0  0  0  0  0  0  0  0
   13.7127   -0.2490    0.0000 H   0  0  0  0  0  0  0  0  0  0  0  0
    4.8472    0.5588    0.0000 H   0  0  0  0  0  0  0  0  0  0  0  0
    4.0502    0.5588    0.0000 H   0  0  0  0  0  0  0  0  0  0  0  0
    5.3147   -1.0361    0.0000 H   0  0  0  0  0  0  0  0  0  0  0  0
    3.9389   -1.8255    0.0000 H   0  0  0  0  0  0  0  0  0  0  0  0
    2.2478   -2.1850    0.0000 H   0  0  0  0  0  0  0  0  0  0  0  0
    1.3834   -0.6877    0.0000 H   0  0  0  0  0  0  0  0  0  0  0  0
   14.6010    0.5733    0.0000 H   0  0  0  0  0  0  0  0  0  0  0  0
   15.4471    0.8034    0.0000 H   0  0  0  0  0  0  0  0  0  0  0  0
   15.2169    1.6495    0.0000 H   0  0  0  0  0  0  0  0  0  0  0  0
  1 18  1  0  0  0  0
  1 26  1  0  0  0  0
  2 12  2  0  0  0  0
  3 22  1  0  0  0  0
  3 25  1  0  0  0  0
  4 17  2  0  0  0  0
  5 11  1  0  0  0  0
  5 12  1  0  0  0  0
  5 19  1  0  0  0  0
  6 17  1  0  0  0  0
  6 21  1  0  0  0  0
  6 40  1  0  0  0  0
  7  9  2  0  0  0  0
  7 10  1  0  0  0  0
  7 16  1  0  0  0  0
  8 10  2  0  0  0  0
  8 12  1  0  0  0  0
  8 13  1  0  0  0  0
  9 14  1  0  0  0  0
  9 15  1  0  0  0  0
 10 27  1  0  0  0  0
 11 17  1  0  0  0  0
 11 28  1  0  0  0  0
 11 29  1  0  0  0  0
 13 14  2  0  0  0  0
 13 30  1  0  0  0  0
 14 31  1  0  0  0  0
 15 18  2  0  0  0  0
 15 32  1  0  0  0  0
 16 20  2  0  0  0  0
 16 33  1  0  0  0  0
 18 20  1  0  0  0  0
 19 34  1  0  0  0  0
 19 35  1  0  0  0  0
 19 36  1  0  0  0  0
 20 37  1  0  0  0  0
 21 22  1  0  0  0  0
 21 38  1  0  0  0  0
 21 39  1  0  0  0  0
 22 23  2  0  0  0  0
 23 24  1  0  0  0  0
 23 41  1  0  0  0  0
 24 25  2  0  0  0  0
 24 42  1  0  0  0  0
 25 43  1  0  0  0  0
 26 44  1  0  0  0  0
 26 45  1  0  0  0  0
 26 46  1  0  0  0  0
M  END
> <PUBCHEM_COMPOUND_CID>
17395308

> <PUBCHEM_COMPOUND_CANONICALIZED>
1

> <PUBCHEM_CACTVS_COMPLEXITY>
498

> <PUBCHEM_CACTVS_HBOND_ACCEPTOR>
4

> <PUBCHEM_CACTVS_HBOND_DONOR>
1

> <PUBCHEM_CACTVS_ROTATABLE_BOND>
6

> <PUBCHEM_CACTVS_SUBSKEYS>
AAADceB7OAAAAAAAAAAAAAAAAAAAASAAAAAwYAAAAAAAAADB1AAAHgAQAAAADAThmAYyBsPABECIAqlSkACCCAAkIAAIiIGODMgOZjKEtTuXOSjk1hGYqYeY2fKO4AADAAAQAADAAAYAACAAAAAAAAAAAA==

> <PUBCHEM_IUPAC_OPENEYE_NAME>
N-[2-(2-furylmethylamino)-2-oxo-ethyl]-6-methoxy-N-methyl-naphthalene-2-carboxamide

> <PUBCHEM_IUPAC_CAS_NAME>
N-[2-(2-furanylmethylamino)-2-oxoethyl]-6-methoxy-N-methyl-2-naphthalenecarboxamide

> <PUBCHEM_IUPAC_NAME>
N-[2-(furan-2-ylmethylamino)-2-oxoethyl]-6-methoxy-N-methylnaphthalene-2-carboxamide

> <PUBCHEM_IUPAC_SYSTEMATIC_NAME>
N-[2-(furan-2-ylmethylamino)-2-oxidanylidene-ethyl]-6-methoxy-N-methyl-naphthalene-2-carboxamide

> <PUBCHEM_IUPAC_TRADITIONAL_NAME>
N-[2-(2-furfurylamino)-2-keto-ethyl]-6-methoxy-N-methyl-2-naphthamide

> <PUBCHEM_IUPAC_INCHI>
InChI=1S/C20H20N2O4/c1-22(13-19(23)21-12-18-4-3-9-26-18)20(24)16-6-5-15-11-17(25-2)8-7-14(15)10-16/h3-11H,12-13H2,1-2H3,(H,21,23)

> <PUBCHEM_IUPAC_INCHIKEY>
WFKIBBPNDONMLO-UHFFFAOYSA-N

> <PUBCHEM_XLOGP3_AA>
2.5

> <PUBCHEM_EXACT_MASS>
352.142307

> <PUBCHEM_MOLECULAR_FORMULA>
C20H20N2O4

> <PUBCHEM_MOLECULAR_WEIGHT>
352.3838

> <PUBCHEM_OPENEYE_CAN_SMILES>
CN(CC(=O)NCC1=CC=CO1)C(=O)C2=CC3=C(C=C2)C=C(C=C3)OC

> <PUBCHEM_OPENEYE_ISO_SMILES>
CN(CC(=O)NCC1=CC=CO1)C(=O)C2=CC3=C(C=C2)C=C(C=C3)OC

> <PUBCHEM_CACTVS_TPSA>
71.8

> <PUBCHEM_MONOISOTOPIC_WEIGHT>
352.142307

> <PUBCHEM_TOTAL_CHARGE>
0

> <PUBCHEM_HEAVY_ATOM_COUNT>
26

> <PUBCHEM_ATOM_DEF_STEREO_COUNT>
0

> <PUBCHEM_ATOM_UDEF_STEREO_COUNT>
0

> <PUBCHEM_BOND_DEF_STEREO_COUNT>
0

> <PUBCHEM_BOND_UDEF_STEREO_COUNT>
0

> <PUBCHEM_ISOTOPIC_ATOM_COUNT>
0

> <PUBCHEM_COMPONENT_COUNT>
1

> <PUBCHEM_CACTVS_TAUTO_COUNT>
2

> <PUBCHEM_COORDINATE_TYPE>
1
5
255

> <PUBCHEM_BONDANNOTATIONS>
13  14  8
15  18  8
16  20  8
18  20  8
22  23  8
23  24  8
24  25  8
3  22  8
3  25  8
7  10  8
7  16  8
7  9  8
8  10  8
8  13  8
9  14  8
9  15  8

$$$$

