13102
  -OEChem-06261207453D

 45 49  0     1  0  0  0  0  0999 V2000
    1.5949    1.4119    0.8107 O   0  0  0  0  0  0  0  0  0  0  0  0
   -1.2431    3.4264   -0.3639 O   0  0  0  0  0  0  0  0  0  0  0  0
    4.0685    0.0634    0.1510 O   0  0  0  0  0  0  0  0  0  0  0  0
   -3.1620   -1.3400    0.6992 N   0  0  1  0  0  0  0  0  0  0  0  0
   -0.6413    0.4679    0.6242 C   0  0  1  0  0  0  0  0  0  0  0  0
   -1.7008    0.3293   -0.4520 C   0  0  2  0  0  0  0  0  0  0  0  0
    0.1774    1.7667    0.6833 C   0  0  2  0  0  0  0  0  0  0  0  0
   -2.0586   -1.1979   -0.2552 C   0  0  2  0  0  0  0  0  0  0  0  0
   -1.3527    0.0913    1.9966 C   0  0  0  0  0  0  0  0  0  0  0  0
    0.4664   -0.4664    0.1483 C   0  0  0  0  0  0  0  0  0  0  0  0
   -1.2966    0.8259   -1.8544 C   0  0  0  0  0  0  0  0  0  0  0  0
   -0.0459    2.6695   -0.5461 C   0  0  1  0  0  0  0  0  0  0  0  0
   -1.0950   -2.1290   -1.0265 C   0  0  0  0  0  0  0  0  0  0  0  0
   -0.1855    1.8909   -1.8576 C   0  0  0  0  0  0  0  0  0  0  0  0
   -2.8861   -0.3832    1.8382 C   0  0  0  0  0  0  0  0  0  0  0  0
    0.3229   -1.6545   -0.6167 C   0  0  0  0  0  0  0  0  0  0  0  0
    1.6911    0.1284    0.3412 C   0  0  0  0  0  0  0  0  0  0  0  0
   -4.4659   -1.1314    0.0913 C   0  0  0  0  0  0  0  0  0  0  0  0
    1.4872   -2.3005   -1.0249 C   0  0  0  0  0  0  0  0  0  0  0  0
    2.8519   -0.5061   -0.0510 C   0  0  0  0  0  0  0  0  0  0  0  0
    2.7424   -1.7371   -0.7191 C   0  0  0  0  0  0  0  0  0  0  0  0
    4.7310   -0.2254    1.3837 C   0  0  0  0  0  0  0  0  0  0  0  0
   -2.5528    0.9737   -0.1946 H   0  0  0  0  0  0  0  0  0  0  0  0
   -0.0739    2.3453    1.5802 H   0  0  0  0  0  0  0  0  0  0  0  0
   -2.7208   -1.2507   -1.1386 H   0  0  0  0  0  0  0  0  0  0  0  0
   -1.3527    0.9460    2.6822 H   0  0  0  0  0  0  0  0  0  0  0  0
   -0.7958   -0.7186    2.4841 H   0  0  0  0  0  0  0  0  0  0  0  0
   -2.1921    1.2565   -2.3235 H   0  0  0  0  0  0  0  0  0  0  0  0
   -1.0008    0.0196   -2.5309 H   0  0  0  0  0  0  0  0  0  0  0  0
    0.7846    3.3794   -0.6339 H   0  0  0  0  0  0  0  0  0  0  0  0
   -1.1974   -2.0994   -2.1173 H   0  0  0  0  0  0  0  0  0  0  0  0
   -1.2295   -3.1615   -0.6857 H   0  0  0  0  0  0  0  0  0  0  0  0
    0.7705    1.4085   -2.0935 H   0  0  0  0  0  0  0  0  0  0  0  0
   -0.3832    2.5857   -2.6837 H   0  0  0  0  0  0  0  0  0  0  0  0
   -3.2001   -0.8615    2.7729 H   0  0  0  0  0  0  0  0  0  0  0  0
   -3.4959    0.5237    1.7282 H   0  0  0  0  0  0  0  0  0  0  0  0
   -5.2481   -1.2233    0.8538 H   0  0  0  0  0  0  0  0  0  0  0  0
   -4.6846   -1.9034   -0.6561 H   0  0  0  0  0  0  0  0  0  0  0  0
   -4.5774   -0.1468   -0.3766 H   0  0  0  0  0  0  0  0  0  0  0  0
    1.4373   -3.2216   -1.5981 H   0  0  0  0  0  0  0  0  0  0  0  0
   -1.3350    4.0210   -1.1279 H   0  0  0  0  0  0  0  0  0  0  0  0
    3.6424   -2.2498   -1.0522 H   0  0  0  0  0  0  0  0  0  0  0  0
    4.9147   -1.3005    1.4756 H   0  0  0  0  0  0  0  0  0  0  0  0
    4.1343    0.1289    2.2301 H   0  0  0  0  0  0  0  0  0  0  0  0
    5.6912    0.2973    1.3870 H   0  0  0  0  0  0  0  0  0  0  0  0
  1  7  1  0  0  0  0
  1 17  1  0  0  0  0
  2 12  1  0  0  0  0
  2 41  1  0  0  0  0
  3 20  1  0  0  0  0
  3 22  1  0  0  0  0
  4  8  1  0  0  0  0
  4 15  1  0  0  0  0
  4 18  1  0  0  0  0
  5  6  1  0  0  0  0
  5  7  1  0  0  0  0
  5  9  1  0  0  0  0
  5 10  1  0  0  0  0
  6  8  1  0  0  0  0
  6 11  1  0  0  0  0
  6 23  1  0  0  0  0
  7 12  1  0  0  0  0
  7 24  1  0  0  0  0
  8 13  1  0  0  0  0
  8 25  1  0  0  0  0
  9 15  1  0  0  0  0
  9 26  1  0  0  0  0
  9 27  1  0  0  0  0
 10 16  2  0  0  0  0
 10 17  1  0  0  0  0
 11 14  1  0  0  0  0
 11 28  1  0  0  0  0
 11 29  1  0  0  0  0
 12 14  1  0  0  0  0
 12 30  1  0  0  0  0
 13 16  1  0  0  0  0
 13 31  1  0  0  0  0
 13 32  1  0  0  0  0
 14 33  1  0  0  0  0
 14 34  1  0  0  0  0
 15 35  1  0  0  0  0
 15 36  1  0  0  0  0
 16 19  1  0  0  0  0
 17 20  2  0  0  0  0
 18 37  1  0  0  0  0
 18 38  1  0  0  0  0
 18 39  1  0  0  0  0
 19 21  2  0  0  0  0
 19 40  1  0  0  0  0
 20 21  1  0  0  0  0
 21 42  1  0  0  0  0
 22 43  1  0  0  0  0
 22 44  1  0  0  0  0
 22 45  1  0  0  0  0
M  END
> <PUBCHEM_COMPOUND_CID>
13102

> <PUBCHEM_CONFORMER_RMSD>
0.6

> <PUBCHEM_CONFORMER_DIVERSEORDER>
1
2
3

> <PUBCHEM_MMFF94_PARTIAL_CHARGES>
21
1 -0.36
10 -0.14
12 0.28
13 0.14
15 0.27
16 -0.14
17 0.08
18 0.27
19 -0.15
2 -0.68
20 0.08
21 -0.15
22 0.28
3 -0.36
4 -0.81
40 0.15
41 0.4
42 0.15
5 0.14
7 0.28
8 0.27

> <PUBCHEM_EFFECTIVE_ROTOR_COUNT>
2.6

> <PUBCHEM_PHARMACOPHORE_FEATURES>
10
1 1 acceptor
1 2 acceptor
1 2 donor
1 3 acceptor
1 4 cation
5 1 5 7 10 17 rings
6 10 16 17 19 20 21 rings
6 4 5 6 8 9 15 rings
6 5 6 7 11 12 14 rings
6 5 6 8 10 13 16 rings

> <PUBCHEM_HEAVY_ATOM_COUNT>
22

> <PUBCHEM_ATOM_DEF_STEREO_COUNT>
4

> <PUBCHEM_ATOM_UDEF_STEREO_COUNT>
1

> <PUBCHEM_BOND_DEF_STEREO_COUNT>
0

> <PUBCHEM_BOND_UDEF_STEREO_COUNT>
0

> <PUBCHEM_ISOTOPIC_ATOM_COUNT>
0

> <PUBCHEM_COMPONENT_COUNT>
1

> <PUBCHEM_CACTVS_TAUTO_COUNT>
1

> <PUBCHEM_CONFORMER_ID>
0000332E00000001

> <PUBCHEM_MMFF94_ENERGY>
151.6516

> <PUBCHEM_FEATURE_SELFOVERLAP>
52.243

> <PUBCHEM_SHAPE_FINGERPRINT>
10863032 1 17970625409961398769
10948715 1 17760093208160458380
11132069 177 18259706688086215370
11315181 36 14692567733259399910
12011746 2 18187637003319736463
12035758 1 18342459279156796777
12403814 3 18412551993954080074
12423570 1 13251475281098289121
12592029 89 17338415805872481669
13132413 78 17822281384259002505
13134695 92 18128814145262759477
13140716 1 18044948870057935370
13172582 1 18335423405002153906
13583140 156 17845394274601272976
13681431 1 17915155967526495717
14142880 1 18041003989514152120
14170010 4 18335414682762176899
14181834 199 18054214445754471229
14223421 5 18191582171600091126
14614273 12 18261964045513579262
14840074 17 18126561216184288636
14955137 171 17904728160456662786
16945 1 18114180804610495730
17357779 13 18411710897813351231
17980427 23 17095514085683456729
1813 80 18200861916272423815
18769570 83 17631740477594858021
200 152 15985387776509835714
20600515 1 17417798535553427447
20691752 17 18266717208099590706
21304303 282 16983821429087951276
21524375 3 16906082813019451109
22182313 1 18116716403642960782
2334 1 17829340081542795046
23402539 116 17989215862095202519
23419403 2 17916044372594990245
23557571 272 18272647999916237302
23559900 14 17540823124305848358
238 59 16760584456701834445
25 1 16825865777704575324
2748010 2 18045216304738920054
5845 1 4929652583594821645
6992083 37 18262233301034156019
81228 2 17915443111707088441
9981440 41 17758154696683971402

> <PUBCHEM_SHAPE_MULTIPOLES>
430.16
5.69
2.75
1.64
2.82
1.47
0.13
-2.61
2.31
-0.49
-1.13
-0.48
0.26
0.64

> <PUBCHEM_SHAPE_SELFOVERLAP>
955.563

> <PUBCHEM_SHAPE_VOLUME>
228.7

> <PUBCHEM_COORDINATE_TYPE>
2
5
10

$$$$

