17396409
  -OEChem-06241222563D

 35 37  0     0  0  0  0  0  0999 V2000
   -1.8790    2.2066    0.2270 S   0  0  0  0  0  0  0  0  0  0  0  0
    1.1423    2.7246    0.2577 S   0  0  0  0  0  0  0  0  0  0  0  0
    5.1518   -2.9584    0.9419 F   0  0  0  0  0  0  0  0  0  0  0  0
   -3.6011   -2.1025   -0.2974 O   0  0  0  0  0  0  0  0  0  0  0  0
   -4.6352    2.0650    0.2351 O   0  0  0  0  0  0  0  0  0  0  0  0
   -5.0462   -0.2090   -0.0404 N   0  0  0  0  0  0  0  0  0  0  0  0
   -5.9272   -2.3040   -0.2635 N   0  0  0  0  0  0  0  0  0  0  0  0
    3.4903    1.4680    0.0786 N   0  0  0  0  0  0  0  0  0  0  0  0
    0.1159    0.3927   -0.0165 N   0  0  0  0  0  0  0  0  0  0  0  0
    1.4865    0.2048   -0.0541 N   0  0  0  0  0  0  0  0  0  0  0  0
   -6.4911   -0.0508   -0.1057 C   0  0  0  0  0  0  0  0  0  0  0  0
   -7.0568   -1.4527   -0.0207 C   0  0  0  0  0  0  0  0  0  0  0  0
   -4.7127   -1.5978   -0.2097 C   0  0  0  0  0  0  0  0  0  0  0  0
   -4.2179    0.9143    0.0945 C   0  0  0  0  0  0  0  0  0  0  0  0
   -2.7389    0.6367    0.0444 C   0  0  0  0  0  0  0  0  0  0  0  0
    4.5024    0.4802   -0.0528 C   0  0  0  0  0  0  0  0  0  0  0  0
   -0.1982    1.6607    0.1420 C   0  0  0  0  0  0  0  0  0  0  0  0
    2.1387    1.3401    0.0776 C   0  0  0  0  0  0  0  0  0  0  0  0
    4.3266   -0.7792    0.5204 C   0  0  0  0  0  0  0  0  0  0  0  0
    5.6723    0.7697   -0.7550 C   0  0  0  0  0  0  0  0  0  0  0  0
    5.3205   -1.7491    0.3913 C   0  0  0  0  0  0  0  0  0  0  0  0
    6.6665   -0.2002   -0.8840 C   0  0  0  0  0  0  0  0  0  0  0  0
    6.4905   -1.4596   -0.3108 C   0  0  0  0  0  0  0  0  0  0  0  0
   -6.7313    0.4223   -1.0648 H   0  0  0  0  0  0  0  0  0  0  0  0
   -6.8493    0.6034    0.6954 H   0  0  0  0  0  0  0  0  0  0  0  0
   -7.8398   -1.6445   -0.7586 H   0  0  0  0  0  0  0  0  0  0  0  0
   -7.4371   -1.6765    0.9806 H   0  0  0  0  0  0  0  0  0  0  0  0
   -5.9843   -3.3124   -0.3656 H   0  0  0  0  0  0  0  0  0  0  0  0
   -2.4884    0.1849   -0.9198 H   0  0  0  0  0  0  0  0  0  0  0  0
   -2.4693   -0.0344    0.8652 H   0  0  0  0  0  0  0  0  0  0  0  0
    3.8650    2.4132    0.0407 H   0  0  0  0  0  0  0  0  0  0  0  0
    3.4366   -1.0272    1.0914 H   0  0  0  0  0  0  0  0  0  0  0  0
    5.8207    1.7470   -1.2071 H   0  0  0  0  0  0  0  0  0  0  0  0
    7.5774    0.0249   -1.4309 H   0  0  0  0  0  0  0  0  0  0  0  0
    7.2642   -2.2151   -0.4111 H   0  0  0  0  0  0  0  0  0  0  0  0
  1 15  1  0  0  0  0
  1 17  1  0  0  0  0
  2 17  1  0  0  0  0
  2 18  1  0  0  0  0
  3 21  1  0  0  0  0
  4 13  2  0  0  0  0
  5 14  2  0  0  0  0
  6 11  1  0  0  0  0
  6 13  1  0  0  0  0
  6 14  1  0  0  0  0
  7 12  1  0  0  0  0
  7 13  1  0  0  0  0
  7 28  1  0  0  0  0
  8 16  1  0  0  0  0
  8 18  1  0  0  0  0
  8 31  1  0  0  0  0
  9 10  1  0  0  0  0
  9 17  2  0  0  0  0
 10 18  2  0  0  0  0
 11 12  1  0  0  0  0
 11 24  1  0  0  0  0
 11 25  1  0  0  0  0
 12 26  1  0  0  0  0
 12 27  1  0  0  0  0
 14 15  1  0  0  0  0
 15 29  1  0  0  0  0
 15 30  1  0  0  0  0
 16 19  2  0  0  0  0
 16 20  1  0  0  0  0
 19 21  1  0  0  0  0
 19 32  1  0  0  0  0
 20 22  2  0  0  0  0
 20 33  1  0  0  0  0
 21 23  2  0  0  0  0
 22 23  1  0  0  0  0
 22 34  1  0  0  0  0
 23 35  1  0  0  0  0
M  END
> <PUBCHEM_COMPOUND_CID>
17396409

> <PUBCHEM_CONFORMER_RMSD>
1.4

> <PUBCHEM_CONFORMER_DIVERSEORDER>
1
42
46
49
10
7
48
52
23
54
15
37
17
39
29
55
8
24
28
16
53
40
32
44
13
47
27
9
34
33
22
51
12
6
50
56
43
38
26
30
18
14
35
57
5
21
45
19
20
41
3
58
25
31
11
36
2
4

> <PUBCHEM_MMFF94_PARTIAL_CHARGES>
29
1 -0.29
10 -0.34
11 0.3
12 0.3
13 0.69
14 0.57
15 0.29
16 0.1
17 0.43
18 0.46
19 -0.15
2 -0.08
20 -0.15
21 0.19
22 -0.15
23 -0.15
28 0.37
3 -0.19
31 0.4
32 0.15
33 0.15
34 0.15
35 0.15
4 -0.57
5 -0.57
6 -0.42
7 -0.73
8 -0.58
9 -0.34

> <PUBCHEM_EFFECTIVE_ROTOR_COUNT>
6.8

> <PUBCHEM_PHARMACOPHORE_FEATURES>
9
1 4 acceptor
1 5 acceptor
1 7 donor
1 8 donor
1 9 acceptor
3 8 10 18 cation
5 2 9 10 17 18 rings
5 6 7 11 12 13 rings
6 16 19 20 21 22 23 rings

> <PUBCHEM_HEAVY_ATOM_COUNT>
23

> <PUBCHEM_ATOM_DEF_STEREO_COUNT>
0

> <PUBCHEM_ATOM_UDEF_STEREO_COUNT>
0

> <PUBCHEM_BOND_DEF_STEREO_COUNT>
0

> <PUBCHEM_BOND_UDEF_STEREO_COUNT>
0

> <PUBCHEM_ISOTOPIC_ATOM_COUNT>
0

> <PUBCHEM_COMPONENT_COUNT>
1

> <PUBCHEM_CACTVS_TAUTO_COUNT>
4

> <PUBCHEM_CONFORMER_ID>
010972B900000001

> <PUBCHEM_MMFF94_ENERGY>
54.3509

> <PUBCHEM_FEATURE_SELFOVERLAP>
45.669

> <PUBCHEM_SHAPE_FINGERPRINT>
10 15 7565344253972290165
10299344 5 18412539920552954797
10595046 47 18341608231355731452
10939801 23 18261395478096239244
11524674 6 16877663457383609255
117089 54 17840859682501509771
117890 112 9655574106684244820
11963148 33 18336269037161780494
12166972 35 18343298141535042421
12592606 108 18336267848040712871
13288520 33 18408602552999294013
13533116 47 18335421210358580216
1361 4 18410291454299133750
13668630 136 18114174277051367108
13685833 64 18334293158414353872
13862211 1 18409165519494196568
14178184 131 18043247943156694175
14211702 104 18260540169133780702
14251764 30 18342179972484566396
14347332 77 18271530887338778972
14420673 8 18410008807091431915
14461889 52 18336553712331426496
14556957 393 16056590001977379781
14931854 50 18059587858486626571
15183329 4 18413388734971727803
15348495 7 14996295677584119206
15352257 5 18409446994333783286
17134984 74 17489588944182089186
17857418 61 18409729564526861962
18335252 98 18334011671444258836
20028762 73 18187364324584092054
20567600 247 18412825798256214034
21150785 3 17275101704613664828
21267235 1 18411132503521685777
21585483 132 18191324705649451287
21623969 137 17385436635625105316
220451 1 18340196483873522576
22950370 63 18411701010746342468
22956985 138 17317587014822381198
23035841 295 18409165515415396745
23522609 53 18122309537146785792
23559900 14 18336836269408156969
249999 5 17897452683753802592
2838139 119 10735871746841402601
3004659 81 18272373044388814248
335352 9 18409732859969766133
4073 2 18200028418071357024
4340502 62 14129055924405463332
439807 62 18342457053878310499
465052 167 18186237347183335300
5104073 3 17894912923282805681
531348 171 17986395696828464613
559249 180 18408323311479345809
5718773 13 18189340083171673079
636775 8 18187634861201792006
8863177 126 18260552177762015904
999808 66 18059844044737850195

> <PUBCHEM_SHAPE_MULTIPOLES>
437.11
21.04
2.91
0.73
4.39
0.3
-0.01
14.2
-2.16
0.46
0.4
-0.64
0.09
-1.07

> <PUBCHEM_SHAPE_SELFOVERLAP>
906.076

> <PUBCHEM_SHAPE_VOLUME>
250.5

> <PUBCHEM_COORDINATE_TYPE>
2
5
10

$$$$

