17395710
  -OEChem-06241222512D

 45 47  0     1  0  0  0  0  0999 V2000
    4.4865    0.4400    0.0000 S   0  0  0  0  0  0  0  0  0  0  0  0
    4.9418    5.6647    0.0000 S   0  0  0  0  0  0  0  0  0  0  0  0
    5.6620    2.0580    0.0000 O   0  0  0  0  0  0  0  0  0  0  0  0
    4.2608    3.0761    0.0000 N   0  0  0  0  0  0  0  0  0  0  0  0
    2.5896   -1.3201    0.0000 N   0  0  0  0  0  0  0  0  0  0  0  0
    4.2077   -1.3201    0.0000 N   0  0  0  0  0  0  0  0  0  0  0  0
    2.8987   -0.3690    0.0000 N   0  0  0  0  0  0  0  0  0  0  0  0
    4.0797    1.3536    0.0000 C   0  0  3  0  0  0  0  0  0  0  0  0
    3.3987   -4.9078    0.0000 C   0  0  0  0  0  0  0  0  0  0  0  0
    3.3987   -2.9078    0.0000 C   0  0  0  0  0  0  0  0  0  0  0  0
    3.3987   -5.9078    0.0000 C   0  0  0  0  0  0  0  0  0  0  0  0
    3.3987   -1.9078    0.0000 C   0  0  0  0  0  0  0  0  0  0  0  0
    4.6675    2.1626    0.0000 C   0  0  0  0  0  0  0  0  0  0  0  0
    4.8486    3.8851    0.0000 C   0  0  0  0  0  0  0  0  0  0  0  0
    4.2647   -4.4078    0.0000 C   0  0  0  0  0  0  0  0  0  0  0  0
    2.5326   -4.4078    0.0000 C   0  0  0  0  0  0  0  0  0  0  0  0
    4.2647   -3.4078    0.0000 C   0  0  0  0  0  0  0  0  0  0  0  0
    2.5326   -3.4078    0.0000 C   0  0  0  0  0  0  0  0  0  0  0  0
    3.0852    1.4581    0.0000 C   0  0  0  0  0  0  0  0  0  0  0  0
    3.8987   -0.3690    0.0000 C   0  0  0  0  0  0  0  0  0  0  0  0
    4.4418    4.7987    0.0000 C   0  0  0  0  0  0  0  0  0  0  0  0
    4.2647   -6.4078    0.0000 C   0  0  0  0  0  0  0  0  0  0  0  0
    3.4637    5.0066    0.0000 C   0  0  0  0  0  0  0  0  0  0  0  0
    3.3591    6.0011    0.0000 C   0  0  0  0  0  0  0  0  0  0  0  0
    4.2727    6.4078    0.0000 C   0  0  0  0  0  0  0  0  0  0  0  0
    3.7153    0.8520    0.0000 H   0  0  0  0  0  0  0  0  0  0  0  0
    2.7881   -5.8002    0.0000 H   0  0  0  0  0  0  0  0  0  0  0  0
    3.1866   -6.4905    0.0000 H   0  0  0  0  0  0  0  0  0  0  0  0
    5.2792    3.4391    0.0000 H   0  0  0  0  0  0  0  0  0  0  0  0
    5.3626    4.2318    0.0000 H   0  0  0  0  0  0  0  0  0  0  0  0
    4.8016   -4.7178    0.0000 H   0  0  0  0  0  0  0  0  0  0  0  0
    1.9957   -4.7178    0.0000 H   0  0  0  0  0  0  0  0  0  0  0  0
    4.8016   -3.0979    0.0000 H   0  0  0  0  0  0  0  0  0  0  0  0
    1.9957   -3.0979    0.0000 H   0  0  0  0  0  0  0  0  0  0  0  0
    3.6442    3.1409    0.0000 H   0  0  0  0  0  0  0  0  0  0  0  0
    3.1500    2.0747    0.0000 H   0  0  0  0  0  0  0  0  0  0  0  0
    2.4686    1.5229    0.0000 H   0  0  0  0  0  0  0  0  0  0  0  0
    3.0204    0.8415    0.0000 H   0  0  0  0  0  0  0  0  0  0  0  0
    2.0000   -1.5116    0.0000 H   0  0  0  0  0  0  0  0  0  0  0  0
    3.9547   -6.9448    0.0000 H   0  0  0  0  0  0  0  0  0  0  0  0
    4.8016   -6.7178    0.0000 H   0  0  0  0  0  0  0  0  0  0  0  0
    4.5747   -5.8709    0.0000 H   0  0  0  0  0  0  0  0  0  0  0  0
    3.0029    4.5917    0.0000 H   0  0  0  0  0  0  0  0  0  0  0  0
    2.8222    6.3111    0.0000 H   0  0  0  0  0  0  0  0  0  0  0  0
    4.4016    7.0143    0.0000 H   0  0  0  0  0  0  0  0  0  0  0  0
  1  8  1  0  0  0  0
  1 20  1  0  0  0  0
  2 21  1  0  0  0  0
  2 25  1  0  0  0  0
  3 13  2  0  0  0  0
  4 13  1  0  0  0  0
  4 14  1  0  0  0  0
  4 35  1  0  0  0  0
  5  7  1  0  0  0  0
  5 12  1  0  0  0  0
  5 39  1  0  0  0  0
  6 12  2  0  0  0  0
  6 20  1  0  0  0  0
  7 20  2  0  0  0  0
  8 13  1  0  0  0  0
  8 19  1  0  0  0  0
  8 26  1  0  0  0  0
  9 11  1  0  0  0  0
  9 15  2  0  0  0  0
  9 16  1  0  0  0  0
 10 12  1  0  0  0  0
 10 17  2  0  0  0  0
 10 18  1  0  0  0  0
 11 22  1  0  0  0  0
 11 27  1  0  0  0  0
 11 28  1  0  0  0  0
 14 21  1  0  0  0  0
 14 29  1  0  0  0  0
 14 30  1  0  0  0  0
 15 17  1  0  0  0  0
 15 31  1  0  0  0  0
 16 18  2  0  0  0  0
 16 32  1  0  0  0  0
 17 33  1  0  0  0  0
 18 34  1  0  0  0  0
 19 36  1  0  0  0  0
 19 37  1  0  0  0  0
 19 38  1  0  0  0  0
 21 23  2  0  0  0  0
 22 40  1  0  0  0  0
 22 41  1  0  0  0  0
 22 42  1  0  0  0  0
 23 24  1  0  0  0  0
 23 43  1  0  0  0  0
 24 25  2  0  0  0  0
 24 44  1  0  0  0  0
 25 45  1  0  0  0  0
M  END
> <PUBCHEM_COMPOUND_CID>
17395710

> <PUBCHEM_COMPOUND_CANONICALIZED>
1

> <PUBCHEM_CACTVS_COMPLEXITY>
431

> <PUBCHEM_CACTVS_HBOND_ACCEPTOR>
5

> <PUBCHEM_CACTVS_HBOND_DONOR>
2

> <PUBCHEM_CACTVS_ROTATABLE_BOND>
7

> <PUBCHEM_CACTVS_SUBSKEYS>
AAADceB7oABgAAAAAAAAAAAAAAAAAWJAAAAwAAAAAAAAAAAB8AAAHgQYAAAADADF2wSzEYbrEAiuAiNyNACT0IvgCLBdqLkoBJiIKKKgmRGEIAhgngKoiAcQgMAOQAAAAAAAAACAAAAAAAAAAAAAAAAAAA==

> <PUBCHEM_IUPAC_OPENEYE_NAME>
2-[[5-(4-ethylphenyl)-1H-1,2,4-triazol-3-yl]sulfanyl]-N-(2-thienylmethyl)propanamide

> <PUBCHEM_IUPAC_CAS_NAME>
2-[[5-(4-ethylphenyl)-1H-1,2,4-triazol-3-yl]thio]-N-(thiophen-2-ylmethyl)propanamide

> <PUBCHEM_IUPAC_NAME>
2-[[5-(4-ethylphenyl)-1H-1,2,4-triazol-3-yl]sulfanyl]-N-(thiophen-2-ylmethyl)propanamide

> <PUBCHEM_IUPAC_SYSTEMATIC_NAME>
2-[[5-(4-ethylphenyl)-1H-1,2,4-triazol-3-yl]sulfanyl]-N-(thiophen-2-ylmethyl)propanamide

> <PUBCHEM_IUPAC_TRADITIONAL_NAME>
2-[[5-(4-ethylphenyl)-1H-1,2,4-triazol-3-yl]thio]-N-(2-thenyl)propionamide

> <PUBCHEM_IUPAC_INCHI>
InChI=1S/C18H20N4OS2/c1-3-13-6-8-14(9-7-13)16-20-18(22-21-16)25-12(2)17(23)19-11-15-5-4-10-24-15/h4-10,12H,3,11H2,1-2H3,(H,19,23)(H,20,21,22)

> <PUBCHEM_IUPAC_INCHIKEY>
ODWVJWDJCOSAKZ-UHFFFAOYSA-N

> <PUBCHEM_XLOGP3_AA>
4.2

> <PUBCHEM_EXACT_MASS>
372.107853

> <PUBCHEM_MOLECULAR_FORMULA>
C18H20N4OS2

> <PUBCHEM_MOLECULAR_WEIGHT>
372.5076

> <PUBCHEM_OPENEYE_CAN_SMILES>
CCC1=CC=C(C=C1)C2=NC(=NN2)SC(C)C(=O)NCC3=CC=CS3

> <PUBCHEM_OPENEYE_ISO_SMILES>
CCC1=CC=C(C=C1)C2=NC(=NN2)SC(C)C(=O)NCC3=CC=CS3

> <PUBCHEM_CACTVS_TPSA>
124

> <PUBCHEM_MONOISOTOPIC_WEIGHT>
372.107853

> <PUBCHEM_TOTAL_CHARGE>
0

> <PUBCHEM_HEAVY_ATOM_COUNT>
25

> <PUBCHEM_ATOM_DEF_STEREO_COUNT>
0

> <PUBCHEM_ATOM_UDEF_STEREO_COUNT>
1

> <PUBCHEM_BOND_DEF_STEREO_COUNT>
0

> <PUBCHEM_BOND_UDEF_STEREO_COUNT>
0

> <PUBCHEM_ISOTOPIC_ATOM_COUNT>
0

> <PUBCHEM_COMPONENT_COUNT>
1

> <PUBCHEM_CACTVS_TAUTO_COUNT>
6

> <PUBCHEM_COORDINATE_TYPE>
1
5
255

> <PUBCHEM_BONDANNOTATIONS>
10  17  8
10  18  8
15  17  8
16  18  8
2  21  8
2  25  8
21  23  8
23  24  8
24  25  8
5  12  8
5  7  8
6  12  8
6  20  8
7  20  8
8  19  3
9  15  8
9  16  8

$$$$

