9218
  -OEChem-06261203313D

 19 21  0     1  0  0  0  0  0999 V2000
    2.3054   -1.1735   -0.3480 O   0  0  0  0  0  0  0  0  0  0  0  0
    2.4746    1.1747   -0.0164 O   0  0  0  0  0  0  0  0  0  0  0  0
   -2.3805    1.1998   -0.0973 N   0  0  0  0  0  0  0  0  0  0  0  0
    1.2365   -0.7671    0.4963 C   0  0  1  0  0  0  0  0  0  0  0  0
    1.2060    0.7008    0.2485 C   0  0  0  0  0  0  0  0  0  0  0  0
   -0.0527   -1.4703    0.2050 C   0  0  0  0  0  0  0  0  0  0  0  0
   -1.1717   -0.7620    0.0462 C   0  0  0  0  0  0  0  0  0  0  0  0
   -1.1736    0.7201    0.0316 C   0  0  0  0  0  0  0  0  0  0  0  0
    0.1063    1.4459    0.0800 C   0  0  0  0  0  0  0  0  0  0  0  0
    3.1817   -0.0338   -0.3439 C   0  0  0  0  0  0  0  0  0  0  0  0
   -2.5445   -1.1061   -0.1208 C   0  0  0  0  0  0  0  0  0  0  0  0
   -3.1876    0.0715   -0.1813 C   0  0  0  0  0  0  0  0  0  0  0  0
    1.5269   -0.9689    1.5351 H   0  0  0  0  0  0  0  0  0  0  0  0
   -0.0767   -2.5550    0.2216 H   0  0  0  0  0  0  0  0  0  0  0  0
    0.1304    2.5035   -0.1463 H   0  0  0  0  0  0  0  0  0  0  0  0
    3.6374    0.0680   -1.3337 H   0  0  0  0  0  0  0  0  0  0  0  0
    3.9717   -0.1936    0.3984 H   0  0  0  0  0  0  0  0  0  0  0  0
   -2.9711   -2.0927   -0.1676 H   0  0  0  0  0  0  0  0  0  0  0  0
   -4.2560    0.1886   -0.2969 H   0  0  0  0  0  0  0  0  0  0  0  0
  1  4  1  0  0  0  0
  1 10  1  0  0  0  0
  2  5  1  0  0  0  0
  2 10  1  0  0  0  0
  3  8  2  0  0  0  0
  3 12  1  0  0  0  0
  4  5  1  0  0  0  0
  4  6  1  0  0  0  0
  4 13  1  0  0  0  0
  5  9  2  0  0  0  0
  6  7  2  0  0  0  0
  6 14  1  0  0  0  0
  7  8  1  0  0  0  0
  7 11  1  0  0  0  0
  8  9  1  0  0  0  0
  9 15  1  0  0  0  0
 10 16  1  0  0  0  0
 10 17  1  0  0  0  0
 11 12  2  0  0  0  0
 11 18  1  0  0  0  0
 12 19  1  0  0  0  0
M  END
> <PUBCHEM_COMPOUND_CID>
9218

> <PUBCHEM_CONFORMER_RMSD>
0.4

> <PUBCHEM_CONFORMER_DIVERSEORDER>
1
2

> <PUBCHEM_MMFF94_PARTIAL_CHARGES>
16
1 -0.56
10 0.56
11 -0.15
12 0.02
14 0.15
15 0.15
18 0.15
19 0.15
2 -0.36
3 -0.62
4 0.56
5 -0.06
6 -0.29
7 0.01
8 0.42
9 -0.14

> <PUBCHEM_EFFECTIVE_ROTOR_COUNT>
0.6

> <PUBCHEM_PHARMACOPHORE_FEATURES>
6
1 1 acceptor
1 2 acceptor
1 3 acceptor
5 1 2 4 5 10 rings
5 3 7 8 11 12 rings
6 4 5 6 7 8 9 rings

> <PUBCHEM_HEAVY_ATOM_COUNT>
12

> <PUBCHEM_ATOM_DEF_STEREO_COUNT>
0

> <PUBCHEM_ATOM_UDEF_STEREO_COUNT>
1

> <PUBCHEM_BOND_DEF_STEREO_COUNT>
0

> <PUBCHEM_BOND_UDEF_STEREO_COUNT>
0

> <PUBCHEM_ISOTOPIC_ATOM_COUNT>
0

> <PUBCHEM_COMPONENT_COUNT>
1

> <PUBCHEM_CACTVS_TAUTO_COUNT>
1

> <PUBCHEM_CONFORMER_ID>
0000240200000001

> <PUBCHEM_MMFF94_ENERGY>
36.5116

> <PUBCHEM_FEATURE_SELFOVERLAP>
30.733

> <PUBCHEM_SHAPE_FINGERPRINT>
10608611 8 18410297990564046913
11206711 2 18413395336605168909
12032990 46 18410848846042355123
12897270 3 18411420613405093751
14325111 11 18411138026095306321
15775835 57 18343579676571989117
16945 1 18338800009352800179
17844478 74 18131057226234460969
193761 8 17618505827360011715
20201158 50 18408040723430807422
21040471 1 18339648845198501418
23402655 69 18265350554729217245
23463225 33 18341898549263558882
23552423 10 18343302560944846823
23559900 14 18334856143813950150
2748010 2 18411140199338052725
369184 2 18260830384442440625
5084963 1 18260548909354992859
528886 8 18410860966350146947
53812653 166 18334864874527856520
7364860 26 18117841001642313296

> <PUBCHEM_SHAPE_MULTIPOLES>
230.23
4.61
1.55
0.65
0.16
0.02
0.01
0
-0.64
-0.03
0.03
0.06
-0.04
0.04

> <PUBCHEM_SHAPE_SELFOVERLAP>
518.638

> <PUBCHEM_SHAPE_VOLUME>
122.6

> <PUBCHEM_COORDINATE_TYPE>
2
5
10

$$$$

