17395859
  -OEChem-06241222522D

 49 52  0     1  0  0  0  0  0999 V2000
    5.7161    1.3164    0.0000 O   0  0  0  0  0  0  0  0  0  0  0  0
    3.9609   -1.7238    0.0000 O   0  0  0  0  0  0  0  0  0  0  0  0
    5.0749   -0.3402    0.0000 N   0  0  0  0  0  0  0  0  0  0  0  0
    6.8069   -0.3402    0.0000 N   0  0  3  0  0  0  0  0  0  0  0  0
    3.5000   -0.0083    0.0000 C   0  0  3  0  0  0  0  0  0  0  0  0
    4.0000    0.8578    0.0000 C   0  0  3  0  0  0  0  0  0  0  0  0
    2.5000   -0.0083    0.0000 C   0  0  0  0  0  0  0  0  0  0  0  0
    3.5000    1.7238    0.0000 C   0  0  0  0  0  0  0  0  0  0  0  0
    2.0000    0.8578    0.0000 C   0  0  0  0  0  0  0  0  0  0  0  0
    2.5000    1.7238    0.0000 C   0  0  0  0  0  0  0  0  0  0  0  0
    4.9718    0.6486    0.0000 C   0  0  0  0  0  0  0  0  0  0  0  0
    4.1671   -0.7453    0.0000 C   0  0  0  0  0  0  0  0  0  0  0  0
    5.9409   -0.8402    0.0000 C   0  0  0  0  0  0  0  0  0  0  0  0
    7.6730   -0.8402    0.0000 C   0  0  0  0  0  0  0  0  0  0  0  0
    6.8069    0.6598    0.0000 C   0  0  0  0  0  0  0  0  0  0  0  0
    8.5390   -0.3402    0.0000 C   0  0  0  0  0  0  0  0  0  0  0  0
    9.4050   -0.8402    0.0000 C   0  0  0  0  0  0  0  0  0  0  0  0
    8.5390    0.6598    0.0000 C   0  0  0  0  0  0  0  0  0  0  0  0
   10.2710   -0.3402    0.0000 C   0  0  0  0  0  0  0  0  0  0  0  0
   10.2710    0.6598    0.0000 C   0  0  0  0  0  0  0  0  0  0  0  0
    9.4050    1.1598    0.0000 C   0  0  0  0  0  0  0  0  0  0  0  0
   11.1650   -0.8748    0.0000 C   0  0  0  0  0  0  0  0  0  0  0  0
   11.1650    1.1945    0.0000 C   0  0  0  0  0  0  0  0  0  0  0  0
   12.0710   -0.3610    0.0000 C   0  0  0  0  0  0  0  0  0  0  0  0
   12.0710    0.6806    0.0000 C   0  0  0  0  0  0  0  0  0  0  0  0
    4.3651    1.3589    0.0000 H   0  0  0  0  0  0  0  0  0  0  0  0
    3.2486   -0.5750    0.0000 H   0  0  0  0  0  0  0  0  0  0  0  0
    4.0826    1.9358    0.0000 H   0  0  0  0  0  0  0  0  0  0  0  0
    3.3923    2.3344    0.0000 H   0  0  0  0  0  0  0  0  0  0  0  0
    1.9174   -0.2203    0.0000 H   0  0  0  0  0  0  0  0  0  0  0  0
    2.6077   -0.6188    0.0000 H   0  0  0  0  0  0  0  0  0  0  0  0
    2.6077    2.3344    0.0000 H   0  0  0  0  0  0  0  0  0  0  0  0
    1.9174    1.9358    0.0000 H   0  0  0  0  0  0  0  0  0  0  0  0
    1.5250    1.2563    0.0000 H   0  0  0  0  0  0  0  0  0  0  0  0
    1.5250    0.4592    0.0000 H   0  0  0  0  0  0  0  0  0  0  0  0
    5.5424   -1.3151    0.0000 H   0  0  0  0  0  0  0  0  0  0  0  0
    6.3394   -1.3151    0.0000 H   0  0  0  0  0  0  0  0  0  0  0  0
    7.2744   -1.3151    0.0000 H   0  0  0  0  0  0  0  0  0  0  0  0
    8.0715   -1.3151    0.0000 H   0  0  0  0  0  0  0  0  0  0  0  0
    7.4269    0.6598    0.0000 H   0  0  0  0  0  0  0  0  0  0  0  0
    6.8069    1.2798    0.0000 H   0  0  0  0  0  0  0  0  0  0  0  0
    6.1869    0.6598    0.0000 H   0  0  0  0  0  0  0  0  0  0  0  0
    9.4050   -1.4602    0.0000 H   0  0  0  0  0  0  0  0  0  0  0  0
    8.0020    0.9698    0.0000 H   0  0  0  0  0  0  0  0  0  0  0  0
    9.4050    1.7798    0.0000 H   0  0  0  0  0  0  0  0  0  0  0  0
   11.1578   -1.4948    0.0000 H   0  0  0  0  0  0  0  0  0  0  0  0
   11.1578    1.8144    0.0000 H   0  0  0  0  0  0  0  0  0  0  0  0
   12.6068   -0.6730    0.0000 H   0  0  0  0  0  0  0  0  0  0  0  0
   12.6068    0.9927    0.0000 H   0  0  0  0  0  0  0  0  0  0  0  0
  1 11  2  0  0  0  0
  2 12  2  0  0  0  0
  3 11  1  0  0  0  0
  3 12  1  0  0  0  0
  3 13  1  0  0  0  0
  4 13  1  0  0  0  0
  4 14  1  0  0  0  0
  4 15  1  0  0  0  0
  5  6  1  0  0  0  0
  5  7  1  0  0  0  0
  5 12  1  0  0  0  0
  5 27  1  0  0  0  0
  6  8  1  0  0  0  0
  6 11  1  0  0  0  0
  6 26  1  0  0  0  0
  7  9  1  0  0  0  0
  7 30  1  0  0  0  0
  7 31  1  0  0  0  0
  8 10  1  0  0  0  0
  8 28  1  0  0  0  0
  8 29  1  0  0  0  0
  9 10  1  0  0  0  0
  9 34  1  0  0  0  0
  9 35  1  0  0  0  0
 10 32  1  0  0  0  0
 10 33  1  0  0  0  0
 13 36  1  0  0  0  0
 13 37  1  0  0  0  0
 14 16  1  0  0  0  0
 14 38  1  0  0  0  0
 14 39  1  0  0  0  0
 15 40  1  0  0  0  0
 15 41  1  0  0  0  0
 15 42  1  0  0  0  0
 16 17  2  0  0  0  0
 16 18  1  0  0  0  0
 17 19  1  0  0  0  0
 17 43  1  0  0  0  0
 18 21  2  0  0  0  0
 18 44  1  0  0  0  0
 19 20  1  0  0  0  0
 19 22  2  0  0  0  0
 20 21  1  0  0  0  0
 20 23  2  0  0  0  0
 21 45  1  0  0  0  0
 22 24  1  0  0  0  0
 22 46  1  0  0  0  0
 23 25  1  0  0  0  0
 23 47  1  0  0  0  0
 24 25  2  0  0  0  0
 24 48  1  0  0  0  0
 25 49  1  0  0  0  0
M  END
> <PUBCHEM_COMPOUND_CID>
17395859

> <PUBCHEM_COMPOUND_CANONICALIZED>
1

> <PUBCHEM_CACTVS_COMPLEXITY>
496

> <PUBCHEM_CACTVS_HBOND_ACCEPTOR>
3

> <PUBCHEM_CACTVS_HBOND_DONOR>
0

> <PUBCHEM_CACTVS_ROTATABLE_BOND>
4

> <PUBCHEM_CACTVS_SUBSKEYS>
AAADceB7MAAAAAAAAAAAAAAAAAAAAWAAAAAwYMAAAAAAAFjBUAAAHgAAAAAADQDBmAQzAMMAAACIAiFSEACCAAAgAAAIiAEIBIiIIDKAkRGEIAhohyKIiAcdiMCOwAACAAAQAACAAAQAACAAAAAAAAAAAA==

> <PUBCHEM_IUPAC_OPENEYE_NAME>
2-[[methyl(2-naphthylmethyl)amino]methyl]-3a,4,5,6,7,7a-hexahydroisoindole-1,3-dione

> <PUBCHEM_IUPAC_CAS_NAME>
2-[[methyl(2-naphthalenylmethyl)amino]methyl]-3a,4,5,6,7,7a-hexahydroisoindole-1,3-dione

> <PUBCHEM_IUPAC_NAME>
2-[[methyl(naphthalen-2-ylmethyl)amino]methyl]-3a,4,5,6,7,7a-hexahydroisoindole-1,3-dione

> <PUBCHEM_IUPAC_SYSTEMATIC_NAME>
2-[[methyl(naphthalen-2-ylmethyl)amino]methyl]-3a,4,5,6,7,7a-hexahydroisoindole-1,3-dione

> <PUBCHEM_IUPAC_TRADITIONAL_NAME>
2-[[methyl(2-naphthylmethyl)amino]methyl]-3a,4,5,6,7,7a-hexahydroisoindole-1,3-quinone

> <PUBCHEM_IUPAC_INCHI>
InChI=1S/C21H24N2O2/c1-22(13-15-10-11-16-6-2-3-7-17(16)12-15)14-23-20(24)18-8-4-5-9-19(18)21(23)25/h2-3,6-7,10-12,18-19H,4-5,8-9,13-14H2,1H3

> <PUBCHEM_IUPAC_INCHIKEY>
FZCNOWJGCOJXJH-UHFFFAOYSA-N

> <PUBCHEM_XLOGP3_AA>
3.7

> <PUBCHEM_EXACT_MASS>
336.183778

> <PUBCHEM_MOLECULAR_FORMULA>
C21H24N2O2

> <PUBCHEM_MOLECULAR_WEIGHT>
336.42746

> <PUBCHEM_OPENEYE_CAN_SMILES>
CN(CC1=CC2=CC=CC=C2C=C1)CN3C(=O)C4CCCCC4C3=O

> <PUBCHEM_OPENEYE_ISO_SMILES>
CN(CC1=CC2=CC=CC=C2C=C1)CN3C(=O)C4CCCCC4C3=O

> <PUBCHEM_CACTVS_TPSA>
40.6

> <PUBCHEM_MONOISOTOPIC_WEIGHT>
336.183778

> <PUBCHEM_TOTAL_CHARGE>
0

> <PUBCHEM_HEAVY_ATOM_COUNT>
25

> <PUBCHEM_ATOM_DEF_STEREO_COUNT>
0

> <PUBCHEM_ATOM_UDEF_STEREO_COUNT>
2

> <PUBCHEM_BOND_DEF_STEREO_COUNT>
0

> <PUBCHEM_BOND_UDEF_STEREO_COUNT>
0

> <PUBCHEM_ISOTOPIC_ATOM_COUNT>
0

> <PUBCHEM_COMPONENT_COUNT>
1

> <PUBCHEM_CACTVS_TAUTO_COUNT>
3

> <PUBCHEM_COORDINATE_TYPE>
1
5
255

> <PUBCHEM_BONDANNOTATIONS>
16  17  8
16  18  8
17  19  8
18  21  8
19  20  8
19  22  8
20  21  8
20  23  8
22  24  8
23  25  8
24  25  8
5  7  3
6  8  3

$$$$

