8281
  -OEChem-06261202422D

 31 31  0     0  0  0  0  0  0999 V2000
    3.0000    0.1550    0.0000 S   0  0  0  0  0  0  0  0  0  0  0  0
    4.0000    0.1550    0.0000 O   0  0  0  0  0  0  0  0  0  0  0  0
    2.0000    0.1550    0.0000 O   0  0  0  0  0  0  0  0  0  0  0  0
    4.7320    1.1550    0.0000 O   0  0  0  0  0  0  0  0  0  0  0  0
    3.0000    1.1550    0.0000 N   0  0  0  0  0  0  0  0  0  0  0  0
    3.0000   -3.8450    0.0000 N   0  0  0  0  0  0  0  0  0  0  0  0
    3.0000   -0.8450    0.0000 C   0  0  0  0  0  0  0  0  0  0  0  0
    2.1340   -1.3450    0.0000 C   0  0  0  0  0  0  0  0  0  0  0  0
    3.8660   -1.3450    0.0000 C   0  0  0  0  0  0  0  0  0  0  0  0
    3.0000   -2.8450    0.0000 C   0  0  0  0  0  0  0  0  0  0  0  0
    2.1340   -2.3450    0.0000 C   0  0  0  0  0  0  0  0  0  0  0  0
    3.8660   -2.3450    0.0000 C   0  0  0  0  0  0  0  0  0  0  0  0
    3.8660    1.6550    0.0000 C   0  0  0  0  0  0  0  0  0  0  0  0
    4.7320    3.1550    0.0000 C   0  0  0  0  0  0  0  0  0  0  0  0
    3.8660    2.6550    0.0000 C   0  0  0  0  0  0  0  0  0  0  0  0
    4.7320    4.1550    0.0000 C   0  0  0  0  0  0  0  0  0  0  0  0
    5.5981    2.6550    0.0000 C   0  0  0  0  0  0  0  0  0  0  0  0
    1.5970   -1.0350    0.0000 H   0  0  0  0  0  0  0  0  0  0  0  0
    4.4030   -1.0350    0.0000 H   0  0  0  0  0  0  0  0  0  0  0  0
    2.4631    1.4650    0.0000 H   0  0  0  0  0  0  0  0  0  0  0  0
    1.5970   -2.6550    0.0000 H   0  0  0  0  0  0  0  0  0  0  0  0
    4.4030   -2.6550    0.0000 H   0  0  0  0  0  0  0  0  0  0  0  0
    3.3291    2.9650    0.0000 H   0  0  0  0  0  0  0  0  0  0  0  0
    5.3520    4.1550    0.0000 H   0  0  0  0  0  0  0  0  0  0  0  0
    4.7320    4.7750    0.0000 H   0  0  0  0  0  0  0  0  0  0  0  0
    4.1120    4.1550    0.0000 H   0  0  0  0  0  0  0  0  0  0  0  0
    5.2881    2.1181    0.0000 H   0  0  0  0  0  0  0  0  0  0  0  0
    6.1350    2.3450    0.0000 H   0  0  0  0  0  0  0  0  0  0  0  0
    5.9081    3.1919    0.0000 H   0  0  0  0  0  0  0  0  0  0  0  0
    2.4631   -4.1550    0.0000 H   0  0  0  0  0  0  0  0  0  0  0  0
    3.5369   -4.1550    0.0000 H   0  0  0  0  0  0  0  0  0  0  0  0
  1  2  2  0  0  0  0
  1  3  2  0  0  0  0
  1  5  1  0  0  0  0
  1  7  1  0  0  0  0
  4 13  2  0  0  0  0
  5 13  1  0  0  0  0
  5 20  1  0  0  0  0
  6 10  1  0  0  0  0
  6 30  1  0  0  0  0
  6 31  1  0  0  0  0
  7  8  2  0  0  0  0
  7  9  1  0  0  0  0
  8 11  1  0  0  0  0
  8 18  1  0  0  0  0
  9 12  2  0  0  0  0
  9 19  1  0  0  0  0
 10 11  2  0  0  0  0
 10 12  1  0  0  0  0
 11 21  1  0  0  0  0
 12 22  1  0  0  0  0
 13 15  1  0  0  0  0
 14 15  2  0  0  0  0
 14 16  1  0  0  0  0
 14 17  1  0  0  0  0
 15 23  1  0  0  0  0
 16 24  1  0  0  0  0
 16 25  1  0  0  0  0
 16 26  1  0  0  0  0
 17 27  1  0  0  0  0
 17 28  1  0  0  0  0
 17 29  1  0  0  0  0
M  END
> <PUBCHEM_COMPOUND_CID>
8281

> <PUBCHEM_COMPOUND_CANONICALIZED>
1

> <PUBCHEM_CACTVS_COMPLEXITY>
397

> <PUBCHEM_CACTVS_HBOND_ACCEPTOR>
4

> <PUBCHEM_CACTVS_HBOND_DONOR>
2

> <PUBCHEM_CACTVS_ROTATABLE_BOND>
3

> <PUBCHEM_CACTVS_SUBSKEYS>
AAADccBzMABAAAAAAAAAAAAAAAAAAAAAAAAwAAAAAAAAAAABAAAAHgQQQAAADAiB0AAywYBAAAKIAiVSUHDCABAgAgAIiBgAZMgIICKAkZGAIABgkAAIyQcQAAAAAAQAAAAAAAAACAAAAAAAAAAAAAAAAA==

> <PUBCHEM_IUPAC_OPENEYE_NAME>
N-(4-aminophenyl)sulfonyl-3-methyl-but-2-enamide

> <PUBCHEM_IUPAC_CAS_NAME>
N-(4-aminophenyl)sulfonyl-3-methyl-2-butenamide

> <PUBCHEM_IUPAC_NAME>
N-(4-aminophenyl)sulfonyl-3-methylbut-2-enamide

> <PUBCHEM_IUPAC_SYSTEMATIC_NAME>
N-(4-aminophenyl)sulfonyl-3-methyl-but-2-enamide

> <PUBCHEM_IUPAC_TRADITIONAL_NAME>
3-methyl-N-sulfanilyl-but-2-enamide

> <PUBCHEM_IUPAC_INCHI>
InChI=1S/C11H14N2O3S/c1-8(2)7-11(14)13-17(15,16)10-5-3-9(12)4-6-10/h3-7H,12H2,1-2H3,(H,13,14)

> <PUBCHEM_IUPAC_INCHIKEY>
XRVJPLDTMUSSDE-UHFFFAOYSA-N

> <PUBCHEM_XLOGP3>
0.5

> <PUBCHEM_EXACT_MASS>
254.072513

> <PUBCHEM_MOLECULAR_FORMULA>
C11H14N2O3S

> <PUBCHEM_MOLECULAR_WEIGHT>
254.30546

> <PUBCHEM_OPENEYE_CAN_SMILES>
CC(=CC(=O)NS(=O)(=O)C1=CC=C(C=C1)N)C

> <PUBCHEM_OPENEYE_ISO_SMILES>
CC(=CC(=O)NS(=O)(=O)C1=CC=C(C=C1)N)C

> <PUBCHEM_CACTVS_TPSA>
97.6

> <PUBCHEM_MONOISOTOPIC_WEIGHT>
254.072513

> <PUBCHEM_TOTAL_CHARGE>
0

> <PUBCHEM_HEAVY_ATOM_COUNT>
17

> <PUBCHEM_ATOM_DEF_STEREO_COUNT>
0

> <PUBCHEM_ATOM_UDEF_STEREO_COUNT>
0

> <PUBCHEM_BOND_DEF_STEREO_COUNT>
0

> <PUBCHEM_BOND_UDEF_STEREO_COUNT>
0

> <PUBCHEM_ISOTOPIC_ATOM_COUNT>
0

> <PUBCHEM_COMPONENT_COUNT>
1

> <PUBCHEM_CACTVS_TAUTO_COUNT>
2

> <PUBCHEM_COORDINATE_TYPE>
1
5
255

> <PUBCHEM_BONDANNOTATIONS>
10  11  8
10  12  8
7  8  8
7  9  8
8  11  8
9  12  8

$$$$

