4985
  -OEChem-06261200272D

 24 25  0     0  0  0  0  0  0999 V2000
    5.5289   -1.0833    0.0000 O   0  0  0  0  0  0  0  0  0  0  0  0
    6.2119    0.1880    0.0000 O   0  0  0  0  0  0  0  0  0  0  0  0
    3.8455   -2.2501    0.0000 O   0  0  0  0  0  0  0  0  0  0  0  0
    6.6275    2.0089    0.0000 O   0  0  0  0  0  0  0  0  0  0  0  0
    2.0000   -1.3614    0.0000 O   0  0  0  0  0  0  0  0  0  0  0  0
    4.5291    0.3776    0.0000 C   0  0  0  0  0  0  0  0  0  0  0  0
    3.6282    0.8115    0.0000 C   0  0  0  0  0  0  0  0  0  0  0  0
    4.6230   -0.6598    0.0000 C   0  0  0  0  0  0  0  0  0  0  0  0
    5.4301    0.8115    0.0000 C   0  0  0  0  0  0  0  0  0  0  0  0
    2.7586    0.2380    0.0000 C   0  0  0  0  0  0  0  0  0  0  0  0
    3.4056    1.7864    0.0000 C   0  0  0  0  0  0  0  0  0  0  0  0
    3.7669   -1.2532    0.0000 C   0  0  0  0  0  0  0  0  0  0  0  0
    2.8284   -0.8013    0.0000 C   0  0  0  0  0  0  0  0  0  0  0  0
    5.6526    1.7864    0.0000 C   0  0  0  0  0  0  0  0  0  0  0  0
    4.0291    2.5682    0.0000 C   0  0  0  0  0  0  0  0  0  0  0  0
    5.0291    2.5682    0.0000 C   0  0  0  0  0  0  0  0  0  0  0  0
    2.2031    0.5135    0.0000 H   0  0  0  0  0  0  0  0  0  0  0  0
    2.8012    1.9243    0.0000 H   0  0  0  0  0  0  0  0  0  0  0  0
    3.7601    3.1268    0.0000 H   0  0  0  0  0  0  0  0  0  0  0  0
    5.2981    3.1268    0.0000 H   0  0  0  0  0  0  0  0  0  0  0  0
    5.5824   -1.7010    0.0000 H   0  0  0  0  0  0  0  0  0  0  0  0
    6.7891    0.4145    0.0000 H   0  0  0  0  0  0  0  0  0  0  0  0
    3.3345   -2.6014    0.0000 H   0  0  0  0  0  0  0  0  0  0  0  0
    6.8103    2.6014    0.0000 H   0  0  0  0  0  0  0  0  0  0  0  0
  1  8  1  0  0  0  0
  1 21  1  0  0  0  0
  2  9  1  0  0  0  0
  2 22  1  0  0  0  0
  3 12  1  0  0  0  0
  3 23  1  0  0  0  0
  4 14  1  0  0  0  0
  4 24  1  0  0  0  0
  5 13  2  0  0  0  0
  6  7  1  0  0  0  0
  6  8  1  0  0  0  0
  6  9  2  0  0  0  0
  7 10  2  0  0  0  0
  7 11  1  0  0  0  0
  8 12  2  0  0  0  0
  9 14  1  0  0  0  0
 10 13  1  0  0  0  0
 10 17  1  0  0  0  0
 11 15  2  0  0  0  0
 11 18  1  0  0  0  0
 12 13  1  0  0  0  0
 14 16  2  0  0  0  0
 15 16  1  0  0  0  0
 15 19  1  0  0  0  0
 16 20  1  0  0  0  0
M  END
> <PUBCHEM_COMPOUND_CID>
4985

> <PUBCHEM_COMPOUND_CANONICALIZED>
1

> <PUBCHEM_CACTVS_COMPLEXITY>
529

> <PUBCHEM_CACTVS_HBOND_ACCEPTOR>
5

> <PUBCHEM_CACTVS_HBOND_DONOR>
4

> <PUBCHEM_CACTVS_ROTATABLE_BOND>
0

> <PUBCHEM_CACTVS_SUBSKEYS>
AAADccBwOAAAAAAAAAAAAAAAAAAAAAAAAAAgAAAABAAAAAAAAAAAGgAACAAADASAgAAAAAAAAgCIAqBSAAIAAAAgIAAICABAAEgJBAAAAQAAUAAEwAAJkQIAAAAAAAAAAAAAAAAAAAAAAAAAAAAAAAAAAA==

> <PUBCHEM_IUPAC_OPENEYE_NAME>
3,4,5,6-tetrahydroxybenzo[7]annulen-2-one

> <PUBCHEM_IUPAC_CAS_NAME>
3,4,5,6-tetrahydroxy-2-benzo[7]annulenone

> <PUBCHEM_IUPAC_NAME>
3,4,5,6-tetrahydroxybenzo[7]annulen-2-one

> <PUBCHEM_IUPAC_SYSTEMATIC_NAME>
3,4,5,6-tetrakis(oxidanyl)benzo[7]annulen-2-one

> <PUBCHEM_IUPAC_TRADITIONAL_NAME>
3,4,5,6-tetrahydroxybenzocyclohepten-2-one

> <PUBCHEM_IUPAC_INCHI>
InChI=1S/C11H8O5/c12-6-3-1-2-5-4-7(13)10(15)11(16)8(5)9(6)14/h1-4,12,14-16H

> <PUBCHEM_IUPAC_INCHIKEY>
FNNYVFUCKBFYJX-UHFFFAOYSA-N

> <PUBCHEM_XLOGP3_AA>
0.5

> <PUBCHEM_EXACT_MASS>
220.037173

> <PUBCHEM_MOLECULAR_FORMULA>
C11H8O5

> <PUBCHEM_MOLECULAR_WEIGHT>
220.17822

> <PUBCHEM_OPENEYE_CAN_SMILES>
C1=CC2=CC(=O)C(=C(C2=C(C(=C1)O)O)O)O

> <PUBCHEM_OPENEYE_ISO_SMILES>
C1=CC2=CC(=O)C(=C(C2=C(C(=C1)O)O)O)O

> <PUBCHEM_CACTVS_TPSA>
98

> <PUBCHEM_MONOISOTOPIC_WEIGHT>
220.037173

> <PUBCHEM_TOTAL_CHARGE>
0

> <PUBCHEM_HEAVY_ATOM_COUNT>
16

> <PUBCHEM_ATOM_DEF_STEREO_COUNT>
0

> <PUBCHEM_ATOM_UDEF_STEREO_COUNT>
0

> <PUBCHEM_BOND_DEF_STEREO_COUNT>
0

> <PUBCHEM_BOND_UDEF_STEREO_COUNT>
0

> <PUBCHEM_ISOTOPIC_ATOM_COUNT>
0

> <PUBCHEM_COMPONENT_COUNT>
1

> <PUBCHEM_CACTVS_TAUTO_COUNT>
164

> <PUBCHEM_COORDINATE_TYPE>
1
5
255

> <PUBCHEM_BONDANNOTATIONS>
10  13  8
11  15  8
12  13  8
14  16  8
15  16  8
6  8  8
6  9  8
7  10  8
7  11  8
8  12  8
9  14  8

$$$$

