17395722
  -OEChem-06241222522D

 42 44  0     0  0  0  0  0  0999 V2000
    3.8163    3.1854    0.0000 S   0  0  0  0  0  0  0  0  0  0  0  0
    4.6783   -4.4863    0.0000 O   0  0  0  0  0  0  0  0  0  0  0  0
    3.9639    0.5128    0.0000 O   0  0  0  0  0  0  0  0  0  0  0  0
    6.7619   -2.8156    0.0000 O   0  0  0  0  0  0  0  0  0  0  0  0
    3.3426   -1.3883    0.0000 O   0  0  0  0  0  0  0  0  0  0  0  0
    5.2531    1.6695    0.0000 O   0  0  0  0  0  0  0  0  0  0  0  0
    4.9889   -1.9263    0.0000 N   0  0  0  0  0  0  0  0  0  0  0  0
    2.2069    3.0190    0.0000 N   0  0  0  0  0  0  0  0  0  0  0  0
    3.7320   -3.1816    0.0000 C   0  0  0  0  0  0  0  0  0  0  0  0
    4.6783   -2.8769    0.0000 C   0  0  0  0  0  0  0  0  0  0  0  0
    3.7320   -4.1816    0.0000 C   0  0  0  0  0  0  0  0  0  0  0  0
    5.2619   -3.6816    0.0000 C   0  0  0  0  0  0  0  0  0  0  0  0
    2.8660   -2.6816    0.0000 C   0  0  0  0  0  0  0  0  0  0  0  0
    2.8660   -4.6816    0.0000 C   0  0  0  0  0  0  0  0  0  0  0  0
    2.0000   -3.1816    0.0000 C   0  0  0  0  0  0  0  0  0  0  0  0
    6.2619   -3.6816    0.0000 C   0  0  0  0  0  0  0  0  0  0  0  0
    2.0000   -4.1816    0.0000 C   0  0  0  0  0  0  0  0  0  0  0  0
    4.3211   -1.1820    0.0000 C   0  0  0  0  0  0  0  0  0  0  0  0
    4.6318   -0.2315    0.0000 C   0  0  0  0  0  0  0  0  0  0  0  0
    3.6067    2.2076    0.0000 C   0  0  0  0  0  0  0  0  0  0  0  0
    2.6120    2.1048    0.0000 C   0  0  0  0  0  0  0  0  0  0  0  0
    6.7619   -4.5476    0.0000 C   0  0  0  0  0  0  0  0  0  0  0  0
    4.2746    1.4633    0.0000 C   0  0  0  0  0  0  0  0  0  0  0  0
    2.9512    3.6869    0.0000 C   0  0  0  0  0  0  0  0  0  0  0  0
    2.1105    1.2396    0.0000 C   0  0  0  0  0  0  0  0  0  0  0  0
    2.8484    4.6816    0.0000 C   0  0  0  0  0  0  0  0  0  0  0  0
    2.8660   -2.0616    0.0000 H   0  0  0  0  0  0  0  0  0  0  0  0
    5.5956   -1.7985    0.0000 H   0  0  0  0  0  0  0  0  0  0  0  0
    2.8660   -5.3016    0.0000 H   0  0  0  0  0  0  0  0  0  0  0  0
    1.4631   -2.8716    0.0000 H   0  0  0  0  0  0  0  0  0  0  0  0
    1.4631   -4.4916    0.0000 H   0  0  0  0  0  0  0  0  0  0  0  0
    5.1787   -0.5235    0.0000 H   0  0  0  0  0  0  0  0  0  0  0  0
    5.0143    0.2564    0.0000 H   0  0  0  0  0  0  0  0  0  0  0  0
    6.2249   -4.8576    0.0000 H   0  0  0  0  0  0  0  0  0  0  0  0
    7.0719   -5.0846    0.0000 H   0  0  0  0  0  0  0  0  0  0  0  0
    7.2988   -4.2376    0.0000 H   0  0  0  0  0  0  0  0  0  0  0  0
    1.5741    1.5506    0.0000 H   0  0  0  0  0  0  0  0  0  0  0  0
    1.7996    0.7032    0.0000 H   0  0  0  0  0  0  0  0  0  0  0  0
    2.6469    0.9287    0.0000 H   0  0  0  0  0  0  0  0  0  0  0  0
    3.4651    4.7453    0.0000 H   0  0  0  0  0  0  0  0  0  0  0  0
    2.7846    5.2983    0.0000 H   0  0  0  0  0  0  0  0  0  0  0  0
    2.2316    4.6178    0.0000 H   0  0  0  0  0  0  0  0  0  0  0  0
  1 20  1  0  0  0  0
  1 24  1  0  0  0  0
  2 11  1  0  0  0  0
  2 12  1  0  0  0  0
  3 19  1  0  0  0  0
  3 23  1  0  0  0  0
  4 16  2  0  0  0  0
  5 18  2  0  0  0  0
  6 23  2  0  0  0  0
  7 10  1  0  0  0  0
  7 18  1  0  0  0  0
  7 28  1  0  0  0  0
  8 21  1  0  0  0  0
  8 24  2  0  0  0  0
  9 10  1  0  0  0  0
  9 11  1  0  0  0  0
  9 13  2  0  0  0  0
 10 12  2  0  0  0  0
 11 14  2  0  0  0  0
 12 16  1  0  0  0  0
 13 15  1  0  0  0  0
 13 27  1  0  0  0  0
 14 17  1  0  0  0  0
 14 29  1  0  0  0  0
 15 17  2  0  0  0  0
 15 30  1  0  0  0  0
 16 22  1  0  0  0  0
 17 31  1  0  0  0  0
 18 19  1  0  0  0  0
 19 32  1  0  0  0  0
 19 33  1  0  0  0  0
 20 21  2  0  0  0  0
 20 23  1  0  0  0  0
 21 25  1  0  0  0  0
 22 34  1  0  0  0  0
 22 35  1  0  0  0  0
 22 36  1  0  0  0  0
 24 26  1  0  0  0  0
 25 37  1  0  0  0  0
 25 38  1  0  0  0  0
 25 39  1  0  0  0  0
 26 40  1  0  0  0  0
 26 41  1  0  0  0  0
 26 42  1  0  0  0  0
M  END
> <PUBCHEM_COMPOUND_CID>
17395722

> <PUBCHEM_COMPOUND_CANONICALIZED>
1

> <PUBCHEM_CACTVS_COMPLEXITY>
572

> <PUBCHEM_CACTVS_HBOND_ACCEPTOR>
7

> <PUBCHEM_CACTVS_HBOND_DONOR>
1

> <PUBCHEM_CACTVS_ROTATABLE_BOND>
6

> <PUBCHEM_CACTVS_SUBSKEYS>
AAADceB7OABAAAAAAAAAAAAAAAAAAWJAAAAwAAAAAAAAAEgB/AAAHgQQAAAADAyh3gIyz9LIFEisA6XyXAKC+KBlKDgImBX3TMgOJjrktb+HOajm1Bn46ceYzqDuAAAAAAAIAAAAAAAAABAAAAAAAAAAAA==

> <PUBCHEM_IUPAC_OPENEYE_NAME>
[2-[(2-acetylbenzofuran-3-yl)amino]-2-oxo-ethyl] 2,4-dimethylthiazole-5-carboxylate

> <PUBCHEM_IUPAC_CAS_NAME>
2,4-dimethyl-5-thiazolecarboxylic acid [2-[(2-acetyl-3-benzofuranyl)amino]-2-oxoethyl] ester

> <PUBCHEM_IUPAC_NAME>
[2-[(2-acetyl-1-benzofuran-3-yl)amino]-2-oxoethyl] 2,4-dimethyl-1,3-thiazole-5-carboxylate

> <PUBCHEM_IUPAC_SYSTEMATIC_NAME>
[2-[(2-ethanoyl-1-benzofuran-3-yl)amino]-2-oxidanylidene-ethyl] 2,4-dimethyl-1,3-thiazole-5-carboxylate

> <PUBCHEM_IUPAC_TRADITIONAL_NAME>
2,4-dimethylthiazole-5-carboxylic acid [2-[(2-acetylbenzofuran-3-yl)amino]-2-keto-ethyl] ester

> <PUBCHEM_IUPAC_INCHI>
InChI=1S/C18H16N2O5S/c1-9-17(26-11(3)19-9)18(23)24-8-14(22)20-15-12-6-4-5-7-13(12)25-16(15)10(2)21/h4-7H,8H2,1-3H3,(H,20,22)

> <PUBCHEM_IUPAC_INCHIKEY>
HEJXRHOLDITJOA-UHFFFAOYSA-N

> <PUBCHEM_XLOGP3_AA>
3.8

> <PUBCHEM_EXACT_MASS>
372.077993

> <PUBCHEM_MOLECULAR_FORMULA>
C18H16N2O5S

> <PUBCHEM_MOLECULAR_WEIGHT>
372.39504

> <PUBCHEM_OPENEYE_CAN_SMILES>
CC1=C(SC(=N1)C)C(=O)OCC(=O)NC2=C(OC3=CC=CC=C32)C(=O)C

> <PUBCHEM_OPENEYE_ISO_SMILES>
CC1=C(SC(=N1)C)C(=O)OCC(=O)NC2=C(OC3=CC=CC=C32)C(=O)C

> <PUBCHEM_CACTVS_TPSA>
127

> <PUBCHEM_MONOISOTOPIC_WEIGHT>
372.077993

> <PUBCHEM_TOTAL_CHARGE>
0

> <PUBCHEM_HEAVY_ATOM_COUNT>
26

> <PUBCHEM_ATOM_DEF_STEREO_COUNT>
0

> <PUBCHEM_ATOM_UDEF_STEREO_COUNT>
0

> <PUBCHEM_BOND_DEF_STEREO_COUNT>
0

> <PUBCHEM_BOND_UDEF_STEREO_COUNT>
0

> <PUBCHEM_ISOTOPIC_ATOM_COUNT>
0

> <PUBCHEM_COMPONENT_COUNT>
1

> <PUBCHEM_CACTVS_TAUTO_COUNT>
12

> <PUBCHEM_COORDINATE_TYPE>
1
5
255

> <PUBCHEM_BONDANNOTATIONS>
1  20  8
1  24  8
10  12  8
11  14  8
13  15  8
14  17  8
15  17  8
2  11  8
2  12  8
20  21  8
8  21  8
8  24  8
9  10  8
9  11  8
9  13  8

$$$$

