586275
  -OEChem-06241222463D

 37 37  0     0  0  0  0  0  0999 V2000
    4.5468    0.0455    0.7798 O   0  0  0  0  0  0  0  0  0  0  0  0
   -1.7107   -1.6227    0.3429 O   0  0  0  0  0  0  0  0  0  0  0  0
   -3.0113   -0.2712   -1.0101 N   0  0  0  0  0  0  0  0  0  0  0  0
   -0.7741    0.2172   -0.7745 N   0  0  0  0  0  0  0  0  0  0  0  0
   -5.0454   -0.4390    0.3668 C   0  0  0  0  0  0  0  0  0  0  0  0
   -4.2483   -0.9759   -0.8173 C   0  0  0  0  0  0  0  0  0  0  0  0
   -5.4372    1.0303    0.1942 C   0  0  0  0  0  0  0  0  0  0  0  0
   -6.2812    1.5205    1.3605 C   0  0  0  0  0  0  0  0  0  0  0  0
   -1.8043   -0.6518   -0.4043 C   0  0  0  0  0  0  0  0  0  0  0  0
    0.5831    0.1730   -0.3785 C   0  0  0  0  0  0  0  0  0  0  0  0
    1.4603    1.1329   -0.8561 C   0  0  0  0  0  0  0  0  0  0  0  0
    1.0072   -0.8291    0.4791 C   0  0  0  0  0  0  0  0  0  0  0  0
    3.2414    0.0869    0.3975 C   0  0  0  0  0  0  0  0  0  0  0  0
    2.7987    1.0894   -0.4654 C   0  0  0  0  0  0  0  0  0  0  0  0
    2.3456   -0.8724    0.8697 C   0  0  0  0  0  0  0  0  0  0  0  0
    5.5103    0.5498   -0.1438 C   0  0  0  0  0  0  0  0  0  0  0  0
    6.8191   -0.1834    0.0595 C   0  0  0  0  0  0  0  0  0  0  0  0
   -5.9505   -1.0468    0.4853 H   0  0  0  0  0  0  0  0  0  0  0  0
   -4.4597   -0.5522    1.2876 H   0  0  0  0  0  0  0  0  0  0  0  0
   -4.8265   -0.8797   -1.7424 H   0  0  0  0  0  0  0  0  0  0  0  0
   -4.0351   -2.0395   -0.6647 H   0  0  0  0  0  0  0  0  0  0  0  0
   -4.5419    1.6576    0.1194 H   0  0  0  0  0  0  0  0  0  0  0  0
   -6.0024    1.1574   -0.7363 H   0  0  0  0  0  0  0  0  0  0  0  0
   -3.0143    0.5464   -1.6120 H   0  0  0  0  0  0  0  0  0  0  0  0
   -5.7330    1.4352    2.3042 H   0  0  0  0  0  0  0  0  0  0  0  0
   -6.5507    2.5718    1.2178 H   0  0  0  0  0  0  0  0  0  0  0  0
   -7.2062    0.9416    1.4463 H   0  0  0  0  0  0  0  0  0  0  0  0
   -1.0229    0.9758   -1.4044 H   0  0  0  0  0  0  0  0  0  0  0  0
    1.1242    1.9214   -1.5236 H   0  0  0  0  0  0  0  0  0  0  0  0
    0.3774   -1.6057    0.8867 H   0  0  0  0  0  0  0  0  0  0  0  0
    3.4565    1.8712   -0.8336 H   0  0  0  0  0  0  0  0  0  0  0  0
    2.6860   -1.6552    1.5422 H   0  0  0  0  0  0  0  0  0  0  0  0
    5.6540    1.6211    0.0351 H   0  0  0  0  0  0  0  0  0  0  0  0
    5.2017    0.3889   -1.1844 H   0  0  0  0  0  0  0  0  0  0  0  0
    6.6883   -1.2585   -0.1025 H   0  0  0  0  0  0  0  0  0  0  0  0
    7.1756   -0.0579    1.0872 H   0  0  0  0  0  0  0  0  0  0  0  0
    7.5860    0.1863   -0.6270 H   0  0  0  0  0  0  0  0  0  0  0  0
  1 13  1  0  0  0  0
  1 16  1  0  0  0  0
  2  9  2  0  0  0  0
  3  6  1  0  0  0  0
  3  9  1  0  0  0  0
  3 24  1  0  0  0  0
  4  9  1  0  0  0  0
  4 10  1  0  0  0  0
  4 28  1  0  0  0  0
  5  6  1  0  0  0  0
  5  7  1  0  0  0  0
  5 18  1  0  0  0  0
  5 19  1  0  0  0  0
  6 20  1  0  0  0  0
  6 21  1  0  0  0  0
  7  8  1  0  0  0  0
  7 22  1  0  0  0  0
  7 23  1  0  0  0  0
  8 25  1  0  0  0  0
  8 26  1  0  0  0  0
  8 27  1  0  0  0  0
 10 11  2  0  0  0  0
 10 12  1  0  0  0  0
 11 14  1  0  0  0  0
 11 29  1  0  0  0  0
 12 15  2  0  0  0  0
 12 30  1  0  0  0  0
 13 14  2  0  0  0  0
 13 15  1  0  0  0  0
 14 31  1  0  0  0  0
 15 32  1  0  0  0  0
 16 17  1  0  0  0  0
 16 33  1  0  0  0  0
 16 34  1  0  0  0  0
 17 35  1  0  0  0  0
 17 36  1  0  0  0  0
 17 37  1  0  0  0  0
M  END
> <PUBCHEM_COMPOUND_CID>
586275

> <PUBCHEM_CONFORMER_RMSD>
0.8

> <PUBCHEM_CONFORMER_DIVERSEORDER>
1
55
22
52
36
59
64
49
62
50
31
23
20
51
60
29
48
63
9
58
11
53
38
43
6
34
42
41
35
18
61
21
27
40
28
54
10
47
32
44
26
14
33
19
57
8
39
17
45
37
30
3
25
46
5
56
7
13
15
24
12
16
4
2

> <PUBCHEM_MMFF94_PARTIAL_CHARGES>
19
1 -0.36
10 0.12
11 -0.15
12 -0.15
13 0.08
14 -0.15
15 -0.15
16 0.28
2 -0.57
24 0.37
28 0.37
29 0.15
3 -0.73
30 0.15
31 0.15
32 0.15
4 -0.55
6 0.3
9 0.69

> <PUBCHEM_EFFECTIVE_ROTOR_COUNT>
8

> <PUBCHEM_PHARMACOPHORE_FEATURES>
6
1 1 acceptor
1 2 acceptor
1 3 donor
1 4 donor
1 8 hydrophobe
6 10 11 12 13 14 15 rings

> <PUBCHEM_HEAVY_ATOM_COUNT>
17

> <PUBCHEM_ATOM_DEF_STEREO_COUNT>
0

> <PUBCHEM_ATOM_UDEF_STEREO_COUNT>
0

> <PUBCHEM_BOND_DEF_STEREO_COUNT>
0

> <PUBCHEM_BOND_UDEF_STEREO_COUNT>
0

> <PUBCHEM_ISOTOPIC_ATOM_COUNT>
0

> <PUBCHEM_COMPONENT_COUNT>
1

> <PUBCHEM_CACTVS_TAUTO_COUNT>
3

> <PUBCHEM_CONFORMER_ID>
0008F22300000001

> <PUBCHEM_MMFF94_ENERGY>
36.2816

> <PUBCHEM_FEATURE_SELFOVERLAP>
30.496

> <PUBCHEM_SHAPE_FINGERPRINT>
10354089 29 18273494580708935601
10730089 173 17894628184426036937
11089746 13 17967538956342221369
11287383 113 13830130585712178894
11401426 45 6916264061515689430
11796584 16 17095522881707887694
12091667 2 17821450136446868055
12236239 1 18335702723894518024
1420 363 15769775766737432128
14251718 22 11672064142283892316
14251732 16 12535336883817822830
14251752 14 17385441054882773226
14251764 18 18272086085434900011
15048467 5 18333452049172451448
15238133 3 18334568036442928949
15475509 8 18339063987302855372
17834076 25 18334860502119150102
19489759 90 17313106333008079871
20281389 69 17676209056869455545
20621476 66 18335135380015700496
21150785 3 10015576212424480928
21267235 1 17847062203601965150
21521721 280 17775280526948350240
22896161 15 12247671665190439868
23035841 295 18060423517203631266
23402539 116 17385448700035375453
23536379 177 17894349973429084134
23590187 156 9727634999045806278
4072396 5 5112010517731565748
4340502 62 14333134070429659496
4463277 17 18202004317955366124
5104073 3 17916309333754523320
542803 24 18334579022826243301
7062679 117 10375868580787472437
7495541 125 13758068584789970046

> <PUBCHEM_SHAPE_MULTIPOLES>
328.15
15.91
1.3
1.02
1.65
0.08
-0.05
4.04
-3.56
1.28
-0.13
0.63
0.1
-1.34

> <PUBCHEM_SHAPE_SELFOVERLAP>
654.261

> <PUBCHEM_SHAPE_VOLUME>
194.2

> <PUBCHEM_COORDINATE_TYPE>
2
5
10

$$$$

