51091014
  -OEChem-06241223013D

 45 47  0     0  0  0  0  0  0999 V2000
    0.7281   -3.0044   -0.6163 S   0  0  0  0  0  0  0  0  0  0  0  0
   -4.1495    2.0522   -0.3309 O   0  0  0  0  0  0  0  0  0  0  0  0
    2.5409   -1.0045    0.0632 N   0  0  0  0  0  0  0  0  0  0  0  0
    2.3174    0.4605   -1.5466 N   0  0  0  0  0  0  0  0  0  0  0  0
    1.4518   -0.5876   -1.7882 N   0  0  0  0  0  0  0  0  0  0  0  0
   -1.8820    2.5163   -0.0042 N   0  0  0  0  0  0  0  0  0  0  0  0
    4.0195    1.1027    0.1941 C   0  0  0  0  0  0  0  0  0  0  0  0
    3.9751    2.5723   -0.1058 C   0  0  0  0  0  0  0  0  0  0  0  0
    3.5959    2.0731    1.2576 C   0  0  0  0  0  0  0  0  0  0  0  0
    2.9611    0.1921   -0.4332 C   0  0  0  0  0  0  0  0  0  0  0  0
    3.0138   -1.6403    1.2703 C   0  0  0  0  0  0  0  0  0  0  0  0
    1.6005   -1.4552   -0.8129 C   0  0  0  0  0  0  0  0  0  0  0  0
    2.0230   -1.4903    2.4146 C   0  0  0  0  0  0  0  0  0  0  0  0
   -0.8614   -2.6226   -1.4137 C   0  0  0  0  0  0  0  0  0  0  0  0
   -1.7770   -1.8526   -0.5234 C   0  0  0  0  0  0  0  0  0  0  0  0
   -1.9546   -0.4833   -0.7211 C   0  0  0  0  0  0  0  0  0  0  0  0
   -2.4570   -2.5025    0.5069 C   0  0  0  0  0  0  0  0  0  0  0  0
   -2.8120    0.2363    0.1113 C   0  0  0  0  0  0  0  0  0  0  0  0
   -3.3147   -1.7829    1.3390 C   0  0  0  0  0  0  0  0  0  0  0  0
   -3.4919   -0.4135    1.1414 C   0  0  0  0  0  0  0  0  0  0  0  0
   -2.9976    1.6639   -0.0952 C   0  0  0  0  0  0  0  0  0  0  0  0
   -1.9905    3.9573   -0.1833 C   0  0  0  0  0  0  0  0  0  0  0  0
   -0.5390    2.0131    0.2763 C   0  0  0  0  0  0  0  0  0  0  0  0
    5.0056    0.6606    0.2876 H   0  0  0  0  0  0  0  0  0  0  0  0
    2.5508    2.1194    1.5382 H   0  0  0  0  0  0  0  0  0  0  0  0
    4.2846    2.2588    2.0728 H   0  0  0  0  0  0  0  0  0  0  0  0
    4.9188    3.0951   -0.2055 H   0  0  0  0  0  0  0  0  0  0  0  0
    3.1826    2.9661   -0.7305 H   0  0  0  0  0  0  0  0  0  0  0  0
    3.9775   -1.2024    1.5483 H   0  0  0  0  0  0  0  0  0  0  0  0
    3.1979   -2.6971    1.0496 H   0  0  0  0  0  0  0  0  0  0  0  0
    1.0589   -1.9563    2.1928 H   0  0  0  0  0  0  0  0  0  0  0  0
    2.4214   -1.9593    3.3198 H   0  0  0  0  0  0  0  0  0  0  0  0
    1.8363   -0.4335    2.6345 H   0  0  0  0  0  0  0  0  0  0  0  0
   -1.3369   -3.5744   -1.6795 H   0  0  0  0  0  0  0  0  0  0  0  0
   -0.6925   -2.1050   -2.3648 H   0  0  0  0  0  0  0  0  0  0  0  0
   -1.4415    0.0143   -1.5406 H   0  0  0  0  0  0  0  0  0  0  0  0
   -2.3300   -3.5694    0.6711 H   0  0  0  0  0  0  0  0  0  0  0  0
   -4.1612    0.1359    1.7985 H   0  0  0  0  0  0  0  0  0  0  0  0
   -3.8441   -2.2889    2.1411 H   0  0  0  0  0  0  0  0  0  0  0  0
   -3.0146    4.2454   -0.4340 H   0  0  0  0  0  0  0  0  0  0  0  0
   -1.3225    4.2640   -0.9932 H   0  0  0  0  0  0  0  0  0  0  0  0
   -0.0235    1.8590   -0.6750 H   0  0  0  0  0  0  0  0  0  0  0  0
   -1.6981    4.4530    0.7467 H   0  0  0  0  0  0  0  0  0  0  0  0
   -0.5458    1.0908    0.8598 H   0  0  0  0  0  0  0  0  0  0  0  0
    0.0101    2.7612    0.8573 H   0  0  0  0  0  0  0  0  0  0  0  0
  1 12  1  0  0  0  0
  1 14  1  0  0  0  0
  2 21  2  0  0  0  0
  3 10  1  0  0  0  0
  3 11  1  0  0  0  0
  3 12  1  0  0  0  0
  4  5  1  0  0  0  0
  4 10  2  0  0  0  0
  5 12  2  0  0  0  0
  6 21  1  0  0  0  0
  6 22  1  0  0  0  0
  6 23  1  0  0  0  0
  7  8  1  0  0  0  0
  7  9  1  0  0  0  0
  7 10  1  0  0  0  0
  7 24  1  0  0  0  0
  8  9  1  0  0  0  0
  8 27  1  0  0  0  0
  8 28  1  0  0  0  0
  9 25  1  0  0  0  0
  9 26  1  0  0  0  0
 11 13  1  0  0  0  0
 11 29  1  0  0  0  0
 11 30  1  0  0  0  0
 13 31  1  0  0  0  0
 13 32  1  0  0  0  0
 13 33  1  0  0  0  0
 14 15  1  0  0  0  0
 14 34  1  0  0  0  0
 14 35  1  0  0  0  0
 15 16  2  0  0  0  0
 15 17  1  0  0  0  0
 16 18  1  0  0  0  0
 16 36  1  0  0  0  0
 17 19  2  0  0  0  0
 17 37  1  0  0  0  0
 18 20  2  0  0  0  0
 18 21  1  0  0  0  0
 19 20  1  0  0  0  0
 19 39  1  0  0  0  0
 20 38  1  0  0  0  0
 22 40  1  0  0  0  0
 22 41  1  0  0  0  0
 22 43  1  0  0  0  0
 23 42  1  0  0  0  0
 23 44  1  0  0  0  0
 23 45  1  0  0  0  0
M  END
> <PUBCHEM_COMPOUND_CID>
51091014

> <PUBCHEM_CONFORMER_RMSD>
1

> <PUBCHEM_CONFORMER_DIVERSEORDER>
1
3
125
25
47
87
28
12
89
56
33
118
107
114
116
61
70
99
8
122
104
74
120
111
26
119
121
115
38
102
27
72
63
11
68
117
59
112
44
53
82
62
124
91
13
113
49
94
86
131
108
54
10
76
128
39
69
93
96
45
67
21
5
78
4
92
16
24
83
95
132
58
18
46
32
100
29
35
85
66
71
77
65
64
41
6
123
130
2
60
75
51
20
127
97
57
98
52
36
48
105
88
50
43
103
81
14
42
7
84
30
126
15
40
55
101
109
79
9
19
110
34
22
80
106
129
23
37
73
90
17
31

> <PUBCHEM_MMFF94_PARTIAL_CHARGES>
31
1 -0.29
10 0.1
11 0.26
12 0.24
14 0.37
15 -0.14
16 -0.15
17 -0.15
18 0.09
19 -0.15
2 -0.57
20 -0.15
21 0.54
22 0.3
23 0.3
24 0.1
25 0.1
26 0.1
27 0.1
28 0.1
3 0.05
36 0.15
37 0.15
38 0.15
39 0.15
4 -0.34
5 -0.34
6 -0.66
7 -0.01
8 -0.2
9 -0.2

> <PUBCHEM_EFFECTIVE_ROTOR_COUNT>
7.6

> <PUBCHEM_PHARMACOPHORE_FEATURES>
5
1 2 acceptor
3 3 4 10 cation
3 3 5 12 cation
5 3 4 5 10 12 rings
6 15 16 17 18 19 20 rings

> <PUBCHEM_HEAVY_ATOM_COUNT>
23

> <PUBCHEM_ATOM_DEF_STEREO_COUNT>
0

> <PUBCHEM_ATOM_UDEF_STEREO_COUNT>
0

> <PUBCHEM_BOND_DEF_STEREO_COUNT>
0

> <PUBCHEM_BOND_UDEF_STEREO_COUNT>
0

> <PUBCHEM_ISOTOPIC_ATOM_COUNT>
0

> <PUBCHEM_COMPONENT_COUNT>
1

> <PUBCHEM_CACTVS_TAUTO_COUNT>
1

> <PUBCHEM_CONFORMER_ID>
030B964600000001

> <PUBCHEM_MMFF94_ENERGY>
49.2626

> <PUBCHEM_FEATURE_SELFOVERLAP>
27.874

> <PUBCHEM_SHAPE_FINGERPRINT>
10165383 225 17314488358451774762
10498660 4 18335421231753925207
10616163 171 18411418388733776080
10670039 82 18195514905992322884
10675989 125 17542515276220814880
10759866 29 18343577448048451916
10871710 139 18118689820450213215
11370993 70 18194689386901448909
12553582 1 17977369556667364589
12633257 1 18194403522409977152
128993 33 18041548226131469107
13122387 1 17831296473158260552
13140716 1 18411979195535309867
13965767 371 18129384950315369436
14081887 123 18410295774492732632
14223421 5 18410847785106084494
14466204 15 18121221145705725658
14787075 74 17482271513794665514
14957384 54 18338527420843052258
17093844 170 16609142157661311968
17974551 9 17486772153835888691
19026451 147 17035017606654897142
20621476 13 17545890789527980869
20715895 44 17767978880476310197
21864079 5 18335706035346114422
22749437 52 18194682807164324269
23559900 14 18191586569240024287
3187 122 18201715094841997981
3524813 1 17679019301147134456
3797600 57 17198793286790458022
392239 28 17912360927306171602
7097593 13 17843133759582188690
9709674 26 18191864733055341157

> <PUBCHEM_SHAPE_MULTIPOLES>
451.39
7.62
4.31
1.56
2.37
2.29
0.43
3.49
1.84
-1.6
-0.28
0.7
-0.95
0.3

> <PUBCHEM_SHAPE_SELFOVERLAP>
929.726

> <PUBCHEM_SHAPE_VOLUME>
262.4

> <PUBCHEM_COORDINATE_TYPE>
2
5
10

$$$$

