583102
  -OEChem-06241222442D

 44 46  0     0  0  0  0  0  0999 V2000
    3.0000   -0.7500    0.0000 O   0  0  0  0  0  0  0  0  0  0  0  0
    3.8660    0.7500    0.0000 N   0  0  0  0  0  0  0  0  0  0  0  0
    3.0000    1.2500    0.0000 C   0  0  0  0  0  0  0  0  0  0  0  0
    3.0000    2.2500    0.0000 C   0  0  0  0  0  0  0  0  0  0  0  0
    4.7320    1.2500    0.0000 C   0  0  0  0  0  0  0  0  0  0  0  0
    3.8660    2.7500    0.0000 C   0  0  0  0  0  0  0  0  0  0  0  0
    4.7320    2.2500    0.0000 C   0  0  0  0  0  0  0  0  0  0  0  0
    2.0000    1.2500    0.0000 C   0  0  0  0  0  0  0  0  0  0  0  0
    2.5000    0.3840    0.0000 C   0  0  0  0  0  0  0  0  0  0  0  0
    3.8660   -0.2500    0.0000 C   0  0  0  0  0  0  0  0  0  0  0  0
    5.6260    0.7153    0.0000 C   0  0  0  0  0  0  0  0  0  0  0  0
    5.6260    2.7847    0.0000 C   0  0  0  0  0  0  0  0  0  0  0  0
    3.8660    3.7500    0.0000 C   0  0  0  0  0  0  0  0  0  0  0  0
    6.5321    1.2292    0.0000 C   0  0  0  0  0  0  0  0  0  0  0  0
    6.5321    2.2708    0.0000 C   0  0  0  0  0  0  0  0  0  0  0  0
    4.7320   -0.7500    0.0000 C   0  0  0  0  0  0  0  0  0  0  0  0
    4.7320   -1.7500    0.0000 C   0  0  0  0  0  0  0  0  0  0  0  0
    5.5981   -2.2500    0.0000 C   0  0  0  0  0  0  0  0  0  0  0  0
    5.5981   -3.2500    0.0000 C   0  0  0  0  0  0  0  0  0  0  0  0
    6.4641   -1.7500    0.0000 C   0  0  0  0  0  0  0  0  0  0  0  0
    6.4641   -3.7500    0.0000 C   0  0  0  0  0  0  0  0  0  0  0  0
    7.3301   -2.2500    0.0000 C   0  0  0  0  0  0  0  0  0  0  0  0
    7.3301   -3.2500    0.0000 C   0  0  0  0  0  0  0  0  0  0  0  0
    2.4631    2.5600    0.0000 H   0  0  0  0  0  0  0  0  0  0  0  0
    1.9631    0.6940    0.0000 H   0  0  0  0  0  0  0  0  0  0  0  0
    2.1900   -0.1530    0.0000 H   0  0  0  0  0  0  0  0  0  0  0  0
    3.0369    0.0740    0.0000 H   0  0  0  0  0  0  0  0  0  0  0  0
    2.0000    1.8700    0.0000 H   0  0  0  0  0  0  0  0  0  0  0  0
    1.3800    1.2500    0.0000 H   0  0  0  0  0  0  0  0  0  0  0  0
    2.0000    0.6300    0.0000 H   0  0  0  0  0  0  0  0  0  0  0  0
    5.6188    0.0954    0.0000 H   0  0  0  0  0  0  0  0  0  0  0  0
    5.6188    3.4046    0.0000 H   0  0  0  0  0  0  0  0  0  0  0  0
    4.4860    3.7500    0.0000 H   0  0  0  0  0  0  0  0  0  0  0  0
    3.8660    4.3700    0.0000 H   0  0  0  0  0  0  0  0  0  0  0  0
    3.2460    3.7500    0.0000 H   0  0  0  0  0  0  0  0  0  0  0  0
    7.0678    0.9171    0.0000 H   0  0  0  0  0  0  0  0  0  0  0  0
    7.0678    2.5829    0.0000 H   0  0  0  0  0  0  0  0  0  0  0  0
    5.2690   -0.4400    0.0000 H   0  0  0  0  0  0  0  0  0  0  0  0
    4.1951   -2.0600    0.0000 H   0  0  0  0  0  0  0  0  0  0  0  0
    5.0611   -3.5600    0.0000 H   0  0  0  0  0  0  0  0  0  0  0  0
    6.4641   -1.1300    0.0000 H   0  0  0  0  0  0  0  0  0  0  0  0
    6.4641   -4.3700    0.0000 H   0  0  0  0  0  0  0  0  0  0  0  0
    7.8671   -1.9400    0.0000 H   0  0  0  0  0  0  0  0  0  0  0  0
    7.8671   -3.5600    0.0000 H   0  0  0  0  0  0  0  0  0  0  0  0
  1 10  2  0  0  0  0
  2  3  1  0  0  0  0
  2  5  1  0  0  0  0
  2 10  1  0  0  0  0
  3  4  1  0  0  0  0
  3  8  1  0  0  0  0
  3  9  1  0  0  0  0
  4  6  2  0  0  0  0
  4 24  1  0  0  0  0
  5  7  1  0  0  0  0
  5 11  2  0  0  0  0
  6  7  1  0  0  0  0
  6 13  1  0  0  0  0
  7 12  2  0  0  0  0
  8 28  1  0  0  0  0
  8 29  1  0  0  0  0
  8 30  1  0  0  0  0
  9 25  1  0  0  0  0
  9 26  1  0  0  0  0
  9 27  1  0  0  0  0
 10 16  1  0  0  0  0
 11 14  1  0  0  0  0
 11 31  1  0  0  0  0
 12 15  1  0  0  0  0
 12 32  1  0  0  0  0
 13 33  1  0  0  0  0
 13 34  1  0  0  0  0
 13 35  1  0  0  0  0
 14 15  2  0  0  0  0
 14 36  1  0  0  0  0
 15 37  1  0  0  0  0
 16 17  2  3  0  0  0
 16 38  1  0  0  0  0
 17 18  1  0  0  0  0
 17 39  1  0  0  0  0
 18 19  2  0  0  0  0
 18 20  1  0  0  0  0
 19 21  1  0  0  0  0
 19 40  1  0  0  0  0
 20 22  2  0  0  0  0
 20 41  1  0  0  0  0
 21 23  2  0  0  0  0
 21 42  1  0  0  0  0
 22 23  1  0  0  0  0
 22 43  1  0  0  0  0
 23 44  1  0  0  0  0
M  END
> <PUBCHEM_COMPOUND_CID>
583102

> <PUBCHEM_COMPOUND_CANONICALIZED>
1

> <PUBCHEM_CACTVS_COMPLEXITY>
496

> <PUBCHEM_CACTVS_HBOND_ACCEPTOR>
1

> <PUBCHEM_CACTVS_HBOND_DONOR>
0

> <PUBCHEM_CACTVS_ROTATABLE_BOND>
2

> <PUBCHEM_CACTVS_SUBSKEYS>
AAADceB6IAAAAAAAAAAAAAAAAAAAAAAAAAAwYIAAAAAAAACBQAAAHgAAAAAADIiBmAAywIMAAACIAiVSUACCAAAhAgAIiAAAZMgIICLAkZGEIAhghADIyYcQgIAOAAAAAAACAAAAAAAAAAQAAAAAAAAAAA==

> <PUBCHEM_IUPAC_OPENEYE_NAME>
3-phenyl-1-(2,2,4-trimethyl-1-quinolyl)prop-2-en-1-one

> <PUBCHEM_IUPAC_CAS_NAME>
3-phenyl-1-(2,2,4-trimethyl-1-quinolinyl)-2-propen-1-one

> <PUBCHEM_IUPAC_NAME>
3-phenyl-1-(2,2,4-trimethylquinolin-1-yl)prop-2-en-1-one

> <PUBCHEM_IUPAC_SYSTEMATIC_NAME>
3-phenyl-1-(2,2,4-trimethylquinolin-1-yl)prop-2-en-1-one

> <PUBCHEM_IUPAC_TRADITIONAL_NAME>
3-phenyl-1-(2,2,4-trimethyl-1-quinolyl)prop-2-en-1-one

> <PUBCHEM_IUPAC_INCHI>
InChI=1S/C21H21NO/c1-16-15-21(2,3)22(19-12-8-7-11-18(16)19)20(23)14-13-17-9-5-4-6-10-17/h4-15H,1-3H3

> <PUBCHEM_IUPAC_INCHIKEY>
PTPCMHZGEKZVGP-UHFFFAOYSA-N

> <PUBCHEM_XLOGP3_AA>
4.2

> <PUBCHEM_EXACT_MASS>
303.162314

> <PUBCHEM_MOLECULAR_FORMULA>
C21H21NO

> <PUBCHEM_MOLECULAR_WEIGHT>
303.39754

> <PUBCHEM_OPENEYE_CAN_SMILES>
CC1=CC(N(C2=CC=CC=C12)C(=O)C=CC3=CC=CC=C3)(C)C

> <PUBCHEM_OPENEYE_ISO_SMILES>
CC1=CC(N(C2=CC=CC=C12)C(=O)C=CC3=CC=CC=C3)(C)C

> <PUBCHEM_CACTVS_TPSA>
20.3

> <PUBCHEM_MONOISOTOPIC_WEIGHT>
303.162314

> <PUBCHEM_TOTAL_CHARGE>
0

> <PUBCHEM_HEAVY_ATOM_COUNT>
23

> <PUBCHEM_ATOM_DEF_STEREO_COUNT>
0

> <PUBCHEM_ATOM_UDEF_STEREO_COUNT>
0

> <PUBCHEM_BOND_DEF_STEREO_COUNT>
0

> <PUBCHEM_BOND_UDEF_STEREO_COUNT>
1

> <PUBCHEM_ISOTOPIC_ATOM_COUNT>
0

> <PUBCHEM_COMPONENT_COUNT>
1

> <PUBCHEM_CACTVS_TAUTO_COUNT>
1

> <PUBCHEM_COORDINATE_TYPE>
1
5
255

> <PUBCHEM_BONDANNOTATIONS>
11  14  8
12  15  8
14  15  8
16  17  1
18  19  8
18  20  8
19  21  8
20  22  8
21  23  8
22  23  8
5  11  8
5  7  8
7  12  8

$$$$

