10609
  -OEChem-06261204452D

 49 50  0     0  0  0  0  0  0999 V2000
   10.0997    4.8835    0.0000 Cl  0  0  0  0  0  0  0  0  0  0  0  0
    3.2018    0.6546    0.0000 S   0  0  0  0  0  0  0  0  0  0  0  0
    4.0678    4.1546    0.0000 O   0  0  0  0  0  0  0  0  0  0  0  0
    4.9338    6.6546    0.0000 O   0  0  0  0  0  0  0  0  0  0  0  0
    2.3358    4.1546    0.0000 O   0  0  0  0  0  0  0  0  0  0  0  0
    3.2018    2.6546    0.0000 N   0  0  0  0  0  0  0  0  0  0  0  0
    6.6659    8.6546    0.0000 N   0  0  0  0  0  0  0  0  0  0  0  0
    4.0678    2.1546    0.0000 C   0  0  0  0  0  0  0  0  0  0  0  0
    2.3358    2.1546    0.0000 C   0  0  0  0  0  0  0  0  0  0  0  0
    4.0678    1.1546    0.0000 C   0  0  0  0  0  0  0  0  0  0  0  0
    2.3358    1.1546    0.0000 C   0  0  0  0  0  0  0  0  0  0  0  0
    5.7998    8.1546    0.0000 C   0  0  0  0  0  0  0  0  0  0  0  0
    1.4418    2.6893    0.0000 C   0  0  0  0  0  0  0  0  0  0  0  0
    4.9617    2.6893    0.0000 C   0  0  0  0  0  0  0  0  0  0  0  0
    3.2018    3.6546    0.0000 C   0  0  0  0  0  0  0  0  0  0  0  0
    5.7998    7.1546    0.0000 C   0  0  0  0  0  0  0  0  0  0  0  0
    1.4418    0.6200    0.0000 C   0  0  0  0  0  0  0  0  0  0  0  0
    4.9617    0.6200    0.0000 C   0  0  0  0  0  0  0  0  0  0  0  0
    4.9338    5.6546    0.0000 C   0  0  0  0  0  0  0  0  0  0  0  0
    4.0678    5.1546    0.0000 C   0  0  0  0  0  0  0  0  0  0  0  0
    0.5357    2.1754    0.0000 C   0  0  0  0  0  0  0  0  0  0  0  0
    5.8678    2.1754    0.0000 C   0  0  0  0  0  0  0  0  0  0  0  0
    0.5357    1.1338    0.0000 C   0  0  0  0  0  0  0  0  0  0  0  0
    5.8678    1.1338    0.0000 C   0  0  0  0  0  0  0  0  0  0  0  0
    6.6659    9.6546    0.0000 C   0  0  0  0  0  0  0  0  0  0  0  0
    7.5319    8.1546    0.0000 C   0  0  0  0  0  0  0  0  0  0  0  0
    5.5878    8.7372    0.0000 H   0  0  0  0  0  0  0  0  0  0  0  0
    5.1893    8.0470    0.0000 H   0  0  0  0  0  0  0  0  0  0  0  0
    4.9546    3.3092    0.0000 H   0  0  0  0  0  0  0  0  0  0  0  0
    1.4490    3.3092    0.0000 H   0  0  0  0  0  0  0  0  0  0  0  0
    6.0119    6.5720    0.0000 H   0  0  0  0  0  0  0  0  0  0  0  0
    6.4104    7.2623    0.0000 H   0  0  0  0  0  0  0  0  0  0  0  0
    4.9546    0.0000    0.0000 H   0  0  0  0  0  0  0  0  0  0  0  0
    1.4490    0.0000    0.0000 H   0  0  0  0  0  0  0  0  0  0  0  0
    5.1459    5.0720    0.0000 H   0  0  0  0  0  0  0  0  0  0  0  0
    5.5444    5.7623    0.0000 H   0  0  0  0  0  0  0  0  0  0  0  0
    3.8557    5.7372    0.0000 H   0  0  0  0  0  0  0  0  0  0  0  0
    3.4572    5.0470    0.0000 H   0  0  0  0  0  0  0  0  0  0  0  0
    0.0000    2.4875    0.0000 H   0  0  0  0  0  0  0  0  0  0  0  0
    6.4035    2.4875    0.0000 H   0  0  0  0  0  0  0  0  0  0  0  0
    0.0000    0.8217    0.0000 H   0  0  0  0  0  0  0  0  0  0  0  0
    6.4035    0.8217    0.0000 H   0  0  0  0  0  0  0  0  0  0  0  0
    7.2219    7.6177    0.0000 H   0  0  0  0  0  0  0  0  0  0  0  0
    7.2859    9.6546    0.0000 H   0  0  0  0  0  0  0  0  0  0  0  0
    6.6659   10.2746    0.0000 H   0  0  0  0  0  0  0  0  0  0  0  0
    6.0459    9.6546    0.0000 H   0  0  0  0  0  0  0  0  0  0  0  0
    8.0688    7.8446    0.0000 H   0  0  0  0  0  0  0  0  0  0  0  0
    7.8419    8.6916    0.0000 H   0  0  0  0  0  0  0  0  0  0  0  0
   11.0997    4.8835    0.0000 H   0  0  0  0  0  0  0  0  0  0  0  0
  1 49  1  0  0  0  0
  2 10  1  0  0  0  0
  2 11  1  0  0  0  0
  3 15  1  0  0  0  0
  3 20  1  0  0  0  0
  4 16  1  0  0  0  0
  4 19  1  0  0  0  0
  5 15  2  0  0  0  0
  6  8  1  0  0  0  0
  6  9  1  0  0  0  0
  6 15  1  0  0  0  0
  7 12  1  0  0  0  0
  7 25  1  0  0  0  0
  7 26  1  0  0  0  0
  8 10  1  0  0  0  0
  8 14  2  0  0  0  0
  9 11  1  0  0  0  0
  9 13  2  0  0  0  0
 10 18  2  0  0  0  0
 11 17  2  0  0  0  0
 12 16  1  0  0  0  0
 12 27  1  0  0  0  0
 12 28  1  0  0  0  0
 13 21  1  0  0  0  0
 13 30  1  0  0  0  0
 14 22  1  0  0  0  0
 14 29  1  0  0  0  0
 16 31  1  0  0  0  0
 16 32  1  0  0  0  0
 17 23  1  0  0  0  0
 17 34  1  0  0  0  0
 18 24  1  0  0  0  0
 18 33  1  0  0  0  0
 19 20  1  0  0  0  0
 19 35  1  0  0  0  0
 19 36  1  0  0  0  0
 20 37  1  0  0  0  0
 20 38  1  0  0  0  0
 21 23  2  0  0  0  0
 21 39  1  0  0  0  0
 22 24  2  0  0  0  0
 22 40  1  0  0  0  0
 23 41  1  0  0  0  0
 24 42  1  0  0  0  0
 25 44  1  0  0  0  0
 25 45  1  0  0  0  0
 25 46  1  0  0  0  0
 26 43  1  0  0  0  0
 26 47  1  0  0  0  0
 26 48  1  0  0  0  0
M  END
> <PUBCHEM_COMPOUND_CID>
10609

> <PUBCHEM_COMPOUND_CANONICALIZED>
1

> <PUBCHEM_CACTVS_COMPLEXITY>
413

> <PUBCHEM_CACTVS_HBOND_ACCEPTOR>
5

> <PUBCHEM_CACTVS_HBOND_DONOR>
1

> <PUBCHEM_CACTVS_ROTATABLE_BOND>
7

> <PUBCHEM_CACTVS_SUBSKEYS>
AAADceB7MABEAAAAAAAAAAAAAAAAAAAAAAA8YIAAAAAAAACxQAAAHgQAAAAACAjh0AYyyYMABAiIACRCWACCAAAhChAIiBwIZIgLIGLgkZGPIAhghAD6yAcQAAAAAAAAAAAAAQAAAAAAAAACAAAAAAAAAA==

> <PUBCHEM_IUPAC_OPENEYE_NAME>
2-[2-(dimethylamino)ethoxy]ethyl phenothiazine-10-carboxylate hydrochloride

> <PUBCHEM_IUPAC_CAS_NAME>
10-phenothiazinecarboxylic acid 2-[2-(dimethylamino)ethoxy]ethyl ester hydrochloride

> <PUBCHEM_IUPAC_NAME>
2-[2-(dimethylamino)ethoxy]ethyl phenothiazine-10-carboxylate hydrochloride

> <PUBCHEM_IUPAC_SYSTEMATIC_NAME>
2-[2-(dimethylamino)ethoxy]ethyl phenothiazine-10-carboxylate hydrochloride

> <PUBCHEM_IUPAC_TRADITIONAL_NAME>
phenothiazine-10-carboxylic acid 2-[2-(dimethylamino)ethoxy]ethyl ester hydrochloride

> <PUBCHEM_IUPAC_INCHI>
InChI=1S/C19H22N2O3S.ClH/c1-20(2)11-12-23-13-14-24-19(22)21-15-7-3-5-9-17(15)25-18-10-6-4-8-16(18)21;/h3-10H,11-14H2,1-2H3;1H

> <PUBCHEM_IUPAC_INCHIKEY>
ZJRHNNNACBPWEB-UHFFFAOYSA-N

> <PUBCHEM_EXACT_MASS>
394.111791

> <PUBCHEM_MOLECULAR_FORMULA>
C19H23ClN2O3S

> <PUBCHEM_MOLECULAR_WEIGHT>
394.91552

> <PUBCHEM_OPENEYE_CAN_SMILES>
CN(C)CCOCCOC(=O)N1C2=CC=CC=C2SC3=CC=CC=C31.Cl

> <PUBCHEM_OPENEYE_ISO_SMILES>
CN(C)CCOCCOC(=O)N1C2=CC=CC=C2SC3=CC=CC=C31.Cl

> <PUBCHEM_CACTVS_TPSA>
67.3

> <PUBCHEM_MONOISOTOPIC_WEIGHT>
394.111791

> <PUBCHEM_TOTAL_CHARGE>
0

> <PUBCHEM_HEAVY_ATOM_COUNT>
26

> <PUBCHEM_ATOM_DEF_STEREO_COUNT>
0

> <PUBCHEM_ATOM_UDEF_STEREO_COUNT>
0

> <PUBCHEM_BOND_DEF_STEREO_COUNT>
0

> <PUBCHEM_BOND_UDEF_STEREO_COUNT>
0

> <PUBCHEM_ISOTOPIC_ATOM_COUNT>
0

> <PUBCHEM_COMPONENT_COUNT>
2

> <PUBCHEM_CACTVS_TAUTO_COUNT>
1

> <PUBCHEM_COORDINATE_TYPE>
1
5
255

> <PUBCHEM_BONDANNOTATIONS>
10  18  8
11  17  8
13  21  8
14  22  8
17  23  8
18  24  8
21  23  8
22  24  8
8  10  8
8  14  8
9  11  8
9  13  8

$$$$

