9350
  -OEChem-06261203383D

 36 38  0     0  0  0  0  0  0999 V2000
   -4.3451   -1.1963    1.8589 F   0  0  0  0  0  0  0  0  0  0  0  0
    0.8904   -0.3033   -0.0696 C   0  0  0  0  0  0  0  0  0  0  0  0
    2.3273   -0.5141    0.0103 C   0  0  0  0  0  0  0  0  0  0  0  0
    0.2604    1.0595    0.0005 C   0  0  0  0  0  0  0  0  0  0  0  0
    0.0121   -1.3391   -0.2346 C   0  0  0  0  0  0  0  0  0  0  0  0
   -1.4506   -1.2151   -0.3249 C   0  0  0  0  0  0  0  0  0  0  0  0
    2.9349   -0.7147    1.2499 C   0  0  0  0  0  0  0  0  0  0  0  0
    0.0698    1.7475   -1.1704 C   0  0  0  0  0  0  0  0  0  0  0  0
    3.0979   -0.5158   -1.1526 C   0  0  0  0  0  0  0  0  0  0  0  0
   -0.0930    1.5488    1.2320 C   0  0  0  0  0  0  0  0  0  0  0  0
   -2.2114   -1.2658    0.8336 C   0  0  0  0  0  0  0  0  0  0  0  0
   -2.0449   -1.0494   -1.5671 C   0  0  0  0  0  0  0  0  0  0  0  0
    4.3129   -0.9166    1.3266 C   0  0  0  0  0  0  0  0  0  0  0  0
   -0.5145    3.0123   -1.1055 C   0  0  0  0  0  0  0  0  0  0  0  0
    4.4759   -0.7179   -1.0756 C   0  0  0  0  0  0  0  0  0  0  0  0
   -0.6775    2.8136    1.2968 C   0  0  0  0  0  0  0  0  0  0  0  0
    5.0834   -0.9183    0.1640 C   0  0  0  0  0  0  0  0  0  0  0  0
   -0.8883    3.5454    0.1280 C   0  0  0  0  0  0  0  0  0  0  0  0
   -3.5988   -1.1482    0.7478 C   0  0  0  0  0  0  0  0  0  0  0  0
   -3.4320   -0.9316   -1.6528 C   0  0  0  0  0  0  0  0  0  0  0  0
   -4.2090   -0.9809   -0.4954 C   0  0  0  0  0  0  0  0  0  0  0  0
    0.3849   -2.3593   -0.3037 H   0  0  0  0  0  0  0  0  0  0  0  0
    2.3489   -0.7174    2.1659 H   0  0  0  0  0  0  0  0  0  0  0  0
    0.3587    1.3411   -2.1350 H   0  0  0  0  0  0  0  0  0  0  0  0
    2.6402   -0.3619   -2.1269 H   0  0  0  0  0  0  0  0  0  0  0  0
    0.0680    0.9865    2.1469 H   0  0  0  0  0  0  0  0  0  0  0  0
   -1.7489   -1.3975    1.8082 H   0  0  0  0  0  0  0  0  0  0  0  0
   -1.4511   -1.0112   -2.4767 H   0  0  0  0  0  0  0  0  0  0  0  0
    4.7861   -1.0729    2.2916 H   0  0  0  0  0  0  0  0  0  0  0  0
   -0.6787    3.5820   -2.0154 H   0  0  0  0  0  0  0  0  0  0  0  0
    5.0760   -0.7194   -1.9808 H   0  0  0  0  0  0  0  0  0  0  0  0
   -0.9687    3.2287    2.2573 H   0  0  0  0  0  0  0  0  0  0  0  0
    6.1563   -1.0757    0.2237 H   0  0  0  0  0  0  0  0  0  0  0  0
   -1.3435    4.5301    0.1786 H   0  0  0  0  0  0  0  0  0  0  0  0
   -3.9073   -0.8017   -2.6206 H   0  0  0  0  0  0  0  0  0  0  0  0
   -5.2890   -0.8893   -0.5618 H   0  0  0  0  0  0  0  0  0  0  0  0
  1 19  1  0  0  0  0
  2  3  1  0  0  0  0
  2  4  1  0  0  0  0
  2  5  2  0  0  0  0
  3  7  2  0  0  0  0
  3  9  1  0  0  0  0
  4  8  2  0  0  0  0
  4 10  1  0  0  0  0
  5  6  1  0  0  0  0
  5 22  1  0  0  0  0
  6 11  2  0  0  0  0
  6 12  1  0  0  0  0
  7 13  1  0  0  0  0
  7 23  1  0  0  0  0
  8 14  1  0  0  0  0
  8 24  1  0  0  0  0
  9 15  2  0  0  0  0
  9 25  1  0  0  0  0
 10 16  2  0  0  0  0
 10 26  1  0  0  0  0
 11 19  1  0  0  0  0
 11 27  1  0  0  0  0
 12 20  2  0  0  0  0
 12 28  1  0  0  0  0
 13 17  2  0  0  0  0
 13 29  1  0  0  0  0
 14 18  2  0  0  0  0
 14 30  1  0  0  0  0
 15 17  1  0  0  0  0
 15 31  1  0  0  0  0
 16 18  1  0  0  0  0
 16 32  1  0  0  0  0
 17 33  1  0  0  0  0
 18 34  1  0  0  0  0
 19 21  2  0  0  0  0
 20 21  1  0  0  0  0
 20 35  1  0  0  0  0
 21 36  1  0  0  0  0
M  END
> <PUBCHEM_COMPOUND_CID>
9350

> <PUBCHEM_CONFORMER_RMSD>
0.6

> <PUBCHEM_CONFORMER_DIVERSEORDER>
2
3
1
4

> <PUBCHEM_MMFF94_PARTIAL_CHARGES>
36
1 -0.19
10 -0.15
11 -0.15
12 -0.15
13 -0.15
14 -0.15
15 -0.15
16 -0.15
17 -0.15
18 -0.15
19 0.19
2 -0.06
20 -0.15
21 -0.15
22 0.15
23 0.15
24 0.15
25 0.15
26 0.15
27 0.15
28 0.15
29 0.15
3 0.03
30 0.15
31 0.15
32 0.15
33 0.15
34 0.15
35 0.15
36 0.15
4 0.03
5 -0.18
6 0.03
7 -0.15
8 -0.15
9 -0.15

> <PUBCHEM_EFFECTIVE_ROTOR_COUNT>
3

> <PUBCHEM_PHARMACOPHORE_FEATURES>
3
6 3 7 9 13 15 17 rings
6 4 8 10 14 16 18 rings
6 6 11 12 19 20 21 rings

> <PUBCHEM_HEAVY_ATOM_COUNT>
21

> <PUBCHEM_ATOM_DEF_STEREO_COUNT>
0

> <PUBCHEM_ATOM_UDEF_STEREO_COUNT>
0

> <PUBCHEM_BOND_DEF_STEREO_COUNT>
0

> <PUBCHEM_BOND_UDEF_STEREO_COUNT>
0

> <PUBCHEM_ISOTOPIC_ATOM_COUNT>
0

> <PUBCHEM_COMPONENT_COUNT>
1

> <PUBCHEM_CACTVS_TAUTO_COUNT>
1

> <PUBCHEM_CONFORMER_ID>
0000248600000002

> <PUBCHEM_MMFF94_ENERGY>
73.9247

> <PUBCHEM_FEATURE_SELFOVERLAP>
15.223

> <PUBCHEM_SHAPE_FINGERPRINT>
104564 63 18337391655390848181
10764073 3 15288135896312165388
11578080 2 17531833314434017145
12422481 6 17900789920607559425
12553582 1 18410291393689472134
12714826 92 18336272331152710736
12788726 201 18342174505418115522
13009979 54 17677324984110351283
13134695 92 18264215712162380805
133893 2 17834694702874548677
13681431 1 18193843643347707212
13965767 371 16955025207209737755
14181834 199 17972610883016196589
14251757 17 17274553022378317900
14347329 18 16412982433267731631
14955137 171 18189035526539683451
15238133 3 18270382989294897749
15309172 13 8935005888260589895
15848700 24 18261966171216468350
15849732 13 17894346675395432359
16752209 62 18269006426047952342
17357779 13 18188508933188647157
17980427 23 14996283579178075185
1813 80 18334850598014165174
18222031 100 18334298625929015831
200 152 17346599681872601714
20097449 115 18410576145530719520
20510252 161 18335991960177787082
20600515 1 18261380101575470094
21029758 27 18341045242272266127
21041028 32 18411128109474950689
21304303 282 17481182254058861188
21330990 113 17023452136062971486
23175994 123 18343302544155504383
23352939 185 17346589755654269350
23402539 116 18335144201947280358
23419403 2 17971223406621738896
23557571 272 18260834830324390244
23558518 356 17838908379150944251
283562 15 18338804515021751386
3027735 51 18266462194437593770
312423 11 18201429342425870790
314173 85 18260829293531491818
350125 39 18047183339694671614
550186 7 14635407446917610521
68521 5 18410578421953102716
6992083 37 17749956553129775383
7164475 11 18269560597325487246
7495541 125 17916297243617049179
81228 2 18337950207213427296
9981440 41 16884182599232114506

> <PUBCHEM_SHAPE_MULTIPOLES>
424.9
8.18
3.01
1.61
5.12
4.15
0.07
-6.53
0.69
-1.98
0.06
-0.5
-0.06
-0.03

> <PUBCHEM_SHAPE_SELFOVERLAP>
936.829

> <PUBCHEM_SHAPE_VOLUME>
228.7

> <PUBCHEM_COORDINATE_TYPE>
2
5
10

$$$$

