11939
  -OEChem-06261206182D

 30 32  0     0  0  0  0  0  0999 V2000
    6.3961    0.5000    0.0000 C   0  0  0  0  0  0  0  0  0  0  0  0
    4.6641   -0.5000    0.0000 C   0  0  0  0  0  0  0  0  0  0  0  0
    6.3961   -0.5000    0.0000 C   0  0  0  0  0  0  0  0  0  0  0  0
    4.6641    0.5000    0.0000 C   0  0  0  0  0  0  0  0  0  0  0  0
    5.5301    1.0000    0.0000 C   0  0  0  0  0  0  0  0  0  0  0  0
    5.5301   -1.0000    0.0000 C   0  0  0  0  0  0  0  0  0  0  0  0
    7.2901    1.0347    0.0000 C   0  0  0  0  0  0  0  0  0  0  0  0
    3.7702   -1.0347    0.0000 C   0  0  0  0  0  0  0  0  0  0  0  0
    7.2901   -1.0347    0.0000 C   0  0  0  0  0  0  0  0  0  0  0  0
    3.7702    1.0347    0.0000 C   0  0  0  0  0  0  0  0  0  0  0  0
    8.1962    0.5208    0.0000 C   0  0  0  0  0  0  0  0  0  0  0  0
    2.8641   -0.5208    0.0000 C   0  0  0  0  0  0  0  0  0  0  0  0
    8.1962   -0.5208    0.0000 C   0  0  0  0  0  0  0  0  0  0  0  0
    2.8641    0.5208    0.0000 C   0  0  0  0  0  0  0  0  0  0  0  0
    9.0602    1.0241    0.0000 C   0  0  0  0  0  0  0  0  0  0  0  0
    2.0000   -1.0241    0.0000 C   0  0  0  0  0  0  0  0  0  0  0  0
    5.5301    1.6200    0.0000 H   0  0  0  0  0  0  0  0  0  0  0  0
    5.5301   -1.6200    0.0000 H   0  0  0  0  0  0  0  0  0  0  0  0
    7.2829    1.6546    0.0000 H   0  0  0  0  0  0  0  0  0  0  0  0
    3.7773   -1.6546    0.0000 H   0  0  0  0  0  0  0  0  0  0  0  0
    7.2829   -1.6546    0.0000 H   0  0  0  0  0  0  0  0  0  0  0  0
    3.7773    1.6546    0.0000 H   0  0  0  0  0  0  0  0  0  0  0  0
    8.7319   -0.8329    0.0000 H   0  0  0  0  0  0  0  0  0  0  0  0
    2.3284    0.8329    0.0000 H   0  0  0  0  0  0  0  0  0  0  0  0
    9.3723    0.4884    0.0000 H   0  0  0  0  0  0  0  0  0  0  0  0
    9.5960    1.3362    0.0000 H   0  0  0  0  0  0  0  0  0  0  0  0
    8.7482    1.5599    0.0000 H   0  0  0  0  0  0  0  0  0  0  0  0
    1.6879   -0.4884    0.0000 H   0  0  0  0  0  0  0  0  0  0  0  0
    1.4643   -1.3362    0.0000 H   0  0  0  0  0  0  0  0  0  0  0  0
    2.3121   -1.5599    0.0000 H   0  0  0  0  0  0  0  0  0  0  0  0
  1  3  2  0  0  0  0
  1  5  1  0  0  0  0
  1  7  1  0  0  0  0
  2  4  1  0  0  0  0
  2  6  2  0  0  0  0
  2  8  1  0  0  0  0
  3  6  1  0  0  0  0
  3  9  1  0  0  0  0
  4  5  2  0  0  0  0
  4 10  1  0  0  0  0
  5 17  1  0  0  0  0
  6 18  1  0  0  0  0
  7 11  2  0  0  0  0
  7 19  1  0  0  0  0
  8 12  2  0  0  0  0
  8 20  1  0  0  0  0
  9 13  2  0  0  0  0
  9 21  1  0  0  0  0
 10 14  2  0  0  0  0
 10 22  1  0  0  0  0
 11 13  1  0  0  0  0
 11 15  1  0  0  0  0
 12 14  1  0  0  0  0
 12 16  1  0  0  0  0
 13 23  1  0  0  0  0
 14 24  1  0  0  0  0
 15 25  1  0  0  0  0
 15 26  1  0  0  0  0
 15 27  1  0  0  0  0
 16 28  1  0  0  0  0
 16 29  1  0  0  0  0
 16 30  1  0  0  0  0
M  END
> <PUBCHEM_COMPOUND_CID>
11939

> <PUBCHEM_COMPOUND_CANONICALIZED>
1

> <PUBCHEM_CACTVS_COMPLEXITY>
218

> <PUBCHEM_CACTVS_HBOND_ACCEPTOR>
0

> <PUBCHEM_CACTVS_HBOND_DONOR>
0

> <PUBCHEM_CACTVS_ROTATABLE_BOND>
0

> <PUBCHEM_CACTVS_SUBSKEYS>
AAADccB4AAAAAAAAAAAAAAAAAAAAAAAAAAAwYMAAAAAAAADBVAAAGAAAAAAADACAGAAyAMAAAACAAiBCAAACAAAgAAAIiAAAAIgIICKAERCAIAAggAAIiAcAgMAOwAACAAAQAACAAAQAACAAAAAAAAAAAA==

> <PUBCHEM_IUPAC_OPENEYE_NAME>
2,6-dimethylanthracene

> <PUBCHEM_IUPAC_CAS_NAME>
2,6-dimethylanthracene

> <PUBCHEM_IUPAC_NAME>
2,6-dimethylanthracene

> <PUBCHEM_IUPAC_SYSTEMATIC_NAME>
2,6-dimethylanthracene

> <PUBCHEM_IUPAC_TRADITIONAL_NAME>
2,6-dimethylanthracene

> <PUBCHEM_IUPAC_INCHI>
InChI=1S/C16H14/c1-11-3-5-13-10-16-8-12(2)4-6-14(16)9-15(13)7-11/h3-10H,1-2H3

> <PUBCHEM_IUPAC_INCHIKEY>
AYRABHFHMLXKBT-UHFFFAOYSA-N

> <PUBCHEM_XLOGP3>
5.6

> <PUBCHEM_EXACT_MASS>
206.10955

> <PUBCHEM_MOLECULAR_FORMULA>
C16H14

> <PUBCHEM_MOLECULAR_WEIGHT>
206.28236

> <PUBCHEM_OPENEYE_CAN_SMILES>
CC1=CC2=CC3=C(C=C(C=C3)C)C=C2C=C1

> <PUBCHEM_OPENEYE_ISO_SMILES>
CC1=CC2=CC3=C(C=C(C=C3)C)C=C2C=C1

> <PUBCHEM_CACTVS_TPSA>
0

> <PUBCHEM_MONOISOTOPIC_WEIGHT>
206.10955

> <PUBCHEM_TOTAL_CHARGE>
0

> <PUBCHEM_HEAVY_ATOM_COUNT>
16

> <PUBCHEM_ATOM_DEF_STEREO_COUNT>
0

> <PUBCHEM_ATOM_UDEF_STEREO_COUNT>
0

> <PUBCHEM_BOND_DEF_STEREO_COUNT>
0

> <PUBCHEM_BOND_UDEF_STEREO_COUNT>
0

> <PUBCHEM_ISOTOPIC_ATOM_COUNT>
0

> <PUBCHEM_COMPONENT_COUNT>
1

> <PUBCHEM_CACTVS_TAUTO_COUNT>
1

> <PUBCHEM_COORDINATE_TYPE>
1
5
255

> <PUBCHEM_BONDANNOTATIONS>
1  3  8
1  5  8
1  7  8
10  14  8
11  13  8
12  14  8
2  4  8
2  6  8
2  8  8
3  6  8
3  9  8
4  10  8
4  5  8
7  11  8
8  12  8
9  13  8

$$$$

