47205624
  -OEChem-06241222593D

 35 36  0     0  0  0  0  0  0999 V2000
   -2.7204    2.5835    0.1170 O   0  0  0  0  0  0  0  0  0  0  0  0
   -3.9746   -2.7838   -0.0481 O   0  0  0  0  0  0  0  0  0  0  0  0
    2.0435    1.5585   -0.6896 O   0  0  0  0  0  0  0  0  0  0  0  0
    2.7852   -0.4715    0.2278 N   0  0  0  0  0  0  0  0  0  0  0  0
    6.3396   -0.7291    0.3417 N   0  0  0  0  0  0  0  0  0  0  0  0
    6.2834    0.4943   -0.2117 N   0  0  0  0  0  0  0  0  0  0  0  0
   -2.0086    0.3010   -0.1286 C   0  0  0  0  0  0  0  0  0  0  0  0
   -3.0093    1.2515    0.0736 C   0  0  0  0  0  0  0  0  0  0  0  0
   -2.3328   -1.0551   -0.1693 C   0  0  0  0  0  0  0  0  0  0  0  0
   -3.6576   -1.4606   -0.0078 C   0  0  0  0  0  0  0  0  0  0  0  0
   -4.3342    0.8460    0.2352 C   0  0  0  0  0  0  0  0  0  0  0  0
   -0.6183    0.7000   -0.3002 C   0  0  0  0  0  0  0  0  0  0  0  0
   -4.6582   -0.5100    0.1945 C   0  0  0  0  0  0  0  0  0  0  0  0
    0.4537   -0.0493    0.0383 C   0  0  0  0  0  0  0  0  0  0  0  0
    4.1954   -0.3489    0.1715 C   0  0  0  0  0  0  0  0  0  0  0  0
    1.8415    0.4571   -0.1919 C   0  0  0  0  0  0  0  0  0  0  0  0
    5.1160   -1.2780    0.5908 C   0  0  0  0  0  0  0  0  0  0  0  0
    4.9710    0.7211   -0.3134 C   0  0  0  0  0  0  0  0  0  0  0  0
   -3.8125    3.4752    0.3284 C   0  0  0  0  0  0  0  0  0  0  0  0
   -2.9028   -3.7019   -0.2583 C   0  0  0  0  0  0  0  0  0  0  0  0
   -1.5401   -1.7701   -0.3560 H   0  0  0  0  0  0  0  0  0  0  0  0
   -5.1658    1.5230    0.3960 H   0  0  0  0  0  0  0  0  0  0  0  0
   -0.4639    1.6826   -0.7398 H   0  0  0  0  0  0  0  0  0  0  0  0
   -5.6917   -0.8213    0.3207 H   0  0  0  0  0  0  0  0  0  0  0  0
    0.3490   -1.0246    0.5020 H   0  0  0  0  0  0  0  0  0  0  0  0
    2.4677   -1.3525    0.6262 H   0  0  0  0  0  0  0  0  0  0  0  0
    5.0157   -2.2586    1.0342 H   0  0  0  0  0  0  0  0  0  0  0  0
    4.6490    1.6607   -0.7383 H   0  0  0  0  0  0  0  0  0  0  0  0
    7.2503   -1.1322    0.5234 H   0  0  0  0  0  0  0  0  0  0  0  0
   -4.5351    3.4329   -0.4938 H   0  0  0  0  0  0  0  0  0  0  0  0
   -4.2800    3.3185    1.3066 H   0  0  0  0  0  0  0  0  0  0  0  0
   -3.4014    4.4902    0.3346 H   0  0  0  0  0  0  0  0  0  0  0  0
   -2.4377   -3.5606   -1.2398 H   0  0  0  0  0  0  0  0  0  0  0  0
   -2.1740   -3.6661    0.5587 H   0  0  0  0  0  0  0  0  0  0  0  0
   -3.3353   -4.7079   -0.2539 H   0  0  0  0  0  0  0  0  0  0  0  0
  1  8  1  0  0  0  0
  1 19  1  0  0  0  0
  2 10  1  0  0  0  0
  2 20  1  0  0  0  0
  3 16  2  0  0  0  0
  4 15  1  0  0  0  0
  4 16  1  0  0  0  0
  4 26  1  0  0  0  0
  5  6  1  0  0  0  0
  5 17  1  0  0  0  0
  5 29  1  0  0  0  0
  6 18  2  0  0  0  0
  7  8  2  0  0  0  0
  7  9  1  0  0  0  0
  7 12  1  0  0  0  0
  8 11  1  0  0  0  0
  9 10  2  0  0  0  0
  9 21  1  0  0  0  0
 10 13  1  0  0  0  0
 11 13  2  0  0  0  0
 11 22  1  0  0  0  0
 12 14  2  0  0  0  0
 12 23  1  0  0  0  0
 13 24  1  0  0  0  0
 14 16  1  0  0  0  0
 14 25  1  0  0  0  0
 15 17  2  0  0  0  0
 15 18  1  0  0  0  0
 17 27  1  0  0  0  0
 18 28  1  0  0  0  0
 19 30  1  0  0  0  0
 19 31  1  0  0  0  0
 19 32  1  0  0  0  0
 20 33  1  0  0  0  0
 20 34  1  0  0  0  0
 20 35  1  0  0  0  0
M  END
> <PUBCHEM_COMPOUND_CID>
47205624

> <PUBCHEM_CONFORMER_RMSD>
0.8

> <PUBCHEM_CONFORMER_DIVERSEORDER>
5
8
7
6
10
13
9
11
12
3
4
1
2

> <PUBCHEM_MMFF94_PARTIAL_CHARGES>
29
1 -0.36
10 0.08
11 -0.15
12 -0.18
13 -0.15
14 -0.14
15 0.06
16 0.62
17 -0.3
18 0.14
19 0.28
2 -0.36
20 0.28
21 0.15
22 0.15
23 0.15
24 0.15
25 0.15
26 0.37
27 0.15
28 0.15
29 0.27
3 -0.57
4 -0.49
5 0.3
6 -0.71
7 0.03
8 0.08
9 -0.15

> <PUBCHEM_EFFECTIVE_ROTOR_COUNT>
6

> <PUBCHEM_PHARMACOPHORE_FEATURES>
8
1 1 acceptor
1 2 acceptor
1 3 acceptor
1 4 donor
1 5 donor
1 6 acceptor
5 5 6 15 17 18 rings
6 7 8 9 10 11 13 rings

> <PUBCHEM_HEAVY_ATOM_COUNT>
20

> <PUBCHEM_ATOM_DEF_STEREO_COUNT>
0

> <PUBCHEM_ATOM_UDEF_STEREO_COUNT>
0

> <PUBCHEM_BOND_DEF_STEREO_COUNT>
0

> <PUBCHEM_BOND_UDEF_STEREO_COUNT>
1

> <PUBCHEM_ISOTOPIC_ATOM_COUNT>
0

> <PUBCHEM_COMPONENT_COUNT>
1

> <PUBCHEM_CACTVS_TAUTO_COUNT>
4

> <PUBCHEM_CONFORMER_ID>
02D04CF800000005

> <PUBCHEM_MMFF94_ENERGY>
65.3216

> <PUBCHEM_FEATURE_SELFOVERLAP>
40.594

> <PUBCHEM_SHAPE_MULTIPOLES>
379.04
14.34
3.16
0.67
22.74
0.73
0
1.34
-1.24
-6.32
-0.01
0.13
-0.02
-0.92

> <PUBCHEM_SHAPE_SELFOVERLAP>
803

> <PUBCHEM_SHAPE_VOLUME>
213

> <PUBCHEM_COORDINATE_TYPE>
2
5
10

$$$$

