10473
  -OEChem-06261204352D

 12 10  0     0  0  0  0  0  0999 V2000
    0.9030    0.0000    0.0000 Cl  0  0  0  0  0  0  0  0  0  0  0  0
    1.4030    3.1200    0.0000 N   0  0  0  0  0  0  0  0  0  0  0  0
    2.2690    3.6200    0.0000 C   0  0  0  0  0  0  0  0  0  0  0  0
    0.5369    3.6200    0.0000 C   0  0  0  0  0  0  0  0  0  0  0  0
    1.4030    2.5000    0.0000 H   0  0  0  0  0  0  0  0  0  0  0  0
    2.5790    3.0831    0.0000 H   0  0  0  0  0  0  0  0  0  0  0  0
    2.8059    3.9300    0.0000 H   0  0  0  0  0  0  0  0  0  0  0  0
    1.9590    4.1569    0.0000 H   0  0  0  0  0  0  0  0  0  0  0  0
    0.8469    4.1569    0.0000 H   0  0  0  0  0  0  0  0  0  0  0  0
    0.0000    3.9300    0.0000 H   0  0  0  0  0  0  0  0  0  0  0  0
    0.2269    3.0831    0.0000 H   0  0  0  0  0  0  0  0  0  0  0  0
    1.9030    0.0000    0.0000 H   0  0  0  0  0  0  0  0  0  0  0  0
  1 12  1  0  0  0  0
  2  3  1  0  0  0  0
  2  4  1  0  0  0  0
  2  5  1  0  0  0  0
  3  6  1  0  0  0  0
  3  7  1  0  0  0  0
  3  8  1  0  0  0  0
  4  9  1  0  0  0  0
  4 10  1  0  0  0  0
  4 11  1  0  0  0  0
M  END
> <PUBCHEM_COMPOUND_CID>
10473

> <PUBCHEM_COMPOUND_CANONICALIZED>
1

> <PUBCHEM_CACTVS_COMPLEXITY>
2.8

> <PUBCHEM_CACTVS_HBOND_ACCEPTOR>
1

> <PUBCHEM_CACTVS_HBOND_DONOR>
2

> <PUBCHEM_CACTVS_ROTATABLE_BOND>
0

> <PUBCHEM_CACTVS_SUBSKEYS>
AAADccBCAAAEAAAAAAAAAAAAAAAAAAAAAAAAAAAAAAAAAAAAAAAAFAAQAAAAAAAAAAQCAALAAAAAAAAAAAAAAAAAAAAAAIAIAAAAAAAAAAAAAAAAAAAAAAAAAAAAAAAAAAAAAAAAAAAAAAAAAAAAAAAAAA==

> <PUBCHEM_IUPAC_OPENEYE_NAME>
N-methylmethanamine hydrochloride

> <PUBCHEM_IUPAC_CAS_NAME>
N-methylmethanamine hydrochloride

> <PUBCHEM_IUPAC_NAME>
N-methylmethanamine hydrochloride

> <PUBCHEM_IUPAC_SYSTEMATIC_NAME>
N-methylmethanamine hydrochloride

> <PUBCHEM_IUPAC_TRADITIONAL_NAME>
dimethylamine hydrochloride

> <PUBCHEM_IUPAC_INCHI>
InChI=1S/C2H7N.ClH/c1-3-2;/h3H,1-2H3;1H

> <PUBCHEM_IUPAC_INCHIKEY>
IQDGSYLLQPDQDV-UHFFFAOYSA-N

> <PUBCHEM_EXACT_MASS>
81.034527

> <PUBCHEM_MOLECULAR_FORMULA>
C2H8ClN

> <PUBCHEM_MOLECULAR_WEIGHT>
81.54462

> <PUBCHEM_OPENEYE_CAN_SMILES>
CNC.Cl

> <PUBCHEM_OPENEYE_ISO_SMILES>
CNC.Cl

> <PUBCHEM_CACTVS_TPSA>
12

> <PUBCHEM_MONOISOTOPIC_WEIGHT>
81.034527

> <PUBCHEM_TOTAL_CHARGE>
0

> <PUBCHEM_HEAVY_ATOM_COUNT>
4

> <PUBCHEM_ATOM_DEF_STEREO_COUNT>
0

> <PUBCHEM_ATOM_UDEF_STEREO_COUNT>
0

> <PUBCHEM_BOND_DEF_STEREO_COUNT>
0

> <PUBCHEM_BOND_UDEF_STEREO_COUNT>
0

> <PUBCHEM_ISOTOPIC_ATOM_COUNT>
0

> <PUBCHEM_COMPONENT_COUNT>
2

> <PUBCHEM_CACTVS_TAUTO_COUNT>
1

> <PUBCHEM_COORDINATE_TYPE>
1
5
255

$$$$

