586043
  -OEChem-06241222453D

 22 23  0     1  0  0  0  0  0999 V2000
   -0.4042   -2.2777    0.1316 S   0  0  0  0  0  0  0  0  0  0  0  0
   -1.3310    2.0633   -0.0603 O   0  0  0  0  0  0  0  0  0  0  0  0
   -2.1414   -0.1737    0.3376 C   0  0  1  0  0  0  0  0  0  0  0  0
   -1.8916   -1.4401   -0.4697 C   0  0  0  0  0  0  0  0  0  0  0  0
   -1.0625    0.8702    0.0669 C   0  0  0  0  0  0  0  0  0  0  0  0
    0.3637    0.4352    0.0219 C   0  0  0  0  0  0  0  0  0  0  0  0
    0.7450   -0.9148    0.0620 C   0  0  0  0  0  0  0  0  0  0  0  0
   -3.5243    0.3866   -0.0060 C   0  0  0  0  0  0  0  0  0  0  0  0
    1.3493    1.4336   -0.0485 C   0  0  0  0  0  0  0  0  0  0  0  0
    2.1117   -1.2383    0.0498 C   0  0  0  0  0  0  0  0  0  0  0  0
    2.7019    1.0955   -0.0685 C   0  0  0  0  0  0  0  0  0  0  0  0
    3.0834   -0.2398   -0.0167 C   0  0  0  0  0  0  0  0  0  0  0  0
   -2.1311   -0.3856    1.4150 H   0  0  0  0  0  0  0  0  0  0  0  0
   -2.7285   -2.1390   -0.3694 H   0  0  0  0  0  0  0  0  0  0  0  0
   -1.7686   -1.2178   -1.5360 H   0  0  0  0  0  0  0  0  0  0  0  0
   -4.3071   -0.3519    0.1973 H   0  0  0  0  0  0  0  0  0  0  0  0
   -3.7459    1.2777    0.5914 H   0  0  0  0  0  0  0  0  0  0  0  0
   -3.5875    0.6711   -1.0622 H   0  0  0  0  0  0  0  0  0  0  0  0
    1.0848    2.4877   -0.0813 H   0  0  0  0  0  0  0  0  0  0  0  0
    2.4396   -2.2754    0.0855 H   0  0  0  0  0  0  0  0  0  0  0  0
    3.4560    1.8752   -0.1206 H   0  0  0  0  0  0  0  0  0  0  0  0
    4.1361   -0.5063   -0.0293 H   0  0  0  0  0  0  0  0  0  0  0  0
  1  4  1  0  0  0  0
  1  7  1  0  0  0  0
  2  5  2  0  0  0  0
  3  4  1  0  0  0  0
  3  5  1  0  0  0  0
  3  8  1  0  0  0  0
  3 13  1  0  0  0  0
  4 14  1  0  0  0  0
  4 15  1  0  0  0  0
  5  6  1  0  0  0  0
  6  7  1  0  0  0  0
  6  9  2  0  0  0  0
  7 10  2  0  0  0  0
  8 16  1  0  0  0  0
  8 17  1  0  0  0  0
  8 18  1  0  0  0  0
  9 11  1  0  0  0  0
  9 19  1  0  0  0  0
 10 12  1  0  0  0  0
 10 20  1  0  0  0  0
 11 12  2  0  0  0  0
 11 21  1  0  0  0  0
 12 22  1  0  0  0  0
M  END
> <PUBCHEM_COMPOUND_CID>
586043

> <PUBCHEM_CONFORMER_RMSD>
0.4

> <PUBCHEM_CONFORMER_DIVERSEORDER>
3
1
2

> <PUBCHEM_MMFF94_PARTIAL_CHARGES>
15
1 -0.33
10 -0.15
11 -0.15
12 -0.15
19 0.15
2 -0.57
20 0.15
21 0.15
22 0.15
3 0.06
4 0.23
5 0.42
6 0.09
7 0.1
9 -0.15

> <PUBCHEM_EFFECTIVE_ROTOR_COUNT>
0.6

> <PUBCHEM_PHARMACOPHORE_FEATURES>
3
1 2 acceptor
6 1 3 4 5 6 7 rings
6 6 7 9 10 11 12 rings

> <PUBCHEM_HEAVY_ATOM_COUNT>
12

> <PUBCHEM_ATOM_DEF_STEREO_COUNT>
0

> <PUBCHEM_ATOM_UDEF_STEREO_COUNT>
1

> <PUBCHEM_BOND_DEF_STEREO_COUNT>
0

> <PUBCHEM_BOND_UDEF_STEREO_COUNT>
0

> <PUBCHEM_ISOTOPIC_ATOM_COUNT>
0

> <PUBCHEM_COMPONENT_COUNT>
1

> <PUBCHEM_CACTVS_TAUTO_COUNT>
2

> <PUBCHEM_CONFORMER_ID>
0008F13B00000003

> <PUBCHEM_MMFF94_ENERGY>
29.5291

> <PUBCHEM_FEATURE_SELFOVERLAP>
15.238

> <PUBCHEM_SHAPE_FINGERPRINT>
10967382 1 18410573998036366027
11132069 177 18334299742773051754
11471102 20 18411705426040943877
12382932 28 18337391522030519426
12423570 1 10914384584998620685
12524768 44 18408597046070375439
12897270 3 18410575067493791772
13380535 76 18409168800786030638
13897977 150 18337394833603395569
14325111 11 18410573959423981825
15775835 57 18408880724375643952
16945 1 18410856555545373290
17844478 74 17988916760999886089
193761 8 17618222149160036697
20201158 50 18409448106719659382
20645476 183 17844791629737487574
20871998 184 18115582634955358599
21501502 16 18337956662702221430
22802520 49 18189312633508137630
2334 1 18122343471576844058
23402539 116 18335151885558941710
23402655 69 18335995241786184565
23463225 33 18269557294147489866
23552423 10 18198905816467262814
23559900 14 18261948537109775716
241688 4 15310973053553089019
2748010 2 18049721815357666302
2897 32 18412545439675763318
5084963 1 18186803616428902042
528886 8 18410297986342601515
53812653 166 18261679185976058496
66348 1 18339924942855181770
8809292 202 18343015571473202178

> <PUBCHEM_SHAPE_MULTIPOLES>
244.93
4.56
2.13
0.65
0.38
0.39
0
-0.67
-0.08
0.22
-0.03
0.05
0.06
-0.12

> <PUBCHEM_SHAPE_SELFOVERLAP>
508.347

> <PUBCHEM_SHAPE_VOLUME>
140.8

> <PUBCHEM_COORDINATE_TYPE>
2
5
10

$$$$

