6434
  -OEChem-06261201193D

 29 28  0     0  0  0  0  0  0999 V2000
    0.7474    1.8686   -0.0410 F   0  0  0  0  0  0  0  0  0  0  0  0
   -0.7882    1.3219    1.3753 F   0  0  0  0  0  0  0  0  0  0  0  0
    1.5387    0.3200    2.0196 F   0  0  0  0  0  0  0  0  0  0  0  0
    0.1258   -1.2336    1.4929 F   0  0  0  0  0  0  0  0  0  0  0  0
   -0.1400    0.1005   -1.8501 F   0  0  0  0  0  0  0  0  0  0  0  0
   -1.5784    1.5838   -1.1890 F   0  0  0  0  0  0  0  0  0  0  0  0
    1.2955   -1.5994   -0.9189 F   0  0  0  0  0  0  0  0  0  0  0  0
    2.5801   -1.8385    0.8134 F   0  0  0  0  0  0  0  0  0  0  0  0
   -1.3771   -1.8593   -0.5114 F   0  0  0  0  0  0  0  0  0  0  0  0
   -2.6342   -0.7059   -1.8505 F   0  0  0  0  0  0  0  0  0  0  0  0
    2.3951    0.8499   -1.4509 F   0  0  0  0  0  0  0  0  0  0  0  0
    3.7805   -0.8197   -1.3562 F   0  0  0  0  0  0  0  0  0  0  0  0
   -2.4404   -0.4275    1.6243 F   0  0  0  0  0  0  0  0  0  0  0  0
   -3.8065   -1.6397    0.4504 F   0  0  0  0  0  0  0  0  0  0  0  0
    4.5957   -0.0986    1.1186 F   0  0  0  0  0  0  0  0  0  0  0  0
    4.7536    1.4895   -0.3614 F   0  0  0  0  0  0  0  0  0  0  0  0
   -5.0247    0.4731   -0.5360 O   0  0  0  0  0  0  0  0  0  0  0  0
   -3.7319    1.7989    0.7789 O   0  0  0  0  0  0  0  0  0  0  0  0
   -0.0251    0.8199    0.3675 C   0  0  0  0  0  0  0  0  0  0  0  0
    0.8912   -0.2429    0.9583 C   0  0  0  0  0  0  0  0  0  0  0  0
   -0.9335    0.4461   -0.7940 C   0  0  0  0  0  0  0  0  0  0  0  0
    1.9310   -0.9016    0.0608 C   0  0  0  0  0  0  0  0  0  0  0  0
   -1.9795   -0.6518   -0.6442 C   0  0  0  0  0  0  0  0  0  0  0  0
    2.9835   -0.0198   -0.5932 C   0  0  0  0  0  0  0  0  0  0  0  0
   -3.0675   -0.4968    0.4109 C   0  0  0  0  0  0  0  0  0  0  0  0
    3.8676    0.7526    0.3575 C   0  0  0  0  0  0  0  0  0  0  0  0
   -3.9587    0.7103    0.2686 C   0  0  0  0  0  0  0  0  0  0  0  0
    3.3164    1.4407    1.0016 H   0  0  0  0  0  0  0  0  0  0  0  0
   -5.5874    1.2696   -0.6425 H   0  0  0  0  0  0  0  0  0  0  0  0
  1 19  1  0  0  0  0
  2 19  1  0  0  0  0
  3 20  1  0  0  0  0
  4 20  1  0  0  0  0
  5 21  1  0  0  0  0
  6 21  1  0  0  0  0
  7 22  1  0  0  0  0
  8 22  1  0  0  0  0
  9 23  1  0  0  0  0
 10 23  1  0  0  0  0
 11 24  1  0  0  0  0
 12 24  1  0  0  0  0
 13 25  1  0  0  0  0
 14 25  1  0  0  0  0
 15 26  1  0  0  0  0
 16 26  1  0  0  0  0
 17 27  1  0  0  0  0
 17 29  1  0  0  0  0
 18 27  2  0  0  0  0
 19 20  1  0  0  0  0
 19 21  1  0  0  0  0
 20 22  1  0  0  0  0
 21 23  1  0  0  0  0
 22 24  1  0  0  0  0
 23 25  1  0  0  0  0
 24 26  1  0  0  0  0
 25 27  1  0  0  0  0
 26 28  1  0  0  0  0
M  END
> <PUBCHEM_COMPOUND_CID>
6434

> <PUBCHEM_CONFORMER_RMSD>
1

> <PUBCHEM_CONFORMER_DIVERSEORDER>
1
33
271
193
165
134
264
176
205
25
173
250
2
199
195
106
268
221
95
51
182
135
241
72
207
46
269
178
150
111
208
26
76
254
158
177
194
156
35
235
30
116
174
200
125
66
164
232
142
242
204
261
24
3
36
187
118
238
267
22
265
197
263
94
270
138
223
23
13
201
262
198
172
31
227
185
215
79
179
84
167
87
45
121
255
258
246
259
203
19
14
83
81
152
107
236
98
260
99
8
169
82
196
226
90
181
38
145
213
249
60
65
162
144
42
104
209
251
28
153
56
202
222
133
183
247
48
143
190
39
73
239
75
151
148
214
43
218
244
44
112
70
252
61
85
237
168
189
115
67
243
141
117
113
32
124
137
211
18
155
166
180
86
230
147
192
114
228
217
184
171
231
27
16
191
160
21
9
245
53
80
132
225
120
4
77
175
96
93
256
6
266
78
34
219
123
127
119
163
89
240
101
88
62
54
170
10
103
37
108
161
210
233
69
130
139
234
63
122
29
157
5
212
74
216
159
68
224
58
131
47
188
64
97
15
206
220
100
253
49
186
140
71
41
105
129
52
57
7
149
128
110
136
55
17
12
229
146
257
40
102
20
91
50
154
248
11
92
59
109
126

> <PUBCHEM_MMFF94_PARTIAL_CHARGES>
28
1 -0.34
10 -0.34
11 -0.34
12 -0.34
13 -0.34
14 -0.34
15 -0.34
16 -0.34
17 -0.65
18 -0.57
19 0.68
2 -0.34
20 0.68
21 0.68
22 0.68
23 0.68
24 0.68
25 0.74
26 0.68
27 0.66
29 0.5
3 -0.34
4 -0.34
5 -0.34
6 -0.34
7 -0.34
8 -0.34
9 -0.34

> <PUBCHEM_EFFECTIVE_ROTOR_COUNT>
8

> <PUBCHEM_PHARMACOPHORE_FEATURES>
3
1 17 acceptor
1 18 acceptor
3 17 18 27 anion

> <PUBCHEM_HEAVY_ATOM_COUNT>
27

> <PUBCHEM_ATOM_DEF_STEREO_COUNT>
0

> <PUBCHEM_ATOM_UDEF_STEREO_COUNT>
0

> <PUBCHEM_BOND_DEF_STEREO_COUNT>
0

> <PUBCHEM_BOND_UDEF_STEREO_COUNT>
0

> <PUBCHEM_ISOTOPIC_ATOM_COUNT>
0

> <PUBCHEM_COMPONENT_COUNT>
1

> <PUBCHEM_CACTVS_TAUTO_COUNT>
1

> <PUBCHEM_CONFORMER_ID>
0000192200000001

> <PUBCHEM_MMFF94_ENERGY>
20.5328

> <PUBCHEM_FEATURE_SELFOVERLAP>
15.281

> <PUBCHEM_SHAPE_FINGERPRINT>
10863032 1 18337946887288129531
10948715 1 18334851774961758981
11132069 177 18412258432686080446
12011746 2 15647050482221586457
12173636 292 18201158862074619677
12236239 1 18272934925338243673
12403259 226 9511455598403691671
12403814 3 18202571674102030701
12592029 89 12535356709297716800
12788726 201 17604142735231298168
128620 24 17418096520120673253
13221675 6 18261107474035989565
13224815 77 18131072619054351804
13581323 91 11239994547032615984
15375358 24 18334293179910061979
15788980 27 18410013238980645362
16752209 62 17168704279391658017
16945 1 18271252629255286118
17349148 13 12751239211624797056
18186145 218 17846497049839866598
19422 9 18272366481995245139
200 152 16272214084707340745
23402539 116 17346886619720359894
23559900 14 17968088772660126686
296302 2 18272647930859085240
34934 24 18410575106386199097
4340502 62 17632289095247434065
474 4 18200589194824626020
5104073 3 18344145882342801632
633830 44 18343294860548461878
74978 22 16081380617634360839

> <PUBCHEM_SHAPE_MULTIPOLES>
427.53
8.03
1.62
1.52
0.47
0.03
-0.01
-1.17
0.07
-0.21
-0.03
0.15
0.07
-0.15

> <PUBCHEM_SHAPE_SELFOVERLAP>
923.375

> <PUBCHEM_SHAPE_VOLUME>
229.9

> <PUBCHEM_COORDINATE_TYPE>
2
5
10

$$$$

