17396630
  -OEChem-06241222572D

 42 43  0     0  0  0  0  0  0999 V2000
    3.7320    0.2500    0.0000 O   0  0  0  0  0  0  0  0  0  0  0  0
    3.7320   -4.7500    0.0000 O   0  0  0  0  0  0  0  0  0  0  0  0
    5.4641    0.2500    0.0000 N   0  0  0  0  0  0  0  0  0  0  0  0
    2.8660   -3.2500    0.0000 N   0  0  0  0  0  0  0  0  0  0  0  0
    6.3301    1.7500    0.0000 C   0  0  0  0  0  0  0  0  0  0  0  0
    6.3301    2.7500    0.0000 C   0  0  0  0  0  0  0  0  0  0  0  0
    5.4641    1.2500    0.0000 C   0  0  0  0  0  0  0  0  0  0  0  0
    7.1962    3.2500    0.0000 C   0  0  0  0  0  0  0  0  0  0  0  0
    4.5981   -0.2500    0.0000 C   0  0  0  0  0  0  0  0  0  0  0  0
    8.0622    2.7500    0.0000 C   0  0  0  0  0  0  0  0  0  0  0  0
    7.1962    4.2500    0.0000 C   0  0  0  0  0  0  0  0  0  0  0  0
    4.5981   -1.2500    0.0000 C   0  0  0  0  0  0  0  0  0  0  0  0
    3.7320   -1.7500    0.0000 C   0  0  0  0  0  0  0  0  0  0  0  0
    3.7320   -2.7500    0.0000 C   0  0  0  0  0  0  0  0  0  0  0  0
    8.9282    3.2500    0.0000 C   0  0  0  0  0  0  0  0  0  0  0  0
    8.0622    4.7500    0.0000 C   0  0  0  0  0  0  0  0  0  0  0  0
    5.4641   -1.7500    0.0000 C   0  0  0  0  0  0  0  0  0  0  0  0
    8.9282    4.2500    0.0000 C   0  0  0  0  0  0  0  0  0  0  0  0
    4.5981   -3.2500    0.0000 C   0  0  0  0  0  0  0  0  0  0  0  0
    5.4641   -2.7500    0.0000 C   0  0  0  0  0  0  0  0  0  0  0  0
    2.8660   -4.2500    0.0000 C   0  0  0  0  0  0  0  0  0  0  0  0
    2.0000   -4.7500    0.0000 C   0  0  0  0  0  0  0  0  0  0  0  0
    6.5422    1.1674    0.0000 H   0  0  0  0  0  0  0  0  0  0  0  0
    6.9407    1.8577    0.0000 H   0  0  0  0  0  0  0  0  0  0  0  0
    6.1181    3.3326    0.0000 H   0  0  0  0  0  0  0  0  0  0  0  0
    5.7196    2.6423    0.0000 H   0  0  0  0  0  0  0  0  0  0  0  0
    5.2520    1.8326    0.0000 H   0  0  0  0  0  0  0  0  0  0  0  0
    4.8535    1.1423    0.0000 H   0  0  0  0  0  0  0  0  0  0  0  0
    6.0010   -0.0600    0.0000 H   0  0  0  0  0  0  0  0  0  0  0  0
    8.0622    2.1300    0.0000 H   0  0  0  0  0  0  0  0  0  0  0  0
    6.6592    4.5600    0.0000 H   0  0  0  0  0  0  0  0  0  0  0  0
    3.1951   -1.4400    0.0000 H   0  0  0  0  0  0  0  0  0  0  0  0
    9.4651    2.9400    0.0000 H   0  0  0  0  0  0  0  0  0  0  0  0
    8.0622    5.3700    0.0000 H   0  0  0  0  0  0  0  0  0  0  0  0
    6.0010   -1.4400    0.0000 H   0  0  0  0  0  0  0  0  0  0  0  0
    9.4651    4.5600    0.0000 H   0  0  0  0  0  0  0  0  0  0  0  0
    4.5981   -3.8700    0.0000 H   0  0  0  0  0  0  0  0  0  0  0  0
    6.0010   -3.0600    0.0000 H   0  0  0  0  0  0  0  0  0  0  0  0
    2.3291   -2.9400    0.0000 H   0  0  0  0  0  0  0  0  0  0  0  0
    1.6900   -4.2131    0.0000 H   0  0  0  0  0  0  0  0  0  0  0  0
    1.4631   -5.0600    0.0000 H   0  0  0  0  0  0  0  0  0  0  0  0
    2.3100   -5.2869    0.0000 H   0  0  0  0  0  0  0  0  0  0  0  0
  1  9  2  0  0  0  0
  2 21  2  0  0  0  0
  3  7  1  0  0  0  0
  3  9  1  0  0  0  0
  3 29  1  0  0  0  0
  4 14  1  0  0  0  0
  4 21  1  0  0  0  0
  4 39  1  0  0  0  0
  5  6  1  0  0  0  0
  5  7  1  0  0  0  0
  5 23  1  0  0  0  0
  5 24  1  0  0  0  0
  6  8  1  0  0  0  0
  6 25  1  0  0  0  0
  6 26  1  0  0  0  0
  7 27  1  0  0  0  0
  7 28  1  0  0  0  0
  8 10  2  0  0  0  0
  8 11  1  0  0  0  0
  9 12  1  0  0  0  0
 10 15  1  0  0  0  0
 10 30  1  0  0  0  0
 11 16  2  0  0  0  0
 11 31  1  0  0  0  0
 12 13  2  0  0  0  0
 12 17  1  0  0  0  0
 13 14  1  0  0  0  0
 13 32  1  0  0  0  0
 14 19  2  0  0  0  0
 15 18  2  0  0  0  0
 15 33  1  0  0  0  0
 16 18  1  0  0  0  0
 16 34  1  0  0  0  0
 17 20  2  0  0  0  0
 17 35  1  0  0  0  0
 18 36  1  0  0  0  0
 19 20  1  0  0  0  0
 19 37  1  0  0  0  0
 20 38  1  0  0  0  0
 21 22  1  0  0  0  0
 22 40  1  0  0  0  0
 22 41  1  0  0  0  0
 22 42  1  0  0  0  0
M  END
> <PUBCHEM_COMPOUND_CID>
17396630

> <PUBCHEM_COMPOUND_CANONICALIZED>
1

> <PUBCHEM_CACTVS_COMPLEXITY>
364

> <PUBCHEM_CACTVS_HBOND_ACCEPTOR>
2

> <PUBCHEM_CACTVS_HBOND_DONOR>
2

> <PUBCHEM_CACTVS_ROTATABLE_BOND>
6

> <PUBCHEM_CACTVS_SUBSKEYS>
AAADceB7MAAAAAAAAAAAAAAAAAAAAAAAAAAwYAAAAAAAAAABQAAAHgAQAAAADAjBmAQywILAAACIAiVSUACCAAAlAgAIiIEIZMgIIDLAlZGEIQhglgDIyYcciICOAAAAQAAAAAAAAACAAAAAAAAAAAAAAA==

> <PUBCHEM_IUPAC_OPENEYE_NAME>
3-acetamido-N-(3-phenylpropyl)benzamide

> <PUBCHEM_IUPAC_CAS_NAME>
3-acetamido-N-(3-phenylpropyl)benzamide

> <PUBCHEM_IUPAC_NAME>
3-acetamido-N-(3-phenylpropyl)benzamide

> <PUBCHEM_IUPAC_SYSTEMATIC_NAME>
3-acetamido-N-(3-phenylpropyl)benzamide

> <PUBCHEM_IUPAC_TRADITIONAL_NAME>
3-acetamido-N-(3-phenylpropyl)benzamide

> <PUBCHEM_IUPAC_INCHI>
InChI=1S/C18H20N2O2/c1-14(21)20-17-11-5-10-16(13-17)18(22)19-12-6-9-15-7-3-2-4-8-15/h2-5,7-8,10-11,13H,6,9,12H2,1H3,(H,19,22)(H,20,21)

> <PUBCHEM_IUPAC_INCHIKEY>
JASHUPCRYLJKEQ-UHFFFAOYSA-N

> <PUBCHEM_XLOGP3_AA>
2.7

> <PUBCHEM_EXACT_MASS>
296.152478

> <PUBCHEM_MOLECULAR_FORMULA>
C18H20N2O2

> <PUBCHEM_MOLECULAR_WEIGHT>
296.3636

> <PUBCHEM_OPENEYE_CAN_SMILES>
CC(=O)NC1=CC=CC(=C1)C(=O)NCCCC2=CC=CC=C2

> <PUBCHEM_OPENEYE_ISO_SMILES>
CC(=O)NC1=CC=CC(=C1)C(=O)NCCCC2=CC=CC=C2

> <PUBCHEM_CACTVS_TPSA>
58.2

> <PUBCHEM_MONOISOTOPIC_WEIGHT>
296.152478

> <PUBCHEM_TOTAL_CHARGE>
0

> <PUBCHEM_HEAVY_ATOM_COUNT>
22

> <PUBCHEM_ATOM_DEF_STEREO_COUNT>
0

> <PUBCHEM_ATOM_UDEF_STEREO_COUNT>
0

> <PUBCHEM_BOND_DEF_STEREO_COUNT>
0

> <PUBCHEM_BOND_UDEF_STEREO_COUNT>
0

> <PUBCHEM_ISOTOPIC_ATOM_COUNT>
0

> <PUBCHEM_COMPONENT_COUNT>
1

> <PUBCHEM_CACTVS_TAUTO_COUNT>
6

> <PUBCHEM_COORDINATE_TYPE>
1
5
255

> <PUBCHEM_BONDANNOTATIONS>
10  15  8
11  16  8
12  13  8
12  17  8
13  14  8
14  19  8
15  18  8
16  18  8
17  20  8
19  20  8
8  10  8
8  11  8

$$$$

