17395377
  -OEChem-06241222492D

 37 38  0     1  0  0  0  0  0999 V2000
    6.3301   -4.1739    0.0000 F   0  0  0  0  0  0  0  0  0  0  0  0
    4.5981   -1.1739    0.0000 O   0  0  0  0  0  0  0  0  0  0  0  0
    4.5981    0.8261    0.0000 O   0  0  0  0  0  0  0  0  0  0  0  0
    5.8301    3.3649    0.0000 O   0  0  0  0  0  0  0  0  0  0  0  0
    2.0000   -2.6739    0.0000 O   0  5  0  0  0  0  0  0  0  0  0  0
    2.8660   -1.1739    0.0000 O   0  0  0  0  0  0  0  0  0  0  0  0
    6.3301    0.8261    0.0000 N   0  0  0  0  0  0  0  0  0  0  0  0
    2.8660   -2.1739    0.0000 N   0  3  0  0  0  0  0  0  0  0  0  0
    5.5211    2.4139    0.0000 N   0  0  0  0  0  0  0  0  0  0  0  0
    5.4641   -0.6739    0.0000 C   0  0  3  0  0  0  0  0  0  0  0  0
    6.3301   -1.1739    0.0000 C   0  0  0  0  0  0  0  0  0  0  0  0
    5.4641    0.3261    0.0000 C   0  0  0  0  0  0  0  0  0  0  0  0
    7.1962   -0.6739    0.0000 C   0  0  0  0  0  0  0  0  0  0  0  0
    4.5981   -2.1739    0.0000 C   0  0  0  0  0  0  0  0  0  0  0  0
    3.7320   -2.6739    0.0000 C   0  0  0  0  0  0  0  0  0  0  0  0
    6.3301    1.8261    0.0000 C   0  0  0  0  0  0  0  0  0  0  0  0
    5.4641   -2.6739    0.0000 C   0  0  0  0  0  0  0  0  0  0  0  0
    3.7320   -3.6739    0.0000 C   0  0  0  0  0  0  0  0  0  0  0  0
    5.4641   -3.6739    0.0000 C   0  0  0  0  0  0  0  0  0  0  0  0
    7.1391    2.4139    0.0000 C   0  0  0  0  0  0  0  0  0  0  0  0
    4.5981   -4.1739    0.0000 C   0  0  0  0  0  0  0  0  0  0  0  0
    6.8301    3.3649    0.0000 C   0  0  0  0  0  0  0  0  0  0  0  0
    7.4179    4.1739    0.0000 C   0  0  0  0  0  0  0  0  0  0  0  0
    5.4641   -1.2939    0.0000 H   0  0  0  0  0  0  0  0  0  0  0  0
    5.9316   -1.6489    0.0000 H   0  0  0  0  0  0  0  0  0  0  0  0
    6.7287   -1.6489    0.0000 H   0  0  0  0  0  0  0  0  0  0  0  0
    7.5062   -1.2109    0.0000 H   0  0  0  0  0  0  0  0  0  0  0  0
    7.7331   -0.3639    0.0000 H   0  0  0  0  0  0  0  0  0  0  0  0
    6.8862   -0.1370    0.0000 H   0  0  0  0  0  0  0  0  0  0  0  0
    6.8671    0.5161    0.0000 H   0  0  0  0  0  0  0  0  0  0  0  0
    6.0010   -2.3639    0.0000 H   0  0  0  0  0  0  0  0  0  0  0  0
    3.1951   -3.9839    0.0000 H   0  0  0  0  0  0  0  0  0  0  0  0
    7.7288    2.2223    0.0000 H   0  0  0  0  0  0  0  0  0  0  0  0
    4.5981   -4.7939    0.0000 H   0  0  0  0  0  0  0  0  0  0  0  0
    7.9195    3.8095    0.0000 H   0  0  0  0  0  0  0  0  0  0  0  0
    7.7823    4.6755    0.0000 H   0  0  0  0  0  0  0  0  0  0  0  0
    6.9163    4.5384    0.0000 H   0  0  0  0  0  0  0  0  0  0  0  0
  1 19  1  0  0  0  0
  2 10  1  0  0  0  0
  2 14  1  0  0  0  0
  3 12  2  0  0  0  0
  4  9  1  0  0  0  0
  4 22  1  0  0  0  0
  5  8  1  0  0  0  0
  6  8  2  0  0  0  0
  7 12  1  0  0  0  0
  7 16  1  0  0  0  0
  7 30  1  0  0  0  0
  8 15  1  0  0  0  0
  9 16  2  0  0  0  0
 10 11  1  0  0  0  0
 10 12  1  0  0  0  0
 10 24  1  0  0  0  0
 11 13  1  0  0  0  0
 11 25  1  0  0  0  0
 11 26  1  0  0  0  0
 13 27  1  0  0  0  0
 13 28  1  0  0  0  0
 13 29  1  0  0  0  0
 14 15  2  0  0  0  0
 14 17  1  0  0  0  0
 15 18  1  0  0  0  0
 16 20  1  0  0  0  0
 17 19  2  0  0  0  0
 17 31  1  0  0  0  0
 18 21  2  0  0  0  0
 18 32  1  0  0  0  0
 19 21  1  0  0  0  0
 20 22  2  0  0  0  0
 20 33  1  0  0  0  0
 21 34  1  0  0  0  0
 22 23  1  0  0  0  0
 23 35  1  0  0  0  0
 23 36  1  0  0  0  0
 23 37  1  0  0  0  0
M  CHG  2   5  -1   8   1
M  END
> <PUBCHEM_COMPOUND_CID>
17395377

> <PUBCHEM_COMPOUND_CANONICALIZED>
1

> <PUBCHEM_CACTVS_COMPLEXITY>
433

> <PUBCHEM_CACTVS_HBOND_ACCEPTOR>
7

> <PUBCHEM_CACTVS_HBOND_DONOR>
1

> <PUBCHEM_CACTVS_ROTATABLE_BOND>
5

> <PUBCHEM_CACTVS_SUBSKEYS>
AAADccBzOQAAAAAAAAAAAAAAAAAAAWAAAAAwAAAAAAAAAAABwAAAHwAUAAAACByhkgoz9pLQRACpAKdycwKCCAAlIgApmCF3bNqOJjrEuZ+HOKjm1VvY6EeQQAAAAAAAAAAAEAAAAAAAAAAgAAAAAAAAAA==

> <PUBCHEM_IUPAC_OPENEYE_NAME>
2-(5-fluoro-2-nitro-phenoxy)-N-(5-methylisoxazol-3-yl)butanamide

> <PUBCHEM_IUPAC_CAS_NAME>
2-(5-fluoro-2-nitrophenoxy)-N-(5-methyl-3-isoxazolyl)butanamide

> <PUBCHEM_IUPAC_NAME>
2-(5-fluoro-2-nitrophenoxy)-N-(5-methyl-1,2-oxazol-3-yl)butanamide

> <PUBCHEM_IUPAC_SYSTEMATIC_NAME>
2-(5-fluoranyl-2-nitro-phenoxy)-N-(5-methyl-1,2-oxazol-3-yl)butanamide

> <PUBCHEM_IUPAC_TRADITIONAL_NAME>
2-(5-fluoro-2-nitro-phenoxy)-N-(5-methylisoxazol-3-yl)butyramide

> <PUBCHEM_IUPAC_INCHI>
InChI=1S/C14H14FN3O5/c1-3-11(14(19)16-13-6-8(2)23-17-13)22-12-7-9(15)4-5-10(12)18(20)21/h4-7,11H,3H2,1-2H3,(H,16,17,19)

> <PUBCHEM_IUPAC_INCHIKEY>
PZRPBRSXGIHHAO-UHFFFAOYSA-N

> <PUBCHEM_XLOGP3_AA>
2.8

> <PUBCHEM_EXACT_MASS>
323.091749

> <PUBCHEM_MOLECULAR_FORMULA>
C14H14FN3O5

> <PUBCHEM_MOLECULAR_WEIGHT>
323.276463

> <PUBCHEM_OPENEYE_CAN_SMILES>
CCC(C(=O)NC1=NOC(=C1)C)OC2=C(C=CC(=C2)F)[N+](=O)[O-]

> <PUBCHEM_OPENEYE_ISO_SMILES>
CCC(C(=O)NC1=NOC(=C1)C)OC2=C(C=CC(=C2)F)[N+](=O)[O-]

> <PUBCHEM_CACTVS_TPSA>
110

> <PUBCHEM_MONOISOTOPIC_WEIGHT>
323.091749

> <PUBCHEM_TOTAL_CHARGE>
0

> <PUBCHEM_HEAVY_ATOM_COUNT>
23

> <PUBCHEM_ATOM_DEF_STEREO_COUNT>
0

> <PUBCHEM_ATOM_UDEF_STEREO_COUNT>
1

> <PUBCHEM_BOND_DEF_STEREO_COUNT>
0

> <PUBCHEM_BOND_UDEF_STEREO_COUNT>
0

> <PUBCHEM_ISOTOPIC_ATOM_COUNT>
0

> <PUBCHEM_COMPONENT_COUNT>
1

> <PUBCHEM_CACTVS_TAUTO_COUNT>
10

> <PUBCHEM_COORDINATE_TYPE>
1
5
255

> <PUBCHEM_BONDANNOTATIONS>
10  11  3
14  15  8
14  17  8
15  18  8
16  20  8
17  19  8
18  21  8
19  21  8
20  22  8
4  22  8
4  9  8
9  16  8

$$$$

