4007
  -OEChem-06251223492D

 48 49  0     1  0  0  0  0  0999 V2000
    4.2690   -0.2780    0.0000 O   0  0  0  0  0  0  0  0  0  0  0  0
    5.1350    2.2220    0.0000 O   0  0  0  0  0  0  0  0  0  0  0  0
    6.0010   -0.2780    0.0000 O   0  0  0  0  0  0  0  0  0  0  0  0
    2.5369    0.7220    0.0000 O   0  0  0  0  0  0  0  0  0  0  0  0
    2.5369    2.7220    0.0000 O   0  0  0  0  0  0  0  0  0  0  0  0
    4.7690    3.5880    0.0000 O   0  0  0  0  0  0  0  0  0  0  0  0
    4.2690   -2.2780    0.0000 O   0  0  0  0  0  0  0  0  0  0  0  0
    6.0010   -3.2780    0.0000 O   0  0  0  0  0  0  0  0  0  0  0  0
    7.7331   -2.2780    0.0000 O   0  0  0  0  0  0  0  0  0  0  0  0
    6.8671    1.2220    0.0000 O   0  0  0  0  0  0  0  0  0  0  0  0
    7.7331    0.7220    0.0000 O   0  0  0  0  0  0  0  0  0  0  0  0
    4.2690    0.7220    0.0000 C   0  0  3  0  0  0  0  0  0  0  0  0
    3.4030    1.2220    0.0000 C   0  0  3  0  0  0  0  0  0  0  0  0
    5.1350    1.2220    0.0000 C   0  0  3  0  0  0  0  0  0  0  0  0
    3.4030    2.2220    0.0000 C   0  0  3  0  0  0  0  0  0  0  0  0
    4.2690    2.7220    0.0000 C   0  0  3  0  0  0  0  0  0  0  0  0
    5.1350   -0.7780    0.0000 C   0  0  3  0  0  0  0  0  0  0  0  0
    5.1350   -1.7780    0.0000 C   0  0  3  0  0  0  0  0  0  0  0  0
    6.0010   -2.2780    0.0000 C   0  0  3  0  0  0  0  0  0  0  0  0
    6.8671   -1.7780    0.0000 C   0  0  3  0  0  0  0  0  0  0  0  0
    6.8671   -0.7780    0.0000 C   0  0  3  0  0  0  0  0  0  0  0  0
    6.0010    0.7220    0.0000 C   0  0  0  0  0  0  0  0  0  0  0  0
    3.7690    3.5880    0.0000 C   0  0  0  0  0  0  0  0  0  0  0  0
    7.7331   -0.2780    0.0000 C   0  0  0  0  0  0  0  0  0  0  0  0
    4.8059    0.4120    0.0000 H   0  0  0  0  0  0  0  0  0  0  0  0
    3.4030    0.6020    0.0000 H   0  0  0  0  0  0  0  0  0  0  0  0
    5.6720    1.5320    0.0000 H   0  0  0  0  0  0  0  0  0  0  0  0
    3.4030    2.8420    0.0000 H   0  0  0  0  0  0  0  0  0  0  0  0
    5.1350   -0.1580    0.0000 H   0  0  0  0  0  0  0  0  0  0  0  0
    5.1350   -2.3980    0.0000 H   0  0  0  0  0  0  0  0  0  0  0  0
    6.5380   -2.5880    0.0000 H   0  0  0  0  0  0  0  0  0  0  0  0
    7.4040   -1.4680    0.0000 H   0  0  0  0  0  0  0  0  0  0  0  0
    6.8671   -0.1580    0.0000 H   0  0  0  0  0  0  0  0  0  0  0  0
    5.6025    0.2470    0.0000 H   0  0  0  0  0  0  0  0  0  0  0  0
    6.3996    0.2470    0.0000 H   0  0  0  0  0  0  0  0  0  0  0  0
    4.3059    3.8980    0.0000 H   0  0  0  0  0  0  0  0  0  0  0  0
    3.4590    4.1250    0.0000 H   0  0  0  0  0  0  0  0  0  0  0  0
    3.2320    3.2780    0.0000 H   0  0  0  0  0  0  0  0  0  0  0  0
    7.9451   -0.8606    0.0000 H   0  0  0  0  0  0  0  0  0  0  0  0
    8.3437   -0.1704    0.0000 H   0  0  0  0  0  0  0  0  0  0  0  0
    2.5369    0.1020    0.0000 H   0  0  0  0  0  0  0  0  0  0  0  0
    2.0000    2.4120    0.0000 H   0  0  0  0  0  0  0  0  0  0  0  0
    5.3890    3.5880    0.0000 H   0  0  0  0  0  0  0  0  0  0  0  0
    4.2690   -2.8980    0.0000 H   0  0  0  0  0  0  0  0  0  0  0  0
    6.5380   -3.5880    0.0000 H   0  0  0  0  0  0  0  0  0  0  0  0
    8.2700   -1.9680    0.0000 H   0  0  0  0  0  0  0  0  0  0  0  0
    6.8671    1.8420    0.0000 H   0  0  0  0  0  0  0  0  0  0  0  0
    8.2700    1.0320    0.0000 H   0  0  0  0  0  0  0  0  0  0  0  0
  1 12  1  0  0  0  0
  1 17  1  0  0  0  0
  2 14  1  0  0  0  0
  2 16  1  0  0  0  0
  3 17  1  0  0  0  0
  3 21  1  0  0  0  0
  4 13  1  0  0  0  0
  4 41  1  0  0  0  0
  5 15  1  0  0  0  0
  5 42  1  0  0  0  0
  6 16  1  0  0  0  0
  6 43  1  0  0  0  0
  7 18  1  0  0  0  0
  7 44  1  0  0  0  0
  8 19  1  0  0  0  0
  8 45  1  0  0  0  0
  9 20  1  0  0  0  0
  9 46  1  0  0  0  0
 10 22  1  0  0  0  0
 10 47  1  0  0  0  0
 11 24  1  0  0  0  0
 11 48  1  0  0  0  0
 12 13  1  0  0  0  0
 12 14  1  0  0  0  0
 12 25  1  0  0  0  0
 13 15  1  0  0  0  0
 13 26  1  0  0  0  0
 14 22  1  0  0  0  0
 14 27  1  0  0  0  0
 15 16  1  0  0  0  0
 15 28  1  0  0  0  0
 16 23  1  0  0  0  0
 17 18  1  0  0  0  0
 17 29  1  0  0  0  0
 18 19  1  0  0  0  0
 18 30  1  0  0  0  0
 19 20  1  0  0  0  0
 19 31  1  0  0  0  0
 20 21  1  0  0  0  0
 20 32  1  0  0  0  0
 21 24  1  0  0  0  0
 21 33  1  0  0  0  0
 22 34  1  0  0  0  0
 22 35  1  0  0  0  0
 23 36  1  0  0  0  0
 23 37  1  0  0  0  0
 23 38  1  0  0  0  0
 24 39  1  0  0  0  0
 24 40  1  0  0  0  0
M  END
> <PUBCHEM_COMPOUND_CID>
4007

> <PUBCHEM_COMPOUND_CANONICALIZED>
1

> <PUBCHEM_CACTVS_COMPLEXITY>
423

> <PUBCHEM_CACTVS_HBOND_ACCEPTOR>
11

> <PUBCHEM_CACTVS_HBOND_DONOR>
8

> <PUBCHEM_CACTVS_ROTATABLE_BOND>
4

> <PUBCHEM_CACTVS_SUBSKEYS>
AAADceBwPAAAAAAAAAAAAAAAAAAAAAAAAAAkSAAAAAAAAAAAAAAAGgAACAAACBSwgAMCCAAABgAAAAAAAAAAAAAAAAAAAAAAAAAREAIAAAAiQAAFAAAHAAHA4CwAAAAAAAAAAAAAAAAAAAAAAAAAAAAAAA==

> <PUBCHEM_IUPAC_OPENEYE_NAME>
6-(hydroxymethyl)-2-methyl-5-[3,4,5-trihydroxy-6-(hydroxymethyl)tetrahydropyran-2-yl]oxy-tetrahydropyran-2,3,4-triol

> <PUBCHEM_IUPAC_CAS_NAME>
6-(hydroxymethyl)-2-methyl-5-[[3,4,5-trihydroxy-6-(hydroxymethyl)-2-oxanyl]oxy]oxane-2,3,4-triol

> <PUBCHEM_IUPAC_NAME>
6-(hydroxymethyl)-2-methyl-5-[3,4,5-trihydroxy-6-(hydroxymethyl)oxan-2-yl]oxyoxane-2,3,4-triol

> <PUBCHEM_IUPAC_SYSTEMATIC_NAME>
6-(hydroxymethyl)-5-[6-(hydroxymethyl)-3,4,5-tris(oxidanyl)oxan-2-yl]oxy-2-methyl-oxane-2,3,4-triol

> <PUBCHEM_IUPAC_TRADITIONAL_NAME>
2-methyl-6-methylol-5-(3,4,5-trihydroxy-6-methylol-tetrahydropyran-2-yl)oxy-tetrahydropyran-2,3,4-triol

> <PUBCHEM_IUPAC_INCHI>
InChI=1S/C13H24O11/c1-13(21)11(20)9(19)10(5(3-15)24-13)23-12-8(18)7(17)6(16)4(2-14)22-12/h4-12,14-21H,2-3H2,1H3

> <PUBCHEM_IUPAC_INCHIKEY>
HXOXUDVNFQMLDB-UHFFFAOYSA-N

> <PUBCHEM_XLOGP3_AA>
-4.5

> <PUBCHEM_EXACT_MASS>
356.131862

> <PUBCHEM_MOLECULAR_FORMULA>
C13H24O11

> <PUBCHEM_MOLECULAR_WEIGHT>
356.32306

> <PUBCHEM_OPENEYE_CAN_SMILES>
CC1(C(C(C(C(O1)CO)OC2C(C(C(C(O2)CO)O)O)O)O)O)O

> <PUBCHEM_OPENEYE_ISO_SMILES>
CC1(C(C(C(C(O1)CO)OC2C(C(C(C(O2)CO)O)O)O)O)O)O

> <PUBCHEM_CACTVS_TPSA>
190

> <PUBCHEM_MONOISOTOPIC_WEIGHT>
356.131862

> <PUBCHEM_TOTAL_CHARGE>
0

> <PUBCHEM_HEAVY_ATOM_COUNT>
24

> <PUBCHEM_ATOM_DEF_STEREO_COUNT>
0

> <PUBCHEM_ATOM_UDEF_STEREO_COUNT>
10

> <PUBCHEM_BOND_DEF_STEREO_COUNT>
0

> <PUBCHEM_BOND_UDEF_STEREO_COUNT>
0

> <PUBCHEM_ISOTOPIC_ATOM_COUNT>
0

> <PUBCHEM_COMPONENT_COUNT>
1

> <PUBCHEM_CACTVS_TAUTO_COUNT>
1

> <PUBCHEM_COORDINATE_TYPE>
1
5
255

> <PUBCHEM_BONDANNOTATIONS>
12  1  3
17  1  3
14  22  3
21  24  3
13  4  3
15  5  3
16  6  3
18  7  3
19  8  3
20  9  3

$$$$

