11345
  -OEChem-06261205343D

 30 30  0     0  0  0  0  0  0999 V2000
    1.4659   -1.1899    0.0000 C   0  0  0  0  0  0  0  0  0  0  0  0
   -1.4658   -1.1901   -0.0001 C   0  0  0  0  0  0  0  0  0  0  0  0
    0.6974    0.0907   -0.0002 C   0  0  0  0  0  0  0  0  0  0  0  0
   -0.6974    0.0906   -0.0001 C   0  0  0  0  0  0  0  0  0  0  0  0
    1.3948    1.2987    0.0000 C   0  0  0  0  0  0  0  0  0  0  0  0
   -1.3949    1.2985    0.0001 C   0  0  0  0  0  0  0  0  0  0  0  0
    2.3348   -1.3528    1.2605 C   0  0  0  0  0  0  0  0  0  0  0  0
    2.3351   -1.3530   -1.2604 C   0  0  0  0  0  0  0  0  0  0  0  0
   -2.3350   -1.3528   -1.2604 C   0  0  0  0  0  0  0  0  0  0  0  0
   -2.3346   -1.3533    1.2605 C   0  0  0  0  0  0  0  0  0  0  0  0
    0.6972    2.5067    0.0001 C   0  0  0  0  0  0  0  0  0  0  0  0
   -0.6976    2.5066    0.0000 C   0  0  0  0  0  0  0  0  0  0  0  0
    0.8635   -2.0900    0.0000 H   0  0  0  0  0  0  0  0  0  0  0  0
   -0.8633   -2.0901   -0.0004 H   0  0  0  0  0  0  0  0  0  0  0  0
    2.4809    1.3256    0.0000 H   0  0  0  0  0  0  0  0  0  0  0  0
   -2.4810    1.3252    0.0001 H   0  0  0  0  0  0  0  0  0  0  0  0
    3.1171   -0.5888    1.3227 H   0  0  0  0  0  0  0  0  0  0  0  0
    2.8288   -2.3309    1.2657 H   0  0  0  0  0  0  0  0  0  0  0  0
    1.7220   -1.2820    2.1662 H   0  0  0  0  0  0  0  0  0  0  0  0
    1.7224   -1.2824   -2.1662 H   0  0  0  0  0  0  0  0  0  0  0  0
    2.8290   -2.3310   -1.2654 H   0  0  0  0  0  0  0  0  0  0  0  0
    3.1174   -0.5890   -1.3226 H   0  0  0  0  0  0  0  0  0  0  0  0
   -3.1175   -0.5890   -1.3222 H   0  0  0  0  0  0  0  0  0  0  0  0
   -2.8288   -2.3309   -1.2657 H   0  0  0  0  0  0  0  0  0  0  0  0
   -1.7224   -1.2818   -2.1662 H   0  0  0  0  0  0  0  0  0  0  0  0
   -1.7217   -1.2828    2.1661 H   0  0  0  0  0  0  0  0  0  0  0  0
   -2.8285   -2.3314    1.2655 H   0  0  0  0  0  0  0  0  0  0  0  0
   -3.1169   -0.5894    1.3229 H   0  0  0  0  0  0  0  0  0  0  0  0
    1.2400    3.4474    0.0002 H   0  0  0  0  0  0  0  0  0  0  0  0
   -1.2404    3.4473    0.0001 H   0  0  0  0  0  0  0  0  0  0  0  0
  1  3  1  0  0  0  0
  1  7  1  0  0  0  0
  1  8  1  0  0  0  0
  1 13  1  0  0  0  0
  2  4  1  0  0  0  0
  2  9  1  0  0  0  0
  2 10  1  0  0  0  0
  2 14  1  0  0  0  0
  3  4  1  0  0  0  0
  3  5  2  0  0  0  0
  4  6  2  0  0  0  0
  5 11  1  0  0  0  0
  5 15  1  0  0  0  0
  6 12  1  0  0  0  0
  6 16  1  0  0  0  0
  7 17  1  0  0  0  0
  7 18  1  0  0  0  0
  7 19  1  0  0  0  0
  8 20  1  0  0  0  0
  8 21  1  0  0  0  0
  8 22  1  0  0  0  0
  9 23  1  0  0  0  0
  9 24  1  0  0  0  0
  9 25  1  0  0  0  0
 10 26  1  0  0  0  0
 10 27  1  0  0  0  0
 10 28  1  0  0  0  0
 11 12  2  0  0  0  0
 11 29  1  0  0  0  0
 12 30  1  0  0  0  0
M  END
> <PUBCHEM_COMPOUND_CID>
11345

> <PUBCHEM_CONFORMER_RMSD>
0.6

> <PUBCHEM_CONFORMER_DIVERSEORDER>
1

> <PUBCHEM_MMFF94_PARTIAL_CHARGES>
12
1 0.14
11 -0.15
12 -0.15
15 0.15
16 0.15
2 0.14
29 0.15
3 -0.14
30 0.15
4 -0.14
5 -0.15
6 -0.15

> <PUBCHEM_EFFECTIVE_ROTOR_COUNT>
2

> <PUBCHEM_PHARMACOPHORE_FEATURES>
3
3 1 7 8 hydrophobe
3 2 9 10 hydrophobe
6 3 4 5 6 11 12 rings

> <PUBCHEM_HEAVY_ATOM_COUNT>
12

> <PUBCHEM_ATOM_DEF_STEREO_COUNT>
0

> <PUBCHEM_ATOM_UDEF_STEREO_COUNT>
0

> <PUBCHEM_BOND_DEF_STEREO_COUNT>
0

> <PUBCHEM_BOND_UDEF_STEREO_COUNT>
0

> <PUBCHEM_ISOTOPIC_ATOM_COUNT>
0

> <PUBCHEM_COMPONENT_COUNT>
1

> <PUBCHEM_CACTVS_TAUTO_COUNT>
1

> <PUBCHEM_CONFORMER_ID>
00002C5100000001

> <PUBCHEM_MMFF94_ENERGY>
36.8826

> <PUBCHEM_FEATURE_SELFOVERLAP>
15.223

> <PUBCHEM_SHAPE_FINGERPRINT>
1 1 17619645578700005413
100427 49 18339071610146930263
11129358 1 8283330852562213159
12326174 3 18123471570549003850
12423570 1 8491668875899997469
12524768 44 18335139825306624533
12716758 59 17759801846543325150
13538477 17 17771610523979013082
14761567 1 17989488523799307682
14817 1 16473390752215478419
161256 15 18266159678378702333
16945 1 18411982493911911679
193761 8 18410856563935399972
20645476 183 17268885271875675142
20645477 70 17904208031834436095
20711985 344 18193833962501822070
20871998 184 18118683459355688670
20871998 22 18336813234759784146
21040471 1 17546164568154716676
22802520 49 17683787075792233006
23388829 49 18046650935289748304
23419403 2 17180595394493350865
23552423 10 18272082756107498805
23559900 14 17323239694517155590
241688 4 18410293648346504913
257057 1 18194433093175459183
2748010 2 18409732867378006604
6338986 31 18264795240367895687
81228 2 18194124242071669457

> <PUBCHEM_SHAPE_MULTIPOLES>
246.95
3.28
2.79
1.15
0
1.88
0
-2.25
0
0
0
0
-0.72
0

> <PUBCHEM_SHAPE_SELFOVERLAP>
498.229

> <PUBCHEM_SHAPE_VOLUME>
142

> <PUBCHEM_COORDINATE_TYPE>
2
5
10

$$$$

