13963
  -OEChem-06241222413D

 30 31  0     0  0  0  0  0  0999 V2000
    2.5197    2.2159   -0.5071 S   0  0  0  0  0  0  0  0  0  0  0  0
    2.5592   -2.2751    0.4688 S   0  0  0  0  0  0  0  0  0  0  0  0
   -2.8972   -1.3578   -0.6709 O   0  0  0  0  0  0  0  0  0  0  0  0
    1.8407    1.2076    0.5988 O   0  0  0  0  0  0  0  0  0  0  0  0
    1.8672   -1.2776   -0.6400 O   0  0  0  0  0  0  0  0  0  0  0  0
   -5.1831   -1.4162   -0.6958 O   0  0  0  0  0  0  0  0  0  0  0  0
    3.9400    2.6444    0.1741 O   0  0  0  0  0  0  0  0  0  0  0  0
    3.9900   -2.6769   -0.2064 O   0  0  0  0  0  0  0  0  0  0  0  0
    2.8124    1.4657   -1.7145 O   0  0  0  0  0  0  0  0  0  0  0  0
    1.6958    3.4088   -0.5775 O   0  0  0  0  0  0  0  0  0  0  0  0
    2.8328   -1.5200    1.6778 O   0  0  0  0  0  0  0  0  0  0  0  0
    1.7572   -3.4829    0.5353 O   0  0  0  0  0  0  0  0  0  0  0  0
   -1.7621    0.5794    0.2915 C   0  0  0  0  0  0  0  0  0  0  0  0
   -1.7157   -0.6691   -0.3305 C   0  0  0  0  0  0  0  0  0  0  0  0
   -3.0744    1.1696    0.5879 C   0  0  0  0  0  0  0  0  0  0  0  0
   -0.5429    1.1986    0.5979 C   0  0  0  0  0  0  0  0  0  0  0  0
    0.6725    0.5782    0.2870 C   0  0  0  0  0  0  0  0  0  0  0  0
    0.6880   -0.6693   -0.3345 C   0  0  0  0  0  0  0  0  0  0  0  0
   -0.5114   -1.3004   -0.6469 C   0  0  0  0  0  0  0  0  0  0  0  0
   -4.1815    0.4921    0.2526 C   0  0  0  0  0  0  0  0  0  0  0  0
   -3.1584    2.5109    1.2560 C   0  0  0  0  0  0  0  0  0  0  0  0
   -4.1490   -0.8259   -0.4035 C   0  0  0  0  0  0  0  0  0  0  0  0
   -0.5174    2.1704    1.0852 H   0  0  0  0  0  0  0  0  0  0  0  0
   -0.5122   -2.2720   -1.1331 H   0  0  0  0  0  0  0  0  0  0  0  0
   -5.1677    0.8981    0.4567 H   0  0  0  0  0  0  0  0  0  0  0  0
   -2.6777    3.2813    0.6436 H   0  0  0  0  0  0  0  0  0  0  0  0
   -2.6764    2.4867    2.2392 H   0  0  0  0  0  0  0  0  0  0  0  0
   -4.1964    2.8249    1.4131 H   0  0  0  0  0  0  0  0  0  0  0  0
    3.8884    2.9131    1.1213 H   0  0  0  0  0  0  0  0  0  0  0  0
    3.9476   -2.9457   -1.1541 H   0  0  0  0  0  0  0  0  0  0  0  0
  1  4  1  0  0  0  0
  1  7  1  0  0  0  0
  1  9  2  0  0  0  0
  1 10  2  0  0  0  0
  2  5  1  0  0  0  0
  2  8  1  0  0  0  0
  2 11  2  0  0  0  0
  2 12  2  0  0  0  0
  3 14  1  0  0  0  0
  3 22  1  0  0  0  0
  4 17  1  0  0  0  0
  5 18  1  0  0  0  0
  6 22  2  0  0  0  0
  7 29  1  0  0  0  0
  8 30  1  0  0  0  0
 13 14  1  0  0  0  0
 13 15  1  0  0  0  0
 13 16  2  0  0  0  0
 14 19  2  0  0  0  0
 15 20  2  0  0  0  0
 15 21  1  0  0  0  0
 16 17  1  0  0  0  0
 16 23  1  0  0  0  0
 17 18  2  0  0  0  0
 18 19  1  0  0  0  0
 19 24  1  0  0  0  0
 20 22  1  0  0  0  0
 20 25  1  0  0  0  0
 21 26  1  0  0  0  0
 21 27  1  0  0  0  0
 21 28  1  0  0  0  0
M  END
> <PUBCHEM_COMPOUND_CID>
13963

> <PUBCHEM_CONFORMER_RMSD>
0.6

> <PUBCHEM_CONFORMER_DIVERSEORDER>
1
2
9
13
11
7
5
12
10
8
6
4
3

> <PUBCHEM_MMFF94_PARTIAL_CHARGES>
27
1 1.67
10 -0.65
11 -0.65
12 -0.65
13 0.03
14 0.08
15 -0.17
16 -0.15
17 0.08
18 0.08
19 -0.15
2 1.67
20 -0.14
21 0.14
22 0.71
23 0.15
24 0.15
25 0.15
29 0.5
3 -0.23
30 0.5
4 -0.27
5 -0.27
6 -0.57
7 -0.68
8 -0.68
9 -0.65

> <PUBCHEM_EFFECTIVE_ROTOR_COUNT>
4

> <PUBCHEM_PHARMACOPHORE_FEATURES>
11
1 10 acceptor
1 11 acceptor
1 12 acceptor
1 6 acceptor
1 7 acceptor
1 8 acceptor
1 9 acceptor
4 1 7 9 10 anion
4 2 8 11 12 anion
6 13 14 16 17 18 19 rings
6 3 13 14 15 20 22 rings

> <PUBCHEM_HEAVY_ATOM_COUNT>
22

> <PUBCHEM_ATOM_DEF_STEREO_COUNT>
0

> <PUBCHEM_ATOM_UDEF_STEREO_COUNT>
0

> <PUBCHEM_BOND_DEF_STEREO_COUNT>
0

> <PUBCHEM_BOND_UDEF_STEREO_COUNT>
0

> <PUBCHEM_ISOTOPIC_ATOM_COUNT>
0

> <PUBCHEM_COMPONENT_COUNT>
1

> <PUBCHEM_CACTVS_TAUTO_COUNT>
1

> <PUBCHEM_CONFORMER_ID>
0000368B00000001

> <PUBCHEM_MMFF94_ENERGY>
56.4925

> <PUBCHEM_FEATURE_SELFOVERLAP>
55.963

> <PUBCHEM_SHAPE_FINGERPRINT>
10090160 65 18196660583964489447
10759866 29 18410009897401033125
11578080 2 17845665870325470060
12553582 1 18126005111733328578
12592029 89 18268708316267168233
12644460 14 18339908385835357969
13004483 165 17406836657874934954
13009979 54 18041553771007841891
13140716 1 18263356048772581385
13540713 5 18261386776318632113
13583140 156 17843668097085566953
14787075 74 17764024671537645175
15442244 35 18336263565071783601
16945 1 18190741930009965689
17492 89 18409449198227408755
1813 80 18127980900185337642
19591789 44 17473541348509823739
20559304 39 18334301954501874122
20600515 1 17681553967654659498
20645477 70 18271816700496124715
20671657 1 18410004451155797812
21501502 16 18334852844677797033
21524375 3 18191300473037167828
2255824 54 18413668015415250790
23366157 5 18272086102182181020
23558518 356 18409443717964482313
23559900 14 18337963371509904579
23598288 3 17894639184053384405
23598291 2 18337947995262980901
23622692 118 18261399974679182271
25147074 1 18186516627442209505
2748010 2 16821351165986662493
312423 11 18410003352066091779
350125 39 18336261340505720401
352729 6 17764864702436216720
474 4 18129097818941011420
5104073 3 18334007303425414563
53777708 50 18335414686513942289
6138700 20 18410567389226455476
7097593 13 18122906696767193451
7364860 26 18411138030785750102
7615 1 18335980960729768049
90316 7 17763750188092128210
9981440 41 18123753054189808192

> <PUBCHEM_SHAPE_MULTIPOLES>
401.76
8.01
3.67
1.08
4.94
0.5
-0.06
-1.19
0.23
-3.91
-0.15
-0.32
0.12
-1.99

> <PUBCHEM_SHAPE_SELFOVERLAP>
838.451

> <PUBCHEM_SHAPE_VOLUME>
228.9

> <PUBCHEM_COORDINATE_TYPE>
2
5
10

$$$$

