17395378
  -OEChem-06241222492D

 41 42  0     1  0  0  0  0  0999 V2000
    5.4641   -0.8080    0.0000 O   0  0  0  0  0  0  0  0  0  0  0  0
    7.1962    0.1920    0.0000 O   0  0  0  0  0  0  0  0  0  0  0  0
    8.7788    2.5284    0.0000 O   0  0  0  0  0  0  0  0  0  0  0  0
    2.8660   -2.3080    0.0000 O   0  0  0  0  0  0  0  0  0  0  0  0
    3.7320   -0.8080    0.0000 O   0  0  0  0  0  0  0  0  0  0  0  0
    6.3301    1.6920    0.0000 N   0  0  0  0  0  0  0  0  0  0  0  0
    8.1097    1.7853    0.0000 N   0  0  0  0  0  0  0  0  0  0  0  0
    5.4641    0.1920    0.0000 C   0  0  3  0  0  0  0  0  0  0  0  0
    4.5981    0.6920    0.0000 C   0  0  0  0  0  0  0  0  0  0  0  0
    6.3301    0.6920    0.0000 C   0  0  0  0  0  0  0  0  0  0  0  0
    4.5981    1.6920    0.0000 C   0  0  0  0  0  0  0  0  0  0  0  0
    4.5981   -2.3080    0.0000 C   0  0  0  0  0  0  0  0  0  0  0  0
    4.5981   -1.3080    0.0000 C   0  0  0  0  0  0  0  0  0  0  0  0
    7.1962    2.1920    0.0000 C   0  0  0  0  0  0  0  0  0  0  0  0
    3.7320   -2.8080    0.0000 C   0  0  0  0  0  0  0  0  0  0  0  0
    5.4641   -2.8080    0.0000 C   0  0  0  0  0  0  0  0  0  0  0  0
    7.3007    3.1865    0.0000 C   0  0  0  0  0  0  0  0  0  0  0  0
    8.2788    3.3944    0.0000 C   0  0  0  0  0  0  0  0  0  0  0  0
    3.7320   -3.8080    0.0000 C   0  0  0  0  0  0  0  0  0  0  0  0
    5.4641   -3.8080    0.0000 C   0  0  0  0  0  0  0  0  0  0  0  0
    4.5981   -4.3080    0.0000 C   0  0  0  0  0  0  0  0  0  0  0  0
    8.6856    4.3080    0.0000 C   0  0  0  0  0  0  0  0  0  0  0  0
    2.0000   -2.8080    0.0000 C   0  0  0  0  0  0  0  0  0  0  0  0
    6.0010   -0.1180    0.0000 H   0  0  0  0  0  0  0  0  0  0  0  0
    3.9875    0.7997    0.0000 H   0  0  0  0  0  0  0  0  0  0  0  0
    4.3860    0.1094    0.0000 H   0  0  0  0  0  0  0  0  0  0  0  0
    5.2181    1.6920    0.0000 H   0  0  0  0  0  0  0  0  0  0  0  0
    4.5981    2.3120    0.0000 H   0  0  0  0  0  0  0  0  0  0  0  0
    3.9781    1.6920    0.0000 H   0  0  0  0  0  0  0  0  0  0  0  0
    5.7932    2.0020    0.0000 H   0  0  0  0  0  0  0  0  0  0  0  0
    6.0010   -2.4980    0.0000 H   0  0  0  0  0  0  0  0  0  0  0  0
    6.8399    3.6014    0.0000 H   0  0  0  0  0  0  0  0  0  0  0  0
    3.1951   -4.1180    0.0000 H   0  0  0  0  0  0  0  0  0  0  0  0
    6.0010   -4.1180    0.0000 H   0  0  0  0  0  0  0  0  0  0  0  0
    4.5981   -4.9280    0.0000 H   0  0  0  0  0  0  0  0  0  0  0  0
    9.2520    4.0558    0.0000 H   0  0  0  0  0  0  0  0  0  0  0  0
    8.9377    4.8744    0.0000 H   0  0  0  0  0  0  0  0  0  0  0  0
    8.1192    4.5602    0.0000 H   0  0  0  0  0  0  0  0  0  0  0  0
    1.6900   -2.2710    0.0000 H   0  0  0  0  0  0  0  0  0  0  0  0
    1.4631   -3.1180    0.0000 H   0  0  0  0  0  0  0  0  0  0  0  0
    2.3100   -3.3449    0.0000 H   0  0  0  0  0  0  0  0  0  0  0  0
  1  8  1  0  0  0  0
  1 13  1  0  0  0  0
  2 10  2  0  0  0  0
  3  7  1  0  0  0  0
  3 18  1  0  0  0  0
  4 15  1  0  0  0  0
  4 23  1  0  0  0  0
  5 13  2  0  0  0  0
  6 10  1  0  0  0  0
  6 14  1  0  0  0  0
  6 30  1  0  0  0  0
  7 14  2  0  0  0  0
  8  9  1  0  0  0  0
  8 10  1  0  0  0  0
  8 24  1  0  0  0  0
  9 11  1  0  0  0  0
  9 25  1  0  0  0  0
  9 26  1  0  0  0  0
 11 27  1  0  0  0  0
 11 28  1  0  0  0  0
 11 29  1  0  0  0  0
 12 13  1  0  0  0  0
 12 15  1  0  0  0  0
 12 16  2  0  0  0  0
 14 17  1  0  0  0  0
 15 19  2  0  0  0  0
 16 20  1  0  0  0  0
 16 31  1  0  0  0  0
 17 18  2  0  0  0  0
 17 32  1  0  0  0  0
 18 22  1  0  0  0  0
 19 21  1  0  0  0  0
 19 33  1  0  0  0  0
 20 21  2  0  0  0  0
 20 34  1  0  0  0  0
 21 35  1  0  0  0  0
 22 36  1  0  0  0  0
 22 37  1  0  0  0  0
 22 38  1  0  0  0  0
 23 39  1  0  0  0  0
 23 40  1  0  0  0  0
 23 41  1  0  0  0  0
M  END
> <PUBCHEM_COMPOUND_CID>
17395378

> <PUBCHEM_COMPOUND_CANONICALIZED>
1

> <PUBCHEM_CACTVS_COMPLEXITY>
417

> <PUBCHEM_CACTVS_HBOND_ACCEPTOR>
6

> <PUBCHEM_CACTVS_HBOND_DONOR>
1

> <PUBCHEM_CACTVS_ROTATABLE_BOND>
7

> <PUBCHEM_CACTVS_SUBSKEYS>
AAADceB7OAAAAAAAAAAAAAAAAAAAAWAAAAAwAAAAAAAAAAABwAAAHgAUAAAADBShmgIzvpLQBACpAqPyegKCCAAlIgApmCF2bNqOJz7EvZ6HMehn9RvY6ceIyCCOAAAAAAAIAAAAAAAAABAAAAAAAAAAAA==

> <PUBCHEM_IUPAC_OPENEYE_NAME>
1-[(5-methylisoxazol-3-yl)carbamoyl]propyl 2-methoxybenzoate

> <PUBCHEM_IUPAC_CAS_NAME>
2-methoxybenzoic acid [1-[(5-methyl-3-isoxazolyl)amino]-1-oxobutan-2-yl] ester

> <PUBCHEM_IUPAC_NAME>
[1-[(5-methyl-1,2-oxazol-3-yl)amino]-1-oxobutan-2-yl] 2-methoxybenzoate

> <PUBCHEM_IUPAC_SYSTEMATIC_NAME>
[1-[(5-methyl-1,2-oxazol-3-yl)amino]-1-oxidanylidene-butan-2-yl] 2-methoxybenzoate

> <PUBCHEM_IUPAC_TRADITIONAL_NAME>
2-methoxybenzoic acid 1-[(5-methylisoxazol-3-yl)carbamoyl]propyl ester

> <PUBCHEM_IUPAC_INCHI>
InChI=1S/C16H18N2O5/c1-4-12(15(19)17-14-9-10(2)23-18-14)22-16(20)11-7-5-6-8-13(11)21-3/h5-9,12H,4H2,1-3H3,(H,17,18,19)

> <PUBCHEM_IUPAC_INCHIKEY>
QJMGZAQLFUNPCH-UHFFFAOYSA-N

> <PUBCHEM_XLOGP3_AA>
2.8

> <PUBCHEM_EXACT_MASS>
318.121572

> <PUBCHEM_MOLECULAR_FORMULA>
C16H18N2O5

> <PUBCHEM_MOLECULAR_WEIGHT>
318.32452

> <PUBCHEM_OPENEYE_CAN_SMILES>
CCC(C(=O)NC1=NOC(=C1)C)OC(=O)C2=CC=CC=C2OC

> <PUBCHEM_OPENEYE_ISO_SMILES>
CCC(C(=O)NC1=NOC(=C1)C)OC(=O)C2=CC=CC=C2OC

> <PUBCHEM_CACTVS_TPSA>
90.7

> <PUBCHEM_MONOISOTOPIC_WEIGHT>
318.121572

> <PUBCHEM_TOTAL_CHARGE>
0

> <PUBCHEM_HEAVY_ATOM_COUNT>
23

> <PUBCHEM_ATOM_DEF_STEREO_COUNT>
0

> <PUBCHEM_ATOM_UDEF_STEREO_COUNT>
1

> <PUBCHEM_BOND_DEF_STEREO_COUNT>
0

> <PUBCHEM_BOND_UDEF_STEREO_COUNT>
0

> <PUBCHEM_ISOTOPIC_ATOM_COUNT>
0

> <PUBCHEM_COMPONENT_COUNT>
1

> <PUBCHEM_CACTVS_TAUTO_COUNT>
10

> <PUBCHEM_COORDINATE_TYPE>
1
5
255

> <PUBCHEM_BONDANNOTATIONS>
12  15  8
12  16  8
14  17  8
15  19  8
16  20  8
17  18  8
19  21  8
20  21  8
3  18  8
3  7  8
7  14  8
8  9  3

$$$$

