11273
  -OEChem-06261205283D

 48 51  0     1  0  0  0  0  0999 V2000
   -5.1636    0.8835    0.9714 O   0  0  0  0  0  0  0  0  0  0  0  0
    4.0941   -2.0217    0.4207 O   0  0  0  0  0  0  0  0  0  0  0  0
    5.3512    0.2695    1.0300 O   0  0  0  0  0  0  0  0  0  0  0  0
   -0.7974   -0.7000   -0.4166 C   0  0  2  0  0  0  0  0  0  0  0  0
   -0.0130    0.5337    0.1304 C   0  0  1  0  0  0  0  0  0  0  0  0
   -2.1739   -0.7328    0.2519 C   0  0  1  0  0  0  0  0  0  0  0  0
   -2.9965    0.5295   -0.0762 C   0  0  2  0  0  0  0  0  0  0  0  0
    1.4502    0.6410   -0.4554 C   0  0  2  0  0  0  0  0  0  0  0  0
   -0.8423    1.8454    0.0137 C   0  0  0  0  0  0  0  0  0  0  0  0
   -2.2823    1.7237    0.5468 C   0  0  0  0  0  0  0  0  0  0  0  0
   -0.0059   -1.9826   -0.1504 C   0  0  0  0  0  0  0  0  0  0  0  0
   -3.1311   -1.8857   -0.0302 C   0  0  0  0  0  0  0  0  0  0  0  0
    2.1767   -0.7157   -0.2940 C   0  0  0  0  0  0  0  0  0  0  0  0
    1.3779   -1.9115   -0.7842 C   0  0  0  0  0  0  0  0  0  0  0  0
   -4.3067    0.1098    0.5654 C   0  0  0  0  0  0  0  0  0  0  0  0
   -4.4404   -1.4030    0.6115 C   0  0  0  0  0  0  0  0  0  0  0  0
    2.1948    1.7553    0.3312 C   0  0  0  0  0  0  0  0  0  0  0  0
   -3.2954    0.7710   -1.5673 C   0  0  0  0  0  0  0  0  0  0  0  0
    1.4430    1.0166   -1.9560 C   0  0  0  0  0  0  0  0  0  0  0  0
    3.6957    1.7265    0.1289 C   0  0  0  0  0  0  0  0  0  0  0  0
    3.4289   -0.8333    0.2067 C   0  0  0  0  0  0  0  0  0  0  0  0
    4.2358    0.3809    0.5219 C   0  0  0  0  0  0  0  0  0  0  0  0
   -0.9262   -0.6080   -1.5005 H   0  0  0  0  0  0  0  0  0  0  0  0
    0.1021    0.3590    1.2129 H   0  0  0  0  0  0  0  0  0  0  0  0
   -1.9948   -0.7616    1.3411 H   0  0  0  0  0  0  0  0  0  0  0  0
   -0.8805    2.1734   -1.0301 H   0  0  0  0  0  0  0  0  0  0  0  0
   -0.3520    2.6500    0.5725 H   0  0  0  0  0  0  0  0  0  0  0  0
   -2.2560    1.6227    1.6397 H   0  0  0  0  0  0  0  0  0  0  0  0
   -2.8299    2.6523    0.3444 H   0  0  0  0  0  0  0  0  0  0  0  0
   -0.5374   -2.8467   -0.5656 H   0  0  0  0  0  0  0  0  0  0  0  0
    0.0887   -2.1550    0.9295 H   0  0  0  0  0  0  0  0  0  0  0  0
   -2.7998   -2.8278    0.4175 H   0  0  0  0  0  0  0  0  0  0  0  0
   -3.2570   -2.0535   -1.1052 H   0  0  0  0  0  0  0  0  0  0  0  0
    1.2856   -1.8600   -1.8757 H   0  0  0  0  0  0  0  0  0  0  0  0
    1.9049   -2.8485   -0.5697 H   0  0  0  0  0  0  0  0  0  0  0  0
   -4.5070   -1.7200    1.6562 H   0  0  0  0  0  0  0  0  0  0  0  0
   -5.3127   -1.7374    0.0460 H   0  0  0  0  0  0  0  0  0  0  0  0
    1.9919    1.6461    1.4059 H   0  0  0  0  0  0  0  0  0  0  0  0
    1.8265    2.7475    0.0445 H   0  0  0  0  0  0  0  0  0  0  0  0
   -3.8630   -0.0501   -2.0181 H   0  0  0  0  0  0  0  0  0  0  0  0
   -3.9088    1.6722   -1.6888 H   0  0  0  0  0  0  0  0  0  0  0  0
   -2.3911    0.9107   -2.1653 H   0  0  0  0  0  0  0  0  0  0  0  0
    0.7949    0.3623   -2.5467 H   0  0  0  0  0  0  0  0  0  0  0  0
    1.0979    2.0439   -2.1132 H   0  0  0  0  0  0  0  0  0  0  0  0
    2.4461    0.9463   -2.3926 H   0  0  0  0  0  0  0  0  0  0  0  0
    4.1589    2.4877    0.7667 H   0  0  0  0  0  0  0  0  0  0  0  0
    3.9791    1.9349   -0.9073 H   0  0  0  0  0  0  0  0  0  0  0  0
    4.9810   -1.8149    0.7620 H   0  0  0  0  0  0  0  0  0  0  0  0
  1 15  2  0  0  0  0
  2 21  1  0  0  0  0
  2 48  1  0  0  0  0
  3 22  2  0  0  0  0
  4  5  1  0  0  0  0
  4  6  1  0  0  0  0
  4 11  1  0  0  0  0
  4 23  1  0  0  0  0
  5  8  1  0  0  0  0
  5  9  1  0  0  0  0
  5 24  1  0  0  0  0
  6  7  1  0  0  0  0
  6 12  1  0  0  0  0
  6 25  1  0  0  0  0
  7 10  1  0  0  0  0
  7 15  1  0  0  0  0
  7 18  1  0  0  0  0
  8 13  1  0  0  0  0
  8 17  1  0  0  0  0
  8 19  1  0  0  0  0
  9 10  1  0  0  0  0
  9 26  1  0  0  0  0
  9 27  1  0  0  0  0
 10 28  1  0  0  0  0
 10 29  1  0  0  0  0
 11 14  1  0  0  0  0
 11 30  1  0  0  0  0
 11 31  1  0  0  0  0
 12 16  1  0  0  0  0
 12 32  1  0  0  0  0
 12 33  1  0  0  0  0
 13 14  1  0  0  0  0
 13 21  2  0  0  0  0
 14 34  1  0  0  0  0
 14 35  1  0  0  0  0
 15 16  1  0  0  0  0
 16 36  1  0  0  0  0
 16 37  1  0  0  0  0
 17 20  1  0  0  0  0
 17 38  1  0  0  0  0
 17 39  1  0  0  0  0
 18 40  1  0  0  0  0
 18 41  1  0  0  0  0
 18 42  1  0  0  0  0
 19 43  1  0  0  0  0
 19 44  1  0  0  0  0
 19 45  1  0  0  0  0
 20 22  1  0  0  0  0
 20 46  1  0  0  0  0
 20 47  1  0  0  0  0
 21 22  1  0  0  0  0
M  END
> <PUBCHEM_COMPOUND_CID>
11273

> <PUBCHEM_CONFORMER_RMSD>
0.6

> <PUBCHEM_CONFORMER_DIVERSEORDER>
1

> <PUBCHEM_MMFF94_PARTIAL_CHARGES>
13
1 -0.57
13 -0.28
14 0.14
15 0.45
16 0.06
2 -0.53
20 0.06
21 0.09
22 0.49
3 -0.57
48 0.45
7 0.06
8 0.14

> <PUBCHEM_EFFECTIVE_ROTOR_COUNT>
1.6

> <PUBCHEM_PHARMACOPHORE_FEATURES>
7
1 1 acceptor
1 2 donor
1 3 acceptor
5 6 7 12 15 16 rings
6 4 5 6 7 9 10 rings
6 4 5 8 11 13 14 rings
6 8 13 17 20 21 22 rings

> <PUBCHEM_HEAVY_ATOM_COUNT>
22

> <PUBCHEM_ATOM_DEF_STEREO_COUNT>
5

> <PUBCHEM_ATOM_UDEF_STEREO_COUNT>
0

> <PUBCHEM_BOND_DEF_STEREO_COUNT>
0

> <PUBCHEM_BOND_UDEF_STEREO_COUNT>
0

> <PUBCHEM_ISOTOPIC_ATOM_COUNT>
0

> <PUBCHEM_COMPONENT_COUNT>
1

> <PUBCHEM_CACTVS_TAUTO_COUNT>
34

> <PUBCHEM_CONFORMER_ID>
00002C0900000001

> <PUBCHEM_MMFF94_ENERGY>
62.8246

> <PUBCHEM_FEATURE_SELFOVERLAP>
35.617

> <PUBCHEM_SHAPE_FINGERPRINT>
10062212 137 18410577254123061111
10759866 29 18129089036006938036
10967382 1 18408601457043739540
11132069 177 18411130334246618647
12011746 2 18408322203282552372
12107183 9 17905606957957285312
12236239 1 18059853935636095020
12251169 10 18410578370903839088
12403259 226 18412268354213995820
12403259 415 18343584070329048348
12403814 3 17988641870608999549
12507557 5 18413113848458855792
12633257 1 18335982064061473323
12788726 201 17458608021878454768
13140716 1 18410570674016905459
13224815 77 18335417958956995583
13583140 156 18339093608995885469
13675066 3 18202281398816380003
14178342 30 18339070596703908177
14223421 5 18263923400613611830
14341114 176 18409162238339447866
14787075 74 18267024959706966538
14790565 3 17763737694523764300
15163728 17 14564191044664765657
15196674 1 18409446977412220995
15536298 74 18261387871155438942
15788980 27 17346602967110912085
16945 1 18265047110066028047
17349148 13 18272370845349455148
17492 89 18411136943759156562
17804303 29 18339074999192774502
1813 80 17275385421869148916
18186145 218 18409444795368244894
19050596 39 18409727344155461473
200 152 18187376411085656471
20715895 44 18198064879631499765
20775438 99 12099580471718728921
21033648 29 18270420354719647216
21267235 1 18410566289039756554
21421861 104 18200595933237657594
21637258 2 15697734674633794960
21859007 373 17772760609327261253
22854114 111 18410851040712315893
23184049 59 18410856568493637318
23402539 116 18114469980648230101
23557571 272 17968364642187616335
23559900 14 18335704979153327058
26918003 58 18412547608824203977
2838139 119 14852185953518950810
296302 2 16442782418740859629
335352 9 18337388365314069935
34934 24 18334860545733467767
350125 39 18410008819675880800
3680242 22 18337382854855068779
42 15 18343864402817856864
5104073 3 18409162212564590859
633830 44 17967245395047887380
7364860 26 18187638171651067838
9709674 26 18262514909075816239

> <PUBCHEM_SHAPE_MULTIPOLES>
435.14
9.58
2.21
1.1
0.15
0.41
0.44
0.13
-3.13
0.28
-0.01
-0.08
-0.25
0.06

> <PUBCHEM_SHAPE_SELFOVERLAP>
941.063

> <PUBCHEM_SHAPE_VOLUME>
236.6

> <PUBCHEM_COORDINATE_TYPE>
2
5
10

$$$$

