14150
  -OEChem-06241222422D

 36 38  0     0  0  0  0  0  0999 V2000
    5.0778    0.2342    0.0000 O   0  0  0  0  0  0  0  0  0  0  0  0
    3.3090    2.7658    0.0000 N   0  0  0  0  0  0  0  0  0  0  0  0
    5.3869   -0.7168    0.0000 N   0  0  0  0  0  0  0  0  0  0  0  0
    3.6180    3.7168    0.0000 C   0  0  0  0  0  0  0  0  0  0  0  0
    2.3090    2.7658    0.0000 C   0  0  0  0  0  0  0  0  0  0  0  0
    2.8090    4.3046    0.0000 C   0  0  0  0  0  0  0  0  0  0  0  0
    2.0000    3.7168    0.0000 C   0  0  0  0  0  0  0  0  0  0  0  0
    3.8968    1.9568    0.0000 C   0  0  0  0  0  0  0  0  0  0  0  0
    3.4901    1.0432    0.0000 C   0  0  0  0  0  0  0  0  0  0  0  0
    4.0778    0.2342    0.0000 C   0  0  0  0  0  0  0  0  0  0  0  0
    3.7688   -0.7168    0.0000 C   0  0  0  0  0  0  0  0  0  0  0  0
    4.5778   -1.3046    0.0000 C   0  0  0  0  0  0  0  0  0  0  0  0
    4.5778   -2.3046    0.0000 C   0  0  0  0  0  0  0  0  0  0  0  0
    3.7118   -2.8046    0.0000 C   0  0  0  0  0  0  0  0  0  0  0  0
    5.4439   -2.8046    0.0000 C   0  0  0  0  0  0  0  0  0  0  0  0
    3.7118   -3.8046    0.0000 C   0  0  0  0  0  0  0  0  0  0  0  0
    5.4439   -3.8046    0.0000 C   0  0  0  0  0  0  0  0  0  0  0  0
    4.5778   -4.3046    0.0000 C   0  0  0  0  0  0  0  0  0  0  0  0
    4.1844    3.4647    0.0000 H   0  0  0  0  0  0  0  0  0  0  0  0
    3.9280    4.2538    0.0000 H   0  0  0  0  0  0  0  0  0  0  0  0
    1.7026    2.6369    0.0000 H   0  0  0  0  0  0  0  0  0  0  0  0
    2.3738    2.1492    0.0000 H   0  0  0  0  0  0  0  0  0  0  0  0
    1.6900    4.2538    0.0000 H   0  0  0  0  0  0  0  0  0  0  0  0
    1.4336    3.4647    0.0000 H   0  0  0  0  0  0  0  0  0  0  0  0
    3.2239    4.7654    0.0000 H   0  0  0  0  0  0  0  0  0  0  0  0
    2.3942    4.7654    0.0000 H   0  0  0  0  0  0  0  0  0  0  0  0
    4.4108    1.6101    0.0000 H   0  0  0  0  0  0  0  0  0  0  0  0
    4.3275    2.4028    0.0000 H   0  0  0  0  0  0  0  0  0  0  0  0
    2.9761    1.3899    0.0000 H   0  0  0  0  0  0  0  0  0  0  0  0
    3.0594    0.5972    0.0000 H   0  0  0  0  0  0  0  0  0  0  0  0
    3.1792   -0.9084    0.0000 H   0  0  0  0  0  0  0  0  0  0  0  0
    3.1749   -2.4946    0.0000 H   0  0  0  0  0  0  0  0  0  0  0  0
    5.9808   -2.4946    0.0000 H   0  0  0  0  0  0  0  0  0  0  0  0
    3.1749   -4.1146    0.0000 H   0  0  0  0  0  0  0  0  0  0  0  0
    5.9808   -4.1146    0.0000 H   0  0  0  0  0  0  0  0  0  0  0  0
    4.5778   -4.9246    0.0000 H   0  0  0  0  0  0  0  0  0  0  0  0
  1  3  1  0  0  0  0
  1 10  1  0  0  0  0
  2  4  1  0  0  0  0
  2  5  1  0  0  0  0
  2  8  1  0  0  0  0
  3 12  2  0  0  0  0
  4  6  1  0  0  0  0
  4 19  1  0  0  0  0
  4 20  1  0  0  0  0
  5  7  1  0  0  0  0
  5 21  1  0  0  0  0
  5 22  1  0  0  0  0
  6  7  1  0  0  0  0
  6 25  1  0  0  0  0
  6 26  1  0  0  0  0
  7 23  1  0  0  0  0
  7 24  1  0  0  0  0
  8  9  1  0  0  0  0
  8 27  1  0  0  0  0
  8 28  1  0  0  0  0
  9 10  1  0  0  0  0
  9 29  1  0  0  0  0
  9 30  1  0  0  0  0
 10 11  2  0  0  0  0
 11 12  1  0  0  0  0
 11 31  1  0  0  0  0
 12 13  1  0  0  0  0
 13 14  2  0  0  0  0
 13 15  1  0  0  0  0
 14 16  1  0  0  0  0
 14 32  1  0  0  0  0
 15 17  2  0  0  0  0
 15 33  1  0  0  0  0
 16 18  2  0  0  0  0
 16 34  1  0  0  0  0
 17 18  1  0  0  0  0
 17 35  1  0  0  0  0
 18 36  1  0  0  0  0
M  END
> <PUBCHEM_COMPOUND_CID>
14150

> <PUBCHEM_COMPOUND_CANONICALIZED>
1

> <PUBCHEM_CACTVS_COMPLEXITY>
247

> <PUBCHEM_CACTVS_HBOND_ACCEPTOR>
3

> <PUBCHEM_CACTVS_HBOND_DONOR>
0

> <PUBCHEM_CACTVS_ROTATABLE_BOND>
4

> <PUBCHEM_CACTVS_SUBSKEYS>
AAADceBzIAAAAAAAAAAAAAAAAAAAAWLAAAAwAAAAAAAAAAABwAAAHgAEAAAADAzBngQwhJMQAACpA6RyQgCCAAAkIgAomCE+bNoIJrqAkZOEMYBmgBiIyUeYyOCOAAAAAAAAAAAAAAAAAAAAAAAAAAAAAA==

> <PUBCHEM_IUPAC_OPENEYE_NAME>
3-phenyl-5-(2-pyrrolidin-1-ylethyl)isoxazole

> <PUBCHEM_IUPAC_CAS_NAME>
3-phenyl-5-[2-(1-pyrrolidinyl)ethyl]isoxazole

> <PUBCHEM_IUPAC_NAME>
3-phenyl-5-(2-pyrrolidin-1-ylethyl)-1,2-oxazole

> <PUBCHEM_IUPAC_SYSTEMATIC_NAME>
3-phenyl-5-(2-pyrrolidin-1-ylethyl)-1,2-oxazole

> <PUBCHEM_IUPAC_TRADITIONAL_NAME>
3-phenyl-5-(2-pyrrolidinoethyl)isoxazole

> <PUBCHEM_IUPAC_INCHI>
InChI=1S/C15H18N2O/c1-2-6-13(7-3-1)15-12-14(18-16-15)8-11-17-9-4-5-10-17/h1-3,6-7,12H,4-5,8-11H2

> <PUBCHEM_IUPAC_INCHIKEY>
IVDLMJVLIPZPJC-UHFFFAOYSA-N

> <PUBCHEM_XLOGP3_AA>
2.9

> <PUBCHEM_EXACT_MASS>
242.141913

> <PUBCHEM_MOLECULAR_FORMULA>
C15H18N2O

> <PUBCHEM_MOLECULAR_WEIGHT>
242.31622

> <PUBCHEM_OPENEYE_CAN_SMILES>
C1CCN(C1)CCC2=CC(=NO2)C3=CC=CC=C3

> <PUBCHEM_OPENEYE_ISO_SMILES>
C1CCN(C1)CCC2=CC(=NO2)C3=CC=CC=C3

> <PUBCHEM_CACTVS_TPSA>
29.3

> <PUBCHEM_MONOISOTOPIC_WEIGHT>
242.141913

> <PUBCHEM_TOTAL_CHARGE>
0

> <PUBCHEM_HEAVY_ATOM_COUNT>
18

> <PUBCHEM_ATOM_DEF_STEREO_COUNT>
0

> <PUBCHEM_ATOM_UDEF_STEREO_COUNT>
0

> <PUBCHEM_BOND_DEF_STEREO_COUNT>
0

> <PUBCHEM_BOND_UDEF_STEREO_COUNT>
0

> <PUBCHEM_ISOTOPIC_ATOM_COUNT>
0

> <PUBCHEM_COMPONENT_COUNT>
1

> <PUBCHEM_CACTVS_TAUTO_COUNT>
1

> <PUBCHEM_COORDINATE_TYPE>
1
5
255

> <PUBCHEM_BONDANNOTATIONS>
1  10  8
1  3  8
10  11  8
11  12  8
13  14  8
13  15  8
14  16  8
15  17  8
16  18  8
17  18  8
3  12  8

$$$$

