17395702
  -OEChem-06241222513D

 35 36  0     0  0  0  0  0  0999 V2000
    7.5779    0.5703   -0.4607 Br  0  0  0  0  0  0  0  0  0  0  0  0
   -0.7318    0.7969   -0.4680 S   0  0  0  0  0  0  0  0  0  0  0  0
    1.7649   -0.5994    0.6929 O   0  0  0  0  0  0  0  0  0  0  0  0
   -4.5426    1.7071   -0.2613 N   0  0  0  0  0  0  0  0  0  0  0  0
   -3.2743   -0.1869   -0.0694 N   0  0  0  0  0  0  0  0  0  0  0  0
   -3.2368    1.9692   -0.4226 N   0  0  0  0  0  0  0  0  0  0  0  0
   -5.7690   -0.3549    0.1832 C   0  0  0  0  0  0  0  0  0  0  0  0
   -4.5120    0.3895   -0.0501 C   0  0  0  0  0  0  0  0  0  0  0  0
   -6.0550   -1.4173   -0.9031 C   0  0  0  0  0  0  0  0  0  0  0  0
   -5.8305   -1.0182    1.5785 C   0  0  0  0  0  0  0  0  0  0  0  0
   -2.4897    0.8385   -0.3069 C   0  0  0  0  0  0  0  0  0  0  0  0
   -0.4417   -0.9807   -0.2139 C   0  0  0  0  0  0  0  0  0  0  0  0
    1.0381   -1.3198   -0.3013 C   0  0  0  0  0  0  0  0  0  0  0  0
    3.0749   -0.3360    0.4333 C   0  0  0  0  0  0  0  0  0  0  0  0
    3.8189   -1.2117   -0.3576 C   0  0  0  0  0  0  0  0  0  0  0  0
    3.6729    0.8096    0.9583 C   0  0  0  0  0  0  0  0  0  0  0  0
    5.1611   -0.9410   -0.6241 C   0  0  0  0  0  0  0  0  0  0  0  0
    5.0152    1.0800    0.6920 C   0  0  0  0  0  0  0  0  0  0  0  0
    5.7593    0.2048   -0.0994 C   0  0  0  0  0  0  0  0  0  0  0  0
   -6.6084    0.3541    0.1451 H   0  0  0  0  0  0  0  0  0  0  0  0
   -7.0232   -1.8991   -0.7314 H   0  0  0  0  0  0  0  0  0  0  0  0
   -6.0747   -0.9571   -1.8971 H   0  0  0  0  0  0  0  0  0  0  0  0
   -5.2814   -2.1932   -0.9091 H   0  0  0  0  0  0  0  0  0  0  0  0
   -5.6889   -0.2712    2.3673 H   0  0  0  0  0  0  0  0  0  0  0  0
   -6.7998   -1.5020    1.7373 H   0  0  0  0  0  0  0  0  0  0  0  0
   -5.0462   -1.7752    1.6901 H   0  0  0  0  0  0  0  0  0  0  0  0
   -5.2609    2.4242   -0.3129 H   0  0  0  0  0  0  0  0  0  0  0  0
   -0.8159   -1.2451    0.7811 H   0  0  0  0  0  0  0  0  0  0  0  0
   -0.9971   -1.5553   -0.9622 H   0  0  0  0  0  0  0  0  0  0  0  0
    1.3887   -1.0829   -1.3151 H   0  0  0  0  0  0  0  0  0  0  0  0
    1.1676   -2.3940   -0.1241 H   0  0  0  0  0  0  0  0  0  0  0  0
    3.3998   -2.1275   -0.7633 H   0  0  0  0  0  0  0  0  0  0  0  0
    3.0978    1.4952    1.5747 H   0  0  0  0  0  0  0  0  0  0  0  0
    5.7289   -1.6359   -1.2376 H   0  0  0  0  0  0  0  0  0  0  0  0
    5.4661    1.9770    1.1085 H   0  0  0  0  0  0  0  0  0  0  0  0
  1 19  1  0  0  0  0
  2 11  1  0  0  0  0
  2 12  1  0  0  0  0
  3 13  1  0  0  0  0
  3 14  1  0  0  0  0
  4  6  1  0  0  0  0
  4  8  1  0  0  0  0
  4 27  1  0  0  0  0
  5  8  2  0  0  0  0
  5 11  1  0  0  0  0
  6 11  2  0  0  0  0
  7  8  1  0  0  0  0
  7  9  1  0  0  0  0
  7 10  1  0  0  0  0
  7 20  1  0  0  0  0
  9 21  1  0  0  0  0
  9 22  1  0  0  0  0
  9 23  1  0  0  0  0
 10 24  1  0  0  0  0
 10 25  1  0  0  0  0
 10 26  1  0  0  0  0
 12 13  1  0  0  0  0
 12 28  1  0  0  0  0
 12 29  1  0  0  0  0
 13 30  1  0  0  0  0
 13 31  1  0  0  0  0
 14 15  2  0  0  0  0
 14 16  1  0  0  0  0
 15 17  1  0  0  0  0
 15 32  1  0  0  0  0
 16 18  2  0  0  0  0
 16 33  1  0  0  0  0
 17 19  2  0  0  0  0
 17 34  1  0  0  0  0
 18 19  1  0  0  0  0
 18 35  1  0  0  0  0
M  END
> <PUBCHEM_COMPOUND_CID>
17395702

> <PUBCHEM_CONFORMER_RMSD>
1

> <PUBCHEM_CONFORMER_DIVERSEORDER>
1
37
62
22
60
26
61
10
34
27
36
46
54
6
24
16
56
39
9
2
28
31
35
7
57
59
5
30
18
21
3
52
58
43
55
29
20
53
44
40
4
12
38
45
19
48
11
23
15
50
47
13
8
14
51
17
33
32
49
25
41
42

> <PUBCHEM_MMFF94_PARTIAL_CHARGES>
22
1 -0.11
11 0.57
12 0.23
13 0.28
14 0.08
15 -0.15
16 -0.15
17 -0.15
18 -0.15
19 0.11
2 -0.28
27 0.27
3 -0.36
32 0.15
33 0.15
34 0.15
35 0.15
4 0.3
5 -0.57
6 -0.71
7 0.18
8 0.01

> <PUBCHEM_EFFECTIVE_ROTOR_COUNT>
6

> <PUBCHEM_PHARMACOPHORE_FEATURES>
8
1 1 hydrophobe
1 3 acceptor
1 4 donor
3 4 5 8 cation
3 5 6 11 cation
3 7 9 10 hydrophobe
5 4 5 6 8 11 rings
6 14 15 16 17 18 19 rings

> <PUBCHEM_HEAVY_ATOM_COUNT>
19

> <PUBCHEM_ATOM_DEF_STEREO_COUNT>
0

> <PUBCHEM_ATOM_UDEF_STEREO_COUNT>
0

> <PUBCHEM_BOND_DEF_STEREO_COUNT>
0

> <PUBCHEM_BOND_UDEF_STEREO_COUNT>
0

> <PUBCHEM_ISOTOPIC_ATOM_COUNT>
0

> <PUBCHEM_COMPONENT_COUNT>
1

> <PUBCHEM_CACTVS_TAUTO_COUNT>
5

> <PUBCHEM_CONFORMER_ID>
01096FF600000001

> <PUBCHEM_MMFF94_ENERGY>
47.455

> <PUBCHEM_FEATURE_SELFOVERLAP>
43.343

> <PUBCHEM_SHAPE_FINGERPRINT>
10366900 7 16988559125960634680
10447042 23 12823298996454573266
10613725 11 4750877048231692188
10968037 39 18273215288176991479
11089746 13 13830129477362826510
11287383 113 18260550030299362830
11315181 36 17346876737385779053
11646440 116 18040435478100478104
11719270 70 11095888160136625304
11724838 91 18131351865517977556
12091667 2 18411138039491774751
12166972 35 18334855000604219496
12236239 1 16845575326859701634
12616971 3 14273746135270908425
12730499 353 18333729131204999478
12916748 109 18334294288554943344
13533116 47 5906059106497512772
13964095 4 6411301221466236962
14123256 10 18131070428906003799
1420 363 18342453742611493227
14251718 22 18341894103893052276
14251731 8 7637400722544176523
14251752 14 5833717854942933914
14251764 18 18272374174861888546
14341114 176 18261108582111295097
14933364 13 18261109681754791600
15183329 4 7781521395224606751
15716309 27 18408040723789574891
17844677 252 18187361056039853649
18006028 8 11743841357084334494
18222031 100 16558747940445862494
18335252 98 18411694374837370874
19489759 90 17346598586602914353
20281389 69 18413393129567088808
20645477 70 17676764375167522142
21095086 128 16732984206757361431
21150785 3 18409163295244248460
21315759 40 16153713119918297837
220451 1 16732986435681896654
221357 26 17894351103396126688
23272321 79 18412826880234687461
23402539 116 12751520678581428079
23559900 14 17988927717831164981
26918003 58 10879989168695793796
300161 21 14836404722579763808
3009799 131 11887677264626704039
347723 3 4823216113141391150
3545911 37 18260830389133020806
4073 2 18201431519415276883
4325135 7 18408606942133760247
445580 167 18337957783847084804
474229 33 18342457036899174275
5104073 3 18270119161837536691
53794403 172 18198059171578018716
5385378 56 7997428138891321653
542803 24 16588024623541707555
54446538 1 18272089388043627012
559249 180 8214138551799301397
9996256 80 18260270741408550934

> <PUBCHEM_SHAPE_MULTIPOLES>
379.99
20.21
1.56
0.98
3.69
0.23
0.22
-0.14
-0.1
-1.01
-0.19
-0.53
-0.11
0.8

> <PUBCHEM_SHAPE_SELFOVERLAP>
758.773

> <PUBCHEM_SHAPE_VOLUME>
230.9

> <PUBCHEM_COORDINATE_TYPE>
2
5
10

$$$$

