7312
  -OEChem-06261202003D

 28 27  0     0  0  0  0  0  0999 V2000
   -3.7370    0.1480    0.2799 Cl  0  0  0  0  0  0  0  0  0  0  0  0
    0.2219    0.0825   -0.5753 N   0  0  0  0  0  0  0  0  0  0  0  0
    0.5059   -1.3162   -0.2567 C   0  0  0  0  0  0  0  0  0  0  0  0
    1.3174    0.9415   -0.1270 C   0  0  0  0  0  0  0  0  0  0  0  0
   -1.0386    0.5005    0.0370 C   0  0  0  0  0  0  0  0  0  0  0  0
    0.6144   -1.5032    1.2540 C   0  0  0  0  0  0  0  0  0  0  0  0
    1.7921   -1.7453   -0.9557 C   0  0  0  0  0  0  0  0  0  0  0  0
    1.4648    0.8629    1.3898 C   0  0  0  0  0  0  0  0  0  0  0  0
    1.0561    2.3749   -0.5787 C   0  0  0  0  0  0  0  0  0  0  0  0
   -2.1971   -0.3455   -0.4674 C   0  0  0  0  0  0  0  0  0  0  0  0
   -0.2658   -1.9744   -0.6664 H   0  0  0  0  0  0  0  0  0  0  0  0
    2.2655    0.6734   -0.6041 H   0  0  0  0  0  0  0  0  0  0  0  0
   -1.0850    0.5255    1.1260 H   0  0  0  0  0  0  0  0  0  0  0  0
   -1.2797    1.5209   -0.2836 H   0  0  0  0  0  0  0  0  0  0  0  0
    0.3122   -2.5545    1.4084 H   0  0  0  0  0  0  0  0  0  0  0  0
    1.6284   -1.5521    1.6557 H   0  0  0  0  0  0  0  0  0  0  0  0
   -0.1017   -1.0101    1.9104 H   0  0  0  0  0  0  0  0  0  0  0  0
    1.7926   -1.4573   -2.0132 H   0  0  0  0  0  0  0  0  0  0  0  0
    1.8750   -2.8388   -0.9253 H   0  0  0  0  0  0  0  0  0  0  0  0
    2.7028   -1.3616   -0.4848 H   0  0  0  0  0  0  0  0  0  0  0  0
    1.9304    1.8169    1.6924 H   0  0  0  0  0  0  0  0  0  0  0  0
    0.5844    0.8691    2.0299 H   0  0  0  0  0  0  0  0  0  0  0  0
    2.2474    0.1770    1.7174 H   0  0  0  0  0  0  0  0  0  0  0  0
    0.7671    2.4193   -1.6349 H   0  0  0  0  0  0  0  0  0  0  0  0
    1.9735    2.9677   -0.4772 H   0  0  0  0  0  0  0  0  0  0  0  0
    0.2939    2.8865    0.0183 H   0  0  0  0  0  0  0  0  0  0  0  0
   -2.3142   -0.2618   -1.5526 H   0  0  0  0  0  0  0  0  0  0  0  0
   -2.1100   -1.4006   -0.2051 H   0  0  0  0  0  0  0  0  0  0  0  0
  1 10  1  0  0  0  0
  2  3  1  0  0  0  0
  2  4  1  0  0  0  0
  2  5  1  0  0  0  0
  3  6  1  0  0  0  0
  3  7  1  0  0  0  0
  3 11  1  0  0  0  0
  4  8  1  0  0  0  0
  4  9  1  0  0  0  0
  4 12  1  0  0  0  0
  5 10  1  0  0  0  0
  5 13  1  0  0  0  0
  5 14  1  0  0  0  0
  6 15  1  0  0  0  0
  6 16  1  0  0  0  0
  6 17  1  0  0  0  0
  7 18  1  0  0  0  0
  7 19  1  0  0  0  0
  7 20  1  0  0  0  0
  8 21  1  0  0  0  0
  8 22  1  0  0  0  0
  8 23  1  0  0  0  0
  9 24  1  0  0  0  0
  9 25  1  0  0  0  0
  9 26  1  0  0  0  0
 10 27  1  0  0  0  0
 10 28  1  0  0  0  0
M  END
> <PUBCHEM_COMPOUND_CID>
7312

> <PUBCHEM_CONFORMER_RMSD>
0.6

> <PUBCHEM_CONFORMER_DIVERSEORDER>
1
3
2

> <PUBCHEM_MMFF94_PARTIAL_CHARGES>
6
1 -0.29
10 0.29
2 -0.81
3 0.27
4 0.27
5 0.27

> <PUBCHEM_EFFECTIVE_ROTOR_COUNT>
4

> <PUBCHEM_PHARMACOPHORE_FEATURES>
3
1 2 cation
3 3 6 7 hydrophobe
3 4 8 9 hydrophobe

> <PUBCHEM_HEAVY_ATOM_COUNT>
10

> <PUBCHEM_ATOM_DEF_STEREO_COUNT>
0

> <PUBCHEM_ATOM_UDEF_STEREO_COUNT>
0

> <PUBCHEM_BOND_DEF_STEREO_COUNT>
0

> <PUBCHEM_BOND_UDEF_STEREO_COUNT>
0

> <PUBCHEM_ISOTOPIC_ATOM_COUNT>
0

> <PUBCHEM_COMPONENT_COUNT>
1

> <PUBCHEM_CACTVS_TAUTO_COUNT>
1

> <PUBCHEM_CONFORMER_ID>
00001C9000000001

> <PUBCHEM_MMFF94_ENERGY>
43.5333

> <PUBCHEM_FEATURE_SELFOVERLAP>
15.225

> <PUBCHEM_SHAPE_FINGERPRINT>
12932764 1 17988924513816873015
137420 1 5216488762038616798
161256 15 18337393871398891628
16945 1 18335687339253033700
19837323 101 17545308684093908484
20645477 70 18410577284678481951
20653091 64 18338229483198440153
20708731 107 18335690646457057439
20711978 78 18042140884563425277
20711985 344 17545607111322061807
21040471 1 17974575688777997748
21524375 3 17980769233503684085
230 275 18410299090518468113
23235685 24 18339364037306401293
23552449 11 18270130114025337211
241688 4 18122618620161614984
2748010 2 18123205742185781485
5084963 1 18124055445525101464

> <PUBCHEM_SHAPE_MULTIPOLES>
202.68
3.66
2.11
1.16
5.37
0.42
-0.33
0.05
-0.09
-1.6
0.31
-0.52
-0.16
0.16

> <PUBCHEM_SHAPE_SELFOVERLAP>
366.43

> <PUBCHEM_SHAPE_VOLUME>
132.6

> <PUBCHEM_COORDINATE_TYPE>
2
5
10

$$$$

