13211
  -OEChem-06261207543D

 22 23  0     0  0  0  0  0  0999 V2000
   -1.3423   -1.4404    0.1342 C   0  0  0  0  0  0  0  0  0  0  0  0
   -2.5087   -0.5278   -0.2739 C   0  0  0  0  0  0  0  0  0  0  0  0
   -2.1208    0.8991    0.1421 C   0  0  0  0  0  0  0  0  0  0  0  0
   -0.1873   -0.4942    0.0390 C   0  0  0  0  0  0  0  0  0  0  0  0
   -0.6294    0.8340    0.0437 C   0  0  0  0  0  0  0  0  0  0  0  0
    1.1629   -0.7976   -0.0022 C   0  0  0  0  0  0  0  0  0  0  0  0
    0.2698    1.8862    0.0070 C   0  0  0  0  0  0  0  0  0  0  0  0
    2.0768    0.2573   -0.0524 C   0  0  0  0  0  0  0  0  0  0  0  0
    1.6334    1.5896   -0.0476 C   0  0  0  0  0  0  0  0  0  0  0  0
    1.6457   -2.2062    0.0100 C   0  0  0  0  0  0  0  0  0  0  0  0
   -1.2529   -2.2914   -0.5466 H   0  0  0  0  0  0  0  0  0  0  0  0
   -1.4583   -1.7925    1.1643 H   0  0  0  0  0  0  0  0  0  0  0  0
   -3.4606   -0.8459    0.1627 H   0  0  0  0  0  0  0  0  0  0  0  0
   -2.6268   -0.5633   -1.3660 H   0  0  0  0  0  0  0  0  0  0  0  0
   -2.4217    1.1060    1.1742 H   0  0  0  0  0  0  0  0  0  0  0  0
   -2.5539    1.6429   -0.5323 H   0  0  0  0  0  0  0  0  0  0  0  0
   -0.0698    2.9162    0.0220 H   0  0  0  0  0  0  0  0  0  0  0  0
    3.1458    0.0623   -0.0900 H   0  0  0  0  0  0  0  0  0  0  0  0
    2.3598    2.3971   -0.0808 H   0  0  0  0  0  0  0  0  0  0  0  0
    1.2488   -2.7402    0.8797 H   0  0  0  0  0  0  0  0  0  0  0  0
    1.3317   -2.7233   -0.9024 H   0  0  0  0  0  0  0  0  0  0  0  0
    2.7382   -2.2615    0.0645 H   0  0  0  0  0  0  0  0  0  0  0  0
  1  2  1  0  0  0  0
  1  4  1  0  0  0  0
  1 11  1  0  0  0  0
  1 12  1  0  0  0  0
  2  3  1  0  0  0  0
  2 13  1  0  0  0  0
  2 14  1  0  0  0  0
  3  5  1  0  0  0  0
  3 15  1  0  0  0  0
  3 16  1  0  0  0  0
  4  5  1  0  0  0  0
  4  6  2  0  0  0  0
  5  7  2  0  0  0  0
  6  8  1  0  0  0  0
  6 10  1  0  0  0  0
  7  9  1  0  0  0  0
  7 17  1  0  0  0  0
  8  9  2  0  0  0  0
  8 18  1  0  0  0  0
  9 19  1  0  0  0  0
 10 20  1  0  0  0  0
 10 21  1  0  0  0  0
 10 22  1  0  0  0  0
M  END
> <PUBCHEM_COMPOUND_CID>
13211

> <PUBCHEM_CONFORMER_RMSD>
0.4

> <PUBCHEM_CONFORMER_DIVERSEORDER>
1

> <PUBCHEM_MMFF94_PARTIAL_CHARGES>
12
1 0.14
10 0.14
17 0.15
18 0.15
19 0.15
3 0.14
4 -0.14
5 -0.14
6 -0.14
7 -0.15
8 -0.15
9 -0.15

> <PUBCHEM_EFFECTIVE_ROTOR_COUNT>
0.6

> <PUBCHEM_PHARMACOPHORE_FEATURES>
2
5 1 2 3 4 5 rings
6 4 5 6 7 8 9 rings

> <PUBCHEM_HEAVY_ATOM_COUNT>
10

> <PUBCHEM_ATOM_DEF_STEREO_COUNT>
0

> <PUBCHEM_ATOM_UDEF_STEREO_COUNT>
0

> <PUBCHEM_BOND_DEF_STEREO_COUNT>
0

> <PUBCHEM_BOND_UDEF_STEREO_COUNT>
0

> <PUBCHEM_ISOTOPIC_ATOM_COUNT>
0

> <PUBCHEM_COMPONENT_COUNT>
1

> <PUBCHEM_CACTVS_TAUTO_COUNT>
1

> <PUBCHEM_CONFORMER_ID>
0000339B00000001

> <PUBCHEM_MMFF94_ENERGY>
24.887

> <PUBCHEM_FEATURE_SELFOVERLAP>
10.232

> <PUBCHEM_SHAPE_FINGERPRINT>
12423570 1 16614477447313714985
12524768 44 18263923404945703679
12897270 3 18338798884145189229
16945 1 18410855430179558705
18185500 45 18409729581701449894
193761 8 18266741479212753988
21040471 1 17762338011635688644
23552423 10 18413102861916513031
241688 4 18050850219109019560
2748010 2 18123191465608903413
29004967 10 18413103939995456945
5084963 1 17826221904851778496
528886 8 18266181629967043329
66348 1 18410572846990476926

> <PUBCHEM_SHAPE_MULTIPOLES>
205.8
3.03
2.19
0.63
0.86
0.25
0
0.31
-0.12
-0.83
0.03
0.02
0
-0.06

> <PUBCHEM_SHAPE_SELFOVERLAP>
441.526

> <PUBCHEM_SHAPE_VOLUME>
108.8

> <PUBCHEM_COORDINATE_TYPE>
2
5
10

$$$$

