8025
  -OEChem-06261202333D

 11 10  0     0  0  0  0  0  0999 V2000
    0.0372    0.6851    0.0000 O   0  0  0  0  0  0  0  0  0  0  0  0
   -1.8828   -0.6087    0.0000 O   0  0  0  0  0  0  0  0  0  0  0  0
    0.8490   -0.4796    0.0000 C   0  0  0  0  0  0  0  0  0  0  0  0
    2.3051   -0.0655    0.0000 C   0  0  0  0  0  0  0  0  0  0  0  0
   -1.3085    0.4687    0.0000 C   0  0  0  0  0  0  0  0  0  0  0  0
    0.6366   -1.0780    0.8932 H   0  0  0  0  0  0  0  0  0  0  0  0
    0.6366   -1.0780   -0.8931 H   0  0  0  0  0  0  0  0  0  0  0  0
    2.9605   -0.9410    0.0000 H   0  0  0  0  0  0  0  0  0  0  0  0
    2.5323    0.5459   -0.8796 H   0  0  0  0  0  0  0  0  0  0  0  0
    2.5323    0.5459    0.8795 H   0  0  0  0  0  0  0  0  0  0  0  0
   -1.8192    1.4439    0.0000 H   0  0  0  0  0  0  0  0  0  0  0  0
  1  3  1  0  0  0  0
  1  5  1  0  0  0  0
  2  5  2  0  0  0  0
  3  4  1  0  0  0  0
  3  6  1  0  0  0  0
  3  7  1  0  0  0  0
  4  8  1  0  0  0  0
  4  9  1  0  0  0  0
  4 10  1  0  0  0  0
  5 11  1  0  0  0  0
M  END
> <PUBCHEM_COMPOUND_CID>
8025

> <PUBCHEM_CONFORMER_RMSD>
0.4

> <PUBCHEM_CONFORMER_DIVERSEORDER>
1
2
3

> <PUBCHEM_MMFF94_PARTIAL_CHARGES>
5
1 -0.43
11 0.06
2 -0.57
3 0.28
5 0.66

> <PUBCHEM_EFFECTIVE_ROTOR_COUNT>
2

> <PUBCHEM_PHARMACOPHORE_FEATURES>
1
1 2 acceptor

> <PUBCHEM_HEAVY_ATOM_COUNT>
5

> <PUBCHEM_ATOM_DEF_STEREO_COUNT>
0

> <PUBCHEM_ATOM_UDEF_STEREO_COUNT>
0

> <PUBCHEM_BOND_DEF_STEREO_COUNT>
0

> <PUBCHEM_BOND_UDEF_STEREO_COUNT>
0

> <PUBCHEM_ISOTOPIC_ATOM_COUNT>
0

> <PUBCHEM_COMPONENT_COUNT>
1

> <PUBCHEM_CACTVS_TAUTO_COUNT>
1

> <PUBCHEM_CONFORMER_ID>
00001F5900000001

> <PUBCHEM_MMFF94_ENERGY>
2.7115

> <PUBCHEM_FEATURE_SELFOVERLAP>
5.074

> <PUBCHEM_SHAPE_FINGERPRINT>
139733 1 18410856585694494918
16714656 1 8286202759907133810
20096714 4 9007053565160716606
5460574 1 18410856585599484420

> <PUBCHEM_SHAPE_MULTIPOLES>
91.16
2.89
0.81
0.58
0.65
0
0
0.26
0
-0.14
0
0.04
0
0

> <PUBCHEM_SHAPE_SELFOVERLAP>
156.648

> <PUBCHEM_SHAPE_VOLUME>
60.8

> <PUBCHEM_COORDINATE_TYPE>
2
5
10

$$$$

