13749
  -OEChem-06241222402D

 36 35  0     1  0  0  0  0  0999 V2000
    7.7331    5.6200    0.0000 K   0  3  0  0  0  0  0  0  0  0  0  0
   12.0632    7.1200    0.0000 O   0  0  0  0  0  0  0  0  0  0  0  0
    8.5991    5.1200    0.0000 O   0  5  0  0  0  0  0  0  0  0  0  0
    7.7331    3.6200    0.0000 O   0  0  0  0  0  0  0  0  0  0  0  0
   10.3312    7.1200    0.0000 O   0  0  0  0  0  0  0  0  0  0  0  0
   10.3312    4.1200    0.0000 N   0  0  0  0  0  0  0  0  0  0  0  0
    9.4651    3.6200    0.0000 C   0  0  3  0  0  0  0  0  0  0  0  0
    9.4651    2.6200    0.0000 C   0  0  0  0  0  0  0  0  0  0  0  0
   10.3312    5.1200    0.0000 C   0  0  0  0  0  0  0  0  0  0  0  0
   10.3312    2.1200    0.0000 C   0  0  0  0  0  0  0  0  0  0  0  0
    8.5991    2.1200    0.0000 C   0  0  0  0  0  0  0  0  0  0  0  0
    8.5991    4.1200    0.0000 C   0  0  0  0  0  0  0  0  0  0  0  0
   10.3312    1.1200    0.0000 C   0  0  0  0  0  0  0  0  0  0  0  0
    8.5991    1.1200    0.0000 C   0  0  0  0  0  0  0  0  0  0  0  0
    9.4651    5.6200    0.0000 C   0  0  0  0  0  0  0  0  0  0  0  0
   11.1972    5.6200    0.0000 C   0  0  0  0  0  0  0  0  0  0  0  0
    9.4651    0.6200    0.0000 C   0  0  0  0  0  0  0  0  0  0  0  0
   11.1972    6.6200    0.0000 C   0  0  0  0  0  0  0  0  0  0  0  0
   12.0632    8.1200    0.0000 C   0  0  0  0  0  0  0  0  0  0  0  0
   12.9292    8.6200    0.0000 C   0  0  0  0  0  0  0  0  0  0  0  0
    9.4651    4.2400    0.0000 H   0  0  0  0  0  0  0  0  0  0  0  0
   10.8681    3.8100    0.0000 H   0  0  0  0  0  0  0  0  0  0  0  0
   10.8681    2.4300    0.0000 H   0  0  0  0  0  0  0  0  0  0  0  0
    8.0622    2.4300    0.0000 H   0  0  0  0  0  0  0  0  0  0  0  0
    9.7751    6.1569    0.0000 H   0  0  0  0  0  0  0  0  0  0  0  0
    8.9282    5.9300    0.0000 H   0  0  0  0  0  0  0  0  0  0  0  0
    9.1551    5.0831    0.0000 H   0  0  0  0  0  0  0  0  0  0  0  0
   10.8681    0.8100    0.0000 H   0  0  0  0  0  0  0  0  0  0  0  0
    8.0622    0.8100    0.0000 H   0  0  0  0  0  0  0  0  0  0  0  0
   11.7341    5.3100    0.0000 H   0  0  0  0  0  0  0  0  0  0  0  0
    9.4651    0.0000    0.0000 H   0  0  0  0  0  0  0  0  0  0  0  0
   11.8512    8.7026    0.0000 H   0  0  0  0  0  0  0  0  0  0  0  0
   11.4526    8.0123    0.0000 H   0  0  0  0  0  0  0  0  0  0  0  0
   13.2392    8.0831    0.0000 H   0  0  0  0  0  0  0  0  0  0  0  0
   13.4662    8.9300    0.0000 H   0  0  0  0  0  0  0  0  0  0  0  0
   12.6192    9.1569    0.0000 H   0  0  0  0  0  0  0  0  0  0  0  0
  2 18  1  0  0  0  0
  2 19  1  0  0  0  0
  3 12  1  0  0  0  0
  4 12  2  0  0  0  0
  5 18  2  0  0  0  0
  6  7  1  0  0  0  0
  6  9  1  0  0  0  0
  6 22  1  0  0  0  0
  7  8  1  0  0  0  0
  7 12  1  0  0  0  0
  7 21  1  0  0  0  0
  8 10  2  0  0  0  0
  8 11  1  0  0  0  0
  9 15  1  0  0  0  0
  9 16  2  3  0  0  0
 10 13  1  0  0  0  0
 10 23  1  0  0  0  0
 11 14  2  0  0  0  0
 11 24  1  0  0  0  0
 13 17  2  0  0  0  0
 13 28  1  0  0  0  0
 14 17  1  0  0  0  0
 14 29  1  0  0  0  0
 15 25  1  0  0  0  0
 15 26  1  0  0  0  0
 15 27  1  0  0  0  0
 16 18  1  0  0  0  0
 16 30  1  0  0  0  0
 17 31  1  0  0  0  0
 19 20  1  0  0  0  0
 19 32  1  0  0  0  0
 19 33  1  0  0  0  0
 20 34  1  0  0  0  0
 20 35  1  0  0  0  0
 20 36  1  0  0  0  0
M  CHG  2   1   1   3  -1
M  END
> <PUBCHEM_COMPOUND_CID>
13749

> <PUBCHEM_COMPOUND_CANONICALIZED>
1

> <PUBCHEM_CACTVS_COMPLEXITY>
340

> <PUBCHEM_CACTVS_HBOND_ACCEPTOR>
5

> <PUBCHEM_CACTVS_HBOND_DONOR>
1

> <PUBCHEM_CACTVS_ROTATABLE_BOND>
6

> <PUBCHEM_CACTVS_SUBSKEYS>
AAADceByOAAAQAAAAAAAAAAAAAAAAAAAAAAwAAAAAAAAAAABAAAAHgAQAAAADCjhmAYyCILABACIAiTSSACCAAAgAgAIiIGIBMgKJDKAtTGGMAhk0AGYqUeYyKCOAAAAAAAAAAAAAAAAAAAAAAAAAAAAAA==

> <PUBCHEM_IUPAC_OPENEYE_NAME>
potassium 2-[(3-ethoxy-1-methyl-3-oxo-prop-1-enyl)amino]-2-phenyl-acetate

> <PUBCHEM_IUPAC_CAS_NAME>
potassium 2-[(4-ethoxy-4-oxobut-2-en-2-yl)amino]-2-phenylacetate

> <PUBCHEM_IUPAC_NAME>
potassium 2-[(4-ethoxy-4-oxobut-2-en-2-yl)amino]-2-phenylacetate

> <PUBCHEM_IUPAC_SYSTEMATIC_NAME>
potassium 2-[(4-ethoxy-4-oxidanylidene-but-2-en-2-yl)amino]-2-phenyl-ethanoate

> <PUBCHEM_IUPAC_TRADITIONAL_NAME>
potassium 2-[(3-ethoxy-3-keto-1-methyl-prop-1-enyl)amino]-2-phenyl-acetate

> <PUBCHEM_IUPAC_INCHI>
InChI=1S/C14H17NO4.K/c1-3-19-12(16)9-10(2)15-13(14(17)18)11-7-5-4-6-8-11;/h4-9,13,15H,3H2,1-2H3,(H,17,18);/q;+1/p-1

> <PUBCHEM_IUPAC_INCHIKEY>
QMWWAEFYIXXXQW-UHFFFAOYSA-M

> <PUBCHEM_EXACT_MASS>
301.07164

> <PUBCHEM_MOLECULAR_FORMULA>
C14H16KNO4

> <PUBCHEM_MOLECULAR_WEIGHT>
301.37944

> <PUBCHEM_OPENEYE_CAN_SMILES>
CCOC(=O)C=C(C)NC(C1=CC=CC=C1)C(=O)[O-].[K+]

> <PUBCHEM_OPENEYE_ISO_SMILES>
CCOC(=O)C=C(C)NC(C1=CC=CC=C1)C(=O)[O-].[K+]

> <PUBCHEM_CACTVS_TPSA>
78.5

> <PUBCHEM_MONOISOTOPIC_WEIGHT>
301.07164

> <PUBCHEM_TOTAL_CHARGE>
0

> <PUBCHEM_HEAVY_ATOM_COUNT>
20

> <PUBCHEM_ATOM_DEF_STEREO_COUNT>
0

> <PUBCHEM_ATOM_UDEF_STEREO_COUNT>
1

> <PUBCHEM_BOND_DEF_STEREO_COUNT>
0

> <PUBCHEM_BOND_UDEF_STEREO_COUNT>
1

> <PUBCHEM_ISOTOPIC_ATOM_COUNT>
0

> <PUBCHEM_COMPONENT_COUNT>
2

> <PUBCHEM_CACTVS_TAUTO_COUNT>
3

> <PUBCHEM_COORDINATE_TYPE>
1
5
255

> <PUBCHEM_BONDANNOTATIONS>
10  13  8
11  14  8
13  17  8
14  17  8
7  8  3
8  10  8
8  11  8
9  16  1

$$$$

