17395997
  -OEChem-06241222533D

 40 42  0     1  0  0  0  0  0999 V2000
    4.6041   -1.5037   -0.7781 S   0  0  0  0  0  0  0  0  0  0  0  0
   -3.5307    2.2988   -0.2158 S   0  0  0  0  0  0  0  0  0  0  0  0
    0.9723   -0.4045    0.3007 O   0  0  0  0  0  0  0  0  0  0  0  0
    1.6846   -2.3561   -0.6708 O   0  0  0  0  0  0  0  0  0  0  0  0
   -0.9368    1.4174    0.0697 O   0  0  0  0  0  0  0  0  0  0  0  0
   -4.8710   -2.0438    0.1347 O   0  0  0  0  0  0  0  0  0  0  0  0
   -2.6576   -0.1870    0.0793 N   0  0  0  0  0  0  0  0  0  0  0  0
   -6.9962   -1.2539   -0.1002 N   0  0  0  0  0  0  0  0  0  0  0  0
    7.3258    1.1980    0.3444 C   0  0  0  0  0  0  0  0  0  0  0  0
    5.9496    1.9206    0.4982 C   0  0  0  0  0  0  0  0  0  0  0  0
    7.0814   -0.0565   -0.5513 C   0  0  0  0  0  0  0  0  0  0  0  0
    4.9892    0.8355    0.1841 C   0  0  0  0  0  0  0  0  0  0  0  0
    5.6204   -0.2345   -0.3880 C   0  0  0  0  0  0  0  0  0  0  0  0
    3.6020    0.6279    0.3209 C   0  0  0  0  0  0  0  0  0  0  0  0
    3.2468   -0.6200   -0.1669 C   0  0  0  0  0  0  0  0  0  0  0  0
    1.9544   -1.2245   -0.2198 C   0  0  0  0  0  0  0  0  0  0  0  0
   -0.3696   -0.9050    0.3023 C   0  0  2  0  0  0  0  0  0  0  0  0
   -1.3417    0.2602    0.1302 C   0  0  0  0  0  0  0  0  0  0  0  0
   -0.6218   -1.6600    1.5992 C   0  0  0  0  0  0  0  0  0  0  0  0
   -3.7933    0.6129   -0.0713 C   0  0  0  0  0  0  0  0  0  0  0  0
   -5.1316    0.2915   -0.1272 C   0  0  0  0  0  0  0  0  0  0  0  0
   -5.9523    1.4445   -0.2911 C   0  0  0  0  0  0  0  0  0  0  0  0
   -5.2101    2.6032   -0.3541 C   0  0  0  0  0  0  0  0  0  0  0  0
   -5.6181   -1.0608   -0.0291 C   0  0  0  0  0  0  0  0  0  0  0  0
    7.6663    0.8674    1.3348 H   0  0  0  0  0  0  0  0  0  0  0  0
    8.0978    1.8571   -0.0648 H   0  0  0  0  0  0  0  0  0  0  0  0
    5.8232    2.3207    1.5080 H   0  0  0  0  0  0  0  0  0  0  0  0
    5.8612    2.7338   -0.2298 H   0  0  0  0  0  0  0  0  0  0  0  0
    7.6652   -0.9124   -0.2021 H   0  0  0  0  0  0  0  0  0  0  0  0
    7.3332    0.1617   -1.5941 H   0  0  0  0  0  0  0  0  0  0  0  0
    2.9067    1.3402    0.7462 H   0  0  0  0  0  0  0  0  0  0  0  0
   -0.5298   -1.5699   -0.5563 H   0  0  0  0  0  0  0  0  0  0  0  0
   -1.6061   -2.1360    1.6232 H   0  0  0  0  0  0  0  0  0  0  0  0
    0.1342   -2.4380    1.7501 H   0  0  0  0  0  0  0  0  0  0  0  0
   -0.5532   -0.9829    2.4584 H   0  0  0  0  0  0  0  0  0  0  0  0
   -2.8410   -1.1851    0.1344 H   0  0  0  0  0  0  0  0  0  0  0  0
   -7.0317    1.4592   -0.3625 H   0  0  0  0  0  0  0  0  0  0  0  0
   -5.5735    3.6140   -0.4746 H   0  0  0  0  0  0  0  0  0  0  0  0
   -7.3833   -2.1894   -0.0277 H   0  0  0  0  0  0  0  0  0  0  0  0
   -7.6686   -0.5059   -0.2246 H   0  0  0  0  0  0  0  0  0  0  0  0
  1 13  1  0  0  0  0
  1 15  1  0  0  0  0
  2 20  1  0  0  0  0
  2 23  1  0  0  0  0
  3 16  1  0  0  0  0
  3 17  1  0  0  0  0
  4 16  2  0  0  0  0
  5 18  2  0  0  0  0
  6 24  2  0  0  0  0
  7 18  1  0  0  0  0
  7 20  1  0  0  0  0
  7 36  1  0  0  0  0
  8 24  1  0  0  0  0
  8 39  1  0  0  0  0
  8 40  1  0  0  0  0
  9 10  1  0  0  0  0
  9 11  1  0  0  0  0
  9 25  1  0  0  0  0
  9 26  1  0  0  0  0
 10 12  1  0  0  0  0
 10 27  1  0  0  0  0
 10 28  1  0  0  0  0
 11 13  1  0  0  0  0
 11 29  1  0  0  0  0
 11 30  1  0  0  0  0
 12 13  2  0  0  0  0
 12 14  1  0  0  0  0
 14 15  2  0  0  0  0
 14 31  1  0  0  0  0
 15 16  1  0  0  0  0
 17 18  1  0  0  0  0
 17 19  1  0  0  0  0
 17 32  1  0  0  0  0
 19 33  1  0  0  0  0
 19 34  1  0  0  0  0
 19 35  1  0  0  0  0
 20 21  2  0  0  0  0
 21 22  1  0  0  0  0
 21 24  1  0  0  0  0
 22 23  2  0  0  0  0
 22 37  1  0  0  0  0
 23 38  1  0  0  0  0
M  END
> <PUBCHEM_COMPOUND_CID>
17395997

> <PUBCHEM_CONFORMER_RMSD>
1.2

> <PUBCHEM_CONFORMER_DIVERSEORDER>
1
75
43
51
50
9
74
42
39
82
58
78
63
76
73
69
44
57
13
56
45
85
83
3
49
48
21
12
65
62
66
79
31
61
18
67
60
38
34
47
8
70
7
71
64
90
88
40
46
30
23
32
92
54
17
29
27
26
22
15
41
93
72
77
11
5
68
36
81
16
59
14
2
25
53
6
55
35
28
87
24
80
37
89
4
33
86
91
19
10
52
20
84

> <PUBCHEM_MMFF94_PARTIAL_CHARGES>
28
1 -0.08
10 0.18
11 0.18
12 -0.18
13 -0.14
14 -0.15
15 -0.05
16 0.81
17 0.34
18 0.57
2 -0.08
20 0.1
21 -0.09
22 -0.15
23 -0.11
24 0.72
3 -0.43
31 0.15
36 0.37
37 0.15
38 0.15
39 0.37
4 -0.57
40 0.37
5 -0.57
6 -0.57
7 -0.49
8 -0.8

> <PUBCHEM_EFFECTIVE_ROTOR_COUNT>
7.6

> <PUBCHEM_PHARMACOPHORE_FEATURES>
8
1 4 acceptor
1 5 acceptor
1 6 acceptor
1 7 donor
1 8 donor
5 1 12 13 14 15 rings
5 2 20 21 22 23 rings
5 9 10 11 12 13 rings

> <PUBCHEM_HEAVY_ATOM_COUNT>
24

> <PUBCHEM_ATOM_DEF_STEREO_COUNT>
0

> <PUBCHEM_ATOM_UDEF_STEREO_COUNT>
1

> <PUBCHEM_BOND_DEF_STEREO_COUNT>
0

> <PUBCHEM_BOND_UDEF_STEREO_COUNT>
0

> <PUBCHEM_ISOTOPIC_ATOM_COUNT>
0

> <PUBCHEM_COMPONENT_COUNT>
1

> <PUBCHEM_CACTVS_TAUTO_COUNT>
7

> <PUBCHEM_CONFORMER_ID>
0109711D00000001

> <PUBCHEM_MMFF94_ENERGY>
61.4486

> <PUBCHEM_FEATURE_SELFOVERLAP>
40.774

> <PUBCHEM_SHAPE_FINGERPRINT>
10087517 78 18202847664701215317
10411042 1 17908983211203314139
10595046 47 18410013281740453179
10835480 77 18336831995614854597
11315181 36 18040434391869039777
11719270 70 18114467855320556774
11991303 11 17241048704352133854
12166972 35 18412822474068318220
12730499 353 18186237334298556550
13073987 5 18130506422517520955
13402501 40 18410857668359219000
13533116 47 14346067673014814358
13631057 29 18411421675269974379
14123256 10 18342176648612233111
14251732 16 18410012126204151607
14251764 18 17988927773797232026
14461889 52 18411140204171577970
14528608 73 18335702766875820156
14933364 13 18335419079774849540
15003188 100 18333730192046051880
15183329 4 15430038768456653620
15537594 2 5184350681198149269
15961568 22 18343301500331330436
17844677 252 18335976545297698377
18335252 98 18334290950806646351
18608769 82 18335141946978218889
19489759 90 17847059982671304553
19611394 137 18057593288026166051
20157964 124 18186799193498953374
20281389 69 18272371984096316568
20511986 3 17775015630244539827
20567600 254 18131356327477359874
21033648 29 18335712585936229592
21150785 3 17822301188817597077
21236236 1 18412261744818009275
21267235 1 18340765954399331699
21315763 129 18412825776481294644
21315763 28 18411420609547950366
221357 26 17894910767878986016
23035841 295 6194842566202676268
23424782 7 18335136458210896807
23522609 53 6843366517814771746
23559900 14 18335991900196561809
23622692 88 15985101899523949302
2838139 119 18409454674283830844
2916195 48 18342458153215819544
335352 9 18261385656207744590
34797466 226 17967810587200960573
3545911 37 18335419058953939398
4073 2 18272645757648299531
4107672 100 6122238514843897131
4325135 7 18411982442852196407
44317340 157 17313392180372469144
5104073 3 18129658733211531043
5283173 99 18411980273593051011
53794403 172 18128250091645811476

> <PUBCHEM_SHAPE_MULTIPOLES>
468.17
20.93
2.39
0.83
5.53
0.39
0.13
5.74
-1.94
-1.94
-0.03
0.34
-0.21
1.34

> <PUBCHEM_SHAPE_SELFOVERLAP>
983.683

> <PUBCHEM_SHAPE_VOLUME>
265.3

> <PUBCHEM_COORDINATE_TYPE>
2
5
10

$$$$

