4707
  -OEChem-06261200183D

 32 34  0     0  0  0  0  0  0999 V2000
    5.0297    0.9315   -2.1805 Br  0  0  0  0  0  0  0  0  0  0  0  0
    0.8186   -0.4940    0.6688 N   0  0  0  0  0  0  0  0  0  0  0  0
    0.4687    1.8347    0.6517 N   0  0  0  0  0  0  0  0  0  0  0  0
   -4.1065    0.0428   -0.3716 N   0  0  0  0  0  0  0  0  0  0  0  0
   -1.7174    2.7478    0.2062 N   0  0  0  0  0  0  0  0  0  0  0  0
   -3.8282   -2.3212   -0.3693 N   0  0  0  0  0  0  0  0  0  0  0  0
   -1.4018    0.3677    0.2151 C   0  0  0  0  0  0  0  0  0  0  0  0
   -0.0615    0.6049    0.5077 C   0  0  0  0  0  0  0  0  0  0  0  0
   -2.2088    1.5023    0.0704 C   0  0  0  0  0  0  0  0  0  0  0  0
   -1.9414   -0.9166    0.0681 C   0  0  0  0  0  0  0  0  0  0  0  0
    2.1932   -0.6496    0.4298 C   0  0  0  0  0  0  0  0  0  0  0  0
   -3.2893   -1.0195   -0.2224 C   0  0  0  0  0  0  0  0  0  0  0  0
   -3.5424    1.2654   -0.2209 C   0  0  0  0  0  0  0  0  0  0  0  0
    2.8213    0.0867   -0.5794 C   0  0  0  0  0  0  0  0  0  0  0  0
    2.9441   -1.5427    1.2003 C   0  0  0  0  0  0  0  0  0  0  0  0
   -0.4029    2.8448    0.4900 C   0  0  0  0  0  0  0  0  0  0  0  0
    4.1872   -0.0688   -0.8160 C   0  0  0  0  0  0  0  0  0  0  0  0
    4.3097   -1.6983    0.9637 C   0  0  0  0  0  0  0  0  0  0  0  0
    4.9313   -0.9613   -0.0443 C   0  0  0  0  0  0  0  0  0  0  0  0
   -5.2037   -2.5567   -0.6673 C   0  0  0  0  0  0  0  0  0  0  0  0
   -1.3379   -1.8133    0.1668 H   0  0  0  0  0  0  0  0  0  0  0  0
    0.4250   -1.2337    1.2440 H   0  0  0  0  0  0  0  0  0  0  0  0
   -4.2351    2.0931   -0.3489 H   0  0  0  0  0  0  0  0  0  0  0  0
    2.2465    0.7749   -1.1951 H   0  0  0  0  0  0  0  0  0  0  0  0
    2.4735   -2.1233    1.9900 H   0  0  0  0  0  0  0  0  0  0  0  0
   -3.2661   -3.0954   -0.0325 H   0  0  0  0  0  0  0  0  0  0  0  0
   -0.0069    3.8470    0.5991 H   0  0  0  0  0  0  0  0  0  0  0  0
    4.8893   -2.3930    1.5646 H   0  0  0  0  0  0  0  0  0  0  0  0
    5.9965   -1.0941   -0.2154 H   0  0  0  0  0  0  0  0  0  0  0  0
   -5.4850   -2.1059   -1.6246 H   0  0  0  0  0  0  0  0  0  0  0  0
   -5.8539   -2.1575    0.1180 H   0  0  0  0  0  0  0  0  0  0  0  0
   -5.3906   -3.6327   -0.7399 H   0  0  0  0  0  0  0  0  0  0  0  0
  1 17  1  0  0  0  0
  2  8  1  0  0  0  0
  2 11  1  0  0  0  0
  2 22  1  0  0  0  0
  3  8  2  0  0  0  0
  3 16  1  0  0  0  0
  4 12  2  0  0  0  0
  4 13  1  0  0  0  0
  5  9  1  0  0  0  0
  5 16  2  0  0  0  0
  6 12  1  0  0  0  0
  6 20  1  0  0  0  0
  6 26  1  0  0  0  0
  7  8  1  0  0  0  0
  7  9  1  0  0  0  0
  7 10  2  0  0  0  0
  9 13  2  0  0  0  0
 10 12  1  0  0  0  0
 10 21  1  0  0  0  0
 11 14  2  0  0  0  0
 11 15  1  0  0  0  0
 13 23  1  0  0  0  0
 14 17  1  0  0  0  0
 14 24  1  0  0  0  0
 15 18  2  0  0  0  0
 15 25  1  0  0  0  0
 16 27  1  0  0  0  0
 17 19  2  0  0  0  0
 18 19  1  0  0  0  0
 18 28  1  0  0  0  0
 19 29  1  0  0  0  0
 20 30  1  0  0  0  0
 20 31  1  0  0  0  0
 20 32  1  0  0  0  0
M  END
> <PUBCHEM_COMPOUND_CID>
4707

> <PUBCHEM_CONFORMER_RMSD>
0.6

> <PUBCHEM_CONFORMER_DIVERSEORDER>
2
25
20
16
18
33
32
9
34
8
13
26
19
10
21
28
23
27
31
7
29
22
4
17
15
12
30
1
11
24
14
3
6
5

> <PUBCHEM_MMFF94_PARTIAL_CHARGES>
28
1 -0.11
10 -0.15
11 0.1
12 0.41
13 0.16
14 -0.15
15 -0.15
16 0.47
17 0.11
18 -0.15
19 -0.15
2 -0.6
20 0.37
21 0.15
22 0.4
23 0.15
24 0.15
25 0.15
26 0.4
27 0.15
28 0.15
29 0.15
3 -0.62
4 -0.62
5 -0.62
6 -0.87
8 0.41
9 0.31

> <PUBCHEM_EFFECTIVE_ROTOR_COUNT>
3

> <PUBCHEM_PHARMACOPHORE_FEATURES>
9
1 1 hydrophobe
1 2 donor
1 6 donor
3 2 3 8 cation
3 3 5 16 cation
3 4 6 12 cation
6 11 14 15 17 18 19 rings
6 3 5 7 8 9 16 rings
6 4 7 9 10 12 13 rings

> <PUBCHEM_HEAVY_ATOM_COUNT>
20

> <PUBCHEM_ATOM_DEF_STEREO_COUNT>
0

> <PUBCHEM_ATOM_UDEF_STEREO_COUNT>
0

> <PUBCHEM_BOND_DEF_STEREO_COUNT>
0

> <PUBCHEM_BOND_UDEF_STEREO_COUNT>
0

> <PUBCHEM_ISOTOPIC_ATOM_COUNT>
0

> <PUBCHEM_COMPONENT_COUNT>
1

> <PUBCHEM_CACTVS_TAUTO_COUNT>
6

> <PUBCHEM_CONFORMER_ID>
0000126300000002

> <PUBCHEM_MMFF94_ENERGY>
79.0731

> <PUBCHEM_FEATURE_SELFOVERLAP>
45.841

> <PUBCHEM_SHAPE_FINGERPRINT>
10042902 136 17242174539676340983
10616163 171 18336549433579005090
10906281 52 18189324844595999637
11045515 52 18131635603457864789
11578080 2 17843714194542813188
12236239 1 18059572546083729696
12553582 1 18262809466781652591
12616971 3 17988637562387516920
12788726 201 18337380655885034705
13140716 1 18261118465406238465
13167823 11 18200874088526446642
14251757 5 18339354154697910414
14251764 30 16950830445526519814
14576447 43 18341896260188434334
14767858 380 18200022924903118142
14790565 3 17975973490718408665
15537594 2 18340194233257691211
15842332 3 18127684049288699192
17492 89 18338517564173312906
17804303 29 18259709995216087329
18186145 218 15123501540982405032
18222031 100 17968664813431364023
18681886 176 18411703188980473042
18915474 69 18413390951491181458
200 152 18130786784923349098
20281475 54 18410578392025280427
20871999 31 18412546500843889367
21054139 6 18344148099105594994
21728266 224 18269290095763585738
22182313 1 18192457202599043177
22950370 63 18410007715626478411
23016692 55 18260823753187327591
23402539 116 18411987996187004566
23557571 272 17823420577321890600
23559900 14 17972597959924099678
238078 22 18408597046270699033
3004659 81 18202008754482860266
329604 57 18270961245736594198
335352 9 18408892837375565061
465052 167 18188769414909131631
474 4 17417514866497431028
5104073 3 18187089450728873153
603831 33 18272368698208763578
633830 44 16773510092054011136
7970288 3 18335147436248299023
8863177 126 17841145559888218555
9709674 26 18268141131935351226
9981440 41 17771049511895015408

> <PUBCHEM_SHAPE_MULTIPOLES>
392.63
11.19
2.76
1.21
2.82
0.69
-0.44
-5.96
-4.52
-2.58
0.27
1.71
0.04
-2.29

> <PUBCHEM_SHAPE_SELFOVERLAP>
844.318

> <PUBCHEM_SHAPE_VOLUME>
221.5

> <PUBCHEM_COORDINATE_TYPE>
2
5
10

$$$$

