7930
  -OEChem-06261202283D

 16 16  0     0  0  0  0  0  0999 V2000
    2.7925   -1.0322   -0.0001 S   0  0  0  0  0  0  0  0  0  0  0  0
   -1.2165   -0.3974    0.0002 C   0  0  0  0  0  0  0  0  0  0  0  0
    0.0338   -1.0160    0.0002 C   0  0  0  0  0  0  0  0  0  0  0  0
   -1.3060    0.9946    0.0000 C   0  0  0  0  0  0  0  0  0  0  0  0
    1.1945   -0.2426    0.0000 C   0  0  0  0  0  0  0  0  0  0  0  0
   -2.4582   -1.2237   -0.0002 C   0  0  0  0  0  0  0  0  0  0  0  0
   -0.1452    1.7679   -0.0001 C   0  0  0  0  0  0  0  0  0  0  0  0
    1.1051    1.1494    0.0000 C   0  0  0  0  0  0  0  0  0  0  0  0
    0.0962   -2.1022    0.0021 H   0  0  0  0  0  0  0  0  0  0  0  0
   -2.2739    1.4887    0.0018 H   0  0  0  0  0  0  0  0  0  0  0  0
   -2.3127   -2.1521   -0.5630 H   0  0  0  0  0  0  0  0  0  0  0  0
   -2.7423   -1.4753    1.0264 H   0  0  0  0  0  0  0  0  0  0  0  0
   -3.2902   -0.6903   -0.4725 H   0  0  0  0  0  0  0  0  0  0  0  0
   -0.2149    2.8517    0.0003 H   0  0  0  0  0  0  0  0  0  0  0  0
    1.9958    1.7728    0.0000 H   0  0  0  0  0  0  0  0  0  0  0  0
    3.5377    0.0830   -0.0049 H   0  0  0  0  0  0  0  0  0  0  0  0
  1  5  1  0  0  0  0
  1 16  1  0  0  0  0
  2  3  2  0  0  0  0
  2  4  1  0  0  0  0
  2  6  1  0  0  0  0
  3  5  1  0  0  0  0
  3  9  1  0  0  0  0
  4  7  2  0  0  0  0
  4 10  1  0  0  0  0
  5  8  2  0  0  0  0
  6 11  1  0  0  0  0
  6 12  1  0  0  0  0
  6 13  1  0  0  0  0
  7  8  1  0  0  0  0
  7 14  1  0  0  0  0
  8 15  1  0  0  0  0
M  END
> <PUBCHEM_COMPOUND_CID>
7930

> <PUBCHEM_CONFORMER_RMSD>
0.4

> <PUBCHEM_CONFORMER_DIVERSEORDER>
1

> <PUBCHEM_MMFF94_PARTIAL_CHARGES>
13
1 -0.28
10 0.15
14 0.15
15 0.15
16 0.18
2 -0.14
3 -0.15
4 -0.15
5 0.1
6 0.14
7 -0.15
8 -0.15
9 0.15

> <PUBCHEM_EFFECTIVE_ROTOR_COUNT>
0

> <PUBCHEM_PHARMACOPHORE_FEATURES>
1
6 2 3 4 5 7 8 rings

> <PUBCHEM_HEAVY_ATOM_COUNT>
8

> <PUBCHEM_ATOM_DEF_STEREO_COUNT>
0

> <PUBCHEM_ATOM_UDEF_STEREO_COUNT>
0

> <PUBCHEM_BOND_DEF_STEREO_COUNT>
0

> <PUBCHEM_BOND_UDEF_STEREO_COUNT>
0

> <PUBCHEM_ISOTOPIC_ATOM_COUNT>
0

> <PUBCHEM_COMPONENT_COUNT>
1

> <PUBCHEM_CACTVS_TAUTO_COUNT>
9

> <PUBCHEM_CONFORMER_ID>
00001EFA00000001

> <PUBCHEM_MMFF94_ENERGY>
17.6861

> <PUBCHEM_FEATURE_SELFOVERLAP>
5.074

> <PUBCHEM_SHAPE_FINGERPRINT>
10857977 72 18336561477009701050
14128692 85 18411411800401253814
16714656 1 18194679499986550788
16945 1 18194402422919279108
18185500 45 18341050808386435834
20871998 184 18187650266273711598
21040471 1 17762054741315123520
23552423 10 18272928341053197582
241688 4 18412263956003701289
2748010 2 18410581668853445940
29004967 10 18197778791300035817
5084963 1 18260548913534026034

> <PUBCHEM_SHAPE_MULTIPOLES>
168.49
3.21
1.78
0.63
1.05
0.48
0
-1.68
0
-0.29
0
0.03
-0.01
0

> <PUBCHEM_SHAPE_SELFOVERLAP>
334.892

> <PUBCHEM_SHAPE_VOLUME>
101.2

> <PUBCHEM_COORDINATE_TYPE>
2
5
10

$$$$

