9557
  -OEChem-06261203482D

 35 34  0     1  0  0  0  0  0999 V2000
    4.5981   -3.0771    0.0000 S   0  0  0  0  0  0  0  0  0  0  0  0
    2.0000   -0.5771    0.0000 Na  0  3  0  0  0  0  0  0  0  0  0  0
    2.8660   -0.0771    0.0000 O   0  5  0  0  0  0  0  0  0  0  0  0
    6.3301   -0.0771    0.0000 O   0  0  0  0  0  0  0  0  0  0  0  0
    3.7321   -1.5771    0.0000 N   0  0  0  0  0  0  0  0  0  0  0  0
    5.4641   -1.5771    0.0000 N   0  0  0  0  0  0  0  0  0  0  0  0
    4.5981   -0.0771    0.0000 C   0  0  3  0  0  0  0  0  0  0  0  0
    5.0981    0.7890    0.0000 C   0  0  3  0  0  0  0  0  0  0  0  0
    4.5981    1.6550    0.0000 C   0  0  0  0  0  0  0  0  0  0  0  0
    4.0981    0.7890    0.0000 C   0  0  0  0  0  0  0  0  0  0  0  0
    6.0981    0.7890    0.0000 C   0  0  0  0  0  0  0  0  0  0  0  0
    3.7321   -0.5771    0.0000 C   0  0  0  0  0  0  0  0  0  0  0  0
    5.4641   -0.5771    0.0000 C   0  0  0  0  0  0  0  0  0  0  0  0
    5.0981    2.5210    0.0000 C   0  0  0  0  0  0  0  0  0  0  0  0
    3.0981    0.7890    0.0000 C   0  0  0  0  0  0  0  0  0  0  0  0
    4.5981    3.3871    0.0000 C   0  0  0  0  0  0  0  0  0  0  0  0
    4.5981   -2.0771    0.0000 C   0  0  0  0  0  0  0  0  0  0  0  0
    2.5981    1.6550    0.0000 C   0  0  0  0  0  0  0  0  0  0  0  0
    5.4081    0.2520    0.0000 H   0  0  0  0  0  0  0  0  0  0  0  0
    4.1231    2.0535    0.0000 H   0  0  0  0  0  0  0  0  0  0  0  0
    4.1231    1.2565    0.0000 H   0  0  0  0  0  0  0  0  0  0  0  0
    4.6807    1.0010    0.0000 H   0  0  0  0  0  0  0  0  0  0  0  0
    3.9904    1.3996    0.0000 H   0  0  0  0  0  0  0  0  0  0  0  0
    6.0981    0.1690    0.0000 H   0  0  0  0  0  0  0  0  0  0  0  0
    6.7181    0.7890    0.0000 H   0  0  0  0  0  0  0  0  0  0  0  0
    6.0981    1.4090    0.0000 H   0  0  0  0  0  0  0  0  0  0  0  0
    5.5730    2.1225    0.0000 H   0  0  0  0  0  0  0  0  0  0  0  0
    5.5730    2.9196    0.0000 H   0  0  0  0  0  0  0  0  0  0  0  0
    2.7881    0.2520    0.0000 H   0  0  0  0  0  0  0  0  0  0  0  0
    5.1350    3.6971    0.0000 H   0  0  0  0  0  0  0  0  0  0  0  0
    4.2881    3.9240    0.0000 H   0  0  0  0  0  0  0  0  0  0  0  0
    4.0611    3.0771    0.0000 H   0  0  0  0  0  0  0  0  0  0  0  0
    2.9081    2.1919    0.0000 H   0  0  0  0  0  0  0  0  0  0  0  0
    1.9781    1.6550    0.0000 H   0  0  0  0  0  0  0  0  0  0  0  0
    5.1350   -3.3871    0.0000 H   0  0  0  0  0  0  0  0  0  0  0  0
  1 17  1  0  0  0  0
  1 35  1  0  0  0  0
  3 12  1  0  0  0  0
  4 13  2  0  0  0  0
  5 12  2  0  0  0  0
  5 17  1  0  0  0  0
  6 13  1  0  0  0  0
  6 17  2  0  0  0  0
  7  8  1  0  0  0  0
  7 10  1  0  0  0  0
  7 12  1  0  0  0  0
  7 13  1  0  0  0  0
  8  9  1  0  0  0  0
  8 11  1  0  0  0  0
  8 19  1  0  0  0  0
  9 14  1  0  0  0  0
  9 20  1  0  0  0  0
  9 21  1  0  0  0  0
 10 15  1  0  0  0  0
 10 22  1  0  0  0  0
 10 23  1  0  0  0  0
 11 24  1  0  0  0  0
 11 25  1  0  0  0  0
 11 26  1  0  0  0  0
 14 16  1  0  0  0  0
 14 27  1  0  0  0  0
 14 28  1  0  0  0  0
 15 18  2  0  0  0  0
 15 29  1  0  0  0  0
 16 30  1  0  0  0  0
 16 31  1  0  0  0  0
 16 32  1  0  0  0  0
 18 33  1  0  0  0  0
 18 34  1  0  0  0  0
M  CHG  2   2   1   3  -1
M  END
> <PUBCHEM_COMPOUND_CID>
9557

> <PUBCHEM_COMPOUND_CANONICALIZED>
1

> <PUBCHEM_CACTVS_COMPLEXITY>
367

> <PUBCHEM_CACTVS_HBOND_ACCEPTOR>
3

> <PUBCHEM_CACTVS_HBOND_DONOR>
1

> <PUBCHEM_CACTVS_ROTATABLE_BOND>
5

> <PUBCHEM_CACTVS_SUBSKEYS>
AAADceBzMCBAAAAAAAAAAAAAAAAAAAAAAAAgAAAAAAAAAAAAAAAAHgQAAAAADwCBgAADAAIAAASoACFyNAAAEAEgAAAIAAEgAAgAABYAgQAAAAAGoAAAAAGYyAAPgAAAAAAAAAAAAAAAAAAAAAAAAAAAAA==

> <PUBCHEM_IUPAC_OPENEYE_NAME>
sodium 5-allyl-5-(1-methylbutyl)-6-oxo-2-sulfanyl-pyrimidin-4-olate

> <PUBCHEM_IUPAC_CAS_NAME>
sodium 2-mercapto-6-oxo-5-pentan-2-yl-5-prop-2-enyl-4-pyrimidinolate

> <PUBCHEM_IUPAC_NAME>
sodium 6-oxo-5-pentan-2-yl-5-prop-2-enyl-2-sulfanylpyrimidin-4-olate

> <PUBCHEM_IUPAC_SYSTEMATIC_NAME>
sodium 6-oxidanylidene-5-pentan-2-yl-5-prop-2-enyl-2-sulfanyl-pyrimidin-4-olate

> <PUBCHEM_IUPAC_TRADITIONAL_NAME>
sodium 5-allyl-6-keto-2-mercapto-5-(1-methylbutyl)pyrimidin-4-olate

> <PUBCHEM_IUPAC_INCHI>
InChI=1S/C12H18N2O2S.Na/c1-4-6-8(3)12(7-5-2)9(15)13-11(17)14-10(12)16;/h5,8H,2,4,6-7H2,1,3H3,(H2,13,14,15,16,17);/q;+1/p-1

> <PUBCHEM_IUPAC_INCHIKEY>
LYZGJWXNOGIVQA-UHFFFAOYSA-M

> <PUBCHEM_EXACT_MASS>
276.090843

> <PUBCHEM_MOLECULAR_FORMULA>
C12H17N2NaO2S

> <PUBCHEM_MOLECULAR_WEIGHT>
276.330349

> <PUBCHEM_OPENEYE_CAN_SMILES>
CCCC(C)C1(C(=NC(=NC1=O)S)[O-])CC=C.[Na+]

> <PUBCHEM_OPENEYE_ISO_SMILES>
CCCC(C)C1(C(=NC(=NC1=O)S)[O-])CC=C.[Na+]

> <PUBCHEM_CACTVS_TPSA>
65.8

> <PUBCHEM_MONOISOTOPIC_WEIGHT>
276.090843

> <PUBCHEM_TOTAL_CHARGE>
0

> <PUBCHEM_HEAVY_ATOM_COUNT>
18

> <PUBCHEM_ATOM_DEF_STEREO_COUNT>
0

> <PUBCHEM_ATOM_UDEF_STEREO_COUNT>
2

> <PUBCHEM_BOND_DEF_STEREO_COUNT>
0

> <PUBCHEM_BOND_UDEF_STEREO_COUNT>
0

> <PUBCHEM_ISOTOPIC_ATOM_COUNT>
0

> <PUBCHEM_COMPONENT_COUNT>
2

> <PUBCHEM_CACTVS_TAUTO_COUNT>
3

> <PUBCHEM_COORDINATE_TYPE>
1
5
255

> <PUBCHEM_BONDANNOTATIONS>
7  10  3
8  11  3

$$$$

