17396191
  -OEChem-06241222553D

 45 47  0     1  0  0  0  0  0999 V2000
   -1.1218    3.2928   -0.6359 S   0  0  0  0  0  0  0  0  0  0  0  0
    4.8862   -1.1388   -0.2559 O   0  0  0  0  0  0  0  0  0  0  0  0
   -3.8034    1.1964   -0.8234 O   0  0  0  0  0  0  0  0  0  0  0  0
    0.9668    1.4864   -0.7476 N   0  0  0  0  0  0  0  0  0  0  0  0
   -2.0914    0.3023    0.5097 N   0  0  0  0  0  0  0  0  0  0  0  0
    1.7869    1.5311    1.2804 N   0  0  0  0  0  0  0  0  0  0  0  0
    0.7237    2.4099    1.2210 N   0  0  0  0  0  0  0  0  0  0  0  0
   -2.4348    2.6903    0.4765 C   0  0  2  0  0  0  0  0  0  0  0  0
    1.9166    0.9875    0.0913 C   0  0  0  0  0  0  0  0  0  0  0  0
    2.9426   -0.0105   -0.2616 C   0  0  0  0  0  0  0  0  0  0  0  0
    0.2457    2.3690   -0.0021 C   0  0  0  0  0  0  0  0  0  0  0  0
    4.1952   -0.1085    0.2983 C   0  0  0  0  0  0  0  0  0  0  0  0
   -2.8753    1.3195   -0.0288 C   0  0  0  0  0  0  0  0  0  0  0  0
   -3.5895    3.6842    0.4912 C   0  0  0  0  0  0  0  0  0  0  0  0
    0.7816    1.1384   -2.1378 C   0  0  0  0  0  0  0  0  0  0  0  0
    2.8586   -1.0472   -1.2214 C   0  0  0  0  0  0  0  0  0  0  0  0
   -2.2011   -1.0889    0.2742 C   0  0  0  0  0  0  0  0  0  0  0  0
    4.9042    0.6540    1.3378 C   0  0  0  0  0  0  0  0  0  0  0  0
   -1.3253   -1.9745    0.9018 C   0  0  0  0  0  0  0  0  0  0  0  0
    4.0659   -1.7050   -1.1796 C   0  0  0  0  0  0  0  0  0  0  0  0
   -1.4341   -3.3456    0.6690 C   0  0  0  0  0  0  0  0  0  0  0  0
   -3.1859   -1.5741   -0.5862 C   0  0  0  0  0  0  0  0  0  0  0  0
   -2.4189   -3.8308   -0.1914 C   0  0  0  0  0  0  0  0  0  0  0  0
   -3.2949   -2.9452   -0.8191 C   0  0  0  0  0  0  0  0  0  0  0  0
   -0.4976   -4.2925    1.3396 C   0  0  0  0  0  0  0  0  0  0  0  0
   -2.0505    2.6078    1.4997 H   0  0  0  0  0  0  0  0  0  0  0  0
   -4.0157    3.8403   -0.5067 H   0  0  0  0  0  0  0  0  0  0  0  0
   -4.3991    3.3150    1.1312 H   0  0  0  0  0  0  0  0  0  0  0  0
   -3.2731    4.6560    0.8859 H   0  0  0  0  0  0  0  0  0  0  0  0
    0.2293    0.1969   -2.1863 H   0  0  0  0  0  0  0  0  0  0  0  0
    0.2202    1.9188   -2.6548 H   0  0  0  0  0  0  0  0  0  0  0  0
    1.7555    1.0579   -2.6260 H   0  0  0  0  0  0  0  0  0  0  0  0
    2.0297   -1.3160   -1.8594 H   0  0  0  0  0  0  0  0  0  0  0  0
   -1.3572    0.5659    1.1624 H   0  0  0  0  0  0  0  0  0  0  0  0
   -0.5546   -1.5970    1.5702 H   0  0  0  0  0  0  0  0  0  0  0  0
    4.8463    1.7286    1.1382 H   0  0  0  0  0  0  0  0  0  0  0  0
    5.9632    0.3802    1.3832 H   0  0  0  0  0  0  0  0  0  0  0  0
    4.4636    0.4617    2.3209 H   0  0  0  0  0  0  0  0  0  0  0  0
    4.4743   -2.5526   -1.7103 H   0  0  0  0  0  0  0  0  0  0  0  0
   -3.9004   -0.9536   -1.1080 H   0  0  0  0  0  0  0  0  0  0  0  0
   -2.5131   -4.8964   -0.3827 H   0  0  0  0  0  0  0  0  0  0  0  0
   -4.0612   -3.3243   -1.4891 H   0  0  0  0  0  0  0  0  0  0  0  0
   -0.9462   -5.2857    1.4497 H   0  0  0  0  0  0  0  0  0  0  0  0
   -0.2407   -3.9437    2.3456 H   0  0  0  0  0  0  0  0  0  0  0  0
    0.4224   -4.3882    0.7542 H   0  0  0  0  0  0  0  0  0  0  0  0
  1  8  1  0  0  0  0
  1 11  1  0  0  0  0
  2 12  1  0  0  0  0
  2 20  1  0  0  0  0
  3 13  2  0  0  0  0
  4  9  1  0  0  0  0
  4 11  1  0  0  0  0
  4 15  1  0  0  0  0
  5 13  1  0  0  0  0
  5 17  1  0  0  0  0
  5 34  1  0  0  0  0
  6  7  1  0  0  0  0
  6  9  2  0  0  0  0
  7 11  2  0  0  0  0
  8 13  1  0  0  0  0
  8 14  1  0  0  0  0
  8 26  1  0  0  0  0
  9 10  1  0  0  0  0
 10 12  2  0  0  0  0
 10 16  1  0  0  0  0
 12 18  1  0  0  0  0
 14 27  1  0  0  0  0
 14 28  1  0  0  0  0
 14 29  1  0  0  0  0
 15 30  1  0  0  0  0
 15 31  1  0  0  0  0
 15 32  1  0  0  0  0
 16 20  2  0  0  0  0
 16 33  1  0  0  0  0
 17 19  1  0  0  0  0
 17 22  2  0  0  0  0
 18 36  1  0  0  0  0
 18 37  1  0  0  0  0
 18 38  1  0  0  0  0
 19 21  2  0  0  0  0
 19 35  1  0  0  0  0
 20 39  1  0  0  0  0
 21 23  1  0  0  0  0
 21 25  1  0  0  0  0
 22 24  1  0  0  0  0
 22 40  1  0  0  0  0
 23 24  2  0  0  0  0
 23 41  1  0  0  0  0
 24 42  1  0  0  0  0
 25 43  1  0  0  0  0
 25 44  1  0  0  0  0
 25 45  1  0  0  0  0
M  END
> <PUBCHEM_COMPOUND_CID>
17396191

> <PUBCHEM_CONFORMER_RMSD>
1

> <PUBCHEM_CONFORMER_DIVERSEORDER>
1
104
182
180
206
59
188
118
33
240
189
114
160
90
177
143
130
263
178
16
89
111
78
81
257
258
15
203
50
116
53
226
98
249
144
175
27
65
6
265
227
38
185
230
186
159
204
187
184
132
58
55
117
217
174
52
123
76
183
70
77
135
67
49
156
242
219
91
96
34
14
241
215
222
131
166
218
100
169
110
231
17
57
179
75
259
224
94
84
127
194
22
172
95
141
244
99
145
228
153
260
10
164
106
18
248
37
191
149
63
170
101
252
12
112
264
209
233
176
115
24
155
9
158
192
261
61
73
154
238
48
19
21
2
147
122
125
255
243
4
205
197
105
213
11
220
23
102
196
165
214
85
42
250
146
26
54
190
93
32
236
88
167
39
71
138
195
121
245
152
5
211
8
200
72
44
239
237
43
51
221
35
161
134
62
113
40
31
181
45
74
208
64
103
30
56
251
171
66
124
212
136
151
247
29
36
79
68
168
82
234
47
109
129
246
107
157
46
235
28
108
13
83
199
225
119
148
254
133
142
126
80
198
256
7
207
216
232
202
150
120
25
223
97
201
139
20
140
3
193
163
92
210
87
86
173
60
162
41
266
128
69
229
253
137
262

> <PUBCHEM_MMFF94_PARTIAL_CHARGES>
30
1 -0.29
11 0.24
12 -0.04
13 0.57
15 0.26
16 -0.15
17 0.12
18 0.18
19 -0.15
2 -0.28
20 -0.01
21 -0.14
22 -0.15
23 -0.15
24 -0.15
25 0.14
3 -0.57
33 0.15
34 0.37
35 0.15
39 0.15
4 0.05
40 0.15
41 0.15
42 0.15
5 -0.55
6 -0.34
7 -0.34
8 0.29
9 0.19

> <PUBCHEM_EFFECTIVE_ROTOR_COUNT>
6

> <PUBCHEM_PHARMACOPHORE_FEATURES>
9
1 14 hydrophobe
1 2 acceptor
1 3 acceptor
1 5 donor
3 4 6 9 cation
3 4 7 11 cation
5 2 10 12 16 20 rings
5 4 6 7 9 11 rings
6 17 19 21 22 23 24 rings

> <PUBCHEM_HEAVY_ATOM_COUNT>
25

> <PUBCHEM_ATOM_DEF_STEREO_COUNT>
0

> <PUBCHEM_ATOM_UDEF_STEREO_COUNT>
1

> <PUBCHEM_BOND_DEF_STEREO_COUNT>
0

> <PUBCHEM_BOND_UDEF_STEREO_COUNT>
0

> <PUBCHEM_ISOTOPIC_ATOM_COUNT>
0

> <PUBCHEM_COMPONENT_COUNT>
1

> <PUBCHEM_CACTVS_TAUTO_COUNT>
2

> <PUBCHEM_CONFORMER_ID>
010971DF00000001

> <PUBCHEM_MMFF94_ENERGY>
50.2173

> <PUBCHEM_FEATURE_SELFOVERLAP>
48.171

> <PUBCHEM_SHAPE_FINGERPRINT>
12156800 1 16376691964934021175
12553582 1 18051393094369721615
12788726 201 18268984293960098327
13583140 156 17531258210071222664
138480 1 16537638725862532779
14081887 123 18410019853356777898
14251757 5 18268970069223638734
14363568 33 16900159185524103050
14659021 117 18340214003181948458
14866123 147 18337952393684447803
167882 2 17333093530182567077
17859628 97 18123463049529145521
19315092 285 15940078921264840559
19591789 44 18050845825531613723
20775530 9 18051689949613977683
23184049 29 18195241122668438117
23559900 14 17906741297575084037
5265222 85 18124854997154305940
5309563 4 17473535854993788743
5385378 56 17617084146669350993
602551 16 18340490071032235904
9709674 26 18333452045188791852

> <PUBCHEM_SHAPE_MULTIPOLES>
486.68
8.12
5.59
1.36
8.06
2.27
0.22
1.2
0.15
-6.65
-1.05
0.7
0.05
0.39

> <PUBCHEM_SHAPE_SELFOVERLAP>
1026.759

> <PUBCHEM_SHAPE_VOLUME>
277.5

> <PUBCHEM_COORDINATE_TYPE>
2
5
10

$$$$

