4747
  -OEChem-06261200193D

 49 52  0     0  0  0  0  0  0999 V2000
   -4.5053   -0.0460    0.1656 S   0  0  0  0  0  0  0  0  0  0  0  0
    6.4744   -0.6940    0.1947 O   0  0  0  0  0  0  0  0  0  0  0  0
    3.3411    1.1313   -0.2567 N   0  0  0  0  0  0  0  0  0  0  0  0
   -1.5345    0.4218   -0.6222 N   0  0  0  0  0  0  0  0  0  0  0  0
    0.5196   -5.1428   -0.0979 N   0  0  0  0  0  0  0  0  0  0  0  0
    3.4752   -0.0923    0.5448 C   0  0  0  0  0  0  0  0  0  0  0  0
    4.5790    1.4228   -0.9922 C   0  0  0  0  0  0  0  0  0  0  0  0
    5.9383    0.4189    0.9063 C   0  0  0  0  0  0  0  0  0  0  0  0
    4.6131    0.0353    1.5625 C   0  0  0  0  0  0  0  0  0  0  0  0
    5.7603    1.6094   -0.0346 C   0  0  0  0  0  0  0  0  0  0  0  0
    2.2124    1.0170   -1.1803 C   0  0  0  0  0  0  0  0  0  0  0  0
    0.8926    0.7759   -0.4444 C   0  0  0  0  0  0  0  0  0  0  0  0
   -0.3011    0.6341   -1.3907 C   0  0  0  0  0  0  0  0  0  0  0  0
   -1.8829   -0.9151   -0.3030 C   0  0  0  0  0  0  0  0  0  0  0  0
   -2.2476    1.5727   -0.2010 C   0  0  0  0  0  0  0  0  0  0  0  0
   -3.1934   -1.2494    0.0918 C   0  0  0  0  0  0  0  0  0  0  0  0
   -3.5944    1.4849    0.2035 C   0  0  0  0  0  0  0  0  0  0  0  0
   -0.9351   -1.9616   -0.3297 C   0  0  0  0  0  0  0  0  0  0  0  0
   -1.6397    2.8455   -0.1324 C   0  0  0  0  0  0  0  0  0  0  0  0
   -3.5318   -2.5756    0.4147 C   0  0  0  0  0  0  0  0  0  0  0  0
   -4.2949    2.6282    0.6272 C   0  0  0  0  0  0  0  0  0  0  0  0
   -1.2756   -3.2771   -0.0030 C   0  0  0  0  0  0  0  0  0  0  0  0
   -2.3392    3.9778    0.2944 C   0  0  0  0  0  0  0  0  0  0  0  0
   -2.5761   -3.5850    0.3666 C   0  0  0  0  0  0  0  0  0  0  0  0
   -3.6691    3.8696    0.6714 C   0  0  0  0  0  0  0  0  0  0  0  0
   -0.2852   -4.3064   -0.0553 C   0  0  0  0  0  0  0  0  0  0  0  0
    3.6422   -0.9684   -0.0951 H   0  0  0  0  0  0  0  0  0  0  0  0
    2.5900   -0.2891    1.1539 H   0  0  0  0  0  0  0  0  0  0  0  0
    4.4608    2.3482   -1.5691 H   0  0  0  0  0  0  0  0  0  0  0  0
    4.8068    0.6214   -1.7072 H   0  0  0  0  0  0  0  0  0  0  0  0
    6.6703    0.6789    1.6792 H   0  0  0  0  0  0  0  0  0  0  0  0
    4.3456    0.8010    2.3021 H   0  0  0  0  0  0  0  0  0  0  0  0
    4.7172   -0.9153    2.0988 H   0  0  0  0  0  0  0  0  0  0  0  0
    6.6721    1.7612   -0.6241 H   0  0  0  0  0  0  0  0  0  0  0  0
    5.5967    2.5171    0.5602 H   0  0  0  0  0  0  0  0  0  0  0  0
    2.1171    1.9473   -1.7544 H   0  0  0  0  0  0  0  0  0  0  0  0
    2.3806    0.2075   -1.9029 H   0  0  0  0  0  0  0  0  0  0  0  0
    0.7430    1.5868    0.2760 H   0  0  0  0  0  0  0  0  0  0  0  0
    0.9431   -0.1233    0.1667 H   0  0  0  0  0  0  0  0  0  0  0  0
   -0.1323   -0.1822   -2.1056 H   0  0  0  0  0  0  0  0  0  0  0  0
   -0.3855    1.5181   -2.0367 H   0  0  0  0  0  0  0  0  0  0  0  0
    6.5883   -1.4214    0.8297 H   0  0  0  0  0  0  0  0  0  0  0  0
    0.0925   -1.7937   -0.6364 H   0  0  0  0  0  0  0  0  0  0  0  0
   -0.6106    3.0166   -0.4293 H   0  0  0  0  0  0  0  0  0  0  0  0
   -4.5468   -2.8365    0.7081 H   0  0  0  0  0  0  0  0  0  0  0  0
   -5.3386    2.5632    0.9282 H   0  0  0  0  0  0  0  0  0  0  0  0
   -1.8414    4.9427    0.3252 H   0  0  0  0  0  0  0  0  0  0  0  0
   -2.8626   -4.6022    0.6215 H   0  0  0  0  0  0  0  0  0  0  0  0
   -4.2179    4.7466    1.0004 H   0  0  0  0  0  0  0  0  0  0  0  0
  1 16  1  0  0  0  0
  1 17  1  0  0  0  0
  2  8  1  0  0  0  0
  2 42  1  0  0  0  0
  3  6  1  0  0  0  0
  3  7  1  0  0  0  0
  3 11  1  0  0  0  0
  4 13  1  0  0  0  0
  4 14  1  0  0  0  0
  4 15  1  0  0  0  0
  5 26  3  0  0  0  0
  6  9  1  0  0  0  0
  6 27  1  0  0  0  0
  6 28  1  0  0  0  0
  7 10  1  0  0  0  0
  7 29  1  0  0  0  0
  7 30  1  0  0  0  0
  8  9  1  0  0  0  0
  8 10  1  0  0  0  0
  8 31  1  0  0  0  0
  9 32  1  0  0  0  0
  9 33  1  0  0  0  0
 10 34  1  0  0  0  0
 10 35  1  0  0  0  0
 11 12  1  0  0  0  0
 11 36  1  0  0  0  0
 11 37  1  0  0  0  0
 12 13  1  0  0  0  0
 12 38  1  0  0  0  0
 12 39  1  0  0  0  0
 13 40  1  0  0  0  0
 13 41  1  0  0  0  0
 14 16  2  0  0  0  0
 14 18  1  0  0  0  0
 15 17  1  0  0  0  0
 15 19  2  0  0  0  0
 16 20  1  0  0  0  0
 17 21  2  0  0  0  0
 18 22  2  0  0  0  0
 18 43  1  0  0  0  0
 19 23  1  0  0  0  0
 19 44  1  0  0  0  0
 20 24  2  0  0  0  0
 20 45  1  0  0  0  0
 21 25  1  0  0  0  0
 21 46  1  0  0  0  0
 22 24  1  0  0  0  0
 22 26  1  0  0  0  0
 23 25  2  0  0  0  0
 23 47  1  0  0  0  0
 24 48  1  0  0  0  0
 25 49  1  0  0  0  0
M  END
> <PUBCHEM_COMPOUND_CID>
4747

> <PUBCHEM_CONFORMER_RMSD>
0.8

> <PUBCHEM_CONFORMER_DIVERSEORDER>
1
24
32
3
6
44
43
36
39
37
21
35
2
10
41
17
9
26
25
4
12
38
42
28
5
34
7
31
22
23
45
33
40
20
8
13
15
29
11
30
16
14
19
18
27

> <PUBCHEM_MMFF94_PARTIAL_CHARGES>
31
1 -0.2
11 0.27
13 0.37
14 0.1
15 0.1
16 0.1
17 0.1
18 -0.15
19 -0.15
2 -0.68
20 -0.15
21 -0.15
22 0.07
23 -0.15
24 -0.15
25 -0.15
26 0.48
3 -0.81
4 -0.57
42 0.4
43 0.15
44 0.15
45 0.15
46 0.15
47 0.15
48 0.15
49 0.15
5 -0.56
6 0.27
7 0.27
8 0.28

> <PUBCHEM_EFFECTIVE_ROTOR_COUNT>
5.6

> <PUBCHEM_PHARMACOPHORE_FEATURES>
9
1 2 acceptor
1 2 donor
1 3 cation
1 4 cation
1 5 acceptor
6 1 4 14 15 16 17 rings
6 14 16 18 20 22 24 rings
6 15 17 19 21 23 25 rings
6 3 6 7 8 9 10 rings

> <PUBCHEM_HEAVY_ATOM_COUNT>
26

> <PUBCHEM_ATOM_DEF_STEREO_COUNT>
0

> <PUBCHEM_ATOM_UDEF_STEREO_COUNT>
0

> <PUBCHEM_BOND_DEF_STEREO_COUNT>
0

> <PUBCHEM_BOND_UDEF_STEREO_COUNT>
0

> <PUBCHEM_ISOTOPIC_ATOM_COUNT>
0

> <PUBCHEM_COMPONENT_COUNT>
1

> <PUBCHEM_CACTVS_TAUTO_COUNT>
1

> <PUBCHEM_CONFORMER_ID>
0000128B00000001

> <PUBCHEM_MMFF94_ENERGY>
72.3312

> <PUBCHEM_FEATURE_SELFOVERLAP>
45.7

> <PUBCHEM_SHAPE_FINGERPRINT>
10319926 262 18334867112986584992
10411042 1 17977381630153171423
1100329 8 18194674879293057577
11036077 51 18411138051933649461
11049842 53 18125410199002173214
11056379 131 18337941286909329748
11552529 35 18268440027493943590
12107183 9 18197786707568386402
12523318 42 18336553711809186760
12788726 201 18054492630759982670
12969540 37 16755222640903734151
13004483 165 18123189000582492499
13140716 1 18120639259699964697
138480 1 17114097223303000567
14178342 30 18412539925064245806
14251757 5 18337952286183203888
14565420 104 17682939348444266369
14844126 61 18268429036224519835
14866123 147 18410008815217065099
15042514 8 18340483353465969143
15230672 131 18196087962420886094
15326921 28 17981629344119371288
15537594 2 17489592294646651330
15842332 3 17845073096456826780
15927050 60 18263644142267794191
16728300 4 17989492939632129291
17780758 139 18341622473303351824
17818456 19 18341610365716496732
20554085 129 18117295833370566481
20642791 105 18271243833964273301
20775438 99 16385963773204136631
21033648 29 17313397729333260608
21650355 55 18265893549821196413
21796203 349 17336429005625687587
229767 44 18341899627542754938
23522609 53 17845351359547300604
23559900 14 18194691371044678440
283562 15 18407759240539427853
3178227 256 18195789801674994347
3882209 13 17035317790757204966
5364581 5 17972618593200626616
5385378 56 18048025565517178201
653340 110 18409731742524148154
79837 15 18412256268265364603
9981440 41 18340197605186911457

> <PUBCHEM_SHAPE_MULTIPOLES>
518.1
11.97
5.92
1.01
22.38
4.91
0.01
-5.92
-3.13
-7.08
-0.63
0.77
-0.26
-0.83

> <PUBCHEM_SHAPE_SELFOVERLAP>
1097.092

> <PUBCHEM_SHAPE_VOLUME>
288.7

> <PUBCHEM_COORDINATE_TYPE>
2
5
10

$$$$

