4115
  -OEChem-06251223543D

 36 37  0     0  0  0  0  0  0999 V2000
   -0.2026   -2.3916   -2.0387 Cl  0  0  0  0  0  0  0  0  0  0  0  0
   -1.3578   -3.5923    0.3191 Cl  0  0  0  0  0  0  0  0  0  0  0  0
    1.5157   -3.5009    0.0401 Cl  0  0  0  0  0  0  0  0  0  0  0  0
   -4.7301    1.8651    0.0409 O   0  0  0  0  0  0  0  0  0  0  0  0
    4.6649    1.9696    0.1430 O   0  0  0  0  0  0  0  0  0  0  0  0
   -0.0028   -1.1768    0.5224 C   0  0  0  0  0  0  0  0  0  0  0  0
   -1.2520   -0.3724    0.3952 C   0  0  0  0  0  0  0  0  0  0  0  0
    1.2796   -0.3128    0.4183 C   0  0  0  0  0  0  0  0  0  0  0  0
    0.0104   -2.5534   -0.2657 C   0  0  0  0  0  0  0  0  0  0  0  0
   -2.0806   -0.1910    1.5024 C   0  0  0  0  0  0  0  0  0  0  0  0
    1.7268    0.3062    1.5514 C   0  0  0  0  0  0  0  0  0  0  0  0
   -1.5922    0.1976   -0.8315 C   0  0  0  0  0  0  0  0  0  0  0  0
    1.8891   -0.2191   -0.8012 C   0  0  0  0  0  0  0  0  0  0  0  0
   -3.2496    0.5607    1.3830 C   0  0  0  0  0  0  0  0  0  0  0  0
    2.8806    1.0845    1.4571 C   0  0  0  0  0  0  0  0  0  0  0  0
   -2.7611    0.9494   -0.9510 C   0  0  0  0  0  0  0  0  0  0  0  0
    3.0429    0.5591   -0.8954 C   0  0  0  0  0  0  0  0  0  0  0  0
   -3.5898    1.1309    0.1562 C   0  0  0  0  0  0  0  0  0  0  0  0
    3.5387    1.2109    0.2337 C   0  0  0  0  0  0  0  0  0  0  0  0
   -5.0182    2.4198   -1.2417 C   0  0  0  0  0  0  0  0  0  0  0  0
    5.2881    2.0563   -1.1376 C   0  0  0  0  0  0  0  0  0  0  0  0
    0.0286   -1.5218    1.5707 H   0  0  0  0  0  0  0  0  0  0  0  0
   -1.8328   -0.6269    2.4666 H   0  0  0  0  0  0  0  0  0  0  0  0
    1.2189    0.2147    2.5057 H   0  0  0  0  0  0  0  0  0  0  0  0
   -0.9496    0.1299   -1.7015 H   0  0  0  0  0  0  0  0  0  0  0  0
    1.5408   -0.6681   -1.7140 H   0  0  0  0  0  0  0  0  0  0  0  0
   -3.8911    0.6988    2.2490 H   0  0  0  0  0  0  0  0  0  0  0  0
    3.2617    1.5904    2.3401 H   0  0  0  0  0  0  0  0  0  0  0  0
   -2.9592    1.3748   -1.9289 H   0  0  0  0  0  0  0  0  0  0  0  0
    3.5010    0.6208   -1.8768 H   0  0  0  0  0  0  0  0  0  0  0  0
   -5.1732    1.6379   -1.9928 H   0  0  0  0  0  0  0  0  0  0  0  0
   -4.2552    3.1436   -1.5475 H   0  0  0  0  0  0  0  0  0  0  0  0
   -5.9616    2.9685   -1.1522 H   0  0  0  0  0  0  0  0  0  0  0  0
    5.6456    1.0786   -1.4781 H   0  0  0  0  0  0  0  0  0  0  0  0
    6.1687    2.6974   -1.0258 H   0  0  0  0  0  0  0  0  0  0  0  0
    4.6333    2.5377   -1.8718 H   0  0  0  0  0  0  0  0  0  0  0  0
  1  9  1  0  0  0  0
  2  9  1  0  0  0  0
  3  9  1  0  0  0  0
  4 18  1  0  0  0  0
  4 20  1  0  0  0  0
  5 19  1  0  0  0  0
  5 21  1  0  0  0  0
  6  7  1  0  0  0  0
  6  8  1  0  0  0  0
  6  9  1  0  0  0  0
  6 22  1  0  0  0  0
  7 10  2  0  0  0  0
  7 12  1  0  0  0  0
  8 11  2  0  0  0  0
  8 13  1  0  0  0  0
 10 14  1  0  0  0  0
 10 23  1  0  0  0  0
 11 15  1  0  0  0  0
 11 24  1  0  0  0  0
 12 16  2  0  0  0  0
 12 25  1  0  0  0  0
 13 17  2  0  0  0  0
 13 26  1  0  0  0  0
 14 18  2  0  0  0  0
 14 27  1  0  0  0  0
 15 19  2  0  0  0  0
 15 28  1  0  0  0  0
 16 18  1  0  0  0  0
 16 29  1  0  0  0  0
 17 19  1  0  0  0  0
 17 30  1  0  0  0  0
 20 31  1  0  0  0  0
 20 32  1  0  0  0  0
 20 33  1  0  0  0  0
 21 34  1  0  0  0  0
 21 35  1  0  0  0  0
 21 36  1  0  0  0  0
M  END
> <PUBCHEM_COMPOUND_CID>
4115

> <PUBCHEM_CONFORMER_RMSD>
0.8

> <PUBCHEM_CONFORMER_DIVERSEORDER>
1
2

> <PUBCHEM_MMFF94_PARTIAL_CHARGES>
29
1 -0.29
10 -0.15
11 -0.15
12 -0.15
13 -0.15
14 -0.15
15 -0.15
16 -0.15
17 -0.15
18 0.08
19 0.08
2 -0.29
20 0.28
21 0.28
23 0.15
24 0.15
25 0.15
26 0.15
27 0.15
28 0.15
29 0.15
3 -0.29
30 0.15
4 -0.36
5 -0.36
6 0.29
7 -0.14
8 -0.14
9 0.87

> <PUBCHEM_EFFECTIVE_ROTOR_COUNT>
5

> <PUBCHEM_PHARMACOPHORE_FEATURES>
4
1 4 acceptor
1 5 acceptor
6 7 10 12 14 16 18 rings
6 8 11 13 15 17 19 rings

> <PUBCHEM_HEAVY_ATOM_COUNT>
21

> <PUBCHEM_ATOM_DEF_STEREO_COUNT>
0

> <PUBCHEM_ATOM_UDEF_STEREO_COUNT>
0

> <PUBCHEM_BOND_DEF_STEREO_COUNT>
0

> <PUBCHEM_BOND_UDEF_STEREO_COUNT>
0

> <PUBCHEM_ISOTOPIC_ATOM_COUNT>
0

> <PUBCHEM_COMPONENT_COUNT>
1

> <PUBCHEM_CACTVS_TAUTO_COUNT>
1

> <PUBCHEM_CONFORMER_ID>
0000101300000001

> <PUBCHEM_MMFF94_ENERGY>
86.1769

> <PUBCHEM_FEATURE_SELFOVERLAP>
20.297

> <PUBCHEM_SHAPE_FINGERPRINT>
10165383 225 18263904601599883809
10498660 4 18335423465116248657
105312 117 18410006603156018004
12173636 292 18194969534970388486
12363563 72 9151174259463981648
12633257 1 15051729759601227980
12730499 353 18337664326185645257
12788726 201 18051708650017934419
12892183 10 15267071388233811425
13134695 92 17835808873057550142
13294875 104 17968675890241645994
13544653 18 9223230719846535562
13583140 156 16773244980781424173
13681431 1 17612586039576781311
14142880 1 18198352766360815583
14341114 328 16056869209232975628
15163728 17 18339069492971244189
15342168 16 18341899623195410533
167882 2 18338796831499520374
17134986 127 18409450301685220534
17980427 23 17275099501685650687
1813 80 17247516297734529630
18186145 218 17967244299878550008
18785283 64 18198625617091045154
20600515 1 16343691171572508613
21524375 3 18260271866626574794
21756936 100 17345184507618719100
2255824 54 18046349909849155799
22907989 373 17827639149512220980
23419403 2 17321210849700629639
23557571 272 18045769105858759124
23559900 14 17344332600528347639
238 59 18115023138287355863
25 1 17822278098572026194
283562 15 18050010991185112026
3057174 1 18259983803180757782
350125 39 18409722950272822066
3729539 64 18049694577387784614
474 4 18337678632352488401
495365 180 18196380431911591355
53917941 68 18115880611428203960
6327066 14 18343587317282529005
633830 44 17678436749100280017
6442390 28 18336816516526443499
7471813 234 17536609751995755531
7808743 9 18270680853403092908
7970288 3 9007057971861576765
81228 2 17757839926588441258
84936 182 18116436036319439265
9999458 23 17916307323509712506

> <PUBCHEM_SHAPE_MULTIPOLES>
426.04
8.68
3.64
1.58
0.6
3.7
0.09
-11.28
1.72
-0.19
0.85
-0.12
-0.05
0.45

> <PUBCHEM_SHAPE_SELFOVERLAP>
873.599

> <PUBCHEM_SHAPE_VOLUME>
245.6

> <PUBCHEM_COORDINATE_TYPE>
2
5
10

$$$$

