585153
  -OEChem-06241222452D

 41 42  0     1  0  0  0  0  0999 V2000
    7.3301   -0.3170    0.0000 O   0  0  0  0  0  0  0  0  0  0  0  0
    3.7320    4.1830    0.0000 O   0  0  0  0  0  0  0  0  0  0  0  0
    6.8301   -5.1830    0.0000 O   0  0  0  0  0  0  0  0  0  0  0  0
    2.0000    4.1830    0.0000 O   0  0  0  0  0  0  0  0  0  0  0  0
    6.3301   -0.3170    0.0000 N   0  0  3  0  0  0  0  0  0  0  0  0
    6.8301   -1.1830    0.0000 C   0  0  3  0  0  0  0  0  0  0  0  0
    5.4641    0.1830    0.0000 C   0  0  0  0  0  0  0  0  0  0  0  0
    5.4641    1.1830    0.0000 C   0  0  0  0  0  0  0  0  0  0  0  0
    6.8301   -2.1830    0.0000 C   0  0  0  0  0  0  0  0  0  0  0  0
    4.5981    1.6830    0.0000 C   0  0  0  0  0  0  0  0  0  0  0  0
    4.5981    2.6830    0.0000 C   0  0  0  0  0  0  0  0  0  0  0  0
    5.9641   -2.6830    0.0000 C   0  0  0  0  0  0  0  0  0  0  0  0
    7.6962   -2.6830    0.0000 C   0  0  0  0  0  0  0  0  0  0  0  0
    3.7320    3.1830    0.0000 C   0  0  0  0  0  0  0  0  0  0  0  0
    5.9641   -3.6830    0.0000 C   0  0  0  0  0  0  0  0  0  0  0  0
    7.6962   -3.6830    0.0000 C   0  0  0  0  0  0  0  0  0  0  0  0
    6.8301   -4.1830    0.0000 C   0  0  0  0  0  0  0  0  0  0  0  0
    2.8660    4.6830    0.0000 C   0  0  0  0  0  0  0  0  0  0  0  0
    7.6962   -5.6830    0.0000 C   0  0  0  0  0  0  0  0  0  0  0  0
    2.8660    5.6830    0.0000 C   0  0  0  0  0  0  0  0  0  0  0  0
    7.6512   -1.4030    0.0000 H   0  0  0  0  0  0  0  0  0  0  0  0
    4.8535    0.2907    0.0000 H   0  0  0  0  0  0  0  0  0  0  0  0
    5.2520   -0.3996    0.0000 H   0  0  0  0  0  0  0  0  0  0  0  0
    6.0747    1.0754    0.0000 H   0  0  0  0  0  0  0  0  0  0  0  0
    5.6762    1.7656    0.0000 H   0  0  0  0  0  0  0  0  0  0  0  0
    3.9875    1.7907    0.0000 H   0  0  0  0  0  0  0  0  0  0  0  0
    4.3860    1.1004    0.0000 H   0  0  0  0  0  0  0  0  0  0  0  0
    5.2087    2.5753    0.0000 H   0  0  0  0  0  0  0  0  0  0  0  0
    4.8101    3.2656    0.0000 H   0  0  0  0  0  0  0  0  0  0  0  0
    5.4272   -2.3730    0.0000 H   0  0  0  0  0  0  0  0  0  0  0  0
    8.2331   -2.3730    0.0000 H   0  0  0  0  0  0  0  0  0  0  0  0
    3.1215    3.2907    0.0000 H   0  0  0  0  0  0  0  0  0  0  0  0
    3.5200    2.6004    0.0000 H   0  0  0  0  0  0  0  0  0  0  0  0
    5.4272   -3.9930    0.0000 H   0  0  0  0  0  0  0  0  0  0  0  0
    8.2331   -3.9930    0.0000 H   0  0  0  0  0  0  0  0  0  0  0  0
    7.3862   -6.2200    0.0000 H   0  0  0  0  0  0  0  0  0  0  0  0
    8.2331   -5.9930    0.0000 H   0  0  0  0  0  0  0  0  0  0  0  0
    8.0062   -5.1461    0.0000 H   0  0  0  0  0  0  0  0  0  0  0  0
    3.4860    5.6830    0.0000 H   0  0  0  0  0  0  0  0  0  0  0  0
    2.8660    6.3030    0.0000 H   0  0  0  0  0  0  0  0  0  0  0  0
    2.2460    5.6830    0.0000 H   0  0  0  0  0  0  0  0  0  0  0  0
  1  5  1  0  0  0  0
  1  6  1  0  0  0  0
  2 14  1  0  0  0  0
  2 18  1  0  0  0  0
  3 17  1  0  0  0  0
  3 19  1  0  0  0  0
  4 18  2  0  0  0  0
  5  6  1  0  0  0  0
  5  7  1  0  0  0  0
  6  9  1  0  0  0  0
  6 21  1  0  0  0  0
  7  8  1  0  0  0  0
  7 22  1  0  0  0  0
  7 23  1  0  0  0  0
  8 10  1  0  0  0  0
  8 24  1  0  0  0  0
  8 25  1  0  0  0  0
  9 12  2  0  0  0  0
  9 13  1  0  0  0  0
 10 11  1  0  0  0  0
 10 26  1  0  0  0  0
 10 27  1  0  0  0  0
 11 14  1  0  0  0  0
 11 28  1  0  0  0  0
 11 29  1  0  0  0  0
 12 15  1  0  0  0  0
 12 30  1  0  0  0  0
 13 16  2  0  0  0  0
 13 31  1  0  0  0  0
 14 32  1  0  0  0  0
 14 33  1  0  0  0  0
 15 17  2  0  0  0  0
 15 34  1  0  0  0  0
 16 17  1  0  0  0  0
 16 35  1  0  0  0  0
 18 20  1  0  0  0  0
 19 36  1  0  0  0  0
 19 37  1  0  0  0  0
 19 38  1  0  0  0  0
 20 39  1  0  0  0  0
 20 40  1  0  0  0  0
 20 41  1  0  0  0  0
M  END
> <PUBCHEM_COMPOUND_CID>
585153

> <PUBCHEM_COMPOUND_CANONICALIZED>
1

> <PUBCHEM_CACTVS_COMPLEXITY>
302

> <PUBCHEM_CACTVS_HBOND_ACCEPTOR>
5

> <PUBCHEM_CACTVS_HBOND_DONOR>
0

> <PUBCHEM_CACTVS_ROTATABLE_BOND>
9

> <PUBCHEM_CACTVS_SUBSKEYS>
AAADceByOAAAAAAAAAAAAAAAFgAAAAAAAAAwAAAAAAAAAAABAAAAHgAEAAAADAThmAYyDoIQBACIAiDSCACCCAAgIAAoiAAODIgMJiKEsRuGMChkwBGIqAeQ8C4OIAAAAAAAAABAAAAAAAAAAAAAAAAAAA==

> <PUBCHEM_IUPAC_OPENEYE_NAME>
5-[3-(4-methoxyphenyl)oxaziridin-2-yl]pentyl acetate

> <PUBCHEM_IUPAC_CAS_NAME>
acetic acid 5-[3-(4-methoxyphenyl)-2-oxaziridinyl]pentyl ester

> <PUBCHEM_IUPAC_NAME>
5-[3-(4-methoxyphenyl)oxaziridin-2-yl]pentyl acetate

> <PUBCHEM_IUPAC_SYSTEMATIC_NAME>
5-[3-(4-methoxyphenyl)-1,2-oxaziridin-2-yl]pentyl ethanoate

> <PUBCHEM_IUPAC_TRADITIONAL_NAME>
acetic acid 5-[3-(4-methoxyphenyl)oxaziridin-2-yl]pentyl ester

> <PUBCHEM_IUPAC_INCHI>
InChI=1S/C15H21NO4/c1-12(17)19-11-5-3-4-10-16-15(20-16)13-6-8-14(18-2)9-7-13/h6-9,15H,3-5,10-11H2,1-2H3

> <PUBCHEM_IUPAC_INCHIKEY>
SFUDGQBSDYAUQF-UHFFFAOYSA-N

> <PUBCHEM_XLOGP3_AA>
2.6

> <PUBCHEM_EXACT_MASS>
279.147058

> <PUBCHEM_MOLECULAR_FORMULA>
C15H21NO4

> <PUBCHEM_MOLECULAR_WEIGHT>
279.33154

> <PUBCHEM_OPENEYE_CAN_SMILES>
CC(=O)OCCCCCN1C(O1)C2=CC=C(C=C2)OC

> <PUBCHEM_OPENEYE_ISO_SMILES>
CC(=O)OCCCCCN1C(O1)C2=CC=C(C=C2)OC

> <PUBCHEM_CACTVS_TPSA>
51.1

> <PUBCHEM_MONOISOTOPIC_WEIGHT>
279.147058

> <PUBCHEM_TOTAL_CHARGE>
0

> <PUBCHEM_HEAVY_ATOM_COUNT>
20

> <PUBCHEM_ATOM_DEF_STEREO_COUNT>
0

> <PUBCHEM_ATOM_UDEF_STEREO_COUNT>
1

> <PUBCHEM_BOND_DEF_STEREO_COUNT>
0

> <PUBCHEM_BOND_UDEF_STEREO_COUNT>
0

> <PUBCHEM_ISOTOPIC_ATOM_COUNT>
0

> <PUBCHEM_COMPONENT_COUNT>
1

> <PUBCHEM_CACTVS_TAUTO_COUNT>
1

> <PUBCHEM_COORDINATE_TYPE>
1
5
255

> <PUBCHEM_BONDANNOTATIONS>
12  15  8
13  16  8
15  17  8
16  17  8
6  21  3
9  12  8
9  13  8

$$$$

