9663
  -OEChem-06261203553D

  7  6  0     0  0  0  0  0  0999 V2000
   -1.9623   -0.6395   -0.0040 Cl  0  0  0  0  0  0  0  0  0  0  0  0
    1.9164   -0.1331   -0.0064 F   0  0  0  0  0  0  0  0  0  0  0  0
   -0.2523    1.3896    0.0015 O   0  0  0  0  0  0  0  0  0  0  0  0
    0.7254   -0.7920    0.0073 C   0  0  0  0  0  0  0  0  0  0  0  0
   -0.4273    0.1749    0.0015 C   0  0  0  0  0  0  0  0  0  0  0  0
    0.6866   -1.4265   -0.8820 H   0  0  0  0  0  0  0  0  0  0  0  0
    0.6944   -1.4051    0.9118 H   0  0  0  0  0  0  0  0  0  0  0  0
  1  5  1  0  0  0  0
  2  4  1  0  0  0  0
  3  5  2  0  0  0  0
  4  5  1  0  0  0  0
  4  6  1  0  0  0  0
  4  7  1  0  0  0  0
M  END
> <PUBCHEM_COMPOUND_CID>
9663

> <PUBCHEM_CONFORMER_RMSD>
0.4

> <PUBCHEM_CONFORMER_DIVERSEORDER>
1
3
2

> <PUBCHEM_MMFF94_PARTIAL_CHARGES>
5
1 -0.21
2 -0.34
3 -0.57
4 0.4
5 0.72

> <PUBCHEM_EFFECTIVE_ROTOR_COUNT>
1

> <PUBCHEM_PHARMACOPHORE_FEATURES>
0

> <PUBCHEM_HEAVY_ATOM_COUNT>
5

> <PUBCHEM_ATOM_DEF_STEREO_COUNT>
0

> <PUBCHEM_ATOM_UDEF_STEREO_COUNT>
0

> <PUBCHEM_BOND_DEF_STEREO_COUNT>
0

> <PUBCHEM_BOND_UDEF_STEREO_COUNT>
0

> <PUBCHEM_ISOTOPIC_ATOM_COUNT>
0

> <PUBCHEM_COMPONENT_COUNT>
1

> <PUBCHEM_CACTVS_TAUTO_COUNT>
1

> <PUBCHEM_CONFORMER_ID>
000025BF00000001

> <PUBCHEM_MMFF94_ENERGY>
1.5773

> <PUBCHEM_FEATURE_SELFOVERLAP>
0

> <PUBCHEM_SHAPE_FINGERPRINT>
139733 1 9295291642394537859
16714656 1 18334289868522087854
20096714 4 17976254630354269165
21015797 1 8862070866747645811
29004967 10 18412539882067268715
5460574 1 9223238446266081411
5943 1 5433504882329232265

> <PUBCHEM_SHAPE_MULTIPOLES>
91.62
2.2
1.13
0.58
0.18
0.32
0
-0.61
0.01
0.05
0
0.06
-0.03
0

> <PUBCHEM_SHAPE_SELFOVERLAP>
154.973

> <PUBCHEM_SHAPE_VOLUME>
62.5

> <PUBCHEM_COORDINATE_TYPE>
2
5
10

$$$$

