6500
  -OEChem-06261201213D

 21 20  0     1  0  0  0  0  0999 V2000
   -0.3522    0.1186   -0.5464 P   0  0  1  0  0  0  0  0  0  0  0  0
    1.2328   -0.2141   -0.6185 O   0  0  0  0  0  0  0  0  0  0  0  0
   -0.9516    0.3909   -1.8983 O   0  0  0  0  0  0  0  0  0  0  0  0
   -1.1175   -0.9485    0.4650 N   0  0  0  0  0  0  0  0  0  0  0  0
   -0.4089    2.8158    0.6892 N   0  0  0  0  0  0  0  0  0  0  0  0
   -2.5235   -0.6955    0.7905 C   0  0  0  0  0  0  0  0  0  0  0  0
   -0.9555   -2.3729    0.1593 C   0  0  0  0  0  0  0  0  0  0  0  0
    2.0165   -0.2631    0.5620 C   0  0  0  0  0  0  0  0  0  0  0  0
    3.4467   -0.5924    0.1910 C   0  0  0  0  0  0  0  0  0  0  0  0
   -0.3867    1.7612    0.2063 C   0  0  0  0  0  0  0  0  0  0  0  0
   -2.8747   -1.3589    1.5883 H   0  0  0  0  0  0  0  0  0  0  0  0
   -3.1633   -0.8261   -0.0886 H   0  0  0  0  0  0  0  0  0  0  0  0
   -2.6527    0.3285    1.1543 H   0  0  0  0  0  0  0  0  0  0  0  0
   -1.4805   -2.6410   -0.7637 H   0  0  0  0  0  0  0  0  0  0  0  0
   -1.3262   -3.0012    0.9763 H   0  0  0  0  0  0  0  0  0  0  0  0
    0.1027   -2.6188    0.0276 H   0  0  0  0  0  0  0  0  0  0  0  0
    1.9828    0.7051    1.0696 H   0  0  0  0  0  0  0  0  0  0  0  0
    1.6200   -1.0271    1.2369 H   0  0  0  0  0  0  0  0  0  0  0  0
    4.0809   -0.6375    1.0808 H   0  0  0  0  0  0  0  0  0  0  0  0
    3.4980   -1.5549   -0.3286 H   0  0  0  0  0  0  0  0  0  0  0  0
    3.8509    0.1607   -0.4934 H   0  0  0  0  0  0  0  0  0  0  0  0
  1  2  1  0  0  0  0
  1  3  2  0  0  0  0
  1  4  1  0  0  0  0
  1 10  1  0  0  0  0
  2  8  1  0  0  0  0
  4  6  1  0  0  0  0
  4  7  1  0  0  0  0
  5 10  3  0  0  0  0
  6 11  1  0  0  0  0
  6 12  1  0  0  0  0
  6 13  1  0  0  0  0
  7 14  1  0  0  0  0
  7 15  1  0  0  0  0
  7 16  1  0  0  0  0
  8  9  1  0  0  0  0
  8 17  1  0  0  0  0
  8 18  1  0  0  0  0
  9 19  1  0  0  0  0
  9 20  1  0  0  0  0
  9 21  1  0  0  0  0
M  END
> <PUBCHEM_COMPOUND_CID>
6500

> <PUBCHEM_CONFORMER_RMSD>
0.6

> <PUBCHEM_CONFORMER_DIVERSEORDER>
1
9
16
15
10
5
13
6
2
17
3
7
4
12
8
11
14

> <PUBCHEM_MMFF94_PARTIAL_CHARGES>
9
1 1.45
10 0.35
2 -0.55
3 -0.7
4 -0.81
5 -0.56
6 0.27
7 0.27
8 0.28

> <PUBCHEM_EFFECTIVE_ROTOR_COUNT>
3

> <PUBCHEM_PHARMACOPHORE_FEATURES>
1
1 5 acceptor

> <PUBCHEM_HEAVY_ATOM_COUNT>
10

> <PUBCHEM_ATOM_DEF_STEREO_COUNT>
0

> <PUBCHEM_ATOM_UDEF_STEREO_COUNT>
1

> <PUBCHEM_BOND_DEF_STEREO_COUNT>
0

> <PUBCHEM_BOND_UDEF_STEREO_COUNT>
0

> <PUBCHEM_ISOTOPIC_ATOM_COUNT>
0

> <PUBCHEM_COMPONENT_COUNT>
1

> <PUBCHEM_CACTVS_TAUTO_COUNT>
1

> <PUBCHEM_CONFORMER_ID>
0000196400000001

> <PUBCHEM_MMFF94_ENERGY>
6.4338

> <PUBCHEM_FEATURE_SELFOVERLAP>
5.074

> <PUBCHEM_SHAPE_FINGERPRINT>
20711978 78 17760381993207910309
54338 74 18408595955333188377

> <PUBCHEM_SHAPE_MULTIPOLES>
187.94
3.47
2.39
1.11
3.18
1.13
-0.49
-1.63
0.81
-1.02
0.63
-0.36
0.19
0.13

> <PUBCHEM_SHAPE_SELFOVERLAP>
327.616

> <PUBCHEM_SHAPE_VOLUME>
124

> <PUBCHEM_COORDINATE_TYPE>
2
5
10

$$$$

