11315
  -OEChem-06261205312D

 35 37  0     0  0  0  0  0  0999 V2000
    3.4030   -3.1123    0.0000 S   0  0  0  0  0  0  0  0  0  0  0  0
    2.5369    2.3877    0.0000 O   0  0  0  0  0  0  0  0  0  0  0  0
    3.4030   -4.1123    0.0000 O   0  0  0  0  0  0  0  0  0  0  0  0
    2.4030   -3.1123    0.0000 O   0  0  0  0  0  0  0  0  0  0  0  0
    4.4030   -3.1123    0.0000 O   0  0  0  0  0  0  0  0  0  0  0  0
    4.2690    1.3877    0.0000 N   0  0  0  0  0  0  0  0  0  0  0  0
    3.4030    0.8877    0.0000 N   0  0  0  0  0  0  0  0  0  0  0  0
    5.1350    2.8877    0.0000 C   0  0  0  0  0  0  0  0  0  0  0  0
    5.1350    3.8877    0.0000 C   0  0  0  0  0  0  0  0  0  0  0  0
    4.2690    2.3877    0.0000 C   0  0  0  0  0  0  0  0  0  0  0  0
    4.2690    4.3877    0.0000 C   0  0  0  0  0  0  0  0  0  0  0  0
    6.0290    2.3530    0.0000 C   0  0  0  0  0  0  0  0  0  0  0  0
    3.4030    2.8877    0.0000 C   0  0  0  0  0  0  0  0  0  0  0  0
    6.0290    4.4223    0.0000 C   0  0  0  0  0  0  0  0  0  0  0  0
    3.4030    3.8877    0.0000 C   0  0  0  0  0  0  0  0  0  0  0  0
    3.4030   -2.1123    0.0000 C   0  0  0  0  0  0  0  0  0  0  0  0
    6.9350    2.8669    0.0000 C   0  0  0  0  0  0  0  0  0  0  0  0
    6.9350    3.9085    0.0000 C   0  0  0  0  0  0  0  0  0  0  0  0
    3.4030   -0.1123    0.0000 C   0  0  0  0  0  0  0  0  0  0  0  0
    4.2690   -1.6123    0.0000 C   0  0  0  0  0  0  0  0  0  0  0  0
    2.5369   -1.6123    0.0000 C   0  0  0  0  0  0  0  0  0  0  0  0
    4.2690   -0.6123    0.0000 C   0  0  0  0  0  0  0  0  0  0  0  0
    2.5369   -0.6123    0.0000 C   0  0  0  0  0  0  0  0  0  0  0  0
    4.2690    5.0077    0.0000 H   0  0  0  0  0  0  0  0  0  0  0  0
    6.0218    1.7330    0.0000 H   0  0  0  0  0  0  0  0  0  0  0  0
    6.0218    5.0423    0.0000 H   0  0  0  0  0  0  0  0  0  0  0  0
    2.8660    4.1977    0.0000 H   0  0  0  0  0  0  0  0  0  0  0  0
    7.4708    2.5548    0.0000 H   0  0  0  0  0  0  0  0  0  0  0  0
    7.4708    4.2206    0.0000 H   0  0  0  0  0  0  0  0  0  0  0  0
    4.8059   -1.9223    0.0000 H   0  0  0  0  0  0  0  0  0  0  0  0
    2.0000   -1.9223    0.0000 H   0  0  0  0  0  0  0  0  0  0  0  0
    4.8059   -0.3023    0.0000 H   0  0  0  0  0  0  0  0  0  0  0  0
    2.0000   -0.3023    0.0000 H   0  0  0  0  0  0  0  0  0  0  0  0
    2.0000    2.6977    0.0000 H   0  0  0  0  0  0  0  0  0  0  0  0
    2.8660   -4.4223    0.0000 H   0  0  0  0  0  0  0  0  0  0  0  0
  1  3  1  0  0  0  0
  1  4  2  0  0  0  0
  1  5  2  0  0  0  0
  1 16  1  0  0  0  0
  2 13  1  0  0  0  0
  2 34  1  0  0  0  0
  3 35  1  0  0  0  0
  6  7  2  0  0  0  0
  6 10  1  0  0  0  0
  7 19  1  0  0  0  0
  8  9  1  0  0  0  0
  8 10  1  0  0  0  0
  8 12  2  0  0  0  0
  9 11  1  0  0  0  0
  9 14  2  0  0  0  0
 10 13  2  0  0  0  0
 11 15  2  0  0  0  0
 11 24  1  0  0  0  0
 12 17  1  0  0  0  0
 12 25  1  0  0  0  0
 13 15  1  0  0  0  0
 14 18  1  0  0  0  0
 14 26  1  0  0  0  0
 15 27  1  0  0  0  0
 16 20  2  0  0  0  0
 16 21  1  0  0  0  0
 17 18  2  0  0  0  0
 17 28  1  0  0  0  0
 18 29  1  0  0  0  0
 19 22  2  0  0  0  0
 19 23  1  0  0  0  0
 20 22  1  0  0  0  0
 20 30  1  0  0  0  0
 21 23  2  0  0  0  0
 21 31  1  0  0  0  0
 22 32  1  0  0  0  0
 23 33  1  0  0  0  0
M  END
> <PUBCHEM_COMPOUND_CID>
11315

> <PUBCHEM_COMPOUND_CANONICALIZED>
1

> <PUBCHEM_CACTVS_COMPLEXITY>
523

> <PUBCHEM_CACTVS_HBOND_ACCEPTOR>
6

> <PUBCHEM_CACTVS_HBOND_DONOR>
2

> <PUBCHEM_CACTVS_ROTATABLE_BOND>
3

> <PUBCHEM_CACTVS_SUBSKEYS>
AAADccB7OABAAAAAAAAAAAAAAAAAAAAAAAAwYMAAAAAAAADBVAAAHgQICAAADAyB2AAwx8AAAoKCAiRCQHDCAEAgIgAIiBgHbIgKJiKSkZOAcABkwBEI2AeQwLAOoAQBQAASEABACAKAACQgAAAAAAAAAA==

> <PUBCHEM_IUPAC_OPENEYE_NAME>
4-[(2-hydroxy-1-naphthyl)azo]benzenesulfonic acid

> <PUBCHEM_IUPAC_CAS_NAME>
4-[(2-hydroxy-1-naphthalenyl)azo]benzenesulfonic acid

> <PUBCHEM_IUPAC_NAME>
4-[(2-hydroxynaphthalen-1-yl)diazenyl]benzenesulfonic acid

> <PUBCHEM_IUPAC_SYSTEMATIC_NAME>
4-[(2-oxidanylnaphthalen-1-yl)diazenyl]benzenesulfonic acid

> <PUBCHEM_IUPAC_TRADITIONAL_NAME>
4-[(2-hydroxy-1-naphthyl)azo]besylic acid

> <PUBCHEM_IUPAC_INCHI>
InChI=1S/C16H12N2O4S/c19-15-10-5-11-3-1-2-4-14(11)16(15)18-17-12-6-8-13(9-7-12)23(20,21)22/h1-10,19H,(H,20,21,22)

> <PUBCHEM_IUPAC_INCHIKEY>
RDUJRVXKAIVTDH-UHFFFAOYSA-N

> <PUBCHEM_XLOGP3>
2.9

> <PUBCHEM_EXACT_MASS>
328.051778

> <PUBCHEM_MOLECULAR_FORMULA>
C16H12N2O4S

> <PUBCHEM_MOLECULAR_WEIGHT>
328.34248

> <PUBCHEM_OPENEYE_CAN_SMILES>
C1=CC=C2C(=C1)C=CC(=C2N=NC3=CC=C(C=C3)S(=O)(=O)O)O

> <PUBCHEM_OPENEYE_ISO_SMILES>
C1=CC=C2C(=C1)C=CC(=C2N=NC3=CC=C(C=C3)S(=O)(=O)O)O

> <PUBCHEM_CACTVS_TPSA>
108

> <PUBCHEM_MONOISOTOPIC_WEIGHT>
328.051778

> <PUBCHEM_TOTAL_CHARGE>
0

> <PUBCHEM_HEAVY_ATOM_COUNT>
23

> <PUBCHEM_ATOM_DEF_STEREO_COUNT>
0

> <PUBCHEM_ATOM_UDEF_STEREO_COUNT>
0

> <PUBCHEM_BOND_DEF_STEREO_COUNT>
0

> <PUBCHEM_BOND_UDEF_STEREO_COUNT>
0

> <PUBCHEM_ISOTOPIC_ATOM_COUNT>
0

> <PUBCHEM_COMPONENT_COUNT>
1

> <PUBCHEM_CACTVS_TAUTO_COUNT>
3

> <PUBCHEM_COORDINATE_TYPE>
1
5
255

> <PUBCHEM_BONDANNOTATIONS>
10  13  8
11  15  8
12  17  8
13  15  8
14  18  8
16  20  8
16  21  8
17  18  8
19  22  8
19  23  8
20  22  8
21  23  8
8  10  8
8  12  8
8  9  8
9  11  8
9  14  8

$$$$

