582930
  -OEChem-06241222442D

 33 35  0     1  0  0  0  0  0999 V2000
    2.0000    1.0606    0.0000 O   0  0  0  0  0  0  0  0  0  0  0  0
    3.4050   -2.0578    0.0000 O   0  0  0  0  0  0  0  0  0  0  0  0
    2.3869   -0.6565    0.0000 O   0  0  0  0  0  0  0  0  0  0  0  0
    2.8020    2.6456    0.0000 O   0  0  0  0  0  0  0  0  0  0  0  0
    4.1095   -0.4755    0.0000 C   0  0  3  0  0  0  0  0  0  0  0  0
    4.9185    0.1123    0.0000 C   0  0  3  0  0  0  0  0  0  0  0  0
    3.3004    0.1123    0.0000 C   0  0  3  0  0  0  0  0  0  0  0  0
    3.6095    1.0634    0.0000 C   0  0  3  0  0  0  0  0  0  0  0  0
    4.6095    1.0634    0.0000 C   0  0  0  0  0  0  0  0  0  0  0  0
    4.4191   -1.4201    0.0000 C   0  0  0  0  0  0  0  0  0  0  0  0
    5.7212   -0.4741    0.0000 C   0  0  0  0  0  0  0  0  0  0  0  0
    2.3064    0.1149    0.0000 C   0  0  0  0  0  0  0  0  0  0  0  0
    5.4132   -1.4192    0.0000 C   0  0  0  0  0  0  0  0  0  0  0  0
    3.3004   -1.0633    0.0000 C   0  0  0  0  0  0  0  0  0  0  0  0
    2.8037    1.6456    0.0000 C   0  0  0  0  0  0  0  0  0  0  0  0
    6.0010   -2.2283    0.0000 C   0  0  0  0  0  0  0  0  0  0  0  0
    2.5960   -2.6456    0.0000 C   0  0  0  0  0  0  0  0  0  0  0  0
    5.4205    0.4761    0.0000 H   0  0  0  0  0  0  0  0  0  0  0  0
    3.1081   -0.4771    0.0000 H   0  0  0  0  0  0  0  0  0  0  0  0
    3.8003    1.6533    0.0000 H   0  0  0  0  0  0  0  0  0  0  0  0
    5.2159    1.1923    0.0000 H   0  0  0  0  0  0  0  0  0  0  0  0
    4.5446    1.6800    0.0000 H   0  0  0  0  0  0  0  0  0  0  0  0
    3.8129   -1.5502    0.0000 H   0  0  0  0  0  0  0  0  0  0  0  0
    4.4848   -2.0366    0.0000 H   0  0  0  0  0  0  0  0  0  0  0  0
    6.2872   -0.7271    0.0000 H   0  0  0  0  0  0  0  0  0  0  0  0
    6.0323    0.0622    0.0000 H   0  0  0  0  0  0  0  0  0  0  0  0
    1.6997   -0.0131    0.0000 H   0  0  0  0  0  0  0  0  0  0  0  0
    2.3699   -0.5018    0.0000 H   0  0  0  0  0  0  0  0  0  0  0  0
    5.7488   -2.7947    0.0000 H   0  0  0  0  0  0  0  0  0  0  0  0
    6.6176   -2.1635    0.0000 H   0  0  0  0  0  0  0  0  0  0  0  0
    2.2315   -2.1440    0.0000 H   0  0  0  0  0  0  0  0  0  0  0  0
    2.0944   -3.0100    0.0000 H   0  0  0  0  0  0  0  0  0  0  0  0
    2.9604   -3.1472    0.0000 H   0  0  0  0  0  0  0  0  0  0  0  0
  1 12  1  0  0  0  0
  1 15  1  0  0  0  0
  2 14  1  0  0  0  0
  2 17  1  0  0  0  0
  3 14  2  0  0  0  0
  4 15  2  0  0  0  0
  5  6  1  0  0  0  0
  5  7  1  0  0  0  0
  5 10  1  0  0  0  0
  5 14  1  0  0  0  0
  6  9  1  0  0  0  0
  6 11  1  0  0  0  0
  6 18  1  0  0  0  0
  7  8  1  0  0  0  0
  7 12  1  0  0  0  0
  7 19  1  0  0  0  0
  8  9  1  0  0  0  0
  8 15  1  0  0  0  0
  8 20  1  0  0  0  0
  9 21  1  0  0  0  0
  9 22  1  0  0  0  0
 10 13  1  0  0  0  0
 10 23  1  0  0  0  0
 10 24  1  0  0  0  0
 11 13  1  0  0  0  0
 11 25  1  0  0  0  0
 11 26  1  0  0  0  0
 12 27  1  0  0  0  0
 12 28  1  0  0  0  0
 13 16  2  0  0  0  0
 16 29  1  0  0  0  0
 16 30  1  0  0  0  0
 17 31  1  0  0  0  0
 17 32  1  0  0  0  0
 17 33  1  0  0  0  0
M  END
> <PUBCHEM_COMPOUND_CID>
582930

> <PUBCHEM_COMPOUND_CANONICALIZED>
1

> <PUBCHEM_CACTVS_COMPLEXITY>
414

> <PUBCHEM_CACTVS_HBOND_ACCEPTOR>
4

> <PUBCHEM_CACTVS_HBOND_DONOR>
0

> <PUBCHEM_CACTVS_ROTATABLE_BOND>
2

> <PUBCHEM_CACTVS_SUBSKEYS>
AAADceBwOAAAAAAAAAAAAAAAAAAAAaMEAAAAAAAAAAAaIAAAAAAAGgAAAAAADwCggAICCAAABACIAgDSCAAAAAAgAAAAAAEAAAgAABIAAQACAAAEgAAAAAHK7viPgAAAAAAAAAAAAAAAAAAAAQAACAAAAA==

> <PUBCHEM_IUPAC_OPENEYE_NAME>
methyl 5-methylene-1-oxo-3a,4,6,6a,7,7a-hexahydro-3H-pentaleno[1,2-c]furan-3b-carboxylate

> <PUBCHEM_IUPAC_CAS_NAME>
5-methylene-1-oxo-3a,4,6,6a,7,7a-hexahydro-3H-pentaleno[1,2-c]furan-3b-carboxylic acid methyl ester

> <PUBCHEM_IUPAC_NAME>
methyl 5-methylidene-1-oxo-3a,4,6,6a,7,7a-hexahydro-3H-pentaleno[1,2-c]furan-3b-carboxylate

> <PUBCHEM_IUPAC_SYSTEMATIC_NAME>
methyl 5-methylidene-1-oxidanylidene-3a,4,6,6a,7,7a-hexahydro-3H-pentaleno[1,2-c]furan-3b-carboxylate

> <PUBCHEM_IUPAC_TRADITIONAL_NAME>
1-keto-5-methylene-3a,4,6,6a,7,7a-hexahydro-3H-pentaleno[1,2-c]furan-3b-carboxylic acid methyl ester

> <PUBCHEM_IUPAC_INCHI>
InChI=1S/C13H16O4/c1-7-3-8-4-9-10(6-17-11(9)14)13(8,5-7)12(15)16-2/h8-10H,1,3-6H2,2H3

> <PUBCHEM_IUPAC_INCHIKEY>
AGVIODYECKNLKQ-UHFFFAOYSA-N

> <PUBCHEM_XLOGP3_AA>
0.9

> <PUBCHEM_EXACT_MASS>
236.104859

> <PUBCHEM_MOLECULAR_FORMULA>
C13H16O4

> <PUBCHEM_MOLECULAR_WEIGHT>
236.26374

> <PUBCHEM_OPENEYE_CAN_SMILES>
COC(=O)C12CC(=C)CC1CC3C2COC3=O

> <PUBCHEM_OPENEYE_ISO_SMILES>
COC(=O)C12CC(=C)CC1CC3C2COC3=O

> <PUBCHEM_CACTVS_TPSA>
52.6

> <PUBCHEM_MONOISOTOPIC_WEIGHT>
236.104859

> <PUBCHEM_TOTAL_CHARGE>
0

> <PUBCHEM_HEAVY_ATOM_COUNT>
17

> <PUBCHEM_ATOM_DEF_STEREO_COUNT>
0

> <PUBCHEM_ATOM_UDEF_STEREO_COUNT>
4

> <PUBCHEM_BOND_DEF_STEREO_COUNT>
0

> <PUBCHEM_BOND_UDEF_STEREO_COUNT>
0

> <PUBCHEM_ISOTOPIC_ATOM_COUNT>
0

> <PUBCHEM_COMPONENT_COUNT>
1

> <PUBCHEM_CACTVS_TAUTO_COUNT>
2

> <PUBCHEM_COORDINATE_TYPE>
1
5
255

> <PUBCHEM_BONDANNOTATIONS>
5  14  3
6  9  3
7  12  3
8  15  3

$$$$

