7753
  -OEChem-06261202172D

 25 24  0     1  0  0  0  0  0999 V2000
    2.5369    0.4400    0.0000 N   0  0  0  0  0  0  0  0  0  0  0  0
    5.1350   -0.0600    0.0000 C   0  0  3  0  0  0  0  0  0  0  0  0
    4.2690    0.4400    0.0000 C   0  0  0  0  0  0  0  0  0  0  0  0
    3.4030   -0.0600    0.0000 C   0  0  3  0  0  0  0  0  0  0  0  0
    6.0010    0.4400    0.0000 C   0  0  0  0  0  0  0  0  0  0  0  0
    5.1350   -1.0600    0.0000 C   0  0  0  0  0  0  0  0  0  0  0  0
    3.4030   -1.0600    0.0000 C   0  0  0  0  0  0  0  0  0  0  0  0
    6.8671   -0.0600    0.0000 C   0  0  0  0  0  0  0  0  0  0  0  0
    5.8711   -0.4850    0.0000 H   0  0  0  0  0  0  0  0  0  0  0  0
    4.6675    0.9149    0.0000 H   0  0  0  0  0  0  0  0  0  0  0  0
    3.8705    0.9149    0.0000 H   0  0  0  0  0  0  0  0  0  0  0  0
    3.4030    0.7900    0.0000 H   0  0  0  0  0  0  0  0  0  0  0  0
    6.3996    0.9149    0.0000 H   0  0  0  0  0  0  0  0  0  0  0  0
    5.6025    0.9149    0.0000 H   0  0  0  0  0  0  0  0  0  0  0  0
    4.5150   -1.0600    0.0000 H   0  0  0  0  0  0  0  0  0  0  0  0
    5.1350   -1.6800    0.0000 H   0  0  0  0  0  0  0  0  0  0  0  0
    5.7550   -1.0600    0.0000 H   0  0  0  0  0  0  0  0  0  0  0  0
    2.7830   -1.0600    0.0000 H   0  0  0  0  0  0  0  0  0  0  0  0
    3.4030   -1.6800    0.0000 H   0  0  0  0  0  0  0  0  0  0  0  0
    4.0230   -1.0600    0.0000 H   0  0  0  0  0  0  0  0  0  0  0  0
    6.5571   -0.5969    0.0000 H   0  0  0  0  0  0  0  0  0  0  0  0
    7.4040   -0.3700    0.0000 H   0  0  0  0  0  0  0  0  0  0  0  0
    7.1771    0.4769    0.0000 H   0  0  0  0  0  0  0  0  0  0  0  0
    2.0000    0.1300    0.0000 H   0  0  0  0  0  0  0  0  0  0  0  0
    2.5369    1.0600    0.0000 H   0  0  0  0  0  0  0  0  0  0  0  0
  1  4  1  0  0  0  0
  1 24  1  0  0  0  0
  1 25  1  0  0  0  0
  2  3  1  0  0  0  0
  2  5  1  0  0  0  0
  2  6  1  0  0  0  0
  2  9  1  0  0  0  0
  3  4  1  0  0  0  0
  3 10  1  0  0  0  0
  3 11  1  0  0  0  0
  4  7  1  0  0  0  0
  4 12  1  0  0  0  0
  5  8  1  0  0  0  0
  5 13  1  0  0  0  0
  5 14  1  0  0  0  0
  6 15  1  0  0  0  0
  6 16  1  0  0  0  0
  6 17  1  0  0  0  0
  7 18  1  0  0  0  0
  7 19  1  0  0  0  0
  7 20  1  0  0  0  0
  8 21  1  0  0  0  0
  8 22  1  0  0  0  0
  8 23  1  0  0  0  0
M  END
> <PUBCHEM_COMPOUND_CID>
7753

> <PUBCHEM_COMPOUND_CANONICALIZED>
1

> <PUBCHEM_CACTVS_COMPLEXITY>
52.3

> <PUBCHEM_CACTVS_HBOND_ACCEPTOR>
1

> <PUBCHEM_CACTVS_HBOND_DONOR>
1

> <PUBCHEM_CACTVS_ROTATABLE_BOND>
3

> <PUBCHEM_CACTVS_SUBSKEYS>
AAADceBiAAAAAAAAAAAAAAAAAAAAAAAAAAAAAAAAAAAAAAAAAAAAHAAQAAAADSjBAAQCAABAAAAAAAAAAAAAAAAAAAAAAIAAAAAAAAIAgAAAAAAAEAAAAAEQAAAOAAAAAAAAAAAAAAAAAAAAAAAAAAAAAA==

> <PUBCHEM_IUPAC_OPENEYE_NAME>
4-methylhexan-2-amine

> <PUBCHEM_IUPAC_CAS_NAME>
4-methyl-2-hexanamine

> <PUBCHEM_IUPAC_NAME>
4-methylhexan-2-amine

> <PUBCHEM_IUPAC_SYSTEMATIC_NAME>
4-methylhexan-2-amine

> <PUBCHEM_IUPAC_TRADITIONAL_NAME>
1,3-dimethylpentylamine

> <PUBCHEM_IUPAC_INCHI>
InChI=1S/C7H17N/c1-4-6(2)5-7(3)8/h6-7H,4-5,8H2,1-3H3

> <PUBCHEM_IUPAC_INCHIKEY>
YAHRDLICUYEDAU-UHFFFAOYSA-N

> <PUBCHEM_XLOGP3_AA>
1.9

> <PUBCHEM_EXACT_MASS>
115.1361

> <PUBCHEM_MOLECULAR_FORMULA>
C7H17N

> <PUBCHEM_MOLECULAR_WEIGHT>
115.21658

> <PUBCHEM_OPENEYE_CAN_SMILES>
CCC(C)CC(C)N

> <PUBCHEM_OPENEYE_ISO_SMILES>
CCC(C)CC(C)N

> <PUBCHEM_CACTVS_TPSA>
26

> <PUBCHEM_MONOISOTOPIC_WEIGHT>
115.1361

> <PUBCHEM_TOTAL_CHARGE>
0

> <PUBCHEM_HEAVY_ATOM_COUNT>
8

> <PUBCHEM_ATOM_DEF_STEREO_COUNT>
0

> <PUBCHEM_ATOM_UDEF_STEREO_COUNT>
2

> <PUBCHEM_BOND_DEF_STEREO_COUNT>
0

> <PUBCHEM_BOND_UDEF_STEREO_COUNT>
0

> <PUBCHEM_ISOTOPIC_ATOM_COUNT>
0

> <PUBCHEM_COMPONENT_COUNT>
1

> <PUBCHEM_CACTVS_TAUTO_COUNT>
1

> <PUBCHEM_COORDINATE_TYPE>
1
5
255

> <PUBCHEM_BONDANNOTATIONS>
2  9  3
4  12  3

$$$$

