583228
  -OEChem-06241222452D

 87 90  0     1  0  0  0  0  0999 V2000
    7.1962   -1.5440    0.0000 O   0  0  0  0  0  0  0  0  0  0  0  0
    6.3301   -3.0440    0.0000 O   0  0  0  0  0  0  0  0  0  0  0  0
    6.3301   -0.0440    0.0000 O   0  0  0  0  0  0  0  0  0  0  0  0
    9.3191   -5.2993    0.0000 O   0  0  0  0  0  0  0  0  0  0  0  0
    5.4641   -2.5440    0.0000 O   0  0  0  0  0  0  0  0  0  0  0  0
    3.7321   -1.5440    0.0000 O   0  0  0  0  0  0  0  0  0  0  0  0
    3.7321    0.4560    0.0000 O   0  0  0  0  0  0  0  0  0  0  0  0
   10.2976   -1.5825    0.0000 O   0  0  0  0  0  0  0  0  0  0  0  0
    6.3301    1.9560    0.0000 O   0  0  0  0  0  0  0  0  0  0  0  0
   10.9654   -4.7612    0.0000 O   0  0  0  0  0  0  0  0  0  0  0  0
    3.7321   -2.5440    0.0000 O   0  0  0  0  0  0  0  0  0  0  0  0
    2.8660   -0.0440    0.0000 O   0  0  0  0  0  0  0  0  0  0  0  0
    4.5981    1.9560    0.0000 O   0  0  0  0  0  0  0  0  0  0  0  0
    9.9404    0.1123    0.0000 O   0  0  0  0  0  0  0  0  0  0  0  0
    5.4641    3.4560    0.0000 O   0  0  0  0  0  0  0  0  0  0  0  0
    8.0622   -3.0440    0.0000 C   0  0  3  0  0  0  0  0  0  0  0  0
    8.0622   -4.0440    0.0000 C   0  0  3  0  0  0  0  0  0  0  0  0
    7.1962   -2.5440    0.0000 C   0  0  3  0  0  0  0  0  0  0  0  0
    9.0084   -4.3487    0.0000 C   0  0  3  0  0  0  0  0  0  0  0  0
    9.0084   -2.7393    0.0000 C   0  0  0  0  0  0  0  0  0  0  0  0
    9.5920   -3.5440    0.0000 C   0  0  0  0  0  0  0  0  0  0  0  0
    6.3301   -1.0440    0.0000 C   0  0  3  0  0  0  0  0  0  0  0  0
    5.4641   -1.5440    0.0000 C   0  0  3  0  0  0  0  0  0  0  0  0
    4.5981   -1.0440    0.0000 C   0  0  3  0  0  0  0  0  0  0  0  0
    7.1962   -4.5440    0.0000 C   0  0  0  0  0  0  0  0  0  0  0  0
    4.5981   -0.0440    0.0000 C   0  0  3  0  0  0  0  0  0  0  0  0
    5.4641    0.4560    0.0000 C   0  0  3  0  0  0  0  0  0  0  0  0
    9.3191   -1.7888    0.0000 C   0  0  0  0  0  0  0  0  0  0  0  0
    6.3301   -4.0440    0.0000 C   0  0  0  0  0  0  0  0  0  0  0  0
    5.4641    1.4560    0.0000 C   0  0  0  0  0  0  0  0  0  0  0  0
   10.2976   -5.5055    0.0000 C   0  0  0  0  0  0  0  0  0  0  0  0
    4.5981   -3.0440    0.0000 C   0  0  0  0  0  0  0  0  0  0  0  0
    2.8660   -1.0440    0.0000 C   0  0  0  0  0  0  0  0  0  0  0  0
    3.7321    1.4560    0.0000 C   0  0  0  0  0  0  0  0  0  0  0  0
   10.6082   -6.4560    0.0000 C   0  0  0  0  0  0  0  0  0  0  0  0
   10.6082   -0.6320    0.0000 C   0  0  0  0  0  0  0  0  0  0  0  0
    4.5981   -4.0440    0.0000 C   0  0  0  0  0  0  0  0  0  0  0  0
    2.0000   -1.5440    0.0000 C   0  0  0  0  0  0  0  0  0  0  0  0
    2.8660    1.9560    0.0000 C   0  0  0  0  0  0  0  0  0  0  0  0
    6.3301    2.9560    0.0000 C   0  0  0  0  0  0  0  0  0  0  0  0
   11.5867   -0.4258    0.0000 C   0  0  0  0  0  0  0  0  0  0  0  0
    7.1962    3.4560    0.0000 C   0  0  0  0  0  0  0  0  0  0  0  0
    7.1962    4.4560    0.0000 C   0  0  0  0  0  0  0  0  0  0  0  0
    8.0622    4.9560    0.0000 C   0  0  0  0  0  0  0  0  0  0  0  0
    8.0622    5.9560    0.0000 C   0  0  0  0  0  0  0  0  0  0  0  0
    8.9282    4.4560    0.0000 C   0  0  0  0  0  0  0  0  0  0  0  0
    8.9282    6.4560    0.0000 C   0  0  0  0  0  0  0  0  0  0  0  0
    9.7942    4.9560    0.0000 C   0  0  0  0  0  0  0  0  0  0  0  0
    9.7942    5.9560    0.0000 C   0  0  0  0  0  0  0  0  0  0  0  0
    8.1278   -2.4275    0.0000 H   0  0  0  0  0  0  0  0  0  0  0  0
    8.1278   -4.6605    0.0000 H   0  0  0  0  0  0  0  0  0  0  0  0
    7.7331   -2.2340    0.0000 H   0  0  0  0  0  0  0  0  0  0  0  0
    9.6209   -4.4449    0.0000 H   0  0  0  0  0  0  0  0  0  0  0  0
   10.2120   -3.5440    0.0000 H   0  0  0  0  0  0  0  0  0  0  0  0
    6.3301   -1.6640    0.0000 H   0  0  0  0  0  0  0  0  0  0  0  0
    6.0010   -1.8540    0.0000 H   0  0  0  0  0  0  0  0  0  0  0  0
    4.5981   -1.6640    0.0000 H   0  0  0  0  0  0  0  0  0  0  0  0
    4.5981    0.5760    0.0000 H   0  0  0  0  0  0  0  0  0  0  0  0
    7.1962   -5.1640    0.0000 H   0  0  0  0  0  0  0  0  0  0  0  0
    6.0010    0.7660    0.0000 H   0  0  0  0  0  0  0  0  0  0  0  0
    9.2985   -1.1691    0.0000 H   0  0  0  0  0  0  0  0  0  0  0  0
    8.7052   -1.7014    0.0000 H   0  0  0  0  0  0  0  0  0  0  0  0
    5.7932   -4.3540    0.0000 H   0  0  0  0  0  0  0  0  0  0  0  0
    5.2520    2.0386    0.0000 H   0  0  0  0  0  0  0  0  0  0  0  0
    4.8535    1.3483    0.0000 H   0  0  0  0  0  0  0  0  0  0  0  0
   10.0189   -6.6486    0.0000 H   0  0  0  0  0  0  0  0  0  0  0  0
   10.8008   -7.0453    0.0000 H   0  0  0  0  0  0  0  0  0  0  0  0
   11.1976   -6.2634    0.0000 H   0  0  0  0  0  0  0  0  0  0  0  0
    3.9781   -4.0440    0.0000 H   0  0  0  0  0  0  0  0  0  0  0  0
    4.5981   -4.6640    0.0000 H   0  0  0  0  0  0  0  0  0  0  0  0
    5.2181   -4.0440    0.0000 H   0  0  0  0  0  0  0  0  0  0  0  0
    1.6900   -1.0071    0.0000 H   0  0  0  0  0  0  0  0  0  0  0  0
    1.4631   -1.8540    0.0000 H   0  0  0  0  0  0  0  0  0  0  0  0
    2.3100   -2.0809    0.0000 H   0  0  0  0  0  0  0  0  0  0  0  0
    3.1760    2.4929    0.0000 H   0  0  0  0  0  0  0  0  0  0  0  0
    2.3291    2.2660    0.0000 H   0  0  0  0  0  0  0  0  0  0  0  0
    2.5560    1.4191    0.0000 H   0  0  0  0  0  0  0  0  0  0  0  0
   11.7146   -1.0325    0.0000 H   0  0  0  0  0  0  0  0  0  0  0  0
   12.1934   -0.2979    0.0000 H   0  0  0  0  0  0  0  0  0  0  0  0
   11.4589    0.1809    0.0000 H   0  0  0  0  0  0  0  0  0  0  0  0
    7.7331    3.1460    0.0000 H   0  0  0  0  0  0  0  0  0  0  0  0
    6.6592    4.7660    0.0000 H   0  0  0  0  0  0  0  0  0  0  0  0
    7.5252    6.2660    0.0000 H   0  0  0  0  0  0  0  0  0  0  0  0
    8.9282    3.8360    0.0000 H   0  0  0  0  0  0  0  0  0  0  0  0
    8.9282    7.0760    0.0000 H   0  0  0  0  0  0  0  0  0  0  0  0
   10.3312    4.6460    0.0000 H   0  0  0  0  0  0  0  0  0  0  0  0
   10.3312    6.2660    0.0000 H   0  0  0  0  0  0  0  0  0  0  0  0
  1 18  1  0  0  0  0
  1 22  1  0  0  0  0
  2 18  1  0  0  0  0
  2 29  1  0  0  0  0
  3 22  1  0  0  0  0
  3 27  1  0  0  0  0
  4 19  1  0  0  0  0
  4 31  1  0  0  0  0
  5 23  1  0  0  0  0
  5 32  1  0  0  0  0
  6 24  1  0  0  0  0
  6 33  1  0  0  0  0
  7 26  1  0  0  0  0
  7 34  1  0  0  0  0
  8 28  1  0  0  0  0
  8 36  1  0  0  0  0
  9 30  1  0  0  0  0
  9 40  1  0  0  0  0
 10 31  2  0  0  0  0
 11 32  2  0  0  0  0
 12 33  2  0  0  0  0
 13 34  2  0  0  0  0
 14 36  2  0  0  0  0
 15 40  2  0  0  0  0
 16 17  1  0  0  0  0
 16 18  1  0  0  0  0
 16 20  1  0  0  0  0
 16 50  1  0  0  0  0
 17 19  1  0  0  0  0
 17 25  1  0  0  0  0
 17 51  1  0  0  0  0
 18 52  1  0  0  0  0
 19 21  1  0  0  0  0
 19 53  1  0  0  0  0
 20 21  2  0  0  0  0
 20 28  1  0  0  0  0
 21 54  1  0  0  0  0
 22 23  1  0  0  0  0
 22 55  1  0  0  0  0
 23 24  1  0  0  0  0
 23 56  1  0  0  0  0
 24 26  1  0  0  0  0
 24 57  1  0  0  0  0
 25 29  2  0  0  0  0
 25 59  1  0  0  0  0
 26 27  1  0  0  0  0
 26 58  1  0  0  0  0
 27 30  1  0  0  0  0
 27 60  1  0  0  0  0
 28 61  1  0  0  0  0
 28 62  1  0  0  0  0
 29 63  1  0  0  0  0
 30 64  1  0  0  0  0
 30 65  1  0  0  0  0
 31 35  1  0  0  0  0
 32 37  1  0  0  0  0
 33 38  1  0  0  0  0
 34 39  1  0  0  0  0
 35 66  1  0  0  0  0
 35 67  1  0  0  0  0
 35 68  1  0  0  0  0
 36 41  1  0  0  0  0
 37 69  1  0  0  0  0
 37 70  1  0  0  0  0
 37 71  1  0  0  0  0
 38 72  1  0  0  0  0
 38 73  1  0  0  0  0
 38 74  1  0  0  0  0
 39 75  1  0  0  0  0
 39 76  1  0  0  0  0
 39 77  1  0  0  0  0
 40 42  1  0  0  0  0
 41 78  1  0  0  0  0
 41 79  1  0  0  0  0
 41 80  1  0  0  0  0
 42 43  2  3  0  0  0
 42 81  1  0  0  0  0
 43 44  1  0  0  0  0
 43 82  1  0  0  0  0
 44 45  2  0  0  0  0
 44 46  1  0  0  0  0
 45 47  1  0  0  0  0
 45 83  1  0  0  0  0
 46 48  2  0  0  0  0
 46 84  1  0  0  0  0
 47 49  2  0  0  0  0
 47 85  1  0  0  0  0
 48 49  1  0  0  0  0
 48 86  1  0  0  0  0
 49 87  1  0  0  0  0
M  END
> <PUBCHEM_COMPOUND_CID>
583228

> <PUBCHEM_COMPOUND_CANONICALIZED>
1

> <PUBCHEM_CACTVS_COMPLEXITY>
1330

> <PUBCHEM_CACTVS_HBOND_ACCEPTOR>
15

> <PUBCHEM_CACTVS_HBOND_DONOR>
0

> <PUBCHEM_CACTVS_ROTATABLE_BOND>
18

> <PUBCHEM_CACTVS_SUBSKEYS>
AAADcfB8PAAAAAAAAAAAAAAAAAAAAQAAAAA0QIAAAAAAAEABAAAAGgAAAAAADRSwmAMyCIAABACIAiDSCAACCAAgIAAIiAAAAMgZJCKAMRCiMAAlwAAOqYfA4AwOgAAAAAAAAAAAAAAAAAAAAAAAAAAAAA==

> <PUBCHEM_IUPAC_OPENEYE_NAME>
[3,4,5-triacetoxy-6-[[5-acetoxy-7-(acetoxymethyl)-1,4a,5,7a-tetrahydrocyclopenta[c]pyran-1-yl]oxy]tetrahydropyran-2-yl]methyl 3-phenylprop-2-enoate

> <PUBCHEM_IUPAC_CAS_NAME>
3-phenyl-2-propenoic acid [3,4,5-triacetyloxy-6-[[5-acetyloxy-7-(acetyloxymethyl)-1,4a,5,7a-tetrahydrocyclopenta[c]pyran-1-yl]oxy]-2-oxanyl]methyl ester

> <PUBCHEM_IUPAC_NAME>
[3,4,5-triacetyloxy-6-[[5-acetyloxy-7-(acetyloxymethyl)-1,4a,5,7a-tetrahydrocyclopenta[c]pyran-1-yl]oxy]oxan-2-yl]methyl 3-phenylprop-2-enoate

> <PUBCHEM_IUPAC_SYSTEMATIC_NAME>
[3,4,5-triacetyloxy-6-[[5-acetyloxy-7-(acetyloxymethyl)-1,4a,5,7a-tetrahydrocyclopenta[c]pyran-1-yl]oxy]oxan-2-yl]methyl 3-phenylprop-2-enoate

> <PUBCHEM_IUPAC_TRADITIONAL_NAME>
3-phenylacrylic acid [3,4,5-triacetoxy-6-[[5-acetoxy-7-(acetoxymethyl)-1,4a,5,7a-tetrahydrocyclopenta[c]pyran-1-yl]oxy]tetrahydropyran-2-yl]methyl ester

> <PUBCHEM_IUPAC_INCHI>
InChI=1S/C34H38O15/c1-18(35)42-16-24-15-26(44-19(2)36)25-13-14-41-33(29(24)25)49-34-32(47-22(5)39)31(46-21(4)38)30(45-20(3)37)27(48-34)17-43-28(40)12-11-23-9-7-6-8-10-23/h6-15,25-27,29-34H,16-17H2,1-5H3

> <PUBCHEM_IUPAC_INCHIKEY>
RWSVWKDKAMNOLP-UHFFFAOYSA-N

> <PUBCHEM_XLOGP3_AA>
2

> <PUBCHEM_EXACT_MASS>
686.221071

> <PUBCHEM_MOLECULAR_FORMULA>
C34H38O15

> <PUBCHEM_MOLECULAR_WEIGHT>
686.65652

> <PUBCHEM_OPENEYE_CAN_SMILES>
CC(=O)OCC1=CC(C2C1C(OC=C2)OC3C(C(C(C(O3)COC(=O)C=CC4=CC=CC=C4)OC(=O)C)OC(=O)C)OC(=O)C)OC(=O)C

> <PUBCHEM_OPENEYE_ISO_SMILES>
CC(=O)OCC1=CC(C2C1C(OC=C2)OC3C(C(C(C(O3)COC(=O)C=CC4=CC=CC=C4)OC(=O)C)OC(=O)C)OC(=O)C)OC(=O)C

> <PUBCHEM_CACTVS_TPSA>
186

> <PUBCHEM_MONOISOTOPIC_WEIGHT>
686.221071

> <PUBCHEM_TOTAL_CHARGE>
0

> <PUBCHEM_HEAVY_ATOM_COUNT>
49

> <PUBCHEM_ATOM_DEF_STEREO_COUNT>
0

> <PUBCHEM_ATOM_UDEF_STEREO_COUNT>
9

> <PUBCHEM_BOND_DEF_STEREO_COUNT>
0

> <PUBCHEM_BOND_UDEF_STEREO_COUNT>
1

> <PUBCHEM_ISOTOPIC_ATOM_COUNT>
0

> <PUBCHEM_COMPONENT_COUNT>
1

> <PUBCHEM_CACTVS_TAUTO_COUNT>
1

> <PUBCHEM_COORDINATE_TYPE>
1
5
255

> <PUBCHEM_BONDANNOTATIONS>
18  1  3
16  50  3
17  51  3
22  55  3
27  30  3
19  4  3
42  43  1
44  45  8
44  46  8
45  47  8
46  48  8
47  49  8
48  49  8
23  5  3
24  6  3
26  7  3

$$$$

