17395679
  -OEChem-06241222512D

 43 46  0     0  0  0  0  0  0999 V2000
    3.2044   -2.9349    0.0000 S   0  0  0  0  0  0  0  0  0  0  0  0
    7.0468    1.1082    0.0000 O   0  0  0  0  0  0  0  0  0  0  0  0
    5.3147    0.1082    0.0000 O   0  0  0  0  0  0  0  0  0  0  0  0
    3.4782    0.1136    0.0000 N   0  0  0  0  0  0  0  0  0  0  0  0
    4.4487    1.6082    0.0000 N   0  0  0  0  0  0  0  0  0  0  0  0
    2.5000   -0.0943    0.0000 N   0  0  0  0  0  0  0  0  0  0  0  0
    4.2213   -0.5555    0.0000 C   0  0  0  0  0  0  0  0  0  0  0  0
    3.5827    1.1082    0.0000 C   0  0  0  0  0  0  0  0  0  0  0  0
    4.0134   -1.5336    0.0000 C   0  0  0  0  0  0  0  0  0  0  0  0
    9.6448    1.6082    0.0000 C   0  0  0  0  0  0  0  0  0  0  0  0
    9.6448    2.6082    0.0000 C   0  0  0  0  0  0  0  0  0  0  0  0
    2.6691    1.5149    0.0000 C   0  0  0  0  0  0  0  0  0  0  0  0
    7.9128    1.6082    0.0000 C   0  0  0  0  0  0  0  0  0  0  0  0
    8.7788    1.1082    0.0000 C   0  0  0  0  0  0  0  0  0  0  0  0
    8.7788    3.1082    0.0000 C   0  0  0  0  0  0  0  0  0  0  0  0
    6.1808    1.6082    0.0000 C   0  0  0  0  0  0  0  0  0  0  0  0
    2.0000    0.7717    0.0000 C   0  0  0  0  0  0  0  0  0  0  0  0
    5.3147    1.1082    0.0000 C   0  0  0  0  0  0  0  0  0  0  0  0
    7.9128    2.6082    0.0000 C   0  0  0  0  0  0  0  0  0  0  0  0
    4.6825   -2.2768    0.0000 C   0  0  0  0  0  0  0  0  0  0  0  0
   10.5388    1.0735    0.0000 C   0  0  0  0  0  0  0  0  0  0  0  0
    3.0998   -1.9404    0.0000 C   0  0  0  0  0  0  0  0  0  0  0  0
   10.5388    3.1428    0.0000 C   0  0  0  0  0  0  0  0  0  0  0  0
   11.4449    1.5873    0.0000 C   0  0  0  0  0  0  0  0  0  0  0  0
   11.4449    2.6290    0.0000 C   0  0  0  0  0  0  0  0  0  0  0  0
    4.1825   -3.1428    0.0000 C   0  0  0  0  0  0  0  0  0  0  0  0
    4.7962   -0.7878    0.0000 H   0  0  0  0  0  0  0  0  0  0  0  0
    4.5498   -0.0297    0.0000 H   0  0  0  0  0  0  0  0  0  0  0  0
    2.5402    2.1213    0.0000 H   0  0  0  0  0  0  0  0  0  0  0  0
    4.4487    2.2282    0.0000 H   0  0  0  0  0  0  0  0  0  0  0  0
    8.7788    0.4882    0.0000 H   0  0  0  0  0  0  0  0  0  0  0  0
    8.7788    3.7282    0.0000 H   0  0  0  0  0  0  0  0  0  0  0  0
    6.5793    2.0831    0.0000 H   0  0  0  0  0  0  0  0  0  0  0  0
    5.7822    2.0831    0.0000 H   0  0  0  0  0  0  0  0  0  0  0  0
    1.3834    0.8366    0.0000 H   0  0  0  0  0  0  0  0  0  0  0  0
    7.3759    2.9181    0.0000 H   0  0  0  0  0  0  0  0  0  0  0  0
    5.2991   -2.2120    0.0000 H   0  0  0  0  0  0  0  0  0  0  0  0
   10.5316    0.4535    0.0000 H   0  0  0  0  0  0  0  0  0  0  0  0
    2.5629   -1.6304    0.0000 H   0  0  0  0  0  0  0  0  0  0  0  0
   10.5316    3.7628    0.0000 H   0  0  0  0  0  0  0  0  0  0  0  0
   11.9806    1.2753    0.0000 H   0  0  0  0  0  0  0  0  0  0  0  0
   11.9806    2.9410    0.0000 H   0  0  0  0  0  0  0  0  0  0  0  0
    4.4347   -3.7092    0.0000 H   0  0  0  0  0  0  0  0  0  0  0  0
  1 22  1  0  0  0  0
  1 26  1  0  0  0  0
  2 13  1  0  0  0  0
  2 16  1  0  0  0  0
  3 18  2  0  0  0  0
  4  6  1  0  0  0  0
  4  7  1  0  0  0  0
  4  8  1  0  0  0  0
  5  8  1  0  0  0  0
  5 18  1  0  0  0  0
  5 30  1  0  0  0  0
  6 17  2  0  0  0  0
  7  9  1  0  0  0  0
  7 27  1  0  0  0  0
  7 28  1  0  0  0  0
  8 12  2  0  0  0  0
  9 20  1  0  0  0  0
  9 22  2  0  0  0  0
 10 11  1  0  0  0  0
 10 14  1  0  0  0  0
 10 21  2  0  0  0  0
 11 15  1  0  0  0  0
 11 23  2  0  0  0  0
 12 17  1  0  0  0  0
 12 29  1  0  0  0  0
 13 14  2  0  0  0  0
 13 19  1  0  0  0  0
 14 31  1  0  0  0  0
 15 19  2  0  0  0  0
 15 32  1  0  0  0  0
 16 18  1  0  0  0  0
 16 33  1  0  0  0  0
 16 34  1  0  0  0  0
 17 35  1  0  0  0  0
 19 36  1  0  0  0  0
 20 26  2  0  0  0  0
 20 37  1  0  0  0  0
 21 24  1  0  0  0  0
 21 38  1  0  0  0  0
 22 39  1  0  0  0  0
 23 25  1  0  0  0  0
 23 40  1  0  0  0  0
 24 25  2  0  0  0  0
 24 41  1  0  0  0  0
 25 42  1  0  0  0  0
 26 43  1  0  0  0  0
M  END
> <PUBCHEM_COMPOUND_CID>
17395679

> <PUBCHEM_COMPOUND_CANONICALIZED>
1

> <PUBCHEM_CACTVS_COMPLEXITY>
478

> <PUBCHEM_CACTVS_HBOND_ACCEPTOR>
4

> <PUBCHEM_CACTVS_HBOND_DONOR>
1

> <PUBCHEM_CACTVS_ROTATABLE_BOND>
6

> <PUBCHEM_CACTVS_SUBSKEYS>
AAADceB7MABAAAAAAAAAAAAAAAAAAWJAAAAwYAAAAAAAAADB9AAAHgQYAAAADATl2ga9t9LIBAiuAjN3dAKTDIMhqhBd2Dh+bJiOJqLk+V+HvCj83RP4qAeAwLAOoAABAAAQAABAAAIAACAAAAAAAAAAAA==

> <PUBCHEM_IUPAC_OPENEYE_NAME>
2-(2-naphthyloxy)-N-[2-(3-thienylmethyl)pyrazol-3-yl]acetamide

> <PUBCHEM_IUPAC_CAS_NAME>
2-(2-naphthalenyloxy)-N-[2-(3-thiophenylmethyl)-3-pyrazolyl]acetamide

> <PUBCHEM_IUPAC_NAME>
2-naphthalen-2-yloxy-N-[2-(thiophen-3-ylmethyl)pyrazol-3-yl]acetamide

> <PUBCHEM_IUPAC_SYSTEMATIC_NAME>
2-naphthalen-2-yloxy-N-[2-(thiophen-3-ylmethyl)pyrazol-3-yl]ethanamide

> <PUBCHEM_IUPAC_TRADITIONAL_NAME>
2-(2-naphthoxy)-N-[2-(3-thenyl)pyrazol-3-yl]acetamide

> <PUBCHEM_IUPAC_INCHI>
InChI=1S/C20H17N3O2S/c24-20(13-25-18-6-5-16-3-1-2-4-17(16)11-18)22-19-7-9-21-23(19)12-15-8-10-26-14-15/h1-11,14H,12-13H2,(H,22,24)

> <PUBCHEM_IUPAC_INCHIKEY>
SQJCLLLWHOSREY-UHFFFAOYSA-N

> <PUBCHEM_XLOGP3_AA>
4

> <PUBCHEM_EXACT_MASS>
363.104148

> <PUBCHEM_MOLECULAR_FORMULA>
C20H17N3O2S

> <PUBCHEM_MOLECULAR_WEIGHT>
363.43288

> <PUBCHEM_OPENEYE_CAN_SMILES>
C1=CC=C2C=C(C=CC2=C1)OCC(=O)NC3=CC=NN3CC4=CSC=C4

> <PUBCHEM_OPENEYE_ISO_SMILES>
C1=CC=C2C=C(C=CC2=C1)OCC(=O)NC3=CC=NN3CC4=CSC=C4

> <PUBCHEM_CACTVS_TPSA>
84.4

> <PUBCHEM_MONOISOTOPIC_WEIGHT>
363.104148

> <PUBCHEM_TOTAL_CHARGE>
0

> <PUBCHEM_HEAVY_ATOM_COUNT>
26

> <PUBCHEM_ATOM_DEF_STEREO_COUNT>
0

> <PUBCHEM_ATOM_UDEF_STEREO_COUNT>
0

> <PUBCHEM_BOND_DEF_STEREO_COUNT>
0

> <PUBCHEM_BOND_UDEF_STEREO_COUNT>
0

> <PUBCHEM_ISOTOPIC_ATOM_COUNT>
0

> <PUBCHEM_COMPONENT_COUNT>
1

> <PUBCHEM_CACTVS_TAUTO_COUNT>
7

> <PUBCHEM_COORDINATE_TYPE>
1
5
255

> <PUBCHEM_BONDANNOTATIONS>
1  22  8
1  26  8
10  11  8
10  14  8
10  21  8
11  15  8
11  23  8
12  17  8
13  14  8
13  19  8
15  19  8
20  26  8
21  24  8
23  25  8
24  25  8
4  6  8
4  8  8
6  17  8
8  12  8
9  20  8
9  22  8

$$$$

