12697
  -OEChem-06261207152D

 16 15  0     1  0  0  0  0  0999 V2000
    4.5981    0.2500    0.0000 As  0  0  0  0  0  0  0  0  0  0  0  0
    5.4641   -0.2500    0.0000 Cl  0  0  0  0  0  0  0  0  0  0  0  0
    4.5981    1.2500    0.0000 Cl  0  0  0  0  0  0  0  0  0  0  0  0
    3.7320   -0.2500    0.0000 C   0  0  3  0  0  0  0  0  0  0  0  0
    2.8660    0.2500    0.0000 C   0  0  0  0  0  0  0  0  0  0  0  0
    3.7320   -1.2500    0.0000 C   0  0  0  0  0  0  0  0  0  0  0  0
    2.0000   -0.2500    0.0000 C   0  0  0  0  0  0  0  0  0  0  0  0
    4.2690   -0.5600    0.0000 H   0  0  0  0  0  0  0  0  0  0  0  0
    3.2646    0.7249    0.0000 H   0  0  0  0  0  0  0  0  0  0  0  0
    2.4675    0.7249    0.0000 H   0  0  0  0  0  0  0  0  0  0  0  0
    3.1120   -1.2500    0.0000 H   0  0  0  0  0  0  0  0  0  0  0  0
    3.7320   -1.8700    0.0000 H   0  0  0  0  0  0  0  0  0  0  0  0
    4.3520   -1.2500    0.0000 H   0  0  0  0  0  0  0  0  0  0  0  0
    1.6900    0.2869    0.0000 H   0  0  0  0  0  0  0  0  0  0  0  0
    1.4631   -0.5600    0.0000 H   0  0  0  0  0  0  0  0  0  0  0  0
    2.3100   -0.7869    0.0000 H   0  0  0  0  0  0  0  0  0  0  0  0
  1  2  1  0  0  0  0
  1  3  1  0  0  0  0
  1  4  1  0  0  0  0
  4  5  1  0  0  0  0
  4  6  1  0  0  0  0
  4  8  1  0  0  0  0
  5  7  1  0  0  0  0
  5  9  1  0  0  0  0
  5 10  1  0  0  0  0
  6 11  1  0  0  0  0
  6 12  1  0  0  0  0
  6 13  1  0  0  0  0
  7 14  1  0  0  0  0
  7 15  1  0  0  0  0
  7 16  1  0  0  0  0
M  END
> <PUBCHEM_COMPOUND_CID>
12697

> <PUBCHEM_COMPOUND_CANONICALIZED>
1

> <PUBCHEM_CACTVS_COMPLEXITY>
47

> <PUBCHEM_CACTVS_HBOND_ACCEPTOR>
0

> <PUBCHEM_CACTVS_HBOND_DONOR>
0

> <PUBCHEM_CACTVS_ROTATABLE_BOND>
1

> <PUBCHEM_CACTVS_SUBSKEYS>
AAADccBgAAAGAAAAQAAAAAAAAAAAAAAAAAAAAAAAAAAAAAAAAAAAGAEAAAAACACAAAACAAAAAAAAAAAAAAAAAAAAAAAAAAAAAAAAAAAAAAAAAAAAAAAAAAAAAAAAAAAAAAAAAAAAAAAAAAAAAAAAAAAAAA==

> <PUBCHEM_IUPAC_OPENEYE_NAME>
dichloro(sec-butyl)arsane

> <PUBCHEM_IUPAC_CAS_NAME>
butan-2-yl(dichloro)arsine

> <PUBCHEM_IUPAC_NAME>
butan-2-yl(dichloro)arsane

> <PUBCHEM_IUPAC_SYSTEMATIC_NAME>
butan-2-yl-bis(chloranyl)arsane

> <PUBCHEM_IUPAC_TRADITIONAL_NAME>
dichloro(sec-butyl)arsine

> <PUBCHEM_IUPAC_INCHI>
InChI=1S/C4H9AsCl2/c1-3-4(2)5(6)7/h4H,3H2,1-2H3

> <PUBCHEM_IUPAC_INCHIKEY>
INQONTNHVUXFCV-UHFFFAOYSA-N

> <PUBCHEM_EXACT_MASS>
201.929727

> <PUBCHEM_MOLECULAR_FORMULA>
C4H9AsCl2

> <PUBCHEM_MOLECULAR_WEIGHT>
202.94186

> <PUBCHEM_OPENEYE_CAN_SMILES>
CCC(C)[As](Cl)Cl

> <PUBCHEM_OPENEYE_ISO_SMILES>
CCC(C)[As](Cl)Cl

> <PUBCHEM_CACTVS_TPSA>
0

> <PUBCHEM_MONOISOTOPIC_WEIGHT>
201.929727

> <PUBCHEM_TOTAL_CHARGE>
0

> <PUBCHEM_HEAVY_ATOM_COUNT>
7

> <PUBCHEM_ATOM_DEF_STEREO_COUNT>
0

> <PUBCHEM_ATOM_UDEF_STEREO_COUNT>
1

> <PUBCHEM_BOND_DEF_STEREO_COUNT>
0

> <PUBCHEM_BOND_UDEF_STEREO_COUNT>
0

> <PUBCHEM_ISOTOPIC_ATOM_COUNT>
0

> <PUBCHEM_COMPONENT_COUNT>
1

> <PUBCHEM_CACTVS_TAUTO_COUNT>
1

> <PUBCHEM_COORDINATE_TYPE>
1
5
255

> <PUBCHEM_BONDANNOTATIONS>
4  6  3

$$$$

