5175
  -OEChem-06261200333D

 44 45  0     0  0  0  0  0  0999 V2000
    5.9868    0.9757   -1.4009 Cl  0  0  0  0  0  0  0  0  0  0  0  0
    0.0454   -0.9580    1.3334 S   0  0  0  0  0  0  0  0  0  0  0  0
   -0.5857   -2.2606    1.2393 O   0  0  0  0  0  0  0  0  0  0  0  0
    0.3860   -0.4041    2.6299 O   0  0  0  0  0  0  0  0  0  0  0  0
   -0.8798    0.1802    0.4734 N   0  0  0  0  0  0  0  0  0  0  0  0
   -3.7599    0.0716   -0.4823 C   0  0  0  0  0  0  0  0  0  0  0  0
   -2.5602    0.5839   -1.2883 C   0  0  0  0  0  0  0  0  0  0  0  0
   -5.0883    0.7099   -0.8941 C   0  0  0  0  0  0  0  0  0  0  0  0
   -1.2249   -0.0673   -0.9428 C   0  0  0  0  0  0  0  0  0  0  0  0
   -6.2491    0.1571   -0.0635 C   0  0  0  0  0  0  0  0  0  0  0  0
   -7.5819    0.7685   -0.4948 C   0  0  0  0  0  0  0  0  0  0  0  0
    1.5365   -1.0048    0.3852 C   0  0  0  0  0  0  0  0  0  0  0  0
    2.4387    0.0637    0.3516 C   0  0  0  0  0  0  0  0  0  0  0  0
    3.6100   -0.0541   -0.4338 C   0  0  0  0  0  0  0  0  0  0  0  0
   -8.7418    0.1969    0.3049 C   0  0  0  0  0  0  0  0  0  0  0  0
    1.7682   -2.1722   -0.3340 C   0  0  0  0  0  0  0  0  0  0  0  0
    2.2129    1.2461    1.0751 C   0  0  0  0  0  0  0  0  0  0  0  0
    3.8360   -1.2368   -1.1568 C   0  0  0  0  0  0  0  0  0  0  0  0
    2.9202   -2.2880   -1.1062 C   0  0  0  0  0  0  0  0  0  0  0  0
    4.5212    1.0138   -0.4725 C   0  0  0  0  0  0  0  0  0  0  0  0
    3.1289    2.2971    1.0248 C   0  0  0  0  0  0  0  0  0  0  0  0
    4.2807    2.1813    0.2524 C   0  0  0  0  0  0  0  0  0  0  0  0
   -3.8291   -1.0166   -0.6034 H   0  0  0  0  0  0  0  0  0  0  0  0
   -3.5906    0.2607    0.5847 H   0  0  0  0  0  0  0  0  0  0  0  0
   -2.4782    1.6687   -1.1429 H   0  0  0  0  0  0  0  0  0  0  0  0
   -2.7554    0.4253   -2.3560 H   0  0  0  0  0  0  0  0  0  0  0  0
   -5.2710    0.5173   -1.9581 H   0  0  0  0  0  0  0  0  0  0  0  0
   -5.0280    1.7974   -0.7671 H   0  0  0  0  0  0  0  0  0  0  0  0
   -1.2831   -1.1424   -1.1408 H   0  0  0  0  0  0  0  0  0  0  0  0
   -0.4375    0.3577   -1.5741 H   0  0  0  0  0  0  0  0  0  0  0  0
   -6.0745    0.3657    0.9990 H   0  0  0  0  0  0  0  0  0  0  0  0
   -6.2931   -0.9331   -0.1758 H   0  0  0  0  0  0  0  0  0  0  0  0
   -0.8461    1.1660    0.7607 H   0  0  0  0  0  0  0  0  0  0  0  0
   -7.7528    0.5765   -1.5605 H   0  0  0  0  0  0  0  0  0  0  0  0
   -7.5528    1.8562   -0.3615 H   0  0  0  0  0  0  0  0  0  0  0  0
   -8.6180    0.3978    1.3738 H   0  0  0  0  0  0  0  0  0  0  0  0
   -8.8187   -0.8862    0.1652 H   0  0  0  0  0  0  0  0  0  0  0  0
   -9.6845    0.6489   -0.0188 H   0  0  0  0  0  0  0  0  0  0  0  0
    1.0794   -3.0108   -0.3256 H   0  0  0  0  0  0  0  0  0  0  0  0
    1.3277    1.4357    1.6678 H   0  0  0  0  0  0  0  0  0  0  0  0
    4.7187   -1.3778   -1.7746 H   0  0  0  0  0  0  0  0  0  0  0  0
    3.1064   -3.1969   -1.6713 H   0  0  0  0  0  0  0  0  0  0  0  0
    2.9389    3.2102    1.5817 H   0  0  0  0  0  0  0  0  0  0  0  0
    4.9807    3.0129    0.2254 H   0  0  0  0  0  0  0  0  0  0  0  0
  1 20  1  0  0  0  0
  2  3  2  0  0  0  0
  2  4  2  0  0  0  0
  2  5  1  0  0  0  0
  2 12  1  0  0  0  0
  5  9  1  0  0  0  0
  5 33  1  0  0  0  0
  6  7  1  0  0  0  0
  6  8  1  0  0  0  0
  6 23  1  0  0  0  0
  6 24  1  0  0  0  0
  7  9  1  0  0  0  0
  7 25  1  0  0  0  0
  7 26  1  0  0  0  0
  8 10  1  0  0  0  0
  8 27  1  0  0  0  0
  8 28  1  0  0  0  0
  9 29  1  0  0  0  0
  9 30  1  0  0  0  0
 10 11  1  0  0  0  0
 10 31  1  0  0  0  0
 10 32  1  0  0  0  0
 11 15  1  0  0  0  0
 11 34  1  0  0  0  0
 11 35  1  0  0  0  0
 12 13  1  0  0  0  0
 12 16  2  0  0  0  0
 13 14  2  0  0  0  0
 13 17  1  0  0  0  0
 14 18  1  0  0  0  0
 14 20  1  0  0  0  0
 15 36  1  0  0  0  0
 15 37  1  0  0  0  0
 15 38  1  0  0  0  0
 16 19  1  0  0  0  0
 16 39  1  0  0  0  0
 17 21  2  0  0  0  0
 17 40  1  0  0  0  0
 18 19  2  0  0  0  0
 18 41  1  0  0  0  0
 19 42  1  0  0  0  0
 20 22  2  0  0  0  0
 21 22  1  0  0  0  0
 21 43  1  0  0  0  0
 22 44  1  0  0  0  0
M  END
> <PUBCHEM_COMPOUND_CID>
5175

> <PUBCHEM_CONFORMER_RMSD>
0.8

> <PUBCHEM_CONFORMER_DIVERSEORDER>
1
109
9
174
233
140
25
55
149
58
168
4
172
171
163
205
61
110
35
21
187
153
51
169
201
220
152
235
48
112
14
209
206
165
84
70
212
103
186
183
179
54
180
62
147
223
224
199
214
18
107
181
108
154
185
143
20
230
17
23
67
142
126
176
11
27
177
195
213
159
117
8
98
60
105
114
167
208
123
193
188
227
197
225
211
46
215
221
158
6
12
237
13
192
83
66
170
77
79
101
131
125
155
104
30
113
124
52
75
49
146
128
81
88
95
202
161
229
139
145
219
178
57
129
207
93
85
194
106
184
16
141
133
148
231
73
102
226
37
99
218
89
157
53
29
36
204
238
3
236
134
22
164
43
135
232
59
137
74
87
200
156
33
68
151
80
234
92
19
69
40
144
210
94
78
121
132
41
39
56
217
120
100
175
2
28
173
7
38
198
42
182
216
82
24
162
127
228
116
10
118
44
26
122
222
15
50
191
190
111
31
196
65
32
76
97
90
72
86
47
5
115
96
34
160
45
91
166
189
119
150
136
203
71
63
138
130
64

> <PUBCHEM_MMFF94_PARTIAL_CHARGES>
21
1 -0.18
12 -0.01
16 -0.15
17 -0.15
18 -0.15
19 -0.15
2 1.45
20 0.18
21 -0.15
22 -0.15
3 -0.65
33 0.42
39 0.15
4 -0.65
40 0.15
41 0.15
42 0.15
43 0.15
44 0.15
5 -0.91
9 0.36

> <PUBCHEM_EFFECTIVE_ROTOR_COUNT>
8

> <PUBCHEM_PHARMACOPHORE_FEATURES>
7
1 15 hydrophobe
1 3 acceptor
1 4 acceptor
1 5 donor
5 6 7 8 10 11 hydrophobe
6 12 13 14 16 18 19 rings
6 13 14 17 20 21 22 rings

> <PUBCHEM_HEAVY_ATOM_COUNT>
22

> <PUBCHEM_ATOM_DEF_STEREO_COUNT>
0

> <PUBCHEM_ATOM_UDEF_STEREO_COUNT>
0

> <PUBCHEM_BOND_DEF_STEREO_COUNT>
0

> <PUBCHEM_BOND_UDEF_STEREO_COUNT>
0

> <PUBCHEM_ISOTOPIC_ATOM_COUNT>
0

> <PUBCHEM_COMPONENT_COUNT>
1

> <PUBCHEM_CACTVS_TAUTO_COUNT>
1

> <PUBCHEM_CONFORMER_ID>
0000143700000001

> <PUBCHEM_MMFF94_ENERGY>
32.5123

> <PUBCHEM_FEATURE_SELFOVERLAP>
35.565

> <PUBCHEM_SHAPE_FINGERPRINT>
10165383 225 18343861105032021396
10693767 8 17531517802664548686
11724838 91 13973964285836952593
11796584 16 15502663658981254813
12596602 18 18335982048110816361
12730499 353 18412824694186231835
12778500 126 17822286920862529145
12788726 201 16588014749570383923
13533116 47 18186803617030327759
13955234 65 18338245962935772539
14933364 13 18334575759643154533
15183329 4 15285355124980643569
16752209 62 14923935769372439959
17844677 252 18262234538675879285
21033648 29 18196939877425316040
221357 26 18259984898481878444
22149856 69 16271640226724456465
22224240 67 16702302335000504009
23016692 55 15213020453500852109
23424782 7 18341046325532796843
23557571 272 17987506022867251210
238 59 18187080621014570558
3004659 81 16298386863737263948
3472631 163 17203039682659672860
34797466 226 18409728474364798445
427121 178 17561371685956126298
437795 51 18411133615912836817
46194498 28 18188490293162302263
53794403 172 17844241826795582469
6442390 28 18059858350662379355
9971528 1 7348880097040414923

> <PUBCHEM_SHAPE_MULTIPOLES>
441.75
17.48
2.13
1.54
46.27
0.4
0.58
-7.08
-5.32
-3.41
0.2
-0.68
0.16
0.97

> <PUBCHEM_SHAPE_SELFOVERLAP>
891.754

> <PUBCHEM_SHAPE_VOLUME>
258.9

> <PUBCHEM_COORDINATE_TYPE>
2
5
10

$$$$

