17396529
  -OEChem-06241222573D

 37 38  0     0  0  0  0  0  0999 V2000
   -5.6729   -2.4065   -0.6243 Cl  0  0  0  0  0  0  0  0  0  0  0  0
   -3.2494    2.5887    1.2237 F   0  0  0  0  0  0  0  0  0  0  0  0
    1.5371   -0.3245   -1.2185 O   0  0  0  0  0  0  0  0  0  0  0  0
    2.6107   -1.8480    0.8438 O   0  0  0  0  0  0  0  0  0  0  0  0
   -1.0281   -1.0582   -1.5168 O   0  0  0  0  0  0  0  0  0  0  0  0
   -1.6982    0.8228   -0.2739 N   0  0  0  0  0  0  0  0  0  0  0  0
    2.7671   -0.0335   -0.7107 C   0  0  0  0  0  0  0  0  0  0  0  0
    5.2879    0.5837    0.3125 C   0  0  0  0  0  0  0  0  0  0  0  0
    3.3061   -0.7981    0.3240 C   0  0  0  0  0  0  0  0  0  0  0  0
    4.5665   -0.4896    0.8355 C   0  0  0  0  0  0  0  0  0  0  0  0
    3.4885    1.0397   -1.2338 C   0  0  0  0  0  0  0  0  0  0  0  0
    4.7488    1.3482   -0.7222 C   0  0  0  0  0  0  0  0  0  0  0  0
    0.5416    0.6931   -1.1293 C   0  0  0  0  0  0  0  0  0  0  0  0
   -3.0468    0.5361    0.0443 C   0  0  0  0  0  0  0  0  0  0  0  0
   -0.8169    0.0378   -1.0065 C   0  0  0  0  0  0  0  0  0  0  0  0
    6.6359    0.9131    0.8587 C   0  0  0  0  0  0  0  0  0  0  0  0
   -3.6269   -0.6540   -0.3946 C   0  0  0  0  0  0  0  0  0  0  0  0
   -3.7961    1.4417    0.7953 C   0  0  0  0  0  0  0  0  0  0  0  0
   -4.9562   -0.9386   -0.0824 C   0  0  0  0  0  0  0  0  0  0  0  0
   -5.1255    1.1572    1.1075 C   0  0  0  0  0  0  0  0  0  0  0  0
   -5.7057   -0.0329    0.6686 C   0  0  0  0  0  0  0  0  0  0  0  0
    3.2325   -2.5783    1.8991 C   0  0  0  0  0  0  0  0  0  0  0  0
    5.0377   -1.0452    1.6396 H   0  0  0  0  0  0  0  0  0  0  0  0
    3.0842    1.6394   -2.0448 H   0  0  0  0  0  0  0  0  0  0  0  0
    5.2996    2.1869   -1.1397 H   0  0  0  0  0  0  0  0  0  0  0  0
    0.5518    1.2935   -2.0453 H   0  0  0  0  0  0  0  0  0  0  0  0
    0.7269    1.3427   -0.2649 H   0  0  0  0  0  0  0  0  0  0  0  0
    7.2446    0.0077    0.9551 H   0  0  0  0  0  0  0  0  0  0  0  0
    7.1814    1.6009    0.2037 H   0  0  0  0  0  0  0  0  0  0  0  0
    6.5388    1.3834    1.8423 H   0  0  0  0  0  0  0  0  0  0  0  0
   -1.3586    1.7148    0.0793 H   0  0  0  0  0  0  0  0  0  0  0  0
   -3.0988   -1.3941   -0.9796 H   0  0  0  0  0  0  0  0  0  0  0  0
   -5.7085    1.8625    1.6924 H   0  0  0  0  0  0  0  0  0  0  0  0
   -6.7427   -0.2413    0.9194 H   0  0  0  0  0  0  0  0  0  0  0  0
    2.5405   -3.3756    2.1899 H   0  0  0  0  0  0  0  0  0  0  0  0
    3.3874   -1.9540    2.7857 H   0  0  0  0  0  0  0  0  0  0  0  0
    4.1549   -3.0653    1.5647 H   0  0  0  0  0  0  0  0  0  0  0  0
  1 19  1  0  0  0  0
  2 18  1  0  0  0  0
  3  7  1  0  0  0  0
  3 13  1  0  0  0  0
  4  9  1  0  0  0  0
  4 22  1  0  0  0  0
  5 15  2  0  0  0  0
  6 14  1  0  0  0  0
  6 15  1  0  0  0  0
  6 31  1  0  0  0  0
  7  9  2  0  0  0  0
  7 11  1  0  0  0  0
  8 10  2  0  0  0  0
  8 12  1  0  0  0  0
  8 16  1  0  0  0  0
  9 10  1  0  0  0  0
 10 23  1  0  0  0  0
 11 12  2  0  0  0  0
 11 24  1  0  0  0  0
 12 25  1  0  0  0  0
 13 15  1  0  0  0  0
 13 26  1  0  0  0  0
 13 27  1  0  0  0  0
 14 17  1  0  0  0  0
 14 18  2  0  0  0  0
 16 28  1  0  0  0  0
 16 29  1  0  0  0  0
 16 30  1  0  0  0  0
 17 19  2  0  0  0  0
 17 32  1  0  0  0  0
 18 20  1  0  0  0  0
 19 21  1  0  0  0  0
 20 21  2  0  0  0  0
 20 33  1  0  0  0  0
 21 34  1  0  0  0  0
 22 35  1  0  0  0  0
 22 36  1  0  0  0  0
 22 37  1  0  0  0  0
M  END
> <PUBCHEM_COMPOUND_CID>
17396529

> <PUBCHEM_CONFORMER_RMSD>
0.8

> <PUBCHEM_CONFORMER_DIVERSEORDER>
2
103
6
165
222
94
128
236
269
91
124
271
73
219
97
221
136
270
181
88
84
31
131
258
198
5
246
118
87
237
125
174
99
23
9
207
261
229
148
24
93
116
255
130
232
102
242
39
248
257
46
254
199
120
110
134
51
77
112
233
234
114
185
67
164
107
208
250
30
83
86
231
184
129
22
119
92
156
235
45
214
252
228
268
239
29
171
200
203
117
188
49
145
265
168
196
79
192
213
186
238
267
4
197
160
10
211
56
205
155
190
104
89
13
34
11
141
178
127
115
7
256
149
1
28
101
175
26
25
55
209
215
167
220
143
35
85
218
14
177
195
161
139
81
105
142
74
241
170
244
48
58
20
154
137
70
109
263
249
37
194
202
173
223
264
50
44
217
68
212
266
43
60
169
36
19
59
146
138
63
204
76
162
3
259
32
206
135
152
69
189
21
47
53
260
95
17
230
78
151
96
245
225
191
65
163
201
176
61
132
240
122
140
147
226
106
42
159
62
72
153
111
227
182
183
90
158
180
224
243
71
123
33
57
166
64
247
187
121
262
75
251
216
157
193
126
40
253
80
172
15
52
100
150
8
12
179
108
16
38
66
27
98
113
133
54
210
144
82
41
272
18

> <PUBCHEM_MMFF94_PARTIAL_CHARGES>
29
1 -0.18
10 -0.15
11 -0.15
12 -0.15
13 0.34
14 0.12
15 0.57
16 0.14
17 -0.15
18 0.19
19 0.18
2 -0.19
20 -0.15
21 -0.15
22 0.28
23 0.15
24 0.15
25 0.15
3 -0.36
31 0.37
32 0.15
33 0.15
34 0.15
4 -0.36
5 -0.57
6 -0.55
7 0.08
8 -0.14
9 0.08

> <PUBCHEM_EFFECTIVE_ROTOR_COUNT>
6

> <PUBCHEM_PHARMACOPHORE_FEATURES>
6
1 3 acceptor
1 4 acceptor
1 5 acceptor
1 6 donor
6 14 17 18 19 20 21 rings
6 7 8 9 10 11 12 rings

> <PUBCHEM_HEAVY_ATOM_COUNT>
22

> <PUBCHEM_ATOM_DEF_STEREO_COUNT>
0

> <PUBCHEM_ATOM_UDEF_STEREO_COUNT>
0

> <PUBCHEM_BOND_DEF_STEREO_COUNT>
0

> <PUBCHEM_BOND_UDEF_STEREO_COUNT>
0

> <PUBCHEM_ISOTOPIC_ATOM_COUNT>
0

> <PUBCHEM_COMPONENT_COUNT>
1

> <PUBCHEM_CACTVS_TAUTO_COUNT>
2

> <PUBCHEM_CONFORMER_ID>
0109733100000002

> <PUBCHEM_MMFF94_ENERGY>
74.0859

> <PUBCHEM_FEATURE_SELFOVERLAP>
30.458

> <PUBCHEM_SHAPE_FINGERPRINT>
10 15 17676773076528196104
10366900 7 17917701392874473236
10912923 1 18413101754110440757
114674 6 16916503787144580386
11595378 159 18334860562317497945
12107183 9 17693096674882590561
12236239 1 18410855455896556718
12596602 18 18335139791062872610
12839892 36 18260266369775571495
13533116 47 18202562895310300795
13583140 156 18341628026390318877
13726171 33 17604419816694355584
14251752 14 10735888261164638109
14252887 29 17203608229008071916
14341114 328 18410854373717785368
14386348 63 15339116844656795953
14844126 61 18263641759051977259
14848160 23 15123510289540798916
14849402 71 18267868286128602456
14863182 85 17703503385664122806
15142526 21 18124594172522973560
15183329 4 8142091948260475809
15788980 27 14261348033629344801
17857418 61 18202005413003110879
19377110 9 18412266129251689842
20432913 95 17418088845156579013
20511986 3 18342470248297308203
20645477 56 16081090368044895645
20645477 70 16415472748866979326
21033648 29 15936697055166903811
21065198 48 18411701023245778195
21315763 178 18344148098725286651
21623969 137 17132111338239094314
21728266 224 18409732851073869671
21792961 116 15068888756304161100
22224240 67 18059581244315696336
23559900 14 17534891193994717055
29717793 49 10303820908435013880
300161 21 18410293631614989533
32948 21 11024109836944321183
341906 21 17822010964327749025
3633792 109 17988658397675231991
44062 13 12175609656222063857
465052 167 16056885737084307800
5104073 3 17895461635577674563
559249 180 11600014236596406201
5758199 1 18271525309057021616
7808743 9 17530973445112354118
960060 61 8934993776821696846
9849439 229 17392179013095676377

> <PUBCHEM_SHAPE_MULTIPOLES>
424.76
16.55
2.12
1.43
0.68
0.94
0.08
-0.03
4.28
0.69
0.81
-0.2
0.11
-2.75

> <PUBCHEM_SHAPE_SELFOVERLAP>
892.143

> <PUBCHEM_SHAPE_VOLUME>
240

> <PUBCHEM_COORDINATE_TYPE>
2
5
10

$$$$

