17395986
  -OEChem-06241222533D

 43 44  0     0  0  0  0  0  0999 V2000
    6.9330   -2.1130    0.3312 Cl  0  0  0  0  0  0  0  0  0  0  0  0
    5.1010    2.1938   -2.3567 Cl  0  0  0  0  0  0  0  0  0  0  0  0
   -5.1640    1.1001   -0.7448 O   0  0  0  0  0  0  0  0  0  0  0  0
   -1.0728    2.5575    0.8549 O   0  0  0  0  0  0  0  0  0  0  0  0
   -0.0820   -0.5914    2.5222 O   0  0  0  0  0  0  0  0  0  0  0  0
   -3.6262   -0.4571    0.0317 N   0  0  0  0  0  0  0  0  0  0  0  0
   -3.1356    1.8676    0.0455 N   0  0  0  0  0  0  0  0  0  0  0  0
   -2.0387   -2.0894    0.8300 N   0  0  0  0  0  0  0  0  0  0  0  0
    2.1348   -0.4381    0.8671 N   0  0  0  0  0  0  0  0  0  0  0  0
   -4.5550   -1.5540   -0.2656 C   0  0  0  0  0  0  0  0  0  0  0  0
   -2.3679   -0.7697    0.5831 C   0  0  0  0  0  0  0  0  0  0  0  0
   -1.5073    0.2399    0.8595 C   0  0  0  0  0  0  0  0  0  0  0  0
   -4.3807   -2.0951   -1.6796 C   0  0  0  0  0  0  0  0  0  0  0  0
   -4.0559    0.8495   -0.2573 C   0  0  0  0  0  0  0  0  0  0  0  0
   -1.8743    1.6608    0.5917 C   0  0  0  0  0  0  0  0  0  0  0  0
   -0.1699   -0.0274    1.4376 C   0  0  0  0  0  0  0  0  0  0  0  0
    1.0110    0.4296    0.6180 C   0  0  0  0  0  0  0  0  0  0  0  0
   -5.3550   -3.2187   -2.0038 C   0  0  0  0  0  0  0  0  0  0  0  0
   -3.5339    3.2447   -0.2345 C   0  0  0  0  0  0  0  0  0  0  0  0
    3.3756   -0.2851    0.2662 C   0  0  0  0  0  0  0  0  0  0  0  0
    3.5894    0.7558   -0.6373 C   0  0  0  0  0  0  0  0  0  0  0  0
    4.4094   -1.1725    0.5652 C   0  0  0  0  0  0  0  0  0  0  0  0
    5.6571   -1.0191   -0.0395 C   0  0  0  0  0  0  0  0  0  0  0  0
    4.8371    0.9093   -1.2419 C   0  0  0  0  0  0  0  0  0  0  0  0
    5.8709    0.0218   -0.9430 C   0  0  0  0  0  0  0  0  0  0  0  0
   -5.5793   -1.1696   -0.1732 H   0  0  0  0  0  0  0  0  0  0  0  0
   -4.4964   -2.3415    0.4933 H   0  0  0  0  0  0  0  0  0  0  0  0
   -3.3573   -2.4635   -1.8170 H   0  0  0  0  0  0  0  0  0  0  0  0
   -4.5172   -1.2852   -2.4065 H   0  0  0  0  0  0  0  0  0  0  0  0
    1.2487    1.4563    0.9154 H   0  0  0  0  0  0  0  0  0  0  0  0
    0.7398    0.4008   -0.4434 H   0  0  0  0  0  0  0  0  0  0  0  0
   -5.1957   -3.5763   -3.0258 H   0  0  0  0  0  0  0  0  0  0  0  0
   -6.3905   -2.8740   -1.9207 H   0  0  0  0  0  0  0  0  0  0  0  0
   -5.2172   -4.0633   -1.3214 H   0  0  0  0  0  0  0  0  0  0  0  0
   -3.7595    3.3329   -1.3021 H   0  0  0  0  0  0  0  0  0  0  0  0
   -2.7632    3.9714    0.0321 H   0  0  0  0  0  0  0  0  0  0  0  0
   -4.4477    3.4653    0.3268 H   0  0  0  0  0  0  0  0  0  0  0  0
   -2.6060   -2.8437    0.4714 H   0  0  0  0  0  0  0  0  0  0  0  0
   -1.1332   -2.3156    1.2227 H   0  0  0  0  0  0  0  0  0  0  0  0
    2.0212   -1.2091    1.5166 H   0  0  0  0  0  0  0  0  0  0  0  0
    2.8025    1.4621   -0.8884 H   0  0  0  0  0  0  0  0  0  0  0  0
    4.2421   -1.9841    1.2702 H   0  0  0  0  0  0  0  0  0  0  0  0
    6.8441    0.1416   -1.4143 H   0  0  0  0  0  0  0  0  0  0  0  0
  1 23  1  0  0  0  0
  2 24  1  0  0  0  0
  3 14  2  0  0  0  0
  4 15  2  0  0  0  0
  5 16  2  0  0  0  0
  6 10  1  0  0  0  0
  6 11  1  0  0  0  0
  6 14  1  0  0  0  0
  7 14  1  0  0  0  0
  7 15  1  0  0  0  0
  7 19  1  0  0  0  0
  8 11  1  0  0  0  0
  8 38  1  0  0  0  0
  8 39  1  0  0  0  0
  9 17  1  0  0  0  0
  9 20  1  0  0  0  0
  9 40  1  0  0  0  0
 10 13  1  0  0  0  0
 10 26  1  0  0  0  0
 10 27  1  0  0  0  0
 11 12  2  0  0  0  0
 12 15  1  0  0  0  0
 12 16  1  0  0  0  0
 13 18  1  0  0  0  0
 13 28  1  0  0  0  0
 13 29  1  0  0  0  0
 16 17  1  0  0  0  0
 17 30  1  0  0  0  0
 17 31  1  0  0  0  0
 18 32  1  0  0  0  0
 18 33  1  0  0  0  0
 18 34  1  0  0  0  0
 19 35  1  0  0  0  0
 19 36  1  0  0  0  0
 19 37  1  0  0  0  0
 20 21  2  0  0  0  0
 20 22  1  0  0  0  0
 21 24  1  0  0  0  0
 21 41  1  0  0  0  0
 22 23  2  0  0  0  0
 22 42  1  0  0  0  0
 23 25  1  0  0  0  0
 24 25  2  0  0  0  0
 25 43  1  0  0  0  0
M  END
> <PUBCHEM_COMPOUND_CID>
17395986

> <PUBCHEM_CONFORMER_RMSD>
0.8

> <PUBCHEM_CONFORMER_DIVERSEORDER>
1
131
14
168
71
63
75
50
109
217
133
212
198
174
170
105
130
103
12
161
144
101
94
216
8
135
145
203
82
123
54
18
134
22
53
176
92
100
202
48
177
204
164
20
137
190
87
29
167
152
178
192
163
39
115
81
175
215
208
129
15
47
189
185
181
21
139
104
180
119
98
197
38
51
186
88
16
156
188
121
213
28
182
35
72
199
193
210
108
141
80
32
36
44
37
142
207
111
13
143
118
162
183
34
68
74
85
45
122
195
5
172
3
4
86
116
146
91
114
19
65
159
60
30
42
40
83
76
140
2
173
169
157
23
127
106
150
154
191
165
148
171
205
41
187
6
200
147
27
61
25
149
151
206
128
31
120
57
33
107
93
90
17
59
9
201
214
196
64
49
26
166
67
110
132
194
125
62
179
138
99
153
117
69
52
211
73
160
84
77
66
209
70
158
11
78
102
58
24
113
55
136
97
79
126
10
112
95
46
56
7
89
43
96
184
124
155

> <PUBCHEM_MMFF94_PARTIAL_CHARGES>
29
1 -0.18
10 0.3
11 0.21
12 0.03
14 0.69
15 0.62
16 0.49
17 0.43
19 0.3
2 -0.18
20 0.1
21 -0.15
22 -0.15
23 0.18
24 0.18
25 -0.15
3 -0.57
38 0.4
39 0.4
4 -0.57
40 0.4
41 0.15
42 0.15
43 0.15
5 -0.57
6 -0.47
7 -0.42
8 -0.9
9 -0.87

> <PUBCHEM_EFFECTIVE_ROTOR_COUNT>
6

> <PUBCHEM_PHARMACOPHORE_FEATURES>
11
1 12 anion
1 18 hydrophobe
1 3 acceptor
1 4 acceptor
1 5 acceptor
1 8 cation
1 8 donor
1 9 cation
1 9 donor
6 20 21 22 23 24 25 rings
6 6 7 11 12 14 15 rings

> <PUBCHEM_HEAVY_ATOM_COUNT>
25

> <PUBCHEM_ATOM_DEF_STEREO_COUNT>
0

> <PUBCHEM_ATOM_UDEF_STEREO_COUNT>
0

> <PUBCHEM_BOND_DEF_STEREO_COUNT>
0

> <PUBCHEM_BOND_UDEF_STEREO_COUNT>
0

> <PUBCHEM_ISOTOPIC_ATOM_COUNT>
0

> <PUBCHEM_COMPONENT_COUNT>
1

> <PUBCHEM_CACTVS_TAUTO_COUNT>
10

> <PUBCHEM_CONFORMER_ID>
0109711200000001

> <PUBCHEM_MMFF94_ENERGY>
70.1864

> <PUBCHEM_FEATURE_SELFOVERLAP>
55.817

> <PUBCHEM_SHAPE_FINGERPRINT>
10 15 9727356883208690975
10595046 47 18343016679864524988
11089746 13 17632572778153923528
12788726 201 18263646336806035953
12969540 114 16128379267769984451
13673619 4 17604431782905439395
13690498 29 18410582747765800967
13782708 43 17604153627205329406
14251751 18 17967540055843325538
14251757 5 18339642244124404939
14347332 77 18334860502319642679
15183329 4 17489589000322716066
15461852 350 18261109669914245262
16994733 274 14763808398811311375
1813 80 14851599982092806360
18681886 176 18410858772640068042
193927 3 16153701007899630280
19438510 23 14044645356305865799
20775438 99 17252897969429877799
21033648 144 17060051511308776318
21033648 29 14333130750013640598
21709351 56 18130506435523371662
23379529 103 17683818609811885647
23402539 116 18342176686865862842
23522609 53 18046313441092182345
23559900 14 18335992990711988936
2838139 119 17418097637002191580
3004659 81 18343585170584435634
312425 54 7132443431750746062
3610482 184 18199730544635587109
4015057 19 17988635264717670280
44062 13 18186525410191374495
531348 171 18336265759642231967
633830 44 17703787080341749800
6700243 42 17605808439624054668
7237137 82 18409731742502796045
86090 222 15864615181774135790

> <PUBCHEM_SHAPE_MULTIPOLES>
480.7
16.33
3.08
1.74
14.68
0.39
-0.42
-6.58
-8
-3.64
-1.27
0.09
-0.27
-3.83

> <PUBCHEM_SHAPE_SELFOVERLAP>
991.981

> <PUBCHEM_SHAPE_VOLUME>
276.4

> <PUBCHEM_COORDINATE_TYPE>
2
5
10

$$$$

