17395383
  -OEChem-06241222493D

 42 44  0     1  0  0  0  0  0999 V2000
   -1.6918   -0.0436    0.5702 O   0  0  0  0  0  0  0  0  0  0  0  0
   -4.1137   -1.1524   -0.5297 O   0  0  0  0  0  0  0  0  0  0  0  0
    1.0969   -0.2753    1.6534 O   0  0  0  0  0  0  0  0  0  0  0  0
    0.5917   -1.9862    0.1760 N   0  0  0  0  0  0  0  0  0  0  0  0
    2.7042   -0.8983    0.0909 N   0  0  0  0  0  0  0  0  0  0  0  0
    3.8398    2.6186    0.3091 N   0  0  0  0  0  0  0  0  0  0  0  0
   -1.7607   -1.3630    0.0117 C   0  0  1  0  0  0  0  0  0  0  0  0
   -0.7164   -2.2183    0.7138 C   0  0  0  0  0  0  0  0  0  0  0  0
   -3.1613   -1.9295    0.2034 C   0  0  0  0  0  0  0  0  0  0  0  0
    1.0009   -2.8378   -0.9528 C   0  0  0  0  0  0  0  0  0  0  0  0
   -2.7620    0.7286    0.2025 C   0  0  0  0  0  0  0  0  0  0  0  0
   -3.9315    0.1922   -0.3406 C   0  0  0  0  0  0  0  0  0  0  0  0
    1.4532   -0.9813    0.7075 C   0  0  0  0  0  0  0  0  0  0  0  0
    1.6931   -4.0977   -0.4750 C   0  0  0  0  0  0  0  0  0  0  0  0
   -2.6511    2.1050    0.4015 C   0  0  0  0  0  0  0  0  0  0  0  0
   -4.9736    1.0357   -0.7262 C   0  0  0  0  0  0  0  0  0  0  0  0
   -3.6991    2.9466    0.0283 C   0  0  0  0  0  0  0  0  0  0  0  0
   -4.8565    2.4133   -0.5397 C   0  0  0  0  0  0  0  0  0  0  0  0
    3.5184    0.2513   -0.0620 C   0  0  0  0  0  0  0  0  0  0  0  0
    4.7497    0.1774   -0.7040 C   0  0  0  0  0  0  0  0  0  0  0  0
    3.1126    1.4845    0.4224 C   0  0  0  0  0  0  0  0  0  0  0  0
    5.5265    1.3226   -0.8399 C   0  0  0  0  0  0  0  0  0  0  0  0
    5.0308    2.5078   -0.3209 C   0  0  0  0  0  0  0  0  0  0  0  0
   -1.5381   -1.2845   -1.0619 H   0  0  0  0  0  0  0  0  0  0  0  0
   -0.9450   -3.2857    0.6153 H   0  0  0  0  0  0  0  0  0  0  0  0
   -0.7027   -1.9863    1.7856 H   0  0  0  0  0  0  0  0  0  0  0  0
   -3.4582   -1.9372    1.2601 H   0  0  0  0  0  0  0  0  0  0  0  0
   -3.2208   -2.9560   -0.1733 H   0  0  0  0  0  0  0  0  0  0  0  0
    0.1065   -3.1026   -1.5293 H   0  0  0  0  0  0  0  0  0  0  0  0
    1.6458   -2.2819   -1.6399 H   0  0  0  0  0  0  0  0  0  0  0  0
    1.9940   -4.7125   -1.3290 H   0  0  0  0  0  0  0  0  0  0  0  0
    1.0295   -4.6979    0.1560 H   0  0  0  0  0  0  0  0  0  0  0  0
    2.5878   -3.8706    0.1129 H   0  0  0  0  0  0  0  0  0  0  0  0
   -1.7494    2.5291    0.8350 H   0  0  0  0  0  0  0  0  0  0  0  0
   -5.8820    0.6280   -1.1611 H   0  0  0  0  0  0  0  0  0  0  0  0
    3.0807   -1.7354   -0.3420 H   0  0  0  0  0  0  0  0  0  0  0  0
   -3.6123    4.0192    0.1761 H   0  0  0  0  0  0  0  0  0  0  0  0
   -5.6694    3.0713   -0.8331 H   0  0  0  0  0  0  0  0  0  0  0  0
    5.1141   -0.7658   -1.1022 H   0  0  0  0  0  0  0  0  0  0  0  0
    2.1633    1.6486    0.9162 H   0  0  0  0  0  0  0  0  0  0  0  0
    6.4893    1.2886   -1.3366 H   0  0  0  0  0  0  0  0  0  0  0  0
    5.5980    3.4293   -0.4010 H   0  0  0  0  0  0  0  0  0  0  0  0
  1  7  1  0  0  0  0
  1 11  1  0  0  0  0
  2  9  1  0  0  0  0
  2 12  1  0  0  0  0
  3 13  2  0  0  0  0
  4  8  1  0  0  0  0
  4 10  1  0  0  0  0
  4 13  1  0  0  0  0
  5 13  1  0  0  0  0
  5 19  1  0  0  0  0
  5 36  1  0  0  0  0
  6 21  1  0  0  0  0
  6 23  2  0  0  0  0
  7  8  1  0  0  0  0
  7  9  1  0  0  0  0
  7 24  1  0  0  0  0
  8 25  1  0  0  0  0
  8 26  1  0  0  0  0
  9 27  1  0  0  0  0
  9 28  1  0  0  0  0
 10 14  1  0  0  0  0
 10 29  1  0  0  0  0
 10 30  1  0  0  0  0
 11 12  1  0  0  0  0
 11 15  2  0  0  0  0
 12 16  2  0  0  0  0
 14 31  1  0  0  0  0
 14 32  1  0  0  0  0
 14 33  1  0  0  0  0
 15 17  1  0  0  0  0
 15 34  1  0  0  0  0
 16 18  1  0  0  0  0
 16 35  1  0  0  0  0
 17 18  2  0  0  0  0
 17 37  1  0  0  0  0
 18 38  1  0  0  0  0
 19 20  1  0  0  0  0
 19 21  2  0  0  0  0
 20 22  2  0  0  0  0
 20 39  1  0  0  0  0
 21 40  1  0  0  0  0
 22 23  1  0  0  0  0
 22 41  1  0  0  0  0
 23 42  1  0  0  0  0
M  END
> <PUBCHEM_COMPOUND_CID>
17395383

> <PUBCHEM_CONFORMER_RMSD>
1

> <PUBCHEM_CONFORMER_DIVERSEORDER>
1
220
43
248
215
199
37
65
115
97
190
214
140
77
225
128
53
52
249
18
35
64
9
224
238
212
106
120
176
112
158
204
250
67
104
39
184
229
141
189
167
78
196
173
232
160
135
144
110
75
171
23
143
82
188
170
185
76
236
57
178
218
47
183
49
99
147
200
73
182
87
201
68
30
152
60
217
102
235
5
254
44
118
100
19
151
138
84
157
154
55
20
230
2
239
10
127
161
251
164
253
46
145
86
107
54
255
122
119
163
174
207
48
124
202
7
17
111
187
96
234
130
62
61
245
137
74
194
206
246
105
58
123
243
116
172
222
72
24
205
136
209
63
227
193
42
91
27
108
211
228
113
85
50
139
233
179
169
21
142
244
80
117
98
4
195
247
92
12
51
180
198
208
93
181
252
31
166
216
81
14
148
197
223
192
36
69
59
213
221
126
219
109
210
186
203
38
240
11
156
28
175
134
40
125
159
83
241
133
177
155
101
165
56
3
88
79
26
6
146
226
66
70
103
13
168
131
41
231
121
150
242
162
45
89
16
90
34
25
191
94
8
149
71
22
95
114
15
32
33
153
29
237
129
132

> <PUBCHEM_MMFF94_PARTIAL_CHARGES>
31
1 -0.36
10 0.3
11 0.08
12 0.08
13 0.69
15 -0.15
16 -0.15
17 -0.15
18 -0.15
19 0.12
2 -0.36
20 -0.15
21 0.16
22 -0.15
23 0.16
3 -0.57
34 0.15
35 0.15
36 0.37
37 0.15
38 0.15
39 0.15
4 -0.66
40 0.15
41 0.15
42 0.15
5 -0.55
6 -0.62
7 0.28
8 0.3
9 0.28

> <PUBCHEM_EFFECTIVE_ROTOR_COUNT>
6.8

> <PUBCHEM_PHARMACOPHORE_FEATURES>
8
1 1 acceptor
1 2 acceptor
1 3 acceptor
1 5 donor
1 6 acceptor
6 1 2 7 9 11 12 rings
6 11 12 15 16 17 18 rings
6 6 19 20 21 22 23 rings

> <PUBCHEM_HEAVY_ATOM_COUNT>
23

> <PUBCHEM_ATOM_DEF_STEREO_COUNT>
0

> <PUBCHEM_ATOM_UDEF_STEREO_COUNT>
1

> <PUBCHEM_BOND_DEF_STEREO_COUNT>
0

> <PUBCHEM_BOND_UDEF_STEREO_COUNT>
0

> <PUBCHEM_ISOTOPIC_ATOM_COUNT>
0

> <PUBCHEM_COMPONENT_COUNT>
1

> <PUBCHEM_CACTVS_TAUTO_COUNT>
2

> <PUBCHEM_CONFORMER_ID>
01096EB700000001

> <PUBCHEM_MMFF94_ENERGY>
70.2542

> <PUBCHEM_FEATURE_SELFOVERLAP>
40.638

> <PUBCHEM_SHAPE_FINGERPRINT>
10498660 4 18410858754495029297
10670039 82 18341052934754274956
11273773 38 17040347485012801872
11370993 70 18410293592712461356
11796584 16 7276569567782719302
12107183 9 18128550430276622330
12173636 292 18265337201190635982
12769317 202 18337117868353018632
12788726 201 17840879473051342330
13103583 49 10951775226111023775
13590594 115 17402040596908125426
14251764 75 18338505421958018937
14468879 13 18271800216121135731
14739800 52 18196954192493337552
14840074 17 17275096211192803620
14848178 96 18339927111787493917
15163728 17 18270661126654829926
15183329 4 18410848889819898006
15198563 99 17903640674917515591
15575132 122 18340767035955714877
16994733 274 16342608157483576175
17834072 32 18412824698380907416
21033648 144 18130799953092508484
21033648 29 18262523563862270264
21859007 373 18336554846266420384
221357 26 18187927218507395576
22393880 68 18334011688085785214
23227448 37 18410857659663250461
23559900 14 18045510956401481931
245318 6 17630590250714105388
26353 1 16235646265246273334
2838139 119 18341054030134257836
3298306 158 18259705592711156470
3472631 163 18338800134476928149
474 4 18270685388787798187
5486654 36 8935004793349728919
6299153 45 18200322125626558488
6328613 192 18059284363450057612
7288768 16 17917991689814068051
7808743 9 18413392025090470409
9981440 41 18341613681083739706

> <PUBCHEM_SHAPE_MULTIPOLES>
440.78
12
4.19
0.93
3.15
1.84
-0.08
-10.98
3.19
0.86
0.52
0.2
0.12
0.28

> <PUBCHEM_SHAPE_SELFOVERLAP>
939.672

> <PUBCHEM_SHAPE_VOLUME>
241.9

> <PUBCHEM_COORDINATE_TYPE>
2
5
10

$$$$

