9897
  -OEChem-06261204103D

 16 15  0     1  0  0  0  0  0999 V2000
    2.4389    0.4251   -0.4162 F   0  0  0  0  0  0  0  0  0  0  0  0
    1.3783   -1.4782   -0.5581 F   0  0  0  0  0  0  0  0  0  0  0  0
    1.3980   -0.3828    1.3252 F   0  0  0  0  0  0  0  0  0  0  0  0
   -1.0375   -0.2897    0.0355 O   0  0  0  0  0  0  0  0  0  0  0  0
    0.1065    1.7797    0.1605 O   0  0  0  0  0  0  0  0  0  0  0  0
    0.0704    0.4832   -0.4256 C   0  0  1  0  0  0  0  0  0  0  0  0
    1.3346   -0.2409   -0.0170 C   0  0  0  0  0  0  0  0  0  0  0  0
   -2.2866    0.2909   -0.3142 C   0  0  0  0  0  0  0  0  0  0  0  0
   -3.4026   -0.5873    0.2099 C   0  0  0  0  0  0  0  0  0  0  0  0
    0.0380    0.5758   -1.5175 H   0  0  0  0  0  0  0  0  0  0  0  0
   -2.3791    1.2881    0.1290 H   0  0  0  0  0  0  0  0  0  0  0  0
   -2.3619    0.3765   -1.4038 H   0  0  0  0  0  0  0  0  0  0  0  0
   -4.3811   -0.1696   -0.0434 H   0  0  0  0  0  0  0  0  0  0  0  0
   -3.3296   -1.5957   -0.2107 H   0  0  0  0  0  0  0  0  0  0  0  0
   -3.3334   -0.6907    1.2979 H   0  0  0  0  0  0  0  0  0  0  0  0
   -0.3928    2.3755   -0.4233 H   0  0  0  0  0  0  0  0  0  0  0  0
  1  7  1  0  0  0  0
  2  7  1  0  0  0  0
  3  7  1  0  0  0  0
  4  6  1  0  0  0  0
  4  8  1  0  0  0  0
  5  6  1  0  0  0  0
  5 16  1  0  0  0  0
  6  7  1  0  0  0  0
  6 10  1  0  0  0  0
  8  9  1  0  0  0  0
  8 11  1  0  0  0  0
  8 12  1  0  0  0  0
  9 13  1  0  0  0  0
  9 14  1  0  0  0  0
  9 15  1  0  0  0  0
M  END
> <PUBCHEM_COMPOUND_CID>
9897

> <PUBCHEM_CONFORMER_RMSD>
0.6

> <PUBCHEM_CONFORMER_DIVERSEORDER>
1
4
6
2
7
5
3

> <PUBCHEM_MMFF94_PARTIAL_CHARGES>
9
1 -0.34
16 0.4
2 -0.34
3 -0.34
4 -0.56
5 -0.68
6 0.56
7 1.02
8 0.28

> <PUBCHEM_EFFECTIVE_ROTOR_COUNT>
3

> <PUBCHEM_PHARMACOPHORE_FEATURES>
3
1 4 acceptor
1 5 acceptor
1 5 donor

> <PUBCHEM_HEAVY_ATOM_COUNT>
9

> <PUBCHEM_ATOM_DEF_STEREO_COUNT>
0

> <PUBCHEM_ATOM_UDEF_STEREO_COUNT>
1

> <PUBCHEM_BOND_DEF_STEREO_COUNT>
0

> <PUBCHEM_BOND_UDEF_STEREO_COUNT>
0

> <PUBCHEM_ISOTOPIC_ATOM_COUNT>
0

> <PUBCHEM_COMPONENT_COUNT>
1

> <PUBCHEM_CACTVS_TAUTO_COUNT>
1

> <PUBCHEM_CONFORMER_ID>
000026A900000001

> <PUBCHEM_MMFF94_ENERGY>
3.8052

> <PUBCHEM_FEATURE_SELFOVERLAP>
15.26

> <PUBCHEM_SHAPE_FINGERPRINT>
10857977 72 18336276681917684441
12932764 1 17022908964702882173
14390081 3 9511462213011757391
20653091 64 18272084955468468473
23552333 60 17846502572951505560
23552423 10 18127686247763419199
23552449 11 18270412598329905497
24536 1 18122360230781800356
29004967 10 18408605872380889577
5460574 1 7637405124938279007

> <PUBCHEM_SHAPE_MULTIPOLES>
151.66
4
1.18
0.79
3.07
0.23
-0.15
-0.84
-0.05
-0.27
0.03
-0.22
-0.09
0.08

> <PUBCHEM_SHAPE_SELFOVERLAP>
284.705

> <PUBCHEM_SHAPE_VOLUME>
95.6

> <PUBCHEM_COORDINATE_TYPE>
2
5
10

$$$$

