13138
  -OEChem-06261207482D

 41 40  0     0  0  0  0  0  0999 V2000
    5.4641   -1.2990    0.0000 P   0  0  0  0  0  0  0  0  0  0  0  0
    5.9641   -2.1651    0.0000 O   0  0  0  0  0  0  0  0  0  0  0  0
    6.3301   -0.7990    0.0000 C   0  0  0  0  0  0  0  0  0  0  0  0
    4.5981   -1.7990    0.0000 C   0  0  0  0  0  0  0  0  0  0  0  0
    4.9641   -0.4330    0.0000 C   0  0  0  0  0  0  0  0  0  0  0  0
    7.1962   -1.2990    0.0000 C   0  0  0  0  0  0  0  0  0  0  0  0
    3.7320   -1.2990    0.0000 C   0  0  0  0  0  0  0  0  0  0  0  0
    5.4641    0.4330    0.0000 C   0  0  0  0  0  0  0  0  0  0  0  0
    8.0622   -0.7990    0.0000 C   0  0  0  0  0  0  0  0  0  0  0  0
    2.8660   -1.7990    0.0000 C   0  0  0  0  0  0  0  0  0  0  0  0
    4.9641    1.2990    0.0000 C   0  0  0  0  0  0  0  0  0  0  0  0
    5.4641    2.1651    0.0000 C   0  0  0  0  0  0  0  0  0  0  0  0
    2.0000   -1.2990    0.0000 C   0  0  0  0  0  0  0  0  0  0  0  0
    8.9282   -1.2990    0.0000 C   0  0  0  0  0  0  0  0  0  0  0  0
    6.7287   -0.3241    0.0000 H   0  0  0  0  0  0  0  0  0  0  0  0
    5.9316   -0.3241    0.0000 H   0  0  0  0  0  0  0  0  0  0  0  0
    4.1996   -2.2740    0.0000 H   0  0  0  0  0  0  0  0  0  0  0  0
    4.9966   -2.2740    0.0000 H   0  0  0  0  0  0  0  0  0  0  0  0
    4.4892   -0.0345    0.0000 H   0  0  0  0  0  0  0  0  0  0  0  0
    4.4892   -0.8315    0.0000 H   0  0  0  0  0  0  0  0  0  0  0  0
    5.9390    0.0345    0.0000 H   0  0  0  0  0  0  0  0  0  0  0  0
    5.9390    0.8315    0.0000 H   0  0  0  0  0  0  0  0  0  0  0  0
    4.1306   -0.8241    0.0000 H   0  0  0  0  0  0  0  0  0  0  0  0
    3.3335   -0.8241    0.0000 H   0  0  0  0  0  0  0  0  0  0  0  0
    6.7976   -1.7740    0.0000 H   0  0  0  0  0  0  0  0  0  0  0  0
    7.5947   -1.7740    0.0000 H   0  0  0  0  0  0  0  0  0  0  0  0
    8.4607   -0.3241    0.0000 H   0  0  0  0  0  0  0  0  0  0  0  0
    7.6636   -0.3241    0.0000 H   0  0  0  0  0  0  0  0  0  0  0  0
    2.4675   -2.2740    0.0000 H   0  0  0  0  0  0  0  0  0  0  0  0
    3.2646   -2.2740    0.0000 H   0  0  0  0  0  0  0  0  0  0  0  0
    4.4892    1.6976    0.0000 H   0  0  0  0  0  0  0  0  0  0  0  0
    4.4892    0.9005    0.0000 H   0  0  0  0  0  0  0  0  0  0  0  0
    6.0010    1.8551    0.0000 H   0  0  0  0  0  0  0  0  0  0  0  0
    5.7741    2.7020    0.0000 H   0  0  0  0  0  0  0  0  0  0  0  0
    4.9272    2.4751    0.0000 H   0  0  0  0  0  0  0  0  0  0  0  0
    2.3100   -0.7621    0.0000 H   0  0  0  0  0  0  0  0  0  0  0  0
    1.4631   -0.9890    0.0000 H   0  0  0  0  0  0  0  0  0  0  0  0
    1.6900   -1.8360    0.0000 H   0  0  0  0  0  0  0  0  0  0  0  0
    8.6182   -1.8360    0.0000 H   0  0  0  0  0  0  0  0  0  0  0  0
    9.4651   -1.6090    0.0000 H   0  0  0  0  0  0  0  0  0  0  0  0
    9.2382   -0.7621    0.0000 H   0  0  0  0  0  0  0  0  0  0  0  0
  1  2  2  0  0  0  0
  1  3  1  0  0  0  0
  1  4  1  0  0  0  0
  1  5  1  0  0  0  0
  3  6  1  0  0  0  0
  3 15  1  0  0  0  0
  3 16  1  0  0  0  0
  4  7  1  0  0  0  0
  4 17  1  0  0  0  0
  4 18  1  0  0  0  0
  5  8  1  0  0  0  0
  5 19  1  0  0  0  0
  5 20  1  0  0  0  0
  6  9  1  0  0  0  0
  6 25  1  0  0  0  0
  6 26  1  0  0  0  0
  7 10  1  0  0  0  0
  7 23  1  0  0  0  0
  7 24  1  0  0  0  0
  8 11  1  0  0  0  0
  8 21  1  0  0  0  0
  8 22  1  0  0  0  0
  9 14  1  0  0  0  0
  9 27  1  0  0  0  0
  9 28  1  0  0  0  0
 10 13  1  0  0  0  0
 10 29  1  0  0  0  0
 10 30  1  0  0  0  0
 11 12  1  0  0  0  0
 11 31  1  0  0  0  0
 11 32  1  0  0  0  0
 12 33  1  0  0  0  0
 12 34  1  0  0  0  0
 12 35  1  0  0  0  0
 13 36  1  0  0  0  0
 13 37  1  0  0  0  0
 13 38  1  0  0  0  0
 14 39  1  0  0  0  0
 14 40  1  0  0  0  0
 14 41  1  0  0  0  0
M  END
> <PUBCHEM_COMPOUND_CID>
13138

> <PUBCHEM_COMPOUND_CANONICALIZED>
1

> <PUBCHEM_CACTVS_COMPLEXITY>
137

> <PUBCHEM_CACTVS_HBOND_ACCEPTOR>
1

> <PUBCHEM_CACTVS_HBOND_DONOR>
0

> <PUBCHEM_CACTVS_ROTATABLE_BOND>
9

> <PUBCHEM_CACTVS_SUBSKEYS>
AAADceBwIAIAAAAAAAAAAAAAAAAAAAAAAAAAAAAAAAAAAAAAAAAAGAgAACAACACIAAACAAAAACAAQAAAAAAAAAAAAAAAAAAAAAAAAAAAAAAAAAAAAAAAAAAAAAAAAAAAAAAAAAAAAAAAAAAAAAAAAAAAAA==

> <PUBCHEM_IUPAC_OPENEYE_NAME>
1-dibutylphosphorylbutane

> <PUBCHEM_IUPAC_CAS_NAME>
1-dibutylphosphorylbutane

> <PUBCHEM_IUPAC_NAME>
1-dibutylphosphorylbutane

> <PUBCHEM_IUPAC_SYSTEMATIC_NAME>
1-dibutylphosphorylbutane

> <PUBCHEM_IUPAC_TRADITIONAL_NAME>
1-dibutylphosphorylbutane

> <PUBCHEM_IUPAC_INCHI>
InChI=1S/C12H27OP/c1-4-7-10-14(13,11-8-5-2)12-9-6-3/h4-12H2,1-3H3

> <PUBCHEM_IUPAC_INCHIKEY>
MNZAKDODWSQONA-UHFFFAOYSA-N

> <PUBCHEM_XLOGP3_AA>
3.1

> <PUBCHEM_EXACT_MASS>
218.179952

> <PUBCHEM_MOLECULAR_FORMULA>
C12H27OP

> <PUBCHEM_MOLECULAR_WEIGHT>
218.315942

> <PUBCHEM_OPENEYE_CAN_SMILES>
CCCCP(=O)(CCCC)CCCC

> <PUBCHEM_OPENEYE_ISO_SMILES>
CCCCP(=O)(CCCC)CCCC

> <PUBCHEM_CACTVS_TPSA>
17.1

> <PUBCHEM_MONOISOTOPIC_WEIGHT>
218.179952

> <PUBCHEM_TOTAL_CHARGE>
0

> <PUBCHEM_HEAVY_ATOM_COUNT>
14

> <PUBCHEM_ATOM_DEF_STEREO_COUNT>
0

> <PUBCHEM_ATOM_UDEF_STEREO_COUNT>
0

> <PUBCHEM_BOND_DEF_STEREO_COUNT>
0

> <PUBCHEM_BOND_UDEF_STEREO_COUNT>
0

> <PUBCHEM_ISOTOPIC_ATOM_COUNT>
0

> <PUBCHEM_COMPONENT_COUNT>
1

> <PUBCHEM_CACTVS_TAUTO_COUNT>
1

> <PUBCHEM_COORDINATE_TYPE>
1
5
255

$$$$

