10627
  -OEChem-06261204463D

 59 60  0     1  0  0  0  0  0999 V2000
   -1.8560   -1.1649   -0.3661 O   0  0  0  0  0  0  0  0  0  0  0  0
    0.7594    1.3748    0.5480 O   0  0  0  0  0  0  0  0  0  0  0  0
    4.1684    0.4164    0.9630 O   0  0  0  0  0  0  0  0  0  0  0  0
    1.4908   -0.5765   -1.3462 O   0  0  0  0  0  0  0  0  0  0  0  0
    3.2815    3.0820    0.0756 O   0  0  0  0  0  0  0  0  0  0  0  0
    2.0468    0.8725    2.3823 O   0  0  0  0  0  0  0  0  0  0  0  0
   -2.5086   -2.4313    1.4427 O   0  0  0  0  0  0  0  0  0  0  0  0
   -3.3204    1.9989   -0.9464 N   0  0  1  0  0  0  0  0  0  0  0  0
   -2.1338    1.2457   -0.4358 C   0  0  2  0  0  0  0  0  0  0  0  0
   -2.6725   -0.0934    0.0718 C   0  0  1  0  0  0  0  0  0  0  0  0
   -4.0584   -0.1826   -0.5433 C   0  0  0  0  0  0  0  0  0  0  0  0
   -4.5151    1.2608   -0.5088 C   0  0  0  0  0  0  0  0  0  0  0  0
   -1.5126    2.1223    0.6091 C   0  0  0  0  0  0  0  0  0  0  0  0
   -3.2454    3.3495   -0.3484 C   0  0  0  0  0  0  0  0  0  0  0  0
   -2.1399    3.3010    0.6523 C   0  0  0  0  0  0  0  0  0  0  0  0
   -0.3356    1.6999    1.4102 C   0  0  0  0  0  0  0  0  0  0  0  0
    3.0047    0.6571    0.1430 C   0  0  1  0  0  0  0  0  0  0  0  0
    2.7231   -0.6753   -0.6284 C   0  0  0  0  0  0  0  0  0  0  0  0
    1.9038    0.9707    1.1687 C   0  0  0  0  0  0  0  0  0  0  0  0
    3.3532    1.8965   -0.7292 C   0  0  1  0  0  0  0  0  0  0  0  0
   -1.8623   -2.2879    0.4146 C   0  0  0  0  0  0  0  0  0  0  0  0
    2.6005   -1.8789    0.3249 C   0  0  0  0  0  0  0  0  0  0  0  0
    3.8269   -0.9862   -1.6540 C   0  0  0  0  0  0  0  0  0  0  0  0
    2.5316    2.1352   -1.9896 C   0  0  0  0  0  0  0  0  0  0  0  0
   -0.9543   -3.3213   -0.1696 C   0  0  0  0  0  0  0  0  0  0  0  0
   -0.7973   -3.3697   -1.6605 C   0  0  0  0  0  0  0  0  0  0  0  0
   -0.3692   -4.1542    0.7108 C   0  0  0  0  0  0  0  0  0  0  0  0
    0.5906   -5.2612    0.4093 C   0  0  0  0  0  0  0  0  0  0  0  0
   -1.4252    1.1043   -1.2618 H   0  0  0  0  0  0  0  0  0  0  0  0
   -2.7569   -0.0732    1.1673 H   0  0  0  0  0  0  0  0  0  0  0  0
   -4.0121   -0.5665   -1.5702 H   0  0  0  0  0  0  0  0  0  0  0  0
   -4.7183   -0.8441    0.0267 H   0  0  0  0  0  0  0  0  0  0  0  0
   -4.8160    1.5215    0.5143 H   0  0  0  0  0  0  0  0  0  0  0  0
   -5.3614    1.4393   -1.1786 H   0  0  0  0  0  0  0  0  0  0  0  0
   -2.9988    4.0759   -1.1304 H   0  0  0  0  0  0  0  0  0  0  0  0
   -4.1861    3.6650    0.1164 H   0  0  0  0  0  0  0  0  0  0  0  0
   -1.8744    4.1238    1.2999 H   0  0  0  0  0  0  0  0  0  0  0  0
   -0.5954    0.8218    2.0127 H   0  0  0  0  0  0  0  0  0  0  0  0
   -0.0265    2.5050    2.0880 H   0  0  0  0  0  0  0  0  0  0  0  0
    4.4051    1.8138   -1.0322 H   0  0  0  0  0  0  0  0  0  0  0  0
    2.3217   -2.7780   -0.2368 H   0  0  0  0  0  0  0  0  0  0  0  0
    3.5343   -2.1003    0.8499 H   0  0  0  0  0  0  0  0  0  0  0  0
    1.8053   -1.7265    1.0619 H   0  0  0  0  0  0  0  0  0  0  0  0
    3.9071   -0.2399   -2.4457 H   0  0  0  0  0  0  0  0  0  0  0  0
    3.6198   -1.9339   -2.1663 H   0  0  0  0  0  0  0  0  0  0  0  0
    4.8062   -1.0768   -1.1724 H   0  0  0  0  0  0  0  0  0  0  0  0
    2.5879    1.3278   -2.7189 H   0  0  0  0  0  0  0  0  0  0  0  0
    2.8738    3.0484   -2.4910 H   0  0  0  0  0  0  0  0  0  0  0  0
    1.4783    2.3078   -1.7466 H   0  0  0  0  0  0  0  0  0  0  0  0
    3.9388   -0.2163    1.6634 H   0  0  0  0  0  0  0  0  0  0  0  0
    1.4273   -1.3440   -1.9384 H   0  0  0  0  0  0  0  0  0  0  0  0
    3.5991    3.8256   -0.4646 H   0  0  0  0  0  0  0  0  0  0  0  0
   -0.1644   -4.1869   -2.0108 H   0  0  0  0  0  0  0  0  0  0  0  0
   -0.3716   -2.4397   -2.0425 H   0  0  0  0  0  0  0  0  0  0  0  0
   -1.7790   -3.5042   -2.1284 H   0  0  0  0  0  0  0  0  0  0  0  0
   -0.5710   -4.0312    1.7739 H   0  0  0  0  0  0  0  0  0  0  0  0
    0.9081   -5.3049   -0.6335 H   0  0  0  0  0  0  0  0  0  0  0  0
    1.4920   -5.1359    1.0183 H   0  0  0  0  0  0  0  0  0  0  0  0
    0.1380   -6.2229    0.6700 H   0  0  0  0  0  0  0  0  0  0  0  0
  1 10  1  0  0  0  0
  1 21  1  0  0  0  0
  2 16  1  0  0  0  0
  2 19  1  0  0  0  0
  3 17  1  0  0  0  0
  3 50  1  0  0  0  0
  4 18  1  0  0  0  0
  4 51  1  0  0  0  0
  5 20  1  0  0  0  0
  5 52  1  0  0  0  0
  6 19  2  0  0  0  0
  7 21  2  0  0  0  0
  8  9  1  0  0  0  0
  8 12  1  0  0  0  0
  8 14  1  0  0  0  0
  9 10  1  0  0  0  0
  9 13  1  0  0  0  0
  9 29  1  0  0  0  0
 10 11  1  0  0  0  0
 10 30  1  0  0  0  0
 11 12  1  0  0  0  0
 11 31  1  0  0  0  0
 11 32  1  0  0  0  0
 12 33  1  0  0  0  0
 12 34  1  0  0  0  0
 13 15  2  0  0  0  0
 13 16  1  0  0  0  0
 14 15  1  0  0  0  0
 14 35  1  0  0  0  0
 14 36  1  0  0  0  0
 15 37  1  0  0  0  0
 16 38  1  0  0  0  0
 16 39  1  0  0  0  0
 17 18  1  0  0  0  0
 17 19  1  0  0  0  0
 17 20  1  0  0  0  0
 18 22  1  0  0  0  0
 18 23  1  0  0  0  0
 20 24  1  0  0  0  0
 20 40  1  0  0  0  0
 21 25  1  0  0  0  0
 22 41  1  0  0  0  0
 22 42  1  0  0  0  0
 22 43  1  0  0  0  0
 23 44  1  0  0  0  0
 23 45  1  0  0  0  0
 23 46  1  0  0  0  0
 24 47  1  0  0  0  0
 24 48  1  0  0  0  0
 24 49  1  0  0  0  0
 25 26  1  0  0  0  0
 25 27  2  0  0  0  0
 26 53  1  0  0  0  0
 26 54  1  0  0  0  0
 26 55  1  0  0  0  0
 27 28  1  0  0  0  0
 27 56  1  0  0  0  0
 28 57  1  0  0  0  0
 28 58  1  0  0  0  0
 28 59  1  0  0  0  0
M  END
> <PUBCHEM_COMPOUND_CID>
10627

> <PUBCHEM_CONFORMER_RMSD>
1.2

> <PUBCHEM_CONFORMER_DIVERSEORDER>
1
324
330
178
372
253
279
214
322
185
270
93
95
396
173
124
402
244
354
191
376
340
164
299
309
150
312
64
331
380
192
89
190
304
161
184
170
94
342
256
363
155
345
189
222
260
274
317
62
348
205
361
165
180
183
327
328
223
306
176
403
177
378
130
392
286
39
344
296
156
85
203
395
288
159
248
295
280
231
232
169
293
355
264
148
302
21
218
316
87
356
65
332
249
127
172
228
163
201
262
300
90
275
357
377
352
258
158
149
96
71
373
308
277
83
230
217
337
314
118
247
22
179
388
240
368
341
261
49
289
168
237
246
282
31
213
17
379
11
160
129
250
239
333
137
325
298
78
43
321
19
199
334
5
73
53
266
284
197
374
267
91
278
104
401
105
242
76
339
382
243
72
13
215
111
186
269
60
86
144
57
153
235
55
151
131
287
44
349
92
281
30
383
364
181
61
45
102
109
120
251
98
188
126
346
245
219
140
108
273
66
353
220
80
182
226
254
114
154
23
387
47
257
204
42
202
110
366
68
138
381
18
166
307
193
271
54
99
46
115
81
103
123
211
216
121
294
362
390
234
194
229
25
315
359
145
367
292
4
122
107
310
152
335
97
116
207
263
133
290
112
265
227
318
79
291
40
35
400
15
50
268
338
351
391
350
75
241
59
162
29
106
38
187
136
132
14
134
113
212
303
171
384
399
221
252
157
386
175
208
2
174
117
375
311
370
37
28
320
233
313
147
26
67
389
393
343
206
236
101
238
84
141
88
285
272
305
36
259
323
255
135
196
74
276
82
32
394
336
69
360
146
347
358
16
63
297
33
48
52
301
365
10
198
398
128
397
9
225
139
12
369
167
210
8
319
326
34
3
77
143
209
56
142
24
371
329
119
41
200
51
7
385
27
70
125
100
224
195
58
20
283
6

> <PUBCHEM_MMFF94_PARTIAL_CHARGES>
29
1 -0.43
10 0.28
12 0.27
13 -0.28
14 0.41
15 -0.29
16 0.42
17 0.34
18 0.28
19 0.66
2 -0.43
20 0.28
21 0.71
25 -0.12
26 0.14
27 -0.29
28 0.14
3 -0.68
37 0.15
4 -0.68
5 -0.68
50 0.4
51 0.4
52 0.4
56 0.15
6 -0.57
7 -0.57
8 -0.81
9 0.41

> <PUBCHEM_EFFECTIVE_ROTOR_COUNT>
9.8

> <PUBCHEM_PHARMACOPHORE_FEATURES>
14
1 26 hydrophobe
1 28 hydrophobe
1 3 acceptor
1 3 donor
1 4 acceptor
1 4 donor
1 5 acceptor
1 5 donor
1 6 acceptor
1 7 acceptor
1 8 cation
3 18 22 23 hydrophobe
5 8 9 10 11 12 rings
5 8 9 13 14 15 rings

> <PUBCHEM_HEAVY_ATOM_COUNT>
28

> <PUBCHEM_ATOM_DEF_STEREO_COUNT>
0

> <PUBCHEM_ATOM_UDEF_STEREO_COUNT>
4

> <PUBCHEM_BOND_DEF_STEREO_COUNT>
0

> <PUBCHEM_BOND_UDEF_STEREO_COUNT>
1

> <PUBCHEM_ISOTOPIC_ATOM_COUNT>
0

> <PUBCHEM_COMPONENT_COUNT>
1

> <PUBCHEM_CACTVS_TAUTO_COUNT>
1

> <PUBCHEM_CONFORMER_ID>
0000298300000001

> <PUBCHEM_MMFF94_ENERGY>
61.1931

> <PUBCHEM_FEATURE_SELFOVERLAP>
71.421

> <PUBCHEM_SHAPE_FINGERPRINT>
10675989 125 17830459736309701288
10759866 29 18272084955679244140
1100329 8 17184467063129679571
11370993 70 18339646736317097580
12054548 360 17832699080585449424
12156800 1 4742065600595945054
12173636 292 18412549829539158749
12553582 1 17690564087382030459
12788726 201 17984980384438880867
138480 1 17618226551491426827
14790565 3 18409441501983689601
14931854 50 18046902955138163710
14955137 171 16241510549679288289
18336668 15 17117753094991514662
20642791 178 16750145714935721513
20764821 26 18337397045743960439
21860390 5 17687753057120276719
23558518 356 18189327051760887921
23559900 14 18189341328068681916
238 59 18191305077426621415
3298306 158 18265902530629447879
35225 105 18270417009050484503
5309563 4 16825871756162264831
9709674 26 18334857207921646580
9981440 41 18340494455814329971

> <PUBCHEM_SHAPE_MULTIPOLES>
530.16
7.26
5.88
1.55
1.64
6.93
0.01
-4.74
-1.66
-0.36
0.47
-0.94
-0.25
0.01

> <PUBCHEM_SHAPE_SELFOVERLAP>
1090.404

> <PUBCHEM_SHAPE_VOLUME>
307.4

> <PUBCHEM_COORDINATE_TYPE>
2
5
10

$$$$

