10863
  -OEChem-06261205033D

 42 42  0     0  0  0  0  0  0999 V2000
   -0.4753    0.3218   -0.0641 O   0  0  0  0  0  0  0  0  0  0  0  0
    0.6059    2.2654   -0.6898 O   0  0  0  0  0  0  0  0  0  0  0  0
   -5.2500   -0.4214    0.2670 N   0  0  0  0  0  0  0  0  0  0  0  0
   -4.2227    0.5548   -0.0751 C   0  0  0  0  0  0  0  0  0  0  0  0
   -2.8354   -0.0587    0.0846 C   0  0  0  0  0  0  0  0  0  0  0  0
   -5.1583   -1.5937   -0.6052 C   0  0  0  0  0  0  0  0  0  0  0  0
   -6.5825    0.1778    0.1731 C   0  0  0  0  0  0  0  0  0  0  0  0
   -1.7391    0.9454   -0.2452 C   0  0  0  0  0  0  0  0  0  0  0  0
   -6.1808   -2.6482   -0.2168 C   0  0  0  0  0  0  0  0  0  0  0  0
   -6.7005    1.3976    1.0712 C   0  0  0  0  0  0  0  0  0  0  0  0
    0.6153    1.1010   -0.3231 C   0  0  0  0  0  0  0  0  0  0  0  0
    1.8276    0.2857   -0.0828 C   0  0  0  0  0  0  0  0  0  0  0  0
    4.3148    0.1313   -0.0420 C   0  0  0  0  0  0  0  0  0  0  0  0
    3.0381    0.8344   -0.2585 C   0  0  0  0  0  0  0  0  0  0  0  0
    4.3346   -1.2542   -0.0406 C   0  0  0  0  0  0  0  0  0  0  0  0
    5.4708    0.8690    0.1560 C   0  0  0  0  0  0  0  0  0  0  0  0
    5.5431   -1.9199    0.1647 C   0  0  0  0  0  0  0  0  0  0  0  0
    6.6792    0.2032    0.3612 C   0  0  0  0  0  0  0  0  0  0  0  0
    6.7153   -1.1913    0.3655 C   0  0  0  0  0  0  0  0  0  0  0  0
   -4.2505    1.4164    0.5997 H   0  0  0  0  0  0  0  0  0  0  0  0
   -4.3527    0.9317   -1.0982 H   0  0  0  0  0  0  0  0  0  0  0  0
   -2.6645   -0.9057   -0.5868 H   0  0  0  0  0  0  0  0  0  0  0  0
   -2.6908   -0.4373    1.1048 H   0  0  0  0  0  0  0  0  0  0  0  0
   -5.2760   -1.3307   -1.6638 H   0  0  0  0  0  0  0  0  0  0  0  0
   -4.1976   -2.1020   -0.4935 H   0  0  0  0  0  0  0  0  0  0  0  0
   -6.8360    0.4544   -0.8581 H   0  0  0  0  0  0  0  0  0  0  0  0
   -7.3459   -0.5235    0.5255 H   0  0  0  0  0  0  0  0  0  0  0  0
   -1.8358    1.2805   -1.2848 H   0  0  0  0  0  0  0  0  0  0  0  0
   -1.8134    1.8141    0.4196 H   0  0  0  0  0  0  0  0  0  0  0  0
   -5.9439   -3.5927   -0.7201 H   0  0  0  0  0  0  0  0  0  0  0  0
   -7.1963   -2.3799   -0.5241 H   0  0  0  0  0  0  0  0  0  0  0  0
   -6.1744   -2.8435    0.8611 H   0  0  0  0  0  0  0  0  0  0  0  0
   -7.7560    1.6750    1.1729 H   0  0  0  0  0  0  0  0  0  0  0  0
   -6.1903    2.2734    0.6585 H   0  0  0  0  0  0  0  0  0  0  0  0
   -6.3188    1.2011    2.0790 H   0  0  0  0  0  0  0  0  0  0  0  0
    1.6751   -0.7330    0.2539 H   0  0  0  0  0  0  0  0  0  0  0  0
    3.1266    1.8721   -0.5723 H   0  0  0  0  0  0  0  0  0  0  0  0
    3.4520   -1.8616   -0.2142 H   0  0  0  0  0  0  0  0  0  0  0  0
    5.4587    1.9557    0.1569 H   0  0  0  0  0  0  0  0  0  0  0  0
    5.5728   -3.0057    0.1631 H   0  0  0  0  0  0  0  0  0  0  0  0
    7.5922    0.7703    0.5176 H   0  0  0  0  0  0  0  0  0  0  0  0
    7.6564   -1.7096    0.5240 H   0  0  0  0  0  0  0  0  0  0  0  0
  1  8  1  0  0  0  0
  1 11  1  0  0  0  0
  2 11  2  0  0  0  0
  3  4  1  0  0  0  0
  3  6  1  0  0  0  0
  3  7  1  0  0  0  0
  4  5  1  0  0  0  0
  4 20  1  0  0  0  0
  4 21  1  0  0  0  0
  5  8  1  0  0  0  0
  5 22  1  0  0  0  0
  5 23  1  0  0  0  0
  6  9  1  0  0  0  0
  6 24  1  0  0  0  0
  6 25  1  0  0  0  0
  7 10  1  0  0  0  0
  7 26  1  0  0  0  0
  7 27  1  0  0  0  0
  8 28  1  0  0  0  0
  8 29  1  0  0  0  0
  9 30  1  0  0  0  0
  9 31  1  0  0  0  0
  9 32  1  0  0  0  0
 10 33  1  0  0  0  0
 10 34  1  0  0  0  0
 10 35  1  0  0  0  0
 11 12  1  0  0  0  0
 12 14  2  0  0  0  0
 12 36  1  0  0  0  0
 13 14  1  0  0  0  0
 13 15  2  0  0  0  0
 13 16  1  0  0  0  0
 14 37  1  0  0  0  0
 15 17  1  0  0  0  0
 15 38  1  0  0  0  0
 16 18  2  0  0  0  0
 16 39  1  0  0  0  0
 17 19  2  0  0  0  0
 17 40  1  0  0  0  0
 18 19  1  0  0  0  0
 18 41  1  0  0  0  0
 19 42  1  0  0  0  0
M  END
> <PUBCHEM_COMPOUND_CID>
10863

> <PUBCHEM_CONFORMER_RMSD>
0.8

> <PUBCHEM_CONFORMER_DIVERSEORDER>
1
129
68
307
239
53
313
160
151
70
155
279
309
131
319
152
258
256
308
137
224
71
293
159
96
39
264
17
104
316
285
314
164
124
11
203
5
207
165
281
60
3
317
254
157
77
86
123
132
283
176
7
277
100
126
156
297
252
154
13
182
148
180
98
2
267
306
16
170
233
33
106
108
320
14
153
158
184
66
315
50
257
228
4
204
274
138
42
294
125
41
177
21
318
290
84
266
215
198
28
20
282
168
163
109
38
246
212
24
304
9
120
227
261
88
8
101
295
22
221
69
287
150
181
174
15
127
55
241
59
45
243
250
146
216
63
222
97
116
147
122
220
113
78
289
162
85
192
130
280
229
18
210
298
186
292
238
110
114
57
311
310
105
149
75
29
90
67
73
115
140
171
272
199
133
94
190
278
10
111
58
183
284
275
6
36
194
218
208
31
117
201
288
52
225
248
26
64
286
185
178
92
276
82
107
269
202
187
189
19
91
253
296
193
299
47
247
80
142
112
301
251
231
118
273
259
99
196
262
175
217
35
271
43
32
237
214
103
143
291
30
173
93
25
244
83
121
172
312
27
211
37
188
195
81
161
265
44
12
139
56
245
242
191
54
87
48
268
213
134
89
303
141
62
72
209
135
95
23
270
240
144
230
40
255
234
226
200
76
61
260
166
136
34
263
232
167
179
46
205
74
65
305
49
249
169
223
206
79
235
197
302
128
145
300
102
51
119
236
219

> <PUBCHEM_MMFF94_PARTIAL_CHARGES>
23
1 -0.43
11 0.71
12 -0.14
13 0.03
14 -0.18
15 -0.15
16 -0.15
17 -0.15
18 -0.15
19 -0.15
2 -0.57
3 -0.81
36 0.15
37 0.15
38 0.15
39 0.15
4 0.27
40 0.15
41 0.15
42 0.15
6 0.27
7 0.27
8 0.28

> <PUBCHEM_EFFECTIVE_ROTOR_COUNT>
9

> <PUBCHEM_PHARMACOPHORE_FEATURES>
3
1 2 acceptor
1 3 cation
6 13 15 16 17 18 19 rings

> <PUBCHEM_HEAVY_ATOM_COUNT>
19

> <PUBCHEM_ATOM_DEF_STEREO_COUNT>
0

> <PUBCHEM_ATOM_UDEF_STEREO_COUNT>
0

> <PUBCHEM_BOND_DEF_STEREO_COUNT>
0

> <PUBCHEM_BOND_UDEF_STEREO_COUNT>
1

> <PUBCHEM_ISOTOPIC_ATOM_COUNT>
0

> <PUBCHEM_COMPONENT_COUNT>
1

> <PUBCHEM_CACTVS_TAUTO_COUNT>
1

> <PUBCHEM_CONFORMER_ID>
00002A6F00000001

> <PUBCHEM_MMFF94_ENERGY>
38.1515

> <PUBCHEM_FEATURE_SELFOVERLAP>
15.223

> <PUBCHEM_SHAPE_FINGERPRINT>
10299344 5 18411134736086898146
11315181 36 18334012771029538409
11524674 6 16950283992758942495
12091667 2 17346600777337078077
12236239 1 18335138678640124681
12516196 113 18410576180259911408
12596602 18 18040716956791549954
13533116 47 18411980239708533792
13668630 136 17917996040721712899
13685833 64 18273213110011400408
13862211 1 18342176652442957342
13885169 127 18411984685268437869
1420 363 17489584575830972872
14251764 18 18333168366630023309
15183329 4 17060627685055064963
15716309 27 18411419514078166741
17093844 174 18334014991459052385
17780758 139 18186801383905861577
20526848 3 8142084282092304298
21130935 74 18335139778136285762
21150785 3 11671774971058330617
21267235 1 18337107978077083574
21623969 137 18113898269135929894
220451 1 18411131433362581733
22224240 67 16805330993801746590
23035841 295 18343584053370413257
23081809 10 18341043026343766557
23198884 109 9583518720444032469
23402539 116 18408324372241244653
23522609 53 18125690514185667933
23536379 177 18408040723478254377
23559900 14 18339086973904773057
246663 6 16271917221717669561
2767999 5 6627747781817055449
28498 318 18272373109414535173
29717793 49 17704069599375379860
3004659 81 17846779607470011180
351380 3 18413112753221115798
3663271 9 18186800279328977672
4073 2 18200871768874757626
465052 167 18260547823308528926
5104073 3 17969213461518009073
559249 180 18408886222883582639
999808 66 17917139512879852459

> <PUBCHEM_SHAPE_MULTIPOLES>
374.29
22.81
2.04
0.74
6.66
0.93
0.05
7.88
4.01
1.64
-0.16
0.38
-0.1
-1.2

> <PUBCHEM_SHAPE_SELFOVERLAP>
746.395

> <PUBCHEM_SHAPE_VOLUME>
222.3

> <PUBCHEM_COORDINATE_TYPE>
2
5
10

$$$$

