10101
  -OEChem-06261204193D

 39 40  0     0  0  0  0  0  0999 V2000
    1.5272   -2.0326   -0.7362 O   0  0  0  0  0  0  0  0  0  0  0  0
   -3.8529    1.8086    1.3627 O   0  0  0  0  0  0  0  0  0  0  0  0
    3.1697    1.3562   -0.0156 N   0  0  0  0  0  0  0  0  0  0  0  0
    0.4979    0.0359   -0.1073 C   0  0  0  0  0  0  0  0  0  0  0  0
    1.2375    0.5752   -1.3585 C   0  0  0  0  0  0  0  0  0  0  0  0
    1.0660    0.7666    1.1363 C   0  0  0  0  0  0  0  0  0  0  0  0
    2.7630    0.6007   -1.2036 C   0  0  0  0  0  0  0  0  0  0  0  0
    2.5980    0.7640    1.1973 C   0  0  0  0  0  0  0  0  0  0  0  0
   -1.0234    0.1804   -0.2799 C   0  0  0  0  0  0  0  0  0  0  0  0
    0.7944   -1.4419    0.0556 C   0  0  0  0  0  0  0  0  0  0  0  0
    0.1382   -2.1285    1.2391 C   0  0  0  0  0  0  0  0  0  0  0  0
    4.6280    1.4151    0.0805 C   0  0  0  0  0  0  0  0  0  0  0  0
   -1.7544    0.9374    0.6315 C   0  0  0  0  0  0  0  0  0  0  0  0
   -1.6614   -0.4461   -1.3470 C   0  0  0  0  0  0  0  0  0  0  0  0
   -0.1752   -3.5887    0.9679 C   0  0  0  0  0  0  0  0  0  0  0  0
   -3.1342    1.0690    0.4746 C   0  0  0  0  0  0  0  0  0  0  0  0
   -3.0410   -0.3145   -1.5040 C   0  0  0  0  0  0  0  0  0  0  0  0
   -3.7774    0.4431   -0.5933 C   0  0  0  0  0  0  0  0  0  0  0  0
    0.8920    1.5983   -1.5662 H   0  0  0  0  0  0  0  0  0  0  0  0
    0.9949   -0.0101   -2.2547 H   0  0  0  0  0  0  0  0  0  0  0  0
    0.6802    0.3494    2.0744 H   0  0  0  0  0  0  0  0  0  0  0  0
    0.7612    1.8226    1.1157 H   0  0  0  0  0  0  0  0  0  0  0  0
    3.1856   -0.4096   -1.1894 H   0  0  0  0  0  0  0  0  0  0  0  0
    3.1727    1.0896   -2.0970 H   0  0  0  0  0  0  0  0  0  0  0  0
    2.9006    1.3535    2.0718 H   0  0  0  0  0  0  0  0  0  0  0  0
    2.9698   -0.2566    1.3553 H   0  0  0  0  0  0  0  0  0  0  0  0
    0.8264   -2.0555    2.0883 H   0  0  0  0  0  0  0  0  0  0  0  0
   -0.7915   -1.6328    1.5261 H   0  0  0  0  0  0  0  0  0  0  0  0
    5.0532    1.8972   -0.8068 H   0  0  0  0  0  0  0  0  0  0  0  0
    5.0778    0.4208    0.1819 H   0  0  0  0  0  0  0  0  0  0  0  0
    4.9325    2.0205    0.9416 H   0  0  0  0  0  0  0  0  0  0  0  0
   -1.2972    1.4315    1.4810 H   0  0  0  0  0  0  0  0  0  0  0  0
   -1.1093   -1.0460   -2.0648 H   0  0  0  0  0  0  0  0  0  0  0  0
   -0.6579   -4.0447    1.8377 H   0  0  0  0  0  0  0  0  0  0  0  0
    0.7366   -4.1541    0.7492 H   0  0  0  0  0  0  0  0  0  0  0  0
   -0.8457   -3.6902    0.1081 H   0  0  0  0  0  0  0  0  0  0  0  0
   -3.5423   -0.8031   -2.3344 H   0  0  0  0  0  0  0  0  0  0  0  0
   -4.8520    0.5416   -0.7208 H   0  0  0  0  0  0  0  0  0  0  0  0
   -3.2511    2.1697    2.0359 H   0  0  0  0  0  0  0  0  0  0  0  0
  1 10  2  0  0  0  0
  2 16  1  0  0  0  0
  2 39  1  0  0  0  0
  3  7  1  0  0  0  0
  3  8  1  0  0  0  0
  3 12  1  0  0  0  0
  4  5  1  0  0  0  0
  4  6  1  0  0  0  0
  4  9  1  0  0  0  0
  4 10  1  0  0  0  0
  5  7  1  0  0  0  0
  5 19  1  0  0  0  0
  5 20  1  0  0  0  0
  6  8  1  0  0  0  0
  6 21  1  0  0  0  0
  6 22  1  0  0  0  0
  7 23  1  0  0  0  0
  7 24  1  0  0  0  0
  8 25  1  0  0  0  0
  8 26  1  0  0  0  0
  9 13  2  0  0  0  0
  9 14  1  0  0  0  0
 10 11  1  0  0  0  0
 11 15  1  0  0  0  0
 11 27  1  0  0  0  0
 11 28  1  0  0  0  0
 12 29  1  0  0  0  0
 12 30  1  0  0  0  0
 12 31  1  0  0  0  0
 13 16  1  0  0  0  0
 13 32  1  0  0  0  0
 14 17  2  0  0  0  0
 14 33  1  0  0  0  0
 15 34  1  0  0  0  0
 15 35  1  0  0  0  0
 15 36  1  0  0  0  0
 16 18  2  0  0  0  0
 17 18  1  0  0  0  0
 17 37  1  0  0  0  0
 18 38  1  0  0  0  0
M  END
> <PUBCHEM_COMPOUND_CID>
10101

> <PUBCHEM_CONFORMER_RMSD>
0.6

> <PUBCHEM_CONFORMER_DIVERSEORDER>
3
72
60
45
6
82
53
56
29
43
51
67
40
63
76
32
46
83
52
54
18
70
8
69
41
27
68
50
64
35
2
37
24
34
31
26
81
75
59
36
65
10
79
80
74
12
57
15
17
55
61
73
5
38
48
62
47
39
13
49
19
30
14
21
16
23
1
42
25
33
4
7
77
44
78
20
11
28
58
9
22
66
71

> <PUBCHEM_MMFF94_PARTIAL_CHARGES>
20
1 -0.57
10 0.45
11 0.06
12 0.27
13 -0.15
14 -0.15
16 0.08
17 -0.15
18 -0.15
2 -0.53
3 -0.81
32 0.15
33 0.15
37 0.15
38 0.15
39 0.45
4 0.2
7 0.27
8 0.27
9 -0.14

> <PUBCHEM_EFFECTIVE_ROTOR_COUNT>
4.2

> <PUBCHEM_PHARMACOPHORE_FEATURES>
6
1 1 acceptor
1 15 hydrophobe
1 2 donor
1 3 cation
6 3 4 5 6 7 8 rings
6 9 13 14 16 17 18 rings

> <PUBCHEM_HEAVY_ATOM_COUNT>
18

> <PUBCHEM_ATOM_DEF_STEREO_COUNT>
0

> <PUBCHEM_ATOM_UDEF_STEREO_COUNT>
0

> <PUBCHEM_BOND_DEF_STEREO_COUNT>
0

> <PUBCHEM_BOND_UDEF_STEREO_COUNT>
0

> <PUBCHEM_ISOTOPIC_ATOM_COUNT>
0

> <PUBCHEM_COMPONENT_COUNT>
1

> <PUBCHEM_CACTVS_TAUTO_COUNT>
6

> <PUBCHEM_CONFORMER_ID>
0000277500000003

> <PUBCHEM_MMFF94_ENERGY>
45.1009

> <PUBCHEM_FEATURE_SELFOVERLAP>
30.446

> <PUBCHEM_SHAPE_FINGERPRINT>
12119455 92 17632307756500676092
121448 382 18339652122406533623
12326174 3 17560246958274655627
12491281 212 18114184111777466202
12788726 201 17481134610397966498
13464514 151 18040989670230154944
13583140 156 15984830276690571420
14178342 30 18201706371815829713
14787075 74 18048042874477629719
15309172 13 18060423495006004261
15490181 8 18339637828744634758
15775835 57 18187079589747990457
15852999 172 18340770351691774206
16752209 62 17842009783794275010
16945 1 17823153232317877351
1813 80 17832704956359790622
18186145 218 18412257363503000732
19765921 60 18334571369263243369
201361 129 18264204880012026745
204376 136 18202566150679096628
20510252 161 17980483356079805147
21524375 3 18409737231259743748
2255824 54 18267585899695126243
22907989 373 17836071282932273526
23236772 104 18259990362107066117
23402539 116 18186805760193121692
23419403 2 17110653329620918775
23493267 7 17240203240013248893
23557571 272 17834674890570427676
23558518 356 17972325014430750457
23559900 14 16515956095076285436
23598291 2 18043535121447994405
25 1 18334290981071533216
2748010 2 18058145328462383643
276578 36 18411975892583945216
298252 57 17530684298960153574
305870 269 18342463693718272101
3071541 236 18127700331066827290
34934 24 18041278863453435913
4340502 62 18343009005026901771
458136 41 18272079547772274978
474 4 18409446955790120244
6049 1 4822912656822570807
633830 44 18334852835713550148
7364860 26 18042968868248153686
81228 2 17554885477621804554
9981440 41 17030250193430889600

> <PUBCHEM_SHAPE_MULTIPOLES>
353.71
6.4
2.5
1.49
0.67
3.23
0.1
-4.89
0.06
0.13
-1.01
-0.39
-0.1
-0.51

> <PUBCHEM_SHAPE_SELFOVERLAP>
740.026

> <PUBCHEM_SHAPE_VOLUME>
200.2

> <PUBCHEM_COORDINATE_TYPE>
2
5
10

$$$$

