47205693
  -OEChem-06241222592D

 38 38  0     1  0  0  0  0  0999 V2000
    2.8660    0.5000    0.0000 O   0  0  0  0  0  0  0  0  0  0  0  0
    6.3301    1.5000    0.0000 O   0  0  0  0  0  0  0  0  0  0  0  0
    3.7320   -1.0000    0.0000 N   0  0  0  0  0  0  0  0  0  0  0  0
    4.5981    1.5000    0.0000 N   0  0  0  0  0  0  0  0  0  0  0  0
    2.8660   -1.5000    0.0000 C   0  0  3  0  0  0  0  0  0  0  0  0
    2.8660   -2.5000    0.0000 C   0  0  0  0  0  0  0  0  0  0  0  0
    2.0000   -1.0000    0.0000 C   0  0  0  0  0  0  0  0  0  0  0  0
    4.5981    0.5000    0.0000 C   0  0  0  0  0  0  0  0  0  0  0  0
    3.7320    0.0000    0.0000 C   0  0  0  0  0  0  0  0  0  0  0  0
    5.4641    3.0000    0.0000 C   0  0  0  0  0  0  0  0  0  0  0  0
    2.0000   -3.0000    0.0000 C   0  0  0  0  0  0  0  0  0  0  0  0
    3.7320   -3.0000    0.0000 C   0  0  0  0  0  0  0  0  0  0  0  0
    6.3301    3.5000    0.0000 C   0  0  0  0  0  0  0  0  0  0  0  0
    5.4641    2.0000    0.0000 C   0  0  0  0  0  0  0  0  0  0  0  0
    2.0000   -4.0000    0.0000 C   0  0  0  0  0  0  0  0  0  0  0  0
    3.7320   -4.0000    0.0000 C   0  0  0  0  0  0  0  0  0  0  0  0
    6.3301    4.5000    0.0000 C   0  0  0  0  0  0  0  0  0  0  0  0
    2.8660   -4.5000    0.0000 C   0  0  0  0  0  0  0  0  0  0  0  0
    2.8660   -0.8800    0.0000 H   0  0  0  0  0  0  0  0  0  0  0  0
    4.2690   -1.3100    0.0000 H   0  0  0  0  0  0  0  0  0  0  0  0
    2.3100   -0.4631    0.0000 H   0  0  0  0  0  0  0  0  0  0  0  0
    1.4631   -0.6900    0.0000 H   0  0  0  0  0  0  0  0  0  0  0  0
    1.6900   -1.5369    0.0000 H   0  0  0  0  0  0  0  0  0  0  0  0
    4.8101   -0.0826    0.0000 H   0  0  0  0  0  0  0  0  0  0  0  0
    5.2087    0.6077    0.0000 H   0  0  0  0  0  0  0  0  0  0  0  0
    5.2520    3.5826    0.0000 H   0  0  0  0  0  0  0  0  0  0  0  0
    4.8535    2.8923    0.0000 H   0  0  0  0  0  0  0  0  0  0  0  0
    1.4631   -2.6900    0.0000 H   0  0  0  0  0  0  0  0  0  0  0  0
    4.2690   -2.6900    0.0000 H   0  0  0  0  0  0  0  0  0  0  0  0
    6.5422    2.9174    0.0000 H   0  0  0  0  0  0  0  0  0  0  0  0
    6.9407    3.6077    0.0000 H   0  0  0  0  0  0  0  0  0  0  0  0
    4.0611    1.8100    0.0000 H   0  0  0  0  0  0  0  0  0  0  0  0
    1.4631   -4.3100    0.0000 H   0  0  0  0  0  0  0  0  0  0  0  0
    4.2690   -4.3100    0.0000 H   0  0  0  0  0  0  0  0  0  0  0  0
    6.9501    4.5000    0.0000 H   0  0  0  0  0  0  0  0  0  0  0  0
    6.3301    5.1200    0.0000 H   0  0  0  0  0  0  0  0  0  0  0  0
    5.7101    4.5000    0.0000 H   0  0  0  0  0  0  0  0  0  0  0  0
    2.8660   -5.1200    0.0000 H   0  0  0  0  0  0  0  0  0  0  0  0
  1  9  2  0  0  0  0
  2 14  2  0  0  0  0
  3  5  1  0  0  0  0
  3  9  1  0  0  0  0
  3 20  1  0  0  0  0
  4  8  1  0  0  0  0
  4 14  1  0  0  0  0
  4 32  1  0  0  0  0
  5  6  1  0  0  0  0
  5  7  1  0  0  0  0
  5 19  1  0  0  0  0
  6 11  2  0  0  0  0
  6 12  1  0  0  0  0
  7 21  1  0  0  0  0
  7 22  1  0  0  0  0
  7 23  1  0  0  0  0
  8  9  1  0  0  0  0
  8 24  1  0  0  0  0
  8 25  1  0  0  0  0
 10 13  1  0  0  0  0
 10 14  1  0  0  0  0
 10 26  1  0  0  0  0
 10 27  1  0  0  0  0
 11 15  1  0  0  0  0
 11 28  1  0  0  0  0
 12 16  2  0  0  0  0
 12 29  1  0  0  0  0
 13 17  1  0  0  0  0
 13 30  1  0  0  0  0
 13 31  1  0  0  0  0
 15 18  2  0  0  0  0
 15 33  1  0  0  0  0
 16 18  1  0  0  0  0
 16 34  1  0  0  0  0
 17 35  1  0  0  0  0
 17 36  1  0  0  0  0
 17 37  1  0  0  0  0
 18 38  1  0  0  0  0
M  END
> <PUBCHEM_COMPOUND_CID>
47205693

> <PUBCHEM_COMPOUND_CANONICALIZED>
1

> <PUBCHEM_CACTVS_COMPLEXITY>
273

> <PUBCHEM_CACTVS_HBOND_ACCEPTOR>
2

> <PUBCHEM_CACTVS_HBOND_DONOR>
2

> <PUBCHEM_CACTVS_ROTATABLE_BOND>
6

> <PUBCHEM_CACTVS_SUBSKEYS>
AAADceBzMAAAAAAAAAAAAAAAAAAAAAAAAAAwAAAAAAAAAAABAAAAHgAQAAAADCjBmAQyAILAAACIAiFSEACCAAAgAAAIiIGIBIgIYDKAkTGUIAhglgCIiAcQgIAOAAAAAAAAAAAAAAAAAAAAAAAAAAAAAA==

> <PUBCHEM_IUPAC_OPENEYE_NAME>
N-[2-oxo-2-(1-phenylethylamino)ethyl]butanamide

> <PUBCHEM_IUPAC_CAS_NAME>
N-[2-oxo-2-(1-phenylethylamino)ethyl]butanamide

> <PUBCHEM_IUPAC_NAME>
N-[2-oxo-2-(1-phenylethylamino)ethyl]butanamide

> <PUBCHEM_IUPAC_SYSTEMATIC_NAME>
N-[2-oxidanylidene-2-(1-phenylethylamino)ethyl]butanamide

> <PUBCHEM_IUPAC_TRADITIONAL_NAME>
N-[2-keto-2-(1-phenylethylamino)ethyl]butyramide

> <PUBCHEM_IUPAC_INCHI>
InChI=1S/C14H20N2O2/c1-3-7-13(17)15-10-14(18)16-11(2)12-8-5-4-6-9-12/h4-6,8-9,11H,3,7,10H2,1-2H3,(H,15,17)(H,16,18)

> <PUBCHEM_IUPAC_INCHIKEY>
XOXXHVVILYYIQZ-UHFFFAOYSA-N

> <PUBCHEM_XLOGP3_AA>
1.6

> <PUBCHEM_EXACT_MASS>
248.152478

> <PUBCHEM_MOLECULAR_FORMULA>
C14H20N2O2

> <PUBCHEM_MOLECULAR_WEIGHT>
248.3208

> <PUBCHEM_OPENEYE_CAN_SMILES>
CCCC(=O)NCC(=O)NC(C)C1=CC=CC=C1

> <PUBCHEM_OPENEYE_ISO_SMILES>
CCCC(=O)NCC(=O)NC(C)C1=CC=CC=C1

> <PUBCHEM_CACTVS_TPSA>
58.2

> <PUBCHEM_MONOISOTOPIC_WEIGHT>
248.152478

> <PUBCHEM_TOTAL_CHARGE>
0

> <PUBCHEM_HEAVY_ATOM_COUNT>
18

> <PUBCHEM_ATOM_DEF_STEREO_COUNT>
0

> <PUBCHEM_ATOM_UDEF_STEREO_COUNT>
1

> <PUBCHEM_BOND_DEF_STEREO_COUNT>
0

> <PUBCHEM_BOND_UDEF_STEREO_COUNT>
0

> <PUBCHEM_ISOTOPIC_ATOM_COUNT>
0

> <PUBCHEM_COMPONENT_COUNT>
1

> <PUBCHEM_CACTVS_TAUTO_COUNT>
4

> <PUBCHEM_COORDINATE_TYPE>
1
5
255

> <PUBCHEM_BONDANNOTATIONS>
11  15  8
12  16  8
15  18  8
16  18  8
5  7  3
6  11  8
6  12  8

$$$$

