4346
  -OEChem-06261200043D

 56 58  0     1  0  0  0  0  0999 V2000
    1.6768   -0.1005   -1.4967 S   0  0  0  0  0  0  0  0  0  0  0  0
    0.3064    3.6970    0.5914 O   0  0  0  0  0  0  0  0  0  0  0  0
   -1.5513    2.2865    0.1648 O   0  0  0  0  0  0  0  0  0  0  0  0
    2.0973    1.2021   -1.9793 O   0  0  0  0  0  0  0  0  0  0  0  0
    1.2467   -1.1091   -2.4476 O   0  0  0  0  0  0  0  0  0  0  0  0
   -4.7819   -0.6533    1.5962 O   0  0  0  0  0  0  0  0  0  0  0  0
   -5.4797   -2.0437   -0.2443 O   0  0  0  0  0  0  0  0  0  0  0  0
    0.4669    0.1009   -0.2834 N   0  0  2  0  0  0  0  0  0  0  0  0
    0.5727    1.2789    0.6118 C   0  0  0  0  0  0  0  0  0  0  0  0
    0.0067   -1.1110    0.4423 C   0  0  0  0  0  0  0  0  0  0  0  0
   -0.1406    2.4795   -0.0122 C   0  0  0  0  0  0  0  0  0  0  0  0
   -1.4562   -1.3817    0.2283 C   0  0  0  0  0  0  0  0  0  0  0  0
    3.0306   -0.7843   -0.5822 C   0  0  0  0  0  0  0  0  0  0  0  0
   -2.3986   -0.8257    1.0967 C   0  0  0  0  0  0  0  0  0  0  0  0
   -1.8634   -2.1930   -0.8454 C   0  0  0  0  0  0  0  0  0  0  0  0
   -3.7293   -1.1027    0.8599 C   0  0  0  0  0  0  0  0  0  0  0  0
    3.9753    0.0596    0.0018 C   0  0  0  0  0  0  0  0  0  0  0  0
    3.1525   -2.1673   -0.4471 C   0  0  0  0  0  0  0  0  0  0  0  0
   -4.1279   -1.8967   -0.1910 C   0  0  0  0  0  0  0  0  0  0  0  0
   -3.2175   -2.4576   -1.0631 C   0  0  0  0  0  0  0  0  0  0  0  0
    5.0418   -0.4794    0.7211 C   0  0  0  0  0  0  0  0  0  0  0  0
    4.2191   -2.7063    0.2721 C   0  0  0  0  0  0  0  0  0  0  0  0
    1.5524    4.1502    0.0800 C   0  0  0  0  0  0  0  0  0  0  0  0
   -2.3215    3.0676   -0.7394 C   0  0  0  0  0  0  0  0  0  0  0  0
    5.1640   -1.8624    0.8562 C   0  0  0  0  0  0  0  0  0  0  0  0
   -5.8876   -1.2528    0.8906 C   0  0  0  0  0  0  0  0  0  0  0  0
    1.9340    5.4371    0.7800 C   0  0  0  0  0  0  0  0  0  0  0  0
   -3.7913    2.8070   -0.4877 C   0  0  0  0  0  0  0  0  0  0  0  0
    6.3036   -2.4390    1.6262 C   0  0  0  0  0  0  0  0  0  0  0  0
    0.1180    1.0772    1.5894 H   0  0  0  0  0  0  0  0  0  0  0  0
    1.6233    1.4826    0.8287 H   0  0  0  0  0  0  0  0  0  0  0  0
    0.5474   -1.9987    0.1045 H   0  0  0  0  0  0  0  0  0  0  0  0
    0.2355   -1.0520    1.5136 H   0  0  0  0  0  0  0  0  0  0  0  0
    0.0620    2.5208   -1.0896 H   0  0  0  0  0  0  0  0  0  0  0  0
   -2.1020   -0.1991    1.9308 H   0  0  0  0  0  0  0  0  0  0  0  0
   -1.1273   -2.6240   -1.5193 H   0  0  0  0  0  0  0  0  0  0  0  0
    3.9009    1.1392   -0.0908 H   0  0  0  0  0  0  0  0  0  0  0  0
    2.4374   -2.8465   -0.9019 H   0  0  0  0  0  0  0  0  0  0  0  0
   -3.5356   -3.0826   -1.8896 H   0  0  0  0  0  0  0  0  0  0  0  0
    1.4619    4.3346   -0.9963 H   0  0  0  0  0  0  0  0  0  0  0  0
    2.3377    3.4072    0.2441 H   0  0  0  0  0  0  0  0  0  0  0  0
   -2.0741    2.7941   -1.7712 H   0  0  0  0  0  0  0  0  0  0  0  0
   -2.1026    4.1305   -0.5898 H   0  0  0  0  0  0  0  0  0  0  0  0
    5.7722    0.1883    1.1702 H   0  0  0  0  0  0  0  0  0  0  0  0
    4.3057   -3.7854    0.3671 H   0  0  0  0  0  0  0  0  0  0  0  0
   -6.4407   -1.8951    1.5855 H   0  0  0  0  0  0  0  0  0  0  0  0
   -6.5541   -0.4558    0.5414 H   0  0  0  0  0  0  0  0  0  0  0  0
    1.1630    6.2004    0.6315 H   0  0  0  0  0  0  0  0  0  0  0  0
    2.0201    5.2772    1.8598 H   0  0  0  0  0  0  0  0  0  0  0  0
    2.8866    5.8199    0.4030 H   0  0  0  0  0  0  0  0  0  0  0  0
   -4.0270    1.7493   -0.6437 H   0  0  0  0  0  0  0  0  0  0  0  0
   -4.0538    3.0423    0.5489 H   0  0  0  0  0  0  0  0  0  0  0  0
   -4.4148    3.4075   -1.1560 H   0  0  0  0  0  0  0  0  0  0  0  0
    7.1526   -2.6221    0.9601 H   0  0  0  0  0  0  0  0  0  0  0  0
    6.6240   -1.7615    2.4250 H   0  0  0  0  0  0  0  0  0  0  0  0
    6.0208   -3.3841    2.1024 H   0  0  0  0  0  0  0  0  0  0  0  0
  1  4  2  0  0  0  0
  1  5  2  0  0  0  0
  1  8  1  0  0  0  0
  1 13  1  0  0  0  0
  2 11  1  0  0  0  0
  2 23  1  0  0  0  0
  3 11  1  0  0  0  0
  3 24  1  0  0  0  0
  6 16  1  0  0  0  0
  6 26  1  0  0  0  0
  7 19  1  0  0  0  0
  7 26  1  0  0  0  0
  8  9  1  0  0  0  0
  8 10  1  0  0  0  0
  9 11  1  0  0  0  0
  9 30  1  0  0  0  0
  9 31  1  0  0  0  0
 10 12  1  0  0  0  0
 10 32  1  0  0  0  0
 10 33  1  0  0  0  0
 11 34  1  0  0  0  0
 12 14  2  0  0  0  0
 12 15  1  0  0  0  0
 13 17  2  0  0  0  0
 13 18  1  0  0  0  0
 14 16  1  0  0  0  0
 14 35  1  0  0  0  0
 15 20  2  0  0  0  0
 15 36  1  0  0  0  0
 16 19  2  0  0  0  0
 17 21  1  0  0  0  0
 17 37  1  0  0  0  0
 18 22  2  0  0  0  0
 18 38  1  0  0  0  0
 19 20  1  0  0  0  0
 20 39  1  0  0  0  0
 21 25  2  0  0  0  0
 21 44  1  0  0  0  0
 22 25  1  0  0  0  0
 22 45  1  0  0  0  0
 23 27  1  0  0  0  0
 23 40  1  0  0  0  0
 23 41  1  0  0  0  0
 24 28  1  0  0  0  0
 24 42  1  0  0  0  0
 24 43  1  0  0  0  0
 25 29  1  0  0  0  0
 26 46  1  0  0  0  0
 26 47  1  0  0  0  0
 27 48  1  0  0  0  0
 27 49  1  0  0  0  0
 27 50  1  0  0  0  0
 28 51  1  0  0  0  0
 28 52  1  0  0  0  0
 28 53  1  0  0  0  0
 29 54  1  0  0  0  0
 29 55  1  0  0  0  0
 29 56  1  0  0  0  0
M  END
> <PUBCHEM_COMPOUND_CID>
4346

> <PUBCHEM_CONFORMER_RMSD>
1.2

> <PUBCHEM_CONFORMER_DIVERSEORDER>
1
78
29
42
71
86
26
32
46
39
8
60
10
17
36
35
84
40
18
79
51
93
2
52
28
16
25
37
48
74
54
92
77
15
12
64
68
31
81
41
94
76
82
19
89
27
47
73
43
9
90
56
85
21
53
88
91
4
34
70
58
30
67
13
80
63
59
22
65
45
24
49
14
57
72
20
33
44
11
50
62
3
83
23
87
55
38
5
6
61
69
66
7
75

> <PUBCHEM_MMFF94_PARTIAL_CHARGES>
34
1 1.45
10 0.5
11 0.56
12 -0.14
13 -0.01
14 -0.15
15 -0.15
16 0.08
17 -0.15
18 -0.15
19 0.08
2 -0.56
20 -0.15
21 -0.15
22 -0.15
23 0.28
24 0.28
25 -0.14
26 0.56
29 0.14
3 -0.56
35 0.15
36 0.15
37 0.15
38 0.15
39 0.15
4 -0.65
44 0.15
45 0.15
5 -0.65
6 -0.36
7 -0.36
8 -0.85
9 0.36

> <PUBCHEM_EFFECTIVE_ROTOR_COUNT>
10.6

> <PUBCHEM_PHARMACOPHORE_FEATURES>
9
1 2 acceptor
1 3 acceptor
1 4 acceptor
1 5 acceptor
1 6 acceptor
1 7 acceptor
5 6 7 16 19 26 rings
6 12 14 15 16 19 20 rings
6 13 17 18 21 22 25 rings

> <PUBCHEM_HEAVY_ATOM_COUNT>
29

> <PUBCHEM_ATOM_DEF_STEREO_COUNT>
0

> <PUBCHEM_ATOM_UDEF_STEREO_COUNT>
0

> <PUBCHEM_BOND_DEF_STEREO_COUNT>
0

> <PUBCHEM_BOND_UDEF_STEREO_COUNT>
0

> <PUBCHEM_ISOTOPIC_ATOM_COUNT>
0

> <PUBCHEM_COMPONENT_COUNT>
1

> <PUBCHEM_CACTVS_TAUTO_COUNT>
1

> <PUBCHEM_CONFORMER_ID>
000010FA00000001

> <PUBCHEM_MMFF94_ENERGY>
57.9106

> <PUBCHEM_FEATURE_SELFOVERLAP>
45.88

> <PUBCHEM_SHAPE_FINGERPRINT>
12160290 23 17766525291069132485
12166972 35 17704068491094904486
12293681 4 18192155021305612116
12422481 6 18051383435584112753
12788726 201 18269820034635182398
13004483 165 18410582798947056290
13583140 156 17750817599915814426
13692114 37 17543622488935234585
14844126 61 18267876144979147082
15042514 8 18267304420570699728
15420108 30 17462562801941566068
15815584 197 17617921552957457684
15927050 60 17543065681095587700
17980427 23 17241050907522603927
17980427 26 17903647276292038716
1813 80 18336255786669972998
20600515 1 18042958968475656664
20642791 105 18129663135669235349
21304303 282 17620497021596695604
2132832 1 18131062762589717660
23419403 2 17750253476708237104
25147074 1 17917415580423834350
345986 75 18129677407851108018
4058900 60 17619900669946558244
463206 1 18342458088961083338
5171179 24 18336558126661449225
7164475 11 18342448283660496566
79837 15 17617373326363073416
9981440 41 17331680661830133824

> <PUBCHEM_SHAPE_MULTIPOLES>
560.46
11.81
5.51
1.44
1.19
9.67
-0.45
-11.65
4.63
0.99
0.74
0.41
-0.4
-0.28

> <PUBCHEM_SHAPE_SELFOVERLAP>
1159.493

> <PUBCHEM_SHAPE_VOLUME>
323.9

> <PUBCHEM_COORDINATE_TYPE>
2
5
10

$$$$

