8869
  -OEChem-06261203112D

 22 21  0     0  0  0  0  0  0999 V2000
    4.5981   -0.5950    0.0000 S   0  0  0  0  0  0  0  0  0  0  0  0
    5.4641    0.9050    0.0000 O   0  0  0  0  0  0  0  0  0  0  0  0
    3.7321    0.9050    0.0000 N   0  0  0  0  0  0  0  0  0  0  0  0
    6.3301    0.4050    0.0000 C   0  0  0  0  0  0  0  0  0  0  0  0
    7.1962    0.9050    0.0000 C   0  0  0  0  0  0  0  0  0  0  0  0
    6.3301   -0.5950    0.0000 C   0  0  0  0  0  0  0  0  0  0  0  0
    2.8660    0.4050    0.0000 C   0  0  0  0  0  0  0  0  0  0  0  0
    4.5981    0.4050    0.0000 C   0  0  0  0  0  0  0  0  0  0  0  0
    2.0000    0.9050    0.0000 C   0  0  0  0  0  0  0  0  0  0  0  0
    5.7932    0.0950    0.0000 H   0  0  0  0  0  0  0  0  0  0  0  0
    7.5062    0.3681    0.0000 H   0  0  0  0  0  0  0  0  0  0  0  0
    7.7331    1.2150    0.0000 H   0  0  0  0  0  0  0  0  0  0  0  0
    6.8862    1.4419    0.0000 H   0  0  0  0  0  0  0  0  0  0  0  0
    5.7101   -0.5950    0.0000 H   0  0  0  0  0  0  0  0  0  0  0  0
    6.3301   -1.2150    0.0000 H   0  0  0  0  0  0  0  0  0  0  0  0
    6.9501   -0.5950    0.0000 H   0  0  0  0  0  0  0  0  0  0  0  0
    2.4675   -0.0699    0.0000 H   0  0  0  0  0  0  0  0  0  0  0  0
    3.2646   -0.0699    0.0000 H   0  0  0  0  0  0  0  0  0  0  0  0
    2.3100    1.4419    0.0000 H   0  0  0  0  0  0  0  0  0  0  0  0
    1.4631    1.2150    0.0000 H   0  0  0  0  0  0  0  0  0  0  0  0
    1.6900    0.3681    0.0000 H   0  0  0  0  0  0  0  0  0  0  0  0
    4.0611   -0.9050    0.0000 H   0  0  0  0  0  0  0  0  0  0  0  0
  1  8  1  0  0  0  0
  1 22  1  0  0  0  0
  2  4  1  0  0  0  0
  2  8  1  0  0  0  0
  3  7  1  0  0  0  0
  3  8  2  0  0  0  0
  4  5  1  0  0  0  0
  4  6  1  0  0  0  0
  4 10  1  0  0  0  0
  5 11  1  0  0  0  0
  5 12  1  0  0  0  0
  5 13  1  0  0  0  0
  6 14  1  0  0  0  0
  6 15  1  0  0  0  0
  6 16  1  0  0  0  0
  7  9  1  0  0  0  0
  7 17  1  0  0  0  0
  7 18  1  0  0  0  0
  9 19  1  0  0  0  0
  9 20  1  0  0  0  0
  9 21  1  0  0  0  0
M  END
> <PUBCHEM_COMPOUND_CID>
8869

> <PUBCHEM_COMPOUND_CANONICALIZED>
1

> <PUBCHEM_CACTVS_COMPLEXITY>
101

> <PUBCHEM_CACTVS_HBOND_ACCEPTOR>
3

> <PUBCHEM_CACTVS_HBOND_DONOR>
1

> <PUBCHEM_CACTVS_ROTATABLE_BOND>
3

> <PUBCHEM_CACTVS_SUBSKEYS>
AAADccBiIABAAAAAAAAAAAAAAAAAAAAAAAAAAAAAAAAAAAAAAAAAHgQAAAAACBThgAYCAAIABAQgAAAABAAAEAAAAAAAAAAAAAAAAAAAAAAAAAAAAAAAAAAAAAAAAAAAAAAAAAAAAAAAAAAAAAAAAAAAAA==

> <PUBCHEM_IUPAC_OPENEYE_NAME>
N-ethyl-1-isopropoxy-methanimidothioic acid

> <PUBCHEM_IUPAC_CAS_NAME>
N-ethyl-1-propan-2-yloxymethanimidothioic acid

> <PUBCHEM_IUPAC_NAME>
N-ethyl-1-propan-2-yloxymethanimidothioic acid

> <PUBCHEM_IUPAC_SYSTEMATIC_NAME>
N-ethyl-1-propan-2-yloxy-methanimidothioic acid

> <PUBCHEM_IUPAC_TRADITIONAL_NAME>
N-ethyl-1-isopropoxy-thioformimidic acid

> <PUBCHEM_IUPAC_INCHI>
InChI=1S/C6H13NOS/c1-4-7-6(9)8-5(2)3/h5H,4H2,1-3H3,(H,7,9)

> <PUBCHEM_IUPAC_INCHIKEY>
KIACEOHPIRTHMI-UHFFFAOYSA-N

> <PUBCHEM_XLOGP3_AA>
2

> <PUBCHEM_EXACT_MASS>
147.071785

> <PUBCHEM_MOLECULAR_FORMULA>
C6H13NOS

> <PUBCHEM_MOLECULAR_WEIGHT>
147.23852

> <PUBCHEM_OPENEYE_CAN_SMILES>
CCN=C(OC(C)C)S

> <PUBCHEM_OPENEYE_ISO_SMILES>
CCN=C(OC(C)C)S

> <PUBCHEM_CACTVS_TPSA>
22.6

> <PUBCHEM_MONOISOTOPIC_WEIGHT>
147.071785

> <PUBCHEM_TOTAL_CHARGE>
0

> <PUBCHEM_HEAVY_ATOM_COUNT>
9

> <PUBCHEM_ATOM_DEF_STEREO_COUNT>
0

> <PUBCHEM_ATOM_UDEF_STEREO_COUNT>
0

> <PUBCHEM_BOND_DEF_STEREO_COUNT>
0

> <PUBCHEM_BOND_UDEF_STEREO_COUNT>
0

> <PUBCHEM_ISOTOPIC_ATOM_COUNT>
0

> <PUBCHEM_COMPONENT_COUNT>
1

> <PUBCHEM_CACTVS_TAUTO_COUNT>
2

> <PUBCHEM_COORDINATE_TYPE>
1
5
255

$$$$

