853921
  -OEChem-06241222462D

 31 32  0     0  0  0  0  0  0999 V2000
    4.5981    0.8261    0.0000 S   0  0  0  0  0  0  0  0  0  0  0  0
    4.5981   -1.1739    0.0000 O   0  0  0  0  0  0  0  0  0  0  0  0
    5.4071    2.4139    0.0000 N   0  0  0  0  0  0  0  0  0  0  0  0
    2.8660   -1.1739    0.0000 N   0  0  0  0  0  0  0  0  0  0  0  0
    3.7891    2.4139    0.0000 N   0  0  0  0  0  0  0  0  0  0  0  0
    4.0981    3.3649    0.0000 N   0  0  0  0  0  0  0  0  0  0  0  0
    6.3582    2.1048    0.0000 N   0  0  0  0  0  0  0  0  0  0  0  0
    4.5981    1.8261    0.0000 C   0  0  0  0  0  0  0  0  0  0  0  0
    5.0981    3.3649    0.0000 C   0  0  0  0  0  0  0  0  0  0  0  0
    3.7320    0.3261    0.0000 C   0  0  0  0  0  0  0  0  0  0  0  0
    2.8660   -2.1739    0.0000 C   0  0  0  0  0  0  0  0  0  0  0  0
    3.7320   -0.6739    0.0000 C   0  0  0  0  0  0  0  0  0  0  0  0
    5.6859    4.1739    0.0000 C   0  0  0  0  0  0  0  0  0  0  0  0
    2.0000   -2.6739    0.0000 C   0  0  0  0  0  0  0  0  0  0  0  0
    3.7320   -2.6739    0.0000 C   0  0  0  0  0  0  0  0  0  0  0  0
    2.0000   -3.6739    0.0000 C   0  0  0  0  0  0  0  0  0  0  0  0
    3.7320   -3.6739    0.0000 C   0  0  0  0  0  0  0  0  0  0  0  0
    2.8660   -4.1739    0.0000 C   0  0  0  0  0  0  0  0  0  0  0  0
    3.5200    0.9087    0.0000 H   0  0  0  0  0  0  0  0  0  0  0  0
    3.1215    0.2184    0.0000 H   0  0  0  0  0  0  0  0  0  0  0  0
    2.3291   -0.8639    0.0000 H   0  0  0  0  0  0  0  0  0  0  0  0
    6.1874    3.8095    0.0000 H   0  0  0  0  0  0  0  0  0  0  0  0
    6.0503    4.6755    0.0000 H   0  0  0  0  0  0  0  0  0  0  0  0
    5.1843    4.5384    0.0000 H   0  0  0  0  0  0  0  0  0  0  0  0
    1.4631   -2.3639    0.0000 H   0  0  0  0  0  0  0  0  0  0  0  0
    4.2690   -2.3639    0.0000 H   0  0  0  0  0  0  0  0  0  0  0  0
    1.4631   -3.9839    0.0000 H   0  0  0  0  0  0  0  0  0  0  0  0
    4.2690   -3.9839    0.0000 H   0  0  0  0  0  0  0  0  0  0  0  0
    6.8189    2.5197    0.0000 H   0  0  0  0  0  0  0  0  0  0  0  0
    6.4870    1.4984    0.0000 H   0  0  0  0  0  0  0  0  0  0  0  0
    2.8660   -4.7939    0.0000 H   0  0  0  0  0  0  0  0  0  0  0  0
  1  8  1  0  0  0  0
  1 10  1  0  0  0  0
  2 12  2  0  0  0  0
  3  7  1  0  0  0  0
  3  8  1  0  0  0  0
  3  9  1  0  0  0  0
  4 11  1  0  0  0  0
  4 12  1  0  0  0  0
  4 21  1  0  0  0  0
  5  6  1  0  0  0  0
  5  8  2  0  0  0  0
  6  9  2  0  0  0  0
  7 29  1  0  0  0  0
  7 30  1  0  0  0  0
  9 13  1  0  0  0  0
 10 12  1  0  0  0  0
 10 19  1  0  0  0  0
 10 20  1  0  0  0  0
 11 14  2  0  0  0  0
 11 15  1  0  0  0  0
 13 22  1  0  0  0  0
 13 23  1  0  0  0  0
 13 24  1  0  0  0  0
 14 16  1  0  0  0  0
 14 25  1  0  0  0  0
 15 17  2  0  0  0  0
 15 26  1  0  0  0  0
 16 18  2  0  0  0  0
 16 27  1  0  0  0  0
 17 18  1  0  0  0  0
 17 28  1  0  0  0  0
 18 31  1  0  0  0  0
M  END
> <PUBCHEM_COMPOUND_CID>
853921

> <PUBCHEM_COMPOUND_CANONICALIZED>
1

> <PUBCHEM_CACTVS_COMPLEXITY>
285

> <PUBCHEM_CACTVS_HBOND_ACCEPTOR>
5

> <PUBCHEM_CACTVS_HBOND_DONOR>
2

> <PUBCHEM_CACTVS_ROTATABLE_BOND>
4

> <PUBCHEM_CACTVS_SUBSKEYS>
AAADccBzoABAAAAAAAAAAAAAAAAAAWAAAAAwAAAAAAAAAAABwAAAHgQYAAAACAiF0wCz0IbKEAiqACdydACS0AthArAdqAAQZIiIKCLAmZGEIAhgnALIyAcQAAAAAAAAAAAAAAAAAAAAAAAAAAAAAAAAAA==

> <PUBCHEM_IUPAC_OPENEYE_NAME>
2-[(4-amino-5-methyl-1,2,4-triazol-3-yl)sulfanyl]-N-phenyl-acetamide

> <PUBCHEM_IUPAC_CAS_NAME>
2-[(4-amino-5-methyl-1,2,4-triazol-3-yl)thio]-N-phenylacetamide

> <PUBCHEM_IUPAC_NAME>
2-[(4-amino-5-methyl-1,2,4-triazol-3-yl)sulfanyl]-N-phenylacetamide

> <PUBCHEM_IUPAC_SYSTEMATIC_NAME>
2-[(4-azanyl-5-methyl-1,2,4-triazol-3-yl)sulfanyl]-N-phenyl-ethanamide

> <PUBCHEM_IUPAC_TRADITIONAL_NAME>
2-[(4-amino-5-methyl-1,2,4-triazol-3-yl)thio]-N-phenyl-acetamide

> <PUBCHEM_IUPAC_INCHI>
InChI=1S/C11H13N5OS/c1-8-14-15-11(16(8)12)18-7-10(17)13-9-5-3-2-4-6-9/h2-6H,7,12H2,1H3,(H,13,17)

> <PUBCHEM_IUPAC_INCHIKEY>
WZXHHSQUNJDDMT-UHFFFAOYSA-N

> <PUBCHEM_XLOGP3_AA>
1.3

> <PUBCHEM_EXACT_MASS>
263.084081

> <PUBCHEM_MOLECULAR_FORMULA>
C11H13N5OS

> <PUBCHEM_MOLECULAR_WEIGHT>
263.31882

> <PUBCHEM_OPENEYE_CAN_SMILES>
CC1=NN=C(N1N)SCC(=O)NC2=CC=CC=C2

> <PUBCHEM_OPENEYE_ISO_SMILES>
CC1=NN=C(N1N)SCC(=O)NC2=CC=CC=C2

> <PUBCHEM_CACTVS_TPSA>
111

> <PUBCHEM_MONOISOTOPIC_WEIGHT>
263.084081

> <PUBCHEM_TOTAL_CHARGE>
0

> <PUBCHEM_HEAVY_ATOM_COUNT>
18

> <PUBCHEM_ATOM_DEF_STEREO_COUNT>
0

> <PUBCHEM_ATOM_UDEF_STEREO_COUNT>
0

> <PUBCHEM_BOND_DEF_STEREO_COUNT>
0

> <PUBCHEM_BOND_UDEF_STEREO_COUNT>
0

> <PUBCHEM_ISOTOPIC_ATOM_COUNT>
0

> <PUBCHEM_COMPONENT_COUNT>
1

> <PUBCHEM_CACTVS_TAUTO_COUNT>
3

> <PUBCHEM_COORDINATE_TYPE>
1
5
255

> <PUBCHEM_BONDANNOTATIONS>
11  14  8
11  15  8
14  16  8
15  17  8
16  18  8
17  18  8
3  8  8
3  9  8
5  6  8
5  8  8
6  9  8

$$$$

