854145
  -OEChem-06241222473D

 40 41  0     1  0  0  0  0  0999 V2000
    0.1673   -0.7128   -1.7841 O   0  0  0  0  0  0  0  0  0  0  0  0
   -0.0191   -2.8813    0.0984 N   0  0  0  0  0  0  0  0  0  0  0  0
    0.6820   -1.6177    0.3892 C   0  0  2  0  0  0  0  0  0  0  0  0
    0.0195   -0.4042   -0.3847 C   0  0  0  0  0  0  0  0  0  0  0  0
    2.2226   -1.8137    0.1649 C   0  0  0  0  0  0  0  0  0  0  0  0
   -1.4881   -0.1961   -0.1138 C   0  0  0  0  0  0  0  0  0  0  0  0
    0.7490    0.9187   -0.0823 C   0  0  0  0  0  0  0  0  0  0  0  0
    2.7439   -3.0164    0.9705 C   0  0  0  0  0  0  0  0  0  0  0  0
    2.6723   -1.9593   -1.2923 C   0  0  0  0  0  0  0  0  0  0  0  0
   -2.2732    0.2393   -1.1468 C   0  0  0  0  0  0  0  0  0  0  0  0
    1.2136    1.1267    1.1906 C   0  0  0  0  0  0  0  0  0  0  0  0
   -1.9575   -0.4579    1.1448 C   0  0  0  0  0  0  0  0  0  0  0  0
    0.8977    1.8244   -1.1007 C   0  0  0  0  0  0  0  0  0  0  0  0
   -3.6335    0.4275   -0.9022 C   0  0  0  0  0  0  0  0  0  0  0  0
    1.8736    2.3247    1.4645 C   0  0  0  0  0  0  0  0  0  0  0  0
   -3.3178   -0.2698    1.3894 C   0  0  0  0  0  0  0  0  0  0  0  0
    1.5578    3.0223   -0.8270 C   0  0  0  0  0  0  0  0  0  0  0  0
   -4.1558    0.1729    0.3658 C   0  0  0  0  0  0  0  0  0  0  0  0
    2.0457    3.2725    0.4558 C   0  0  0  0  0  0  0  0  0  0  0  0
    0.5607   -1.4821    1.4686 H   0  0  0  0  0  0  0  0  0  0  0  0
    2.7471   -0.9412    0.5702 H   0  0  0  0  0  0  0  0  0  0  0  0
    2.4282   -3.9722    0.5396 H   0  0  0  0  0  0  0  0  0  0  0  0
    3.8399   -3.0158    0.9836 H   0  0  0  0  0  0  0  0  0  0  0  0
    2.4063   -2.9711    2.0113 H   0  0  0  0  0  0  0  0  0  0  0  0
    3.7326   -2.2320   -1.3436 H   0  0  0  0  0  0  0  0  0  0  0  0
    2.5708   -1.0181   -1.8393 H   0  0  0  0  0  0  0  0  0  0  0  0
    2.1062   -2.7364   -1.8153 H   0  0  0  0  0  0  0  0  0  0  0  0
   -1.0218   -2.7726    0.2357 H   0  0  0  0  0  0  0  0  0  0  0  0
    0.2710   -3.6027    0.7565 H   0  0  0  0  0  0  0  0  0  0  0  0
   -0.2336   -1.5854   -1.9405 H   0  0  0  0  0  0  0  0  0  0  0  0
   -1.8922    0.4581   -2.1382 H   0  0  0  0  0  0  0  0  0  0  0  0
    1.0738    0.4337    2.0105 H   0  0  0  0  0  0  0  0  0  0  0  0
   -1.3346   -0.7790    1.9697 H   0  0  0  0  0  0  0  0  0  0  0  0
    0.5192    1.6593   -2.1037 H   0  0  0  0  0  0  0  0  0  0  0  0
   -4.2857    0.7757   -1.6979 H   0  0  0  0  0  0  0  0  0  0  0  0
    2.2471    2.5232    2.4649 H   0  0  0  0  0  0  0  0  0  0  0  0
   -3.7240   -0.4623    2.3782 H   0  0  0  0  0  0  0  0  0  0  0  0
    1.6896    3.7617   -1.6115 H   0  0  0  0  0  0  0  0  0  0  0  0
   -5.2146    0.3214    0.5569 H   0  0  0  0  0  0  0  0  0  0  0  0
    2.5576    4.2062    0.6695 H   0  0  0  0  0  0  0  0  0  0  0  0
  1  4  1  0  0  0  0
  1 30  1  0  0  0  0
  2  3  1  0  0  0  0
  2 28  1  0  0  0  0
  2 29  1  0  0  0  0
  3  4  1  0  0  0  0
  3  5  1  0  0  0  0
  3 20  1  0  0  0  0
  4  6  1  0  0  0  0
  4  7  1  0  0  0  0
  5  8  1  0  0  0  0
  5  9  1  0  0  0  0
  5 21  1  0  0  0  0
  6 10  2  0  0  0  0
  6 12  1  0  0  0  0
  7 11  2  0  0  0  0
  7 13  1  0  0  0  0
  8 22  1  0  0  0  0
  8 23  1  0  0  0  0
  8 24  1  0  0  0  0
  9 25  1  0  0  0  0
  9 26  1  0  0  0  0
  9 27  1  0  0  0  0
 10 14  1  0  0  0  0
 10 31  1  0  0  0  0
 11 15  1  0  0  0  0
 11 32  1  0  0  0  0
 12 16  2  0  0  0  0
 12 33  1  0  0  0  0
 13 17  2  0  0  0  0
 13 34  1  0  0  0  0
 14 18  2  0  0  0  0
 14 35  1  0  0  0  0
 15 19  2  0  0  0  0
 15 36  1  0  0  0  0
 16 18  1  0  0  0  0
 16 37  1  0  0  0  0
 17 19  1  0  0  0  0
 17 38  1  0  0  0  0
 18 39  1  0  0  0  0
 19 40  1  0  0  0  0
M  END
> <PUBCHEM_COMPOUND_CID>
854145

> <PUBCHEM_CONFORMER_RMSD>
0.6

> <PUBCHEM_CONFORMER_DIVERSEORDER>
1
3
2
4

> <PUBCHEM_MMFF94_PARTIAL_CHARGES>
29
1 -0.68
10 -0.15
11 -0.15
12 -0.15
13 -0.15
14 -0.15
15 -0.15
16 -0.15
17 -0.15
18 -0.15
19 -0.15
2 -0.99
28 0.36
29 0.36
3 0.27
30 0.4
31 0.15
32 0.15
33 0.15
34 0.15
35 0.15
36 0.15
37 0.15
38 0.15
39 0.15
4 0.57
40 0.15
6 -0.14
7 -0.14

> <PUBCHEM_EFFECTIVE_ROTOR_COUNT>
4

> <PUBCHEM_PHARMACOPHORE_FEATURES>
7
1 1 acceptor
1 1 donor
1 2 cation
1 2 donor
3 5 8 9 hydrophobe
6 6 10 12 14 16 18 rings
6 7 11 13 15 17 19 rings

> <PUBCHEM_HEAVY_ATOM_COUNT>
19

> <PUBCHEM_ATOM_DEF_STEREO_COUNT>
1

> <PUBCHEM_ATOM_UDEF_STEREO_COUNT>
0

> <PUBCHEM_BOND_DEF_STEREO_COUNT>
0

> <PUBCHEM_BOND_UDEF_STEREO_COUNT>
0

> <PUBCHEM_ISOTOPIC_ATOM_COUNT>
0

> <PUBCHEM_COMPONENT_COUNT>
1

> <PUBCHEM_CACTVS_TAUTO_COUNT>
1

> <PUBCHEM_CONFORMER_ID>
000D088100000001

> <PUBCHEM_MMFF94_ENERGY>
66.8288

> <PUBCHEM_FEATURE_SELFOVERLAP>
35.522

> <PUBCHEM_SHAPE_FINGERPRINT>
10165383 225 17692210129308627289
104564 63 17831853925552834894
11640471 11 17750244607959524729
12173636 292 17545605552159775724
12423570 1 14433525172080598971
12716301 132 16556806288884500037
12788726 201 17261605478291942171
13132413 78 18119797268924519656
13134695 92 18338806739629908709
13140716 1 18194124006275866152
13149001 5 18193249984541929406
13294875 104 17968662601312294592
133893 2 18266484047330903174
13681431 1 18335974380523223212
14181834 199 18260562116236957734
14817 1 12164022246388785100
14955137 171 18115284774536125118
15309172 13 18053102818019197793
15490181 8 18051424971638000750
15906896 17 17327743899048001534
16945 1 18408325466909161888
17980427 23 17460045182702745777
1813 80 17897430912252640934
18785283 64 18271796870220558728
19765921 60 17896318000590489441
20097449 115 18267025148775003474
20600515 1 18054776545130840062
21041028 32 18191015901399547361
21061003 4 18267865171553872779
21524375 3 17972597684587113629
21731228 192 17979077080792451128
22112679 90 17682927214570011448
2255824 54 18408882936531974743
23175994 123 18197774616697630767
23419403 2 17982765100758964796
23526113 38 17631441423000519755
23557571 272 17615416187286895286
23558518 356 17978233759800880302
23559900 14 17846489323620871695
25 1 17680119937967242473
2748010 2 18122931951116605180
283562 15 17836080448625377394
305870 269 18264774259457805953
312423 11 18113610193358415633
3286 77 18343015640656681451
350125 39 18051122597498270234
3729539 64 18055319558605326844
427121 178 17543305455776288851
458136 41 18125139568559414665
495365 180 18413114961609538565
5845 1 11567645150733908940
5895379 119 16373792595695167409
6049 1 17988922297487238693
6442390 28 17689694386511164123
7364860 26 18335419054047172285
7615 1 17530964696580632537
81228 2 17473818901980640794
84936 31 18187372008137548902
9981440 41 15797937304995024336

> <PUBCHEM_SHAPE_MULTIPOLES>
380.16
5.25
3.69
1.49
5.7
0.65
0.06
-0.68
-0.58
-5.09
-0.38
-0.03
0.14
0.42

> <PUBCHEM_SHAPE_SELFOVERLAP>
806.549

> <PUBCHEM_SHAPE_VOLUME>
212.1

> <PUBCHEM_COORDINATE_TYPE>
2
5
10

$$$$

