8936
  -OEChem-06261203152D

117125  0     1  0  0  0  0  0999 V2000
    8.0777   -2.6680    0.0000 O   0  0  0  0  0  0  0  0  0  0  0  0
    8.8208   -3.3371    0.0000 O   0  0  0  0  0  0  0  0  0  0  0  0
    6.1411   -5.3658    0.0000 O   0  0  0  0  0  0  0  0  0  0  0  0
    8.3393   -4.5291    0.0000 O   0  0  0  0  0  0  0  0  0  0  0  0
    7.4259   -5.4107    0.0000 O   0  0  0  0  0  0  0  0  0  0  0  0
    8.1801    1.8223    0.0000 O   0  0  0  0  0  0  0  0  0  0  0  0
    6.5287    0.5093    0.0000 O   0  0  0  0  0  0  0  0  0  0  0  0
    5.2439    0.5543    0.0000 O   0  0  0  0  0  0  0  0  0  0  0  0
    9.1930    5.7695    0.0000 O   0  0  0  0  0  0  0  0  0  0  0  0
    4.3838   -2.3940    0.0000 N   0  0  3  0  0  0  0  0  0  0  0  0
    7.4632   -1.3934    0.0000 N   0  0  3  0  0  0  0  0  0  0  0  0
    4.6681    1.8859    0.0000 N   0  0  0  0  0  0  0  0  0  0  0  0
    6.8864    5.0410    0.0000 N   0  0  3  0  0  0  0  0  0  0  0  0
    5.9235   -1.8937    0.0000 C   0  0  1  0  0  0  0  0  0  0  0  0
    5.2981   -2.5883    0.0000 C   0  0  2  0  0  0  0  0  0  0  0  0
    5.5869   -3.4773    0.0000 C   0  0  1  0  0  0  0  0  0  0  0  0
    6.8378   -2.0881    0.0000 C   0  0  2  0  0  0  0  0  0  0  0  0
    7.1266   -2.9770    0.0000 C   0  0  1  0  0  0  0  0  0  0  0  0
    6.5012   -3.6716    0.0000 C   0  0  2  0  0  0  0  0  0  0  0  0
    5.5384   -0.8581    0.0000 C   0  0  0  0  0  0  0  0  0  0  0  0
    6.2601   -0.3101    0.0000 C   0  0  0  0  0  0  0  0  0  0  0  0
    4.0949   -1.5050    0.0000 C   0  0  0  0  0  0  0  0  0  0  0  0
    5.8959   -4.4284    0.0000 C   0  0  0  0  0  0  0  0  0  0  0  0
    7.1744   -0.5045    0.0000 C   0  0  0  0  0  0  0  0  0  0  0  0
    4.9614   -4.1719    0.0000 C   0  0  0  0  0  0  0  0  0  0  0  0
    3.7583   -3.0886    0.0000 C   0  0  0  0  0  0  0  0  0  0  0  0
    4.0472   -3.9776    0.0000 C   0  0  0  0  0  0  0  0  0  0  0  0
    7.8698   -3.6461    0.0000 C   0  0  0  0  0  0  0  0  0  0  0  0
    6.8102   -4.6227    0.0000 C   0  0  0  0  0  0  0  0  0  0  0  0
    5.9713    0.5788    0.0000 C   0  0  0  0  0  0  0  0  0  0  0  0
    8.4143   -1.0844    0.0000 C   0  0  0  0  0  0  0  0  0  0  0  0
    5.2268   -5.1715    0.0000 C   0  0  0  0  0  0  0  0  0  0  0  0
    7.7998    0.1902    0.0000 C   0  0  0  0  0  0  0  0  0  0  0  0
    6.5967    1.2735    0.0000 C   0  0  0  0  0  0  0  0  0  0  0  0
    7.5110    1.0791    0.0000 C   0  0  0  0  0  0  0  0  0  0  0  0
    6.2877    2.2245    0.0000 C   0  0  1  0  0  0  0  0  0  0  0  0
    7.2387    2.5336    0.0000 C   0  0  0  0  0  0  0  0  0  0  0  0
    5.3605    2.5991    0.0000 C   0  0  0  0  0  0  0  0  0  0  0  0
    7.7687    3.3816    0.0000 C   0  0  3  0  0  0  0  0  0  0  0  0
    5.9131    1.2974    0.0000 C   0  0  0  0  0  0  0  0  0  0  0  0
    9.5640   -4.0063    0.0000 C   0  0  0  0  0  0  0  0  0  0  0  0
    6.4501   -6.3169    0.0000 C   0  0  0  0  0  0  0  0  0  0  0  0
    8.6440    3.9029    0.0000 C   0  0  0  0  0  0  0  0  0  0  0  0
    7.6295    4.3719    0.0000 C   0  0  0  0  0  0  0  0  0  0  0  0
    4.8910    3.4821    0.0000 C   0  0  0  0  0  0  0  0  0  0  0  0
    8.6631    4.9214    0.0000 C   0  0  1  0  0  0  0  0  0  0  0  0
    7.8080    5.4752    0.0000 C   0  0  0  0  0  0  0  0  0  0  0  0
    5.0990    4.4602    0.0000 C   0  0  0  0  0  0  0  0  0  0  0  0
    5.8870    5.0759    0.0000 C   0  0  0  0  0  0  0  0  0  0  0  0
    9.1583    1.6144    0.0000 C   0  0  0  0  0  0  0  0  0  0  0  0
    3.9125    3.3069    0.0000 C   0  0  0  0  0  0  0  0  0  0  0  0
    3.7750    2.3224    0.0000 C   0  0  0  0  0  0  0  0  0  0  0  0
    9.6625    4.8865    0.0000 C   0  0  0  0  0  0  0  0  0  0  0  0
    3.1059    3.9562    0.0000 C   0  0  0  0  0  0  0  0  0  0  0  0
    2.8214    1.9189    0.0000 C   0  0  0  0  0  0  0  0  0  0  0  0
    7.6676    0.6694    0.0000 C   0  0  0  0  0  0  0  0  0  0  0  0
   10.1319    4.0036    0.0000 C   0  0  0  0  0  0  0  0  0  0  0  0
    2.1432    3.5749    0.0000 C   0  0  0  0  0  0  0  0  0  0  0  0
    2.0000    2.5494    0.0000 C   0  0  0  0  0  0  0  0  0  0  0  0
    5.0508   -1.8275    0.0000 H   0  0  0  0  0  0  0  0  0  0  0  0
    7.6203   -2.2544    0.0000 H   0  0  0  0  0  0  0  0  0  0  0  0
    7.1076   -3.8005    0.0000 H   0  0  0  0  0  0  0  0  0  0  0  0
    6.1147   -0.6294    0.0000 H   0  0  0  0  0  0  0  0  0  0  0  0
    5.2972   -0.2869    0.0000 H   0  0  0  0  0  0  0  0  0  0  0  0
    3.8617   -0.9306    0.0000 H   0  0  0  0  0  0  0  0  0  0  0  0
    3.5125   -1.7176    0.0000 H   0  0  0  0  0  0  0  0  0  0  0  0
    6.2776   -4.9169    0.0000 H   0  0  0  0  0  0  0  0  0  0  0  0
    6.4433   -4.1373    0.0000 H   0  0  0  0  0  0  0  0  0  0  0  0
    5.1530   -4.7616    0.0000 H   0  0  0  0  0  0  0  0  0  0  0  0
    3.3766   -2.6001    0.0000 H   0  0  0  0  0  0  0  0  0  0  0  0
    3.2109   -3.3797    0.0000 H   0  0  0  0  0  0  0  0  0  0  0  0
    3.6323   -4.4383    0.0000 H   0  0  0  0  0  0  0  0  0  0  0  0
    5.3648    0.7078    0.0000 H   0  0  0  0  0  0  0  0  0  0  0  0
    8.4925   -2.2072    0.0000 H   0  0  0  0  0  0  0  0  0  0  0  0
    8.6059   -1.6741    0.0000 H   0  0  0  0  0  0  0  0  0  0  0  0
    9.0039   -0.8928    0.0000 H   0  0  0  0  0  0  0  0  0  0  0  0
    8.2227   -0.4947    0.0000 H   0  0  0  0  0  0  0  0  0  0  0  0
    4.7660   -4.7566    0.0000 H   0  0  0  0  0  0  0  0  0  0  0  0
    4.8119   -5.6323    0.0000 H   0  0  0  0  0  0  0  0  0  0  0  0
    5.6875   -5.5864    0.0000 H   0  0  0  0  0  0  0  0  0  0  0  0
    8.4063    0.0613    0.0000 H   0  0  0  0  0  0  0  0  0  0  0  0
    7.8367    2.3696    0.0000 H   0  0  0  0  0  0  0  0  0  0  0  0
    7.2532    1.9137    0.0000 H   0  0  0  0  0  0  0  0  0  0  0  0
    8.2024    2.9385    0.0000 H   0  0  0  0  0  0  0  0  0  0  0  0
    9.1491   -4.4670    0.0000 H   0  0  0  0  0  0  0  0  0  0  0  0
   10.0247   -4.4211    0.0000 H   0  0  0  0  0  0  0  0  0  0  0  0
    9.9788   -3.5455    0.0000 H   0  0  0  0  0  0  0  0  0  0  0  0
    7.0398   -6.1253    0.0000 H   0  0  0  0  0  0  0  0  0  0  0  0
    6.6417   -6.9066    0.0000 H   0  0  0  0  0  0  0  0  0  0  0  0
    5.8604   -6.5085    0.0000 H   0  0  0  0  0  0  0  0  0  0  0  0
    8.8576    3.3208    0.0000 H   0  0  0  0  0  0  0  0  0  0  0  0
    9.2554    4.0056    0.0000 H   0  0  0  0  0  0  0  0  0  0  0  0
    8.2424    4.2784    0.0000 H   0  0  0  0  0  0  0  0  0  0  0  0
    7.8948    4.9322    0.0000 H   0  0  0  0  0  0  0  0  0  0  0  0
    4.3572    1.3495    0.0000 H   0  0  0  0  0  0  0  0  0  0  0  0
    8.2351    5.9246    0.0000 H   0  0  0  0  0  0  0  0  0  0  0  0
    7.4449    5.9778    0.0000 H   0  0  0  0  0  0  0  0  0  0  0  0
    4.8734    5.0378    0.0000 H   0  0  0  0  0  0  0  0  0  0  0  0
    4.4810    4.4098    0.0000 H   0  0  0  0  0  0  0  0  0  0  0  0
    6.0854    5.6633    0.0000 H   0  0  0  0  0  0  0  0  0  0  0  0
    5.3812    5.4345    0.0000 H   0  0  0  0  0  0  0  0  0  0  0  0
    9.0294    1.0079    0.0000 H   0  0  0  0  0  0  0  0  0  0  0  0
    9.7647    1.4855    0.0000 H   0  0  0  0  0  0  0  0  0  0  0  0
    9.2872    2.2208    0.0000 H   0  0  0  0  0  0  0  0  0  0  0  0
   10.2521    5.0781    0.0000 H   0  0  0  0  0  0  0  0  0  0  0  0
    9.5762    5.5005    0.0000 H   0  0  0  0  0  0  0  0  0  0  0  0
    8.9019    6.3169    0.0000 H   0  0  0  0  0  0  0  0  0  0  0  0
    3.1988    4.5692    0.0000 H   0  0  0  0  0  0  0  0  0  0  0  0
    2.7427    1.3039    0.0000 H   0  0  0  0  0  0  0  0  0  0  0  0
    7.7538    0.0554    0.0000 H   0  0  0  0  0  0  0  0  0  0  0  0
    8.2815    0.7557    0.0000 H   0  0  0  0  0  0  0  0  0  0  0  0
    7.5813    1.2834    0.0000 H   0  0  0  0  0  0  0  0  0  0  0  0
    9.5845    3.7125    0.0000 H   0  0  0  0  0  0  0  0  0  0  0  0
   10.4230    3.4561    0.0000 H   0  0  0  0  0  0  0  0  0  0  0  0
   10.6794    4.2946    0.0000 H   0  0  0  0  0  0  0  0  0  0  0  0
    1.6558    3.9581    0.0000 H   0  0  0  0  0  0  0  0  0  0  0  0
    1.4262    2.3144    0.0000 H   0  0  0  0  0  0  0  0  0  0  0  0
 18  1  1  6  0  0  0
  1 74  1  0  0  0  0
  2 28  1  0  0  0  0
  2 41  1  0  0  0  0
  3 29  1  0  0  0  0
  3 42  1  0  0  0  0
  4 28  2  0  0  0  0
  5 29  2  0  0  0  0
  6 35  1  0  0  0  0
  6 50  1  0  0  0  0
  7 40  1  0  0  0  0
  7 56  1  0  0  0  0
  8 40  2  0  0  0  0
 46  9  1  1  0  0  0
  9107  1  0  0  0  0
 10 15  1  0  0  0  0
 10 22  1  0  0  0  0
 10 26  1  0  0  0  0
 11 17  1  0  0  0  0
 11 24  1  0  0  0  0
 11 31  1  0  0  0  0
 12 38  1  0  0  0  0
 12 52  1  0  0  0  0
 12 95  1  0  0  0  0
 13 44  1  0  0  0  0
 13 47  1  0  0  0  0
 13 49  1  0  0  0  0
 14 15  1  0  0  0  0
 14 17  1  0  0  0  0
 14 20  1  6  0  0  0
 14 21  1  0  0  0  0
 15 16  1  0  0  0  0
 15 60  1  1  0  0  0
 16 19  1  0  0  0  0
 16 23  1  1  0  0  0
 16 25  1  0  0  0  0
 17 18  1  0  0  0  0
 17 61  1  6  0  0  0
 18 19  1  0  0  0  0
 18 28  1  0  0  0  0
 19 29  1  6  0  0  0
 19 62  1  0  0  0  0
 20 22  1  0  0  0  0
 20 63  1  0  0  0  0
 20 64  1  0  0  0  0
 21 24  1  0  0  0  0
 21 30  2  0  0  0  0
 22 65  1  0  0  0  0
 22 66  1  0  0  0  0
 23 32  1  0  0  0  0
 23 67  1  0  0  0  0
 23 68  1  0  0  0  0
 24 33  2  0  0  0  0
 25 27  2  0  0  0  0
 25 69  1  0  0  0  0
 26 27  1  0  0  0  0
 26 70  1  0  0  0  0
 26 71  1  0  0  0  0
 27 72  1  0  0  0  0
 30 34  1  0  0  0  0
 30 73  1  0  0  0  0
 31 75  1  0  0  0  0
 31 76  1  0  0  0  0
 31 77  1  0  0  0  0
 32 78  1  0  0  0  0
 32 79  1  0  0  0  0
 32 80  1  0  0  0  0
 33 35  1  0  0  0  0
 33 81  1  0  0  0  0
 34 35  2  0  0  0  0
 34 36  1  0  0  0  0
 36 37  1  0  0  0  0
 36 38  1  0  0  0  0
 36 40  1  1  0  0  0
 37 39  1  0  0  0  0
 37 82  1  0  0  0  0
 37 83  1  0  0  0  0
 38 45  2  0  0  0  0
 39 43  1  0  0  0  0
 39 44  1  0  0  0  0
 39 84  1  0  0  0  0
 41 85  1  0  0  0  0
 41 86  1  0  0  0  0
 41 87  1  0  0  0  0
 42 88  1  0  0  0  0
 42 89  1  0  0  0  0
 42 90  1  0  0  0  0
 43 46  1  0  0  0  0
 43 91  1  0  0  0  0
 43 92  1  0  0  0  0
 44 93  1  0  0  0  0
 44 94  1  0  0  0  0
 45 48  1  0  0  0  0
 45 51  1  0  0  0  0
 46 47  1  0  0  0  0
 46 53  1  0  0  0  0
 47 96  1  0  0  0  0
 47 97  1  0  0  0  0
 48 49  1  0  0  0  0
 48 98  1  0  0  0  0
 48 99  1  0  0  0  0
 49100  1  0  0  0  0
 49101  1  0  0  0  0
 50102  1  0  0  0  0
 50103  1  0  0  0  0
 50104  1  0  0  0  0
 51 52  1  0  0  0  0
 51 54  2  0  0  0  0
 52 55  2  0  0  0  0
 53 57  1  0  0  0  0
 53105  1  0  0  0  0
 53106  1  0  0  0  0
 54 58  1  0  0  0  0
 54108  1  0  0  0  0
 55 59  1  0  0  0  0
 55109  1  0  0  0  0
 56110  1  0  0  0  0
 56111  1  0  0  0  0
 56112  1  0  0  0  0
 57113  1  0  0  0  0
 57114  1  0  0  0  0
 57115  1  0  0  0  0
 58 59  2  0  0  0  0
 58116  1  0  0  0  0
 59117  1  0  0  0  0
M  END
> <PUBCHEM_COMPOUND_CID>
8936

> <PUBCHEM_COMPOUND_CANONICALIZED>
1

> <PUBCHEM_CACTVS_COMPLEXITY>
1700

> <PUBCHEM_CACTVS_HBOND_ACCEPTOR>
12

> <PUBCHEM_CACTVS_HBOND_DONOR>
3

> <PUBCHEM_CACTVS_ROTATABLE_BOND>
10

> <PUBCHEM_CACTVS_SUBSKEYS>
AAADcfB/vAAAAAAAAAAAAAAAAAAAAWLFgAA8YMECAAAAAFiB9AAAHgAQCAAAD2zBngYyzvPJlgCoAyTyTAKCiCAhIiAImSF+bJgPJv7E9ZuEcChn8Bnb6Af/2fOfqAACAgAKAADQgAaECDQgAAAAAAAAAA==

> <PUBCHEM_IUPAC_INCHI>
InChI=1S/C46H58N4O9/c1-8-42(54)23-27-24-45(40(52)58-6,36-29(15-19-49(25-27)26-42)28-13-10-11-14-32(28)47-36)31-21-30-33(22-34(31)56-4)48(3)39-44(30)17-20-50-18-12-16-43(9-2,38(44)50)35(37(51)57-5)46(39,55)41(53)59-7/h10-14,16,21-22,27,35,38-39,47,54-55H,8-9,15,17-20,23-26H2,1-7H3/t27?,35-,38+,39-,42+,43+,44-,45+,46-/m1/s1

> <PUBCHEM_IUPAC_INCHIKEY>
SLIRURSWQCRWFG-KESWQCBOSA-N

> <PUBCHEM_XLOGP3>
4.2

> <PUBCHEM_EXACT_MASS>
810.420379

> <PUBCHEM_MOLECULAR_FORMULA>
C46H58N4O9

> <PUBCHEM_MOLECULAR_WEIGHT>
810.97412

> <PUBCHEM_OPENEYE_CAN_SMILES>
CCC1(CC2CC(C3=C(CCN(C2)C1)C4=CC=CC=C4N3)(C5=C(C=C6C(=C5)C78CCN9C7C(C=CC9)(C(C(C8N6C)(C(=O)OC)O)C(=O)OC)CC)OC)C(=O)OC)O

> <PUBCHEM_OPENEYE_ISO_SMILES>
CC[C@@]1(CC2C[C@@](C3=C(CCN(C2)C1)C4=CC=CC=C4N3)(C5=C(C=C6C(=C5)[C@]78CCN9[C@H]7[C@@](C=CC9)([C@H]([C@@]([C@@H]8N6C)(C(=O)OC)O)C(=O)OC)CC)OC)C(=O)OC)O

> <PUBCHEM_CACTVS_TPSA>
154

> <PUBCHEM_MONOISOTOPIC_WEIGHT>
810.420379

> <PUBCHEM_TOTAL_CHARGE>
0

> <PUBCHEM_HEAVY_ATOM_COUNT>
59

> <PUBCHEM_ATOM_DEF_STEREO_COUNT>
8

> <PUBCHEM_ATOM_UDEF_STEREO_COUNT>
0

> <PUBCHEM_BOND_DEF_STEREO_COUNT>
0

> <PUBCHEM_BOND_UDEF_STEREO_COUNT>
0

> <PUBCHEM_ISOTOPIC_ATOM_COUNT>
0

> <PUBCHEM_COMPONENT_COUNT>
1

> <PUBCHEM_CACTVS_TAUTO_COUNT>
1

> <PUBCHEM_COORDINATE_TYPE>
1
5
255

> <PUBCHEM_BONDANNOTATIONS>
18  1  6
12  38  8
12  52  8
14  20  6
15  60  5
16  23  5
17  61  6
19  29  6
21  24  8
21  30  8
24  33  8
30  34  8
33  35  8
34  35  8
36  40  5
38  45  8
45  51  8
51  52  8
51  54  8
52  55  8
54  58  8
55  59  8
58  59  8
46  9  5

$$$$

