12792
  -OEChem-06261207223D

 15 15  0     0  0  0  0  0  0999 V2000
    0.0150    0.5141   -0.0014 O   0  0  0  0  0  0  0  0  0  0  0  0
   -3.4253   -0.3717    0.0112 O   0  0  0  0  0  0  0  0  0  0  0  0
    3.4141   -0.3075    0.0031 O   0  5  0  0  0  0  0  0  0  0  0  0
    2.3815    1.6298    0.0016 O   0  0  0  0  0  0  0  0  0  0  0  0
    2.3403    0.3639    0.0015 N   0  3  0  0  0  0  0  0  0  0  0  0
   -2.4519    1.7045   -0.0033 N   0  0  0  0  0  0  0  0  0  0  0  0
   -1.0711   -0.3028   -0.0030 C   0  0  0  0  0  0  0  0  0  0  0  0
    1.1082   -0.2928   -0.0008 C   0  0  0  0  0  0  0  0  0  0  0  0
   -0.6832   -1.6224   -0.0032 C   0  0  0  0  0  0  0  0  0  0  0  0
    0.7321   -1.6160   -0.0019 C   0  0  0  0  0  0  0  0  0  0  0  0
   -2.3598    0.3009   -0.0039 C   0  0  0  0  0  0  0  0  0  0  0  0
   -1.3343   -2.4852   -0.0043 H   0  0  0  0  0  0  0  0  0  0  0  0
    1.3902   -2.4735   -0.0016 H   0  0  0  0  0  0  0  0  0  0  0  0
   -1.6272    2.2963   -0.0078 H   0  0  0  0  0  0  0  0  0  0  0  0
   -3.3545    2.1675    0.0022 H   0  0  0  0  0  0  0  0  0  0  0  0
  1  7  1  0  0  0  0
  1  8  1  0  0  0  0
  2 11  2  0  0  0  0
  3  5  1  0  0  0  0
  4  5  2  0  0  0  0
  5  8  1  0  0  0  0
  6 11  1  0  0  0  0
  6 14  1  0  0  0  0
  6 15  1  0  0  0  0
  7  9  2  0  0  0  0
  7 11  1  0  0  0  0
  8 10  2  0  0  0  0
  9 10  1  0  0  0  0
  9 12  1  0  0  0  0
 10 13  1  0  0  0  0
M  CHG  2   3  -1   5   1
M  END
> <PUBCHEM_COMPOUND_CID>
12792

> <PUBCHEM_CONFORMER_RMSD>
0.4

> <PUBCHEM_CONFORMER_DIVERSEORDER>
1
3
2
4

> <PUBCHEM_MMFF94_PARTIAL_CHARGES>
15
1 -0.28
10 -0.15
11 0.71
12 0.15
13 0.15
14 0.37
15 0.37
2 -0.57
3 -0.52
4 -0.52
5 0.96
6 -0.8
7 0.05
8 0.22
9 -0.15

> <PUBCHEM_EFFECTIVE_ROTOR_COUNT>
2

> <PUBCHEM_PHARMACOPHORE_FEATURES>
7
1 1 acceptor
1 2 acceptor
1 3 acceptor
1 3 anion
1 4 acceptor
1 6 donor
5 1 7 8 9 10 rings

> <PUBCHEM_HEAVY_ATOM_COUNT>
11

> <PUBCHEM_ATOM_DEF_STEREO_COUNT>
0

> <PUBCHEM_ATOM_UDEF_STEREO_COUNT>
0

> <PUBCHEM_BOND_DEF_STEREO_COUNT>
0

> <PUBCHEM_BOND_UDEF_STEREO_COUNT>
0

> <PUBCHEM_ISOTOPIC_ATOM_COUNT>
0

> <PUBCHEM_COMPONENT_COUNT>
1

> <PUBCHEM_CACTVS_TAUTO_COUNT>
2

> <PUBCHEM_CONFORMER_ID>
000031F800000001

> <PUBCHEM_MMFF94_ENERGY>
15.9475

> <PUBCHEM_FEATURE_SELFOVERLAP>
35.613

> <PUBCHEM_SHAPE_FINGERPRINT>
12897270 3 18409451401355038981
12932764 1 17240778297432082667
13380535 76 18410857659188964235
14325111 11 18410573989446444420
14390081 3 18409167727175802585
16945 1 18410575080410588967
20653085 51 18335972125544015008
21028194 46 18410571781838516048
21040471 1 18410856555413614918
23402655 69 18120108410174163797
23552423 10 18194120943953829111
2748010 2 18194963169565020799
5084963 1 18187365428163203385

> <PUBCHEM_SHAPE_MULTIPOLES>
192.94
4.66
1.63
0.56
0.18
0.03
0
1.38
0.01
-0.01
0
-0.02
-0.04
0

> <PUBCHEM_SHAPE_SELFOVERLAP>
406.117

> <PUBCHEM_SHAPE_VOLUME>
109.4

> <PUBCHEM_COORDINATE_TYPE>
2
5
10

$$$$

