3901
  -OEChem-06251223452D

 91 91  0     1  0  0  0  0  0999 V2000
    6.3301   -4.8450    0.0000 O   0  0  0  0  0  0  0  0  0  0  0  0
    7.1962   -3.3450    0.0000 O   0  0  0  0  0  0  0  0  0  0  0  0
   13.2583    7.1550    0.0000 O   0  0  0  0  0  0  0  0  0  0  0  0
    2.8660   -8.8450    0.0000 O   0  0  0  0  0  0  0  0  0  0  0  0
    2.0000   -7.3450    0.0000 O   0  0  0  0  0  0  0  0  0  0  0  0
   14.9904    7.1550    0.0000 O   0  0  0  0  0  0  0  0  0  0  0  0
    5.4641   -4.3450    0.0000 C   0  0  3  0  0  0  0  0  0  0  0  0
    4.5981   -4.8450    0.0000 C   0  0  3  0  0  0  0  0  0  0  0  0
    5.4641   -3.3450    0.0000 C   0  0  3  0  0  0  0  0  0  0  0  0
    4.5981   -5.8450    0.0000 C   0  0  0  0  0  0  0  0  0  0  0  0
    6.3301   -2.8450    0.0000 C   0  0  0  0  0  0  0  0  0  0  0  0
    3.7320   -4.3450    0.0000 C   0  0  0  0  0  0  0  0  0  0  0  0
    4.5981   -2.8450    0.0000 C   0  0  0  0  0  0  0  0  0  0  0  0
    6.3301   -1.8450    0.0000 C   0  0  3  0  0  0  0  0  0  0  0  0
    3.7320   -6.3450    0.0000 C   0  0  0  0  0  0  0  0  0  0  0  0
    5.4641   -1.3450    0.0000 C   0  0  0  0  0  0  0  0  0  0  0  0
    7.1962   -1.3450    0.0000 C   0  0  0  0  0  0  0  0  0  0  0  0
    7.1962   -0.3450    0.0000 C   0  0  0  0  0  0  0  0  0  0  0  0
    3.7320   -7.3450    0.0000 C   0  0  0  0  0  0  0  0  0  0  0  0
   12.3923    8.6550    0.0000 C   0  0  3  0  0  0  0  0  0  0  0  0
   12.3923    7.6550    0.0000 C   0  0  3  0  0  0  0  0  0  0  0  0
    9.7942    4.1550    0.0000 C   0  0  3  0  0  0  0  0  0  0  0  0
    8.0622    0.1550    0.0000 C   0  0  0  0  0  0  0  0  0  0  0  0
    6.3301    0.1550    0.0000 C   0  0  0  0  0  0  0  0  0  0  0  0
    9.7942    3.1550    0.0000 C   0  0  0  0  0  0  0  0  0  0  0  0
   10.6603    5.6550    0.0000 C   0  0  0  0  0  0  0  0  0  0  0  0
   11.5263    7.1550    0.0000 C   0  0  0  0  0  0  0  0  0  0  0  0
   10.6603    4.6550    0.0000 C   0  0  0  0  0  0  0  0  0  0  0  0
   11.5263    9.1550    0.0000 C   0  0  0  0  0  0  0  0  0  0  0  0
    8.0622    1.1550    0.0000 C   0  0  0  0  0  0  0  0  0  0  0  0
   13.2583    9.1550    0.0000 C   0  0  0  0  0  0  0  0  0  0  0  0
   11.5263    6.1550    0.0000 C   0  0  0  0  0  0  0  0  0  0  0  0
    8.9282    4.6550    0.0000 C   0  0  0  0  0  0  0  0  0  0  0  0
    9.7942    6.1550    0.0000 C   0  0  0  0  0  0  0  0  0  0  0  0
    2.8660   -7.8450    0.0000 C   0  0  0  0  0  0  0  0  0  0  0  0
    8.9282    2.6550    0.0000 C   0  0  0  0  0  0  0  0  0  0  0  0
    8.9282    1.6550    0.0000 C   0  0  0  0  0  0  0  0  0  0  0  0
   14.1244    8.6550    0.0000 C   0  0  0  0  0  0  0  0  0  0  0  0
   14.1244    7.6550    0.0000 C   0  0  0  0  0  0  0  0  0  0  0  0
    7.1962    1.6550    0.0000 C   0  0  0  0  0  0  0  0  0  0  0  0
    8.9282    5.6550    0.0000 C   0  0  0  0  0  0  0  0  0  0  0  0
    5.4641   -5.1950    0.0000 H   0  0  0  0  0  0  0  0  0  0  0  0
    4.5981   -3.9950    0.0000 H   0  0  0  0  0  0  0  0  0  0  0  0
    5.4641   -2.4950    0.0000 H   0  0  0  0  0  0  0  0  0  0  0  0
    4.8101   -6.4276    0.0000 H   0  0  0  0  0  0  0  0  0  0  0  0
    5.2087   -5.7373    0.0000 H   0  0  0  0  0  0  0  0  0  0  0  0
    4.0420   -3.8081    0.0000 H   0  0  0  0  0  0  0  0  0  0  0  0
    3.1951   -4.0350    0.0000 H   0  0  0  0  0  0  0  0  0  0  0  0
    3.4220   -4.8819    0.0000 H   0  0  0  0  0  0  0  0  0  0  0  0
    4.9081   -2.3081    0.0000 H   0  0  0  0  0  0  0  0  0  0  0  0
    4.0611   -2.5350    0.0000 H   0  0  0  0  0  0  0  0  0  0  0  0
    4.2881   -3.3819    0.0000 H   0  0  0  0  0  0  0  0  0  0  0  0
    5.5940   -2.2700    0.0000 H   0  0  0  0  0  0  0  0  0  0  0  0
    6.3301   -5.4650    0.0000 H   0  0  0  0  0  0  0  0  0  0  0  0
    3.1951   -6.0350    0.0000 H   0  0  0  0  0  0  0  0  0  0  0  0
    5.7741   -0.8081    0.0000 H   0  0  0  0  0  0  0  0  0  0  0  0
    4.9272   -1.0350    0.0000 H   0  0  0  0  0  0  0  0  0  0  0  0
    5.1541   -1.8819    0.0000 H   0  0  0  0  0  0  0  0  0  0  0  0
    7.7331   -1.6550    0.0000 H   0  0  0  0  0  0  0  0  0  0  0  0
    4.2690   -7.6550    0.0000 H   0  0  0  0  0  0  0  0  0  0  0  0
   11.6562    8.2300    0.0000 H   0  0  0  0  0  0  0  0  0  0  0  0
   12.3923    6.8050    0.0000 H   0  0  0  0  0  0  0  0  0  0  0  0
    9.0581    3.7300    0.0000 H   0  0  0  0  0  0  0  0  0  0  0  0
    8.5991   -0.1550    0.0000 H   0  0  0  0  0  0  0  0  0  0  0  0
    6.6401    0.6919    0.0000 H   0  0  0  0  0  0  0  0  0  0  0  0
    5.7932    0.4650    0.0000 H   0  0  0  0  0  0  0  0  0  0  0  0
    6.0201   -0.3819    0.0000 H   0  0  0  0  0  0  0  0  0  0  0  0
   10.0063    2.5724    0.0000 H   0  0  0  0  0  0  0  0  0  0  0  0
   10.4048    3.2627    0.0000 H   0  0  0  0  0  0  0  0  0  0  0  0
   10.9893    7.4650    0.0000 H   0  0  0  0  0  0  0  0  0  0  0  0
   11.1972    4.3450    0.0000 H   0  0  0  0  0  0  0  0  0  0  0  0
   11.8363    9.6919    0.0000 H   0  0  0  0  0  0  0  0  0  0  0  0
   10.9893    9.4650    0.0000 H   0  0  0  0  0  0  0  0  0  0  0  0
   11.2163    8.6181    0.0000 H   0  0  0  0  0  0  0  0  0  0  0  0
   13.2583    9.7750    0.0000 H   0  0  0  0  0  0  0  0  0  0  0  0
   12.0632    5.8450    0.0000 H   0  0  0  0  0  0  0  0  0  0  0  0
    9.2382    5.1919    0.0000 H   0  0  0  0  0  0  0  0  0  0  0  0
    8.3913    4.9650    0.0000 H   0  0  0  0  0  0  0  0  0  0  0  0
    8.6182    4.1181    0.0000 H   0  0  0  0  0  0  0  0  0  0  0  0
   10.1928    6.6300    0.0000 H   0  0  0  0  0  0  0  0  0  0  0  0
    9.3957    6.6300    0.0000 H   0  0  0  0  0  0  0  0  0  0  0  0
    8.3913    2.9650    0.0000 H   0  0  0  0  0  0  0  0  0  0  0  0
    9.4651    1.3450    0.0000 H   0  0  0  0  0  0  0  0  0  0  0  0
   14.6613    8.9650    0.0000 H   0  0  0  0  0  0  0  0  0  0  0  0
    7.5062    2.1919    0.0000 H   0  0  0  0  0  0  0  0  0  0  0  0
    6.6592    1.9650    0.0000 H   0  0  0  0  0  0  0  0  0  0  0  0
    6.8862    1.1181    0.0000 H   0  0  0  0  0  0  0  0  0  0  0  0
    8.6182    6.1919    0.0000 H   0  0  0  0  0  0  0  0  0  0  0  0
    8.3913    5.3450    0.0000 H   0  0  0  0  0  0  0  0  0  0  0  0
    9.2382    5.1181    0.0000 H   0  0  0  0  0  0  0  0  0  0  0  0
    2.3291   -9.1550    0.0000 H   0  0  0  0  0  0  0  0  0  0  0  0
  1  7  1  0  0  0  0
  1 54  1  0  0  0  0
  2 11  2  0  0  0  0
  3 21  1  0  0  0  0
  3 39  1  0  0  0  0
  4 35  1  0  0  0  0
  4 91  1  0  0  0  0
  5 35  2  0  0  0  0
  6 39  2  0  0  0  0
  7  8  1  0  0  0  0
  7  9  1  0  0  0  0
  7 42  1  0  0  0  0
  8 10  1  0  0  0  0
  8 12  1  0  0  0  0
  8 43  1  0  0  0  0
  9 11  1  0  0  0  0
  9 13  1  0  0  0  0
  9 44  1  0  0  0  0
 10 15  1  0  0  0  0
 10 45  1  0  0  0  0
 10 46  1  0  0  0  0
 11 14  1  0  0  0  0
 12 47  1  0  0  0  0
 12 48  1  0  0  0  0
 12 49  1  0  0  0  0
 13 50  1  0  0  0  0
 13 51  1  0  0  0  0
 13 52  1  0  0  0  0
 14 16  1  0  0  0  0
 14 17  1  0  0  0  0
 14 53  1  0  0  0  0
 15 19  2  3  0  0  0
 15 55  1  0  0  0  0
 16 56  1  0  0  0  0
 16 57  1  0  0  0  0
 16 58  1  0  0  0  0
 17 18  2  3  0  0  0
 17 59  1  0  0  0  0
 18 23  1  0  0  0  0
 18 24  1  0  0  0  0
 19 35  1  0  0  0  0
 19 60  1  0  0  0  0
 20 21  1  0  0  0  0
 20 29  1  0  0  0  0
 20 31  1  0  0  0  0
 20 61  1  0  0  0  0
 21 27  1  0  0  0  0
 21 62  1  0  0  0  0
 22 25  1  0  0  0  0
 22 28  1  0  0  0  0
 22 33  1  0  0  0  0
 22 63  1  0  0  0  0
 23 30  2  3  0  0  0
 23 64  1  0  0  0  0
 24 65  1  0  0  0  0
 24 66  1  0  0  0  0
 24 67  1  0  0  0  0
 25 36  1  0  0  0  0
 25 68  1  0  0  0  0
 25 69  1  0  0  0  0
 26 28  2  3  0  0  0
 26 32  1  0  0  0  0
 26 34  1  0  0  0  0
 27 32  2  3  0  0  0
 27 70  1  0  0  0  0
 28 71  1  0  0  0  0
 29 72  1  0  0  0  0
 29 73  1  0  0  0  0
 29 74  1  0  0  0  0
 30 37  1  0  0  0  0
 30 40  1  0  0  0  0
 31 38  2  0  0  0  0
 31 75  1  0  0  0  0
 32 76  1  0  0  0  0
 33 77  1  0  0  0  0
 33 78  1  0  0  0  0
 33 79  1  0  0  0  0
 34 41  1  0  0  0  0
 34 80  1  0  0  0  0
 34 81  1  0  0  0  0
 36 37  2  3  0  0  0
 36 82  1  0  0  0  0
 37 83  1  0  0  0  0
 38 39  1  0  0  0  0
 38 84  1  0  0  0  0
 40 85  1  0  0  0  0
 40 86  1  0  0  0  0
 40 87  1  0  0  0  0
 41 88  1  0  0  0  0
 41 89  1  0  0  0  0
 41 90  1  0  0  0  0
M  END
> <PUBCHEM_COMPOUND_CID>
3901

> <PUBCHEM_COMPOUND_CANONICALIZED>
1

> <PUBCHEM_CACTVS_COMPLEXITY>
1100

> <PUBCHEM_CACTVS_HBOND_ACCEPTOR>
6

> <PUBCHEM_CACTVS_HBOND_DONOR>
2

> <PUBCHEM_CACTVS_ROTATABLE_BOND>
16

> <PUBCHEM_CACTVS_SUBSKEYS>
AAADcfB8OAAAAAAAAAAAAAAAAAAAAAAAAAAgAAAAAAAAAAAAAAAAGgAACAAADRSggAICCAAABgCIAqDSCAAAAAAgAAAICAEAAEgIFBYAIQACUAAE4AAIsYOIiMAOAAAAAAAAAAAAAAAAAAAAAAAAAAAAAA==

> <PUBCHEM_IUPAC_OPENEYE_NAME>
19-ethyl-6-hydroxy-5,7,9,11,13,17-hexamethyl-21-(3-methyl-6-oxo-2,3-dihydropyran-2-yl)-8-oxo-henicosa-2,10,12,14,18,20-hexaenoic acid

> <PUBCHEM_IUPAC_CAS_NAME>
19-ethyl-6-hydroxy-5,7,9,11,13,17-hexamethyl-21-(3-methyl-6-oxo-2,3-dihydropyran-2-yl)-8-oxoheneicosa-2,10,12,14,18,20-hexaenoic acid

> <PUBCHEM_IUPAC_NAME>
19-ethyl-6-hydroxy-5,7,9,11,13,17-hexamethyl-21-(3-methyl-6-oxo-2,3-dihydropyran-2-yl)-8-oxohenicosa-2,10,12,14,18,20-hexaenoic acid

> <PUBCHEM_IUPAC_SYSTEMATIC_NAME>
19-ethyl-5,7,9,11,13,17-hexamethyl-21-(3-methyl-6-oxidanylidene-2,3-dihydropyran-2-yl)-6-oxidanyl-8-oxidanylidene-henicosa-2,10,12,14,18,20-hexaenoic acid

> <PUBCHEM_IUPAC_TRADITIONAL_NAME>
19-ethyl-6-hydroxy-8-keto-21-(6-keto-3-methyl-2,3-dihydropyran-2-yl)-5,7,9,11,13,17-hexamethyl-heneicosa-2,10,12,14,18,20-hexaenoic acid

> <PUBCHEM_IUPAC_INCHI>
InChI=1S/C35H50O6/c1-9-30(17-18-31-26(5)16-19-33(38)41-31)22-24(3)13-10-12-23(2)20-25(4)21-28(7)35(40)29(8)34(39)27(6)14-11-15-32(36)37/h10-12,15-22,24,26-29,31,34,39H,9,13-14H2,1-8H3,(H,36,37)

> <PUBCHEM_IUPAC_INCHIKEY>
UNCUNFJKKRXXIS-UHFFFAOYSA-N

> <PUBCHEM_XLOGP3_AA>
8.5

> <PUBCHEM_EXACT_MASS>
566.360739

> <PUBCHEM_MOLECULAR_FORMULA>
C35H50O6

> <PUBCHEM_MOLECULAR_WEIGHT>
566.7679

> <PUBCHEM_OPENEYE_CAN_SMILES>
CCC(=CC(C)CC=CC(=CC(=CC(C)C(=O)C(C)C(C(C)CC=CC(=O)O)O)C)C)C=CC1C(C=CC(=O)O1)C

> <PUBCHEM_OPENEYE_ISO_SMILES>
CCC(=CC(C)CC=CC(=CC(=CC(C)C(=O)C(C)C(C(C)CC=CC(=O)O)O)C)C)C=CC1C(C=CC(=O)O1)C

> <PUBCHEM_CACTVS_TPSA>
101

> <PUBCHEM_MONOISOTOPIC_WEIGHT>
566.360739

> <PUBCHEM_TOTAL_CHARGE>
0

> <PUBCHEM_HEAVY_ATOM_COUNT>
41

> <PUBCHEM_ATOM_DEF_STEREO_COUNT>
0

> <PUBCHEM_ATOM_UDEF_STEREO_COUNT>
7

> <PUBCHEM_BOND_DEF_STEREO_COUNT>
0

> <PUBCHEM_BOND_UDEF_STEREO_COUNT>
6

> <PUBCHEM_ISOTOPIC_ATOM_COUNT>
0

> <PUBCHEM_COMPONENT_COUNT>
1

> <PUBCHEM_CACTVS_TAUTO_COUNT>
7

> <PUBCHEM_COORDINATE_TYPE>
1
5
255

> <PUBCHEM_BONDANNOTATIONS>
14  53  3
15  19  1
17  18  1
20  61  3
21  62  3
22  63  3
23  30  1
26  28  1
27  32  1
36  37  1
7  42  3
8  43  3
9  44  3

$$$$

