4334
  -OEChem-06261200032D

 70 70  0     1  0  0  0  0  0999 V2000
    8.0622   -0.9050    0.0000 O   0  0  0  0  0  0  0  0  0  0  0  0
    4.5981    0.0950    0.0000 O   0  0  0  0  0  0  0  0  0  0  0  0
    8.9282   -1.4050    0.0000 O   0  0  0  0  0  0  0  0  0  0  0  0
    5.4641    3.5950    0.0000 O   0  0  0  0  0  0  0  0  0  0  0  0
    6.3301   -6.9050    0.0000 O   0  0  0  0  0  0  0  0  0  0  0  0
    4.5981    6.0950    0.0000 O   0  0  0  0  0  0  0  0  0  0  0  0
    2.0000    6.5950    0.0000 O   0  0  0  0  0  0  0  0  0  0  0  0
    3.7320    6.5950    0.0000 O   0  0  0  0  0  0  0  0  0  0  0  0
    6.3301   -0.9050    0.0000 N   0  0  0  0  0  0  0  0  0  0  0  0
    8.0622   -2.9050    0.0000 N   0  0  0  0  0  0  0  0  0  0  0  0
    5.4641    1.5950    0.0000 N   0  0  0  0  0  0  0  0  0  0  0  0
    3.7320    3.5950    0.0000 N   0  0  0  0  0  0  0  0  0  0  0  0
    6.3301    0.0950    0.0000 C   0  0  3  0  0  0  0  0  0  0  0  0
    7.1962    0.5950    0.0000 C   0  0  0  0  0  0  0  0  0  0  0  0
    7.1962   -2.4050    0.0000 C   0  0  3  0  0  0  0  0  0  0  0  0
    7.1962   -1.4050    0.0000 C   0  0  0  0  0  0  0  0  0  0  0  0
    6.3301   -2.9050    0.0000 C   0  0  0  0  0  0  0  0  0  0  0  0
    5.4641    0.5950    0.0000 C   0  0  0  0  0  0  0  0  0  0  0  0
    7.1962    1.5950    0.0000 C   0  0  0  0  0  0  0  0  0  0  0  0
    8.0622    0.0950    0.0000 C   0  0  0  0  0  0  0  0  0  0  0  0
    4.5981    2.0950    0.0000 C   0  0  3  0  0  0  0  0  0  0  0  0
    6.3301   -3.9050    0.0000 C   0  0  0  0  0  0  0  0  0  0  0  0
    8.0622   -3.9050    0.0000 C   0  0  0  0  0  0  0  0  0  0  0  0
    8.9282   -2.4050    0.0000 C   0  0  0  0  0  0  0  0  0  0  0  0
    4.5981    3.0950    0.0000 C   0  0  0  0  0  0  0  0  0  0  0  0
    3.7320    1.5950    0.0000 C   0  0  0  0  0  0  0  0  0  0  0  0
    5.4641   -4.4050    0.0000 C   0  0  0  0  0  0  0  0  0  0  0  0
    7.1962   -4.4050    0.0000 C   0  0  0  0  0  0  0  0  0  0  0  0
    3.7320    4.5950    0.0000 C   0  0  3  0  0  0  0  0  0  0  0  0
    9.7942   -2.9050    0.0000 C   0  0  0  0  0  0  0  0  0  0  0  0
    5.4641   -5.4050    0.0000 C   0  0  0  0  0  0  0  0  0  0  0  0
    7.1962   -5.4050    0.0000 C   0  0  0  0  0  0  0  0  0  0  0  0
    6.3301   -5.9050    0.0000 C   0  0  0  0  0  0  0  0  0  0  0  0
    2.8660    5.0950    0.0000 C   0  0  0  0  0  0  0  0  0  0  0  0
    4.5981    5.0950    0.0000 C   0  0  0  0  0  0  0  0  0  0  0  0
    2.8660    6.0950    0.0000 C   0  0  0  0  0  0  0  0  0  0  0  0
    7.0662   -0.3300    0.0000 H   0  0  0  0  0  0  0  0  0  0  0  0
    6.6592    0.9050    0.0000 H   0  0  0  0  0  0  0  0  0  0  0  0
    7.9323   -1.9800    0.0000 H   0  0  0  0  0  0  0  0  0  0  0  0
    5.7932   -1.2150    0.0000 H   0  0  0  0  0  0  0  0  0  0  0  0
    6.1181   -2.3224    0.0000 H   0  0  0  0  0  0  0  0  0  0  0  0
    5.7196   -3.0127    0.0000 H   0  0  0  0  0  0  0  0  0  0  0  0
    7.8162    1.5950    0.0000 H   0  0  0  0  0  0  0  0  0  0  0  0
    7.1962    2.2150    0.0000 H   0  0  0  0  0  0  0  0  0  0  0  0
    6.5762    1.5950    0.0000 H   0  0  0  0  0  0  0  0  0  0  0  0
    7.7522   -0.4419    0.0000 H   0  0  0  0  0  0  0  0  0  0  0  0
    8.5991   -0.2150    0.0000 H   0  0  0  0  0  0  0  0  0  0  0  0
    8.3722    0.6319    0.0000 H   0  0  0  0  0  0  0  0  0  0  0  0
    6.0010    1.9050    0.0000 H   0  0  0  0  0  0  0  0  0  0  0  0
    4.5981    1.2450    0.0000 H   0  0  0  0  0  0  0  0  0  0  0  0
    7.4422   -3.9050    0.0000 H   0  0  0  0  0  0  0  0  0  0  0  0
    8.0622   -4.5250    0.0000 H   0  0  0  0  0  0  0  0  0  0  0  0
    8.6822   -3.9050    0.0000 H   0  0  0  0  0  0  0  0  0  0  0  0
    3.4220    2.1319    0.0000 H   0  0  0  0  0  0  0  0  0  0  0  0
    3.1951    1.2850    0.0000 H   0  0  0  0  0  0  0  0  0  0  0  0
    4.0420    1.0581    0.0000 H   0  0  0  0  0  0  0  0  0  0  0  0
    4.9272   -4.0950    0.0000 H   0  0  0  0  0  0  0  0  0  0  0  0
    7.7331   -4.0950    0.0000 H   0  0  0  0  0  0  0  0  0  0  0  0
    3.1951    3.2850    0.0000 H   0  0  0  0  0  0  0  0  0  0  0  0
    4.4682    4.1700    0.0000 H   0  0  0  0  0  0  0  0  0  0  0  0
    9.4842   -3.4419    0.0000 H   0  0  0  0  0  0  0  0  0  0  0  0
   10.3312   -3.2150    0.0000 H   0  0  0  0  0  0  0  0  0  0  0  0
   10.1042   -2.3681    0.0000 H   0  0  0  0  0  0  0  0  0  0  0  0
    4.9272   -5.7150    0.0000 H   0  0  0  0  0  0  0  0  0  0  0  0
    7.7331   -5.7150    0.0000 H   0  0  0  0  0  0  0  0  0  0  0  0
    2.2554    5.2027    0.0000 H   0  0  0  0  0  0  0  0  0  0  0  0
    2.6540    4.5124    0.0000 H   0  0  0  0  0  0  0  0  0  0  0  0
    5.1350    4.7850    0.0000 H   0  0  0  0  0  0  0  0  0  0  0  0
    5.7932   -7.2150    0.0000 H   0  0  0  0  0  0  0  0  0  0  0  0
    2.0000    7.2150    0.0000 H   0  0  0  0  0  0  0  0  0  0  0  0
  1 16  2  0  0  0  0
  2 18  2  0  0  0  0
  3 24  2  0  0  0  0
  4 25  2  0  0  0  0
  5 33  1  0  0  0  0
  5 69  1  0  0  0  0
  6 35  2  0  0  0  0
  7 36  1  0  0  0  0
  7 70  1  0  0  0  0
  8 36  2  0  0  0  0
  9 13  1  0  0  0  0
  9 16  1  0  0  0  0
  9 40  1  0  0  0  0
 10 15  1  0  0  0  0
 10 23  1  0  0  0  0
 10 24  1  0  0  0  0
 11 18  1  0  0  0  0
 11 21  1  0  0  0  0
 11 49  1  0  0  0  0
 12 25  1  0  0  0  0
 12 29  1  0  0  0  0
 12 59  1  0  0  0  0
 13 14  1  0  0  0  0
 13 18  1  0  0  0  0
 13 37  1  0  0  0  0
 14 19  1  0  0  0  0
 14 20  1  0  0  0  0
 14 38  1  0  0  0  0
 15 16  1  0  0  0  0
 15 17  1  0  0  0  0
 15 39  1  0  0  0  0
 17 22  1  0  0  0  0
 17 41  1  0  0  0  0
 17 42  1  0  0  0  0
 19 43  1  0  0  0  0
 19 44  1  0  0  0  0
 19 45  1  0  0  0  0
 20 46  1  0  0  0  0
 20 47  1  0  0  0  0
 20 48  1  0  0  0  0
 21 25  1  0  0  0  0
 21 26  1  0  0  0  0
 21 50  1  0  0  0  0
 22 27  2  0  0  0  0
 22 28  1  0  0  0  0
 23 51  1  0  0  0  0
 23 52  1  0  0  0  0
 23 53  1  0  0  0  0
 24 30  1  0  0  0  0
 26 54  1  0  0  0  0
 26 55  1  0  0  0  0
 26 56  1  0  0  0  0
 27 31  1  0  0  0  0
 27 57  1  0  0  0  0
 28 32  2  0  0  0  0
 28 58  1  0  0  0  0
 29 34  1  0  0  0  0
 29 35  1  0  0  0  0
 29 60  1  0  0  0  0
 30 61  1  0  0  0  0
 30 62  1  0  0  0  0
 30 63  1  0  0  0  0
 31 33  2  0  0  0  0
 31 64  1  0  0  0  0
 32 33  1  0  0  0  0
 32 65  1  0  0  0  0
 34 36  1  0  0  0  0
 34 66  1  0  0  0  0
 34 67  1  0  0  0  0
 35 68  1  0  0  0  0
M  END
> <PUBCHEM_COMPOUND_CID>
4334

> <PUBCHEM_COMPOUND_CANONICALIZED>
1

> <PUBCHEM_CACTVS_COMPLEXITY>
810

> <PUBCHEM_CACTVS_HBOND_ACCEPTOR>
8

> <PUBCHEM_CACTVS_HBOND_DONOR>
5

> <PUBCHEM_CACTVS_ROTATABLE_BOND>
13

> <PUBCHEM_CACTVS_SUBSKEYS>
AAADcfB7vAAAAAAAAAAAAAAAAAAAAAAAAAAwAAAAAAAAAAABAAAAHgAQCAAADSzhmAYyDoPAAgCIAinSmAACAAAgIAAIiIGOCIgIZjqCkTOUcAAm1hGImAebyKCOIAAAAAAAAABAAAAAAAAAAAAAAAAAAA==

> <PUBCHEM_IUPAC_OPENEYE_NAME>
3-[2-[[2-[[2-[acetyl(methyl)amino]-3-(4-hydroxyphenyl)propanoyl]amino]-3-methyl-butanoyl]amino]propanoylamino]-4-oxo-butanoic acid

> <PUBCHEM_IUPAC_CAS_NAME>
3-[[2-[[2-[[2-[acetyl(methyl)amino]-3-(4-hydroxyphenyl)-1-oxopropyl]amino]-3-methyl-1-oxobutyl]amino]-1-oxopropyl]amino]-4-oxobutanoic acid

> <PUBCHEM_IUPAC_NAME>
3-[2-[[2-[[2-[acetyl(methyl)amino]-3-(4-hydroxyphenyl)propanoyl]amino]-3-methylbutanoyl]amino]propanoylamino]-4-oxobutanoic acid

> <PUBCHEM_IUPAC_SYSTEMATIC_NAME>
3-[2-[[2-[[2-[ethanoyl(methyl)amino]-3-(4-hydroxyphenyl)propanoyl]amino]-3-methyl-butanoyl]amino]propanoylamino]-4-oxidanylidene-butanoic acid

> <PUBCHEM_IUPAC_TRADITIONAL_NAME>
3-[2-[[2-[[2-[acetyl(methyl)amino]-3-(4-hydroxyphenyl)propanoyl]amino]-3-methyl-butanoyl]amino]propanoylamino]-4-keto-butyric acid

> <PUBCHEM_IUPAC_INCHI>
InChI=1S/C24H34N4O8/c1-13(2)21(24(36)25-14(3)22(34)26-17(12-29)11-20(32)33)27-23(35)19(28(5)15(4)30)10-16-6-8-18(31)9-7-16/h6-9,12-14,17,19,21,31H,10-11H2,1-5H3,(H,25,36)(H,26,34)(H,27,35)(H,32,33)

> <PUBCHEM_IUPAC_INCHIKEY>
HBYDKJCHUAGGDW-UHFFFAOYSA-N

> <PUBCHEM_XLOGP3_AA>
0.2

> <PUBCHEM_EXACT_MASS>
506.237664

> <PUBCHEM_MOLECULAR_FORMULA>
C24H34N4O8

> <PUBCHEM_MOLECULAR_WEIGHT>
506.54876

> <PUBCHEM_OPENEYE_CAN_SMILES>
CC(C)C(C(=O)NC(C)C(=O)NC(CC(=O)O)C=O)NC(=O)C(CC1=CC=C(C=C1)O)N(C)C(=O)C

> <PUBCHEM_OPENEYE_ISO_SMILES>
CC(C)C(C(=O)NC(C)C(=O)NC(CC(=O)O)C=O)NC(=O)C(CC1=CC=C(C=C1)O)N(C)C(=O)C

> <PUBCHEM_CACTVS_TPSA>
182

> <PUBCHEM_MONOISOTOPIC_WEIGHT>
506.237664

> <PUBCHEM_TOTAL_CHARGE>
0

> <PUBCHEM_HEAVY_ATOM_COUNT>
36

> <PUBCHEM_ATOM_DEF_STEREO_COUNT>
0

> <PUBCHEM_ATOM_UDEF_STEREO_COUNT>
4

> <PUBCHEM_BOND_DEF_STEREO_COUNT>
0

> <PUBCHEM_BOND_UDEF_STEREO_COUNT>
0

> <PUBCHEM_ISOTOPIC_ATOM_COUNT>
0

> <PUBCHEM_COMPONENT_COUNT>
1

> <PUBCHEM_CACTVS_TAUTO_COUNT>
32

> <PUBCHEM_COORDINATE_TYPE>
1
5
255

> <PUBCHEM_BONDANNOTATIONS>
13  37  3
15  39  3
21  50  3
22  27  8
22  28  8
27  31  8
28  32  8
29  60  3
31  33  8
32  33  8

$$$$

