6529
  -OEChem-06261201223D

 47 49  0     0  0  0  0  0  0999 V2000
    0.0025    0.0003   -0.2635 P   0  0  0  0  0  0  0  0  0  0  0  0
   -0.9718    1.0966    0.4276 O   0  0  0  0  0  0  0  0  0  0  0  0
    1.4343    0.2899    0.4296 O   0  0  0  0  0  0  0  0  0  0  0  0
   -0.4633   -1.3844    0.4291 O   0  0  0  0  0  0  0  0  0  0  0  0
    0.0027    0.0002   -1.7666 O   0  0  0  0  0  0  0  0  0  0  0  0
   -2.3206    1.1648    0.2591 C   0  0  0  0  0  0  0  0  0  0  0  0
    2.1725    1.4295    0.2594 C   0  0  0  0  0  0  0  0  0  0  0  0
    0.1543   -2.5937    0.2591 C   0  0  0  0  0  0  0  0  0  0  0  0
   -5.0855    1.3033   -0.0864 C   0  0  0  0  0  0  0  0  0  0  0  0
    3.6722    3.7473   -0.0866 C   0  0  0  0  0  0  0  0  0  0  0  0
    1.4113   -5.0516   -0.0866 C   0  0  0  0  0  0  0  0  0  0  0  0
   -2.9679    0.2425   -0.5632 C   0  0  0  0  0  0  0  0  0  0  0  0
    1.6947    2.4442   -0.5637 C   0  0  0  0  0  0  0  0  0  0  0  0
    1.2724   -2.6874   -0.5635 C   0  0  0  0  0  0  0  0  0  0  0  0
   -3.0559    2.1564    0.9088 C   0  0  0  0  0  0  0  0  0  0  0  0
    3.3943    1.5645    0.9112 C   0  0  0  0  0  0  0  0  0  0  0  0
   -0.3402   -3.7191    0.9104 C   0  0  0  0  0  0  0  0  0  0  0  0
   -4.3504    0.3119   -0.7360 C   0  0  0  0  0  0  0  0  0  0  0  0
    2.4466    3.6061   -0.7372 C   0  0  0  0  0  0  0  0  0  0  0  0
    1.9024   -3.9197   -0.7369 C   0  0  0  0  0  0  0  0  0  0  0  0
   -4.4383    2.2256    0.7359 C   0  0  0  0  0  0  0  0  0  0  0  0
    4.1460    2.7265    0.7376 C   0  0  0  0  0  0  0  0  0  0  0  0
    0.2899   -4.9515    0.7371 C   0  0  0  0  0  0  0  0  0  0  0  0
   -6.5632    1.3773   -0.2710 C   0  0  0  0  0  0  0  0  0  0  0  0
    4.4759    4.9895   -0.2719 C   0  0  0  0  0  0  0  0  0  0  0  0
    2.0850   -6.3689   -0.2718 C   0  0  0  0  0  0  0  0  0  0  0  0
   -2.4404   -0.5463   -1.0873 H   0  0  0  0  0  0  0  0  0  0  0  0
    0.7486    2.3812   -1.0885 H   0  0  0  0  0  0  0  0  0  0  0  0
    1.6917   -1.8367   -1.0876 H   0  0  0  0  0  0  0  0  0  0  0  0
   -2.5569    2.8772    1.5508 H   0  0  0  0  0  0  0  0  0  0  0  0
    3.7670    0.7716    1.5534 H   0  0  0  0  0  0  0  0  0  0  0  0
   -1.2130   -3.6452    1.5529 H   0  0  0  0  0  0  0  0  0  0  0  0
   -4.8440   -0.4134   -1.3775 H   0  0  0  0  0  0  0  0  0  0  0  0
    2.0680    4.3941   -1.3829 H   0  0  0  0  0  0  0  0  0  0  0  0
    2.7767   -3.9850   -1.3793 H   0  0  0  0  0  0  0  0  0  0  0  0
   -5.0004    3.0016    1.2488 H   0  0  0  0  0  0  0  0  0  0  0  0
    5.1004    2.8239    1.2484 H   0  0  0  0  0  0  0  0  0  0  0  0
   -0.1011   -5.8259    1.2505 H   0  0  0  0  0  0  0  0  0  0  0  0
   -6.9209    2.4091   -0.1869 H   0  0  0  0  0  0  0  0  0  0  0  0
   -6.8561    1.0170   -1.2630 H   0  0  0  0  0  0  0  0  0  0  0  0
   -7.0673    0.7686    0.4862 H   0  0  0  0  0  0  0  0  0  0  0  0
    5.1527    4.8754   -1.1246 H   0  0  0  0  0  0  0  0  0  0  0  0
    3.8294    5.8556   -0.4503 H   0  0  0  0  0  0  0  0  0  0  0  0
    5.0705    5.2127    0.6206 H   0  0  0  0  0  0  0  0  0  0  0  0
    1.3693   -7.1940   -0.1891 H   0  0  0  0  0  0  0  0  0  0  0  0
    2.5443   -6.4421   -1.2635 H   0  0  0  0  0  0  0  0  0  0  0  0
    2.8634   -6.5026    0.4859 H   0  0  0  0  0  0  0  0  0  0  0  0
  1  2  1  0  0  0  0
  1  3  1  0  0  0  0
  1  4  1  0  0  0  0
  1  5  2  0  0  0  0
  2  6  1  0  0  0  0
  3  7  1  0  0  0  0
  4  8  1  0  0  0  0
  6 12  2  0  0  0  0
  6 15  1  0  0  0  0
  7 13  2  0  0  0  0
  7 16  1  0  0  0  0
  8 14  2  0  0  0  0
  8 17  1  0  0  0  0
  9 18  2  0  0  0  0
  9 21  1  0  0  0  0
  9 24  1  0  0  0  0
 10 19  2  0  0  0  0
 10 22  1  0  0  0  0
 10 25  1  0  0  0  0
 11 20  2  0  0  0  0
 11 23  1  0  0  0  0
 11 26  1  0  0  0  0
 12 18  1  0  0  0  0
 12 27  1  0  0  0  0
 13 19  1  0  0  0  0
 13 28  1  0  0  0  0
 14 20  1  0  0  0  0
 14 29  1  0  0  0  0
 15 21  2  0  0  0  0
 15 30  1  0  0  0  0
 16 22  2  0  0  0  0
 16 31  1  0  0  0  0
 17 23  2  0  0  0  0
 17 32  1  0  0  0  0
 18 33  1  0  0  0  0
 19 34  1  0  0  0  0
 20 35  1  0  0  0  0
 21 36  1  0  0  0  0
 22 37  1  0  0  0  0
 23 38  1  0  0  0  0
 24 39  1  0  0  0  0
 24 40  1  0  0  0  0
 24 41  1  0  0  0  0
 25 42  1  0  0  0  0
 25 43  1  0  0  0  0
 25 44  1  0  0  0  0
 26 45  1  0  0  0  0
 26 46  1  0  0  0  0
 26 47  1  0  0  0  0
M  END
> <PUBCHEM_COMPOUND_CID>
6529

> <PUBCHEM_CONFORMER_RMSD>
0.8

> <PUBCHEM_CONFORMER_DIVERSEORDER>
1
3
11
10
15
14
2
12
8
13
7
6
9
5
4

> <PUBCHEM_MMFF94_PARTIAL_CHARGES>
38
1 1.51
10 -0.14
11 -0.14
12 -0.15
13 -0.15
14 -0.15
15 -0.15
16 -0.15
17 -0.15
18 -0.15
19 -0.15
2 -0.35
20 -0.15
21 -0.15
22 -0.15
23 -0.15
24 0.14
25 0.14
26 0.14
27 0.15
28 0.15
29 0.15
3 -0.35
30 0.15
31 0.15
32 0.15
33 0.15
34 0.15
35 0.15
36 0.15
37 0.15
38 0.15
4 -0.35
5 -0.7
6 0.08
7 0.08
8 0.08
9 -0.14

> <PUBCHEM_EFFECTIVE_ROTOR_COUNT>
6

> <PUBCHEM_PHARMACOPHORE_FEATURES>
4
1 5 acceptor
6 6 9 12 15 18 21 rings
6 7 10 13 16 19 22 rings
6 8 11 14 17 20 23 rings

> <PUBCHEM_HEAVY_ATOM_COUNT>
26

> <PUBCHEM_ATOM_DEF_STEREO_COUNT>
0

> <PUBCHEM_ATOM_UDEF_STEREO_COUNT>
0

> <PUBCHEM_BOND_DEF_STEREO_COUNT>
0

> <PUBCHEM_BOND_UDEF_STEREO_COUNT>
0

> <PUBCHEM_ISOTOPIC_ATOM_COUNT>
0

> <PUBCHEM_COMPONENT_COUNT>
1

> <PUBCHEM_CACTVS_TAUTO_COUNT>
1

> <PUBCHEM_CONFORMER_ID>
0000198100000001

> <PUBCHEM_MMFF94_ENERGY>
69.2728

> <PUBCHEM_FEATURE_SELFOVERLAP>
20.297

> <PUBCHEM_SHAPE_FINGERPRINT>
10090160 65 18409739439284994693
10411042 1 17689717880214647751
11045515 52 17474102580244094971
11056379 131 17619057340543965900
12107183 9 18270135513390540376
12553582 1 17547297061243183795
12788726 201 17760664567749411862
13533116 47 18267860774256129601
13540713 5 17554905274092111368
13590594 115 17545872089604293177
138480 1 18050567640262377602
13955234 65 18338791329735663105
14251757 5 17619073828453656863
15705408 1 18266459995376753413
15775530 1 17827323658911413094
16087824 20 17690842255894079147
17492 89 18193559089823359609
17980427 26 18336272313772518885
19319366 153 18333737892753504653
20028762 73 18335149699642088524
20101258 96 17329146282836782451
20505436 4 17844535409765070248
20600515 1 16814047075678009889
21049683 271 18053927726332788807
21120745 212 10316301408523387515
21796203 349 17543309068181622355
23366157 5 18265610056035926117
23559900 14 18123475140511008209
23598288 3 17838061403542540528
23929065 36 17327755998188016672
283562 15 18119530930224884919
3091708 16 9261089133978190034
3627633 1 17113818488283141004
4058900 60 18337096908950135241
4409770 3 17763748689533793383
474 4 18410575080811885945
6058803 2 18114466786068579793
6673363 416 17688013633572816646
6700243 42 16967689038488746676
6898599 12 17837487449672865284
77188 2 17906171015869791543
79837 15 18266459797808256776
9981440 41 18339644417488211377

> <PUBCHEM_SHAPE_MULTIPOLES>
515.44
9.43
9.41
1
13.71
14.81
-0.08
-14.84
-0.05
-13.67
-0.05
0
0
0

> <PUBCHEM_SHAPE_SELFOVERLAP>
1092.649

> <PUBCHEM_SHAPE_VOLUME>
286.7

> <PUBCHEM_COORDINATE_TYPE>
2
5
10

$$$$

