17396133
  -OEChem-06241222542D

 57 59  0     0  0  0  0  0  0999 V2000
    4.5981   -3.5194    0.0000 S   0  0  0  0  0  0  0  0  0  0  0  0
   10.6883    4.2594    0.0000 O   0  0  0  0  0  0  0  0  0  0  0  0
    5.0981   -4.3854    0.0000 O   0  0  0  0  0  0  0  0  0  0  0  0
    4.0981   -2.6534    0.0000 O   0  0  0  0  0  0  0  0  0  0  0  0
    9.7942   -0.5194    0.0000 O   0  0  0  0  0  0  0  0  0  0  0  0
    8.9282    3.9806    0.0000 N   0  0  0  0  0  0  0  0  0  0  0  0
    3.7320   -4.0194    0.0000 N   0  0  0  0  0  0  0  0  0  0  0  0
    8.0622   -0.5194    0.0000 N   0  0  0  0  0  0  0  0  0  0  0  0
    8.4282    5.5194    0.0000 C   0  0  0  0  0  0  0  0  0  0  0  0
    8.1192    4.5684    0.0000 C   0  0  0  0  0  0  0  0  0  0  0  0
    9.4282    5.5194    0.0000 C   0  0  0  0  0  0  0  0  0  0  0  0
    9.7372    4.5684    0.0000 C   0  0  0  0  0  0  0  0  0  0  0  0
    8.9282    2.9806    0.0000 C   0  0  0  0  0  0  0  0  0  0  0  0
    5.4641   -3.0194    0.0000 C   0  0  0  0  0  0  0  0  0  0  0  0
    3.7320   -5.0194    0.0000 C   0  0  0  0  0  0  0  0  0  0  0  0
    2.8660   -3.5194    0.0000 C   0  0  0  0  0  0  0  0  0  0  0  0
    8.0622    2.4806    0.0000 C   0  0  0  0  0  0  0  0  0  0  0  0
    9.7942    2.4806    0.0000 C   0  0  0  0  0  0  0  0  0  0  0  0
    8.9282    0.9806    0.0000 C   0  0  0  0  0  0  0  0  0  0  0  0
    7.1962   -2.0194    0.0000 C   0  0  0  0  0  0  0  0  0  0  0  0
    8.0622    1.4806    0.0000 C   0  0  0  0  0  0  0  0  0  0  0  0
    9.7942    1.4806    0.0000 C   0  0  0  0  0  0  0  0  0  0  0  0
    6.3301   -3.5194    0.0000 C   0  0  0  0  0  0  0  0  0  0  0  0
    5.4641   -2.0194    0.0000 C   0  0  0  0  0  0  0  0  0  0  0  0
    8.0622   -1.5194    0.0000 C   0  0  0  0  0  0  0  0  0  0  0  0
    7.1962   -3.0194    0.0000 C   0  0  0  0  0  0  0  0  0  0  0  0
    6.3301   -1.5194    0.0000 C   0  0  0  0  0  0  0  0  0  0  0  0
    2.0000   -4.0194    0.0000 C   0  0  0  0  0  0  0  0  0  0  0  0
    2.8660   -5.5194    0.0000 C   0  0  0  0  0  0  0  0  0  0  0  0
    8.9282   -0.0194    0.0000 C   0  0  0  0  0  0  0  0  0  0  0  0
    7.5528    4.8205    0.0000 H   0  0  0  0  0  0  0  0  0  0  0  0
    7.8092    4.0314    0.0000 H   0  0  0  0  0  0  0  0  0  0  0  0
    8.4930    6.1360    0.0000 H   0  0  0  0  0  0  0  0  0  0  0  0
    7.8218    5.6483    0.0000 H   0  0  0  0  0  0  0  0  0  0  0  0
   10.0347    5.6483    0.0000 H   0  0  0  0  0  0  0  0  0  0  0  0
    9.3634    6.1360    0.0000 H   0  0  0  0  0  0  0  0  0  0  0  0
    3.9441   -5.6020    0.0000 H   0  0  0  0  0  0  0  0  0  0  0  0
    4.3426   -4.9118    0.0000 H   0  0  0  0  0  0  0  0  0  0  0  0
    3.2646   -3.0445    0.0000 H   0  0  0  0  0  0  0  0  0  0  0  0
    2.4675   -3.0445    0.0000 H   0  0  0  0  0  0  0  0  0  0  0  0
    7.5252    2.7906    0.0000 H   0  0  0  0  0  0  0  0  0  0  0  0
   10.3312    2.7906    0.0000 H   0  0  0  0  0  0  0  0  0  0  0  0
    7.5252    1.1706    0.0000 H   0  0  0  0  0  0  0  0  0  0  0  0
   10.3312    1.1706    0.0000 H   0  0  0  0  0  0  0  0  0  0  0  0
    6.3301   -4.1394    0.0000 H   0  0  0  0  0  0  0  0  0  0  0  0
    4.9272   -1.7094    0.0000 H   0  0  0  0  0  0  0  0  0  0  0  0
    8.2742   -2.1020    0.0000 H   0  0  0  0  0  0  0  0  0  0  0  0
    8.6728   -1.4118    0.0000 H   0  0  0  0  0  0  0  0  0  0  0  0
    7.7331   -3.3294    0.0000 H   0  0  0  0  0  0  0  0  0  0  0  0
    6.3301   -0.8994    0.0000 H   0  0  0  0  0  0  0  0  0  0  0  0
    1.6900   -3.4825    0.0000 H   0  0  0  0  0  0  0  0  0  0  0  0
    1.4631   -4.3294    0.0000 H   0  0  0  0  0  0  0  0  0  0  0  0
    2.3100   -4.5564    0.0000 H   0  0  0  0  0  0  0  0  0  0  0  0
    2.5560   -4.9825    0.0000 H   0  0  0  0  0  0  0  0  0  0  0  0
    2.3291   -5.8294    0.0000 H   0  0  0  0  0  0  0  0  0  0  0  0
    3.1760   -6.0564    0.0000 H   0  0  0  0  0  0  0  0  0  0  0  0
    7.5252   -0.2094    0.0000 H   0  0  0  0  0  0  0  0  0  0  0  0
  1  3  2  0  0  0  0
  1  4  2  0  0  0  0
  1  7  1  0  0  0  0
  1 14  1  0  0  0  0
  2 12  2  0  0  0  0
  5 30  2  0  0  0  0
  6 10  1  0  0  0  0
  6 12  1  0  0  0  0
  6 13  1  0  0  0  0
  7 15  1  0  0  0  0
  7 16  1  0  0  0  0
  8 25  1  0  0  0  0
  8 30  1  0  0  0  0
  8 57  1  0  0  0  0
  9 10  1  0  0  0  0
  9 11  1  0  0  0  0
  9 33  1  0  0  0  0
  9 34  1  0  0  0  0
 10 31  1  0  0  0  0
 10 32  1  0  0  0  0
 11 12  1  0  0  0  0
 11 35  1  0  0  0  0
 11 36  1  0  0  0  0
 13 17  2  0  0  0  0
 13 18  1  0  0  0  0
 14 23  2  0  0  0  0
 14 24  1  0  0  0  0
 15 29  1  0  0  0  0
 15 37  1  0  0  0  0
 15 38  1  0  0  0  0
 16 28  1  0  0  0  0
 16 39  1  0  0  0  0
 16 40  1  0  0  0  0
 17 21  1  0  0  0  0
 17 41  1  0  0  0  0
 18 22  2  0  0  0  0
 18 42  1  0  0  0  0
 19 21  2  0  0  0  0
 19 22  1  0  0  0  0
 19 30  1  0  0  0  0
 20 25  1  0  0  0  0
 20 26  2  0  0  0  0
 20 27  1  0  0  0  0
 21 43  1  0  0  0  0
 22 44  1  0  0  0  0
 23 26  1  0  0  0  0
 23 45  1  0  0  0  0
 24 27  2  0  0  0  0
 24 46  1  0  0  0  0
 25 47  1  0  0  0  0
 25 48  1  0  0  0  0
 26 49  1  0  0  0  0
 27 50  1  0  0  0  0
 28 51  1  0  0  0  0
 28 52  1  0  0  0  0
 28 53  1  0  0  0  0
 29 54  1  0  0  0  0
 29 55  1  0  0  0  0
 29 56  1  0  0  0  0
M  END
> <PUBCHEM_COMPOUND_CID>
17396133

> <PUBCHEM_COMPOUND_CANONICALIZED>
1

> <PUBCHEM_CACTVS_COMPLEXITY>
686

> <PUBCHEM_CACTVS_HBOND_ACCEPTOR>
5

> <PUBCHEM_CACTVS_HBOND_DONOR>
1

> <PUBCHEM_CACTVS_ROTATABLE_BOND>
8

> <PUBCHEM_CACTVS_SUBSKEYS>
AAADceB7OABAAAAAAAAAAAAAAAAAAWAAAAAwYAAAAAAAAAABQAAAHgQQQAAADAjB2AQywYPAAAKIAiVSUHDCABAlAgAIiJkIZMgIIDLAlZGEIQhghgDIyYcciQCeGAAAAAAAAAAwAAAAAAAAAAAAAAAAAA==

> <PUBCHEM_IUPAC_OPENEYE_NAME>
N-[[4-(diethylsulfamoyl)phenyl]methyl]-4-(2-oxopyrrolidin-1-yl)benzamide

> <PUBCHEM_IUPAC_CAS_NAME>
N-[[4-(diethylsulfamoyl)phenyl]methyl]-4-(2-oxo-1-pyrrolidinyl)benzamide

> <PUBCHEM_IUPAC_NAME>
N-[[4-(diethylsulfamoyl)phenyl]methyl]-4-(2-oxopyrrolidin-1-yl)benzamide

> <PUBCHEM_IUPAC_SYSTEMATIC_NAME>
N-[[4-(diethylsulfamoyl)phenyl]methyl]-4-(2-oxidanylidenepyrrolidin-1-yl)benzamide

> <PUBCHEM_IUPAC_TRADITIONAL_NAME>
N-[4-(diethylsulfamoyl)benzyl]-4-(2-ketopyrrolidino)benzamide

> <PUBCHEM_IUPAC_INCHI>
InChI=1S/C22H27N3O4S/c1-3-24(4-2)30(28,29)20-13-7-17(8-14-20)16-23-22(27)18-9-11-19(12-10-18)25-15-5-6-21(25)26/h7-14H,3-6,15-16H2,1-2H3,(H,23,27)

> <PUBCHEM_IUPAC_INCHIKEY>
AQFABIXUAPXUBH-UHFFFAOYSA-N

> <PUBCHEM_XLOGP3_AA>
2

> <PUBCHEM_EXACT_MASS>
429.172227

> <PUBCHEM_MOLECULAR_FORMULA>
C22H27N3O4S

> <PUBCHEM_MOLECULAR_WEIGHT>
429.53248

> <PUBCHEM_OPENEYE_CAN_SMILES>
CCN(CC)S(=O)(=O)C1=CC=C(C=C1)CNC(=O)C2=CC=C(C=C2)N3CCCC3=O

> <PUBCHEM_OPENEYE_ISO_SMILES>
CCN(CC)S(=O)(=O)C1=CC=C(C=C1)CNC(=O)C2=CC=C(C=C2)N3CCCC3=O

> <PUBCHEM_CACTVS_TPSA>
95.2

> <PUBCHEM_MONOISOTOPIC_WEIGHT>
429.172227

> <PUBCHEM_TOTAL_CHARGE>
0

> <PUBCHEM_HEAVY_ATOM_COUNT>
30

> <PUBCHEM_ATOM_DEF_STEREO_COUNT>
0

> <PUBCHEM_ATOM_UDEF_STEREO_COUNT>
0

> <PUBCHEM_BOND_DEF_STEREO_COUNT>
0

> <PUBCHEM_BOND_UDEF_STEREO_COUNT>
0

> <PUBCHEM_ISOTOPIC_ATOM_COUNT>
0

> <PUBCHEM_COMPONENT_COUNT>
1

> <PUBCHEM_CACTVS_TAUTO_COUNT>
4

> <PUBCHEM_COORDINATE_TYPE>
1
5
255

> <PUBCHEM_BONDANNOTATIONS>
13  17  8
13  18  8
14  23  8
14  24  8
17  21  8
18  22  8
19  21  8
19  22  8
20  26  8
20  27  8
23  26  8
24  27  8

$$$$

