3778
  -OEChem-06251223403D

 35 36  0     1  0  0  0  0  0999 V2000
    0.7455    1.9374    0.2706 O   0  0  0  0  0  0  0  0  0  0  0  0
    0.3007   -1.4943    0.0901 N   0  0  1  0  0  0  0  0  0  0  0  0
   -0.2601   -0.2153    0.2185 N   0  0  0  0  0  0  0  0  0  0  0  0
    2.0367   -0.0377   -0.0789 C   0  0  0  0  0  0  0  0  0  0  0  0
    3.3486    0.6339   -0.2216 C   0  0  0  0  0  0  0  0  0  0  0  0
    1.6659   -1.3271   -0.1382 C   0  0  0  0  0  0  0  0  0  0  0  0
    0.7780    0.7198    0.1896 C   0  0  0  0  0  0  0  0  0  0  0  0
    3.3423    1.5997   -1.4107 C   0  0  0  0  0  0  0  0  0  0  0  0
    3.7403    1.3762    1.0611 C   0  0  0  0  0  0  0  0  0  0  0  0
   -1.6434    0.0497    0.0607 C   0  0  0  0  0  0  0  0  0  0  0  0
    2.5507   -2.5066   -0.3672 C   0  0  0  0  0  0  0  0  0  0  0  0
   -0.1870   -2.5573    0.9640 C   0  0  0  0  0  0  0  0  0  0  0  0
   -2.1760    1.2777    0.4651 C   0  0  0  0  0  0  0  0  0  0  0  0
   -2.4854   -0.9146   -0.5014 C   0  0  0  0  0  0  0  0  0  0  0  0
   -3.5374    1.5389    0.3089 C   0  0  0  0  0  0  0  0  0  0  0  0
   -3.8468   -0.6536   -0.6579 C   0  0  0  0  0  0  0  0  0  0  0  0
   -4.3726    0.5732   -0.2526 C   0  0  0  0  0  0  0  0  0  0  0  0
    4.1269   -0.1132   -0.4133 H   0  0  0  0  0  0  0  0  0  0  0  0
    2.6848    2.4603   -1.2532 H   0  0  0  0  0  0  0  0  0  0  0  0
    3.0250    1.0925   -2.3288 H   0  0  0  0  0  0  0  0  0  0  0  0
    4.3512    1.9915   -1.5835 H   0  0  0  0  0  0  0  0  0  0  0  0
    3.7215    0.7027    1.9253 H   0  0  0  0  0  0  0  0  0  0  0  0
    3.0795    2.2219    1.2759 H   0  0  0  0  0  0  0  0  0  0  0  0
    4.7583    1.7724    0.9733 H   0  0  0  0  0  0  0  0  0  0  0  0
    3.5649   -2.2211   -0.6584 H   0  0  0  0  0  0  0  0  0  0  0  0
    2.1471   -3.1312   -1.1711 H   0  0  0  0  0  0  0  0  0  0  0  0
    2.6241   -3.1158    0.5393 H   0  0  0  0  0  0  0  0  0  0  0  0
   -0.0134   -3.5342    0.5004 H   0  0  0  0  0  0  0  0  0  0  0  0
   -1.2543   -2.4867    1.1868 H   0  0  0  0  0  0  0  0  0  0  0  0
    0.3415   -2.5332    1.9243 H   0  0  0  0  0  0  0  0  0  0  0  0
   -1.5655    2.0438    0.9321 H   0  0  0  0  0  0  0  0  0  0  0  0
   -2.1100   -1.8670   -0.8646 H   0  0  0  0  0  0  0  0  0  0  0  0
   -3.9485    2.4915    0.6299 H   0  0  0  0  0  0  0  0  0  0  0  0
   -4.4962   -1.4019   -1.1027 H   0  0  0  0  0  0  0  0  0  0  0  0
   -5.4324    0.7767   -0.3748 H   0  0  0  0  0  0  0  0  0  0  0  0
  1  7  2  0  0  0  0
  2  3  1  0  0  0  0
  2  6  1  0  0  0  0
  2 12  1  0  0  0  0
  3  7  1  0  0  0  0
  3 10  1  0  0  0  0
  4  5  1  0  0  0  0
  4  6  2  0  0  0  0
  4  7  1  0  0  0  0
  5  8  1  0  0  0  0
  5  9  1  0  0  0  0
  5 18  1  0  0  0  0
  6 11  1  0  0  0  0
  8 19  1  0  0  0  0
  8 20  1  0  0  0  0
  8 21  1  0  0  0  0
  9 22  1  0  0  0  0
  9 23  1  0  0  0  0
  9 24  1  0  0  0  0
 10 13  2  0  0  0  0
 10 14  1  0  0  0  0
 11 25  1  0  0  0  0
 11 26  1  0  0  0  0
 11 27  1  0  0  0  0
 12 28  1  0  0  0  0
 12 29  1  0  0  0  0
 12 30  1  0  0  0  0
 13 15  1  0  0  0  0
 13 31  1  0  0  0  0
 14 16  2  0  0  0  0
 14 32  1  0  0  0  0
 15 17  2  0  0  0  0
 15 33  1  0  0  0  0
 16 17  1  0  0  0  0
 16 34  1  0  0  0  0
 17 35  1  0  0  0  0
M  END
> <PUBCHEM_COMPOUND_CID>
3778

> <PUBCHEM_CONFORMER_RMSD>
0.6

> <PUBCHEM_CONFORMER_DIVERSEORDER>
2
3
4
1
5
6

> <PUBCHEM_MMFF94_PARTIAL_CHARGES>
20
1 -0.57
10 0.12
11 0.14
12 0.37
13 -0.15
14 -0.15
15 -0.15
16 -0.15
17 -0.15
2 -0.49
3 -0.16
31 0.15
32 0.15
33 0.15
34 0.15
35 0.15
4 -0.12
5 0.14
6 -0.04
7 0.62

> <PUBCHEM_EFFECTIVE_ROTOR_COUNT>
2

> <PUBCHEM_PHARMACOPHORE_FEATURES>
4
1 1 acceptor
3 5 8 9 hydrophobe
5 2 3 4 6 7 rings
6 10 13 14 15 16 17 rings

> <PUBCHEM_HEAVY_ATOM_COUNT>
17

> <PUBCHEM_ATOM_DEF_STEREO_COUNT>
0

> <PUBCHEM_ATOM_UDEF_STEREO_COUNT>
0

> <PUBCHEM_BOND_DEF_STEREO_COUNT>
0

> <PUBCHEM_BOND_UDEF_STEREO_COUNT>
0

> <PUBCHEM_ISOTOPIC_ATOM_COUNT>
0

> <PUBCHEM_COMPONENT_COUNT>
1

> <PUBCHEM_CACTVS_TAUTO_COUNT>
1

> <PUBCHEM_CONFORMER_ID>
00000EC200000002

> <PUBCHEM_MMFF94_ENERGY>
56.4562

> <PUBCHEM_FEATURE_SELFOVERLAP>
20.297

> <PUBCHEM_SHAPE_FINGERPRINT>
10967382 1 18410012143310148225
10980938 120 18410011069557774700
11132069 177 18411705365494891044
11543360 7 15936695865171182253
13140716 1 18266457787853434619
13380535 76 18340208496849446786
14144814 61 18334015016727689497
14251717 144 18412548738305520783
14576447 43 18042421148776252503
14897335 6 18409732854466646379
15196674 1 18336266838211318501
15342168 16 17988351594769773477
15442244 35 18118401988784591681
15536298 74 18260831543936034446
15775835 57 18408600379344701333
16945 1 18264765467696485906
18186145 218 18272368727957211967
19422 9 18188490293394540167
20645477 70 18263929993889837631
21267235 1 18263073465610048391
21501502 16 18335420218231138431
21524375 3 18341336608616857050
21634736 98 18264201590114726246
221490 88 18410847789538831859
2255824 54 18271523225164706106
22854114 111 18342454902141698323
2334 1 18410289233146433202
23402539 116 18336276643247271468
23402655 69 18334861653666459165
23493267 7 17845358978327847826
23559900 14 18116157847130041522
23598291 2 18189332549455812869
25 1 18412262822142670054
2748010 2 18340749495161955106
3071541 236 18057891238334120818
3071541 37 18412821400262580198
34934 24 18187093857792793669
474 4 18201716258282048621
4990 188 17748817519191738580
5104073 3 18337107968933222843
6333272 397 18201434748940246923
633830 44 18342736373002965335
7364860 26 18189055446719074646
84936 182 18260269676446319056
9709674 26 18408600349069355943
9981440 41 18194128421607670458

> <PUBCHEM_SHAPE_MULTIPOLES>
334.02
7.44
2.45
0.94
3.29
1.18
-0.06
-2.88
-1.01
-1.32
0.24
-0.48
-0.13
-0.26

> <PUBCHEM_SHAPE_SELFOVERLAP>
703.111

> <PUBCHEM_SHAPE_VOLUME>
190.3

> <PUBCHEM_COORDINATE_TYPE>
2
5
10

$$$$

