17395427
  -OEChem-06241222503D

 48 50  0     0  0  0  0  0  0999 V2000
    4.9348    1.5065   -0.9576 O   0  0  0  0  0  0  0  0  0  0  0  0
    5.4927    0.2443    1.5735 O   0  0  0  0  0  0  0  0  0  0  0  0
   -0.7990   -2.1635    0.3316 O   0  0  0  0  0  0  0  0  0  0  0  0
   -4.2737    0.2700    0.1851 N   0  0  0  0  0  0  0  0  0  0  0  0
   -0.0819   -0.7370   -1.3294 N   0  0  0  0  0  0  0  0  0  0  0  0
   -5.6729    0.2076    0.5520 C   0  0  0  0  0  0  0  0  0  0  0  0
   -3.4083   -0.7926    0.1836 C   0  0  0  0  0  0  0  0  0  0  0  0
   -3.6115    1.4019   -0.2136 C   0  0  0  0  0  0  0  0  0  0  0  0
   -2.1754   -0.3324   -0.2229 C   0  0  0  0  0  0  0  0  0  0  0  0
   -2.3041    1.0561   -0.4744 C   0  0  0  0  0  0  0  0  0  0  0  0
   -6.5885    0.5658   -0.6201 C   0  0  0  0  0  0  0  0  0  0  0  0
   -5.9792    1.0573    1.7868 C   0  0  0  0  0  0  0  0  0  0  0  0
   -3.8405   -2.1532    0.5710 C   0  0  0  0  0  0  0  0  0  0  0  0
   -4.2810    2.7153   -0.3120 C   0  0  0  0  0  0  0  0  0  0  0  0
   -0.9685   -1.1596   -0.3597 C   0  0  0  0  0  0  0  0  0  0  0  0
    1.1522   -1.4728   -1.6092 C   0  0  0  0  0  0  0  0  0  0  0  0
    2.2968   -0.9988   -0.7782 C   0  0  0  0  0  0  0  0  0  0  0  0
    4.1797    0.4777   -0.4580 C   0  0  0  0  0  0  0  0  0  0  0  0
    3.1150    0.0317   -1.2416 C   0  0  0  0  0  0  0  0  0  0  0  0
    4.4435   -0.1266    0.7737 C   0  0  0  0  0  0  0  0  0  0  0  0
    2.5438   -1.5839    0.4642 C   0  0  0  0  0  0  0  0  0  0  0  0
    3.6165   -1.1478    1.2422 C   0  0  0  0  0  0  0  0  0  0  0  0
    5.7558    2.1036    0.0500 C   0  0  0  0  0  0  0  0  0  0  0  0
    6.4533    1.0304    0.8630 C   0  0  0  0  0  0  0  0  0  0  0  0
   -5.9000   -0.8269    0.8251 H   0  0  0  0  0  0  0  0  0  0  0  0
   -1.5320    1.7383   -0.8039 H   0  0  0  0  0  0  0  0  0  0  0  0
   -6.7600    1.6388   -0.7269 H   0  0  0  0  0  0  0  0  0  0  0  0
   -7.5784    0.1238   -0.4541 H   0  0  0  0  0  0  0  0  0  0  0  0
   -6.2098    0.1715   -1.5692 H   0  0  0  0  0  0  0  0  0  0  0  0
   -6.1818    2.1049    1.5553 H   0  0  0  0  0  0  0  0  0  0  0  0
   -5.1730    1.0080    2.5266 H   0  0  0  0  0  0  0  0  0  0  0  0
   -6.8892    0.6803    2.2691 H   0  0  0  0  0  0  0  0  0  0  0  0
   -3.0697   -2.9080    0.4007 H   0  0  0  0  0  0  0  0  0  0  0  0
   -4.7067   -2.4730   -0.0184 H   0  0  0  0  0  0  0  0  0  0  0  0
   -4.1038   -2.1881    1.6333 H   0  0  0  0  0  0  0  0  0  0  0  0
   -5.0723    2.7344   -1.0610 H   0  0  0  0  0  0  0  0  0  0  0  0
   -4.6385    3.0836    0.6492 H   0  0  0  0  0  0  0  0  0  0  0  0
   -3.5507    3.4624   -0.6498 H   0  0  0  0  0  0  0  0  0  0  0  0
    1.3679   -1.3410   -2.6758 H   0  0  0  0  0  0  0  0  0  0  0  0
    0.9791   -2.5446   -1.4549 H   0  0  0  0  0  0  0  0  0  0  0  0
   -0.2727    0.0934   -1.8817 H   0  0  0  0  0  0  0  0  0  0  0  0
    2.9196    0.4974   -2.2045 H   0  0  0  0  0  0  0  0  0  0  0  0
    1.9146   -2.3878    0.8363 H   0  0  0  0  0  0  0  0  0  0  0  0
    3.8077   -1.6156    2.2042 H   0  0  0  0  0  0  0  0  0  0  0  0
    6.4921    2.7379   -0.4534 H   0  0  0  0  0  0  0  0  0  0  0  0
    5.1265    2.7436    0.6808 H   0  0  0  0  0  0  0  0  0  0  0  0
    7.0491    0.3644    0.2265 H   0  0  0  0  0  0  0  0  0  0  0  0
    7.1213    1.4861    1.6004 H   0  0  0  0  0  0  0  0  0  0  0  0
  1 18  1  0  0  0  0
  1 23  1  0  0  0  0
  2 20  1  0  0  0  0
  2 24  1  0  0  0  0
  3 15  2  0  0  0  0
  4  6  1  0  0  0  0
  4  7  1  0  0  0  0
  4  8  1  0  0  0  0
  5 15  1  0  0  0  0
  5 16  1  0  0  0  0
  5 41  1  0  0  0  0
  6 11  1  0  0  0  0
  6 12  1  0  0  0  0
  6 25  1  0  0  0  0
  7  9  2  0  0  0  0
  7 13  1  0  0  0  0
  8 10  2  0  0  0  0
  8 14  1  0  0  0  0
  9 10  1  0  0  0  0
  9 15  1  0  0  0  0
 10 26  1  0  0  0  0
 11 27  1  0  0  0  0
 11 28  1  0  0  0  0
 11 29  1  0  0  0  0
 12 30  1  0  0  0  0
 12 31  1  0  0  0  0
 12 32  1  0  0  0  0
 13 33  1  0  0  0  0
 13 34  1  0  0  0  0
 13 35  1  0  0  0  0
 14 36  1  0  0  0  0
 14 37  1  0  0  0  0
 14 38  1  0  0  0  0
 16 17  1  0  0  0  0
 16 39  1  0  0  0  0
 16 40  1  0  0  0  0
 17 19  2  0  0  0  0
 17 21  1  0  0  0  0
 18 19  1  0  0  0  0
 18 20  2  0  0  0  0
 19 42  1  0  0  0  0
 20 22  1  0  0  0  0
 21 22  2  0  0  0  0
 21 43  1  0  0  0  0
 22 44  1  0  0  0  0
 23 24  1  0  0  0  0
 23 45  1  0  0  0  0
 23 46  1  0  0  0  0
 24 47  1  0  0  0  0
 24 48  1  0  0  0  0
M  END
> <PUBCHEM_COMPOUND_CID>
17395427

> <PUBCHEM_CONFORMER_RMSD>
0.8

> <PUBCHEM_CONFORMER_DIVERSEORDER>
5
36
41
28
24
6
37
18
39
27
42
4
11
14
22
35
20
16
46
30
23
19
7
32
40
15
9
25
26
17
33
47
21
45
29
3
43
38
48
44
13
34
10
12
31
1
49
8
2

> <PUBCHEM_MMFF94_PARTIAL_CHARGES>
27
1 -0.36
10 -0.15
13 0.18
14 0.18
15 0.72
16 0.44
17 -0.14
18 0.08
19 -0.15
2 -0.36
20 0.08
21 -0.15
22 -0.15
23 0.28
24 0.28
26 0.15
3 -0.57
4 0.05
41 0.37
42 0.15
43 0.15
44 0.15
5 -0.73
6 0.26
7 -0.33
8 -0.33
9 -0.09

> <PUBCHEM_EFFECTIVE_ROTOR_COUNT>
5.8

> <PUBCHEM_PHARMACOPHORE_FEATURES>
9
1 1 acceptor
1 2 acceptor
1 3 acceptor
1 4 cation
1 5 donor
3 6 11 12 hydrophobe
5 4 7 8 9 10 rings
6 1 2 18 20 23 24 rings
6 17 18 19 20 21 22 rings

> <PUBCHEM_HEAVY_ATOM_COUNT>
24

> <PUBCHEM_ATOM_DEF_STEREO_COUNT>
0

> <PUBCHEM_ATOM_UDEF_STEREO_COUNT>
0

> <PUBCHEM_BOND_DEF_STEREO_COUNT>
0

> <PUBCHEM_BOND_UDEF_STEREO_COUNT>
0

> <PUBCHEM_ISOTOPIC_ATOM_COUNT>
0

> <PUBCHEM_COMPONENT_COUNT>
1

> <PUBCHEM_CACTVS_TAUTO_COUNT>
2

> <PUBCHEM_CONFORMER_ID>
01096EE300000005

> <PUBCHEM_MMFF94_ENERGY>
57.1018

> <PUBCHEM_FEATURE_SELFOVERLAP>
45.711

> <PUBCHEM_SHAPE_FINGERPRINT>
10 15 18131064922589235737
10498660 4 17167866340110159906
10670039 82 17385991906583611816
11128504 68 13984664750019991398
11724838 91 18411983524951911415
11796584 16 10087654710226454992
12107183 9 17697329768826788482
12403259 415 18263638622870419327
12596602 18 17060336305905076593
12616971 3 16128370446197744079
12633257 1 16486972861088263038
12730499 353 16588018005087198182
12760667 363 11312058755510090525
12892183 10 17703511098554513206
12954195 1 9367077640498201631
13533116 47 17632015363590869106
13685833 64 12751520678169666254
13914758 101 15123515826760920223
14251751 18 9943806681880174724
14341114 176 18201438107942327946
14341114 328 18202563964899380624
14528608 73 16081090398320649775
14739800 52 18411149043023953344
15188451 53 15769485444655625907
15238133 3 18343299254653699892
15510800 12 12318915672754993296
17870717 6 8862941676231608817
17980427 23 18341331089752713703
1813 80 15195280971448031998
19377110 9 17988915635544576211
193927 3 12535349038833765806
19784866 240 10807939283997685334
19958102 18 7637403986751158537
20511986 3 17846512421733774559
21033648 29 17822019662227204914
21065198 48 18202569466800381842
21307412 95 9511454508067632953
21315763 87 14548739487052710400
21315764 119 6916268429228696665
21756936 100 18263372400050778158
21859007 373 16844184530766267695
221357 26 4967614970911924146
2215653 11 10015576182517965313
23559900 14 18265594641071767134
2838139 119 18041293118454912636
29717793 49 8142086455266446578
3472631 163 17968097474058094604
3680242 22 18340482373754639608
4340502 62 17703788124129754394
46194498 28 5400799475580645936
5104073 3 18058724857485050401
559249 180 9871481906532482479
5718773 13 12679168372514604777
7808743 9 18261959540172058950
960060 61 7132426922007151418
9981440 41 18272646879241432027

> <PUBCHEM_SHAPE_MULTIPOLES>
466.34
17.41
2.22
1.33
1.01
0.34
0.12
9.59
5.11
-0.51
-0.03
0.51
-0.09
0.07

> <PUBCHEM_SHAPE_SELFOVERLAP>
997.447

> <PUBCHEM_SHAPE_VOLUME>
260.2

> <PUBCHEM_COORDINATE_TYPE>
2
5
10

$$$$

