11319
  -OEChem-06261205312D

 60 63  0     1  0  0  0  0  0999 V2000
    4.8029    3.7208    0.0000 O   0  0  0  0  0  0  0  0  0  0  0  0
    2.2703   12.8586    0.0000 O   0  0  0  0  0  0  0  0  0  0  0  0
    4.8684   14.3587    0.0000 O   0  0  0  0  0  0  0  0  0  0  0  0
    3.1363   14.3587    0.0000 O   0  0  0  0  0  0  0  0  0  0  0  0
    2.5960    1.7150    0.0000 N   0  0  3  0  0  0  0  0  0  0  0  0
    3.9369    7.2208    0.0000 N   0  0  0  0  0  0  0  0  0  0  0  0
    2.0960    2.5810    0.0000 C   0  0  3  0  0  0  0  0  0  0  0  0
    3.0709    3.7208    0.0000 C   0  0  3  0  0  0  0  0  0  0  0  0
    2.1049    3.9796    0.0000 C   0  0  0  0  0  0  0  0  0  0  0  0
    4.7867    2.1633    0.0000 C   0  0  3  0  0  0  0  0  0  0  0  0
    0.5229    1.3739    0.0000 C   0  0  0  0  0  0  0  0  0  0  0  0
    4.5279    1.1973    0.0000 C   0  0  0  0  0  0  0  0  0  0  0  0
    1.0229    0.5079    0.0000 C   0  0  0  0  0  0  0  0  0  0  0  0
    3.9369    4.2208    0.0000 C   0  0  1  0  0  0  0  0  0  0  0  0
    5.6527    2.6633    0.0000 C   0  0  0  0  0  0  0  0  0  0  0  0
    3.9369    5.2208    0.0000 C   0  0  0  0  0  0  0  0  0  0  0  0
    6.5188    2.1633    0.0000 C   0  0  0  0  0  0  0  0  0  0  0  0
    4.8029    5.7208    0.0000 C   0  0  0  0  0  0  0  0  0  0  0  0
    3.0709    5.7208    0.0000 C   0  0  0  0  0  0  0  0  0  0  0  0
    4.8029    6.7208    0.0000 C   0  0  0  0  0  0  0  0  0  0  0  0
    5.6969    5.1861    0.0000 C   0  0  0  0  0  0  0  0  0  0  0  0
    3.0709    6.7208    0.0000 C   0  0  0  0  0  0  0  0  0  0  0  0
    5.6969    7.2554    0.0000 C   0  0  0  0  0  0  0  0  0  0  0  0
    6.6029    5.7000    0.0000 C   0  0  0  0  0  0  0  0  0  0  0  0
    6.6029    6.7416    0.0000 C   0  0  0  0  0  0  0  0  0  0  0  0
    4.0024   12.8586    0.0000 C   0  0  0  0  0  0  0  0  0  0  0  0
    3.1363   12.3586    0.0000 C   0  0  0  0  0  0  0  0  0  0  0  0
    4.8684   12.3586    0.0000 C   0  0  0  0  0  0  0  0  0  0  0  0
    3.1363   11.3587    0.0000 C   0  0  0  0  0  0  0  0  0  0  0  0
    4.8684   11.3587    0.0000 C   0  0  0  0  0  0  0  0  0  0  0  0
    4.0024   10.8587    0.0000 C   0  0  0  0  0  0  0  0  0  0  0  0
    4.0024   13.8586    0.0000 C   0  0  0  0  0  0  0  0  0  0  0  0
    2.2496    1.9803    0.0000 H   0  0  0  0  0  0  0  0  0  0  0  0
    3.5682    3.3506    0.0000 H   0  0  0  0  0  0  0  0  0  0  0  0
    2.2139    4.5900    0.0000 H   0  0  0  0  0  0  0  0  0  0  0  0
    1.4875    4.0363    0.0000 H   0  0  0  0  0  0  0  0  0  0  0  0
    4.6728    2.7727    0.0000 H   0  0  0  0  0  0  0  0  0  0  0  0
    0.1673    1.8818    0.0000 H   0  0  0  0  0  0  0  0  0  0  0  0
    0.0000    1.0408    0.0000 H   0  0  0  0  0  0  0  0  0  0  0  0
    4.3674    0.5985    0.0000 H   0  0  0  0  0  0  0  0  0  0  0  0
    5.1268    1.0369    0.0000 H   0  0  0  0  0  0  0  0  0  0  0  0
    0.5000    0.1747    0.0000 H   0  0  0  0  0  0  0  0  0  0  0  0
    1.3785    0.0000    0.0000 H   0  0  0  0  0  0  0  0  0  0  0  0
    3.9369    3.6008    0.0000 H   0  0  0  0  0  0  0  0  0  0  0  0
    5.6527    3.2833    0.0000 H   0  0  0  0  0  0  0  0  0  0  0  0
    5.3399    4.0308    0.0000 H   0  0  0  0  0  0  0  0  0  0  0  0
    6.5188    1.5433    0.0000 H   0  0  0  0  0  0  0  0  0  0  0  0
    7.0557    2.4733    0.0000 H   0  0  0  0  0  0  0  0  0  0  0  0
    2.5339    5.4108    0.0000 H   0  0  0  0  0  0  0  0  0  0  0  0
    5.6897    4.5662    0.0000 H   0  0  0  0  0  0  0  0  0  0  0  0
    2.5339    7.0308    0.0000 H   0  0  0  0  0  0  0  0  0  0  0  0
    5.6897    7.8754    0.0000 H   0  0  0  0  0  0  0  0  0  0  0  0
    7.1387    5.3879    0.0000 H   0  0  0  0  0  0  0  0  0  0  0  0
    7.1387    7.0537    0.0000 H   0  0  0  0  0  0  0  0  0  0  0  0
    5.4053   12.6686    0.0000 H   0  0  0  0  0  0  0  0  0  0  0  0
    2.5994   11.0486    0.0000 H   0  0  0  0  0  0  0  0  0  0  0  0
    5.4053   11.0486    0.0000 H   0  0  0  0  0  0  0  0  0  0  0  0
    4.0024   10.2386    0.0000 H   0  0  0  0  0  0  0  0  0  0  0  0
    1.7334   12.5486    0.0000 H   0  0  0  0  0  0  0  0  0  0  0  0
    4.8684   14.9786    0.0000 H   0  0  0  0  0  0  0  0  0  0  0  0
 14  1  1  1  0  0  0
  1 46  1  0  0  0  0
  2 27  1  0  0  0  0
  2 59  1  0  0  0  0
  3 32  1  0  0  0  0
  3 60  1  0  0  0  0
  4 32  2  0  0  0  0
  5  8  1  0  0  0  0
  5 12  1  0  0  0  0
  5 13  1  0  0  0  0
  6 20  1  0  0  0  0
  6 22  2  0  0  0  0
  7  9  1  0  0  0  0
  7 10  1  0  0  0  0
  7 11  1  0  0  0  0
  7 33  1  0  0  0  0
  8  9  1  0  0  0  0
  8 14  1  0  0  0  0
  8 34  1  0  0  0  0
  9 35  1  0  0  0  0
  9 36  1  0  0  0  0
 10 12  1  0  0  0  0
 10 15  1  0  0  0  0
 10 37  1  0  0  0  0
 11 13  1  0  0  0  0
 11 38  1  0  0  0  0
 11 39  1  0  0  0  0
 12 40  1  0  0  0  0
 12 41  1  0  0  0  0
 13 42  1  0  0  0  0
 13 43  1  0  0  0  0
 14 16  1  0  0  0  0
 14 44  1  0  0  0  0
 15 17  2  0  0  0  0
 15 45  1  0  0  0  0
 16 18  1  0  0  0  0
 16 19  2  0  0  0  0
 17 47  1  0  0  0  0
 17 48  1  0  0  0  0
 18 20  1  0  0  0  0
 18 21  2  0  0  0  0
 19 22  1  0  0  0  0
 19 49  1  0  0  0  0
 20 23  2  0  0  0  0
 21 24  1  0  0  0  0
 21 50  1  0  0  0  0
 22 51  1  0  0  0  0
 23 25  1  0  0  0  0
 23 52  1  0  0  0  0
 24 25  2  0  0  0  0
 24 53  1  0  0  0  0
 25 54  1  0  0  0  0
 26 27  1  0  0  0  0
 26 28  2  0  0  0  0
 26 32  1  0  0  0  0
 27 29  2  0  0  0  0
 28 30  1  0  0  0  0
 28 55  1  0  0  0  0
 29 31  1  0  0  0  0
 29 56  1  0  0  0  0
 30 31  2  0  0  0  0
 30 57  1  0  0  0  0
 31 58  1  0  0  0  0
M  END
> <PUBCHEM_COMPOUND_CID>
11319

> <PUBCHEM_COMPOUND_CANONICALIZED>
1

> <PUBCHEM_CACTVS_COMPLEXITY>
545

> <PUBCHEM_CACTVS_HBOND_ACCEPTOR>
6

> <PUBCHEM_CACTVS_HBOND_DONOR>
3

> <PUBCHEM_CACTVS_ROTATABLE_BOND>
4

> <PUBCHEM_CACTVS_SUBSKEYS>
AAADceB7OAAAAAAAAAAAAAAAAAAAAAAAAAA8eLFiAAAAAACx9AAAHgAACAAADTzhngY8zvMIEgCoAzT3TACCgCA1IiAI2CE+bNgKN/bClZOEcUhl4BHY2Ye4yPCOgAAAAAAKAAAAAAAAABQAAAAAAAAAAA==

> <PUBCHEM_IUPAC_OPENEYE_NAME>
2-hydroxybenzoic acid; (R)-4-quinolyl-(5-vinylquinuclidin-2-yl)methanol

> <PUBCHEM_IUPAC_CAS_NAME>
(R)-(5-ethenyl-1-azabicyclo[2.2.2]octan-2-yl)-(4-quinolinyl)methanol; 2-hydroxybenzoic acid

> <PUBCHEM_IUPAC_NAME>
(R)-(5-ethenyl-1-azabicyclo[2.2.2]octan-2-yl)-quinolin-4-ylmethanol; 2-hydroxybenzoic acid

> <PUBCHEM_IUPAC_SYSTEMATIC_NAME>
(R)-(5-ethenyl-1-azabicyclo[2.2.2]octan-2-yl)-quinolin-4-yl-methanol; 2-oxidanylbenzoic acid

> <PUBCHEM_IUPAC_TRADITIONAL_NAME>
(R)-4-quinolyl-(5-vinylquinuclidin-2-yl)methanol; salicylic acid

> <PUBCHEM_IUPAC_INCHI>
InChI=1S/C19H22N2O.C7H6O3/c1-2-13-12-21-10-8-14(13)11-18(21)19(22)16-7-9-20-17-6-4-3-5-15(16)17;8-6-4-2-1-3-5(6)7(9)10/h2-7,9,13-14,18-19,22H,1,8,10-12H2;1-4,8H,(H,9,10)/t13?,14?,18?,19-;/m1./s1

> <PUBCHEM_IUPAC_INCHIKEY>
LGWVGYMSUILBFM-XLENVJANSA-N

> <PUBCHEM_EXACT_MASS>
432.204907

> <PUBCHEM_MOLECULAR_FORMULA>
C26H28N2O4

> <PUBCHEM_MOLECULAR_WEIGHT>
432.51152

> <PUBCHEM_OPENEYE_CAN_SMILES>
C=CC1CN2CCC1CC2C(C3=CC=NC4=CC=CC=C34)O.C1=CC=C(C(=C1)C(=O)O)O

> <PUBCHEM_OPENEYE_ISO_SMILES>
C=CC1CN2CCC1CC2[C@@H](C3=CC=NC4=CC=CC=C34)O.C1=CC=C(C(=C1)C(=O)O)O

> <PUBCHEM_CACTVS_TPSA>
93.9

> <PUBCHEM_MONOISOTOPIC_WEIGHT>
432.204907

> <PUBCHEM_TOTAL_CHARGE>
0

> <PUBCHEM_HEAVY_ATOM_COUNT>
32

> <PUBCHEM_ATOM_DEF_STEREO_COUNT>
1

> <PUBCHEM_ATOM_UDEF_STEREO_COUNT>
3

> <PUBCHEM_BOND_DEF_STEREO_COUNT>
0

> <PUBCHEM_BOND_UDEF_STEREO_COUNT>
0

> <PUBCHEM_ISOTOPIC_ATOM_COUNT>
0

> <PUBCHEM_COMPONENT_COUNT>
2

> <PUBCHEM_CACTVS_TAUTO_COUNT>
4

> <PUBCHEM_COORDINATE_TYPE>
1
5
255

> <PUBCHEM_BONDANNOTATIONS>
14  1  5
10  15  3
16  18  8
16  19  8
18  20  8
18  21  8
19  22  8
20  23  8
21  24  8
23  25  8
24  25  8
26  27  8
26  28  8
27  29  8
28  30  8
29  31  8
30  31  8
6  20  8
6  22  8
7  11  3
8  9  3

$$$$

