17395638
  -OEChem-06241222513D

 50 52  0     1  0  0  0  0  0999 V2000
    2.4232   -2.5509    0.3609 S   0  0  0  0  0  0  0  0  0  0  0  0
    1.5765    1.7628   -0.4820 O   0  0  0  0  0  0  0  0  0  0  0  0
    3.7157    1.8811   -1.2978 O   0  0  0  0  0  0  0  0  0  0  0  0
   -0.2587   -3.0140   -0.0551 O   0  0  0  0  0  0  0  0  0  0  0  0
    0.5820   -0.8716   -0.5428 N   0  0  0  0  0  0  0  0  0  0  0  0
   -2.8033   -1.9625   -0.1570 N   0  0  0  0  0  0  0  0  0  0  0  0
    5.5488    0.0187    0.2094 C   0  0  0  0  0  0  0  0  0  0  0  0
    5.6425    1.2999    0.9849 C   0  0  0  0  0  0  0  0  0  0  0  0
    6.3006    0.0566    1.5076 C   0  0  0  0  0  0  0  0  0  0  0  0
    4.2067   -0.7128    0.1589 C   0  0  0  0  0  0  0  0  0  0  0  0
    2.9834   -0.1261   -0.2764 C   0  0  0  0  0  0  0  0  0  0  0  0
    4.0446   -2.0283    0.5345 C   0  0  0  0  0  0  0  0  0  0  0  0
    1.9332   -1.0156   -0.2177 C   0  0  0  0  0  0  0  0  0  0  0  0
    2.8238    1.2325   -0.7316 C   0  0  0  0  0  0  0  0  0  0  0  0
   -0.3969   -1.8572   -0.4391 C   0  0  0  0  0  0  0  0  0  0  0  0
   -1.7387   -1.3041   -0.8894 C   0  0  0  0  0  0  0  0  0  0  0  0
   -4.1158   -1.4495   -0.5915 C   0  0  2  0  0  0  0  0  0  0  0  0
   -4.4501   -0.1363    0.0315 C   0  0  0  0  0  0  0  0  0  0  0  0
    1.3496    3.1109   -0.9085 C   0  0  0  0  0  0  0  0  0  0  0  0
   -5.1726   -2.5314   -0.3033 C   0  0  0  0  0  0  0  0  0  0  0  0
   -5.2071    0.7982   -0.6751 C   0  0  0  0  0  0  0  0  0  0  0  0
   -4.0061    0.1574    1.3210 C   0  0  0  0  0  0  0  0  0  0  0  0
   -0.0656    3.5102   -0.5489 C   0  0  0  0  0  0  0  0  0  0  0  0
   -5.5201    2.0264   -0.0926 C   0  0  0  0  0  0  0  0  0  0  0  0
   -4.3193    1.3855    1.9034 C   0  0  0  0  0  0  0  0  0  0  0  0
   -5.0762    2.3200    1.1967 C   0  0  0  0  0  0  0  0  0  0  0  0
    6.1396   -0.0503   -0.6980 H   0  0  0  0  0  0  0  0  0  0  0  0
    6.2822    2.0811    0.5920 H   0  0  0  0  0  0  0  0  0  0  0  0
    4.7792    1.6652    1.5280 H   0  0  0  0  0  0  0  0  0  0  0  0
    5.8681   -0.4046    2.3872 H   0  0  0  0  0  0  0  0  0  0  0  0
    7.3820    0.0036    1.4653 H   0  0  0  0  0  0  0  0  0  0  0  0
    4.7971   -2.7123    0.9018 H   0  0  0  0  0  0  0  0  0  0  0  0
    0.3206    0.0473   -0.8913 H   0  0  0  0  0  0  0  0  0  0  0  0
   -4.0993   -1.3341   -1.6847 H   0  0  0  0  0  0  0  0  0  0  0  0
   -1.8166   -1.4913   -1.9672 H   0  0  0  0  0  0  0  0  0  0  0  0
   -1.7645   -0.2213   -0.7235 H   0  0  0  0  0  0  0  0  0  0  0  0
   -2.7533   -2.9649   -0.3408 H   0  0  0  0  0  0  0  0  0  0  0  0
   -6.1631   -2.2056   -0.6410 H   0  0  0  0  0  0  0  0  0  0  0  0
   -4.9359   -3.4661   -0.8238 H   0  0  0  0  0  0  0  0  0  0  0  0
   -5.2450   -2.7462    0.7694 H   0  0  0  0  0  0  0  0  0  0  0  0
    1.4896    3.1772   -1.9930 H   0  0  0  0  0  0  0  0  0  0  0  0
    2.0618    3.7755   -0.4075 H   0  0  0  0  0  0  0  0  0  0  0  0
   -5.5611    0.5817   -1.6795 H   0  0  0  0  0  0  0  0  0  0  0  0
   -3.4299   -0.5545    1.9053 H   0  0  0  0  0  0  0  0  0  0  0  0
   -0.2750    4.5364   -0.8635 H   0  0  0  0  0  0  0  0  0  0  0  0
   -0.2254    3.4315    0.5316 H   0  0  0  0  0  0  0  0  0  0  0  0
   -0.7880    2.8390   -1.0255 H   0  0  0  0  0  0  0  0  0  0  0  0
   -6.1101    2.7538   -0.6426 H   0  0  0  0  0  0  0  0  0  0  0  0
   -3.9771    1.6131    2.9088 H   0  0  0  0  0  0  0  0  0  0  0  0
   -5.3208    3.2758    1.6507 H   0  0  0  0  0  0  0  0  0  0  0  0
  1 12  1  0  0  0  0
  1 13  1  0  0  0  0
  2 14  1  0  0  0  0
  2 19  1  0  0  0  0
  3 14  2  0  0  0  0
  4 15  2  0  0  0  0
  5 13  1  0  0  0  0
  5 15  1  0  0  0  0
  5 33  1  0  0  0  0
  6 16  1  0  0  0  0
  6 17  1  0  0  0  0
  6 37  1  0  0  0  0
  7  8  1  0  0  0  0
  7  9  1  0  0  0  0
  7 10  1  0  0  0  0
  7 27  1  0  0  0  0
  8  9  1  0  0  0  0
  8 28  1  0  0  0  0
  8 29  1  0  0  0  0
  9 30  1  0  0  0  0
  9 31  1  0  0  0  0
 10 11  1  0  0  0  0
 10 12  2  0  0  0  0
 11 13  2  0  0  0  0
 11 14  1  0  0  0  0
 12 32  1  0  0  0  0
 15 16  1  0  0  0  0
 16 35  1  0  0  0  0
 16 36  1  0  0  0  0
 17 18  1  0  0  0  0
 17 20  1  0  0  0  0
 17 34  1  0  0  0  0
 18 21  2  0  0  0  0
 18 22  1  0  0  0  0
 19 23  1  0  0  0  0
 19 41  1  0  0  0  0
 19 42  1  0  0  0  0
 20 38  1  0  0  0  0
 20 39  1  0  0  0  0
 20 40  1  0  0  0  0
 21 24  1  0  0  0  0
 21 43  1  0  0  0  0
 22 25  2  0  0  0  0
 22 44  1  0  0  0  0
 23 45  1  0  0  0  0
 23 46  1  0  0  0  0
 23 47  1  0  0  0  0
 24 26  2  0  0  0  0
 24 48  1  0  0  0  0
 25 26  1  0  0  0  0
 25 49  1  0  0  0  0
 26 50  1  0  0  0  0
M  END
> <PUBCHEM_COMPOUND_CID>
17395638

> <PUBCHEM_CONFORMER_RMSD>
1

> <PUBCHEM_CONFORMER_DIVERSEORDER>
1
8
115
23
64
73
35
83
93
47
92
106
66
56
81
46
36
7
68
41
53
13
50
91
37
22
85
110
34
118
104
70
5
20
61
89
109
40
17
108
113
107
86
31
9
111
4
105
49
87
33
114
103
58
67
99
3
63
119
102
54
84
14
38
16
42
48
77
112
74
95
117
28
65
51
26
76
2
97
12
69
75
59
6
21
96
44
24
57
39
18
82
90
19
79
55
72
101
62
116
43
27
71
52
60
10
15
120
78
100
94
30
32
80
88
98
29
11
25
45

> <PUBCHEM_MMFF94_PARTIAL_CHARGES>
37
1 -0.08
10 -0.09
11 -0.09
12 -0.11
13 0.1
14 0.81
15 0.57
16 0.33
17 0.41
18 -0.14
19 0.28
2 -0.43
21 -0.15
22 -0.15
24 -0.15
25 -0.15
26 -0.15
27 0.1
28 0.1
29 0.1
3 -0.57
30 0.1
31 0.1
32 0.15
33 0.37
37 0.36
4 -0.57
43 0.15
44 0.15
48 0.15
49 0.15
5 -0.49
50 0.15
6 -0.9
7 -0.01
8 -0.2
9 -0.2

> <PUBCHEM_EFFECTIVE_ROTOR_COUNT>
10.6

> <PUBCHEM_PHARMACOPHORE_FEATURES>
7
1 3 acceptor
1 4 acceptor
1 5 donor
1 6 cation
1 6 donor
5 1 10 11 12 13 rings
6 18 21 22 24 25 26 rings

> <PUBCHEM_HEAVY_ATOM_COUNT>
26

> <PUBCHEM_ATOM_DEF_STEREO_COUNT>
0

> <PUBCHEM_ATOM_UDEF_STEREO_COUNT>
1

> <PUBCHEM_BOND_DEF_STEREO_COUNT>
0

> <PUBCHEM_BOND_UDEF_STEREO_COUNT>
0

> <PUBCHEM_ISOTOPIC_ATOM_COUNT>
0

> <PUBCHEM_COMPONENT_COUNT>
1

> <PUBCHEM_CACTVS_TAUTO_COUNT>
4

> <PUBCHEM_CONFORMER_ID>
01096FB600000001

> <PUBCHEM_MMFF94_ENERGY>
58.5553

> <PUBCHEM_FEATURE_SELFOVERLAP>
35.52

> <PUBCHEM_SHAPE_FINGERPRINT>
10439779 11 18336837377166236938
10906281 52 18201147760169838750
12107183 9 18122347040937968659
12422481 6 18341619252051636036
12507557 5 18411136927174424839
12633257 1 17989491792575355666
13073987 5 18409169913267437163
14117953 113 18120930874641079693
14466204 15 18411985758092078041
14790565 3 17910664372602496748
14950920 106 16917055643128682697
15238133 3 18273208690970133670
15475509 8 18337090347004251526
1601671 61 18409166619264131414
16993438 75 17772485731198888381
20511986 3 18262530289622338779
21033648 29 17822589225966506362
21298829 104 18189615124308960489
21304253 335 18407760322575599094
21315763 76 18341060665826899997
21421861 104 18058462053016343474
23559900 14 17678728162484380959
3680242 22 18270114741967983371
4144715 1 18411409605431275387
474 4 18411695517673133491
5104073 3 18059296440254145362
6328613 192 18337950087598239588
6371009 1 18338243643985462863
653340 110 18120655987727878616
9981440 41 18409442584083450379

> <PUBCHEM_SHAPE_MULTIPOLES>
511.35
15.43
3.78
1.24
1.19
0.97
-0.41
2.98
-4.93
1.45
0.65
0.27
0.58
-1.73

> <PUBCHEM_SHAPE_SELFOVERLAP>
1060.034

> <PUBCHEM_SHAPE_VOLUME>
293.1

> <PUBCHEM_COORDINATE_TYPE>
2
5
10

$$$$

