7546
  -OEChem-06261202083D

 25 26  0     0  0  0  0  0  0999 V2000
    2.9943    2.2857   -0.5796 O   0  0  0  0  0  0  0  0  0  0  0  0
   -0.3188   -1.1876   -0.1802 N   0  0  0  0  0  0  0  0  0  0  0  0
    1.0143   -0.7489   -0.0615 C   0  0  0  0  0  0  0  0  0  0  0  0
   -1.5574   -0.5248   -0.0540 C   0  0  0  0  0  0  0  0  0  0  0  0
    1.3488    0.5676   -0.3831 C   0  0  0  0  0  0  0  0  0  0  0  0
    2.0039   -1.6300    0.3779 C   0  0  0  0  0  0  0  0  0  0  0  0
   -2.6603   -0.9615   -0.7878 C   0  0  0  0  0  0  0  0  0  0  0  0
   -1.6792    0.5679    0.8045 C   0  0  0  0  0  0  0  0  0  0  0  0
    2.6692    1.0018   -0.2657 C   0  0  0  0  0  0  0  0  0  0  0  0
    3.3241   -1.1959    0.4953 C   0  0  0  0  0  0  0  0  0  0  0  0
    3.6568    0.1200    0.1737 C   0  0  0  0  0  0  0  0  0  0  0  0
   -3.8850   -0.3054   -0.6634 C   0  0  0  0  0  0  0  0  0  0  0  0
   -2.9039    1.2238    0.9290 C   0  0  0  0  0  0  0  0  0  0  0  0
   -4.0068    0.7871    0.1949 C   0  0  0  0  0  0  0  0  0  0  0  0
   -0.4059   -2.1759   -0.4000 H   0  0  0  0  0  0  0  0  0  0  0  0
    0.5999    1.2659   -0.7481 H   0  0  0  0  0  0  0  0  0  0  0  0
    1.7572   -2.6576    0.6326 H   0  0  0  0  0  0  0  0  0  0  0  0
   -2.5777   -1.8111   -1.4607 H   0  0  0  0  0  0  0  0  0  0  0  0
   -0.8434    0.9161    1.4051 H   0  0  0  0  0  0  0  0  0  0  0  0
    4.0931   -1.8823    0.8375 H   0  0  0  0  0  0  0  0  0  0  0  0
    4.6891    0.4457    0.2696 H   0  0  0  0  0  0  0  0  0  0  0  0
   -4.7438   -0.6454   -1.2348 H   0  0  0  0  0  0  0  0  0  0  0  0
   -3.0004    2.0714    1.6012 H   0  0  0  0  0  0  0  0  0  0  0  0
   -4.9605    1.2972    0.2929 H   0  0  0  0  0  0  0  0  0  0  0  0
    3.9486    2.4122   -0.4401 H   0  0  0  0  0  0  0  0  0  0  0  0
  1  9  1  0  0  0  0
  1 25  1  0  0  0  0
  2  3  1  0  0  0  0
  2  4  1  0  0  0  0
  2 15  1  0  0  0  0
  3  5  2  0  0  0  0
  3  6  1  0  0  0  0
  4  7  2  0  0  0  0
  4  8  1  0  0  0  0
  5  9  1  0  0  0  0
  5 16  1  0  0  0  0
  6 10  2  0  0  0  0
  6 17  1  0  0  0  0
  7 12  1  0  0  0  0
  7 18  1  0  0  0  0
  8 13  2  0  0  0  0
  8 19  1  0  0  0  0
  9 11  2  0  0  0  0
 10 11  1  0  0  0  0
 10 20  1  0  0  0  0
 11 21  1  0  0  0  0
 12 14  2  0  0  0  0
 12 22  1  0  0  0  0
 13 14  1  0  0  0  0
 13 23  1  0  0  0  0
 14 24  1  0  0  0  0
M  END
> <PUBCHEM_COMPOUND_CID>
7546

> <PUBCHEM_CONFORMER_RMSD>
0.6

> <PUBCHEM_CONFORMER_DIVERSEORDER>
1
4
6
5
3
2

> <PUBCHEM_MMFF94_PARTIAL_CHARGES>
25
1 -0.53
10 -0.15
11 -0.15
12 -0.15
13 -0.15
14 -0.15
15 0.4
16 0.15
17 0.15
18 0.15
19 0.15
2 -0.6
20 0.15
21 0.15
22 0.15
23 0.15
24 0.15
25 0.45
3 0.1
4 0.1
5 -0.15
6 -0.15
7 -0.15
8 -0.15
9 0.08

> <PUBCHEM_EFFECTIVE_ROTOR_COUNT>
2

> <PUBCHEM_PHARMACOPHORE_FEATURES>
5
1 1 donor
1 2 cation
1 2 donor
6 3 5 6 9 10 11 rings
6 4 7 8 12 13 14 rings

> <PUBCHEM_HEAVY_ATOM_COUNT>
14

> <PUBCHEM_ATOM_DEF_STEREO_COUNT>
0

> <PUBCHEM_ATOM_UDEF_STEREO_COUNT>
0

> <PUBCHEM_BOND_DEF_STEREO_COUNT>
0

> <PUBCHEM_BOND_UDEF_STEREO_COUNT>
0

> <PUBCHEM_ISOTOPIC_ATOM_COUNT>
0

> <PUBCHEM_COMPONENT_COUNT>
1

> <PUBCHEM_CACTVS_TAUTO_COUNT>
9

> <PUBCHEM_CONFORMER_ID>
00001D7A00000001

> <PUBCHEM_MMFF94_ENERGY>
52.3404

> <PUBCHEM_FEATURE_SELFOVERLAP>
25.371

> <PUBCHEM_SHAPE_FINGERPRINT>
10980938 120 18341896303153671686
11471102 20 18271810137833289942
12162725 195 18335421278887639427
12251169 10 18412263973283718986
12932764 1 17132121255302983667
14144814 61 18410575110469974955
14897335 6 18410014303816030022
15342168 16 17988071176207396005
15442244 35 18192993948692955226
15653759 3 16056596573261484565
15669948 3 17822298942169899551
15775835 57 18408036308088375985
17802600 8 18409175427878305433
18186145 218 18341895220468758143
19049666 15 16414089679330045463
19050596 39 18334577953637973011
19107657 47 18060143162617168897
200 152 18334868212049683279
20233049 118 17676492769634728394
20279233 1 16487256577500059491
20645477 70 18201164346326506391
21639500 275 18341906142623281156
2255824 54 18343018913253137914
22854114 111 18413387635528353224
23048698 100 18342177773587521219
23402539 116 17531258274073440061
23402655 69 18408887368716600205
23463225 33 18409167748450075058
23557571 272 16443066105731300899
23559900 14 17240483662876232134
474 4 18200876162948151700
537710 114 18187082854139316089
74978 22 18413102853479857930
77492 1 18333454248332856863
9971528 1 18336269041693279522
9981440 41 17689165513229475728

> <PUBCHEM_SHAPE_MULTIPOLES>
277.26
7.79
1.68
0.86
1.84
0.39
-0.04
1.22
0.05
-1.06
0.09
0.29
0.07
-1.12

> <PUBCHEM_SHAPE_SELFOVERLAP>
595.91

> <PUBCHEM_SHAPE_VOLUME>
152.2

> <PUBCHEM_COORDINATE_TYPE>
2
5
10

$$$$

