5540
  -OEChem-06261200442D

 68 69  0     1  0  0  0  0  0999 V2000
    9.3502    1.7580    0.0000 S   0  0  0  0  0  0  0  0  0  0  0  0
    4.5981   -2.0118    0.0000 O   0  0  0  0  0  0  0  0  0  0  0  0
    5.8424   -2.5658    0.0000 O   0  0  0  0  0  0  0  0  0  0  0  0
    9.9740   -1.1764    0.0000 O   0  0  0  0  0  0  0  0  0  0  0  0
    9.4387   -2.8237    0.0000 O   0  0  0  0  0  0  0  0  0  0  0  0
    2.0000    0.4882    0.0000 O   0  0  0  0  0  0  0  0  0  0  0  0
    5.4641   -0.5118    0.0000 N   0  0  0  0  0  0  0  0  0  0  0  0
    7.5366   -2.2057    0.0000 N   0  0  0  0  0  0  0  0  0  0  0  0
    3.7320    0.4882    0.0000 N   0  0  0  0  0  0  0  0  0  0  0  0
    9.8855    3.4053    0.0000 N   0  0  0  0  0  0  0  0  0  0  0  0
    8.1913    3.0452    0.0000 N   0  0  0  0  0  0  0  0  0  0  0  0
    6.3776   -0.9185    0.0000 C   0  0  3  0  0  0  0  0  0  0  0  0
    7.0468   -0.1754    0.0000 C   0  0  0  0  0  0  0  0  0  0  0  0
    6.5468    0.6907    0.0000 C   0  0  0  0  0  0  0  0  0  0  0  0
    5.5686    0.4828    0.0000 C   0  0  0  0  0  0  0  0  0  0  0  0
    4.5981   -1.0118    0.0000 C   0  0  0  0  0  0  0  0  0  0  0  0
    6.5856   -1.8966    0.0000 C   0  0  0  0  0  0  0  0  0  0  0  0
    3.7320   -0.5118    0.0000 C   0  0  3  0  0  0  0  0  0  0  0  0
    2.8660   -1.0118    0.0000 C   0  0  0  0  0  0  0  0  0  0  0  0
    8.2798   -1.5365    0.0000 C   0  0  3  0  0  0  0  0  0  0  0  0
    8.0718   -0.5584    0.0000 C   0  0  0  0  0  0  0  0  0  0  0  0
    2.8660   -2.0118    0.0000 C   0  0  0  0  0  0  0  0  0  0  0  0
    8.8150    0.1108    0.0000 C   0  0  0  0  0  0  0  0  0  0  0  0
    2.8660    0.9882    0.0000 C   0  0  0  0  0  0  0  0  0  0  0  0
    8.6071    1.0889    0.0000 C   0  0  0  0  0  0  0  0  0  0  0  0
    2.0000   -2.5118    0.0000 C   0  0  0  0  0  0  0  0  0  0  0  0
    3.7320   -2.5118    0.0000 C   0  0  0  0  0  0  0  0  0  0  0  0
    2.8660    1.9882    0.0000 C   0  0  0  0  0  0  0  0  0  0  0  0
    2.0000   -3.5118    0.0000 C   0  0  0  0  0  0  0  0  0  0  0  0
    3.7320   -3.5118    0.0000 C   0  0  0  0  0  0  0  0  0  0  0  0
    2.0000    2.4882    0.0000 C   0  0  0  0  0  0  0  0  0  0  0  0
    2.8660   -4.0118    0.0000 C   0  0  0  0  0  0  0  0  0  0  0  0
    9.1423    2.7362    0.0000 C   0  0  0  0  0  0  0  0  0  0  0  0
    9.2308   -1.8456    0.0000 B   0  0  0  0  0  0  0  0  0  0  0  0
    5.8958   -1.3087    0.0000 H   0  0  0  0  0  0  0  0  0  0  0  0
    7.4616   -0.6361    0.0000 H   0  0  0  0  0  0  0  0  0  0  0  0
    7.5484    0.1891    0.0000 H   0  0  0  0  0  0  0  0  0  0  0  0
    7.1132    0.9429    0.0000 H   0  0  0  0  0  0  0  0  0  0  0  0
    6.3552    1.2803    0.0000 H   0  0  0  0  0  0  0  0  0  0  0  0
    5.5038    1.0994    0.0000 H   0  0  0  0  0  0  0  0  0  0  0  0
    4.9486    0.4828    0.0000 H   0  0  0  0  0  0  0  0  0  0  0  0
    4.2690   -0.2018    0.0000 H   0  0  0  0  0  0  0  0  0  0  0  0
    7.6655   -2.8121    0.0000 H   0  0  0  0  0  0  0  0  0  0  0  0
    2.6540   -0.4291    0.0000 H   0  0  0  0  0  0  0  0  0  0  0  0
    2.2554   -1.1194    0.0000 H   0  0  0  0  0  0  0  0  0  0  0  0
    8.4087   -2.1430    0.0000 H   0  0  0  0  0  0  0  0  0  0  0  0
    4.2690    0.7982    0.0000 H   0  0  0  0  0  0  0  0  0  0  0  0
    7.7433   -0.0326    0.0000 H   0  0  0  0  0  0  0  0  0  0  0  0
    7.4970   -0.7906    0.0000 H   0  0  0  0  0  0  0  0  0  0  0  0
    9.1435   -0.4150    0.0000 H   0  0  0  0  0  0  0  0  0  0  0  0
    9.3898    0.3430    0.0000 H   0  0  0  0  0  0  0  0  0  0  0  0
    8.2785    1.6147    0.0000 H   0  0  0  0  0  0  0  0  0  0  0  0
    8.0322    0.8566    0.0000 H   0  0  0  0  0  0  0  0  0  0  0  0
    1.4631   -2.2018    0.0000 H   0  0  0  0  0  0  0  0  0  0  0  0
    4.2690   -2.2018    0.0000 H   0  0  0  0  0  0  0  0  0  0  0  0
    3.4766    1.8806    0.0000 H   0  0  0  0  0  0  0  0  0  0  0  0
    3.0781    2.5708    0.0000 H   0  0  0  0  0  0  0  0  0  0  0  0
    1.4631   -3.8218    0.0000 H   0  0  0  0  0  0  0  0  0  0  0  0
    4.2690   -3.8218    0.0000 H   0  0  0  0  0  0  0  0  0  0  0  0
   10.5636   -1.3680    0.0000 H   0  0  0  0  0  0  0  0  0  0  0  0
   10.0284   -3.0153    0.0000 H   0  0  0  0  0  0  0  0  0  0  0  0
    2.3100    3.0252    0.0000 H   0  0  0  0  0  0  0  0  0  0  0  0
    1.4631    2.7982    0.0000 H   0  0  0  0  0  0  0  0  0  0  0  0
    1.6900    1.9513    0.0000 H   0  0  0  0  0  0  0  0  0  0  0  0
    2.8660   -4.6318    0.0000 H   0  0  0  0  0  0  0  0  0  0  0  0
    9.7566    4.0118    0.0000 H   0  0  0  0  0  0  0  0  0  0  0  0
   10.4751    3.2137    0.0000 H   0  0  0  0  0  0  0  0  0  0  0  0
    8.0624    3.6516    0.0000 H   0  0  0  0  0  0  0  0  0  0  0  0
  1 25  1  0  0  0  0
  1 33  1  0  0  0  0
  2 16  2  0  0  0  0
  3 17  2  0  0  0  0
  4 34  1  0  0  0  0
  4 60  1  0  0  0  0
  5 34  1  0  0  0  0
  5 61  1  0  0  0  0
  6 24  2  0  0  0  0
  7 12  1  0  0  0  0
  7 15  1  0  0  0  0
  7 16  1  0  0  0  0
  8 17  1  0  0  0  0
  8 20  1  0  0  0  0
  8 43  1  0  0  0  0
  9 18  1  0  0  0  0
  9 24  1  0  0  0  0
  9 47  1  0  0  0  0
 10 33  1  0  0  0  0
 10 66  1  0  0  0  0
 10 67  1  0  0  0  0
 11 33  2  0  0  0  0
 11 68  1  0  0  0  0
 12 13  1  0  0  0  0
 12 17  1  0  0  0  0
 12 35  1  0  0  0  0
 13 14  1  0  0  0  0
 13 36  1  0  0  0  0
 13 37  1  0  0  0  0
 14 15  1  0  0  0  0
 14 38  1  0  0  0  0
 14 39  1  0  0  0  0
 15 40  1  0  0  0  0
 15 41  1  0  0  0  0
 16 18  1  0  0  0  0
 18 19  1  0  0  0  0
 18 42  1  0  0  0  0
 19 22  1  0  0  0  0
 19 44  1  0  0  0  0
 19 45  1  0  0  0  0
 20 21  1  0  0  0  0
 20 34  1  0  0  0  0
 20 46  1  0  0  0  0
 21 23  1  0  0  0  0
 21 48  1  0  0  0  0
 21 49  1  0  0  0  0
 22 26  2  0  0  0  0
 22 27  1  0  0  0  0
 23 25  1  0  0  0  0
 23 50  1  0  0  0  0
 23 51  1  0  0  0  0
 24 28  1  0  0  0  0
 25 52  1  0  0  0  0
 25 53  1  0  0  0  0
 26 29  1  0  0  0  0
 26 54  1  0  0  0  0
 27 30  2  0  0  0  0
 27 55  1  0  0  0  0
 28 31  1  0  0  0  0
 28 56  1  0  0  0  0
 28 57  1  0  0  0  0
 29 32  2  0  0  0  0
 29 58  1  0  0  0  0
 30 32  1  0  0  0  0
 30 59  1  0  0  0  0
 31 62  1  0  0  0  0
 31 63  1  0  0  0  0
 31 64  1  0  0  0  0
 32 65  1  0  0  0  0
M  END
> <PUBCHEM_COMPOUND_CID>
5540

> <PUBCHEM_COMPOUND_CANONICALIZED>
1

> <PUBCHEM_CACTVS_COMPLEXITY>
707

> <PUBCHEM_CACTVS_HBOND_ACCEPTOR>
7

> <PUBCHEM_CACTVS_HBOND_DONOR>
6

> <PUBCHEM_CACTVS_ROTATABLE_BOND>
13

> <PUBCHEM_CACTVS_SUBSKEYS>
AAADcfJ7uABAAAAAAAAAAAAAAAAAAWAAAAAwAAAAAAAAAAABAAAoHgQQCAAADCjF2ASzAIPAAAioAiFSMAACAgDgABAIiIGIAIgIYDKgkTGUIAAglgCIiAcYiYCOAAAAAAAAAAAAAAAAAAAAAAAAAAAAAA==

> <PUBCHEM_IUPAC_OPENEYE_NAME>
[4-carbamimidoylsulfanyl-1-[[1-[3-phenyl-2-(propanoylamino)propanoyl]pyrrolidine-2-carbonyl]amino]butyl]boronic acid

> <PUBCHEM_IUPAC_CAS_NAME>
[4-(carbamimidoylthio)-1-[[oxo-[1-[1-oxo-2-(1-oxopropylamino)-3-phenylpropyl]-2-pyrrolidinyl]methyl]amino]butyl]boronic acid

> <PUBCHEM_IUPAC_NAME>
[4-carbamimidoylsulfanyl-1-[[1-[3-phenyl-2-(propanoylamino)propanoyl]pyrrolidine-2-carbonyl]amino]butyl]boronic acid

> <PUBCHEM_IUPAC_SYSTEMATIC_NAME>
[4-carbamimidoylsulfanyl-1-[[1-[3-phenyl-2-(propanoylamino)propanoyl]pyrrolidin-2-yl]carbonylamino]butyl]boronic acid

> <PUBCHEM_IUPAC_TRADITIONAL_NAME>
[4-(amidinothio)-1-[[1-(3-phenyl-2-propionamido-propanoyl)prolyl]amino]butyl]boronic acid

> <PUBCHEM_IUPAC_INCHI>
InChI=1S/C22H34BN5O5S/c1-2-19(29)26-16(14-15-8-4-3-5-9-15)21(31)28-12-6-10-17(28)20(30)27-18(23(32)33)11-7-13-34-22(24)25/h3-5,8-9,16-18,32-33H,2,6-7,10-14H2,1H3,(H3,24,25)(H,26,29)(H,27,30)

> <PUBCHEM_IUPAC_INCHIKEY>
IRTXHWTZQUYIAV-UHFFFAOYSA-N

> <PUBCHEM_EXACT_MASS>
491.237371

> <PUBCHEM_MOLECULAR_FORMULA>
C22H34BN5O5S

> <PUBCHEM_MOLECULAR_WEIGHT>
491.41186

> <PUBCHEM_OPENEYE_CAN_SMILES>
B(C(CCCSC(=N)N)NC(=O)C1CCCN1C(=O)C(CC2=CC=CC=C2)NC(=O)CC)(O)O

> <PUBCHEM_OPENEYE_ISO_SMILES>
B(C(CCCSC(=N)N)NC(=O)C1CCCN1C(=O)C(CC2=CC=CC=C2)NC(=O)CC)(O)O

> <PUBCHEM_CACTVS_TPSA>
194

> <PUBCHEM_MONOISOTOPIC_WEIGHT>
491.237371

> <PUBCHEM_TOTAL_CHARGE>
0

> <PUBCHEM_HEAVY_ATOM_COUNT>
34

> <PUBCHEM_ATOM_DEF_STEREO_COUNT>
0

> <PUBCHEM_ATOM_UDEF_STEREO_COUNT>
3

> <PUBCHEM_BOND_DEF_STEREO_COUNT>
0

> <PUBCHEM_BOND_UDEF_STEREO_COUNT>
0

> <PUBCHEM_ISOTOPIC_ATOM_COUNT>
0

> <PUBCHEM_COMPONENT_COUNT>
1

> <PUBCHEM_CACTVS_TAUTO_COUNT>
4

> <PUBCHEM_COORDINATE_TYPE>
1
5
255

> <PUBCHEM_BONDANNOTATIONS>
12  17  3
18  19  3
20  21  3
22  26  8
22  27  8
26  29  8
27  30  8
29  32  8
30  32  8

$$$$

