51090978
  -OEChem-06241223013D

 43 44  0     0  0  0  0  0  0999 V2000
   -4.3188   -1.5127    0.1469 O   0  0  0  0  0  0  0  0  0  0  0  0
   -1.7621   -1.5066    1.7311 O   0  0  0  0  0  0  0  0  0  0  0  0
    4.1077   -0.9669    1.7876 O   0  5  0  0  0  0  0  0  0  0  0  0
    3.9848    0.5725    0.2272 O   0  0  0  0  0  0  0  0  0  0  0  0
   -2.0073    0.1548    0.1052 N   0  0  0  0  0  0  0  0  0  0  0  0
   -0.8918    2.6257    0.4991 N   0  0  0  0  0  0  0  0  0  0  0  0
    3.5499   -0.4629    0.7843 N   0  3  0  0  0  0  0  0  0  0  0  0
   -3.3135    0.6267    0.5597 C   0  0  0  0  0  0  0  0  0  0  0  0
   -1.4560    0.8441   -1.0531 C   0  0  0  0  0  0  0  0  0  0  0  0
   -1.3264   -0.8972    0.7452 C   0  0  0  0  0  0  0  0  0  0  0  0
   -0.0224   -1.3004    0.2435 C   0  0  0  0  0  0  0  0  0  0  0  0
   -4.4447   -0.1221   -0.1208 C   0  0  0  0  0  0  0  0  0  0  0  0
   -0.5801    1.9972   -0.6564 C   0  0  0  0  0  0  0  0  0  0  0  0
    1.1337   -0.7002    0.7423 C   0  0  0  0  0  0  0  0  0  0  0  0
    0.0719   -2.2875   -0.7375 C   0  0  0  0  0  0  0  0  0  0  0  0
    2.3843   -1.0872    0.2603 C   0  0  0  0  0  0  0  0  0  0  0  0
    2.4786   -2.0742   -0.7208 C   0  0  0  0  0  0  0  0  0  0  0  0
    1.3224   -2.6743   -1.2197 C   0  0  0  0  0  0  0  0  0  0  0  0
    0.4816    2.3547   -1.4720 C   0  0  0  0  0  0  0  0  0  0  0  0
    3.8027   -2.5105   -1.2599 C   0  0  0  0  0  0  0  0  0  0  0  0
    1.2744    3.4261   -1.0757 C   0  0  0  0  0  0  0  0  0  0  0  0
   -0.0989    3.6624    0.8517 C   0  0  0  0  0  0  0  0  0  0  0  0
    0.9854    4.0977    0.1070 C   0  0  0  0  0  0  0  0  0  0  0  0
   -5.3553   -2.2594   -0.4754 C   0  0  0  0  0  0  0  0  0  0  0  0
   -3.4062    1.7045    0.3916 H   0  0  0  0  0  0  0  0  0  0  0  0
   -3.3708    0.4499    1.6401 H   0  0  0  0  0  0  0  0  0  0  0  0
   -2.2764    1.2165   -1.6780 H   0  0  0  0  0  0  0  0  0  0  0  0
   -0.8942    0.1376   -1.6710 H   0  0  0  0  0  0  0  0  0  0  0  0
   -4.4130    0.0434   -1.2040 H   0  0  0  0  0  0  0  0  0  0  0  0
   -5.4057    0.2403    0.2617 H   0  0  0  0  0  0  0  0  0  0  0  0
    1.0568    0.0681    1.5093 H   0  0  0  0  0  0  0  0  0  0  0  0
   -0.8227   -2.7612   -1.1335 H   0  0  0  0  0  0  0  0  0  0  0  0
    1.3769   -3.4445   -1.9846 H   0  0  0  0  0  0  0  0  0  0  0  0
    0.6994    1.8245   -2.3928 H   0  0  0  0  0  0  0  0  0  0  0  0
    4.3216   -1.6698   -1.7321 H   0  0  0  0  0  0  0  0  0  0  0  0
    4.4278   -2.9207   -0.4600 H   0  0  0  0  0  0  0  0  0  0  0  0
    3.6954   -3.2925   -2.0197 H   0  0  0  0  0  0  0  0  0  0  0  0
    2.1163    3.7365   -1.6870 H   0  0  0  0  0  0  0  0  0  0  0  0
   -0.3664    4.1521    1.7822 H   0  0  0  0  0  0  0  0  0  0  0  0
    1.5900    4.9351    0.4356 H   0  0  0  0  0  0  0  0  0  0  0  0
   -6.3337   -1.9460   -0.0986 H   0  0  0  0  0  0  0  0  0  0  0  0
   -5.3137   -2.1409   -1.5625 H   0  0  0  0  0  0  0  0  0  0  0  0
   -5.2104   -3.3158   -0.2342 H   0  0  0  0  0  0  0  0  0  0  0  0
  1 12  1  0  0  0  0
  1 24  1  0  0  0  0
  2 10  2  0  0  0  0
  3  7  1  0  0  0  0
  4  7  2  0  0  0  0
  5  8  1  0  0  0  0
  5  9  1  0  0  0  0
  5 10  1  0  0  0  0
  6 13  1  0  0  0  0
  6 22  2  0  0  0  0
  7 16  1  0  0  0  0
  8 12  1  0  0  0  0
  8 25  1  0  0  0  0
  8 26  1  0  0  0  0
  9 13  1  0  0  0  0
  9 27  1  0  0  0  0
  9 28  1  0  0  0  0
 10 11  1  0  0  0  0
 11 14  2  0  0  0  0
 11 15  1  0  0  0  0
 12 29  1  0  0  0  0
 12 30  1  0  0  0  0
 13 19  2  0  0  0  0
 14 16  1  0  0  0  0
 14 31  1  0  0  0  0
 15 18  2  0  0  0  0
 15 32  1  0  0  0  0
 16 17  2  0  0  0  0
 17 18  1  0  0  0  0
 17 20  1  0  0  0  0
 18 33  1  0  0  0  0
 19 21  1  0  0  0  0
 19 34  1  0  0  0  0
 20 35  1  0  0  0  0
 20 36  1  0  0  0  0
 20 37  1  0  0  0  0
 21 23  2  0  0  0  0
 21 38  1  0  0  0  0
 22 23  1  0  0  0  0
 22 39  1  0  0  0  0
 23 40  1  0  0  0  0
 24 41  1  0  0  0  0
 24 42  1  0  0  0  0
 24 43  1  0  0  0  0
M  CHG  2   3  -1   7   1
M  END
> <PUBCHEM_COMPOUND_CID>
51090978

> <PUBCHEM_CONFORMER_RMSD>
1.2

> <PUBCHEM_CONFORMER_DIVERSEORDER>
1
18
94
75
63
30
69
43
80
95
23
45
97
67
29
49
93
60
15
82
92
52
55
21
9
13
58
34
87
73
56
83
64
96
62
53
40
66
25
51
41
10
48
16
90
5
46
36
79
35
14
54
57
72
74
22
85
33
68
37
39
6
89
65
91
84
2
61
8
76
59
81
50
17
20
3
70
12
4
71
77
7
19
86
31
42
24
88
11
38
47
28
27
26
44
78
32

> <PUBCHEM_MMFF94_PARTIAL_CHARGES>
31
1 -0.56
10 0.54
11 0.09
12 0.28
13 0.17
14 -0.15
15 -0.15
16 0.13
17 -0.14
18 -0.15
19 -0.15
2 -0.57
20 0.14
21 -0.15
22 0.16
23 -0.15
24 0.28
3 -0.52
31 0.15
32 0.15
33 0.15
34 0.15
38 0.15
39 0.15
4 -0.52
40 0.15
5 -0.66
6 -0.62
7 0.91
8 0.3
9 0.44

> <PUBCHEM_EFFECTIVE_ROTOR_COUNT>
8

> <PUBCHEM_PHARMACOPHORE_FEATURES>
8
1 1 acceptor
1 2 acceptor
1 3 acceptor
1 3 anion
1 4 acceptor
1 6 acceptor
6 11 14 15 16 17 18 rings
6 6 13 19 21 22 23 rings

> <PUBCHEM_HEAVY_ATOM_COUNT>
24

> <PUBCHEM_ATOM_DEF_STEREO_COUNT>
0

> <PUBCHEM_ATOM_UDEF_STEREO_COUNT>
0

> <PUBCHEM_BOND_DEF_STEREO_COUNT>
0

> <PUBCHEM_BOND_UDEF_STEREO_COUNT>
0

> <PUBCHEM_ISOTOPIC_ATOM_COUNT>
0

> <PUBCHEM_COMPONENT_COUNT>
1

> <PUBCHEM_CACTVS_TAUTO_COUNT>
3

> <PUBCHEM_CONFORMER_ID>
030B962200000001

> <PUBCHEM_MMFF94_ENERGY>
74.3684

> <PUBCHEM_FEATURE_SELFOVERLAP>
40.678

> <PUBCHEM_SHAPE_FINGERPRINT>
10006869 2 17335329919895902073
10165383 225 16681451522714046476
10498660 4 18054508277294355980
1100329 8 18121502345381984126
11578080 2 13913694607837720689
12403259 226 18190462864547344430
128993 33 16683718728559604748
133893 2 17915721112466856105
13681431 1 18341880871183456245
14081887 123 18052260888179708521
14181834 199 18129655297327306101
14386348 128 16899047064326442332
14713325 29 17831290971552905574
14787075 74 18202001001665548542
14955137 171 18335135345624099375
167882 2 18126286333512554101
17357779 13 18266189489999918277
17492 54 18058719196538962044
18785283 64 18127677241760441897
19930381 70 18407760322153690216
20600515 1 17846492660066661914
20905425 154 17695884666866220871
23402539 116 18270131217600161571
23419403 2 17843713021921061965
23557571 272 18267300026587313806
23558518 356 17981317104180051632
25019877 29 17313674741933721342
46194498 28 18196117481683224015
6287921 2 18117824711121087772
6442390 28 17039777938252896761
6443956 14 18410293623035981157
7364860 26 18266173929570742365
7399639 24 18115602581031498170
81228 2 17982996040902264745
9925002 15 17681297471949546199

> <PUBCHEM_SHAPE_MULTIPOLES>
455.49
7.28
4.86
1.34
4.96
5.09
-0.08
-6.67
-0.52
-1.46
1.05
-0.68
-0.1
0.2

> <PUBCHEM_SHAPE_SELFOVERLAP>
958.379

> <PUBCHEM_SHAPE_VOLUME>
256.4

> <PUBCHEM_COORDINATE_TYPE>
2
5
10

$$$$

