17395738
  -OEChem-06241222522D

 38 40  0     0  0  0  0  0  0999 V2000
    2.0000    1.3323    0.0000 F   0  0  0  0  0  0  0  0  0  0  0  0
    7.4793    0.4806    0.0000 O   0  0  0  0  0  0  0  0  0  0  0  0
    3.1491   -2.0194    0.0000 O   0  0  0  0  0  0  0  0  0  0  0  0
    5.8042    2.5684    0.0000 N   0  0  0  0  0  0  0  0  0  0  0  0
    5.7472    0.4806    0.0000 N   0  0  0  0  0  0  0  0  0  0  0  0
    7.1132    3.5194    0.0000 N   0  0  0  0  0  0  0  0  0  0  0  0
    6.6132    1.9806    0.0000 C   0  0  0  0  0  0  0  0  0  0  0  0
    4.8532    2.2594    0.0000 C   0  0  0  0  0  0  0  0  0  0  0  0
    6.6132    0.9806    0.0000 C   0  0  0  0  0  0  0  0  0  0  0  0
    5.7472   -0.5194    0.0000 C   0  0  0  0  0  0  0  0  0  0  0  0
    6.1132    3.5194    0.0000 C   0  0  0  0  0  0  0  0  0  0  0  0
    7.4223    2.5684    0.0000 C   0  0  0  0  0  0  0  0  0  0  0  0
    4.1100    2.9285    0.0000 C   0  0  0  0  0  0  0  0  0  0  0  0
    4.6453    1.2812    0.0000 C   0  0  0  0  0  0  0  0  0  0  0  0
    4.8812   -1.0194    0.0000 C   0  0  0  0  0  0  0  0  0  0  0  0
    4.8812   -2.0194    0.0000 C   0  0  0  0  0  0  0  0  0  0  0  0
    6.6132   -1.0194    0.0000 C   0  0  0  0  0  0  0  0  0  0  0  0
    5.7472   -2.5194    0.0000 C   0  0  0  0  0  0  0  0  0  0  0  0
    6.6132   -2.0194    0.0000 C   0  0  0  0  0  0  0  0  0  0  0  0
    3.1590    2.6195    0.0000 C   0  0  0  0  0  0  0  0  0  0  0  0
    3.6942    0.9722    0.0000 C   0  0  0  0  0  0  0  0  0  0  0  0
    2.9511    1.6413    0.0000 C   0  0  0  0  0  0  0  0  0  0  0  0
    4.0152   -2.5194    0.0000 C   0  0  0  0  0  0  0  0  0  0  0  0
    4.0152   -3.5194    0.0000 C   0  0  0  0  0  0  0  0  0  0  0  0
    5.7488    4.0210    0.0000 H   0  0  0  0  0  0  0  0  0  0  0  0
    5.2103    0.7906    0.0000 H   0  0  0  0  0  0  0  0  0  0  0  0
    8.0119    2.3768    0.0000 H   0  0  0  0  0  0  0  0  0  0  0  0
    4.2389    3.5349    0.0000 H   0  0  0  0  0  0  0  0  0  0  0  0
    5.1060    0.8663    0.0000 H   0  0  0  0  0  0  0  0  0  0  0  0
    4.3443   -0.7094    0.0000 H   0  0  0  0  0  0  0  0  0  0  0  0
    7.1502   -0.7094    0.0000 H   0  0  0  0  0  0  0  0  0  0  0  0
    5.7472   -3.1394    0.0000 H   0  0  0  0  0  0  0  0  0  0  0  0
    7.1502   -2.3294    0.0000 H   0  0  0  0  0  0  0  0  0  0  0  0
    2.6982    3.0343    0.0000 H   0  0  0  0  0  0  0  0  0  0  0  0
    3.5653    0.3657    0.0000 H   0  0  0  0  0  0  0  0  0  0  0  0
    3.3952   -3.5194    0.0000 H   0  0  0  0  0  0  0  0  0  0  0  0
    4.0152   -4.1394    0.0000 H   0  0  0  0  0  0  0  0  0  0  0  0
    4.6352   -3.5194    0.0000 H   0  0  0  0  0  0  0  0  0  0  0  0
  1 22  1  0  0  0  0
  2  9  2  0  0  0  0
  3 23  2  0  0  0  0
  4  7  1  0  0  0  0
  4  8  1  0  0  0  0
  4 11  1  0  0  0  0
  5  9  1  0  0  0  0
  5 10  1  0  0  0  0
  5 26  1  0  0  0  0
  6 11  2  0  0  0  0
  6 12  1  0  0  0  0
  7  9  1  0  0  0  0
  7 12  2  0  0  0  0
  8 13  2  0  0  0  0
  8 14  1  0  0  0  0
 10 15  1  0  0  0  0
 10 17  2  0  0  0  0
 11 25  1  0  0  0  0
 12 27  1  0  0  0  0
 13 20  1  0  0  0  0
 13 28  1  0  0  0  0
 14 21  2  0  0  0  0
 14 29  1  0  0  0  0
 15 16  2  0  0  0  0
 15 30  1  0  0  0  0
 16 18  1  0  0  0  0
 16 23  1  0  0  0  0
 17 19  1  0  0  0  0
 17 31  1  0  0  0  0
 18 19  2  0  0  0  0
 18 32  1  0  0  0  0
 19 33  1  0  0  0  0
 20 22  2  0  0  0  0
 20 34  1  0  0  0  0
 21 22  1  0  0  0  0
 21 35  1  0  0  0  0
 23 24  1  0  0  0  0
 24 36  1  0  0  0  0
 24 37  1  0  0  0  0
 24 38  1  0  0  0  0
M  END
> <PUBCHEM_COMPOUND_CID>
17395738

> <PUBCHEM_COMPOUND_CANONICALIZED>
1

> <PUBCHEM_CACTVS_COMPLEXITY>
465

> <PUBCHEM_CACTVS_HBOND_ACCEPTOR>
4

> <PUBCHEM_CACTVS_HBOND_DONOR>
1

> <PUBCHEM_CACTVS_ROTATABLE_BOND>
4

> <PUBCHEM_CACTVS_SUBSKEYS>
AAADccB7MQAAAAAAAAAAAAAAAAAAAWAAAAAwYAAAAAAAAAAB0AAAHwAQAAAADAzBngw/0JfMEACoA7V3dACCgC03EqAJ2AG4dMiIaHrA3bGUIYholALIyecciICOAAAAQAAAAAAAAACAAAAAAAAAAAAAAA==

> <PUBCHEM_IUPAC_OPENEYE_NAME>
N-(3-acetylphenyl)-3-(4-fluorophenyl)imidazole-4-carboxamide

> <PUBCHEM_IUPAC_CAS_NAME>
N-(3-acetylphenyl)-3-(4-fluorophenyl)-4-imidazolecarboxamide

> <PUBCHEM_IUPAC_NAME>
N-(3-acetylphenyl)-3-(4-fluorophenyl)imidazole-4-carboxamide

> <PUBCHEM_IUPAC_SYSTEMATIC_NAME>
N-(3-ethanoylphenyl)-3-(4-fluorophenyl)imidazole-4-carboxamide

> <PUBCHEM_IUPAC_TRADITIONAL_NAME>
N-(3-acetylphenyl)-3-(4-fluorophenyl)imidazole-4-carboxamide

> <PUBCHEM_IUPAC_INCHI>
InChI=1S/C18H14FN3O2/c1-12(23)13-3-2-4-15(9-13)21-18(24)17-10-20-11-22(17)16-7-5-14(19)6-8-16/h2-11H,1H3,(H,21,24)

> <PUBCHEM_IUPAC_INCHIKEY>
IQCDASBOHVLKAD-UHFFFAOYSA-N

> <PUBCHEM_XLOGP3_AA>
2.6

> <PUBCHEM_EXACT_MASS>
323.107005

> <PUBCHEM_MOLECULAR_FORMULA>
C18H14FN3O2

> <PUBCHEM_MOLECULAR_WEIGHT>
323.321063

> <PUBCHEM_OPENEYE_CAN_SMILES>
CC(=O)C1=CC(=CC=C1)NC(=O)C2=CN=CN2C3=CC=C(C=C3)F

> <PUBCHEM_OPENEYE_ISO_SMILES>
CC(=O)C1=CC(=CC=C1)NC(=O)C2=CN=CN2C3=CC=C(C=C3)F

> <PUBCHEM_CACTVS_TPSA>
64

> <PUBCHEM_MONOISOTOPIC_WEIGHT>
323.107005

> <PUBCHEM_TOTAL_CHARGE>
0

> <PUBCHEM_HEAVY_ATOM_COUNT>
24

> <PUBCHEM_ATOM_DEF_STEREO_COUNT>
0

> <PUBCHEM_ATOM_UDEF_STEREO_COUNT>
0

> <PUBCHEM_BOND_DEF_STEREO_COUNT>
0

> <PUBCHEM_BOND_UDEF_STEREO_COUNT>
0

> <PUBCHEM_ISOTOPIC_ATOM_COUNT>
0

> <PUBCHEM_COMPONENT_COUNT>
1

> <PUBCHEM_CACTVS_TAUTO_COUNT>
4

> <PUBCHEM_COORDINATE_TYPE>
1
5
255

> <PUBCHEM_BONDANNOTATIONS>
10  15  8
10  17  8
13  20  8
14  21  8
15  16  8
16  18  8
17  19  8
18  19  8
20  22  8
21  22  8
4  11  8
4  7  8
6  11  8
6  12  8
7  12  8
8  13  8
8  14  8

$$$$

