7847041
  -OEChem-06241222482D

 58 60  0     1  0  0  0  0  0999 V2000
    4.6783    2.9028    0.0000 S   0  0  0  0  0  0  0  0  0  0  0  0
    8.2619    0.3660    0.0000 O   0  0  0  0  0  0  0  0  0  0  0  0
    9.2619   -1.3660    0.0000 O   0  0  0  0  0  0  0  0  0  0  0  0
    8.2619    2.0981    0.0000 O   0  0  0  0  0  0  0  0  0  0  0  0
   10.7619   -0.5000    0.0000 N   0  0  0  0  0  0  0  0  0  0  0  0
    4.6783    1.2933    0.0000 N   0  0  0  0  0  0  0  0  0  0  0  0
   15.7619   -2.2320    0.0000 C   0  0  0  0  0  0  0  0  0  0  0  0
   15.2619   -1.3660    0.0000 C   0  0  0  0  0  0  0  0  0  0  0  0
   14.2619   -1.3660    0.0000 C   0  0  0  0  0  0  0  0  0  0  0  0
   11.2619   -1.3660    0.0000 C   0  0  2  0  0  0  0  0  0  0  0  0
   12.2619   -1.3660    0.0000 C   0  0  0  0  0  0  0  0  0  0  0  0
   13.7619   -0.5000    0.0000 C   0  0  0  0  0  0  0  0  0  0  0  0
   13.7619   -2.2320    0.0000 C   0  0  0  0  0  0  0  0  0  0  0  0
   16.7619   -2.2320    0.0000 C   0  0  0  0  0  0  0  0  0  0  0  0
   15.2619   -3.0981    0.0000 C   0  0  0  0  0  0  0  0  0  0  0  0
   12.7619   -0.5000    0.0000 C   0  0  0  0  0  0  0  0  0  0  0  0
   12.7619   -2.2320    0.0000 C   0  0  0  0  0  0  0  0  0  0  0  0
   10.7619   -2.2320    0.0000 C   0  0  0  0  0  0  0  0  0  0  0  0
    9.7619   -0.5000    0.0000 C   0  0  0  0  0  0  0  0  0  0  0  0
    6.2619    2.0981    0.0000 C   0  0  0  0  0  0  0  0  0  0  0  0
    9.2619    0.3660    0.0000 C   0  0  0  0  0  0  0  0  0  0  0  0
    6.7619    1.2320    0.0000 C   0  0  0  0  0  0  0  0  0  0  0  0
    5.2619    2.0981    0.0000 C   0  0  0  0  0  0  0  0  0  0  0  0
    3.7320    2.5981    0.0000 C   0  0  0  0  0  0  0  0  0  0  0  0
    3.7320    1.5981    0.0000 C   0  0  0  0  0  0  0  0  0  0  0  0
    7.7619    1.2320    0.0000 C   0  0  0  0  0  0  0  0  0  0  0  0
    2.8660    3.0981    0.0000 C   0  0  0  0  0  0  0  0  0  0  0  0
    2.8660    1.0981    0.0000 C   0  0  0  0  0  0  0  0  0  0  0  0
    2.0000    2.5981    0.0000 C   0  0  0  0  0  0  0  0  0  0  0  0
    2.0000    1.5981    0.0000 C   0  0  0  0  0  0  0  0  0  0  0  0
   16.0719   -2.7690    0.0000 H   0  0  0  0  0  0  0  0  0  0  0  0
   15.8445   -1.1540    0.0000 H   0  0  0  0  0  0  0  0  0  0  0  0
   15.1542   -0.7554    0.0000 H   0  0  0  0  0  0  0  0  0  0  0  0
   10.6419   -1.3660    0.0000 H   0  0  0  0  0  0  0  0  0  0  0  0
   14.0719    0.0369    0.0000 H   0  0  0  0  0  0  0  0  0  0  0  0
   14.0719   -2.7690    0.0000 H   0  0  0  0  0  0  0  0  0  0  0  0
   16.7619   -2.8521    0.0000 H   0  0  0  0  0  0  0  0  0  0  0  0
   14.7249   -2.7881    0.0000 H   0  0  0  0  0  0  0  0  0  0  0  0
   14.9519   -3.6350    0.0000 H   0  0  0  0  0  0  0  0  0  0  0  0
   15.7988   -3.4081    0.0000 H   0  0  0  0  0  0  0  0  0  0  0  0
   17.3819   -2.2320    0.0000 H   0  0  0  0  0  0  0  0  0  0  0  0
   16.7619   -1.6120    0.0000 H   0  0  0  0  0  0  0  0  0  0  0  0
   12.4519    0.0369    0.0000 H   0  0  0  0  0  0  0  0  0  0  0  0
   12.4519   -2.7690    0.0000 H   0  0  0  0  0  0  0  0  0  0  0  0
   10.2249   -1.9220    0.0000 H   0  0  0  0  0  0  0  0  0  0  0  0
   10.4519   -2.7690    0.0000 H   0  0  0  0  0  0  0  0  0  0  0  0
   11.2988   -2.5420    0.0000 H   0  0  0  0  0  0  0  0  0  0  0  0
   11.0719    0.0369    0.0000 H   0  0  0  0  0  0  0  0  0  0  0  0
    6.8445    2.3101    0.0000 H   0  0  0  0  0  0  0  0  0  0  0  0
    6.1542    2.7087    0.0000 H   0  0  0  0  0  0  0  0  0  0  0  0
    9.8445    0.5781    0.0000 H   0  0  0  0  0  0  0  0  0  0  0  0
    9.1542    0.9766    0.0000 H   0  0  0  0  0  0  0  0  0  0  0  0
    6.1793    1.0200    0.0000 H   0  0  0  0  0  0  0  0  0  0  0  0
    6.8695    0.6215    0.0000 H   0  0  0  0  0  0  0  0  0  0  0  0
    2.8660    3.7181    0.0000 H   0  0  0  0  0  0  0  0  0  0  0  0
    2.8660    0.4781    0.0000 H   0  0  0  0  0  0  0  0  0  0  0  0
    1.4631    2.9081    0.0000 H   0  0  0  0  0  0  0  0  0  0  0  0
    1.4631    1.2881    0.0000 H   0  0  0  0  0  0  0  0  0  0  0  0
  1 23  1  0  0  0  0
  1 24  1  0  0  0  0
  2 21  1  0  0  0  0
  2 26  1  0  0  0  0
  3 19  2  0  0  0  0
  4 26  2  0  0  0  0
 10  5  1  6  0  0  0
  5 19  1  0  0  0  0
  5 48  1  0  0  0  0
  6 23  2  0  0  0  0
  6 25  1  0  0  0  0
  7  8  1  0  0  0  0
  7 14  1  0  0  0  0
  7 15  1  0  0  0  0
  7 31  1  0  0  0  0
  8  9  1  0  0  0  0
  8 32  1  0  0  0  0
  8 33  1  0  0  0  0
  9 12  2  0  0  0  0
  9 13  1  0  0  0  0
 10 11  1  0  0  0  0
 10 18  1  0  0  0  0
 10 34  1  0  0  0  0
 11 16  2  0  0  0  0
 11 17  1  0  0  0  0
 12 16  1  0  0  0  0
 12 35  1  0  0  0  0
 13 17  2  0  0  0  0
 13 36  1  0  0  0  0
 14 37  1  0  0  0  0
 14 41  1  0  0  0  0
 14 42  1  0  0  0  0
 15 38  1  0  0  0  0
 15 39  1  0  0  0  0
 15 40  1  0  0  0  0
 16 43  1  0  0  0  0
 17 44  1  0  0  0  0
 18 45  1  0  0  0  0
 18 46  1  0  0  0  0
 18 47  1  0  0  0  0
 19 21  1  0  0  0  0
 20 22  1  0  0  0  0
 20 23  1  0  0  0  0
 20 49  1  0  0  0  0
 20 50  1  0  0  0  0
 21 51  1  0  0  0  0
 21 52  1  0  0  0  0
 22 26  1  0  0  0  0
 22 53  1  0  0  0  0
 22 54  1  0  0  0  0
 24 25  1  0  0  0  0
 24 27  2  0  0  0  0
 25 28  2  0  0  0  0
 27 29  1  0  0  0  0
 27 55  1  0  0  0  0
 28 30  1  0  0  0  0
 28 56  1  0  0  0  0
 29 30  2  0  0  0  0
 29 57  1  0  0  0  0
 30 58  1  0  0  0  0
M  END
> <PUBCHEM_COMPOUND_CID>
7847041

> <PUBCHEM_COMPOUND_CANONICALIZED>
1

> <PUBCHEM_CACTVS_COMPLEXITY>
563

> <PUBCHEM_CACTVS_HBOND_ACCEPTOR>
5

> <PUBCHEM_CACTVS_HBOND_DONOR>
1

> <PUBCHEM_CACTVS_ROTATABLE_BOND>
10

> <PUBCHEM_CACTVS_SUBSKEYS>
AAADceB7MABAAAAAAAAAAAAAAAAAAWAAAAAwYAAAAAAAAFgB9AAAHgQQAAAADSjh3gYyybLIFAisAyXyXAKD8KBhCjhImL14ZJgKILLgkZWHIAhklgD4yAc0gMAOQAAAAAAAAQCAAAAAAAACAAAAAAAAAA==

> <PUBCHEM_IUPAC_OPENEYE_NAME>
[2-[[(1S)-1-(4-isobutylphenyl)ethyl]amino]-2-oxo-ethyl] 3-(1,3-benzothiazol-2-yl)propanoate

> <PUBCHEM_IUPAC_CAS_NAME>
3-(1,3-benzothiazol-2-yl)propanoic acid [2-[[(1S)-1-[4-(2-methylpropyl)phenyl]ethyl]amino]-2-oxoethyl] ester

> <PUBCHEM_IUPAC_NAME>
[2-[[(1S)-1-[4-(2-methylpropyl)phenyl]ethyl]amino]-2-oxoethyl] 3-(1,3-benzothiazol-2-yl)propanoate

> <PUBCHEM_IUPAC_SYSTEMATIC_NAME>
[2-[[(1S)-1-[4-(2-methylpropyl)phenyl]ethyl]amino]-2-oxidanylidene-ethyl] 3-(1,3-benzothiazol-2-yl)propanoate

> <PUBCHEM_IUPAC_TRADITIONAL_NAME>
3-(1,3-benzothiazol-2-yl)propionic acid [2-[[(1S)-1-(4-isobutylphenyl)ethyl]amino]-2-keto-ethyl] ester

> <PUBCHEM_IUPAC_INCHI>
InChI=1S/C24H28N2O3S/c1-16(2)14-18-8-10-19(11-9-18)17(3)25-22(27)15-29-24(28)13-12-23-26-20-6-4-5-7-21(20)30-23/h4-11,16-17H,12-15H2,1-3H3,(H,25,27)/t17-/m0/s1

> <PUBCHEM_IUPAC_INCHIKEY>
JXRCXDJEWXEDPA-KRWDZBQOSA-N

> <PUBCHEM_XLOGP3_AA>
5.3

> <PUBCHEM_EXACT_MASS>
424.182064

> <PUBCHEM_MOLECULAR_FORMULA>
C24H28N2O3S

> <PUBCHEM_MOLECULAR_WEIGHT>
424.55572

> <PUBCHEM_OPENEYE_CAN_SMILES>
CC(C)CC1=CC=C(C=C1)C(C)NC(=O)COC(=O)CCC2=NC3=CC=CC=C3S2

> <PUBCHEM_OPENEYE_ISO_SMILES>
C[C@@H](C1=CC=C(C=C1)CC(C)C)NC(=O)COC(=O)CCC2=NC3=CC=CC=C3S2

> <PUBCHEM_CACTVS_TPSA>
96.5

> <PUBCHEM_MONOISOTOPIC_WEIGHT>
424.182064

> <PUBCHEM_TOTAL_CHARGE>
0

> <PUBCHEM_HEAVY_ATOM_COUNT>
30

> <PUBCHEM_ATOM_DEF_STEREO_COUNT>
1

> <PUBCHEM_ATOM_UDEF_STEREO_COUNT>
0

> <PUBCHEM_BOND_DEF_STEREO_COUNT>
0

> <PUBCHEM_BOND_UDEF_STEREO_COUNT>
0

> <PUBCHEM_ISOTOPIC_ATOM_COUNT>
0

> <PUBCHEM_COMPONENT_COUNT>
1

> <PUBCHEM_CACTVS_TAUTO_COUNT>
4

> <PUBCHEM_COORDINATE_TYPE>
1
5
255

> <PUBCHEM_BONDANNOTATIONS>
1  23  8
1  24  8
11  16  8
11  17  8
12  16  8
13  17  8
24  25  8
24  27  8
25  28  8
27  29  8
28  30  8
29  30  8
10  5  6
6  23  8
6  25  8
9  12  8
9  13  8

$$$$

