17395293
  -OEChem-06241222493D

 38 39  0     1  0  0  0  0  0999 V2000
    0.2093    1.4449   -1.3663 O   0  0  0  0  0  0  0  0  0  0  0  0
   -3.1529   -0.4794    1.9454 O   0  0  0  0  0  0  0  0  0  0  0  0
    2.4335    1.4602    0.2343 N   0  0  0  0  0  0  0  0  0  0  0  0
   -1.0494    0.6473    0.4468 N   0  0  0  0  0  0  0  0  0  0  0  0
    1.1326    1.5817    0.8551 C   0  0  2  0  0  0  0  0  0  0  0  0
    0.0598    1.2224   -0.1680 C   0  0  0  0  0  0  0  0  0  0  0  0
    0.9356    3.0029    1.3637 C   0  0  0  0  0  0  0  0  0  0  0  0
    3.0778    0.2757    0.0360 C   0  0  0  0  0  0  0  0  0  0  0  0
   -2.2369    0.1870   -0.1703 C   0  0  0  0  0  0  0  0  0  0  0  0
   -3.2655   -0.3676    0.5915 C   0  0  0  0  0  0  0  0  0  0  0  0
    4.3325    0.2574   -0.5734 C   0  0  0  0  0  0  0  0  0  0  0  0
    2.4823   -0.9186    0.4421 C   0  0  0  0  0  0  0  0  0  0  0  0
   -2.3730    0.2920   -1.5546 C   0  0  0  0  0  0  0  0  0  0  0  0
   -4.4301   -0.8170   -0.0312 C   0  0  0  0  0  0  0  0  0  0  0  0
   -3.5376   -0.1575   -2.1770 C   0  0  0  0  0  0  0  0  0  0  0  0
    4.9914   -0.9551   -0.7769 C   0  0  0  0  0  0  0  0  0  0  0  0
    3.1414   -2.1310    0.2388 C   0  0  0  0  0  0  0  0  0  0  0  0
   -4.5660   -0.7120   -1.4154 C   0  0  0  0  0  0  0  0  0  0  0  0
    4.3960   -2.1492   -0.3708 C   0  0  0  0  0  0  0  0  0  0  0  0
   -2.5810   -1.6841    2.4500 C   0  0  0  0  0  0  0  0  0  0  0  0
    1.0630    0.9339    1.7371 H   0  0  0  0  0  0  0  0  0  0  0  0
    2.8632    2.3023   -0.1338 H   0  0  0  0  0  0  0  0  0  0  0  0
    0.9730    3.7288    0.5430 H   0  0  0  0  0  0  0  0  0  0  0  0
    1.7147    3.2738    2.0844 H   0  0  0  0  0  0  0  0  0  0  0  0
   -0.0377    3.1123    1.8540 H   0  0  0  0  0  0  0  0  0  0  0  0
   -1.0279    0.5437    1.4587 H   0  0  0  0  0  0  0  0  0  0  0  0
    4.8090    1.1801   -0.8951 H   0  0  0  0  0  0  0  0  0  0  0  0
    1.5075   -0.9679    0.9156 H   0  0  0  0  0  0  0  0  0  0  0  0
   -1.6260    0.7061   -2.2159 H   0  0  0  0  0  0  0  0  0  0  0  0
   -5.2360   -1.2494    0.5557 H   0  0  0  0  0  0  0  0  0  0  0  0
   -3.6448   -0.0767   -3.2549 H   0  0  0  0  0  0  0  0  0  0  0  0
    5.9681   -0.9695   -1.2516 H   0  0  0  0  0  0  0  0  0  0  0  0
    2.6778   -3.0615    0.5533 H   0  0  0  0  0  0  0  0  0  0  0  0
   -5.4727   -1.0619   -1.9001 H   0  0  0  0  0  0  0  0  0  0  0  0
    4.9089   -3.0932   -0.5295 H   0  0  0  0  0  0  0  0  0  0  0  0
   -3.2115   -2.5417    2.1951 H   0  0  0  0  0  0  0  0  0  0  0  0
   -1.5706   -1.8317    2.0556 H   0  0  0  0  0  0  0  0  0  0  0  0
   -2.5223   -1.6052    3.5391 H   0  0  0  0  0  0  0  0  0  0  0  0
  1  6  2  0  0  0  0
  2 10  1  0  0  0  0
  2 20  1  0  0  0  0
  3  5  1  0  0  0  0
  3  8  1  0  0  0  0
  3 22  1  0  0  0  0
  4  6  1  0  0  0  0
  4  9  1  0  0  0  0
  4 26  1  0  0  0  0
  5  6  1  0  0  0  0
  5  7  1  0  0  0  0
  5 21  1  0  0  0  0
  7 23  1  0  0  0  0
  7 24  1  0  0  0  0
  7 25  1  0  0  0  0
  8 11  2  0  0  0  0
  8 12  1  0  0  0  0
  9 10  1  0  0  0  0
  9 13  2  0  0  0  0
 10 14  2  0  0  0  0
 11 16  1  0  0  0  0
 11 27  1  0  0  0  0
 12 17  2  0  0  0  0
 12 28  1  0  0  0  0
 13 15  1  0  0  0  0
 13 29  1  0  0  0  0
 14 18  1  0  0  0  0
 14 30  1  0  0  0  0
 15 18  2  0  0  0  0
 15 31  1  0  0  0  0
 16 19  2  0  0  0  0
 16 32  1  0  0  0  0
 17 19  1  0  0  0  0
 17 33  1  0  0  0  0
 18 34  1  0  0  0  0
 19 35  1  0  0  0  0
 20 36  1  0  0  0  0
 20 37  1  0  0  0  0
 20 38  1  0  0  0  0
M  END
> <PUBCHEM_COMPOUND_CID>
17395293

> <PUBCHEM_CONFORMER_RMSD>
0.8

> <PUBCHEM_CONFORMER_DIVERSEORDER>
1
61
31
9
47
96
100
95
77
53
58
108
27
93
42
74
98
86
113
21
97
78
64
32
68
66
15
10
85
71
76
60
92
19
80
41
107
62
20
101
72
29
94
16
75
43
111
2
99
40
83
87
11
102
14
5
59
48
18
79
52
103
28
88
36
8
112
6
26
91
110
73
106
63
39
24
65
25
45
109
69
54
46
23
33
70
50
51
44
67
38
30
22
7
105
89
56
49
3
4
55
37
12
104
17
90
13
82
81
84
35
57
34

> <PUBCHEM_MMFF94_PARTIAL_CHARGES>
30
1 -0.57
10 0.08
11 -0.15
12 -0.15
13 -0.15
14 -0.15
15 -0.15
16 -0.15
17 -0.15
18 -0.15
19 -0.15
2 -0.36
20 0.28
22 0.4
26 0.37
27 0.15
28 0.15
29 0.15
3 -0.87
30 0.15
31 0.15
32 0.15
33 0.15
34 0.15
35 0.15
4 -0.55
5 0.43
6 0.57
8 0.1
9 0.12

> <PUBCHEM_EFFECTIVE_ROTOR_COUNT>
6

> <PUBCHEM_PHARMACOPHORE_FEATURES>
7
1 1 acceptor
1 2 acceptor
1 3 cation
1 3 donor
1 4 donor
6 8 11 12 16 17 19 rings
6 9 10 13 14 15 18 rings

> <PUBCHEM_HEAVY_ATOM_COUNT>
20

> <PUBCHEM_ATOM_DEF_STEREO_COUNT>
0

> <PUBCHEM_ATOM_UDEF_STEREO_COUNT>
1

> <PUBCHEM_BOND_DEF_STEREO_COUNT>
0

> <PUBCHEM_BOND_UDEF_STEREO_COUNT>
0

> <PUBCHEM_ISOTOPIC_ATOM_COUNT>
0

> <PUBCHEM_COMPONENT_COUNT>
1

> <PUBCHEM_CACTVS_TAUTO_COUNT>
2

> <PUBCHEM_CONFORMER_ID>
01096E5D00000001

> <PUBCHEM_MMFF94_ENERGY>
77.4687

> <PUBCHEM_FEATURE_SELFOVERLAP>
35.52

> <PUBCHEM_SHAPE_FINGERPRINT>
10366900 7 18273220789518511639
10498660 4 16200439086606285823
12236239 1 17458062642925624143
12363563 72 18335143132674126510
12553582 1 18187368752868914518
12596599 1 17385723599443718350
12596602 18 16588031190742278442
12633257 1 4967605113814409627
12670546 177 16845282818133022574
12707595 3 18410582781524100312
12788726 201 17976262661827653448
12892183 10 14490476413135751406
13103583 49 17095795611740526666
13402501 40 18060126622825349731
13533116 47 18115873997400127143
13544653 18 18408881862874423204
13675066 3 5689596078524428556
14251757 17 17703789245010762370
14251757 5 17060341872383048813
14251764 38 13540740160585504302
14386348 63 18131911546305240019
14767858 380 18336533947045034484
15163728 17 15408675356888461399
15188451 53 16009047072227305495
15375462 189 18186802482921617044
15635459 17 18272091595245373538
17349148 13 16298676001468627933
1813 80 17895183416196711180
18222031 100 17603598429841457316
19784866 34 12031786976439928988
200 152 18409451431572738918
20291156 8 18113622317492059348
20645477 70 18339369565060978660
20693207 138 17988358174522234371
20871999 31 17131832083823675101
21713013 43 17704060790054759074
2215653 11 18272380771725888367
2255824 54 17897171221434678424
22849339 104 16702299010706886739
22950370 63 17968092049545846934
235170 7 17418092143923850854
23557571 272 17060336284245532812
23559900 14 17845938424602300365
23596394 208 17988650704871411030
2838139 119 14691417575277505102
2871803 45 18202002166124029102
314194 84 18333449828991058854
3472631 163 14764352660565734767
351380 3 17966970530294903142
3737641 26 17532921925999545006
4259306 186 18411699928498837238
46194498 28 17202471209066961919
465052 167 17967816011565418087
4921388 177 16845564327506491963
573450 72 16515684425230173541
7970288 3 18113904896286727470
90316 7 16950556701422519721
960060 61 18343026587931980300

> <PUBCHEM_SHAPE_MULTIPOLES>
389.89
10.32
2.29
1.85
2.09
1
0.43
-6.25
-2.54
2.27
0.84
-2.63
-0.4
0.6

> <PUBCHEM_SHAPE_SELFOVERLAP>
822.468

> <PUBCHEM_SHAPE_VOLUME>
218.6

> <PUBCHEM_COORDINATE_TYPE>
2
5
10

$$$$

