10920
  -OEChem-06261205073D

 41 40  0     0  0  0  0  0  0999 V2000
   -3.7261    0.0632    0.0026 N   0  3  0  0  0  0  0  0  0  0  0  0
    3.7197    0.0630    0.0016 N   0  3  0  0  0  0  0  0  0  0  0  0
   -2.5364   -0.8201    0.0095 C   0  0  0  0  0  0  0  0  0  0  0  0
    2.5329   -0.8252   -0.0319 C   0  0  0  0  0  0  0  0  0  0  0  0
   -1.2543    0.0031   -0.0140 C   0  0  0  0  0  0  0  0  0  0  0  0
    1.2722    0.0264   -0.0115 C   0  0  0  0  0  0  0  0  0  0  0  0
    0.0176   -0.8497    0.0018 C   0  0  0  0  0  0  0  0  0  0  0  0
   -3.7630    0.9420    1.2616 C   0  0  0  0  0  0  0  0  0  0  0  0
   -3.7133    0.9888   -1.2228 C   0  0  0  0  0  0  0  0  0  0  0  0
   -5.0206   -0.7621   -0.0387 C   0  0  0  0  0  0  0  0  0  0  0  0
    3.7161    1.0252   -1.1949 C   0  0  0  0  0  0  0  0  0  0  0  0
    3.7379    0.9020    1.2873 C   0  0  0  0  0  0  0  0  0  0  0  0
    5.0172   -0.7563   -0.0506 C   0  0  0  0  0  0  0  0  0  0  0  0
   -2.5815   -1.4498    0.9062 H   0  0  0  0  0  0  0  0  0  0  0  0
   -2.5905   -1.4727   -0.8704 H   0  0  0  0  0  0  0  0  0  0  0  0
    2.5777   -1.4926    0.8370 H   0  0  0  0  0  0  0  0  0  0  0  0
    2.5834   -1.4346   -0.9421 H   0  0  0  0  0  0  0  0  0  0  0  0
   -1.2033    0.6244   -0.9137 H   0  0  0  0  0  0  0  0  0  0  0  0
   -1.2010    0.6729    0.8498 H   0  0  0  0  0  0  0  0  0  0  0  0
    1.2221    0.6683    0.8724 H   0  0  0  0  0  0  0  0  0  0  0  0
    1.2055    0.6670   -0.8962 H   0  0  0  0  0  0  0  0  0  0  0  0
    0.0209   -1.5151   -0.8701 H   0  0  0  0  0  0  0  0  0  0  0  0
    0.0208   -1.4860    0.8952 H   0  0  0  0  0  0  0  0  0  0  0  0
   -2.9734    1.6952    1.2135 H   0  0  0  0  0  0  0  0  0  0  0  0
   -4.7332    1.4480    1.2938 H   0  0  0  0  0  0  0  0  0  0  0  0
   -3.6452    0.2963    2.1366 H   0  0  0  0  0  0  0  0  0  0  0  0
   -4.6909    1.4771   -1.2891 H   0  0  0  0  0  0  0  0  0  0  0  0
   -2.9459    1.7571   -1.1012 H   0  0  0  0  0  0  0  0  0  0  0  0
   -3.5359    0.3800   -2.1141 H   0  0  0  0  0  0  0  0  0  0  0  0
   -5.0112   -1.3629   -0.9529 H   0  0  0  0  0  0  0  0  0  0  0  0
   -5.0404   -1.4060    0.8453 H   0  0  0  0  0  0  0  0  0  0  0  0
   -5.8750   -0.0791   -0.0363 H   0  0  0  0  0  0  0  0  0  0  0  0
    2.9486    1.7908   -1.0583 H   0  0  0  0  0  0  0  0  0  0  0  0
    4.6941    1.5155   -1.2379 H   0  0  0  0  0  0  0  0  0  0  0  0
    3.5473    0.4440   -2.1060 H   0  0  0  0  0  0  0  0  0  0  0  0
    2.9718    1.6792    1.2407 H   0  0  0  0  0  0  0  0  0  0  0  0
    3.5812    0.2340    2.1392 H   0  0  0  0  0  0  0  0  0  0  0  0
    4.7183    1.3835    1.3634 H   0  0  0  0  0  0  0  0  0  0  0  0
    5.8694   -0.0710   -0.0227 H   0  0  0  0  0  0  0  0  0  0  0  0
    5.0318   -1.4237    0.8160 H   0  0  0  0  0  0  0  0  0  0  0  0
    5.0176   -1.3324   -0.9806 H   0  0  0  0  0  0  0  0  0  0  0  0
  1  3  1  0  0  0  0
  1  8  1  0  0  0  0
  1  9  1  0  0  0  0
  1 10  1  0  0  0  0
  2  4  1  0  0  0  0
  2 11  1  0  0  0  0
  2 12  1  0  0  0  0
  2 13  1  0  0  0  0
  3  5  1  0  0  0  0
  3 14  1  0  0  0  0
  3 15  1  0  0  0  0
  4  6  1  0  0  0  0
  4 16  1  0  0  0  0
  4 17  1  0  0  0  0
  5  7  1  0  0  0  0
  5 18  1  0  0  0  0
  5 19  1  0  0  0  0
  6  7  1  0  0  0  0
  6 20  1  0  0  0  0
  6 21  1  0  0  0  0
  7 22  1  0  0  0  0
  7 23  1  0  0  0  0
  8 24  1  0  0  0  0
  8 25  1  0  0  0  0
  8 26  1  0  0  0  0
  9 27  1  0  0  0  0
  9 28  1  0  0  0  0
  9 29  1  0  0  0  0
 10 30  1  0  0  0  0
 10 31  1  0  0  0  0
 10 32  1  0  0  0  0
 11 33  1  0  0  0  0
 11 34  1  0  0  0  0
 11 35  1  0  0  0  0
 12 36  1  0  0  0  0
 12 37  1  0  0  0  0
 12 38  1  0  0  0  0
 13 39  1  0  0  0  0
 13 40  1  0  0  0  0
 13 41  1  0  0  0  0
M  CHG  2   1   1   2   1
M  END
> <PUBCHEM_COMPOUND_CID>
10920

> <PUBCHEM_CONFORMER_RMSD>
0.6

> <PUBCHEM_CONFORMER_DIVERSEORDER>
1
3
4
2

> <PUBCHEM_MMFF94_PARTIAL_CHARGES>
10
1 -1.01
10 0.5
11 0.5
12 0.5
13 0.5
2 -1.01
3 0.5
4 0.5
8 0.5
9 0.5

> <PUBCHEM_EFFECTIVE_ROTOR_COUNT>
6

> <PUBCHEM_PHARMACOPHORE_FEATURES>
2
1 1 cation
1 2 cation

> <PUBCHEM_HEAVY_ATOM_COUNT>
13

> <PUBCHEM_ATOM_DEF_STEREO_COUNT>
0

> <PUBCHEM_ATOM_UDEF_STEREO_COUNT>
0

> <PUBCHEM_BOND_DEF_STEREO_COUNT>
0

> <PUBCHEM_BOND_UDEF_STEREO_COUNT>
0

> <PUBCHEM_ISOTOPIC_ATOM_COUNT>
0

> <PUBCHEM_COMPONENT_COUNT>
1

> <PUBCHEM_CACTVS_TAUTO_COUNT>
1

> <PUBCHEM_CONFORMER_ID>
00002AA800000001

> <PUBCHEM_MMFF94_ENERGY>
44.5096

> <PUBCHEM_FEATURE_SELFOVERLAP>
10.149

> <PUBCHEM_SHAPE_FINGERPRINT>
10680689 15 17703787029113449555
10912923 1 15841834451502004232
11287383 113 17023187080635618967
114248 4 15863790586343848771
11987891 27 7348892157012955448
13081056 2 17967534562242342753
14123238 8 18343863303548932559
14252887 29 11095887086088183294
15239154 128 18410292510180372521
17834072 33 18343018844264467103
17834076 25 18334292071755810534
18186145 218 18335137604972030298
1986462 14 18259984855827156447
20432913 95 12391514199862507592
20645477 70 18186795928865392454
20828058 21 17632579361500031150
212847 35 18335417963679386648
23402539 116 16660649587112491640
23402655 69 15936404559256729608
23557571 272 18343015631808076717
42788 4 18410573989446548375
4990 188 16805316700055665726
522135 26 17132116845035987946
633830 44 17240759592485479461
90127 26 17274816973877865348

> <PUBCHEM_SHAPE_MULTIPOLES>
257.57
12.04
1.16
1.1
0.11
0.08
-0.05
0.53
-0.01
0
0.03
0
0.47
-0.01

> <PUBCHEM_SHAPE_SELFOVERLAP>
461.796

> <PUBCHEM_SHAPE_VOLUME>
171.1

> <PUBCHEM_COORDINATE_TYPE>
2
5
10

$$$$

