14152
  -OEChem-06241222423D

 37 37  0     1  0  0  0  0  0999 V2000
    1.7966   -3.1457   -1.0692 Cl  0  0  0  0  0  0  0  0  0  0  0  0
    3.9014    1.5009    2.0400 Cl  0  0  0  0  0  0  0  0  0  0  0  0
   -2.2533   -1.9339   -0.3103 O   0  0  0  0  0  0  0  0  0  0  0  0
   -3.6506   -1.6442    1.4529 O   0  0  0  0  0  0  0  0  0  0  0  0
    2.2318   -0.3529    0.2016 N   0  0  0  0  0  0  0  0  0  0  0  0
   -4.7569    0.5148    0.1700 N   0  0  0  0  0  0  0  0  0  0  0  0
    1.1940    0.4565   -0.3054 C   0  0  0  0  0  0  0  0  0  0  0  0
   -1.0688    1.2460   -0.2070 C   0  0  0  0  0  0  0  0  0  0  0  0
   -2.4289    1.2333    0.4520 C   0  0  0  0  0  0  0  0  0  0  0  0
   -0.0611    0.4448    0.3035 C   0  0  0  0  0  0  0  0  0  0  0  0
    3.2577   -0.8699   -0.6821 C   0  0  0  0  0  0  0  0  0  0  0  0
    2.2937   -0.6668    1.6153 C   0  0  0  0  0  0  0  0  0  0  0  0
   -3.3708    0.1747   -0.1427 C   0  0  1  0  0  0  0  0  0  0  0  0
    1.4227    1.2690   -1.4161 C   0  0  0  0  0  0  0  0  0  0  0  0
   -0.8581    2.0583   -1.3087 C   0  0  0  0  0  0  0  0  0  0  0  0
    0.3967    2.0699   -1.9176 C   0  0  0  0  0  0  0  0  0  0  0  0
    2.6522   -1.7474   -1.7663 C   0  0  0  0  0  0  0  0  0  0  0  0
    2.4216    0.5979    2.4497 C   0  0  0  0  0  0  0  0  0  0  0  0
   -3.1199   -1.2054    0.4403 C   0  0  0  0  0  0  0  0  0  0  0  0
   -2.3101    1.0854    1.5342 H   0  0  0  0  0  0  0  0  0  0  0  0
   -2.8639    2.2367    0.3421 H   0  0  0  0  0  0  0  0  0  0  0  0
   -0.2758   -0.1872    1.1591 H   0  0  0  0  0  0  0  0  0  0  0  0
    3.9918   -1.4640   -0.1228 H   0  0  0  0  0  0  0  0  0  0  0  0
    3.8405   -0.0563   -1.1287 H   0  0  0  0  0  0  0  0  0  0  0  0
    3.1504   -1.3171    1.8337 H   0  0  0  0  0  0  0  0  0  0  0  0
    1.4181   -1.2460    1.9296 H   0  0  0  0  0  0  0  0  0  0  0  0
   -3.2833    0.1175   -1.2339 H   0  0  0  0  0  0  0  0  0  0  0  0
    2.3881    1.3236   -1.9090 H   0  0  0  0  0  0  0  0  0  0  0  0
   -1.6511    2.6841   -1.7075 H   0  0  0  0  0  0  0  0  0  0  0  0
    0.5755    2.7055   -2.7800 H   0  0  0  0  0  0  0  0  0  0  0  0
    1.9453   -1.2193   -2.4105 H   0  0  0  0  0  0  0  0  0  0  0  0
    3.4458   -2.1446   -2.4068 H   0  0  0  0  0  0  0  0  0  0  0  0
    2.4893    0.3364    3.5104 H   0  0  0  0  0  0  0  0  0  0  0  0
    1.5777    1.2824    2.3346 H   0  0  0  0  0  0  0  0  0  0  0  0
   -4.8654    0.6344    1.1770 H   0  0  0  0  0  0  0  0  0  0  0  0
   -4.9881    1.4179   -0.2428 H   0  0  0  0  0  0  0  0  0  0  0  0
   -2.1055   -2.8277    0.0659 H   0  0  0  0  0  0  0  0  0  0  0  0
  1 17  1  0  0  0  0
  2 18  1  0  0  0  0
  3 19  1  0  0  0  0
  3 37  1  0  0  0  0
  4 19  2  0  0  0  0
  5  7  1  0  0  0  0
  5 11  1  0  0  0  0
  5 12  1  0  0  0  0
  6 13  1  0  0  0  0
  6 35  1  0  0  0  0
  6 36  1  0  0  0  0
  7 10  1  0  0  0  0
  7 14  2  0  0  0  0
  8  9  1  0  0  0  0
  8 10  2  0  0  0  0
  8 15  1  0  0  0  0
  9 13  1  0  0  0  0
  9 20  1  0  0  0  0
  9 21  1  0  0  0  0
 10 22  1  0  0  0  0
 11 17  1  0  0  0  0
 11 23  1  0  0  0  0
 11 24  1  0  0  0  0
 12 18  1  0  0  0  0
 12 25  1  0  0  0  0
 12 26  1  0  0  0  0
 13 19  1  0  0  0  0
 13 27  1  0  0  0  0
 14 16  1  0  0  0  0
 14 28  1  0  0  0  0
 15 16  2  0  0  0  0
 15 29  1  0  0  0  0
 16 30  1  0  0  0  0
 17 31  1  0  0  0  0
 17 32  1  0  0  0  0
 18 33  1  0  0  0  0
 18 34  1  0  0  0  0
M  END
> <PUBCHEM_COMPOUND_CID>
14152

> <PUBCHEM_CONFORMER_RMSD>
0.8

> <PUBCHEM_CONFORMER_DIVERSEORDER>
1
344
4
304
214
162
219
77
256
243
230
36
279
82
152
293
343
276
151
105
330
249
205
213
52
241
87
345
237
69
111
198
271
179
314
48
134
227
114
203
135
27
5
137
319
57
81
245
282
194
305
59
106
153
187
334
126
259
182
43
327
21
335
294
342
115
311
285
247
118
275
75
204
236
62
307
209
166
70
139
218
312
242
208
103
297
261
226
42
41
287
117
67
324
298
288
350
148
310
338
296
322
302
24
221
270
104
240
225
34
278
175
250
94
53
323
191
290
133
195
303
232
68
47
46
110
169
154
63
336
315
84
71
26
277
86
217
308
130
25
269
150
37
325
109
79
212
189
262
102
132
255
280
93
35
131
158
337
99
128
234
223
263
274
244
101
157
192
206
260
180
149
113
273
318
332
80
251
38
215
292
23
188
257
74
160
85
340
147
172
185
326
22
97
253
193
238
220
329
239
231
122
136
98
116
89
171
210
56
76
190
129
112
346
91
170
211
32
199
10
142
224
144
341
289
49
295
202
83
51
229
164
316
301
197
267
66
283
177
140
222
309
127
299
121
60
45
95
19
58
300
161
268
15
233
88
12
291
347
173
125
184
146
31
72
78
176
248
272
286
11
92
156
120
28
143
200
65
107
163
165
29
207
235
33
186
333
178
44
320
159
96
73
40
317
181
50
167
281
306
328
145
141
39
246
196
3
100
64
9
265
8
228
313
18
14
7
174
16
349
321
124
108
201
123
216
6
258
168
55
138
90
119
54
339
2
155
331
17
252
266
61
13
348
284
254
183
30
20
264

> <PUBCHEM_MMFF94_PARTIAL_CHARGES>
26
1 -0.29
10 -0.15
11 0.37
12 0.37
13 0.33
14 -0.15
15 -0.15
16 -0.15
17 0.29
18 0.29
19 0.66
2 -0.29
22 0.15
28 0.15
29 0.15
3 -0.65
30 0.15
35 0.36
36 0.36
37 0.5
4 -0.57
5 -0.84
6 -0.99
7 0.1
8 -0.14
9 0.14

> <PUBCHEM_EFFECTIVE_ROTOR_COUNT>
8

> <PUBCHEM_PHARMACOPHORE_FEATURES>
7
1 3 acceptor
1 4 acceptor
1 5 cation
1 6 cation
1 6 donor
3 3 4 19 anion
6 7 8 10 14 15 16 rings

> <PUBCHEM_HEAVY_ATOM_COUNT>
19

> <PUBCHEM_ATOM_DEF_STEREO_COUNT>
0

> <PUBCHEM_ATOM_UDEF_STEREO_COUNT>
1

> <PUBCHEM_BOND_DEF_STEREO_COUNT>
0

> <PUBCHEM_BOND_UDEF_STEREO_COUNT>
0

> <PUBCHEM_ISOTOPIC_ATOM_COUNT>
0

> <PUBCHEM_COMPONENT_COUNT>
1

> <PUBCHEM_CACTVS_TAUTO_COUNT>
1

> <PUBCHEM_CONFORMER_ID>
0000374800000001

> <PUBCHEM_MMFF94_ENERGY>
50.024

> <PUBCHEM_FEATURE_SELFOVERLAP>
35.579

> <PUBCHEM_SHAPE_FINGERPRINT>
10366900 7 17894917346866536976
12202030 40 18047758384117255870
12403259 327 17095509717506316387
12553582 1 17775003509593506113
12633257 1 16443334403885874111
12670545 2 17703517678961219487
13083527 12 17558851506389634196
13533116 47 17967809501011928283
13583140 156 17458917036332925593
14022347 108 17773582996405033233
14178342 30 18201728404497210273
14251745 187 18268135621175740662
14289901 80 17603596230802565641
16752209 62 17701825607780856437
16945 1 17986680461343812413
20600515 1 17845664642080744184
20645477 70 18057594374995821623
20671657 1 5328748474001557844
21731516 1 17632579370137490549
21756936 100 16881911837343871152
22112679 90 17202770452350340708
2255824 54 17130697293202940341
232386 152 17632588161882746128
23557571 272 18200319943245530052
23559900 14 18335135418728610484
23598288 3 16485291879170787637
31174 14 17676777581669334172
314173 41 17988910168304240581
474 4 4750886926941517453
5902787 121 17775005639818176705
603831 33 16773507880198490756
6338986 31 17274276022673172089
7364860 26 18268133280286624453
81228 2 18128256877356021853

> <PUBCHEM_SHAPE_MULTIPOLES>
373.05
6.95
2.69
2.12
5
1.79
0.32
1.04
3.09
-1.16
-0.87
-1.77
-0.76
2.16

> <PUBCHEM_SHAPE_SELFOVERLAP>
736.288

> <PUBCHEM_SHAPE_VOLUME>
224.1

> <PUBCHEM_COORDINATE_TYPE>
2
5
10

$$$$

