5979
  -OEChem-06261201013D

 47 53  0     1  0  0  0  0  0999 V2000
    2.9214   -2.1885   -0.0211 O   0  0  0  0  0  0  0  0  0  0  0  0
   -1.7168   -3.4540    0.4792 O   0  0  0  0  0  0  0  0  0  0  0  0
    1.1214    2.7606    0.2756 N   0  0  1  0  0  0  0  0  0  0  0  0
   -1.1516   -1.3153   -0.2233 N   0  0  0  0  0  0  0  0  0  0  0  0
   -0.4710    0.9627   -0.1353 C   0  0  2  0  0  0  0  0  0  0  0  0
   -0.2092   -0.3888   -0.8271 C   0  0  1  0  0  0  0  0  0  0  0  0
    0.3544    2.0891   -0.8192 C   0  0  2  0  0  0  0  0  0  0  0  0
    1.2242   -0.8343   -0.9733 C   0  0  1  0  0  0  0  0  0  0  0  0
    2.1631    0.3706   -1.1980 C   0  0  1  0  0  0  0  0  0  0  0  0
    1.3493    1.5192   -1.8599 C   0  0  0  0  0  0  0  0  0  0  0  0
   -0.1031    1.0719    1.3642 C   0  0  0  0  0  0  0  0  0  0  0  0
   -1.9893    0.8288   -0.1604 C   0  0  0  0  0  0  0  0  0  0  0  0
    0.3733    2.5011    1.5063 C   0  0  0  0  0  0  0  0  0  0  0  0
    1.5497   -1.8397    0.1218 C   0  0  1  0  0  0  0  0  0  0  0  0
    2.8115    0.8716    0.0696 C   0  0  0  0  0  0  0  0  0  0  0  0
    2.5416    2.3352    0.3784 C   0  0  0  0  0  0  0  0  0  0  0  0
   -2.3288   -0.5539   -0.0588 C   0  0  0  0  0  0  0  0  0  0  0  0
    0.5939   -3.0337   -0.0620 C   0  0  0  0  0  0  0  0  0  0  0  0
   -0.8862   -2.6331    0.0923 C   0  0  0  0  0  0  0  0  0  0  0  0
    3.5460    0.0901    0.8849 C   0  0  0  0  0  0  0  0  0  0  0  0
   -2.9641    1.8044   -0.0978 C   0  0  0  0  0  0  0  0  0  0  0  0
    3.7917   -1.4028    0.8064 C   0  0  0  0  0  0  0  0  0  0  0  0
   -3.6254   -0.9695    0.1577 C   0  0  0  0  0  0  0  0  0  0  0  0
   -4.2860    1.3872    0.0817 C   0  0  0  0  0  0  0  0  0  0  0  0
   -4.6100    0.0212    0.2180 C   0  0  0  0  0  0  0  0  0  0  0  0
   -0.5740   -0.3080   -1.8696 H   0  0  0  0  0  0  0  0  0  0  0  0
   -0.3042    2.8255   -1.2925 H   0  0  0  0  0  0  0  0  0  0  0  0
    1.2834   -1.3954   -1.9212 H   0  0  0  0  0  0  0  0  0  0  0  0
    2.9610    0.0787   -1.8941 H   0  0  0  0  0  0  0  0  0  0  0  0
    2.0169    2.3087   -2.2297 H   0  0  0  0  0  0  0  0  0  0  0  0
    0.8177    1.1558   -2.7481 H   0  0  0  0  0  0  0  0  0  0  0  0
    0.6962    0.3919    1.6544 H   0  0  0  0  0  0  0  0  0  0  0  0
   -0.9324    0.8831    2.0567 H   0  0  0  0  0  0  0  0  0  0  0  0
   -0.4839    3.1841    1.5537 H   0  0  0  0  0  0  0  0  0  0  0  0
    0.9562    2.6607    2.4196 H   0  0  0  0  0  0  0  0  0  0  0  0
    1.3711   -1.4559    1.1310 H   0  0  0  0  0  0  0  0  0  0  0  0
    2.9443    2.6162    1.3601 H   0  0  0  0  0  0  0  0  0  0  0  0
    3.1196    2.9393   -0.3338 H   0  0  0  0  0  0  0  0  0  0  0  0
    0.8261   -3.7960    0.6911 H   0  0  0  0  0  0  0  0  0  0  0  0
    0.7302   -3.5070   -1.0413 H   0  0  0  0  0  0  0  0  0  0  0  0
    3.9947    0.5576    1.7606 H   0  0  0  0  0  0  0  0  0  0  0  0
   -2.7173    2.8587   -0.1457 H   0  0  0  0  0  0  0  0  0  0  0  0
    4.8173   -1.5792    0.4662 H   0  0  0  0  0  0  0  0  0  0  0  0
    3.7187   -1.8143    1.8204 H   0  0  0  0  0  0  0  0  0  0  0  0
   -3.8947   -2.0148    0.2460 H   0  0  0  0  0  0  0  0  0  0  0  0
   -5.0784    2.1293    0.1412 H   0  0  0  0  0  0  0  0  0  0  0  0
   -5.6481   -0.2648    0.3698 H   0  0  0  0  0  0  0  0  0  0  0  0
  1 14  1  0  0  0  0
  1 22  1  0  0  0  0
  2 19  2  0  0  0  0
  3  7  1  0  0  0  0
  3 13  1  0  0  0  0
  3 16  1  0  0  0  0
  4  6  1  0  0  0  0
  4 17  1  0  0  0  0
  4 19  1  0  0  0  0
  5  6  1  0  0  0  0
  5  7  1  0  0  0  0
  5 11  1  0  0  0  0
  5 12  1  0  0  0  0
  6  8  1  0  0  0  0
  6 26  1  0  0  0  0
  7 10  1  0  0  0  0
  7 27  1  0  0  0  0
  8  9  1  0  0  0  0
  8 14  1  0  0  0  0
  8 28  1  0  0  0  0
  9 10  1  0  0  0  0
  9 15  1  0  0  0  0
  9 29  1  0  0  0  0
 10 30  1  0  0  0  0
 10 31  1  0  0  0  0
 11 13  1  0  0  0  0
 11 32  1  0  0  0  0
 11 33  1  0  0  0  0
 12 17  1  0  0  0  0
 12 21  2  0  0  0  0
 13 34  1  0  0  0  0
 13 35  1  0  0  0  0
 14 18  1  0  0  0  0
 14 36  1  0  0  0  0
 15 16  1  0  0  0  0
 15 20  2  0  0  0  0
 16 37  1  0  0  0  0
 16 38  1  0  0  0  0
 17 23  2  0  0  0  0
 18 19  1  0  0  0  0
 18 39  1  0  0  0  0
 18 40  1  0  0  0  0
 20 22  1  0  0  0  0
 20 41  1  0  0  0  0
 21 24  1  0  0  0  0
 21 42  1  0  0  0  0
 22 43  1  0  0  0  0
 22 44  1  0  0  0  0
 23 25  1  0  0  0  0
 23 45  1  0  0  0  0
 24 25  2  0  0  0  0
 24 46  1  0  0  0  0
 25 47  1  0  0  0  0
M  END
> <PUBCHEM_COMPOUND_CID>
5979

> <PUBCHEM_CONFORMER_RMSD>
0.6

> <PUBCHEM_CONFORMER_DIVERSEORDER>
1

> <PUBCHEM_MMFF94_PARTIAL_CHARGES>
27
1 -0.56
12 -0.14
13 0.27
14 0.28
15 -0.28
16 0.41
17 0.12
18 0.06
19 0.57
2 -0.57
20 -0.29
21 -0.15
22 0.42
23 -0.15
24 -0.15
25 -0.15
3 -0.81
4 -0.48
41 0.15
42 0.15
45 0.15
46 0.15
47 0.15
5 0.14
6 0.3
7 0.27
9 0.14

> <PUBCHEM_EFFECTIVE_ROTOR_COUNT>
1.4

> <PUBCHEM_PHARMACOPHORE_FEATURES>
10
1 1 acceptor
1 2 acceptor
1 3 cation
5 3 5 7 11 13 rings
5 4 5 6 12 17 rings
6 12 17 21 23 24 25 rings
6 3 7 9 10 15 16 rings
6 4 6 8 14 18 19 rings
6 5 6 7 8 9 10 rings
7 1 8 9 14 15 20 22 rings

> <PUBCHEM_HEAVY_ATOM_COUNT>
25

> <PUBCHEM_ATOM_DEF_STEREO_COUNT>
4

> <PUBCHEM_ATOM_UDEF_STEREO_COUNT>
2

> <PUBCHEM_BOND_DEF_STEREO_COUNT>
0

> <PUBCHEM_BOND_UDEF_STEREO_COUNT>
0

> <PUBCHEM_ISOTOPIC_ATOM_COUNT>
0

> <PUBCHEM_COMPONENT_COUNT>
1

> <PUBCHEM_CACTVS_TAUTO_COUNT>
1

> <PUBCHEM_CONFORMER_ID>
0000175B00000001

> <PUBCHEM_MMFF94_ENERGY>
128.6876

> <PUBCHEM_FEATURE_SELFOVERLAP>
52.865

> <PUBCHEM_SHAPE_FINGERPRINT>
10616163 171 18124031221914839819
10759866 29 18057874762981874588
10863032 1 18267870480180871496
10948715 1 18119530942698511976
10967382 1 18410574023901297303
1100329 8 18411140259573648730
11112241 14 16590583050193723184
11370993 70 18410862040313692301
11578080 2 17487927594934118084
12011746 2 18335982077563579582
12035759 4 18126254628301053692
12592029 89 18411973681208440601
12633257 1 18339380594895645978
12788726 201 17822564001776798208
12930653 34 17758690944588719888
13132413 78 18262806297016225053
13140716 1 18049720720294012787
14178342 30 17980773635971490216
14223421 5 18048594824354966191
14787075 74 18187377527091350825
14790565 3 18052816954071545284
16945 1 18339917100229003821
1813 80 17275110565432006764
19591789 44 18411138009348122803
20028762 73 18260271833016553447
20600515 1 18412261757481300460
20691752 17 17632580448548795647
20905425 154 17903627489166929822
21421861 104 18190159347597900833
23184049 59 18341618156407545254
2334 1 18338510941058708511
23419403 2 18122936327736071156
23558518 356 17983580706316303875
23559900 14 18187634817745625668
2748010 2 18268422615285335455
335352 9 18338517546507367959
350125 39 18267863883290537263
392239 28 18115880752898433426
394222 165 17487874775594993148
484985 159 14538925563811493274
484989 97 18341331085864499143
5104073 3 18411692202163856705
6443956 14 18194962078638189197
7364860 26 18408884074708682295

> <PUBCHEM_SHAPE_MULTIPOLES>
492.79
6.22
3.52
1.16
4.01
1.49
-0.12
-0.04
1
-0.59
0.5
-0.6
-0.53
-0.05

> <PUBCHEM_SHAPE_SELFOVERLAP>
1135.306

> <PUBCHEM_SHAPE_VOLUME>
247.5

> <PUBCHEM_COORDINATE_TYPE>
2
5
10

$$$$

