3886
  -OEChem-06251223442D

 86 92  0     1  0  0  0  0  0999 V2000
    9.5972    1.9337    0.0000 O   0  0  0  0  0  0  0  0  0  0  0  0
    9.6703    0.2974    0.0000 O   0  0  0  0  0  0  0  0  0  0  0  0
    6.3301   -0.8448    0.0000 O   0  0  0  0  0  0  0  0  0  0  0  0
    6.3301    2.8904    0.0000 O   0  0  0  0  0  0  0  0  0  0  0  0
   10.0465    2.6388    0.0000 O   0  0  0  0  0  0  0  0  0  0  0  0
   10.4478    3.3483    0.0000 O   0  0  0  0  0  0  0  0  0  0  0  0
    4.5981   -0.8448    0.0000 O   0  0  0  0  0  0  0  0  0  0  0  0
    2.8660   -3.8448    0.0000 O   0  0  0  0  0  0  0  0  0  0  0  0
    5.1348    1.0613    0.0000 N   0  0  3  0  0  0  0  0  0  0  0  0
    3.7320   -2.3448    0.0000 N   0  0  0  0  0  0  0  0  0  0  0  0
    7.0815    1.4566    0.0000 C   0  0  3  0  0  0  0  0  0  0  0  0
    7.7598    1.9975    0.0000 C   0  0  3  0  0  0  0  0  0  0  0  0
    6.0795    1.3505    0.0000 C   0  0  3  0  0  0  0  0  0  0  0  0
    7.0815    0.5890    0.0000 C   0  0  3  0  0  0  0  0  0  0  0  0
    8.6056    0.2411    0.0000 C   0  0  3  0  0  0  0  0  0  0  0  0
    8.6056    1.8044    0.0000 C   0  0  3  0  0  0  0  0  0  0  0  0
    8.9820    1.0228    0.0000 C   0  0  3  0  0  0  0  0  0  0  0  0
    7.7598    0.0481    0.0000 C   0  0  0  0  0  0  0  0  0  0  0  0
    6.3301    0.1552    0.0000 C   0  0  3  0  0  0  0  0  0  0  0  0
    6.3301    1.8904    0.0000 C   0  0  3  0  0  0  0  0  0  0  0  0
    7.6820    2.8616    0.0000 C   0  0  0  0  0  0  0  0  0  0  0  0
    8.4797    3.2026    0.0000 C   0  0  3  0  0  0  0  0  0  0  0  0
    9.0506    2.5492    0.0000 C   0  0  3  0  0  0  0  0  0  0  0  0
    9.6269    1.2927    0.0000 C   0  0  0  0  0  0  0  0  0  0  0  0
    5.1348    0.3094    0.0000 C   0  0  0  0  0  0  0  0  0  0  0  0
    9.6269    2.7772    0.0000 C   0  0  3  0  0  0  0  0  0  0  0  0
    5.5788    0.5890    0.0000 C   0  0  0  0  0  0  0  0  0  0  0  0
    5.5788    1.4566    0.0000 C   0  0  0  0  0  0  0  0  0  0  0  0
    4.3308    1.6560    0.0000 C   0  0  0  0  0  0  0  0  0  0  0  0
    3.4138    1.2571    0.0000 C   0  0  0  0  0  0  0  0  0  0  0  0
    5.4641    3.3904    0.0000 C   0  0  0  0  0  0  0  0  0  0  0  0
   10.9539    2.2185    0.0000 C   0  0  0  0  0  0  0  0  0  0  0  0
    5.4641   -1.3448    0.0000 C   0  0  0  0  0  0  0  0  0  0  0  0
   10.3636    4.3448    0.0000 C   0  0  0  0  0  0  0  0  0  0  0  0
    5.4641   -2.3448    0.0000 C   0  0  0  0  0  0  0  0  0  0  0  0
    4.5981   -2.8448    0.0000 C   0  0  0  0  0  0  0  0  0  0  0  0
    6.3301   -2.8448    0.0000 C   0  0  0  0  0  0  0  0  0  0  0  0
    4.5981   -3.8448    0.0000 C   0  0  0  0  0  0  0  0  0  0  0  0
    6.3301   -3.8448    0.0000 C   0  0  0  0  0  0  0  0  0  0  0  0
    5.4641   -4.3448    0.0000 C   0  0  0  0  0  0  0  0  0  0  0  0
    2.8660   -2.8448    0.0000 C   0  0  0  0  0  0  0  0  0  0  0  0
    2.0000   -2.3448    0.0000 C   0  0  0  0  0  0  0  0  0  0  0  0
    7.1897    2.2412    0.0000 H   0  0  0  0  0  0  0  0  0  0  0  0
    5.9556    1.9580    0.0000 H   0  0  0  0  0  0  0  0  0  0  0  0
    7.0351   -0.0293    0.0000 H   0  0  0  0  0  0  0  0  0  0  0  0
    8.9922   -0.2436    0.0000 H   0  0  0  0  0  0  0  0  0  0  0  0
    7.2750   -0.3385    0.0000 H   0  0  0  0  0  0  0  0  0  0  0  0
    8.0288   -0.5105    0.0000 H   0  0  0  0  0  0  0  0  0  0  0  0
    6.8671    2.2004    0.0000 H   0  0  0  0  0  0  0  0  0  0  0  0
    7.4992    3.4540    0.0000 H   0  0  0  0  0  0  0  0  0  0  0  0
    7.0737    2.7418    0.0000 H   0  0  0  0  0  0  0  0  0  0  0  0
    8.4646    3.8224    0.0000 H   0  0  0  0  0  0  0  0  0  0  0  0
    9.2814    3.1246    0.0000 H   0  0  0  0  0  0  0  0  0  0  0  0
    9.7889    0.6942    0.0000 H   0  0  0  0  0  0  0  0  0  0  0  0
   10.2415    1.3744    0.0000 H   0  0  0  0  0  0  0  0  0  0  0  0
    4.5154    0.3360    0.0000 H   0  0  0  0  0  0  0  0  0  0  0  0
    5.0818   -0.3083    0.0000 H   0  0  0  0  0  0  0  0  0  0  0  0
    9.5488    3.3923    0.0000 H   0  0  0  0  0  0  0  0  0  0  0  0
    4.9682    0.6967    0.0000 H   0  0  0  0  0  0  0  0  0  0  0  0
    5.3667    0.0064    0.0000 H   0  0  0  0  0  0  0  0  0  0  0  0
    5.3667    2.0392    0.0000 H   0  0  0  0  0  0  0  0  0  0  0  0
    4.9682    1.3489    0.0000 H   0  0  0  0  0  0  0  0  0  0  0  0
   10.1697    1.6958    0.0000 H   0  0  0  0  0  0  0  0  0  0  0  0
    9.4942   -0.2971    0.0000 H   0  0  0  0  0  0  0  0  0  0  0  0
    4.7805    2.0829    0.0000 H   0  0  0  0  0  0  0  0  0  0  0  0
    3.9885    2.1730    0.0000 H   0  0  0  0  0  0  0  0  0  0  0  0
    3.1665    1.8256    0.0000 H   0  0  0  0  0  0  0  0  0  0  0  0
    2.8453    1.0098    0.0000 H   0  0  0  0  0  0  0  0  0  0  0  0
    3.6612    0.6886    0.0000 H   0  0  0  0  0  0  0  0  0  0  0  0
    5.7741    3.9273    0.0000 H   0  0  0  0  0  0  0  0  0  0  0  0
    4.9272    3.7004    0.0000 H   0  0  0  0  0  0  0  0  0  0  0  0
    5.1541    2.8534    0.0000 H   0  0  0  0  0  0  0  0  0  0  0  0
   10.6933    1.6559    0.0000 H   0  0  0  0  0  0  0  0  0  0  0  0
   11.5165    1.9579    0.0000 H   0  0  0  0  0  0  0  0  0  0  0  0
   11.2145    2.7811    0.0000 H   0  0  0  0  0  0  0  0  0  0  0  0
   10.9814    4.3970    0.0000 H   0  0  0  0  0  0  0  0  0  0  0  0
   10.3114    4.9626    0.0000 H   0  0  0  0  0  0  0  0  0  0  0  0
    9.7458    4.2926    0.0000 H   0  0  0  0  0  0  0  0  0  0  0  0
    6.8671   -2.5348    0.0000 H   0  0  0  0  0  0  0  0  0  0  0  0
    4.0611   -4.1548    0.0000 H   0  0  0  0  0  0  0  0  0  0  0  0
    6.8671   -4.1548    0.0000 H   0  0  0  0  0  0  0  0  0  0  0  0
    3.7320   -1.7248    0.0000 H   0  0  0  0  0  0  0  0  0  0  0  0
    5.4641   -4.9648    0.0000 H   0  0  0  0  0  0  0  0  0  0  0  0
    2.3100   -1.8079    0.0000 H   0  0  0  0  0  0  0  0  0  0  0  0
    1.4631   -2.0348    0.0000 H   0  0  0  0  0  0  0  0  0  0  0  0
    1.6900   -2.8817    0.0000 H   0  0  0  0  0  0  0  0  0  0  0  0
  1 16  1  0  0  0  0
  1 63  1  0  0  0  0
  2 17  1  0  0  0  0
  2 64  1  0  0  0  0
  3 19  1  0  0  0  0
  3 33  1  0  0  0  0
  4 20  1  0  0  0  0
  4 31  1  0  0  0  0
  5 23  1  0  0  0  0
  5 32  1  0  0  0  0
  6 26  1  0  0  0  0
  6 34  1  0  0  0  0
  7 33  2  0  0  0  0
  8 41  2  0  0  0  0
  9 13  1  0  0  0  0
  9 25  1  0  0  0  0
  9 29  1  0  0  0  0
 10 36  1  0  0  0  0
 10 41  1  0  0  0  0
 10 82  1  0  0  0  0
 11 12  1  0  0  0  0
 11 13  1  0  0  0  0
 11 14  1  0  0  0  0
 11 20  1  0  0  0  0
 12 16  1  0  0  0  0
 12 21  1  0  0  0  0
 12 43  1  0  0  0  0
 13 15  1  0  0  0  0
 13 44  1  0  0  0  0
 14 18  1  0  0  0  0
 14 19  1  0  0  0  0
 14 45  1  0  0  0  0
 15 17  1  0  0  0  0
 15 18  1  0  0  0  0
 15 46  1  0  0  0  0
 16 17  1  0  0  0  0
 16 23  1  0  0  0  0
 17 24  1  0  0  0  0
 18 47  1  0  0  0  0
 18 48  1  0  0  0  0
 19 25  1  0  0  0  0
 19 27  1  0  0  0  0
 20 28  1  0  0  0  0
 20 49  1  0  0  0  0
 21 22  1  0  0  0  0
 21 50  1  0  0  0  0
 21 51  1  0  0  0  0
 22 23  1  0  0  0  0
 22 26  1  0  0  0  0
 22 52  1  0  0  0  0
 23 53  1  0  0  0  0
 24 26  1  0  0  0  0
 24 54  1  0  0  0  0
 24 55  1  0  0  0  0
 25 56  1  0  0  0  0
 25 57  1  0  0  0  0
 26 58  1  0  0  0  0
 27 28  1  0  0  0  0
 27 59  1  0  0  0  0
 27 60  1  0  0  0  0
 28 61  1  0  0  0  0
 28 62  1  0  0  0  0
 29 30  1  0  0  0  0
 29 65  1  0  0  0  0
 29 66  1  0  0  0  0
 30 67  1  0  0  0  0
 30 68  1  0  0  0  0
 30 69  1  0  0  0  0
 31 70  1  0  0  0  0
 31 71  1  0  0  0  0
 31 72  1  0  0  0  0
 32 73  1  0  0  0  0
 32 74  1  0  0  0  0
 32 75  1  0  0  0  0
 33 35  1  0  0  0  0
 34 76  1  0  0  0  0
 34 77  1  0  0  0  0
 34 78  1  0  0  0  0
 35 36  1  0  0  0  0
 35 37  2  0  0  0  0
 36 38  2  0  0  0  0
 37 39  1  0  0  0  0
 37 79  1  0  0  0  0
 38 40  1  0  0  0  0
 38 80  1  0  0  0  0
 39 40  2  0  0  0  0
 39 81  1  0  0  0  0
 40 83  1  0  0  0  0
 41 42  1  0  0  0  0
 42 84  1  0  0  0  0
 42 85  1  0  0  0  0
 42 86  1  0  0  0  0
M  END
> <PUBCHEM_COMPOUND_CID>
3886

> <PUBCHEM_COMPOUND_CANONICALIZED>
1

> <PUBCHEM_CACTVS_COMPLEXITY>
1120

> <PUBCHEM_CACTVS_HBOND_ACCEPTOR>
9

> <PUBCHEM_CACTVS_HBOND_DONOR>
3

> <PUBCHEM_CACTVS_ROTATABLE_BOND>
8

> <PUBCHEM_CACTVS_SUBSKEYS>
AAADcfB/PAAAAAAAAAAAAAAAAAAAAYMAAAA8YMGCB4gWAGABAAAAHgAQCAAAD3zhmAYyyIPABgCIAiXSWACCAAAlAgAIiAEIbMgLJjrAtZmHcYhn1AHb6cf4+P+PgAAAAAACAADSgAaUADSAAaAADSAAAA==

> <PUBCHEM_IUPAC_INCHI>
InChI=1S/C32H44N2O8/c1-6-34-16-29(42-28(36)18-9-7-8-10-21(18)33-17(2)35)12-11-25(40-4)31-23(29)14-20(26(31)34)30(37)15-22(39-3)19-13-24(31)32(30,38)27(19)41-5/h7-10,19-20,22-27,37-38H,6,11-16H2,1-5H3,(H,33,35)

> <PUBCHEM_IUPAC_INCHIKEY>
NWBWCXBPKTTZNQ-UHFFFAOYSA-N

> <PUBCHEM_XLOGP3_AA>
1.6

> <PUBCHEM_EXACT_MASS>
584.309766

> <PUBCHEM_MOLECULAR_FORMULA>
C32H44N2O8

> <PUBCHEM_MOLECULAR_WEIGHT>
584.70036

> <PUBCHEM_OPENEYE_CAN_SMILES>
CCN1CC2(CCC(C34C2CC(C31)C5(CC(C6CC4C5(C6OC)O)OC)O)OC)OC(=O)C7=CC=CC=C7NC(=O)C

> <PUBCHEM_OPENEYE_ISO_SMILES>
CCN1CC2(CCC(C34C2CC(C31)C5(CC(C6CC4C5(C6OC)O)OC)O)OC)OC(=O)C7=CC=CC=C7NC(=O)C

> <PUBCHEM_CACTVS_TPSA>
127

> <PUBCHEM_MONOISOTOPIC_WEIGHT>
584.309766

> <PUBCHEM_TOTAL_CHARGE>
0

> <PUBCHEM_HEAVY_ATOM_COUNT>
42

> <PUBCHEM_ATOM_DEF_STEREO_COUNT>
0

> <PUBCHEM_ATOM_UDEF_STEREO_COUNT>
12

> <PUBCHEM_BOND_DEF_STEREO_COUNT>
0

> <PUBCHEM_BOND_UDEF_STEREO_COUNT>
0

> <PUBCHEM_ISOTOPIC_ATOM_COUNT>
0

> <PUBCHEM_COMPONENT_COUNT>
1

> <PUBCHEM_CACTVS_TAUTO_COUNT>
9

> <PUBCHEM_COORDINATE_TYPE>
1
5
255

> <PUBCHEM_BONDANNOTATIONS>
16  1  3
11  20  3
12  21  3
14  18  3
15  18  3
17  2  3
22  21  3
19  3  3
35  36  8
35  37  8
36  38  8
37  39  8
38  40  8
39  40  8
20  4  3
23  5  3
26  6  3
13  9  3

$$$$

