13942
  -OEChem-06241222412D

 46 47  0     0  0  0  0  0  0999 V2000
    4.8660   -0.1340    0.0000 O   0  0  0  0  0  0  0  0  0  0  0  0
    3.1340   -0.1340    0.0000 O   0  0  0  0  0  0  0  0  0  0  0  0
    2.5000    2.2320    0.0000 O   0  0  0  0  0  0  0  0  0  0  0  0
    5.5000    2.2320    0.0000 N   0  3  0  0  0  0  0  0  0  0  0  0
    4.0000    1.3660    0.0000 C   0  0  0  0  0  0  0  0  0  0  0  0
    4.5000    2.2320    0.0000 C   0  0  0  0  0  0  0  0  0  0  0  0
    4.8660    0.8660    0.0000 C   0  0  0  0  0  0  0  0  0  0  0  0
    3.1340    0.8660    0.0000 C   0  0  0  0  0  0  0  0  0  0  0  0
    3.5000    2.2320    0.0000 C   0  0  0  0  0  0  0  0  0  0  0  0
    4.0000   -0.6340    0.0000 C   0  0  0  0  0  0  0  0  0  0  0  0
    6.5000    2.2320    0.0000 C   0  0  0  0  0  0  0  0  0  0  0  0
    5.5000    3.2320    0.0000 C   0  0  0  0  0  0  0  0  0  0  0  0
    5.5000    1.2320    0.0000 C   0  0  0  0  0  0  0  0  0  0  0  0
    3.5000   -1.5000    0.0000 C   0  0  0  0  0  0  0  0  0  0  0  0
    4.5000   -1.5000    0.0000 C   0  0  0  0  0  0  0  0  0  0  0  0
    2.5000   -1.5000    0.0000 C   0  0  0  0  0  0  0  0  0  0  0  0
    4.0000   -2.3660    0.0000 C   0  0  0  0  0  0  0  0  0  0  0  0
    2.0000   -2.3660    0.0000 C   0  0  0  0  0  0  0  0  0  0  0  0
    3.5000   -3.2320    0.0000 C   0  0  0  0  0  0  0  0  0  0  0  0
    2.5000   -3.2320    0.0000 C   0  0  0  0  0  0  0  0  0  0  0  0
    4.6077    2.8426    0.0000 H   0  0  0  0  0  0  0  0  0  0  0  0
    3.9174    2.4441    0.0000 H   0  0  0  0  0  0  0  0  0  0  0  0
    5.4766    0.7584    0.0000 H   0  0  0  0  0  0  0  0  0  0  0  0
    5.0781    1.4486    0.0000 H   0  0  0  0  0  0  0  0  0  0  0  0
    2.9219    1.4486    0.0000 H   0  0  0  0  0  0  0  0  0  0  0  0
    2.5234    0.7584    0.0000 H   0  0  0  0  0  0  0  0  0  0  0  0
    4.0826    2.4441    0.0000 H   0  0  0  0  0  0  0  0  0  0  0  0
    3.3923    2.8426    0.0000 H   0  0  0  0  0  0  0  0  0  0  0  0
    6.5000    1.6120    0.0000 H   0  0  0  0  0  0  0  0  0  0  0  0
    7.1200    2.2320    0.0000 H   0  0  0  0  0  0  0  0  0  0  0  0
    6.5000    2.8521    0.0000 H   0  0  0  0  0  0  0  0  0  0  0  0
    6.1200    3.2320    0.0000 H   0  0  0  0  0  0  0  0  0  0  0  0
    5.5000    3.8520    0.0000 H   0  0  0  0  0  0  0  0  0  0  0  0
    4.8800    3.2320    0.0000 H   0  0  0  0  0  0  0  0  0  0  0  0
    4.8800    1.2320    0.0000 H   0  0  0  0  0  0  0  0  0  0  0  0
    5.5000    0.6121    0.0000 H   0  0  0  0  0  0  0  0  0  0  0  0
    6.1200    1.2320    0.0000 H   0  0  0  0  0  0  0  0  0  0  0  0
    3.9631   -1.8100    0.0000 H   0  0  0  0  0  0  0  0  0  0  0  0
    4.8100   -2.0369    0.0000 H   0  0  0  0  0  0  0  0  0  0  0  0
    5.0369   -1.1900    0.0000 H   0  0  0  0  0  0  0  0  0  0  0  0
    2.1900    2.7690    0.0000 H   0  0  0  0  0  0  0  0  0  0  0  0
    2.1900   -0.9631    0.0000 H   0  0  0  0  0  0  0  0  0  0  0  0
    4.6200   -2.3660    0.0000 H   0  0  0  0  0  0  0  0  0  0  0  0
    1.3800   -2.3660    0.0000 H   0  0  0  0  0  0  0  0  0  0  0  0
    3.8100   -3.7690    0.0000 H   0  0  0  0  0  0  0  0  0  0  0  0
    2.1900   -3.7690    0.0000 H   0  0  0  0  0  0  0  0  0  0  0  0
  1  7  1  0  0  0  0
  1 10  1  0  0  0  0
  2  8  1  0  0  0  0
  2 10  1  0  0  0  0
  3  9  1  0  0  0  0
  3 41  1  0  0  0  0
  4  6  1  0  0  0  0
  4 11  1  0  0  0  0
  4 12  1  0  0  0  0
  4 13  1  0  0  0  0
  5  6  1  0  0  0  0
  5  7  1  0  0  0  0
  5  8  1  0  0  0  0
  5  9  1  0  0  0  0
  6 21  1  0  0  0  0
  6 22  1  0  0  0  0
  7 23  1  0  0  0  0
  7 24  1  0  0  0  0
  8 25  1  0  0  0  0
  8 26  1  0  0  0  0
  9 27  1  0  0  0  0
  9 28  1  0  0  0  0
 10 14  1  0  0  0  0
 10 15  1  0  0  0  0
 11 29  1  0  0  0  0
 11 30  1  0  0  0  0
 11 31  1  0  0  0  0
 12 32  1  0  0  0  0
 12 33  1  0  0  0  0
 12 34  1  0  0  0  0
 13 35  1  0  0  0  0
 13 36  1  0  0  0  0
 13 37  1  0  0  0  0
 14 16  2  0  0  0  0
 14 17  1  0  0  0  0
 15 38  1  0  0  0  0
 15 39  1  0  0  0  0
 15 40  1  0  0  0  0
 16 18  1  0  0  0  0
 16 42  1  0  0  0  0
 17 19  2  0  0  0  0
 17 43  1  0  0  0  0
 18 20  2  0  0  0  0
 18 44  1  0  0  0  0
 19 20  1  0  0  0  0
 19 45  1  0  0  0  0
 20 46  1  0  0  0  0
M  CHG  1   4   1
M  END
> <PUBCHEM_COMPOUND_CID>
13942

> <PUBCHEM_COMPOUND_CANONICALIZED>
1

> <PUBCHEM_CACTVS_COMPLEXITY>
310

> <PUBCHEM_CACTVS_HBOND_ACCEPTOR>
3

> <PUBCHEM_CACTVS_HBOND_DONOR>
1

> <PUBCHEM_CACTVS_ROTATABLE_BOND>
4

> <PUBCHEM_CACTVS_SUBSKEYS>
AAADceB6MAAAAAAAAAAAAAAAAAAAAAAAAAA0QAAAAAAAAAABAAAAHgAACAAADgThmAYyCIMABgCAAiBCAAACAAAgAAAIiAAICIgYNiKAMRimcAAnwAEMqAeAwKAOAAAAAAAAAAAAAAAAAAAAAAAAAAAAAA==

> <PUBCHEM_IUPAC_OPENEYE_NAME>
[5-(hydroxymethyl)-2-methyl-2-phenyl-1,3-dioxan-5-yl]methyl-trimethyl-ammonium

> <PUBCHEM_IUPAC_CAS_NAME>
[5-(hydroxymethyl)-2-methyl-2-phenyl-1,3-dioxan-5-yl]methyl-trimethylammonium

> <PUBCHEM_IUPAC_NAME>
[5-(hydroxymethyl)-2-methyl-2-phenyl-1,3-dioxan-5-yl]methyl-trimethylazanium

> <PUBCHEM_IUPAC_SYSTEMATIC_NAME>
[5-(hydroxymethyl)-2-methyl-2-phenyl-1,3-dioxan-5-yl]methyl-trimethyl-azanium

> <PUBCHEM_IUPAC_TRADITIONAL_NAME>
trimethyl-[(2-methyl-5-methylol-2-phenyl-1,3-dioxan-5-yl)methyl]ammonium

> <PUBCHEM_IUPAC_INCHI>
InChI=1S/C16H26NO3/c1-15(14-8-6-5-7-9-14)19-12-16(11-18,13-20-15)10-17(2,3)4/h5-9,18H,10-13H2,1-4H3/q+1

> <PUBCHEM_IUPAC_INCHIKEY>
WEODCIZMAMHATG-UHFFFAOYSA-N

> <PUBCHEM_XLOGP3_AA>
1

> <PUBCHEM_EXACT_MASS>
280.191269

> <PUBCHEM_MOLECULAR_FORMULA>
C16H26NO3+

> <PUBCHEM_MOLECULAR_WEIGHT>
280.38254

> <PUBCHEM_OPENEYE_CAN_SMILES>
CC1(OCC(CO1)(C[N+](C)(C)C)CO)C2=CC=CC=C2

> <PUBCHEM_OPENEYE_ISO_SMILES>
CC1(OCC(CO1)(C[N+](C)(C)C)CO)C2=CC=CC=C2

> <PUBCHEM_CACTVS_TPSA>
38.7

> <PUBCHEM_MONOISOTOPIC_WEIGHT>
280.191269

> <PUBCHEM_TOTAL_CHARGE>
1

> <PUBCHEM_HEAVY_ATOM_COUNT>
20

> <PUBCHEM_ATOM_DEF_STEREO_COUNT>
0

> <PUBCHEM_ATOM_UDEF_STEREO_COUNT>
0

> <PUBCHEM_BOND_DEF_STEREO_COUNT>
0

> <PUBCHEM_BOND_UDEF_STEREO_COUNT>
0

> <PUBCHEM_ISOTOPIC_ATOM_COUNT>
0

> <PUBCHEM_COMPONENT_COUNT>
1

> <PUBCHEM_CACTVS_TAUTO_COUNT>
1

> <PUBCHEM_COORDINATE_TYPE>
1
5
255

> <PUBCHEM_BONDANNOTATIONS>
14  16  8
14  17  8
16  18  8
17  19  8
18  20  8
19  20  8

$$$$

