13924
  -OEChem-06241222402D

 28 30  0     0  0  0  0  0  0999 V2000
    4.0170   -1.5353    0.0000 O   0  0  0  0  0  0  0  0  0  0  0  0
    4.8830   -1.0353    0.0000 N   0  0  0  0  0  0  0  0  0  0  0  0
    3.9820    0.3986    0.0000 C   0  0  0  0  0  0  0  0  0  0  0  0
    5.7840    0.3986    0.0000 C   0  0  0  0  0  0  0  0  0  0  0  0
    3.7595    1.3735    0.0000 C   0  0  0  0  0  0  0  0  0  0  0  0
    6.0065    1.3735    0.0000 C   0  0  0  0  0  0  0  0  0  0  0  0
    4.8830   -0.0353    0.0000 C   0  0  0  0  0  0  0  0  0  0  0  0
    4.3830    2.1553    0.0000 C   0  0  0  0  0  0  0  0  0  0  0  0
    5.3830    2.1553    0.0000 C   0  0  0  0  0  0  0  0  0  0  0  0
    3.2295   -0.3216    0.0000 C   0  0  0  0  0  0  0  0  0  0  0  0
    6.5365   -0.3216    0.0000 C   0  0  0  0  0  0  0  0  0  0  0  0
    2.7690    1.6958    0.0000 C   0  0  0  0  0  0  0  0  0  0  0  0
    6.9970    1.6958    0.0000 C   0  0  0  0  0  0  0  0  0  0  0  0
    2.2318   -0.0223    0.0000 C   0  0  0  0  0  0  0  0  0  0  0  0
    7.5342   -0.0223    0.0000 C   0  0  0  0  0  0  0  0  0  0  0  0
    7.7660    0.9932    0.0000 C   0  0  0  0  0  0  0  0  0  0  0  0
    2.0000    0.9933    0.0000 C   0  0  0  0  0  0  0  0  0  0  0  0
    4.1140    2.7139    0.0000 H   0  0  0  0  0  0  0  0  0  0  0  0
    5.6520    2.7139    0.0000 H   0  0  0  0  0  0  0  0  0  0  0  0
    3.3744   -0.9244    0.0000 H   0  0  0  0  0  0  0  0  0  0  0  0
    6.3916   -0.9245    0.0000 H   0  0  0  0  0  0  0  0  0  0  0  0
    2.6380    2.3018    0.0000 H   0  0  0  0  0  0  0  0  0  0  0  0
    7.1280    2.3018    0.0000 H   0  0  0  0  0  0  0  0  0  0  0  0
    1.7789   -0.4457    0.0000 H   0  0  0  0  0  0  0  0  0  0  0  0
    7.9871   -0.4458    0.0000 H   0  0  0  0  0  0  0  0  0  0  0  0
    1.4083    1.1783    0.0000 H   0  0  0  0  0  0  0  0  0  0  0  0
    8.3578    1.1782    0.0000 H   0  0  0  0  0  0  0  0  0  0  0  0
    4.0169   -2.1553    0.0000 H   0  0  0  0  0  0  0  0  0  0  0  0
  1  2  1  0  0  0  0
  1 28  1  0  0  0  0
  2  7  2  0  0  0  0
  3  5  1  0  0  0  0
  3  7  1  0  0  0  0
  3 10  2  0  0  0  0
  4  6  1  0  0  0  0
  4  7  1  0  0  0  0
  4 11  2  0  0  0  0
  5  8  1  0  0  0  0
  5 12  2  0  0  0  0
  6  9  1  0  0  0  0
  6 13  2  0  0  0  0
  8  9  2  0  0  0  0
  8 18  1  0  0  0  0
  9 19  1  0  0  0  0
 10 14  1  0  0  0  0
 10 20  1  0  0  0  0
 11 15  1  0  0  0  0
 11 21  1  0  0  0  0
 12 17  1  0  0  0  0
 12 22  1  0  0  0  0
 13 16  1  0  0  0  0
 13 23  1  0  0  0  0
 14 17  2  0  0  0  0
 14 24  1  0  0  0  0
 15 16  2  0  0  0  0
 15 25  1  0  0  0  0
 16 27  1  0  0  0  0
 17 26  1  0  0  0  0
M  END
> <PUBCHEM_COMPOUND_CID>
13924

> <PUBCHEM_COMPOUND_CANONICALIZED>
1

> <PUBCHEM_CACTVS_COMPLEXITY>
306

> <PUBCHEM_CACTVS_HBOND_ACCEPTOR>
2

> <PUBCHEM_CACTVS_HBOND_DONOR>
1

> <PUBCHEM_CACTVS_ROTATABLE_BOND>
0

> <PUBCHEM_CACTVS_SUBSKEYS>
AAADccByIAAAAAAAAAAAAAAAAAAAAAAAAAAwYAAABAAAAAABQAAAHAAECAAADAiBGAAwAIAQAACgAyBiAAACAAAgAAAIiAAgAJgIIKKAERCAIAAggAAIiAcAgMAOgAAAAAAQAAAAAAAAACAAAAAAAAAAAA==

> <PUBCHEM_IUPAC_OPENEYE_NAME>
dibenzo[1,2-a:1',2'-e][7]annulen-11-one oxime

> <PUBCHEM_IUPAC_CAS_NAME>
11-dibenzo[1,2-a:1',2'-e][7]annulenone oxime

> <PUBCHEM_IUPAC_NAME>
N-(dibenzo[1,2-a:1',2'-e][7]annulen-11-ylidene)hydroxylamine

> <PUBCHEM_IUPAC_SYSTEMATIC_NAME>
N-(dibenzo[1,2-a:1',2'-e][7]annulen-11-ylidene)hydroxylamine

> <PUBCHEM_IUPAC_TRADITIONAL_NAME>
dibenzo[1,2-a:1',2'-e]cyclohepten-11-one oxime

> <PUBCHEM_IUPAC_INCHI>
InChI=1S/C15H11NO/c17-16-15-13-7-3-1-5-11(13)9-10-12-6-2-4-8-14(12)15/h1-10,17H

> <PUBCHEM_IUPAC_INCHIKEY>
LRBLEEPNJOPXOB-UHFFFAOYSA-N

> <PUBCHEM_XLOGP3_AA>
4.1

> <PUBCHEM_EXACT_MASS>
221.084064

> <PUBCHEM_MOLECULAR_FORMULA>
C15H11NO

> <PUBCHEM_MOLECULAR_WEIGHT>
221.25394

> <PUBCHEM_OPENEYE_CAN_SMILES>
C1=CC=C2C(=C1)C=CC3=CC=CC=C3C2=NO

> <PUBCHEM_OPENEYE_ISO_SMILES>
C1=CC=C2C(=C1)C=CC3=CC=CC=C3C2=NO

> <PUBCHEM_CACTVS_TPSA>
32.6

> <PUBCHEM_MONOISOTOPIC_WEIGHT>
221.084064

> <PUBCHEM_TOTAL_CHARGE>
0

> <PUBCHEM_HEAVY_ATOM_COUNT>
17

> <PUBCHEM_ATOM_DEF_STEREO_COUNT>
0

> <PUBCHEM_ATOM_UDEF_STEREO_COUNT>
0

> <PUBCHEM_BOND_DEF_STEREO_COUNT>
0

> <PUBCHEM_BOND_UDEF_STEREO_COUNT>
0

> <PUBCHEM_ISOTOPIC_ATOM_COUNT>
0

> <PUBCHEM_COMPONENT_COUNT>
1

> <PUBCHEM_CACTVS_TAUTO_COUNT>
3

> <PUBCHEM_COORDINATE_TYPE>
1
5
255

> <PUBCHEM_BONDANNOTATIONS>
10  14  8
11  15  8
12  17  8
13  16  8
14  17  8
15  16  8
3  10  8
3  5  8
3  7  8
4  11  8
4  6  8
4  7  8
5  12  8
5  8  8
6  13  8
6  9  8
8  9  8

$$$$

