6155
  -OEChem-06261201082D

 56 57  0     0  0  0  0  0  0999 V2000
    6.0966    5.9156    0.0000 Cl  0  5  0  0  0  0  0  0  0  0  0  0
    3.4766   12.3312    0.0000 F   0  0  0  0  0  0  0  0  0  0  0  0
    0.4766    8.8671    0.0000 O   0  0  0  0  0  0  0  0  0  0  0  0
    1.4766    5.4030    0.0000 N   0  3  0  0  0  0  0  0  0  0  0  0
    1.4766    3.4030    0.0000 C   0  0  0  0  0  0  0  0  0  0  0  0
    2.3426    3.9030    0.0000 C   0  0  0  0  0  0  0  0  0  0  0  0
    0.6106    3.9030    0.0000 C   0  0  0  0  0  0  0  0  0  0  0  0
    2.3426    2.9030    0.0000 C   0  0  0  0  0  0  0  0  0  0  0  0
    0.6106    2.9030    0.0000 C   0  0  0  0  0  0  0  0  0  0  0  0
    2.3426    4.9030    0.0000 C   0  0  0  0  0  0  0  0  0  0  0  0
    0.6106    4.9030    0.0000 C   0  0  0  0  0  0  0  0  0  0  0  0
    0.6106    1.9030    0.0000 C   0  0  0  0  0  0  0  0  0  0  0  0
    2.3426    1.9030    0.0000 C   0  0  0  0  0  0  0  0  0  0  0  0
    1.4766    1.4030    0.0000 C   0  0  0  0  0  0  0  0  0  0  0  0
    1.9766    6.2690    0.0000 C   0  0  0  0  0  0  0  0  0  0  0  0
    0.9766    0.5369    0.0000 C   0  0  0  0  0  0  0  0  0  0  0  0
    1.4766    7.1350    0.0000 C   0  0  0  0  0  0  0  0  0  0  0  0
    1.9766    8.0010    0.0000 C   0  0  0  0  0  0  0  0  0  0  0  0
    1.4766    8.8671    0.0000 C   0  0  0  0  0  0  0  0  0  0  0  0
    1.9766    9.7331    0.0000 C   0  0  0  0  0  0  0  0  0  0  0  0
    2.9766    9.7331    0.0000 C   0  0  0  0  0  0  0  0  0  0  0  0
    1.4766   10.5991    0.0000 C   0  0  0  0  0  0  0  0  0  0  0  0
    3.4766   10.5991    0.0000 C   0  0  0  0  0  0  0  0  0  0  0  0
    1.9766   11.4651    0.0000 C   0  0  0  0  0  0  0  0  0  0  0  0
    2.9766   11.4651    0.0000 C   0  0  0  0  0  0  0  0  0  0  0  0
    2.5547    3.3204    0.0000 H   0  0  0  0  0  0  0  0  0  0  0  0
    2.9532    4.0106    0.0000 H   0  0  0  0  0  0  0  0  0  0  0  0
    0.0000    4.0106    0.0000 H   0  0  0  0  0  0  0  0  0  0  0  0
    0.3985    3.3204    0.0000 H   0  0  0  0  0  0  0  0  0  0  0  0
    0.3985    3.4856    0.0000 H   0  0  0  0  0  0  0  0  0  0  0  0
    0.0000    2.7953    0.0000 H   0  0  0  0  0  0  0  0  0  0  0  0
    2.9532    2.7953    0.0000 H   0  0  0  0  0  0  0  0  0  0  0  0
    2.5547    3.4856    0.0000 H   0  0  0  0  0  0  0  0  0  0  0  0
    1.1666    5.9399    0.0000 H   0  0  0  0  0  0  0  0  0  0  0  0
    0.3985    5.4856    0.0000 H   0  0  0  0  0  0  0  0  0  0  0  0
    0.0000    4.7953    0.0000 H   0  0  0  0  0  0  0  0  0  0  0  0
    2.9532    4.7953    0.0000 H   0  0  0  0  0  0  0  0  0  0  0  0
    2.5547    5.4856    0.0000 H   0  0  0  0  0  0  0  0  0  0  0  0
    2.5547    1.3204    0.0000 H   0  0  0  0  0  0  0  0  0  0  0  0
    0.0000    2.0106    0.0000 H   0  0  0  0  0  0  0  0  0  0  0  0
    0.3985    1.3204    0.0000 H   0  0  0  0  0  0  0  0  0  0  0  0
    2.9532    2.0106    0.0000 H   0  0  0  0  0  0  0  0  0  0  0  0
    1.7866    0.8660    0.0000 H   0  0  0  0  0  0  0  0  0  0  0  0
    2.4516    5.8705    0.0000 H   0  0  0  0  0  0  0  0  0  0  0  0
    2.4516    6.6675    0.0000 H   0  0  0  0  0  0  0  0  0  0  0  0
    0.4397    0.8469    0.0000 H   0  0  0  0  0  0  0  0  0  0  0  0
    0.6666    0.0000    0.0000 H   0  0  0  0  0  0  0  0  0  0  0  0
    1.5135    0.2269    0.0000 H   0  0  0  0  0  0  0  0  0  0  0  0
    1.0017    7.5335    0.0000 H   0  0  0  0  0  0  0  0  0  0  0  0
    1.0017    6.7365    0.0000 H   0  0  0  0  0  0  0  0  0  0  0  0
    2.4516    7.6025    0.0000 H   0  0  0  0  0  0  0  0  0  0  0  0
    2.4516    8.3996    0.0000 H   0  0  0  0  0  0  0  0  0  0  0  0
    3.2866    9.1962    0.0000 H   0  0  0  0  0  0  0  0  0  0  0  0
    0.8566   10.5991    0.0000 H   0  0  0  0  0  0  0  0  0  0  0  0
    4.0966   10.5991    0.0000 H   0  0  0  0  0  0  0  0  0  0  0  0
    1.6666   12.0021    0.0000 H   0  0  0  0  0  0  0  0  0  0  0  0
  2 25  1  0  0  0  0
  3 19  2  0  0  0  0
  4 10  1  0  0  0  0
  4 11  1  0  0  0  0
  4 15  1  0  0  0  0
  4 34  1  0  0  0  0
  5  6  1  0  0  0  0
  5  7  1  0  0  0  0
  5  8  1  0  0  0  0
  5  9  1  0  0  0  0
  6 10  1  0  0  0  0
  6 26  1  0  0  0  0
  6 27  1  0  0  0  0
  7 11  1  0  0  0  0
  7 28  1  0  0  0  0
  7 29  1  0  0  0  0
  8 13  1  0  0  0  0
  8 32  1  0  0  0  0
  8 33  1  0  0  0  0
  9 12  1  0  0  0  0
  9 30  1  0  0  0  0
  9 31  1  0  0  0  0
 10 37  1  0  0  0  0
 10 38  1  0  0  0  0
 11 35  1  0  0  0  0
 11 36  1  0  0  0  0
 12 14  1  0  0  0  0
 12 40  1  0  0  0  0
 12 41  1  0  0  0  0
 13 14  1  0  0  0  0
 13 39  1  0  0  0  0
 13 42  1  0  0  0  0
 14 16  1  0  0  0  0
 14 43  1  0  0  0  0
 15 17  1  0  0  0  0
 15 44  1  0  0  0  0
 15 45  1  0  0  0  0
 16 46  1  0  0  0  0
 16 47  1  0  0  0  0
 16 48  1  0  0  0  0
 17 18  1  0  0  0  0
 17 49  1  0  0  0  0
 17 50  1  0  0  0  0
 18 19  1  0  0  0  0
 18 51  1  0  0  0  0
 18 52  1  0  0  0  0
 19 20  1  0  0  0  0
 20 21  2  0  0  0  0
 20 22  1  0  0  0  0
 21 23  1  0  0  0  0
 21 53  1  0  0  0  0
 22 24  2  0  0  0  0
 22 54  1  0  0  0  0
 23 25  2  0  0  0  0
 23 55  1  0  0  0  0
 24 25  1  0  0  0  0
 24 56  1  0  0  0  0
M  CHG  2   1  -1   4   1
M  END
> <PUBCHEM_COMPOUND_CID>
6155

> <PUBCHEM_COMPOUND_CANONICALIZED>
1

> <PUBCHEM_CACTVS_COMPLEXITY>
398

> <PUBCHEM_CACTVS_HBOND_ACCEPTOR>
3

> <PUBCHEM_CACTVS_HBOND_DONOR>
1

> <PUBCHEM_CACTVS_ROTATABLE_BOND>
5

> <PUBCHEM_CACTVS_SUBSKEYS>
AAADceB6IQAEAAAAAAAAAAAAAAAAAAAAAAA8YIAAAAAAAAABAAAAHwAQAAAADwTBmAwyAIPAAACIAqBSAAACAAAkAAAIiIEIAMgIIDKAlRCEIQAgkACIiYcciMCPAAAAAAAAAACAAAAAAAAAAAAAAAAAAA==

> <PUBCHEM_IUPAC_OPENEYE_NAME>
1-(4-fluorophenyl)-4-(9-methyl-3-azoniaspiro[5.5]undecan-3-yl)butan-1-one chloride

> <PUBCHEM_IUPAC_CAS_NAME>
1-(4-fluorophenyl)-4-(9-methyl-3-azoniaspiro[5.5]undecan-3-yl)-1-butanone chloride

> <PUBCHEM_IUPAC_NAME>
1-(4-fluorophenyl)-4-(9-methyl-3-azoniaspiro[5.5]undecan-3-yl)butan-1-one chloride

> <PUBCHEM_IUPAC_SYSTEMATIC_NAME>
1-(4-fluorophenyl)-4-(9-methyl-3-azoniaspiro[5.5]undecan-3-yl)butan-1-one chloride

> <PUBCHEM_IUPAC_TRADITIONAL_NAME>
1-(4-fluorophenyl)-4-(9-methyl-3-azoniaspiro[5.5]undecan-3-yl)butan-1-one chloride

> <PUBCHEM_IUPAC_INCHI>
InChI=1S/C21H30FNO.ClH/c1-17-8-10-21(11-9-17)12-15-23(16-13-21)14-2-3-20(24)18-4-6-19(22)7-5-18;/h4-7,17H,2-3,8-16H2,1H3;1H

> <PUBCHEM_IUPAC_INCHIKEY>
ADPMIFYDMCNJNN-UHFFFAOYSA-N

> <PUBCHEM_EXACT_MASS>
367.207821

> <PUBCHEM_MOLECULAR_FORMULA>
C21H31ClFNO

> <PUBCHEM_MOLECULAR_WEIGHT>
367.928343

> <PUBCHEM_OPENEYE_CAN_SMILES>
CC1CCC2(CC1)CC[NH+](CC2)CCCC(=O)C3=CC=C(C=C3)F.[Cl-]

> <PUBCHEM_OPENEYE_ISO_SMILES>
CC1CCC2(CC1)CC[NH+](CC2)CCCC(=O)C3=CC=C(C=C3)F.[Cl-]

> <PUBCHEM_CACTVS_TPSA>
21.5

> <PUBCHEM_MONOISOTOPIC_WEIGHT>
367.207821

> <PUBCHEM_TOTAL_CHARGE>
0

> <PUBCHEM_HEAVY_ATOM_COUNT>
25

> <PUBCHEM_ATOM_DEF_STEREO_COUNT>
0

> <PUBCHEM_ATOM_UDEF_STEREO_COUNT>
0

> <PUBCHEM_BOND_DEF_STEREO_COUNT>
0

> <PUBCHEM_BOND_UDEF_STEREO_COUNT>
0

> <PUBCHEM_ISOTOPIC_ATOM_COUNT>
0

> <PUBCHEM_COMPONENT_COUNT>
2

> <PUBCHEM_CACTVS_TAUTO_COUNT>
2

> <PUBCHEM_COORDINATE_TYPE>
1
5
255

> <PUBCHEM_BONDANNOTATIONS>
20  21  8
20  22  8
21  23  8
22  24  8
23  25  8
24  25  8

$$$$

