5823
  -OEChem-06261200543D

 25 25  0     0  0  0  0  0  0999 V2000
    2.1082    1.2803   -0.4193 O   0  0  0  0  0  0  0  0  0  0  0  0
   -5.1333   -0.6739    0.2322 O   0  5  0  0  0  0  0  0  0  0  0  0
   -4.7089    1.4738    0.0202 O   0  0  0  0  0  0  0  0  0  0  0  0
    1.1578   -0.8280   -0.1508 N   0  0  0  0  0  0  0  0  0  0  0  0
   -4.3308    0.2806    0.0990 N   0  3  0  0  0  0  0  0  0  0  0  0
    3.4193   -0.6021   -0.3092 N   0  0  0  0  0  0  0  0  0  0  0  0
    5.7063   -0.6176    0.1338 N   0  0  0  0  0  0  0  0  0  0  0  0
    4.5527    1.2694    0.6943 N   0  0  0  0  0  0  0  0  0  0  0  0
   -0.2267   -0.5483   -0.0876 C   0  0  0  0  0  0  0  0  0  0  0  0
   -1.1244   -1.5936    0.0595 C   0  0  0  0  0  0  0  0  0  0  0  0
   -0.6583    0.7655   -0.1741 C   0  0  0  0  0  0  0  0  0  0  0  0
   -2.9403   -0.0003    0.0358 C   0  0  0  0  0  0  0  0  0  0  0  0
   -2.4903   -1.3177    0.1215 C   0  0  0  0  0  0  0  0  0  0  0  0
   -2.0243    1.0413   -0.1118 C   0  0  0  0  0  0  0  0  0  0  0  0
    2.2110    0.0637   -0.2924 C   0  0  0  0  0  0  0  0  0  0  0  0
    4.4819    0.0070    0.1489 C   0  0  0  0  0  0  0  0  0  0  0  0
   -0.7841   -2.6232    0.1270 H   0  0  0  0  0  0  0  0  0  0  0  0
   -0.0139    1.6247   -0.2867 H   0  0  0  0  0  0  0  0  0  0  0  0
   -3.1744   -2.1547    0.2369 H   0  0  0  0  0  0  0  0  0  0  0  0
   -2.3394    2.0796   -0.1812 H   0  0  0  0  0  0  0  0  0  0  0  0
    1.4127   -1.8101   -0.0778 H   0  0  0  0  0  0  0  0  0  0  0  0
    6.5394   -0.1599    0.4872 H   0  0  0  0  0  0  0  0  0  0  0  0
    5.8110   -1.5565   -0.2352 H   0  0  0  0  0  0  0  0  0  0  0  0
    3.7341    1.8603    0.7877 H   0  0  0  0  0  0  0  0  0  0  0  0
    5.4335    1.6496    1.0237 H   0  0  0  0  0  0  0  0  0  0  0  0
  1 15  2  0  0  0  0
  2  5  1  0  0  0  0
  3  5  2  0  0  0  0
  4  9  1  0  0  0  0
  4 15  1  0  0  0  0
  4 21  1  0  0  0  0
  5 12  1  0  0  0  0
  6 15  1  0  0  0  0
  6 16  2  0  0  0  0
  7 16  1  0  0  0  0
  7 22  1  0  0  0  0
  7 23  1  0  0  0  0
  8 16  1  0  0  0  0
  8 24  1  0  0  0  0
  8 25  1  0  0  0  0
  9 10  2  0  0  0  0
  9 11  1  0  0  0  0
 10 13  1  0  0  0  0
 10 17  1  0  0  0  0
 11 14  2  0  0  0  0
 11 18  1  0  0  0  0
 12 13  2  0  0  0  0
 12 14  1  0  0  0  0
 13 19  1  0  0  0  0
 14 20  1  0  0  0  0
M  CHG  2   2  -1   5   1
M  END
> <PUBCHEM_COMPOUND_CID>
5823

> <PUBCHEM_CONFORMER_RMSD>
0.6

> <PUBCHEM_CONFORMER_DIVERSEORDER>
1
8
15
10
16
6
17
7
11
12
4
9
5
3
13
2
14

> <PUBCHEM_MMFF94_PARTIAL_CHARGES>
25
1 -0.57
10 -0.15
11 -0.15
12 0.13
13 -0.15
14 -0.15
15 0.84
16 0.55
17 0.15
18 0.15
19 0.15
2 -0.52
20 0.15
21 0.37
22 0.4
23 0.4
24 0.4
25 0.4
3 -0.52
4 -0.55
5 0.91
6 -0.66
7 -0.85
8 -0.85
9 0.12

> <PUBCHEM_EFFECTIVE_ROTOR_COUNT>
4

> <PUBCHEM_PHARMACOPHORE_FEATURES>
9
1 1 acceptor
1 2 acceptor
1 2 anion
1 3 acceptor
1 4 donor
1 6 donor
1 7 donor
1 8 donor
6 9 10 11 12 13 14 rings

> <PUBCHEM_HEAVY_ATOM_COUNT>
16

> <PUBCHEM_ATOM_DEF_STEREO_COUNT>
0

> <PUBCHEM_ATOM_UDEF_STEREO_COUNT>
0

> <PUBCHEM_BOND_DEF_STEREO_COUNT>
0

> <PUBCHEM_BOND_UDEF_STEREO_COUNT>
0

> <PUBCHEM_ISOTOPIC_ATOM_COUNT>
0

> <PUBCHEM_COMPONENT_COUNT>
1

> <PUBCHEM_CACTVS_TAUTO_COUNT>
5

> <PUBCHEM_CONFORMER_ID>
000016BF00000001

> <PUBCHEM_MMFF94_ENERGY>
54.8693

> <PUBCHEM_FEATURE_SELFOVERLAP>
45.937

> <PUBCHEM_SHAPE_FINGERPRINT>
10014705 185 18335706018144990093
11132069 177 18410852157498758381
11401426 45 18408324389046333519
114248 4 8934999274327088246
12119455 92 17530685415598864006
12236239 1 17775565351498047466
12251169 10 18343582932383968454
13214271 11 18408041801826308039
13380535 76 18410851070851505119
13675066 3 18342735195780960514
14123238 8 18413107255820972598
14943859 89 18113901558985627287
15042514 8 18269269067783409491
15048467 5 14490185042786460515
15196674 1 18411136892345278988
15375358 24 18186517709130454958
17802600 8 18412827984004580124
18522853 276 18408602565309085528
187816 3 5328740768930026951
200 152 17676209073859368343
20279233 1 17968086526012422758
20645477 56 18409728465031136542
20645477 70 17313375790634921326
21267235 1 18341885286156648363
23402539 116 18334020497010955485
23559900 14 18334857217255171630
351380 180 18259706696549335032
3545911 37 18409727370104730254
366044 4 18411136944075043947
42 15 18201720656681942058
4214541 1 18411136935110173189
42788 4 18408040714735176298
5104073 3 18340206289362526674
5374978 207 18409172104174712952
542803 24 16298383556723066394
6430166 295 18341894108267212445
69090 78 18334579031442870071

> <PUBCHEM_SHAPE_MULTIPOLES>
286.76
11.19
1.4
0.63
5.61
0.02
0.01
1.17
1.37
-0.57
0.03
0.15
0.03
0.25

> <PUBCHEM_SHAPE_SELFOVERLAP>
601.638

> <PUBCHEM_SHAPE_VOLUME>
160

> <PUBCHEM_COORDINATE_TYPE>
2
5
10

$$$$

