4161
  -OEChem-06251223563D

 15 15  0     0  0  0  0  0  0999 V2000
    2.6799    1.4148    0.0002 S   0  0  0  0  0  0  0  0  0  0  0  0
   -0.0900   -2.6731   -0.0004 O   0  0  0  0  0  0  0  0  0  0  0  0
    0.0150    1.3039   -0.0006 N   0  0  0  0  0  0  0  0  0  0  0  0
    1.1864   -0.7538    0.0004 N   0  0  0  0  0  0  0  0  0  0  0  0
   -1.2148    0.6920   -0.0001 C   0  0  0  0  0  0  0  0  0  0  0  0
   -1.2865   -0.6490    0.0003 C   0  0  0  0  0  0  0  0  0  0  0  0
   -2.4291    1.5663    0.0002 C   0  0  0  0  0  0  0  0  0  0  0  0
    1.1550    0.5457   -0.0001 C   0  0  0  0  0  0  0  0  0  0  0  0
   -0.0159   -1.4468    0.0001 C   0  0  0  0  0  0  0  0  0  0  0  0
    0.0430    2.3171   -0.0006 H   0  0  0  0  0  0  0  0  0  0  0  0
   -2.2261   -1.1886    0.0007 H   0  0  0  0  0  0  0  0  0  0  0  0
   -2.4376    2.2069    0.8883 H   0  0  0  0  0  0  0  0  0  0  0  0
   -3.3555    0.9823    0.0008 H   0  0  0  0  0  0  0  0  0  0  0  0
   -2.4383    2.2065   -0.8882 H   0  0  0  0  0  0  0  0  0  0  0  0
    2.1705    2.6550   -0.0005 H   0  0  0  0  0  0  0  0  0  0  0  0
  1  8  1  0  0  0  0
  1 15  1  0  0  0  0
  2  9  2  0  0  0  0
  3  5  1  0  0  0  0
  3  8  1  0  0  0  0
  3 10  1  0  0  0  0
  4  8  2  0  0  0  0
  4  9  1  0  0  0  0
  5  6  2  0  0  0  0
  5  7  1  0  0  0  0
  6  9  1  0  0  0  0
  6 11  1  0  0  0  0
  7 12  1  0  0  0  0
  7 13  1  0  0  0  0
  7 14  1  0  0  0  0
M  END
> <PUBCHEM_COMPOUND_CID>
4161

> <PUBCHEM_CONFORMER_RMSD>
0.4

> <PUBCHEM_CONFORMER_DIVERSEORDER>
1

> <PUBCHEM_MMFF94_PARTIAL_CHARGES>
12
1 -0.32
10 0.4
11 0.15
15 0.18
2 -0.57
3 -0.55
4 -0.66
5 -0.04
6 -0.14
7 0.14
8 0.64
9 0.77

> <PUBCHEM_EFFECTIVE_ROTOR_COUNT>
0

> <PUBCHEM_PHARMACOPHORE_FEATURES>
4
1 2 acceptor
1 3 donor
1 4 donor
6 3 4 5 6 8 9 rings

> <PUBCHEM_HEAVY_ATOM_COUNT>
9

> <PUBCHEM_ATOM_DEF_STEREO_COUNT>
0

> <PUBCHEM_ATOM_UDEF_STEREO_COUNT>
0

> <PUBCHEM_BOND_DEF_STEREO_COUNT>
0

> <PUBCHEM_BOND_UDEF_STEREO_COUNT>
0

> <PUBCHEM_ISOTOPIC_ATOM_COUNT>
0

> <PUBCHEM_COMPONENT_COUNT>
1

> <PUBCHEM_CACTVS_TAUTO_COUNT>
6

> <PUBCHEM_CONFORMER_ID>
0000104100000001

> <PUBCHEM_MMFF94_ENERGY>
17.2799

> <PUBCHEM_FEATURE_SELFOVERLAP>
20.334

> <PUBCHEM_SHAPE_FINGERPRINT>
12716758 59 18335977559142088852
16945 1 18122626054786855940
18185500 45 17400923492983170991
20871998 184 17828474774328656934
21040471 1 18410855434527383936
23552423 10 18193278730894645637
23552449 1 17833270818178984972
241688 4 16753249635816996387
2748010 2 18411693300883991653
29004967 10 17764583618201218985

> <PUBCHEM_SHAPE_MULTIPOLES>
173.23
2.98
2.35
0.6
1.75
1.13
0
-1.93
0
-0.97
0
0.02
-0.04
0

> <PUBCHEM_SHAPE_SELFOVERLAP>
344.14

> <PUBCHEM_SHAPE_VOLUME>
105.1

> <PUBCHEM_COORDINATE_TYPE>
2
5
10

$$$$

