17395510
  -OEChem-06241222503D

 37 40  0     0  0  0  0  0  0999 V2000
   -2.4653   -1.1697    0.0233 O   0  0  0  0  0  0  0  0  0  0  0  0
    0.3278    2.3317   -0.0132 O   0  0  0  0  0  0  0  0  0  0  0  0
    1.3821    0.2314    0.0393 N   0  0  0  0  0  0  0  0  0  0  0  0
    3.3860   -1.6857    0.0086 N   0  0  0  0  0  0  0  0  0  0  0  0
   -1.1039   -0.8914    0.0311 N   0  0  0  0  0  0  0  0  0  0  0  0
    2.7337    0.5958    0.0182 C   0  0  0  0  0  0  0  0  0  0  0  0
    3.7242   -0.3824    0.0040 C   0  0  0  0  0  0  0  0  0  0  0  0
    5.0708    0.0371   -0.0152 C   0  0  0  0  0  0  0  0  0  0  0  0
    3.0484    1.9569    0.0138 C   0  0  0  0  0  0  0  0  0  0  0  0
    5.3877    1.4061   -0.0197 C   0  0  0  0  0  0  0  0  0  0  0  0
   -3.1609   -0.0040    0.0065 C   0  0  0  0  0  0  0  0  0  0  0  0
   -1.0236    0.4421    0.0188 C   0  0  0  0  0  0  0  0  0  0  0  0
    4.3769    2.3630   -0.0052 C   0  0  0  0  0  0  0  0  0  0  0  0
   -4.5893   -0.1332   -0.0037 C   0  0  0  0  0  0  0  0  0  0  0  0
    6.0683   -0.9472   -0.0296 C   0  0  0  0  0  0  0  0  0  0  0  0
    0.3069    1.1063    0.0224 C   0  0  0  0  0  0  0  0  0  0  0  0
   -2.2895    1.0528    0.0030 C   0  0  0  0  0  0  0  0  0  0  0  0
    5.7230   -2.2909   -0.0248 C   0  0  0  0  0  0  0  0  0  0  0  0
   -5.3919    1.0075   -0.0213 C   0  0  0  0  0  0  0  0  0  0  0  0
   -5.1760   -1.3987    0.0049 C   0  0  0  0  0  0  0  0  0  0  0  0
    4.3791   -2.6042   -0.0055 C   0  0  0  0  0  0  0  0  0  0  0  0
   -6.7812    0.8827   -0.0302 C   0  0  0  0  0  0  0  0  0  0  0  0
   -6.5653   -1.5234   -0.0041 C   0  0  0  0  0  0  0  0  0  0  0  0
   -7.3678   -0.3826   -0.0216 C   0  0  0  0  0  0  0  0  0  0  0  0
    2.3451    2.7734    0.0341 H   0  0  0  0  0  0  0  0  0  0  0  0
    1.1892   -0.7676    0.0532 H   0  0  0  0  0  0  0  0  0  0  0  0
    6.4245    1.7347   -0.0340 H   0  0  0  0  0  0  0  0  0  0  0  0
    4.6280    3.4195   -0.0064 H   0  0  0  0  0  0  0  0  0  0  0  0
    7.1203   -0.6717   -0.0447 H   0  0  0  0  0  0  0  0  0  0  0  0
   -2.5253    2.1071   -0.0091 H   0  0  0  0  0  0  0  0  0  0  0  0
    6.4812   -3.0650   -0.0357 H   0  0  0  0  0  0  0  0  0  0  0  0
   -4.9644    2.0068   -0.0282 H   0  0  0  0  0  0  0  0  0  0  0  0
   -4.5850   -2.3109    0.0188 H   0  0  0  0  0  0  0  0  0  0  0  0
    4.0491   -3.6378   -0.0009 H   0  0  0  0  0  0  0  0  0  0  0  0
   -7.4064    1.7708   -0.0439 H   0  0  0  0  0  0  0  0  0  0  0  0
   -7.0227   -2.5085    0.0026 H   0  0  0  0  0  0  0  0  0  0  0  0
   -8.4495   -0.4797   -0.0287 H   0  0  0  0  0  0  0  0  0  0  0  0
  1  5  1  0  0  0  0
  1 11  1  0  0  0  0
  2 16  2  0  0  0  0
  3  6  1  0  0  0  0
  3 16  1  0  0  0  0
  3 26  1  0  0  0  0
  4  7  1  0  0  0  0
  4 21  2  0  0  0  0
  5 12  2  0  0  0  0
  6  7  1  0  0  0  0
  6  9  2  0  0  0  0
  7  8  2  0  0  0  0
  8 10  1  0  0  0  0
  8 15  1  0  0  0  0
  9 13  1  0  0  0  0
  9 25  1  0  0  0  0
 10 13  2  0  0  0  0
 10 27  1  0  0  0  0
 11 14  1  0  0  0  0
 11 17  2  0  0  0  0
 12 16  1  0  0  0  0
 12 17  1  0  0  0  0
 13 28  1  0  0  0  0
 14 19  2  0  0  0  0
 14 20  1  0  0  0  0
 15 18  2  0  0  0  0
 15 29  1  0  0  0  0
 17 30  1  0  0  0  0
 18 21  1  0  0  0  0
 18 31  1  0  0  0  0
 19 22  1  0  0  0  0
 19 32  1  0  0  0  0
 20 23  2  0  0  0  0
 20 33  1  0  0  0  0
 21 34  1  0  0  0  0
 22 24  2  0  0  0  0
 22 35  1  0  0  0  0
 23 24  1  0  0  0  0
 23 36  1  0  0  0  0
 24 37  1  0  0  0  0
M  END
> <PUBCHEM_COMPOUND_CID>
17395510

> <PUBCHEM_CONFORMER_RMSD>
0.8

> <PUBCHEM_CONFORMER_DIVERSEORDER>
1
11
2
12
14
4
13
3
16
15
7
10
8
6
5
9
17

> <PUBCHEM_MMFF94_PARTIAL_CHARGES>
36
1 -0.02
10 -0.15
11 0.09
12 0.2
13 -0.15
14 0.05
15 -0.15
16 0.72
17 -0.15
18 -0.15
19 -0.15
2 -0.57
20 -0.15
21 0.16
22 -0.15
23 -0.15
24 -0.15
25 0.15
26 0.37
27 0.15
28 0.15
29 0.15
3 -0.55
30 0.15
31 0.15
32 0.15
33 0.15
34 0.15
35 0.15
36 0.15
37 0.15
4 -0.62
5 -0.41
6 0.12
7 0.31
9 -0.15

> <PUBCHEM_EFFECTIVE_ROTOR_COUNT>
4

> <PUBCHEM_PHARMACOPHORE_FEATURES>
8
1 2 acceptor
1 3 donor
1 4 acceptor
1 5 acceptor
5 1 5 11 12 17 rings
6 14 19 20 22 23 24 rings
6 4 7 8 15 18 21 rings
6 6 7 8 9 10 13 rings

> <PUBCHEM_HEAVY_ATOM_COUNT>
24

> <PUBCHEM_ATOM_DEF_STEREO_COUNT>
0

> <PUBCHEM_ATOM_UDEF_STEREO_COUNT>
0

> <PUBCHEM_BOND_DEF_STEREO_COUNT>
0

> <PUBCHEM_BOND_UDEF_STEREO_COUNT>
0

> <PUBCHEM_ISOTOPIC_ATOM_COUNT>
0

> <PUBCHEM_COMPONENT_COUNT>
1

> <PUBCHEM_CACTVS_TAUTO_COUNT>
2

> <PUBCHEM_CONFORMER_ID>
01096F3600000001

> <PUBCHEM_MMFF94_ENERGY>
67.1401

> <PUBCHEM_FEATURE_SELFOVERLAP>
40.626

> <PUBCHEM_SHAPE_FINGERPRINT>
10299344 5 18334573542738175779
10411042 1 18194683903362458714
10595046 47 18335981991274265657
10835480 77 18340772537524393425
11524674 6 16805042904981972335
117089 54 17755007933345936542
11719270 70 17822009830614963695
11991303 11 13758065278108433649
12107183 9 17830446542021630704
12166972 35 18342173358514849445
12236239 1 18261109669165295433
12516196 113 18260268542358765680
12616971 3 17822020799681427548
12788726 201 17385995191537092408
13073987 5 18335137583771922889
13533116 47 18334576832672711680
13685833 64 18411980273529766795
14251764 18 18259702290197686873
14461889 52 18268996380066343034
14933364 13 18413107251964037053
15183329 4 18411136952743814193
15196674 1 18410855460165085075
15324115 91 15554172570718384722
15419008 42 17754457073360638253
17492 89 18192149515611004830
17844677 252 18411412930067823525
17857418 61 18335139799637164395
18335252 98 18270676455466780195
19427546 62 18197777692464030808
20028762 73 18334295413779275150
20645477 70 18412827993237800466
21130935 74 18334856100247456227
21236236 1 18336264647968616225
21267235 1 18336261332174105886
21279426 13 18341899644780964925
21315763 28 18409730668945315279
21344244 78 18041573520096027648
21792934 111 18262530272221417481
220451 1 18041558044927562455
22061861 79 18272375278093380047
221357 26 18342176695851566116
23081809 10 17968097504344372501
23522609 53 18119216581184122585
23536379 177 18409448081535333777
23559900 14 18337959974575915033
23569943 247 17844534516042504243
255183 451 18190733323539473134
3004659 81 18272652355092086096
3014965 18 18411140255336209927
34797466 226 16773792571820720493
4073 2 18058726892788086106
46194498 28 17632578210892259164
465052 167 18260264170593638046
5104073 3 18186521041914547768
6025842 7 18339920425467646852
6138700 20 18340768234278301851
6299153 45 18262509420788256721
9965369 4 18335137627006192161
999808 66 18060126610821162683

> <PUBCHEM_SHAPE_MULTIPOLES>
467.23
20.22
2.41
0.6
18.93
0.27
0
5.76
-0.23
-3.51
-0.01
0
0
0.03

> <PUBCHEM_SHAPE_SELFOVERLAP>
1048.73

> <PUBCHEM_SHAPE_VOLUME>
244.9

> <PUBCHEM_COORDINATE_TYPE>
2
5
10

$$$$

