17395936
  -OEChem-06241222532D

 47 48  0     0  0  0  0  0  0999 V2000
    5.4641    3.6900    0.0000 O   0  0  0  0  0  0  0  0  0  0  0  0
    6.3301   -2.8100    0.0000 O   0  0  0  0  0  0  0  0  0  0  0  0
    2.8660   -2.8100    0.0000 O   0  0  0  0  0  0  0  0  0  0  0  0
    4.5981   -3.8100    0.0000 O   0  0  0  0  0  0  0  0  0  0  0  0
    3.7320    0.6900    0.0000 O   0  0  0  0  0  0  0  0  0  0  0  0
    5.4641    0.6900    0.0000 N   0  0  0  0  0  0  0  0  0  0  0  0
    7.1962    3.6900    0.0000 N   0  0  0  0  0  0  0  0  0  0  0  0
    6.3301    2.1900    0.0000 C   0  0  0  0  0  0  0  0  0  0  0  0
    5.4641    1.6900    0.0000 C   0  0  0  0  0  0  0  0  0  0  0  0
    7.1962    1.6900    0.0000 C   0  0  0  0  0  0  0  0  0  0  0  0
    6.3301    3.1900    0.0000 C   0  0  0  0  0  0  0  0  0  0  0  0
    8.0622    2.1900    0.0000 C   0  0  0  0  0  0  0  0  0  0  0  0
    8.0622    3.1900    0.0000 C   0  0  0  0  0  0  0  0  0  0  0  0
    4.5981   -0.8100    0.0000 C   0  0  0  0  0  0  0  0  0  0  0  0
    7.1962    0.6900    0.0000 C   0  0  0  0  0  0  0  0  0  0  0  0
    4.5981    0.1900    0.0000 C   0  0  0  0  0  0  0  0  0  0  0  0
    3.7320   -1.3100    0.0000 C   0  0  0  0  0  0  0  0  0  0  0  0
    5.4641   -1.3100    0.0000 C   0  0  0  0  0  0  0  0  0  0  0  0
    8.9282    3.6900    0.0000 C   0  0  0  0  0  0  0  0  0  0  0  0
    5.4641   -2.3100    0.0000 C   0  0  0  0  0  0  0  0  0  0  0  0
    3.7320   -2.3100    0.0000 C   0  0  0  0  0  0  0  0  0  0  0  0
    4.5981   -2.8100    0.0000 C   0  0  0  0  0  0  0  0  0  0  0  0
    7.1962   -2.3100    0.0000 C   0  0  0  0  0  0  0  0  0  0  0  0
    2.0000   -2.3100    0.0000 C   0  0  0  0  0  0  0  0  0  0  0  0
    3.7320   -4.3100    0.0000 C   0  0  0  0  0  0  0  0  0  0  0  0
    5.2520    2.2726    0.0000 H   0  0  0  0  0  0  0  0  0  0  0  0
    4.8535    1.5823    0.0000 H   0  0  0  0  0  0  0  0  0  0  0  0
    8.5991    1.8800    0.0000 H   0  0  0  0  0  0  0  0  0  0  0  0
    6.0010    0.3800    0.0000 H   0  0  0  0  0  0  0  0  0  0  0  0
    7.1962    4.3100    0.0000 H   0  0  0  0  0  0  0  0  0  0  0  0
    6.5762    0.6900    0.0000 H   0  0  0  0  0  0  0  0  0  0  0  0
    7.1962    0.0700    0.0000 H   0  0  0  0  0  0  0  0  0  0  0  0
    7.8162    0.6900    0.0000 H   0  0  0  0  0  0  0  0  0  0  0  0
    3.1951   -1.0000    0.0000 H   0  0  0  0  0  0  0  0  0  0  0  0
    6.0010   -1.0000    0.0000 H   0  0  0  0  0  0  0  0  0  0  0  0
    9.2382    3.1531    0.0000 H   0  0  0  0  0  0  0  0  0  0  0  0
    9.4651    4.0000    0.0000 H   0  0  0  0  0  0  0  0  0  0  0  0
    8.6182    4.2269    0.0000 H   0  0  0  0  0  0  0  0  0  0  0  0
    7.5062   -2.8469    0.0000 H   0  0  0  0  0  0  0  0  0  0  0  0
    7.7331   -2.0000    0.0000 H   0  0  0  0  0  0  0  0  0  0  0  0
    6.8862   -1.7731    0.0000 H   0  0  0  0  0  0  0  0  0  0  0  0
    2.3100   -1.7731    0.0000 H   0  0  0  0  0  0  0  0  0  0  0  0
    1.4631   -2.0000    0.0000 H   0  0  0  0  0  0  0  0  0  0  0  0
    1.6900   -2.8469    0.0000 H   0  0  0  0  0  0  0  0  0  0  0  0
    3.4220   -3.7731    0.0000 H   0  0  0  0  0  0  0  0  0  0  0  0
    3.1951   -4.6200    0.0000 H   0  0  0  0  0  0  0  0  0  0  0  0
    4.0420   -4.8469    0.0000 H   0  0  0  0  0  0  0  0  0  0  0  0
  1 11  2  0  0  0  0
  2 20  1  0  0  0  0
  2 23  1  0  0  0  0
  3 21  1  0  0  0  0
  3 24  1  0  0  0  0
  4 22  1  0  0  0  0
  4 25  1  0  0  0  0
  5 16  2  0  0  0  0
  6  9  1  0  0  0  0
  6 16  1  0  0  0  0
  6 29  1  0  0  0  0
  7 11  1  0  0  0  0
  7 13  1  0  0  0  0
  7 30  1  0  0  0  0
  8  9  1  0  0  0  0
  8 10  2  0  0  0  0
  8 11  1  0  0  0  0
  9 26  1  0  0  0  0
  9 27  1  0  0  0  0
 10 12  1  0  0  0  0
 10 15  1  0  0  0  0
 12 13  2  0  0  0  0
 12 28  1  0  0  0  0
 13 19  1  0  0  0  0
 14 16  1  0  0  0  0
 14 17  2  0  0  0  0
 14 18  1  0  0  0  0
 15 31  1  0  0  0  0
 15 32  1  0  0  0  0
 15 33  1  0  0  0  0
 17 21  1  0  0  0  0
 17 34  1  0  0  0  0
 18 20  2  0  0  0  0
 18 35  1  0  0  0  0
 19 36  1  0  0  0  0
 19 37  1  0  0  0  0
 19 38  1  0  0  0  0
 20 22  1  0  0  0  0
 21 22  2  0  0  0  0
 23 39  1  0  0  0  0
 23 40  1  0  0  0  0
 23 41  1  0  0  0  0
 24 42  1  0  0  0  0
 24 43  1  0  0  0  0
 24 44  1  0  0  0  0
 25 45  1  0  0  0  0
 25 46  1  0  0  0  0
 25 47  1  0  0  0  0
M  END
> <PUBCHEM_COMPOUND_CID>
17395936

> <PUBCHEM_COMPOUND_CANONICALIZED>
1

> <PUBCHEM_CACTVS_COMPLEXITY>
570

> <PUBCHEM_CACTVS_HBOND_ACCEPTOR>
5

> <PUBCHEM_CACTVS_HBOND_DONOR>
2

> <PUBCHEM_CACTVS_ROTATABLE_BOND>
6

> <PUBCHEM_CACTVS_SUBSKEYS>
AAADceB7OAAAAAAAAAAAAAAAAAAAAAAAAAAwQAAAAAAAAAABAAAAHgAQAAAADAzBmAYyBoLABACIAiVSUACCCAAkIgAAiIEOjMgNJzqE9RuEMSpl1hWKqYe6/B7OIAABCAAAQABAAAIQAACAAAAAAAAAAA==

> <PUBCHEM_IUPAC_OPENEYE_NAME>
N-[(4,6-dimethyl-2-oxo-1H-pyridin-3-yl)methyl]-3,4,5-trimethoxy-benzamide

> <PUBCHEM_IUPAC_CAS_NAME>
N-[(4,6-dimethyl-2-oxo-1H-pyridin-3-yl)methyl]-3,4,5-trimethoxybenzamide

> <PUBCHEM_IUPAC_NAME>
N-[(4,6-dimethyl-2-oxo-1H-pyridin-3-yl)methyl]-3,4,5-trimethoxybenzamide

> <PUBCHEM_IUPAC_SYSTEMATIC_NAME>
N-[(4,6-dimethyl-2-oxidanylidene-1H-pyridin-3-yl)methyl]-3,4,5-trimethoxy-benzamide

> <PUBCHEM_IUPAC_TRADITIONAL_NAME>
N-[(2-keto-4,6-dimethyl-1H-pyridin-3-yl)methyl]-3,4,5-trimethoxy-benzamide

> <PUBCHEM_IUPAC_INCHI>
InChI=1S/C18H22N2O5/c1-10-6-11(2)20-18(22)13(10)9-19-17(21)12-7-14(23-3)16(25-5)15(8-12)24-4/h6-8H,9H2,1-5H3,(H,19,21)(H,20,22)

> <PUBCHEM_IUPAC_INCHIKEY>
ZHBSEXHHJLGRKX-UHFFFAOYSA-N

> <PUBCHEM_XLOGP3_AA>
1.7

> <PUBCHEM_EXACT_MASS>
346.152872

> <PUBCHEM_MOLECULAR_FORMULA>
C18H22N2O5

> <PUBCHEM_MOLECULAR_WEIGHT>
346.37768

> <PUBCHEM_OPENEYE_CAN_SMILES>
CC1=CC(=C(C(=O)N1)CNC(=O)C2=CC(=C(C(=C2)OC)OC)OC)C

> <PUBCHEM_OPENEYE_ISO_SMILES>
CC1=CC(=C(C(=O)N1)CNC(=O)C2=CC(=C(C(=C2)OC)OC)OC)C

> <PUBCHEM_CACTVS_TPSA>
85.9

> <PUBCHEM_MONOISOTOPIC_WEIGHT>
346.152872

> <PUBCHEM_TOTAL_CHARGE>
0

> <PUBCHEM_HEAVY_ATOM_COUNT>
25

> <PUBCHEM_ATOM_DEF_STEREO_COUNT>
0

> <PUBCHEM_ATOM_UDEF_STEREO_COUNT>
0

> <PUBCHEM_BOND_DEF_STEREO_COUNT>
0

> <PUBCHEM_BOND_UDEF_STEREO_COUNT>
0

> <PUBCHEM_ISOTOPIC_ATOM_COUNT>
0

> <PUBCHEM_COMPONENT_COUNT>
1

> <PUBCHEM_CACTVS_TAUTO_COUNT>
10

> <PUBCHEM_COORDINATE_TYPE>
1
5
255

> <PUBCHEM_BONDANNOTATIONS>
10  12  8
12  13  8
14  17  8
14  18  8
17  21  8
18  20  8
20  22  8
21  22  8
7  11  8
7  13  8
8  10  8
8  11  8

$$$$

