14230
  -OEChem-06241222423D

 21 20  0     0  0  0  0  0  0999 V2000
   -1.8975    1.7929   -0.0216 O   0  0  0  0  0  0  0  0  0  0  0  0
   -1.3168   -0.4747    0.0655 N   0  0  0  0  0  0  0  0  0  0  0  0
    1.0890   -0.1170   -0.2369 C   0  0  0  0  0  0  0  0  0  0  0  0
   -0.0490   -0.3040    0.7651 C   0  0  0  0  0  0  0  0  0  0  0  0
    2.4261    0.0854    0.4769 C   0  0  0  0  0  0  0  0  0  0  0  0
    3.5695    0.2370   -0.5138 C   0  0  0  0  0  0  0  0  0  0  0  0
   -1.7081   -1.8285   -0.2797 C   0  0  0  0  0  0  0  0  0  0  0  0
   -2.1133    0.6089   -0.2556 C   0  0  0  0  0  0  0  0  0  0  0  0
    0.8809    0.7460   -0.8817 H   0  0  0  0  0  0  0  0  0  0  0  0
    1.1529   -0.9920   -0.8953 H   0  0  0  0  0  0  0  0  0  0  0  0
    0.1240   -1.1713    1.4119 H   0  0  0  0  0  0  0  0  0  0  0  0
   -0.1204    0.5828    1.4056 H   0  0  0  0  0  0  0  0  0  0  0  0
    2.6310   -0.7689    1.1326 H   0  0  0  0  0  0  0  0  0  0  0  0
    2.3778    0.9779    1.1116 H   0  0  0  0  0  0  0  0  0  0  0  0
    4.5151    0.3817    0.0180 H   0  0  0  0  0  0  0  0  0  0  0  0
    3.6659   -0.6548   -1.1414 H   0  0  0  0  0  0  0  0  0  0  0  0
    3.4108    1.1013   -1.1664 H   0  0  0  0  0  0  0  0  0  0  0  0
   -2.6626   -1.8392   -0.8131 H   0  0  0  0  0  0  0  0  0  0  0  0
   -1.8084   -2.4134    0.6392 H   0  0  0  0  0  0  0  0  0  0  0  0
   -0.9395   -2.2741   -0.9170 H   0  0  0  0  0  0  0  0  0  0  0  0
   -3.0331    0.3036   -0.7808 H   0  0  0  0  0  0  0  0  0  0  0  0
  1  8  2  0  0  0  0
  2  4  1  0  0  0  0
  2  7  1  0  0  0  0
  2  8  1  0  0  0  0
  3  4  1  0  0  0  0
  3  5  1  0  0  0  0
  3  9  1  0  0  0  0
  3 10  1  0  0  0  0
  4 11  1  0  0  0  0
  4 12  1  0  0  0  0
  5  6  1  0  0  0  0
  5 13  1  0  0  0  0
  5 14  1  0  0  0  0
  6 15  1  0  0  0  0
  6 16  1  0  0  0  0
  6 17  1  0  0  0  0
  7 18  1  0  0  0  0
  7 19  1  0  0  0  0
  7 20  1  0  0  0  0
  8 21  1  0  0  0  0
M  END
> <PUBCHEM_COMPOUND_CID>
14230

> <PUBCHEM_CONFORMER_RMSD>
0.6

> <PUBCHEM_CONFORMER_DIVERSEORDER>
2
20
8
22
13
3
17
19
18
9
15
21
12
14
10
16
23
1
24
4
6
5
7
11

> <PUBCHEM_MMFF94_PARTIAL_CHARGES>
6
1 -0.57
2 -0.66
21 0.06
4 0.3
7 0.3
8 0.57

> <PUBCHEM_EFFECTIVE_ROTOR_COUNT>
4

> <PUBCHEM_PHARMACOPHORE_FEATURES>
2
1 1 acceptor
1 6 hydrophobe

> <PUBCHEM_HEAVY_ATOM_COUNT>
8

> <PUBCHEM_ATOM_DEF_STEREO_COUNT>
0

> <PUBCHEM_ATOM_UDEF_STEREO_COUNT>
0

> <PUBCHEM_BOND_DEF_STEREO_COUNT>
0

> <PUBCHEM_BOND_UDEF_STEREO_COUNT>
0

> <PUBCHEM_ISOTOPIC_ATOM_COUNT>
0

> <PUBCHEM_COMPONENT_COUNT>
1

> <PUBCHEM_CACTVS_TAUTO_COUNT>
1

> <PUBCHEM_CONFORMER_ID>
0000379600000002

> <PUBCHEM_MMFF94_ENERGY>
2.9093

> <PUBCHEM_FEATURE_SELFOVERLAP>
10.148

> <PUBCHEM_SHAPE_FINGERPRINT>
12716758 59 18334299789980905218
12897270 3 18336551512474603462
12932741 1 17603873273625968066
12932764 1 18335417942046288298
14325111 11 18411700976586726338
14390081 3 18411141337784188448
16714656 1 18410014329828336003
19973954 147 18337112250641485512
20653085 51 18269541883741476384
21040471 1 18265624353881593931
23552449 1 18336550417152447969
29004967 10 16443338733181058618
3248919 1 17489871501622251186

> <PUBCHEM_SHAPE_MULTIPOLES>
153.79
4.74
1.44
0.77
4.11
0.01
-0.05
-0.56
0.8
-1.55
0.13
0.19
0.04
-0.07

> <PUBCHEM_SHAPE_SELFOVERLAP>
272.67

> <PUBCHEM_SHAPE_VOLUME>
100.9

> <PUBCHEM_COORDINATE_TYPE>
2
5
10

$$$$

