51090920
  -OEChem-06241223003D

 46 47  0     1  0  0  0  0  0999 V2000
   -6.4366   -2.3775   -0.4330 F   0  0  0  0  0  0  0  0  0  0  0  0
   -5.2327   -1.9720    1.3382 F   0  0  0  0  0  0  0  0  0  0  0  0
   -6.5343   -0.4186    0.5181 F   0  0  0  0  0  0  0  0  0  0  0  0
    1.3400    2.0297    1.1780 O   0  0  0  0  0  0  0  0  0  0  0  0
   -3.7727    0.0472   -0.0262 N   0  0  1  0  0  0  0  0  0  0  0  0
    0.3312    1.3062   -0.7820 N   0  0  0  0  0  0  0  0  0  0  0  0
    4.4691   -0.5069   -0.0526 N   0  0  0  0  0  0  0  0  0  0  0  0
    3.7375   -1.3707   -0.7770 N   0  0  0  0  0  0  0  0  0  0  0  0
   -1.9557    1.4746    0.0490 C   0  0  1  0  0  0  0  0  0  0  0  0
   -3.2151    2.3368    0.1652 C   0  0  0  0  0  0  0  0  0  0  0  0
   -2.4465    0.1990   -0.6258 C   0  0  0  0  0  0  0  0  0  0  0  0
   -4.3783    1.3792   -0.0847 C   0  0  0  0  0  0  0  0  0  0  0  0
   -0.8241    2.1527   -0.7049 C   0  0  0  0  0  0  0  0  0  0  0  0
   -4.5772   -0.9607   -0.7002 C   0  0  0  0  0  0  0  0  0  0  0  0
   -5.7022   -1.4311    0.1937 C   0  0  0  0  0  0  0  0  0  0  0  0
    5.8694   -0.7705    0.1771 C   0  0  0  0  0  0  0  0  0  0  0  0
    1.3362    1.3128    0.1808 C   0  0  0  0  0  0  0  0  0  0  0  0
    2.4799    0.3952   -0.0579 C   0  0  0  0  0  0  0  0  0  0  0  0
    3.7628    0.5680    0.4015 C   0  0  0  0  0  0  0  0  0  0  0  0
    6.7170    0.3839   -0.4001 C   0  0  0  0  0  0  0  0  0  0  0  0
    6.1343   -0.8857    1.6939 C   0  0  0  0  0  0  0  0  0  0  0  0
    6.3746   -2.0775   -0.4747 C   0  0  0  0  0  0  0  0  0  0  0  0
    2.5233   -0.8143   -0.7768 C   0  0  0  0  0  0  0  0  0  0  0  0
   -1.6149    1.2252    1.0647 H   0  0  0  0  0  0  0  0  0  0  0  0
   -3.2750    2.7820    1.1648 H   0  0  0  0  0  0  0  0  0  0  0  0
   -3.2293    3.1525   -0.5663 H   0  0  0  0  0  0  0  0  0  0  0  0
   -1.7987   -0.6538   -0.3974 H   0  0  0  0  0  0  0  0  0  0  0  0
   -2.5062    0.3193   -1.7154 H   0  0  0  0  0  0  0  0  0  0  0  0
   -4.8133    1.5937   -1.0691 H   0  0  0  0  0  0  0  0  0  0  0  0
   -5.1565    1.5125    0.6728 H   0  0  0  0  0  0  0  0  0  0  0  0
   -0.5511    3.0921   -0.2110 H   0  0  0  0  0  0  0  0  0  0  0  0
   -1.1218    2.3907   -1.7321 H   0  0  0  0  0  0  0  0  0  0  0  0
   -4.9680   -0.6066   -1.6617 H   0  0  0  0  0  0  0  0  0  0  0  0
   -3.9575   -1.8393   -0.9201 H   0  0  0  0  0  0  0  0  0  0  0  0
    0.4105    0.6880   -1.5838 H   0  0  0  0  0  0  0  0  0  0  0  0
    4.2129    1.3498    0.9982 H   0  0  0  0  0  0  0  0  0  0  0  0
    5.8354   -2.9514   -0.0901 H   0  0  0  0  0  0  0  0  0  0  0  0
    7.4408   -2.2366   -0.2749 H   0  0  0  0  0  0  0  0  0  0  0  0
    7.7883    0.1974   -0.2618 H   0  0  0  0  0  0  0  0  0  0  0  0
    6.4899    1.3402    0.0844 H   0  0  0  0  0  0  0  0  0  0  0  0
    6.5341    0.5082   -1.4740 H   0  0  0  0  0  0  0  0  0  0  0  0
    5.8944    0.0436    2.2229 H   0  0  0  0  0  0  0  0  0  0  0  0
    7.1876   -1.1110    1.8970 H   0  0  0  0  0  0  0  0  0  0  0  0
    5.5286   -1.6833    2.1403 H   0  0  0  0  0  0  0  0  0  0  0  0
    6.2448   -2.0583   -1.5634 H   0  0  0  0  0  0  0  0  0  0  0  0
    1.7243   -1.3203   -1.3000 H   0  0  0  0  0  0  0  0  0  0  0  0
  1 15  1  0  0  0  0
  2 15  1  0  0  0  0
  3 15  1  0  0  0  0
  4 17  2  0  0  0  0
  5 11  1  0  0  0  0
  5 12  1  0  0  0  0
  5 14  1  0  0  0  0
  6 13  1  0  0  0  0
  6 17  1  0  0  0  0
  6 35  1  0  0  0  0
  7  8  1  0  0  0  0
  7 16  1  0  0  0  0
  7 19  1  0  0  0  0
  8 23  2  0  0  0  0
  9 10  1  0  0  0  0
  9 11  1  0  0  0  0
  9 13  1  0  0  0  0
  9 24  1  0  0  0  0
 10 12  1  0  0  0  0
 10 25  1  0  0  0  0
 10 26  1  0  0  0  0
 11 27  1  0  0  0  0
 11 28  1  0  0  0  0
 12 29  1  0  0  0  0
 12 30  1  0  0  0  0
 13 31  1  0  0  0  0
 13 32  1  0  0  0  0
 14 15  1  0  0  0  0
 14 33  1  0  0  0  0
 14 34  1  0  0  0  0
 16 20  1  0  0  0  0
 16 21  1  0  0  0  0
 16 22  1  0  0  0  0
 17 18  1  0  0  0  0
 18 19  2  0  0  0  0
 18 23  1  0  0  0  0
 19 36  1  0  0  0  0
 20 39  1  0  0  0  0
 20 40  1  0  0  0  0
 20 41  1  0  0  0  0
 21 42  1  0  0  0  0
 21 43  1  0  0  0  0
 21 44  1  0  0  0  0
 22 37  1  0  0  0  0
 22 38  1  0  0  0  0
 22 45  1  0  0  0  0
 23 46  1  0  0  0  0
M  END
> <PUBCHEM_COMPOUND_CID>
51090920

> <PUBCHEM_CONFORMER_RMSD>
1

> <PUBCHEM_CONFORMER_DIVERSEORDER>
1
40
47
133
117
115
138
11
53
113
3
23
44
12
137
108
126
78
90
54
110
89
135
141
36
62
75
132
60
35
7
140
151
9
72
13
79
130
134
127
129
124
82
16
98
70
68
15
17
100
149
28
153
101
116
80
57
105
142
50
120
69
148
39
33
42
139
121
46
85
43
51
128
29
111
63
106
107
66
152
131
32
77
118
21
123
14
81
112
122
48
94
143
30
95
103
19
38
71
91
74
56
125
22
55
6
41
150
104
27
136
58
92
147
93
76
67
26
109
59
144
146
96
114
119
73
64
61
102
88
5
99
2
86
18
34
37
87
25
49
31
52
8
10
83
4
24
84
145
97
20
45
65

> <PUBCHEM_MMFF94_PARTIAL_CHARGES>
21
1 -0.34
11 0.27
12 0.27
13 0.3
14 0.27
15 1.02
16 0.26
17 0.72
18 -0.09
19 -0.3
2 -0.34
23 0.14
3 -0.34
35 0.37
36 0.15
4 -0.57
46 0.15
5 -0.81
6 -0.73
7 0.31
8 -0.71

> <PUBCHEM_EFFECTIVE_ROTOR_COUNT>
8

> <PUBCHEM_PHARMACOPHORE_FEATURES>
7
1 4 acceptor
1 5 cation
1 6 donor
1 8 acceptor
4 16 20 21 22 hydrophobe
5 5 9 10 11 12 rings
5 7 8 18 19 23 rings

> <PUBCHEM_HEAVY_ATOM_COUNT>
23

> <PUBCHEM_ATOM_DEF_STEREO_COUNT>
0

> <PUBCHEM_ATOM_UDEF_STEREO_COUNT>
1

> <PUBCHEM_BOND_DEF_STEREO_COUNT>
0

> <PUBCHEM_BOND_UDEF_STEREO_COUNT>
0

> <PUBCHEM_ISOTOPIC_ATOM_COUNT>
0

> <PUBCHEM_COMPONENT_COUNT>
1

> <PUBCHEM_CACTVS_TAUTO_COUNT>
2

> <PUBCHEM_CONFORMER_ID>
030B95E800000001

> <PUBCHEM_MMFF94_ENERGY>
38.4444

> <PUBCHEM_FEATURE_SELFOVERLAP>
35.52

> <PUBCHEM_SHAPE_FINGERPRINT>
10554248 39 8790611364613615664
10595046 47 18273212028365756012
10763959 59 9007050280154683730
11545043 162 18261399970036412873
11724838 91 18130788950483743100
11809386 21 18130795602533542313
12166972 35 17418091001161545092
12616971 3 14779555564845587760
12633257 1 16588306043005817877
12760667 363 18411136914516337223
13167372 99 8070025567373587782
13288520 33 18412825789988409381
13402501 40 18409165519352051255
13685833 64 18410854352042443185
13740256 8 18410855464486913356
13782708 43 18411705408834635978
14123256 34 18409725175397567086
14216079 64 18410576167849789167
14251732 16 18411419497426130020
14251751 18 18334575733171431817
14461889 52 18412268303628690280
14556957 393 15554154991011339982
14950920 106 16733267838018683523
15183329 4 17060339643458636682
15188451 53 18411987953215966407
15238133 3 7060367155253809794
15510800 12 17986671468505461755
15716309 27 18334857225032664631
17780758 139 17967810566259094961
18335252 98 18334574647362474510
190975 80 18261682484769196776
193927 3 18271799087119794585
19784866 240 18059853948552626269
20028762 73 18409731755282787430
20281389 69 8286196150063189646
21049683 271 18336825287261690040
21054139 6 17989207066513955042
21150785 3 17704065193187281590
21196832 93 17559379272060605546
21267235 1 18410006632877689597
21623969 137 17894910754492697094
21637258 2 18059863860809572516
22149856 69 18113609123653135512
2303208 19 17749666394082243380
23081809 10 16988559165142698612
23198884 109 14476965605705792933
23402539 116 16987997331691104244
23402655 69 11095885964421607325
23424784 1240 18042678571767768310
23522609 53 18122874668922423061
23559900 14 18409739434847868905
270888 7 8718560402163070823
2838139 119 10015582779049772275
3004659 81 17917996048905244781
329604 57 18341608205358749572
351380 3 18341616997088187127
4073 2 18335980981872340640
4325135 7 18342454838403264444
439807 62 18202283610925199107
465052 167 18186519930414329228
5104073 3 17896322596305664658
559249 180 18342740741559750717
5718773 13 18336832975220988423
6431902 208 18410576184602488087
7495541 125 18409171022017495176
7970288 3 18340488855509590031
8863177 126 18335422313890433354
999808 66 18413099563703759963

> <PUBCHEM_SHAPE_MULTIPOLES>
425.71
19.38
2.41
1.01
1.69
0.04
-0.26
13.11
-2.23
-2.68
-0.06
0.61
0.16
0.53

> <PUBCHEM_SHAPE_SELFOVERLAP>
878.573

> <PUBCHEM_SHAPE_VOLUME>
249.4

> <PUBCHEM_COORDINATE_TYPE>
2
5
10

$$$$

