5012
  -OEChem-06261200282D

 33 35  0     0  0  0  0  0  0999 V2000
   10.3991    0.7654    0.0000 O   0  5  0  0  0  0  0  0  0  0  0  0
    9.5273    2.2621    0.0000 O   0  0  0  0  0  0  0  0  0  0  0  0
    4.2690   -0.7621    0.0000 N   0  0  0  0  0  0  0  0  0  0  0  0
    2.5369   -1.7621    0.0000 N   0  0  0  0  0  0  0  0  0  0  0  0
    6.0010   -0.7621    0.0000 N   0  0  0  0  0  0  0  0  0  0  0  0
    9.5312    1.2621    0.0000 N   0  3  0  0  0  0  0  0  0  0  0  0
    3.4030   -0.2621    0.0000 C   0  0  0  0  0  0  0  0  0  0  0  0
    4.2690   -1.7621    0.0000 C   0  0  0  0  0  0  0  0  0  0  0  0
    2.5369   -0.7621    0.0000 C   0  0  0  0  0  0  0  0  0  0  0  0
    3.4030   -2.2621    0.0000 C   0  0  0  0  0  0  0  0  0  0  0  0
    5.1350   -0.2621    0.0000 C   0  0  0  0  0  0  0  0  0  0  0  0
    5.1350    0.7379    0.0000 C   0  0  0  0  0  0  0  0  0  0  0  0
    6.8671   -0.2621    0.0000 C   0  0  0  0  0  0  0  0  0  0  0  0
    6.8671    0.7379    0.0000 C   0  0  0  0  0  0  0  0  0  0  0  0
    6.0010    1.2379    0.0000 C   0  0  0  0  0  0  0  0  0  0  0  0
    7.7610    1.2726    0.0000 C   0  0  0  0  0  0  0  0  0  0  0  0
    7.7610   -0.7967    0.0000 C   0  0  0  0  0  0  0  0  0  0  0  0
    8.6671    0.7587    0.0000 C   0  0  0  0  0  0  0  0  0  0  0  0
    8.6671   -0.2829    0.0000 C   0  0  0  0  0  0  0  0  0  0  0  0
    3.8015    0.2129    0.0000 H   0  0  0  0  0  0  0  0  0  0  0  0
    3.0044    0.2129    0.0000 H   0  0  0  0  0  0  0  0  0  0  0  0
    4.4810   -2.3447    0.0000 H   0  0  0  0  0  0  0  0  0  0  0  0
    4.8796   -1.6544    0.0000 H   0  0  0  0  0  0  0  0  0  0  0  0
    2.3249   -0.1795    0.0000 H   0  0  0  0  0  0  0  0  0  0  0  0
    1.9264   -0.8697    0.0000 H   0  0  0  0  0  0  0  0  0  0  0  0
    3.0044   -2.7370    0.0000 H   0  0  0  0  0  0  0  0  0  0  0  0
    3.8015   -2.7370    0.0000 H   0  0  0  0  0  0  0  0  0  0  0  0
    2.0000   -2.0721    0.0000 H   0  0  0  0  0  0  0  0  0  0  0  0
    4.5981    1.0479    0.0000 H   0  0  0  0  0  0  0  0  0  0  0  0
    6.0010    1.8579    0.0000 H   0  0  0  0  0  0  0  0  0  0  0  0
    7.7538    1.8926    0.0000 H   0  0  0  0  0  0  0  0  0  0  0  0
    7.7538   -1.4167    0.0000 H   0  0  0  0  0  0  0  0  0  0  0  0
    9.2028   -0.5950    0.0000 H   0  0  0  0  0  0  0  0  0  0  0  0
  1  6  1  0  0  0  0
  2  6  2  0  0  0  0
  3  7  1  0  0  0  0
  3  8  1  0  0  0  0
  3 11  1  0  0  0  0
  4  9  1  0  0  0  0
  4 10  1  0  0  0  0
  4 28  1  0  0  0  0
  5 11  2  0  0  0  0
  5 13  1  0  0  0  0
  6 18  1  0  0  0  0
  7  9  1  0  0  0  0
  7 20  1  0  0  0  0
  7 21  1  0  0  0  0
  8 10  1  0  0  0  0
  8 22  1  0  0  0  0
  8 23  1  0  0  0  0
  9 24  1  0  0  0  0
  9 25  1  0  0  0  0
 10 26  1  0  0  0  0
 10 27  1  0  0  0  0
 11 12  1  0  0  0  0
 12 15  2  0  0  0  0
 12 29  1  0  0  0  0
 13 14  2  0  0  0  0
 13 17  1  0  0  0  0
 14 15  1  0  0  0  0
 14 16  1  0  0  0  0
 15 30  1  0  0  0  0
 16 18  2  0  0  0  0
 16 31  1  0  0  0  0
 17 19  2  0  0  0  0
 17 32  1  0  0  0  0
 18 19  1  0  0  0  0
 19 33  1  0  0  0  0
M  CHG  2   1  -1   6   1
M  END
> <PUBCHEM_COMPOUND_CID>
5012

> <PUBCHEM_COMPOUND_CANONICALIZED>
1

> <PUBCHEM_CACTVS_COMPLEXITY>
327

> <PUBCHEM_CACTVS_HBOND_ACCEPTOR>
5

> <PUBCHEM_CACTVS_HBOND_DONOR>
1

> <PUBCHEM_CACTVS_ROTATABLE_BOND>
1

> <PUBCHEM_CACTVS_SUBSKEYS>
AAADccBzsAAAAAAAAAAAAAAAAAAAAAAAAAA8WIAAAAAAAACx8AAAHAAUAAAADAjBHgQx8PPYUAChAyZiZwCCgCkhAiApmKA4ZJqIYOLAmZGUIAhokALIyCcQgIAOAACAQAACAAAAAQCAAAQAAAAAAAAAAA==

> <PUBCHEM_IUPAC_OPENEYE_NAME>
6-nitro-2-piperazin-1-yl-quinoline

> <PUBCHEM_IUPAC_CAS_NAME>
6-nitro-2-(1-piperazinyl)quinoline

> <PUBCHEM_IUPAC_NAME>
6-nitro-2-piperazin-1-ylquinoline

> <PUBCHEM_IUPAC_SYSTEMATIC_NAME>
6-nitro-2-piperazin-1-yl-quinoline

> <PUBCHEM_IUPAC_TRADITIONAL_NAME>
6-nitro-2-piperazino-quinoline

> <PUBCHEM_IUPAC_INCHI>
InChI=1S/C13H14N4O2/c18-17(19)11-2-3-12-10(9-11)1-4-13(15-12)16-7-5-14-6-8-16/h1-4,9,14H,5-8H2

> <PUBCHEM_IUPAC_INCHIKEY>
GGDBEAVVGFNWIA-UHFFFAOYSA-N

> <PUBCHEM_XLOGP3_AA>
1.8

> <PUBCHEM_EXACT_MASS>
258.111676

> <PUBCHEM_MOLECULAR_FORMULA>
C13H14N4O2

> <PUBCHEM_MOLECULAR_WEIGHT>
258.27586

> <PUBCHEM_OPENEYE_CAN_SMILES>
C1CN(CCN1)C2=NC3=C(C=C2)C=C(C=C3)[N+](=O)[O-]

> <PUBCHEM_OPENEYE_ISO_SMILES>
C1CN(CCN1)C2=NC3=C(C=C2)C=C(C=C3)[N+](=O)[O-]

> <PUBCHEM_CACTVS_TPSA>
74

> <PUBCHEM_MONOISOTOPIC_WEIGHT>
258.111676

> <PUBCHEM_TOTAL_CHARGE>
0

> <PUBCHEM_HEAVY_ATOM_COUNT>
19

> <PUBCHEM_ATOM_DEF_STEREO_COUNT>
0

> <PUBCHEM_ATOM_UDEF_STEREO_COUNT>
0

> <PUBCHEM_BOND_DEF_STEREO_COUNT>
0

> <PUBCHEM_BOND_UDEF_STEREO_COUNT>
0

> <PUBCHEM_ISOTOPIC_ATOM_COUNT>
0

> <PUBCHEM_COMPONENT_COUNT>
1

> <PUBCHEM_CACTVS_TAUTO_COUNT>
1

> <PUBCHEM_COORDINATE_TYPE>
1
5
255

> <PUBCHEM_BONDANNOTATIONS>
11  12  8
12  15  8
13  14  8
13  17  8
14  15  8
14  16  8
16  18  8
17  19  8
18  19  8
5  11  8
5  13  8

$$$$

