8786
  -OEChem-06261203063D

 21 21  0     0  0  0  0  0  0999 V2000
    4.9624   -0.0428    0.7608 Cl  0  0  0  0  0  0  0  0  0  0  0  0
    1.1013   -0.0007    0.1314 O   0  0  0  0  0  0  0  0  0  0  0  0
    2.9061    0.0497   -1.3011 O   0  0  0  0  0  0  0  0  0  0  0  0
   -1.1759    0.0148   -0.4342 C   0  0  0  0  0  0  0  0  0  0  0  0
    0.2127    0.0351   -0.9787 C   0  0  0  0  0  0  0  0  0  0  0  0
   -1.8235   -1.2020   -0.2202 C   0  0  0  0  0  0  0  0  0  0  0  0
   -1.8269    1.2127   -0.1393 C   0  0  0  0  0  0  0  0  0  0  0  0
   -3.1220   -1.2208    0.2887 C   0  0  0  0  0  0  0  0  0  0  0  0
   -3.1253    1.1939    0.3698 C   0  0  0  0  0  0  0  0  0  0  0  0
   -3.7730   -0.0228    0.5839 C   0  0  0  0  0  0  0  0  0  0  0  0
    2.4387    0.0113   -0.1716 C   0  0  0  0  0  0  0  0  0  0  0  0
    3.2253   -0.0284    1.1104 C   0  0  0  0  0  0  0  0  0  0  0  0
    0.3853   -0.8316   -1.6285 H   0  0  0  0  0  0  0  0  0  0  0  0
    0.3827    0.9437   -1.5692 H   0  0  0  0  0  0  0  0  0  0  0  0
   -1.3263   -2.1421   -0.4441 H   0  0  0  0  0  0  0  0  0  0  0  0
   -1.3324    2.1671   -0.2997 H   0  0  0  0  0  0  0  0  0  0  0  0
   -3.6262   -2.1681    0.4559 H   0  0  0  0  0  0  0  0  0  0  0  0
   -3.6320    2.1266    0.6001 H   0  0  0  0  0  0  0  0  0  0  0  0
   -4.7840   -0.0376    0.9806 H   0  0  0  0  0  0  0  0  0  0  0  0
    2.9845   -0.9381    1.6657 H   0  0  0  0  0  0  0  0  0  0  0  0
    3.0062    0.8601    1.7076 H   0  0  0  0  0  0  0  0  0  0  0  0
  1 12  1  0  0  0  0
  2  5  1  0  0  0  0
  2 11  1  0  0  0  0
  3 11  2  0  0  0  0
  4  5  1  0  0  0  0
  4  6  2  0  0  0  0
  4  7  1  0  0  0  0
  5 13  1  0  0  0  0
  5 14  1  0  0  0  0
  6  8  1  0  0  0  0
  6 15  1  0  0  0  0
  7  9  2  0  0  0  0
  7 16  1  0  0  0  0
  8 10  2  0  0  0  0
  8 17  1  0  0  0  0
  9 10  1  0  0  0  0
  9 18  1  0  0  0  0
 10 19  1  0  0  0  0
 11 12  1  0  0  0  0
 12 20  1  0  0  0  0
 12 21  1  0  0  0  0
M  END
> <PUBCHEM_COMPOUND_CID>
8786

> <PUBCHEM_CONFORMER_RMSD>
0.6

> <PUBCHEM_CONFORMER_DIVERSEORDER>
1
16
6
20
15
21
19
10
4
12
9
2
11
5
14
22
3
18
23
13
17
8
7

> <PUBCHEM_MMFF94_PARTIAL_CHARGES>
17
1 -0.29
10 -0.15
11 0.66
12 0.35
15 0.15
16 0.15
17 0.15
18 0.15
19 0.15
2 -0.43
3 -0.57
4 -0.14
5 0.42
6 -0.15
7 -0.15
8 -0.15
9 -0.15

> <PUBCHEM_EFFECTIVE_ROTOR_COUNT>
4

> <PUBCHEM_PHARMACOPHORE_FEATURES>
2
1 3 acceptor
6 4 6 7 8 9 10 rings

> <PUBCHEM_HEAVY_ATOM_COUNT>
12

> <PUBCHEM_ATOM_DEF_STEREO_COUNT>
0

> <PUBCHEM_ATOM_UDEF_STEREO_COUNT>
0

> <PUBCHEM_BOND_DEF_STEREO_COUNT>
0

> <PUBCHEM_BOND_UDEF_STEREO_COUNT>
0

> <PUBCHEM_ISOTOPIC_ATOM_COUNT>
0

> <PUBCHEM_COMPONENT_COUNT>
1

> <PUBCHEM_CACTVS_TAUTO_COUNT>
1

> <PUBCHEM_CONFORMER_ID>
0000225200000001

> <PUBCHEM_MMFF94_ENERGY>
22.0225

> <PUBCHEM_FEATURE_SELFOVERLAP>
10.148

> <PUBCHEM_SHAPE_FINGERPRINT>
11132069 177 18334571352352327693
12251169 10 18412546504764271244
13024252 1 14477243769510663989
13214271 11 17676210165081813341
14123260 362 5039668213884003002
14144814 61 18201716253965852405
14252887 29 17203615925927128834
15219456 202 17676199212535342190
18186145 218 15213294227464116068
19422 9 17704066287501926594
200 152 16271933700678677539
20279233 1 17748826319336907422
20645464 45 17821729429342691919
20645477 56 17676206874804483681
20645477 70 15482680069421806978
20671657 53 13973688360232178262
21061003 4 14405176283709444485
21119208 17 8070027778817443880
21499 59 14562533968281661836
21650355 55 18411137987946834089
22485316 2 16128659647545800408
22926399 37 14418137318129756547
23402539 116 18260839185431739303
23403322 49 13182749168616783200
42 15 18341334474345158746
449060 50 16950282875798016448

> <PUBCHEM_SHAPE_MULTIPOLES>
237.09
8.58
1.11
1.03
7.73
0.01
0.08
0.07
-2.78
-1.24
-0.05
0.66
0
-0.03

> <PUBCHEM_SHAPE_SELFOVERLAP>
473.871

> <PUBCHEM_SHAPE_VOLUME>
140.2

> <PUBCHEM_COORDINATE_TYPE>
2
5
10

$$$$

