17395606
  -OEChem-06241222513D

 54 57  0     0  0  0  0  0  0999 V2000
    5.6375    1.3640    1.2134 S   0  0  0  0  0  0  0  0  0  0  0  0
    4.8433    2.2250    2.0782 O   0  0  0  0  0  0  0  0  0  0  0  0
    6.6104    0.4567    1.8042 O   0  0  0  0  0  0  0  0  0  0  0  0
    0.0407   -1.5159   -1.7747 O   0  0  0  0  0  0  0  0  0  0  0  0
   -2.4679   -1.0176   -0.0048 N   0  0  0  0  0  0  0  0  0  0  0  0
    0.8909   -0.0036   -0.2262 N   0  0  0  0  0  0  0  0  0  0  0  0
   -3.6168   -0.3668    0.2448 N   0  0  0  0  0  0  0  0  0  0  0  0
    6.4277    2.3333    0.0498 N   0  0  0  0  0  0  0  0  0  0  0  0
    4.5523    0.4079    0.2278 C   0  0  0  0  0  0  0  0  0  0  0  0
   -1.4904   -0.2272   -0.5341 C   0  0  0  0  0  0  0  0  0  0  0  0
    5.0406   -0.5099   -0.7023 C   0  0  0  0  0  0  0  0  0  0  0  0
    2.2892   -0.1741   -0.3863 C   0  0  0  0  0  0  0  0  0  0  0  0
    3.1766    0.5758    0.3860 C   0  0  0  0  0  0  0  0  0  0  0  0
   -3.3484    0.8825   -0.1443 C   0  0  0  0  0  0  0  0  0  0  0  0
   -2.0382    1.0280   -0.6385 C   0  0  0  0  0  0  0  0  0  0  0  0
   -0.1734   -0.6507   -0.8956 C   0  0  0  0  0  0  0  0  0  0  0  0
    4.1531   -1.2597   -1.4742 C   0  0  0  0  0  0  0  0  0  0  0  0
    2.7775   -1.0918   -1.3162 C   0  0  0  0  0  0  0  0  0  0  0  0
   -2.3656   -2.3795    0.2793 C   0  0  0  0  0  0  0  0  0  0  0  0
   -4.3447    1.9108   -0.0383 C   0  0  0  0  0  0  0  0  0  0  0  0
    6.5073   -0.7144   -0.8962 C   0  0  0  0  0  0  0  0  0  0  0  0
   -1.1321   -2.9280    0.6303 C   0  0  0  0  0  0  0  0  0  0  0  0
   -3.4975   -3.1924    0.2157 C   0  0  0  0  0  0  0  0  0  0  0  0
   -3.9604    3.2357    0.1689 C   0  0  0  0  0  0  0  0  0  0  0  0
   -5.6971    1.5852   -0.1425 C   0  0  0  0  0  0  0  0  0  0  0  0
    5.6463    3.2433   -0.7998 C   0  0  0  0  0  0  0  0  0  0  0  0
   -1.0301   -4.2891    0.9176 C   0  0  0  0  0  0  0  0  0  0  0  0
   -3.3956   -4.5535    0.5031 C   0  0  0  0  0  0  0  0  0  0  0  0
   -4.9283    4.2347    0.2722 C   0  0  0  0  0  0  0  0  0  0  0  0
   -6.6649    2.5843   -0.0393 C   0  0  0  0  0  0  0  0  0  0  0  0
   -2.1618   -5.1018    0.8540 C   0  0  0  0  0  0  0  0  0  0  0  0
   -6.2805    3.9090    0.1681 C   0  0  0  0  0  0  0  0  0  0  0  0
    2.7775    1.2861    1.1051 H   0  0  0  0  0  0  0  0  0  0  0  0
   -1.5500    1.9120   -1.0253 H   0  0  0  0  0  0  0  0  0  0  0  0
    0.6289    0.6890    0.4728 H   0  0  0  0  0  0  0  0  0  0  0  0
    4.5163   -1.9795   -2.2032 H   0  0  0  0  0  0  0  0  0  0  0  0
    2.1609   -1.7106   -1.9511 H   0  0  0  0  0  0  0  0  0  0  0  0
    7.0093    0.1943   -1.2310 H   0  0  0  0  0  0  0  0  0  0  0  0
    6.9825   -1.1146    0.0027 H   0  0  0  0  0  0  0  0  0  0  0  0
    6.6937   -1.4569   -1.6822 H   0  0  0  0  0  0  0  0  0  0  0  0
    7.3719    2.0900   -0.2711 H   0  0  0  0  0  0  0  0  0  0  0  0
   -0.2362   -2.3399    0.7873 H   0  0  0  0  0  0  0  0  0  0  0  0
   -4.4710   -2.7974   -0.0642 H   0  0  0  0  0  0  0  0  0  0  0  0
   -2.9155    3.5200    0.2647 H   0  0  0  0  0  0  0  0  0  0  0  0
   -6.0277    0.5633   -0.3124 H   0  0  0  0  0  0  0  0  0  0  0  0
    6.2400    4.1399   -0.9983 H   0  0  0  0  0  0  0  0  0  0  0  0
    5.4195    2.7565   -1.7517 H   0  0  0  0  0  0  0  0  0  0  0  0
    4.7168    3.5514   -0.3149 H   0  0  0  0  0  0  0  0  0  0  0  0
   -0.0741   -4.7130    1.2109 H   0  0  0  0  0  0  0  0  0  0  0  0
   -4.2762   -5.1871    0.4524 H   0  0  0  0  0  0  0  0  0  0  0  0
   -4.6295    5.2659    0.4361 H   0  0  0  0  0  0  0  0  0  0  0  0
   -7.7179    2.3314   -0.1222 H   0  0  0  0  0  0  0  0  0  0  0  0
   -2.0834   -6.1608    1.0820 H   0  0  0  0  0  0  0  0  0  0  0  0
   -7.0342    4.6868    0.2486 H   0  0  0  0  0  0  0  0  0  0  0  0
  1  2  2  0  0  0  0
  1  3  2  0  0  0  0
  1  8  1  0  0  0  0
  1  9  1  0  0  0  0
  4 16  2  0  0  0  0
  5  7  1  0  0  0  0
  5 10  1  0  0  0  0
  5 19  1  0  0  0  0
  6 12  1  0  0  0  0
  6 16  1  0  0  0  0
  6 35  1  0  0  0  0
  7 14  2  0  0  0  0
  8 26  1  0  0  0  0
  8 41  1  0  0  0  0
  9 11  2  0  0  0  0
  9 13  1  0  0  0  0
 10 15  2  0  0  0  0
 10 16  1  0  0  0  0
 11 17  1  0  0  0  0
 11 21  1  0  0  0  0
 12 13  2  0  0  0  0
 12 18  1  0  0  0  0
 13 33  1  0  0  0  0
 14 15  1  0  0  0  0
 14 20  1  0  0  0  0
 15 34  1  0  0  0  0
 17 18  2  0  0  0  0
 17 36  1  0  0  0  0
 18 37  1  0  0  0  0
 19 22  2  0  0  0  0
 19 23  1  0  0  0  0
 20 24  2  0  0  0  0
 20 25  1  0  0  0  0
 21 38  1  0  0  0  0
 21 39  1  0  0  0  0
 21 40  1  0  0  0  0
 22 27  1  0  0  0  0
 22 42  1  0  0  0  0
 23 28  2  0  0  0  0
 23 43  1  0  0  0  0
 24 29  1  0  0  0  0
 24 44  1  0  0  0  0
 25 30  2  0  0  0  0
 25 45  1  0  0  0  0
 26 46  1  0  0  0  0
 26 47  1  0  0  0  0
 26 48  1  0  0  0  0
 27 31  2  0  0  0  0
 27 49  1  0  0  0  0
 28 31  1  0  0  0  0
 28 50  1  0  0  0  0
 29 32  2  0  0  0  0
 29 51  1  0  0  0  0
 30 32  1  0  0  0  0
 30 52  1  0  0  0  0
 31 53  1  0  0  0  0
 32 54  1  0  0  0  0
M  END
> <PUBCHEM_COMPOUND_CID>
17395606

> <PUBCHEM_CONFORMER_RMSD>
1

> <PUBCHEM_CONFORMER_DIVERSEORDER>
4
27
25
23
39
8
16
24
29
12
18
28
32
2
1
13
34
21
35
9
7
26
15
10
33
20
19
31
22
36
17
14
6
3
11
38
37
5
30

> <PUBCHEM_MMFF94_PARTIAL_CHARGES>
48
1 1.45
10 -0.24
11 -0.14
12 0.12
13 -0.15
14 0.23
15 -0.15
16 0.71
17 -0.15
18 -0.15
19 -0.02
2 -0.65
20 0.05
21 0.14
22 -0.15
23 -0.15
24 -0.15
25 -0.15
26 0.36
27 -0.15
28 -0.15
29 -0.15
3 -0.65
30 -0.15
31 -0.15
32 -0.15
33 0.15
34 0.15
35 0.37
36 0.15
37 0.15
4 -0.57
41 0.42
42 0.15
43 0.15
44 0.15
45 0.15
49 0.15
5 0.59
50 0.15
51 0.15
52 0.15
53 0.15
54 0.15
6 -0.55
7 -0.71
8 -0.91
9 -0.01

> <PUBCHEM_EFFECTIVE_ROTOR_COUNT>
7

> <PUBCHEM_PHARMACOPHORE_FEATURES>
10
1 2 acceptor
1 3 acceptor
1 4 acceptor
1 6 donor
1 7 acceptor
1 8 donor
5 5 7 10 14 15 rings
6 19 22 23 27 28 31 rings
6 20 24 25 29 30 32 rings
6 9 11 12 13 17 18 rings

> <PUBCHEM_HEAVY_ATOM_COUNT>
32

> <PUBCHEM_ATOM_DEF_STEREO_COUNT>
0

> <PUBCHEM_ATOM_UDEF_STEREO_COUNT>
0

> <PUBCHEM_BOND_DEF_STEREO_COUNT>
0

> <PUBCHEM_BOND_UDEF_STEREO_COUNT>
0

> <PUBCHEM_ISOTOPIC_ATOM_COUNT>
0

> <PUBCHEM_COMPONENT_COUNT>
1

> <PUBCHEM_CACTVS_TAUTO_COUNT>
2

> <PUBCHEM_CONFORMER_ID>
01096F9600000004

> <PUBCHEM_MMFF94_ENERGY>
94.6575

> <PUBCHEM_FEATURE_SELFOVERLAP>
50.761

> <PUBCHEM_SHAPE_FINGERPRINT>
10074138 170 18343582915547296179
10290309 65 18055358199840805181
10319926 262 18410580557438384074
10411042 1 17907292157882343771
10675989 125 17974847581703776737
11007060 377 18334574651319727929
11136131 41 18058730359903477787
11411753 3 18114454566812425598
12107183 9 18199481016221632250
12166972 35 5328162382637466091
12440610 7 18409158913708220599
12623949 98 11815312958262869624
12788726 201 17912631424357555171
12857493 111 18119815708094697757
12925494 130 18410295856345258498
12988421 55 18200326531909829405
13540713 4 18187632597195266950
13560911 23 18266762203062830808
14068700 686 18263919935097971102
14190465 44 18410578353144364588
14565420 104 18195242450499544289
14739800 52 17977103788803111177
14790565 3 18196087970403269149
15230672 131 18199178672173702126
15347591 1 18410853219210359310
15357212 105 18198319815889523540
15361156 5 18191022296489741951
15664445 248 17109026272019846455
15927050 60 18338796840385360975
17980427 26 17977677725251104655
18393751 57 18270956947265849049
19301679 30 18125710189262097627
19304152 47 17683541545850392984
20691028 202 18411416254061748757
21033648 29 18339917216536362761
21049683 118 18341345486235384267
21424621 283 18338516456007816901
22122407 14 16732696130199691264
23522609 53 17703777086908082604
23559900 14 18337662118631107870
23929065 36 18337398123976054035
249999 5 17910107251140767427
2838139 119 18041849531262576469
3383291 50 18412261727812194233
376196 1 18116432729389943167
4058900 60 18192141818834458001
4073 2 18410573964483976566
4144715 1 18340197493580785442
4408954 64 16122693582080820395
5385378 56 17981876760257631689
6009941 240 18334579045150438642
6086070 43 16298679300293440288
6371380 46 18265889353691461134
653340 110 18340206276431047730
6673363 416 17476339623363366500
6695519 79 18120627362708880697
77188 2 17691116038489027335
9658208 31 18339350959125820902
9896288 288 18272645728116681699

> <PUBCHEM_SHAPE_MULTIPOLES>
624.86
17.79
6.38
1.25
13.49
4.91
-0.15
-20.52
-2.12
-11.19
-1.98
2.09
0.06
1.82

> <PUBCHEM_SHAPE_SELFOVERLAP>
1357.454

> <PUBCHEM_SHAPE_VOLUME>
342.2

> <PUBCHEM_COORDINATE_TYPE>
2
5
10

$$$$

