47205207
  -OEChem-06241222583D

 26 27  0     0  0  0  0  0  0999 V2000
   -0.5442    2.5870    0.5147 Cl  0  0  0  0  0  0  0  0  0  0  0  0
   -5.3501    0.7116   -1.0039 Cl  0  0  0  0  0  0  0  0  0  0  0  0
   -4.1382   -1.9365   -0.4505 F   0  0  0  0  0  0  0  0  0  0  0  0
    0.5891    0.0715    2.0173 O   0  0  0  0  0  0  0  0  0  0  0  0
    0.9818   -1.1854    0.1087 N   0  0  0  0  0  0  0  0  0  0  0  0
    3.7142   -0.4849   -1.3276 N   0  0  0  0  0  0  0  0  0  0  0  0
    4.6395    0.4626   -1.5561 N   0  0  0  0  0  0  0  0  0  0  0  0
    2.3271   -1.5903    0.4484 C   0  0  0  0  0  0  0  0  0  0  0  0
    3.3485   -0.5938   -0.0180 C   0  0  0  0  0  0  0  0  0  0  0  0
   -1.1537   -0.0714    0.4552 C   0  0  0  0  0  0  0  0  0  0  0  0
    0.1929   -0.3710    0.9266 C   0  0  0  0  0  0  0  0  0  0  0  0
    4.0862    0.3478    0.6571 C   0  0  0  0  0  0  0  0  0  0  0  0
   -1.5856    1.2372    0.2378 C   0  0  0  0  0  0  0  0  0  0  0  0
   -2.0198   -1.1395    0.2214 C   0  0  0  0  0  0  0  0  0  0  0  0
   -2.8835    1.4774   -0.2134 C   0  0  0  0  0  0  0  0  0  0  0  0
   -3.3176   -0.8993   -0.2302 C   0  0  0  0  0  0  0  0  0  0  0  0
   -3.7495    0.4092   -0.4474 C   0  0  0  0  0  0  0  0  0  0  0  0
    4.8628    0.9679   -0.3400 C   0  0  0  0  0  0  0  0  0  0  0  0
    2.5066   -2.5634   -0.0212 H   0  0  0  0  0  0  0  0  0  0  0  0
    2.3993   -1.7205    1.5338 H   0  0  0  0  0  0  0  0  0  0  0  0
    0.6053   -1.5024   -0.7803 H   0  0  0  0  0  0  0  0  0  0  0  0
   -1.7029   -2.1655    0.3905 H   0  0  0  0  0  0  0  0  0  0  0  0
    4.0648    0.5569    1.7166 H   0  0  0  0  0  0  0  0  0  0  0  0
    3.3740   -1.0217   -2.1158 H   0  0  0  0  0  0  0  0  0  0  0  0
   -3.2219    2.4974   -0.3834 H   0  0  0  0  0  0  0  0  0  0  0  0
    5.5817    1.7671   -0.2310 H   0  0  0  0  0  0  0  0  0  0  0  0
  1 13  1  0  0  0  0
  2 17  1  0  0  0  0
  3 16  1  0  0  0  0
  4 11  2  0  0  0  0
  5  8  1  0  0  0  0
  5 11  1  0  0  0  0
  5 21  1  0  0  0  0
  6  7  1  0  0  0  0
  6  9  1  0  0  0  0
  6 24  1  0  0  0  0
  7 18  2  0  0  0  0
  8  9  1  0  0  0  0
  8 19  1  0  0  0  0
  8 20  1  0  0  0  0
  9 12  2  0  0  0  0
 10 11  1  0  0  0  0
 10 13  1  0  0  0  0
 10 14  2  0  0  0  0
 12 18  1  0  0  0  0
 12 23  1  0  0  0  0
 13 15  2  0  0  0  0
 14 16  1  0  0  0  0
 14 22  1  0  0  0  0
 15 17  1  0  0  0  0
 15 25  1  0  0  0  0
 16 17  2  0  0  0  0
 18 26  1  0  0  0  0
M  END
> <PUBCHEM_COMPOUND_CID>
47205207

> <PUBCHEM_CONFORMER_RMSD>
0.6

> <PUBCHEM_CONFORMER_DIVERSEORDER>
4
59
29
24
41
50
21
54
27
39
57
47
20
5
33
44
6
17
25
55
53
13
42
22
46
32
14
18
58
45
26
48
10
52
30
11
23
37
56
35
51
19
49
28
2
31
43
16
1
7
36
15
34
3
38
8
12
40
9

> <PUBCHEM_MMFF94_PARTIAL_CHARGES>
24
1 -0.18
10 0.09
11 0.54
12 -0.15
13 0.18
14 -0.15
15 -0.15
16 0.19
17 0.18
18 0.14
2 -0.18
21 0.37
22 0.15
23 0.15
24 0.27
25 0.15
26 0.15
3 -0.19
4 -0.57
5 -0.73
6 0.3
7 -0.71
8 0.48
9 -0.33

> <PUBCHEM_EFFECTIVE_ROTOR_COUNT>
4

> <PUBCHEM_PHARMACOPHORE_FEATURES>
6
1 4 acceptor
1 5 donor
1 6 donor
1 7 acceptor
5 6 7 9 12 18 rings
6 10 13 14 15 16 17 rings

> <PUBCHEM_HEAVY_ATOM_COUNT>
18

> <PUBCHEM_ATOM_DEF_STEREO_COUNT>
0

> <PUBCHEM_ATOM_UDEF_STEREO_COUNT>
0

> <PUBCHEM_BOND_DEF_STEREO_COUNT>
0

> <PUBCHEM_BOND_UDEF_STEREO_COUNT>
0

> <PUBCHEM_ISOTOPIC_ATOM_COUNT>
0

> <PUBCHEM_COMPONENT_COUNT>
1

> <PUBCHEM_CACTVS_TAUTO_COUNT>
4

> <PUBCHEM_CONFORMER_ID>
02D04B5700000004

> <PUBCHEM_MMFF94_ENERGY>
30.2838

> <PUBCHEM_FEATURE_SELFOVERLAP>
30.446

> <PUBCHEM_SHAPE_MULTIPOLES>
346.08
10.62
1.88
1.18
2.83
0.5
0.05
0.8
-4.75
-0.88
0.16
0.75
0.09
-0.21

> <PUBCHEM_SHAPE_SELFOVERLAP>
723.944

> <PUBCHEM_SHAPE_VOLUME>
198.4

> <PUBCHEM_COORDINATE_TYPE>
2
5
10

$$$$

