17395853
  -OEChem-06241222522D

 43 45  0     0  0  0  0  0  0999 V2000
    7.8916    1.6284    0.0000 S   0  0  0  0  0  0  0  0  0  0  0  0
    9.5552    2.2670    0.0000 S   0  0  0  0  0  0  0  0  0  0  0  0
    7.9961    2.6229    0.0000 O   0  0  0  0  0  0  0  0  0  0  0  0
    7.7870    0.6339    0.0000 O   0  0  0  0  0  0  0  0  0  0  0  0
    3.7320    0.6920    0.0000 N   0  0  0  0  0  0  0  0  0  0  0  0
    3.8366    1.6865    0.0000 N   0  0  0  0  0  0  0  0  0  0  0  0
    6.8970    1.7329    0.0000 N   0  0  0  0  0  0  0  0  0  0  0  0
    5.3147    1.0284    0.0000 C   0  0  0  0  0  0  0  0  0  0  0  0
    4.6456    0.2853    0.0000 C   0  0  0  0  0  0  0  0  0  0  0  0
    6.3092    0.9239    0.0000 C   0  0  0  0  0  0  0  0  0  0  0  0
    4.8147    1.8944    0.0000 C   0  0  0  0  0  0  0  0  0  0  0  0
    2.8660    0.1920    0.0000 C   0  0  0  0  0  0  0  0  0  0  0  0
    4.8535   -0.6929    0.0000 C   0  0  0  0  0  0  0  0  0  0  0  0
    2.8660   -0.8080    0.0000 C   0  0  0  0  0  0  0  0  0  0  0  0
    5.2215    2.8080    0.0000 C   0  0  0  0  0  0  0  0  0  0  0  0
    8.8861    1.5238    0.0000 C   0  0  0  0  0  0  0  0  0  0  0  0
    2.0000   -1.3080    0.0000 C   0  0  0  0  0  0  0  0  0  0  0  0
    3.7320   -1.3080    0.0000 C   0  0  0  0  0  0  0  0  0  0  0  0
    2.0000   -2.3080    0.0000 C   0  0  0  0  0  0  0  0  0  0  0  0
    3.7320   -2.3080    0.0000 C   0  0  0  0  0  0  0  0  0  0  0  0
    9.3861    0.6578    0.0000 C   0  0  0  0  0  0  0  0  0  0  0  0
    2.8660   -2.8080    0.0000 C   0  0  0  0  0  0  0  0  0  0  0  0
   10.3642    0.8657    0.0000 C   0  0  0  0  0  0  0  0  0  0  0  0
   10.4688    1.8603    0.0000 C   0  0  0  0  0  0  0  0  0  0  0  0
    6.1384    0.3279    0.0000 H   0  0  0  0  0  0  0  0  0  0  0  0
    6.8665    0.6521    0.0000 H   0  0  0  0  0  0  0  0  0  0  0  0
    2.6540    0.7746    0.0000 H   0  0  0  0  0  0  0  0  0  0  0  0
    2.2554    0.0843    0.0000 H   0  0  0  0  0  0  0  0  0  0  0  0
    4.2471   -0.8218    0.0000 H   0  0  0  0  0  0  0  0  0  0  0  0
    4.9824   -1.2993    0.0000 H   0  0  0  0  0  0  0  0  0  0  0  0
    5.4600   -0.5640    0.0000 H   0  0  0  0  0  0  0  0  0  0  0  0
    6.6449    2.2993    0.0000 H   0  0  0  0  0  0  0  0  0  0  0  0
    5.7879    2.5558    0.0000 H   0  0  0  0  0  0  0  0  0  0  0  0
    5.4736    3.3744    0.0000 H   0  0  0  0  0  0  0  0  0  0  0  0
    4.6551    3.0602    0.0000 H   0  0  0  0  0  0  0  0  0  0  0  0
    1.4631   -0.9980    0.0000 H   0  0  0  0  0  0  0  0  0  0  0  0
    4.2690   -0.9980    0.0000 H   0  0  0  0  0  0  0  0  0  0  0  0
    9.1339    0.0914    0.0000 H   0  0  0  0  0  0  0  0  0  0  0  0
    1.4631   -2.6180    0.0000 H   0  0  0  0  0  0  0  0  0  0  0  0
    4.2690   -2.6180    0.0000 H   0  0  0  0  0  0  0  0  0  0  0  0
    2.8660   -3.4280    0.0000 H   0  0  0  0  0  0  0  0  0  0  0  0
   10.8250    0.4509    0.0000 H   0  0  0  0  0  0  0  0  0  0  0  0
   11.0057    2.1703    0.0000 H   0  0  0  0  0  0  0  0  0  0  0  0
  1  3  2  0  0  0  0
  1  4  2  0  0  0  0
  1  7  1  0  0  0  0
  1 16  1  0  0  0  0
  2 16  1  0  0  0  0
  2 24  1  0  0  0  0
  5  6  1  0  0  0  0
  5  9  1  0  0  0  0
  5 12  1  0  0  0  0
  6 11  2  0  0  0  0
  7 10  1  0  0  0  0
  7 32  1  0  0  0  0
  8  9  2  0  0  0  0
  8 10  1  0  0  0  0
  8 11  1  0  0  0  0
  9 13  1  0  0  0  0
 10 25  1  0  0  0  0
 10 26  1  0  0  0  0
 11 15  1  0  0  0  0
 12 14  1  0  0  0  0
 12 27  1  0  0  0  0
 12 28  1  0  0  0  0
 13 29  1  0  0  0  0
 13 30  1  0  0  0  0
 13 31  1  0  0  0  0
 14 17  2  0  0  0  0
 14 18  1  0  0  0  0
 15 33  1  0  0  0  0
 15 34  1  0  0  0  0
 15 35  1  0  0  0  0
 16 21  2  0  0  0  0
 17 19  1  0  0  0  0
 17 36  1  0  0  0  0
 18 20  2  0  0  0  0
 18 37  1  0  0  0  0
 19 22  2  0  0  0  0
 19 39  1  0  0  0  0
 20 22  1  0  0  0  0
 20 40  1  0  0  0  0
 21 23  1  0  0  0  0
 21 38  1  0  0  0  0
 22 41  1  0  0  0  0
 23 24  2  0  0  0  0
 23 42  1  0  0  0  0
 24 43  1  0  0  0  0
M  END
> <PUBCHEM_COMPOUND_CID>
17395853

> <PUBCHEM_COMPOUND_CANONICALIZED>
1

> <PUBCHEM_CACTVS_COMPLEXITY>
503

> <PUBCHEM_CACTVS_HBOND_ACCEPTOR>
5

> <PUBCHEM_CACTVS_HBOND_DONOR>
1

> <PUBCHEM_CACTVS_ROTATABLE_BOND>
6

> <PUBCHEM_CACTVS_SUBSKEYS>
AAADceB7MABgAAAAAAAAAAAAAAAAAWJAAAAwAAAAAAAAAAAB8AAAHAQYQAAADAjFXgSygZJIAAqmAyRiRHDTBZAhiBBY2Lg4RJgIICLg0dGEpAhgiADoyAcQgAAOAAAAAAAAAAAAAAAAAAAAAAAAAAAAAA==

> <PUBCHEM_IUPAC_OPENEYE_NAME>
N-[(1-benzyl-3,5-dimethyl-pyrazol-4-yl)methyl]thiophene-2-sulfonamide

> <PUBCHEM_IUPAC_CAS_NAME>
N-[[3,5-dimethyl-1-(phenylmethyl)-4-pyrazolyl]methyl]-2-thiophenesulfonamide

> <PUBCHEM_IUPAC_NAME>
N-[(1-benzyl-3,5-dimethylpyrazol-4-yl)methyl]thiophene-2-sulfonamide

> <PUBCHEM_IUPAC_SYSTEMATIC_NAME>
N-[[3,5-dimethyl-1-(phenylmethyl)pyrazol-4-yl]methyl]thiophene-2-sulfonamide

> <PUBCHEM_IUPAC_TRADITIONAL_NAME>
N-[(1-benzyl-3,5-dimethyl-pyrazol-4-yl)methyl]thiophene-2-sulfonamide

> <PUBCHEM_IUPAC_INCHI>
InChI=1S/C17H19N3O2S2/c1-13-16(11-18-24(21,22)17-9-6-10-23-17)14(2)20(19-13)12-15-7-4-3-5-8-15/h3-10,18H,11-12H2,1-2H3

> <PUBCHEM_IUPAC_INCHIKEY>
VAEJLJBUSHBJKI-UHFFFAOYSA-N

> <PUBCHEM_XLOGP3_AA>
3.1

> <PUBCHEM_EXACT_MASS>
361.091869

> <PUBCHEM_MOLECULAR_FORMULA>
C17H19N3O2S2

> <PUBCHEM_MOLECULAR_WEIGHT>
361.48166

> <PUBCHEM_OPENEYE_CAN_SMILES>
CC1=C(C(=NN1CC2=CC=CC=C2)C)CNS(=O)(=O)C3=CC=CS3

> <PUBCHEM_OPENEYE_ISO_SMILES>
CC1=C(C(=NN1CC2=CC=CC=C2)C)CNS(=O)(=O)C3=CC=CS3

> <PUBCHEM_CACTVS_TPSA>
101

> <PUBCHEM_MONOISOTOPIC_WEIGHT>
361.091869

> <PUBCHEM_TOTAL_CHARGE>
0

> <PUBCHEM_HEAVY_ATOM_COUNT>
24

> <PUBCHEM_ATOM_DEF_STEREO_COUNT>
0

> <PUBCHEM_ATOM_UDEF_STEREO_COUNT>
0

> <PUBCHEM_BOND_DEF_STEREO_COUNT>
0

> <PUBCHEM_BOND_UDEF_STEREO_COUNT>
0

> <PUBCHEM_ISOTOPIC_ATOM_COUNT>
0

> <PUBCHEM_COMPONENT_COUNT>
1

> <PUBCHEM_CACTVS_TAUTO_COUNT>
1

> <PUBCHEM_COORDINATE_TYPE>
1
5
255

> <PUBCHEM_BONDANNOTATIONS>
14  17  8
14  18  8
16  21  8
17  19  8
18  20  8
19  22  8
2  16  8
2  24  8
20  22  8
21  23  8
23  24  8
5  6  8
5  9  8
6  11  8
8  11  8
8  9  8

$$$$

