17395858
  -OEChem-06241222523D

 56 59  0     1  0  0  0  0  0999 V2000
   -3.9029   -0.9156   -2.1120 O   0  0  0  0  0  0  0  0  0  0  0  0
   -3.0946    0.7201    2.1316 O   0  0  0  0  0  0  0  0  0  0  0  0
    7.9640    1.3256   -0.2303 O   0  0  0  0  0  0  0  0  0  0  0  0
   -3.2369   -0.3249    0.0484 N   0  0  0  0  0  0  0  0  0  0  0  0
   -0.9104   -0.8870   -0.0097 N   0  0  1  0  0  0  0  0  0  0  0  0
    5.3739    0.2446   -0.0805 N   0  0  0  0  0  0  0  0  0  0  0  0
   -4.8069    1.0442   -1.0088 C   0  0  2  0  0  0  0  0  0  0  0  0
   -4.6569    1.4940    0.4490 C   0  0  1  0  0  0  0  0  0  0  0  0
   -6.2495    0.7882   -1.4305 C   0  0  0  0  0  0  0  0  0  0  0  0
   -5.9412    1.3741    1.2717 C   0  0  0  0  0  0  0  0  0  0  0  0
   -6.9998   -0.1474   -0.4829 C   0  0  0  0  0  0  0  0  0  0  0  0
   -6.6839    0.0699    0.9970 C   0  0  0  0  0  0  0  0  0  0  0  0
   -3.9465   -0.1941   -1.1249 C   0  0  0  0  0  0  0  0  0  0  0  0
   -3.5643    0.6096    1.0067 C   0  0  0  0  0  0  0  0  0  0  0  0
   -2.2611   -1.3718    0.2834 C   0  0  0  0  0  0  0  0  0  0  0  0
    0.0771   -1.6845    0.7210 C   0  0  0  0  0  0  0  0  0  0  0  0
   -0.6195   -0.9352   -1.4456 C   0  0  0  0  0  0  0  0  0  0  0  0
    1.4778   -1.1745    0.5092 C   0  0  0  0  0  0  0  0  0  0  0  0
    4.0729   -0.2293    0.1166 C   0  0  0  0  0  0  0  0  0  0  0  0
    5.5880    1.5793   -0.6506 C   0  0  0  0  0  0  0  0  0  0  0  0
    6.4277   -0.2227    0.8307 C   0  0  0  0  0  0  0  0  0  0  0  0
    1.7399    0.1938    0.5801 C   0  0  0  0  0  0  0  0  0  0  0  0
    2.5133   -2.0700    0.2421 C   0  0  0  0  0  0  0  0  0  0  0  0
    3.0375    0.6664    0.3838 C   0  0  0  0  0  0  0  0  0  0  0  0
    3.8108   -1.5975    0.0457 C   0  0  0  0  0  0  0  0  0  0  0  0
    6.9984    1.6755   -1.2214 C   0  0  0  0  0  0  0  0  0  0  0  0
    7.7931   -0.0307    0.1804 C   0  0  0  0  0  0  0  0  0  0  0  0
   -4.3631    1.7980   -1.6717 H   0  0  0  0  0  0  0  0  0  0  0  0
   -4.2951    2.5287    0.4876 H   0  0  0  0  0  0  0  0  0  0  0  0
   -6.7781    1.7496   -1.4656 H   0  0  0  0  0  0  0  0  0  0  0  0
   -6.2903    0.3783   -2.4468 H   0  0  0  0  0  0  0  0  0  0  0  0
   -5.7204    1.4460    2.3433 H   0  0  0  0  0  0  0  0  0  0  0  0
   -6.6018    2.2166    1.0311 H   0  0  0  0  0  0  0  0  0  0  0  0
   -6.7757   -1.1899   -0.7410 H   0  0  0  0  0  0  0  0  0  0  0  0
   -8.0770   -0.0247   -0.6499 H   0  0  0  0  0  0  0  0  0  0  0  0
   -6.0812   -0.7721    1.3603 H   0  0  0  0  0  0  0  0  0  0  0  0
   -7.6137    0.0448    1.5772 H   0  0  0  0  0  0  0  0  0  0  0  0
   -2.5145   -2.2595   -0.3091 H   0  0  0  0  0  0  0  0  0  0  0  0
   -2.3482   -1.6446    1.3425 H   0  0  0  0  0  0  0  0  0  0  0  0
   -0.1192   -1.6340    1.8002 H   0  0  0  0  0  0  0  0  0  0  0  0
    0.0064   -2.7417    0.4313 H   0  0  0  0  0  0  0  0  0  0  0  0
    0.3593   -0.5181   -1.7015 H   0  0  0  0  0  0  0  0  0  0  0  0
   -0.6693   -1.9562   -1.8425 H   0  0  0  0  0  0  0  0  0  0  0  0
   -1.3314   -0.3205   -2.0048 H   0  0  0  0  0  0  0  0  0  0  0  0
    4.8703    1.7896   -1.4523 H   0  0  0  0  0  0  0  0  0  0  0  0
    5.4655    2.3322    0.1378 H   0  0  0  0  0  0  0  0  0  0  0  0
    6.3718    0.3633    1.7565 H   0  0  0  0  0  0  0  0  0  0  0  0
    6.3094   -1.2791    1.0952 H   0  0  0  0  0  0  0  0  0  0  0  0
    0.9518    0.9080    0.8036 H   0  0  0  0  0  0  0  0  0  0  0  0
    2.3233   -3.1383    0.1819 H   0  0  0  0  0  0  0  0  0  0  0  0
    7.2022    2.7019   -1.5425 H   0  0  0  0  0  0  0  0  0  0  0  0
    7.1209    1.0240   -2.0952 H   0  0  0  0  0  0  0  0  0  0  0  0
    7.9204   -0.6927   -0.6846 H   0  0  0  0  0  0  0  0  0  0  0  0
    8.5849   -0.2668    0.8983 H   0  0  0  0  0  0  0  0  0  0  0  0
    3.2085    1.7362    0.4627 H   0  0  0  0  0  0  0  0  0  0  0  0
    4.6016   -2.3099   -0.1746 H   0  0  0  0  0  0  0  0  0  0  0  0
  1 13  2  0  0  0  0
  2 14  2  0  0  0  0
  3 26  1  0  0  0  0
  3 27  1  0  0  0  0
  4 13  1  0  0  0  0
  4 14  1  0  0  0  0
  4 15  1  0  0  0  0
  5 15  1  0  0  0  0
  5 16  1  0  0  0  0
  5 17  1  0  0  0  0
  6 19  1  0  0  0  0
  6 20  1  0  0  0  0
  6 21  1  0  0  0  0
  7  8  1  0  0  0  0
  7  9  1  0  0  0  0
  7 13  1  0  0  0  0
  7 28  1  0  0  0  0
  8 10  1  0  0  0  0
  8 14  1  0  0  0  0
  8 29  1  0  0  0  0
  9 11  1  0  0  0  0
  9 30  1  0  0  0  0
  9 31  1  0  0  0  0
 10 12  1  0  0  0  0
 10 32  1  0  0  0  0
 10 33  1  0  0  0  0
 11 12  1  0  0  0  0
 11 34  1  0  0  0  0
 11 35  1  0  0  0  0
 12 36  1  0  0  0  0
 12 37  1  0  0  0  0
 15 38  1  0  0  0  0
 15 39  1  0  0  0  0
 16 18  1  0  0  0  0
 16 40  1  0  0  0  0
 16 41  1  0  0  0  0
 17 42  1  0  0  0  0
 17 43  1  0  0  0  0
 17 44  1  0  0  0  0
 18 22  2  0  0  0  0
 18 23  1  0  0  0  0
 19 24  2  0  0  0  0
 19 25  1  0  0  0  0
 20 26  1  0  0  0  0
 20 45  1  0  0  0  0
 20 46  1  0  0  0  0
 21 27  1  0  0  0  0
 21 47  1  0  0  0  0
 21 48  1  0  0  0  0
 22 24  1  0  0  0  0
 22 49  1  0  0  0  0
 23 25  2  0  0  0  0
 23 50  1  0  0  0  0
 24 55  1  0  0  0  0
 25 56  1  0  0  0  0
 26 51  1  0  0  0  0
 26 52  1  0  0  0  0
 27 53  1  0  0  0  0
 27 54  1  0  0  0  0
M  END
> <PUBCHEM_COMPOUND_CID>
17395858

> <PUBCHEM_CONFORMER_RMSD>
1.2

> <PUBCHEM_CONFORMER_DIVERSEORDER>
1
14
10
6
5
23
18
16
24
13
21
17
15
2
22
3
19
12
25
9
4
7
8
11
20

> <PUBCHEM_MMFF94_PARTIAL_CHARGES>
27
1 -0.57
13 0.57
14 0.57
15 0.57
16 0.41
17 0.27
18 -0.14
19 0.1
2 -0.57
20 0.37
21 0.37
22 -0.15
23 -0.15
24 -0.15
25 -0.15
26 0.28
27 0.28
3 -0.56
4 -0.42
49 0.15
5 -0.81
50 0.15
55 0.15
56 0.15
6 -0.84
7 0.06
8 0.06

> <PUBCHEM_EFFECTIVE_ROTOR_COUNT>
7.2

> <PUBCHEM_PHARMACOPHORE_FEATURES>
9
1 1 acceptor
1 2 acceptor
1 3 acceptor
1 5 cation
1 6 cation
5 4 7 8 13 14 rings
6 18 19 22 23 24 25 rings
6 3 6 20 21 26 27 rings
6 7 8 9 10 11 12 rings

> <PUBCHEM_HEAVY_ATOM_COUNT>
27

> <PUBCHEM_ATOM_DEF_STEREO_COUNT>
0

> <PUBCHEM_ATOM_UDEF_STEREO_COUNT>
2

> <PUBCHEM_BOND_DEF_STEREO_COUNT>
0

> <PUBCHEM_BOND_UDEF_STEREO_COUNT>
0

> <PUBCHEM_ISOTOPIC_ATOM_COUNT>
0

> <PUBCHEM_COMPONENT_COUNT>
1

> <PUBCHEM_CACTVS_TAUTO_COUNT>
3

> <PUBCHEM_CONFORMER_ID>
0109709200000001

> <PUBCHEM_MMFF94_ENERGY>
76.2977

> <PUBCHEM_FEATURE_SELFOVERLAP>
45.981

> <PUBCHEM_SHAPE_FINGERPRINT>
10 15 17418372488959853523
10391435 84 6338660895361847086
106641 1 17489864921843091019
10670039 82 17530964717528150257
10674148 151 4751161800675274643
10730089 173 17458064876456304849
11089746 13 17894634738799019784
11315181 36 18259987055056101233
12236239 1 18113901606409680763
12596602 18 17060060380237135049
13631057 29 18339929195870597075
13668630 136 5400800570465184988
14251764 18 18334296469791707218
14394314 77 18262510503020470689
14849402 71 18270676472230658492
15183329 4 16949995942144758414
15188451 53 11743840244297213214
15301273 46 15482675697487919314
15326921 28 12821922463985167367
15348495 7 15841261559337713064
15461852 350 16558746793890301355
15575132 122 18188772876805583661
15716309 27 9943806694664667914
1577012 14 17967533523408707963
17780758 139 12751237008712606573
18335252 114 18411704288312590476
18335252 98 18411976945742996123
18608769 82 18271239422806169555
18681886 176 16877955918343291531
20281389 69 17775005687263198924
21033648 29 17346318271373031239
21033650 10 15936677259642051011
21150785 3 16515686637196359682
21267235 1 9223239555448760320
22224240 67 16917068849841855802
22956985 138 10590117252456544600
2297311 6 15647057071239203147
23198884 109 17385442132866693408
23559900 14 4750579093244453538
2838139 119 18335144189194201640
3004659 81 13984666953486108562
397830 11 15697424539071526076
4073 2 18060414690682419842
5364581 5 16127513875047183108
543368 44 18410294718405109191
5470011 282 13840264767859973888
6328613 192 18340203004092865640
6608658 132 17822007652892549209
9953998 17 16630524038612433241

> <PUBCHEM_SHAPE_MULTIPOLES>
523.1
23.19
1.74
1.42
16.76
0.14
0.13
-11
0.87
1.55
0.11
-2.24
-0.18
-1.16

> <PUBCHEM_SHAPE_SELFOVERLAP>
1112.132

> <PUBCHEM_SHAPE_VOLUME>
290

> <PUBCHEM_COORDINATE_TYPE>
2
5
10

$$$$

