4185
  -OEChem-06251223562D

104111  0     1  0  0  0  0  0999 V2000
    2.9042    0.8607    0.0000 O   0  0  0  0  0  0  0  0  0  0  0  0
    9.8324    4.8607    0.0000 O   0  0  0  0  0  0  0  0  0  0  0  0
    6.3683    0.8607    0.0000 O   0  0  0  0  0  0  0  0  0  0  0  0
   11.5644    1.8607    0.0000 O   0  0  0  0  0  0  0  0  0  0  0  0
    8.9663   -2.6393    0.0000 O   0  0  0  0  0  0  0  0  0  0  0  0
    9.8324   -2.1393    0.0000 O   0  0  0  0  0  0  0  0  0  0  0  0
    8.1221   -4.1708    0.0000 O   0  0  0  0  0  0  0  0  0  0  0  0
   11.5808   -2.1739    0.0000 O   0  0  0  0  0  0  0  0  0  0  0  0
    2.8522   -2.1878    0.0000 N   0  0  0  0  0  0  0  0  0  0  0  0
    7.1663    3.3815    0.0000 N   0  0  0  0  0  0  0  0  0  0  0  0
    3.7542   -2.7086    0.0000 C   0  0  3  0  0  0  0  0  0  0  0  0
    7.1663    2.3399    0.0000 C   0  0  3  0  0  0  0  0  0  0  0  0
    2.8602   -1.1462    0.0000 C   0  0  3  0  0  0  0  0  0  0  0  0
    8.0724    3.8954    0.0000 C   0  0  3  0  0  0  0  0  0  0  0  0
    8.0724    1.8260    0.0000 C   0  0  0  0  0  0  0  0  0  0  0  0
    4.6523   -2.1808    0.0000 C   0  0  0  0  0  0  0  0  0  0  0  0
    8.9663    2.3607    0.0000 C   0  0  0  0  0  0  0  0  0  0  0  0
    4.6362   -1.1393    0.0000 C   0  0  0  0  0  0  0  0  0  0  0  0
    3.7702   -0.6393    0.0000 C   0  0  0  0  0  0  0  0  0  0  0  0
    8.9663    3.3607    0.0000 C   0  0  0  0  0  0  0  0  0  0  0  0
    5.5022   -0.6393    0.0000 C   0  0  0  0  0  0  0  0  0  0  0  0
    9.8324    1.8607    0.0000 C   0  0  0  0  0  0  0  0  0  0  0  0
    6.3683   -1.1393    0.0000 C   0  0  0  0  0  0  0  0  0  0  0  0
    9.8324    0.8607    0.0000 C   0  0  0  0  0  0  0  0  0  0  0  0
    6.3022    1.8366    0.0000 C   0  0  0  0  0  0  0  0  0  0  0  0
    3.7581   -3.7086    0.0000 C   0  0  0  0  0  0  0  0  0  0  0  0
    3.7702    0.3607    0.0000 C   0  0  0  0  0  0  0  0  0  0  0  0
    9.8324    3.8607    0.0000 C   0  0  0  0  0  0  0  0  0  0  0  0
    8.0840    4.8953    0.0000 C   0  0  0  0  0  0  0  0  0  0  0  0
    2.0000   -0.6362    0.0000 C   0  0  0  0  0  0  0  0  0  0  0  0
    5.5022    0.3607    0.0000 C   0  0  0  0  0  0  0  0  0  0  0  0
   10.6984    2.3607    0.0000 C   0  0  0  0  0  0  0  0  0  0  0  0
   10.6984    0.3607    0.0000 C   0  0  0  0  0  0  0  0  0  0  0  0
    6.3683   -2.1393    0.0000 C   0  0  0  0  0  0  0  0  0  0  0  0
    8.1003   -1.1393    0.0000 C   0  0  0  0  0  0  0  0  0  0  0  0
    8.9663   -0.6393    0.0000 C   0  0  0  0  0  0  0  0  0  0  0  0
    8.9663    0.3607    0.0000 C   0  0  0  0  0  0  0  0  0  0  0  0
    7.2343   -0.6393    0.0000 C   0  0  0  0  0  0  0  0  0  0  0  0
    4.6362    0.8607    0.0000 C   0  0  0  0  0  0  0  0  0  0  0  0
   10.6984    3.3607    0.0000 C   0  0  0  0  0  0  0  0  0  0  0  0
    7.2343   -2.6393    0.0000 C   0  0  0  0  0  0  0  0  0  0  0  0
   10.6984   -0.6393    0.0000 C   0  0  0  0  0  0  0  0  0  0  0  0
    9.8324   -1.1393    0.0000 C   0  0  0  0  0  0  0  0  0  0  0  0
    8.1003   -2.1393    0.0000 C   0  0  0  0  0  0  0  0  0  0  0  0
    5.4583   -2.6462    0.0000 C   0  0  0  0  0  0  0  0  0  0  0  0
   11.5923    0.8954    0.0000 C   0  0  0  0  0  0  0  0  0  0  0  0
   11.5923   -1.1740    0.0000 C   0  0  0  0  0  0  0  0  0  0  0  0
    7.2504   -3.6808    0.0000 C   0  0  0  0  0  0  0  0  0  0  0  0
    5.4502   -3.6878    0.0000 C   0  0  0  0  0  0  0  0  0  0  0  0
   12.4984    0.3815    0.0000 C   0  0  0  0  0  0  0  0  0  0  0  0
    6.3523   -4.2086    0.0000 C   0  0  0  0  0  0  0  0  0  0  0  0
   12.4984   -0.6601    0.0000 C   0  0  0  0  0  0  0  0  0  0  0  0
   13.3625    0.8848    0.0000 C   0  0  0  0  0  0  0  0  0  0  0  0
    4.5823   -4.1844    0.0000 C   0  0  0  0  0  0  0  0  0  0  0  0
   12.4410   -2.6839    0.0000 C   0  0  0  0  0  0  0  0  0  0  0  0
    8.1337   -5.1707    0.0000 C   0  0  0  0  0  0  0  0  0  0  0  0
    3.2179   -3.0196    0.0000 H   0  0  0  0  0  0  0  0  0  0  0  0
    6.6288    2.6488    0.0000 H   0  0  0  0  0  0  0  0  0  0  0  0
    2.3203   -1.4510    0.0000 H   0  0  0  0  0  0  0  0  0  0  0  0
    7.5385    4.2105    0.0000 H   0  0  0  0  0  0  0  0  0  0  0  0
    4.8703   -2.7612    0.0000 H   0  0  0  0  0  0  0  0  0  0  0  0
    5.2614   -2.0653    0.0000 H   0  0  0  0  0  0  0  0  0  0  0  0
    7.6788    1.3470    0.0000 H   0  0  0  0  0  0  0  0  0  0  0  0
    8.4770    1.3562    0.0000 H   0  0  0  0  0  0  0  0  0  0  0  0
    6.6306    3.6936    0.0000 H   0  0  0  0  0  0  0  0  0  0  0  0
    2.3140   -2.4957    0.0000 H   0  0  0  0  0  0  0  0  0  0  0  0
    3.1381   -3.7110    0.0000 H   0  0  0  0  0  0  0  0  0  0  0  0
    3.7605   -4.3286    0.0000 H   0  0  0  0  0  0  0  0  0  0  0  0
    4.3781   -3.7062    0.0000 H   0  0  0  0  0  0  0  0  0  0  0  0
    5.9902    2.3723    0.0000 H   0  0  0  0  0  0  0  0  0  0  0  0
    5.7665    1.5245    0.0000 H   0  0  0  0  0  0  0  0  0  0  0  0
    6.6143    1.3008    0.0000 H   0  0  0  0  0  0  0  0  0  0  0  0
    2.3162   -0.1029    0.0000 H   0  0  0  0  0  0  0  0  0  0  0  0
    1.4667   -0.3200    0.0000 H   0  0  0  0  0  0  0  0  0  0  0  0
    1.6838   -1.1695    0.0000 H   0  0  0  0  0  0  0  0  0  0  0  0
    8.7039    4.8881    0.0000 H   0  0  0  0  0  0  0  0  0  0  0  0
    8.0911    5.5152    0.0000 H   0  0  0  0  0  0  0  0  0  0  0  0
    7.4640    4.9025    0.0000 H   0  0  0  0  0  0  0  0  0  0  0  0
    7.2343   -0.0193    0.0000 H   0  0  0  0  0  0  0  0  0  0  0  0
    8.4294    0.6707    0.0000 H   0  0  0  0  0  0  0  0  0  0  0  0
    4.6362    1.4807    0.0000 H   0  0  0  0  0  0  0  0  0  0  0  0
   11.2353    3.6707    0.0000 H   0  0  0  0  0  0  0  0  0  0  0  0
    4.9250   -2.3300    0.0000 H   0  0  0  0  0  0  0  0  0  0  0  0
   11.5852    1.5153    0.0000 H   0  0  0  0  0  0  0  0  0  0  0  0
    2.9042    1.4807    0.0000 H   0  0  0  0  0  0  0  0  0  0  0  0
   10.3693    5.1707    0.0000 H   0  0  0  0  0  0  0  0  0  0  0  0
    6.3547   -4.8286    0.0000 H   0  0  0  0  0  0  0  0  0  0  0  0
   13.0341   -0.9722    0.0000 H   0  0  0  0  0  0  0  0  0  0  0  0
   12.1014    2.1707    0.0000 H   0  0  0  0  0  0  0  0  0  0  0  0
    6.9052    0.5507    0.0000 H   0  0  0  0  0  0  0  0  0  0  0  0
    8.9663   -3.2593    0.0000 H   0  0  0  0  0  0  0  0  0  0  0  0
   10.3693   -2.4493    0.0000 H   0  0  0  0  0  0  0  0  0  0  0  0
   13.6746    0.3491    0.0000 H   0  0  0  0  0  0  0  0  0  0  0  0
   13.8982    1.1969    0.0000 H   0  0  0  0  0  0  0  0  0  0  0  0
   13.0504    1.4206    0.0000 H   0  0  0  0  0  0  0  0  0  0  0  0
    4.2744   -3.6463    0.0000 H   0  0  0  0  0  0  0  0  0  0  0  0
    4.0442   -4.4923    0.0000 H   0  0  0  0  0  0  0  0  0  0  0  0
    4.8902   -4.7225    0.0000 H   0  0  0  0  0  0  0  0  0  0  0  0
   12.1248   -3.2172    0.0000 H   0  0  0  0  0  0  0  0  0  0  0  0
   12.9743   -3.0001    0.0000 H   0  0  0  0  0  0  0  0  0  0  0  0
   12.7571   -2.1506    0.0000 H   0  0  0  0  0  0  0  0  0  0  0  0
    7.5137   -5.1779    0.0000 H   0  0  0  0  0  0  0  0  0  0  0  0
    8.1408   -5.7906    0.0000 H   0  0  0  0  0  0  0  0  0  0  0  0
    8.7536   -5.1635    0.0000 H   0  0  0  0  0  0  0  0  0  0  0  0
  1 27  1  0  0  0  0
  1 85  1  0  0  0  0
  2 28  1  0  0  0  0
  2 86  1  0  0  0  0
  3 31  1  0  0  0  0
  3 90  1  0  0  0  0
  4 32  1  0  0  0  0
  4 89  1  0  0  0  0
  5 44  1  0  0  0  0
  5 91  1  0  0  0  0
  6 43  1  0  0  0  0
  6 92  1  0  0  0  0
  7 48  1  0  0  0  0
  7 56  1  0  0  0  0
  8 47  1  0  0  0  0
  8 55  1  0  0  0  0
  9 11  1  0  0  0  0
  9 13  1  0  0  0  0
  9 66  1  0  0  0  0
 10 12  1  0  0  0  0
 10 14  1  0  0  0  0
 10 65  1  0  0  0  0
 11 16  1  0  0  0  0
 11 26  1  0  0  0  0
 11 57  1  0  0  0  0
 12 15  1  0  0  0  0
 12 25  1  0  0  0  0
 12 58  1  0  0  0  0
 13 19  1  0  0  0  0
 13 30  1  0  0  0  0
 13 59  1  0  0  0  0
 14 20  1  0  0  0  0
 14 29  1  0  0  0  0
 14 60  1  0  0  0  0
 15 17  1  0  0  0  0
 15 63  1  0  0  0  0
 15 64  1  0  0  0  0
 16 18  1  0  0  0  0
 16 61  1  0  0  0  0
 16 62  1  0  0  0  0
 17 20  1  0  0  0  0
 17 22  2  0  0  0  0
 18 19  1  0  0  0  0
 18 21  2  0  0  0  0
 19 27  2  0  0  0  0
 20 28  2  0  0  0  0
 21 23  1  0  0  0  0
 21 31  1  0  0  0  0
 22 24  1  0  0  0  0
 22 32  1  0  0  0  0
 23 34  1  0  0  0  0
 23 38  2  0  0  0  0
 24 33  1  0  0  0  0
 24 37  2  0  0  0  0
 25 70  1  0  0  0  0
 25 71  1  0  0  0  0
 25 72  1  0  0  0  0
 26 67  1  0  0  0  0
 26 68  1  0  0  0  0
 26 69  1  0  0  0  0
 27 39  1  0  0  0  0
 28 40  1  0  0  0  0
 29 76  1  0  0  0  0
 29 77  1  0  0  0  0
 29 78  1  0  0  0  0
 30 73  1  0  0  0  0
 30 74  1  0  0  0  0
 30 75  1  0  0  0  0
 31 39  2  0  0  0  0
 32 40  2  0  0  0  0
 33 42  2  0  0  0  0
 33 46  1  0  0  0  0
 34 41  2  0  0  0  0
 34 45  1  0  0  0  0
 35 36  1  0  0  0  0
 35 38  1  0  0  0  0
 35 44  2  0  0  0  0
 36 37  1  0  0  0  0
 36 43  2  0  0  0  0
 37 80  1  0  0  0  0
 38 79  1  0  0  0  0
 39 81  1  0  0  0  0
 40 82  1  0  0  0  0
 41 44  1  0  0  0  0
 41 48  1  0  0  0  0
 42 43  1  0  0  0  0
 42 47  1  0  0  0  0
 45 49  2  0  0  0  0
 45 83  1  0  0  0  0
 46 50  2  0  0  0  0
 46 84  1  0  0  0  0
 47 52  2  0  0  0  0
 48 51  2  0  0  0  0
 49 51  1  0  0  0  0
 49 54  1  0  0  0  0
 50 52  1  0  0  0  0
 50 53  1  0  0  0  0
 51 87  1  0  0  0  0
 52 88  1  0  0  0  0
 53 93  1  0  0  0  0
 53 94  1  0  0  0  0
 53 95  1  0  0  0  0
 54 96  1  0  0  0  0
 54 97  1  0  0  0  0
 54 98  1  0  0  0  0
 55 99  1  0  0  0  0
 55100  1  0  0  0  0
 55101  1  0  0  0  0
 56102  1  0  0  0  0
 56103  1  0  0  0  0
 56104  1  0  0  0  0
M  END
> <PUBCHEM_COMPOUND_CID>
4185

> <PUBCHEM_COMPOUND_CANONICALIZED>
1

> <PUBCHEM_CACTVS_COMPLEXITY>
1240

> <PUBCHEM_CACTVS_HBOND_ACCEPTOR>
10

> <PUBCHEM_CACTVS_HBOND_DONOR>
8

> <PUBCHEM_CACTVS_ROTATABLE_BOND>
5

> <PUBCHEM_CACTVS_SUBSKEYS>
AAADcfB/PAAAAAAAAAAAAAAAAAAAAAAAAAA8eMGDAAAAAADxVAAAHgAQCAAADCzBmAYyBsLABgCAAiBCAACCCAAgIAAAiIAODIgMJyKGsRuEcChn0BWIuAfQ8PcO4AADCAAYAADAAAYQADAAAAAAAAAAAA==

> <PUBCHEM_IUPAC_OPENEYE_NAME>
5-[3-[4-(6,8-dihydroxy-1,3-dimethyl-1,2,3,4-tetrahydroisoquinolin-5-yl)-1-hydroxy-8-methoxy-6-methyl-2-naphthyl]-4-hydroxy-5-methoxy-7-methyl-1-naphthyl]-1,3-dimethyl-1,2,3,4-tetrahydroisoquinoline-6,8-diol

> <PUBCHEM_IUPAC_CAS_NAME>
5-[3-[4-(6,8-dihydroxy-1,3-dimethyl-1,2,3,4-tetrahydroisoquinolin-5-yl)-1-hydroxy-8-methoxy-6-methyl-2-naphthalenyl]-4-hydroxy-5-methoxy-7-methyl-1-naphthalenyl]-1,3-dimethyl-1,2,3,4-tetrahydroisoquinoline-6,8-diol

> <PUBCHEM_IUPAC_NAME>
5-[3-[4-(6,8-dihydroxy-1,3-dimethyl-1,2,3,4-tetrahydroisoquinolin-5-yl)-1-hydroxy-8-methoxy-6-methylnaphthalen-2-yl]-4-hydroxy-5-methoxy-7-methylnaphthalen-1-yl]-1,3-dimethyl-1,2,3,4-tetrahydroisoquinoline-6,8-diol

> <PUBCHEM_IUPAC_SYSTEMATIC_NAME>
5-[3-[4-[1,3-dimethyl-6,8-bis(oxidanyl)-1,2,3,4-tetrahydroisoquinolin-5-yl]-8-methoxy-6-methyl-1-oxidanyl-naphthalen-2-yl]-5-methoxy-7-methyl-4-oxidanyl-naphthalen-1-yl]-1,3-dimethyl-1,2,3,4-tetrahydroisoquinoline-6,8-diol

> <PUBCHEM_IUPAC_TRADITIONAL_NAME>
5-[3-[4-(6,8-dihydroxy-1,3-dimethyl-1,2,3,4-tetrahydroisoquinolin-5-yl)-1-hydroxy-8-methoxy-6-methyl-2-naphthyl]-4-hydroxy-5-methoxy-7-methyl-1-naphthyl]-1,3-dimethyl-1,2,3,4-tetrahydroisoquinoline-6,8-diol

> <PUBCHEM_IUPAC_INCHI>
InChI=1S/C46H48N2O8/c1-19-9-25-27(41-31-13-21(3)47-23(5)39(31)33(49)17-35(41)51)15-29(45(53)43(25)37(11-19)55-7)30-16-28(26-10-20(2)12-38(56-8)44(26)46(30)54)42-32-14-22(4)48-24(6)40(32)34(50)18-36(42)52/h9-12,15-18,21-24,47-54H,13-14H2,1-8H3

> <PUBCHEM_IUPAC_INCHIKEY>
GMLBVLXDRNJFGR-UHFFFAOYSA-N

> <PUBCHEM_XLOGP3_AA>
8.3

> <PUBCHEM_EXACT_MASS>
756.341067

> <PUBCHEM_MOLECULAR_FORMULA>
C46H48N2O8

> <PUBCHEM_MOLECULAR_WEIGHT>
756.88192

> <PUBCHEM_OPENEYE_CAN_SMILES>
CC1CC2=C(C(=CC(=C2C(N1)C)O)O)C3=CC(=C(C4=C(C=C(C=C34)C)OC)O)C5=C(C6=C(C=C(C=C6C(=C5)C7=C8CC(NC(C8=C(C=C7O)O)C)C)C)OC)O

> <PUBCHEM_OPENEYE_ISO_SMILES>
CC1CC2=C(C(=CC(=C2C(N1)C)O)O)C3=CC(=C(C4=C(C=C(C=C34)C)OC)O)C5=C(C6=C(C=C(C=C6C(=C5)C7=C8CC(NC(C8=C(C=C7O)O)C)C)C)OC)O

> <PUBCHEM_CACTVS_TPSA>
164

> <PUBCHEM_MONOISOTOPIC_WEIGHT>
756.341067

> <PUBCHEM_TOTAL_CHARGE>
0

> <PUBCHEM_HEAVY_ATOM_COUNT>
56

> <PUBCHEM_ATOM_DEF_STEREO_COUNT>
0

> <PUBCHEM_ATOM_UDEF_STEREO_COUNT>
4

> <PUBCHEM_BOND_DEF_STEREO_COUNT>
0

> <PUBCHEM_BOND_UDEF_STEREO_COUNT>
0

> <PUBCHEM_ISOTOPIC_ATOM_COUNT>
0

> <PUBCHEM_COMPONENT_COUNT>
1

> <PUBCHEM_CACTVS_TAUTO_COUNT>
981

> <PUBCHEM_COORDINATE_TYPE>
1
5
255

> <PUBCHEM_BONDANNOTATIONS>
11  26  3
12  25  3
13  30  3
14  29  3
17  20  8
17  22  8
18  19  8
18  21  8
19  27  8
20  28  8
21  31  8
22  32  8
23  34  8
23  38  8
24  33  8
24  37  8
27  39  8
28  40  8
31  39  8
32  40  8
33  42  8
33  46  8
34  41  8
34  45  8
35  38  8
35  44  8
36  37  8
36  43  8
41  44  8
41  48  8
42  43  8
42  47  8
45  49  8
46  50  8
47  52  8
48  51  8
49  51  8
50  52  8

$$$$

