7847018
  -OEChem-06241222483D

 43 45  0     0  0  0  0  0  0999 V2000
    3.9940   -2.0639    0.8279 S   0  0  0  0  0  0  0  0  0  0  0  0
   -6.5279    0.3903   -0.9132 F   0  0  0  0  0  0  0  0  0  0  0  0
   -5.6794   -1.5374   -0.3957 F   0  0  0  0  0  0  0  0  0  0  0  0
   -6.2776   -0.1588    1.1759 F   0  0  0  0  0  0  0  0  0  0  0  0
    3.0256    1.7827    0.6979 O   0  0  0  0  0  0  0  0  0  0  0  0
    4.1368    3.0264   -0.8960 O   0  0  0  0  0  0  0  0  0  0  0  0
    0.6914    0.7894    1.5855 O   0  0  0  0  0  0  0  0  0  0  0  0
    2.9825   -0.7479   -1.1462 N   0  0  0  0  0  0  0  0  0  0  0  0
   -0.4581    2.0854   -0.0053 N   0  0  0  0  0  0  0  0  0  0  0  0
    5.2849   -0.0698   -0.5631 C   0  0  0  0  0  0  0  0  0  0  0  0
    5.2606    1.2184    0.2804 C   0  0  0  0  0  0  0  0  0  0  0  0
    4.0557   -0.8764   -0.4014 C   0  0  0  0  0  0  0  0  0  0  0  0
    2.3880   -2.4655    0.3456 C   0  0  0  0  0  0  0  0  0  0  0  0
    2.0170   -1.6528   -0.7299 C   0  0  0  0  0  0  0  0  0  0  0  0
    4.1040    2.1281   -0.0663 C   0  0  0  0  0  0  0  0  0  0  0  0
    1.5190   -3.4300    0.8807 C   0  0  0  0  0  0  0  0  0  0  0  0
    0.7301   -1.8134   -1.2880 C   0  0  0  0  0  0  0  0  0  0  0  0
   -1.7522    1.5130   -0.0144 C   0  0  0  0  0  0  0  0  0  0  0  0
   -4.3036    0.3851   -0.0327 C   0  0  0  0  0  0  0  0  0  0  0  0
    1.8439    2.5613    0.4842 C   0  0  0  0  0  0  0  0  0  0  0  0
    0.2513   -3.5685    0.3099 C   0  0  0  0  0  0  0  0  0  0  0  0
   -0.1401   -2.7717   -0.7603 C   0  0  0  0  0  0  0  0  0  0  0  0
   -2.7379    2.0315   -0.8542 C   0  0  0  0  0  0  0  0  0  0  0  0
   -2.0422    0.4306    0.8163 C   0  0  0  0  0  0  0  0  0  0  0  0
   -4.0134    1.4675   -0.8633 C   0  0  0  0  0  0  0  0  0  0  0  0
   -3.3179   -0.1332    0.8071 C   0  0  0  0  0  0  0  0  0  0  0  0
    0.6330    1.6974    0.7620 C   0  0  0  0  0  0  0  0  0  0  0  0
   -5.6676   -0.2177   -0.0436 C   0  0  0  0  0  0  0  0  0  0  0  0
    6.1790   -0.6510   -0.3075 H   0  0  0  0  0  0  0  0  0  0  0  0
    5.3873    0.2023   -1.6214 H   0  0  0  0  0  0  0  0  0  0  0  0
    6.1864    1.7835    0.1198 H   0  0  0  0  0  0  0  0  0  0  0  0
    5.2273    0.9903    1.3530 H   0  0  0  0  0  0  0  0  0  0  0  0
    1.8176   -4.0552    1.7166 H   0  0  0  0  0  0  0  0  0  0  0  0
    0.4131   -1.1944   -2.1225 H   0  0  0  0  0  0  0  0  0  0  0  0
    1.8398    3.3978    1.1903 H   0  0  0  0  0  0  0  0  0  0  0  0
    1.7975    2.9458   -0.5405 H   0  0  0  0  0  0  0  0  0  0  0  0
   -0.4373   -4.3082    0.7096 H   0  0  0  0  0  0  0  0  0  0  0  0
   -1.1309   -2.8918   -1.1899 H   0  0  0  0  0  0  0  0  0  0  0  0
   -2.5249    2.8746   -1.5064 H   0  0  0  0  0  0  0  0  0  0  0  0
   -1.3317   -0.0261    1.4909 H   0  0  0  0  0  0  0  0  0  0  0  0
   -0.3355    2.8736   -0.6371 H   0  0  0  0  0  0  0  0  0  0  0  0
   -4.7678    1.8851   -1.5244 H   0  0  0  0  0  0  0  0  0  0  0  0
   -3.5351   -0.9773    1.4565 H   0  0  0  0  0  0  0  0  0  0  0  0
  1 12  1  0  0  0  0
  1 13  1  0  0  0  0
  2 28  1  0  0  0  0
  3 28  1  0  0  0  0
  4 28  1  0  0  0  0
  5 15  1  0  0  0  0
  5 20  1  0  0  0  0
  6 15  2  0  0  0  0
  7 27  2  0  0  0  0
  8 12  2  0  0  0  0
  8 14  1  0  0  0  0
  9 18  1  0  0  0  0
  9 27  1  0  0  0  0
  9 41  1  0  0  0  0
 10 11  1  0  0  0  0
 10 12  1  0  0  0  0
 10 29  1  0  0  0  0
 10 30  1  0  0  0  0
 11 15  1  0  0  0  0
 11 31  1  0  0  0  0
 11 32  1  0  0  0  0
 13 14  1  0  0  0  0
 13 16  2  0  0  0  0
 14 17  2  0  0  0  0
 16 21  1  0  0  0  0
 16 33  1  0  0  0  0
 17 22  1  0  0  0  0
 17 34  1  0  0  0  0
 18 23  2  0  0  0  0
 18 24  1  0  0  0  0
 19 25  2  0  0  0  0
 19 26  1  0  0  0  0
 19 28  1  0  0  0  0
 20 27  1  0  0  0  0
 20 35  1  0  0  0  0
 20 36  1  0  0  0  0
 21 22  2  0  0  0  0
 21 37  1  0  0  0  0
 22 38  1  0  0  0  0
 23 25  1  0  0  0  0
 23 39  1  0  0  0  0
 24 26  2  0  0  0  0
 24 40  1  0  0  0  0
 25 42  1  0  0  0  0
 26 43  1  0  0  0  0
M  END
> <PUBCHEM_COMPOUND_CID>
7847018

> <PUBCHEM_CONFORMER_RMSD>
1

> <PUBCHEM_CONFORMER_DIVERSEORDER>
1
6
60
34
63
164
78
103
118
167
87
90
104
82
54
106
43
73
93
190
27
132
129
149
46
5
26
52
193
160
51
36
19
62
156
165
92
100
105
81
195
107
189
69
4
155
184
168
109
21
112
134
142
66
20
32
183
94
171
148
166
50
102
127
16
130
59
121
14
98
57
12
180
2
67
169
187
30
174
40
18
113
185
161
96
83
86
198
7
141
41
178
70
197
179
181
88
201
202
29
97
24
117
77
140
89
56
192
58
176
125
9
152
158
15
95
133
49
131
137
172
139
200
188
143
191
91
124
128
42
17
39
111
199
135
31
138
186
13
79
45
170
80
22
108
53
33
123
11
99
85
76
136
37
122
64
3
147
55
153
10
114
61
65
196
38
115
84
23
44
120
28
74
146
194
151
175
173
35
154
150
119
25
48
177
47
163
145
110
157
182
162
8
71
101
159
116
72
126
68
75
144

> <PUBCHEM_MMFF94_PARTIAL_CHARGES>
37
1 -0.08
10 0.18
11 0.06
12 0.2
13 0.04
14 0.23
15 0.66
16 -0.15
17 -0.15
18 0.12
19 -0.14
2 -0.34
20 0.34
21 -0.15
22 -0.15
23 -0.15
24 -0.15
25 -0.15
26 -0.15
27 0.57
28 1.16
3 -0.34
33 0.15
34 0.15
37 0.15
38 0.15
39 0.15
4 -0.34
40 0.15
41 0.37
42 0.15
43 0.15
5 -0.43
6 -0.57
7 -0.57
8 -0.57
9 -0.55

> <PUBCHEM_EFFECTIVE_ROTOR_COUNT>
9

> <PUBCHEM_PHARMACOPHORE_FEATURES>
7
1 6 acceptor
1 7 acceptor
1 8 acceptor
1 9 donor
5 1 8 12 13 14 rings
6 13 14 16 17 21 22 rings
6 18 19 23 24 25 26 rings

> <PUBCHEM_HEAVY_ATOM_COUNT>
28

> <PUBCHEM_ATOM_DEF_STEREO_COUNT>
0

> <PUBCHEM_ATOM_UDEF_STEREO_COUNT>
0

> <PUBCHEM_BOND_DEF_STEREO_COUNT>
0

> <PUBCHEM_BOND_UDEF_STEREO_COUNT>
0

> <PUBCHEM_ISOTOPIC_ATOM_COUNT>
0

> <PUBCHEM_COMPONENT_COUNT>
1

> <PUBCHEM_CACTVS_TAUTO_COUNT>
4

> <PUBCHEM_CONFORMER_ID>
0077BC6A00000001

> <PUBCHEM_MMFF94_ENERGY>
51.7225

> <PUBCHEM_FEATURE_SELFOVERLAP>
35.591

> <PUBCHEM_SHAPE_FINGERPRINT>
1100329 8 18409450259484458562
11135609 187 18336544919700538601
12166972 35 18057878229126224430
12838862 33 18336000683536427344
13402501 40 18411415094614854523
1361 2 18270116803779892324
146900 427 18334570274320882851
14787075 74 18333732411768554143
14840074 17 18186241736513051567
15110567 62 18410572907130523299
15968369 153 17751649736511930739
17138139 8 17679039109494131711
17492 54 18339347626837464074
18681886 176 18194690486956928506
20028762 73 18187928443106461902
20567600 347 18202846573721253178
21197605 99 18118119178179131791
21304304 249 18411423938807130954
21860390 5 16199573690031810820
22393880 68 18193832863274888468
23516275 137 17242140540747192687
23559900 14 17835811067817343899
27425 322 17058652850671578592
3298306 158 18410579469904127760
338550 245 18268429027491978500
3680242 22 18337106881826812338
392239 28 18409725179566031275
4340502 62 18260553286444093280
463206 1 18261960630966950277
484989 97 18339348683310241874
5309563 4 18408886265132005805
6669772 16 18342463603956586658

> <PUBCHEM_SHAPE_MULTIPOLES>
530.69
12.86
4.03
1.13
15.31
1.54
0.02
-2.34
-0.94
-3.76
0.11
0.03
0.11
0.04

> <PUBCHEM_SHAPE_SELFOVERLAP>
1131.194

> <PUBCHEM_SHAPE_VOLUME>
298.3

> <PUBCHEM_COORDINATE_TYPE>
2
5
10

$$$$

