9083
  -OEChem-06261203232D

 19 18  0     0  0  0  0  0  0999 V2000
    2.8660    0.0000    0.0000 S   0  0  0  0  0  0  0  0  0  0  0  0
    6.3301    0.0000    0.0000 S   0  0  0  0  0  0  0  0  0  0  0  0
    3.7320    0.5000    0.0000 O   0  0  0  0  0  0  0  0  0  0  0  0
    5.4641    0.5000    0.0000 O   0  0  0  0  0  0  0  0  0  0  0  0
    2.3660    0.8660    0.0000 O   0  0  0  0  0  0  0  0  0  0  0  0
    3.3660   -0.8660    0.0000 O   0  0  0  0  0  0  0  0  0  0  0  0
    6.8301    0.8660    0.0000 O   0  0  0  0  0  0  0  0  0  0  0  0
    5.8301   -0.8660    0.0000 O   0  0  0  0  0  0  0  0  0  0  0  0
    4.5981    0.0000    0.0000 C   0  0  0  0  0  0  0  0  0  0  0  0
    2.0000   -0.5000    0.0000 C   0  0  0  0  0  0  0  0  0  0  0  0
    7.1962   -0.5000    0.0000 C   0  0  0  0  0  0  0  0  0  0  0  0
    4.1996   -0.4749    0.0000 H   0  0  0  0  0  0  0  0  0  0  0  0
    4.9966   -0.4749    0.0000 H   0  0  0  0  0  0  0  0  0  0  0  0
    6.8862   -1.0369    0.0000 H   0  0  0  0  0  0  0  0  0  0  0  0
    7.7331   -0.8100    0.0000 H   0  0  0  0  0  0  0  0  0  0  0  0
    7.5062    0.0369    0.0000 H   0  0  0  0  0  0  0  0  0  0  0  0
    1.6900    0.0369    0.0000 H   0  0  0  0  0  0  0  0  0  0  0  0
    1.4631   -0.8100    0.0000 H   0  0  0  0  0  0  0  0  0  0  0  0
    2.3100   -1.0369    0.0000 H   0  0  0  0  0  0  0  0  0  0  0  0
  1  3  1  0  0  0  0
  1  5  2  0  0  0  0
  1  6  2  0  0  0  0
  1 10  1  0  0  0  0
  2  4  1  0  0  0  0
  2  7  2  0  0  0  0
  2  8  2  0  0  0  0
  2 11  1  0  0  0  0
  3  9  1  0  0  0  0
  4  9  1  0  0  0  0
  9 12  1  0  0  0  0
  9 13  1  0  0  0  0
 10 17  1  0  0  0  0
 10 18  1  0  0  0  0
 10 19  1  0  0  0  0
 11 14  1  0  0  0  0
 11 15  1  0  0  0  0
 11 16  1  0  0  0  0
M  END
> <PUBCHEM_COMPOUND_CID>
9083

> <PUBCHEM_COMPOUND_CANONICALIZED>
1

> <PUBCHEM_CACTVS_COMPLEXITY>
254

> <PUBCHEM_CACTVS_HBOND_ACCEPTOR>
6

> <PUBCHEM_CACTVS_HBOND_DONOR>
0

> <PUBCHEM_CACTVS_ROTATABLE_BOND>
4

> <PUBCHEM_CACTVS_SUBSKEYS>
AAADccBAOABgAAAAAAAAAAAAAAAAAAAAAAAAAAAAAAAAAAAAAAAAEgQAAAAAAAAAAAOCCAAAAAIAAAAAAHAAAAAAAAAAAAAAAAAAAAAAAAAAAAAAAAAAAAAAAAAAAAAAAAAAAAAAAAAAAAAAAAAAAAAAAA==

> <PUBCHEM_IUPAC_OPENEYE_NAME>
methylsulfonyloxymethyl methanesulfonate

> <PUBCHEM_IUPAC_CAS_NAME>
methanesulfonic acid methylsulfonyloxymethyl ester

> <PUBCHEM_IUPAC_NAME>
methylsulfonyloxymethyl methanesulfonate

> <PUBCHEM_IUPAC_SYSTEMATIC_NAME>
methylsulfonyloxymethyl methanesulfonate

> <PUBCHEM_IUPAC_TRADITIONAL_NAME>
methanesulfonic acid methylsulfonyloxymethyl ester

> <PUBCHEM_IUPAC_INCHI>
InChI=1S/C3H8O6S2/c1-10(4,5)8-3-9-11(2,6)7/h3H2,1-2H3

> <PUBCHEM_IUPAC_INCHIKEY>
IQLZWWDXNXZGPK-UHFFFAOYSA-N

> <PUBCHEM_XLOGP3_AA>
-0.8

> <PUBCHEM_EXACT_MASS>
203.97623

> <PUBCHEM_MOLECULAR_FORMULA>
C3H8O6S2

> <PUBCHEM_MOLECULAR_WEIGHT>
204.22202

> <PUBCHEM_OPENEYE_CAN_SMILES>
CS(=O)(=O)OCOS(=O)(=O)C

> <PUBCHEM_OPENEYE_ISO_SMILES>
CS(=O)(=O)OCOS(=O)(=O)C

> <PUBCHEM_CACTVS_TPSA>
104

> <PUBCHEM_MONOISOTOPIC_WEIGHT>
203.97623

> <PUBCHEM_TOTAL_CHARGE>
0

> <PUBCHEM_HEAVY_ATOM_COUNT>
11

> <PUBCHEM_ATOM_DEF_STEREO_COUNT>
0

> <PUBCHEM_ATOM_UDEF_STEREO_COUNT>
0

> <PUBCHEM_BOND_DEF_STEREO_COUNT>
0

> <PUBCHEM_BOND_UDEF_STEREO_COUNT>
0

> <PUBCHEM_ISOTOPIC_ATOM_COUNT>
0

> <PUBCHEM_COMPONENT_COUNT>
1

> <PUBCHEM_CACTVS_TAUTO_COUNT>
1

> <PUBCHEM_COORDINATE_TYPE>
1
5
255

$$$$

