13572
  -OEChem-06241222393D

 25 24  0     0  0  0  0  0  0999 V2000
   -2.3221    1.3955   -0.0438 O   0  0  0  0  0  0  0  0  0  0  0  0
    2.6682   -0.3237    0.0212 C   0  0  0  0  0  0  0  0  0  0  0  0
    1.2960   -1.0228   -0.0181 C   0  0  0  0  0  0  0  0  0  0  0  0
    0.1138   -0.0453   -0.0097 C   0  0  0  0  0  0  0  0  0  0  0  0
   -1.2346   -0.7660   -0.0199 C   0  0  0  0  0  0  0  0  0  0  0  0
    2.7689    0.5507    1.2737 C   0  0  0  0  0  0  0  0  0  0  0  0
    2.9281    0.5264   -1.2231 C   0  0  0  0  0  0  0  0  0  0  0  0
   -2.4315    0.1706   -0.0215 C   0  0  0  0  0  0  0  0  0  0  0  0
   -3.7866   -0.4854    0.0412 C   0  0  0  0  0  0  0  0  0  0  0  0
    3.4391   -1.1024    0.0750 H   0  0  0  0  0  0  0  0  0  0  0  0
    1.2393   -1.6546   -0.9132 H   0  0  0  0  0  0  0  0  0  0  0  0
    1.2125   -1.6957    0.8448 H   0  0  0  0  0  0  0  0  0  0  0  0
    0.1464    0.5944    0.8786 H   0  0  0  0  0  0  0  0  0  0  0  0
    0.1643    0.6174   -0.8808 H   0  0  0  0  0  0  0  0  0  0  0  0
   -1.3080   -1.3993   -0.9111 H   0  0  0  0  0  0  0  0  0  0  0  0
   -1.3138   -1.4062    0.8661 H   0  0  0  0  0  0  0  0  0  0  0  0
    3.8016    0.8923    1.4078 H   0  0  0  0  0  0  0  0  0  0  0  0
    2.4902   -0.0101    2.1721 H   0  0  0  0  0  0  0  0  0  0  0  0
    2.1433    1.4467    1.2129 H   0  0  0  0  0  0  0  0  0  0  0  0
    3.9542    0.9102   -1.2135 H   0  0  0  0  0  0  0  0  0  0  0  0
    2.8045   -0.0698   -2.1330 H   0  0  0  0  0  0  0  0  0  0  0  0
    2.2570    1.3887   -1.2846 H   0  0  0  0  0  0  0  0  0  0  0  0
   -4.5686    0.2771   -0.0111 H   0  0  0  0  0  0  0  0  0  0  0  0
   -3.9034   -1.1665   -0.8054 H   0  0  0  0  0  0  0  0  0  0  0  0
   -3.8854   -1.0322    0.9821 H   0  0  0  0  0  0  0  0  0  0  0  0
  1  8  2  0  0  0  0
  2  3  1  0  0  0  0
  2  6  1  0  0  0  0
  2  7  1  0  0  0  0
  2 10  1  0  0  0  0
  3  4  1  0  0  0  0
  3 11  1  0  0  0  0
  3 12  1  0  0  0  0
  4  5  1  0  0  0  0
  4 13  1  0  0  0  0
  4 14  1  0  0  0  0
  5  8  1  0  0  0  0
  5 15  1  0  0  0  0
  5 16  1  0  0  0  0
  6 17  1  0  0  0  0
  6 18  1  0  0  0  0
  6 19  1  0  0  0  0
  7 20  1  0  0  0  0
  7 21  1  0  0  0  0
  7 22  1  0  0  0  0
  8  9  1  0  0  0  0
  9 23  1  0  0  0  0
  9 24  1  0  0  0  0
  9 25  1  0  0  0  0
M  END
> <PUBCHEM_COMPOUND_CID>
13572

> <PUBCHEM_CONFORMER_RMSD>
0.6

> <PUBCHEM_CONFORMER_DIVERSEORDER>
1
4
6
2
8
5
7
3

> <PUBCHEM_MMFF94_PARTIAL_CHARGES>
4
1 -0.57
5 0.06
8 0.45
9 0.06

> <PUBCHEM_EFFECTIVE_ROTOR_COUNT>
4

> <PUBCHEM_PHARMACOPHORE_FEATURES>
3
1 1 acceptor
3 2 6 7 hydrophobe
4 2 3 4 5 hydrophobe

> <PUBCHEM_HEAVY_ATOM_COUNT>
9

> <PUBCHEM_ATOM_DEF_STEREO_COUNT>
0

> <PUBCHEM_ATOM_UDEF_STEREO_COUNT>
0

> <PUBCHEM_BOND_DEF_STEREO_COUNT>
0

> <PUBCHEM_BOND_UDEF_STEREO_COUNT>
0

> <PUBCHEM_ISOTOPIC_ATOM_COUNT>
0

> <PUBCHEM_COMPONENT_COUNT>
1

> <PUBCHEM_CACTVS_TAUTO_COUNT>
3

> <PUBCHEM_CONFORMER_ID>
0000350400000001

> <PUBCHEM_MMFF94_ENERGY>
6.6001

> <PUBCHEM_FEATURE_SELFOVERLAP>
15.295

> <PUBCHEM_SHAPE_FINGERPRINT>
10857977 72 18343023276707392881
11062470 55 14979958060282540663
12162725 195 17988923387728358892
12932741 1 17603580790516436134
12932764 1 18040157326853174639
14325111 11 18411418448936891767
14390081 3 18260553337350184945
170605 34 17346307164492411390
18186145 218 17385439938259828515
21028194 46 18334858341766534866
21293036 1 17531243941862525134
23048698 100 16845855684944409684
3248919 1 17988925582530584619

> <PUBCHEM_SHAPE_MULTIPOLES>
179.35
6.42
1.06
0.96
2.59
0.1
-0.02
0.62
0.06
0.21
0
-1.02
0.17
0.06

> <PUBCHEM_SHAPE_SELFOVERLAP>
322.473

> <PUBCHEM_SHAPE_VOLUME>
116.5

> <PUBCHEM_COORDINATE_TYPE>
2
5
10

$$$$

