12229
  -OEChem-06261206412D

  8  7  0     0  0  0  0  0  0999 V2000
    2.0000   -0.2500    0.0000 O   0  0  0  0  0  0  0  0  0  0  0  0
    3.7320   -0.2500    0.0000 N   0  0  0  0  0  0  0  0  0  0  0  0
    4.5981    0.2500    0.0000 N   0  0  0  0  0  0  0  0  0  0  0  0
    2.8660    0.2500    0.0000 C   0  0  0  0  0  0  0  0  0  0  0  0
    3.7320   -0.8700    0.0000 H   0  0  0  0  0  0  0  0  0  0  0  0
    5.1350   -0.0600    0.0000 H   0  0  0  0  0  0  0  0  0  0  0  0
    4.5981    0.8700    0.0000 H   0  0  0  0  0  0  0  0  0  0  0  0
    2.8660    0.8700    0.0000 H   0  0  0  0  0  0  0  0  0  0  0  0
  1  4  2  0  0  0  0
  2  3  1  0  0  0  0
  2  4  1  0  0  0  0
  2  5  1  0  0  0  0
  3  6  1  0  0  0  0
  3  7  1  0  0  0  0
  4  8  1  0  0  0  0
M  END
> <PUBCHEM_COMPOUND_CID>
12229

> <PUBCHEM_COMPOUND_CANONICALIZED>
1

> <PUBCHEM_CACTVS_COMPLEXITY>
20

> <PUBCHEM_CACTVS_HBOND_ACCEPTOR>
2

> <PUBCHEM_CACTVS_HBOND_DONOR>
2

> <PUBCHEM_CACTVS_ROTATABLE_BOND>
0

> <PUBCHEM_CACTVS_SUBSKEYS>
AAADcYADIAAAAAAAAAAAAAAAAAAAAAAAAAAAAAAAAAAAAAAAAAAAFgAYAAAAAAAAAAYAAABiAAAIAAAAkAAAAAAAAAICIIAAAAAAAAAAAAAAAAAAAAAAAAAAAAAAAAAAAAAAAAAAAAAAAAAAAAAAAAAAAA==

> <PUBCHEM_IUPAC_OPENEYE_NAME>
formohydrazide

> <PUBCHEM_IUPAC_CAS_NAME>
formohydrazide

> <PUBCHEM_IUPAC_NAME>
formohydrazide

> <PUBCHEM_IUPAC_SYSTEMATIC_NAME>
formohydrazide

> <PUBCHEM_IUPAC_TRADITIONAL_NAME>
formohydrazide

> <PUBCHEM_IUPAC_INCHI>
InChI=1S/CH4N2O/c2-3-1-4/h1H,2H2,(H,3,4)

> <PUBCHEM_IUPAC_INCHIKEY>
XZBIXDPGRMLSTC-UHFFFAOYSA-N

> <PUBCHEM_XLOGP3>
-2

> <PUBCHEM_EXACT_MASS>
60.032363

> <PUBCHEM_MOLECULAR_FORMULA>
CH4N2O

> <PUBCHEM_MOLECULAR_WEIGHT>
60.05526

> <PUBCHEM_OPENEYE_CAN_SMILES>
C(=O)NN

> <PUBCHEM_OPENEYE_ISO_SMILES>
C(=O)NN

> <PUBCHEM_CACTVS_TPSA>
55.1

> <PUBCHEM_MONOISOTOPIC_WEIGHT>
60.032363

> <PUBCHEM_TOTAL_CHARGE>
0

> <PUBCHEM_HEAVY_ATOM_COUNT>
4

> <PUBCHEM_ATOM_DEF_STEREO_COUNT>
0

> <PUBCHEM_ATOM_UDEF_STEREO_COUNT>
0

> <PUBCHEM_BOND_DEF_STEREO_COUNT>
0

> <PUBCHEM_BOND_UDEF_STEREO_COUNT>
0

> <PUBCHEM_ISOTOPIC_ATOM_COUNT>
0

> <PUBCHEM_COMPONENT_COUNT>
1

> <PUBCHEM_CACTVS_TAUTO_COUNT>
2

> <PUBCHEM_COORDINATE_TYPE>
1
5
255

$$$$

