14321
  -OEChem-06241222433D

 22 22  0     0  0  0  0  0  0999 V2000
   -0.7149   -2.5349   -0.0890 Cl  0  0  0  0  0  0  0  0  0  0  0  0
    1.6654    0.1714    0.4214 N   0  0  0  0  0  0  0  0  0  0  0  0
    3.8413    0.2334    1.2091 N   0  0  0  0  0  0  0  0  0  0  0  0
    3.5636    0.0724   -1.0474 N   0  0  0  0  0  0  0  0  0  0  0  0
   -0.6687    0.1775   -0.3484 C   0  0  0  0  0  0  0  0  0  0  0  0
    0.7712    0.0866   -0.7386 C   0  0  0  0  0  0  0  0  0  0  0  0
   -1.4162   -0.9586   -0.0385 C   0  0  0  0  0  0  0  0  0  0  0  0
   -1.2631    1.4384   -0.2985 C   0  0  0  0  0  0  0  0  0  0  0  0
   -2.7580   -0.8339    0.3213 C   0  0  0  0  0  0  0  0  0  0  0  0
   -2.6050    1.5631    0.0613 C   0  0  0  0  0  0  0  0  0  0  0  0
   -3.3525    0.4270    0.3711 C   0  0  0  0  0  0  0  0  0  0  0  0
    2.9370    0.1575    0.1761 C   0  0  0  0  0  0  0  0  0  0  0  0
    0.9619   -0.8274   -1.3135 H   0  0  0  0  0  0  0  0  0  0  0  0
    0.9892    0.9127   -1.4306 H   0  0  0  0  0  0  0  0  0  0  0  0
   -0.6937    2.3339   -0.5340 H   0  0  0  0  0  0  0  0  0  0  0  0
   -3.3543   -1.7093    0.5658 H   0  0  0  0  0  0  0  0  0  0  0  0
   -3.0677    2.5449    0.1010 H   0  0  0  0  0  0  0  0  0  0  0  0
   -4.3973    0.5243    0.6513 H   0  0  0  0  0  0  0  0  0  0  0  0
    3.5313    0.3013    2.1724 H   0  0  0  0  0  0  0  0  0  0  0  0
    4.8412    0.2252    1.0404 H   0  0  0  0  0  0  0  0  0  0  0  0
    4.5756    0.0705   -1.1163 H   0  0  0  0  0  0  0  0  0  0  0  0
    3.0478    0.0076   -1.9177 H   0  0  0  0  0  0  0  0  0  0  0  0
  1  7  1  0  0  0  0
  2  6  1  0  0  0  0
  2 12  2  0  0  0  0
  3 12  1  0  0  0  0
  3 19  1  0  0  0  0
  3 20  1  0  0  0  0
  4 12  1  0  0  0  0
  4 21  1  0  0  0  0
  4 22  1  0  0  0  0
  5  6  1  0  0  0  0
  5  7  1  0  0  0  0
  5  8  2  0  0  0  0
  6 13  1  0  0  0  0
  6 14  1  0  0  0  0
  7  9  2  0  0  0  0
  8 10  1  0  0  0  0
  8 15  1  0  0  0  0
  9 11  1  0  0  0  0
  9 16  1  0  0  0  0
 10 11  2  0  0  0  0
 10 17  1  0  0  0  0
 11 18  1  0  0  0  0
M  END
> <PUBCHEM_COMPOUND_CID>
14321

> <PUBCHEM_CONFORMER_RMSD>
0.6

> <PUBCHEM_CONFORMER_DIVERSEORDER>
1
8
12
4
13
6
11
3
7
10
5
2
9

> <PUBCHEM_MMFF94_PARTIAL_CHARGES>
20
1 -0.18
10 -0.15
11 -0.15
12 0.55
15 0.15
16 0.15
17 0.15
18 0.15
19 0.4
2 -0.7
20 0.4
21 0.4
22 0.4
3 -0.85
4 -0.85
5 -0.14
6 0.39
7 0.18
8 -0.15
9 -0.15

> <PUBCHEM_EFFECTIVE_ROTOR_COUNT>
2

> <PUBCHEM_PHARMACOPHORE_FEATURES>
4
1 3 donor
1 4 donor
4 2 3 4 12 cation
6 5 7 8 9 10 11 rings

> <PUBCHEM_HEAVY_ATOM_COUNT>
12

> <PUBCHEM_ATOM_DEF_STEREO_COUNT>
0

> <PUBCHEM_ATOM_UDEF_STEREO_COUNT>
0

> <PUBCHEM_BOND_DEF_STEREO_COUNT>
0

> <PUBCHEM_BOND_UDEF_STEREO_COUNT>
0

> <PUBCHEM_ISOTOPIC_ATOM_COUNT>
0

> <PUBCHEM_COMPONENT_COUNT>
1

> <PUBCHEM_CACTVS_TAUTO_COUNT>
2

> <PUBCHEM_CONFORMER_ID>
000037F100000001

> <PUBCHEM_MMFF94_ENERGY>
34.2225

> <PUBCHEM_FEATURE_SELFOVERLAP>
20.353

> <PUBCHEM_SHAPE_FINGERPRINT>
11132069 177 18407760335122936101
12251169 10 18341056237583865584
12932764 1 17822013112006439438
13024252 1 14261355764981966813
14144814 61 18343584044738390912
14325111 11 18410572932895071660
15219456 202 17968651730507052942
15669948 3 18341327773916615174
15775835 57 18412824719860746067
16945 1 18411696565380974415
17846911 113 18408045134515207705
18186145 218 17822286928924598848
19422 9 17704069599201260858
20279233 1 17894632552386326806
20510252 161 18260826007849979225
20645464 45 18113338608778803493
20871998 184 18262792952632250143
23402539 116 18261685779178210303
23463225 33 18129946800868198722
23559900 14 18261385681312702126
257057 1 17469896480348986151
2748010 2 17981874548227849903
43471831 8 18342739658558533987
5706482 22 18410864286687128699
6333449 129 18407763629441830597
7364860 26 17902228145983139119
75552 356 18412260601781689005
77492 1 17560794416391745148
81228 2 18120665638439835999

> <PUBCHEM_SHAPE_MULTIPOLES>
233.88
6.05
1.78
0.87
5.18
1.04
-0.02
-1.34
-1.11
-1.36
0.07
0.62
-0.04
0.1

> <PUBCHEM_SHAPE_SELFOVERLAP>
471.573

> <PUBCHEM_SHAPE_VOLUME>
136.4

> <PUBCHEM_COORDINATE_TYPE>
2
5
10

$$$$

