5507
  -OEChem-06261200433D

 30 31  0     0  0  0  0  0  0999 V2000
    5.5705   -0.0745   -0.0130 Cl  0  0  0  0  0  0  0  0  0  0  0  0
   -4.1760   -1.9105   -0.2574 O   0  0  0  0  0  0  0  0  0  0  0  0
   -2.0472   -2.3226   -0.9393 O   0  0  0  0  0  0  0  0  0  0  0  0
   -0.3076   -0.6608    0.4530 N   0  0  0  0  0  0  0  0  0  0  0  0
    1.0866   -0.5149    0.3354 C   0  0  0  0  0  0  0  0  0  0  0  0
   -1.3770    0.2560    0.3429 C   0  0  0  0  0  0  0  0  0  0  0  0
    3.0034    0.6085   -0.6217 C   0  0  0  0  0  0  0  0  0  0  0  0
    1.6208    0.4635   -0.5060 C   0  0  0  0  0  0  0  0  0  0  0  0
   -2.6314   -0.1573   -0.1063 C   0  0  0  0  0  0  0  0  0  0  0  0
    1.9416   -1.3477    1.0604 C   0  0  0  0  0  0  0  0  0  0  0  0
   -1.1656    1.5902    0.6907 C   0  0  0  0  0  0  0  0  0  0  0  0
    3.8551   -0.2247    0.1037 C   0  0  0  0  0  0  0  0  0  0  0  0
    3.3242   -1.2028    0.9449 C   0  0  0  0  0  0  0  0  0  0  0  0
   -3.6742    0.7637   -0.2073 C   0  0  0  0  0  0  0  0  0  0  0  0
    3.5325    1.6685   -1.5330 C   0  0  0  0  0  0  0  0  0  0  0  0
   -2.2084    2.5110    0.5896 C   0  0  0  0  0  0  0  0  0  0  0  0
   -3.4625    2.0978    0.1407 C   0  0  0  0  0  0  0  0  0  0  0  0
   -2.8849   -1.5438   -0.4773 C   0  0  0  0  0  0  0  0  0  0  0  0
   -0.5985   -1.6025    0.6993 H   0  0  0  0  0  0  0  0  0  0  0  0
    0.9663    1.1021   -1.0941 H   0  0  0  0  0  0  0  0  0  0  0  0
    1.5406   -2.1131    1.7201 H   0  0  0  0  0  0  0  0  0  0  0  0
   -0.2075    1.9380    1.0669 H   0  0  0  0  0  0  0  0  0  0  0  0
    3.9742   -1.8597    1.5172 H   0  0  0  0  0  0  0  0  0  0  0  0
   -4.6592    0.4772   -0.5661 H   0  0  0  0  0  0  0  0  0  0  0  0
    4.1399    1.2237   -2.3282 H   0  0  0  0  0  0  0  0  0  0  0  0
    2.7270    2.2303   -2.0187 H   0  0  0  0  0  0  0  0  0  0  0  0
    4.1359    2.3908   -0.9732 H   0  0  0  0  0  0  0  0  0  0  0  0
   -2.0454    3.5489    0.8652 H   0  0  0  0  0  0  0  0  0  0  0  0
   -4.2737    2.8156    0.0604 H   0  0  0  0  0  0  0  0  0  0  0  0
   -4.3383   -2.8446   -0.5092 H   0  0  0  0  0  0  0  0  0  0  0  0
  1 12  1  0  0  0  0
  2 18  1  0  0  0  0
  2 30  1  0  0  0  0
  3 18  2  0  0  0  0
  4  5  1  0  0  0  0
  4  6  1  0  0  0  0
  4 19  1  0  0  0  0
  5  8  2  0  0  0  0
  5 10  1  0  0  0  0
  6  9  1  0  0  0  0
  6 11  2  0  0  0  0
  7  8  1  0  0  0  0
  7 12  2  0  0  0  0
  7 15  1  0  0  0  0
  8 20  1  0  0  0  0
  9 14  2  0  0  0  0
  9 18  1  0  0  0  0
 10 13  2  0  0  0  0
 10 21  1  0  0  0  0
 11 16  1  0  0  0  0
 11 22  1  0  0  0  0
 12 13  1  0  0  0  0
 13 23  1  0  0  0  0
 14 17  1  0  0  0  0
 14 24  1  0  0  0  0
 15 25  1  0  0  0  0
 15 26  1  0  0  0  0
 15 27  1  0  0  0  0
 16 17  2  0  0  0  0
 16 28  1  0  0  0  0
 17 29  1  0  0  0  0
M  END
> <PUBCHEM_COMPOUND_CID>
5507

> <PUBCHEM_CONFORMER_RMSD>
0.6

> <PUBCHEM_CONFORMER_DIVERSEORDER>
1
11
5
14
2
15
12
8
10
3
16
6
4
13
9
7

> <PUBCHEM_MMFF94_PARTIAL_CHARGES>
27
1 -0.18
10 -0.15
11 -0.15
12 0.18
13 -0.15
14 -0.15
15 0.14
16 -0.15
17 -0.15
18 0.63
19 0.4
2 -0.65
20 0.15
21 0.15
22 0.15
23 0.15
24 0.15
28 0.15
29 0.15
3 -0.57
30 0.5
4 -0.6
5 0.1
6 0.1
7 -0.14
8 -0.15
9 0.09

> <PUBCHEM_EFFECTIVE_ROTOR_COUNT>
3

> <PUBCHEM_PHARMACOPHORE_FEATURES>
7
1 2 acceptor
1 3 acceptor
1 4 cation
1 4 donor
3 2 3 18 anion
6 5 7 8 10 12 13 rings
6 6 9 11 14 16 17 rings

> <PUBCHEM_HEAVY_ATOM_COUNT>
18

> <PUBCHEM_ATOM_DEF_STEREO_COUNT>
0

> <PUBCHEM_ATOM_UDEF_STEREO_COUNT>
0

> <PUBCHEM_BOND_DEF_STEREO_COUNT>
0

> <PUBCHEM_BOND_UDEF_STEREO_COUNT>
0

> <PUBCHEM_ISOTOPIC_ATOM_COUNT>
0

> <PUBCHEM_COMPONENT_COUNT>
1

> <PUBCHEM_CACTVS_TAUTO_COUNT>
2

> <PUBCHEM_CONFORMER_ID>
0000158300000001

> <PUBCHEM_MMFF94_ENERGY>
68.7464

> <PUBCHEM_FEATURE_SELFOVERLAP>
35.578

> <PUBCHEM_SHAPE_FINGERPRINT>
10062212 137 18342462555546625202
10616163 171 18408603673268534975
10646746 165 18260271867196202736
11578080 2 17912683234411144020
11640471 11 18271795869582894812
12107183 9 17764313142762432354
12173636 292 18262524817950405469
12236239 1 18272371996448182746
12403814 3 17988360472852496981
12553582 1 18118412752458607823
12714826 92 17894912906223832843
12788726 201 18411424999221383387
13167823 11 18412546518071452114
13538477 17 18410300245426716929
13583140 156 17313401053690376522
14386348 63 16515404070918186838
15342168 16 17202745043160014973
15442244 35 18198346358602010058
15669948 3 18335425672839662807
16752209 62 18261126174798694383
17349148 13 17917437501588486920
17492 89 18412262860866908986
18186145 218 16487536948849328266
19050596 39 18342455950045257424
192875 21 18130508527019827676
200 152 18343587313024003738
20279233 1 16515408486123468158
20300324 65 18408882919209563736
20645477 56 18261391204150397945
20645477 70 15697730306451809482
20871999 31 18335711533320809231
21267235 1 18412537691460069171
21709351 56 18131634491435277380
23402539 116 18409171008741670596
23402655 69 18272089443756590044
23557571 272 18040433287402944776
23559900 14 17968659453575773062
23598288 3 18410288082617710319
23598291 2 18200318852128625578
2838139 119 16986330519593029429
3082319 5 18343584040300940352
312423 11 18272078401242736626
3545911 37 18337389443487965456
4214541 1 18409167744434767056
474 4 17846774114022333776
5104073 3 18341054098758627490
573450 72 18339652229901873226
603831 33 18340771433770162718
633830 44 17774426257694466278
7097593 13 18054237793023171290
7615 1 18272376386057805032
77492 1 18272653471414369898
90525 40 18335985358597080623
9709674 26 18412255151611284386
9981440 41 17551227373015520648

> <PUBCHEM_SHAPE_MULTIPOLES>
355.58
9.46
2.33
1.02
5.8
0.16
-0.1
0.26
-0.97
-2.36
-0.16
0.52
0.07
-1.81

> <PUBCHEM_SHAPE_SELFOVERLAP>
757.118

> <PUBCHEM_SHAPE_VOLUME>
197.9

> <PUBCHEM_COORDINATE_TYPE>
2
5
10

$$$$

