51091001
  -OEChem-06241223012D

 48 49  0     1  0  0  0  0  0999 V2000
    3.0000   -3.0000    0.0000 S   0  0  0  0  0  0  0  0  0  0  0  0
    2.1340    1.5000    0.0000 O   0  0  0  0  0  0  0  0  0  0  0  0
    2.0000   -3.0000    0.0000 O   0  0  0  0  0  0  0  0  0  0  0  0
    4.0000   -3.0000    0.0000 O   0  0  0  0  0  0  0  0  0  0  0  0
    3.0000   -2.0000    0.0000 N   0  0  0  0  0  0  0  0  0  0  0  0
    3.8660    1.5000    0.0000 N   0  0  0  0  0  0  0  0  0  0  0  0
    3.0000    4.0000    0.0000 N   0  0  3  0  0  0  0  0  0  0  0  0
    3.0000    0.0000    0.0000 C   0  0  0  0  0  0  0  0  0  0  0  0
    3.8660    2.5000    0.0000 C   0  0  3  0  0  0  0  0  0  0  0  0
    3.8660   -0.5000    0.0000 C   0  0  0  0  0  0  0  0  0  0  0  0
    2.1340   -0.5000    0.0000 C   0  0  0  0  0  0  0  0  0  0  0  0
    2.1340   -1.5000    0.0000 C   0  0  0  0  0  0  0  0  0  0  0  0
    3.8660   -1.5000    0.0000 C   0  0  0  0  0  0  0  0  0  0  0  0
    4.7320    3.0000    0.0000 C   0  0  0  0  0  0  0  0  0  0  0  0
    3.0000    3.0000    0.0000 C   0  0  0  0  0  0  0  0  0  0  0  0
    3.0000    1.0000    0.0000 C   0  0  0  0  0  0  0  0  0  0  0  0
    4.7320    4.0000    0.0000 C   0  0  0  0  0  0  0  0  0  0  0  0
    3.8660    4.5000    0.0000 C   0  0  0  0  0  0  0  0  0  0  0  0
    3.0000   -4.0000    0.0000 C   0  0  0  0  0  0  0  0  0  0  0  0
    2.1340    4.5000    0.0000 C   0  0  0  0  0  0  0  0  0  0  0  0
    2.1340   -4.5000    0.0000 C   0  0  0  0  0  0  0  0  0  0  0  0
    3.5369    0.3100    0.0000 H   0  0  0  0  0  0  0  0  0  0  0  0
    4.4030    2.1900    0.0000 H   0  0  0  0  0  0  0  0  0  0  0  0
    1.9219    0.0826    0.0000 H   0  0  0  0  0  0  0  0  0  0  0  0
    1.5234   -0.6077    0.0000 H   0  0  0  0  0  0  0  0  0  0  0  0
    4.4766   -0.6077    0.0000 H   0  0  0  0  0  0  0  0  0  0  0  0
    4.0781    0.0826    0.0000 H   0  0  0  0  0  0  0  0  0  0  0  0
    4.0781   -2.0826    0.0000 H   0  0  0  0  0  0  0  0  0  0  0  0
    4.4766   -1.3923    0.0000 H   0  0  0  0  0  0  0  0  0  0  0  0
    1.5234   -1.3923    0.0000 H   0  0  0  0  0  0  0  0  0  0  0  0
    1.9219   -2.0826    0.0000 H   0  0  0  0  0  0  0  0  0  0  0  0
    4.9441    2.4174    0.0000 H   0  0  0  0  0  0  0  0  0  0  0  0
    5.3426    3.1077    0.0000 H   0  0  0  0  0  0  0  0  0  0  0  0
    2.3894    3.1077    0.0000 H   0  0  0  0  0  0  0  0  0  0  0  0
    2.7880    2.4174    0.0000 H   0  0  0  0  0  0  0  0  0  0  0  0
    5.3426    3.8923    0.0000 H   0  0  0  0  0  0  0  0  0  0  0  0
    4.9441    4.5826    0.0000 H   0  0  0  0  0  0  0  0  0  0  0  0
    4.4030    1.1900    0.0000 H   0  0  0  0  0  0  0  0  0  0  0  0
    4.2646    4.9750    0.0000 H   0  0  0  0  0  0  0  0  0  0  0  0
    3.4675    4.9750    0.0000 H   0  0  0  0  0  0  0  0  0  0  0  0
    3.2120   -4.5826    0.0000 H   0  0  0  0  0  0  0  0  0  0  0  0
    3.6106   -3.8923    0.0000 H   0  0  0  0  0  0  0  0  0  0  0  0
    2.4440    5.0369    0.0000 H   0  0  0  0  0  0  0  0  0  0  0  0
    1.5970    4.8100    0.0000 H   0  0  0  0  0  0  0  0  0  0  0  0
    1.8240    3.9631    0.0000 H   0  0  0  0  0  0  0  0  0  0  0  0
    1.8240   -3.9631    0.0000 H   0  0  0  0  0  0  0  0  0  0  0  0
    1.5970   -4.8100    0.0000 H   0  0  0  0  0  0  0  0  0  0  0  0
    2.4440   -5.0369    0.0000 H   0  0  0  0  0  0  0  0  0  0  0  0
  1  3  2  0  0  0  0
  1  4  2  0  0  0  0
  1  5  1  0  0  0  0
  1 19  1  0  0  0  0
  2 16  2  0  0  0  0
  5 12  1  0  0  0  0
  5 13  1  0  0  0  0
  6  9  1  0  0  0  0
  6 16  1  0  0  0  0
  6 38  1  0  0  0  0
  7 15  1  0  0  0  0
  7 18  1  0  0  0  0
  7 20  1  0  0  0  0
  8 10  1  0  0  0  0
  8 11  1  0  0  0  0
  8 16  1  0  0  0  0
  8 22  1  0  0  0  0
  9 14  1  0  0  0  0
  9 15  1  0  0  0  0
  9 23  1  0  0  0  0
 10 13  1  0  0  0  0
 10 26  1  0  0  0  0
 10 27  1  0  0  0  0
 11 12  1  0  0  0  0
 11 24  1  0  0  0  0
 11 25  1  0  0  0  0
 12 30  1  0  0  0  0
 12 31  1  0  0  0  0
 13 28  1  0  0  0  0
 13 29  1  0  0  0  0
 14 17  1  0  0  0  0
 14 32  1  0  0  0  0
 14 33  1  0  0  0  0
 15 34  1  0  0  0  0
 15 35  1  0  0  0  0
 17 18  1  0  0  0  0
 17 36  1  0  0  0  0
 17 37  1  0  0  0  0
 18 39  1  0  0  0  0
 18 40  1  0  0  0  0
 19 21  1  0  0  0  0
 19 41  1  0  0  0  0
 19 42  1  0  0  0  0
 20 43  1  0  0  0  0
 20 44  1  0  0  0  0
 20 45  1  0  0  0  0
 21 46  1  0  0  0  0
 21 47  1  0  0  0  0
 21 48  1  0  0  0  0
M  END
> <PUBCHEM_COMPOUND_CID>
51091001

> <PUBCHEM_COMPOUND_CANONICALIZED>
1

> <PUBCHEM_CACTVS_COMPLEXITY>
453

> <PUBCHEM_CACTVS_HBOND_ACCEPTOR>
5

> <PUBCHEM_CACTVS_HBOND_DONOR>
1

> <PUBCHEM_CACTVS_ROTATABLE_BOND>
4

> <PUBCHEM_CACTVS_SUBSKEYS>
AAADceBzMABAAAAAAAAAAAAAAAAAAAAAAAAsWAAAAAAAAAAAAAAAHgQQQAAADSjFwASCAAPAAAIIAAEQEHBAAAAAAAAAAIEIAAAAQBIAgAAUAAAAFgCAAAAUAAAKAAAAAAAAAAAAAAAAAAAAAAAAAAAAAA==

> <PUBCHEM_IUPAC_OPENEYE_NAME>
1-ethylsulfonyl-N-(1-methyl-3-piperidyl)piperidine-4-carboxamide

> <PUBCHEM_IUPAC_CAS_NAME>
1-ethylsulfonyl-N-(1-methyl-3-piperidinyl)-4-piperidinecarboxamide

> <PUBCHEM_IUPAC_NAME>
1-ethylsulfonyl-N-(1-methylpiperidin-3-yl)piperidine-4-carboxamide

> <PUBCHEM_IUPAC_SYSTEMATIC_NAME>
1-ethylsulfonyl-N-(1-methylpiperidin-3-yl)piperidine-4-carboxamide

> <PUBCHEM_IUPAC_TRADITIONAL_NAME>
1-esyl-N-(1-methyl-3-piperidyl)isonipecotamide

> <PUBCHEM_IUPAC_INCHI>
InChI=1S/C14H27N3O3S/c1-3-21(19,20)17-9-6-12(7-10-17)14(18)15-13-5-4-8-16(2)11-13/h12-13H,3-11H2,1-2H3,(H,15,18)

> <PUBCHEM_IUPAC_INCHIKEY>
ZHYNDBYEYMIAGL-UHFFFAOYSA-N

> <PUBCHEM_XLOGP3_AA>
0.2

> <PUBCHEM_EXACT_MASS>
317.177313

> <PUBCHEM_MOLECULAR_FORMULA>
C14H27N3O3S

> <PUBCHEM_MOLECULAR_WEIGHT>
317.44748

> <PUBCHEM_OPENEYE_CAN_SMILES>
CCS(=O)(=O)N1CCC(CC1)C(=O)NC2CCCN(C2)C

> <PUBCHEM_OPENEYE_ISO_SMILES>
CCS(=O)(=O)N1CCC(CC1)C(=O)NC2CCCN(C2)C

> <PUBCHEM_CACTVS_TPSA>
78.1

> <PUBCHEM_MONOISOTOPIC_WEIGHT>
317.177313

> <PUBCHEM_TOTAL_CHARGE>
0

> <PUBCHEM_HEAVY_ATOM_COUNT>
21

> <PUBCHEM_ATOM_DEF_STEREO_COUNT>
0

> <PUBCHEM_ATOM_UDEF_STEREO_COUNT>
1

> <PUBCHEM_BOND_DEF_STEREO_COUNT>
0

> <PUBCHEM_BOND_UDEF_STEREO_COUNT>
0

> <PUBCHEM_ISOTOPIC_ATOM_COUNT>
0

> <PUBCHEM_COMPONENT_COUNT>
1

> <PUBCHEM_CACTVS_TAUTO_COUNT>
2

> <PUBCHEM_COORDINATE_TYPE>
1
5
255

> <PUBCHEM_BONDANNOTATIONS>
9  6  3

$$$$

