10695
  -OEChem-06261204513D

 24 24  0     0  0  0  0  0  0999 V2000
    1.1103    0.0004    0.0003 C   0  0  0  0  0  0  0  0  0  0  0  0
    0.4121    1.2080   -0.0001 C   0  0  0  0  0  0  0  0  0  0  0  0
    0.4134   -1.2081    0.0004 C   0  0  0  0  0  0  0  0  0  0  0  0
   -1.6795   -0.0009   -0.0002 C   0  0  0  0  0  0  0  0  0  0  0  0
   -0.9828    1.2074   -0.0003 C   0  0  0  0  0  0  0  0  0  0  0  0
   -0.9815   -1.2087    0.0001 C   0  0  0  0  0  0  0  0  0  0  0  0
    2.6061    0.0014    0.0001 C   0  0  0  0  0  0  0  0  0  0  0  0
    1.1349    2.5154   -0.0001 C   0  0  0  0  0  0  0  0  0  0  0  0
    1.1380   -2.5141   -0.0005 C   0  0  0  0  0  0  0  0  0  0  0  0
   -3.1711   -0.0008    0.0002 C   0  0  0  0  0  0  0  0  0  0  0  0
   -1.5313    2.1464   -0.0036 H   0  0  0  0  0  0  0  0  0  0  0  0
   -1.5290   -2.1483   -0.0032 H   0  0  0  0  0  0  0  0  0  0  0  0
    3.0244   -0.8642   -0.5226 H   0  0  0  0  0  0  0  0  0  0  0  0
    3.0232    0.8678   -0.5223 H   0  0  0  0  0  0  0  0  0  0  0  0
    2.9796    0.0014    1.0293 H   0  0  0  0  0  0  0  0  0  0  0  0
    1.8733    2.5562    0.8077 H   0  0  0  0  0  0  0  0  0  0  0  0
    1.6305    2.6804   -0.9622 H   0  0  0  0  0  0  0  0  0  0  0  0
    0.4487    3.3545    0.1613 H   0  0  0  0  0  0  0  0  0  0  0  0
    1.6331   -2.6784   -0.9630 H   0  0  0  0  0  0  0  0  0  0  0  0
    1.8771   -2.5541    0.8066 H   0  0  0  0  0  0  0  0  0  0  0  0
    0.4531   -3.3542    0.1612 H   0  0  0  0  0  0  0  0  0  0  0  0
   -3.5668   -0.8875    0.5070 H   0  0  0  0  0  0  0  0  0  0  0  0
   -3.5658    0.8730    0.5299 H   0  0  0  0  0  0  0  0  0  0  0  0
   -3.5468    0.0122   -1.0277 H   0  0  0  0  0  0  0  0  0  0  0  0
  1  2  2  0  0  0  0
  1  3  1  0  0  0  0
  1  7  1  0  0  0  0
  2  5  1  0  0  0  0
  2  8  1  0  0  0  0
  3  6  2  0  0  0  0
  3  9  1  0  0  0  0
  4  5  2  0  0  0  0
  4  6  1  0  0  0  0
  4 10  1  0  0  0  0
  5 11  1  0  0  0  0
  6 12  1  0  0  0  0
  7 13  1  0  0  0  0
  7 14  1  0  0  0  0
  7 15  1  0  0  0  0
  8 16  1  0  0  0  0
  8 17  1  0  0  0  0
  8 18  1  0  0  0  0
  9 19  1  0  0  0  0
  9 20  1  0  0  0  0
  9 21  1  0  0  0  0
 10 22  1  0  0  0  0
 10 23  1  0  0  0  0
 10 24  1  0  0  0  0
M  END
> <PUBCHEM_COMPOUND_CID>
10695

> <PUBCHEM_CONFORMER_RMSD>
0.4

> <PUBCHEM_CONFORMER_DIVERSEORDER>
1

> <PUBCHEM_MMFF94_PARTIAL_CHARGES>
12
1 -0.14
10 0.14
11 0.15
12 0.15
2 -0.14
3 -0.14
4 -0.14
5 -0.15
6 -0.15
7 0.14
8 0.14
9 0.14

> <PUBCHEM_EFFECTIVE_ROTOR_COUNT>
0

> <PUBCHEM_PHARMACOPHORE_FEATURES>
1
6 1 2 3 4 5 6 rings

> <PUBCHEM_HEAVY_ATOM_COUNT>
10

> <PUBCHEM_ATOM_DEF_STEREO_COUNT>
0

> <PUBCHEM_ATOM_UDEF_STEREO_COUNT>
0

> <PUBCHEM_BOND_DEF_STEREO_COUNT>
0

> <PUBCHEM_BOND_UDEF_STEREO_COUNT>
0

> <PUBCHEM_ISOTOPIC_ATOM_COUNT>
0

> <PUBCHEM_COMPONENT_COUNT>
1

> <PUBCHEM_CACTVS_TAUTO_COUNT>
1

> <PUBCHEM_CONFORMER_ID>
000029C700000001

> <PUBCHEM_MMFF94_ENERGY>
27.741

> <PUBCHEM_FEATURE_SELFOVERLAP>
5.074

> <PUBCHEM_SHAPE_FINGERPRINT>
1 1 18339082588262680599
13380535 76 17903926556382282692
161256 15 18119244210560213022
16945 1 18410575084847695237
18185500 45 18337110171644848295
193761 8 17762056944717618976
21040471 1 17906452125806222689
2334 1 17978510828082564239
23402655 69 18193575561049833773
23552423 10 17983286320572754350
241688 4 17906450278959443961
2748010 2 18123748647516074799
29004967 10 18341608256655484739
5084963 1 18114179670818127579
528886 8 18410296873887906626

> <PUBCHEM_SHAPE_MULTIPOLES>
205.8
3.19
2.46
0.62
1.64
0
0
0
0
-1.27
0
0
0
0

> <PUBCHEM_SHAPE_SELFOVERLAP>
422.526

> <PUBCHEM_SHAPE_VOLUME>
115.5

> <PUBCHEM_COORDINATE_TYPE>
2
5
10

$$$$

