17396515
  -OEChem-06241222572D

 39 41  0     1  0  0  0  0  0999 V2000
    8.5991    2.4827    0.0000 O   0  0  0  0  0  0  0  0  0  0  0  0
    8.5991    0.4827    0.0000 O   0  0  0  0  0  0  0  0  0  0  0  0
    6.0010    0.9827    0.0000 O   0  0  0  0  0  0  0  0  0  0  0  0
    3.4030    0.4827    0.0000 O   0  0  0  0  0  0  0  0  0  0  0  0
    6.8671   -0.5173    0.0000 N   0  0  0  0  0  0  0  0  0  0  0  0
    2.5369   -1.0173    0.0000 N   0  0  0  0  0  0  0  0  0  0  0  0
    7.7331    1.9827    0.0000 C   0  0  3  0  0  0  0  0  0  0  0  0
    7.7331    0.9827    0.0000 C   0  0  3  0  0  0  0  0  0  0  0  0
    6.8671    2.4827    0.0000 C   0  0  0  0  0  0  0  0  0  0  0  0
    6.8671    0.4827    0.0000 C   0  0  0  0  0  0  0  0  0  0  0  0
    9.4651    1.9827    0.0000 C   0  0  0  0  0  0  0  0  0  0  0  0
    9.4651    0.9827    0.0000 C   0  0  0  0  0  0  0  0  0  0  0  0
   10.3591    2.5173    0.0000 C   0  0  0  0  0  0  0  0  0  0  0  0
   10.3591    0.4480    0.0000 C   0  0  0  0  0  0  0  0  0  0  0  0
    6.0010   -1.0173    0.0000 C   0  0  0  0  0  0  0  0  0  0  0  0
   11.2651    2.0035    0.0000 C   0  0  0  0  0  0  0  0  0  0  0  0
   11.2651    0.9619    0.0000 C   0  0  0  0  0  0  0  0  0  0  0  0
    5.1350   -0.5173    0.0000 C   0  0  0  0  0  0  0  0  0  0  0  0
    6.0010   -2.0173    0.0000 C   0  0  0  0  0  0  0  0  0  0  0  0
    4.2690   -1.0173    0.0000 C   0  0  0  0  0  0  0  0  0  0  0  0
    5.1350   -2.5173    0.0000 C   0  0  0  0  0  0  0  0  0  0  0  0
    4.2690   -2.0173    0.0000 C   0  0  0  0  0  0  0  0  0  0  0  0
    3.4030   -0.5173    0.0000 C   0  0  0  0  0  0  0  0  0  0  0  0
    7.7331    2.6027    0.0000 H   0  0  0  0  0  0  0  0  0  0  0  0
    7.7331    0.3627    0.0000 H   0  0  0  0  0  0  0  0  0  0  0  0
    7.1771    3.0196    0.0000 H   0  0  0  0  0  0  0  0  0  0  0  0
    6.3301    2.7927    0.0000 H   0  0  0  0  0  0  0  0  0  0  0  0
    6.5571    1.9457    0.0000 H   0  0  0  0  0  0  0  0  0  0  0  0
    7.4040   -0.8273    0.0000 H   0  0  0  0  0  0  0  0  0  0  0  0
   10.3519    3.1373    0.0000 H   0  0  0  0  0  0  0  0  0  0  0  0
   10.3519   -0.1720    0.0000 H   0  0  0  0  0  0  0  0  0  0  0  0
   11.8009    0.6498    0.0000 H   0  0  0  0  0  0  0  0  0  0  0  0
   11.8009    2.3156    0.0000 H   0  0  0  0  0  0  0  0  0  0  0  0
    5.1350    0.1027    0.0000 H   0  0  0  0  0  0  0  0  0  0  0  0
    6.5380   -2.3273    0.0000 H   0  0  0  0  0  0  0  0  0  0  0  0
    5.1350   -3.1373    0.0000 H   0  0  0  0  0  0  0  0  0  0  0  0
    3.7320   -2.3273    0.0000 H   0  0  0  0  0  0  0  0  0  0  0  0
    2.0000   -0.7073    0.0000 H   0  0  0  0  0  0  0  0  0  0  0  0
    2.5369   -1.6373    0.0000 H   0  0  0  0  0  0  0  0  0  0  0  0
  1  7  1  0  0  0  0
  1 11  1  0  0  0  0
  2  8  1  0  0  0  0
  2 12  1  0  0  0  0
  3 10  2  0  0  0  0
  4 23  2  0  0  0  0
  5 10  1  0  0  0  0
  5 15  1  0  0  0  0
  5 29  1  0  0  0  0
  6 23  1  0  0  0  0
  6 38  1  0  0  0  0
  6 39  1  0  0  0  0
  7  8  1  0  0  0  0
  7  9  1  0  0  0  0
  7 24  1  0  0  0  0
  8 10  1  0  0  0  0
  8 25  1  0  0  0  0
  9 26  1  0  0  0  0
  9 27  1  0  0  0  0
  9 28  1  0  0  0  0
 11 12  1  0  0  0  0
 11 13  2  0  0  0  0
 12 14  2  0  0  0  0
 13 16  1  0  0  0  0
 13 30  1  0  0  0  0
 14 17  1  0  0  0  0
 14 31  1  0  0  0  0
 15 18  1  0  0  0  0
 15 19  2  0  0  0  0
 16 17  2  0  0  0  0
 16 33  1  0  0  0  0
 17 32  1  0  0  0  0
 18 20  2  0  0  0  0
 18 34  1  0  0  0  0
 19 21  1  0  0  0  0
 19 35  1  0  0  0  0
 20 22  1  0  0  0  0
 20 23  1  0  0  0  0
 21 22  2  0  0  0  0
 21 36  1  0  0  0  0
 22 37  1  0  0  0  0
M  END
> <PUBCHEM_COMPOUND_CID>
17396515

> <PUBCHEM_COMPOUND_CANONICALIZED>
1

> <PUBCHEM_CACTVS_COMPLEXITY>
456

> <PUBCHEM_CACTVS_HBOND_ACCEPTOR>
4

> <PUBCHEM_CACTVS_HBOND_DONOR>
2

> <PUBCHEM_CACTVS_ROTATABLE_BOND>
3

> <PUBCHEM_CACTVS_SUBSKEYS>
AAADceB7OAAAAAAAAAAAAAAAAAAAAAAAAAA0YIAAAAAAAACRQAAAHgAQAAAADByhmAIyxoLABACIAiVSUAKCCAAlIgAIiAFG7MgPJjbEtZ+HOSrm9BHa6YecyACOAAAAQAAAQAAAAACAAACAAAAAAAAAAA==

> <PUBCHEM_IUPAC_OPENEYE_NAME>
N-(3-carbamoylphenyl)-2-methyl-2,3-dihydro-1,4-benzodioxine-3-carboxamide

> <PUBCHEM_IUPAC_CAS_NAME>
N-(3-carbamoylphenyl)-2-methyl-2,3-dihydro-1,4-benzodioxin-3-carboxamide

> <PUBCHEM_IUPAC_NAME>
N-(3-carbamoylphenyl)-2-methyl-2,3-dihydro-1,4-benzodioxine-3-carboxamide

> <PUBCHEM_IUPAC_SYSTEMATIC_NAME>
N-(3-aminocarbonylphenyl)-2-methyl-2,3-dihydro-1,4-benzodioxine-3-carboxamide

> <PUBCHEM_IUPAC_TRADITIONAL_NAME>
N-(3-carbamoylphenyl)-2-methyl-2,3-dihydro-1,4-benzodioxin-3-carboxamide

> <PUBCHEM_IUPAC_INCHI>
InChI=1S/C17H16N2O4/c1-10-15(23-14-8-3-2-7-13(14)22-10)17(21)19-12-6-4-5-11(9-12)16(18)20/h2-10,15H,1H3,(H2,18,20)(H,19,21)

> <PUBCHEM_IUPAC_INCHIKEY>
GDCBOGPFAKVOOH-UHFFFAOYSA-N

> <PUBCHEM_XLOGP3_AA>
1.9

> <PUBCHEM_EXACT_MASS>
312.111007

> <PUBCHEM_MOLECULAR_FORMULA>
C17H16N2O4

> <PUBCHEM_MOLECULAR_WEIGHT>
312.31994

> <PUBCHEM_OPENEYE_CAN_SMILES>
CC1C(OC2=CC=CC=C2O1)C(=O)NC3=CC=CC(=C3)C(=O)N

> <PUBCHEM_OPENEYE_ISO_SMILES>
CC1C(OC2=CC=CC=C2O1)C(=O)NC3=CC=CC(=C3)C(=O)N

> <PUBCHEM_CACTVS_TPSA>
90.6

> <PUBCHEM_MONOISOTOPIC_WEIGHT>
312.111007

> <PUBCHEM_TOTAL_CHARGE>
0

> <PUBCHEM_HEAVY_ATOM_COUNT>
23

> <PUBCHEM_ATOM_DEF_STEREO_COUNT>
0

> <PUBCHEM_ATOM_UDEF_STEREO_COUNT>
2

> <PUBCHEM_BOND_DEF_STEREO_COUNT>
0

> <PUBCHEM_BOND_UDEF_STEREO_COUNT>
0

> <PUBCHEM_ISOTOPIC_ATOM_COUNT>
0

> <PUBCHEM_COMPONENT_COUNT>
1

> <PUBCHEM_CACTVS_TAUTO_COUNT>
6

> <PUBCHEM_COORDINATE_TYPE>
1
5
255

> <PUBCHEM_BONDANNOTATIONS>
11  12  8
11  13  8
12  14  8
13  16  8
14  17  8
15  18  8
15  19  8
16  17  8
18  20  8
19  21  8
20  22  8
21  22  8
7  9  3
8  10  3

$$$$

