47205508
  -OEChem-06241222593D

 33 35  0     0  0  0  0  0  0999 V2000
    0.7307    2.3150    0.0440 O   0  0  0  0  0  0  0  0  0  0  0  0
   -1.1941    0.8398    1.7989 O   0  0  0  0  0  0  0  0  0  0  0  0
   -4.9482   -0.4914   -1.2620 O   0  0  0  0  0  0  0  0  0  0  0  0
    1.3782    0.0606    0.2775 N   0  0  0  0  0  0  0  0  0  0  0  0
   -1.6372    0.4752   -0.4972 N   0  0  0  0  0  0  0  0  0  0  0  0
   -3.6520   -0.1879   -1.6607 N   0  0  0  0  0  0  0  0  0  0  0  0
    2.2892   -2.1818    0.4759 C   0  0  0  0  0  0  0  0  0  0  0  0
    1.0128   -1.3381    0.5775 C   0  0  0  0  0  0  0  0  0  0  0  0
    3.3127   -1.1623    0.0932 C   0  0  0  0  0  0  0  0  0  0  0  0
    2.7550    0.1133   -0.0088 C   0  0  0  0  0  0  0  0  0  0  0  0
    4.6618   -1.3767   -0.1430 C   0  0  0  0  0  0  0  0  0  0  0  0
    3.5369    1.2064   -0.3506 C   0  0  0  0  0  0  0  0  0  0  0  0
    0.5152    1.1351    0.2783 C   0  0  0  0  0  0  0  0  0  0  0  0
    5.4571   -0.2838   -0.4881 C   0  0  0  0  0  0  0  0  0  0  0  0
    4.8982    0.9982   -0.5908 C   0  0  0  0  0  0  0  0  0  0  0  0
   -0.8887    0.7946    0.6166 C   0  0  0  0  0  0  0  0  0  0  0  0
   -3.0029    0.1067   -0.5307 C   0  0  0  0  0  0  0  0  0  0  0  0
   -3.8300    0.0072    0.6014 C   0  0  0  0  0  0  0  0  0  0  0  0
   -5.0417   -0.3717    0.0870 C   0  0  0  0  0  0  0  0  0  0  0  0
   -6.3530   -0.6583    0.6817 C   0  0  0  0  0  0  0  0  0  0  0  0
    2.5321   -2.6452    1.4372 H   0  0  0  0  0  0  0  0  0  0  0  0
    2.1906   -2.9558   -0.2913 H   0  0  0  0  0  0  0  0  0  0  0  0
    0.5751   -1.3889    1.5808 H   0  0  0  0  0  0  0  0  0  0  0  0
    0.2562   -1.6725   -0.1411 H   0  0  0  0  0  0  0  0  0  0  0  0
    5.0940   -2.3684   -0.0625 H   0  0  0  0  0  0  0  0  0  0  0  0
    3.1331    2.2077   -0.4380 H   0  0  0  0  0  0  0  0  0  0  0  0
    6.5174   -0.4253   -0.6785 H   0  0  0  0  0  0  0  0  0  0  0  0
    5.5318    1.8391   -0.8605 H   0  0  0  0  0  0  0  0  0  0  0  0
   -1.1913    0.4956   -1.4110 H   0  0  0  0  0  0  0  0  0  0  0  0
   -3.6071    0.1784    1.6436 H   0  0  0  0  0  0  0  0  0  0  0  0
   -6.3292   -0.5356    1.7690 H   0  0  0  0  0  0  0  0  0  0  0  0
   -6.6582   -1.6864    0.4635 H   0  0  0  0  0  0  0  0  0  0  0  0
   -7.1136    0.0189    0.2810 H   0  0  0  0  0  0  0  0  0  0  0  0
  1 13  2  0  0  0  0
  2 16  2  0  0  0  0
  3  6  1  0  0  0  0
  3 19  1  0  0  0  0
  4  8  1  0  0  0  0
  4 10  1  0  0  0  0
  4 13  1  0  0  0  0
  5 16  1  0  0  0  0
  5 17  1  0  0  0  0
  5 29  1  0  0  0  0
  6 17  2  0  0  0  0
  7  8  1  0  0  0  0
  7  9  1  0  0  0  0
  7 21  1  0  0  0  0
  7 22  1  0  0  0  0
  8 23  1  0  0  0  0
  8 24  1  0  0  0  0
  9 10  1  0  0  0  0
  9 11  2  0  0  0  0
 10 12  2  0  0  0  0
 11 14  1  0  0  0  0
 11 25  1  0  0  0  0
 12 15  1  0  0  0  0
 12 26  1  0  0  0  0
 13 16  1  0  0  0  0
 14 15  2  0  0  0  0
 14 27  1  0  0  0  0
 15 28  1  0  0  0  0
 17 18  1  0  0  0  0
 18 19  2  0  0  0  0
 18 30  1  0  0  0  0
 19 20  1  0  0  0  0
 20 31  1  0  0  0  0
 20 32  1  0  0  0  0
 20 33  1  0  0  0  0
M  END
> <PUBCHEM_COMPOUND_CID>
47205508

> <PUBCHEM_CONFORMER_RMSD>
0.6

> <PUBCHEM_CONFORMER_DIVERSEORDER>
1
22
19
21
2
14
10
3
5
15
13
16
12
4
17
9
20
18
8
7
6
11

> <PUBCHEM_MMFF94_PARTIAL_CHARGES>
26
1 -0.57
10 0.12
11 -0.15
12 -0.15
13 0.63
14 -0.15
15 -0.15
16 0.63
17 0.35
18 -0.15
19 -0.04
2 -0.57
20 0.18
25 0.15
26 0.15
27 0.15
28 0.15
29 0.37
3 -0.02
30 0.15
4 -0.48
5 -0.49
6 -0.41
7 0.14
8 0.3
9 -0.14

> <PUBCHEM_EFFECTIVE_ROTOR_COUNT>
4.6

> <PUBCHEM_PHARMACOPHORE_FEATURES>
6
1 1 acceptor
1 2 acceptor
1 5 donor
5 3 6 17 18 19 rings
5 4 7 8 9 10 rings
6 9 10 11 12 14 15 rings

> <PUBCHEM_HEAVY_ATOM_COUNT>
20

> <PUBCHEM_ATOM_DEF_STEREO_COUNT>
0

> <PUBCHEM_ATOM_UDEF_STEREO_COUNT>
0

> <PUBCHEM_BOND_DEF_STEREO_COUNT>
0

> <PUBCHEM_BOND_UDEF_STEREO_COUNT>
0

> <PUBCHEM_ISOTOPIC_ATOM_COUNT>
0

> <PUBCHEM_COMPONENT_COUNT>
1

> <PUBCHEM_CACTVS_TAUTO_COUNT>
8

> <PUBCHEM_CONFORMER_ID>
02D04C8400000001

> <PUBCHEM_MMFF94_ENERGY>
43.9894

> <PUBCHEM_FEATURE_SELFOVERLAP>
30.533

> <PUBCHEM_SHAPE_FINGERPRINT>
11045515 52 18342177782209961997
11287383 113 17632857508019408277
11545043 162 14490478547908850407
12236239 1 18040428897761888369
12507557 5 9151168766738743959
12553582 1 18114475516992826391
12596602 18 16805609127310140859
12730499 353 18060696187017499842
12788726 201 17677042555640001337
12916748 109 14908179772294428829
13402501 40 18059847334345610995
13583140 156 16343692210986184216
13675066 3 6266893571855646106
13836976 161 18343578526085308502
13862211 1 18341049722614551242
14350574 20 18131628963896685137
14576447 43 18335707147753193382
15142383 8 18337951298778971625
15183329 4 18338247071918056269
15188451 53 14779849122113785709
15375462 189 18186527613504328971
15537594 2 18259707796156376375
17492 89 18122907792026292162
17834072 33 18187082853659177017
1813 80 18113889481384902837
18222031 100 16371021693201452125
19489759 90 15195566805736893503
200 152 18408321111659356112
20028762 73 18262802986140668358
20645477 70 18272650190481738778
21033650 10 14907055074762288262
21267235 1 18336819879591038846
21344244 181 18040979757747174494
21521721 280 18338510833837578568
21623969 137 18341601612668697259
221357 26 18272940423007542453
22950370 63 17967814946619087447
23035841 295 17821726143508321678
23402539 116 18259984915835301188
235170 7 17418103156104063703
23557571 272 16845574240227636477
23559900 14 18341333275516715296
2767999 5 12103846748142417943
2838139 119 8862673352809464115
2871803 45 18342739650115584102
314173 85 16081092593038479777
314194 84 18333733520049672203
3411729 13 15937554549925332224
34797466 226 16558739109729364287
351380 3 17967817145695253087
46194498 28 17489304140347228765
465052 167 18114457894478436079
5283173 99 17489314138862470357
602551 16 15864363423528218494

> <PUBCHEM_SHAPE_MULTIPOLES>
379.04
13.38
1.65
1.05
10.27
0.1
-0.05
2.89
-2.36
-1.77
0.2
1.05
-0.06
-0.28

> <PUBCHEM_SHAPE_SELFOVERLAP>
825.312

> <PUBCHEM_SHAPE_VOLUME>
205.6

> <PUBCHEM_COORDINATE_TYPE>
2
5
10

$$$$

