13340
  -OEChem-06261209073D

 50 53  0     0  0  0  0  0  0999 V2000
   -1.4346    2.8268    0.1228 Br  0  0  0  0  0  0  0  0  0  0  0  0
   -6.7083    1.5514   -1.8250 F   0  0  0  0  0  0  0  0  0  0  0  0
    3.9486    0.0991   -0.4975 O   0  0  0  0  0  0  0  0  0  0  0  0
   -1.6316   -0.0436    0.0097 C   0  0  0  0  0  0  0  0  0  0  0  0
   -0.1388   -0.0057   -0.1267 C   0  0  0  0  0  0  0  0  0  0  0  0
   -2.3444   -1.3115    0.0176 C   0  0  0  0  0  0  0  0  0  0  0  0
   -2.3020    1.1486    0.1270 C   0  0  0  0  0  0  0  0  0  0  0  0
    0.4004    0.0657   -1.3871 C   0  0  0  0  0  0  0  0  0  0  0  0
    0.6210   -0.0439    1.0163 C   0  0  0  0  0  0  0  0  0  0  0  0
    2.5939    0.0642   -0.3741 C   0  0  0  0  0  0  0  0  0  0  0  0
   -3.7689    1.2516    0.2682 C   0  0  0  0  0  0  0  0  0  0  0  0
    1.7890    0.1011   -1.5129 C   0  0  0  0  0  0  0  0  0  0  0  0
    2.0097   -0.0084    0.8905 C   0  0  0  0  0  0  0  0  0  0  0  0
   -2.5749   -1.9744    1.2232 C   0  0  0  0  0  0  0  0  0  0  0  0
   -2.7974   -1.8647   -1.1801 C   0  0  0  0  0  0  0  0  0  0  0  0
    4.7119    0.0582    0.7073 C   0  0  0  0  0  0  0  0  0  0  0  0
    6.1708    0.1378    0.3658 C   0  0  0  0  0  0  0  0  0  0  0  0
   -4.5506    1.3538   -0.8689 C   0  0  0  0  0  0  0  0  0  0  0  0
   -4.3271    1.2434    1.5343 C   0  0  0  0  0  0  0  0  0  0  0  0
   -3.2582   -3.1904    1.2310 C   0  0  0  0  0  0  0  0  0  0  0  0
   -3.4808   -3.0806   -1.1722 C   0  0  0  0  0  0  0  0  0  0  0  0
   -3.7111   -3.7435    0.0334 C   0  0  0  0  0  0  0  0  0  0  0  0
    6.8889   -1.0306    0.1367 C   0  0  0  0  0  0  0  0  0  0  0  0
    6.7915    1.3792    0.2810 C   0  0  0  0  0  0  0  0  0  0  0  0
   -5.9358    1.4510   -0.7355 C   0  0  0  0  0  0  0  0  0  0  0  0
   -5.7120    1.3405    1.6677 C   0  0  0  0  0  0  0  0  0  0  0  0
   -6.5164    1.4442    0.5328 C   0  0  0  0  0  0  0  0  0  0  0  0
    8.2451   -0.9568   -0.1809 C   0  0  0  0  0  0  0  0  0  0  0  0
    8.1477    1.4528   -0.0369 C   0  0  0  0  0  0  0  0  0  0  0  0
    8.8745    0.2848   -0.2678 C   0  0  0  0  0  0  0  0  0  0  0  0
   -0.2182    0.0959   -2.2792 H   0  0  0  0  0  0  0  0  0  0  0  0
    0.1739   -0.1000    2.0046 H   0  0  0  0  0  0  0  0  0  0  0  0
    2.2383    0.1581   -2.5006 H   0  0  0  0  0  0  0  0  0  0  0  0
    2.5708   -0.0428    1.8179 H   0  0  0  0  0  0  0  0  0  0  0  0
   -2.2297   -1.5572    2.1662 H   0  0  0  0  0  0  0  0  0  0  0  0
   -2.6273   -1.3611   -2.1288 H   0  0  0  0  0  0  0  0  0  0  0  0
    4.5288   -0.8774    1.2524 H   0  0  0  0  0  0  0  0  0  0  0  0
    4.4637    0.9080    1.3572 H   0  0  0  0  0  0  0  0  0  0  0  0
   -4.1106    1.3600   -1.8624 H   0  0  0  0  0  0  0  0  0  0  0  0
   -3.7113    1.1627    2.4260 H   0  0  0  0  0  0  0  0  0  0  0  0
   -3.4381   -3.7062    2.1696 H   0  0  0  0  0  0  0  0  0  0  0  0
   -3.8340   -3.5111   -2.1046 H   0  0  0  0  0  0  0  0  0  0  0  0
   -4.2435   -4.6902    0.0395 H   0  0  0  0  0  0  0  0  0  0  0  0
    6.4086   -2.0032    0.1990 H   0  0  0  0  0  0  0  0  0  0  0  0
    6.2349    2.2957    0.4563 H   0  0  0  0  0  0  0  0  0  0  0  0
   -6.1643    1.3350    2.6551 H   0  0  0  0  0  0  0  0  0  0  0  0
   -7.5948    1.5197    0.6363 H   0  0  0  0  0  0  0  0  0  0  0  0
    8.8110   -1.8662   -0.3615 H   0  0  0  0  0  0  0  0  0  0  0  0
    8.6378    2.4196   -0.1053 H   0  0  0  0  0  0  0  0  0  0  0  0
    9.9303    0.3423   -0.5156 H   0  0  0  0  0  0  0  0  0  0  0  0
  1  7  1  0  0  0  0
  2 25  1  0  0  0  0
  3 10  1  0  0  0  0
  3 16  1  0  0  0  0
  4  5  1  0  0  0  0
  4  6  1  0  0  0  0
  4  7  2  0  0  0  0
  5  8  2  0  0  0  0
  5  9  1  0  0  0  0
  6 14  2  0  0  0  0
  6 15  1  0  0  0  0
  7 11  1  0  0  0  0
  8 12  1  0  0  0  0
  8 31  1  0  0  0  0
  9 13  2  0  0  0  0
  9 32  1  0  0  0  0
 10 12  2  0  0  0  0
 10 13  1  0  0  0  0
 11 18  2  0  0  0  0
 11 19  1  0  0  0  0
 12 33  1  0  0  0  0
 13 34  1  0  0  0  0
 14 20  1  0  0  0  0
 14 35  1  0  0  0  0
 15 21  2  0  0  0  0
 15 36  1  0  0  0  0
 16 17  1  0  0  0  0
 16 37  1  0  0  0  0
 16 38  1  0  0  0  0
 17 23  2  0  0  0  0
 17 24  1  0  0  0  0
 18 25  1  0  0  0  0
 18 39  1  0  0  0  0
 19 26  2  0  0  0  0
 19 40  1  0  0  0  0
 20 22  2  0  0  0  0
 20 41  1  0  0  0  0
 21 22  1  0  0  0  0
 21 42  1  0  0  0  0
 22 43  1  0  0  0  0
 23 28  1  0  0  0  0
 23 44  1  0  0  0  0
 24 29  2  0  0  0  0
 24 45  1  0  0  0  0
 25 27  2  0  0  0  0
 26 27  1  0  0  0  0
 26 46  1  0  0  0  0
 27 47  1  0  0  0  0
 28 30  2  0  0  0  0
 28 48  1  0  0  0  0
 29 30  1  0  0  0  0
 29 49  1  0  0  0  0
 30 50  1  0  0  0  0
M  END
> <PUBCHEM_COMPOUND_CID>
13340

> <PUBCHEM_CONFORMER_RMSD>
0.8

> <PUBCHEM_CONFORMER_DIVERSEORDER>
1
6
9
12
10
7
19
3
20
16
29
27
15
24
23
28
13
11
21
4
5
8
18
26
17
14
25
2
22

> <PUBCHEM_MMFF94_PARTIAL_CHARGES>
48
1 -0.11
10 0.08
11 0.03
12 -0.15
13 -0.15
14 -0.15
15 -0.15
16 0.42
17 -0.14
18 -0.15
19 -0.15
2 -0.19
20 -0.15
21 -0.15
22 -0.15
23 -0.15
24 -0.15
25 0.19
26 -0.15
27 -0.15
28 -0.15
29 -0.15
3 -0.36
30 -0.15
31 0.15
32 0.15
33 0.15
34 0.15
35 0.15
36 0.15
39 0.15
4 -0.06
40 0.15
41 0.15
42 0.15
43 0.15
44 0.15
45 0.15
46 0.15
47 0.15
48 0.15
49 0.15
5 0.03
50 0.15
6 0.03
7 0.08
8 -0.15
9 -0.15

> <PUBCHEM_EFFECTIVE_ROTOR_COUNT>
6

> <PUBCHEM_PHARMACOPHORE_FEATURES>
6
1 1 hydrophobe
1 3 acceptor
6 11 18 19 25 26 27 rings
6 17 23 24 28 29 30 rings
6 5 8 9 10 12 13 rings
6 6 14 15 20 21 22 rings

> <PUBCHEM_HEAVY_ATOM_COUNT>
30

> <PUBCHEM_ATOM_DEF_STEREO_COUNT>
0

> <PUBCHEM_ATOM_UDEF_STEREO_COUNT>
0

> <PUBCHEM_BOND_DEF_STEREO_COUNT>
0

> <PUBCHEM_BOND_UDEF_STEREO_COUNT>
1

> <PUBCHEM_ISOTOPIC_ATOM_COUNT>
0

> <PUBCHEM_COMPONENT_COUNT>
1

> <PUBCHEM_CACTVS_TAUTO_COUNT>
1

> <PUBCHEM_CONFORMER_ID>
0000341C00000001

> <PUBCHEM_MMFF94_ENERGY>
108.0739

> <PUBCHEM_FEATURE_SELFOVERLAP>
30.446

> <PUBCHEM_SHAPE_FINGERPRINT>
10 15 17917991698377719608
10119406 146 18188481514144193038
11135926 11 16271937008505447666
11315181 36 18186520986037546801
11331351 85 17917709141407056292
12373685 5 18188220883171498446
12539745 222 17968927588405811819
12616971 3 17203601558876479926
13073987 5 8718837483377805068
13383668 251 14116654429844861108
13540713 5 18055617435666741869
13911987 19 18269289001143128141
13947920 75 18335990817816862483
15021287 119 16988838354916915079
15131766 46 15264488485169898415
15183329 4 18261396676429200656
15439362 3 18121781901157289919
15461852 350 17095245795755022308
1577012 14 18059286566715357556
15849732 13 17703789253895953181
17093844 174 18335141964596165466
17980427 23 18201152153314617876
19315958 150 18338512057497075751
21033648 29 17822305544040782632
21236236 1 18410855425911270714
21756936 100 17418375796643795523
21792961 116 17458056080811642906
23559900 14 18334865991361908224
23576562 1 18130233649350586165
249057 3 18342457040877585196
4073 2 18412542090382371186
4403749 210 18189060807212904030
44802255 64 18059583524737829863
484985 159 17274819083340279067
5028188 123 18272079476044864478
6009941 240 18409727361752263506
6086070 43 17676778595339788346
6669772 16 18338513174985723119
6691757 9 18335416872842336563
7226269 152 18410294739743230961

> <PUBCHEM_SHAPE_MULTIPOLES>
610.19
22.63
3.08
1.35
50.83
2.61
0.07
-6.42
-0.13
-6.26
-0.14
-1.83
0.06
0.08

> <PUBCHEM_SHAPE_SELFOVERLAP>
1330.676

> <PUBCHEM_SHAPE_VOLUME>
336.9

> <PUBCHEM_COORDINATE_TYPE>
2
5
10

$$$$

