4282
  -OEChem-06261200002D

 49 48  0     0  0  0  0  0  0999 V2000
    7.1962    0.0600    0.0000 N   0  0  0  0  0  0  0  0  0  0  0  0
   10.6603    0.0600    0.0000 N   0  0  0  0  0  0  0  0  0  0  0  0
    3.7320    0.0600    0.0000 N   0  0  0  0  0  0  0  0  0  0  0  0
   14.1244    0.0600    0.0000 N   0  0  0  0  0  0  0  0  0  0  0  0
    8.9282    0.0600    0.0000 C   0  0  0  0  0  0  0  0  0  0  0  0
    8.0622    0.5600    0.0000 C   0  0  0  0  0  0  0  0  0  0  0  0
    9.7942    0.5600    0.0000 C   0  0  0  0  0  0  0  0  0  0  0  0
    6.3301    0.5600    0.0000 C   0  0  0  0  0  0  0  0  0  0  0  0
   11.5263    0.5600    0.0000 C   0  0  0  0  0  0  0  0  0  0  0  0
    5.4641    0.0600    0.0000 C   0  0  0  0  0  0  0  0  0  0  0  0
   12.3923    0.0600    0.0000 C   0  0  0  0  0  0  0  0  0  0  0  0
    4.5981    0.5600    0.0000 C   0  0  0  0  0  0  0  0  0  0  0  0
   13.2583    0.5600    0.0000 C   0  0  0  0  0  0  0  0  0  0  0  0
    2.8660    0.5600    0.0000 C   0  0  0  0  0  0  0  0  0  0  0  0
   14.9904    0.5600    0.0000 C   0  0  0  0  0  0  0  0  0  0  0  0
    2.0000    0.0600    0.0000 C   0  0  0  0  0  0  0  0  0  0  0  0
   15.8564    0.0600    0.0000 C   0  0  0  0  0  0  0  0  0  0  0  0
    8.5297   -0.4149    0.0000 H   0  0  0  0  0  0  0  0  0  0  0  0
    9.3267   -0.4149    0.0000 H   0  0  0  0  0  0  0  0  0  0  0  0
   10.1928    1.0350    0.0000 H   0  0  0  0  0  0  0  0  0  0  0  0
    9.3957    1.0350    0.0000 H   0  0  0  0  0  0  0  0  0  0  0  0
    8.4607    1.0350    0.0000 H   0  0  0  0  0  0  0  0  0  0  0  0
    7.6636    1.0350    0.0000 H   0  0  0  0  0  0  0  0  0  0  0  0
    6.7287    1.0350    0.0000 H   0  0  0  0  0  0  0  0  0  0  0  0
    5.9316    1.0350    0.0000 H   0  0  0  0  0  0  0  0  0  0  0  0
   11.9248    1.0350    0.0000 H   0  0  0  0  0  0  0  0  0  0  0  0
   11.1278    1.0350    0.0000 H   0  0  0  0  0  0  0  0  0  0  0  0
    5.0656   -0.4149    0.0000 H   0  0  0  0  0  0  0  0  0  0  0  0
    5.8626   -0.4149    0.0000 H   0  0  0  0  0  0  0  0  0  0  0  0
   11.9938   -0.4149    0.0000 H   0  0  0  0  0  0  0  0  0  0  0  0
   12.7908   -0.4149    0.0000 H   0  0  0  0  0  0  0  0  0  0  0  0
    7.1962   -0.5600    0.0000 H   0  0  0  0  0  0  0  0  0  0  0  0
   10.6603   -0.5600    0.0000 H   0  0  0  0  0  0  0  0  0  0  0  0
    4.9966    1.0350    0.0000 H   0  0  0  0  0  0  0  0  0  0  0  0
    4.1996    1.0350    0.0000 H   0  0  0  0  0  0  0  0  0  0  0  0
   13.6569    1.0350    0.0000 H   0  0  0  0  0  0  0  0  0  0  0  0
   12.8598    1.0350    0.0000 H   0  0  0  0  0  0  0  0  0  0  0  0
    3.7320   -0.5600    0.0000 H   0  0  0  0  0  0  0  0  0  0  0  0
   14.1244   -0.5600    0.0000 H   0  0  0  0  0  0  0  0  0  0  0  0
    3.2646    1.0350    0.0000 H   0  0  0  0  0  0  0  0  0  0  0  0
    2.4675    1.0350    0.0000 H   0  0  0  0  0  0  0  0  0  0  0  0
   15.3889    1.0350    0.0000 H   0  0  0  0  0  0  0  0  0  0  0  0
   14.5919    1.0350    0.0000 H   0  0  0  0  0  0  0  0  0  0  0  0
    1.6900    0.5969    0.0000 H   0  0  0  0  0  0  0  0  0  0  0  0
    1.4631   -0.2500    0.0000 H   0  0  0  0  0  0  0  0  0  0  0  0
    2.3100   -0.4769    0.0000 H   0  0  0  0  0  0  0  0  0  0  0  0
   15.5464   -0.4769    0.0000 H   0  0  0  0  0  0  0  0  0  0  0  0
   16.3933   -0.2500    0.0000 H   0  0  0  0  0  0  0  0  0  0  0  0
   16.1664    0.5969    0.0000 H   0  0  0  0  0  0  0  0  0  0  0  0
  1  6  1  0  0  0  0
  1  8  1  0  0  0  0
  1 32  1  0  0  0  0
  2  7  1  0  0  0  0
  2  9  1  0  0  0  0
  2 33  1  0  0  0  0
  3 12  1  0  0  0  0
  3 14  1  0  0  0  0
  3 38  1  0  0  0  0
  4 13  1  0  0  0  0
  4 15  1  0  0  0  0
  4 39  1  0  0  0  0
  5  6  1  0  0  0  0
  5  7  1  0  0  0  0
  5 18  1  0  0  0  0
  5 19  1  0  0  0  0
  6 22  1  0  0  0  0
  6 23  1  0  0  0  0
  7 20  1  0  0  0  0
  7 21  1  0  0  0  0
  8 10  1  0  0  0  0
  8 24  1  0  0  0  0
  8 25  1  0  0  0  0
  9 11  1  0  0  0  0
  9 26  1  0  0  0  0
  9 27  1  0  0  0  0
 10 12  1  0  0  0  0
 10 28  1  0  0  0  0
 10 29  1  0  0  0  0
 11 13  1  0  0  0  0
 11 30  1  0  0  0  0
 11 31  1  0  0  0  0
 12 34  1  0  0  0  0
 12 35  1  0  0  0  0
 13 36  1  0  0  0  0
 13 37  1  0  0  0  0
 14 16  1  0  0  0  0
 14 40  1  0  0  0  0
 14 41  1  0  0  0  0
 15 17  1  0  0  0  0
 15 42  1  0  0  0  0
 15 43  1  0  0  0  0
 16 44  1  0  0  0  0
 16 45  1  0  0  0  0
 16 46  1  0  0  0  0
 17 47  1  0  0  0  0
 17 48  1  0  0  0  0
 17 49  1  0  0  0  0
M  END
> <PUBCHEM_COMPOUND_CID>
4282

> <PUBCHEM_COMPOUND_CANONICALIZED>
1

> <PUBCHEM_CACTVS_COMPLEXITY>
117

> <PUBCHEM_CACTVS_HBOND_ACCEPTOR>
4

> <PUBCHEM_CACTVS_HBOND_DONOR>
4

> <PUBCHEM_CACTVS_ROTATABLE_BOND>
14

> <PUBCHEM_CACTVS_SUBSKEYS>
AAADcfBzgAAAAAAAAAAAAAAAAAAAAAAAAAAAAAAAAAAAAAAAAAAAHAAQAAAACADBAAQCAALAAAAAAAAAAAAAAAAAAAAAAIAIAAAAAAAAQAAEAAAAEACAAAAAAAAAAAAAAAAAAAAAAAAAAAAAAAAAAAAAAA==

> <PUBCHEM_IUPAC_OPENEYE_NAME>
N-ethyl-N'-[3-[3-(ethylamino)propylamino]propyl]propane-1,3-diamine

> <PUBCHEM_IUPAC_CAS_NAME>
N-ethyl-N'-[3-[3-(ethylamino)propylamino]propyl]propane-1,3-diamine

> <PUBCHEM_IUPAC_NAME>
N-ethyl-N'-[3-[3-(ethylamino)propylamino]propyl]propane-1,3-diamine

> <PUBCHEM_IUPAC_SYSTEMATIC_NAME>
N-ethyl-N'-[3-[3-(ethylamino)propylamino]propyl]propane-1,3-diamine

> <PUBCHEM_IUPAC_TRADITIONAL_NAME>
ethyl-[3-[3-[3-(ethylamino)propylamino]propylamino]propyl]amine

> <PUBCHEM_IUPAC_INCHI>
InChI=1S/C13H32N4/c1-3-14-8-5-10-16-12-7-13-17-11-6-9-15-4-2/h14-17H,3-13H2,1-2H3

> <PUBCHEM_IUPAC_INCHIKEY>
UMJJGDUYVQCBMC-UHFFFAOYSA-N

> <PUBCHEM_XLOGP3_AA>
0.3

> <PUBCHEM_EXACT_MASS>
244.262697

> <PUBCHEM_MOLECULAR_FORMULA>
C13H32N4

> <PUBCHEM_MOLECULAR_WEIGHT>
244.41998

> <PUBCHEM_OPENEYE_CAN_SMILES>
CCNCCCNCCCNCCCNCC

> <PUBCHEM_OPENEYE_ISO_SMILES>
CCNCCCNCCCNCCCNCC

> <PUBCHEM_CACTVS_TPSA>
48.1

> <PUBCHEM_MONOISOTOPIC_WEIGHT>
244.262697

> <PUBCHEM_TOTAL_CHARGE>
0

> <PUBCHEM_HEAVY_ATOM_COUNT>
17

> <PUBCHEM_ATOM_DEF_STEREO_COUNT>
0

> <PUBCHEM_ATOM_UDEF_STEREO_COUNT>
0

> <PUBCHEM_BOND_DEF_STEREO_COUNT>
0

> <PUBCHEM_BOND_UDEF_STEREO_COUNT>
0

> <PUBCHEM_ISOTOPIC_ATOM_COUNT>
0

> <PUBCHEM_COMPONENT_COUNT>
1

> <PUBCHEM_CACTVS_TAUTO_COUNT>
1

> <PUBCHEM_COORDINATE_TYPE>
1
5
255

$$$$

