6823
  -OEChem-06261201312D

 37 39  0     0  0  0  0  0  0999 V2000
    2.8660    1.2327    0.0000 O   0  0  0  0  0  0  0  0  0  0  0  0
    4.5981    0.2327    0.0000 N   0  0  0  0  0  0  0  0  0  0  0  0
    3.7321   -0.2673    0.0000 N   0  0  0  0  0  0  0  0  0  0  0  0
    5.4641    1.7327    0.0000 C   0  0  0  0  0  0  0  0  0  0  0  0
    5.4641    2.7327    0.0000 C   0  0  0  0  0  0  0  0  0  0  0  0
    4.5981    1.2327    0.0000 C   0  0  0  0  0  0  0  0  0  0  0  0
    2.8660   -1.7673    0.0000 C   0  0  0  0  0  0  0  0  0  0  0  0
    3.7321   -1.2673    0.0000 C   0  0  0  0  0  0  0  0  0  0  0  0
    4.5981    3.2327    0.0000 C   0  0  0  0  0  0  0  0  0  0  0  0
    3.7321    1.7327    0.0000 C   0  0  0  0  0  0  0  0  0  0  0  0
    6.3580    1.1980    0.0000 C   0  0  0  0  0  0  0  0  0  0  0  0
    4.5981   -2.7673    0.0000 C   0  0  0  0  0  0  0  0  0  0  0  0
    6.3580    3.2673    0.0000 C   0  0  0  0  0  0  0  0  0  0  0  0
    4.5981   -1.7673    0.0000 C   0  0  0  0  0  0  0  0  0  0  0  0
    3.7321    2.7327    0.0000 C   0  0  0  0  0  0  0  0  0  0  0  0
    2.8660   -2.7673    0.0000 C   0  0  0  0  0  0  0  0  0  0  0  0
    3.7321   -3.2673    0.0000 C   0  0  0  0  0  0  0  0  0  0  0  0
    7.2641    1.7119    0.0000 C   0  0  0  0  0  0  0  0  0  0  0  0
    7.2641    2.7535    0.0000 C   0  0  0  0  0  0  0  0  0  0  0  0
    2.0000   -1.2673    0.0000 C   0  0  0  0  0  0  0  0  0  0  0  0
    5.4641   -3.2673    0.0000 C   0  0  0  0  0  0  0  0  0  0  0  0
    4.5981    3.8527    0.0000 H   0  0  0  0  0  0  0  0  0  0  0  0
    6.3509    0.5780    0.0000 H   0  0  0  0  0  0  0  0  0  0  0  0
    6.3509    3.8873    0.0000 H   0  0  0  0  0  0  0  0  0  0  0  0
    5.1350   -1.4573    0.0000 H   0  0  0  0  0  0  0  0  0  0  0  0
    3.1951    3.0427    0.0000 H   0  0  0  0  0  0  0  0  0  0  0  0
    2.3291   -3.0773    0.0000 H   0  0  0  0  0  0  0  0  0  0  0  0
    3.7321   -3.8873    0.0000 H   0  0  0  0  0  0  0  0  0  0  0  0
    7.7998    1.3998    0.0000 H   0  0  0  0  0  0  0  0  0  0  0  0
    7.7998    3.0656    0.0000 H   0  0  0  0  0  0  0  0  0  0  0  0
    2.3100   -0.7304    0.0000 H   0  0  0  0  0  0  0  0  0  0  0  0
    1.4631   -0.9573    0.0000 H   0  0  0  0  0  0  0  0  0  0  0  0
    1.6900   -1.8043    0.0000 H   0  0  0  0  0  0  0  0  0  0  0  0
    5.1541   -3.8043    0.0000 H   0  0  0  0  0  0  0  0  0  0  0  0
    6.0010   -3.5773    0.0000 H   0  0  0  0  0  0  0  0  0  0  0  0
    5.7741   -2.7304    0.0000 H   0  0  0  0  0  0  0  0  0  0  0  0
    2.3291    1.5427    0.0000 H   0  0  0  0  0  0  0  0  0  0  0  0
  1 10  1  0  0  0  0
  1 37  1  0  0  0  0
  2  3  2  0  0  0  0
  2  6  1  0  0  0  0
  3  8  1  0  0  0  0
  4  5  1  0  0  0  0
  4  6  1  0  0  0  0
  4 11  2  0  0  0  0
  5  9  1  0  0  0  0
  5 13  2  0  0  0  0
  6 10  2  0  0  0  0
  7  8  2  0  0  0  0
  7 16  1  0  0  0  0
  7 20  1  0  0  0  0
  8 14  1  0  0  0  0
  9 15  2  0  0  0  0
  9 22  1  0  0  0  0
 10 15  1  0  0  0  0
 11 18  1  0  0  0  0
 11 23  1  0  0  0  0
 12 14  2  0  0  0  0
 12 17  1  0  0  0  0
 12 21  1  0  0  0  0
 13 19  1  0  0  0  0
 13 24  1  0  0  0  0
 14 25  1  0  0  0  0
 15 26  1  0  0  0  0
 16 17  2  0  0  0  0
 16 27  1  0  0  0  0
 17 28  1  0  0  0  0
 18 19  2  0  0  0  0
 18 29  1  0  0  0  0
 19 30  1  0  0  0  0
 20 31  1  0  0  0  0
 20 32  1  0  0  0  0
 20 33  1  0  0  0  0
 21 34  1  0  0  0  0
 21 35  1  0  0  0  0
 21 36  1  0  0  0  0
M  END
> <PUBCHEM_COMPOUND_CID>
6823

> <PUBCHEM_COMPOUND_CANONICALIZED>
1

> <PUBCHEM_CACTVS_COMPLEXITY>
370

> <PUBCHEM_CACTVS_HBOND_ACCEPTOR>
3

> <PUBCHEM_CACTVS_HBOND_DONOR>
1

> <PUBCHEM_CACTVS_ROTATABLE_BOND>
2

> <PUBCHEM_CACTVS_SUBSKEYS>
AAADceB7IAAAAAAAAAAAAAAAAAAAAAAAAAAwYMAAAAAAAADBVAAAHgAICAAADAyBmAAyxsAAAgCCAiRCQACCAAAgIgAIiAAHbIgKJiKSkZOAcABkwBEI2AeQwLAO4AABQAASEADAAAKAACQgAAAAAAAAAA==

> <PUBCHEM_IUPAC_OPENEYE_NAME>
1-(2,5-dimethylphenyl)azonaphthalen-2-ol

> <PUBCHEM_IUPAC_CAS_NAME>
1-(2,5-dimethylphenyl)azo-2-naphthalenol

> <PUBCHEM_IUPAC_NAME>
1-[(2,5-dimethylphenyl)diazenyl]naphthalen-2-ol

> <PUBCHEM_IUPAC_SYSTEMATIC_NAME>
1-[(2,5-dimethylphenyl)diazenyl]naphthalen-2-ol

> <PUBCHEM_IUPAC_TRADITIONAL_NAME>
1-(2,5-dimethylphenyl)azo-2-naphthol

> <PUBCHEM_IUPAC_INCHI>
InChI=1S/C18H16N2O/c1-12-7-8-13(2)16(11-12)19-20-18-15-6-4-3-5-14(15)9-10-17(18)21/h3-11,21H,1-2H3

> <PUBCHEM_IUPAC_INCHIKEY>
VUSAIZBVVMZCCH-UHFFFAOYSA-N

> <PUBCHEM_XLOGP3_AA>
5.3

> <PUBCHEM_EXACT_MASS>
276.126263

> <PUBCHEM_MOLECULAR_FORMULA>
C18H16N2O

> <PUBCHEM_MOLECULAR_WEIGHT>
276.33244

> <PUBCHEM_OPENEYE_CAN_SMILES>
CC1=CC(=C(C=C1)C)N=NC2=C(C=CC3=CC=CC=C32)O

> <PUBCHEM_OPENEYE_ISO_SMILES>
CC1=CC(=C(C=C1)C)N=NC2=C(C=CC3=CC=CC=C32)O

> <PUBCHEM_CACTVS_TPSA>
45

> <PUBCHEM_MONOISOTOPIC_WEIGHT>
276.126263

> <PUBCHEM_TOTAL_CHARGE>
0

> <PUBCHEM_HEAVY_ATOM_COUNT>
21

> <PUBCHEM_ATOM_DEF_STEREO_COUNT>
0

> <PUBCHEM_ATOM_UDEF_STEREO_COUNT>
0

> <PUBCHEM_BOND_DEF_STEREO_COUNT>
0

> <PUBCHEM_BOND_UDEF_STEREO_COUNT>
0

> <PUBCHEM_ISOTOPIC_ATOM_COUNT>
0

> <PUBCHEM_COMPONENT_COUNT>
1

> <PUBCHEM_CACTVS_TAUTO_COUNT>
3

> <PUBCHEM_COORDINATE_TYPE>
1
5
255

> <PUBCHEM_BONDANNOTATIONS>
10  15  8
11  18  8
12  14  8
12  17  8
13  19  8
16  17  8
18  19  8
4  11  8
4  5  8
4  6  8
5  13  8
5  9  8
6  10  8
7  16  8
7  8  8
8  14  8
9  15  8

$$$$

