10221
  -OEChem-06261204233D

 22 23  0     0  0  0  0  0  0999 V2000
    0.5456    2.7632    0.0141 O   0  0  0  0  0  0  0  0  0  0  0  0
    0.4708   -2.7090   -0.0053 O   0  0  0  0  0  0  0  0  0  0  0  0
    2.7963   -1.4606    0.0180 O   0  0  0  0  0  0  0  0  0  0  0  0
   -0.6844    0.7029    0.0008 C   0  0  0  0  0  0  0  0  0  0  0  0
   -0.7712   -0.6948   -0.0009 C   0  0  0  0  0  0  0  0  0  0  0  0
    1.7995    0.7135   -0.0028 C   0  0  0  0  0  0  0  0  0  0  0  0
    0.6295    1.3835    0.0019 C   0  0  0  0  0  0  0  0  0  0  0  0
    0.4643   -1.4880   -0.0007 C   0  0  0  0  0  0  0  0  0  0  0  0
    1.7822   -0.7763    0.0047 C   0  0  0  0  0  0  0  0  0  0  0  0
   -1.8881    1.4296    0.0007 C   0  0  0  0  0  0  0  0  0  0  0  0
   -2.0079   -1.3527   -0.0026 C   0  0  0  0  0  0  0  0  0  0  0  0
    3.1745    1.3202   -0.0239 C   0  0  0  0  0  0  0  0  0  0  0  0
   -3.1258    0.7792   -0.0011 C   0  0  0  0  0  0  0  0  0  0  0  0
   -3.1852   -0.6105   -0.0028 C   0  0  0  0  0  0  0  0  0  0  0  0
   -1.8900    2.5173    0.0016 H   0  0  0  0  0  0  0  0  0  0  0  0
   -2.0704   -2.4374   -0.0038 H   0  0  0  0  0  0  0  0  0  0  0  0
    3.1794    2.4015   -0.1750 H   0  0  0  0  0  0  0  0  0  0  0  0
    3.7659    0.8910   -0.8405 H   0  0  0  0  0  0  0  0  0  0  0  0
    3.6907    1.1137    0.9195 H   0  0  0  0  0  0  0  0  0  0  0  0
   -4.0427    1.3616   -0.0013 H   0  0  0  0  0  0  0  0  0  0  0  0
   -4.1470   -1.1146   -0.0042 H   0  0  0  0  0  0  0  0  0  0  0  0
    1.4316    3.1479    0.0890 H   0  0  0  0  0  0  0  0  0  0  0  0
  1  7  1  0  0  0  0
  1 22  1  0  0  0  0
  2  8  2  0  0  0  0
  3  9  2  0  0  0  0
  4  5  1  0  0  0  0
  4  7  1  0  0  0  0
  4 10  2  0  0  0  0
  5  8  1  0  0  0  0
  5 11  2  0  0  0  0
  6  7  2  0  0  0  0
  6  9  1  0  0  0  0
  6 12  1  0  0  0  0
  8  9  1  0  0  0  0
 10 13  1  0  0  0  0
 10 15  1  0  0  0  0
 11 14  1  0  0  0  0
 11 16  1  0  0  0  0
 12 17  1  0  0  0  0
 12 18  1  0  0  0  0
 12 19  1  0  0  0  0
 13 14  2  0  0  0  0
 13 20  1  0  0  0  0
 14 21  1  0  0  0  0
M  END
> <PUBCHEM_COMPOUND_CID>
10221

> <PUBCHEM_CONFORMER_RMSD>
0.4

> <PUBCHEM_CONFORMER_DIVERSEORDER>
1

> <PUBCHEM_MMFF94_PARTIAL_CHARGES>
19
1 -0.53
10 -0.15
11 -0.15
12 0.14
13 -0.15
14 -0.15
15 0.15
16 0.15
2 -0.57
20 0.15
21 0.15
22 0.45
3 -0.57
4 0.03
5 0.09
6 -0.12
7 0.05
8 0.48
9 0.56

> <PUBCHEM_EFFECTIVE_ROTOR_COUNT>
0

> <PUBCHEM_PHARMACOPHORE_FEATURES>
5
1 1 donor
1 2 acceptor
1 3 acceptor
6 4 5 10 11 13 14 rings
6 4 5 6 7 8 9 rings

> <PUBCHEM_HEAVY_ATOM_COUNT>
14

> <PUBCHEM_ATOM_DEF_STEREO_COUNT>
0

> <PUBCHEM_ATOM_UDEF_STEREO_COUNT>
0

> <PUBCHEM_BOND_DEF_STEREO_COUNT>
0

> <PUBCHEM_BOND_UDEF_STEREO_COUNT>
0

> <PUBCHEM_ISOTOPIC_ATOM_COUNT>
0

> <PUBCHEM_COMPONENT_COUNT>
1

> <PUBCHEM_CACTVS_TAUTO_COUNT>
17

> <PUBCHEM_CONFORMER_ID>
000027ED00000001

> <PUBCHEM_MMFF94_ENERGY>
33.7133

> <PUBCHEM_FEATURE_SELFOVERLAP>
25.402

> <PUBCHEM_SHAPE_FINGERPRINT>
10608611 8 18412548738348017589
10967382 1 18338516339616133159
11132069 177 18411145752751911104
11471102 20 18411142441912361541
11471102 22 18127391377131813963
12382932 28 18265055906254028313
12423570 1 17604984823730784679
12524768 44 18192990650242519839
13140716 1 18338799021605242010
13380535 76 18338801091911489946
13897977 150 18411140203902194781
14325111 11 18410855455938897413
14790565 3 15595524434566823712
15536298 74 18333449850671285678
15775835 57 18335414634652386253
16945 1 18194683653040538946
17990270 104 18411982442419569139
193761 8 17834113426311583460
20645476 183 17773300250239355150
20645477 70 18336270132451442831
21501502 16 18410575102164714489
2334 1 18410575067620353282
23402539 116 18261683575680463844
23402655 69 18335997428088062109
23463225 33 18341334474049564650
23552423 10 18341612637574932455
23559900 14 18190456250925365582
2748010 2 18410573993899634918
2897 32 18339079293922641581
528886 8 18410297982005325753
53812653 166 18262239911099679032
7364860 26 18262518212106055254
8809292 202 18272925055335008427

> <PUBCHEM_SHAPE_MULTIPOLES>
270.51
4.52
2.5
0.6
0.48
0.17
0
-0.47
-0.01
-0.7
0
0.03
-0.01
-0.01

> <PUBCHEM_SHAPE_SELFOVERLAP>
594.111

> <PUBCHEM_SHAPE_VOLUME>
146.2

> <PUBCHEM_COORDINATE_TYPE>
2
5
10

$$$$

