8659
  -OEChem-06261202592D

 25 26  0     0  0  0  0  0  0999 V2000
    8.9282   -1.7500    0.0000 Cl  0  0  0  0  0  0  0  0  0  0  0  0
    2.0000   -1.7500    0.0000 Cl  0  0  0  0  0  0  0  0  0  0  0  0
    5.4641    0.2500    0.0000 O   0  0  0  0  0  0  0  0  0  0  0  0
    8.0622    1.7500    0.0000 O   0  5  0  0  0  0  0  0  0  0  0  0
    6.3301    1.7500    0.0000 O   0  0  0  0  0  0  0  0  0  0  0  0
    7.1962    1.2500    0.0000 N   0  3  0  0  0  0  0  0  0  0  0  0
    6.3301   -0.2500    0.0000 C   0  0  0  0  0  0  0  0  0  0  0  0
    7.1962    0.2500    0.0000 C   0  0  0  0  0  0  0  0  0  0  0  0
    4.5981   -0.2500    0.0000 C   0  0  0  0  0  0  0  0  0  0  0  0
    6.3301   -1.2500    0.0000 C   0  0  0  0  0  0  0  0  0  0  0  0
    8.0622   -0.2500    0.0000 C   0  0  0  0  0  0  0  0  0  0  0  0
    7.1962   -1.7500    0.0000 C   0  0  0  0  0  0  0  0  0  0  0  0
    8.0622   -1.2500    0.0000 C   0  0  0  0  0  0  0  0  0  0  0  0
    3.7320    0.2500    0.0000 C   0  0  0  0  0  0  0  0  0  0  0  0
    4.5981   -1.2500    0.0000 C   0  0  0  0  0  0  0  0  0  0  0  0
    2.8660   -0.2500    0.0000 C   0  0  0  0  0  0  0  0  0  0  0  0
    3.7320   -1.7500    0.0000 C   0  0  0  0  0  0  0  0  0  0  0  0
    2.8660   -1.2500    0.0000 C   0  0  0  0  0  0  0  0  0  0  0  0
    5.7932   -1.5600    0.0000 H   0  0  0  0  0  0  0  0  0  0  0  0
    8.5991    0.0600    0.0000 H   0  0  0  0  0  0  0  0  0  0  0  0
    7.1962   -2.3700    0.0000 H   0  0  0  0  0  0  0  0  0  0  0  0
    3.7320    0.8700    0.0000 H   0  0  0  0  0  0  0  0  0  0  0  0
    5.1350   -1.5600    0.0000 H   0  0  0  0  0  0  0  0  0  0  0  0
    2.3291    0.0600    0.0000 H   0  0  0  0  0  0  0  0  0  0  0  0
    3.7320   -2.3700    0.0000 H   0  0  0  0  0  0  0  0  0  0  0  0
  1 13  1  0  0  0  0
  2 18  1  0  0  0  0
  3  7  1  0  0  0  0
  3  9  1  0  0  0  0
  4  6  1  0  0  0  0
  5  6  2  0  0  0  0
  6  8  1  0  0  0  0
  7  8  2  0  0  0  0
  7 10  1  0  0  0  0
  8 11  1  0  0  0  0
  9 14  2  0  0  0  0
  9 15  1  0  0  0  0
 10 12  2  0  0  0  0
 10 19  1  0  0  0  0
 11 13  2  0  0  0  0
 11 20  1  0  0  0  0
 12 13  1  0  0  0  0
 12 21  1  0  0  0  0
 14 16  1  0  0  0  0
 14 22  1  0  0  0  0
 15 17  2  0  0  0  0
 15 23  1  0  0  0  0
 16 18  2  0  0  0  0
 16 24  1  0  0  0  0
 17 18  1  0  0  0  0
 17 25  1  0  0  0  0
M  CHG  2   4  -1   6   1
M  END
> <PUBCHEM_COMPOUND_CID>
8659

> <PUBCHEM_COMPOUND_CANONICALIZED>
1

> <PUBCHEM_CACTVS_COMPLEXITY>
290

> <PUBCHEM_CACTVS_HBOND_ACCEPTOR>
3

> <PUBCHEM_CACTVS_HBOND_DONOR>
0

> <PUBCHEM_CACTVS_ROTATABLE_BOND>
2

> <PUBCHEM_CACTVS_SUBSKEYS>
AAADcYByMAAGAAAAAAAAAAAAAAAAAAAAAAAwYAAAAAAAAAABQAAAHgIEAAAACA6BkCAwxoAQRACBACRCQwCCCAAgJwAoiAAHbooOJiKFs5uDOCDkwFEI6AeQQAAAACAAAAIAEAAAQAAABAAgAAAAAAAAAA==

> <PUBCHEM_IUPAC_OPENEYE_NAME>
4-chloro-1-(4-chlorophenoxy)-2-nitro-benzene

> <PUBCHEM_IUPAC_CAS_NAME>
4-chloro-1-(4-chlorophenoxy)-2-nitrobenzene

> <PUBCHEM_IUPAC_NAME>
4-chloro-1-(4-chlorophenoxy)-2-nitrobenzene

> <PUBCHEM_IUPAC_SYSTEMATIC_NAME>
4-chloranyl-1-(4-chloranylphenoxy)-2-nitro-benzene

> <PUBCHEM_IUPAC_TRADITIONAL_NAME>
4-chloro-1-(4-chlorophenoxy)-2-nitro-benzene

> <PUBCHEM_IUPAC_INCHI>
InChI=1S/C12H7Cl2NO3/c13-8-1-4-10(5-2-8)18-12-6-3-9(14)7-11(12)15(16)17/h1-7H

> <PUBCHEM_IUPAC_INCHIKEY>
XEGBVDXTOVJCSJ-UHFFFAOYSA-N

> <PUBCHEM_XLOGP3>
4.4

> <PUBCHEM_EXACT_MASS>
282.980298

> <PUBCHEM_MOLECULAR_FORMULA>
C12H7Cl2NO3

> <PUBCHEM_MOLECULAR_WEIGHT>
284.09488

> <PUBCHEM_OPENEYE_CAN_SMILES>
C1=CC(=CC=C1OC2=C(C=C(C=C2)Cl)[N+](=O)[O-])Cl

> <PUBCHEM_OPENEYE_ISO_SMILES>
C1=CC(=CC=C1OC2=C(C=C(C=C2)Cl)[N+](=O)[O-])Cl

> <PUBCHEM_CACTVS_TPSA>
55

> <PUBCHEM_MONOISOTOPIC_WEIGHT>
282.980298

> <PUBCHEM_TOTAL_CHARGE>
0

> <PUBCHEM_HEAVY_ATOM_COUNT>
18

> <PUBCHEM_ATOM_DEF_STEREO_COUNT>
0

> <PUBCHEM_ATOM_UDEF_STEREO_COUNT>
0

> <PUBCHEM_BOND_DEF_STEREO_COUNT>
0

> <PUBCHEM_BOND_UDEF_STEREO_COUNT>
0

> <PUBCHEM_ISOTOPIC_ATOM_COUNT>
0

> <PUBCHEM_COMPONENT_COUNT>
1

> <PUBCHEM_CACTVS_TAUTO_COUNT>
1

> <PUBCHEM_COORDINATE_TYPE>
1
5
255

> <PUBCHEM_BONDANNOTATIONS>
10  12  8
11  13  8
12  13  8
14  16  8
15  17  8
16  18  8
17  18  8
7  10  8
7  8  8
8  11  8
9  14  8
9  15  8

$$$$

