10839
  -OEChem-06261205012D

 59 61  0     1  0  0  0  0  0999 V2000
    4.5981   -3.5000    0.0000 O   0  0  0  0  0  0  0  0  0  0  0  0
    5.4641    1.0000    0.0000 O   0  0  0  0  0  0  0  0  0  0  0  0
    3.7320    1.0000    0.0000 O   0  0  0  0  0  0  0  0  0  0  0  0
    7.1962    4.0000    0.0000 N   0  0  3  0  0  0  0  0  0  0  0  0
    7.1962    5.0000    0.0000 C   0  0  3  0  0  0  0  0  0  0  0  0
    8.0622    5.5000    0.0000 C   0  0  0  0  0  0  0  0  0  0  0  0
    8.0622    3.5000    0.0000 C   0  0  0  0  0  0  0  0  0  0  0  0
    8.9282    5.0000    0.0000 C   0  0  0  0  0  0  0  0  0  0  0  0
    8.9282    4.0000    0.0000 C   0  0  0  0  0  0  0  0  0  0  0  0
    6.3301    3.5000    0.0000 C   0  0  0  0  0  0  0  0  0  0  0  0
    3.7320   -4.0000    0.0000 C   0  0  0  0  0  0  0  0  0  0  0  0
    2.8660   -3.5000    0.0000 C   0  0  0  0  0  0  0  0  0  0  0  0
    3.7320   -5.0000    0.0000 C   0  0  0  0  0  0  0  0  0  0  0  0
    6.3301    5.5000    0.0000 C   0  0  0  0  0  0  0  0  0  0  0  0
    2.8660   -5.5000    0.0000 C   0  0  0  0  0  0  0  0  0  0  0  0
    2.0000   -4.0000    0.0000 C   0  0  0  0  0  0  0  0  0  0  0  0
    2.0000   -5.0000    0.0000 C   0  0  0  0  0  0  0  0  0  0  0  0
    6.3301    2.5000    0.0000 C   0  0  0  0  0  0  0  0  0  0  0  0
    5.4641    2.0000    0.0000 C   0  0  0  0  0  0  0  0  0  0  0  0
    4.5981   -2.5000    0.0000 C   0  0  0  0  0  0  0  0  0  0  0  0
    5.4641   -2.0000    0.0000 C   0  0  0  0  0  0  0  0  0  0  0  0
    3.7320   -2.0000    0.0000 C   0  0  0  0  0  0  0  0  0  0  0  0
    4.5981   -0.5000    0.0000 C   0  0  0  0  0  0  0  0  0  0  0  0
    4.5981    0.5000    0.0000 C   0  0  0  0  0  0  0  0  0  0  0  0
    5.4641   -1.0000    0.0000 C   0  0  0  0  0  0  0  0  0  0  0  0
    3.7320   -1.0000    0.0000 C   0  0  0  0  0  0  0  0  0  0  0  0
    6.6592    4.6900    0.0000 H   0  0  0  0  0  0  0  0  0  0  0  0
    8.4607    5.9750    0.0000 H   0  0  0  0  0  0  0  0  0  0  0  0
    7.6636    5.9750    0.0000 H   0  0  0  0  0  0  0  0  0  0  0  0
    7.6636    3.0250    0.0000 H   0  0  0  0  0  0  0  0  0  0  0  0
    8.4607    3.0250    0.0000 H   0  0  0  0  0  0  0  0  0  0  0  0
    9.5388    4.8923    0.0000 H   0  0  0  0  0  0  0  0  0  0  0  0
    9.1403    5.5826    0.0000 H   0  0  0  0  0  0  0  0  0  0  0  0
    9.1403    3.4174    0.0000 H   0  0  0  0  0  0  0  0  0  0  0  0
    9.5388    4.1077    0.0000 H   0  0  0  0  0  0  0  0  0  0  0  0
    6.1181    4.0826    0.0000 H   0  0  0  0  0  0  0  0  0  0  0  0
    5.7196    3.3923    0.0000 H   0  0  0  0  0  0  0  0  0  0  0  0
    3.7320   -3.3800    0.0000 H   0  0  0  0  0  0  0  0  0  0  0  0
    3.2646   -3.0250    0.0000 H   0  0  0  0  0  0  0  0  0  0  0  0
    2.4675   -3.0250    0.0000 H   0  0  0  0  0  0  0  0  0  0  0  0
    3.9441   -5.5826    0.0000 H   0  0  0  0  0  0  0  0  0  0  0  0
    4.3426   -4.8923    0.0000 H   0  0  0  0  0  0  0  0  0  0  0  0
    6.6401    6.0369    0.0000 H   0  0  0  0  0  0  0  0  0  0  0  0
    5.7932    5.8100    0.0000 H   0  0  0  0  0  0  0  0  0  0  0  0
    6.0201    4.9631    0.0000 H   0  0  0  0  0  0  0  0  0  0  0  0
    1.7880   -3.4174    0.0000 H   0  0  0  0  0  0  0  0  0  0  0  0
    1.3894   -4.1077    0.0000 H   0  0  0  0  0  0  0  0  0  0  0  0
    2.4675   -5.9750    0.0000 H   0  0  0  0  0  0  0  0  0  0  0  0
    3.2646   -5.9750    0.0000 H   0  0  0  0  0  0  0  0  0  0  0  0
    1.3894   -4.8923    0.0000 H   0  0  0  0  0  0  0  0  0  0  0  0
    1.7880   -5.5826    0.0000 H   0  0  0  0  0  0  0  0  0  0  0  0
    6.5422    1.9174    0.0000 H   0  0  0  0  0  0  0  0  0  0  0  0
    6.9407    2.6077    0.0000 H   0  0  0  0  0  0  0  0  0  0  0  0
    5.2520    2.5826    0.0000 H   0  0  0  0  0  0  0  0  0  0  0  0
    4.8535    1.8923    0.0000 H   0  0  0  0  0  0  0  0  0  0  0  0
    6.0010   -2.3100    0.0000 H   0  0  0  0  0  0  0  0  0  0  0  0
    3.1951   -2.3100    0.0000 H   0  0  0  0  0  0  0  0  0  0  0  0
    6.0010   -0.6900    0.0000 H   0  0  0  0  0  0  0  0  0  0  0  0
    3.1951   -0.6900    0.0000 H   0  0  0  0  0  0  0  0  0  0  0  0
  1 11  1  0  0  0  0
  1 20  1  0  0  0  0
  2 19  1  0  0  0  0
  2 24  1  0  0  0  0
  3 24  2  0  0  0  0
  4  5  1  0  0  0  0
  4  7  1  0  0  0  0
  4 10  1  0  0  0  0
  5  6  1  0  0  0  0
  5 14  1  0  0  0  0
  5 27  1  0  0  0  0
  6  8  1  0  0  0  0
  6 28  1  0  0  0  0
  6 29  1  0  0  0  0
  7  9  1  0  0  0  0
  7 30  1  0  0  0  0
  7 31  1  0  0  0  0
  8  9  1  0  0  0  0
  8 32  1  0  0  0  0
  8 33  1  0  0  0  0
  9 34  1  0  0  0  0
  9 35  1  0  0  0  0
 10 18  1  0  0  0  0
 10 36  1  0  0  0  0
 10 37  1  0  0  0  0
 11 12  1  0  0  0  0
 11 13  1  0  0  0  0
 11 38  1  0  0  0  0
 12 16  1  0  0  0  0
 12 39  1  0  0  0  0
 12 40  1  0  0  0  0
 13 15  1  0  0  0  0
 13 41  1  0  0  0  0
 13 42  1  0  0  0  0
 14 43  1  0  0  0  0
 14 44  1  0  0  0  0
 14 45  1  0  0  0  0
 15 17  1  0  0  0  0
 15 48  1  0  0  0  0
 15 49  1  0  0  0  0
 16 17  1  0  0  0  0
 16 46  1  0  0  0  0
 16 47  1  0  0  0  0
 17 50  1  0  0  0  0
 17 51  1  0  0  0  0
 18 19  1  0  0  0  0
 18 52  1  0  0  0  0
 18 53  1  0  0  0  0
 19 54  1  0  0  0  0
 19 55  1  0  0  0  0
 20 21  2  0  0  0  0
 20 22  1  0  0  0  0
 21 25  1  0  0  0  0
 21 56  1  0  0  0  0
 22 26  2  0  0  0  0
 22 57  1  0  0  0  0
 23 24  1  0  0  0  0
 23 25  2  0  0  0  0
 23 26  1  0  0  0  0
 25 58  1  0  0  0  0
 26 59  1  0  0  0  0
M  END
> <PUBCHEM_COMPOUND_CID>
10839

> <PUBCHEM_COMPOUND_CANONICALIZED>
1

> <PUBCHEM_CACTVS_COMPLEXITY>
414

> <PUBCHEM_CACTVS_HBOND_ACCEPTOR>
4

> <PUBCHEM_CACTVS_HBOND_DONOR>
0

> <PUBCHEM_CACTVS_ROTATABLE_BOND>
8

> <PUBCHEM_CACTVS_SUBSKEYS>
AAADcfB6MAAAAAAAAAAAAAAAAAAAAAAAAAA8YIAAAAAAAAABAAAAHgAAAAAADDzhmAYyDoMABACIAiDSCAACCAAkIAAIiAEOCMgMJjKEtRqGOSCmwBGIqYeY7CzOIAAAAAAAAABAAAAAAAAAAAAAAAAAAA==

> <PUBCHEM_IUPAC_OPENEYE_NAME>
3-(2-methyl-1-piperidyl)propyl 4-(cyclohexoxy)benzoate

> <PUBCHEM_IUPAC_CAS_NAME>
4-cyclohexyloxybenzoic acid 3-(2-methyl-1-piperidinyl)propyl ester

> <PUBCHEM_IUPAC_NAME>
3-(2-methylpiperidin-1-yl)propyl 4-cyclohexyloxybenzoate

> <PUBCHEM_IUPAC_SYSTEMATIC_NAME>
3-(2-methylpiperidin-1-yl)propyl 4-cyclohexyloxybenzoate

> <PUBCHEM_IUPAC_TRADITIONAL_NAME>
4-(cyclohexoxy)benzoic acid 3-(2-methylpiperidino)propyl ester

> <PUBCHEM_IUPAC_INCHI>
InChI=1S/C22H33NO3/c1-18-8-5-6-15-23(18)16-7-17-25-22(24)19-11-13-21(14-12-19)26-20-9-3-2-4-10-20/h11-14,18,20H,2-10,15-17H2,1H3

> <PUBCHEM_IUPAC_INCHIKEY>
YLRNESBGEGGQBK-UHFFFAOYSA-N

> <PUBCHEM_XLOGP3_AA>
5.2

> <PUBCHEM_EXACT_MASS>
359.246044

> <PUBCHEM_MOLECULAR_FORMULA>
C22H33NO3

> <PUBCHEM_MOLECULAR_WEIGHT>
359.50232

> <PUBCHEM_OPENEYE_CAN_SMILES>
CC1CCCCN1CCCOC(=O)C2=CC=C(C=C2)OC3CCCCC3

> <PUBCHEM_OPENEYE_ISO_SMILES>
CC1CCCCN1CCCOC(=O)C2=CC=C(C=C2)OC3CCCCC3

> <PUBCHEM_CACTVS_TPSA>
38.8

> <PUBCHEM_MONOISOTOPIC_WEIGHT>
359.246044

> <PUBCHEM_TOTAL_CHARGE>
0

> <PUBCHEM_HEAVY_ATOM_COUNT>
26

> <PUBCHEM_ATOM_DEF_STEREO_COUNT>
0

> <PUBCHEM_ATOM_UDEF_STEREO_COUNT>
1

> <PUBCHEM_BOND_DEF_STEREO_COUNT>
0

> <PUBCHEM_BOND_UDEF_STEREO_COUNT>
0

> <PUBCHEM_ISOTOPIC_ATOM_COUNT>
0

> <PUBCHEM_COMPONENT_COUNT>
1

> <PUBCHEM_CACTVS_TAUTO_COUNT>
1

> <PUBCHEM_COORDINATE_TYPE>
1
5
255

> <PUBCHEM_BONDANNOTATIONS>
20  21  8
20  22  8
21  25  8
22  26  8
23  25  8
23  26  8
5  14  3

$$$$

