8884
  -OEChem-06261203122D

 31 29  0     0  0  0  0  0  0999 V2000
    1.7321    0.8660    0.0000 S   0  0  0  0  0  0  0  0  0  0  0  0
    0.0000    0.8660    0.0000 Na  0  3  0  0  0  0  0  0  0  0  0  0
    2.5981    1.3660    0.0000 O   0  0  0  0  0  0  0  0  0  0  0  0
    0.8660    0.3660    0.0000 O   0  5  0  0  0  0  0  0  0  0  0  0
    1.2321    1.7321    0.0000 O   0  0  0  0  0  0  0  0  0  0  0  0
    2.2321    0.0000    0.0000 O   0  0  0  0  0  0  0  0  0  0  0  0
    6.0622    1.3660    0.0000 C   0  0  0  0  0  0  0  0  0  0  0  0
    6.9282    0.8660    0.0000 C   0  0  0  0  0  0  0  0  0  0  0  0
    5.1962    0.8660    0.0000 C   0  0  0  0  0  0  0  0  0  0  0  0
    7.7942    1.3660    0.0000 C   0  0  0  0  0  0  0  0  0  0  0  0
    4.3301    1.3660    0.0000 C   0  0  0  0  0  0  0  0  0  0  0  0
    8.6603    0.8660    0.0000 C   0  0  0  0  0  0  0  0  0  0  0  0
    3.4641    0.8660    0.0000 C   0  0  0  0  0  0  0  0  0  0  0  0
    9.5263    1.3660    0.0000 C   0  0  0  0  0  0  0  0  0  0  0  0
    6.4607    1.8410    0.0000 H   0  0  0  0  0  0  0  0  0  0  0  0
    5.6636    1.8410    0.0000 H   0  0  0  0  0  0  0  0  0  0  0  0
    6.5297    0.3911    0.0000 H   0  0  0  0  0  0  0  0  0  0  0  0
    7.3267    0.3911    0.0000 H   0  0  0  0  0  0  0  0  0  0  0  0
    4.7976    0.3911    0.0000 H   0  0  0  0  0  0  0  0  0  0  0  0
    5.5947    0.3911    0.0000 H   0  0  0  0  0  0  0  0  0  0  0  0
    8.1928    1.8410    0.0000 H   0  0  0  0  0  0  0  0  0  0  0  0
    7.3957    1.8410    0.0000 H   0  0  0  0  0  0  0  0  0  0  0  0
    4.7287    1.8410    0.0000 H   0  0  0  0  0  0  0  0  0  0  0  0
    3.9316    1.8410    0.0000 H   0  0  0  0  0  0  0  0  0  0  0  0
    8.2617    0.3911    0.0000 H   0  0  0  0  0  0  0  0  0  0  0  0
    9.0588    0.3911    0.0000 H   0  0  0  0  0  0  0  0  0  0  0  0
    3.8626    0.3911    0.0000 H   0  0  0  0  0  0  0  0  0  0  0  0
    3.0656    0.3911    0.0000 H   0  0  0  0  0  0  0  0  0  0  0  0
    9.8363    0.8291    0.0000 H   0  0  0  0  0  0  0  0  0  0  0  0
   10.0632    1.6760    0.0000 H   0  0  0  0  0  0  0  0  0  0  0  0
    9.2163    1.9030    0.0000 H   0  0  0  0  0  0  0  0  0  0  0  0
  1  3  1  0  0  0  0
  1  4  1  0  0  0  0
  1  5  2  0  0  0  0
  1  6  2  0  0  0  0
  3 13  1  0  0  0  0
  7  8  1  0  0  0  0
  7  9  1  0  0  0  0
  7 15  1  0  0  0  0
  7 16  1  0  0  0  0
  8 10  1  0  0  0  0
  8 17  1  0  0  0  0
  8 18  1  0  0  0  0
  9 11  1  0  0  0  0
  9 19  1  0  0  0  0
  9 20  1  0  0  0  0
 10 12  1  0  0  0  0
 10 21  1  0  0  0  0
 10 22  1  0  0  0  0
 11 13  1  0  0  0  0
 11 23  1  0  0  0  0
 11 24  1  0  0  0  0
 12 14  1  0  0  0  0
 12 25  1  0  0  0  0
 12 26  1  0  0  0  0
 13 27  1  0  0  0  0
 13 28  1  0  0  0  0
 14 29  1  0  0  0  0
 14 30  1  0  0  0  0
 14 31  1  0  0  0  0
M  CHG  2   2   1   4  -1
M  END
> <PUBCHEM_COMPOUND_CID>
8884

> <PUBCHEM_COMPOUND_CANONICALIZED>
1

> <PUBCHEM_CACTVS_COMPLEXITY>
179

> <PUBCHEM_CACTVS_HBOND_ACCEPTOR>
4

> <PUBCHEM_CACTVS_HBOND_DONOR>
0

> <PUBCHEM_CACTVS_ROTATABLE_BOND>
7

> <PUBCHEM_CACTVS_SUBSKEYS>
AAADceBwOCBAAAAAAAAAAAAAAAAAAAAAAAAAAAAAAAAAAAAAAAAAGgAAAAAACACggAICAAAAAAAAAAAAADAAAAAAAAAAAAAAAAAAAAIAAAAAAAAEAAAAAAGAwKAAAAAAAAAAAAAAAAAAAAAAAAAAAAAAAA==

> <PUBCHEM_IUPAC_OPENEYE_NAME>
sodium octyl sulfate

> <PUBCHEM_IUPAC_CAS_NAME>
sodium octyl sulfate

> <PUBCHEM_IUPAC_NAME>
sodium octyl sulfate

> <PUBCHEM_IUPAC_SYSTEMATIC_NAME>
sodium octyl sulfate

> <PUBCHEM_IUPAC_TRADITIONAL_NAME>
sodium octyl sulfate

> <PUBCHEM_IUPAC_INCHI>
InChI=1S/C8H18O4S.Na/c1-2-3-4-5-6-7-8-12-13(9,10)11;/h2-8H2,1H3,(H,9,10,11);/q;+1/p-1

> <PUBCHEM_IUPAC_INCHIKEY>
WFRKJMRGXGWHBM-UHFFFAOYSA-M

> <PUBCHEM_EXACT_MASS>
232.074524

> <PUBCHEM_MOLECULAR_FORMULA>
C8H17NaO4S

> <PUBCHEM_MOLECULAR_WEIGHT>
232.272949

> <PUBCHEM_OPENEYE_CAN_SMILES>
CCCCCCCCOS(=O)(=O)[O-].[Na+]

> <PUBCHEM_OPENEYE_ISO_SMILES>
CCCCCCCCOS(=O)(=O)[O-].[Na+]

> <PUBCHEM_CACTVS_TPSA>
74.8

> <PUBCHEM_MONOISOTOPIC_WEIGHT>
232.074524

> <PUBCHEM_TOTAL_CHARGE>
0

> <PUBCHEM_HEAVY_ATOM_COUNT>
14

> <PUBCHEM_ATOM_DEF_STEREO_COUNT>
0

> <PUBCHEM_ATOM_UDEF_STEREO_COUNT>
0

> <PUBCHEM_BOND_DEF_STEREO_COUNT>
0

> <PUBCHEM_BOND_UDEF_STEREO_COUNT>
0

> <PUBCHEM_ISOTOPIC_ATOM_COUNT>
0

> <PUBCHEM_COMPONENT_COUNT>
2

> <PUBCHEM_CACTVS_TAUTO_COUNT>
1

> <PUBCHEM_COORDINATE_TYPE>
1
5
255

$$$$

