14131
  -OEChem-06241222422D

 36 36  0     1  0  0  0  0  0999 V2000
    7.1760   -1.5075    0.0000 N   0  0  0  0  0  0  0  0  0  0  0  0
    3.8100   -0.1415    0.0000 N   0  0  0  0  0  0  0  0  0  0  0  0
    2.3100    0.7245    0.0000 N   0  0  0  0  0  0  0  0  0  0  0  0
    3.8100    1.5906    0.0000 N   0  0  0  0  0  0  0  0  0  0  0  0
    6.3100   -1.0075    0.0000 C   0  0  3  0  0  0  0  0  0  0  0  0
    6.3100   -0.0075    0.0000 C   0  0  0  0  0  0  0  0  0  0  0  0
    8.0420   -1.0075    0.0000 C   0  0  3  0  0  0  0  0  0  0  0  0
    7.1760    0.4925    0.0000 C   0  0  0  0  0  0  0  0  0  0  0  0
    8.0420   -0.0075    0.0000 C   0  0  0  0  0  0  0  0  0  0  0  0
    5.3100   -1.0075    0.0000 C   0  0  0  0  0  0  0  0  0  0  0  0
    5.8100   -1.8735    0.0000 C   0  0  0  0  0  0  0  0  0  0  0  0
    8.9081   -1.5075    0.0000 C   0  0  0  0  0  0  0  0  0  0  0  0
    4.8100   -0.1415    0.0000 C   0  0  0  0  0  0  0  0  0  0  0  0
    3.3100    0.7245    0.0000 C   0  0  0  0  0  0  0  0  0  0  0  0
    6.0980    0.5751    0.0000 H   0  0  0  0  0  0  0  0  0  0  0  0
    5.6994   -0.1152    0.0000 H   0  0  0  0  0  0  0  0  0  0  0  0
    8.0420   -1.6275    0.0000 H   0  0  0  0  0  0  0  0  0  0  0  0
    7.5746    0.9674    0.0000 H   0  0  0  0  0  0  0  0  0  0  0  0
    6.7775    0.9674    0.0000 H   0  0  0  0  0  0  0  0  0  0  0  0
    7.1760   -2.1275    0.0000 H   0  0  0  0  0  0  0  0  0  0  0  0
    8.6526   -0.1152    0.0000 H   0  0  0  0  0  0  0  0  0  0  0  0
    8.2541    0.5751    0.0000 H   0  0  0  0  0  0  0  0  0  0  0  0
    4.7274   -1.2196    0.0000 H   0  0  0  0  0  0  0  0  0  0  0  0
    5.4177   -1.6181    0.0000 H   0  0  0  0  0  0  0  0  0  0  0  0
    5.2731   -1.5635    0.0000 H   0  0  0  0  0  0  0  0  0  0  0  0
    5.5000   -2.4105    0.0000 H   0  0  0  0  0  0  0  0  0  0  0  0
    6.3469   -2.1835    0.0000 H   0  0  0  0  0  0  0  0  0  0  0  0
    8.5981   -2.0444    0.0000 H   0  0  0  0  0  0  0  0  0  0  0  0
    9.4450   -1.8175    0.0000 H   0  0  0  0  0  0  0  0  0  0  0  0
    9.2181   -0.9706    0.0000 H   0  0  0  0  0  0  0  0  0  0  0  0
    5.3926    0.0706    0.0000 H   0  0  0  0  0  0  0  0  0  0  0  0
    4.7023    0.4691    0.0000 H   0  0  0  0  0  0  0  0  0  0  0  0
    3.5000    2.1275    0.0000 H   0  0  0  0  0  0  0  0  0  0  0  0
    4.4300    1.5906    0.0000 H   0  0  0  0  0  0  0  0  0  0  0  0
    2.0000    1.2615    0.0000 H   0  0  0  0  0  0  0  0  0  0  0  0
    2.0000    0.1876    0.0000 H   0  0  0  0  0  0  0  0  0  0  0  0
  1  5  1  0  0  0  0
  1  7  1  0  0  0  0
  1 20  1  0  0  0  0
  2 13  1  0  0  0  0
  2 14  2  0  0  0  0
  3 14  1  0  0  0  0
  3 35  1  0  0  0  0
  3 36  1  0  0  0  0
  4 14  1  0  0  0  0
  4 33  1  0  0  0  0
  4 34  1  0  0  0  0
  5  6  1  0  0  0  0
  5 10  1  0  0  0  0
  5 11  1  0  0  0  0
  6  8  1  0  0  0  0
  6 15  1  0  0  0  0
  6 16  1  0  0  0  0
  7  9  1  0  0  0  0
  7 12  1  0  0  0  0
  7 17  1  0  0  0  0
  8  9  1  0  0  0  0
  8 18  1  0  0  0  0
  8 19  1  0  0  0  0
  9 21  1  0  0  0  0
  9 22  1  0  0  0  0
 10 13  1  0  0  0  0
 10 23  1  0  0  0  0
 10 24  1  0  0  0  0
 11 25  1  0  0  0  0
 11 26  1  0  0  0  0
 11 27  1  0  0  0  0
 12 28  1  0  0  0  0
 12 29  1  0  0  0  0
 12 30  1  0  0  0  0
 13 31  1  0  0  0  0
 13 32  1  0  0  0  0
M  END
> <PUBCHEM_COMPOUND_CID>
14131

> <PUBCHEM_COMPOUND_CANONICALIZED>
1

> <PUBCHEM_CACTVS_COMPLEXITY>
210

> <PUBCHEM_CACTVS_HBOND_ACCEPTOR>
2

> <PUBCHEM_CACTVS_HBOND_DONOR>
3

> <PUBCHEM_CACTVS_ROTATABLE_BOND>
3

> <PUBCHEM_CACTVS_SUBSKEYS>
AAADceBzgAAAAAAAAAAAAAAAAAAAAAAAAAAsAAAAAAAAAAAAAAAAHAAQAAAADKjBAAQDAALAAAAgAAAAJAAAAAEAAAAAAIAIAAAAAAIAwAAEAAAAEACAAAEQgMAOAAAAAAAAAAAAAAAAAAAAAAAAAAAAAA==

> <PUBCHEM_IUPAC_OPENEYE_NAME>
2-[2-(2,6-dimethyl-2-piperidyl)ethyl]guanidine

> <PUBCHEM_IUPAC_CAS_NAME>
2-[2-(2,6-dimethyl-2-piperidinyl)ethyl]guanidine

> <PUBCHEM_IUPAC_NAME>
2-[2-(2,6-dimethylpiperidin-2-yl)ethyl]guanidine

> <PUBCHEM_IUPAC_SYSTEMATIC_NAME>
2-[2-(2,6-dimethylpiperidin-2-yl)ethyl]guanidine

> <PUBCHEM_IUPAC_TRADITIONAL_NAME>
2-[2-(2,6-dimethyl-2-piperidyl)ethyl]guanidine

> <PUBCHEM_IUPAC_INCHI>
InChI=1S/C10H22N4/c1-8-4-3-5-10(2,14-8)6-7-13-9(11)12/h8,14H,3-7H2,1-2H3,(H4,11,12,13)

> <PUBCHEM_IUPAC_INCHIKEY>
WVKLEDRVIBFQES-UHFFFAOYSA-N

> <PUBCHEM_XLOGP3_AA>
0.1

> <PUBCHEM_EXACT_MASS>
198.184447

> <PUBCHEM_MOLECULAR_FORMULA>
C10H22N4

> <PUBCHEM_MOLECULAR_WEIGHT>
198.30848

> <PUBCHEM_OPENEYE_CAN_SMILES>
CC1CCCC(N1)(C)CCN=C(N)N

> <PUBCHEM_OPENEYE_ISO_SMILES>
CC1CCCC(N1)(C)CCN=C(N)N

> <PUBCHEM_CACTVS_TPSA>
76.4

> <PUBCHEM_MONOISOTOPIC_WEIGHT>
198.184447

> <PUBCHEM_TOTAL_CHARGE>
0

> <PUBCHEM_HEAVY_ATOM_COUNT>
14

> <PUBCHEM_ATOM_DEF_STEREO_COUNT>
0

> <PUBCHEM_ATOM_UDEF_STEREO_COUNT>
2

> <PUBCHEM_BOND_DEF_STEREO_COUNT>
0

> <PUBCHEM_BOND_UDEF_STEREO_COUNT>
0

> <PUBCHEM_ISOTOPIC_ATOM_COUNT>
0

> <PUBCHEM_COMPONENT_COUNT>
1

> <PUBCHEM_CACTVS_TAUTO_COUNT>
2

> <PUBCHEM_COORDINATE_TYPE>
1
5
255

> <PUBCHEM_BONDANNOTATIONS>
5  11  3
7  12  3

$$$$

