4083
  -OEChem-06251223523D

 43 45  0     1  0  0  0  0  0999 V2000
    2.5773    0.8055    1.7986 S   0  0  0  0  0  0  0  0  0  0  0  0
    2.0525    1.4395   -2.5046 O   0  0  0  0  0  0  0  0  0  0  0  0
    3.0369   -2.3179    0.8069 O   0  5  0  0  0  0  0  0  0  0  0  0
    4.3299   -2.5362   -1.0679 O   0  0  0  0  0  0  0  0  0  0  0  0
   -1.5166    1.6847    1.4677 O   0  0  0  0  0  0  0  0  0  0  0  0
    2.1822   -0.0197   -0.6562 N   0  0  0  0  0  0  0  0  0  0  0  0
   -0.6652    1.2325   -0.6420 N   0  0  0  0  0  0  0  0  0  0  0  0
   -3.9885    2.0591    0.3788 N   0  0  0  0  0  0  0  0  0  0  0  0
    1.3702    0.2999    0.5167 C   0  0  2  0  0  0  0  0  0  0  0  0
    4.0644    0.4559    0.7341 C   0  0  0  0  0  0  0  0  0  0  0  0
    3.5652   -0.4015   -0.4551 C   0  0  1  0  0  0  0  0  0  0  0  0
    0.7476    1.4377   -0.3100 C   0  0  1  0  0  0  0  0  0  0  0  0
    1.7171    1.0034   -1.4270 C   0  0  0  0  0  0  0  0  0  0  0  0
    4.6101    1.8095    0.2474 C   0  0  0  0  0  0  0  0  0  0  0  0
    5.1352   -0.2273    1.5925 C   0  0  0  0  0  0  0  0  0  0  0  0
    3.6516   -1.9001   -0.2133 C   0  0  0  0  0  0  0  0  0  0  0  0
   -1.6936    1.3759    0.2906 C   0  0  0  0  0  0  0  0  0  0  0  0
   -3.0736    1.1287   -0.2987 C   0  0  1  0  0  0  0  0  0  0  0  0
   -3.4840   -0.3164   -0.1341 C   0  0  0  0  0  0  0  0  0  0  0  0
   -3.1659   -1.2286   -1.1267 C   0  0  0  0  0  0  0  0  0  0  0  0
   -4.1708   -0.7002    1.0059 C   0  0  0  0  0  0  0  0  0  0  0  0
   -3.5451   -2.5624   -0.9750 C   0  0  0  0  0  0  0  0  0  0  0  0
   -4.5498   -2.0339    1.1577 C   0  0  0  0  0  0  0  0  0  0  0  0
   -4.9497    2.4768   -0.3532 C   0  0  0  0  0  0  0  0  0  0  0  0
   -4.2371   -2.9651    0.1672 C   0  0  0  0  0  0  0  0  0  0  0  0
    0.7049   -0.5195    0.8057 H   0  0  0  0  0  0  0  0  0  0  0  0
    4.1279   -0.1496   -1.3633 H   0  0  0  0  0  0  0  0  0  0  0  0
    0.9383    2.4576    0.0421 H   0  0  0  0  0  0  0  0  0  0  0  0
    5.4854    1.6601   -0.3959 H   0  0  0  0  0  0  0  0  0  0  0  0
    3.8754    2.3771   -0.3329 H   0  0  0  0  0  0  0  0  0  0  0  0
    4.9292    2.4420    1.0846 H   0  0  0  0  0  0  0  0  0  0  0  0
    5.9849   -0.5374    0.9732 H   0  0  0  0  0  0  0  0  0  0  0  0
    5.5286    0.4574    2.3541 H   0  0  0  0  0  0  0  0  0  0  0  0
    4.7706   -1.1100    2.1264 H   0  0  0  0  0  0  0  0  0  0  0  0
   -0.9196    0.9719   -1.5919 H   0  0  0  0  0  0  0  0  0  0  0  0
   -3.0326    1.3722   -1.3706 H   0  0  0  0  0  0  0  0  0  0  0  0
   -2.6272   -0.9261   -2.0199 H   0  0  0  0  0  0  0  0  0  0  0  0
   -4.4141    0.0011    1.7983 H   0  0  0  0  0  0  0  0  0  0  0  0
   -3.3012   -3.2875   -1.7460 H   0  0  0  0  0  0  0  0  0  0  0  0
   -5.0856   -2.3485    2.0485 H   0  0  0  0  0  0  0  0  0  0  0  0
   -5.6876    3.1803    0.0632 H   0  0  0  0  0  0  0  0  0  0  0  0
   -5.1046    2.1731   -1.4026 H   0  0  0  0  0  0  0  0  0  0  0  0
   -4.5315   -4.0037    0.2858 H   0  0  0  0  0  0  0  0  0  0  0  0
  1  9  1  0  0  0  0
  1 10  1  0  0  0  0
  2 13  2  0  0  0  0
  3 16  1  0  0  0  0
  4 16  2  0  0  0  0
  5 17  2  0  0  0  0
  6  9  1  0  0  0  0
  6 11  1  0  0  0  0
  6 13  1  0  0  0  0
  7 12  1  0  0  0  0
  7 17  1  0  0  0  0
  7 35  1  0  0  0  0
  8 18  1  0  0  0  0
  8 24  2  0  0  0  0
  9 12  1  0  0  0  0
  9 26  1  0  0  0  0
 10 11  1  0  0  0  0
 10 14  1  0  0  0  0
 10 15  1  0  0  0  0
 11 16  1  0  0  0  0
 11 27  1  0  0  0  0
 12 13  1  0  0  0  0
 12 28  1  0  0  0  0
 14 29  1  0  0  0  0
 14 30  1  0  0  0  0
 14 31  1  0  0  0  0
 15 32  1  0  0  0  0
 15 33  1  0  0  0  0
 15 34  1  0  0  0  0
 17 18  1  0  0  0  0
 18 19  1  0  0  0  0
 18 36  1  0  0  0  0
 19 20  2  0  0  0  0
 19 21  1  0  0  0  0
 20 22  1  0  0  0  0
 20 37  1  0  0  0  0
 21 23  2  0  0  0  0
 21 38  1  0  0  0  0
 22 25  2  0  0  0  0
 22 39  1  0  0  0  0
 23 25  1  0  0  0  0
 23 40  1  0  0  0  0
 24 41  1  0  0  0  0
 24 42  1  0  0  0  0
 25 43  1  0  0  0  0
M  CHG  1   3  -1
M  END
> <PUBCHEM_COMPOUND_CID>
4083

> <PUBCHEM_CONFORMER_RMSD>
0.8

> <PUBCHEM_CONFORMER_DIVERSEORDER>
1
251
271
207
203
176
60
274
307
181
48
264
83
256
76
243
30
227
234
216
87
147
152
294
90
184
135
182
164
197
26
46
241
280
160
284
174
115
47
191
292
199
136
228
291
116
244
72
298
165
120
189
5
242
18
168
226
129
7
287
106
253
117
201
285
204
180
240
299
215
196
9
96
217
10
58
63
112
33
225
246
122
37
185
257
74
250
210
245
163
304
289
295
8
57
223
248
151
262
300
155
186
279
194
143
101
52
22
34
66
272
293
308
249
273
140
97
290
195
159
232
16
231
268
266
111
172
35
38
36
68
39
259
98
261
123
128
179
110
70
82
61
27
114
282
236
258
56
270
254
40
205
17
118
124
107
188
269
32
187
105
103
296
221
208
51
190
200
113
306
84
11
229
144
170
177
230
126
265
69
91
237
150
137
55
233
99
104
198
158
193
45
153
21
73
171
283
134
102
14
173
19
224
23
81
141
166
301
139
183
24
138
192
6
78
92
43
13
95
79
75
202
219
67
252
235
212
77
278
132
100
93
71
277
275
154
88
131
94
127
167
148
149
161
28
239
297
125
178
121
211
3
213
157
65
31
109
108
145
15
288
20
260
267
238
130
62
50
276
133
146
305
247
169
156
142
86
119
54
59
263
222
175
220
255
303
44
4
209
85
41
286
49
218
214
53
89
42
302
162
2
12
64
80
29
25
206
281

> <PUBCHEM_MMFF94_PARTIAL_CHARGES>
31
1 -0.45
10 0.23
11 0.19
12 0.28
13 0.58
16 0.91
17 0.57
18 0.45
19 -0.14
2 -0.57
20 -0.15
21 -0.15
22 -0.15
23 -0.15
24 0.33
25 -0.15
3 -0.9
35 0.37
37 0.15
38 0.15
39 0.15
4 -0.9
40 0.15
41 0.06
42 0.06
43 0.15
5 -0.57
6 -0.59
7 -0.65
8 -0.7
9 0.44

> <PUBCHEM_EFFECTIVE_ROTOR_COUNT>
6.8

> <PUBCHEM_PHARMACOPHORE_FEATURES>
11
1 2 acceptor
1 3 acceptor
1 4 acceptor
1 5 acceptor
1 7 donor
1 8 acceptor
3 10 14 15 hydrophobe
3 3 4 16 anion
4 6 9 12 13 rings
6 19 20 21 22 23 25 rings
7 1 6 9 10 11 12 13 rings

> <PUBCHEM_HEAVY_ATOM_COUNT>
25

> <PUBCHEM_ATOM_DEF_STEREO_COUNT>
0

> <PUBCHEM_ATOM_UDEF_STEREO_COUNT>
4

> <PUBCHEM_BOND_DEF_STEREO_COUNT>
0

> <PUBCHEM_BOND_UDEF_STEREO_COUNT>
0

> <PUBCHEM_ISOTOPIC_ATOM_COUNT>
0

> <PUBCHEM_COMPONENT_COUNT>
1

> <PUBCHEM_CACTVS_TAUTO_COUNT>
2

> <PUBCHEM_CONFORMER_ID>
00000FF300000001

> <PUBCHEM_MMFF94_ENERGY>
71.0643

> <PUBCHEM_FEATURE_SELFOVERLAP>
59.85

> <PUBCHEM_SHAPE_FINGERPRINT>
11045977 3 17968104165485181792
11370993 144 17603859035772510643
11405975 8 18335139846755301921
11552529 35 16588879936356834391
11796584 16 18337955709203703202
12553582 1 18120364372833769135
12616971 3 17132113571659180012
12633257 1 16298104272216970159
13224815 77 18411418375954070443
13544653 18 18261679185886231441
13583140 156 17822587039585344664
13911882 115 18337384946974075106
17349148 13 17988363680765305736
17492 89 18411132519968812599
1813 80 17489866046523201309
19141452 34 18270401710593338301
193927 3 18130218268776896627
20626108 58 17917721162419078176
21065198 57 18334859445605070913
21315759 227 17774440456471848947
21424621 283 17970907989484177369
21673915 165 18409170978440016242
22907989 373 11599721745460825099
23559900 14 18260832648117247424
312423 11 17845643755960582629
338550 245 18272363174844118367
339767 52 18341908350452839783
4015057 19 17823722852984062505
44062 13 18271522091641012487
46194498 28 11815317373805618192
497634 4 12894776112994147733
5104073 3 18334859441283256306
5924683 9 18187371987317028575
633830 44 16988548122096147221

> <PUBCHEM_SHAPE_MULTIPOLES>
479.92
12.26
3.09
1.56
0.77
1.27
-0.17
3.37
2.14
2.73
-0.3
-0.94
-0.15
0.29

> <PUBCHEM_SHAPE_SELFOVERLAP>
1008.98

> <PUBCHEM_SHAPE_VOLUME>
272.1

> <PUBCHEM_COORDINATE_TYPE>
2
5
10

$$$$

