17396415
  -OEChem-06241222562D

 35 37  0     0  0  0  0  0  0999 V2000
    4.6551    0.8026    0.0000 S   0  0  0  0  0  0  0  0  0  0  0  0
    2.8660   -2.2852    0.0000 S   0  0  0  0  0  0  0  0  0  0  0  0
    9.1287    3.1626    0.0000 F   0  0  0  0  0  0  0  0  0  0  0  0
    3.7320   -0.7852    0.0000 O   0  0  0  0  0  0  0  0  0  0  0  0
    5.4641   -0.7852    0.0000 N   0  0  0  0  0  0  0  0  0  0  0  0
    6.2731    0.8026    0.0000 N   0  0  0  0  0  0  0  0  0  0  0  0
    3.7320   -3.7852    0.0000 N   0  0  0  0  0  0  0  0  0  0  0  0
    6.5519    2.5626    0.0000 C   0  0  0  0  0  0  0  0  0  0  0  0
    5.9641    1.7536    0.0000 C   0  0  0  0  0  0  0  0  0  0  0  0
    5.4641    0.2148    0.0000 C   0  0  0  0  0  0  0  0  0  0  0  0
    4.5981   -2.2852    0.0000 C   0  0  0  0  0  0  0  0  0  0  0  0
    7.5464    2.4581    0.0000 C   0  0  0  0  0  0  0  0  0  0  0  0
    6.1452    3.4762    0.0000 C   0  0  0  0  0  0  0  0  0  0  0  0
    4.9641    1.7536    0.0000 C   0  0  0  0  0  0  0  0  0  0  0  0
    4.5981   -1.2852    0.0000 C   0  0  0  0  0  0  0  0  0  0  0  0
    3.7320   -2.7852    0.0000 C   0  0  0  0  0  0  0  0  0  0  0  0
    5.4641   -2.7852    0.0000 C   0  0  0  0  0  0  0  0  0  0  0  0
    8.1342    3.2671    0.0000 C   0  0  0  0  0  0  0  0  0  0  0  0
    6.7329    4.2852    0.0000 C   0  0  0  0  0  0  0  0  0  0  0  0
    7.7275    4.1807    0.0000 C   0  0  0  0  0  0  0  0  0  0  0  0
    5.4641   -3.7852    0.0000 C   0  0  0  0  0  0  0  0  0  0  0  0
    4.5981   -4.2852    0.0000 C   0  0  0  0  0  0  0  0  0  0  0  0
    2.0000   -2.7852    0.0000 C   0  0  0  0  0  0  0  0  0  0  0  0
    7.7986    1.8917    0.0000 H   0  0  0  0  0  0  0  0  0  0  0  0
    5.5286    3.5410    0.0000 H   0  0  0  0  0  0  0  0  0  0  0  0
    4.5997    2.2552    0.0000 H   0  0  0  0  0  0  0  0  0  0  0  0
    6.0010   -1.0952    0.0000 H   0  0  0  0  0  0  0  0  0  0  0  0
    6.0010   -2.4752    0.0000 H   0  0  0  0  0  0  0  0  0  0  0  0
    6.4808    4.8516    0.0000 H   0  0  0  0  0  0  0  0  0  0  0  0
    8.0919    4.6823    0.0000 H   0  0  0  0  0  0  0  0  0  0  0  0
    6.0010   -4.0952    0.0000 H   0  0  0  0  0  0  0  0  0  0  0  0
    4.5981   -4.9052    0.0000 H   0  0  0  0  0  0  0  0  0  0  0  0
    1.6900   -2.2483    0.0000 H   0  0  0  0  0  0  0  0  0  0  0  0
    1.4631   -3.0952    0.0000 H   0  0  0  0  0  0  0  0  0  0  0  0
    2.3100   -3.3222    0.0000 H   0  0  0  0  0  0  0  0  0  0  0  0
  1 10  1  0  0  0  0
  1 14  1  0  0  0  0
  2 16  1  0  0  0  0
  2 23  1  0  0  0  0
  3 18  1  0  0  0  0
  4 15  2  0  0  0  0
  5 10  1  0  0  0  0
  5 15  1  0  0  0  0
  5 27  1  0  0  0  0
  6  9  1  0  0  0  0
  6 10  2  0  0  0  0
  7 16  1  0  0  0  0
  7 22  2  0  0  0  0
  8  9  1  0  0  0  0
  8 12  2  0  0  0  0
  8 13  1  0  0  0  0
  9 14  2  0  0  0  0
 11 15  1  0  0  0  0
 11 16  2  0  0  0  0
 11 17  1  0  0  0  0
 12 18  1  0  0  0  0
 12 24  1  0  0  0  0
 13 19  2  0  0  0  0
 13 25  1  0  0  0  0
 14 26  1  0  0  0  0
 17 21  2  0  0  0  0
 17 28  1  0  0  0  0
 18 20  2  0  0  0  0
 19 20  1  0  0  0  0
 19 29  1  0  0  0  0
 20 30  1  0  0  0  0
 21 22  1  0  0  0  0
 21 31  1  0  0  0  0
 22 32  1  0  0  0  0
 23 33  1  0  0  0  0
 23 34  1  0  0  0  0
 23 35  1  0  0  0  0
M  END
> <PUBCHEM_COMPOUND_CID>
17396415

> <PUBCHEM_COMPOUND_CANONICALIZED>
1

> <PUBCHEM_CACTVS_COMPLEXITY>
415

> <PUBCHEM_CACTVS_HBOND_ACCEPTOR>
6

> <PUBCHEM_CACTVS_HBOND_DONOR>
1

> <PUBCHEM_CACTVS_ROTATABLE_BOND>
4

> <PUBCHEM_CACTVS_SUBSKEYS>
AAADccB7IQBgAAAAAAAAAAAAAAAAAWAAAAA8QAAAAAAAAAAB8AAAHwQQAAAADAjF3gy/kZLIEAisAzV3dACC8Kl1CjkJ2DU4ZNiIIPrg3ZGEIYhogQLIyecYgYAOAAAAAAAAAAAAAAAAAAAAAAAAAAAAAA==

> <PUBCHEM_IUPAC_OPENEYE_NAME>
N-[4-(3-fluorophenyl)thiazol-2-yl]-2-methylsulfanyl-pyridine-3-carboxamide

> <PUBCHEM_IUPAC_CAS_NAME>
N-[4-(3-fluorophenyl)-2-thiazolyl]-2-(methylthio)-3-pyridinecarboxamide

> <PUBCHEM_IUPAC_NAME>
N-[4-(3-fluorophenyl)-1,3-thiazol-2-yl]-2-methylsulfanylpyridine-3-carboxamide

> <PUBCHEM_IUPAC_SYSTEMATIC_NAME>
N-[4-(3-fluorophenyl)-1,3-thiazol-2-yl]-2-methylsulfanyl-pyridine-3-carboxamide

> <PUBCHEM_IUPAC_TRADITIONAL_NAME>
N-[4-(3-fluorophenyl)thiazol-2-yl]-2-(methylthio)nicotinamide

> <PUBCHEM_IUPAC_INCHI>
InChI=1S/C16H12FN3OS2/c1-22-15-12(6-3-7-18-15)14(21)20-16-19-13(9-23-16)10-4-2-5-11(17)8-10/h2-9H,1H3,(H,19,20,21)

> <PUBCHEM_IUPAC_INCHIKEY>
JZDXPNAJFZNFCR-UHFFFAOYSA-N

> <PUBCHEM_XLOGP3_AA>
3.7

> <PUBCHEM_EXACT_MASS>
345.040582

> <PUBCHEM_MOLECULAR_FORMULA>
C16H12FN3OS2

> <PUBCHEM_MOLECULAR_WEIGHT>
345.414383

> <PUBCHEM_OPENEYE_CAN_SMILES>
CSC1=C(C=CC=N1)C(=O)NC2=NC(=CS2)C3=CC(=CC=C3)F

> <PUBCHEM_OPENEYE_ISO_SMILES>
CSC1=C(C=CC=N1)C(=O)NC2=NC(=CS2)C3=CC(=CC=C3)F

> <PUBCHEM_CACTVS_TPSA>
108

> <PUBCHEM_MONOISOTOPIC_WEIGHT>
345.040582

> <PUBCHEM_TOTAL_CHARGE>
0

> <PUBCHEM_HEAVY_ATOM_COUNT>
23

> <PUBCHEM_ATOM_DEF_STEREO_COUNT>
0

> <PUBCHEM_ATOM_UDEF_STEREO_COUNT>
0

> <PUBCHEM_BOND_DEF_STEREO_COUNT>
0

> <PUBCHEM_BOND_UDEF_STEREO_COUNT>
0

> <PUBCHEM_ISOTOPIC_ATOM_COUNT>
0

> <PUBCHEM_COMPONENT_COUNT>
1

> <PUBCHEM_CACTVS_TAUTO_COUNT>
3

> <PUBCHEM_COORDINATE_TYPE>
1
5
255

> <PUBCHEM_BONDANNOTATIONS>
1  10  8
1  14  8
11  16  8
11  17  8
12  18  8
13  19  8
17  21  8
18  20  8
19  20  8
21  22  8
6  10  8
6  9  8
7  16  8
7  22  8
8  12  8
8  13  8
9  14  8

$$$$

