13501
  -OEChem-06261214493D

 53 57  0     1  0  0  0  0  0999 V2000
    0.2381    1.0517    0.7310 O   0  0  0  0  0  0  0  0  0  0  0  0
   -1.6714    1.7573   -0.7113 O   0  0  0  0  0  0  0  0  0  0  0  0
   -4.3749    2.2662   -0.0202 O   0  0  0  0  0  0  0  0  0  0  0  0
   -5.9140    0.5472    0.6727 O   0  0  0  0  0  0  0  0  0  0  0  0
    4.3981    1.9275    0.0975 O   0  0  0  0  0  0  0  0  0  0  0  0
    1.6595    2.8651    0.5586 O   0  0  0  0  0  0  0  0  0  0  0  0
    5.8558   -0.4216   -0.2145 O   0  0  0  0  0  0  0  0  0  0  0  0
   -0.3130   -2.3469   -0.6859 N   0  0  1  0  0  0  0  0  0  0  0  0
   -0.5812   -0.9105   -0.4553 C   0  0  2  0  0  0  0  0  0  0  0  0
    0.3310   -0.3970    0.6706 C   0  0  1  0  0  0  0  0  0  0  0  0
   -2.0342   -0.5751   -0.1543 C   0  0  0  0  0  0  0  0  0  0  0  0
   -0.9874   -3.1953    0.3039 C   0  0  0  0  0  0  0  0  0  0  0  0
   -2.9416   -1.5833    0.2603 C   0  0  0  0  0  0  0  0  0  0  0  0
   -2.5077   -3.0249    0.3269 C   0  0  0  0  0  0  0  0  0  0  0  0
    1.7742   -0.6121    0.4250 C   0  0  0  0  0  0  0  0  0  0  0  0
   -2.4735    0.7564   -0.2649 C   0  0  0  0  0  0  0  0  0  0  0  0
   -0.6208   -2.7500   -2.0585 C   0  0  0  0  0  0  0  0  0  0  0  0
    2.4223    0.6057    0.3667 C   0  0  0  0  0  0  0  0  0  0  0  0
   -4.2771   -1.2582    0.5496 C   0  0  0  0  0  0  0  0  0  0  0  0
   -3.7898    1.0388    0.0349 C   0  0  0  0  0  0  0  0  0  0  0  0
   -4.6669    0.0592    0.4314 C   0  0  0  0  0  0  0  0  0  0  0  0
    1.4484    1.6687    0.5557 C   0  0  0  0  0  0  0  0  0  0  0  0
    2.4857   -1.7894    0.2744 C   0  0  0  0  0  0  0  0  0  0  0  0
    3.7840    0.7191    0.1538 C   0  0  0  0  0  0  0  0  0  0  0  0
    3.8647   -1.7091    0.0577 C   0  0  0  0  0  0  0  0  0  0  0  0
    4.5096   -0.4622   -0.0024 C   0  0  0  0  0  0  0  0  0  0  0  0
   -5.7209    1.9478    0.3879 C   0  0  0  0  0  0  0  0  0  0  0  0
   -1.6691    2.0118   -2.1158 C   0  0  0  0  0  0  0  0  0  0  0  0
    5.0787    2.2592   -1.1142 C   0  0  0  0  0  0  0  0  0  0  0  0
    6.6935   -0.4460    0.9389 C   0  0  0  0  0  0  0  0  0  0  0  0
   -0.2997   -0.3747   -1.3722 H   0  0  0  0  0  0  0  0  0  0  0  0
    0.0437   -0.7761    1.6584 H   0  0  0  0  0  0  0  0  0  0  0  0
   -0.5871   -2.9702    1.3005 H   0  0  0  0  0  0  0  0  0  0  0  0
   -0.7378   -4.2500    0.1326 H   0  0  0  0  0  0  0  0  0  0  0  0
   -2.8978   -3.4847    1.2430 H   0  0  0  0  0  0  0  0  0  0  0  0
   -2.9529   -3.5565   -0.5232 H   0  0  0  0  0  0  0  0  0  0  0  0
    0.0083   -2.1974   -2.7655 H   0  0  0  0  0  0  0  0  0  0  0  0
   -1.6670   -2.5809   -2.3335 H   0  0  0  0  0  0  0  0  0  0  0  0
   -0.3925   -3.8111   -2.2081 H   0  0  0  0  0  0  0  0  0  0  0  0
   -4.9860   -2.0219    0.8523 H   0  0  0  0  0  0  0  0  0  0  0  0
    2.0191   -2.7641    0.3509 H   0  0  0  0  0  0  0  0  0  0  0  0
    4.4401   -2.6245   -0.0575 H   0  0  0  0  0  0  0  0  0  0  0  0
   -6.4091    2.2412   -0.4130 H   0  0  0  0  0  0  0  0  0  0  0  0
   -5.9610    2.5255    1.2880 H   0  0  0  0  0  0  0  0  0  0  0  0
   -2.5852    2.5384   -2.4000 H   0  0  0  0  0  0  0  0  0  0  0  0
   -1.5802    1.0859   -2.6928 H   0  0  0  0  0  0  0  0  0  0  0  0
   -0.8125    2.6512   -2.3454 H   0  0  0  0  0  0  0  0  0  0  0  0
    4.6359    1.7615   -1.9840 H   0  0  0  0  0  0  0  0  0  0  0  0
    6.1393    2.0070   -1.0290 H   0  0  0  0  0  0  0  0  0  0  0  0
    4.9973    3.3403   -1.2600 H   0  0  0  0  0  0  0  0  0  0  0  0
    6.5496   -1.3761    1.4976 H   0  0  0  0  0  0  0  0  0  0  0  0
    6.4887    0.4150    1.5831 H   0  0  0  0  0  0  0  0  0  0  0  0
    7.7342   -0.3944    0.6076 H   0  0  0  0  0  0  0  0  0  0  0  0
  1 10  1  0  0  0  0
  1 22  1  0  0  0  0
  2 16  1  0  0  0  0
  2 28  1  0  0  0  0
  3 20  1  0  0  0  0
  3 27  1  0  0  0  0
  4 21  1  0  0  0  0
  4 27  1  0  0  0  0
  5 24  1  0  0  0  0
  5 29  1  0  0  0  0
  6 22  2  0  0  0  0
  7 26  1  0  0  0  0
  7 30  1  0  0  0  0
  8  9  1  0  0  0  0
  8 12  1  0  0  0  0
  8 17  1  0  0  0  0
  9 10  1  0  0  0  0
  9 11  1  0  0  0  0
  9 31  1  0  0  0  0
 10 15  1  0  0  0  0
 10 32  1  0  0  0  0
 11 13  1  0  0  0  0
 11 16  2  0  0  0  0
 12 14  1  0  0  0  0
 12 33  1  0  0  0  0
 12 34  1  0  0  0  0
 13 14  1  0  0  0  0
 13 19  2  0  0  0  0
 14 35  1  0  0  0  0
 14 36  1  0  0  0  0
 15 18  2  0  0  0  0
 15 23  1  0  0  0  0
 16 20  1  0  0  0  0
 17 37  1  0  0  0  0
 17 38  1  0  0  0  0
 17 39  1  0  0  0  0
 18 22  1  0  0  0  0
 18 24  1  0  0  0  0
 19 21  1  0  0  0  0
 19 40  1  0  0  0  0
 20 21  2  0  0  0  0
 23 25  2  0  0  0  0
 23 41  1  0  0  0  0
 24 26  2  0  0  0  0
 25 26  1  0  0  0  0
 25 42  1  0  0  0  0
 27 43  1  0  0  0  0
 27 44  1  0  0  0  0
 28 45  1  0  0  0  0
 28 46  1  0  0  0  0
 28 47  1  0  0  0  0
 29 48  1  0  0  0  0
 29 49  1  0  0  0  0
 29 50  1  0  0  0  0
 30 51  1  0  0  0  0
 30 52  1  0  0  0  0
 30 53  1  0  0  0  0
M  END
> <PUBCHEM_COMPOUND_CID>
13501

> <PUBCHEM_CONFORMER_RMSD>
0.8

> <PUBCHEM_CONFORMER_DIVERSEORDER>
1
6
4
10
7
2
9
8
3
5

> <PUBCHEM_MMFF94_PARTIAL_CHARGES>
33
1 -0.43
10 0.42
11 -0.14
12 0.27
13 -0.14
14 0.14
15 -0.14
16 0.08
17 0.27
18 0.09
19 -0.15
2 -0.36
20 0.08
21 0.08
22 0.63
23 -0.15
24 0.08
25 -0.15
26 0.08
27 0.56
28 0.28
29 0.28
3 -0.36
30 0.28
4 -0.36
40 0.15
41 0.15
42 0.15
5 -0.36
6 -0.57
7 -0.36
8 -0.81
9 0.41

> <PUBCHEM_EFFECTIVE_ROTOR_COUNT>
5.8

> <PUBCHEM_PHARMACOPHORE_FEATURES>
12
1 2 acceptor
1 3 acceptor
1 4 acceptor
1 5 acceptor
1 6 acceptor
1 7 acceptor
1 8 cation
5 1 10 15 18 22 rings
5 3 4 20 21 27 rings
6 11 13 16 19 20 21 rings
6 15 18 23 24 25 26 rings
6 8 9 11 12 13 14 rings

> <PUBCHEM_HEAVY_ATOM_COUNT>
30

> <PUBCHEM_ATOM_DEF_STEREO_COUNT>
1

> <PUBCHEM_ATOM_UDEF_STEREO_COUNT>
1

> <PUBCHEM_BOND_DEF_STEREO_COUNT>
0

> <PUBCHEM_BOND_UDEF_STEREO_COUNT>
0

> <PUBCHEM_ISOTOPIC_ATOM_COUNT>
0

> <PUBCHEM_COMPONENT_COUNT>
1

> <PUBCHEM_CACTVS_TAUTO_COUNT>
1

> <PUBCHEM_CONFORMER_ID>
000034BD00000001

> <PUBCHEM_MMFF94_ENERGY>
123.2356

> <PUBCHEM_FEATURE_SELFOVERLAP>
61.168

> <PUBCHEM_SHAPE_FINGERPRINT>
10165383 225 18337953493348926393
10411042 1 17906732502126796531
10675989 125 16469825233665748293
11014199 57 17546445574880583790
11524674 6 17822013116106624566
11578080 2 17242469217498232810
12422481 6 18272649060567528548
12633257 1 18269000941422188507
12788726 201 17604136116787305000
13140716 1 18265903462152002634
13402501 40 18409728508086388879
13533116 47 7781522490737160268
14341114 176 18411974772098933321
14790565 3 18338510941027495161
15196674 1 18410573959408040778
15238133 3 18412820283792713806
1601671 61 18335983146598895160
16087824 20 18265049309248435705
16110190 28 18341613685705422660
17349148 13 8358268046257739120
1813 80 16702019768606131077
19319366 153 17917714629969214642
19591789 44 18339927124862163523
21033648 29 17604448331045140474
21133410 171 17182561218464302686
21236236 1 18335703810959457639
21267235 1 18410285939571233426
21279426 13 18191863637664990591
23227448 37 18338797819030593494
23559900 14 18334581231067317656
238 59 17621642652872829589
3004659 81 18413103970920161800
3298306 158 18260260875953211222
335352 9 18409167723202530430
34934 24 18408610275271514106
350125 39 18413107290070252952
3680242 22 18341896354888907010
4073 2 17988074496818450602
5104073 3 18341055112423585282
5265222 85 18264478500226841342
6287921 2 17911518688367265044
7226269 152 17894914048500361904

> <PUBCHEM_SHAPE_MULTIPOLES>
571.32
12.68
3.37
1.13
6.43
0.8
0.63
-4.68
-2.39
-1.19
0.66
-0.1
-0.01
-0.26

> <PUBCHEM_SHAPE_SELFOVERLAP>
1273.86

> <PUBCHEM_SHAPE_VOLUME>
306.2

> <PUBCHEM_COORDINATE_TYPE>
2
5
10

$$$$

