7229
  -OEChem-06261201553D

 31 32  0     0  0  0  0  0  0999 V2000
   -1.3146   -1.8645    0.7050 S   0  0  0  0  0  0  0  0  0  0  0  0
    1.6314   -2.2161    0.0783 S   0  0  0  0  0  0  0  0  0  0  0  0
   -2.3432    0.2630    2.5129 S   0  0  0  0  0  0  0  0  0  0  0  0
   -2.8175    0.2258   -0.2021 N   0  0  0  0  0  0  0  0  0  0  0  0
    0.4960    0.0797    0.3830 N   0  0  0  0  0  0  0  0  0  0  0  0
   -3.6061    1.4580   -0.1341 C   0  0  0  0  0  0  0  0  0  0  0  0
   -2.7475   -0.3557   -1.5453 C   0  0  0  0  0  0  0  0  0  0  0  0
   -2.2312   -0.3531    0.9411 C   0  0  0  0  0  0  0  0  0  0  0  0
   -2.7230    2.6843   -0.2896 C   0  0  0  0  0  0  0  0  0  0  0  0
   -3.8974   -1.3187   -1.7872 C   0  0  0  0  0  0  0  0  0  0  0  0
    2.6198   -0.8129   -0.0878 C   0  0  0  0  0  0  0  0  0  0  0  0
    1.8336    0.3261    0.1102 C   0  0  0  0  0  0  0  0  0  0  0  0
    0.2799   -1.2150    0.3903 C   0  0  0  0  0  0  0  0  0  0  0  0
    3.9920   -0.7266   -0.3727 C   0  0  0  0  0  0  0  0  0  0  0  0
    2.4450    1.5954    0.0192 C   0  0  0  0  0  0  0  0  0  0  0  0
    4.5722    0.5415   -0.4571 C   0  0  0  0  0  0  0  0  0  0  0  0
    3.8106    1.6888   -0.2640 C   0  0  0  0  0  0  0  0  0  0  0  0
   -4.3706    1.4461   -0.9196 H   0  0  0  0  0  0  0  0  0  0  0  0
   -4.1492    1.5134    0.8137 H   0  0  0  0  0  0  0  0  0  0  0  0
   -2.7752    0.4528   -2.2855 H   0  0  0  0  0  0  0  0  0  0  0  0
   -1.7961   -0.8684   -1.7037 H   0  0  0  0  0  0  0  0  0  0  0  0
   -1.9591    2.7379    0.4919 H   0  0  0  0  0  0  0  0  0  0  0  0
   -2.2059    2.6766   -1.2549 H   0  0  0  0  0  0  0  0  0  0  0  0
   -3.3275    3.5952   -0.2366 H   0  0  0  0  0  0  0  0  0  0  0  0
   -3.8901   -2.1448   -1.0695 H   0  0  0  0  0  0  0  0  0  0  0  0
   -4.8643   -0.8130   -1.6980 H   0  0  0  0  0  0  0  0  0  0  0  0
   -3.8297   -1.7428   -2.7939 H   0  0  0  0  0  0  0  0  0  0  0  0
    4.5929   -1.6180   -0.5246 H   0  0  0  0  0  0  0  0  0  0  0  0
    1.8590    2.4980    0.1681 H   0  0  0  0  0  0  0  0  0  0  0  0
    5.6329    0.6306   -0.6767 H   0  0  0  0  0  0  0  0  0  0  0  0
    4.2791    2.6666   -0.3336 H   0  0  0  0  0  0  0  0  0  0  0  0
  1  8  1  0  0  0  0
  1 13  1  0  0  0  0
  2 11  1  0  0  0  0
  2 13  1  0  0  0  0
  3  8  2  0  0  0  0
  4  6  1  0  0  0  0
  4  7  1  0  0  0  0
  4  8  1  0  0  0  0
  5 12  1  0  0  0  0
  5 13  2  0  0  0  0
  6  9  1  0  0  0  0
  6 18  1  0  0  0  0
  6 19  1  0  0  0  0
  7 10  1  0  0  0  0
  7 20  1  0  0  0  0
  7 21  1  0  0  0  0
  9 22  1  0  0  0  0
  9 23  1  0  0  0  0
  9 24  1  0  0  0  0
 10 25  1  0  0  0  0
 10 26  1  0  0  0  0
 10 27  1  0  0  0  0
 11 12  1  0  0  0  0
 11 14  2  0  0  0  0
 12 15  2  0  0  0  0
 14 16  1  0  0  0  0
 14 28  1  0  0  0  0
 15 17  1  0  0  0  0
 15 29  1  0  0  0  0
 16 17  2  0  0  0  0
 16 30  1  0  0  0  0
 17 31  1  0  0  0  0
M  END
> <PUBCHEM_COMPOUND_CID>
7229

> <PUBCHEM_CONFORMER_RMSD>
0.6

> <PUBCHEM_CONFORMER_DIVERSEORDER>
1
121
191
192
57
162
63
95
118
195
120
106
89
188
73
181
41
55
129
19
161
81
7
85
71
86
39
175
28
119
174
69
180
128
74
169
138
64
149
165
108
40
167
153
68
163
189
49
166
144
82
178
193
90
48
59
135
152
143
42
96
150
194
123
131
142
30
157
127
179
65
185
98
158
184
56
70
35
190
25
186
84
155
187
170
97
21
109
78
156
164
171
101
115
17
50
11
75
47
104
51
176
72
31
88
122
112
23
136
94
3
177
18
100
147
67
159
43
12
116
182
137
61
77
26
172
34
62
111
113
15
125
93
139
117
183
80
33
196
114
8
168
52
160
126
2
133
124
83
140
91
60
110
45
107
37
141
145
38
16
148
13
87
5
29
99
102
24
173
36
27
22
154
44
54
79
103
46
4
134
92
53
32
105
76
151
9
146
66
10
20
6
130
132
58
14

> <PUBCHEM_MMFF94_PARTIAL_CHARGES>
19
1 -0.2
11 0.04
12 0.23
13 0.43
14 -0.15
15 -0.15
16 -0.15
17 -0.15
2 -0.08
28 0.15
29 0.15
3 -0.38
30 0.15
31 0.15
4 -0.66
5 -0.57
6 0.3
7 0.3
8 0.58

> <PUBCHEM_EFFECTIVE_ROTOR_COUNT>
5

> <PUBCHEM_PHARMACOPHORE_FEATURES>
4
1 3 acceptor
1 5 acceptor
5 2 5 11 12 13 rings
6 11 12 14 15 16 17 rings

> <PUBCHEM_HEAVY_ATOM_COUNT>
17

> <PUBCHEM_ATOM_DEF_STEREO_COUNT>
0

> <PUBCHEM_ATOM_UDEF_STEREO_COUNT>
0

> <PUBCHEM_BOND_DEF_STEREO_COUNT>
0

> <PUBCHEM_BOND_UDEF_STEREO_COUNT>
0

> <PUBCHEM_ISOTOPIC_ATOM_COUNT>
0

> <PUBCHEM_COMPONENT_COUNT>
1

> <PUBCHEM_CACTVS_TAUTO_COUNT>
1

> <PUBCHEM_CONFORMER_ID>
00001C3D00000001

> <PUBCHEM_MMFF94_ENERGY>
33.8743

> <PUBCHEM_FEATURE_SELFOVERLAP>
20.369

> <PUBCHEM_SHAPE_FINGERPRINT>
10608611 8 18341607092872354256
11543360 7 17967819314442676006
11615756 256 18130776854806304868
12173636 292 18273207634339535111
12596599 1 17749659766336139588
12670546 177 18040718043339089391
12714826 92 14201111310734852267
13464514 151 18269551800984499502
13583140 156 16773522066538792624
13764800 53 17703498957024761513
14251751 93 17894354375438208422
17349148 13 18334868224966474218
18186145 218 18263063488627515874
18219364 16 18200866301407581482
19862831 5 18113337513704626298
200 152 17968096370056521783
20645477 70 18343581867623014778
21095088 737 18189621535840006312
21864079 5 18342175617413926281
2306618 200 18335973191012416033
231179 274 17703797994259953742
23402539 116 18335143107331662236
23402655 69 18261673765632476076
23419403 2 17199380392494091745
23557571 272 17916576540892333987
23559900 14 18188194413967885340
25 1 18343301491915007354
27216 239 17989196041259020681
3082319 5 18186527600424313311
4028521 119 18059306400098467533
56616090 13 17985268732154945329
633830 44 18272927263053401118

> <PUBCHEM_SHAPE_MULTIPOLES>
351.44
8.45
2.37
1.52
3.67
0.52
0.49
2.48
-2.49
-0.47
-0.19
-2.29
-0.25
-0.47

> <PUBCHEM_SHAPE_SELFOVERLAP>
692.201

> <PUBCHEM_SHAPE_VOLUME>
212.4

> <PUBCHEM_COORDINATE_TYPE>
2
5
10

$$$$

