13070
  -OEChem-06261207433D

 29 30  0     0  0  0  0  0  0999 V2000
    0.4797   -0.0001   -0.4406 C   0  0  0  0  0  0  0  0  0  0  0  0
    1.9287   -0.0002   -0.1487 C   0  0  0  0  0  0  0  0  0  0  0  0
   -0.4700   -0.0008    0.5291 C   0  0  0  0  0  0  0  0  0  0  0  0
   -1.9137   -0.0007    0.3510 C   0  0  0  0  0  0  0  0  0  0  0  0
    0.1159    0.0073   -1.9011 C   0  0  0  0  0  0  0  0  0  0  0  0
    2.5894   -1.2083   -0.0163 C   0  0  0  0  0  0  0  0  0  0  0  0
    2.5896    1.2076   -0.0153 C   0  0  0  0  0  0  0  0  0  0  0  0
   -2.6061    1.2073    0.2680 C   0  0  0  0  0  0  0  0  0  0  0  0
   -2.6056   -1.2086    0.2626 C   0  0  0  0  0  0  0  0  0  0  0  0
    3.9570   -1.2086    0.2587 C   0  0  0  0  0  0  0  0  0  0  0  0
    3.9571    1.2074    0.2596 C   0  0  0  0  0  0  0  0  0  0  0  0
    4.6408   -0.0008    0.3967 C   0  0  0  0  0  0  0  0  0  0  0  0
   -3.9905    1.2075    0.0967 C   0  0  0  0  0  0  0  0  0  0  0  0
   -3.9900   -1.2085    0.0912 C   0  0  0  0  0  0  0  0  0  0  0  0
   -4.6823   -0.0004    0.0083 C   0  0  0  0  0  0  0  0  0  0  0  0
   -0.1554   -0.0036    1.5718 H   0  0  0  0  0  0  0  0  0  0  0  0
    0.5266   -0.8782   -2.3990 H   0  0  0  0  0  0  0  0  0  0  0  0
    0.5292    0.8960   -2.3912 H   0  0  0  0  0  0  0  0  0  0  0  0
   -0.9611    0.0097   -2.0895 H   0  0  0  0  0  0  0  0  0  0  0  0
    2.0674   -2.1556   -0.1221 H   0  0  0  0  0  0  0  0  0  0  0  0
    2.0677    2.1550   -0.1203 H   0  0  0  0  0  0  0  0  0  0  0  0
   -2.0810    2.1571    0.3351 H   0  0  0  0  0  0  0  0  0  0  0  0
   -2.0801   -2.1585    0.3254 H   0  0  0  0  0  0  0  0  0  0  0  0
    4.4894   -2.1493    0.3653 H   0  0  0  0  0  0  0  0  0  0  0  0
    4.4897    2.1479    0.3670 H   0  0  0  0  0  0  0  0  0  0  0  0
    5.7055   -0.0009    0.6107 H   0  0  0  0  0  0  0  0  0  0  0  0
   -4.5296    2.1481    0.0319 H   0  0  0  0  0  0  0  0  0  0  0  0
   -4.5288   -2.1490    0.0222 H   0  0  0  0  0  0  0  0  0  0  0  0
   -5.7601   -0.0003   -0.1252 H   0  0  0  0  0  0  0  0  0  0  0  0
  1  2  1  0  0  0  0
  1  3  2  0  0  0  0
  1  5  1  0  0  0  0
  2  6  2  0  0  0  0
  2  7  1  0  0  0  0
  3  4  1  0  0  0  0
  3 16  1  0  0  0  0
  4  8  2  0  0  0  0
  4  9  1  0  0  0  0
  5 17  1  0  0  0  0
  5 18  1  0  0  0  0
  5 19  1  0  0  0  0
  6 10  1  0  0  0  0
  6 20  1  0  0  0  0
  7 11  2  0  0  0  0
  7 21  1  0  0  0  0
  8 13  1  0  0  0  0
  8 22  1  0  0  0  0
  9 14  2  0  0  0  0
  9 23  1  0  0  0  0
 10 12  2  0  0  0  0
 10 24  1  0  0  0  0
 11 12  1  0  0  0  0
 11 25  1  0  0  0  0
 12 26  1  0  0  0  0
 13 15  2  0  0  0  0
 13 27  1  0  0  0  0
 14 15  1  0  0  0  0
 14 28  1  0  0  0  0
 15 29  1  0  0  0  0
M  END
> <PUBCHEM_COMPOUND_CID>
13070

> <PUBCHEM_CONFORMER_RMSD>
0.6

> <PUBCHEM_CONFORMER_DIVERSEORDER>
1
2

> <PUBCHEM_MMFF94_PARTIAL_CHARGES>
26
1 -0.17
10 -0.15
11 -0.15
12 -0.15
13 -0.15
14 -0.15
15 -0.15
16 0.15
2 0.03
20 0.15
21 0.15
22 0.15
23 0.15
24 0.15
25 0.15
26 0.15
27 0.15
28 0.15
29 0.15
3 -0.18
4 0.03
5 0.14
6 -0.15
7 -0.15
8 -0.15
9 -0.15

> <PUBCHEM_EFFECTIVE_ROTOR_COUNT>
2

> <PUBCHEM_PHARMACOPHORE_FEATURES>
3
1 5 hydrophobe
6 2 6 7 10 11 12 rings
6 4 8 9 13 14 15 rings

> <PUBCHEM_HEAVY_ATOM_COUNT>
15

> <PUBCHEM_ATOM_DEF_STEREO_COUNT>
0

> <PUBCHEM_ATOM_UDEF_STEREO_COUNT>
0

> <PUBCHEM_BOND_DEF_STEREO_COUNT>
0

> <PUBCHEM_BOND_UDEF_STEREO_COUNT>
1

> <PUBCHEM_ISOTOPIC_ATOM_COUNT>
0

> <PUBCHEM_COMPONENT_COUNT>
1

> <PUBCHEM_CACTVS_TAUTO_COUNT>
1

> <PUBCHEM_CONFORMER_ID>
0000330E00000001

> <PUBCHEM_MMFF94_ENERGY>
51.3482

> <PUBCHEM_FEATURE_SELFOVERLAP>
15.223

> <PUBCHEM_SHAPE_FINGERPRINT>
10014705 185 18272373092229579477
11370993 70 18410857663489232451
11401426 45 17418379090688532311
11615757 297 17095238090414582705
12107183 9 17690562304759210448
12251169 10 18409730647122423278
12500047 106 18410296891210466907
12507557 5 18113620070892121048
12670546 56 18412833498937513633
128620 24 14851604392718016593
13167823 11 18410858758710933771
13583140 156 18041007206291474331
13675066 3 17775278383242464505
14004511 7 18059851788036162121
14289901 80 18410010996548599250
15309172 13 16226046690973968239
15375462 478 18261111880693917644
15848700 24 16702306741183249830
17834072 33 18412261710152322292
1813 80 16630522959937377942
18186145 218 17918278657521037579
19050596 39 18409165502234946385
200 152 18186805772813675355
20279233 1 17967806159221572927
204376 136 16226049976587020070
20645477 56 18340763862365500357
20645477 70 18335138738901932070
21065199 12 18411136935147083690
21267235 1 18410846664035438538
22485316 2 18342178872967423170
22854114 59 18413390929973965088
23402539 116 18334020505996671773
23557571 272 18187635938389581277
23559900 14 18261673795829239298
265663 24 18334016094374136079
26918003 58 18411703183714639618
351380 180 18335423469442442145
3545911 37 18409727365498448680
42 15 18342737429216643458
4214541 1 18411138060650243121
5104073 3 18410572889971721441
5374978 207 18334858311638317753
542803 24 17489584562887977180
573450 72 18341338859232357683
69090 78 18412546504912256731
7495541 125 17677336004869631203
74978 22 15625645116821515113
77779 3 18410572889955896296
8272917 22 18187640370679669486
9709674 26 18410284813725974931
9971528 1 17704071798388072932
9981440 41 16908043826568496213

> <PUBCHEM_SHAPE_MULTIPOLES>
308.69
10.05
1.39
0.93
0.42
0
-0.44
0
1.6
0.01
0.12
-0.07
0
0

> <PUBCHEM_SHAPE_SELFOVERLAP>
660.845

> <PUBCHEM_SHAPE_VOLUME>
162.6

> <PUBCHEM_COORDINATE_TYPE>
2
5
10

$$$$

