12545
  -OEChem-06261207043D

 40 43  0     1  0  0  0  0  0999 V2000
    2.5410   -1.7591    0.6460 O   0  0  0  0  0  0  0  0  0  0  0  0
    4.6020   -0.0334    0.5530 O   0  0  0  0  0  0  0  0  0  0  0  0
   -3.0544    1.6033   -0.1269 N   0  0  1  0  0  0  0  0  0  0  0  0
   -1.6897    1.1221    0.2117 C   0  0  1  0  0  0  0  0  0  0  0  0
   -1.5208   -0.3873    0.0078 C   0  0  0  0  0  0  0  0  0  0  0  0
   -0.6088    1.8592   -0.6115 C   0  0  0  0  0  0  0  0  0  0  0  0
   -2.6526   -1.2251   -0.0340 C   0  0  0  0  0  0  0  0  0  0  0  0
   -4.0606    0.7788    0.5613 C   0  0  0  0  0  0  0  0  0  0  0  0
   -4.0385   -0.6443    0.0115 C   0  0  0  0  0  0  0  0  0  0  0  0
   -0.2162   -0.9376   -0.0737 C   0  0  0  0  0  0  0  0  0  0  0  0
    0.7758    1.3382   -0.2972 C   0  0  0  0  0  0  0  0  0  0  0  0
    0.9585   -0.0367   -0.0343 C   0  0  0  0  0  0  0  0  0  0  0  0
   -3.2553    3.0088    0.2415 C   0  0  0  0  0  0  0  0  0  0  0  0
   -2.4927   -2.6055   -0.1872 C   0  0  0  0  0  0  0  0  0  0  0  0
   -0.0954   -2.3309   -0.2247 C   0  0  0  0  0  0  0  0  0  0  0  0
    1.8698    2.2171   -0.3109 C   0  0  0  0  0  0  0  0  0  0  0  0
    2.2615   -0.4791    0.2564 C   0  0  0  0  0  0  0  0  0  0  0  0
   -1.2200   -3.1551   -0.2788 C   0  0  0  0  0  0  0  0  0  0  0  0
    3.3448    0.4045    0.2577 C   0  0  0  0  0  0  0  0  0  0  0  0
    3.1502    1.7501   -0.0314 C   0  0  0  0  0  0  0  0  0  0  0  0
    5.4012   -0.4879   -0.5365 C   0  0  0  0  0  0  0  0  0  0  0  0
   -1.5042    1.3037    1.2819 H   0  0  0  0  0  0  0  0  0  0  0  0
   -0.6310    2.9317   -0.3899 H   0  0  0  0  0  0  0  0  0  0  0  0
   -0.7864    1.7377   -1.6884 H   0  0  0  0  0  0  0  0  0  0  0  0
   -5.0681    1.1823    0.3998 H   0  0  0  0  0  0  0  0  0  0  0  0
   -3.8853    0.7734    1.6459 H   0  0  0  0  0  0  0  0  0  0  0  0
   -4.4467   -0.6519   -1.0074 H   0  0  0  0  0  0  0  0  0  0  0  0
   -4.6862   -1.2727    0.6346 H   0  0  0  0  0  0  0  0  0  0  0  0
   -2.6341    3.6746   -0.3645 H   0  0  0  0  0  0  0  0  0  0  0  0
   -3.0425    3.1933    1.3006 H   0  0  0  0  0  0  0  0  0  0  0  0
   -4.2892    3.3152    0.0433 H   0  0  0  0  0  0  0  0  0  0  0  0
   -3.3605   -3.2574   -0.2444 H   0  0  0  0  0  0  0  0  0  0  0  0
    0.8549   -2.8266   -0.3875 H   0  0  0  0  0  0  0  0  0  0  0  0
    1.7265    3.2712   -0.5340 H   0  0  0  0  0  0  0  0  0  0  0  0
   -1.1007   -4.2261   -0.4158 H   0  0  0  0  0  0  0  0  0  0  0  0
    3.9882    2.4416   -0.0348 H   0  0  0  0  0  0  0  0  0  0  0  0
    1.8707   -2.0217    1.3003 H   0  0  0  0  0  0  0  0  0  0  0  0
    4.9237   -1.3351   -1.0390 H   0  0  0  0  0  0  0  0  0  0  0  0
    6.3664   -0.8154   -0.1405 H   0  0  0  0  0  0  0  0  0  0  0  0
    5.5732    0.3238   -1.2504 H   0  0  0  0  0  0  0  0  0  0  0  0
  1 17  1  0  0  0  0
  1 37  1  0  0  0  0
  2 19  1  0  0  0  0
  2 21  1  0  0  0  0
  3  4  1  0  0  0  0
  3  8  1  0  0  0  0
  3 13  1  0  0  0  0
  4  5  1  0  0  0  0
  4  6  1  0  0  0  0
  4 22  1  0  0  0  0
  5  7  2  0  0  0  0
  5 10  1  0  0  0  0
  6 11  1  0  0  0  0
  6 23  1  0  0  0  0
  6 24  1  0  0  0  0
  7  9  1  0  0  0  0
  7 14  1  0  0  0  0
  8  9  1  0  0  0  0
  8 25  1  0  0  0  0
  8 26  1  0  0  0  0
  9 27  1  0  0  0  0
  9 28  1  0  0  0  0
 10 12  1  0  0  0  0
 10 15  2  0  0  0  0
 11 12  2  0  0  0  0
 11 16  1  0  0  0  0
 12 17  1  0  0  0  0
 13 29  1  0  0  0  0
 13 30  1  0  0  0  0
 13 31  1  0  0  0  0
 14 18  2  0  0  0  0
 14 32  1  0  0  0  0
 15 18  1  0  0  0  0
 15 33  1  0  0  0  0
 16 20  2  0  0  0  0
 16 34  1  0  0  0  0
 17 19  2  0  0  0  0
 18 35  1  0  0  0  0
 19 20  1  0  0  0  0
 20 36  1  0  0  0  0
 21 38  1  0  0  0  0
 21 39  1  0  0  0  0
 21 40  1  0  0  0  0
M  END
> <PUBCHEM_COMPOUND_CID>
12545

> <PUBCHEM_CONFORMER_RMSD>
0.6

> <PUBCHEM_CONFORMER_DIVERSEORDER>
1
3
2

> <PUBCHEM_MMFF94_PARTIAL_CHARGES>
25
1 -0.53
11 -0.14
13 0.27
14 -0.15
15 -0.15
16 -0.15
17 0.08
18 -0.15
19 0.08
2 -0.36
20 -0.15
21 0.28
3 -0.81
32 0.15
33 0.15
34 0.15
35 0.15
36 0.15
37 0.45
4 0.41
5 -0.14
6 0.14
7 -0.14
8 0.27
9 0.14

> <PUBCHEM_EFFECTIVE_ROTOR_COUNT>
1.8

> <PUBCHEM_PHARMACOPHORE_FEATURES>
7
1 1 donor
1 2 acceptor
1 3 cation
6 11 12 16 17 19 20 rings
6 3 4 5 7 8 9 rings
6 4 5 6 10 11 12 rings
6 5 7 10 14 15 18 rings

> <PUBCHEM_HEAVY_ATOM_COUNT>
21

> <PUBCHEM_ATOM_DEF_STEREO_COUNT>
1

> <PUBCHEM_ATOM_UDEF_STEREO_COUNT>
0

> <PUBCHEM_BOND_DEF_STEREO_COUNT>
0

> <PUBCHEM_BOND_UDEF_STEREO_COUNT>
0

> <PUBCHEM_ISOTOPIC_ATOM_COUNT>
0

> <PUBCHEM_COMPONENT_COUNT>
1

> <PUBCHEM_CACTVS_TAUTO_COUNT>
9

> <PUBCHEM_CONFORMER_ID>
0000310100000001

> <PUBCHEM_MMFF94_ENERGY>
79.5339

> <PUBCHEM_FEATURE_SELFOVERLAP>
35.608

> <PUBCHEM_SHAPE_FINGERPRINT>
10319926 262 18190486925639303392
10411042 1 17977666407712183103
10493431 412 18336261366185977081
10616163 171 18410292471668241110
10967382 1 18411138047723019695
1100329 8 18410009901427319465
11132069 177 18410017610993537152
11370993 70 18337397153186714617
11578080 2 17242463706749223922
12011746 2 18411703209399937015
12173636 292 18408610240552702813
12251169 10 18411981364409248945
12390115 104 18116418414074164657
12403259 226 18116718404723089785
12553582 1 18343032077243283290
13140716 1 18195240023531577851
13544592 145 18115014342479170726
13583140 156 17274826878462703633
138480 1 17185032211990623399
14081887 123 17973457511143492376
14178342 30 18267604441469331080
14223421 5 18119533141531597240
14790565 3 18049713324571962100
15042514 8 18267017263722034819
15196674 1 18339646628947903784
15256400 18 18409165532384113356
15309172 13 18411415146196770561
15442244 35 18339925905244243772
15536298 74 18336547097580636472
16752209 62 18409457963769791519
16945 1 18266742376807911549
17492 89 18123750855488708050
17804303 29 18336261258674423532
1813 80 17274823567243138444
19591789 44 18122905605803146222
20261772 1 18339633456515283433
20510252 161 18260545624016501329
20739085 24 17764284529411367656
20775438 99 16095489306509980703
21267235 1 18340197505811949371
21279426 13 18118960536860908118
21501502 16 18268147556973895028
22182313 1 18263626519927203951
23175994 123 17095517392602130200
2334 1 18411418401824152877
23402539 116 18261118422630515319
23463225 33 18413952780194257989
23557571 272 18259978280416699788
23558518 356 18198902517948275192
23559900 14 18188492372507092016
238 59 17122306082980436421
2748010 2 17331402481039818149
3091708 16 9342990669000331531
335352 9 18410855455854306974
34934 24 18272940461366433056
350125 39 18411416224418359913
352729 6 18337383855967511567
4214541 1 18409729551884787080
5104073 3 18338518521828805088
54173680 148 18194964041559666571
559249 180 18341335599795583714
69090 78 18410014316938126913
6992083 37 18272649030671744357
7097593 13 18200327618362709346
7832392 63 18411141316351374560
90525 40 18410014346982019839
9709674 26 18334853870927282014
9981440 41 17045703743349541864

> <PUBCHEM_SHAPE_MULTIPOLES>
415.45
8.08
3.28
0.71
6.09
0.44
0
-0.9
-0.52
-2.38
0.24
0.1
-0.02
-0.39

> <PUBCHEM_SHAPE_SELFOVERLAP>
921.508

> <PUBCHEM_SHAPE_VOLUME>
221.5

> <PUBCHEM_COORDINATE_TYPE>
2
5
10

$$$$

