8608
  -OEChem-06261202572D

 18 17  0     0  0  0  0  0  0999 V2000
    5.6350    5.8100    0.0000 K   0  3  0  0  0  0  0  0  0  0  0  0
    3.0369    3.3100    0.0000 O   0  0  0  0  0  0  0  0  0  0  0  0
    5.6350    4.8100    0.0000 O   0  5  0  0  0  0  0  0  0  0  0  0
    3.9030    4.8100    0.0000 O   0  0  0  0  0  0  0  0  0  0  0  0
    4.7690    0.3100    0.0000 N   0  0  0  0  0  0  0  0  0  0  0  0
    4.7690    3.3100    0.0000 C   0  0  0  0  0  0  0  0  0  0  0  0
    3.9030    2.8100    0.0000 C   0  0  0  0  0  0  0  0  0  0  0  0
    4.7690    1.3100    0.0000 C   0  0  0  0  0  0  0  0  0  0  0  0
    3.9030    1.8100    0.0000 C   0  0  0  0  0  0  0  0  0  0  0  0
    5.6350    2.8100    0.0000 C   0  0  0  0  0  0  0  0  0  0  0  0
    5.6350    1.8100    0.0000 C   0  0  0  0  0  0  0  0  0  0  0  0
    4.7690    4.3100    0.0000 C   0  0  0  0  0  0  0  0  0  0  0  0
    3.3660    1.5000    0.0000 H   0  0  0  0  0  0  0  0  0  0  0  0
    6.1719    3.1200    0.0000 H   0  0  0  0  0  0  0  0  0  0  0  0
    6.1719    1.5000    0.0000 H   0  0  0  0  0  0  0  0  0  0  0  0
    5.3059    0.0000    0.0000 H   0  0  0  0  0  0  0  0  0  0  0  0
    4.2321    0.0000    0.0000 H   0  0  0  0  0  0  0  0  0  0  0  0
    2.5000    3.0000    0.0000 H   0  0  0  0  0  0  0  0  0  0  0  0
  2  7  1  0  0  0  0
  2 18  1  0  0  0  0
  3 12  1  0  0  0  0
  4 12  2  0  0  0  0
  5  8  1  0  0  0  0
  5 16  1  0  0  0  0
  5 17  1  0  0  0  0
  6  7  2  0  0  0  0
  6 10  1  0  0  0  0
  6 12  1  0  0  0  0
  7  9  1  0  0  0  0
  8  9  2  0  0  0  0
  8 11  1  0  0  0  0
  9 13  1  0  0  0  0
 10 11  2  0  0  0  0
 10 14  1  0  0  0  0
 11 15  1  0  0  0  0
M  CHG  2   1   1   3  -1
M  END
> <PUBCHEM_COMPOUND_CID>
8608

> <PUBCHEM_COMPOUND_CANONICALIZED>
1

> <PUBCHEM_CACTVS_COMPLEXITY>
154

> <PUBCHEM_CACTVS_HBOND_ACCEPTOR>
4

> <PUBCHEM_CACTVS_HBOND_DONOR>
2

> <PUBCHEM_CACTVS_ROTATABLE_BOND>
0

> <PUBCHEM_CACTVS_SUBSKEYS>
AAADcYBiMAAAQAAAAAAAAAAAAAAAAAAAAAAwAAAAAAAAAAABAAAAHgAQCAAADAyBmAAwzoBAAgCIAiTSSACCAAAkIgAIiAEGbMgIJzaClZOAcUBn8BkI2YeY2SGeCAAAAgAIAAAQAAAEABAAAAAAAAAAAA==

> <PUBCHEM_IUPAC_OPENEYE_NAME>
potassium 4-amino-2-hydroxy-benzoate

> <PUBCHEM_IUPAC_CAS_NAME>
potassium 4-amino-2-hydroxybenzoate

> <PUBCHEM_IUPAC_NAME>
potassium 4-amino-2-hydroxybenzoate

> <PUBCHEM_IUPAC_SYSTEMATIC_NAME>
potassium 4-azanyl-2-oxidanyl-benzoate

> <PUBCHEM_IUPAC_TRADITIONAL_NAME>
potassium 4-amino-2-hydroxy-benzoate

> <PUBCHEM_IUPAC_INCHI>
InChI=1S/C7H7NO3.K/c8-4-1-2-5(7(10)11)6(9)3-4;/h1-3,9H,8H2,(H,10,11);/q;+1/p-1

> <PUBCHEM_IUPAC_INCHIKEY>
PRZJIMSXCLZGLT-UHFFFAOYSA-M

> <PUBCHEM_EXACT_MASS>
190.998475

> <PUBCHEM_MOLECULAR_FORMULA>
C7H6KNO3

> <PUBCHEM_MOLECULAR_WEIGHT>
191.22574

> <PUBCHEM_OPENEYE_CAN_SMILES>
C1=CC(=C(C=C1N)O)C(=O)[O-].[K+]

> <PUBCHEM_OPENEYE_ISO_SMILES>
C1=CC(=C(C=C1N)O)C(=O)[O-].[K+]

> <PUBCHEM_CACTVS_TPSA>
86.4

> <PUBCHEM_MONOISOTOPIC_WEIGHT>
190.998475

> <PUBCHEM_TOTAL_CHARGE>
0

> <PUBCHEM_HEAVY_ATOM_COUNT>
12

> <PUBCHEM_ATOM_DEF_STEREO_COUNT>
0

> <PUBCHEM_ATOM_UDEF_STEREO_COUNT>
0

> <PUBCHEM_BOND_DEF_STEREO_COUNT>
0

> <PUBCHEM_BOND_UDEF_STEREO_COUNT>
0

> <PUBCHEM_ISOTOPIC_ATOM_COUNT>
0

> <PUBCHEM_COMPONENT_COUNT>
2

> <PUBCHEM_CACTVS_TAUTO_COUNT>
12

> <PUBCHEM_COORDINATE_TYPE>
1
5
255

> <PUBCHEM_BONDANNOTATIONS>
10  11  8
6  10  8
6  7  8
7  9  8
8  11  8
8  9  8

$$$$

