585165
  -OEChem-06241222452D

 38 40  0     0  0  0  0  0  0999 V2000
    4.9050    2.8631    0.0000 F   0  0  0  0  0  0  0  0  0  0  0  0
    5.9050    1.1311    0.0000 F   0  0  0  0  0  0  0  0  0  0  0  0
    7.1371    2.9971    0.0000 F   0  0  0  0  0  0  0  0  0  0  0  0
    5.7711    3.3631    0.0000 F   0  0  0  0  0  0  0  0  0  0  0  0
    6.7711    1.6311    0.0000 F   0  0  0  0  0  0  0  0  0  0  0  0
    4.5390    0.4971    0.0000 O   0  0  0  0  0  0  0  0  0  0  0  0
    3.6730    1.9971    0.0000 O   0  0  0  0  0  0  0  0  0  0  0  0
    3.6730   -1.0029    0.0000 C   0  0  0  0  0  0  0  0  0  0  0  0
    2.9819   -2.8863    0.0000 C   0  0  0  0  0  0  0  0  0  0  0  0
    4.5092   -2.4512    0.0000 C   0  0  0  0  0  0  0  0  0  0  0  0
    2.8368   -2.4512    0.0000 C   0  0  0  0  0  0  0  0  0  0  0  0
    4.5092   -1.4857    0.0000 C   0  0  0  0  0  0  0  0  0  0  0  0
    2.8368   -1.4857    0.0000 C   0  0  0  0  0  0  0  0  0  0  0  0
    2.9819   -1.8410    0.0000 C   0  0  0  0  0  0  0  0  0  0  0  0
    3.6730   -2.7540    0.0000 C   0  0  0  0  0  0  0  0  0  0  0  0
    3.8876   -3.3631    0.0000 C   0  0  0  0  0  0  0  0  0  0  0  0
    2.0000   -2.9340    0.0000 C   0  0  0  0  0  0  0  0  0  0  0  0
    3.6730   -0.0029    0.0000 C   0  0  0  0  0  0  0  0  0  0  0  0
    4.5390    1.4971    0.0000 C   0  0  0  0  0  0  0  0  0  0  0  0
    5.4050    1.9971    0.0000 C   0  0  0  0  0  0  0  0  0  0  0  0
    6.2711    2.4971    0.0000 C   0  0  0  0  0  0  0  0  0  0  0  0
    5.1016   -2.6340    0.0000 H   0  0  0  0  0  0  0  0  0  0  0  0
    2.8478   -3.4916    0.0000 H   0  0  0  0  0  0  0  0  0  0  0  0
    2.8912   -3.0688    0.0000 H   0  0  0  0  0  0  0  0  0  0  0  0
    5.1198   -1.5934    0.0000 H   0  0  0  0  0  0  0  0  0  0  0  0
    4.7212   -0.9031    0.0000 H   0  0  0  0  0  0  0  0  0  0  0  0
    2.6247   -0.9031    0.0000 H   0  0  0  0  0  0  0  0  0  0  0  0
    2.2262   -1.5934    0.0000 H   0  0  0  0  0  0  0  0  0  0  0  0
    2.6383   -1.3250    0.0000 H   0  0  0  0  0  0  0  0  0  0  0  0
    2.3885   -2.0206    0.0000 H   0  0  0  0  0  0  0  0  0  0  0  0
    3.3030   -3.2515    0.0000 H   0  0  0  0  0  0  0  0  0  0  0  0
    4.0430   -3.2515    0.0000 H   0  0  0  0  0  0  0  0  0  0  0  0
    3.5782   -3.9004    0.0000 H   0  0  0  0  0  0  0  0  0  0  0  0
    4.4127   -3.6927    0.0000 H   0  0  0  0  0  0  0  0  0  0  0  0
    1.5188   -2.5431    0.0000 H   0  0  0  0  0  0  0  0  0  0  0  0
    1.8068   -3.5231    0.0000 H   0  0  0  0  0  0  0  0  0  0  0  0
    3.4609    0.5797    0.0000 H   0  0  0  0  0  0  0  0  0  0  0  0
    3.0624   -0.1106    0.0000 H   0  0  0  0  0  0  0  0  0  0  0  0
  1 20  1  0  0  0  0
  2 20  1  0  0  0  0
  3 21  1  0  0  0  0
  4 21  1  0  0  0  0
  5 21  1  0  0  0  0
  6 18  1  0  0  0  0
  6 19  1  0  0  0  0
  7 19  2  0  0  0  0
  8 12  1  0  0  0  0
  8 13  1  0  0  0  0
  8 14  1  0  0  0  0
  8 18  1  0  0  0  0
  9 14  1  0  0  0  0
  9 16  1  0  0  0  0
  9 17  1  0  0  0  0
  9 23  1  0  0  0  0
 10 12  1  0  0  0  0
 10 15  1  0  0  0  0
 10 16  1  0  0  0  0
 10 22  1  0  0  0  0
 11 13  1  0  0  0  0
 11 15  1  0  0  0  0
 11 17  1  0  0  0  0
 11 24  1  0  0  0  0
 12 25  1  0  0  0  0
 12 26  1  0  0  0  0
 13 27  1  0  0  0  0
 13 28  1  0  0  0  0
 14 29  1  0  0  0  0
 14 30  1  0  0  0  0
 15 31  1  0  0  0  0
 15 32  1  0  0  0  0
 16 33  1  0  0  0  0
 16 34  1  0  0  0  0
 17 35  1  0  0  0  0
 17 36  1  0  0  0  0
 18 37  1  0  0  0  0
 18 38  1  0  0  0  0
 19 20  1  0  0  0  0
 20 21  1  0  0  0  0
M  END
> <PUBCHEM_COMPOUND_CID>
585165

> <PUBCHEM_COMPOUND_CANONICALIZED>
1

> <PUBCHEM_CACTVS_COMPLEXITY>
402

> <PUBCHEM_CACTVS_HBOND_ACCEPTOR>
7

> <PUBCHEM_CACTVS_HBOND_DONOR>
0

> <PUBCHEM_CACTVS_ROTATABLE_BOND>
4

> <PUBCHEM_CACTVS_SUBSKEYS>
AAADceBwMcAAAAAAAAAAAAAAAAAAAAAAAAAwYMGAAAAAAAAAAAAAGwAAAAAADwCggBIACAAABAAIAACQCAAAAAAAAAAAAAEAAAAAAAIAAAACAAAEAAAAAAGAwOAPAAAAAAAAAAAAAAQAAAAAAAAAAAAAAA==

> <PUBCHEM_IUPAC_OPENEYE_NAME>
1-adamantylmethyl 2,2,3,3,3-pentafluoropropanoate

> <PUBCHEM_IUPAC_CAS_NAME>
2,2,3,3,3-pentafluoropropanoic acid 1-adamantylmethyl ester

> <PUBCHEM_IUPAC_NAME>
1-adamantylmethyl 2,2,3,3,3-pentafluoropropanoate

> <PUBCHEM_IUPAC_SYSTEMATIC_NAME>
1-adamantylmethyl 2,2,3,3,3-pentakis(fluoranyl)propanoate

> <PUBCHEM_IUPAC_TRADITIONAL_NAME>
2,2,3,3,3-pentafluoropropionic acid 1-adamantylmethyl ester

> <PUBCHEM_IUPAC_INCHI>
InChI=1S/C14H17F5O2/c15-13(16,14(17,18)19)11(20)21-7-12-4-8-1-9(5-12)3-10(2-8)6-12/h8-10H,1-7H2

> <PUBCHEM_IUPAC_INCHIKEY>
QURNILYZFXSHCC-UHFFFAOYSA-N

> <PUBCHEM_XLOGP3>
4.7

> <PUBCHEM_EXACT_MASS>
312.114871

> <PUBCHEM_MOLECULAR_FORMULA>
C14H17F5O2

> <PUBCHEM_MOLECULAR_WEIGHT>
312.275596

> <PUBCHEM_OPENEYE_CAN_SMILES>
C1C2CC3CC1CC(C2)(C3)COC(=O)C(C(F)(F)F)(F)F

> <PUBCHEM_OPENEYE_ISO_SMILES>
C1C2CC3CC1CC(C2)(C3)COC(=O)C(C(F)(F)F)(F)F

> <PUBCHEM_CACTVS_TPSA>
26.3

> <PUBCHEM_MONOISOTOPIC_WEIGHT>
312.114871

> <PUBCHEM_TOTAL_CHARGE>
0

> <PUBCHEM_HEAVY_ATOM_COUNT>
21

> <PUBCHEM_ATOM_DEF_STEREO_COUNT>
0

> <PUBCHEM_ATOM_UDEF_STEREO_COUNT>
0

> <PUBCHEM_BOND_DEF_STEREO_COUNT>
0

> <PUBCHEM_BOND_UDEF_STEREO_COUNT>
0

> <PUBCHEM_ISOTOPIC_ATOM_COUNT>
0

> <PUBCHEM_COMPONENT_COUNT>
1

> <PUBCHEM_CACTVS_TAUTO_COUNT>
1

> <PUBCHEM_COORDINATE_TYPE>
1
5
255

$$$$

