854031
  -OEChem-06241222473D

 29 30  0     1  0  0  0  0  0999 V2000
    2.6857   -1.6008   -0.2937 O   0  0  0  0  0  0  0  0  0  0  0  0
    3.6194    0.4395    0.5856 O   0  0  0  0  0  0  0  0  0  0  0  0
   -4.1197    0.0659   -0.3335 N   0  0  0  0  0  0  0  0  0  0  0  0
   -2.7421    0.0354    0.1667 C   0  0  2  0  0  0  0  0  0  0  0  0
   -1.7603    0.4412   -0.9575 C   0  0  0  0  0  0  0  0  0  0  0  0
   -0.3290    0.4764   -0.5366 C   0  0  0  0  0  0  0  0  0  0  0  0
   -2.4576   -1.3658    0.7078 C   0  0  0  0  0  0  0  0  0  0  0  0
    0.4573   -0.6719   -0.6557 C   0  0  0  0  0  0  0  0  0  0  0  0
    1.7747   -0.5906   -0.2536 C   0  0  0  0  0  0  0  0  0  0  0  0
    0.2158    1.6668   -0.0236 C   0  0  0  0  0  0  0  0  0  0  0  0
    2.3079    0.5745    0.2486 C   0  0  0  0  0  0  0  0  0  0  0  0
    1.5531    1.7223    0.3764 C   0  0  0  0  0  0  0  0  0  0  0  0
   -5.0575   -0.2518    0.7303 C   0  0  0  0  0  0  0  0  0  0  0  0
    3.8523   -0.9409    0.2389 C   0  0  0  0  0  0  0  0  0  0  0  0
   -2.6340    0.7567    0.9882 H   0  0  0  0  0  0  0  0  0  0  0  0
   -2.0412    1.4291   -1.3488 H   0  0  0  0  0  0  0  0  0  0  0  0
   -1.8694   -0.2430   -1.8109 H   0  0  0  0  0  0  0  0  0  0  0  0
   -1.4352   -1.4465    1.0886 H   0  0  0  0  0  0  0  0  0  0  0  0
   -2.5890   -2.1323   -0.0645 H   0  0  0  0  0  0  0  0  0  0  0  0
   -3.0866   -1.6282    1.5643 H   0  0  0  0  0  0  0  0  0  0  0  0
    0.0561   -1.5978   -1.0540 H   0  0  0  0  0  0  0  0  0  0  0  0
   -4.3202    1.0014   -0.6874 H   0  0  0  0  0  0  0  0  0  0  0  0
   -0.4010    2.5574    0.0695 H   0  0  0  0  0  0  0  0  0  0  0  0
    1.9767    2.6378    0.7733 H   0  0  0  0  0  0  0  0  0  0  0  0
   -5.1001   -1.3240    0.9431 H   0  0  0  0  0  0  0  0  0  0  0  0
   -6.0656    0.0248    0.4014 H   0  0  0  0  0  0  0  0  0  0  0  0
   -4.8581    0.3066    1.6511 H   0  0  0  0  0  0  0  0  0  0  0  0
    4.6524   -0.9847   -0.5091 H   0  0  0  0  0  0  0  0  0  0  0  0
    4.1799   -1.4778    1.1365 H   0  0  0  0  0  0  0  0  0  0  0  0
  1  9  1  0  0  0  0
  1 14  1  0  0  0  0
  2 11  1  0  0  0  0
  2 14  1  0  0  0  0
  3  4  1  0  0  0  0
  3 13  1  0  0  0  0
  3 22  1  0  0  0  0
  4  5  1  0  0  0  0
  4  7  1  0  0  0  0
  4 15  1  0  0  0  0
  5  6  1  0  0  0  0
  5 16  1  0  0  0  0
  5 17  1  0  0  0  0
  6  8  2  0  0  0  0
  6 10  1  0  0  0  0
  7 18  1  0  0  0  0
  7 19  1  0  0  0  0
  7 20  1  0  0  0  0
  8  9  1  0  0  0  0
  8 21  1  0  0  0  0
  9 11  2  0  0  0  0
 10 12  2  0  0  0  0
 10 23  1  0  0  0  0
 11 12  1  0  0  0  0
 12 24  1  0  0  0  0
 13 25  1  0  0  0  0
 13 26  1  0  0  0  0
 13 27  1  0  0  0  0
 14 28  1  0  0  0  0
 14 29  1  0  0  0  0
M  END
> <PUBCHEM_COMPOUND_CID>
854031

> <PUBCHEM_CONFORMER_RMSD>
0.6

> <PUBCHEM_CONFORMER_DIVERSEORDER>
1
3
16
7
6
14
15
12
17
5
9
4
11
10
2
8
13

> <PUBCHEM_MMFF94_PARTIAL_CHARGES>
17
1 -0.36
10 -0.15
11 0.08
12 -0.15
13 0.27
14 0.56
2 -0.36
21 0.15
22 0.36
23 0.15
24 0.15
3 -0.9
4 0.27
5 0.14
6 -0.14
8 -0.15
9 0.08

> <PUBCHEM_EFFECTIVE_ROTOR_COUNT>
3.6

> <PUBCHEM_PHARMACOPHORE_FEATURES>
6
1 1 acceptor
1 2 acceptor
1 3 cation
1 3 donor
5 1 2 9 11 14 rings
6 6 8 9 10 11 12 rings

> <PUBCHEM_HEAVY_ATOM_COUNT>
14

> <PUBCHEM_ATOM_DEF_STEREO_COUNT>
1

> <PUBCHEM_ATOM_UDEF_STEREO_COUNT>
0

> <PUBCHEM_BOND_DEF_STEREO_COUNT>
0

> <PUBCHEM_BOND_UDEF_STEREO_COUNT>
0

> <PUBCHEM_ISOTOPIC_ATOM_COUNT>
0

> <PUBCHEM_COMPONENT_COUNT>
1

> <PUBCHEM_CACTVS_TAUTO_COUNT>
1

> <PUBCHEM_CONFORMER_ID>
000D080F00000001

> <PUBCHEM_MMFF94_ENERGY>
29.0477

> <PUBCHEM_FEATURE_SELFOVERLAP>
30.601

> <PUBCHEM_SHAPE_FINGERPRINT>
10219947 1 18113901567438230110
11471102 20 18408327674416915524
11471102 22 18335136479574554256
12032990 46 18337391651322695326
12251169 10 18261110755628393551
12346645 6 17894347778653187022
13922767 16 18333450937160965513
14115302 16 17704061893919343895
14252887 29 18260824934092311110
15219456 202 18341902891354227941
15279308 132 17989205941137590979
15375462 189 18271815639280487242
15375462 478 17748825232979408129
15501101 241 18411704257403949964
15775835 57 16515686624047713747
16945 1 18188505609369289028
17844478 74 18343308088689375268
200 152 17967827033179252701
20201158 50 18413389847394462107
20279233 1 18343582936642168203
20281407 28 18060133249800975163
20645477 70 18408890650256386783
20871998 22 18115300223780954222
21119208 17 13039189203916468779
21501502 16 18123753058473991551
21501925 9 18409169917398159425
22485316 2 18059860562443448715
231179 274 6411297905635446227
23402539 116 18186807985328604829
23557571 272 17203615895403766452
26918003 58 18409448081635417771
2748010 2 17972331860988129572
4047638 21 7565343141111478190
42 15 18412541016355138737
4990 188 12463570703110423097
69090 78 18409733928978922031
83771 10 18343865536662836188
8809292 202 18201998811327400699

> <PUBCHEM_SHAPE_MULTIPOLES>
271.39
7.85
1.51
0.86
6.17
0.18
0.04
-2.02
-1.87
-0.83
-0.12
0.26
-0.01
0.5

> <PUBCHEM_SHAPE_SELFOVERLAP>
570.923

> <PUBCHEM_SHAPE_VOLUME>
154.5

> <PUBCHEM_COORDINATE_TYPE>
2
5
10

$$$$

