47205566
  -OEChem-06241222592D

 33 34  0     1  0  0  0  0  0999 V2000
    3.7320    3.5580    0.0000 O   0  0  0  0  0  0  0  0  0  0  0  0
    2.8660    0.0580    0.0000 O   0  0  0  0  0  0  0  0  0  0  0  0
    5.4641    0.5580    0.0000 O   0  0  0  0  0  0  0  0  0  0  0  0
    7.0468   -1.7784    0.0000 O   0  0  0  0  0  0  0  0  0  0  0  0
    3.7320    1.5580    0.0000 N   0  0  0  0  0  0  0  0  0  0  0  0
    4.5981   -0.9420    0.0000 N   0  0  0  0  0  0  0  0  0  0  0  0
    6.3776   -1.0353    0.0000 N   0  0  0  0  0  0  0  0  0  0  0  0
    2.8660    3.0580    0.0000 C   0  0  3  0  0  0  0  0  0  0  0  0
    2.8660    2.0580    0.0000 C   0  0  0  0  0  0  0  0  0  0  0  0
    4.5981    2.0580    0.0000 C   0  0  0  0  0  0  0  0  0  0  0  0
    4.5981    3.0580    0.0000 C   0  0  0  0  0  0  0  0  0  0  0  0
    2.0000    3.5580    0.0000 C   0  0  0  0  0  0  0  0  0  0  0  0
    3.7320    0.5580    0.0000 C   0  0  0  0  0  0  0  0  0  0  0  0
    4.5981    0.0580    0.0000 C   0  0  0  0  0  0  0  0  0  0  0  0
    5.4641   -1.4420    0.0000 C   0  0  0  0  0  0  0  0  0  0  0  0
    5.5686   -2.4365    0.0000 C   0  0  0  0  0  0  0  0  0  0  0  0
    6.5468   -2.6444    0.0000 C   0  0  0  0  0  0  0  0  0  0  0  0
    6.9535   -3.5580    0.0000 C   0  0  0  0  0  0  0  0  0  0  0  0
    2.8660    3.6780    0.0000 H   0  0  0  0  0  0  0  0  0  0  0  0
    2.2554    2.1656    0.0000 H   0  0  0  0  0  0  0  0  0  0  0  0
    2.6540    1.4754    0.0000 H   0  0  0  0  0  0  0  0  0  0  0  0
    4.8101    1.4754    0.0000 H   0  0  0  0  0  0  0  0  0  0  0  0
    5.2087    2.1656    0.0000 H   0  0  0  0  0  0  0  0  0  0  0  0
    5.2087    2.9503    0.0000 H   0  0  0  0  0  0  0  0  0  0  0  0
    4.8101    3.6406    0.0000 H   0  0  0  0  0  0  0  0  0  0  0  0
    2.3100    4.0949    0.0000 H   0  0  0  0  0  0  0  0  0  0  0  0
    1.4631    3.8680    0.0000 H   0  0  0  0  0  0  0  0  0  0  0  0
    1.6900    3.0210    0.0000 H   0  0  0  0  0  0  0  0  0  0  0  0
    4.0611   -1.2520    0.0000 H   0  0  0  0  0  0  0  0  0  0  0  0
    5.1079   -2.8514    0.0000 H   0  0  0  0  0  0  0  0  0  0  0  0
    6.3871   -3.8102    0.0000 H   0  0  0  0  0  0  0  0  0  0  0  0
    7.2057   -4.1244    0.0000 H   0  0  0  0  0  0  0  0  0  0  0  0
    7.5199   -3.3058    0.0000 H   0  0  0  0  0  0  0  0  0  0  0  0
  1  8  1  0  0  0  0
  1 11  1  0  0  0  0
  2 13  2  0  0  0  0
  3 14  2  0  0  0  0
  4  7  1  0  0  0  0
  4 17  1  0  0  0  0
  5  9  1  0  0  0  0
  5 10  1  0  0  0  0
  5 13  1  0  0  0  0
  6 14  1  0  0  0  0
  6 15  1  0  0  0  0
  6 29  1  0  0  0  0
  7 15  2  0  0  0  0
  8  9  1  0  0  0  0
  8 12  1  0  0  0  0
  8 19  1  0  0  0  0
  9 20  1  0  0  0  0
  9 21  1  0  0  0  0
 10 11  1  0  0  0  0
 10 22  1  0  0  0  0
 10 23  1  0  0  0  0
 11 24  1  0  0  0  0
 11 25  1  0  0  0  0
 12 26  1  0  0  0  0
 12 27  1  0  0  0  0
 12 28  1  0  0  0  0
 13 14  1  0  0  0  0
 15 16  1  0  0  0  0
 16 17  2  0  0  0  0
 16 30  1  0  0  0  0
 17 18  1  0  0  0  0
 18 31  1  0  0  0  0
 18 32  1  0  0  0  0
 18 33  1  0  0  0  0
M  END
> <PUBCHEM_COMPOUND_CID>
47205566

> <PUBCHEM_COMPOUND_CANONICALIZED>
1

> <PUBCHEM_CACTVS_COMPLEXITY>
336

> <PUBCHEM_CACTVS_HBOND_ACCEPTOR>
5

> <PUBCHEM_CACTVS_HBOND_DONOR>
1

> <PUBCHEM_CACTVS_ROTATABLE_BOND>
1

> <PUBCHEM_CACTVS_SUBSKEYS>
AAADccBzOAAAAAAAAAAAAAAAAAAAAWAAAAAsAAAAAAAAAAABgAAAHgAUAAAACBThkgYztJPQBACpAKNycgCAAAAlIgAhGCG+bFqCZAhAiaAXAIhCFwrQQEAAAAAAAAAAAAAAAAAAAAAAAAAAAAAAAAAAAA==

> <PUBCHEM_IUPAC_OPENEYE_NAME>
N-(5-methylisoxazol-3-yl)-2-(2-methylmorpholin-4-yl)-2-oxo-acetamide

> <PUBCHEM_IUPAC_CAS_NAME>
N-(5-methyl-3-isoxazolyl)-2-(2-methyl-4-morpholinyl)-2-oxoacetamide

> <PUBCHEM_IUPAC_NAME>
2-(2-methylmorpholin-4-yl)-N-(5-methyl-1,2-oxazol-3-yl)-2-oxoacetamide

> <PUBCHEM_IUPAC_SYSTEMATIC_NAME>
2-(2-methylmorpholin-4-yl)-N-(5-methyl-1,2-oxazol-3-yl)-2-oxidanylidene-ethanamide

> <PUBCHEM_IUPAC_TRADITIONAL_NAME>
2-keto-N-(5-methylisoxazol-3-yl)-2-(2-methylmorpholino)acetamide

> <PUBCHEM_IUPAC_INCHI>
InChI=1S/C11H15N3O4/c1-7-5-9(13-18-7)12-10(15)11(16)14-3-4-17-8(2)6-14/h5,8H,3-4,6H2,1-2H3,(H,12,13,15)

> <PUBCHEM_IUPAC_INCHIKEY>
KQMKFXSEMLFBIK-UHFFFAOYSA-N

> <PUBCHEM_XLOGP3_AA>
0.2

> <PUBCHEM_EXACT_MASS>
253.106256

> <PUBCHEM_MOLECULAR_FORMULA>
C11H15N3O4

> <PUBCHEM_MOLECULAR_WEIGHT>
253.2545

> <PUBCHEM_OPENEYE_CAN_SMILES>
CC1CN(CCO1)C(=O)C(=O)NC2=NOC(=C2)C

> <PUBCHEM_OPENEYE_ISO_SMILES>
CC1CN(CCO1)C(=O)C(=O)NC2=NOC(=C2)C

> <PUBCHEM_CACTVS_TPSA>
84.7

> <PUBCHEM_MONOISOTOPIC_WEIGHT>
253.106256

> <PUBCHEM_TOTAL_CHARGE>
0

> <PUBCHEM_HEAVY_ATOM_COUNT>
18

> <PUBCHEM_ATOM_DEF_STEREO_COUNT>
0

> <PUBCHEM_ATOM_UDEF_STEREO_COUNT>
1

> <PUBCHEM_BOND_DEF_STEREO_COUNT>
0

> <PUBCHEM_BOND_UDEF_STEREO_COUNT>
0

> <PUBCHEM_ISOTOPIC_ATOM_COUNT>
0

> <PUBCHEM_COMPONENT_COUNT>
1

> <PUBCHEM_CACTVS_TAUTO_COUNT>
8

> <PUBCHEM_COORDINATE_TYPE>
1
5
255

> <PUBCHEM_BONDANNOTATIONS>
15  16  8
16  17  8
4  17  8
4  7  8
7  15  8
8  12  3

$$$$

