17396235
  -OEChem-06241222552D

 51 53  0     0  0  0  0  0  0999 V2000
    8.9282   -0.4573    0.0000 S   0  0  0  0  0  0  0  0  0  0  0  0
    8.4282    0.4087    0.0000 O   0  0  0  0  0  0  0  0  0  0  0  0
    9.4282   -1.3234    0.0000 O   0  0  0  0  0  0  0  0  0  0  0  0
   12.3923   -1.4573    0.0000 O   0  0  0  0  0  0  0  0  0  0  0  0
    8.0622   -0.9573    0.0000 N   0  0  0  0  0  0  0  0  0  0  0  0
   11.5263    0.0427    0.0000 N   0  0  0  0  0  0  0  0  0  0  0  0
    9.7942    0.0427    0.0000 C   0  0  0  0  0  0  0  0  0  0  0  0
    6.3301   -0.9573    0.0000 C   0  0  0  0  0  0  0  0  0  0  0  0
    7.1962   -0.4573    0.0000 C   0  0  0  0  0  0  0  0  0  0  0  0
    5.4641   -0.4573    0.0000 C   0  0  0  0  0  0  0  0  0  0  0  0
   10.6603   -0.4573    0.0000 C   0  0  0  0  0  0  0  0  0  0  0  0
    4.5981   -0.9573    0.0000 C   0  0  0  0  0  0  0  0  0  0  0  0
   12.3923   -0.4573    0.0000 C   0  0  0  0  0  0  0  0  0  0  0  0
    3.7320   -0.4573    0.0000 C   0  0  0  0  0  0  0  0  0  0  0  0
   13.2583    0.0427    0.0000 C   0  0  0  0  0  0  0  0  0  0  0  0
   11.5263    1.0427    0.0000 C   0  0  0  0  0  0  0  0  0  0  0  0
   13.2583    1.0427    0.0000 C   0  0  0  0  0  0  0  0  0  0  0  0
   12.3923    1.5427    0.0000 C   0  0  0  0  0  0  0  0  0  0  0  0
   14.1523   -0.4920    0.0000 C   0  0  0  0  0  0  0  0  0  0  0  0
    3.7320    0.5427    0.0000 C   0  0  0  0  0  0  0  0  0  0  0  0
    2.8660   -0.9573    0.0000 C   0  0  0  0  0  0  0  0  0  0  0  0
   14.1523    1.5773    0.0000 C   0  0  0  0  0  0  0  0  0  0  0  0
   15.0583    0.0219    0.0000 C   0  0  0  0  0  0  0  0  0  0  0  0
   15.0583    1.0635    0.0000 C   0  0  0  0  0  0  0  0  0  0  0  0
    2.8660    1.0427    0.0000 C   0  0  0  0  0  0  0  0  0  0  0  0
    2.0000   -0.4573    0.0000 C   0  0  0  0  0  0  0  0  0  0  0  0
    2.0000    0.5427    0.0000 C   0  0  0  0  0  0  0  0  0  0  0  0
   10.1928    0.5176    0.0000 H   0  0  0  0  0  0  0  0  0  0  0  0
    9.3957    0.5176    0.0000 H   0  0  0  0  0  0  0  0  0  0  0  0
    5.9316   -1.4323    0.0000 H   0  0  0  0  0  0  0  0  0  0  0  0
    6.7287   -1.4323    0.0000 H   0  0  0  0  0  0  0  0  0  0  0  0
    7.5947    0.0176    0.0000 H   0  0  0  0  0  0  0  0  0  0  0  0
    6.7976    0.0176    0.0000 H   0  0  0  0  0  0  0  0  0  0  0  0
   10.2617   -0.9323    0.0000 H   0  0  0  0  0  0  0  0  0  0  0  0
   11.0588   -0.9323    0.0000 H   0  0  0  0  0  0  0  0  0  0  0  0
    5.8626    0.0176    0.0000 H   0  0  0  0  0  0  0  0  0  0  0  0
    5.0656    0.0176    0.0000 H   0  0  0  0  0  0  0  0  0  0  0  0
    8.0622   -1.5773    0.0000 H   0  0  0  0  0  0  0  0  0  0  0  0
    4.1996   -1.4323    0.0000 H   0  0  0  0  0  0  0  0  0  0  0  0
    4.9966   -1.4323    0.0000 H   0  0  0  0  0  0  0  0  0  0  0  0
   10.9893    1.3527    0.0000 H   0  0  0  0  0  0  0  0  0  0  0  0
   12.3923    2.1627    0.0000 H   0  0  0  0  0  0  0  0  0  0  0  0
   14.1451   -1.1120    0.0000 H   0  0  0  0  0  0  0  0  0  0  0  0
    4.2690    0.8527    0.0000 H   0  0  0  0  0  0  0  0  0  0  0  0
    2.8660   -1.5773    0.0000 H   0  0  0  0  0  0  0  0  0  0  0  0
   14.1451    2.1973    0.0000 H   0  0  0  0  0  0  0  0  0  0  0  0
   15.5941   -0.2902    0.0000 H   0  0  0  0  0  0  0  0  0  0  0  0
   15.5941    1.3756    0.0000 H   0  0  0  0  0  0  0  0  0  0  0  0
    2.8660    1.6627    0.0000 H   0  0  0  0  0  0  0  0  0  0  0  0
    1.4631   -0.7673    0.0000 H   0  0  0  0  0  0  0  0  0  0  0  0
    1.4631    0.8527    0.0000 H   0  0  0  0  0  0  0  0  0  0  0  0
  1  2  2  0  0  0  0
  1  3  2  0  0  0  0
  1  5  1  0  0  0  0
  1  7  1  0  0  0  0
  4 13  2  0  0  0  0
  5  9  1  0  0  0  0
  5 38  1  0  0  0  0
  6 11  1  0  0  0  0
  6 13  1  0  0  0  0
  6 16  1  0  0  0  0
  7 11  1  0  0  0  0
  7 28  1  0  0  0  0
  7 29  1  0  0  0  0
  8  9  1  0  0  0  0
  8 10  1  0  0  0  0
  8 30  1  0  0  0  0
  8 31  1  0  0  0  0
  9 32  1  0  0  0  0
  9 33  1  0  0  0  0
 10 12  1  0  0  0  0
 10 36  1  0  0  0  0
 10 37  1  0  0  0  0
 11 34  1  0  0  0  0
 11 35  1  0  0  0  0
 12 14  1  0  0  0  0
 12 39  1  0  0  0  0
 12 40  1  0  0  0  0
 13 15  1  0  0  0  0
 14 20  2  0  0  0  0
 14 21  1  0  0  0  0
 15 17  1  0  0  0  0
 15 19  2  0  0  0  0
 16 18  2  0  0  0  0
 16 41  1  0  0  0  0
 17 18  1  0  0  0  0
 17 22  2  0  0  0  0
 18 42  1  0  0  0  0
 19 23  1  0  0  0  0
 19 43  1  0  0  0  0
 20 25  1  0  0  0  0
 20 44  1  0  0  0  0
 21 26  2  0  0  0  0
 21 45  1  0  0  0  0
 22 24  1  0  0  0  0
 22 46  1  0  0  0  0
 23 24  2  0  0  0  0
 23 47  1  0  0  0  0
 24 48  1  0  0  0  0
 25 27  2  0  0  0  0
 25 49  1  0  0  0  0
 26 27  1  0  0  0  0
 26 50  1  0  0  0  0
 27 51  1  0  0  0  0
M  END
> <PUBCHEM_COMPOUND_CID>
17396235

> <PUBCHEM_COMPOUND_CANONICALIZED>
1

> <PUBCHEM_CACTVS_COMPLEXITY>
605

> <PUBCHEM_CACTVS_HBOND_ACCEPTOR>
4

> <PUBCHEM_CACTVS_HBOND_DONOR>
1

> <PUBCHEM_CACTVS_ROTATABLE_BOND>
9

> <PUBCHEM_CACTVS_SUBSKEYS>
AAADceB7MABAAAAAAAAAAAAAAAAAAAAAAAAwYIAAAAAAAACBQAAAHgQQQAAADADF2ASwAINAAAKIAiFWUHDCAAAkAgAIiIEIBMgIIDKAlRGEIQhglgCIiYcYiICOgAAAAAAQAAAAAAAAACAAAAAAAAAAAA==

> <PUBCHEM_IUPAC_OPENEYE_NAME>
2-(1-oxo-2-isoquinolyl)-N-(4-phenylbutyl)ethanesulfonamide

> <PUBCHEM_IUPAC_CAS_NAME>
2-(1-oxo-2-isoquinolinyl)-N-(4-phenylbutyl)ethanesulfonamide

> <PUBCHEM_IUPAC_NAME>
2-(1-oxoisoquinolin-2-yl)-N-(4-phenylbutyl)ethanesulfonamide

> <PUBCHEM_IUPAC_SYSTEMATIC_NAME>
2-(1-oxidanylideneisoquinolin-2-yl)-N-(4-phenylbutyl)ethanesulfonamide

> <PUBCHEM_IUPAC_TRADITIONAL_NAME>
2-(1-keto-2-isoquinolyl)-N-(4-phenylbutyl)ethanesulfonamide

> <PUBCHEM_IUPAC_INCHI>
InChI=1S/C21H24N2O3S/c24-21-20-12-5-4-11-19(20)13-15-23(21)16-17-27(25,26)22-14-7-6-10-18-8-2-1-3-9-18/h1-5,8-9,11-13,15,22H,6-7,10,14,16-17H2

> <PUBCHEM_IUPAC_INCHIKEY>
LCLVNJNGNVXQGI-UHFFFAOYSA-N

> <PUBCHEM_XLOGP3_AA>
3.3

> <PUBCHEM_EXACT_MASS>
384.150764

> <PUBCHEM_MOLECULAR_FORMULA>
C21H24N2O3S

> <PUBCHEM_MOLECULAR_WEIGHT>
384.49186

> <PUBCHEM_OPENEYE_CAN_SMILES>
C1=CC=C(C=C1)CCCCNS(=O)(=O)CCN2C=CC3=CC=CC=C3C2=O

> <PUBCHEM_OPENEYE_ISO_SMILES>
C1=CC=C(C=C1)CCCCNS(=O)(=O)CCN2C=CC3=CC=CC=C3C2=O

> <PUBCHEM_CACTVS_TPSA>
74.9

> <PUBCHEM_MONOISOTOPIC_WEIGHT>
384.150764

> <PUBCHEM_TOTAL_CHARGE>
0

> <PUBCHEM_HEAVY_ATOM_COUNT>
27

> <PUBCHEM_ATOM_DEF_STEREO_COUNT>
0

> <PUBCHEM_ATOM_UDEF_STEREO_COUNT>
0

> <PUBCHEM_BOND_DEF_STEREO_COUNT>
0

> <PUBCHEM_BOND_UDEF_STEREO_COUNT>
0

> <PUBCHEM_ISOTOPIC_ATOM_COUNT>
0

> <PUBCHEM_COMPONENT_COUNT>
1

> <PUBCHEM_CACTVS_TAUTO_COUNT>
1

> <PUBCHEM_COORDINATE_TYPE>
1
5
255

> <PUBCHEM_BONDANNOTATIONS>
13  15  8
14  20  8
14  21  8
15  17  8
15  19  8
16  18  8
17  18  8
17  22  8
19  23  8
20  25  8
21  26  8
22  24  8
23  24  8
25  27  8
26  27  8
6  13  8
6  16  8

$$$$

