8787
  -OEChem-06261203062D

 27 26  0     0  0  0  0  0  0999 V2000
    7.3671    8.6200    0.0000 Na  0  3  0  0  0  0  0  0  0  0  0  0
    4.7690    4.1200    0.0000 O   0  0  0  0  0  0  0  0  0  0  0  0
    3.9030    5.6200    0.0000 O   0  0  0  0  0  0  0  0  0  0  0  0
    6.5010    8.1200    0.0000 O   0  5  0  0  0  0  0  0  0  0  0  0
    7.3671    6.6200    0.0000 O   0  0  0  0  0  0  0  0  0  0  0  0
    5.6350    5.6200    0.0000 C   0  0  0  0  0  0  0  0  0  0  0  0
    3.9030    2.6200    0.0000 C   0  0  0  0  0  0  0  0  0  0  0  0
    3.9030    3.6200    0.0000 C   0  0  0  0  0  0  0  0  0  0  0  0
    5.6350    6.6200    0.0000 C   0  0  0  0  0  0  0  0  0  0  0  0
    4.7690    5.1200    0.0000 C   0  0  0  0  0  0  0  0  0  0  0  0
    4.7690    2.1200    0.0000 C   0  0  0  0  0  0  0  0  0  0  0  0
    3.0369    2.1200    0.0000 C   0  0  0  0  0  0  0  0  0  0  0  0
    4.7690    1.1200    0.0000 C   0  0  0  0  0  0  0  0  0  0  0  0
    3.0369    1.1200    0.0000 C   0  0  0  0  0  0  0  0  0  0  0  0
    3.9030    0.6200    0.0000 C   0  0  0  0  0  0  0  0  0  0  0  0
    6.5010    7.1200    0.0000 C   0  0  0  0  0  0  0  0  0  0  0  0
    5.8471    5.0374    0.0000 H   0  0  0  0  0  0  0  0  0  0  0  0
    6.2456    5.7277    0.0000 H   0  0  0  0  0  0  0  0  0  0  0  0
    3.6909    4.2026    0.0000 H   0  0  0  0  0  0  0  0  0  0  0  0
    3.2924    3.5123    0.0000 H   0  0  0  0  0  0  0  0  0  0  0  0
    5.4230    7.2026    0.0000 H   0  0  0  0  0  0  0  0  0  0  0  0
    5.0244    6.5123    0.0000 H   0  0  0  0  0  0  0  0  0  0  0  0
    5.3059    2.4300    0.0000 H   0  0  0  0  0  0  0  0  0  0  0  0
    2.5000    2.4300    0.0000 H   0  0  0  0  0  0  0  0  0  0  0  0
    5.3059    0.8100    0.0000 H   0  0  0  0  0  0  0  0  0  0  0  0
    2.5000    0.8100    0.0000 H   0  0  0  0  0  0  0  0  0  0  0  0
    3.9030    0.0000    0.0000 H   0  0  0  0  0  0  0  0  0  0  0  0
  2  8  1  0  0  0  0
  2 10  1  0  0  0  0
  3 10  2  0  0  0  0
  4 16  1  0  0  0  0
  5 16  2  0  0  0  0
  6  9  1  0  0  0  0
  6 10  1  0  0  0  0
  6 17  1  0  0  0  0
  6 18  1  0  0  0  0
  7  8  1  0  0  0  0
  7 11  2  0  0  0  0
  7 12  1  0  0  0  0
  8 19  1  0  0  0  0
  8 20  1  0  0  0  0
  9 16  1  0  0  0  0
  9 21  1  0  0  0  0
  9 22  1  0  0  0  0
 11 13  1  0  0  0  0
 11 23  1  0  0  0  0
 12 14  2  0  0  0  0
 12 24  1  0  0  0  0
 13 15  2  0  0  0  0
 13 25  1  0  0  0  0
 14 15  1  0  0  0  0
 14 26  1  0  0  0  0
 15 27  1  0  0  0  0
M  CHG  2   1   1   4  -1
M  END
> <PUBCHEM_COMPOUND_CID>
8787

> <PUBCHEM_COMPOUND_CANONICALIZED>
1

> <PUBCHEM_CACTVS_COMPLEXITY>
213

> <PUBCHEM_CACTVS_HBOND_ACCEPTOR>
4

> <PUBCHEM_CACTVS_HBOND_DONOR>
0

> <PUBCHEM_CACTVS_ROTATABLE_BOND>
5

> <PUBCHEM_CACTVS_SUBSKEYS>
AAADccBwOCAAAAAAAAAAAAAAAAAAAAAAAAAwAAAAAAAAAAABAAAAGgAAAAAADACgmAIwCIAABACIAiDSCAACAAAgAAAIiAEACIgIJjKAMRiCMAAkwAEIqAfDwCAOAAAAAAAAAAAAAAAAAAAAAAAAAAAAAA==

> <PUBCHEM_IUPAC_OPENEYE_NAME>
sodium 4-benzyloxy-4-oxo-butanoate

> <PUBCHEM_IUPAC_CAS_NAME>
sodium 4-oxo-4-phenylmethoxybutanoate

> <PUBCHEM_IUPAC_NAME>
sodium 4-oxo-4-phenylmethoxybutanoate

> <PUBCHEM_IUPAC_SYSTEMATIC_NAME>
sodium 4-oxidanylidene-4-phenylmethoxy-butanoate

> <PUBCHEM_IUPAC_TRADITIONAL_NAME>
sodium 4-benzoxy-4-keto-butyrate

> <PUBCHEM_IUPAC_INCHI>
InChI=1S/C11H12O4.Na/c12-10(13)6-7-11(14)15-8-9-4-2-1-3-5-9;/h1-5H,6-8H2,(H,12,13);/q;+1/p-1

> <PUBCHEM_IUPAC_INCHIKEY>
YGNKLAAUOIITPV-UHFFFAOYSA-M

> <PUBCHEM_EXACT_MASS>
230.055503

> <PUBCHEM_MOLECULAR_FORMULA>
C11H11NaO4

> <PUBCHEM_MOLECULAR_WEIGHT>
230.192409

> <PUBCHEM_OPENEYE_CAN_SMILES>
C1=CC=C(C=C1)COC(=O)CCC(=O)[O-].[Na+]

> <PUBCHEM_OPENEYE_ISO_SMILES>
C1=CC=C(C=C1)COC(=O)CCC(=O)[O-].[Na+]

> <PUBCHEM_CACTVS_TPSA>
66.4

> <PUBCHEM_MONOISOTOPIC_WEIGHT>
230.055503

> <PUBCHEM_TOTAL_CHARGE>
0

> <PUBCHEM_HEAVY_ATOM_COUNT>
16

> <PUBCHEM_ATOM_DEF_STEREO_COUNT>
0

> <PUBCHEM_ATOM_UDEF_STEREO_COUNT>
0

> <PUBCHEM_BOND_DEF_STEREO_COUNT>
0

> <PUBCHEM_BOND_UDEF_STEREO_COUNT>
0

> <PUBCHEM_ISOTOPIC_ATOM_COUNT>
0

> <PUBCHEM_COMPONENT_COUNT>
2

> <PUBCHEM_CACTVS_TAUTO_COUNT>
1

> <PUBCHEM_COORDINATE_TYPE>
1
5
255

> <PUBCHEM_BONDANNOTATIONS>
11  13  8
12  14  8
13  15  8
14  15  8
7  11  8
7  12  8

$$$$

