9152
  -OEChem-06261203272D

 32 36  0     0  0  0  0  0  0999 V2000
    4.5274   -0.0515    0.0000 C   0  0  0  0  0  0  0  0  0  0  0  0
    4.0274    1.4874    0.0000 C   0  0  0  0  0  0  0  0  0  0  0  0
    3.7183    0.5363    0.0000 C   0  0  0  0  0  0  0  0  0  0  0  0
    5.3364    0.5363    0.0000 C   0  0  0  0  0  0  0  0  0  0  0  0
    5.0274    1.4874    0.0000 C   0  0  0  0  0  0  0  0  0  0  0  0
    4.6203   -1.0890    0.0000 C   0  0  0  0  0  0  0  0  0  0  0  0
    3.3424    2.2721    0.0000 C   0  0  0  0  0  0  0  0  0  0  0  0
    5.5685   -1.5200    0.0000 C   0  0  0  0  0  0  0  0  0  0  0  0
    6.2944    0.1273    0.0000 C   0  0  0  0  0  0  0  0  0  0  0  0
    2.7029    0.3040    0.0000 C   0  0  0  0  0  0  0  0  0  0  0  0
    5.4080    2.4202    0.0000 C   0  0  0  0  0  0  0  0  0  0  0  0
    6.4112   -0.9077    0.0000 C   0  0  0  0  0  0  0  0  0  0  0  0
    2.3219    2.0634    0.0000 C   0  0  0  0  0  0  0  0  0  0  0  0
    3.8115    3.1638    0.0000 C   0  0  0  0  0  0  0  0  0  0  0  0
    3.7280   -1.7062    0.0000 C   0  0  0  0  0  0  0  0  0  0  0  0
    2.0000    1.0727    0.0000 C   0  0  0  0  0  0  0  0  0  0  0  0
    4.8165    3.2358    0.0000 C   0  0  0  0  0  0  0  0  0  0  0  0
    5.6903   -2.5981    0.0000 C   0  0  0  0  0  0  0  0  0  0  0  0
    3.8247   -2.7869    0.0000 C   0  0  0  0  0  0  0  0  0  0  0  0
    4.8125   -3.2358    0.0000 C   0  0  0  0  0  0  0  0  0  0  0  0
    6.7917    0.4975    0.0000 H   0  0  0  0  0  0  0  0  0  0  0  0
    2.5182   -0.2878    0.0000 H   0  0  0  0  0  0  0  0  0  0  0  0
    6.0236    2.4945    0.0000 H   0  0  0  0  0  0  0  0  0  0  0  0
    6.9786   -1.1577    0.0000 H   0  0  0  0  0  0  0  0  0  0  0  0
    1.9088    2.5257    0.0000 H   0  0  0  0  0  0  0  0  0  0  0  0
    3.4722    3.6827    0.0000 H   0  0  0  0  0  0  0  0  0  0  0  0
    3.1665   -1.4432    0.0000 H   0  0  0  0  0  0  0  0  0  0  0  0
    1.3940    0.9415    0.0000 H   0  0  0  0  0  0  0  0  0  0  0  0
    5.0782    3.7979    0.0000 H   0  0  0  0  0  0  0  0  0  0  0  0
    6.2576   -2.8481    0.0000 H   0  0  0  0  0  0  0  0  0  0  0  0
    3.3190   -3.1455    0.0000 H   0  0  0  0  0  0  0  0  0  0  0  0
    4.8749   -3.8527    0.0000 H   0  0  0  0  0  0  0  0  0  0  0  0
  1  3  1  0  0  0  0
  1  4  2  0  0  0  0
  1  6  1  0  0  0  0
  2  3  1  0  0  0  0
  2  5  1  0  0  0  0
  2  7  2  0  0  0  0
  3 10  2  0  0  0  0
  4  5  1  0  0  0  0
  4  9  1  0  0  0  0
  5 11  2  0  0  0  0
  6  8  1  0  0  0  0
  6 15  2  0  0  0  0
  7 13  1  0  0  0  0
  7 14  1  0  0  0  0
  8 12  1  0  0  0  0
  8 18  2  0  0  0  0
  9 12  2  0  0  0  0
  9 21  1  0  0  0  0
 10 16  1  0  0  0  0
 10 22  1  0  0  0  0
 11 17  1  0  0  0  0
 11 23  1  0  0  0  0
 12 24  1  0  0  0  0
 13 16  2  0  0  0  0
 13 25  1  0  0  0  0
 14 17  2  0  0  0  0
 14 26  1  0  0  0  0
 15 19  1  0  0  0  0
 15 27  1  0  0  0  0
 16 28  1  0  0  0  0
 17 29  1  0  0  0  0
 18 20  1  0  0  0  0
 18 30  1  0  0  0  0
 19 20  2  0  0  0  0
 19 31  1  0  0  0  0
 20 32  1  0  0  0  0
M  END
> <PUBCHEM_COMPOUND_CID>
9152

> <PUBCHEM_COMPOUND_CANONICALIZED>
1

> <PUBCHEM_CACTVS_COMPLEXITY>
372

> <PUBCHEM_CACTVS_HBOND_ACCEPTOR>
0

> <PUBCHEM_CACTVS_HBOND_DONOR>
0

> <PUBCHEM_CACTVS_ROTATABLE_BOND>
0

> <PUBCHEM_CACTVS_SUBSKEYS>
AAADccB4AAAAAAAAAAAAAAAAAAAAAYAAAAAwYMGAAAAAAGDBVAAAGAAAAAAADACAGAAwAMAAAACAAiBCAAACAAAgAAAIiAAAAIgIICKAERCAIAAggAAIiAcAgMAOwAACAAAQAACAAAQAACAAAQAACAAAAA==

> <PUBCHEM_IUPAC_INCHI>
InChI=1S/C20H12/c1-2-8-15-13(5-1)11-12-17-16-9-3-6-14-7-4-10-18(19(14)16)20(15)17/h1-12H

> <PUBCHEM_IUPAC_INCHIKEY>
KHNYNFUTFKJLDD-UHFFFAOYSA-N

> <PUBCHEM_XLOGP3>
6.4

> <PUBCHEM_EXACT_MASS>
252.0939

> <PUBCHEM_MOLECULAR_FORMULA>
C20H12

> <PUBCHEM_MOLECULAR_WEIGHT>
252.30928

> <PUBCHEM_OPENEYE_CAN_SMILES>
C1=CC=C2C(=C1)C=CC3=C2C4=CC=CC5=C4C3=CC=C5

> <PUBCHEM_OPENEYE_ISO_SMILES>
C1=CC=C2C(=C1)C=CC3=C2C4=CC=CC5=C4C3=CC=C5

> <PUBCHEM_CACTVS_TPSA>
0

> <PUBCHEM_MONOISOTOPIC_WEIGHT>
252.0939

> <PUBCHEM_TOTAL_CHARGE>
0

> <PUBCHEM_HEAVY_ATOM_COUNT>
20

> <PUBCHEM_ATOM_DEF_STEREO_COUNT>
0

> <PUBCHEM_ATOM_UDEF_STEREO_COUNT>
0

> <PUBCHEM_BOND_DEF_STEREO_COUNT>
0

> <PUBCHEM_BOND_UDEF_STEREO_COUNT>
0

> <PUBCHEM_ISOTOPIC_ATOM_COUNT>
0

> <PUBCHEM_COMPONENT_COUNT>
1

> <PUBCHEM_CACTVS_TAUTO_COUNT>
1

> <PUBCHEM_COORDINATE_TYPE>
1
5
255

> <PUBCHEM_BONDANNOTATIONS>
1  4  8
1  6  8
10  16  8
11  17  8
13  16  8
14  17  8
15  19  8
18  20  8
19  20  8
2  3  8
2  5  8
2  7  8
3  10  8
4  9  8
5  11  8
6  15  8
6  8  8
7  13  8
7  14  8
8  12  8
8  18  8
9  12  8

$$$$

