12303
  -OEChem-06261206473D

 17 16  0     0  0  0  0  0  0999 V2000
    1.5953   -1.1007   -0.5495 O   0  0  0  0  0  0  0  0  0  0  0  0
    0.1807    0.3182    0.6321 N   0  0  0  0  0  0  0  0  0  0  0  0
    2.2358    1.0549   -0.0875 N   0  0  0  0  0  0  0  0  0  0  0  0
   -1.9041   -0.5165   -0.3290 C   0  0  0  0  0  0  0  0  0  0  0  0
   -0.9102   -0.6068    0.8242 C   0  0  0  0  0  0  0  0  0  0  0  0
   -2.5479    0.8580   -0.4473 C   0  0  0  0  0  0  0  0  0  0  0  0
    1.3504   -0.0072   -0.0430 C   0  0  0  0  0  0  0  0  0  0  0  0
   -1.3920   -0.3583    1.7753 H   0  0  0  0  0  0  0  0  0  0  0  0
   -0.5117   -1.6243    0.8951 H   0  0  0  0  0  0  0  0  0  0  0  0
   -2.6910   -1.2643   -0.1769 H   0  0  0  0  0  0  0  0  0  0  0  0
   -1.4071   -0.7602   -1.2755 H   0  0  0  0  0  0  0  0  0  0  0  0
   -3.0468    1.1389    0.4857 H   0  0  0  0  0  0  0  0  0  0  0  0
   -1.8097    1.6285   -0.6902 H   0  0  0  0  0  0  0  0  0  0  0  0
   -3.2986    0.8534   -1.2442 H   0  0  0  0  0  0  0  0  0  0  0  0
    0.0856    1.2570    1.0072 H   0  0  0  0  0  0  0  0  0  0  0  0
    2.0158    1.9502    0.3358 H   0  0  0  0  0  0  0  0  0  0  0  0
    3.1356    0.9696   -0.5481 H   0  0  0  0  0  0  0  0  0  0  0  0
  1  7  2  0  0  0  0
  2  5  1  0  0  0  0
  2  7  1  0  0  0  0
  2 15  1  0  0  0  0
  3  7  1  0  0  0  0
  3 16  1  0  0  0  0
  3 17  1  0  0  0  0
  4  5  1  0  0  0  0
  4  6  1  0  0  0  0
  4 10  1  0  0  0  0
  4 11  1  0  0  0  0
  5  8  1  0  0  0  0
  5  9  1  0  0  0  0
  6 12  1  0  0  0  0
  6 13  1  0  0  0  0
  6 14  1  0  0  0  0
M  END
> <PUBCHEM_COMPOUND_CID>
12303

> <PUBCHEM_CONFORMER_RMSD>
0.4

> <PUBCHEM_CONFORMER_DIVERSEORDER>
1
4
2
6
8
3
5
9
7

> <PUBCHEM_MMFF94_PARTIAL_CHARGES>
8
1 -0.57
15 0.37
16 0.37
17 0.37
2 -0.73
3 -0.8
5 0.3
7 0.69

> <PUBCHEM_EFFECTIVE_ROTOR_COUNT>
3

> <PUBCHEM_PHARMACOPHORE_FEATURES>
4
1 1 acceptor
1 2 donor
1 3 donor
1 6 hydrophobe

> <PUBCHEM_HEAVY_ATOM_COUNT>
7

> <PUBCHEM_ATOM_DEF_STEREO_COUNT>
0

> <PUBCHEM_ATOM_UDEF_STEREO_COUNT>
0

> <PUBCHEM_BOND_DEF_STEREO_COUNT>
0

> <PUBCHEM_BOND_UDEF_STEREO_COUNT>
0

> <PUBCHEM_ISOTOPIC_ATOM_COUNT>
0

> <PUBCHEM_COMPONENT_COUNT>
1

> <PUBCHEM_CACTVS_TAUTO_COUNT>
3

> <PUBCHEM_CONFORMER_ID>
0000300F00000001

> <PUBCHEM_MMFF94_ENERGY>
0.7381

> <PUBCHEM_FEATURE_SELFOVERLAP>
20.348

> <PUBCHEM_SHAPE_FINGERPRINT>
12897270 3 18187649054992538221
14390081 3 18273501156409503661
15310529 11 18259989253847228943
20096714 4 17346884459346483267
21040471 1 17060620018490884147
23552449 1 17627785319035878131
24536 1 18341609295900368305
29004967 10 18040714744804225323
5460574 1 9295297144273907403

> <PUBCHEM_SHAPE_MULTIPOLES>
128.23
3.5
1.09
0.82
0.43
0.07
-0.06
0.92
0.67
-0.06
0.07
0.08
-0.11
0.27

> <PUBCHEM_SHAPE_SELFOVERLAP>
229.116

> <PUBCHEM_SHAPE_VOLUME>
83.3

> <PUBCHEM_COORDINATE_TYPE>
2
5
10

$$$$

