11206
  -OEChem-06261205233D

 14 13  0     0  0  0  0  0  0999 V2000
   -2.0471   -0.0002    0.0000 I   0  0  0  0  0  0  0  0  0  0  0  0
    0.1500    0.0000    0.0000 C   0  0  0  0  0  0  0  0  0  0  0  0
    0.6326   -1.3998    0.3952 C   0  0  0  0  0  0  0  0  0  0  0  0
    0.6324    0.3577   -1.4099 C   0  0  0  0  0  0  0  0  0  0  0  0
    0.6322    1.0423    1.0147 C   0  0  0  0  0  0  0  0  0  0  0  0
    0.2784   -2.1620   -0.3084 H   0  0  0  0  0  0  0  0  0  0  0  0
    1.7275   -1.4457    0.4082 H   0  0  0  0  0  0  0  0  0  0  0  0
    0.2784   -1.6815    1.3936 H   0  0  0  0  0  0  0  0  0  0  0  0
    1.7273    0.3695   -1.4562 H   0  0  0  0  0  0  0  0  0  0  0  0
    0.2782   -0.3661   -2.1529 H   0  0  0  0  0  0  0  0  0  0  0  0
    0.2780    1.3481   -1.7181 H   0  0  0  0  0  0  0  0  0  0  0  0
    0.2780    0.8140    2.0265 H   0  0  0  0  0  0  0  0  0  0  0  0
    0.2778    2.0476    0.7593 H   0  0  0  0  0  0  0  0  0  0  0  0
    1.7271    1.0766    1.0480 H   0  0  0  0  0  0  0  0  0  0  0  0
  1  2  1  0  0  0  0
  2  3  1  0  0  0  0
  2  4  1  0  0  0  0
  2  5  1  0  0  0  0
  3  6  1  0  0  0  0
  3  7  1  0  0  0  0
  3  8  1  0  0  0  0
  4  9  1  0  0  0  0
  4 10  1  0  0  0  0
  4 11  1  0  0  0  0
  5 12  1  0  0  0  0
  5 13  1  0  0  0  0
  5 14  1  0  0  0  0
M  END
> <PUBCHEM_COMPOUND_CID>
11206

> <PUBCHEM_CONFORMER_RMSD>
0.4

> <PUBCHEM_CONFORMER_DIVERSEORDER>
1

> <PUBCHEM_MMFF94_PARTIAL_CHARGES>
2
1 -0.19
2 0.19

> <PUBCHEM_EFFECTIVE_ROTOR_COUNT>
0

> <PUBCHEM_PHARMACOPHORE_FEATURES>
2
1 1 hydrophobe
5 1 2 3 4 5 hydrophobe

> <PUBCHEM_HEAVY_ATOM_COUNT>
5

> <PUBCHEM_ATOM_DEF_STEREO_COUNT>
0

> <PUBCHEM_ATOM_UDEF_STEREO_COUNT>
0

> <PUBCHEM_BOND_DEF_STEREO_COUNT>
0

> <PUBCHEM_BOND_UDEF_STEREO_COUNT>
0

> <PUBCHEM_ISOTOPIC_ATOM_COUNT>
0

> <PUBCHEM_COMPONENT_COUNT>
1

> <PUBCHEM_CACTVS_TAUTO_COUNT>
1

> <PUBCHEM_CONFORMER_ID>
00002BC600000001

> <PUBCHEM_MMFF94_ENERGY>
8.9362

> <PUBCHEM_FEATURE_SELFOVERLAP>
10.302

> <PUBCHEM_SHAPE_FINGERPRINT>
139733 1 7996527634145690627
20096714 4 17387709210132459737
24536 1 16515686650118204321
29004967 10 16661742475768789599
5943 1 11503027436500772742

> <PUBCHEM_SHAPE_MULTIPOLES>
114.83
2.04
1.25
1.25
1.76
0.23
0.34
0
0
-0.37
-0.34
-0.37
-0.23
0

> <PUBCHEM_SHAPE_SELFOVERLAP>
179.244

> <PUBCHEM_SHAPE_VOLUME>
85.8

> <PUBCHEM_COORDINATE_TYPE>
2
5
10

$$$$

