5428
  -OEChem-06261200412D

 96 98  0     1  0  0  0  0  0999 V2000
   10.8212   -2.8118    0.0000 O   0  0  0  0  0  0  0  0  0  0  0  0
   12.4871   -0.9592    0.0000 O   0  0  0  0  0  0  0  0  0  0  0  0
   10.1852    1.3636    0.0000 O   0  0  0  0  0  0  0  0  0  0  0  0
   12.6487    0.1243    0.0000 O   0  0  0  0  0  0  0  0  0  0  0  0
    8.0570    0.5259    0.0000 O   0  0  0  0  0  0  0  0  0  0  0  0
   13.1510   -2.5888    0.0000 O   0  0  0  0  0  0  0  0  0  0  0  0
    7.2065   -1.4686    0.0000 O   0  0  0  0  0  0  0  0  0  0  0  0
   12.2333   -3.8894    0.0000 O   0  0  0  0  0  0  0  0  0  0  0  0
    8.4531    1.3636    0.0000 O   0  0  0  0  0  0  0  0  0  0  0  0
   11.7090    1.5793    0.0000 O   0  0  0  0  0  0  0  0  0  0  0  0
    6.5716   -0.3650    0.0000 O   0  0  0  0  0  0  0  0  0  0  0  0
    7.5920   -3.1572    0.0000 O   0  0  0  0  0  0  0  0  0  0  0  0
    9.5617   -0.4182    0.0000 C   0  0  3  0  0  0  0  0  0  0  0  0
   11.5861   -1.3931    0.0000 C   0  0  3  0  0  0  0  0  0  0  0  0
   10.6852   -1.8270    0.0000 C   0  0  3  0  0  0  0  0  0  0  0  0
   10.1852    0.3636    0.0000 C   0  0  3  0  0  0  0  0  0  0  0  0
    9.7842   -1.3931    0.0000 C   0  0  0  0  0  0  0  0  0  0  0  0
   11.8086   -0.4182    0.0000 C   0  0  3  0  0  0  0  0  0  0  0  0
   11.1852    0.3636    0.0000 C   0  0  0  0  0  0  0  0  0  0  0  0
    8.5714   -0.3317    0.0000 C   0  0  3  0  0  0  0  0  0  0  0  0
   12.2712   -2.1134    0.0000 C   0  0  3  0  0  0  0  0  0  0  0  0
    8.1815   -1.2461    0.0000 C   0  0  3  0  0  0  0  0  0  0  0  0
    8.9295   -1.9008    0.0000 C   0  0  0  0  0  0  0  0  0  0  0  0
    9.4033    0.9871    0.0000 C   0  0  0  0  0  0  0  0  0  0  0  0
   11.7994   -2.9884    0.0000 C   0  0  0  0  0  0  0  0  0  0  0  0
   12.9952   -1.4236    0.0000 C   0  0  0  0  0  0  0  0  0  0  0  0
    8.8381   -2.8966    0.0000 C   0  0  0  0  0  0  0  0  0  0  0  0
    9.3191    1.8636    0.0000 C   0  0  0  0  0  0  0  0  0  0  0  0
   12.5988    1.1231    0.0000 C   0  0  0  0  0  0  0  0  0  0  0  0
    7.0571    0.5092    0.0000 C   0  0  0  0  0  0  0  0  0  0  0  0
    6.9118   -2.4242    0.0000 C   0  0  0  0  0  0  0  0  0  0  0  0
   13.4389    1.6656    0.0000 C   0  0  0  0  0  0  0  0  0  0  0  0
    6.5427    1.3668    0.0000 C   0  0  0  0  0  0  0  0  0  0  0  0
    9.3191    2.8636    0.0000 C   0  0  0  0  0  0  0  0  0  0  0  0
    5.9368   -2.6467    0.0000 C   0  0  0  0  0  0  0  0  0  0  0  0
    5.5429    1.3501    0.0000 C   0  0  0  0  0  0  0  0  0  0  0  0
   13.3890    2.6644    0.0000 C   0  0  0  0  0  0  0  0  0  0  0  0
    5.0285    2.2076    0.0000 C   0  0  0  0  0  0  0  0  0  0  0  0
    5.2567   -1.9136    0.0000 C   0  0  0  0  0  0  0  0  0  0  0  0
    5.6421   -3.6023    0.0000 C   0  0  0  0  0  0  0  0  0  0  0  0
   14.2290    3.2070    0.0000 C   0  0  0  0  0  0  0  0  0  0  0  0
    4.0286    2.1909    0.0000 C   0  0  0  0  0  0  0  0  0  0  0  0
    4.6672   -3.8248    0.0000 C   0  0  0  0  0  0  0  0  0  0  0  0
    3.5142    3.0485    0.0000 C   0  0  0  0  0  0  0  0  0  0  0  0
    2.5144    3.0318    0.0000 C   0  0  0  0  0  0  0  0  0  0  0  0
    2.0000    3.8894    0.0000 C   0  0  0  0  0  0  0  0  0  0  0  0
    9.2266    0.3630    0.0000 H   0  0  0  0  0  0  0  0  0  0  0  0
    9.9981   -2.3275    0.0000 H   0  0  0  0  0  0  0  0  0  0  0  0
   12.5049   -0.9057    0.0000 H   0  0  0  0  0  0  0  0  0  0  0  0
   11.7438    0.6326    0.0000 H   0  0  0  0  0  0  0  0  0  0  0  0
   11.0472    0.9681    0.0000 H   0  0  0  0  0  0  0  0  0  0  0  0
    9.0220    0.3890    0.0000 H   0  0  0  0  0  0  0  0  0  0  0  0
    7.6364   -0.5938    0.0000 H   0  0  0  0  0  0  0  0  0  0  0  0
    9.7899    1.4719    0.0000 H   0  0  0  0  0  0  0  0  0  0  0  0
    8.9186    1.3737    0.0000 H   0  0  0  0  0  0  0  0  0  0  0  0
    9.0168    0.5024    0.0000 H   0  0  0  0  0  0  0  0  0  0  0  0
   13.4229   -1.8725    0.0000 H   0  0  0  0  0  0  0  0  0  0  0  0
   13.4441   -0.9959    0.0000 H   0  0  0  0  0  0  0  0  0  0  0  0
   12.5675   -0.9747    0.0000 H   0  0  0  0  0  0  0  0  0  0  0  0
   12.9905   -0.5973    0.0000 H   0  0  0  0  0  0  0  0  0  0  0  0
    8.2207   -2.8400    0.0000 H   0  0  0  0  0  0  0  0  0  0  0  0
    8.7815   -3.5140    0.0000 H   0  0  0  0  0  0  0  0  0  0  0  0
    9.4556   -2.9532    0.0000 H   0  0  0  0  0  0  0  0  0  0  0  0
   13.1685   -3.2086    0.0000 H   0  0  0  0  0  0  0  0  0  0  0  0
   13.6797    1.0943    0.0000 H   0  0  0  0  0  0  0  0  0  0  0  0
   14.0433    1.8036    0.0000 H   0  0  0  0  0  0  0  0  0  0  0  0
    7.1217    1.5885    0.0000 H   0  0  0  0  0  0  0  0  0  0  0  0
    6.4249    1.9755    0.0000 H   0  0  0  0  0  0  0  0  0  0  0  0
    9.9391    2.8636    0.0000 H   0  0  0  0  0  0  0  0  0  0  0  0
    9.3191    3.4836    0.0000 H   0  0  0  0  0  0  0  0  0  0  0  0
    8.6991    2.8636    0.0000 H   0  0  0  0  0  0  0  0  0  0  0  0
    4.9639    1.1283    0.0000 H   0  0  0  0  0  0  0  0  0  0  0  0
    5.6607    0.7414    0.0000 H   0  0  0  0  0  0  0  0  0  0  0  0
   13.1482    3.2357    0.0000 H   0  0  0  0  0  0  0  0  0  0  0  0
   12.7846    2.5264    0.0000 H   0  0  0  0  0  0  0  0  0  0  0  0
    5.6075    2.4294    0.0000 H   0  0  0  0  0  0  0  0  0  0  0  0
    4.9107    2.8163    0.0000 H   0  0  0  0  0  0  0  0  0  0  0  0
    5.7112   -1.4920    0.0000 H   0  0  0  0  0  0  0  0  0  0  0  0
    4.8350   -1.4592    0.0000 H   0  0  0  0  0  0  0  0  0  0  0  0
    4.8022   -2.3354    0.0000 H   0  0  0  0  0  0  0  0  0  0  0  0
    6.0638   -4.0568    0.0000 H   0  0  0  0  0  0  0  0  0  0  0  0
   14.5654    2.6861    0.0000 H   0  0  0  0  0  0  0  0  0  0  0  0
   14.7499    3.5433    0.0000 H   0  0  0  0  0  0  0  0  0  0  0  0
   13.8927    3.7278    0.0000 H   0  0  0  0  0  0  0  0  0  0  0  0
    3.4496    1.9692    0.0000 H   0  0  0  0  0  0  0  0  0  0  0  0
    4.1465    1.5822    0.0000 H   0  0  0  0  0  0  0  0  0  0  0  0
    4.5292   -3.2203    0.0000 H   0  0  0  0  0  0  0  0  0  0  0  0
    4.0627   -3.9628    0.0000 H   0  0  0  0  0  0  0  0  0  0  0  0
    4.8051   -4.4292    0.0000 H   0  0  0  0  0  0  0  0  0  0  0  0
    4.0932    3.2702    0.0000 H   0  0  0  0  0  0  0  0  0  0  0  0
    3.3964    3.6572    0.0000 H   0  0  0  0  0  0  0  0  0  0  0  0
    1.9354    2.8101    0.0000 H   0  0  0  0  0  0  0  0  0  0  0  0
    2.6322    2.4231    0.0000 H   0  0  0  0  0  0  0  0  0  0  0  0
    2.5317    4.2083    0.0000 H   0  0  0  0  0  0  0  0  0  0  0  0
    1.6811    4.4211    0.0000 H   0  0  0  0  0  0  0  0  0  0  0  0
    1.4683    3.5705    0.0000 H   0  0  0  0  0  0  0  0  0  0  0  0
  1 15  1  0  0  0  0
  1 25  1  0  0  0  0
  2 14  1  0  0  0  0
  2 60  1  0  0  0  0
  3 16  1  0  0  0  0
  3 28  1  0  0  0  0
  4 18  1  0  0  0  0
  4 29  1  0  0  0  0
  5 20  1  0  0  0  0
  5 30  1  0  0  0  0
  6 21  1  0  0  0  0
  6 64  1  0  0  0  0
  7 22  1  0  0  0  0
  7 31  1  0  0  0  0
  8 25  2  0  0  0  0
  9 28  2  0  0  0  0
 10 29  2  0  0  0  0
 11 30  2  0  0  0  0
 12 31  2  0  0  0  0
 13 16  1  0  0  0  0
 13 17  1  0  0  0  0
 13 20  1  0  0  0  0
 13 47  1  0  0  0  0
 14 15  1  0  0  0  0
 14 18  1  0  0  0  0
 14 21  1  0  0  0  0
 15 17  1  0  0  0  0
 15 48  1  0  0  0  0
 16 19  1  0  0  0  0
 16 24  1  0  0  0  0
 17 23  2  0  0  0  0
 18 19  1  0  0  0  0
 18 49  1  0  0  0  0
 19 50  1  0  0  0  0
 19 51  1  0  0  0  0
 20 22  1  0  0  0  0
 20 52  1  0  0  0  0
 21 25  1  0  0  0  0
 21 26  1  0  0  0  0
 22 23  1  0  0  0  0
 22 53  1  0  0  0  0
 23 27  1  0  0  0  0
 24 54  1  0  0  0  0
 24 55  1  0  0  0  0
 24 56  1  0  0  0  0
 26 57  1  0  0  0  0
 26 58  1  0  0  0  0
 26 59  1  0  0  0  0
 27 61  1  0  0  0  0
 27 62  1  0  0  0  0
 27 63  1  0  0  0  0
 28 34  1  0  0  0  0
 29 32  1  0  0  0  0
 30 33  1  0  0  0  0
 31 35  1  0  0  0  0
 32 37  1  0  0  0  0
 32 65  1  0  0  0  0
 32 66  1  0  0  0  0
 33 36  1  0  0  0  0
 33 67  1  0  0  0  0
 33 68  1  0  0  0  0
 34 69  1  0  0  0  0
 34 70  1  0  0  0  0
 34 71  1  0  0  0  0
 35 39  1  0  0  0  0
 35 40  2  3  0  0  0
 36 38  1  0  0  0  0
 36 72  1  0  0  0  0
 36 73  1  0  0  0  0
 37 41  1  0  0  0  0
 37 74  1  0  0  0  0
 37 75  1  0  0  0  0
 38 42  1  0  0  0  0
 38 76  1  0  0  0  0
 38 77  1  0  0  0  0
 39 78  1  0  0  0  0
 39 79  1  0  0  0  0
 39 80  1  0  0  0  0
 40 43  1  0  0  0  0
 40 81  1  0  0  0  0
 41 82  1  0  0  0  0
 41 83  1  0  0  0  0
 41 84  1  0  0  0  0
 42 44  1  0  0  0  0
 42 85  1  0  0  0  0
 42 86  1  0  0  0  0
 43 87  1  0  0  0  0
 43 88  1  0  0  0  0
 43 89  1  0  0  0  0
 44 45  1  0  0  0  0
 44 90  1  0  0  0  0
 44 91  1  0  0  0  0
 45 46  1  0  0  0  0
 45 92  1  0  0  0  0
 45 93  1  0  0  0  0
 46 94  1  0  0  0  0
 46 95  1  0  0  0  0
 46 96  1  0  0  0  0
M  END
> <PUBCHEM_COMPOUND_CID>
5428

> <PUBCHEM_COMPOUND_CANONICALIZED>
1

> <PUBCHEM_CACTVS_COMPLEXITY>
1270

> <PUBCHEM_CACTVS_HBOND_ACCEPTOR>
12

> <PUBCHEM_CACTVS_HBOND_DONOR>
2

> <PUBCHEM_CACTVS_ROTATABLE_BOND>
17

> <PUBCHEM_CACTVS_SUBSKEYS>
AAADcfB8PAAAAAAAAAAAAAAAAAAAASIAAAAAAAAABgAAAACQAAAAGgAACAAADVSggAICCAAABgCIAiDSCAIAAAAgAAAACAFAAEgBBBYAIQACUAAF4AALIYPK6PyOgAAAAAAAAAAAAAAAAAAAAAAAAAAAAA==

> <PUBCHEM_IUPAC_OPENEYE_NAME>
[6-acetoxy-4-butanoyloxy-3,3a-dihydroxy-3,6,9-trimethyl-8-(2-methylbut-2-enoyloxy)-2-oxo-4,5,6a,7,8,9b-hexahydroazuleno[4,5-b]furan-7-yl] octanoate

> <PUBCHEM_IUPAC_CAS_NAME>
octanoic acid [6-acetyloxy-3,3a-dihydroxy-3,6,9-trimethyl-8-(2-methyl-1-oxobut-2-enoxy)-2-oxo-4-(1-oxobutoxy)-4,5,6a,7,8,9b-hexahydroazuleno[4,5-b]furan-7-yl] ester

> <PUBCHEM_IUPAC_NAME>
[6-acetyloxy-4-butanoyloxy-3,3a-dihydroxy-3,6,9-trimethyl-8-(2-methylbut-2-enoyloxy)-2-oxo-4,5,6a,7,8,9b-hexahydroazuleno[4,5-b]furan-7-yl] octanoate

> <PUBCHEM_IUPAC_SYSTEMATIC_NAME>
[6-acetyloxy-4-butanoyloxy-3,6,9-trimethyl-8-(2-methylbut-2-enoyloxy)-3,3a-bis(oxidanyl)-2-oxidanylidene-4,5,6a,7,8,9b-hexahydroazuleno[4,5-b]furan-7-yl] octanoate

> <PUBCHEM_IUPAC_TRADITIONAL_NAME>
caprylic acid [6-acetoxy-4-butyryloxy-3,3a-dihydroxy-2-keto-3,6,9-trimethyl-8-(2-methylbut-2-enoyloxy)-4,5,6a,7,8,9b-hexahydroazuleno[4,5-b]furan-7-yl] ester

> <PUBCHEM_IUPAC_INCHI>
InChI=1S/C34H50O12/c1-9-12-13-14-15-17-24(37)43-28-26-25(20(5)27(28)44-30(38)19(4)11-3)29-34(41,33(8,40)31(39)45-29)22(42-23(36)16-10-2)18-32(26,7)46-21(6)35/h11,22,26-29,40-41H,9-10,12-18H2,1-8H3

> <PUBCHEM_IUPAC_INCHIKEY>
IXFPJGBNCFXKPI-UHFFFAOYSA-N

> <PUBCHEM_XLOGP3_AA>
3.6

> <PUBCHEM_EXACT_MASS>
650.330227

> <PUBCHEM_MOLECULAR_FORMULA>
C34H50O12

> <PUBCHEM_MOLECULAR_WEIGHT>
650.7536

> <PUBCHEM_OPENEYE_CAN_SMILES>
CCCCCCCC(=O)OC1C2C(=C(C1OC(=O)C(=CC)C)C)C3C(C(CC2(C)OC(=O)C)OC(=O)CCC)(C(C(=O)O3)(C)O)O

> <PUBCHEM_OPENEYE_ISO_SMILES>
CCCCCCCC(=O)OC1C2C(=C(C1OC(=O)C(=CC)C)C)C3C(C(CC2(C)OC(=O)C)OC(=O)CCC)(C(C(=O)O3)(C)O)O

> <PUBCHEM_CACTVS_TPSA>
172

> <PUBCHEM_MONOISOTOPIC_WEIGHT>
650.330227

> <PUBCHEM_TOTAL_CHARGE>
0

> <PUBCHEM_HEAVY_ATOM_COUNT>
46

> <PUBCHEM_ATOM_DEF_STEREO_COUNT>
0

> <PUBCHEM_ATOM_UDEF_STEREO_COUNT>
8

> <PUBCHEM_BOND_DEF_STEREO_COUNT>
0

> <PUBCHEM_BOND_UDEF_STEREO_COUNT>
1

> <PUBCHEM_ISOTOPIC_ATOM_COUNT>
0

> <PUBCHEM_COMPONENT_COUNT>
1

> <PUBCHEM_CACTVS_TAUTO_COUNT>
1

> <PUBCHEM_COORDINATE_TYPE>
1
5
255

> <PUBCHEM_BONDANNOTATIONS>
13  47  3
15  48  3
16  24  3
18  49  3
14  2  3
20  52  3
21  26  3
22  53  3
35  40  1

$$$$

