4384
  -OEChem-06261200053D

 37 37  0     1  0  0  0  0  0999 V2000
    0.1375    3.9192   -0.0844 Cl  0  0  0  0  0  0  0  0  0  0  0  0
    0.2734   -2.0926   -0.2294 S   0  0  0  0  0  0  0  0  0  0  0  0
    0.6267   -2.6458    1.0641 O   0  0  0  0  0  0  0  0  0  0  0  0
    0.0420   -2.9708   -1.3602 O   0  0  0  0  0  0  0  0  0  0  0  0
    0.8164    1.4948   -1.5817 O   0  0  0  0  0  0  0  0  0  0  0  0
    1.4173   -0.9183   -0.6731 N   0  0  0  0  0  0  0  0  0  0  0  0
    1.7171    0.2046    0.2470 C   0  0  1  0  0  0  0  0  0  0  0  0
    3.2079    0.2355    0.6327 C   0  0  0  0  0  0  0  0  0  0  0  0
    4.0974    0.4973   -0.5867 C   0  0  0  0  0  0  0  0  0  0  0  0
    3.6736   -1.0321    1.3569 C   0  0  0  0  0  0  0  0  0  0  0  0
    1.2715    1.4923   -0.4373 C   0  0  0  0  0  0  0  0  0  0  0  0
   -1.1880   -1.1192   -0.0252 C   0  0  0  0  0  0  0  0  0  0  0  0
    1.3865    2.7566    0.3897 C   0  0  0  0  0  0  0  0  0  0  0  0
   -2.0224   -0.9182   -1.1112 C   0  0  0  0  0  0  0  0  0  0  0  0
   -1.4710   -0.5762    1.2161 C   0  0  0  0  0  0  0  0  0  0  0  0
   -3.4764    0.4049    0.2927 C   0  0  0  0  0  0  0  0  0  0  0  0
   -3.1755   -0.1500   -0.9510 C   0  0  0  0  0  0  0  0  0  0  0  0
   -2.6241    0.1920    1.3763 C   0  0  0  0  0  0  0  0  0  0  0  0
   -4.7097    1.2260    0.4645 C   0  0  0  0  0  0  0  0  0  0  0  0
    1.1386    0.1056    1.1686 H   0  0  0  0  0  0  0  0  0  0  0  0
    3.3640    1.0715    1.3271 H   0  0  0  0  0  0  0  0  0  0  0  0
    1.6987   -0.8131   -1.6552 H   0  0  0  0  0  0  0  0  0  0  0  0
    4.0197   -0.3065   -1.3263 H   0  0  0  0  0  0  0  0  0  0  0  0
    5.1484    0.5625   -0.2834 H   0  0  0  0  0  0  0  0  0  0  0  0
    3.8480    1.4415   -1.0802 H   0  0  0  0  0  0  0  0  0  0  0  0
    3.6208   -1.9114    0.7068 H   0  0  0  0  0  0  0  0  0  0  0  0
    3.0543   -1.2212    2.2399 H   0  0  0  0  0  0  0  0  0  0  0  0
    4.7106   -0.9264    1.6929 H   0  0  0  0  0  0  0  0  0  0  0  0
    1.2349    2.5301    1.4478 H   0  0  0  0  0  0  0  0  0  0  0  0
    2.3703    3.2073    0.2399 H   0  0  0  0  0  0  0  0  0  0  0  0
   -1.8012   -1.3338   -2.0893 H   0  0  0  0  0  0  0  0  0  0  0  0
   -0.8270   -0.7357    2.0752 H   0  0  0  0  0  0  0  0  0  0  0  0
   -3.8297    0.0121   -1.8036 H   0  0  0  0  0  0  0  0  0  0  0  0
   -2.8478    0.6195    2.3501 H   0  0  0  0  0  0  0  0  0  0  0  0
   -5.5003    0.9006   -0.2202 H   0  0  0  0  0  0  0  0  0  0  0  0
   -5.1078    1.1325    1.4806 H   0  0  0  0  0  0  0  0  0  0  0  0
   -4.4889    2.2801    0.2695 H   0  0  0  0  0  0  0  0  0  0  0  0
  1 13  1  0  0  0  0
  2  3  2  0  0  0  0
  2  4  2  0  0  0  0
  2  6  1  0  0  0  0
  2 12  1  0  0  0  0
  5 11  2  0  0  0  0
  6  7  1  0  0  0  0
  6 22  1  0  0  0  0
  7  8  1  0  0  0  0
  7 11  1  0  0  0  0
  7 20  1  0  0  0  0
  8  9  1  0  0  0  0
  8 10  1  0  0  0  0
  8 21  1  0  0  0  0
  9 23  1  0  0  0  0
  9 24  1  0  0  0  0
  9 25  1  0  0  0  0
 10 26  1  0  0  0  0
 10 27  1  0  0  0  0
 10 28  1  0  0  0  0
 11 13  1  0  0  0  0
 12 14  2  0  0  0  0
 12 15  1  0  0  0  0
 13 29  1  0  0  0  0
 13 30  1  0  0  0  0
 14 17  1  0  0  0  0
 14 31  1  0  0  0  0
 15 18  2  0  0  0  0
 15 32  1  0  0  0  0
 16 17  2  0  0  0  0
 16 18  1  0  0  0  0
 16 19  1  0  0  0  0
 17 33  1  0  0  0  0
 18 34  1  0  0  0  0
 19 35  1  0  0  0  0
 19 36  1  0  0  0  0
 19 37  1  0  0  0  0
M  END
> <PUBCHEM_COMPOUND_CID>
4384

> <PUBCHEM_CONFORMER_RMSD>
0.8

> <PUBCHEM_CONFORMER_DIVERSEORDER>
1
2
51
21
20
8
53
12
49
26
31
16
24
52
40
14
54
5
55
23
11
39
29
38
35
22
19
50
27
43
10
48
30
9
41
6
18
25
42
7
44
32
4
33
36
3
37
13
45
34
46
17
15
28
47

> <PUBCHEM_MMFF94_PARTIAL_CHARGES>
21
1 -0.29
11 0.45
12 -0.01
13 0.35
14 -0.15
15 -0.15
16 -0.14
17 -0.15
18 -0.15
19 0.14
2 1.45
22 0.42
3 -0.65
31 0.15
32 0.15
33 0.15
34 0.15
4 -0.65
5 -0.57
6 -0.91
7 0.42

> <PUBCHEM_EFFECTIVE_ROTOR_COUNT>
6

> <PUBCHEM_PHARMACOPHORE_FEATURES>
6
1 3 acceptor
1 4 acceptor
1 5 acceptor
1 6 donor
3 8 9 10 hydrophobe
6 12 14 15 16 17 18 rings

> <PUBCHEM_HEAVY_ATOM_COUNT>
19

> <PUBCHEM_ATOM_DEF_STEREO_COUNT>
0

> <PUBCHEM_ATOM_UDEF_STEREO_COUNT>
1

> <PUBCHEM_BOND_DEF_STEREO_COUNT>
0

> <PUBCHEM_BOND_UDEF_STEREO_COUNT>
0

> <PUBCHEM_ISOTOPIC_ATOM_COUNT>
0

> <PUBCHEM_COMPONENT_COUNT>
1

> <PUBCHEM_CACTVS_TAUTO_COUNT>
3

> <PUBCHEM_CONFORMER_ID>
0000112000000001

> <PUBCHEM_MMFF94_ENERGY>
25.3815

> <PUBCHEM_FEATURE_SELFOVERLAP>
30.464

> <PUBCHEM_SHAPE_FINGERPRINT>
10382601 240 18194388111982845243
104564 63 18196370544686145648
11086676 242 18201446891282414616
11370993 70 15719395053010009188
11640471 11 17967248719705826723
12507560 18 17489306446623301881
12633257 1 18057577959498708003
12788726 201 18339352080872011524
128993 33 17767100030892527789
13134695 92 18343872108205885864
13140716 1 18339924809975063385
13965767 371 17319550763679082369
14713325 29 15473068959722933892
15775835 57 18186800292382632163
16945 1 18261111838060619230
18219364 16 18202005412981973143
192875 21 18116450158282606629
20233049 118 18342446024592400140
20511035 2 18056749940752847492
20671657 1 18124311601738706916
20905425 154 17976817915146574989
21041028 32 17981329198649539323
21524375 3 18340202982180075535
22094290 62 18340491066931742760
23184049 59 18413113865923490210
23402539 116 18187090554899353718
23419403 2 17483693559970238302
23557571 272 16371004045254562735
23558518 356 18050573932421588866
23559900 14 17022621962440995258
3286 77 18129664093457348623
350125 39 17981594975241429027
474 4 18407755941650850435
589210 1 17762623893354125688
5939293 188 18410291393573375600
6992083 37 18335995172660655354
74978 22 18192711133665271228
7832392 63 18265900151217494320
9981440 41 17255421322544717640

> <PUBCHEM_SHAPE_MULTIPOLES>
374.14
6.56
3.4
1.33
1.82
2.02
-0.01
1.2
-1.22
-0.98
0.39
0.06
-0.36
-0.7

> <PUBCHEM_SHAPE_SELFOVERLAP>
736.038

> <PUBCHEM_SHAPE_VOLUME>
226.4

> <PUBCHEM_COORDINATE_TYPE>
2
5
10

$$$$

