586326
  -OEChem-06241222462D

 28 29  0     1  0  0  0  0  0999 V2000
    6.0291    2.0694    0.0000 O   0  0  0  0  0  0  0  0  0  0  0  0
    2.5089    2.0694    0.0000 O   0  0  0  0  0  0  0  0  0  0  0  0
    2.5369   -1.2094    0.0000 O   0  0  0  0  0  0  0  0  0  0  0  0
    5.1350   -2.7094    0.0000 O   0  0  0  0  0  0  0  0  0  0  0  0
    3.4030   -2.7094    0.0000 O   0  0  0  0  0  0  0  0  0  0  0  0
    4.2690    1.7906    0.0000 N   0  0  0  0  0  0  0  0  0  0  0  0
    5.0780    2.3784    0.0000 C   0  0  3  0  0  0  0  0  0  0  0  0
    4.7690    3.3294    0.0000 C   0  0  0  0  0  0  0  0  0  0  0  0
    3.7690    3.3294    0.0000 C   0  0  0  0  0  0  0  0  0  0  0  0
    3.4600    2.3784    0.0000 C   0  0  0  0  0  0  0  0  0  0  0  0
    4.2690    0.7906    0.0000 C   0  0  0  0  0  0  0  0  0  0  0  0
    3.4030    0.2906    0.0000 C   0  0  0  0  0  0  0  0  0  0  0  0
    5.1350    0.2906    0.0000 C   0  0  0  0  0  0  0  0  0  0  0  0
    3.4030   -0.7094    0.0000 C   0  0  0  0  0  0  0  0  0  0  0  0
    5.1350   -0.7094    0.0000 C   0  0  0  0  0  0  0  0  0  0  0  0
    4.2690   -1.2094    0.0000 C   0  0  0  0  0  0  0  0  0  0  0  0
    4.2690   -2.2094    0.0000 C   0  0  0  0  0  0  0  0  0  0  0  0
    5.2110    1.5388    0.0000 H   0  0  0  0  0  0  0  0  0  0  0  0
    5.3754    3.4583    0.0000 H   0  0  0  0  0  0  0  0  0  0  0  0
    4.7042    3.9460    0.0000 H   0  0  0  0  0  0  0  0  0  0  0  0
    3.8338    3.9460    0.0000 H   0  0  0  0  0  0  0  0  0  0  0  0
    3.1625    3.4583    0.0000 H   0  0  0  0  0  0  0  0  0  0  0  0
    2.8660    0.6006    0.0000 H   0  0  0  0  0  0  0  0  0  0  0  0
    5.6720    0.6006    0.0000 H   0  0  0  0  0  0  0  0  0  0  0  0
    6.4898    2.4842    0.0000 H   0  0  0  0  0  0  0  0  0  0  0  0
    5.6720   -1.0194    0.0000 H   0  0  0  0  0  0  0  0  0  0  0  0
    2.0000   -0.8994    0.0000 H   0  0  0  0  0  0  0  0  0  0  0  0
    5.1350   -3.3294    0.0000 H   0  0  0  0  0  0  0  0  0  0  0  0
  1  7  1  0  0  0  0
  1 25  1  0  0  0  0
  2 10  2  0  0  0  0
  3 14  1  0  0  0  0
  3 27  1  0  0  0  0
  4 17  1  0  0  0  0
  4 28  1  0  0  0  0
  5 17  2  0  0  0  0
  6  7  1  0  0  0  0
  6 10  1  0  0  0  0
  6 11  1  0  0  0  0
  7  8  1  0  0  0  0
  7 18  1  0  0  0  0
  8  9  1  0  0  0  0
  8 19  1  0  0  0  0
  8 20  1  0  0  0  0
  9 10  1  0  0  0  0
  9 21  1  0  0  0  0
  9 22  1  0  0  0  0
 11 12  2  0  0  0  0
 11 13  1  0  0  0  0
 12 14  1  0  0  0  0
 12 23  1  0  0  0  0
 13 15  2  0  0  0  0
 13 24  1  0  0  0  0
 14 16  2  0  0  0  0
 15 16  1  0  0  0  0
 15 26  1  0  0  0  0
 16 17  1  0  0  0  0
M  END
> <PUBCHEM_COMPOUND_CID>
586326

> <PUBCHEM_COMPOUND_CANONICALIZED>
1

> <PUBCHEM_CACTVS_COMPLEXITY>
332

> <PUBCHEM_CACTVS_HBOND_ACCEPTOR>
5

> <PUBCHEM_CACTVS_HBOND_DONOR>
3

> <PUBCHEM_CACTVS_ROTATABLE_BOND>
2

> <PUBCHEM_CACTVS_SUBSKEYS>
AAADccByOAAAAAAAAAAAAAAAAAAAAWAAAAAwAAAAAAAAAAABAAAAHgAACAAADAzhmAYwzoMAAgCIAiXSWACCAAAlIgAIiAEObMgINzbClZOEcUhn5hnI2Ye+2SOeCAAAAgAIAAAQAAAEABAAAAAAAAAAAA==

> <PUBCHEM_IUPAC_OPENEYE_NAME>
2-hydroxy-4-(2-hydroxy-5-oxo-pyrrolidin-1-yl)benzoic acid

> <PUBCHEM_IUPAC_CAS_NAME>
2-hydroxy-4-(2-hydroxy-5-oxo-1-pyrrolidinyl)benzoic acid

> <PUBCHEM_IUPAC_NAME>
2-hydroxy-4-(2-hydroxy-5-oxopyrrolidin-1-yl)benzoic acid

> <PUBCHEM_IUPAC_SYSTEMATIC_NAME>
2-oxidanyl-4-(2-oxidanyl-5-oxidanylidene-pyrrolidin-1-yl)benzoic acid

> <PUBCHEM_IUPAC_TRADITIONAL_NAME>
2-hydroxy-4-(2-hydroxy-5-keto-pyrrolidino)benzoic acid

> <PUBCHEM_IUPAC_INCHI>
InChI=1S/C11H11NO5/c13-8-5-6(1-2-7(8)11(16)17)12-9(14)3-4-10(12)15/h1-2,5,9,13-14H,3-4H2,(H,16,17)

> <PUBCHEM_IUPAC_INCHIKEY>
RJUHORHFXBVVLV-UHFFFAOYSA-N

> <PUBCHEM_XLOGP3_AA>
0.5

> <PUBCHEM_EXACT_MASS>
237.063722

> <PUBCHEM_MOLECULAR_FORMULA>
C11H11NO5

> <PUBCHEM_MOLECULAR_WEIGHT>
237.20874

> <PUBCHEM_OPENEYE_CAN_SMILES>
C1CC(=O)N(C1O)C2=CC(=C(C=C2)C(=O)O)O

> <PUBCHEM_OPENEYE_ISO_SMILES>
C1CC(=O)N(C1O)C2=CC(=C(C=C2)C(=O)O)O

> <PUBCHEM_CACTVS_TPSA>
98.1

> <PUBCHEM_MONOISOTOPIC_WEIGHT>
237.063722

> <PUBCHEM_TOTAL_CHARGE>
0

> <PUBCHEM_HEAVY_ATOM_COUNT>
17

> <PUBCHEM_ATOM_DEF_STEREO_COUNT>
0

> <PUBCHEM_ATOM_UDEF_STEREO_COUNT>
1

> <PUBCHEM_BOND_DEF_STEREO_COUNT>
0

> <PUBCHEM_BOND_UDEF_STEREO_COUNT>
0

> <PUBCHEM_ISOTOPIC_ATOM_COUNT>
0

> <PUBCHEM_COMPONENT_COUNT>
1

> <PUBCHEM_CACTVS_TAUTO_COUNT>
8

> <PUBCHEM_COORDINATE_TYPE>
1
5
255

> <PUBCHEM_BONDANNOTATIONS>
11  12  8
11  13  8
12  14  8
13  15  8
14  16  8
15  16  8
7  18  3

$$$$

