17396402
  -OEChem-06241222563D

 32 34  0     0  0  0  0  0  0999 V2000
   -6.9762   -0.1601    0.0915 Br  0  0  0  0  0  0  0  0  0  0  0  0
   -0.3416   -2.0673   -0.4401 O   0  0  0  0  0  0  0  0  0  0  0  0
    3.5747   -0.6613   -0.1390 N   0  0  0  0  0  0  0  0  0  0  0  0
   -0.9059    0.1414    0.1349 N   0  0  0  0  0  0  0  0  0  0  0  0
    1.8350    0.6970    0.2243 N   0  0  0  0  0  0  0  0  0  0  0  0
    3.1497    0.6248    0.1837 C   0  0  0  0  0  0  0  0  0  0  0  0
    1.3947   -0.5667   -0.0781 C   0  0  0  0  0  0  0  0  0  0  0  0
    2.4465   -1.4226   -0.3059 C   0  0  0  0  0  0  0  0  0  0  0  0
   -2.3031    0.0873    0.1199 C   0  0  0  0  0  0  0  0  0  0  0  0
   -3.0582    1.2041   -0.2382 C   0  0  0  0  0  0  0  0  0  0  0  0
    0.0046   -0.9021   -0.1364 C   0  0  0  0  0  0  0  0  0  0  0  0
    4.9137   -1.0249   -0.2514 C   0  0  0  0  0  0  0  0  0  0  0  0
    4.1616    1.6044    0.4064 C   0  0  0  0  0  0  0  0  0  0  0  0
   -2.9410   -1.1028    0.4701 C   0  0  0  0  0  0  0  0  0  0  0  0
   -4.4512    1.1308   -0.2459 C   0  0  0  0  0  0  0  0  0  0  0  0
    5.8609   -0.0964   -0.0405 C   0  0  0  0  0  0  0  0  0  0  0  0
    5.4593    1.2593    0.2992 C   0  0  0  0  0  0  0  0  0  0  0  0
   -2.4009    2.4905   -0.6212 C   0  0  0  0  0  0  0  0  0  0  0  0
   -4.3338   -1.1761    0.4623 C   0  0  0  0  0  0  0  0  0  0  0  0
   -5.0889   -0.0594    0.1041 C   0  0  0  0  0  0  0  0  0  0  0  0
    2.4946   -2.4722   -0.5639 H   0  0  0  0  0  0  0  0  0  0  0  0
   -0.4986    1.0726    0.1762 H   0  0  0  0  0  0  0  0  0  0  0  0
    5.1429   -2.0521   -0.5072 H   0  0  0  0  0  0  0  0  0  0  0  0
    3.8741    2.6186    0.6602 H   0  0  0  0  0  0  0  0  0  0  0  0
   -2.3917   -1.9823    0.7910 H   0  0  0  0  0  0  0  0  0  0  0  0
   -5.0410    2.0010   -0.5251 H   0  0  0  0  0  0  0  0  0  0  0  0
    6.9163   -0.3283   -0.1158 H   0  0  0  0  0  0  0  0  0  0  0  0
    6.2431    1.9905    0.4650 H   0  0  0  0  0  0  0  0  0  0  0  0
   -1.8702    2.9190    0.2354 H   0  0  0  0  0  0  0  0  0  0  0  0
   -1.6976    2.3353   -1.4463 H   0  0  0  0  0  0  0  0  0  0  0  0
   -3.1303    3.2347   -0.9594 H   0  0  0  0  0  0  0  0  0  0  0  0
   -4.8158   -2.1084    0.7455 H   0  0  0  0  0  0  0  0  0  0  0  0
  1 20  1  0  0  0  0
  2 11  2  0  0  0  0
  3  6  1  0  0  0  0
  3  8  1  0  0  0  0
  3 12  1  0  0  0  0
  4  9  1  0  0  0  0
  4 11  1  0  0  0  0
  4 22  1  0  0  0  0
  5  6  2  0  0  0  0
  5  7  1  0  0  0  0
  6 13  1  0  0  0  0
  7  8  2  0  0  0  0
  7 11  1  0  0  0  0
  8 21  1  0  0  0  0
  9 10  2  0  0  0  0
  9 14  1  0  0  0  0
 10 15  1  0  0  0  0
 10 18  1  0  0  0  0
 12 16  2  0  0  0  0
 12 23  1  0  0  0  0
 13 17  2  0  0  0  0
 13 24  1  0  0  0  0
 14 19  2  0  0  0  0
 14 25  1  0  0  0  0
 15 20  2  0  0  0  0
 15 26  1  0  0  0  0
 16 17  1  0  0  0  0
 16 27  1  0  0  0  0
 17 28  1  0  0  0  0
 18 29  1  0  0  0  0
 18 30  1  0  0  0  0
 18 31  1  0  0  0  0
 19 20  1  0  0  0  0
 19 32  1  0  0  0  0
M  END
> <PUBCHEM_COMPOUND_CID>
17396402

> <PUBCHEM_CONFORMER_RMSD>
0.6

> <PUBCHEM_CONFORMER_DIVERSEORDER>
1
12
11
9
6
3
8
5
13
4
2
10
7

> <PUBCHEM_MMFF94_PARTIAL_CHARGES>
29
1 -0.11
10 -0.14
11 0.72
12 -0.18
13 -0.11
14 -0.15
15 -0.15
16 -0.15
17 -0.15
18 0.14
19 -0.15
2 -0.57
20 0.11
21 0.15
22 0.37
23 0.15
24 0.15
25 0.15
26 0.15
27 0.15
28 0.15
3 0.33
32 0.15
4 -0.55
5 -0.57
6 0.14
7 0.14
8 -0.3
9 0.12

> <PUBCHEM_EFFECTIVE_ROTOR_COUNT>
3

> <PUBCHEM_PHARMACOPHORE_FEATURES>
7
1 1 hydrophobe
1 2 acceptor
1 4 donor
3 3 5 6 cation
5 3 5 6 7 8 rings
6 3 6 12 13 16 17 rings
6 9 10 14 15 19 20 rings

> <PUBCHEM_HEAVY_ATOM_COUNT>
20

> <PUBCHEM_ATOM_DEF_STEREO_COUNT>
0

> <PUBCHEM_ATOM_UDEF_STEREO_COUNT>
0

> <PUBCHEM_BOND_DEF_STEREO_COUNT>
0

> <PUBCHEM_BOND_UDEF_STEREO_COUNT>
0

> <PUBCHEM_ISOTOPIC_ATOM_COUNT>
0

> <PUBCHEM_COMPONENT_COUNT>
1

> <PUBCHEM_CACTVS_TAUTO_COUNT>
2

> <PUBCHEM_CONFORMER_ID>
010972B200000001

> <PUBCHEM_MMFF94_ENERGY>
51.0189

> <PUBCHEM_FEATURE_SELFOVERLAP>
35.636

> <PUBCHEM_SHAPE_FINGERPRINT>
10 15 18340495465754084696
10968037 39 18413108356129198431
11287383 113 18409446973148830826
11315181 36 17060049337606853377
11595378 159 17560536074230619200
12107183 9 17409099427140362232
12166972 35 18412259532509652620
12236239 1 16587739854325145923
12403259 415 18333741220783654904
12596602 18 16343416215833965528
12730499 353 18334008402404583894
12916748 109 18411698803064236236
13081056 2 18409167718617581484
13402501 40 18410013230185170809
13533116 47 13984931975091643774
1420 363 18342172267682138331
14251764 18 18201444667011341450
14341114 176 18341889697151247952
15196674 1 18410293635546174136
15961568 22 17988357079775956764
17844677 252 18409160043579744704
19433438 28 18413390942827328984
19489759 90 17561365084665147793
200 152 17749391481451622227
20645477 70 17895187861751652198
21033648 29 18261689120061730760
21267235 1 18408878564444976486
21315764 268 18343027696355919284
21652331 79 18410857654919993981
221357 26 18333450958430405032
23402539 116 18343587313620206751
23557571 272 18341327881359518821
23559900 14 18341055121024380545
335352 9 18334855018569624102
34797466 226 17967244287183727764
351380 180 18342458131709243641
3545911 37 18411418418676792463
4073 2 18059287669857405306
4214541 1 18411981390136952144
4325135 7 18113058225298773367
474229 33 18408885127155323143
5104073 3 18270959180336860395
542803 24 17095239228686404395

> <PUBCHEM_SHAPE_MULTIPOLES>
396.72
15.77
1.86
0.69
2.29
0.5
0
1.4
-0.92
0.06
0.21
0.09
0.03
0.91

> <PUBCHEM_SHAPE_SELFOVERLAP>
856.11

> <PUBCHEM_SHAPE_VOLUME>
224.3

> <PUBCHEM_COORDINATE_TYPE>
2
5
10

$$$$

