10166
  -OEChem-06261204213D

 36 38  0     1  0  0  0  0  0999 V2000
   -3.4644   -0.9971    0.1750 O   0  0  0  0  0  0  0  0  0  0  0  0
    0.5947   -2.1480   -0.6279 O   0  0  0  0  0  0  0  0  0  0  0  0
   -0.4848    2.9935    0.2863 O   0  0  0  0  0  0  0  0  0  0  0  0
    3.1095   -1.7490   -0.4554 O   0  0  0  0  0  0  0  0  0  0  0  0
   -2.7311    1.2812    0.1486 C   0  0  0  0  0  0  0  0  0  0  0  0
   -3.6843    0.2564   -0.4677 C   0  0  2  0  0  0  0  0  0  0  0  0
   -2.1684   -1.5602   -0.1061 C   0  0  1  0  0  0  0  0  0  0  0  0
   -1.3131    0.7824    0.0792 C   0  0  0  0  0  0  0  0  0  0  0  0
   -1.0529   -0.5263   -0.0775 C   0  0  0  0  0  0  0  0  0  0  0  0
    0.3448   -0.9919   -0.3061 C   0  0  0  0  0  0  0  0  0  0  0  0
   -0.2337    1.8019    0.1474 C   0  0  0  0  0  0  0  0  0  0  0  0
    1.4381   -0.0138   -0.1593 C   0  0  0  0  0  0  0  0  0  0  0  0
    1.1596    1.3339    0.0586 C   0  0  0  0  0  0  0  0  0  0  0  0
   -5.1369    0.6536   -0.2479 C   0  0  0  0  0  0  0  0  0  0  0  0
   -1.9905   -2.6611    0.9403 C   0  0  0  0  0  0  0  0  0  0  0  0
    2.7675   -0.4447   -0.2512 C   0  0  0  0  0  0  0  0  0  0  0  0
    2.2080    2.2535    0.1859 C   0  0  0  0  0  0  0  0  0  0  0  0
    3.8103    0.4731   -0.1222 C   0  0  0  0  0  0  0  0  0  0  0  0
    3.5309    1.8203    0.0962 C   0  0  0  0  0  0  0  0  0  0  0  0
    3.2969   -2.5576    0.7037 C   0  0  0  0  0  0  0  0  0  0  0  0
   -2.9794    1.4569    1.2029 H   0  0  0  0  0  0  0  0  0  0  0  0
   -2.8394    2.2315   -0.3868 H   0  0  0  0  0  0  0  0  0  0  0  0
   -3.5072    0.1475   -1.5460 H   0  0  0  0  0  0  0  0  0  0  0  0
   -2.2172   -2.0125   -1.1042 H   0  0  0  0  0  0  0  0  0  0  0  0
   -5.3712    0.7173    0.8205 H   0  0  0  0  0  0  0  0  0  0  0  0
   -5.3607    1.6171   -0.7156 H   0  0  0  0  0  0  0  0  0  0  0  0
   -5.8060   -0.1039   -0.6704 H   0  0  0  0  0  0  0  0  0  0  0  0
   -1.9301   -2.2348    1.9486 H   0  0  0  0  0  0  0  0  0  0  0  0
   -2.8576   -3.3318    0.9375 H   0  0  0  0  0  0  0  0  0  0  0  0
   -1.0984   -3.2685    0.7693 H   0  0  0  0  0  0  0  0  0  0  0  0
    2.0156    3.3095    0.3554 H   0  0  0  0  0  0  0  0  0  0  0  0
    4.8445    0.1460   -0.1908 H   0  0  0  0  0  0  0  0  0  0  0  0
    4.3435    2.5341    0.1960 H   0  0  0  0  0  0  0  0  0  0  0  0
    3.3916   -3.5988    0.3835 H   0  0  0  0  0  0  0  0  0  0  0  0
    2.4465   -2.4776    1.3885 H   0  0  0  0  0  0  0  0  0  0  0  0
    4.2170   -2.2657    1.2195 H   0  0  0  0  0  0  0  0  0  0  0  0
  1  6  1  0  0  0  0
  1  7  1  0  0  0  0
  2 10  2  0  0  0  0
  3 11  2  0  0  0  0
  4 16  1  0  0  0  0
  4 20  1  0  0  0  0
  5  6  1  0  0  0  0
  5  8  1  0  0  0  0
  5 21  1  0  0  0  0
  5 22  1  0  0  0  0
  6 14  1  0  0  0  0
  6 23  1  0  0  0  0
  7  9  1  0  0  0  0
  7 15  1  0  0  0  0
  7 24  1  0  0  0  0
  8  9  2  0  0  0  0
  8 11  1  0  0  0  0
  9 10  1  0  0  0  0
 10 12  1  0  0  0  0
 11 13  1  0  0  0  0
 12 13  2  0  0  0  0
 12 16  1  0  0  0  0
 13 17  1  0  0  0  0
 14 25  1  0  0  0  0
 14 26  1  0  0  0  0
 14 27  1  0  0  0  0
 15 28  1  0  0  0  0
 15 29  1  0  0  0  0
 15 30  1  0  0  0  0
 16 18  2  0  0  0  0
 17 19  2  0  0  0  0
 17 31  1  0  0  0  0
 18 19  1  0  0  0  0
 18 32  1  0  0  0  0
 19 33  1  0  0  0  0
 20 34  1  0  0  0  0
 20 35  1  0  0  0  0
 20 36  1  0  0  0  0
M  END
> <PUBCHEM_COMPOUND_CID>
10166

> <PUBCHEM_CONFORMER_RMSD>
0.6

> <PUBCHEM_CONFORMER_DIVERSEORDER>
1
2

> <PUBCHEM_MMFF94_PARTIAL_CHARGES>
21
1 -0.56
10 0.47
11 0.47
12 0.09
13 0.09
16 0.08
17 -0.15
18 -0.15
19 -0.15
2 -0.57
20 0.28
3 -0.57
31 0.15
32 0.15
33 0.15
4 -0.36
5 0.14
6 0.28
7 0.42
8 -0.12
9 -0.12

> <PUBCHEM_EFFECTIVE_ROTOR_COUNT>
1.8

> <PUBCHEM_PHARMACOPHORE_FEATURES>
7
1 1 acceptor
1 2 acceptor
1 3 acceptor
1 4 acceptor
6 1 5 6 7 8 9 rings
6 12 13 16 17 18 19 rings
6 8 9 10 11 12 13 rings

> <PUBCHEM_HEAVY_ATOM_COUNT>
20

> <PUBCHEM_ATOM_DEF_STEREO_COUNT>
2

> <PUBCHEM_ATOM_UDEF_STEREO_COUNT>
0

> <PUBCHEM_BOND_DEF_STEREO_COUNT>
0

> <PUBCHEM_BOND_UDEF_STEREO_COUNT>
0

> <PUBCHEM_ISOTOPIC_ATOM_COUNT>
0

> <PUBCHEM_COMPONENT_COUNT>
1

> <PUBCHEM_CACTVS_TAUTO_COUNT>
3

> <PUBCHEM_CONFORMER_ID>
000027B600000001

> <PUBCHEM_MMFF94_ENERGY>
61.8795

> <PUBCHEM_FEATURE_SELFOVERLAP>
35.575

> <PUBCHEM_SHAPE_FINGERPRINT>
10062212 137 18187374241979621711
10411042 1 18049160265822585614
10608611 8 18338800018022005413
10616163 171 18338232639830792350
10759866 29 18201430359968928340
10863032 1 18410572851285372753
10967382 1 18409448076813059452
1100329 8 17114099422188982691
11132069 177 18410296869667078137
11471102 20 18408888446869416589
11578080 2 14044298910668252660
11680986 33 18410569570225803218
116883 192 18189893300058827332
12011746 2 18408317804903816516
12553582 1 18265319784923871794
12788726 201 18041271179266443857
13140716 1 18409444795352544058
13380535 76 18409730647259592735
14115302 16 18202270420668968783
14178342 30 17757572767085309642
14223421 5 18339921494165300186
14790565 3 18265607874667878121
15196674 1 18409730651659944639
15219456 202 18411416168441093907
15375358 24 18410014295204905497
15442244 35 18337672048099032288
15536298 74 18333168366830476812
16945 1 18192140706068247044
17492 89 18409450258646877319
18186145 218 17988931084594616031
19591789 44 18195808689949527713
200 152 17821732711098684733
20645477 70 18333731320915380975
21267235 1 18336818779530817382
21421861 104 18059305360916835802
21501502 16 18263920102274244976
221490 88 18339916031030365554
23184049 29 18338799039159657114
2334 1 18336825269336892044
23402539 116 18187373077716469444
23463225 33 18410011043935793964
23559900 14 18410295822122176362
2748010 2 18336259029401663812
335352 9 18193555798976513021
34934 24 18336552624923731222
350125 39 18267582605476283340
495365 180 17677065558968152872
5104073 3 18410008836744675755
7364860 26 18407761443604248142
8809292 202 18341608230843697155
9709674 26 18410289173011980119

> <PUBCHEM_SHAPE_MULTIPOLES>
388.11
7.43
3.06
0.73
3.46
0.51
0.04
-0.11
-0.27
-1.21
0.58
0.01
0.2
0.22

> <PUBCHEM_SHAPE_SELFOVERLAP>
850.299

> <PUBCHEM_SHAPE_VOLUME>
209.3

> <PUBCHEM_COORDINATE_TYPE>
2
5
10

$$$$

