47205520
  -OEChem-06241222593D

 35 36  0     1  0  0  0  0  0999 V2000
   -2.0804    1.4662   -0.5346 O   0  0  0  0  0  0  0  0  0  0  0  0
   -6.0890   -1.0007    0.9274 O   0  0  0  0  0  0  0  0  0  0  0  0
   -1.2857   -0.7263   -0.2704 N   0  0  0  0  0  0  0  0  0  0  0  0
   -4.5955    0.5628    0.0694 N   0  0  0  0  0  0  0  0  0  0  0  0
    4.9601    1.0345   -0.4057 N   0  0  0  0  0  0  0  0  0  0  0  0
    6.2849    1.0304   -0.1791 N   0  0  0  0  0  0  0  0  0  0  0  0
   -6.4780    1.2448    1.2043 N   0  0  0  0  0  0  0  0  0  0  0  0
   -3.6547   -0.3609   -0.5094 C   0  0  2  0  0  0  0  0  0  0  0  0
    0.1133   -0.5451   -0.1572 C   0  0  0  0  0  0  0  0  0  0  0  0
   -2.2597    0.2563   -0.4276 C   0  0  0  0  0  0  0  0  0  0  0  0
    2.8712   -0.1875    0.0665 C   0  0  0  0  0  0  0  0  0  0  0  0
   -4.0220   -0.6827   -1.9497 C   0  0  0  0  0  0  0  0  0  0  0  0
    0.9500   -1.6509   -0.0055 C   0  0  0  0  0  0  0  0  0  0  0  0
    0.6556    0.7395   -0.1972 C   0  0  0  0  0  0  0  0  0  0  0  0
    2.3289   -1.4720    0.1061 C   0  0  0  0  0  0  0  0  0  0  0  0
    2.0345    0.9184   -0.0854 C   0  0  0  0  0  0  0  0  0  0  0  0
    4.2971   -0.0024    0.1821 C   0  0  0  0  0  0  0  0  0  0  0  0
    5.2547   -0.7363    0.8386 C   0  0  0  0  0  0  0  0  0  0  0  0
   -5.7442    0.1656    0.7456 C   0  0  0  0  0  0  0  0  0  0  0  0
    6.4588   -0.0536    0.5818 C   0  0  0  0  0  0  0  0  0  0  0  0
   -3.6824   -1.2844    0.0812 H   0  0  0  0  0  0  0  0  0  0  0  0
   -1.5951   -1.6950   -0.2302 H   0  0  0  0  0  0  0  0  0  0  0  0
   -3.3085   -1.3881   -2.3885 H   0  0  0  0  0  0  0  0  0  0  0  0
   -5.0222   -1.1246   -2.0119 H   0  0  0  0  0  0  0  0  0  0  0  0
   -4.0183    0.2205   -2.5707 H   0  0  0  0  0  0  0  0  0  0  0  0
    0.5404   -2.6573    0.0257 H   0  0  0  0  0  0  0  0  0  0  0  0
    0.0736    1.6436   -0.3060 H   0  0  0  0  0  0  0  0  0  0  0  0
    2.9590   -2.3511    0.2171 H   0  0  0  0  0  0  0  0  0  0  0  0
    2.4259    1.9325   -0.1079 H   0  0  0  0  0  0  0  0  0  0  0  0
   -4.4295    1.5588   -0.0424 H   0  0  0  0  0  0  0  0  0  0  0  0
    5.1140   -1.6334    1.4244 H   0  0  0  0  0  0  0  0  0  0  0  0
    4.5823    1.7769   -0.9815 H   0  0  0  0  0  0  0  0  0  0  0  0
    7.4556   -0.3005    0.9180 H   0  0  0  0  0  0  0  0  0  0  0  0
   -7.3433    1.1117    1.7169 H   0  0  0  0  0  0  0  0  0  0  0  0
   -6.1771    2.2003    1.0449 H   0  0  0  0  0  0  0  0  0  0  0  0
  1 10  2  0  0  0  0
  2 19  2  0  0  0  0
  3  9  1  0  0  0  0
  3 10  1  0  0  0  0
  3 22  1  0  0  0  0
  4  8  1  0  0  0  0
  4 19  1  0  0  0  0
  4 30  1  0  0  0  0
  5  6  1  0  0  0  0
  5 17  1  0  0  0  0
  5 32  1  0  0  0  0
  6 20  2  0  0  0  0
  7 19  1  0  0  0  0
  7 34  1  0  0  0  0
  7 35  1  0  0  0  0
  8 10  1  0  0  0  0
  8 12  1  0  0  0  0
  8 21  1  0  0  0  0
  9 13  2  0  0  0  0
  9 14  1  0  0  0  0
 11 15  2  0  0  0  0
 11 16  1  0  0  0  0
 11 17  1  0  0  0  0
 12 23  1  0  0  0  0
 12 24  1  0  0  0  0
 12 25  1  0  0  0  0
 13 15  1  0  0  0  0
 13 26  1  0  0  0  0
 14 16  2  0  0  0  0
 14 27  1  0  0  0  0
 15 28  1  0  0  0  0
 16 29  1  0  0  0  0
 17 18  2  0  0  0  0
 18 20  1  0  0  0  0
 18 31  1  0  0  0  0
 20 33  1  0  0  0  0
M  END
> <PUBCHEM_COMPOUND_CID>
47205520

> <PUBCHEM_CONFORMER_RMSD>
0.8

> <PUBCHEM_CONFORMER_DIVERSEORDER>
1
27
34
24
19
20
26
23
7
25
4
32
13
18
14
30
16
29
21
2
5
31
22
11
9
33
17
8
28
12
6
3
15
10

> <PUBCHEM_MMFF94_PARTIAL_CHARGES>
30
1 -0.57
10 0.57
11 0.05
13 -0.15
14 -0.15
15 -0.15
16 -0.15
17 -0.2
18 -0.15
19 0.69
2 -0.57
20 0.14
22 0.37
26 0.15
27 0.15
28 0.15
29 0.15
3 -0.55
30 0.37
31 0.15
32 0.27
33 0.15
34 0.37
35 0.37
4 -0.73
5 0.3
6 -0.71
7 -0.8
8 0.36
9 0.12

> <PUBCHEM_EFFECTIVE_ROTOR_COUNT>
6

> <PUBCHEM_PHARMACOPHORE_FEATURES>
9
1 1 acceptor
1 2 acceptor
1 3 donor
1 4 donor
1 5 donor
1 6 acceptor
1 7 donor
5 5 6 17 18 20 rings
6 9 11 13 14 15 16 rings

> <PUBCHEM_HEAVY_ATOM_COUNT>
20

> <PUBCHEM_ATOM_DEF_STEREO_COUNT>
0

> <PUBCHEM_ATOM_UDEF_STEREO_COUNT>
1

> <PUBCHEM_BOND_DEF_STEREO_COUNT>
0

> <PUBCHEM_BOND_UDEF_STEREO_COUNT>
0

> <PUBCHEM_ISOTOPIC_ATOM_COUNT>
0

> <PUBCHEM_COMPONENT_COUNT>
1

> <PUBCHEM_CACTVS_TAUTO_COUNT>
24

> <PUBCHEM_CONFORMER_ID>
02D04C9000000001

> <PUBCHEM_MMFF94_ENERGY>
46.1493

> <PUBCHEM_FEATURE_SELFOVERLAP>
45.72

> <PUBCHEM_SHAPE_FINGERPRINT>
10 15 17275107185519714800
10354089 29 18334855026009422075
106641 1 15051726457403951476
11089746 13 17240490208459112953
11796584 16 14562530665726027484
12166972 35 10807926068494676599
12236239 1 18040154028349920223
12596602 18 17060344041099076032
12616971 3 18408606928805922189
12670543 26 6916266225752003611
12916748 109 18342737438397356844
13073987 5 17489313047908881528
13533116 47 17749110037168008150
13668630 136 11959730477486734568
1420 363 17632856438424949546
14251752 14 5617261394412786898
14251764 18 18412825759205966591
14341114 176 17989487437546777298
14849402 71 18265610983485891184
15048467 5 17748826336859603017
15716309 27 17632858620706185923
17093844 174 15574722378327065447
17834072 8 7276829082565024843
18006028 8 10735879469868087254
20281389 69 17313104176654773313
20681677 155 17240486901070616039
21267235 1 18272370923729913994
21521721 280 18340485578454383104
21623969 137 18201714063569890307
220451 1 17967535666471119486
22079108 93 16773800264771824504
22224240 67 18343585122807032395
23035841 295 17676206883589675254
23081809 10 18113628871585980982
23198884 109 14201393902798640331
23402539 116 17095249102726670637
23536379 177 16081087074005374310
24771293 8 17969519117282513016
26918003 58 18060416920144154249
300161 21 16950285126350421191
3004659 81 6555415314984860692
3545911 37 18131351908251651690
4340502 62 17060340734411939442
4463277 17 18334012795791948937
465052 167 17561369513188133762
5104073 3 18269845216075697914
542803 24 17821732727729862710
7495541 125 16701728376539488077

> <PUBCHEM_SHAPE_MULTIPOLES>
374.95
17.13
1.33
1.03
3.68
0.1
-0.19
-3.01
4.67
-0.02
0
1.41
0.09
-0.92

> <PUBCHEM_SHAPE_SELFOVERLAP>
796.141

> <PUBCHEM_SHAPE_VOLUME>
209.1

> <PUBCHEM_COORDINATE_TYPE>
2
5
10

$$$$

