4804
  -OEChem-06261200213D

 31 31  0     1  0  0  0  0  0999 V2000
   -0.1808    0.8851   -1.4832 O   0  0  0  0  0  0  0  0  0  0  0  0
    1.9705   -1.3364    2.5258 O   0  5  0  0  0  0  0  0  0  0  0  0
    2.5300   -2.3279    0.5468 O   0  0  0  0  0  0  0  0  0  0  0  0
    5.3253    0.0528   -1.0503 O   0  5  0  0  0  0  0  0  0  0  0  0
    3.5328    1.2916   -1.7341 O   0  0  0  0  0  0  0  0  0  0  0  0
   -1.2347   -1.7693   -1.1414 O   0  5  0  0  0  0  0  0  0  0  0  0
   -3.3588   -2.5277   -1.0369 O   0  0  0  0  0  0  0  0  0  0  0  0
    0.2139    0.0479    0.6428 N   0  0  0  0  0  0  0  0  0  0  0  0
    1.6387   -0.1414    0.4861 C   0  0  1  0  0  0  0  0  0  0  0  0
    2.4097    1.1280    0.8760 C   0  0  0  0  0  0  0  0  0  0  0  0
    3.9077    1.0503    0.5774 C   0  0  0  0  0  0  0  0  0  0  0  0
   -0.5836    0.5525   -0.3716 C   0  0  0  0  0  0  0  0  0  0  0  0
    2.0912   -1.3867    1.2705 C   0  0  0  0  0  0  0  0  0  0  0  0
   -2.0238    0.7118   -0.0439 C   0  0  0  0  0  0  0  0  0  0  0  0
   -2.9090   -0.3216   -0.2752 C   0  0  0  0  0  0  0  0  0  0  0  0
    4.2963    0.7618   -0.8764 C   0  0  0  0  0  0  0  0  0  0  0  0
   -2.4292    1.9179    0.4936 C   0  0  0  0  0  0  0  0  0  0  0  0
   -4.2551   -0.1426    0.0435 C   0  0  0  0  0  0  0  0  0  0  0  0
   -3.7754    2.0970    0.8122 C   0  0  0  0  0  0  0  0  0  0  0  0
   -4.6883    1.0668    0.5872 C   0  0  0  0  0  0  0  0  0  0  0  0
   -2.4773   -1.6099   -0.8490 C   0  0  0  0  0  0  0  0  0  0  0  0
    1.8100   -0.3438   -0.5783 H   0  0  0  0  0  0  0  0  0  0  0  0
    1.9837    1.9893    0.3451 H   0  0  0  0  0  0  0  0  0  0  0  0
    2.2731    1.3361    1.9449 H   0  0  0  0  0  0  0  0  0  0  0  0
    4.3721    2.0061    0.8497 H   0  0  0  0  0  0  0  0  0  0  0  0
    4.3665    0.2892    1.2205 H   0  0  0  0  0  0  0  0  0  0  0  0
   -0.2063   -0.1695    1.5422 H   0  0  0  0  0  0  0  0  0  0  0  0
   -1.7237    2.7244    0.6717 H   0  0  0  0  0  0  0  0  0  0  0  0
   -4.9925   -0.9240   -0.1187 H   0  0  0  0  0  0  0  0  0  0  0  0
   -4.1126    3.0385    1.2357 H   0  0  0  0  0  0  0  0  0  0  0  0
   -5.7364    1.2067    0.8355 H   0  0  0  0  0  0  0  0  0  0  0  0
  1 12  2  0  0  0  0
  2 13  1  0  0  0  0
  3 13  2  0  0  0  0
  4 16  1  0  0  0  0
  5 16  2  0  0  0  0
  6 21  1  0  0  0  0
  7 21  2  0  0  0  0
  8  9  1  0  0  0  0
  8 12  1  0  0  0  0
  8 27  1  0  0  0  0
  9 10  1  0  0  0  0
  9 13  1  0  0  0  0
  9 22  1  0  0  0  0
 10 11  1  0  0  0  0
 10 23  1  0  0  0  0
 10 24  1  0  0  0  0
 11 16  1  0  0  0  0
 11 25  1  0  0  0  0
 11 26  1  0  0  0  0
 12 14  1  0  0  0  0
 14 15  1  0  0  0  0
 14 17  2  0  0  0  0
 15 18  2  0  0  0  0
 15 21  1  0  0  0  0
 17 19  1  0  0  0  0
 17 28  1  0  0  0  0
 18 20  1  0  0  0  0
 18 29  1  0  0  0  0
 19 20  2  0  0  0  0
 19 30  1  0  0  0  0
 20 31  1  0  0  0  0
M  CHG  3   2  -1   4  -1   6  -1
M  END
> <PUBCHEM_COMPOUND_CID>
4804

> <PUBCHEM_CONFORMER_RMSD>
0.8

> <PUBCHEM_CONFORMER_DIVERSEORDER>
1
3
46
30
55
8
12
34
21
33
47
14
37
56
41
11
59
5
52
10
58
36
16
18
39
51
4
24
40
17
31
42
53
32
50
15
35
60
49
57
28
22
13
45
2
26
20
6
43
23
19
27
44
7
25
38
54
48
9
29

> <PUBCHEM_MMFF94_PARTIAL_CHARGES>
25
1 -0.57
11 -0.11
12 0.54
13 0.91
14 0.09
15 -0.18
16 0.91
17 -0.15
18 -0.15
19 -0.15
2 -0.9
20 -0.15
21 0.98
27 0.37
28 0.15
29 0.15
3 -0.9
30 0.15
31 0.15
4 -0.9
5 -0.9
6 -0.9
7 -0.9
8 -0.73
9 0.19

> <PUBCHEM_EFFECTIVE_ROTOR_COUNT>
8

> <PUBCHEM_PHARMACOPHORE_FEATURES>
12
1 1 acceptor
1 2 acceptor
1 3 acceptor
1 4 acceptor
1 5 acceptor
1 6 acceptor
1 7 acceptor
1 8 donor
3 2 3 13 anion
3 4 5 16 anion
3 6 7 21 anion
6 14 15 17 18 19 20 rings

> <PUBCHEM_HEAVY_ATOM_COUNT>
21

> <PUBCHEM_ATOM_DEF_STEREO_COUNT>
0

> <PUBCHEM_ATOM_UDEF_STEREO_COUNT>
1

> <PUBCHEM_BOND_DEF_STEREO_COUNT>
0

> <PUBCHEM_BOND_UDEF_STEREO_COUNT>
0

> <PUBCHEM_ISOTOPIC_ATOM_COUNT>
0

> <PUBCHEM_COMPONENT_COUNT>
1

> <PUBCHEM_CACTVS_TAUTO_COUNT>
2

> <PUBCHEM_CONFORMER_ID>
000012C400000001

> <PUBCHEM_MMFF94_ENERGY>
52.8959

> <PUBCHEM_FEATURE_SELFOVERLAP>
61.067

> <PUBCHEM_SHAPE_FINGERPRINT>
10366900 7 18059853948204856505
10616163 171 18334017155468805399
12173636 292 18261120707152261381
12236239 1 18272649035003504909
12553582 1 17973461909770654679
13583140 156 17917706895133852089
13760787 19 18409448102519494809
14251757 17 17168684428137147294
15415430 112 18335421240396366625
15669948 3 18261403230232633523
16752209 62 17968392168817639303
20681677 155 18187363242088237784
2255824 54 17845657083159842834
23175994 123 15719381824447609000
23493267 7 17748823042287475081
23559900 14 17749103422047622820
23566358 27 18201718509135438938
23598291 2 18269566077091853163
2637199 183 18409441501555726386
2838139 119 5255859589829382723
312423 11 18271537462770257178
474 4 17775278340314039988
4990 188 18040710368786503476
6049 1 16660936460710132483
633830 44 18129936789626447116
7097593 13 18123490520229979795

> <PUBCHEM_SHAPE_MULTIPOLES>
386.1
9.71
2.25
1.49
3.32
0.91
-0.29
-2.34
1.12
-1.42
-0.04
1.45
0.31
-1.84

> <PUBCHEM_SHAPE_SELFOVERLAP>
809.034

> <PUBCHEM_SHAPE_VOLUME>
215.5

> <PUBCHEM_COORDINATE_TYPE>
2
5
10

$$$$

