51090957
  -OEChem-06241223013D

 42 43  0     1  0  0  0  0  0999 V2000
    5.1255   -1.4258    0.3107 O   0  0  0  0  0  0  0  0  0  0  0  0
    2.0669    2.3292   -0.4738 O   0  0  0  0  0  0  0  0  0  0  0  0
   -2.1440    0.0269   -1.7163 O   0  0  0  0  0  0  0  0  0  0  0  0
   -5.6468   -0.0241    1.1115 O   0  0  0  0  0  0  0  0  0  0  0  0
    3.0406    0.4572    0.4933 N   0  0  0  0  0  0  0  0  0  0  0  0
   -1.8039    1.2178    0.2451 N   0  0  0  0  0  0  0  0  0  0  0  0
   -4.3608    0.4920    1.0069 N   0  0  0  0  0  0  0  0  0  0  0  0
    5.1876   -0.2238   -0.4675 C   0  0  1  0  0  0  0  0  0  0  0  0
    3.7934   -1.8893    0.5673 C   0  0  1  0  0  0  0  0  0  0  0  0
    2.9573   -0.7991    1.2424 C   0  0  0  0  0  0  0  0  0  0  0  0
    4.4083    0.8947    0.2231 C   0  0  0  0  0  0  0  0  0  0  0  0
    1.9603    1.2451    0.1049 C   0  0  0  0  0  0  0  0  0  0  0  0
    3.1356   -2.4455   -0.6941 C   0  0  0  0  0  0  0  0  0  0  0  0
    6.6559    0.1496   -0.6210 C   0  0  0  0  0  0  0  0  0  0  0  0
    0.5878    0.7081    0.4228 C   0  0  0  0  0  0  0  0  0  0  0  0
   -0.4745    1.6742   -0.0601 C   0  0  0  0  0  0  0  0  0  0  0  0
   -2.5400    0.4195   -0.6220 C   0  0  0  0  0  0  0  0  0  0  0  0
   -3.9077    0.0545   -0.1714 C   0  0  0  0  0  0  0  0  0  0  0  0
   -4.8545   -0.7341   -0.8479 C   0  0  0  0  0  0  0  0  0  0  0  0
   -5.9293   -0.7524    0.0011 C   0  0  0  0  0  0  0  0  0  0  0  0
   -7.2577   -1.3747   -0.0550 C   0  0  0  0  0  0  0  0  0  0  0  0
    4.7755   -0.4196   -1.4638 H   0  0  0  0  0  0  0  0  0  0  0  0
    3.8952   -2.7229    1.2721 H   0  0  0  0  0  0  0  0  0  0  0  0
    3.3704   -0.5835    2.2356 H   0  0  0  0  0  0  0  0  0  0  0  0
    1.9295   -1.1378    1.3842 H   0  0  0  0  0  0  0  0  0  0  0  0
    4.4171    1.8041   -0.3862 H   0  0  0  0  0  0  0  0  0  0  0  0
    4.8547    1.1367    1.1954 H   0  0  0  0  0  0  0  0  0  0  0  0
    2.9193   -1.6628   -1.4276 H   0  0  0  0  0  0  0  0  0  0  0  0
    2.1918   -2.9441   -0.4511 H   0  0  0  0  0  0  0  0  0  0  0  0
    3.7979   -3.1680   -1.1824 H   0  0  0  0  0  0  0  0  0  0  0  0
    7.1262    0.3058    0.3562 H   0  0  0  0  0  0  0  0  0  0  0  0
    6.7750    1.0588   -1.2181 H   0  0  0  0  0  0  0  0  0  0  0  0
    7.2065   -0.6626   -1.1079 H   0  0  0  0  0  0  0  0  0  0  0  0
    0.4951    0.5707    1.5060 H   0  0  0  0  0  0  0  0  0  0  0  0
    0.4588   -0.2636   -0.0671 H   0  0  0  0  0  0  0  0  0  0  0  0
   -0.3953    1.8306   -1.1425 H   0  0  0  0  0  0  0  0  0  0  0  0
   -0.3598    2.6513    0.4234 H   0  0  0  0  0  0  0  0  0  0  0  0
   -2.2133    1.4943    1.1329 H   0  0  0  0  0  0  0  0  0  0  0  0
   -4.7720   -1.2191   -1.8095 H   0  0  0  0  0  0  0  0  0  0  0  0
   -7.3914   -1.9378   -0.9840 H   0  0  0  0  0  0  0  0  0  0  0  0
   -8.0420   -0.6131   -0.0047 H   0  0  0  0  0  0  0  0  0  0  0  0
   -7.3947   -2.0657    0.7825 H   0  0  0  0  0  0  0  0  0  0  0  0
  1  8  1  0  0  0  0
  1  9  1  0  0  0  0
  2 12  2  0  0  0  0
  3 17  2  0  0  0  0
  4  7  1  0  0  0  0
  4 20  1  0  0  0  0
  5 10  1  0  0  0  0
  5 11  1  0  0  0  0
  5 12  1  0  0  0  0
  6 16  1  0  0  0  0
  6 17  1  0  0  0  0
  6 38  1  0  0  0  0
  7 18  2  0  0  0  0
  8 11  1  0  0  0  0
  8 14  1  0  0  0  0
  8 22  1  0  0  0  0
  9 10  1  0  0  0  0
  9 13  1  0  0  0  0
  9 23  1  0  0  0  0
 10 24  1  0  0  0  0
 10 25  1  0  0  0  0
 11 26  1  0  0  0  0
 11 27  1  0  0  0  0
 12 15  1  0  0  0  0
 13 28  1  0  0  0  0
 13 29  1  0  0  0  0
 13 30  1  0  0  0  0
 14 31  1  0  0  0  0
 14 32  1  0  0  0  0
 14 33  1  0  0  0  0
 15 16  1  0  0  0  0
 15 34  1  0  0  0  0
 15 35  1  0  0  0  0
 16 36  1  0  0  0  0
 16 37  1  0  0  0  0
 17 18  1  0  0  0  0
 18 19  1  0  0  0  0
 19 20  2  0  0  0  0
 19 39  1  0  0  0  0
 20 21  1  0  0  0  0
 21 40  1  0  0  0  0
 21 41  1  0  0  0  0
 21 42  1  0  0  0  0
M  END
> <PUBCHEM_COMPOUND_CID>
51090957

> <PUBCHEM_CONFORMER_RMSD>
0.8

> <PUBCHEM_CONFORMER_DIVERSEORDER>
1
117
192
217
76
131
133
113
248
18
78
208
44
254
87
20
129
206
109
40
234
2
160
212
262
96
244
237
123
184
228
140
153
136
142
50
45
130
211
31
90
164
82
198
33
271
263
25
17
71
259
72
93
226
232
13
122
239
63
101
118
236
88
240
52
69
199
139
196
213
175
188
114
143
26
207
41
83
179
120
55
86
163
268
267
151
162
74
127
159
7
260
250
172
167
108
243
253
30
197
51
221
255
229
89
5
182
149
186
204
231
203
176
92
22
249
110
28
238
150
73
38
61
144
116
152
42
214
137
29
35
103
242
230
77
269
9
14
56
265
233
170
115
15
209
273
168
39
68
100
187
256
264
81
128
99
210
189
64
241
125
102
185
27
225
141
154
180
200
19
272
165
193
34
247
54
60
95
145
107
235
6
23
124
79
105
223
104
261
47
177
155
181
245
36
49
161
166
219
85
222
121
24
21
59
134
270
66
32
148
126
174
195
67
147
274
70
53
65
220
218
135
16
158
266
252
75
173
119
257
57
12
8
205
48
111
97
194
98
224
190
171
3
157
146
246
156
191
91
227
258
178
80
215
4
183
62
94
202
112
169
10
84
201
138
37
43
132
58
216
11
46
106
251

> <PUBCHEM_MMFF94_PARTIAL_CHARGES>
21
1 -0.56
10 0.3
11 0.3
12 0.57
15 0.06
16 0.3
17 0.72
18 0.2
19 -0.15
2 -0.57
20 -0.04
21 0.18
3 -0.57
38 0.37
39 0.15
4 -0.02
5 -0.66
6 -0.73
7 -0.41
8 0.28
9 0.28

> <PUBCHEM_EFFECTIVE_ROTOR_COUNT>
7.2

> <PUBCHEM_PHARMACOPHORE_FEATURES>
7
1 1 acceptor
1 2 acceptor
1 3 acceptor
1 6 donor
1 7 acceptor
5 4 7 18 19 20 rings
6 1 5 8 9 10 11 rings

> <PUBCHEM_HEAVY_ATOM_COUNT>
21

> <PUBCHEM_ATOM_DEF_STEREO_COUNT>
0

> <PUBCHEM_ATOM_UDEF_STEREO_COUNT>
2

> <PUBCHEM_BOND_DEF_STEREO_COUNT>
0

> <PUBCHEM_BOND_UDEF_STEREO_COUNT>
0

> <PUBCHEM_ISOTOPIC_ATOM_COUNT>
0

> <PUBCHEM_COMPONENT_COUNT>
1

> <PUBCHEM_CACTVS_TAUTO_COUNT>
2

> <PUBCHEM_CONFORMER_ID>
030B960D00000001

> <PUBCHEM_MMFF94_ENERGY>
28.7368

> <PUBCHEM_FEATURE_SELFOVERLAP>
35.52

> <PUBCHEM_SHAPE_FINGERPRINT>
10299344 5 18333165063757922570
11089746 13 9799688190652572056
12236239 1 18114177519451352385
12516196 113 18334859402602488217
12553582 1 18188788209521929684
12596602 18 16950567640577472355
12633257 1 15502387707247979737
12778500 126 14273725296469617206
13167372 99 9511193944611147471
13402501 40 18273211984735724699
13464513 79 18409731777136626374
13533116 47 18335702689872656441
13551218 46 18187365454518881575
13668630 136 18411699864169240607
13685833 64 18343018879003831667
13914758 101 18261680355204259909
1420 369 18408324410331285393
14251740 57 17968651735071494094
14251764 18 17894346653804362701
14350574 20 18130788949223109588
14528608 73 11024104343950070867
14576447 43 18413109485463023672
14617045 38 18408319986557688366
15188451 53 15936988331871024389
15348495 7 14129352745020435447
15537594 2 18114187440651707094
17492 89 18122627421061755406
17844677 252 18413387644319378157
17857418 61 18335140886669974879
1813 80 18343293786638326885
20645477 70 18272655623156308744
21150785 3 15841551847587204699
21267235 1 18334573568935202166
212847 35 8358249363719869762
21344244 181 17676755545063110166
21521721 280 18187928331953672720
21623969 137 18411697690367409530
21774942 28 12607142732395347630
22950370 63 18408322211186957497
23522609 53 18193244525417424080
23559900 14 17845371055481082449
239999 70 18060140916655286888
2767999 5 10231756686476629583
2838139 119 8574713477591718003
2916195 48 6194846973661989651
3004659 81 18201442454306943177
33382 64 18407759248279828776
3411729 13 16009891402737157936
3472631 163 10952046767102529497
34797466 226 16343695538979099086
351380 3 18334298673199594438
4325135 7 17917991668281170110
4340502 62 17895489042407211800
46194498 28 17489869311041432764
465052 167 18335137587760623326
5104073 3 18262528111984671784
6025842 7 18199746956027618636
7970288 3 18339648943951958354

> <PUBCHEM_SHAPE_MULTIPOLES>
393.75
17.99
1.94
1.03
14.15
0.38
-0.05
7.3
-0.2
-1.74
-0.12
0.25
0.11
-0.4

> <PUBCHEM_SHAPE_SELFOVERLAP>
804.665

> <PUBCHEM_SHAPE_VOLUME>
228.2

> <PUBCHEM_COORDINATE_TYPE>
2
5
10

$$$$

