13884
  -OEChem-06241222403D

 22 23  0     1  0  0  0  0  0999 V2000
   -1.4885   -0.5629    0.6586 O   0  0  0  0  0  0  0  0  0  0  0  0
   -3.6633   -1.1522    0.2272 O   0  0  0  0  0  0  0  0  0  0  0  0
   -0.6744    0.5961    0.4121 C   0  0  2  0  0  0  0  0  0  0  0  0
   -1.3122    1.2540   -0.7949 C   0  0  0  0  0  0  0  0  0  0  0  0
   -2.7774    0.9466   -0.5959 C   0  0  0  0  0  0  0  0  0  0  0  0
    0.7706    0.2252    0.1959 C   0  0  0  0  0  0  0  0  0  0  0  0
   -2.7301   -0.3725    0.1158 C   0  0  0  0  0  0  0  0  0  0  0  0
    1.0994   -1.0304   -0.3151 C   0  0  0  0  0  0  0  0  0  0  0  0
    1.7787    1.1374    0.5072 C   0  0  0  0  0  0  0  0  0  0  0  0
    2.4365   -1.3738   -0.5147 C   0  0  0  0  0  0  0  0  0  0  0  0
    3.1159    0.7941    0.3074 C   0  0  0  0  0  0  0  0  0  0  0  0
    3.4448   -0.4615   -0.2036 C   0  0  0  0  0  0  0  0  0  0  0  0
   -0.7607    1.2316    1.3030 H   0  0  0  0  0  0  0  0  0  0  0  0
   -0.9688    0.7893   -1.7284 H   0  0  0  0  0  0  0  0  0  0  0  0
   -1.1004    2.3254   -0.8619 H   0  0  0  0  0  0  0  0  0  0  0  0
   -3.3028    0.8618   -1.5498 H   0  0  0  0  0  0  0  0  0  0  0  0
   -3.2631    1.6835    0.0501 H   0  0  0  0  0  0  0  0  0  0  0  0
    0.3328   -1.7549   -0.5755 H   0  0  0  0  0  0  0  0  0  0  0  0
    1.5344    2.1191    0.9042 H   0  0  0  0  0  0  0  0  0  0  0  0
    2.6928   -2.3505   -0.9150 H   0  0  0  0  0  0  0  0  0  0  0  0
    3.9010    1.5046    0.5490 H   0  0  0  0  0  0  0  0  0  0  0  0
    4.4859   -0.7285   -0.3598 H   0  0  0  0  0  0  0  0  0  0  0  0
  1  3  1  0  0  0  0
  1  7  1  0  0  0  0
  2  7  2  0  0  0  0
  3  4  1  0  0  0  0
  3  6  1  0  0  0  0
  3 13  1  0  0  0  0
  4  5  1  0  0  0  0
  4 14  1  0  0  0  0
  4 15  1  0  0  0  0
  5  7  1  0  0  0  0
  5 16  1  0  0  0  0
  5 17  1  0  0  0  0
  6  8  2  0  0  0  0
  6  9  1  0  0  0  0
  8 10  1  0  0  0  0
  8 18  1  0  0  0  0
  9 11  2  0  0  0  0
  9 19  1  0  0  0  0
 10 12  2  0  0  0  0
 10 20  1  0  0  0  0
 11 12  1  0  0  0  0
 11 21  1  0  0  0  0
 12 22  1  0  0  0  0
M  END
> <PUBCHEM_COMPOUND_CID>
13884

> <PUBCHEM_CONFORMER_RMSD>
0.4

> <PUBCHEM_CONFORMER_DIVERSEORDER>
1
3
2
4

> <PUBCHEM_MMFF94_PARTIAL_CHARGES>
16
1 -0.43
10 -0.15
11 -0.15
12 -0.15
18 0.15
19 0.15
2 -0.57
20 0.15
21 0.15
22 0.15
3 0.42
5 0.06
6 -0.14
7 0.66
8 -0.15
9 -0.15

> <PUBCHEM_EFFECTIVE_ROTOR_COUNT>
1.8

> <PUBCHEM_PHARMACOPHORE_FEATURES>
3
1 2 acceptor
5 1 3 4 5 7 rings
6 6 8 9 10 11 12 rings

> <PUBCHEM_HEAVY_ATOM_COUNT>
12

> <PUBCHEM_ATOM_DEF_STEREO_COUNT>
0

> <PUBCHEM_ATOM_UDEF_STEREO_COUNT>
1

> <PUBCHEM_BOND_DEF_STEREO_COUNT>
0

> <PUBCHEM_BOND_UDEF_STEREO_COUNT>
0

> <PUBCHEM_ISOTOPIC_ATOM_COUNT>
0

> <PUBCHEM_COMPONENT_COUNT>
1

> <PUBCHEM_CACTVS_TAUTO_COUNT>
2

> <PUBCHEM_CONFORMER_ID>
0000363C00000001

> <PUBCHEM_MMFF94_ENERGY>
22.6688

> <PUBCHEM_FEATURE_SELFOVERLAP>
15.223

> <PUBCHEM_SHAPE_FINGERPRINT>
10608611 8 18411706503661464892
12032990 46 18260823847845289518
12897270 3 18411984697288013948
12932764 1 17917429894684538153
13296908 3 18409166636064153407
14325111 11 18410013238716862176
14993402 34 14908179746434999906
15219456 202 18409733971152914052
15775835 57 17968097473799449772
16945 1 17894918429588497160
17844478 74 18411978057426810329
18175812 5 18411703192209628693
18186145 218 18341611576512275508
200 152 17822020821509645949
20201158 50 18409168847998775518
20279233 1 18411142454143122583
20645477 70 18041848423092150159
21501502 16 18339922739658310792
21730867 7 18334858311938887284
23402539 116 17917723391295718446
23402655 69 18261682566031151757
23559900 14 18269844280015660186
25610 137 18260263027610227560
2748010 2 18410296942618030316
276578 36 4750891333187437023
3248919 1 18188499080491458920
474 4 15866070888045710632
581208 293 18261679177317382866
6333449 129 18343306998052356085
77492 1 16081091475982920632
8809292 202 18342170051215743914

> <PUBCHEM_SHAPE_MULTIPOLES>
235.22
5.93
1.41
0.8
0.87
0.07
-0.05
0.94
-0.16
-0.1
-0.1
0.1
-0.07
0.71

> <PUBCHEM_SHAPE_SELFOVERLAP>
502.034

> <PUBCHEM_SHAPE_VOLUME>
131.6

> <PUBCHEM_COORDINATE_TYPE>
2
5
10

$$$$

