5579
  -OEChem-06261200453D

 26 26  0     0  0  0  0  0  0999 V2000
   -1.8039   -0.1993    0.0000 N   0  3  0  0  0  0  0  0  0  0  0  0
    2.8847   -1.5906    0.0004 N   0  0  0  0  0  0  0  0  0  0  0  0
   -0.3140    0.1515   -0.0004 C   0  0  0  0  0  0  0  0  0  0  0  0
   -2.4476    0.3924   -1.2508 C   0  0  0  0  0  0  0  0  0  0  0  0
   -2.4428    0.3732    1.2622 C   0  0  0  0  0  0  0  0  0  0  0  0
   -2.0420   -1.7078   -0.0105 C   0  0  0  0  0  0  0  0  0  0  0  0
    0.5599   -0.8836   -0.0009 C   0  0  0  0  0  0  0  0  0  0  0  0
    0.0056    1.4679    0.0002 C   0  0  0  0  0  0  0  0  0  0  0  0
    1.9176   -0.5636   -0.0007 C   0  0  0  0  0  0  0  0  0  0  0  0
    1.3632    1.7878    0.0005 C   0  0  0  0  0  0  0  0  0  0  0  0
    2.3192    0.7722    0.0001 C   0  0  0  0  0  0  0  0  0  0  0  0
   -1.9125    0.0201   -2.1304 H   0  0  0  0  0  0  0  0  0  0  0  0
   -3.4924    0.0665   -1.2814 H   0  0  0  0  0  0  0  0  0  0  0  0
   -2.4179    1.4844   -1.2059 H   0  0  0  0  0  0  0  0  0  0  0  0
   -2.4079    1.4657    1.2357 H   0  0  0  0  0  0  0  0  0  0  0  0
   -3.4888    0.0510    1.2894 H   0  0  0  0  0  0  0  0  0  0  0  0
   -1.9069   -0.0158    2.1339 H   0  0  0  0  0  0  0  0  0  0  0  0
   -1.6300   -2.1526    0.9013 H   0  0  0  0  0  0  0  0  0  0  0  0
   -3.1255   -1.8735   -0.0129 H   0  0  0  0  0  0  0  0  0  0  0  0
   -1.6273   -2.1400   -0.9272 H   0  0  0  0  0  0  0  0  0  0  0  0
    0.3060   -1.9346   -0.0007 H   0  0  0  0  0  0  0  0  0  0  0  0
   -0.7169    2.2747    0.0020 H   0  0  0  0  0  0  0  0  0  0  0  0
    1.6763    2.8279    0.0014 H   0  0  0  0  0  0  0  0  0  0  0  0
    3.3741    1.0346    0.0007 H   0  0  0  0  0  0  0  0  0  0  0  0
    3.8690   -1.3582   -0.0017 H   0  0  0  0  0  0  0  0  0  0  0  0
    2.5954   -2.5596   -0.0024 H   0  0  0  0  0  0  0  0  0  0  0  0
  1  3  1  0  0  0  0
  1  4  1  0  0  0  0
  1  5  1  0  0  0  0
  1  6  1  0  0  0  0
  2  9  1  0  0  0  0
  2 25  1  0  0  0  0
  2 26  1  0  0  0  0
  3  7  1  0  0  0  0
  3  8  2  0  0  0  0
  4 12  1  0  0  0  0
  4 13  1  0  0  0  0
  4 14  1  0  0  0  0
  5 15  1  0  0  0  0
  5 16  1  0  0  0  0
  5 17  1  0  0  0  0
  6 18  1  0  0  0  0
  6 19  1  0  0  0  0
  6 20  1  0  0  0  0
  7  9  2  0  0  0  0
  7 21  1  0  0  0  0
  8 10  1  0  0  0  0
  8 22  1  0  0  0  0
  9 11  1  0  0  0  0
 10 11  2  0  0  0  0
 10 23  1  0  0  0  0
 11 24  1  0  0  0  0
M  CHG  1   1   1
M  END
> <PUBCHEM_COMPOUND_CID>
5579

> <PUBCHEM_CONFORMER_RMSD>
0.4

> <PUBCHEM_CONFORMER_DIVERSEORDER>
1
2

> <PUBCHEM_MMFF94_PARTIAL_CHARGES>
17
1 -0.87
10 -0.15
11 -0.15
2 -0.9
21 0.15
22 0.15
23 0.15
24 0.15
25 0.4
26 0.4
3 0.36
4 0.5
5 0.5
6 0.5
7 -0.15
8 -0.15
9 0.1

> <PUBCHEM_EFFECTIVE_ROTOR_COUNT>
1

> <PUBCHEM_PHARMACOPHORE_FEATURES>
4
1 1 cation
1 2 cation
1 2 donor
6 3 7 8 9 10 11 rings

> <PUBCHEM_HEAVY_ATOM_COUNT>
11

> <PUBCHEM_ATOM_DEF_STEREO_COUNT>
0

> <PUBCHEM_ATOM_UDEF_STEREO_COUNT>
0

> <PUBCHEM_BOND_DEF_STEREO_COUNT>
0

> <PUBCHEM_BOND_UDEF_STEREO_COUNT>
0

> <PUBCHEM_ISOTOPIC_ATOM_COUNT>
0

> <PUBCHEM_COMPONENT_COUNT>
1

> <PUBCHEM_CACTVS_TAUTO_COUNT>
1

> <PUBCHEM_CONFORMER_ID>
000015CB00000001

> <PUBCHEM_MMFF94_ENERGY>
58.6896

> <PUBCHEM_FEATURE_SELFOVERLAP>
20.297

> <PUBCHEM_SHAPE_FINGERPRINT>
12423570 1 8709448654476683717
12524768 44 18335698381571968046
12897270 3 18196378017760156453
12932764 1 17917712400448157523
14128692 85 18409442592371840150
16945 1 18410575097785533024
17844478 74 17703214162043683569
17990270 104 18340772537639963834
19973954 147 18341615875906589645
20201158 50 18341341049512801414
20653091 64 18337388236580965552
207724 885 18337101371314829315
21040471 1 17906452121859453996
23552423 10 18341609253014011782
2748010 2 18411702041311386958
29004967 10 18343299249678217984
3248919 1 17894348882169774342
369184 2 18411419501282870691
5084963 1 18126005962110082945
8030462 33 17967814894900255165

> <PUBCHEM_SHAPE_MULTIPOLES>
216.41
4.05
1.76
0.9
0.05
0.12
0.01
0.83
0
-0.61
0
0.73
-0.15
0

> <PUBCHEM_SHAPE_SELFOVERLAP>
440.079

> <PUBCHEM_SHAPE_VOLUME>
128.2

> <PUBCHEM_COORDINATE_TYPE>
2
5
10

$$$$

