11859
  -OEChem-06261206123D

 13 13  0     0  0  0  0  0  0999 V2000
    2.7970    0.0011    0.0012 Cl  0  0  0  0  0  0  0  0  0  0  0  0
    1.1580   -2.7443    0.0009 Cl  0  0  0  0  0  0  0  0  0  0  0  0
    1.1550    2.7453    0.0007 Cl  0  0  0  0  0  0  0  0  0  0  0  0
   -3.0921   -0.0014    0.0016 O   0  0  0  0  0  0  0  0  0  0  0  0
   -1.7312   -0.0007   -0.0004 C   0  0  0  0  0  0  0  0  0  0  0  0
   -1.0344    1.2076   -0.0004 C   0  0  0  0  0  0  0  0  0  0  0  0
   -1.0332   -1.2085   -0.0007 C   0  0  0  0  0  0  0  0  0  0  0  0
    1.0586    0.0005   -0.0011 C   0  0  0  0  0  0  0  0  0  0  0  0
    0.3618   -1.2079   -0.0010 C   0  0  0  0  0  0  0  0  0  0  0  0
    0.3604    1.2082   -0.0008 C   0  0  0  0  0  0  0  0  0  0  0  0
   -1.5900    2.1427    0.0004 H   0  0  0  0  0  0  0  0  0  0  0  0
   -1.5815   -2.1480    0.0000 H   0  0  0  0  0  0  0  0  0  0  0  0
   -3.4076   -0.9214    0.0018 H   0  0  0  0  0  0  0  0  0  0  0  0
  1  8  1  0  0  0  0
  2  9  1  0  0  0  0
  3 10  1  0  0  0  0
  4  5  1  0  0  0  0
  4 13  1  0  0  0  0
  5  6  2  0  0  0  0
  5  7  1  0  0  0  0
  6 10  1  0  0  0  0
  6 11  1  0  0  0  0
  7  9  2  0  0  0  0
  7 12  1  0  0  0  0
  8  9  1  0  0  0  0
  8 10  2  0  0  0  0
M  END
> <PUBCHEM_COMPOUND_CID>
11859

> <PUBCHEM_CONFORMER_RMSD>
0.4

> <PUBCHEM_CONFORMER_DIVERSEORDER>
1

> <PUBCHEM_MMFF94_PARTIAL_CHARGES>
13
1 -0.18
10 0.18
11 0.15
12 0.15
13 0.45
2 -0.18
3 -0.18
4 -0.53
5 0.08
6 -0.15
7 -0.15
8 0.18
9 0.18

> <PUBCHEM_EFFECTIVE_ROTOR_COUNT>
0

> <PUBCHEM_PHARMACOPHORE_FEATURES>
2
1 4 donor
6 5 6 7 8 9 10 rings

> <PUBCHEM_HEAVY_ATOM_COUNT>
10

> <PUBCHEM_ATOM_DEF_STEREO_COUNT>
0

> <PUBCHEM_ATOM_UDEF_STEREO_COUNT>
0

> <PUBCHEM_BOND_DEF_STEREO_COUNT>
0

> <PUBCHEM_BOND_UDEF_STEREO_COUNT>
0

> <PUBCHEM_ISOTOPIC_ATOM_COUNT>
0

> <PUBCHEM_COMPONENT_COUNT>
1

> <PUBCHEM_CACTVS_TAUTO_COUNT>
2

> <PUBCHEM_CONFORMER_ID>
00002E5300000001

> <PUBCHEM_MMFF94_ENERGY>
21.35

> <PUBCHEM_FEATURE_SELFOVERLAP>
10.148

> <PUBCHEM_SHAPE_FINGERPRINT>
12423570 1 8615093264958762216
13380535 76 17831868949464708140
161256 15 18119806069581424118
16945 1 18410856559803306885
18185500 45 18337391642316048655
193761 8 17689998255499960324
20871998 184 16460221455052782404
21040471 1 17906171750378076069
2334 1 17978510828061465231
23552423 10 18338520711987883583
241688 4 17906450278964718713
2748010 2 18124312697044394895
5084963 1 18041841701257100985

> <PUBCHEM_SHAPE_MULTIPOLES>
205.54
3.08
2.85
0.62
0.86
0.01
0
0
0
-1.45
0
-0.05
0
0

> <PUBCHEM_SHAPE_SELFOVERLAP>
403.193

> <PUBCHEM_SHAPE_VOLUME>
127.1

> <PUBCHEM_COORDINATE_TYPE>
2
5
10

$$$$

