13812
  -OEChem-06241222402D

 76 77  0     1  0  0  0  0  0999 V2000
    6.1350    0.0000    0.0000 Cl  0  5  0  0  0  0  0  0  0  0  0  0
    7.7331   10.7690    0.0000 O   0  0  0  0  0  0  0  0  0  0  0  0
    2.2690    8.0369    0.0000 O   0  0  0  0  0  0  0  0  0  0  0  0
    9.2331    9.9030    0.0000 O   0  0  0  0  0  0  0  0  0  0  0  0
    4.8671    4.5369    0.0000 O   0  0  0  0  0  0  0  0  0  0  0  0
    1.4030    4.5369    0.0000 O   0  0  0  0  0  0  0  0  0  0  0  0
    3.1350    3.5369    0.0000 O   0  0  0  0  0  0  0  0  0  0  0  0
    8.7331   14.2331    0.0000 O   0  0  0  0  0  0  0  0  0  0  0  0
   11.7331   12.5010    0.0000 O   0  0  0  0  0  0  0  0  0  0  0  0
   10.7331   14.2331    0.0000 O   0  0  0  0  0  0  0  0  0  0  0  0
    5.7331    9.0369    0.0000 N   0  3  0  0  0  0  0  0  0  0  0  0
    4.0010    8.0369    0.0000 N   0  0  0  0  0  0  0  0  0  0  0  0
    4.8671    9.5369    0.0000 C   0  0  0  0  0  0  0  0  0  0  0  0
    5.7331    8.0369    0.0000 C   0  0  0  0  0  0  0  0  0  0  0  0
    6.2331    9.9030    0.0000 C   0  0  0  0  0  0  0  0  0  0  0  0
    4.0010    9.0369    0.0000 C   0  0  0  0  0  0  0  0  0  0  0  0
    4.8671    7.5369    0.0000 C   0  0  0  0  0  0  0  0  0  0  0  0
    7.2331    9.9030    0.0000 C   0  0  3  0  0  0  0  0  0  0  0  0
    3.1350    7.5369    0.0000 C   0  0  0  0  0  0  0  0  0  0  0  0
    7.7331    9.0369    0.0000 C   0  0  0  0  0  0  0  0  0  0  0  0
    3.1350    6.5369    0.0000 C   0  0  0  0  0  0  0  0  0  0  0  0
    8.7331   10.7690    0.0000 C   0  0  0  0  0  0  0  0  0  0  0  0
    2.2690    6.0369    0.0000 C   0  0  0  0  0  0  0  0  0  0  0  0
    4.0010    6.0369    0.0000 C   0  0  0  0  0  0  0  0  0  0  0  0
    4.0010    5.0369    0.0000 C   0  0  0  0  0  0  0  0  0  0  0  0
    2.2690    5.0369    0.0000 C   0  0  0  0  0  0  0  0  0  0  0  0
    9.2331   11.6350    0.0000 C   0  0  0  0  0  0  0  0  0  0  0  0
    3.1350    4.5369    0.0000 C   0  0  0  0  0  0  0  0  0  0  0  0
   10.2331   11.6350    0.0000 C   0  0  0  0  0  0  0  0  0  0  0  0
    8.7331   12.5010    0.0000 C   0  0  0  0  0  0  0  0  0  0  0  0
    9.2331   13.3671    0.0000 C   0  0  0  0  0  0  0  0  0  0  0  0
   10.7331   12.5010    0.0000 C   0  0  0  0  0  0  0  0  0  0  0  0
   10.2331   13.3671    0.0000 C   0  0  0  0  0  0  0  0  0  0  0  0
    4.8671    3.5369    0.0000 C   0  0  0  0  0  0  0  0  0  0  0  0
    0.5369    5.0369    0.0000 C   0  0  0  0  0  0  0  0  0  0  0  0
    2.2690    3.0369    0.0000 C   0  0  0  0  0  0  0  0  0  0  0  0
    7.7331   14.2331    0.0000 C   0  0  0  0  0  0  0  0  0  0  0  0
   12.2331   11.6350    0.0000 C   0  0  0  0  0  0  0  0  0  0  0  0
   11.7331   14.2331    0.0000 C   0  0  0  0  0  0  0  0  0  0  0  0
    6.3531    9.0369    0.0000 H   0  0  0  0  0  0  0  0  0  0  0  0
    5.2656   10.0119    0.0000 H   0  0  0  0  0  0  0  0  0  0  0  0
    4.4685   10.0119    0.0000 H   0  0  0  0  0  0  0  0  0  0  0  0
    5.9451    7.4543    0.0000 H   0  0  0  0  0  0  0  0  0  0  0  0
    6.3437    8.1446    0.0000 H   0  0  0  0  0  0  0  0  0  0  0  0
    6.3408   10.5135    0.0000 H   0  0  0  0  0  0  0  0  0  0  0  0
    5.6505   10.1150    0.0000 H   0  0  0  0  0  0  0  0  0  0  0  0
    3.7890    9.6196    0.0000 H   0  0  0  0  0  0  0  0  0  0  0  0
    3.3905    8.9293    0.0000 H   0  0  0  0  0  0  0  0  0  0  0  0
    4.4685    7.0620    0.0000 H   0  0  0  0  0  0  0  0  0  0  0  0
    5.2656    7.0620    0.0000 H   0  0  0  0  0  0  0  0  0  0  0  0
    6.9231   10.4399    0.0000 H   0  0  0  0  0  0  0  0  0  0  0  0
    7.1962    8.7269    0.0000 H   0  0  0  0  0  0  0  0  0  0  0  0
    8.0431    8.5000    0.0000 H   0  0  0  0  0  0  0  0  0  0  0  0
    8.2700    9.3469    0.0000 H   0  0  0  0  0  0  0  0  0  0  0  0
    1.7320    6.3469    0.0000 H   0  0  0  0  0  0  0  0  0  0  0  0
    4.5380    6.3469    0.0000 H   0  0  0  0  0  0  0  0  0  0  0  0
   10.5431   11.0981    0.0000 H   0  0  0  0  0  0  0  0  0  0  0  0
    8.1131   12.5010    0.0000 H   0  0  0  0  0  0  0  0  0  0  0  0
    4.2471    3.5369    0.0000 H   0  0  0  0  0  0  0  0  0  0  0  0
    4.8671    2.9169    0.0000 H   0  0  0  0  0  0  0  0  0  0  0  0
    5.4871    3.5369    0.0000 H   0  0  0  0  0  0  0  0  0  0  0  0
    0.8469    5.5739    0.0000 H   0  0  0  0  0  0  0  0  0  0  0  0
    0.0000    5.3469    0.0000 H   0  0  0  0  0  0  0  0  0  0  0  0
    0.2269    4.5000    0.0000 H   0  0  0  0  0  0  0  0  0  0  0  0
    1.9590    3.5739    0.0000 H   0  0  0  0  0  0  0  0  0  0  0  0
    1.7320    2.7269    0.0000 H   0  0  0  0  0  0  0  0  0  0  0  0
    2.5790    2.5000    0.0000 H   0  0  0  0  0  0  0  0  0  0  0  0
    7.7331   14.8531    0.0000 H   0  0  0  0  0  0  0  0  0  0  0  0
    7.1131   14.2331    0.0000 H   0  0  0  0  0  0  0  0  0  0  0  0
    7.7331   13.6131    0.0000 H   0  0  0  0  0  0  0  0  0  0  0  0
   11.6962   11.3250    0.0000 H   0  0  0  0  0  0  0  0  0  0  0  0
   12.5431   11.0981    0.0000 H   0  0  0  0  0  0  0  0  0  0  0  0
   12.7700   11.9450    0.0000 H   0  0  0  0  0  0  0  0  0  0  0  0
   11.7331   13.6131    0.0000 H   0  0  0  0  0  0  0  0  0  0  0  0
   12.3531   14.2331    0.0000 H   0  0  0  0  0  0  0  0  0  0  0  0
   11.7331   14.8531    0.0000 H   0  0  0  0  0  0  0  0  0  0  0  0
  2 18  1  0  0  0  0
  2 22  1  0  0  0  0
  3 19  2  0  0  0  0
  4 22  2  0  0  0  0
  5 25  1  0  0  0  0
  5 34  1  0  0  0  0
  6 26  1  0  0  0  0
  6 35  1  0  0  0  0
  7 28  1  0  0  0  0
  7 36  1  0  0  0  0
  8 31  1  0  0  0  0
  8 37  1  0  0  0  0
  9 32  1  0  0  0  0
  9 38  1  0  0  0  0
 10 33  1  0  0  0  0
 10 39  1  0  0  0  0
 11 13  1  0  0  0  0
 11 14  1  0  0  0  0
 11 15  1  0  0  0  0
 11 40  1  0  0  0  0
 12 16  1  0  0  0  0
 12 17  1  0  0  0  0
 12 19  1  0  0  0  0
 13 16  1  0  0  0  0
 13 41  1  0  0  0  0
 13 42  1  0  0  0  0
 14 17  1  0  0  0  0
 14 43  1  0  0  0  0
 14 44  1  0  0  0  0
 15 18  1  0  0  0  0
 15 45  1  0  0  0  0
 15 46  1  0  0  0  0
 16 47  1  0  0  0  0
 16 48  1  0  0  0  0
 17 49  1  0  0  0  0
 17 50  1  0  0  0  0
 18 20  1  0  0  0  0
 18 51  1  0  0  0  0
 19 21  1  0  0  0  0
 20 52  1  0  0  0  0
 20 53  1  0  0  0  0
 20 54  1  0  0  0  0
 21 23  2  0  0  0  0
 21 24  1  0  0  0  0
 22 27  1  0  0  0  0
 23 26  1  0  0  0  0
 23 55  1  0  0  0  0
 24 25  2  0  0  0  0
 24 56  1  0  0  0  0
 25 28  1  0  0  0  0
 26 28  2  0  0  0  0
 27 29  2  0  0  0  0
 27 30  1  0  0  0  0
 29 32  1  0  0  0  0
 29 57  1  0  0  0  0
 30 31  2  0  0  0  0
 30 58  1  0  0  0  0
 31 33  1  0  0  0  0
 32 33  2  0  0  0  0
 34 59  1  0  0  0  0
 34 60  1  0  0  0  0
 34 61  1  0  0  0  0
 35 62  1  0  0  0  0
 35 63  1  0  0  0  0
 35 64  1  0  0  0  0
 36 65  1  0  0  0  0
 36 66  1  0  0  0  0
 36 67  1  0  0  0  0
 37 68  1  0  0  0  0
 37 69  1  0  0  0  0
 37 70  1  0  0  0  0
 38 71  1  0  0  0  0
 38 72  1  0  0  0  0
 38 73  1  0  0  0  0
 39 74  1  0  0  0  0
 39 75  1  0  0  0  0
 39 76  1  0  0  0  0
M  CHG  2   1  -1  11   1
M  END
> <PUBCHEM_COMPOUND_CID>
13812

> <PUBCHEM_COMPOUND_CANONICALIZED>
1

> <PUBCHEM_CACTVS_COMPLEXITY>
720

> <PUBCHEM_CACTVS_HBOND_ACCEPTOR>
10

> <PUBCHEM_CACTVS_HBOND_DONOR>
1

> <PUBCHEM_CACTVS_ROTATABLE_BOND>
12

> <PUBCHEM_CACTVS_SUBSKEYS>
AAADcfB7PAAEAAAAAAAAAAAAAAAAAAAAAAA8YIAAAAAAAAABQAAAHgAQAAAADBThmAYyDoPABACIAiHSGACCCAAkIAAAiIEOjMgPZzKEtRuXMSpl1hWaqYf6/D7OIAABCAAAQABAAAIQAACAAAAAAAAAAA==

> <PUBCHEM_IUPAC_OPENEYE_NAME>
[1-methyl-2-[4-(3,4,5-trimethoxybenzoyl)piperazin-1-ium-1-yl]ethyl] 3,4,5-trimethoxybenzoate chloride

> <PUBCHEM_IUPAC_CAS_NAME>
3,4,5-trimethoxybenzoic acid 1-[4-[oxo-(3,4,5-trimethoxyphenyl)methyl]-1-piperazin-1-iumyl]propan-2-yl ester chloride

> <PUBCHEM_IUPAC_NAME>
1-[4-(3,4,5-trimethoxybenzoyl)piperazin-1-ium-1-yl]propan-2-yl 3,4,5-trimethoxybenzoate chloride

> <PUBCHEM_IUPAC_SYSTEMATIC_NAME>
1-[4-(3,4,5-trimethoxyphenyl)carbonylpiperazin-1-ium-1-yl]propan-2-yl 3,4,5-trimethoxybenzoate chloride

> <PUBCHEM_IUPAC_TRADITIONAL_NAME>
3,4,5-trimethoxybenzoic acid [1-methyl-2-[4-(3,4,5-trimethoxybenzoyl)piperazin-1-ium-1-yl]ethyl] ester chloride

> <PUBCHEM_IUPAC_INCHI>
InChI=1S/C27H36N2O9.ClH/c1-17(38-27(31)19-14-22(34-4)25(37-7)23(15-19)35-5)16-28-8-10-29(11-9-28)26(30)18-12-20(32-2)24(36-6)21(13-18)33-3;/h12-15,17H,8-11,16H2,1-7H3;1H

> <PUBCHEM_IUPAC_INCHIKEY>
OLWQKSDKYHVLAF-UHFFFAOYSA-N

> <PUBCHEM_EXACT_MASS>
568.218758

> <PUBCHEM_MOLECULAR_FORMULA>
C27H37ClN2O9

> <PUBCHEM_MOLECULAR_WEIGHT>
569.04368

> <PUBCHEM_OPENEYE_CAN_SMILES>
CC(C[NH+]1CCN(CC1)C(=O)C2=CC(=C(C(=C2)OC)OC)OC)OC(=O)C3=CC(=C(C(=C3)OC)OC)OC.[Cl-]

> <PUBCHEM_OPENEYE_ISO_SMILES>
CC(C[NH+]1CCN(CC1)C(=O)C2=CC(=C(C(=C2)OC)OC)OC)OC(=O)C3=CC(=C(C(=C3)OC)OC)OC.[Cl-]

> <PUBCHEM_CACTVS_TPSA>
106

> <PUBCHEM_MONOISOTOPIC_WEIGHT>
568.218758

> <PUBCHEM_TOTAL_CHARGE>
0

> <PUBCHEM_HEAVY_ATOM_COUNT>
39

> <PUBCHEM_ATOM_DEF_STEREO_COUNT>
0

> <PUBCHEM_ATOM_UDEF_STEREO_COUNT>
1

> <PUBCHEM_BOND_DEF_STEREO_COUNT>
0

> <PUBCHEM_BOND_UDEF_STEREO_COUNT>
0

> <PUBCHEM_ISOTOPIC_ATOM_COUNT>
0

> <PUBCHEM_COMPONENT_COUNT>
2

> <PUBCHEM_CACTVS_TAUTO_COUNT>
1

> <PUBCHEM_COORDINATE_TYPE>
1
5
255

> <PUBCHEM_BONDANNOTATIONS>
18  20  3
21  23  8
21  24  8
23  26  8
24  25  8
25  28  8
26  28  8
27  29  8
27  30  8
29  32  8
30  31  8
31  33  8
32  33  8

$$$$

