17395292
  -OEChem-06241222492D

 47 48  0     0  0  0  0  0  0999 V2000
    3.5878   -4.1573    0.0000 O   0  0  0  0  0  0  0  0  0  0  0  0
    3.9538   -1.1185    0.0000 O   0  0  0  0  0  0  0  0  0  0  0  0
    6.5519    4.3815    0.0000 O   0  0  0  0  0  0  0  0  0  0  0  0
    2.4067   -5.8799    0.0000 O   0  0  0  0  0  0  0  0  0  0  0  0
    5.6859   -0.1185    0.0000 O   0  0  0  0  0  0  0  0  0  0  0  0
    2.2218   -1.1185    0.0000 O   0  0  0  0  0  0  0  0  0  0  0  0
    4.8198    4.3815    0.0000 N   0  0  0  0  0  0  0  0  0  0  0  0
    5.6859    5.8815    0.0000 C   0  0  0  0  0  0  0  0  0  0  0  0
    5.6859    4.8815    0.0000 C   0  0  0  0  0  0  0  0  0  0  0  0
    4.8198    3.3815    0.0000 C   0  0  0  0  0  0  0  0  0  0  0  0
    6.5519    6.3815    0.0000 C   0  0  0  0  0  0  0  0  0  0  0  0
    4.8198    6.3815    0.0000 C   0  0  0  0  0  0  0  0  0  0  0  0
    3.0878   -2.6185    0.0000 C   0  0  0  0  0  0  0  0  0  0  0  0
    4.8198    1.3815    0.0000 C   0  0  0  0  0  0  0  0  0  0  0  0
    3.8968   -3.2063    0.0000 C   0  0  0  0  0  0  0  0  0  0  0  0
    2.5878   -4.1573    0.0000 C   0  0  0  0  0  0  0  0  0  0  0  0
    3.9538    2.8815    0.0000 C   0  0  0  0  0  0  0  0  0  0  0  0
    5.6859    2.8815    0.0000 C   0  0  0  0  0  0  0  0  0  0  0  0
    2.2788   -3.2063    0.0000 C   0  0  0  0  0  0  0  0  0  0  0  0
    3.9538    1.8815    0.0000 C   0  0  0  0  0  0  0  0  0  0  0  0
    5.6859    1.8815    0.0000 C   0  0  0  0  0  0  0  0  0  0  0  0
    4.8198    0.3815    0.0000 C   0  0  0  0  0  0  0  0  0  0  0  0
    3.9538   -0.1185    0.0000 C   0  0  0  0  0  0  0  0  0  0  0  0
    3.0878   -1.6185    0.0000 C   0  0  0  0  0  0  0  0  0  0  0  0
    2.0000   -4.9664    0.0000 C   0  0  0  0  0  0  0  0  0  0  0  0
    4.8479   -2.8973    0.0000 C   0  0  0  0  0  0  0  0  0  0  0  0
    5.6859    6.5015    0.0000 H   0  0  0  0  0  0  0  0  0  0  0  0
    6.8619    5.8446    0.0000 H   0  0  0  0  0  0  0  0  0  0  0  0
    7.0888    6.6915    0.0000 H   0  0  0  0  0  0  0  0  0  0  0  0
    6.2419    6.9184    0.0000 H   0  0  0  0  0  0  0  0  0  0  0  0
    5.1298    6.9184    0.0000 H   0  0  0  0  0  0  0  0  0  0  0  0
    4.2829    6.6915    0.0000 H   0  0  0  0  0  0  0  0  0  0  0  0
    4.5098    5.8446    0.0000 H   0  0  0  0  0  0  0  0  0  0  0  0
    4.2829    4.6915    0.0000 H   0  0  0  0  0  0  0  0  0  0  0  0
    1.6891   -3.0147    0.0000 H   0  0  0  0  0  0  0  0  0  0  0  0
    3.4169    3.1915    0.0000 H   0  0  0  0  0  0  0  0  0  0  0  0
    6.2228    3.1915    0.0000 H   0  0  0  0  0  0  0  0  0  0  0  0
    3.4169    1.5715    0.0000 H   0  0  0  0  0  0  0  0  0  0  0  0
    6.2228    1.5715    0.0000 H   0  0  0  0  0  0  0  0  0  0  0  0
    3.7418    0.4641    0.0000 H   0  0  0  0  0  0  0  0  0  0  0  0
    3.3432   -0.2262    0.0000 H   0  0  0  0  0  0  0  0  0  0  0  0
    1.5693   -4.5204    0.0000 H   0  0  0  0  0  0  0  0  0  0  0  0
    1.4860   -5.3131    0.0000 H   0  0  0  0  0  0  0  0  0  0  0  0
    5.0395   -3.4869    0.0000 H   0  0  0  0  0  0  0  0  0  0  0  0
    5.4375   -2.7057    0.0000 H   0  0  0  0  0  0  0  0  0  0  0  0
    4.6563   -2.3076    0.0000 H   0  0  0  0  0  0  0  0  0  0  0  0
    2.0423   -6.3815    0.0000 H   0  0  0  0  0  0  0  0  0  0  0  0
  1 15  1  0  0  0  0
  1 16  1  0  0  0  0
  2 23  1  0  0  0  0
  2 24  1  0  0  0  0
  3  9  2  0  0  0  0
  4 25  1  0  0  0  0
  4 47  1  0  0  0  0
  5 22  2  0  0  0  0
  6 24  2  0  0  0  0
  7  9  1  0  0  0  0
  7 10  1  0  0  0  0
  7 34  1  0  0  0  0
  8  9  1  0  0  0  0
  8 11  1  0  0  0  0
  8 12  1  0  0  0  0
  8 27  1  0  0  0  0
 10 17  2  0  0  0  0
 10 18  1  0  0  0  0
 11 28  1  0  0  0  0
 11 29  1  0  0  0  0
 11 30  1  0  0  0  0
 12 31  1  0  0  0  0
 12 32  1  0  0  0  0
 12 33  1  0  0  0  0
 13 15  2  0  0  0  0
 13 19  1  0  0  0  0
 13 24  1  0  0  0  0
 14 20  2  0  0  0  0
 14 21  1  0  0  0  0
 14 22  1  0  0  0  0
 15 26  1  0  0  0  0
 16 19  2  0  0  0  0
 16 25  1  0  0  0  0
 17 20  1  0  0  0  0
 17 36  1  0  0  0  0
 18 21  2  0  0  0  0
 18 37  1  0  0  0  0
 19 35  1  0  0  0  0
 20 38  1  0  0  0  0
 21 39  1  0  0  0  0
 22 23  1  0  0  0  0
 23 40  1  0  0  0  0
 23 41  1  0  0  0  0
 25 42  1  0  0  0  0
 25 43  1  0  0  0  0
 26 44  1  0  0  0  0
 26 45  1  0  0  0  0
 26 46  1  0  0  0  0
M  END
> <PUBCHEM_COMPOUND_CID>
17395292

> <PUBCHEM_COMPOUND_CANONICALIZED>
1

> <PUBCHEM_CACTVS_COMPLEXITY>
512

> <PUBCHEM_CACTVS_HBOND_ACCEPTOR>
6

> <PUBCHEM_CACTVS_HBOND_DONOR>
2

> <PUBCHEM_CACTVS_ROTATABLE_BOND>
8

> <PUBCHEM_CACTVS_SUBSKEYS>
AAADceB6OAAAAAAAAAAAAAAAAAAAASAAAAAwAAAAAAAAAAABwAAAHgAQCAAADQyhmAIyzILABkCIAqXSWAKCCAAlIgAIiAFGbMgNNzbMtZ+GeWjl9BHL+Yfb7ayeCAAAAAAAAAAQAAAAAAAAAAAAAAAAAA==

> <PUBCHEM_IUPAC_OPENEYE_NAME>
[2-[4-(2-methylpropanoylamino)phenyl]-2-oxo-ethyl] 5-(hydroxymethyl)-2-methyl-furan-3-carboxylate

> <PUBCHEM_IUPAC_CAS_NAME>
5-(hydroxymethyl)-2-methyl-3-furancarboxylic acid [2-[4-[(2-methyl-1-oxopropyl)amino]phenyl]-2-oxoethyl] ester

> <PUBCHEM_IUPAC_NAME>
[2-[4-(2-methylpropanoylamino)phenyl]-2-oxoethyl] 5-(hydroxymethyl)-2-methylfuran-3-carboxylate

> <PUBCHEM_IUPAC_SYSTEMATIC_NAME>
[2-[4-(2-methylpropanoylamino)phenyl]-2-oxidanylidene-ethyl] 5-(hydroxymethyl)-2-methyl-furan-3-carboxylate

> <PUBCHEM_IUPAC_TRADITIONAL_NAME>
2-methyl-5-methylol-furan-3-carboxylic acid [2-[4-(isobutyrylamino)phenyl]-2-keto-ethyl] ester

> <PUBCHEM_IUPAC_INCHI>
InChI=1S/C19H21NO6/c1-11(2)18(23)20-14-6-4-13(5-7-14)17(22)10-25-19(24)16-8-15(9-21)26-12(16)3/h4-8,11,21H,9-10H2,1-3H3,(H,20,23)

> <PUBCHEM_IUPAC_INCHIKEY>
CDKNLEAHSWDNOJ-UHFFFAOYSA-N

> <PUBCHEM_XLOGP3_AA>
2

> <PUBCHEM_EXACT_MASS>
359.136887

> <PUBCHEM_MOLECULAR_FORMULA>
C19H21NO6

> <PUBCHEM_MOLECULAR_WEIGHT>
359.37314

> <PUBCHEM_OPENEYE_CAN_SMILES>
CC1=C(C=C(O1)CO)C(=O)OCC(=O)C2=CC=C(C=C2)NC(=O)C(C)C

> <PUBCHEM_OPENEYE_ISO_SMILES>
CC1=C(C=C(O1)CO)C(=O)OCC(=O)C2=CC=C(C=C2)NC(=O)C(C)C

> <PUBCHEM_CACTVS_TPSA>
106

> <PUBCHEM_MONOISOTOPIC_WEIGHT>
359.136887

> <PUBCHEM_TOTAL_CHARGE>
0

> <PUBCHEM_HEAVY_ATOM_COUNT>
26

> <PUBCHEM_ATOM_DEF_STEREO_COUNT>
0

> <PUBCHEM_ATOM_UDEF_STEREO_COUNT>
0

> <PUBCHEM_BOND_DEF_STEREO_COUNT>
0

> <PUBCHEM_BOND_UDEF_STEREO_COUNT>
0

> <PUBCHEM_ISOTOPIC_ATOM_COUNT>
0

> <PUBCHEM_COMPONENT_COUNT>
1

> <PUBCHEM_CACTVS_TAUTO_COUNT>
16

> <PUBCHEM_COORDINATE_TYPE>
1
5
255

> <PUBCHEM_BONDANNOTATIONS>
1  15  8
1  16  8
10  17  8
10  18  8
13  15  8
13  19  8
14  20  8
14  21  8
16  19  8
17  20  8
18  21  8

$$$$

