12846
  -OEChem-06261207273D

 24 24  0     0  0  0  0  0  0999 V2000
   -5.3440    0.5227   -0.0443 Cl  0  0  0  0  0  0  0  0  0  0  0  0
    2.8921   -1.1940   -0.0429 S   0  0  0  0  0  0  0  0  0  0  0  0
    0.3405   -2.5990   -0.4135 S   0  0  0  0  0  0  0  0  0  0  0  0
    0.5467    0.0773    0.1053 N   0  0  0  0  0  0  0  0  0  0  0  0
   -0.8473    0.1837    0.0697 C   0  0  0  0  0  0  0  0  0  0  0  0
   -1.5896    0.0101    1.2376 C   0  0  0  0  0  0  0  0  0  0  0  0
   -1.4952    0.4624   -1.1337 C   0  0  0  0  0  0  0  0  0  0  0  0
   -2.9801    0.1149    1.2022 C   0  0  0  0  0  0  0  0  0  0  0  0
   -2.8857    0.5674   -1.1692 C   0  0  0  0  0  0  0  0  0  0  0  0
   -3.6282    0.3938   -0.0011 C   0  0  0  0  0  0  0  0  0  0  0  0
    3.3800    0.5097    0.3031 C   0  0  0  0  0  0  0  0  0  0  0  0
    1.1361   -1.0645   -0.0894 C   0  0  0  0  0  0  0  0  0  0  0  0
    4.8692    0.6132    0.3834 C   0  0  0  0  0  0  0  0  0  0  0  0
    5.6056    1.4024   -0.4072 C   0  0  0  0  0  0  0  0  0  0  0  0
   -1.0938   -0.2066    2.1803 H   0  0  0  0  0  0  0  0  0  0  0  0
   -0.9253    0.6002   -2.0489 H   0  0  0  0  0  0  0  0  0  0  0  0
   -3.5457   -0.0229    2.1202 H   0  0  0  0  0  0  0  0  0  0  0  0
   -3.3771    0.7850   -2.1140 H   0  0  0  0  0  0  0  0  0  0  0  0
    2.9823    1.1669   -0.4778 H   0  0  0  0  0  0  0  0  0  0  0  0
    2.9531    0.8232    1.2616 H   0  0  0  0  0  0  0  0  0  0  0  0
    5.3781    0.0329    1.1497 H   0  0  0  0  0  0  0  0  0  0  0  0
    6.6830    1.4448   -0.2905 H   0  0  0  0  0  0  0  0  0  0  0  0
    5.1526    2.0147   -1.1791 H   0  0  0  0  0  0  0  0  0  0  0  0
    1.4534   -3.3408   -0.5104 H   0  0  0  0  0  0  0  0  0  0  0  0
  1 10  1  0  0  0  0
  2 11  1  0  0  0  0
  2 12  1  0  0  0  0
  3 12  1  0  0  0  0
  3 24  1  0  0  0  0
  4  5  1  0  0  0  0
  4 12  2  0  0  0  0
  5  6  2  0  0  0  0
  5  7  1  0  0  0  0
  6  8  1  0  0  0  0
  6 15  1  0  0  0  0
  7  9  2  0  0  0  0
  7 16  1  0  0  0  0
  8 10  2  0  0  0  0
  8 17  1  0  0  0  0
  9 10  1  0  0  0  0
  9 18  1  0  0  0  0
 11 13  1  0  0  0  0
 11 19  1  0  0  0  0
 11 20  1  0  0  0  0
 13 14  2  0  0  0  0
 13 21  1  0  0  0  0
 14 22  1  0  0  0  0
 14 23  1  0  0  0  0
M  END
> <PUBCHEM_COMPOUND_CID>
12846

> <PUBCHEM_CONFORMER_RMSD>
0.6

> <PUBCHEM_CONFORMER_DIVERSEORDER>
1
7
2
12
8
5
10
11
9
3
6
4

> <PUBCHEM_MMFF94_PARTIAL_CHARGES>
22
1 -0.18
10 0.18
11 0.37
12 0.73
13 -0.29
14 -0.3
15 0.15
16 0.15
17 0.15
18 0.15
2 -0.37
21 0.15
22 0.15
23 0.15
24 0.18
3 -0.32
4 -0.63
5 0.18
6 -0.15
7 -0.15
8 -0.15
9 -0.15

> <PUBCHEM_EFFECTIVE_ROTOR_COUNT>
4

> <PUBCHEM_PHARMACOPHORE_FEATURES>
3
1 14 hydrophobe
1 4 acceptor
6 5 6 7 8 9 10 rings

> <PUBCHEM_HEAVY_ATOM_COUNT>
14

> <PUBCHEM_ATOM_DEF_STEREO_COUNT>
0

> <PUBCHEM_ATOM_UDEF_STEREO_COUNT>
0

> <PUBCHEM_BOND_DEF_STEREO_COUNT>
0

> <PUBCHEM_BOND_UDEF_STEREO_COUNT>
0

> <PUBCHEM_ISOTOPIC_ATOM_COUNT>
0

> <PUBCHEM_COMPONENT_COUNT>
1

> <PUBCHEM_CACTVS_TAUTO_COUNT>
2

> <PUBCHEM_CONFORMER_ID>
0000322E00000001

> <PUBCHEM_MMFF94_ENERGY>
27.9251

> <PUBCHEM_FEATURE_SELFOVERLAP>
15.223

> <PUBCHEM_SHAPE_FINGERPRINT>
11128504 68 16877665634773914840
11401426 45 16845574223422215691
12119455 92 18343306967903195402
12236239 1 17458345255768124337
12251169 10 15123790678328412682
12507560 40 17417819486725787010
13214271 11 18060700567767791583
13296909 8 14907911491241136550
13760787 19 17749116608193145007
14993402 34 16515689952679179161
15048467 5 18335139826040230849
15342168 16 18410570656974063060
15375358 24 17988360464014207187
17834072 32 18268427937361855140
17834072 33 17676776417822718479
18186145 218 18260264183483814470
19422 9 17023463182592528623
19784866 140 7420956352420840476
20279233 1 17846492660093133355
20325693 3 15140676977596767989
204376 136 18410573976978624734
20645477 70 18338519767443679774
21119208 17 15719111349240826240
21499 59 18334297573973108614
22079108 93 18114748144094392331
22926399 37 18260267455768898080
23402539 116 16917073239704529303
23557571 272 17130699668483333823
23559900 14 16916214628355507178
351380 180 17489590051972342940
42 15 13398628359519082696
474 4 18187081737368600272
633830 44 17969210295604904470
81539 233 18343302595938023234

> <PUBCHEM_SHAPE_MULTIPOLES>
292.7
10.83
1.64
1.07
6.06
1.35
-0.03
-6.07
0.11
1.46
0.28
-0.75
-0.11
0.06

> <PUBCHEM_SHAPE_SELFOVERLAP>
561.429

> <PUBCHEM_SHAPE_VOLUME>
181.3

> <PUBCHEM_COORDINATE_TYPE>
2
5
10

$$$$

