10018
  -OEChem-06261204153D

 14 13  0     0  0  0  0  0  0999 V2000
    0.0858   -0.7233   -0.2980 S   0  0  0  0  0  0  0  0  0  0  0  0
   -2.8203   -0.6316    0.5512 F   0  0  0  0  0  0  0  0  0  0  0  0
    1.7640    1.2359    0.2711 O   0  0  0  0  0  0  0  0  0  0  0  0
   -1.0165    0.7001   -0.1549 C   0  0  0  0  0  0  0  0  0  0  0  0
   -2.4570    0.2872   -0.3829 C   0  0  0  0  0  0  0  0  0  0  0  0
    1.6408    0.0412    0.0297 C   0  0  0  0  0  0  0  0  0  0  0  0
    2.8032   -0.9095   -0.0162 C   0  0  0  0  0  0  0  0  0  0  0  0
   -0.7291    1.4646   -0.8833 H   0  0  0  0  0  0  0  0  0  0  0  0
   -0.9152    1.1174    0.8520 H   0  0  0  0  0  0  0  0  0  0  0  0
   -3.1246    1.1478   -0.2794 H   0  0  0  0  0  0  0  0  0  0  0  0
   -2.6108   -0.1512   -1.3741 H   0  0  0  0  0  0  0  0  0  0  0  0
    2.8899   -1.3542   -1.0114 H   0  0  0  0  0  0  0  0  0  0  0  0
    2.6835   -1.6911    0.7391 H   0  0  0  0  0  0  0  0  0  0  0  0
    3.7261   -0.3620    0.1982 H   0  0  0  0  0  0  0  0  0  0  0  0
  1  4  1  0  0  0  0
  1  6  1  0  0  0  0
  2  5  1  0  0  0  0
  3  6  2  0  0  0  0
  4  5  1  0  0  0  0
  4  8  1  0  0  0  0
  4  9  1  0  0  0  0
  5 10  1  0  0  0  0
  5 11  1  0  0  0  0
  6  7  1  0  0  0  0
  7 12  1  0  0  0  0
  7 13  1  0  0  0  0
  7 14  1  0  0  0  0
M  END
> <PUBCHEM_COMPOUND_CID>
10018

> <PUBCHEM_CONFORMER_RMSD>
0.4

> <PUBCHEM_CONFORMER_DIVERSEORDER>
2
27
40
7
26
11
43
36
6
37
10
20
1
39
8
12
3
15
33
32
24
44
9
25
17
4
41
21
14
13
16
34
42
5
45
28
38
29
35
18
22
23
19
30
31

> <PUBCHEM_MMFF94_PARTIAL_CHARGES>
7
1 -0.37
2 -0.34
3 -0.57
4 0.23
5 0.34
6 0.65
7 0.06

> <PUBCHEM_EFFECTIVE_ROTOR_COUNT>
3

> <PUBCHEM_PHARMACOPHORE_FEATURES>
0

> <PUBCHEM_HEAVY_ATOM_COUNT>
7

> <PUBCHEM_ATOM_DEF_STEREO_COUNT>
0

> <PUBCHEM_ATOM_UDEF_STEREO_COUNT>
0

> <PUBCHEM_BOND_DEF_STEREO_COUNT>
0

> <PUBCHEM_BOND_UDEF_STEREO_COUNT>
0

> <PUBCHEM_ISOTOPIC_ATOM_COUNT>
0

> <PUBCHEM_COMPONENT_COUNT>
1

> <PUBCHEM_CACTVS_TAUTO_COUNT>
1

> <PUBCHEM_CONFORMER_ID>
0000272200000002

> <PUBCHEM_MMFF94_ENERGY>
3.7345

> <PUBCHEM_FEATURE_SELFOVERLAP>
0

> <PUBCHEM_SHAPE_FINGERPRINT>
10857977 72 18130511829670018425
12932741 1 18131079237635917365
12932764 1 15052017857564695621
14325111 11 18410576184190563517
14390081 3 18410581699245303525
20096714 4 18334583416804685868
29004967 10 18260548978201115402
5084963 1 18059853986679642068
5460574 1 9007053573877199846

> <PUBCHEM_SHAPE_MULTIPOLES>
134.76
4.42
1.1
0.68
0.7
0.13
0.02
-0.68
-0.31
-0.34
-0.04
0.13
-0.04
0.23

> <PUBCHEM_SHAPE_SELFOVERLAP>
229.944

> <PUBCHEM_SHAPE_VOLUME>
90.4

> <PUBCHEM_COORDINATE_TYPE>
2
5
10

$$$$

