17396329
  -OEChem-06241222563D

 44 45  0     1  0  0  0  0  0999 V2000
   -2.7332    0.4902   -0.5955 S   0  0  0  0  0  0  0  0  0  0  0  0
   -0.0240   -0.9984   -1.9445 O   0  0  0  0  0  0  0  0  0  0  0  0
    0.4230   -0.4256    0.2945 N   0  0  0  0  0  0  0  0  0  0  0  0
   -5.4244    0.8027   -0.0497 N   0  0  0  0  0  0  0  0  0  0  0  0
   -4.6893   -1.2210    0.3403 N   0  0  0  0  0  0  0  0  0  0  0  0
   -6.0351   -1.1801    0.6454 N   0  0  0  0  0  0  0  0  0  0  0  0
    6.0000    0.7714    0.2749 C   0  0  2  0  0  0  0  0  0  0  0  0
    6.8787   -0.4241   -0.1463 C   0  0  0  0  0  0  0  0  0  0  0  0
    4.5147    0.4530    0.2792 C   0  0  0  0  0  0  0  0  0  0  0  0
    6.2899    1.9765   -0.6282 C   0  0  0  0  0  0  0  0  0  0  0  0
    3.8820    0.0572   -0.8993 C   0  0  0  0  0  0  0  0  0  0  0  0
    3.7835    0.5560    1.4627 C   0  0  0  0  0  0  0  0  0  0  0  0
    6.7239   -1.6322    0.7697 C   0  0  0  0  0  0  0  0  0  0  0  0
    1.7872   -0.1328    0.2892 C   0  0  0  0  0  0  0  0  0  0  0  0
    2.5183   -0.2357   -0.8943 C   0  0  0  0  0  0  0  0  0  0  0  0
    2.4198    0.2631    1.4677 C   0  0  0  0  0  0  0  0  0  0  0  0
   -0.3794   -0.8352   -0.7800 C   0  0  0  0  0  0  0  0  0  0  0  0
   -1.8219   -1.0578   -0.3790 C   0  0  0  0  0  0  0  0  0  0  0  0
   -4.3420   -0.0236   -0.0744 C   0  0  0  0  0  0  0  0  0  0  0  0
   -6.4574    0.0408    0.4053 C   0  0  0  0  0  0  0  0  0  0  0  0
   -5.4884    2.1971   -0.4219 C   0  0  0  0  0  0  0  0  0  0  0  0
   -7.8259    0.5581    0.5843 C   0  0  0  0  0  0  0  0  0  0  0  0
    6.2993    1.0572    1.2927 H   0  0  0  0  0  0  0  0  0  0  0  0
    7.9316   -0.1154   -0.1317 H   0  0  0  0  0  0  0  0  0  0  0  0
    6.6591   -0.7292   -1.1766 H   0  0  0  0  0  0  0  0  0  0  0  0
    6.0843    1.7612   -1.6825 H   0  0  0  0  0  0  0  0  0  0  0  0
    5.6805    2.8398   -0.3381 H   0  0  0  0  0  0  0  0  0  0  0  0
    7.3423    2.2709   -0.5499 H   0  0  0  0  0  0  0  0  0  0  0  0
    4.4337   -0.0299   -1.8312 H   0  0  0  0  0  0  0  0  0  0  0  0
    4.2621    0.8625    2.3888 H   0  0  0  0  0  0  0  0  0  0  0  0
    7.4308   -2.4156    0.4779 H   0  0  0  0  0  0  0  0  0  0  0  0
    6.9288   -1.3636    1.8109 H   0  0  0  0  0  0  0  0  0  0  0  0
    5.7174   -2.0572    0.7127 H   0  0  0  0  0  0  0  0  0  0  0  0
    2.1008   -0.5363   -1.8447 H   0  0  0  0  0  0  0  0  0  0  0  0
    1.8624    0.3475    2.3972 H   0  0  0  0  0  0  0  0  0  0  0  0
   -0.0372   -0.3233    1.1966 H   0  0  0  0  0  0  0  0  0  0  0  0
   -1.8797   -1.3946    0.6612 H   0  0  0  0  0  0  0  0  0  0  0  0
   -2.2425   -1.8425   -1.0165 H   0  0  0  0  0  0  0  0  0  0  0  0
   -5.1947    2.2878   -1.4710 H   0  0  0  0  0  0  0  0  0  0  0  0
   -4.8025    2.7569    0.2194 H   0  0  0  0  0  0  0  0  0  0  0  0
   -6.4984    2.5902   -0.2969 H   0  0  0  0  0  0  0  0  0  0  0  0
   -7.8459    1.3780    1.3090 H   0  0  0  0  0  0  0  0  0  0  0  0
   -8.2411    0.9116   -0.3647 H   0  0  0  0  0  0  0  0  0  0  0  0
   -8.4852   -0.2312    0.9598 H   0  0  0  0  0  0  0  0  0  0  0  0
  1 18  1  0  0  0  0
  1 19  1  0  0  0  0
  2 17  2  0  0  0  0
  3 14  1  0  0  0  0
  3 17  1  0  0  0  0
  3 36  1  0  0  0  0
  4 19  1  0  0  0  0
  4 20  1  0  0  0  0
  4 21  1  0  0  0  0
  5  6  1  0  0  0  0
  5 19  2  0  0  0  0
  6 20  2  0  0  0  0
  7  8  1  0  0  0  0
  7  9  1  0  0  0  0
  7 10  1  0  0  0  0
  7 23  1  0  0  0  0
  8 13  1  0  0  0  0
  8 24  1  0  0  0  0
  8 25  1  0  0  0  0
  9 11  2  0  0  0  0
  9 12  1  0  0  0  0
 10 26  1  0  0  0  0
 10 27  1  0  0  0  0
 10 28  1  0  0  0  0
 11 15  1  0  0  0  0
 11 29  1  0  0  0  0
 12 16  2  0  0  0  0
 12 30  1  0  0  0  0
 13 31  1  0  0  0  0
 13 32  1  0  0  0  0
 13 33  1  0  0  0  0
 14 15  2  0  0  0  0
 14 16  1  0  0  0  0
 15 34  1  0  0  0  0
 16 35  1  0  0  0  0
 17 18  1  0  0  0  0
 18 37  1  0  0  0  0
 18 38  1  0  0  0  0
 20 22  1  0  0  0  0
 21 39  1  0  0  0  0
 21 40  1  0  0  0  0
 21 41  1  0  0  0  0
 22 42  1  0  0  0  0
 22 43  1  0  0  0  0
 22 44  1  0  0  0  0
M  END
> <PUBCHEM_COMPOUND_CID>
17396329

> <PUBCHEM_CONFORMER_RMSD>
1

> <PUBCHEM_CONFORMER_DIVERSEORDER>
1
63
46
58
31
48
75
60
59
14
102
76
77
65
26
40
22
93
91
52
21
16
39
64
13
57
89
74
95
80
19
29
100
49
101
18
97
72
88
62
82
50
20
108
55
87
56
27
53
9
38
92
36
17
54
43
104
3
73
68
70
5
105
4
84
11
28
42
107
24
8
2
25
23
79
67
106
69
94
86
41
83
45
66
12
96
33
61
15
47
34
6
109
32
78
7
90
85
71
37
44
99
30
10
51
81
98
103
35

> <PUBCHEM_MMFF94_PARTIAL_CHARGES>
24
1 -0.29
11 -0.15
12 -0.15
14 0.12
15 -0.15
16 -0.15
17 0.57
18 0.29
19 0.24
2 -0.57
20 0.01
21 0.26
22 0.18
29 0.15
3 -0.55
30 0.15
34 0.15
35 0.15
36 0.37
4 0.05
5 -0.34
6 -0.34
7 0.14
9 -0.14

> <PUBCHEM_EFFECTIVE_ROTOR_COUNT>
7

> <PUBCHEM_PHARMACOPHORE_FEATURES>
8
1 10 hydrophobe
1 13 hydrophobe
1 2 acceptor
1 3 donor
3 4 5 19 cation
3 4 6 20 cation
5 4 5 6 19 20 rings
6 9 11 12 14 15 16 rings

> <PUBCHEM_HEAVY_ATOM_COUNT>
22

> <PUBCHEM_ATOM_DEF_STEREO_COUNT>
0

> <PUBCHEM_ATOM_UDEF_STEREO_COUNT>
1

> <PUBCHEM_BOND_DEF_STEREO_COUNT>
0

> <PUBCHEM_BOND_UDEF_STEREO_COUNT>
0

> <PUBCHEM_ISOTOPIC_ATOM_COUNT>
0

> <PUBCHEM_COMPONENT_COUNT>
1

> <PUBCHEM_CACTVS_TAUTO_COUNT>
2

> <PUBCHEM_CONFORMER_ID>
0109726900000001

> <PUBCHEM_MMFF94_ENERGY>
44.8879

> <PUBCHEM_FEATURE_SELFOVERLAP>
43.097

> <PUBCHEM_SHAPE_FINGERPRINT>
10 15 18408602539491555735
10354089 29 16917352528600817548
106641 1 16917065525494911673
11089746 13 14345799331325706538
11315181 36 17775565322050578341
11719270 70 17603303782675388302
11796584 16 18259985943140223918
12166972 35 17989204846058528828
12236239 1 18131070433185159868
12516196 113 15051735283081625535
12596602 18 18059857259434562024
13167372 99 18412544331964863988
13177829 20 17704069565031569385
13533116 47 18337958986496339594
14170010 4 15864069875841465466
14251752 14 18260831518356030968
14251757 52 18337390440416815520
14251764 18 18186804660174786695
14251764 46 17749388170422201046
14849402 71 17488734559186439924
14933364 13 18342175561721717672
15142383 8 18261115184309394434
15183329 4 16008463231241764812
15301273 46 17346603010240173655
15461852 350 18411145715178757503
15716309 27 18201720648055103683
17834072 8 15791729693929189229
18006028 8 13110963123959971823
20281389 69 18334016081732113328
21095086 128 17489590077979692866
21150785 3 8286197249543292103
21267235 1 15123513627336997406
221357 26 15936404554898569520
22224240 67 16988846051271618507
23536379 177 18413952789227310834
23559900 14 8934704583942223703
2838139 119 17748838422634219437
3009799 131 5617534103540938746
335352 9 16660361459869769084
34797466 226 15697995246200387118
3545911 37 17676205758418922383
4072396 5 16805327708779726822
4073 2 18059851719206578762
4340502 62 18413951694032295022
465052 167 11815900059434567804
5104073 3 15122693413000700972
5758199 1 17060337409811684032

> <PUBCHEM_SHAPE_MULTIPOLES>
430.81
22.75
1.5
1.18
13.08
0.44
0.05
3.53
-4.05
-0.13
0.12
-0.75
-0.09
-0.13

> <PUBCHEM_SHAPE_SELFOVERLAP>
875.808

> <PUBCHEM_SHAPE_VOLUME>
253.7

> <PUBCHEM_COORDINATE_TYPE>
2
5
10

$$$$

