9929
  -OEChem-06261204123D

 43 45  0     0  0  0  0  0  0999 V2000
   -0.9601    0.7133    0.0180 O   0  0  0  0  0  0  0  0  0  0  0  0
    3.6168   -2.9506   -0.0360 N   0  0  0  0  0  0  0  0  0  0  0  0
    1.7452   -1.6252    0.8770 C   0  0  0  0  0  0  0  0  0  0  0  0
    0.4700   -0.9003    0.5614 C   0  0  0  0  0  0  0  0  0  0  0  0
    2.3892   -2.2307   -0.3728 C   0  0  0  0  0  0  0  0  0  0  0  0
    0.3476    0.4147    0.2351 C   0  0  0  0  0  0  0  0  0  0  0  0
   -0.8116   -1.4649    0.5525 C   0  0  0  0  0  0  0  0  0  0  0  0
   -1.6588   -0.4359    0.2130 C   0  0  0  0  0  0  0  0  0  0  0  0
    1.2591    1.5135    0.0760 C   0  0  0  0  0  0  0  0  0  0  0  0
   -3.0789   -0.3317    0.0296 C   0  0  0  0  0  0  0  0  0  0  0  0
    4.6026   -2.0377    0.5415 C   0  0  0  0  0  0  0  0  0  0  0  0
    4.1638   -3.6106   -1.2209 C   0  0  0  0  0  0  0  0  0  0  0  0
    1.8364    1.7741   -1.1703 C   0  0  0  0  0  0  0  0  0  0  0  0
    1.5745    2.3299    1.1663 C   0  0  0  0  0  0  0  0  0  0  0  0
   -3.8959   -1.4530    0.2051 C   0  0  0  0  0  0  0  0  0  0  0  0
   -3.6557    0.8916   -0.3255 C   0  0  0  0  0  0  0  0  0  0  0  0
    2.7210    2.8413   -1.3250 C   0  0  0  0  0  0  0  0  0  0  0  0
    2.4591    3.3971    1.0115 C   0  0  0  0  0  0  0  0  0  0  0  0
    3.0323    3.6529   -0.2341 C   0  0  0  0  0  0  0  0  0  0  0  0
   -5.2757   -1.3518    0.0274 C   0  0  0  0  0  0  0  0  0  0  0  0
   -5.0355    0.9928   -0.5032 C   0  0  0  0  0  0  0  0  0  0  0  0
   -5.8455   -0.1289   -0.3267 C   0  0  0  0  0  0  0  0  0  0  0  0
    2.4105   -0.9104    1.3734 H   0  0  0  0  0  0  0  0  0  0  0  0
    1.5359   -2.4164    1.6091 H   0  0  0  0  0  0  0  0  0  0  0  0
    2.5818   -1.4476   -1.1186 H   0  0  0  0  0  0  0  0  0  0  0  0
    1.6723   -2.9269   -0.8282 H   0  0  0  0  0  0  0  0  0  0  0  0
   -1.0834   -2.4892    0.7653 H   0  0  0  0  0  0  0  0  0  0  0  0
    4.3264   -1.7235    1.5524 H   0  0  0  0  0  0  0  0  0  0  0  0
    4.7672   -1.1497   -0.0800 H   0  0  0  0  0  0  0  0  0  0  0  0
    5.5686   -2.5443    0.6581 H   0  0  0  0  0  0  0  0  0  0  0  0
    5.0546   -4.1935   -0.9613 H   0  0  0  0  0  0  0  0  0  0  0  0
    4.4362   -2.8946   -2.0048 H   0  0  0  0  0  0  0  0  0  0  0  0
    3.4389   -4.3191   -1.6373 H   0  0  0  0  0  0  0  0  0  0  0  0
    1.6046    1.1509   -2.0311 H   0  0  0  0  0  0  0  0  0  0  0  0
    1.1364    2.1444    2.1444 H   0  0  0  0  0  0  0  0  0  0  0  0
   -3.4830   -2.4199    0.4810 H   0  0  0  0  0  0  0  0  0  0  0  0
   -3.0590    1.7886   -0.4723 H   0  0  0  0  0  0  0  0  0  0  0  0
    3.1677    3.0403   -2.2947 H   0  0  0  0  0  0  0  0  0  0  0  0
    2.7017    4.0290    1.8609 H   0  0  0  0  0  0  0  0  0  0  0  0
    3.7212    4.4839   -0.3546 H   0  0  0  0  0  0  0  0  0  0  0  0
   -5.9068   -2.2250    0.1648 H   0  0  0  0  0  0  0  0  0  0  0  0
   -5.4797    1.9448   -0.7790 H   0  0  0  0  0  0  0  0  0  0  0  0
   -6.9199   -0.0501   -0.4650 H   0  0  0  0  0  0  0  0  0  0  0  0
  1  6  1  0  0  0  0
  1  8  1  0  0  0  0
  2  5  1  0  0  0  0
  2 11  1  0  0  0  0
  2 12  1  0  0  0  0
  3  4  1  0  0  0  0
  3  5  1  0  0  0  0
  3 23  1  0  0  0  0
  3 24  1  0  0  0  0
  4  6  2  0  0  0  0
  4  7  1  0  0  0  0
  5 25  1  0  0  0  0
  5 26  1  0  0  0  0
  6  9  1  0  0  0  0
  7  8  2  0  0  0  0
  7 27  1  0  0  0  0
  8 10  1  0  0  0  0
  9 13  2  0  0  0  0
  9 14  1  0  0  0  0
 10 15  2  0  0  0  0
 10 16  1  0  0  0  0
 11 28  1  0  0  0  0
 11 29  1  0  0  0  0
 11 30  1  0  0  0  0
 12 31  1  0  0  0  0
 12 32  1  0  0  0  0
 12 33  1  0  0  0  0
 13 17  1  0  0  0  0
 13 34  1  0  0  0  0
 14 18  2  0  0  0  0
 14 35  1  0  0  0  0
 15 20  1  0  0  0  0
 15 36  1  0  0  0  0
 16 21  2  0  0  0  0
 16 37  1  0  0  0  0
 17 19  2  0  0  0  0
 17 38  1  0  0  0  0
 18 19  1  0  0  0  0
 18 39  1  0  0  0  0
 19 40  1  0  0  0  0
 20 22  2  0  0  0  0
 20 41  1  0  0  0  0
 21 22  1  0  0  0  0
 21 42  1  0  0  0  0
 22 43  1  0  0  0  0
M  END
> <PUBCHEM_COMPOUND_CID>
9929

> <PUBCHEM_CONFORMER_RMSD>
0.8

> <PUBCHEM_CONFORMER_DIVERSEORDER>
1
15
18
16
12
10
6
14
8
13
5
17
2
11
4
7
3
9

> <PUBCHEM_MMFF94_PARTIAL_CHARGES>
33
1 -0.28
10 0.05
11 0.27
12 0.27
13 -0.15
14 -0.15
15 -0.15
16 -0.15
17 -0.15
18 -0.15
19 -0.15
2 -0.81
20 -0.15
21 -0.15
22 -0.15
27 0.15
3 0.18
34 0.15
35 0.15
36 0.15
37 0.15
38 0.15
39 0.15
4 -0.18
40 0.15
41 0.15
42 0.15
43 0.15
5 0.27
6 0.09
7 -0.15
8 0.09
9 0.05

> <PUBCHEM_EFFECTIVE_ROTOR_COUNT>
5

> <PUBCHEM_PHARMACOPHORE_FEATURES>
5
1 1 acceptor
1 2 cation
5 1 4 6 7 8 rings
6 10 15 16 20 21 22 rings
6 9 13 14 17 18 19 rings

> <PUBCHEM_HEAVY_ATOM_COUNT>
22

> <PUBCHEM_ATOM_DEF_STEREO_COUNT>
0

> <PUBCHEM_ATOM_UDEF_STEREO_COUNT>
0

> <PUBCHEM_BOND_DEF_STEREO_COUNT>
0

> <PUBCHEM_BOND_UDEF_STEREO_COUNT>
0

> <PUBCHEM_ISOTOPIC_ATOM_COUNT>
0

> <PUBCHEM_COMPONENT_COUNT>
1

> <PUBCHEM_CACTVS_TAUTO_COUNT>
1

> <PUBCHEM_CONFORMER_ID>
000026C900000001

> <PUBCHEM_MMFF94_ENERGY>
51.0732

> <PUBCHEM_FEATURE_SELFOVERLAP>
25.371

> <PUBCHEM_SHAPE_FINGERPRINT>
10190108 129 17544744635151917243
1100329 8 18048592917822841841
11045515 52 18054784250591767310
11582403 64 16229730991752634960
11963148 33 17766564547472028587
12730499 353 18194108630371937691
12788726 201 17623849428402568834
13004483 165 18050015681626872870
13009979 54 17823406270511281217
13533116 47 18408885106091689931
13540713 4 18059003987584015531
13590594 115 18195799902383416377
13757389 114 17251716445480354740
13955234 65 18337107869589922411
14170010 4 18410299115876730969
14178000 29 18262518220527431726
14508225 48 18121214548598646246
14931854 50 18124564606500248420
14955137 171 18261675981735556046
15238133 3 17168413978958651217
15475509 8 17901938970229916623
15502722 9 18340204090086121123
15664445 248 18339359794448847370
15775530 1 17843098351808399674
15927050 60 17975415716532063294
167882 2 18341608162540763452
17980427 23 17677049186763830153
1813 80 18042678584404477198
18222031 100 18263362654242819938
18785283 64 18271249318099316272
20028762 73 17183612201161090515
20238998 120 18264213689533451784
20388580 30 18336823190726019966
20554085 129 17898582981675144064
20612939 158 18413951689815779853
20771845 65 18040998504856681106
21120745 212 17828747771562106116
21304303 172 17826511364099151416
21304303 282 17104560669624374924
221490 88 18341889667545783371
22182313 1 17702686422305969525
23366157 5 18130793325894835810
23557571 272 17975412739771898974
23559900 14 18337402620880334915
23566358 27 18337397041396233031
283562 15 17909262834679478330
312423 11 18334849533479441233
3298306 158 18193547879541940292
3411729 13 18271817761505969752
350125 39 18342459270303338669
495365 180 18190182282833913968
5081480 168 18272660085785300007
5104073 3 18343582924611595195
5265222 85 17693363457615549172
532947 4 18337664223211911974
5385378 56 18337102354815276889
6443956 14 18410014368667755608
7364860 26 18409451358225979088
7471813 234 18114470053694471977
77188 2 18264208187643214200
7808743 9 17550669911334198397
81228 2 17762883760651297698
9709674 26 18270963445403499763
9841814 1 18129955566743515210
9971528 1 18261683673921594107
9981440 41 17906178356053595928

> <PUBCHEM_SHAPE_MULTIPOLES>
441.9
10.72
4.55
1.05
14.24
0.77
0.1
-3.98
1.8
-9.32
0.56
-0.88
0.27
0.71

> <PUBCHEM_SHAPE_SELFOVERLAP>
954.972

> <PUBCHEM_SHAPE_VOLUME>
246.1

> <PUBCHEM_COORDINATE_TYPE>
2
5
10

$$$$

