17395762
  -OEChem-06241222523D

 39 40  0     1  0  0  0  0  0999 V2000
    0.3430   -2.7694   -0.6690 Br  0  0  0  0  0  0  0  0  0  0  0  0
   -2.8615   -1.3167    0.7239 O   0  0  0  0  0  0  0  0  0  0  0  0
   -0.1580    0.0835   -2.0675 O   0  0  0  0  0  0  0  0  0  0  0  0
    4.8516    1.0861    0.5067 O   0  0  0  0  0  0  0  0  0  0  0  0
   -0.3555    1.2969   -0.1013 N   0  0  0  0  0  0  0  0  0  0  0  0
   -1.6201    1.9201   -0.4146 C   0  0  1  0  0  0  0  0  0  0  0  0
   -2.4405    2.1898    0.8550 C   0  0  0  0  0  0  0  0  0  0  0  0
   -2.6814    0.9180    1.6794 C   0  0  0  0  0  0  0  0  0  0  0  0
   -1.3782    3.2120   -1.1884 C   0  0  0  0  0  0  0  0  0  0  0  0
   -3.4597   -0.1086    0.8943 C   0  0  0  0  0  0  0  0  0  0  0  0
    0.2759    0.4186   -0.9685 C   0  0  0  0  0  0  0  0  0  0  0  0
    1.5579   -0.1581   -0.4877 C   0  0  0  0  0  0  0  0  0  0  0  0
   -4.6936   -0.0907    0.2867 C   0  0  0  0  0  0  0  0  0  0  0  0
   -4.8645   -1.3698   -0.2943 C   0  0  0  0  0  0  0  0  0  0  0  0
    2.6053    0.7212   -0.2132 C   0  0  0  0  0  0  0  0  0  0  0  0
    1.7343   -1.5302   -0.3091 C   0  0  0  0  0  0  0  0  0  0  0  0
   -3.7229   -2.0784   -0.0002 C   0  0  0  0  0  0  0  0  0  0  0  0
    3.8291    0.2284    0.2397 C   0  0  0  0  0  0  0  0  0  0  0  0
    2.9580   -2.0230    0.1439 C   0  0  0  0  0  0  0  0  0  0  0  0
    4.0053   -1.1438    0.4183 C   0  0  0  0  0  0  0  0  0  0  0  0
    6.0756    0.5143    0.9657 C   0  0  0  0  0  0  0  0  0  0  0  0
   -2.1784    1.2473   -1.0762 H   0  0  0  0  0  0  0  0  0  0  0  0
   -3.3997    2.6480    0.5822 H   0  0  0  0  0  0  0  0  0  0  0  0
   -1.9132    2.9132    1.4904 H   0  0  0  0  0  0  0  0  0  0  0  0
   -1.7349    0.4898    2.0282 H   0  0  0  0  0  0  0  0  0  0  0  0
   -3.2585    1.1764    2.5753 H   0  0  0  0  0  0  0  0  0  0  0  0
   -2.3258    3.6897   -1.4579 H   0  0  0  0  0  0  0  0  0  0  0  0
   -0.8240    3.0188   -2.1135 H   0  0  0  0  0  0  0  0  0  0  0  0
   -0.7919    3.9247   -0.5975 H   0  0  0  0  0  0  0  0  0  0  0  0
    0.0997    1.5453    0.7727 H   0  0  0  0  0  0  0  0  0  0  0  0
   -5.3856    0.7390    0.2639 H   0  0  0  0  0  0  0  0  0  0  0  0
    2.4807    1.7924   -0.3541 H   0  0  0  0  0  0  0  0  0  0  0  0
   -5.7135   -1.7302   -0.8569 H   0  0  0  0  0  0  0  0  0  0  0  0
   -3.3874   -3.0809   -0.2218 H   0  0  0  0  0  0  0  0  0  0  0  0
    3.1134   -3.0892    0.2887 H   0  0  0  0  0  0  0  0  0  0  0  0
    4.9287   -1.5937    0.7668 H   0  0  0  0  0  0  0  0  0  0  0  0
    6.7768    1.3394    1.1280 H   0  0  0  0  0  0  0  0  0  0  0  0
    6.5221   -0.1406    0.2099 H   0  0  0  0  0  0  0  0  0  0  0  0
    5.9476    0.0095    1.9293 H   0  0  0  0  0  0  0  0  0  0  0  0
  1 16  1  0  0  0  0
  2 10  1  0  0  0  0
  2 17  1  0  0  0  0
  3 11  2  0  0  0  0
  4 18  1  0  0  0  0
  4 21  1  0  0  0  0
  5  6  1  0  0  0  0
  5 11  1  0  0  0  0
  5 30  1  0  0  0  0
  6  7  1  0  0  0  0
  6  9  1  0  0  0  0
  6 22  1  0  0  0  0
  7  8  1  0  0  0  0
  7 23  1  0  0  0  0
  7 24  1  0  0  0  0
  8 10  1  0  0  0  0
  8 25  1  0  0  0  0
  8 26  1  0  0  0  0
  9 27  1  0  0  0  0
  9 28  1  0  0  0  0
  9 29  1  0  0  0  0
 10 13  2  0  0  0  0
 11 12  1  0  0  0  0
 12 15  1  0  0  0  0
 12 16  2  0  0  0  0
 13 14  1  0  0  0  0
 13 31  1  0  0  0  0
 14 17  2  0  0  0  0
 14 33  1  0  0  0  0
 15 18  2  0  0  0  0
 15 32  1  0  0  0  0
 16 19  1  0  0  0  0
 17 34  1  0  0  0  0
 18 20  1  0  0  0  0
 19 20  2  0  0  0  0
 19 35  1  0  0  0  0
 20 36  1  0  0  0  0
 21 37  1  0  0  0  0
 21 38  1  0  0  0  0
 21 39  1  0  0  0  0
M  END
> <PUBCHEM_COMPOUND_CID>
17395762

> <PUBCHEM_CONFORMER_RMSD>
0.8

> <PUBCHEM_CONFORMER_DIVERSEORDER>
1
110
137
136
51
96
174
91
175
73
236
84
111
83
129
12
15
50
241
209
169
53
254
119
58
238
184
180
201
60
244
182
173
118
215
79
207
113
77
218
203
170
212
227
239
131
72
246
41
17
186
89
49
149
245
198
196
217
82
87
80
114
247
172
146
14
248
158
199
128
107
46
255
126
23
105
75
81
200
141
63
242
39
27
240
168
142
8
204
251
122
139
130
155
161
74
191
35
213
228
230
85
11
185
125
249
42
22
37
156
220
178
40
104
124
206
62
56
165
32
250
138
44
163
20
202
25
157
176
237
98
140
5
224
45
57
253
115
252
171
132
108
2
187
24
93
7
109
154
117
6
145
36
28
216
47
229
234
195
13
205
148
69
9
243
19
226
71
100
101
219
43
3
31
150
38
177
127
65
208
26
152
166
30
52
76
61
189
95
48
59
78
66
97
256
183
197
68
164
151
99
34
4
102
211
188
153
18
159
10
167
233
135
144
214
162
94
134
120
133
116
194
70
106
147
21
33
160
210
192
225
112
193
55
54
29
223
231
90
67
123
16
64
103
143
235
222
181
92
221
121
88
232
86
179
190

> <PUBCHEM_MMFF94_PARTIAL_CHARGES>
26
1 -0.11
10 -0.04
11 0.54
12 0.09
13 -0.15
14 -0.15
15 -0.15
16 0.11
17 -0.01
18 0.08
19 -0.15
2 -0.28
20 -0.15
21 0.28
3 -0.57
30 0.37
31 0.15
32 0.15
33 0.15
34 0.15
35 0.15
36 0.15
4 -0.36
5 -0.73
6 0.3
8 0.18

> <PUBCHEM_EFFECTIVE_ROTOR_COUNT>
7

> <PUBCHEM_PHARMACOPHORE_FEATURES>
7
1 1 hydrophobe
1 2 acceptor
1 3 acceptor
1 4 acceptor
1 5 donor
5 2 10 13 14 17 rings
6 12 15 16 18 19 20 rings

> <PUBCHEM_HEAVY_ATOM_COUNT>
21

> <PUBCHEM_ATOM_DEF_STEREO_COUNT>
0

> <PUBCHEM_ATOM_UDEF_STEREO_COUNT>
1

> <PUBCHEM_BOND_DEF_STEREO_COUNT>
0

> <PUBCHEM_BOND_UDEF_STEREO_COUNT>
0

> <PUBCHEM_ISOTOPIC_ATOM_COUNT>
0

> <PUBCHEM_COMPONENT_COUNT>
1

> <PUBCHEM_CACTVS_TAUTO_COUNT>
2

> <PUBCHEM_CONFORMER_ID>
0109703200000001

> <PUBCHEM_MMFF94_ENERGY>
46.2855

> <PUBCHEM_FEATURE_SELFOVERLAP>
35.52

> <PUBCHEM_SHAPE_FINGERPRINT>
10366900 7 18272641330048479904
11370993 70 18336826515141528939
11552529 35 18114181981732195899
12403259 118 18202571704853201372
12553582 1 18127101196340705429
12633257 1 17973716167090535891
12839892 36 18410018762208595218
12930653 34 18337956817173377268
13004483 165 18340777013438958883
13083527 12 18271522005309565997
13140716 1 17977953388962729718
13544653 18 18131627881111310789
13583140 156 18262813963607013244
14081887 123 18336261361695707449
14223421 5 18264766738880224663
14289901 80 18129654322401715848
14341114 328 17603576452546661803
14787075 74 18041280963454560352
15183329 4 8862950468014073576
17349148 13 17489580160746854878
17834072 14 18343584062239942127
17980427 23 17632284683894534900
20511986 3 18338248136689929363
21202864 24 16878228549992902511
21304303 282 15408959004712208085
21673915 165 18409446994418224778
21756936 100 17603312548845511616
21864079 5 15936703660916568464
22079108 93 17968102980406452800
22113638 7 18265894653670489831
23402539 116 18411986823507951915
23559900 14 18266742565744320036
24859131 72 18409164441663055767
2637199 183 8142093043835910429
3380486 145 18341320185116221641
339767 52 18342181033726395747
347723 3 16056885736768017497
350125 39 18339082580358905292
3797600 57 17531243967632420242
392239 28 18040712524369521864
474229 33 18335703819259059990
5104073 3 18264784314777768538
5283173 99 17916881230383700829
5312544 6 18054502509375304372
5924683 9 18340771532702253145
6442390 28 18259982661389401902
7471813 234 17103701937884660063
9709674 26 17977105978687384175
9882013 296 18259700107694865642
9996256 80 18407759249250740150

> <PUBCHEM_SHAPE_MULTIPOLES>
415.52
10.55
2.97
1.24
5.98
0.21
-0.14
-1.1
3.96
-1.57
-0.68
-0.4
0.41
0.2

> <PUBCHEM_SHAPE_SELFOVERLAP>
856.269

> <PUBCHEM_SHAPE_VOLUME>
243.9

> <PUBCHEM_COORDINATE_TYPE>
2
5
10

$$$$

