17395303
  -OEChem-06241222493D

 36 38  0     0  0  0  0  0  0999 V2000
   -5.8506    2.2542    0.0609 F   0  0  0  0  0  0  0  0  0  0  0  0
   -7.6151    0.2573    0.6760 F   0  0  0  0  0  0  0  0  0  0  0  0
    5.3548    1.7331    0.2997 O   0  0  0  0  0  0  0  0  0  0  0  0
    6.2067   -1.0042    0.6046 O   0  0  0  0  0  0  0  0  0  0  0  0
    1.0732    0.1826   -1.0385 O   0  0  0  0  0  0  0  0  0  0  0  0
   -1.3264    1.1579   -0.6941 O   0  0  0  0  0  0  0  0  0  0  0  0
   -2.2766   -0.9408   -0.2202 N   0  0  0  0  0  0  0  0  0  0  0  0
    4.5318    0.6665    0.0483 C   0  0  0  0  0  0  0  0  0  0  0  0
    4.9481   -0.6602    0.1854 C   0  0  0  0  0  0  0  0  0  0  0  0
    6.7299    1.3436    0.3574 C   0  0  0  0  0  0  0  0  0  0  0  0
    6.8878    0.0989    1.2088 C   0  0  0  0  0  0  0  0  0  0  0  0
    3.2256    0.9513   -0.3508 C   0  0  0  0  0  0  0  0  0  0  0  0
    2.3462   -0.0919   -0.6415 C   0  0  0  0  0  0  0  0  0  0  0  0
    4.0722   -1.7024   -0.1187 C   0  0  0  0  0  0  0  0  0  0  0  0
    2.7703   -1.4165   -0.5308 C   0  0  0  0  0  0  0  0  0  0  0  0
    0.0689   -0.7745   -0.7061 C   0  0  0  0  0  0  0  0  0  0  0  0
   -3.6391   -0.6344    0.0083 C   0  0  0  0  0  0  0  0  0  0  0  0
   -1.2534   -0.0576   -0.5403 C   0  0  0  0  0  0  0  0  0  0  0  0
   -4.0819    0.6854   -0.0805 C   0  0  0  0  0  0  0  0  0  0  0  0
   -4.5394   -1.6526    0.3222 C   0  0  0  0  0  0  0  0  0  0  0  0
   -5.4251    0.9869    0.1446 C   0  0  0  0  0  0  0  0  0  0  0  0
   -5.8824   -1.3512    0.5472 C   0  0  0  0  0  0  0  0  0  0  0  0
   -6.3254   -0.0315    0.4583 C   0  0  0  0  0  0  0  0  0  0  0  0
    7.0915    1.1821   -0.6657 H   0  0  0  0  0  0  0  0  0  0  0  0
    7.2933    2.1753    0.7918 H   0  0  0  0  0  0  0  0  0  0  0  0
    7.9450   -0.1703    1.2962 H   0  0  0  0  0  0  0  0  0  0  0  0
    6.4873    0.2469    2.2194 H   0  0  0  0  0  0  0  0  0  0  0  0
    2.8949    1.9825   -0.4460 H   0  0  0  0  0  0  0  0  0  0  0  0
    4.3940   -2.7367   -0.0325 H   0  0  0  0  0  0  0  0  0  0  0  0
    2.1251   -2.2543   -0.7783 H   0  0  0  0  0  0  0  0  0  0  0  0
   -0.0215   -1.5064   -1.5161 H   0  0  0  0  0  0  0  0  0  0  0  0
    0.2787   -1.2758    0.2477 H   0  0  0  0  0  0  0  0  0  0  0  0
   -2.0353   -1.9259   -0.1357 H   0  0  0  0  0  0  0  0  0  0  0  0
   -3.4456    1.5263   -0.3176 H   0  0  0  0  0  0  0  0  0  0  0  0
   -4.2075   -2.6851    0.3946 H   0  0  0  0  0  0  0  0  0  0  0  0
   -6.5837   -2.1435    0.7918 H   0  0  0  0  0  0  0  0  0  0  0  0
  1 21  1  0  0  0  0
  2 23  1  0  0  0  0
  3  8  1  0  0  0  0
  3 10  1  0  0  0  0
  4  9  1  0  0  0  0
  4 11  1  0  0  0  0
  5 13  1  0  0  0  0
  5 16  1  0  0  0  0
  6 18  2  0  0  0  0
  7 17  1  0  0  0  0
  7 18  1  0  0  0  0
  7 33  1  0  0  0  0
  8  9  2  0  0  0  0
  8 12  1  0  0  0  0
  9 14  1  0  0  0  0
 10 11  1  0  0  0  0
 10 24  1  0  0  0  0
 10 25  1  0  0  0  0
 11 26  1  0  0  0  0
 11 27  1  0  0  0  0
 12 13  2  0  0  0  0
 12 28  1  0  0  0  0
 13 15  1  0  0  0  0
 14 15  2  0  0  0  0
 14 29  1  0  0  0  0
 15 30  1  0  0  0  0
 16 18  1  0  0  0  0
 16 31  1  0  0  0  0
 16 32  1  0  0  0  0
 17 19  2  0  0  0  0
 17 20  1  0  0  0  0
 19 21  1  0  0  0  0
 19 34  1  0  0  0  0
 20 22  2  0  0  0  0
 20 35  1  0  0  0  0
 21 23  2  0  0  0  0
 22 23  1  0  0  0  0
 22 36  1  0  0  0  0
M  END
> <PUBCHEM_COMPOUND_CID>
17395303

> <PUBCHEM_CONFORMER_RMSD>
0.8

> <PUBCHEM_CONFORMER_DIVERSEORDER>
1
98
131
133
58
96
19
86
117
37
105
22
135
43
134
55
121
115
109
48
97
26
127
39
21
128
75
5
110
23
76
57
18
12
119
129
103
11
85
25
99
92
95
67
30
111
29
49
68
113
13
125
94
118
136
60
93
65
108
47
132
16
50
61
112
46
77
123
10
124
40
36
59
20
2
28
38
120
104
102
79
4
14
3
137
106
15
41
71
130
66
90
53
7
33
45
35
56
114
27
101
116
72
88
73
54
6
44
107
24
84
122
32
69
91
42
100
64
34
78
126
87
62
83
80
89
8
63
70
17
31
82
52
9
74
51
81

> <PUBCHEM_MMFF94_PARTIAL_CHARGES>
30
1 -0.19
10 0.28
11 0.28
12 -0.15
13 0.08
14 -0.15
15 -0.15
16 0.34
17 0.12
18 0.57
19 -0.15
2 -0.19
20 -0.15
21 0.19
22 -0.15
23 0.19
28 0.15
29 0.15
3 -0.36
30 0.15
33 0.37
34 0.15
35 0.15
36 0.15
4 -0.36
5 -0.36
6 -0.57
7 -0.55
8 0.08
9 0.08

> <PUBCHEM_EFFECTIVE_ROTOR_COUNT>
5.8

> <PUBCHEM_PHARMACOPHORE_FEATURES>
8
1 3 acceptor
1 4 acceptor
1 5 acceptor
1 6 acceptor
1 7 donor
6 17 19 20 21 22 23 rings
6 3 4 8 9 10 11 rings
6 8 9 12 13 14 15 rings

> <PUBCHEM_HEAVY_ATOM_COUNT>
23

> <PUBCHEM_ATOM_DEF_STEREO_COUNT>
0

> <PUBCHEM_ATOM_UDEF_STEREO_COUNT>
0

> <PUBCHEM_BOND_DEF_STEREO_COUNT>
0

> <PUBCHEM_BOND_UDEF_STEREO_COUNT>
0

> <PUBCHEM_ISOTOPIC_ATOM_COUNT>
0

> <PUBCHEM_COMPONENT_COUNT>
1

> <PUBCHEM_CACTVS_TAUTO_COUNT>
2

> <PUBCHEM_CONFORMER_ID>
01096E6700000001

> <PUBCHEM_MMFF94_ENERGY>
71.743

> <PUBCHEM_FEATURE_SELFOVERLAP>
40.648

> <PUBCHEM_SHAPE_FINGERPRINT>
10 15 18410572864164986890
10299344 5 17846777408462638366
10354089 29 18260548910051188542
10670039 82 5906062429884626498
10693767 8 9870932172806224848
10835480 77 18335422421908512197
11315181 36 18202001006820196477
11724838 91 18261959557014214438
12166972 35 9079110076899307534
125118 31 18334855051795576352
12516196 113 18413387635517933741
12596602 18 18411982463889196306
12670543 26 8935004771721813902
13073987 5 18411133680136879627
13167372 99 18334857246866405144
13288520 33 10447928369848899391
13403585 85 18409166623817762805
13533116 47 17703795872741646386
13631057 29 16009329604356932103
13668630 136 12967132730965264640
13685833 64 14908181949927133628
14251764 18 18408604738847205119
14341114 176 18410855465087774014
14528608 73 7060375916243346951
14849402 71 18057881351678666876
14933364 13 18408884031669279936
15348495 7 18341892931214013066
15461852 350 17894636929306148765
15475509 35 16987737817604501538
15716309 27 17704073979830545279
17093844 174 17918278658454792125
20281389 69 18410009940282394029
21130935 74 18413389856169617538
21150785 3 5617251529062902865
21267235 1 18411418449886431766
22061861 79 11455891360154284331
221357 26 8790889575373008562
22224240 67 18259989253599763854
23035841 295 10447931663946286831
23081809 10 17561355163037616807
23522609 53 17273387630178864068
23536379 177 18412825793629021739
2767999 5 16515685545800023299
29717793 49 11887678394577707498
300161 21 17603305946789960783
312425 54 17989205970901701299
3383291 50 17560228121440380627
3663271 9 18413389834435727083
4073 2 18130782317983781986
4340502 62 18342177765483357490
465052 167 12607404408152494090
5104073 3 18340762749615361475
6438161 24 7925644276473652580

> <PUBCHEM_SHAPE_MULTIPOLES>
430.32
21.99
1.7
0.86
5.76
0.15
-0.02
3.66
-7.55
0.19
-0.04
-0.43
-0.04
0.4

> <PUBCHEM_SHAPE_SELFOVERLAP>
935.629

> <PUBCHEM_SHAPE_VOLUME>
234

> <PUBCHEM_COORDINATE_TYPE>
2
5
10

$$$$

