47205558
  -OEChem-06241222593D

 35 36  0     0  0  0  0  0  0999 V2000
    4.8920   -0.0198   -0.0868 O   0  0  0  0  0  0  0  0  0  0  0  0
    3.0830   -1.9070    0.5141 O   0  0  0  0  0  0  0  0  0  0  0  0
   -2.8462    0.3013    0.1046 N   0  0  0  0  0  0  0  0  0  0  0  0
   -3.7549   -0.6516   -0.2347 N   0  0  0  0  0  0  0  0  0  0  0  0
    3.5136    0.2683   -0.1209 N   0  0  0  0  0  0  0  0  0  0  0  0
   -3.4327    1.6159    0.3084 C   0  0  0  0  0  0  0  0  0  0  0  0
   -4.9159    1.3869    0.0769 C   0  0  0  0  0  0  0  0  0  0  0  0
   -4.9111   -0.0696   -0.2585 C   0  0  0  0  0  0  0  0  0  0  0  0
   -1.5032    0.0386    0.1315 C   0  0  0  0  0  0  0  0  0  0  0  0
   -6.1760   -0.7863   -0.5917 C   0  0  0  0  0  0  0  0  0  0  0  0
   -1.0425   -1.2615   -0.0767 C   0  0  0  0  0  0  0  0  0  0  0  0
   -0.5953    1.0710    0.3671 C   0  0  0  0  0  0  0  0  0  0  0  0
    1.2341   -0.4966    0.1862 C   0  0  0  0  0  0  0  0  0  0  0  0
    0.3263   -1.5290   -0.0494 C   0  0  0  0  0  0  0  0  0  0  0  0
    0.7733    0.8035    0.3944 C   0  0  0  0  0  0  0  0  0  0  0  0
    2.6612   -0.7749    0.2156 C   0  0  0  0  0  0  0  0  0  0  0  0
    5.6049    1.1528   -0.4561 C   0  0  0  0  0  0  0  0  0  0  0  0
    7.0893    0.8580   -0.4239 C   0  0  0  0  0  0  0  0  0  0  0  0
   -3.2522    1.9876    1.3234 H   0  0  0  0  0  0  0  0  0  0  0  0
   -3.0519    2.3484   -0.4127 H   0  0  0  0  0  0  0  0  0  0  0  0
   -5.5120    1.5700    0.9746 H   0  0  0  0  0  0  0  0  0  0  0  0
   -5.3060    1.9739   -0.7583 H   0  0  0  0  0  0  0  0  0  0  0  0
   -5.9736   -1.8375   -0.8126 H   0  0  0  0  0  0  0  0  0  0  0  0
   -6.8625   -0.7222    0.2565 H   0  0  0  0  0  0  0  0  0  0  0  0
   -6.6386   -0.3176   -1.4641 H   0  0  0  0  0  0  0  0  0  0  0  0
   -1.7202   -2.0909   -0.2612 H   0  0  0  0  0  0  0  0  0  0  0  0
   -0.9129    2.0948    0.5421 H   0  0  0  0  0  0  0  0  0  0  0  0
    0.6657   -2.5479   -0.2175 H   0  0  0  0  0  0  0  0  0  0  0  0
    1.4461    1.6293    0.6068 H   0  0  0  0  0  0  0  0  0  0  0  0
    3.2354    1.1964   -0.4202 H   0  0  0  0  0  0  0  0  0  0  0  0
    5.3757    1.9629    0.2460 H   0  0  0  0  0  0  0  0  0  0  0  0
    5.3139    1.4613   -1.4671 H   0  0  0  0  0  0  0  0  0  0  0  0
    7.6697    1.7416   -0.7039 H   0  0  0  0  0  0  0  0  0  0  0  0
    7.3354    0.0415   -1.1109 H   0  0  0  0  0  0  0  0  0  0  0  0
    7.3969    0.5356    0.5763 H   0  0  0  0  0  0  0  0  0  0  0  0
  1  5  1  0  0  0  0
  1 17  1  0  0  0  0
  2 16  2  0  0  0  0
  3  4  1  0  0  0  0
  3  6  1  0  0  0  0
  3  9  1  0  0  0  0
  4  8  2  0  0  0  0
  5 16  1  0  0  0  0
  5 30  1  0  0  0  0
  6  7  1  0  0  0  0
  6 19  1  0  0  0  0
  6 20  1  0  0  0  0
  7  8  1  0  0  0  0
  7 21  1  0  0  0  0
  7 22  1  0  0  0  0
  8 10  1  0  0  0  0
  9 11  2  0  0  0  0
  9 12  1  0  0  0  0
 10 23  1  0  0  0  0
 10 24  1  0  0  0  0
 10 25  1  0  0  0  0
 11 14  1  0  0  0  0
 11 26  1  0  0  0  0
 12 15  2  0  0  0  0
 12 27  1  0  0  0  0
 13 14  2  0  0  0  0
 13 15  1  0  0  0  0
 13 16  1  0  0  0  0
 14 28  1  0  0  0  0
 15 29  1  0  0  0  0
 17 18  1  0  0  0  0
 17 31  1  0  0  0  0
 17 32  1  0  0  0  0
 18 33  1  0  0  0  0
 18 34  1  0  0  0  0
 18 35  1  0  0  0  0
M  END
> <PUBCHEM_COMPOUND_CID>
47205558

> <PUBCHEM_CONFORMER_RMSD>
0.8

> <PUBCHEM_CONFORMER_DIVERSEORDER>
1
16
19
4
15
9
21
2
10
17
5
13
7
20
11
6
14
18
8
12
3

> <PUBCHEM_MMFF94_PARTIAL_CHARGES>
22
1 -0.32
10 0.06
11 -0.15
12 -0.15
13 0.09
14 -0.15
15 -0.15
16 0.54
17 0.28
2 -0.57
26 0.15
27 0.15
28 0.15
29 0.15
3 -0.43
30 0.37
4 -0.49
5 -0.39
6 0.37
7 0.06
8 0.33
9 0.1

> <PUBCHEM_EFFECTIVE_ROTOR_COUNT>
5.6

> <PUBCHEM_PHARMACOPHORE_FEATURES>
5
1 2 acceptor
1 4 acceptor
1 5 donor
5 3 4 6 7 8 rings
6 9 11 12 13 14 15 rings

> <PUBCHEM_HEAVY_ATOM_COUNT>
18

> <PUBCHEM_ATOM_DEF_STEREO_COUNT>
0

> <PUBCHEM_ATOM_UDEF_STEREO_COUNT>
0

> <PUBCHEM_BOND_DEF_STEREO_COUNT>
0

> <PUBCHEM_BOND_UDEF_STEREO_COUNT>
0

> <PUBCHEM_ISOTOPIC_ATOM_COUNT>
0

> <PUBCHEM_COMPONENT_COUNT>
1

> <PUBCHEM_CACTVS_TAUTO_COUNT>
2

> <PUBCHEM_CONFORMER_ID>
02D04CB600000001

> <PUBCHEM_MMFF94_ENERGY>
52.6663

> <PUBCHEM_FEATURE_SELFOVERLAP>
25.371

> <PUBCHEM_SHAPE_FINGERPRINT>
10595046 47 18410857697874753395
10912923 1 18338238270796454067
10968037 39 18410293597555775567
12236239 1 18411982485453663998
13288520 33 17822293466518892637
13533116 47 16916795140904313082
14123256 10 18410293592764994613
14251718 22 18260266343335289093
14528608 73 18408885131444775308
15048467 5 18344145899390924732
15196674 1 18337111275773229259
17834072 33 18334580130938407053
17834076 25 18413108351385844676
19489759 90 14045745924194733757
200 152 18187090568375047315
20281389 69 18131918152803919244
20645477 70 18337391664013041894
21150785 3 18114183003723318447
21267235 1 18260266301351051703
22224240 67 14405186128165091352
2297311 6 16877659059173625529
23035841 295 16732700545188596687
23402539 116 18260833699888324013
23402655 69 18261396688812792933
23559900 14 17895200952595569192
26918003 58 11384114146092619437
293599 30 18410009940366491248
300161 21 18060140959351635043
3004659 81 18337668720211865710
3472631 163 18269545062787617244
34797466 226 17095518453628201252
3545911 37 18412261727427169374
4325135 7 18410012122178164551
4340502 62 16845851304262508298
4463277 17 18335138700088665393
474 4 17846772976098677892
5104073 3 18337111275889378683
5207 217 18341330011362337674
7062679 117 18336266760886407863

> <PUBCHEM_SHAPE_MULTIPOLES>
343.75
15.13
1.6
0.68
10.89
0.12
0.01
-4.06
3.45
-0.13
-0.1
0.01
-0.01
-0.82

> <PUBCHEM_SHAPE_SELFOVERLAP>
716.475

> <PUBCHEM_SHAPE_VOLUME>
197.7

> <PUBCHEM_COORDINATE_TYPE>
2
5
10

$$$$

