9380
  -OEChem-06261203392D

 16 13  0     0  0  0  0  0  0999 V2000
    1.3360    0.0000    0.0000 Cl  0  0  0  0  0  0  0  0  0  0  0  0
    1.3360    2.5000    0.0000 Cl  0  0  0  0  0  0  0  0  0  0  0  0
    1.4030    5.6200    0.0000 N   0  0  0  0  0  0  0  0  0  0  0  0
    2.2690    6.1200    0.0000 N   0  0  0  0  0  0  0  0  0  0  0  0
    0.5369    6.1200    0.0000 C   0  0  0  0  0  0  0  0  0  0  0  0
    3.1350    5.6200    0.0000 C   0  0  0  0  0  0  0  0  0  0  0  0
    1.4030    5.0000    0.0000 H   0  0  0  0  0  0  0  0  0  0  0  0
    2.2690    6.7400    0.0000 H   0  0  0  0  0  0  0  0  0  0  0  0
    0.8469    6.6569    0.0000 H   0  0  0  0  0  0  0  0  0  0  0  0
    0.0000    6.4300    0.0000 H   0  0  0  0  0  0  0  0  0  0  0  0
    0.2269    5.5831    0.0000 H   0  0  0  0  0  0  0  0  0  0  0  0
    2.8250    5.0831    0.0000 H   0  0  0  0  0  0  0  0  0  0  0  0
    3.6720    5.3100    0.0000 H   0  0  0  0  0  0  0  0  0  0  0  0
    3.4450    6.1569    0.0000 H   0  0  0  0  0  0  0  0  0  0  0  0
    2.3360    0.0000    0.0000 H   0  0  0  0  0  0  0  0  0  0  0  0
    2.3360    2.5000    0.0000 H   0  0  0  0  0  0  0  0  0  0  0  0
  1 15  1  0  0  0  0
  2 16  1  0  0  0  0
  3  4  1  0  0  0  0
  3  5  1  0  0  0  0
  3  7  1  0  0  0  0
  4  6  1  0  0  0  0
  4  8  1  0  0  0  0
  5  9  1  0  0  0  0
  5 10  1  0  0  0  0
  5 11  1  0  0  0  0
  6 12  1  0  0  0  0
  6 13  1  0  0  0  0
  6 14  1  0  0  0  0
M  END
> <PUBCHEM_COMPOUND_CID>
9380

> <PUBCHEM_COMPOUND_CANONICALIZED>
1

> <PUBCHEM_CACTVS_COMPLEXITY>
6

> <PUBCHEM_CACTVS_HBOND_ACCEPTOR>
2

> <PUBCHEM_CACTVS_HBOND_DONOR>
4

> <PUBCHEM_CACTVS_ROTATABLE_BOND>
1

> <PUBCHEM_CACTVS_SUBSKEYS>
AAADccBDAAAGAAAAAAAAAAAAAAAAAAAAAAAAAAAAAAAAAAAAAAAAFAAYAAAAAAAAAAQCAABiAAAAAAAAAAAAAAAAAAIAIIAAAAAAAAAAAAAAAAAAAAAAAAAAAAAAAAAAAAAAAAAAAAAAAAAAAAAAAAAAAA==

> <PUBCHEM_IUPAC_OPENEYE_NAME>
1,2-dimethylhydrazine dihydrochloride

> <PUBCHEM_IUPAC_CAS_NAME>
1,2-dimethylhydrazine dihydrochloride

> <PUBCHEM_IUPAC_NAME>
1,2-dimethylhydrazine dihydrochloride

> <PUBCHEM_IUPAC_SYSTEMATIC_NAME>
1,2-dimethyldiazane dihydrochloride

> <PUBCHEM_IUPAC_TRADITIONAL_NAME>
1,2-dimethylhydrazine dihydrochloride

> <PUBCHEM_IUPAC_INCHI>
InChI=1S/C2H8N2.2ClH/c1-3-4-2;;/h3-4H,1-2H3;2*1H

> <PUBCHEM_IUPAC_INCHIKEY>
WLDRFJDGKMTPPV-UHFFFAOYSA-N

> <PUBCHEM_EXACT_MASS>
132.022104

> <PUBCHEM_MOLECULAR_FORMULA>
C2H10Cl2N2

> <PUBCHEM_MOLECULAR_WEIGHT>
133.0202

> <PUBCHEM_OPENEYE_CAN_SMILES>
CNNC.Cl.Cl

> <PUBCHEM_OPENEYE_ISO_SMILES>
CNNC.Cl.Cl

> <PUBCHEM_CACTVS_TPSA>
24.1

> <PUBCHEM_MONOISOTOPIC_WEIGHT>
132.022104

> <PUBCHEM_TOTAL_CHARGE>
0

> <PUBCHEM_HEAVY_ATOM_COUNT>
6

> <PUBCHEM_ATOM_DEF_STEREO_COUNT>
0

> <PUBCHEM_ATOM_UDEF_STEREO_COUNT>
0

> <PUBCHEM_BOND_DEF_STEREO_COUNT>
0

> <PUBCHEM_BOND_UDEF_STEREO_COUNT>
0

> <PUBCHEM_ISOTOPIC_ATOM_COUNT>
0

> <PUBCHEM_COMPONENT_COUNT>
3

> <PUBCHEM_CACTVS_TAUTO_COUNT>
1

> <PUBCHEM_COORDINATE_TYPE>
1
5
255

$$$$

