47205511
  -OEChem-06241222592D

 32 33  0     1  0  0  0  0  0999 V2000
    5.7100    3.2614    0.0000 S   0  0  0  0  0  0  0  0  0  0  0  0
    6.2977    4.0704    0.0000 O   0  0  0  0  0  0  0  0  0  0  0  0
    5.1222    4.0704    0.0000 O   0  0  0  0  0  0  0  0  0  0  0  0
    6.0234   -0.1045    0.0000 O   0  0  0  0  0  0  0  0  0  0  0  0
    3.4466   -0.7045    0.0000 O   0  0  0  0  0  0  0  0  0  0  0  0
    3.7601   -4.0704    0.0000 O   0  0  0  0  0  0  0  0  0  0  0  0
    4.6222    0.9135    0.0000 N   0  0  0  0  0  0  0  0  0  0  0  0
    4.8479   -1.7226    0.0000 N   0  0  0  0  0  0  0  0  0  0  0  0
    4.5691   -3.4826    0.0000 N   0  0  0  0  0  0  0  0  0  0  0  0
    5.2100    1.7226    0.0000 C   0  0  3  0  0  0  0  0  0  0  0  0
    4.9009    2.6736    0.0000 C   0  0  0  0  0  0  0  0  0  0  0  0
    6.2100    1.7226    0.0000 C   0  0  0  0  0  0  0  0  0  0  0  0
    6.5190    2.6736    0.0000 C   0  0  0  0  0  0  0  0  0  0  0  0
    5.0289    0.0000    0.0000 C   0  0  0  0  0  0  0  0  0  0  0  0
    4.4411   -0.8090    0.0000 C   0  0  0  0  0  0  0  0  0  0  0  0
    4.2601   -2.5316    0.0000 C   0  0  0  0  0  0  0  0  0  0  0  0
    3.2601   -2.5316    0.0000 C   0  0  0  0  0  0  0  0  0  0  0  0
    2.9511   -3.4826    0.0000 C   0  0  0  0  0  0  0  0  0  0  0  0
    2.0000   -3.7916    0.0000 C   0  0  0  0  0  0  0  0  0  0  0  0
    5.4914    1.1701    0.0000 H   0  0  0  0  0  0  0  0  0  0  0  0
    4.5909    3.2106    0.0000 H   0  0  0  0  0  0  0  0  0  0  0  0
    4.3345    2.4214    0.0000 H   0  0  0  0  0  0  0  0  0  0  0  0
    6.1452    1.1060    0.0000 H   0  0  0  0  0  0  0  0  0  0  0  0
    6.8164    1.5937    0.0000 H   0  0  0  0  0  0  0  0  0  0  0  0
    7.0854    2.4214    0.0000 H   0  0  0  0  0  0  0  0  0  0  0  0
    6.8290    3.2106    0.0000 H   0  0  0  0  0  0  0  0  0  0  0  0
    4.0056    0.9784    0.0000 H   0  0  0  0  0  0  0  0  0  0  0  0
    5.4645   -1.7874    0.0000 H   0  0  0  0  0  0  0  0  0  0  0  0
    2.8956   -2.0300    0.0000 H   0  0  0  0  0  0  0  0  0  0  0  0
    1.8084   -3.2020    0.0000 H   0  0  0  0  0  0  0  0  0  0  0  0
    1.4103   -3.9832    0.0000 H   0  0  0  0  0  0  0  0  0  0  0  0
    2.1916   -4.3813    0.0000 H   0  0  0  0  0  0  0  0  0  0  0  0
  1  2  2  0  0  0  0
  1  3  2  0  0  0  0
  1 11  1  0  0  0  0
  1 13  1  0  0  0  0
  4 14  2  0  0  0  0
  5 15  2  0  0  0  0
  6  9  1  0  0  0  0
  6 18  1  0  0  0  0
  7 10  1  0  0  0  0
  7 14  1  0  0  0  0
  7 27  1  0  0  0  0
  8 15  1  0  0  0  0
  8 16  1  0  0  0  0
  8 28  1  0  0  0  0
  9 16  2  0  0  0  0
 10 11  1  0  0  0  0
 10 12  1  0  0  0  0
 10 20  1  0  0  0  0
 11 21  1  0  0  0  0
 11 22  1  0  0  0  0
 12 13  1  0  0  0  0
 12 23  1  0  0  0  0
 12 24  1  0  0  0  0
 13 25  1  0  0  0  0
 13 26  1  0  0  0  0
 14 15  1  0  0  0  0
 16 17  1  0  0  0  0
 17 18  2  0  0  0  0
 17 29  1  0  0  0  0
 18 19  1  0  0  0  0
 19 30  1  0  0  0  0
 19 31  1  0  0  0  0
 19 32  1  0  0  0  0
M  END
> <PUBCHEM_COMPOUND_CID>
47205511

> <PUBCHEM_COMPOUND_CANONICALIZED>
1

> <PUBCHEM_CACTVS_COMPLEXITY>
472

> <PUBCHEM_CACTVS_HBOND_ACCEPTOR>
6

> <PUBCHEM_CACTVS_HBOND_DONOR>
2

> <PUBCHEM_CACTVS_ROTATABLE_BOND>
2

> <PUBCHEM_CACTVS_SUBSKEYS>
AAADccBzOABAAAAAAAAAAAAAAAAAAWJAAAAAAAAAAAAAAAABgAAAHgQUAAAACCzF0gSztJLQAAqpAKNycnDAAAAlIhAhGKG+bFqAZAhgiaAUAIhCFwrgQEAAAAAAAAAAAAAAAAAAAAAAAAAAAAAAAAAAAA==

> <PUBCHEM_IUPAC_OPENEYE_NAME>
N-(1,1-dioxothiolan-3-yl)-N'-(5-methylisoxazol-3-yl)oxamide

> <PUBCHEM_IUPAC_CAS_NAME>
N-(1,1-dioxo-3-thiolanyl)-N'-(5-methyl-3-isoxazolyl)oxamide

> <PUBCHEM_IUPAC_NAME>
N-(1,1-dioxothiolan-3-yl)-N'-(5-methyl-1,2-oxazol-3-yl)oxamide

> <PUBCHEM_IUPAC_SYSTEMATIC_NAME>
N-[1,1-bis(oxidanylidene)thiolan-3-yl]-N'-(5-methyl-1,2-oxazol-3-yl)ethanediamide

> <PUBCHEM_IUPAC_TRADITIONAL_NAME>
N-(1,1-diketothiolan-3-yl)-N'-(5-methylisoxazol-3-yl)oxamide

> <PUBCHEM_IUPAC_INCHI>
InChI=1S/C10H13N3O5S/c1-6-4-8(13-18-6)12-10(15)9(14)11-7-2-3-19(16,17)5-7/h4,7H,2-3,5H2,1H3,(H,11,14)(H,12,13,15)

> <PUBCHEM_IUPAC_INCHIKEY>
CYTCEEXHWRDRQN-UHFFFAOYSA-N

> <PUBCHEM_XLOGP3_AA>
-0.4

> <PUBCHEM_EXACT_MASS>
287.057592

> <PUBCHEM_MOLECULAR_FORMULA>
C10H13N3O5S

> <PUBCHEM_MOLECULAR_WEIGHT>
287.29232

> <PUBCHEM_OPENEYE_CAN_SMILES>
CC1=CC(=NO1)NC(=O)C(=O)NC2CCS(=O)(=O)C2

> <PUBCHEM_OPENEYE_ISO_SMILES>
CC1=CC(=NO1)NC(=O)C(=O)NC2CCS(=O)(=O)C2

> <PUBCHEM_CACTVS_TPSA>
127

> <PUBCHEM_MONOISOTOPIC_WEIGHT>
287.057592

> <PUBCHEM_TOTAL_CHARGE>
0

> <PUBCHEM_HEAVY_ATOM_COUNT>
19

> <PUBCHEM_ATOM_DEF_STEREO_COUNT>
0

> <PUBCHEM_ATOM_UDEF_STEREO_COUNT>
1

> <PUBCHEM_BOND_DEF_STEREO_COUNT>
0

> <PUBCHEM_BOND_UDEF_STEREO_COUNT>
0

> <PUBCHEM_ISOTOPIC_ATOM_COUNT>
0

> <PUBCHEM_COMPONENT_COUNT>
1

> <PUBCHEM_CACTVS_TAUTO_COUNT>
16

> <PUBCHEM_COORDINATE_TYPE>
1
5
255

> <PUBCHEM_BONDANNOTATIONS>
16  17  8
17  18  8
6  18  8
6  9  8
10  7  3
9  16  8

$$$$

