17395533
  -OEChem-06241222503D

 38 40  0     0  0  0  0  0  0999 V2000
    4.0845    1.7373   -0.3925 S   0  0  0  0  0  0  0  0  0  0  0  0
   -2.7424    1.6045   -1.4648 O   0  0  0  0  0  0  0  0  0  0  0  0
   -0.1875    0.2781    0.7362 O   0  0  0  0  0  0  0  0  0  0  0  0
   -2.0763    2.1678    0.6880 N   0  0  0  0  0  0  0  0  0  0  0  0
    1.5174    1.7843    0.1106 N   0  0  0  0  0  0  0  0  0  0  0  0
    2.6775   -0.3185    0.2754 N   0  0  0  0  0  0  0  0  0  0  0  0
   -4.3124    1.3253    0.3580 C   0  0  0  0  0  0  0  0  0  0  0  0
   -4.6775   -0.1209    0.1520 C   0  0  0  0  0  0  0  0  0  0  0  0
   -0.7453    2.5858    0.3599 C   0  0  0  0  0  0  0  0  0  0  0  0
    4.9001    0.2233   -0.2687 C   0  0  0  0  0  0  0  0  0  0  0  0
    3.9800   -0.7627    0.1002 C   0  0  0  0  0  0  0  0  0  0  0  0
   -2.9820    1.7037   -0.2642 C   0  0  0  0  0  0  0  0  0  0  0  0
    2.6183    0.9721    0.0436 C   0  0  0  0  0  0  0  0  0  0  0  0
    0.2035    1.4038    0.4454 C   0  0  0  0  0  0  0  0  0  0  0  0
   -5.4097   -0.5019   -0.9726 C   0  0  0  0  0  0  0  0  0  0  0  0
   -4.2834   -1.0798    1.0853 C   0  0  0  0  0  0  0  0  0  0  0  0
    6.2563   -0.0709   -0.4826 C   0  0  0  0  0  0  0  0  0  0  0  0
    4.4361   -2.0893    0.2601 C   0  0  0  0  0  0  0  0  0  0  0  0
    6.6815   -1.3915   -0.3179 C   0  0  0  0  0  0  0  0  0  0  0  0
    5.7849   -2.3891    0.0487 C   0  0  0  0  0  0  0  0  0  0  0  0
   -5.7479   -1.8417   -1.1637 C   0  0  0  0  0  0  0  0  0  0  0  0
   -4.6216   -2.4194    0.8941 C   0  0  0  0  0  0  0  0  0  0  0  0
   -5.3539   -2.8003   -0.2305 C   0  0  0  0  0  0  0  0  0  0  0  0
   -4.3319    1.5555    1.4301 H   0  0  0  0  0  0  0  0  0  0  0  0
   -5.0772    1.9730   -0.0894 H   0  0  0  0  0  0  0  0  0  0  0  0
   -0.7195    3.0030   -0.6517 H   0  0  0  0  0  0  0  0  0  0  0  0
   -0.4406    3.3499    1.0811 H   0  0  0  0  0  0  0  0  0  0  0  0
   -2.3481    2.1963    1.6661 H   0  0  0  0  0  0  0  0  0  0  0  0
    1.6905    2.7615   -0.1115 H   0  0  0  0  0  0  0  0  0  0  0  0
   -5.7211    0.2353   -1.7079 H   0  0  0  0  0  0  0  0  0  0  0  0
   -3.7105   -0.7952    1.9639 H   0  0  0  0  0  0  0  0  0  0  0  0
    6.9620    0.7029   -0.7689 H   0  0  0  0  0  0  0  0  0  0  0  0
    3.7442   -2.8765    0.5462 H   0  0  0  0  0  0  0  0  0  0  0  0
    7.7271   -1.6405   -0.4786 H   0  0  0  0  0  0  0  0  0  0  0  0
    6.1338   -3.4108    0.1722 H   0  0  0  0  0  0  0  0  0  0  0  0
   -6.3175   -2.1384   -2.0395 H   0  0  0  0  0  0  0  0  0  0  0  0
   -4.3142   -3.1661    1.6203 H   0  0  0  0  0  0  0  0  0  0  0  0
   -5.6168   -3.8435   -0.3795 H   0  0  0  0  0  0  0  0  0  0  0  0
  1 10  1  0  0  0  0
  1 13  1  0  0  0  0
  2 12  2  0  0  0  0
  3 14  2  0  0  0  0
  4  9  1  0  0  0  0
  4 12  1  0  0  0  0
  4 28  1  0  0  0  0
  5 13  1  0  0  0  0
  5 14  1  0  0  0  0
  5 29  1  0  0  0  0
  6 11  1  0  0  0  0
  6 13  2  0  0  0  0
  7  8  1  0  0  0  0
  7 12  1  0  0  0  0
  7 24  1  0  0  0  0
  7 25  1  0  0  0  0
  8 15  2  0  0  0  0
  8 16  1  0  0  0  0
  9 14  1  0  0  0  0
  9 26  1  0  0  0  0
  9 27  1  0  0  0  0
 10 11  1  0  0  0  0
 10 17  2  0  0  0  0
 11 18  2  0  0  0  0
 15 21  1  0  0  0  0
 15 30  1  0  0  0  0
 16 22  2  0  0  0  0
 16 31  1  0  0  0  0
 17 19  1  0  0  0  0
 17 32  1  0  0  0  0
 18 20  1  0  0  0  0
 18 33  1  0  0  0  0
 19 20  2  0  0  0  0
 19 34  1  0  0  0  0
 20 35  1  0  0  0  0
 21 23  2  0  0  0  0
 21 36  1  0  0  0  0
 22 23  1  0  0  0  0
 22 37  1  0  0  0  0
 23 38  1  0  0  0  0
M  END
> <PUBCHEM_COMPOUND_CID>
17395533

> <PUBCHEM_CONFORMER_RMSD>
0.8

> <PUBCHEM_CONFORMER_DIVERSEORDER>
1
168
98
3
155
162
34
165
20
178
73
177
47
172
114
185
91
153
181
26
8
184
191
61
74
144
161
166
54
151
159
116
71
174
7
167
192
12
6
169
148
149
87
179
42
9
193
72
35
96
170
145
5
152
160
36
83
146
84
176
163
38
63
30
187
15
53
143
16
134
142
173
88
81
44
189
25
22
4
13
157
77
147
32
55
21
85
66
10
82
106
128
136
62
125
190
102
40
29
64
180
2
76
28
117
156
115
97
123
141
183
39
80
130
113
24
18
110
94
75
126
60
137
78
68
65
107
50
37
186
132
86
31
56
89
129
188
119
154
59
120
122
90
182
23
164
45
175
70
121
41
57
133
69
19
43
58
139
51
101
140
17
33
67
49
11
93
135
109
171
103
95
124
131
104
27
138
100
118
48
46
127
105
52
92
79
99
14
111
108
158
112
150

> <PUBCHEM_MMFF94_PARTIAL_CHARGES>
34
1 -0.08
10 0.04
11 0.23
12 0.57
13 0.44
14 0.57
15 -0.15
16 -0.15
17 -0.15
18 -0.15
19 -0.15
2 -0.57
20 -0.15
21 -0.15
22 -0.15
23 -0.15
28 0.37
29 0.37
3 -0.57
30 0.15
31 0.15
32 0.15
33 0.15
34 0.15
35 0.15
36 0.15
37 0.15
38 0.15
4 -0.73
5 -0.49
6 -0.57
7 0.2
8 -0.14
9 0.36

> <PUBCHEM_EFFECTIVE_ROTOR_COUNT>
7

> <PUBCHEM_PHARMACOPHORE_FEATURES>
7
1 2 acceptor
1 3 acceptor
1 4 donor
1 5 donor
5 1 6 10 11 13 rings
6 10 11 17 18 19 20 rings
6 8 15 16 21 22 23 rings

> <PUBCHEM_HEAVY_ATOM_COUNT>
23

> <PUBCHEM_ATOM_DEF_STEREO_COUNT>
0

> <PUBCHEM_ATOM_UDEF_STEREO_COUNT>
0

> <PUBCHEM_BOND_DEF_STEREO_COUNT>
0

> <PUBCHEM_BOND_UDEF_STEREO_COUNT>
0

> <PUBCHEM_ISOTOPIC_ATOM_COUNT>
0

> <PUBCHEM_COMPONENT_COUNT>
1

> <PUBCHEM_CACTVS_TAUTO_COUNT>
6

> <PUBCHEM_CONFORMER_ID>
01096F4D00000001

> <PUBCHEM_MMFF94_ENERGY>
48.645

> <PUBCHEM_FEATURE_SELFOVERLAP>
35.591

> <PUBCHEM_SHAPE_FINGERPRINT>
10 15 7493286664350616295
10391435 84 18340216197482832312
105312 117 14189571936222410417
117089 54 17912072855851596875
11796584 16 18263925621497065896
12422481 6 17022895787294871438
12596602 18 17240482485643477154
12633257 1 15719400498881275581
12760667 363 18408040702483309699
13103583 49 17604414233658265521
1361 4 18336545023454681382
14211702 104 18261667168831923422
14251740 79 18202280316732730227
14251751 18 18412259536587751198
14251764 30 18334579022900232617
14461889 52 18336554833338703960
14598715 104 12103265059837600062
14931854 50 18059307487300829555
14950920 106 16805603616951178227
15082195 135 17845077477676954860
15183329 4 18273497879265372962
15250474 111 18200322150473689875
15519825 34 14346371018033737295
17627616 140 17916029151500367043
17780758 139 17748821939040095049
17857418 61 18410291423621958698
19958102 18 17918277562552777746
20028762 73 18334577975525045582
20567600 247 18408605864023252106
21054139 6 18273495697996674658
21196832 93 18199740358947263210
21315763 191 18336258024627691057
21401589 2 8430323459138128877
21623969 137 17676203585239460566
22393880 68 17988934404398873713
23424784 1240 18187914136285380358
23522609 53 18118932911094151272
23559900 14 18338526227433306209
25122255 55 18334569191889053294
270888 7 10087656896507434831
2748736 6 10159702356556012870
2838139 119 10087638182707081194
3004659 81 18201723937736276040
314194 84 18336540508837125545
329604 57 18410571769127700596
4015057 19 18059562543126776320
439807 62 18412542090134132771
444735 86 18272379680287834586
465052 167 18113335341184423956
484985 159 18333731330454575745
5104073 3 17967531280924720224
559249 180 18334576872034402809
6327066 14 9439138524617942995
6431902 208 18410854352301406275
6437827 68 18411135831430763310
7495541 125 18040155115377826576
7970288 3 18407763633489215927
8863177 126 18260551091235302536

> <PUBCHEM_SHAPE_MULTIPOLES>
450.5
18.87
3.2
0.96
6.6
0.53
0.12
13.98
3
-1.63
-0.16
-1.12
0.08
-0.29

> <PUBCHEM_SHAPE_SELFOVERLAP>
957.308

> <PUBCHEM_SHAPE_VOLUME>
251.1

> <PUBCHEM_COORDINATE_TYPE>
2
5
10

$$$$

