17396021
  -OEChem-06241222533D

 48 50  0     1  0  0  0  0  0999 V2000
    6.1274    0.8638    1.2166 F   0  0  0  0  0  0  0  0  0  0  0  0
   -7.5951   -2.0764    0.8207 F   0  0  0  0  0  0  0  0  0  0  0  0
   -2.1223    0.9535    0.2725 O   0  0  0  0  0  0  0  0  0  0  0  0
    6.7899   -1.5481    0.0679 O   0  0  0  0  0  0  0  0  0  0  0  0
    1.0646    1.1374    0.6371 N   0  0  2  0  0  0  0  0  0  0  0  0
   -1.2907    1.4985   -1.7316 N   0  0  0  0  0  0  0  0  0  0  0  0
   -2.4926    0.8455   -1.9311 N   0  0  0  0  0  0  0  0  0  0  0  0
    0.0262    2.1329    0.3731 C   0  0  1  0  0  0  0  0  0  0  0  0
    1.6136    0.6266   -0.6184 C   0  0  0  0  0  0  0  0  0  0  0  0
    0.5290    0.0418    1.4441 C   0  0  0  0  0  0  0  0  0  0  0  0
    0.6412    3.3445   -0.3296 C   0  0  0  0  0  0  0  0  0  0  0  0
   -1.1151    1.5390   -0.4314 C   0  0  0  0  0  0  0  0  0  0  0  0
    2.9911    0.0476   -0.4338 C   0  0  0  0  0  0  0  0  0  0  0  0
   -0.0462    0.5546    2.7535 C   0  0  0  0  0  0  0  0  0  0  0  0
    3.9416    0.7349    0.3211 C   0  0  0  0  0  0  0  0  0  0  0  0
    3.3174   -1.1757   -1.0193 C   0  0  0  0  0  0  0  0  0  0  0  0
   -2.9419    0.5457   -0.7348 C   0  0  0  0  0  0  0  0  0  0  0  0
    5.2182    0.1990    0.4905 C   0  0  0  0  0  0  0  0  0  0  0  0
    4.5939   -1.7117   -0.8501 C   0  0  0  0  0  0  0  0  0  0  0  0
    5.5443   -1.0242   -0.0950 C   0  0  0  0  0  0  0  0  0  0  0  0
   -4.1412   -0.1306   -0.3339 C   0  0  0  0  0  0  0  0  0  0  0  0
   -4.4075   -0.3346    1.0201 C   0  0  0  0  0  0  0  0  0  0  0  0
   -5.0420   -0.5837   -1.2978 C   0  0  0  0  0  0  0  0  0  0  0  0
   -5.5743   -0.9918    1.4102 C   0  0  0  0  0  0  0  0  0  0  0  0
   -6.2087   -1.2410   -0.9078 C   0  0  0  0  0  0  0  0  0  0  0  0
   -6.4749   -1.4451    0.4461 C   0  0  0  0  0  0  0  0  0  0  0  0
    7.0539   -2.8024   -0.5589 C   0  0  0  0  0  0  0  0  0  0  0  0
   -0.3779    2.5380    1.3073 H   0  0  0  0  0  0  0  0  0  0  0  0
    1.7570    1.3946   -1.3840 H   0  0  0  0  0  0  0  0  0  0  0  0
    0.9501   -0.1237   -1.0702 H   0  0  0  0  0  0  0  0  0  0  0  0
   -0.2103   -0.5773    0.9224 H   0  0  0  0  0  0  0  0  0  0  0  0
    1.3513   -0.6361    1.7068 H   0  0  0  0  0  0  0  0  0  0  0  0
    0.8514    3.1953   -1.3931 H   0  0  0  0  0  0  0  0  0  0  0  0
    1.5597    3.6746    0.1690 H   0  0  0  0  0  0  0  0  0  0  0  0
   -0.0625    4.1858   -0.2855 H   0  0  0  0  0  0  0  0  0  0  0  0
    0.6338    1.2572    3.2479 H   0  0  0  0  0  0  0  0  0  0  0  0
   -1.0261    1.0267    2.6433 H   0  0  0  0  0  0  0  0  0  0  0  0
   -0.1885   -0.2886    3.4395 H   0  0  0  0  0  0  0  0  0  0  0  0
    3.7134    1.6949    0.7762 H   0  0  0  0  0  0  0  0  0  0  0  0
    2.5869   -1.7211   -1.6111 H   0  0  0  0  0  0  0  0  0  0  0  0
    4.7797   -2.6651   -1.3327 H   0  0  0  0  0  0  0  0  0  0  0  0
   -3.7299    0.0034    1.8001 H   0  0  0  0  0  0  0  0  0  0  0  0
   -4.8552   -0.4357   -2.3587 H   0  0  0  0  0  0  0  0  0  0  0  0
   -5.7823   -1.1513    2.4641 H   0  0  0  0  0  0  0  0  0  0  0  0
   -6.9103   -1.5942   -1.6578 H   0  0  0  0  0  0  0  0  0  0  0  0
    6.4198   -3.5973   -0.1517 H   0  0  0  0  0  0  0  0  0  0  0  0
    6.9814   -2.7307   -1.6494 H   0  0  0  0  0  0  0  0  0  0  0  0
    8.0898   -3.0689   -0.3247 H   0  0  0  0  0  0  0  0  0  0  0  0
  1 18  1  0  0  0  0
  2 26  1  0  0  0  0
  3 12  1  0  0  0  0
  3 17  1  0  0  0  0
  4 20  1  0  0  0  0
  4 27  1  0  0  0  0
  5  8  1  0  0  0  0
  5  9  1  0  0  0  0
  5 10  1  0  0  0  0
  6  7  1  0  0  0  0
  6 12  2  0  0  0  0
  7 17  2  0  0  0  0
  8 11  1  0  0  0  0
  8 12  1  0  0  0  0
  8 28  1  0  0  0  0
  9 13  1  0  0  0  0
  9 29  1  0  0  0  0
  9 30  1  0  0  0  0
 10 14  1  0  0  0  0
 10 31  1  0  0  0  0
 10 32  1  0  0  0  0
 11 33  1  0  0  0  0
 11 34  1  0  0  0  0
 11 35  1  0  0  0  0
 13 15  2  0  0  0  0
 13 16  1  0  0  0  0
 14 36  1  0  0  0  0
 14 37  1  0  0  0  0
 14 38  1  0  0  0  0
 15 18  1  0  0  0  0
 15 39  1  0  0  0  0
 16 19  2  0  0  0  0
 16 40  1  0  0  0  0
 17 21  1  0  0  0  0
 18 20  2  0  0  0  0
 19 20  1  0  0  0  0
 19 41  1  0  0  0  0
 21 22  2  0  0  0  0
 21 23  1  0  0  0  0
 22 24  1  0  0  0  0
 22 42  1  0  0  0  0
 23 25  2  0  0  0  0
 23 43  1  0  0  0  0
 24 26  2  0  0  0  0
 24 44  1  0  0  0  0
 25 26  1  0  0  0  0
 25 45  1  0  0  0  0
 27 46  1  0  0  0  0
 27 47  1  0  0  0  0
 27 48  1  0  0  0  0
M  END
> <PUBCHEM_COMPOUND_CID>
17396021

> <PUBCHEM_CONFORMER_RMSD>
0.8

> <PUBCHEM_CONFORMER_DIVERSEORDER>
3
206
328
296
453
289
198
467
291
263
248
81
164
131
410
432
150
231
188
19
104
100
117
305
71
384
390
144
202
140
411
147
197
426
141
42
357
285
108
203
156
268
160
458
247
77
425
113
422
439
83
388
170
137
52
67
416
309
394
249
167
265
230
283
433
88
223
381
29
406
405
159
455
347
339
53
250
172
56
58
243
233
440
280
318
427
346
79
35
363
65
28
18
430
14
382
139
417
429
178
62
192
368
424
262
358
421
7
101
414
300
431
372
166
61
354
436
189
217
391
177
284
278
378
373
329
366
441
415
211
254
266
310
119
374
471
174
322
397
295
252
404
24
337
40
186
275
333
138
314
158
332
199
92
49
45
180
418
146
451
460
109
201
187
311
341
82
281
359
360
216
225
54
395
133
452
409
98
450
155
402
69
419
448
472
400
253
274
66
449
57
438
39
30
420
312
267
257
259
380
149
50
408
227
470
234
107
353
413
299
316
423
320
298
456
385
396
182
377
349
307
383
38
194
214
212
446
365
343
110
21
93
10
469
220
63
464
190
128
74
193
48
11
55
237
204
459
87
261
37
379
342
269
251
157
330
136
241
99
9
221
94
466
89
306
142
105
228
86
323
321
169
437
51
370
403
361
163
319
130
84
387
356
15
229
162
44
434
209
124
224
25
340
246
34
238
315
121
345
462
102
325
473
336
118
1
334
127
468
168
171
313
13
463
264
207
218
232
294
85
111
447
135
242
95
255
277
196
290
369
445
184
352
23
376
461
401
428
36
282
303
76
185
75
271
200
179
293
258
219
80
226
31
183
115
106
17
195
120
125
465
210
153
145
398
301
151
454
143
355
91
90
191
161
59
213
215
152
6
173
4
96
245
350
154
240
114
287
112
72
272
335
389
129
64
308
351
134
302
126
41
43
443
235
47
412
97
176
399
244
132
407
32
222
270
60
70
2
375
273
22
367
286
327
239
297
326
364
26
260
181
175
331
46
208
292
20
279
304
16
442
236
148
348
78
444
165
5
123
256
435
324
12
276
362
392
73
457
386
103
393
338
344
371
33
205
122
27
317
116
288
68
8

> <PUBCHEM_MMFF94_PARTIAL_CHARGES>
32
1 -0.19
10 0.27
12 0.3
13 -0.14
15 -0.15
16 -0.15
17 0.43
18 0.19
19 -0.15
2 -0.19
20 0.08
21 0.05
22 -0.15
23 -0.15
24 -0.15
25 -0.15
26 0.19
27 0.28
3 -0.28
39 0.15
4 -0.36
40 0.15
41 0.15
42 0.15
43 0.15
44 0.15
45 0.15
5 -0.81
6 -0.34
7 -0.34
8 0.45
9 0.41

> <PUBCHEM_EFFECTIVE_ROTOR_COUNT>
7

> <PUBCHEM_PHARMACOPHORE_FEATURES>
5
1 4 acceptor
1 5 cation
5 3 6 7 12 17 rings
6 13 15 16 18 19 20 rings
6 21 22 23 24 25 26 rings

> <PUBCHEM_HEAVY_ATOM_COUNT>
27

> <PUBCHEM_ATOM_DEF_STEREO_COUNT>
0

> <PUBCHEM_ATOM_UDEF_STEREO_COUNT>
1

> <PUBCHEM_BOND_DEF_STEREO_COUNT>
0

> <PUBCHEM_BOND_UDEF_STEREO_COUNT>
0

> <PUBCHEM_ISOTOPIC_ATOM_COUNT>
0

> <PUBCHEM_COMPONENT_COUNT>
1

> <PUBCHEM_CACTVS_TAUTO_COUNT>
1

> <PUBCHEM_CONFORMER_ID>
0109713500000003

> <PUBCHEM_MMFF94_ENERGY>
67.6271

> <PUBCHEM_FEATURE_SELFOVERLAP>
25.371

> <PUBCHEM_SHAPE_FINGERPRINT>
10 15 14562532855658363283
10674148 151 18130787897599700705
10763959 59 10231748990207010814
12166972 35 18335136510414999704
12596602 18 16515681135095801467
12616971 3 16733276715848004932
12633257 1 15213025920978746341
12760667 363 18411698799011881631
13103583 49 16370731400630282053
13402501 40 18412824677191316783
13540713 5 16055217871907309753
13673619 4 18131348592753268333
13685833 64 18411135806187973547
13782708 43 18272937119591856134
14123256 34 18272086093608311175
14251764 18 16226048860607588263
14251764 30 18411418414735629843
14341114 328 16008754597929201748
14767858 380 15913613856682623779
14849402 71 16734117725546011913
14931854 50 16486983882117230891
15183329 4 15051734200470564622
15238133 3 15719944727546962065
15510800 12 18201708540558783539
15685185 35 16955363569371890512
16110190 28 15502381101641013291
17349148 13 17488736913244592352
17492 54 13973964294400494197
17492 89 18120093034011921702
17980427 23 5833698089804488969
1813 80 18113605790152553861
18335252 98 18411699868780426666
190975 80 18186526470995724254
19958102 18 16845287289474098410
20775438 99 16984894264531439415
21150785 3 16988836195065550454
21267235 1 18040433330985737590
21307412 95 17703506598463262347
21344244 181 18202560657369109299
21521239 73 15841559586780578216
21623969 137 18187081762869612886
21637258 2 18334016086158669857
23522609 53 17897417571974066969
23559900 14 17060056974344042981
23622692 88 14851609860485846897
2838139 119 11671788173629608015
3004659 81 17561362872540673774
33382 64 18260548939525401762
3737641 26 18042680774859072727
437815 12 18341612603621460449
44880568 143 17489027158360081764
46194498 28 17917435280937986212
504843 32 11023809682965820057
5104073 3 17895762923618018672
5385378 56 5761390893747201333
5718773 13 18269276923568672818
6009941 240 18262235659367119937
636775 8 18338226176965809358
6669772 16 17772761480941676704
999808 66 18343014476741948691

> <PUBCHEM_SHAPE_MULTIPOLES>
514.42
18.82
2.47
1.64
0.7
0.53
-0.55
-17.98
-1.23
-1.67
0.38
1.25
0.24
1.55

> <PUBCHEM_SHAPE_SELFOVERLAP>
1104.729

> <PUBCHEM_SHAPE_VOLUME>
288.1

> <PUBCHEM_COORDINATE_TYPE>
2
5
10

$$$$

