12026
  -OEChem-06261206242D

 28 27  0     1  0  0  0  0  0999 V2000
    3.4030   -0.1830    0.0000 P   0  0  3  0  0  0  0  0  0  0  0  0
    4.2690    0.3170    0.0000 O   0  0  0  0  0  0  0  0  0  0  0  0
    2.5369   -0.6830    0.0000 O   0  0  0  0  0  0  0  0  0  0  0  0
    3.9030   -1.0490    0.0000 O   0  0  0  0  0  0  0  0  0  0  0  0
    6.0010    0.3170    0.0000 C   0  0  0  0  0  0  0  0  0  0  0  0
    5.1350   -0.1830    0.0000 C   0  0  3  0  0  0  0  0  0  0  0  0
    6.8671    0.8170    0.0000 C   0  0  0  0  0  0  0  0  0  0  0  0
    6.5010   -0.5490    0.0000 C   0  0  0  0  0  0  0  0  0  0  0  0
    5.5010    1.1830    0.0000 C   0  0  0  0  0  0  0  0  0  0  0  0
    5.1350   -1.1830    0.0000 C   0  0  0  0  0  0  0  0  0  0  0  0
    2.9030    0.6830    0.0000 C   0  0  0  0  0  0  0  0  0  0  0  0
    5.1350    0.4370    0.0000 H   0  0  0  0  0  0  0  0  0  0  0  0
    5.9641   -0.8590    0.0000 H   0  0  0  0  0  0  0  0  0  0  0  0
    6.8110   -1.0860    0.0000 H   0  0  0  0  0  0  0  0  0  0  0  0
    7.0380   -0.2390    0.0000 H   0  0  0  0  0  0  0  0  0  0  0  0
    6.0380    1.4930    0.0000 H   0  0  0  0  0  0  0  0  0  0  0  0
    5.1910    1.7200    0.0000 H   0  0  0  0  0  0  0  0  0  0  0  0
    4.9641    0.8730    0.0000 H   0  0  0  0  0  0  0  0  0  0  0  0
    7.1771    0.2801    0.0000 H   0  0  0  0  0  0  0  0  0  0  0  0
    7.4040    1.1270    0.0000 H   0  0  0  0  0  0  0  0  0  0  0  0
    6.5571    1.3539    0.0000 H   0  0  0  0  0  0  0  0  0  0  0  0
    4.5150   -1.1830    0.0000 H   0  0  0  0  0  0  0  0  0  0  0  0
    5.1350   -1.8030    0.0000 H   0  0  0  0  0  0  0  0  0  0  0  0
    5.7550   -1.1830    0.0000 H   0  0  0  0  0  0  0  0  0  0  0  0
    3.4399    0.9930    0.0000 H   0  0  0  0  0  0  0  0  0  0  0  0
    2.5930    1.2200    0.0000 H   0  0  0  0  0  0  0  0  0  0  0  0
    2.3660    0.3730    0.0000 H   0  0  0  0  0  0  0  0  0  0  0  0
    2.0000   -0.3730    0.0000 H   0  0  0  0  0  0  0  0  0  0  0  0
  1  2  1  0  0  0  0
  1  3  1  0  0  0  0
  1  4  2  0  0  0  0
  1 11  1  0  0  0  0
  2  6  1  0  0  0  0
  3 28  1  0  0  0  0
  5  6  1  0  0  0  0
  5  7  1  0  0  0  0
  5  8  1  0  0  0  0
  5  9  1  0  0  0  0
  6 10  1  0  0  0  0
  6 12  1  0  0  0  0
  7 19  1  0  0  0  0
  7 20  1  0  0  0  0
  7 21  1  0  0  0  0
  8 13  1  0  0  0  0
  8 14  1  0  0  0  0
  8 15  1  0  0  0  0
  9 16  1  0  0  0  0
  9 17  1  0  0  0  0
  9 18  1  0  0  0  0
 10 22  1  0  0  0  0
 10 23  1  0  0  0  0
 10 24  1  0  0  0  0
 11 25  1  0  0  0  0
 11 26  1  0  0  0  0
 11 27  1  0  0  0  0
M  END
> <PUBCHEM_COMPOUND_CID>
12026

> <PUBCHEM_COMPOUND_CANONICALIZED>
1

> <PUBCHEM_CACTVS_COMPLEXITY>
171

> <PUBCHEM_CACTVS_HBOND_ACCEPTOR>
3

> <PUBCHEM_CACTVS_HBOND_DONOR>
1

> <PUBCHEM_CACTVS_ROTATABLE_BOND>
3

> <PUBCHEM_CACTVS_SUBSKEYS>
AAADceBgMAIAAAAAAAAAAAAAAAAAAAAAAAAAAAAAAAAAAAAAAAAAGggACCAADhSggAICAAAAARAAQAAAAIAAAAAAAAAAAAAAAAAAAAAAAAAAAAAAAAAAAAAAAAAJAAAAAAAAAAAAAAAAAAAAAAAAAAAAAA==

> <PUBCHEM_IUPAC_OPENEYE_NAME>
methyl(1,2,2-trimethylpropoxy)phosphinic acid

> <PUBCHEM_IUPAC_CAS_NAME>
3,3-dimethylbutan-2-yloxy(methyl)phosphinic acid

> <PUBCHEM_IUPAC_NAME>
3,3-dimethylbutan-2-yloxy(methyl)phosphinic acid

> <PUBCHEM_IUPAC_SYSTEMATIC_NAME>
3,3-dimethylbutan-2-yloxy(methyl)phosphinic acid

> <PUBCHEM_IUPAC_TRADITIONAL_NAME>
methyl(1,2,2-trimethylpropoxy)phosphinic acid

> <PUBCHEM_IUPAC_INCHI>
InChI=1S/C7H17O3P/c1-6(7(2,3)4)10-11(5,8)9/h6H,1-5H3,(H,8,9)

> <PUBCHEM_IUPAC_INCHIKEY>
BLALDUPQYCGKAG-UHFFFAOYSA-N

> <PUBCHEM_XLOGP3_AA>
1.1

> <PUBCHEM_EXACT_MASS>
180.091531

> <PUBCHEM_MOLECULAR_FORMULA>
C7H17O3P

> <PUBCHEM_MOLECULAR_WEIGHT>
180.181842

> <PUBCHEM_OPENEYE_CAN_SMILES>
CC(C(C)(C)C)OP(=O)(C)O

> <PUBCHEM_OPENEYE_ISO_SMILES>
CC(C(C)(C)C)OP(=O)(C)O

> <PUBCHEM_CACTVS_TPSA>
46.5

> <PUBCHEM_MONOISOTOPIC_WEIGHT>
180.091531

> <PUBCHEM_TOTAL_CHARGE>
0

> <PUBCHEM_HEAVY_ATOM_COUNT>
11

> <PUBCHEM_ATOM_DEF_STEREO_COUNT>
0

> <PUBCHEM_ATOM_UDEF_STEREO_COUNT>
1

> <PUBCHEM_BOND_DEF_STEREO_COUNT>
0

> <PUBCHEM_BOND_UDEF_STEREO_COUNT>
0

> <PUBCHEM_ISOTOPIC_ATOM_COUNT>
0

> <PUBCHEM_COMPONENT_COUNT>
1

> <PUBCHEM_CACTVS_TAUTO_COUNT>
1

> <PUBCHEM_COORDINATE_TYPE>
1
5
255

> <PUBCHEM_BONDANNOTATIONS>
6  10  3

$$$$

