9720
  -OEChem-06261203593D

 29 30  0     0  0  0  0  0  0999 V2000
   -4.7925    1.8591   -0.0064 F   0  0  0  0  0  0  0  0  0  0  0  0
   -3.2774    2.0521    1.5335 F   0  0  0  0  0  0  0  0  0  0  0  0
   -2.7883    2.5180   -0.5335 F   0  0  0  0  0  0  0  0  0  0  0  0
    5.8222    0.5696    0.6037 O   0  5  0  0  0  0  0  0  0  0  0  0
    4.9742    1.8392   -0.9795 O   0  0  0  0  0  0  0  0  0  0  0  0
    0.0031   -1.8676    0.2371 N   0  0  0  0  0  0  0  0  0  0  0  0
    4.8755    0.9070   -0.1464 N   0  3  0  0  0  0  0  0  0  0  0  0
   -1.3356   -1.4825    0.0151 C   0  0  0  0  0  0  0  0  0  0  0  0
    1.2241   -1.1724    0.1409 C   0  0  0  0  0  0  0  0  0  0  0  0
   -3.0508    0.2191    0.0139 C   0  0  0  0  0  0  0  0  0  0  0  0
   -1.7270   -0.1617    0.2338 C   0  0  0  0  0  0  0  0  0  0  0  0
   -2.2678   -2.4226   -0.4239 C   0  0  0  0  0  0  0  0  0  0  0  0
   -3.9831   -0.7209   -0.4250 C   0  0  0  0  0  0  0  0  0  0  0  0
    2.2962   -1.5248    0.9623 C   0  0  0  0  0  0  0  0  0  0  0  0
    1.3647   -0.1294   -0.7762 C   0  0  0  0  0  0  0  0  0  0  0  0
   -3.5916   -2.0417   -0.6441 C   0  0  0  0  0  0  0  0  0  0  0  0
   -3.4700    1.6308    0.2484 C   0  0  0  0  0  0  0  0  0  0  0  0
    3.6444    0.2058   -0.0496 C   0  0  0  0  0  0  0  0  0  0  0  0
    3.5055   -0.8362    0.8672 C   0  0  0  0  0  0  0  0  0  0  0  0
    2.5741    0.5591   -0.8714 C   0  0  0  0  0  0  0  0  0  0  0  0
    0.1060   -2.8370    0.5241 H   0  0  0  0  0  0  0  0  0  0  0  0
   -1.0199    0.5801    0.5969 H   0  0  0  0  0  0  0  0  0  0  0  0
   -1.9747   -3.4546   -0.5991 H   0  0  0  0  0  0  0  0  0  0  0  0
   -5.0186   -0.4439   -0.6020 H   0  0  0  0  0  0  0  0  0  0  0  0
    2.1997   -2.3345    1.6813 H   0  0  0  0  0  0  0  0  0  0  0  0
    0.5553    0.1529   -1.4440 H   0  0  0  0  0  0  0  0  0  0  0  0
   -4.3173   -2.7738   -0.9862 H   0  0  0  0  0  0  0  0  0  0  0  0
    4.3173   -1.1391    1.5237 H   0  0  0  0  0  0  0  0  0  0  0  0
    2.6473    1.3621   -1.6004 H   0  0  0  0  0  0  0  0  0  0  0  0
  1 17  1  0  0  0  0
  2 17  1  0  0  0  0
  3 17  1  0  0  0  0
  4  7  1  0  0  0  0
  5  7  2  0  0  0  0
  6  8  1  0  0  0  0
  6  9  1  0  0  0  0
  6 21  1  0  0  0  0
  7 18  1  0  0  0  0
  8 11  1  0  0  0  0
  8 12  2  0  0  0  0
  9 14  2  0  0  0  0
  9 15  1  0  0  0  0
 10 11  2  0  0  0  0
 10 13  1  0  0  0  0
 10 17  1  0  0  0  0
 11 22  1  0  0  0  0
 12 16  1  0  0  0  0
 12 23  1  0  0  0  0
 13 16  2  0  0  0  0
 13 24  1  0  0  0  0
 14 19  1  0  0  0  0
 14 25  1  0  0  0  0
 15 20  2  0  0  0  0
 15 26  1  0  0  0  0
 16 27  1  0  0  0  0
 18 19  2  0  0  0  0
 18 20  1  0  0  0  0
 19 28  1  0  0  0  0
 20 29  1  0  0  0  0
M  CHG  2   4  -1   7   1
M  END
> <PUBCHEM_COMPOUND_CID>
9720

> <PUBCHEM_CONFORMER_RMSD>
0.6

> <PUBCHEM_CONFORMER_DIVERSEORDER>
1
3
7
6
8
2
4
5

> <PUBCHEM_MMFF94_PARTIAL_CHARGES>
29
1 -0.34
10 -0.14
11 -0.15
12 -0.15
13 -0.15
14 -0.15
15 -0.15
16 -0.15
17 1.16
18 0.13
19 -0.15
2 -0.34
20 -0.15
21 0.4
22 0.15
23 0.15
24 0.15
25 0.15
26 0.15
27 0.15
28 0.15
29 0.15
3 -0.34
4 -0.52
5 -0.52
6 -0.6
7 0.91
8 0.1
9 0.1

> <PUBCHEM_EFFECTIVE_ROTOR_COUNT>
4

> <PUBCHEM_PHARMACOPHORE_FEATURES>
7
1 4 acceptor
1 4 anion
1 5 acceptor
1 6 cation
1 6 donor
6 8 10 11 12 13 16 rings
6 9 14 15 18 19 20 rings

> <PUBCHEM_HEAVY_ATOM_COUNT>
20

> <PUBCHEM_ATOM_DEF_STEREO_COUNT>
0

> <PUBCHEM_ATOM_UDEF_STEREO_COUNT>
0

> <PUBCHEM_BOND_DEF_STEREO_COUNT>
0

> <PUBCHEM_BOND_UDEF_STEREO_COUNT>
0

> <PUBCHEM_ISOTOPIC_ATOM_COUNT>
0

> <PUBCHEM_COMPONENT_COUNT>
1

> <PUBCHEM_CACTVS_TAUTO_COUNT>
1

> <PUBCHEM_CONFORMER_ID>
000025F800000001

> <PUBCHEM_MMFF94_ENERGY>
65.2811

> <PUBCHEM_FEATURE_SELFOVERLAP>
35.6

> <PUBCHEM_SHAPE_FINGERPRINT>
10382601 240 17704076243827261666
10498660 4 18187363250757417152
10646746 165 18260832579360620114
10670039 82 18342166753271347428
10937287 8 17464521380470780577
12107183 9 17981054320864389298
12236239 1 18201444644503140566
12390115 104 18041264561438576785
12596602 18 17275106076689983840
12788726 201 18266753380757860523
12916748 109 18338791230556165854
14142880 1 18272373092408668117
14251764 38 18191588541131985200
14251764 75 17755573090680315825
14466204 15 18411708669084481776
14739800 52 18120392973232302168
14767858 380 18189919633484741885
15196674 1 18411983584923210670
15209294 21 18343022190143944532
15342168 16 18046339997391613001
1741750 31 18188489189656646827
17834072 32 18338233881382386885
1813 80 5616711724856941570
20300324 65 18335422309870012975
20510252 161 18333729118130232667
20645477 56 18260263058144379995
20739085 24 17560518516831509550
21065198 48 18343872121011679642
23402539 116 18263933150332312071
235170 7 16660634155358560876
23557571 272 18040712533049152463
23559900 14 17896600777116942062
245318 6 16841338715722833580
3268164 11 17967822613167483087
341906 21 18261120664218107610
3472631 163 18335980943470966365
34797466 226 17460021904180247052
4214541 1 18409168809554949542
441001 317 18334296439969516368
474 4 17846779577030849642
5048184 11 18339077193773246233
5104073 3 18272656748891369786
633830 44 18201996608673978502
636775 72 17907012877950763956
7808743 9 18408323319441585217
9981440 41 18412545396689862851

> <PUBCHEM_SHAPE_MULTIPOLES>
368.07
11.07
2.52
0.95
8.6
0.51
0.1
5.24
-0.11
-2.74
0.02
0.22
0.14
-1.53

> <PUBCHEM_SHAPE_SELFOVERLAP>
795.951

> <PUBCHEM_SHAPE_VOLUME>
202.5

> <PUBCHEM_COORDINATE_TYPE>
2
5
10

$$$$

