11738
  -OEChem-06261206033D

 24 23  0     0  0  0  0  0  0999 V2000
   -1.0184   -0.1344   -0.0021 C   0  0  0  0  0  0  0  0  0  0  0  0
    0.4809    0.2641    0.0138 C   0  0  0  0  0  0  0  0  0  0  0  0
   -1.7130    0.4453   -1.2539 C   0  0  0  0  0  0  0  0  0  0  0  0
   -1.8170    0.3749    1.2226 C   0  0  0  0  0  0  0  0  0  0  0  0
   -1.1465   -1.6717   -0.0208 C   0  0  0  0  0  0  0  0  0  0  0  0
    0.7743    1.7492    0.0360 C   0  0  0  0  0  0  0  0  0  0  0  0
    1.4824   -0.6424    0.0002 C   0  0  0  0  0  0  0  0  0  0  0  0
    2.9572   -0.3850    0.0042 C   0  0  0  0  0  0  0  0  0  0  0  0
   -2.7332    0.0559   -1.3533 H   0  0  0  0  0  0  0  0  0  0  0  0
   -1.7903    1.5372   -1.2171 H   0  0  0  0  0  0  0  0  0  0  0  0
   -1.1695    0.1760   -2.1670 H   0  0  0  0  0  0  0  0  0  0  0  0
   -2.8559    0.0267    1.1969 H   0  0  0  0  0  0  0  0  0  0  0  0
   -1.8386    1.4695    1.2630 H   0  0  0  0  0  0  0  0  0  0  0  0
   -1.3666    0.0185    2.1560 H   0  0  0  0  0  0  0  0  0  0  0  0
   -0.6976   -2.1148   -0.9177 H   0  0  0  0  0  0  0  0  0  0  0  0
   -2.2038   -1.9665   -0.0369 H   0  0  0  0  0  0  0  0  0  0  0  0
   -0.7128   -2.1365    0.8725 H   0  0  0  0  0  0  0  0  0  0  0  0
    0.2741    2.2583   -0.7926 H   0  0  0  0  0  0  0  0  0  0  0  0
    0.4259    2.1898    0.9753 H   0  0  0  0  0  0  0  0  0  0  0  0
    1.8331    1.9955   -0.0636 H   0  0  0  0  0  0  0  0  0  0  0  0
    1.2702   -1.7058   -0.0351 H   0  0  0  0  0  0  0  0  0  0  0  0
    3.2354    0.5757    0.4415 H   0  0  0  0  0  0  0  0  0  0  0  0
    3.4549   -1.1533    0.6062 H   0  0  0  0  0  0  0  0  0  0  0  0
    3.3532   -0.4470   -1.0136 H   0  0  0  0  0  0  0  0  0  0  0  0
  1  2  1  0  0  0  0
  1  3  1  0  0  0  0
  1  4  1  0  0  0  0
  1  5  1  0  0  0  0
  2  6  1  0  0  0  0
  2  7  2  0  0  0  0
  3  9  1  0  0  0  0
  3 10  1  0  0  0  0
  3 11  1  0  0  0  0
  4 12  1  0  0  0  0
  4 13  1  0  0  0  0
  4 14  1  0  0  0  0
  5 15  1  0  0  0  0
  5 16  1  0  0  0  0
  5 17  1  0  0  0  0
  6 18  1  0  0  0  0
  6 19  1  0  0  0  0
  6 20  1  0  0  0  0
  7  8  1  0  0  0  0
  7 21  1  0  0  0  0
  8 22  1  0  0  0  0
  8 23  1  0  0  0  0
  8 24  1  0  0  0  0
M  END
> <PUBCHEM_COMPOUND_CID>
11738

> <PUBCHEM_CONFORMER_RMSD>
0.4

> <PUBCHEM_CONFORMER_DIVERSEORDER>
1

> <PUBCHEM_MMFF94_PARTIAL_CHARGES>
6
1 0.14
2 -0.28
21 0.15
6 0.14
7 -0.29
8 0.14

> <PUBCHEM_EFFECTIVE_ROTOR_COUNT>
1

> <PUBCHEM_PHARMACOPHORE_FEATURES>
3
1 6 hydrophobe
1 8 hydrophobe
4 1 3 4 5 hydrophobe

> <PUBCHEM_HEAVY_ATOM_COUNT>
8

> <PUBCHEM_ATOM_DEF_STEREO_COUNT>
0

> <PUBCHEM_ATOM_UDEF_STEREO_COUNT>
0

> <PUBCHEM_BOND_DEF_STEREO_COUNT>
0

> <PUBCHEM_BOND_UDEF_STEREO_COUNT>
1

> <PUBCHEM_ISOTOPIC_ATOM_COUNT>
0

> <PUBCHEM_COMPONENT_COUNT>
1

> <PUBCHEM_CACTVS_TAUTO_COUNT>
1

> <PUBCHEM_CONFORMER_ID>
00002DDA00000001

> <PUBCHEM_MMFF94_ENERGY>
19.3351

> <PUBCHEM_FEATURE_SELFOVERLAP>
15.225

> <PUBCHEM_SHAPE_FINGERPRINT>
12932764 1 18060699490205740882
15310529 11 16988835094894409430
16714656 1 18338512057755337118
21040471 1 18268154325699766238
23552423 10 18127129671662667478
24536 1 18114184077385994931
29004967 10 18272079530887512592
369184 2 18342742944144614106
5084963 1 18270121193019508762

> <PUBCHEM_SHAPE_MULTIPOLES>
164.64
3.16
1.47
1
2.01
0.06
-0.02
-0.43
0.05
-0.05
0
-0.68
0.16
0.02

> <PUBCHEM_SHAPE_SELFOVERLAP>
300.29

> <PUBCHEM_SHAPE_VOLUME>
108.8

> <PUBCHEM_COORDINATE_TYPE>
2
5
10

$$$$

