12250
  -OEChem-06261206433D

 18 17  0     0  0  0  0  0  0999 V2000
    1.3981   -0.2838   -0.2896 O   0  0  0  0  0  0  0  0  0  0  0  0
   -1.0019    0.0106   -0.3271 C   0  0  0  0  0  0  0  0  0  0  0  0
    0.3422    0.5495    0.1704 C   0  0  0  0  0  0  0  0  0  0  0  0
   -1.2650   -1.4021    0.1988 C   0  0  0  0  0  0  0  0  0  0  0  0
   -2.1359    0.9486    0.0810 C   0  0  0  0  0  0  0  0  0  0  0  0
    2.6626    0.1772    0.1665 C   0  0  0  0  0  0  0  0  0  0  0  0
   -0.9701   -0.0481   -1.4225 H   0  0  0  0  0  0  0  0  0  0  0  0
    0.4972    1.5664   -0.2102 H   0  0  0  0  0  0  0  0  0  0  0  0
    0.3541    0.5848    1.2669 H   0  0  0  0  0  0  0  0  0  0  0  0
   -2.2298   -1.7757   -0.1606 H   0  0  0  0  0  0  0  0  0  0  0  0
   -1.2821   -1.4208    1.2938 H   0  0  0  0  0  0  0  0  0  0  0  0
   -0.4936   -2.1011   -0.1404 H   0  0  0  0  0  0  0  0  0  0  0  0
   -3.0968    0.5854   -0.2985 H   0  0  0  0  0  0  0  0  0  0  0  0
   -1.9751    1.9529   -0.3252 H   0  0  0  0  0  0  0  0  0  0  0  0
   -2.2116    1.0315    1.1706 H   0  0  0  0  0  0  0  0  0  0  0  0
    3.4333   -0.4961   -0.2180 H   0  0  0  0  0  0  0  0  0  0  0  0
    2.7035    0.1659    1.2600 H   0  0  0  0  0  0  0  0  0  0  0  0
    2.8616    1.1858   -0.2083 H   0  0  0  0  0  0  0  0  0  0  0  0
  1  3  1  0  0  0  0
  1  6  1  0  0  0  0
  2  3  1  0  0  0  0
  2  4  1  0  0  0  0
  2  5  1  0  0  0  0
  2  7  1  0  0  0  0
  3  8  1  0  0  0  0
  3  9  1  0  0  0  0
  4 10  1  0  0  0  0
  4 11  1  0  0  0  0
  4 12  1  0  0  0  0
  5 13  1  0  0  0  0
  5 14  1  0  0  0  0
  5 15  1  0  0  0  0
  6 16  1  0  0  0  0
  6 17  1  0  0  0  0
  6 18  1  0  0  0  0
M  END
> <PUBCHEM_COMPOUND_CID>
12250

> <PUBCHEM_CONFORMER_RMSD>
0.4

> <PUBCHEM_CONFORMER_DIVERSEORDER>
1
2

> <PUBCHEM_MMFF94_PARTIAL_CHARGES>
3
1 -0.56
3 0.28
6 0.28

> <PUBCHEM_EFFECTIVE_ROTOR_COUNT>
2

> <PUBCHEM_PHARMACOPHORE_FEATURES>
2
1 1 acceptor
3 2 4 5 hydrophobe

> <PUBCHEM_HEAVY_ATOM_COUNT>
6

> <PUBCHEM_ATOM_DEF_STEREO_COUNT>
0

> <PUBCHEM_ATOM_UDEF_STEREO_COUNT>
0

> <PUBCHEM_BOND_DEF_STEREO_COUNT>
0

> <PUBCHEM_BOND_UDEF_STEREO_COUNT>
0

> <PUBCHEM_ISOTOPIC_ATOM_COUNT>
0

> <PUBCHEM_COMPONENT_COUNT>
1

> <PUBCHEM_CACTVS_TAUTO_COUNT>
1

> <PUBCHEM_CONFORMER_ID>
00002FDA00000001

> <PUBCHEM_MMFF94_ENERGY>
8.212

> <PUBCHEM_FEATURE_SELFOVERLAP>
10.148

> <PUBCHEM_SHAPE_FINGERPRINT>
139733 1 8934463803263326775
14390081 3 18040442087627709304
16714656 1 18343582970928066653
20096714 4 18411138086330311021
21040471 1 18339640160853789077
23552449 1 18335985263880881705
24536 1 18338529529476646916
29004967 10 17676481722868124794
5460574 1 10159695802451587308

> <PUBCHEM_SHAPE_MULTIPOLES>
117.61
3.36
1.17
0.65
1.94
0.3
-0.01
-0.46
-0.16
-0.72
-0.09
-0.02
0
0.06

> <PUBCHEM_SHAPE_SELFOVERLAP>
200.911

> <PUBCHEM_SHAPE_VOLUME>
80.7

> <PUBCHEM_COORDINATE_TYPE>
2
5
10

$$$$

