17396077
  -OEChem-06241222542D

 53 56  0     1  0  0  0  0  0999 V2000
    5.7175    2.0114    0.0000 S   0  0  0  0  0  0  0  0  0  0  0  0
    6.5310    0.1843    0.0000 O   0  0  0  0  0  0  0  0  0  0  0  0
    3.4782   -4.5536    0.0000 O   0  0  0  0  0  0  0  0  0  0  0  0
    5.8108    3.7909    0.0000 N   0  0  0  0  0  0  0  0  0  0  0  0
    5.1417    4.5341    0.0000 N   0  0  0  0  0  0  0  0  0  0  0  0
    4.4487   -2.0591    0.0000 N   0  0  0  0  0  0  0  0  0  0  0  0
    4.3326    3.1328    0.0000 N   0  0  0  0  0  0  0  0  0  0  0  0
    4.2281    4.1273    0.0000 N   0  0  0  0  0  0  0  0  0  0  0  0
    6.8053    3.8955    0.0000 C   0  0  0  0  0  0  0  0  0  0  0  0
    7.3053    4.7615    0.0000 C   0  0  0  0  0  0  0  0  0  0  0  0
    7.4744    3.1523    0.0000 C   0  0  0  0  0  0  0  0  0  0  0  0
    8.3880    3.5591    0.0000 C   0  0  0  0  0  0  0  0  0  0  0  0
    8.2835    4.5536    0.0000 C   0  0  0  0  0  0  0  0  0  0  0  0
    5.3108    2.9249    0.0000 C   0  0  0  0  0  0  0  0  0  0  0  0
    5.1297    1.2024    0.0000 C   0  0  3  0  0  0  0  0  0  0  0  0
    4.9487   -0.5202    0.0000 C   0  0  0  0  0  0  0  0  0  0  0  0
    5.2577   -1.4713    0.0000 C   0  0  0  0  0  0  0  0  0  0  0  0
    5.5365    0.2888    0.0000 C   0  0  0  0  0  0  0  0  0  0  0  0
    3.6397   -1.4713    0.0000 C   0  0  0  0  0  0  0  0  0  0  0  0
    3.9487   -0.5202    0.0000 C   0  0  0  0  0  0  0  0  0  0  0  0
    4.4487   -3.0591    0.0000 C   0  0  0  0  0  0  0  0  0  0  0  0
    4.1352    1.3069    0.0000 C   0  0  0  0  0  0  0  0  0  0  0  0
    6.2088   -1.7803    0.0000 C   0  0  0  0  0  0  0  0  0  0  0  0
    2.6886   -1.7803    0.0000 C   0  0  0  0  0  0  0  0  0  0  0  0
    3.5827   -3.5591    0.0000 C   0  0  0  0  0  0  0  0  0  0  0  0
    2.6691   -3.1523    0.0000 C   0  0  0  0  0  0  0  0  0  0  0  0
    2.0000   -3.8955    0.0000 C   0  0  0  0  0  0  0  0  0  0  0  0
    2.5000   -4.7615    0.0000 C   0  0  0  0  0  0  0  0  0  0  0  0
    6.4676    4.4154    0.0000 H   0  0  0  0  0  0  0  0  0  0  0  0
    6.9729    2.7879    0.0000 H   0  0  0  0  0  0  0  0  0  0  0  0
    7.7844    2.6154    0.0000 H   0  0  0  0  0  0  0  0  0  0  0  0
    7.4969    5.3511    0.0000 H   0  0  0  0  0  0  0  0  0  0  0  0
    6.7389    5.0137    0.0000 H   0  0  0  0  0  0  0  0  0  0  0  0
    8.5796    2.9694    0.0000 H   0  0  0  0  0  0  0  0  0  0  0  0
    8.9944    3.6880    0.0000 H   0  0  0  0  0  0  0  0  0  0  0  0
    8.9035    4.5536    0.0000 H   0  0  0  0  0  0  0  0  0  0  0  0
    8.3483    5.1702    0.0000 H   0  0  0  0  0  0  0  0  0  0  0  0
    4.8776    1.7688    0.0000 H   0  0  0  0  0  0  0  0  0  0  0  0
    3.5843   -0.0186    0.0000 H   0  0  0  0  0  0  0  0  0  0  0  0
    4.6608   -3.6417    0.0000 H   0  0  0  0  0  0  0  0  0  0  0  0
    5.0593   -2.9514    0.0000 H   0  0  0  0  0  0  0  0  0  0  0  0
    4.2000    1.9235    0.0000 H   0  0  0  0  0  0  0  0  0  0  0  0
    3.5186    1.3717    0.0000 H   0  0  0  0  0  0  0  0  0  0  0  0
    4.0704    0.6903    0.0000 H   0  0  0  0  0  0  0  0  0  0  0  0
    6.0172   -2.3699    0.0000 H   0  0  0  0  0  0  0  0  0  0  0  0
    6.7984   -1.9719    0.0000 H   0  0  0  0  0  0  0  0  0  0  0  0
    6.4004   -1.1906    0.0000 H   0  0  0  0  0  0  0  0  0  0  0  0
    2.4970   -1.1906    0.0000 H   0  0  0  0  0  0  0  0  0  0  0  0
    2.0990   -1.9719    0.0000 H   0  0  0  0  0  0  0  0  0  0  0  0
    2.8802   -2.3699    0.0000 H   0  0  0  0  0  0  0  0  0  0  0  0
    2.5402   -2.5459    0.0000 H   0  0  0  0  0  0  0  0  0  0  0  0
    1.3834   -3.8307    0.0000 H   0  0  0  0  0  0  0  0  0  0  0  0
    2.2478   -5.3279    0.0000 H   0  0  0  0  0  0  0  0  0  0  0  0
  1 14  1  0  0  0  0
  1 15  1  0  0  0  0
  2 18  2  0  0  0  0
  3 25  1  0  0  0  0
  3 28  1  0  0  0  0
  4  5  1  0  0  0  0
  4  9  1  0  0  0  0
  4 14  1  0  0  0  0
  5  8  2  0  0  0  0
  6 17  1  0  0  0  0
  6 19  1  0  0  0  0
  6 21  1  0  0  0  0
  7  8  1  0  0  0  0
  7 14  2  0  0  0  0
  9 10  1  0  0  0  0
  9 11  1  0  0  0  0
  9 29  1  0  0  0  0
 10 13  1  0  0  0  0
 10 32  1  0  0  0  0
 10 33  1  0  0  0  0
 11 12  1  0  0  0  0
 11 30  1  0  0  0  0
 11 31  1  0  0  0  0
 12 13  1  0  0  0  0
 12 34  1  0  0  0  0
 12 35  1  0  0  0  0
 13 36  1  0  0  0  0
 13 37  1  0  0  0  0
 15 18  1  0  0  0  0
 15 22  1  0  0  0  0
 15 38  1  0  0  0  0
 16 17  2  0  0  0  0
 16 18  1  0  0  0  0
 16 20  1  0  0  0  0
 17 23  1  0  0  0  0
 19 20  2  0  0  0  0
 19 24  1  0  0  0  0
 20 39  1  0  0  0  0
 21 25  1  0  0  0  0
 21 40  1  0  0  0  0
 21 41  1  0  0  0  0
 22 42  1  0  0  0  0
 22 43  1  0  0  0  0
 22 44  1  0  0  0  0
 23 45  1  0  0  0  0
 23 46  1  0  0  0  0
 23 47  1  0  0  0  0
 24 48  1  0  0  0  0
 24 49  1  0  0  0  0
 24 50  1  0  0  0  0
 25 26  2  0  0  0  0
 26 27  1  0  0  0  0
 26 51  1  0  0  0  0
 27 28  2  0  0  0  0
 27 52  1  0  0  0  0
 28 53  1  0  0  0  0
M  END
> <PUBCHEM_COMPOUND_CID>
17396077

> <PUBCHEM_COMPOUND_CANONICALIZED>
1

> <PUBCHEM_CACTVS_COMPLEXITY>
547

> <PUBCHEM_CACTVS_HBOND_ACCEPTOR>
6

> <PUBCHEM_CACTVS_HBOND_DONOR>
0

> <PUBCHEM_CACTVS_ROTATABLE_BOND>
7

> <PUBCHEM_CACTVS_SUBSKEYS>
AAADceB7sABAAAAAAAAAAAAAAAAAAeLEiAAAAAAAAAAAAAAB+AAAHgQIAAAADCzl3gazlJcMFEiqA6xy5ACCmCNlorAd2CG+bNiOJvrkvbuHGajkwBPY6ceckQIOAAAAAAAAAAAAAAAAAAAAAAAAAAAAAA==

> <PUBCHEM_IUPAC_OPENEYE_NAME>
2-(1-cyclopentyltetrazol-5-yl)sulfanyl-1-[1-(2-furylmethyl)-2,5-dimethyl-pyrrol-3-yl]propan-1-one

> <PUBCHEM_IUPAC_CAS_NAME>
2-[(1-cyclopentyl-5-tetrazolyl)thio]-1-[1-(2-furanylmethyl)-2,5-dimethyl-3-pyrrolyl]-1-propanone

> <PUBCHEM_IUPAC_NAME>
2-(1-cyclopentyltetrazol-5-yl)sulfanyl-1-[1-(furan-2-ylmethyl)-2,5-dimethylpyrrol-3-yl]propan-1-one

> <PUBCHEM_IUPAC_SYSTEMATIC_NAME>
2-[(1-cyclopentyl-1,2,3,4-tetrazol-5-yl)sulfanyl]-1-[1-(furan-2-ylmethyl)-2,5-dimethyl-pyrrol-3-yl]propan-1-one

> <PUBCHEM_IUPAC_TRADITIONAL_NAME>
2-[(1-cyclopentyltetrazol-5-yl)thio]-1-[1-(2-furfuryl)-2,5-dimethyl-pyrrol-3-yl]propan-1-one

> <PUBCHEM_IUPAC_INCHI>
InChI=1S/C20H25N5O2S/c1-13-11-18(14(2)24(13)12-17-9-6-10-27-17)19(26)15(3)28-20-21-22-23-25(20)16-7-4-5-8-16/h6,9-11,15-16H,4-5,7-8,12H2,1-3H3

> <PUBCHEM_IUPAC_INCHIKEY>
HALGKJHRZSKLSQ-UHFFFAOYSA-N

> <PUBCHEM_XLOGP3_AA>
3.6

> <PUBCHEM_EXACT_MASS>
399.172896

> <PUBCHEM_MOLECULAR_FORMULA>
C20H25N5O2S

> <PUBCHEM_MOLECULAR_WEIGHT>
399.5098

> <PUBCHEM_OPENEYE_CAN_SMILES>
CC1=CC(=C(N1CC2=CC=CO2)C)C(=O)C(C)SC3=NN=NN3C4CCCC4

> <PUBCHEM_OPENEYE_ISO_SMILES>
CC1=CC(=C(N1CC2=CC=CO2)C)C(=O)C(C)SC3=NN=NN3C4CCCC4

> <PUBCHEM_CACTVS_TPSA>
104

> <PUBCHEM_MONOISOTOPIC_WEIGHT>
399.172896

> <PUBCHEM_TOTAL_CHARGE>
0

> <PUBCHEM_HEAVY_ATOM_COUNT>
28

> <PUBCHEM_ATOM_DEF_STEREO_COUNT>
0

> <PUBCHEM_ATOM_UDEF_STEREO_COUNT>
1

> <PUBCHEM_BOND_DEF_STEREO_COUNT>
0

> <PUBCHEM_BOND_UDEF_STEREO_COUNT>
0

> <PUBCHEM_ISOTOPIC_ATOM_COUNT>
0

> <PUBCHEM_COMPONENT_COUNT>
1

> <PUBCHEM_CACTVS_TAUTO_COUNT>
2

> <PUBCHEM_COORDINATE_TYPE>
1
5
255

> <PUBCHEM_BONDANNOTATIONS>
15  22  3
16  17  8
16  20  8
19  20  8
25  26  8
26  27  8
27  28  8
3  25  8
3  28  8
4  14  8
4  5  8
5  8  8
6  17  8
6  19  8
7  14  8
7  8  8

$$$$

