13973
  -OEChem-06241222413D

 48 50  0     1  0  0  0  0  0999 V2000
    2.4025    1.6262    1.1173 O   0  0  0  0  0  0  0  0  0  0  0  0
    0.0411   -1.6068   -1.2114 O   0  0  0  0  0  0  0  0  0  0  0  0
   -2.0235    1.3384    1.7952 O   0  0  0  0  0  0  0  0  0  0  0  0
    1.2458   -0.1396    0.1137 N   0  0  0  0  0  0  0  0  0  0  0  0
   -1.1422   -0.1798    0.2284 N   0  0  0  0  0  0  0  0  0  0  0  0
    2.4725   -0.8404   -0.1806 C   0  0  0  0  0  0  0  0  0  0  0  0
    3.3305   -0.0410   -1.1648 C   0  0  0  0  0  0  0  0  0  0  0  0
    3.2397   -1.1434    1.1086 C   0  0  0  0  0  0  0  0  0  0  0  0
    4.6582   -0.7389   -1.4484 C   0  0  0  0  0  0  0  0  0  0  0  0
    4.5684   -1.8384    0.8226 C   0  0  0  0  0  0  0  0  0  0  0  0
    5.4204   -1.0418   -0.1616 C   0  0  0  0  0  0  0  0  0  0  0  0
    0.0578    1.8743    0.7858 C   0  0  1  0  0  0  0  0  0  0  0  0
    1.3536    1.1140    0.7262 C   0  0  0  0  0  0  0  0  0  0  0  0
    0.0395   -0.7254   -0.3453 C   0  0  0  0  0  0  0  0  0  0  0  0
   -0.1197    2.7001   -0.4852 C   0  0  0  0  0  0  0  0  0  0  0  0
   -1.1481    0.9969    0.9987 C   0  0  0  0  0  0  0  0  0  0  0  0
   -1.3313    3.6202   -0.3821 C   0  0  0  0  0  0  0  0  0  0  0  0
   -2.3927   -0.8883    0.0559 C   0  0  0  0  0  0  0  0  0  0  0  0
   -1.5234    4.4235   -1.6585 C   0  0  0  0  0  0  0  0  0  0  0  0
   -3.5890   -0.1811    0.0606 C   0  0  0  0  0  0  0  0  0  0  0  0
   -2.3834   -2.2676   -0.1131 C   0  0  0  0  0  0  0  0  0  0  0  0
   -4.7941   -0.8634   -0.1060 C   0  0  0  0  0  0  0  0  0  0  0  0
   -3.5886   -2.9499   -0.2799 C   0  0  0  0  0  0  0  0  0  0  0  0
   -4.7939   -2.2477   -0.2763 C   0  0  0  0  0  0  0  0  0  0  0  0
    2.2476   -1.8072   -0.6481 H   0  0  0  0  0  0  0  0  0  0  0  0
    3.5556    0.9681   -0.8062 H   0  0  0  0  0  0  0  0  0  0  0  0
    2.7839    0.0899   -2.1074 H   0  0  0  0  0  0  0  0  0  0  0  0
    2.6297   -1.7873    1.7550 H   0  0  0  0  0  0  0  0  0  0  0  0
    3.4650   -0.2544    1.7024 H   0  0  0  0  0  0  0  0  0  0  0  0
    5.2734   -0.1113   -2.1033 H   0  0  0  0  0  0  0  0  0  0  0  0
    4.4698   -1.6745   -1.9894 H   0  0  0  0  0  0  0  0  0  0  0  0
    4.3759   -2.8373    0.4118 H   0  0  0  0  0  0  0  0  0  0  0  0
    5.1207   -1.9812    1.7584 H   0  0  0  0  0  0  0  0  0  0  0  0
    6.3329   -1.6012   -0.3964 H   0  0  0  0  0  0  0  0  0  0  0  0
    5.7334   -0.1005    0.3066 H   0  0  0  0  0  0  0  0  0  0  0  0
    0.1289    2.5402    1.6567 H   0  0  0  0  0  0  0  0  0  0  0  0
   -0.2306    2.0469   -1.3603 H   0  0  0  0  0  0  0  0  0  0  0  0
    0.7811    3.3014   -0.6641 H   0  0  0  0  0  0  0  0  0  0  0  0
   -1.2090    4.3082    0.4624 H   0  0  0  0  0  0  0  0  0  0  0  0
   -2.2488    3.0494   -0.2077 H   0  0  0  0  0  0  0  0  0  0  0  0
   -0.6475    5.0465   -1.8658 H   0  0  0  0  0  0  0  0  0  0  0  0
   -1.6877    3.7641   -2.5168 H   0  0  0  0  0  0  0  0  0  0  0  0
   -2.3931    5.0816   -1.5650 H   0  0  0  0  0  0  0  0  0  0  0  0
   -3.6361    0.9005    0.1333 H   0  0  0  0  0  0  0  0  0  0  0  0
   -1.4822   -2.8687   -0.0553 H   0  0  0  0  0  0  0  0  0  0  0  0
   -5.7321   -0.3159   -0.1154 H   0  0  0  0  0  0  0  0  0  0  0  0
   -3.5905   -4.0297   -0.3975 H   0  0  0  0  0  0  0  0  0  0  0  0
   -5.7322   -2.7792   -0.4053 H   0  0  0  0  0  0  0  0  0  0  0  0
  1 13  2  0  0  0  0
  2 14  2  0  0  0  0
  3 16  2  0  0  0  0
  4  6  1  0  0  0  0
  4 13  1  0  0  0  0
  4 14  1  0  0  0  0
  5 14  1  0  0  0  0
  5 16  1  0  0  0  0
  5 18  1  0  0  0  0
  6  7  1  0  0  0  0
  6  8  1  0  0  0  0
  6 25  1  0  0  0  0
  7  9  1  0  0  0  0
  7 26  1  0  0  0  0
  7 27  1  0  0  0  0
  8 10  1  0  0  0  0
  8 28  1  0  0  0  0
  8 29  1  0  0  0  0
  9 11  1  0  0  0  0
  9 30  1  0  0  0  0
  9 31  1  0  0  0  0
 10 11  1  0  0  0  0
 10 32  1  0  0  0  0
 10 33  1  0  0  0  0
 11 34  1  0  0  0  0
 11 35  1  0  0  0  0
 12 13  1  0  0  0  0
 12 15  1  0  0  0  0
 12 16  1  0  0  0  0
 12 36  1  0  0  0  0
 15 17  1  0  0  0  0
 15 37  1  0  0  0  0
 15 38  1  0  0  0  0
 17 19  1  0  0  0  0
 17 39  1  0  0  0  0
 17 40  1  0  0  0  0
 18 20  2  0  0  0  0
 18 21  1  0  0  0  0
 19 41  1  0  0  0  0
 19 42  1  0  0  0  0
 19 43  1  0  0  0  0
 20 22  1  0  0  0  0
 20 44  1  0  0  0  0
 21 23  2  0  0  0  0
 21 45  1  0  0  0  0
 22 24  2  0  0  0  0
 22 46  1  0  0  0  0
 23 24  1  0  0  0  0
 23 47  1  0  0  0  0
 24 48  1  0  0  0  0
M  END
> <PUBCHEM_COMPOUND_CID>
13973

> <PUBCHEM_CONFORMER_RMSD>
0.8

> <PUBCHEM_CONFORMER_DIVERSEORDER>
1
8
3
11
12
9
7
4
6
2
5
10

> <PUBCHEM_MMFF94_PARTIAL_CHARGES>
21
1 -0.57
12 0.12
13 0.57
14 0.69
16 0.57
18 0.12
2 -0.57
20 -0.15
21 -0.15
22 -0.15
23 -0.15
24 -0.15
3 -0.57
4 -0.42
44 0.15
45 0.15
46 0.15
47 0.15
48 0.15
5 -0.24
6 0.3

> <PUBCHEM_EFFECTIVE_ROTOR_COUNT>
5.8

> <PUBCHEM_PHARMACOPHORE_FEATURES>
8
1 1 acceptor
1 12 anion
1 19 hydrophobe
1 2 acceptor
1 3 acceptor
6 18 20 21 22 23 24 rings
6 4 5 12 13 14 16 rings
6 6 7 8 9 10 11 rings

> <PUBCHEM_HEAVY_ATOM_COUNT>
24

> <PUBCHEM_ATOM_DEF_STEREO_COUNT>
0

> <PUBCHEM_ATOM_UDEF_STEREO_COUNT>
1

> <PUBCHEM_BOND_DEF_STEREO_COUNT>
0

> <PUBCHEM_BOND_UDEF_STEREO_COUNT>
0

> <PUBCHEM_ISOTOPIC_ATOM_COUNT>
0

> <PUBCHEM_COMPONENT_COUNT>
1

> <PUBCHEM_CACTVS_TAUTO_COUNT>
1

> <PUBCHEM_CONFORMER_ID>
0000369500000001

> <PUBCHEM_MMFF94_ENERGY>
66.6296

> <PUBCHEM_FEATURE_SELFOVERLAP>
40.594

> <PUBCHEM_SHAPE_FINGERPRINT>
11045515 52 18201719535579713045
11578080 2 18129121007991961644
12236239 1 18343861135123607390
12553582 1 18411697673282538115
12714826 92 18261677068604537080
12788726 201 18201162164509007170
13004483 165 18412272730700884523
13009979 54 18115289095752766625
13052359 8 18051705630597396228
13140716 1 18260266334898257793
13583140 156 17970651777330248402
13899415 180 18266757812978526055
15664445 248 18052815849969590300
16752209 62 18268720582983753514
17357779 13 18187375341164169565
17492 89 17976543806466843863
17539 30 18339933717769091781
1813 80 18337386045968316023
18222031 100 18040718022017720743
200 152 17775281681840872178
20600515 1 18041262301932441711
20691752 17 18271517616116499848
20739085 24 18191286213993314315
21033648 29 16153717569336365250
21267235 1 18261101938245813691
21285901 2 18114730629149408967
22182313 1 18115892796329940544
22907989 373 18339923830622702804
23366157 5 17837496250160288703
23402539 116 18333453161986004815
23419403 2 14929921437580305527
23557571 272 17823405162647069294
23559900 14 18263933141990108659
23598288 3 17914604201604726376
3004659 81 18272089383748848006
335352 9 18334011692860943359
4409770 3 18126013890989184669
5104073 3 17969498213455059659
633830 44 10087383117832362291
7164475 11 18270962461744796862
7237137 82 18272086140705414716
8863177 126 17983566408845546851
9709674 26 17979357452437677611

> <PUBCHEM_SHAPE_MULTIPOLES>
466.34
9.39
4.08
1.27
4.69
4.81
-0.01
-8.74
-1.14
-3.96
-1.39
0.6
0.54
-0.04

> <PUBCHEM_SHAPE_SELFOVERLAP>
989.073

> <PUBCHEM_SHAPE_VOLUME>
255.8

> <PUBCHEM_COORDINATE_TYPE>
2
5
10

$$$$

