6538
  -OEChem-06261201223D

 35 34  0     1  0  0  0  0  0999 V2000
   -2.7050   -2.8944    0.6644 Cl  0  0  0  0  0  0  0  0  0  0  0  0
    4.9064   -0.4703   -0.1109 Cl  0  0  0  0  0  0  0  0  0  0  0  0
   -2.2666    1.2539   -2.0053 Cl  0  0  0  0  0  0  0  0  0  0  0  0
   -1.2072   -3.6734   -2.2185 Cl  0  0  0  0  0  0  0  0  0  0  0  0
    1.9918    1.9931   -2.2606 Cl  0  0  0  0  0  0  0  0  0  0  0  0
   -4.6990    2.0617    0.1377 Cl  0  0  0  0  0  0  0  0  0  0  0  0
    0.5835    0.3047    1.5725 P   0  0  0  0  0  0  0  0  0  0  0  0
   -0.1379   -1.1451    1.5090 O   0  0  0  0  0  0  0  0  0  0  0  0
    2.0516    0.0542    0.9343 O   0  0  0  0  0  0  0  0  0  0  0  0
   -0.1642    1.1787    0.4314 O   0  0  0  0  0  0  0  0  0  0  0  0
    0.5933    0.9341    2.9368 O   0  0  0  0  0  0  0  0  0  0  0  0
   -0.2159   -1.8482    0.2807 C   0  0  0  0  0  0  0  0  0  0  0  0
    2.8972    1.1726    0.7266 C   0  0  0  0  0  0  0  0  0  0  0  0
   -1.5348    1.4919    0.6111 C   0  0  0  0  0  0  0  0  0  0  0  0
   -0.9393   -3.1763    0.4981 C   0  0  2  0  0  0  0  0  0  0  0  0
    3.8106    0.9065   -0.4689 C   0  0  2  0  0  0  0  0  0  0  0  0
   -2.0299    2.3157   -0.5766 C   0  0  2  0  0  0  0  0  0  0  0  0
   -0.6745   -4.2043   -0.6033 C   0  0  0  0  0  0  0  0  0  0  0  0
    3.0526    0.6475   -1.7721 C   0  0  0  0  0  0  0  0  0  0  0  0
   -3.3125    3.0973   -0.2866 C   0  0  0  0  0  0  0  0  0  0  0  0
   -0.7149   -1.2314   -0.4729 H   0  0  0  0  0  0  0  0  0  0  0  0
    0.8076   -2.0379   -0.0602 H   0  0  0  0  0  0  0  0  0  0  0  0
    3.4875    1.3262    1.6368 H   0  0  0  0  0  0  0  0  0  0  0  0
    2.3032    2.0792    0.5727 H   0  0  0  0  0  0  0  0  0  0  0  0
   -2.1128    0.5709    0.7406 H   0  0  0  0  0  0  0  0  0  0  0  0
   -1.6205    2.0785    1.5324 H   0  0  0  0  0  0  0  0  0  0  0  0
   -0.6247   -3.6056    1.4560 H   0  0  0  0  0  0  0  0  0  0  0  0
    4.4654    1.7747   -0.6037 H   0  0  0  0  0  0  0  0  0  0  0  0
   -1.2500    3.0264   -0.8723 H   0  0  0  0  0  0  0  0  0  0  0  0
   -1.1884   -5.1465   -0.3858 H   0  0  0  0  0  0  0  0  0  0  0  0
    0.3965   -4.4204   -0.6720 H   0  0  0  0  0  0  0  0  0  0  0  0
    2.4230   -0.2454   -1.6966 H   0  0  0  0  0  0  0  0  0  0  0  0
    3.7551    0.4874   -2.5966 H   0  0  0  0  0  0  0  0  0  0  0  0
   -3.6077    3.6941   -1.1559 H   0  0  0  0  0  0  0  0  0  0  0  0
   -3.1569    3.7862    0.5497 H   0  0  0  0  0  0  0  0  0  0  0  0
  1 15  1  0  0  0  0
  2 16  1  0  0  0  0
  3 17  1  0  0  0  0
  4 18  1  0  0  0  0
  5 19  1  0  0  0  0
  6 20  1  0  0  0  0
  7  8  1  0  0  0  0
  7  9  1  0  0  0  0
  7 10  1  0  0  0  0
  7 11  2  0  0  0  0
  8 12  1  0  0  0  0
  9 13  1  0  0  0  0
 10 14  1  0  0  0  0
 12 15  1  0  0  0  0
 12 21  1  0  0  0  0
 12 22  1  0  0  0  0
 13 16  1  0  0  0  0
 13 23  1  0  0  0  0
 13 24  1  0  0  0  0
 14 17  1  0  0  0  0
 14 25  1  0  0  0  0
 14 26  1  0  0  0  0
 15 18  1  0  0  0  0
 15 27  1  0  0  0  0
 16 19  1  0  0  0  0
 16 28  1  0  0  0  0
 17 20  1  0  0  0  0
 17 29  1  0  0  0  0
 18 30  1  0  0  0  0
 18 31  1  0  0  0  0
 19 32  1  0  0  0  0
 19 33  1  0  0  0  0
 20 34  1  0  0  0  0
 20 35  1  0  0  0  0
M  END
> <PUBCHEM_COMPOUND_CID>
6538

> <PUBCHEM_CONFORMER_RMSD>
1.2

> <PUBCHEM_CONFORMER_DIVERSEORDER>
1
68
108
50
42
33
74
47
44
116
73
63
24
51
40
6
43
131
122
35
95
113
39
75
77
119
107
99
109
104
105
125
94
124
36
57
61
97
114
115
23
58
76
100
22
129
54
45
11
123
56
46
14
121
41
10
87
85
30
28
120
86
12
81
111
89
82
38
66
90
8
80
106
118
59
70
20
62
67
88
69
31
112
34
127
93
32
72
117
130
91
26
27
29
110
64
49
21
55
25
37
2
18
92
5
65
15
60
98
53
9
101
3
126
128
19
84
103
48
102
79
16
96
71
17
83
52
7
13
78
4

> <PUBCHEM_MMFF94_PARTIAL_CHARGES>
20
1 -0.29
10 -0.55
11 -0.7
12 0.28
13 0.28
14 0.28
15 0.29
16 0.29
17 0.29
18 0.29
19 0.29
2 -0.29
20 0.29
3 -0.29
4 -0.29
5 -0.29
6 -0.29
7 1.51
8 -0.55
9 -0.55

> <PUBCHEM_EFFECTIVE_ROTOR_COUNT>
12

> <PUBCHEM_PHARMACOPHORE_FEATURES>
1
1 11 acceptor

> <PUBCHEM_HEAVY_ATOM_COUNT>
20

> <PUBCHEM_ATOM_DEF_STEREO_COUNT>
0

> <PUBCHEM_ATOM_UDEF_STEREO_COUNT>
3

> <PUBCHEM_BOND_DEF_STEREO_COUNT>
0

> <PUBCHEM_BOND_UDEF_STEREO_COUNT>
0

> <PUBCHEM_ISOTOPIC_ATOM_COUNT>
0

> <PUBCHEM_COMPONENT_COUNT>
1

> <PUBCHEM_CACTVS_TAUTO_COUNT>
1

> <PUBCHEM_CONFORMER_ID>
0000198A00000001

> <PUBCHEM_MMFF94_ENERGY>
20.0595

> <PUBCHEM_FEATURE_SELFOVERLAP>
5.074

> <PUBCHEM_SHAPE_FINGERPRINT>
11488393 25 17980181300036764923
11578080 2 18116993287136602456
12788726 201 17983559828421807660
13681431 1 17256810521047136627
14004458 79 18122621656756123684
14251757 17 16370728149440460933
14863182 85 17610367182410027091
15502722 9 17907857649812033713
20600515 1 17326328827757367698
20602899 9 18188483691871453664
21285901 2 18044352977510480375
21524375 3 17774431793411919344
22620623 9 18263635173969391302
23419403 2 17387136355984499864
23557571 272 17981056210612894008
23598288 3 18058431132902869642
26353 1 17617084816039702983
298252 57 18201996681240017008
3060560 45 18055638562494624444
6287921 2 17910106147091527277
6438718 38 17988064613718874492
7164475 11 18127684938241317204
81228 2 18056481638536072136

> <PUBCHEM_SHAPE_MULTIPOLES>
403.18
6.97
5.13
2.27
3.59
6.06
0.23
-5.04
1.18
-5.79
1.98
0.52
-0.11
-0.34

> <PUBCHEM_SHAPE_SELFOVERLAP>
693.128

> <PUBCHEM_SHAPE_VOLUME>
272.5

> <PUBCHEM_COORDINATE_TYPE>
2
5
10

$$$$

