12787
  -OEChem-06261207223D

 19 19  0     0  0  0  0  0  0999 V2000
    2.3924   -1.1142   -0.0006 O   0  0  0  0  0  0  0  0  0  0  0  0
   -2.3922   -1.1143   -0.0001 O   0  0  0  0  0  0  0  0  0  0  0  0
   -2.3806    1.6506   -0.0003 O   0  0  0  0  0  0  0  0  0  0  0  0
    2.3804    1.6509    0.0000 O   0  0  0  0  0  0  0  0  0  0  0  0
    0.0000   -1.1354    0.0002 C   0  0  0  0  0  0  0  0  0  0  0  0
    1.2081   -0.4378    0.0002 C   0  0  0  0  0  0  0  0  0  0  0  0
   -1.2080   -0.4379    0.0001 C   0  0  0  0  0  0  0  0  0  0  0  0
   -1.2080    0.9570    0.0001 C   0  0  0  0  0  0  0  0  0  0  0  0
    1.2078    0.9571    0.0002 C   0  0  0  0  0  0  0  0  0  0  0  0
   -0.0001    1.6545    0.0002 C   0  0  0  0  0  0  0  0  0  0  0  0
    0.0001   -2.6307    0.0002 C   0  0  0  0  0  0  0  0  0  0  0  0
   -0.0079    2.7418    0.0001 H   0  0  0  0  0  0  0  0  0  0  0  0
   -0.5025   -3.0129   -0.8950 H   0  0  0  0  0  0  0  0  0  0  0  0
    1.0070   -3.0595    0.0008 H   0  0  0  0  0  0  0  0  0  0  0  0
   -0.5037   -3.0130    0.8945 H   0  0  0  0  0  0  0  0  0  0  0  0
    3.1174   -0.4651   -0.0006 H   0  0  0  0  0  0  0  0  0  0  0  0
   -2.2541   -2.0737   -0.0008 H   0  0  0  0  0  0  0  0  0  0  0  0
   -3.1140    1.0112   -0.0004 H   0  0  0  0  0  0  0  0  0  0  0  0
    2.1852    2.6038   -0.0001 H   0  0  0  0  0  0  0  0  0  0  0  0
  1  6  1  0  0  0  0
  1 16  1  0  0  0  0
  2  7  1  0  0  0  0
  2 17  1  0  0  0  0
  3  8  1  0  0  0  0
  3 18  1  0  0  0  0
  4  9  1  0  0  0  0
  4 19  1  0  0  0  0
  5  6  2  0  0  0  0
  5  7  1  0  0  0  0
  5 11  1  0  0  0  0
  6  9  1  0  0  0  0
  7  8  2  0  0  0  0
  8 10  1  0  0  0  0
  9 10  2  0  0  0  0
 10 12  1  0  0  0  0
 11 13  1  0  0  0  0
 11 14  1  0  0  0  0
 11 15  1  0  0  0  0
M  END
> <PUBCHEM_COMPOUND_CID>
12787

> <PUBCHEM_CONFORMER_RMSD>
0.4

> <PUBCHEM_CONFORMER_DIVERSEORDER>
1

> <PUBCHEM_MMFF94_PARTIAL_CHARGES>
16
1 -0.53
10 -0.15
11 0.14
12 0.15
16 0.45
17 0.45
18 0.45
19 0.45
2 -0.53
3 -0.53
4 -0.53
5 -0.14
6 0.08
7 0.08
8 0.08
9 0.08

> <PUBCHEM_EFFECTIVE_ROTOR_COUNT>
0

> <PUBCHEM_PHARMACOPHORE_FEATURES>
5
1 1 donor
1 2 donor
1 3 donor
1 4 donor
6 5 6 7 8 9 10 rings

> <PUBCHEM_HEAVY_ATOM_COUNT>
11

> <PUBCHEM_ATOM_DEF_STEREO_COUNT>
0

> <PUBCHEM_ATOM_UDEF_STEREO_COUNT>
0

> <PUBCHEM_BOND_DEF_STEREO_COUNT>
0

> <PUBCHEM_BOND_UDEF_STEREO_COUNT>
0

> <PUBCHEM_ISOTOPIC_ATOM_COUNT>
0

> <PUBCHEM_COMPONENT_COUNT>
1

> <PUBCHEM_CACTVS_TAUTO_COUNT>
25

> <PUBCHEM_CONFORMER_ID>
000031F300000001

> <PUBCHEM_MMFF94_ENERGY>
27.5473

> <PUBCHEM_FEATURE_SELFOVERLAP>
25.381

> <PUBCHEM_SHAPE_FINGERPRINT>
12423570 1 16166685462781973279
16945 1 18122343746454660041
18185500 45 18050288372935897163
193761 8 18410575084663247815
21040471 1 18338797814730214720
2334 1 18410855434358559397
23552423 10 18343018904246088638
241688 4 18411982493906539752
2748010 2 18411418410092269181
5084963 1 18186238428713331323
66348 1 18411702096971803943

> <PUBCHEM_SHAPE_MULTIPOLES>
202.9
2.82
2.49
0.58
0
0.78
0
-0.64
0
0
0
0
0.01
0

> <PUBCHEM_SHAPE_SELFOVERLAP>
430.839

> <PUBCHEM_SHAPE_VOLUME>
114.2

> <PUBCHEM_COORDINATE_TYPE>
2
5
10

$$$$

