13031
  -OEChem-06261207403D

 24 24  0     0  0  0  0  0  0999 V2000
    1.8939    0.2126   -1.3435 O   0  0  0  0  0  0  0  0  0  0  0  0
   -2.1114    1.2835   -0.3082 C   0  0  0  0  0  0  0  0  0  0  0  0
   -0.8007    1.2304    0.4815 C   0  0  0  0  0  0  0  0  0  0  0  0
   -2.9799    0.0650   -0.0194 C   0  0  0  0  0  0  0  0  0  0  0  0
   -0.1530   -0.1321    0.4860 C   0  0  0  0  0  0  0  0  0  0  0  0
   -2.2429   -1.2291   -0.3645 C   0  0  0  0  0  0  0  0  0  0  0  0
   -0.8118   -1.2337    0.0859 C   0  0  0  0  0  0  0  0  0  0  0  0
    1.2674   -0.1872    0.9651 C   0  0  0  0  0  0  0  0  0  0  0  0
    2.2396    0.0137   -0.1796 C   0  0  0  0  0  0  0  0  0  0  0  0
    3.6989   -0.0232    0.1966 C   0  0  0  0  0  0  0  0  0  0  0  0
   -2.6549    2.2019   -0.0589 H   0  0  0  0  0  0  0  0  0  0  0  0
   -1.8905    1.3261   -1.3825 H   0  0  0  0  0  0  0  0  0  0  0  0
   -0.9922    1.5254    1.5208 H   0  0  0  0  0  0  0  0  0  0  0  0
   -0.1132    1.9726    0.0587 H   0  0  0  0  0  0  0  0  0  0  0  0
   -3.9134    0.1223   -0.5903 H   0  0  0  0  0  0  0  0  0  0  0  0
   -3.2562    0.0592    1.0428 H   0  0  0  0  0  0  0  0  0  0  0  0
   -2.2635   -1.3895   -1.4490 H   0  0  0  0  0  0  0  0  0  0  0  0
   -2.7710   -2.0727    0.0945 H   0  0  0  0  0  0  0  0  0  0  0  0
   -0.3039   -2.1946    0.0832 H   0  0  0  0  0  0  0  0  0  0  0  0
    1.4801   -1.1620    1.4198 H   0  0  0  0  0  0  0  0  0  0  0  0
    1.4453    0.5795    1.7269 H   0  0  0  0  0  0  0  0  0  0  0  0
    3.9161    0.7831    0.9014 H   0  0  0  0  0  0  0  0  0  0  0  0
    4.3139    0.1128   -0.6974 H   0  0  0  0  0  0  0  0  0  0  0  0
    3.9381   -0.9911    0.6440 H   0  0  0  0  0  0  0  0  0  0  0  0
  1  9  2  0  0  0  0
  2  3  1  0  0  0  0
  2  4  1  0  0  0  0
  2 11  1  0  0  0  0
  2 12  1  0  0  0  0
  3  5  1  0  0  0  0
  3 13  1  0  0  0  0
  3 14  1  0  0  0  0
  4  6  1  0  0  0  0
  4 15  1  0  0  0  0
  4 16  1  0  0  0  0
  5  7  2  0  0  0  0
  5  8  1  0  0  0  0
  6  7  1  0  0  0  0
  6 17  1  0  0  0  0
  6 18  1  0  0  0  0
  7 19  1  0  0  0  0
  8  9  1  0  0  0  0
  8 20  1  0  0  0  0
  8 21  1  0  0  0  0
  9 10  1  0  0  0  0
 10 22  1  0  0  0  0
 10 23  1  0  0  0  0
 10 24  1  0  0  0  0
M  END
> <PUBCHEM_COMPOUND_CID>
13031

> <PUBCHEM_CONFORMER_RMSD>
0.6

> <PUBCHEM_CONFORMER_DIVERSEORDER>
1
3
2
7
6
8
5
4

> <PUBCHEM_MMFF94_PARTIAL_CHARGES>
9
1 -0.57
10 0.06
19 0.15
3 0.14
5 -0.28
6 0.14
7 -0.29
8 0.2
9 0.45

> <PUBCHEM_EFFECTIVE_ROTOR_COUNT>
2.8

> <PUBCHEM_PHARMACOPHORE_FEATURES>
2
1 1 acceptor
6 2 3 4 5 6 7 rings

> <PUBCHEM_HEAVY_ATOM_COUNT>
10

> <PUBCHEM_ATOM_DEF_STEREO_COUNT>
0

> <PUBCHEM_ATOM_UDEF_STEREO_COUNT>
0

> <PUBCHEM_BOND_DEF_STEREO_COUNT>
0

> <PUBCHEM_BOND_UDEF_STEREO_COUNT>
0

> <PUBCHEM_ISOTOPIC_ATOM_COUNT>
0

> <PUBCHEM_COMPONENT_COUNT>
1

> <PUBCHEM_CACTVS_TAUTO_COUNT>
5

> <PUBCHEM_CONFORMER_ID>
000032E700000001

> <PUBCHEM_MMFF94_ENERGY>
0.9419

> <PUBCHEM_FEATURE_SELFOVERLAP>
10.148

> <PUBCHEM_SHAPE_FINGERPRINT>
11062470 55 15646771193150926051
12716758 59 18334857259392500402
12897270 3 18334012791591654278
12932764 1 18409733962742165498
13024252 1 17632294571172493523
14325111 11 18340207487426318888
15310529 11 15213016089423767217
15775835 57 18130506434890661108
16945 1 18410300207151767459
20201158 50 17458061573220369734
20645464 45 17749683925526932707
20653085 51 17917699240731627156
21040471 1 18192723447478881793
21061003 4 16371002979912665402
21293036 1 18335709338381537293
23402539 116 18188221977865347668
23552423 10 18198910210192452345
23559900 14 18187652444623756482
2748010 2 17977401447057869939
29004967 10 16081087073715230442
3248919 1 17489868232782938826
369184 2 18408605863637980770
5084963 1 17561086907785502956
6333449 129 18259707795818252729

> <PUBCHEM_SHAPE_MULTIPOLES>
199.93
4.99
1.25
0.91
2.76
0.02
-0.09
0.03
-0.51
-0.94
-0.02
0.34
0.03
-0.09

> <PUBCHEM_SHAPE_SELFOVERLAP>
391.594

> <PUBCHEM_SHAPE_VOLUME>
119.2

> <PUBCHEM_COORDINATE_TYPE>
2
5
10

$$$$

