17395365
  -OEChem-06241222492D

 40 43  0     0  0  0  0  0  0999 V2000
    7.1441    1.6166    0.0000 S   0  0  0  0  0  0  0  0  0  0  0  0
    3.7320    0.7046    0.0000 O   0  0  0  0  0  0  0  0  0  0  0  0
    2.0000   -2.2954    0.0000 O   0  0  0  0  0  0  0  0  0  0  0  0
    8.5278    2.7306    0.0000 O   0  0  0  0  0  0  0  0  0  0  0  0
    5.5443   -0.4907    0.0000 N   0  0  0  0  0  0  0  0  0  0  0  0
    3.7320   -2.2954    0.0000 N   0  0  0  0  0  0  0  0  0  0  0  0
    2.8660   -0.7954    0.0000 N   0  0  0  0  0  0  0  0  0  0  0  0
    5.5443   -2.1001    0.0000 N   0  0  0  0  0  0  0  0  0  0  0  0
    8.8596    1.1557    0.0000 N   0  0  0  0  0  0  0  0  0  0  0  0
    4.5981   -0.7954    0.0000 C   0  0  0  0  0  0  0  0  0  0  0  0
    4.5981   -1.7954    0.0000 C   0  0  0  0  0  0  0  0  0  0  0  0
    5.8550    0.4599    0.0000 C   0  0  0  0  0  0  0  0  0  0  0  0
    3.7320   -0.2954    0.0000 C   0  0  0  0  0  0  0  0  0  0  0  0
    6.1279   -1.2954    0.0000 C   0  0  0  0  0  0  0  0  0  0  0  0
    2.8660   -1.7954    0.0000 C   0  0  0  0  0  0  0  0  0  0  0  0
    6.8335    0.6661    0.0000 C   0  0  0  0  0  0  0  0  0  0  0  0
    3.7320   -3.2954    0.0000 C   0  0  0  0  0  0  0  0  0  0  0  0
    2.0000   -0.2954    0.0000 C   0  0  0  0  0  0  0  0  0  0  0  0
    8.1226    1.8228    0.0000 C   0  0  0  0  0  0  0  0  0  0  0  0
    9.5165    2.6276    0.0000 C   0  0  0  0  0  0  0  0  0  0  0  0
    9.7227    1.6490    0.0000 C   0  0  0  0  0  0  0  0  0  0  0  0
   10.2608    3.2954    0.0000 C   0  0  0  0  0  0  0  0  0  0  0  0
   10.6732    1.3384    0.0000 C   0  0  0  0  0  0  0  0  0  0  0  0
   11.2113    2.9847    0.0000 C   0  0  0  0  0  0  0  0  0  0  0  0
   11.4175    2.0062    0.0000 C   0  0  0  0  0  0  0  0  0  0  0  0
    5.8344    1.0795    0.0000 H   0  0  0  0  0  0  0  0  0  0  0  0
    5.2411    0.5472    0.0000 H   0  0  0  0  0  0  0  0  0  0  0  0
    6.7479   -1.2954    0.0000 H   0  0  0  0  0  0  0  0  0  0  0  0
    6.8540    0.0464    0.0000 H   0  0  0  0  0  0  0  0  0  0  0  0
    7.4473    0.5787    0.0000 H   0  0  0  0  0  0  0  0  0  0  0  0
    3.1120   -3.2954    0.0000 H   0  0  0  0  0  0  0  0  0  0  0  0
    3.7320   -3.9154    0.0000 H   0  0  0  0  0  0  0  0  0  0  0  0
    4.3520   -3.2954    0.0000 H   0  0  0  0  0  0  0  0  0  0  0  0
    2.3100    0.2415    0.0000 H   0  0  0  0  0  0  0  0  0  0  0  0
    1.4631    0.0146    0.0000 H   0  0  0  0  0  0  0  0  0  0  0  0
    1.6900   -0.8323    0.0000 H   0  0  0  0  0  0  0  0  0  0  0  0
   10.1329    3.9021    0.0000 H   0  0  0  0  0  0  0  0  0  0  0  0
   10.8011    0.7317    0.0000 H   0  0  0  0  0  0  0  0  0  0  0  0
   11.6728    3.3988    0.0000 H   0  0  0  0  0  0  0  0  0  0  0  0
   12.0068    1.8136    0.0000 H   0  0  0  0  0  0  0  0  0  0  0  0
  1 16  1  0  0  0  0
  1 19  1  0  0  0  0
  2 13  2  0  0  0  0
  3 15  2  0  0  0  0
  4 19  1  0  0  0  0
  4 20  1  0  0  0  0
  5 10  1  0  0  0  0
  5 12  1  0  0  0  0
  5 14  1  0  0  0  0
  6 11  1  0  0  0  0
  6 15  1  0  0  0  0
  6 17  1  0  0  0  0
  7 13  1  0  0  0  0
  7 15  1  0  0  0  0
  7 18  1  0  0  0  0
  8 11  1  0  0  0  0
  8 14  2  0  0  0  0
  9 19  2  0  0  0  0
  9 21  1  0  0  0  0
 10 11  2  0  0  0  0
 10 13  1  0  0  0  0
 12 16  1  0  0  0  0
 12 26  1  0  0  0  0
 12 27  1  0  0  0  0
 14 28  1  0  0  0  0
 16 29  1  0  0  0  0
 16 30  1  0  0  0  0
 17 31  1  0  0  0  0
 17 32  1  0  0  0  0
 17 33  1  0  0  0  0
 18 34  1  0  0  0  0
 18 35  1  0  0  0  0
 18 36  1  0  0  0  0
 20 21  1  0  0  0  0
 20 22  2  0  0  0  0
 21 23  2  0  0  0  0
 22 24  1  0  0  0  0
 22 37  1  0  0  0  0
 23 25  1  0  0  0  0
 23 38  1  0  0  0  0
 24 25  2  0  0  0  0
 24 39  1  0  0  0  0
 25 40  1  0  0  0  0
M  END
> <PUBCHEM_COMPOUND_CID>
17395365

> <PUBCHEM_COMPOUND_CANONICALIZED>
1

> <PUBCHEM_CACTVS_COMPLEXITY>
550

> <PUBCHEM_CACTVS_HBOND_ACCEPTOR>
6

> <PUBCHEM_CACTVS_HBOND_DONOR>
0

> <PUBCHEM_CACTVS_ROTATABLE_BOND>
4

> <PUBCHEM_CACTVS_SUBSKEYS>
AAADccB7sABAAAAAAAAAAAAAAAAAAWLAAAA8QAAAAAAAAFgB/AAAHgQAAAAACAzF1gS39rcMFEioAadzdASC2C1/crAJ2CG/fNiObrrE/budMahsxzPY6eeYSAAAAAAAAAAAEAAAAAAAAAAgAAAAAAAAAA==

> <PUBCHEM_IUPAC_OPENEYE_NAME>
7-[2-(1,3-benzoxazol-2-ylsulfanyl)ethyl]-1,3-dimethyl-purine-2,6-dione

> <PUBCHEM_IUPAC_CAS_NAME>
7-[2-(1,3-benzoxazol-2-ylthio)ethyl]-1,3-dimethylpurine-2,6-dione

> <PUBCHEM_IUPAC_NAME>
7-[2-(1,3-benzoxazol-2-ylsulfanyl)ethyl]-1,3-dimethylpurine-2,6-dione

> <PUBCHEM_IUPAC_SYSTEMATIC_NAME>
7-[2-(1,3-benzoxazol-2-ylsulfanyl)ethyl]-1,3-dimethyl-purine-2,6-dione

> <PUBCHEM_IUPAC_TRADITIONAL_NAME>
7-[2-(1,3-benzoxazol-2-ylthio)ethyl]-1,3-dimethyl-xanthine

> <PUBCHEM_IUPAC_INCHI>
InChI=1S/C16H15N5O3S/c1-19-13-12(14(22)20(2)16(19)23)21(9-17-13)7-8-25-15-18-10-5-3-4-6-11(10)24-15/h3-6,9H,7-8H2,1-2H3

> <PUBCHEM_IUPAC_INCHIKEY>
MEPPQIKBVWMMAQ-UHFFFAOYSA-N

> <PUBCHEM_XLOGP3>
1.9

> <PUBCHEM_EXACT_MASS>
357.08956

> <PUBCHEM_MOLECULAR_FORMULA>
C16H15N5O3S

> <PUBCHEM_MOLECULAR_WEIGHT>
357.387

> <PUBCHEM_OPENEYE_CAN_SMILES>
CN1C2=C(C(=O)N(C1=O)C)N(C=N2)CCSC3=NC4=CC=CC=C4O3

> <PUBCHEM_OPENEYE_ISO_SMILES>
CN1C2=C(C(=O)N(C1=O)C)N(C=N2)CCSC3=NC4=CC=CC=C4O3

> <PUBCHEM_CACTVS_TPSA>
110

> <PUBCHEM_MONOISOTOPIC_WEIGHT>
357.08956

> <PUBCHEM_TOTAL_CHARGE>
0

> <PUBCHEM_HEAVY_ATOM_COUNT>
25

> <PUBCHEM_ATOM_DEF_STEREO_COUNT>
0

> <PUBCHEM_ATOM_UDEF_STEREO_COUNT>
0

> <PUBCHEM_BOND_DEF_STEREO_COUNT>
0

> <PUBCHEM_BOND_UDEF_STEREO_COUNT>
0

> <PUBCHEM_ISOTOPIC_ATOM_COUNT>
0

> <PUBCHEM_COMPONENT_COUNT>
1

> <PUBCHEM_CACTVS_TAUTO_COUNT>
1

> <PUBCHEM_COORDINATE_TYPE>
1
5
255

> <PUBCHEM_BONDANNOTATIONS>
10  11  8
10  13  8
20  21  8
20  22  8
21  23  8
22  24  8
23  25  8
24  25  8
4  19  8
4  20  8
5  10  8
5  14  8
6  11  8
6  15  8
7  13  8
7  15  8
8  11  8
8  14  8
9  19  8
9  21  8

$$$$

