12322
  -OEChem-06261206483D

 22 21  0     0  0  0  0  0  0999 V2000
    0.6476    0.3327    1.1478 C   0  0  0  0  0  0  0  0  0  0  0  0
   -0.6402   -0.5024    1.0913 C   0  0  0  0  0  0  0  0  0  0  0  0
    1.5640    0.1436   -0.0399 C   0  0  0  0  0  0  0  0  0  0  0  0
   -1.5677   -0.1390   -0.0461 C   0  0  0  0  0  0  0  0  0  0  0  0
    2.1368   -1.2283   -0.2511 C   0  0  0  0  0  0  0  0  0  0  0  0
   -2.0472    1.2827   -0.1109 C   0  0  0  0  0  0  0  0  0  0  0  0
    1.8796    1.1653   -0.8511 C   0  0  0  0  0  0  0  0  0  0  0  0
   -1.9729   -1.0546   -0.9400 C   0  0  0  0  0  0  0  0  0  0  0  0
    1.2027    0.0489    2.0517 H   0  0  0  0  0  0  0  0  0  0  0  0
    0.3987    1.3927    1.2829 H   0  0  0  0  0  0  0  0  0  0  0  0
   -0.3896   -1.5702    1.0648 H   0  0  0  0  0  0  0  0  0  0  0  0
   -1.1869   -0.3526    2.0317 H   0  0  0  0  0  0  0  0  0  0  0  0
    1.3506   -1.9417   -0.5155 H   0  0  0  0  0  0  0  0  0  0  0  0
    2.8789   -1.2431   -1.0567 H   0  0  0  0  0  0  0  0  0  0  0  0
    2.6339   -1.5773    0.6598 H   0  0  0  0  0  0  0  0  0  0  0  0
   -2.4774    1.5830    0.8500 H   0  0  0  0  0  0  0  0  0  0  0  0
   -1.2263    1.9630   -0.3548 H   0  0  0  0  0  0  0  0  0  0  0  0
   -2.8225    1.4181   -0.8728 H   0  0  0  0  0  0  0  0  0  0  0  0
    1.4765    2.1596   -0.6908 H   0  0  0  0  0  0  0  0  0  0  0  0
    2.5472    1.0307   -1.6956 H   0  0  0  0  0  0  0  0  0  0  0  0
   -1.6364   -2.0845   -0.8857 H   0  0  0  0  0  0  0  0  0  0  0  0
   -2.6483   -0.7949   -1.7484 H   0  0  0  0  0  0  0  0  0  0  0  0
  1  2  1  0  0  0  0
  1  3  1  0  0  0  0
  1  9  1  0  0  0  0
  1 10  1  0  0  0  0
  2  4  1  0  0  0  0
  2 11  1  0  0  0  0
  2 12  1  0  0  0  0
  3  5  1  0  0  0  0
  3  7  2  0  0  0  0
  4  6  1  0  0  0  0
  4  8  2  0  0  0  0
  5 13  1  0  0  0  0
  5 14  1  0  0  0  0
  5 15  1  0  0  0  0
  6 16  1  0  0  0  0
  6 17  1  0  0  0  0
  6 18  1  0  0  0  0
  7 19  1  0  0  0  0
  7 20  1  0  0  0  0
  8 21  1  0  0  0  0
  8 22  1  0  0  0  0
M  END
> <PUBCHEM_COMPOUND_CID>
12322

> <PUBCHEM_CONFORMER_RMSD>
0.6

> <PUBCHEM_CONFORMER_DIVERSEORDER>
1
3
6
2
5
4

> <PUBCHEM_MMFF94_PARTIAL_CHARGES>
12
1 0.14
19 0.15
2 0.14
20 0.15
21 0.15
22 0.15
3 -0.28
4 -0.28
5 0.14
6 0.14
7 -0.3
8 -0.3

> <PUBCHEM_EFFECTIVE_ROTOR_COUNT>
3

> <PUBCHEM_PHARMACOPHORE_FEATURES>
1
4 1 2 3 4 hydrophobe

> <PUBCHEM_HEAVY_ATOM_COUNT>
8

> <PUBCHEM_ATOM_DEF_STEREO_COUNT>
0

> <PUBCHEM_ATOM_UDEF_STEREO_COUNT>
0

> <PUBCHEM_BOND_DEF_STEREO_COUNT>
0

> <PUBCHEM_BOND_UDEF_STEREO_COUNT>
0

> <PUBCHEM_ISOTOPIC_ATOM_COUNT>
0

> <PUBCHEM_COMPONENT_COUNT>
1

> <PUBCHEM_CACTVS_TAUTO_COUNT>
1

> <PUBCHEM_CONFORMER_ID>
0000302200000001

> <PUBCHEM_MMFF94_ENERGY>
5.4592

> <PUBCHEM_FEATURE_SELFOVERLAP>
5.074

> <PUBCHEM_SHAPE_FINGERPRINT>
12897270 3 18193557770266112493
15310529 11 18336819818997091111
18185500 45 17822567308684941302
20096714 4 17203894058533144097
20651381 22 9438817483442132584
20653085 51 18270667792127620153
20711985 344 15865452043023999136
23235687 12 18410857676399871556
23552423 10 18411705404212958711
24536 1 18131354068166339192
29004967 10 14996282479075733026
5084963 1 18340490070631270393

> <PUBCHEM_SHAPE_MULTIPOLES>
164.64
3.36
1.37
1.14
0.02
0.07
0.17
-0.03
-0.94
0.02
-0.3
-0.02
-0.04
-0.29

> <PUBCHEM_SHAPE_SELFOVERLAP>
299.471

> <PUBCHEM_SHAPE_VOLUME>
107.3

> <PUBCHEM_COORDINATE_TYPE>
2
5
10

$$$$

