585218
  -OEChem-06241222453D

 28 29  0     0  0  0  0  0  0999 V2000
    1.6071    0.1529   -0.4258 Si  0  0  0  0  0  0  0  0  0  0  0  0
   -2.3912    0.5963    0.1384 N   0  3  0  0  0  0  0  0  0  0  0  0
    2.4395    1.0889    0.9926 C   0  0  0  0  0  0  0  0  0  0  0  0
    2.7792   -1.1094    0.3572 C   0  0  0  0  0  0  0  0  0  0  0  0
    3.6339    0.0897    0.8769 C   0  0  0  0  0  0  0  0  0  0  0  0
   -0.1872   -0.1949   -0.1801 C   0  0  0  0  0  0  0  0  0  0  0  0
    2.0973    0.6954   -2.0421 C   0  0  0  0  0  0  0  0  0  0  0  0
   -1.0859    0.8510   -0.0259 C   0  0  0  0  0  0  0  0  0  0  0  0
   -0.6684   -1.5006   -0.1606 C   0  0  0  0  0  0  0  0  0  0  0  0
   -2.0293   -1.7356    0.0114 C   0  0  0  0  0  0  0  0  0  0  0  0
   -2.8813   -0.6507    0.1610 C   0  0  0  0  0  0  0  0  0  0  0  0
   -3.3139    1.7169    0.2971 C   0  0  0  0  0  0  0  0  0  0  0  0
    1.8883    1.0174    1.9352 H   0  0  0  0  0  0  0  0  0  0  0  0
    2.6893    2.1339    0.7956 H   0  0  0  0  0  0  0  0  0  0  0  0
    3.2942   -1.7789   -0.3355 H   0  0  0  0  0  0  0  0  0  0  0  0
    2.3120   -1.6981    1.1526 H   0  0  0  0  0  0  0  0  0  0  0  0
    4.4160    0.4139    0.1731 H   0  0  0  0  0  0  0  0  0  0  0  0
    4.1446   -0.1062    1.8278 H   0  0  0  0  0  0  0  0  0  0  0  0
    3.1738    0.8811   -2.1224 H   0  0  0  0  0  0  0  0  0  0  0  0
    1.8558   -0.0375   -2.8195 H   0  0  0  0  0  0  0  0  0  0  0  0
    1.6046    1.6284   -2.3369 H   0  0  0  0  0  0  0  0  0  0  0  0
   -0.7959    1.8958   -0.0265 H   0  0  0  0  0  0  0  0  0  0  0  0
   -0.0052   -2.3539   -0.2815 H   0  0  0  0  0  0  0  0  0  0  0  0
   -2.4171   -2.7485    0.0288 H   0  0  0  0  0  0  0  0  0  0  0  0
   -3.9486   -0.7697    0.3036 H   0  0  0  0  0  0  0  0  0  0  0  0
   -2.9779    2.5525   -0.3234 H   0  0  0  0  0  0  0  0  0  0  0  0
   -4.3171    1.4225   -0.0227 H   0  0  0  0  0  0  0  0  0  0  0  0
   -3.3158    1.9971    1.3538 H   0  0  0  0  0  0  0  0  0  0  0  0
  1  3  1  0  0  0  0
  1  4  1  0  0  0  0
  1  6  1  0  0  0  0
  1  7  1  0  0  0  0
  2  8  1  0  0  0  0
  2 11  2  0  0  0  0
  2 12  1  0  0  0  0
  3  5  1  0  0  0  0
  3 13  1  0  0  0  0
  3 14  1  0  0  0  0
  4  5  1  0  0  0  0
  4 15  1  0  0  0  0
  4 16  1  0  0  0  0
  5 17  1  0  0  0  0
  5 18  1  0  0  0  0
  6  8  2  0  0  0  0
  6  9  1  0  0  0  0
  7 19  1  0  0  0  0
  7 20  1  0  0  0  0
  7 21  1  0  0  0  0
  8 22  1  0  0  0  0
  9 10  2  0  0  0  0
  9 23  1  0  0  0  0
 10 11  1  0  0  0  0
 10 24  1  0  0  0  0
 11 25  1  0  0  0  0
 12 26  1  0  0  0  0
 12 27  1  0  0  0  0
 12 28  1  0  0  0  0
M  CHG  1   2   1
M  END
> <PUBCHEM_COMPOUND_CID>
585218

> <PUBCHEM_CONFORMER_RMSD>
0.4

> <PUBCHEM_CONFORMER_DIVERSEORDER>
1
12
5
7
4
10
11
2
3
6
8
9

> <PUBCHEM_MMFF94_PARTIAL_CHARGES>
15
1 0.53
10 -0.15
11 0.21
12 0.49
2 -0.21
22 0.15
23 0.15
24 0.15
25 0.15
3 -0.11
4 -0.11
6 -0.22
7 -0.08
8 0.21
9 -0.15

> <PUBCHEM_EFFECTIVE_ROTOR_COUNT>
1.8

> <PUBCHEM_PHARMACOPHORE_FEATURES>
2
4 1 3 4 5 rings
6 2 6 8 9 10 11 rings

> <PUBCHEM_HEAVY_ATOM_COUNT>
12

> <PUBCHEM_ATOM_DEF_STEREO_COUNT>
0

> <PUBCHEM_ATOM_UDEF_STEREO_COUNT>
0

> <PUBCHEM_BOND_DEF_STEREO_COUNT>
0

> <PUBCHEM_BOND_UDEF_STEREO_COUNT>
0

> <PUBCHEM_ISOTOPIC_ATOM_COUNT>
0

> <PUBCHEM_COMPONENT_COUNT>
1

> <PUBCHEM_CACTVS_TAUTO_COUNT>
1

> <PUBCHEM_CONFORMER_ID>
0008EE0200000001

> <PUBCHEM_MMFF94_ENERGY>
35.5055

> <PUBCHEM_FEATURE_SELFOVERLAP>
10.149

> <PUBCHEM_SHAPE_FINGERPRINT>
10608611 8 18187653478877574536
107287 299 16370996352925833492
11031198 65 15213293089334601700
12251169 10 18411142415710067080
12326174 3 16153694466996839150
124424 183 17967540103203659768
12500047 106 18409455807796279826
12696612 119 18189901920190409848
12932764 1 18187353299181061511
13380535 76 18336830909109194479
13538477 17 18058441011169498735
13581323 91 18411984637158497786
14144814 61 18413672400444666474
14325111 11 18407763646336889225
15219456 202 17676201377494206350
15775835 57 18411417340787785448
15852999 172 15719685319921950790
16945 1 18266451023469860087
17357990 137 17988062465934455340
17804303 29 18337952415169749078
17834069 15 18339085989866242378
1813 80 17274260694789480170
18186145 218 17531515594380996153
18511873 20 18201439237307593912
18522853 266 18410853265584704414
19422 9 17846771884454207299
19786989 88 16443625675693120584
20201158 50 17603303765046463018
20279233 1 17749104495652101703
20361792 2 16558764416088031190
20510252 161 18187363216661182731
20559304 39 18200869569999032348
20645464 45 17894347765599564107
20645476 183 18058994112794623967
20711985 327 17346610651308506180
20715346 28 17530955861183908966
20871998 184 18114743703351805671
21524375 3 18266739272021290669
22445834 79 18202292411097040866
23402539 116 18188788175431093543
23419403 2 14809450959940794994
23463225 33 18272651272396557886
23552423 10 18060136509691994646
23557571 272 17749385914941943367
23559900 14 18187920742646181918
23598291 2 17775277266255471382
2748010 2 18265599056867352351
3248919 1 17846216609607447770
369184 2 18259990340199758475
474 4 16842742839152431244
5084963 1 17988929963397116110
6333449 129 18333455335196823131
69090 78 18041007232515043263
7364860 26 18044656648614458295
7615 1 17988078885546792805
77492 1 17846494794818330572
8030462 33 18271238301165349918
88987 49 18335974294497264028

> <PUBCHEM_SHAPE_MULTIPOLES>
260.19
5.82
1.66
1.18
0.58
0.18
-0.52
-0.92
1.28
1.09
0.1
-1.16
-0.32
-0.27

> <PUBCHEM_SHAPE_SELFOVERLAP>
523.083

> <PUBCHEM_SHAPE_VOLUME>
155.3

> <PUBCHEM_COORDINATE_TYPE>
2
5
10

$$$$

