17395895
  -OEChem-06241222532D

 43 44  0     1  0  0  0  0  0999 V2000
    2.0000   -4.0670    0.0000 F   0  0  0  0  0  0  0  0  0  0  0  0
    3.3660   -4.4330    0.0000 F   0  0  0  0  0  0  0  0  0  0  0  0
    2.3660   -2.7010    0.0000 F   0  0  0  0  0  0  0  0  0  0  0  0
    5.4641    0.9330    0.0000 O   0  0  0  0  0  0  0  0  0  0  0  0
    4.5981    4.4330    0.0000 O   0  0  0  0  0  0  0  0  0  0  0  0
    3.7320   -3.0670    0.0000 O   0  0  0  0  0  0  0  0  0  0  0  0
    3.7320    2.9330    0.0000 N   0  0  0  0  0  0  0  0  0  0  0  0
    3.7320    0.9330    0.0000 N   0  0  0  0  0  0  0  0  0  0  0  0
    5.4641    2.9330    0.0000 C   0  0  0  0  0  0  0  0  0  0  0  0
    6.3776    2.5263    0.0000 C   0  0  0  0  0  0  0  0  0  0  0  0
    5.5686    3.9275    0.0000 C   0  0  0  0  0  0  0  0  0  0  0  0
    7.0468    3.2694    0.0000 C   0  0  0  0  0  0  0  0  0  0  0  0
    6.5468    4.1354    0.0000 C   0  0  0  0  0  0  0  0  0  0  0  0
    4.5981    2.4330    0.0000 C   0  0  3  0  0  0  0  0  0  0  0  0
    4.5981    1.4330    0.0000 C   0  0  0  0  0  0  0  0  0  0  0  0
    3.7320    3.9330    0.0000 C   0  0  0  0  0  0  0  0  0  0  0  0
    3.7320   -0.0670    0.0000 C   0  0  0  0  0  0  0  0  0  0  0  0
    2.8660    4.4330    0.0000 C   0  0  0  0  0  0  0  0  0  0  0  0
    2.8660   -0.5670    0.0000 C   0  0  0  0  0  0  0  0  0  0  0  0
    4.5981   -0.5670    0.0000 C   0  0  0  0  0  0  0  0  0  0  0  0
    2.8660   -1.5670    0.0000 C   0  0  0  0  0  0  0  0  0  0  0  0
    4.5981   -1.5670    0.0000 C   0  0  0  0  0  0  0  0  0  0  0  0
    3.7320   -2.0670    0.0000 C   0  0  0  0  0  0  0  0  0  0  0  0
    2.8660   -3.5670    0.0000 C   0  0  0  0  0  0  0  0  0  0  0  0
    4.9441    3.2707    0.0000 H   0  0  0  0  0  0  0  0  0  0  0  0
    5.5038    4.5441    0.0000 H   0  0  0  0  0  0  0  0  0  0  0  0
    4.9486    3.9275    0.0000 H   0  0  0  0  0  0  0  0  0  0  0  0
    6.0677    1.9893    0.0000 H   0  0  0  0  0  0  0  0  0  0  0  0
    6.8792    2.1618    0.0000 H   0  0  0  0  0  0  0  0  0  0  0  0
    7.1132    4.3876    0.0000 H   0  0  0  0  0  0  0  0  0  0  0  0
    6.3552    4.7251    0.0000 H   0  0  0  0  0  0  0  0  0  0  0  0
    7.4616    2.8087    0.0000 H   0  0  0  0  0  0  0  0  0  0  0  0
    7.5484    3.6338    0.0000 H   0  0  0  0  0  0  0  0  0  0  0  0
    4.5981    3.0530    0.0000 H   0  0  0  0  0  0  0  0  0  0  0  0
    3.1951    2.6230    0.0000 H   0  0  0  0  0  0  0  0  0  0  0  0
    3.1951    1.2430    0.0000 H   0  0  0  0  0  0  0  0  0  0  0  0
    3.1760    4.9700    0.0000 H   0  0  0  0  0  0  0  0  0  0  0  0
    2.3291    4.7430    0.0000 H   0  0  0  0  0  0  0  0  0  0  0  0
    2.5560    3.8961    0.0000 H   0  0  0  0  0  0  0  0  0  0  0  0
    2.3291   -0.2570    0.0000 H   0  0  0  0  0  0  0  0  0  0  0  0
    5.1350   -0.2570    0.0000 H   0  0  0  0  0  0  0  0  0  0  0  0
    2.3291   -1.8770    0.0000 H   0  0  0  0  0  0  0  0  0  0  0  0
    5.1350   -1.8770    0.0000 H   0  0  0  0  0  0  0  0  0  0  0  0
  1 24  1  0  0  0  0
  2 24  1  0  0  0  0
  3 24  1  0  0  0  0
  4 15  2  0  0  0  0
  5 16  2  0  0  0  0
  6 23  1  0  0  0  0
  6 24  1  0  0  0  0
  7 14  1  0  0  0  0
  7 16  1  0  0  0  0
  7 35  1  0  0  0  0
  8 15  1  0  0  0  0
  8 17  1  0  0  0  0
  8 36  1  0  0  0  0
  9 10  1  0  0  0  0
  9 11  1  0  0  0  0
  9 14  1  0  0  0  0
  9 25  1  0  0  0  0
 10 12  1  0  0  0  0
 10 28  1  0  0  0  0
 10 29  1  0  0  0  0
 11 13  1  0  0  0  0
 11 26  1  0  0  0  0
 11 27  1  0  0  0  0
 12 13  1  0  0  0  0
 12 32  1  0  0  0  0
 12 33  1  0  0  0  0
 13 30  1  0  0  0  0
 13 31  1  0  0  0  0
 14 15  1  0  0  0  0
 14 34  1  0  0  0  0
 16 18  1  0  0  0  0
 17 19  2  0  0  0  0
 17 20  1  0  0  0  0
 18 37  1  0  0  0  0
 18 38  1  0  0  0  0
 18 39  1  0  0  0  0
 19 21  1  0  0  0  0
 19 40  1  0  0  0  0
 20 22  2  0  0  0  0
 20 41  1  0  0  0  0
 21 23  2  0  0  0  0
 21 42  1  0  0  0  0
 22 23  1  0  0  0  0
 22 43  1  0  0  0  0
M  END
> <PUBCHEM_COMPOUND_CID>
17395895

> <PUBCHEM_COMPOUND_CANONICALIZED>
1

> <PUBCHEM_CACTVS_COMPLEXITY>
442

> <PUBCHEM_CACTVS_HBOND_ACCEPTOR>
6

> <PUBCHEM_CACTVS_HBOND_DONOR>
2

> <PUBCHEM_CACTVS_ROTATABLE_BOND>
5

> <PUBCHEM_CACTVS_SUBSKEYS>
AAADceB7MYAAAAAAAAAAAAAAAAAAAYAAAAAwAAAAAAAAAAABAAAAHwAQAAAADSzBkBQyxoLABACIACVSUACCCAAhIgAIiIGObIgMZjLEsbuUMChk1hHI6Ae4yACOAEAAAAAAAAAAgAAAAAAAAAAAAAAAAA==

> <PUBCHEM_IUPAC_OPENEYE_NAME>
2-acetamido-2-cyclopentyl-N-[4-(trifluoromethoxy)phenyl]acetamide

> <PUBCHEM_IUPAC_CAS_NAME>
2-acetamido-2-cyclopentyl-N-[4-(trifluoromethoxy)phenyl]acetamide

> <PUBCHEM_IUPAC_NAME>
2-acetamido-2-cyclopentyl-N-[4-(trifluoromethoxy)phenyl]acetamide

> <PUBCHEM_IUPAC_SYSTEMATIC_NAME>
2-acetamido-2-cyclopentyl-N-[4-(trifluoromethyloxy)phenyl]ethanamide

> <PUBCHEM_IUPAC_TRADITIONAL_NAME>
2-acetamido-2-cyclopentyl-N-[4-(trifluoromethoxy)phenyl]acetamide

> <PUBCHEM_IUPAC_INCHI>
InChI=1S/C16H19F3N2O3/c1-10(22)20-14(11-4-2-3-5-11)15(23)21-12-6-8-13(9-7-12)24-16(17,18)19/h6-9,11,14H,2-5H2,1H3,(H,20,22)(H,21,23)

> <PUBCHEM_IUPAC_INCHIKEY>
AMQGUNQGGYBJPL-UHFFFAOYSA-N

> <PUBCHEM_XLOGP3_AA>
3.5

> <PUBCHEM_EXACT_MASS>
344.134777

> <PUBCHEM_MOLECULAR_FORMULA>
C16H19F3N2O3

> <PUBCHEM_MOLECULAR_WEIGHT>
344.32887

> <PUBCHEM_OPENEYE_CAN_SMILES>
CC(=O)NC(C1CCCC1)C(=O)NC2=CC=C(C=C2)OC(F)(F)F

> <PUBCHEM_OPENEYE_ISO_SMILES>
CC(=O)NC(C1CCCC1)C(=O)NC2=CC=C(C=C2)OC(F)(F)F

> <PUBCHEM_CACTVS_TPSA>
67.4

> <PUBCHEM_MONOISOTOPIC_WEIGHT>
344.134777

> <PUBCHEM_TOTAL_CHARGE>
0

> <PUBCHEM_HEAVY_ATOM_COUNT>
24

> <PUBCHEM_ATOM_DEF_STEREO_COUNT>
0

> <PUBCHEM_ATOM_UDEF_STEREO_COUNT>
1

> <PUBCHEM_BOND_DEF_STEREO_COUNT>
0

> <PUBCHEM_BOND_UDEF_STEREO_COUNT>
0

> <PUBCHEM_ISOTOPIC_ATOM_COUNT>
0

> <PUBCHEM_COMPONENT_COUNT>
1

> <PUBCHEM_CACTVS_TAUTO_COUNT>
6

> <PUBCHEM_COORDINATE_TYPE>
1
5
255

> <PUBCHEM_BONDANNOTATIONS>
14  15  3
17  19  8
17  20  8
19  21  8
20  22  8
21  23  8
22  23  8

$$$$

