6899
  -OEChem-06261201343D

 13 13  0     0  0  0  0  0  0999 V2000
   -2.7191   -0.8838    0.0001 Cl  0  0  0  0  0  0  0  0  0  0  0  0
    2.7193   -0.8835    0.0001 Cl  0  0  0  0  0  0  0  0  0  0  0  0
    0.0002   -2.1135   -0.0003 O   0  0  0  0  0  0  0  0  0  0  0  0
    0.0000   -0.7480    0.0002 C   0  0  0  0  0  0  0  0  0  0  0  0
   -1.2080   -0.0506    0.0000 C   0  0  0  0  0  0  0  0  0  0  0  0
    1.2080   -0.0506    0.0000 C   0  0  0  0  0  0  0  0  0  0  0  0
   -1.2081    1.3442   -0.0001 C   0  0  0  0  0  0  0  0  0  0  0  0
    1.2079    1.3442    0.0001 C   0  0  0  0  0  0  0  0  0  0  0  0
   -0.0001    2.0416   -0.0001 C   0  0  0  0  0  0  0  0  0  0  0  0
   -2.1409    1.9024   -0.0003 H   0  0  0  0  0  0  0  0  0  0  0  0
    2.1407    1.9025    0.0001 H   0  0  0  0  0  0  0  0  0  0  0  0
   -0.0001    3.1277   -0.0002 H   0  0  0  0  0  0  0  0  0  0  0  0
    0.9231   -2.4213   -0.0003 H   0  0  0  0  0  0  0  0  0  0  0  0
  1  5  1  0  0  0  0
  2  6  1  0  0  0  0
  3  4  1  0  0  0  0
  3 13  1  0  0  0  0
  4  5  2  0  0  0  0
  4  6  1  0  0  0  0
  5  7  1  0  0  0  0
  6  8  2  0  0  0  0
  7  9  2  0  0  0  0
  7 10  1  0  0  0  0
  8  9  1  0  0  0  0
  8 11  1  0  0  0  0
  9 12  1  0  0  0  0
M  END
> <PUBCHEM_COMPOUND_CID>
6899

> <PUBCHEM_CONFORMER_RMSD>
0.4

> <PUBCHEM_CONFORMER_DIVERSEORDER>
1

> <PUBCHEM_MMFF94_PARTIAL_CHARGES>
13
1 -0.18
10 0.15
11 0.15
12 0.15
13 0.45
2 -0.18
3 -0.53
4 0.08
5 0.18
6 0.18
7 -0.15
8 -0.15
9 -0.15

> <PUBCHEM_EFFECTIVE_ROTOR_COUNT>
0

> <PUBCHEM_PHARMACOPHORE_FEATURES>
2
1 3 donor
6 4 5 6 7 8 9 rings

> <PUBCHEM_HEAVY_ATOM_COUNT>
9

> <PUBCHEM_ATOM_DEF_STEREO_COUNT>
0

> <PUBCHEM_ATOM_UDEF_STEREO_COUNT>
0

> <PUBCHEM_BOND_DEF_STEREO_COUNT>
0

> <PUBCHEM_BOND_UDEF_STEREO_COUNT>
0

> <PUBCHEM_ISOTOPIC_ATOM_COUNT>
0

> <PUBCHEM_COMPONENT_COUNT>
1

> <PUBCHEM_CACTVS_TAUTO_COUNT>
2

> <PUBCHEM_CONFORMER_ID>
00001AF300000001

> <PUBCHEM_MMFF94_ENERGY>
18.1635

> <PUBCHEM_FEATURE_SELFOVERLAP>
10.148

> <PUBCHEM_SHAPE_FINGERPRINT>
12423570 1 6403775180306643824
16945 1 18410575093253065475
18185500 45 18266742569960068557
21040471 1 17834394519104906465
23552423 10 18055906839073900678
241688 4 18410855494488186337
2748010 2 18411144631691899077
29004967 10 18269836406855160649
5084963 1 18187082857938242226

> <PUBCHEM_SHAPE_MULTIPOLES>
183.09
3.08
2.1
0.62
0
0.35
0
-1.29
0
0
0
0
0.01
0

> <PUBCHEM_SHAPE_SELFOVERLAP>
364.508

> <PUBCHEM_SHAPE_VOLUME>
110.4

> <PUBCHEM_COORDINATE_TYPE>
2
5
10

$$$$

