47205689
  -OEChem-06241222593D

 32 32  0     0  0  0  0  0  0999 V2000
    3.1808   -2.3678    0.3825 F   0  0  0  0  0  0  0  0  0  0  0  0
    5.7601    1.5968    0.2753 F   0  0  0  0  0  0  0  0  0  0  0  0
   -3.3434   -0.4193    1.3749 O   0  0  0  0  0  0  0  0  0  0  0  0
   -0.6066    0.8206   -0.7101 O   0  0  0  0  0  0  0  0  0  0  0  0
   -2.7395   -0.8217   -0.8303 N   0  0  0  0  0  0  0  0  0  0  0  0
    0.8581   -0.9475   -0.2126 N   0  0  0  0  0  0  0  0  0  0  0  0
   -4.8609    0.2251   -0.3982 C   0  0  0  0  0  0  0  0  0  0  0  0
   -5.8030    0.7345    0.6887 C   0  0  0  0  0  0  0  0  0  0  0  0
   -3.5830   -0.3643    0.1716 C   0  0  0  0  0  0  0  0  0  0  0  0
   -1.4595   -1.4250   -0.5446 C   0  0  0  0  0  0  0  0  0  0  0  0
   -7.0885    1.2894    0.0972 C   0  0  0  0  0  0  0  0  0  0  0  0
   -0.3728   -0.3658   -0.5043 C   0  0  0  0  0  0  0  0  0  0  0  0
    2.1101   -0.3000   -0.0871 C   0  0  0  0  0  0  0  0  0  0  0  0
    3.2544   -1.0401    0.2107 C   0  0  0  0  0  0  0  0  0  0  0  0
    2.1989    1.0810   -0.2626 C   0  0  0  0  0  0  0  0  0  0  0  0
    4.4873   -0.3994    0.3327 C   0  0  0  0  0  0  0  0  0  0  0  0
    3.4318    1.7218   -0.1406 C   0  0  0  0  0  0  0  0  0  0  0  0
    4.5760    0.9815    0.1570 C   0  0  0  0  0  0  0  0  0  0  0  0
   -4.5898    1.0455   -1.0734 H   0  0  0  0  0  0  0  0  0  0  0  0
   -5.3589   -0.5504   -0.9924 H   0  0  0  0  0  0  0  0  0  0  0  0
   -5.3071    1.5158    1.2768 H   0  0  0  0  0  0  0  0  0  0  0  0
   -6.0475   -0.0780    1.3834 H   0  0  0  0  0  0  0  0  0  0  0  0
   -1.4997   -1.9475    0.4167 H   0  0  0  0  0  0  0  0  0  0  0  0
   -1.2415   -2.1409   -1.3429 H   0  0  0  0  0  0  0  0  0  0  0  0
   -3.0139   -0.7175   -1.8029 H   0  0  0  0  0  0  0  0  0  0  0  0
   -7.6256    0.5197   -0.4661 H   0  0  0  0  0  0  0  0  0  0  0  0
   -7.7476    1.6496    0.8933 H   0  0  0  0  0  0  0  0  0  0  0  0
   -6.8806    2.1267   -0.5767 H   0  0  0  0  0  0  0  0  0  0  0  0
    0.8807   -1.9551   -0.0699 H   0  0  0  0  0  0  0  0  0  0  0  0
    1.3601    1.7218   -0.4941 H   0  0  0  0  0  0  0  0  0  0  0  0
    5.3780   -0.9754    0.5647 H   0  0  0  0  0  0  0  0  0  0  0  0
    3.5027    2.7970   -0.2768 H   0  0  0  0  0  0  0  0  0  0  0  0
  1 14  1  0  0  0  0
  2 18  1  0  0  0  0
  3  9  2  0  0  0  0
  4 12  2  0  0  0  0
  5  9  1  0  0  0  0
  5 10  1  0  0  0  0
  5 25  1  0  0  0  0
  6 12  1  0  0  0  0
  6 13  1  0  0  0  0
  6 29  1  0  0  0  0
  7  8  1  0  0  0  0
  7  9  1  0  0  0  0
  7 19  1  0  0  0  0
  7 20  1  0  0  0  0
  8 11  1  0  0  0  0
  8 21  1  0  0  0  0
  8 22  1  0  0  0  0
 10 12  1  0  0  0  0
 10 23  1  0  0  0  0
 10 24  1  0  0  0  0
 11 26  1  0  0  0  0
 11 27  1  0  0  0  0
 11 28  1  0  0  0  0
 13 14  2  0  0  0  0
 13 15  1  0  0  0  0
 14 16  1  0  0  0  0
 15 17  2  0  0  0  0
 15 30  1  0  0  0  0
 16 18  2  0  0  0  0
 16 31  1  0  0  0  0
 17 18  1  0  0  0  0
 17 32  1  0  0  0  0
M  END
> <PUBCHEM_COMPOUND_CID>
47205689

> <PUBCHEM_CONFORMER_RMSD>
0.8

> <PUBCHEM_CONFORMER_DIVERSEORDER>
1
93
49
73
39
82
132
60
120
40
130
78
44
38
112
101
50
43
17
51
61
97
62
8
109
63
35
108
118
95
126
18
28
24
133
83
42
98
129
84
21
128
47
7
15
111
113
54
105
12
68
66
96
99
79
75
25
107
30
56
58
117
131
106
89
11
92
41
27
81
123
10
103
53
33
115
13
104
77
5
70
46
29
26
71
65
59
14
86
2
91
69
74
87
19
34
90
67
57
100
94
36
16
55
6
88
127
121
102
48
20
124
85
76
22
114
72
110
64
52
116
37
23
3
80
45
31
122
125
4
119
9
32

> <PUBCHEM_MMFF94_PARTIAL_CHARGES>
21
1 -0.19
10 0.36
12 0.57
13 0.12
14 0.19
15 -0.15
16 -0.15
17 -0.15
18 0.19
2 -0.19
25 0.37
29 0.37
3 -0.57
30 0.15
31 0.15
32 0.15
4 -0.57
5 -0.73
6 -0.55
7 0.06
9 0.57

> <PUBCHEM_EFFECTIVE_ROTOR_COUNT>
7

> <PUBCHEM_PHARMACOPHORE_FEATURES>
6
1 11 hydrophobe
1 3 acceptor
1 4 acceptor
1 5 donor
1 6 donor
6 13 14 15 16 17 18 rings

> <PUBCHEM_HEAVY_ATOM_COUNT>
18

> <PUBCHEM_ATOM_DEF_STEREO_COUNT>
0

> <PUBCHEM_ATOM_UDEF_STEREO_COUNT>
0

> <PUBCHEM_BOND_DEF_STEREO_COUNT>
0

> <PUBCHEM_BOND_UDEF_STEREO_COUNT>
0

> <PUBCHEM_ISOTOPIC_ATOM_COUNT>
0

> <PUBCHEM_COMPONENT_COUNT>
1

> <PUBCHEM_CACTVS_TAUTO_COUNT>
4

> <PUBCHEM_CONFORMER_ID>
02D04D3900000001

> <PUBCHEM_MMFF94_ENERGY>
32.9926

> <PUBCHEM_FEATURE_SELFOVERLAP>
30.446

> <PUBCHEM_SHAPE_FINGERPRINT>
10354089 29 18412823573188945220
11089746 13 17822015276406511104
117890 112 18334013895662214337
12107183 9 17759519263359434315
12236239 1 18113621174809323143
12596602 18 18343298176558646491
13167372 99 18262235646582301961
13533116 47 17604149345397209399
13675066 3 17918273151789832031
13785724 45 17686617257018813311
14251764 18 18412545388747916645
14251764 75 16626561239460512716
14341114 176 18271803549121368725
14350574 20 8574714602577392833
15048467 5 18261112958693642665
15188451 53 16414622763077786915
15348495 7 17489016073017821905
15475509 35 16271379620608294074
20157964 124 18334293214929378327
20281389 69 18341612659741131757
20645477 70 18411144670716123446
20767249 213 18259703407057949921
21150785 3 5400797289131289384
21267235 1 18341613780759185986
212847 35 18113621196262826835
21637258 2 12967123879559906801
22950370 63 11239991257657366463
23402539 116 17168152234834922421
23402655 69 18261115128116169118
23557571 272 4895278092398989907
26918003 58 17846781784364361128
2767999 5 17749110015444849289
29717793 49 17385720322615422686
300161 21 18040157300983007559
312425 54 17203323434338315753
351380 180 18411698807707447713
351380 3 11887952138586898801
5104073 3 18270691852924738210
5374978 207 18272937141245988776
542803 24 17894632552233352487
5924683 9 17986948562620798563
602551 16 15769488725583424234
8272917 22 18335419097340178670

> <PUBCHEM_SHAPE_MULTIPOLES>
334.18
15.22
1.69
0.82
16.39
0.12
0.07
-7.01
2.63
-1.52
0.02
0.52
0.06
-0.4

> <PUBCHEM_SHAPE_SELFOVERLAP>
681.75

> <PUBCHEM_SHAPE_VOLUME>
193.3

> <PUBCHEM_COORDINATE_TYPE>
2
5
10

$$$$

