13443
  -OEChem-06261214173D

 27 28  0     1  0  0  0  0  0999 V2000
   -0.7068    2.1648    0.4604 O   0  0  0  0  0  0  0  0  0  0  0  0
   -3.6141    1.4994   -1.0837 O   0  0  0  0  0  0  0  0  0  0  0  0
   -0.6882   -1.2928    0.1263 N   0  0  2  0  0  0  0  0  0  0  0  0
    0.0270   -0.0903    0.2784 N   0  0  0  0  0  0  0  0  0  0  0  0
   -3.3310    1.0895    0.0498 N   0  0  0  0  0  0  0  0  0  0  0  0
   -2.0360   -0.9619   -0.0306 C   0  0  0  0  0  0  0  0  0  0  0  0
   -0.8931    0.9649    0.3353 C   0  0  0  0  0  0  0  0  0  0  0  0
   -2.2328    0.3577    0.0992 C   0  0  0  0  0  0  0  0  0  0  0  0
    1.4237    0.0171    0.0621 C   0  0  0  0  0  0  0  0  0  0  0  0
   -0.2892   -2.4425    0.9328 C   0  0  0  0  0  0  0  0  0  0  0  0
   -3.0597   -2.0246   -0.2623 C   0  0  0  0  0  0  0  0  0  0  0  0
    2.1165    1.1559    0.4844 C   0  0  0  0  0  0  0  0  0  0  0  0
    2.1190   -1.0156   -0.5746 C   0  0  0  0  0  0  0  0  0  0  0  0
    3.4912    1.2610    0.2722 C   0  0  0  0  0  0  0  0  0  0  0  0
    3.4937   -0.9106   -0.7866 C   0  0  0  0  0  0  0  0  0  0  0  0
    4.1797    0.2278   -0.3632 C   0  0  0  0  0  0  0  0  0  0  0  0
   -0.5842   -3.3716    0.4339 H   0  0  0  0  0  0  0  0  0  0  0  0
   -0.7783   -2.4078    1.9134 H   0  0  0  0  0  0  0  0  0  0  0  0
    0.7864   -2.4973    1.1168 H   0  0  0  0  0  0  0  0  0  0  0  0
   -3.1342   -2.6880    0.6051 H   0  0  0  0  0  0  0  0  0  0  0  0
   -2.7913   -2.6253   -1.1375 H   0  0  0  0  0  0  0  0  0  0  0  0
   -4.0535   -1.6034   -0.4440 H   0  0  0  0  0  0  0  0  0  0  0  0
    1.6235    1.9683    1.0083 H   0  0  0  0  0  0  0  0  0  0  0  0
    1.6172   -1.9013   -0.9536 H   0  0  0  0  0  0  0  0  0  0  0  0
    4.0270    2.1444    0.6074 H   0  0  0  0  0  0  0  0  0  0  0  0
    4.0290   -1.7112   -1.2889 H   0  0  0  0  0  0  0  0  0  0  0  0
    5.2499    0.3098   -0.5288 H   0  0  0  0  0  0  0  0  0  0  0  0
  1  7  2  0  0  0  0
  2  5  2  0  0  0  0
  3  4  1  0  0  0  0
  3  6  1  0  0  0  0
  3 10  1  0  0  0  0
  4  7  1  0  0  0  0
  4  9  1  0  0  0  0
  5  8  1  0  0  0  0
  6  8  2  0  0  0  0
  6 11  1  0  0  0  0
  7  8  1  0  0  0  0
  9 12  2  0  0  0  0
  9 13  1  0  0  0  0
 10 17  1  0  0  0  0
 10 18  1  0  0  0  0
 10 19  1  0  0  0  0
 11 20  1  0  0  0  0
 11 21  1  0  0  0  0
 11 22  1  0  0  0  0
 12 14  1  0  0  0  0
 12 23  1  0  0  0  0
 13 15  2  0  0  0  0
 13 24  1  0  0  0  0
 14 16  2  0  0  0  0
 14 25  1  0  0  0  0
 15 16  1  0  0  0  0
 15 26  1  0  0  0  0
 16 27  1  0  0  0  0
M  END
> <PUBCHEM_COMPOUND_CID>
13443

> <PUBCHEM_CONFORMER_RMSD>
0.6

> <PUBCHEM_CONFORMER_DIVERSEORDER>
2
5
4
1
6
3

> <PUBCHEM_MMFF94_PARTIAL_CHARGES>
21
1 -0.57
10 0.37
11 0.14
12 -0.15
13 -0.15
14 -0.15
15 -0.15
16 -0.15
2 -0.16
23 0.15
24 0.15
25 0.15
26 0.15
27 0.15
3 -0.49
4 -0.16
5 -0.13
6 -0.04
7 0.62
8 0.31
9 0.12

> <PUBCHEM_EFFECTIVE_ROTOR_COUNT>
2

> <PUBCHEM_PHARMACOPHORE_FEATURES>
3
1 1 acceptor
5 3 4 6 7 8 rings
6 9 12 13 14 15 16 rings

> <PUBCHEM_HEAVY_ATOM_COUNT>
16

> <PUBCHEM_ATOM_DEF_STEREO_COUNT>
0

> <PUBCHEM_ATOM_UDEF_STEREO_COUNT>
0

> <PUBCHEM_BOND_DEF_STEREO_COUNT>
0

> <PUBCHEM_BOND_UDEF_STEREO_COUNT>
0

> <PUBCHEM_ISOTOPIC_ATOM_COUNT>
0

> <PUBCHEM_COMPONENT_COUNT>
1

> <PUBCHEM_CACTVS_TAUTO_COUNT>
1

> <PUBCHEM_CONFORMER_ID>
0000348300000002

> <PUBCHEM_MMFF94_ENERGY>
62.4289

> <PUBCHEM_FEATURE_SELFOVERLAP>
15.223

> <PUBCHEM_SHAPE_FINGERPRINT>
10608611 8 18336266743453285560
10967382 1 18337388365366680698
11132069 177 18408327674570019792
12032990 46 18263919956018451643
12500047 106 18342176652886036566
13296908 3 18260545593634997942
13380535 76 18408040736605820566
13897977 150 18334575762935529013
14325111 11 18409446968811600432
15196674 1 18408039585607144388
15219456 202 18260265218333328400
15375358 24 18334017172922708320
15775835 57 18060419153004980098
16945 1 18190174779167130699
18186145 218 18410008870655903420
200 152 16950284031065091308
20201158 50 18114457942102747718
20510252 161 18336824195690026993
20645476 183 17775277261966064330
20645477 56 18341894073754804949
20645477 70 17894907468885004766
20871999 31 18412263896111289079
21501502 16 18335413569832767314
22802520 49 18187639219580623410
2334 1 18337673009987168291
23402539 116 18411708677452447812
23402655 69 18260547857278182268
23493267 7 17632571695136551481
23557571 272 18261662688827216022
23559900 14 18334295401252257218
25 1 18338515360331980175
2748010 2 18336264548450495811
2871803 45 18337679602931214543
3312278 4 18408038507058682762
353137 74 18264770037647352913
4028521 119 18411139172814781269
5104073 3 18335419050226979082
6333449 129 18335419054073455075
69090 78 18259988184252731143
7364860 26 18194686105731258810
81228 2 18055067662488264283
8809292 202 18410284809804975922
93112 12 18335136509871453452
9709674 26 18335976476847533014

> <PUBCHEM_SHAPE_MULTIPOLES>
302.59
6.74
2.21
0.83
2.26
0.39
0.03
-0.9
1.59
-1.32
-0.25
-0.01
0.08
0.65

> <PUBCHEM_SHAPE_SELFOVERLAP>
647.974

> <PUBCHEM_SHAPE_VOLUME>
168.4

> <PUBCHEM_COORDINATE_TYPE>
2
5
10

$$$$

