10054
  -OEChem-06261204173D

 62 66  0     1  0  0  0  0  0999 V2000
   -1.5684   -1.5316   -0.6929 O   0  0  0  0  0  0  0  0  0  0  0  0
    1.8448    2.8272    0.1886 O   0  0  0  0  0  0  0  0  0  0  0  0
    5.4356   -0.6866    2.4275 O   0  0  0  0  0  0  0  0  0  0  0  0
   -5.9857    0.6005   -0.2507 O   0  0  0  0  0  0  0  0  0  0  0  0
   -6.4606   -1.6505   -0.3080 O   0  0  0  0  0  0  0  0  0  0  0  0
   -0.7191   -0.5849   -0.0253 C   0  0  1  0  0  0  0  0  0  0  0  0
    0.6683   -0.6731   -0.7185 C   0  0  1  0  0  0  0  0  0  0  0  0
    1.6818    0.4313   -0.2780 C   0  0  1  0  0  0  0  0  0  0  0  0
   -1.3549    0.8273   -0.0797 C   0  0  2  0  0  0  0  0  0  0  0  0
    3.0732    0.2841   -1.0379 C   0  0  2  0  0  0  0  0  0  0  0  0
    1.0134    1.8253   -0.3916 C   0  0  1  0  0  0  0  0  0  0  0  0
    3.6198   -1.1737   -0.8553 C   0  0  2  0  0  0  0  0  0  0  0  0
   -0.3193    1.8902    0.3586 C   0  0  0  0  0  0  0  0  0  0  0  0
   -2.4778    0.7658    1.0073 C   0  0  2  0  0  0  0  0  0  0  0  0
    1.2632   -2.0881   -0.5740 C   0  0  0  0  0  0  0  0  0  0  0  0
   -0.7126   -0.9151    1.4764 C   0  0  0  0  0  0  0  0  0  0  0  0
    2.6012   -2.2352   -1.2847 C   0  0  0  0  0  0  0  0  0  0  0  0
   -1.9551   -0.2316    2.0629 C   0  0  0  0  0  0  0  0  0  0  0  0
    4.1874    1.2505   -0.5344 C   0  0  0  0  0  0  0  0  0  0  0  0
   -1.8896    1.1979   -1.4770 C   0  0  0  0  0  0  0  0  0  0  0  0
    4.1061   -1.4490    0.5850 C   0  0  0  0  0  0  0  0  0  0  0  0
    2.9095    0.5882   -2.5509 C   0  0  0  0  0  0  0  0  0  0  0  0
    4.6267    0.9940    0.9010 C   0  0  0  0  0  0  0  0  0  0  0  0
    5.1390   -0.4322    1.0586 C   0  0  1  0  0  0  0  0  0  0  0  0
   -3.8466    0.3726    0.5327 C   0  0  0  0  0  0  0  0  0  0  0  0
   -4.8449    1.3808    0.1218 C   0  0  0  0  0  0  0  0  0  0  0  0
   -4.3334   -0.8603    0.4194 C   0  0  0  0  0  0  0  0  0  0  0  0
   -5.7021   -0.7237   -0.0810 C   0  0  0  0  0  0  0  0  0  0  0  0
    0.4737   -0.5404   -1.7910 H   0  0  0  0  0  0  0  0  0  0  0  0
    1.8943    0.2794    0.7870 H   0  0  0  0  0  0  0  0  0  0  0  0
    0.8617    2.0915   -1.4417 H   0  0  0  0  0  0  0  0  0  0  0  0
    4.4975   -1.2944   -1.5073 H   0  0  0  0  0  0  0  0  0  0  0  0
   -0.1100    1.8129    1.4347 H   0  0  0  0  0  0  0  0  0  0  0  0
   -0.7489    2.8953    0.2424 H   0  0  0  0  0  0  0  0  0  0  0  0
   -2.5875    1.7447    1.4944 H   0  0  0  0  0  0  0  0  0  0  0  0
    0.5835   -2.8353   -0.9987 H   0  0  0  0  0  0  0  0  0  0  0  0
    1.3803   -2.3469    0.4837 H   0  0  0  0  0  0  0  0  0  0  0  0
    0.1774   -0.5235    1.9798 H   0  0  0  0  0  0  0  0  0  0  0  0
   -0.7532   -1.9919    1.6731 H   0  0  0  0  0  0  0  0  0  0  0  0
    3.0029   -3.2381   -1.0941 H   0  0  0  0  0  0  0  0  0  0  0  0
    2.4420   -2.1796   -2.3681 H   0  0  0  0  0  0  0  0  0  0  0  0
   -2.6854   -0.9707    2.4065 H   0  0  0  0  0  0  0  0  0  0  0  0
   -1.6564    0.3177    2.9656 H   0  0  0  0  0  0  0  0  0  0  0  0
    3.9038    2.2985   -0.6585 H   0  0  0  0  0  0  0  0  0  0  0  0
    5.0735    1.1311   -1.1755 H   0  0  0  0  0  0  0  0  0  0  0  0
   -1.0895    1.2043   -2.2241 H   0  0  0  0  0  0  0  0  0  0  0  0
   -2.6435    0.4942   -1.8430 H   0  0  0  0  0  0  0  0  0  0  0  0
   -2.3329    2.1995   -1.4741 H   0  0  0  0  0  0  0  0  0  0  0  0
    3.2711   -1.4644    1.2951 H   0  0  0  0  0  0  0  0  0  0  0  0
    4.5457   -2.4535    0.6433 H   0  0  0  0  0  0  0  0  0  0  0  0
    3.8424    0.3888   -3.0919 H   0  0  0  0  0  0  0  0  0  0  0  0
    2.1328   -0.0129   -3.0287 H   0  0  0  0  0  0  0  0  0  0  0  0
    2.6633    1.6414   -2.7217 H   0  0  0  0  0  0  0  0  0  0  0  0
    5.4221    1.6979    1.1757 H   0  0  0  0  0  0  0  0  0  0  0  0
    3.8106    1.1893    1.6062 H   0  0  0  0  0  0  0  0  0  0  0  0
    6.0660   -0.5627    0.4875 H   0  0  0  0  0  0  0  0  0  0  0  0
   -1.3814   -2.4201   -0.3479 H   0  0  0  0  0  0  0  0  0  0  0  0
    1.4192    3.6886    0.0383 H   0  0  0  0  0  0  0  0  0  0  0  0
   -5.1248    2.0437    0.9458 H   0  0  0  0  0  0  0  0  0  0  0  0
   -4.5325    1.9756   -0.7390 H   0  0  0  0  0  0  0  0  0  0  0  0
   -3.8668   -1.8058    0.6334 H   0  0  0  0  0  0  0  0  0  0  0  0
    6.0972   -0.0326    2.7103 H   0  0  0  0  0  0  0  0  0  0  0  0
  1  6  1  0  0  0  0
  1 57  1  0  0  0  0
  2 11  1  0  0  0  0
  2 58  1  0  0  0  0
  3 24  1  0  0  0  0
  3 62  1  0  0  0  0
  4 26  1  0  0  0  0
  4 28  1  0  0  0  0
  5 28  2  0  0  0  0
  6  7  1  0  0  0  0
  6  9  1  0  0  0  0
  6 16  1  0  0  0  0
  7  8  1  0  0  0  0
  7 15  1  0  0  0  0
  7 29  1  0  0  0  0
  8 10  1  0  0  0  0
  8 11  1  0  0  0  0
  8 30  1  0  0  0  0
  9 13  1  0  0  0  0
  9 14  1  0  0  0  0
  9 20  1  0  0  0  0
 10 12  1  0  0  0  0
 10 19  1  0  0  0  0
 10 22  1  0  0  0  0
 11 13  1  0  0  0  0
 11 31  1  0  0  0  0
 12 17  1  0  0  0  0
 12 21  1  0  0  0  0
 12 32  1  0  0  0  0
 13 33  1  0  0  0  0
 13 34  1  0  0  0  0
 14 18  1  0  0  0  0
 14 25  1  0  0  0  0
 14 35  1  0  0  0  0
 15 17  1  0  0  0  0
 15 36  1  0  0  0  0
 15 37  1  0  0  0  0
 16 18  1  0  0  0  0
 16 38  1  0  0  0  0
 16 39  1  0  0  0  0
 17 40  1  0  0  0  0
 17 41  1  0  0  0  0
 18 42  1  0  0  0  0
 18 43  1  0  0  0  0
 19 23  1  0  0  0  0
 19 44  1  0  0  0  0
 19 45  1  0  0  0  0
 20 46  1  0  0  0  0
 20 47  1  0  0  0  0
 20 48  1  0  0  0  0
 21 24  1  0  0  0  0
 21 49  1  0  0  0  0
 21 50  1  0  0  0  0
 22 51  1  0  0  0  0
 22 52  1  0  0  0  0
 22 53  1  0  0  0  0
 23 24  1  0  0  0  0
 23 54  1  0  0  0  0
 23 55  1  0  0  0  0
 24 56  1  0  0  0  0
 25 26  1  0  0  0  0
 25 27  2  0  0  0  0
 26 59  1  0  0  0  0
 26 60  1  0  0  0  0
 27 28  1  0  0  0  0
 27 61  1  0  0  0  0
M  END
> <PUBCHEM_COMPOUND_CID>
10054

> <PUBCHEM_CONFORMER_RMSD>
0.8

> <PUBCHEM_CONFORMER_DIVERSEORDER>
1
14
4
19
12
23
11
6
24
22
3
13
20
18
15
16
2
7
9
8
5
10
21
17

> <PUBCHEM_MMFF94_PARTIAL_CHARGES>
17
1 -0.68
11 0.28
14 0.14
2 -0.68
24 0.28
25 -0.28
26 0.42
27 -0.14
28 0.71
3 -0.68
4 -0.43
5 -0.57
57 0.4
58 0.4
6 0.28
61 0.15
62 0.4

> <PUBCHEM_EFFECTIVE_ROTOR_COUNT>
3.6

> <PUBCHEM_PHARMACOPHORE_FEATURES>
12
1 1 acceptor
1 1 donor
1 2 acceptor
1 2 donor
1 3 acceptor
1 3 donor
1 5 acceptor
5 4 25 26 27 28 rings
5 6 9 14 16 18 rings
6 10 12 19 21 23 24 rings
6 6 7 8 9 11 13 rings
6 7 8 10 12 15 17 rings

> <PUBCHEM_HEAVY_ATOM_COUNT>
28

> <PUBCHEM_ATOM_DEF_STEREO_COUNT>
7

> <PUBCHEM_ATOM_UDEF_STEREO_COUNT>
2

> <PUBCHEM_BOND_DEF_STEREO_COUNT>
0

> <PUBCHEM_BOND_UDEF_STEREO_COUNT>
0

> <PUBCHEM_ISOTOPIC_ATOM_COUNT>
0

> <PUBCHEM_COMPONENT_COUNT>
1

> <PUBCHEM_CACTVS_TAUTO_COUNT>
1

> <PUBCHEM_CONFORMER_ID>
0000274600000001

> <PUBCHEM_MMFF94_ENERGY>
98.1915

> <PUBCHEM_FEATURE_SELFOVERLAP>
61.118

> <PUBCHEM_SHAPE_FINGERPRINT>
10366900 7 18201420507124131402
10906281 52 18270097081178896440
11595378 159 16081364210785444091
11796584 16 16702295750404248274
12166972 35 18131349739409179636
12236239 1 18273498970265687003
12403260 363 17561082539898851821
12422481 6 18340773740077702598
12467345 10 18113336384576711679
12592029 89 18335416863598007643
12596602 18 16660360394253941851
12788726 201 17988348373560580100
13140716 1 18190748539901460624
13224815 77 18335410301288769614
13533116 47 17275109452987907194
13583140 156 17987222340335171488
13782708 43 17417517031102946171
14251758 9 13758076294567606387
14840074 17 6194556714960324633
15183329 4 15698001851100095075
15788980 27 17346593084749795089
16728300 4 17485957386193558082
16945 1 18263901333119273476
17349148 13 18201993360897649396
17980427 23 17314813822984580564
18222031 100 18261381278427956540
1979834 28 17968093140230487998
200 152 18114175346371642305
20511986 3 17894921784242779015
21285901 2 18130500924716399613
21304304 249 18343024423944365162
22079108 93 17167870746546249626
22149856 69 17968921051660525419
23402539 116 17704075109923961085
23559900 14 17417511580367492518
3004659 81 18202556298351109110
3286 77 18411979157112849493
34797466 226 15864067654858161161
3680242 22 18341610459873636994
4072396 5 18411704300606485970
4340502 62 17458347429053309158
439807 62 18191871120706633807
474 4 17095528366512622896
5104073 3 17895748633903349571
5283173 99 18200594829942972829
6004065 56 18261684666549857489
6913067 236 18411143549533882607
8509985 295 17989205945437735240
8988823 20 18341333305934939844

> <PUBCHEM_SHAPE_MULTIPOLES>
546.88
12.37
2.13
1.67
9.88
0.19
-0.15
-2.18
-1.98
-0.7
0.33
-1.73
-0.14
-0.15

> <PUBCHEM_SHAPE_SELFOVERLAP>
1184.132

> <PUBCHEM_SHAPE_VOLUME>
298.5

> <PUBCHEM_COORDINATE_TYPE>
2
5
10

$$$$

