17395327
  -OEChem-06241222492D

 39 40  0     0  0  0  0  0  0999 V2000
    5.4641   -3.8100    0.0000 O   0  0  0  0  0  0  0  0  0  0  0  0
    2.0000   -3.8100    0.0000 O   0  0  0  0  0  0  0  0  0  0  0  0
    2.8660   -0.3100    0.0000 O   0  0  0  0  0  0  0  0  0  0  0  0
    7.1962    4.1900    0.0000 O   0  0  0  0  0  0  0  0  0  0  0  0
    6.3301    0.6900    0.0000 O   0  0  0  0  0  0  0  0  0  0  0  0
    4.5981   -0.3100    0.0000 N   0  0  0  0  0  0  0  0  0  0  0  0
    4.5981    0.6900    0.0000 N   0  0  0  0  0  0  0  0  0  0  0  0
    3.7320   -1.8100    0.0000 C   0  0  0  0  0  0  0  0  0  0  0  0
    2.8660   -2.3100    0.0000 C   0  0  0  0  0  0  0  0  0  0  0  0
    4.5981   -2.3100    0.0000 C   0  0  0  0  0  0  0  0  0  0  0  0
    4.5981   -3.3100    0.0000 C   0  0  0  0  0  0  0  0  0  0  0  0
    2.8660   -3.3100    0.0000 C   0  0  0  0  0  0  0  0  0  0  0  0
    3.7320   -3.8100    0.0000 C   0  0  0  0  0  0  0  0  0  0  0  0
    3.7320   -0.8100    0.0000 C   0  0  0  0  0  0  0  0  0  0  0  0
    5.4641    2.1900    0.0000 C   0  0  0  0  0  0  0  0  0  0  0  0
    5.4641    1.1900    0.0000 C   0  0  0  0  0  0  0  0  0  0  0  0
    6.3301    2.6900    0.0000 C   0  0  0  0  0  0  0  0  0  0  0  0
    4.5981    2.6900    0.0000 C   0  0  0  0  0  0  0  0  0  0  0  0
    6.3301    3.6900    0.0000 C   0  0  0  0  0  0  0  0  0  0  0  0
    4.5981    3.6900    0.0000 C   0  0  0  0  0  0  0  0  0  0  0  0
    5.4641    4.1900    0.0000 C   0  0  0  0  0  0  0  0  0  0  0  0
    5.4641   -4.8100    0.0000 C   0  0  0  0  0  0  0  0  0  0  0  0
    2.0000   -4.8100    0.0000 C   0  0  0  0  0  0  0  0  0  0  0  0
    2.3291   -2.0000    0.0000 H   0  0  0  0  0  0  0  0  0  0  0  0
    5.1350   -2.0000    0.0000 H   0  0  0  0  0  0  0  0  0  0  0  0
    3.7320   -4.4300    0.0000 H   0  0  0  0  0  0  0  0  0  0  0  0
    5.1350   -0.6200    0.0000 H   0  0  0  0  0  0  0  0  0  0  0  0
    4.0611    1.0000    0.0000 H   0  0  0  0  0  0  0  0  0  0  0  0
    6.8671    2.3800    0.0000 H   0  0  0  0  0  0  0  0  0  0  0  0
    4.0611    2.3800    0.0000 H   0  0  0  0  0  0  0  0  0  0  0  0
    4.0611    4.0000    0.0000 H   0  0  0  0  0  0  0  0  0  0  0  0
    5.4641    4.8100    0.0000 H   0  0  0  0  0  0  0  0  0  0  0  0
    4.8441   -4.8100    0.0000 H   0  0  0  0  0  0  0  0  0  0  0  0
    5.4641   -5.4300    0.0000 H   0  0  0  0  0  0  0  0  0  0  0  0
    6.0841   -4.8100    0.0000 H   0  0  0  0  0  0  0  0  0  0  0  0
    1.3800   -4.8100    0.0000 H   0  0  0  0  0  0  0  0  0  0  0  0
    2.0000   -5.4300    0.0000 H   0  0  0  0  0  0  0  0  0  0  0  0
    2.6200   -4.8100    0.0000 H   0  0  0  0  0  0  0  0  0  0  0  0
    7.1962    4.8100    0.0000 H   0  0  0  0  0  0  0  0  0  0  0  0
  1 11  1  0  0  0  0
  1 22  1  0  0  0  0
  2 12  1  0  0  0  0
  2 23  1  0  0  0  0
  3 14  2  0  0  0  0
  4 19  1  0  0  0  0
  4 39  1  0  0  0  0
  5 16  2  0  0  0  0
  6  7  1  0  0  0  0
  6 14  1  0  0  0  0
  6 27  1  0  0  0  0
  7 16  1  0  0  0  0
  7 28  1  0  0  0  0
  8  9  2  0  0  0  0
  8 10  1  0  0  0  0
  8 14  1  0  0  0  0
  9 12  1  0  0  0  0
  9 24  1  0  0  0  0
 10 11  2  0  0  0  0
 10 25  1  0  0  0  0
 11 13  1  0  0  0  0
 12 13  2  0  0  0  0
 13 26  1  0  0  0  0
 15 16  1  0  0  0  0
 15 17  2  0  0  0  0
 15 18  1  0  0  0  0
 17 19  1  0  0  0  0
 17 29  1  0  0  0  0
 18 20  2  0  0  0  0
 18 30  1  0  0  0  0
 19 21  2  0  0  0  0
 20 21  1  0  0  0  0
 20 31  1  0  0  0  0
 21 32  1  0  0  0  0
 22 33  1  0  0  0  0
 22 34  1  0  0  0  0
 22 35  1  0  0  0  0
 23 36  1  0  0  0  0
 23 37  1  0  0  0  0
 23 38  1  0  0  0  0
M  END
> <PUBCHEM_COMPOUND_CID>
17395327

> <PUBCHEM_COMPOUND_CANONICALIZED>
1

> <PUBCHEM_CACTVS_COMPLEXITY>
405

> <PUBCHEM_CACTVS_HBOND_ACCEPTOR>
5

> <PUBCHEM_CACTVS_HBOND_DONOR>
3

> <PUBCHEM_CACTVS_ROTATABLE_BOND>
4

> <PUBCHEM_CACTVS_SUBSKEYS>
AAADceB7OAAAAAAAAAAAAAAAAAAAAAAAAAAwYAAAAAAAAAABQAAAHgAYCAAADASBmAIyBoBiBgCIAiFSEACCCAAkIAIaqAEGDMgMJzKGtRuAcSBlwBUIuYe66ByOAAABCAAAAAAAAAIQAAAAAAAAAAAAAA==

> <PUBCHEM_IUPAC_OPENEYE_NAME>
N'-(3-hydroxybenzoyl)-3,5-dimethoxy-benzohydrazide

> <PUBCHEM_IUPAC_CAS_NAME>
N'-[(3-hydroxyphenyl)-oxomethyl]-3,5-dimethoxybenzohydrazide

> <PUBCHEM_IUPAC_NAME>
N'-(3-hydroxybenzoyl)-3,5-dimethoxybenzohydrazide

> <PUBCHEM_IUPAC_SYSTEMATIC_NAME>
N'-(3-hydroxyphenyl)carbonyl-3,5-dimethoxy-benzohydrazide

> <PUBCHEM_IUPAC_TRADITIONAL_NAME>
N'-(3-hydroxybenzoyl)-3,5-dimethoxy-benzohydrazide

> <PUBCHEM_IUPAC_INCHI>
InChI=1S/C16H16N2O5/c1-22-13-7-11(8-14(9-13)23-2)16(21)18-17-15(20)10-4-3-5-12(19)6-10/h3-9,19H,1-2H3,(H,17,20)(H,18,21)

> <PUBCHEM_IUPAC_INCHIKEY>
LLCCNBMAXPGIJE-UHFFFAOYSA-N

> <PUBCHEM_XLOGP3_AA>
2

> <PUBCHEM_EXACT_MASS>
316.105922

> <PUBCHEM_MOLECULAR_FORMULA>
C16H16N2O5

> <PUBCHEM_MOLECULAR_WEIGHT>
316.30864

> <PUBCHEM_OPENEYE_CAN_SMILES>
COC1=CC(=CC(=C1)C(=O)NNC(=O)C2=CC(=CC=C2)O)OC

> <PUBCHEM_OPENEYE_ISO_SMILES>
COC1=CC(=CC(=C1)C(=O)NNC(=O)C2=CC(=CC=C2)O)OC

> <PUBCHEM_CACTVS_TPSA>
96.9

> <PUBCHEM_MONOISOTOPIC_WEIGHT>
316.105922

> <PUBCHEM_TOTAL_CHARGE>
0

> <PUBCHEM_HEAVY_ATOM_COUNT>
23

> <PUBCHEM_ATOM_DEF_STEREO_COUNT>
0

> <PUBCHEM_ATOM_UDEF_STEREO_COUNT>
0

> <PUBCHEM_BOND_DEF_STEREO_COUNT>
0

> <PUBCHEM_BOND_UDEF_STEREO_COUNT>
0

> <PUBCHEM_ISOTOPIC_ATOM_COUNT>
0

> <PUBCHEM_COMPONENT_COUNT>
1

> <PUBCHEM_CACTVS_TAUTO_COUNT>
31

> <PUBCHEM_COORDINATE_TYPE>
1
5
255

> <PUBCHEM_BONDANNOTATIONS>
10  11  8
11  13  8
12  13  8
15  17  8
15  18  8
17  19  8
18  20  8
19  21  8
20  21  8
8  10  8
8  9  8
9  12  8

$$$$

