12958
  -OEChem-06261207352D

 16 15  0     0  0  0  0  0  0999 V2000
    3.7320    0.0000    0.0000 P   0  0  0  0  0  0  0  0  0  0  0  0
    4.5981    0.5000    0.0000 O   0  0  0  0  0  0  0  0  0  0  0  0
    2.8660   -0.5000    0.0000 O   0  0  0  0  0  0  0  0  0  0  0  0
    4.2320   -0.8660    0.0000 O   0  0  0  0  0  0  0  0  0  0  0  0
    3.2320    0.8660    0.0000 C   0  0  0  0  0  0  0  0  0  0  0  0
    5.4641    0.0000    0.0000 C   0  0  0  0  0  0  0  0  0  0  0  0
    2.0000    0.0000    0.0000 C   0  0  0  0  0  0  0  0  0  0  0  0
    3.7690    1.1760    0.0000 H   0  0  0  0  0  0  0  0  0  0  0  0
    2.9220    1.4030    0.0000 H   0  0  0  0  0  0  0  0  0  0  0  0
    2.6951    0.5560    0.0000 H   0  0  0  0  0  0  0  0  0  0  0  0
    5.1541   -0.5369    0.0000 H   0  0  0  0  0  0  0  0  0  0  0  0
    6.0010   -0.3100    0.0000 H   0  0  0  0  0  0  0  0  0  0  0  0
    5.7741    0.5369    0.0000 H   0  0  0  0  0  0  0  0  0  0  0  0
    2.3100    0.5369    0.0000 H   0  0  0  0  0  0  0  0  0  0  0  0
    1.4631    0.3100    0.0000 H   0  0  0  0  0  0  0  0  0  0  0  0
    1.6900   -0.5369    0.0000 H   0  0  0  0  0  0  0  0  0  0  0  0
  1  2  1  0  0  0  0
  1  3  1  0  0  0  0
  1  4  2  0  0  0  0
  1  5  1  0  0  0  0
  2  6  1  0  0  0  0
  3  7  1  0  0  0  0
  5  8  1  0  0  0  0
  5  9  1  0  0  0  0
  5 10  1  0  0  0  0
  6 11  1  0  0  0  0
  6 12  1  0  0  0  0
  6 13  1  0  0  0  0
  7 14  1  0  0  0  0
  7 15  1  0  0  0  0
  7 16  1  0  0  0  0
M  END
> <PUBCHEM_COMPOUND_CID>
12958

> <PUBCHEM_COMPOUND_CANONICALIZED>
1

> <PUBCHEM_CACTVS_COMPLEXITY>
82.2

> <PUBCHEM_CACTVS_HBOND_ACCEPTOR>
3

> <PUBCHEM_CACTVS_HBOND_DONOR>
0

> <PUBCHEM_CACTVS_ROTATABLE_BOND>
2

> <PUBCHEM_CACTVS_SUBSKEYS>
AAADccBAMAIAAAAAAAAAAAAAAAAAAAAAAAAAAAAAAAAAAAAAAAAAEggAACAAAAAAAAICAAAAARAAQAAAAIAAAAAAAAAAAAAAAAAAAAAAAAAAAAAAAAAAAAAAAAAAAAAAAAAAAAAAAAAAAAAAAAAAAAAAAA==

> <PUBCHEM_IUPAC_OPENEYE_NAME>
[methoxy(methyl)phosphoryl]oxymethane

> <PUBCHEM_IUPAC_CAS_NAME>
[methoxy(methyl)phosphoryl]oxymethane

> <PUBCHEM_IUPAC_NAME>
[methoxy(methyl)phosphoryl]oxymethane

> <PUBCHEM_IUPAC_SYSTEMATIC_NAME>
[methoxy(methyl)phosphoryl]oxymethane

> <PUBCHEM_IUPAC_TRADITIONAL_NAME>
[methoxy(methyl)phosphoryl]oxymethane

> <PUBCHEM_IUPAC_INCHI>
InChI=1S/C3H9O3P/c1-5-7(3,4)6-2/h1-3H3

> <PUBCHEM_IUPAC_INCHIKEY>
VONWDASPFIQPDY-UHFFFAOYSA-N

> <PUBCHEM_XLOGP3>
-0.7

> <PUBCHEM_EXACT_MASS>
124.028931

> <PUBCHEM_MOLECULAR_FORMULA>
C3H9O3P

> <PUBCHEM_MOLECULAR_WEIGHT>
124.075522

> <PUBCHEM_OPENEYE_CAN_SMILES>
COP(=O)(C)OC

> <PUBCHEM_OPENEYE_ISO_SMILES>
COP(=O)(C)OC

> <PUBCHEM_CACTVS_TPSA>
35.5

> <PUBCHEM_MONOISOTOPIC_WEIGHT>
124.028931

> <PUBCHEM_TOTAL_CHARGE>
0

> <PUBCHEM_HEAVY_ATOM_COUNT>
7

> <PUBCHEM_ATOM_DEF_STEREO_COUNT>
0

> <PUBCHEM_ATOM_UDEF_STEREO_COUNT>
0

> <PUBCHEM_BOND_DEF_STEREO_COUNT>
0

> <PUBCHEM_BOND_UDEF_STEREO_COUNT>
0

> <PUBCHEM_ISOTOPIC_ATOM_COUNT>
0

> <PUBCHEM_COMPONENT_COUNT>
1

> <PUBCHEM_CACTVS_TAUTO_COUNT>
1

> <PUBCHEM_COORDINATE_TYPE>
1
5
255

$$$$

