12355
  -OEChem-06261206513D

 21 20  0     0  0  0  0  0  0999 V2000
   -1.2229   -0.2876   -0.0068 O   0  0  0  0  0  0  0  0  0  0  0  0
    1.1707   -0.3484   -0.0226 C   0  0  0  0  0  0  0  0  0  0  0  0
    2.4548    0.4759   -0.0041 C   0  0  0  0  0  0  0  0  0  0  0  0
   -0.0665    0.5379   -0.0035 C   0  0  0  0  0  0  0  0  0  0  0  0
    3.6875   -0.4135    0.0204 C   0  0  0  0  0  0  0  0  0  0  0  0
   -2.4159    0.4846    0.0105 C   0  0  0  0  0  0  0  0  0  0  0  0
   -3.6077   -0.4488    0.0061 C   0  0  0  0  0  0  0  0  0  0  0  0
    1.1448   -0.9921   -0.9108 H   0  0  0  0  0  0  0  0  0  0  0  0
    1.1427   -1.0267    0.8395 H   0  0  0  0  0  0  0  0  0  0  0  0
    2.4667    1.1279    0.8772 H   0  0  0  0  0  0  0  0  0  0  0  0
    2.4942    1.1237   -0.8875 H   0  0  0  0  0  0  0  0  0  0  0  0
   -0.0663    1.1640    0.8965 H   0  0  0  0  0  0  0  0  0  0  0  0
   -0.0763    1.1878   -0.8863 H   0  0  0  0  0  0  0  0  0  0  0  0
    3.6950   -1.0497    0.9112 H   0  0  0  0  0  0  0  0  0  0  0  0
    3.7232   -1.0587   -0.8633 H   0  0  0  0  0  0  0  0  0  0  0  0
    4.5956    0.1973    0.0318 H   0  0  0  0  0  0  0  0  0  0  0  0
   -2.4402    1.1091    0.9105 H   0  0  0  0  0  0  0  0  0  0  0  0
   -2.4514    1.1320   -0.8728 H   0  0  0  0  0  0  0  0  0  0  0  0
   -4.5453    0.1140    0.0192 H   0  0  0  0  0  0  0  0  0  0  0  0
   -3.5926   -1.0894   -0.8819 H   0  0  0  0  0  0  0  0  0  0  0  0
   -3.5815   -1.1119    0.8771 H   0  0  0  0  0  0  0  0  0  0  0  0
  1  4  1  0  0  0  0
  1  6  1  0  0  0  0
  2  3  1  0  0  0  0
  2  4  1  0  0  0  0
  2  8  1  0  0  0  0
  2  9  1  0  0  0  0
  3  5  1  0  0  0  0
  3 10  1  0  0  0  0
  3 11  1  0  0  0  0
  4 12  1  0  0  0  0
  4 13  1  0  0  0  0
  5 14  1  0  0  0  0
  5 15  1  0  0  0  0
  5 16  1  0  0  0  0
  6  7  1  0  0  0  0
  6 17  1  0  0  0  0
  6 18  1  0  0  0  0
  7 19  1  0  0  0  0
  7 20  1  0  0  0  0
  7 21  1  0  0  0  0
M  END
> <PUBCHEM_COMPOUND_CID>
12355

> <PUBCHEM_CONFORMER_RMSD>
0.6

> <PUBCHEM_CONFORMER_DIVERSEORDER>
1
32
7
15
22
28
30
23
31
6
5
29
25
24
4
11
19
27
3
8
26
16
20
17
21
13
2
18
14
10
9
12

> <PUBCHEM_MMFF94_PARTIAL_CHARGES>
3
1 -0.56
4 0.28
6 0.28

> <PUBCHEM_EFFECTIVE_ROTOR_COUNT>
4

> <PUBCHEM_PHARMACOPHORE_FEATURES>
2
1 1 acceptor
1 5 hydrophobe

> <PUBCHEM_HEAVY_ATOM_COUNT>
7

> <PUBCHEM_ATOM_DEF_STEREO_COUNT>
0

> <PUBCHEM_ATOM_UDEF_STEREO_COUNT>
0

> <PUBCHEM_BOND_DEF_STEREO_COUNT>
0

> <PUBCHEM_BOND_UDEF_STEREO_COUNT>
0

> <PUBCHEM_ISOTOPIC_ATOM_COUNT>
0

> <PUBCHEM_COMPONENT_COUNT>
1

> <PUBCHEM_CACTVS_TAUTO_COUNT>
1

> <PUBCHEM_CONFORMER_ID>
0000304300000001

> <PUBCHEM_MMFF94_ENERGY>
1.1389

> <PUBCHEM_FEATURE_SELFOVERLAP>
10.148

> <PUBCHEM_SHAPE_FINGERPRINT>
11062470 55 18412544310004347437
14325111 11 18410855464444228100
5460574 1 9295289438896914981

> <PUBCHEM_SHAPE_MULTIPOLES>
138.19
6.69
0.8
0.6
0.27
0.03
0
-1.05
-0.05
0.01
0
-0.02
0
0

> <PUBCHEM_SHAPE_SELFOVERLAP>
235.54

> <PUBCHEM_SHAPE_VOLUME>
93.9

> <PUBCHEM_COORDINATE_TYPE>
2
5
10

$$$$

