9494
  -OEChem-06261203452D

 27 26  0     0  0  0  0  0  0999 V2000
    4.2690   -0.3450    0.0000 N   0  0  0  0  0  0  0  0  0  0  0  0
    2.5369   -0.3450    0.0000 N   0  0  0  0  0  0  0  0  0  0  0  0
    3.4030   -1.8450    0.0000 N   0  0  0  0  0  0  0  0  0  0  0  0
    5.1350   -0.8450    0.0000 C   0  0  0  0  0  0  0  0  0  0  0  0
    4.2690    0.6550    0.0000 C   0  0  0  0  0  0  0  0  0  0  0  0
    6.0010   -0.3450    0.0000 C   0  0  0  0  0  0  0  0  0  0  0  0
    5.1350    1.1550    0.0000 C   0  0  0  0  0  0  0  0  0  0  0  0
    3.4030   -0.8450    0.0000 C   0  0  0  0  0  0  0  0  0  0  0  0
    6.8671   -0.8450    0.0000 C   0  0  0  0  0  0  0  0  0  0  0  0
    5.1350    2.1550    0.0000 C   0  0  0  0  0  0  0  0  0  0  0  0
    4.0569    1.2376    0.0000 H   0  0  0  0  0  0  0  0  0  0  0  0
    3.6584    0.5473    0.0000 H   0  0  0  0  0  0  0  0  0  0  0  0
    4.7365   -1.3200    0.0000 H   0  0  0  0  0  0  0  0  0  0  0  0
    5.5335   -1.3200    0.0000 H   0  0  0  0  0  0  0  0  0  0  0  0
    6.3996    0.1299    0.0000 H   0  0  0  0  0  0  0  0  0  0  0  0
    5.6025    0.1299    0.0000 H   0  0  0  0  0  0  0  0  0  0  0  0
    5.3471    0.5724    0.0000 H   0  0  0  0  0  0  0  0  0  0  0  0
    5.7456    1.2627    0.0000 H   0  0  0  0  0  0  0  0  0  0  0  0
    6.5571   -1.3819    0.0000 H   0  0  0  0  0  0  0  0  0  0  0  0
    7.4040   -1.1550    0.0000 H   0  0  0  0  0  0  0  0  0  0  0  0
    7.1771   -0.3081    0.0000 H   0  0  0  0  0  0  0  0  0  0  0  0
    5.7550    2.1550    0.0000 H   0  0  0  0  0  0  0  0  0  0  0  0
    5.1350    2.7750    0.0000 H   0  0  0  0  0  0  0  0  0  0  0  0
    4.5150    2.1550    0.0000 H   0  0  0  0  0  0  0  0  0  0  0  0
    2.0000   -0.6550    0.0000 H   0  0  0  0  0  0  0  0  0  0  0  0
    2.5369    0.2750    0.0000 H   0  0  0  0  0  0  0  0  0  0  0  0
    2.8660   -2.1550    0.0000 H   0  0  0  0  0  0  0  0  0  0  0  0
  1  4  1  0  0  0  0
  1  5  1  0  0  0  0
  1  8  1  0  0  0  0
  2  8  1  0  0  0  0
  2 25  1  0  0  0  0
  2 26  1  0  0  0  0
  3  8  2  0  0  0  0
  3 27  1  0  0  0  0
  4  6  1  0  0  0  0
  4 13  1  0  0  0  0
  4 14  1  0  0  0  0
  5  7  1  0  0  0  0
  5 11  1  0  0  0  0
  5 12  1  0  0  0  0
  6  9  1  0  0  0  0
  6 15  1  0  0  0  0
  6 16  1  0  0  0  0
  7 10  1  0  0  0  0
  7 17  1  0  0  0  0
  7 18  1  0  0  0  0
  9 19  1  0  0  0  0
  9 20  1  0  0  0  0
  9 21  1  0  0  0  0
 10 22  1  0  0  0  0
 10 23  1  0  0  0  0
 10 24  1  0  0  0  0
M  END
> <PUBCHEM_COMPOUND_CID>
9494

> <PUBCHEM_COMPOUND_CANONICALIZED>
1

> <PUBCHEM_CACTVS_COMPLEXITY>
95

> <PUBCHEM_CACTVS_HBOND_ACCEPTOR>
1

> <PUBCHEM_CACTVS_HBOND_DONOR>
2

> <PUBCHEM_CACTVS_ROTATABLE_BOND>
5

> <PUBCHEM_CACTVS_SUBSKEYS>
AAADceBjAAAAAAAAAAAAAAAAAAAAAAAAAAAAAAAAAAAAAAAAAAAAHAAQAAAACADBAAQDAANAAAAgAAAAIAAAAACAAAABAAAIAACAAAAACAAEAAAAAAKAAAAAAAAAAAAAAAAAAAAAAAAAAAAAAAAAAAAAAA==

> <PUBCHEM_IUPAC_OPENEYE_NAME>
1,1-dipropylguanidine

> <PUBCHEM_IUPAC_CAS_NAME>
1,1-dipropylguanidine

> <PUBCHEM_IUPAC_NAME>
1,1-dipropylguanidine

> <PUBCHEM_IUPAC_SYSTEMATIC_NAME>
1,1-dipropylguanidine

> <PUBCHEM_IUPAC_TRADITIONAL_NAME>
1,1-dipropylguanidine

> <PUBCHEM_IUPAC_INCHI>
InChI=1S/C7H17N3/c1-3-5-10(6-4-2)7(8)9/h3-6H2,1-2H3,(H3,8,9)

> <PUBCHEM_IUPAC_INCHIKEY>
JMJVKOUWWKEIBN-UHFFFAOYSA-N

> <PUBCHEM_XLOGP3_AA>
1

> <PUBCHEM_EXACT_MASS>
143.142248

> <PUBCHEM_MOLECULAR_FORMULA>
C7H17N3

> <PUBCHEM_MOLECULAR_WEIGHT>
143.22998

> <PUBCHEM_OPENEYE_CAN_SMILES>
CCCN(CCC)C(=N)N

> <PUBCHEM_OPENEYE_ISO_SMILES>
CCCN(CCC)C(=N)N

> <PUBCHEM_CACTVS_TPSA>
53.1

> <PUBCHEM_MONOISOTOPIC_WEIGHT>
143.142248

> <PUBCHEM_TOTAL_CHARGE>
0

> <PUBCHEM_HEAVY_ATOM_COUNT>
10

> <PUBCHEM_ATOM_DEF_STEREO_COUNT>
0

> <PUBCHEM_ATOM_UDEF_STEREO_COUNT>
0

> <PUBCHEM_BOND_DEF_STEREO_COUNT>
0

> <PUBCHEM_BOND_UDEF_STEREO_COUNT>
0

> <PUBCHEM_ISOTOPIC_ATOM_COUNT>
0

> <PUBCHEM_COMPONENT_COUNT>
1

> <PUBCHEM_CACTVS_TAUTO_COUNT>
1

> <PUBCHEM_COORDINATE_TYPE>
1
5
255

$$$$

