5092
  -OEChem-06261200303D

 41 43  0     1  0  0  0  0  0999 V2000
   -2.2269    0.1355   -0.3387 O   0  0  0  0  0  0  0  0  0  0  0  0
   -2.2637   -2.5420    0.4049 O   0  0  0  0  0  0  0  0  0  0  0  0
    6.0293    0.6346    0.4693 O   0  0  0  0  0  0  0  0  0  0  0  0
    4.1023    1.8435   -0.0812 N   0  0  0  0  0  0  0  0  0  0  0  0
   -2.3894    1.2758    0.4955 C   0  0  0  0  0  0  0  0  0  0  0  0
   -3.6638    1.1274    1.3123 C   0  0  0  0  0  0  0  0  0  0  0  0
   -2.6634    2.5131   -0.3458 C   0  0  0  0  0  0  0  0  0  0  0  0
   -4.7837    1.5211    0.3500 C   0  0  0  0  0  0  0  0  0  0  0  0
   -4.1350    2.3855   -0.7314 C   0  0  0  0  0  0  0  0  0  0  0  0
    2.6667    0.0697   -0.5753 C   0  0  1  0  0  0  0  0  0  0  0  0
    2.7049    1.5673   -0.2638 C   0  0  0  0  0  0  0  0  0  0  0  0
    3.8710   -0.4560    0.2297 C   0  0  0  0  0  0  0  0  0  0  0  0
    1.3483   -0.6250   -0.3143 C   0  0  0  0  0  0  0  0  0  0  0  0
   -1.0575   -0.5658   -0.2045 C   0  0  0  0  0  0  0  0  0  0  0  0
    0.1512    0.0787   -0.4465 C   0  0  0  0  0  0  0  0  0  0  0  0
    4.8365    0.7037    0.2175 C   0  0  0  0  0  0  0  0  0  0  0  0
    1.3299   -1.9689    0.0592 C   0  0  0  0  0  0  0  0  0  0  0  0
   -1.0827   -1.9056    0.1680 C   0  0  0  0  0  0  0  0  0  0  0  0
    0.1145   -2.6091    0.3003 C   0  0  0  0  0  0  0  0  0  0  0  0
   -2.8882   -3.1835   -0.7053 C   0  0  0  0  0  0  0  0  0  0  0  0
   -1.5292    1.4270    1.1594 H   0  0  0  0  0  0  0  0  0  0  0  0
   -3.6520    1.8238    2.1591 H   0  0  0  0  0  0  0  0  0  0  0  0
   -3.8107    0.1135    1.6973 H   0  0  0  0  0  0  0  0  0  0  0  0
   -2.0269    2.5782   -1.2333 H   0  0  0  0  0  0  0  0  0  0  0  0
   -2.5201    3.4183    0.2559 H   0  0  0  0  0  0  0  0  0  0  0  0
   -5.5833    2.0561    0.8724 H   0  0  0  0  0  0  0  0  0  0  0  0
   -5.2297    0.6290   -0.1047 H   0  0  0  0  0  0  0  0  0  0  0  0
   -4.2317    1.8930   -1.7061 H   0  0  0  0  0  0  0  0  0  0  0  0
   -4.6136    3.3667   -0.8119 H   0  0  0  0  0  0  0  0  0  0  0  0
    2.8947   -0.0631   -1.6434 H   0  0  0  0  0  0  0  0  0  0  0  0
    2.3178    2.1829   -1.0810 H   0  0  0  0  0  0  0  0  0  0  0  0
    2.1899    1.8266    0.6676 H   0  0  0  0  0  0  0  0  0  0  0  0
    4.3252   -1.3321   -0.2422 H   0  0  0  0  0  0  0  0  0  0  0  0
    3.6170   -0.6804    1.2715 H   0  0  0  0  0  0  0  0  0  0  0  0
    0.1497    1.1186   -0.7598 H   0  0  0  0  0  0  0  0  0  0  0  0
    4.5039    2.7753   -0.1122 H   0  0  0  0  0  0  0  0  0  0  0  0
    2.2450   -2.5453    0.1569 H   0  0  0  0  0  0  0  0  0  0  0  0
    0.1073   -3.6569    0.5885 H   0  0  0  0  0  0  0  0  0  0  0  0
   -3.1264   -2.4552   -1.4869 H   0  0  0  0  0  0  0  0  0  0  0  0
   -3.8190   -3.6401   -0.3578 H   0  0  0  0  0  0  0  0  0  0  0  0
   -2.2414   -3.9695   -1.1079 H   0  0  0  0  0  0  0  0  0  0  0  0
  1  5  1  0  0  0  0
  1 14  1  0  0  0  0
  2 18  1  0  0  0  0
  2 20  1  0  0  0  0
  3 16  2  0  0  0  0
  4 11  1  0  0  0  0
  4 16  1  0  0  0  0
  4 36  1  0  0  0  0
  5  6  1  0  0  0  0
  5  7  1  0  0  0  0
  5 21  1  0  0  0  0
  6  8  1  0  0  0  0
  6 22  1  0  0  0  0
  6 23  1  0  0  0  0
  7  9  1  0  0  0  0
  7 24  1  0  0  0  0
  7 25  1  0  0  0  0
  8  9  1  0  0  0  0
  8 26  1  0  0  0  0
  8 27  1  0  0  0  0
  9 28  1  0  0  0  0
  9 29  1  0  0  0  0
 10 11  1  0  0  0  0
 10 12  1  0  0  0  0
 10 13  1  0  0  0  0
 10 30  1  0  0  0  0
 11 31  1  0  0  0  0
 11 32  1  0  0  0  0
 12 16  1  0  0  0  0
 12 33  1  0  0  0  0
 12 34  1  0  0  0  0
 13 15  2  0  0  0  0
 13 17  1  0  0  0  0
 14 15  1  0  0  0  0
 14 18  2  0  0  0  0
 15 35  1  0  0  0  0
 17 19  2  0  0  0  0
 17 37  1  0  0  0  0
 18 19  1  0  0  0  0
 19 38  1  0  0  0  0
 20 39  1  0  0  0  0
 20 40  1  0  0  0  0
 20 41  1  0  0  0  0
M  END
> <PUBCHEM_COMPOUND_CID>
5092

> <PUBCHEM_CONFORMER_RMSD>
0.8

> <PUBCHEM_CONFORMER_DIVERSEORDER>
1
80
85
77
30
84
22
91
68
61
35
75
82
23
86
87
45
60
34
42
70
71
58
26
72
49
27
55
88
56
59
14
51
78
19
79
57
54
63
89
83
73
90
64
25
65
52
33
48
20
46
8
38
40
69
41
31
47
24
67
29
18
53
7
36
12
5
81
13
17
16
10
6
32
11
66
43
39
28
76
21
50
15
62
37
74
44
9
3
4
2

> <PUBCHEM_MMFF94_PARTIAL_CHARGES>
20
1 -0.36
10 0.14
11 0.3
12 0.06
13 -0.14
14 0.08
15 -0.15
16 0.57
17 -0.15
18 0.08
19 -0.15
2 -0.36
20 0.28
3 -0.57
35 0.15
36 0.37
37 0.15
38 0.15
4 -0.73
5 0.28

> <PUBCHEM_EFFECTIVE_ROTOR_COUNT>
5.8

> <PUBCHEM_PHARMACOPHORE_FEATURES>
7
1 1 acceptor
1 2 acceptor
1 3 acceptor
1 4 donor
5 4 10 11 12 16 rings
5 5 6 7 8 9 rings
6 13 14 15 17 18 19 rings

> <PUBCHEM_HEAVY_ATOM_COUNT>
20

> <PUBCHEM_ATOM_DEF_STEREO_COUNT>
0

> <PUBCHEM_ATOM_UDEF_STEREO_COUNT>
1

> <PUBCHEM_BOND_DEF_STEREO_COUNT>
0

> <PUBCHEM_BOND_UDEF_STEREO_COUNT>
0

> <PUBCHEM_ISOTOPIC_ATOM_COUNT>
0

> <PUBCHEM_COMPONENT_COUNT>
1

> <PUBCHEM_CACTVS_TAUTO_COUNT>
3

> <PUBCHEM_CONFORMER_ID>
000013E400000001

> <PUBCHEM_MMFF94_ENERGY>
68.2768

> <PUBCHEM_FEATURE_SELFOVERLAP>
35.525

> <PUBCHEM_SHAPE_FINGERPRINT>
10042902 136 12462983529710725664
10411042 1 17762618387096302315
10493431 412 18411133662624908857
10670039 82 17909536278231220548
11370993 70 18340769350737573209
12107183 9 18270130144681017562
12390115 104 18264189375417373920
12403259 118 17704061919874030597
12403259 415 18126557045385630085
12403260 363 18267029341090547174
12633257 1 18342465841861582436
12788726 201 18052523379459331278
13140716 1 18339920407586378336
13583140 156 16845300448836933837
14123255 52 18339642346997547397
14142880 1 18343028757070033631
14178342 30 18201711825907837414
14787075 74 18260832601136429153
15209294 21 18413388730950716018
16087824 20 18409450264354984663
1741750 31 18334572464416612915
18186145 218 18117266171988134173
18915476 22 16951105374878301414
204376 136 18410852204870090073
20510252 161 18264203608707105362
20645477 56 18410285926111286052
21033648 29 18340501065600809944
21236236 1 18336548222376738903
212916 134 18336001830075937272
21524375 3 18335982051382254063
22182937 141 18334851697499555521
23227448 37 18408885122643909317
23402539 116 18191311468037615663
23419403 2 17024318405544859307
23557571 272 18041832913870239942
23558518 356 17984979298038761232
23559900 14 18187078499496171534
25147074 1 18269011880340362090
283562 15 18268154149812582563
335352 9 18339360885649693462
350125 39 18266172842627609425
3545911 37 18334571361063691940
4214541 1 18410293580170301312
474 4 18337391650921924457
474229 33 18411416220497594715
5104073 3 18413105091115667490
53917941 68 18339094747610520919
56633871 153 17838923747367324218
6327066 14 18341618147876114053
6333272 397 18339639052905350497
633830 44 17680137771193389669
7226269 152 18186806902823195648
7808743 9 18411700972086433680
7970288 3 9583221843161652416
9862522 239 18201726196968286101

> <PUBCHEM_SHAPE_MULTIPOLES>
389
10.08
3.4
0.84
7.58
2.05
-0.07
-7.59
-1.19
-3.21
0.33
-0.49
-0.09
-0.14

> <PUBCHEM_SHAPE_SELFOVERLAP>
826.922

> <PUBCHEM_SHAPE_VOLUME>
219.7

> <PUBCHEM_COORDINATE_TYPE>
2
5
10

$$$$

