13275
  -OEChem-06261208243D

 29 29  0     0  0  0  0  0  0999 V2000
    2.4618   -0.0828   -0.0049 O   0  0  0  0  0  0  0  0  0  0  0  0
    3.6940    0.5880   -0.0150 N   0  0  0  0  0  0  0  0  0  0  0  0
    5.9854    0.1426    0.0190 N   0  0  0  0  0  0  0  0  0  0  0  0
    4.5597   -1.6434    0.0630 N   0  0  0  0  0  0  0  0  0  0  0  0
   -1.0764    1.1739   -0.0911 C   0  0  0  0  0  0  0  0  0  0  0  0
    0.0829    0.1806   -0.0342 C   0  0  0  0  0  0  0  0  0  0  0  0
   -2.4114    0.4764   -0.0360 C   0  0  0  0  0  0  0  0  0  0  0  0
    1.4295    0.8906   -0.0445 C   0  0  0  0  0  0  0  0  0  0  0  0
   -3.0241    0.0823   -1.2164 C   0  0  0  0  0  0  0  0  0  0  0  0
   -3.0067    0.2399    1.1943 C   0  0  0  0  0  0  0  0  0  0  0  0
   -4.2598   -0.5628   -1.1655 C   0  0  0  0  0  0  0  0  0  0  0  0
   -4.2423   -0.4054    1.2453 C   0  0  0  0  0  0  0  0  0  0  0  0
   -4.8688   -0.8066    0.0654 C   0  0  0  0  0  0  0  0  0  0  0  0
    4.6763   -0.2732    0.0207 C   0  0  0  0  0  0  0  0  0  0  0  0
   -1.0030    1.8878    0.7396 H   0  0  0  0  0  0  0  0  0  0  0  0
   -1.0129    1.7759   -1.0067 H   0  0  0  0  0  0  0  0  0  0  0  0
    0.0329   -0.5178   -0.8798 H   0  0  0  0  0  0  0  0  0  0  0  0
    0.0122   -0.4448    0.8653 H   0  0  0  0  0  0  0  0  0  0  0  0
    1.5324    1.4926   -0.9552 H   0  0  0  0  0  0  0  0  0  0  0  0
    1.5165    1.5495    0.8276 H   0  0  0  0  0  0  0  0  0  0  0  0
   -2.5569    0.2659   -2.1798 H   0  0  0  0  0  0  0  0  0  0  0  0
   -2.5261    0.5467    2.1189 H   0  0  0  0  0  0  0  0  0  0  0  0
   -4.7474   -0.8758   -2.0841 H   0  0  0  0  0  0  0  0  0  0  0  0
   -4.7165   -0.5958    2.2037 H   0  0  0  0  0  0  0  0  0  0  0  0
   -5.8308   -1.3091    0.1051 H   0  0  0  0  0  0  0  0  0  0  0  0
    6.2224    1.1283   -0.0105 H   0  0  0  0  0  0  0  0  0  0  0  0
    6.7521   -0.5207    0.0457 H   0  0  0  0  0  0  0  0  0  0  0  0
    5.3766   -2.2438    0.0881 H   0  0  0  0  0  0  0  0  0  0  0  0
    3.6500   -2.0920    0.0688 H   0  0  0  0  0  0  0  0  0  0  0  0
  1  2  1  0  0  0  0
  1  8  1  0  0  0  0
  2 14  2  0  0  0  0
  3 14  1  0  0  0  0
  3 26  1  0  0  0  0
  3 27  1  0  0  0  0
  4 14  1  0  0  0  0
  4 28  1  0  0  0  0
  4 29  1  0  0  0  0
  5  6  1  0  0  0  0
  5  7  1  0  0  0  0
  5 15  1  0  0  0  0
  5 16  1  0  0  0  0
  6  8  1  0  0  0  0
  6 17  1  0  0  0  0
  6 18  1  0  0  0  0
  7  9  2  0  0  0  0
  7 10  1  0  0  0  0
  8 19  1  0  0  0  0
  8 20  1  0  0  0  0
  9 11  1  0  0  0  0
  9 21  1  0  0  0  0
 10 12  2  0  0  0  0
 10 22  1  0  0  0  0
 11 13  2  0  0  0  0
 11 23  1  0  0  0  0
 12 13  1  0  0  0  0
 12 24  1  0  0  0  0
 13 25  1  0  0  0  0
M  END
> <PUBCHEM_COMPOUND_CID>
13275

> <PUBCHEM_CONFORMER_RMSD>
0.6

> <PUBCHEM_CONFORMER_DIVERSEORDER>
1
69
6
45
59
27
72
62
14
15
73
25
70
22
74
29
26
58
71
8
33
75
28
32
37
54
43
16
9
66
19
38
49
67
24
3
4
30
40
68
13
2
60
17
34
46
7
39
5
57
20
31
64
21
51
44
61
65
36
56
12
18
23
63
11
53
47
10
42
52
55
41
35
50
48

> <PUBCHEM_MMFF94_PARTIAL_CHARGES>
22
1 -0.22
10 -0.15
11 -0.15
12 -0.15
13 -0.15
14 0.55
2 -0.51
21 0.15
22 0.15
23 0.15
24 0.15
25 0.15
26 0.4
27 0.4
28 0.4
29 0.4
3 -0.85
4 -0.85
5 0.14
7 -0.14
8 0.28
9 -0.15

> <PUBCHEM_EFFECTIVE_ROTOR_COUNT>
5

> <PUBCHEM_PHARMACOPHORE_FEATURES>
4
1 3 donor
1 4 donor
4 2 3 4 14 cation
6 7 9 10 11 12 13 rings

> <PUBCHEM_HEAVY_ATOM_COUNT>
14

> <PUBCHEM_ATOM_DEF_STEREO_COUNT>
0

> <PUBCHEM_ATOM_UDEF_STEREO_COUNT>
0

> <PUBCHEM_BOND_DEF_STEREO_COUNT>
0

> <PUBCHEM_BOND_UDEF_STEREO_COUNT>
0

> <PUBCHEM_ISOTOPIC_ATOM_COUNT>
0

> <PUBCHEM_COMPONENT_COUNT>
1

> <PUBCHEM_CACTVS_TAUTO_COUNT>
2

> <PUBCHEM_CONFORMER_ID>
000033DB00000001

> <PUBCHEM_MMFF94_ENERGY>
31.3934

> <PUBCHEM_FEATURE_SELFOVERLAP>
20.352

> <PUBCHEM_SHAPE_FINGERPRINT>
10014705 185 8430308026629621897
10803635 8 16630533924899252595
10912923 1 17603304838951862912
11287383 113 17203324482025531164
114248 4 17203609281053610764
12596602 18 16732704943715461114
13167823 11 17894912944836281966
13214271 11 13839983318246819761
13675066 3 4823215017687477028
14123238 8 18187082854133748732
1420 363 18343298167752472258
14251718 22 16630242541649046608
14455015 7 18343297076329762194
15242439 84 16917353623216240861
15501527 16 6699802090553148474
17834072 33 17967534532699947312
17834076 25 11312058746535131240
17870717 6 16917345961374431947
1813 80 18261940908192894948
19489759 90 15554451798915515180
200 152 18412547613103301385
20281389 69 7204773674903178306
20300324 65 14764629711783593765
20325693 3 15626507190310284561
20432913 95 18408037429238299226
20645477 70 18202002179299341378
20767249 213 8430316840366613383
20828058 44 16443063893775709517
20871999 31 15626230104626743653
23402539 116 18409167731360188465
23402655 69 13470419876206731463
23403322 49 17988925574267548331
23557571 272 17060624433754136261
23559900 14 16773516560058715101
23590187 198 17821445768016735158
23596394 208 17060065903507068322
351380 3 18186521012250442870
42 15 17167860859230762752
42788 4 9439403531956563956
49783359 22 17603305963953823678
573450 72 17167863075671153955
5924683 9 4750575803790024933

> <PUBCHEM_SHAPE_MULTIPOLES>
267.3
13.31
1.05
1.04
15.58
0.14
-0.04
4.05
-0.92
0.37
0
-1.52
0.06
-0.39

> <PUBCHEM_SHAPE_SELFOVERLAP>
536.264

> <PUBCHEM_SHAPE_VOLUME>
157.3

> <PUBCHEM_COORDINATE_TYPE>
2
5
10

$$$$

