17396456
  -OEChem-06241222563D

 46 48  0     0  0  0  0  0  0999 V2000
    5.5512    2.1220    2.2957 Cl  0  0  0  0  0  0  0  0  0  0  0  0
   -4.3622    0.2609    1.0429 O   0  0  0  0  0  0  0  0  0  0  0  0
    3.6211   -2.7962    0.0275 O   0  0  0  0  0  0  0  0  0  0  0  0
    6.6204    2.6807   -0.4574 O   0  0  0  0  0  0  0  0  0  0  0  0
   -1.0518   -1.0637    0.1097 N   0  0  0  0  0  0  0  0  0  0  0  0
    1.7427   -1.4639   -0.3744 N   0  0  0  0  0  0  0  0  0  0  0  0
   -0.1063    0.0530    0.2514 C   0  0  0  0  0  0  0  0  0  0  0  0
   -0.4059   -2.3330    0.4746 C   0  0  0  0  0  0  0  0  0  0  0  0
    1.1289   -0.1556   -0.6276 C   0  0  0  0  0  0  0  0  0  0  0  0
    0.8131   -2.5906   -0.4096 C   0  0  0  0  0  0  0  0  0  0  0  0
   -2.2405   -0.8376    0.9309 C   0  0  0  0  0  0  0  0  0  0  0  0
    3.1065   -1.6992   -0.1848 C   0  0  0  0  0  0  0  0  0  0  0  0
   -3.2181    0.0833    0.2183 C   0  0  0  0  0  0  0  0  0  0  0  0
    4.0235   -0.5533   -0.2479 C   0  0  0  0  0  0  0  0  0  0  0  0
    4.3243    0.1648    0.9096 C   0  0  0  0  0  0  0  0  0  0  0  0
    4.5937   -0.1835   -1.4660 C   0  0  0  0  0  0  0  0  0  0  0  0
   -5.5509    0.5056    0.4061 C   0  0  0  0  0  0  0  0  0  0  0  0
    5.1955    1.2525    0.8490 C   0  0  0  0  0  0  0  0  0  0  0  0
    5.4647    0.9044   -1.5266 C   0  0  0  0  0  0  0  0  0  0  0  0
    5.7657    1.6223   -0.3692 C   0  0  0  0  0  0  0  0  0  0  0  0
   -5.5619    1.1714   -0.8195 C   0  0  0  0  0  0  0  0  0  0  0  0
   -6.7502    0.0898    0.9847 C   0  0  0  0  0  0  0  0  0  0  0  0
   -6.7720    1.4213   -1.4666 C   0  0  0  0  0  0  0  0  0  0  0  0
   -7.9602    0.3394    0.3374 C   0  0  0  0  0  0  0  0  0  0  0  0
   -7.9712    1.0052   -0.8883 C   0  0  0  0  0  0  0  0  0  0  0  0
    0.2111    0.1585    1.2977 H   0  0  0  0  0  0  0  0  0  0  0  0
   -0.5696    0.9995   -0.0467 H   0  0  0  0  0  0  0  0  0  0  0  0
   -0.1015   -2.3210    1.5298 H   0  0  0  0  0  0  0  0  0  0  0  0
   -1.1063   -3.1661    0.3407 H   0  0  0  0  0  0  0  0  0  0  0  0
    0.8505   -0.1340   -1.6885 H   0  0  0  0  0  0  0  0  0  0  0  0
    1.8344    0.6612   -0.4607 H   0  0  0  0  0  0  0  0  0  0  0  0
    0.5082   -2.7250   -1.4548 H   0  0  0  0  0  0  0  0  0  0  0  0
    1.3115   -3.5132   -0.0947 H   0  0  0  0  0  0  0  0  0  0  0  0
   -2.7705   -1.7837    1.1092 H   0  0  0  0  0  0  0  0  0  0  0  0
   -1.9939   -0.4544    1.9299 H   0  0  0  0  0  0  0  0  0  0  0  0
   -2.7738    1.0671    0.0340 H   0  0  0  0  0  0  0  0  0  0  0  0
   -3.4816   -0.3807   -0.7421 H   0  0  0  0  0  0  0  0  0  0  0  0
    3.8764   -0.1275    1.8569 H   0  0  0  0  0  0  0  0  0  0  0  0
    4.3655   -0.7360   -2.3739 H   0  0  0  0  0  0  0  0  0  0  0  0
    5.9010    1.1808   -2.4827 H   0  0  0  0  0  0  0  0  0  0  0  0
   -4.6543    1.5365   -1.2909 H   0  0  0  0  0  0  0  0  0  0  0  0
   -6.7477   -0.4291    1.9393 H   0  0  0  0  0  0  0  0  0  0  0  0
   -6.7817    1.9454   -2.4179 H   0  0  0  0  0  0  0  0  0  0  0  0
   -8.8940    0.0160    0.7880 H   0  0  0  0  0  0  0  0  0  0  0  0
   -8.9135    1.2010   -1.3915 H   0  0  0  0  0  0  0  0  0  0  0  0
    6.9103    2.7807   -1.3804 H   0  0  0  0  0  0  0  0  0  0  0  0
  1 18  1  0  0  0  0
  2 13  1  0  0  0  0
  2 17  1  0  0  0  0
  3 12  2  0  0  0  0
  4 20  1  0  0  0  0
  4 46  1  0  0  0  0
  5  7  1  0  0  0  0
  5  8  1  0  0  0  0
  5 11  1  0  0  0  0
  6  9  1  0  0  0  0
  6 10  1  0  0  0  0
  6 12  1  0  0  0  0
  7  9  1  0  0  0  0
  7 26  1  0  0  0  0
  7 27  1  0  0  0  0
  8 10  1  0  0  0  0
  8 28  1  0  0  0  0
  8 29  1  0  0  0  0
  9 30  1  0  0  0  0
  9 31  1  0  0  0  0
 10 32  1  0  0  0  0
 10 33  1  0  0  0  0
 11 13  1  0  0  0  0
 11 34  1  0  0  0  0
 11 35  1  0  0  0  0
 12 14  1  0  0  0  0
 13 36  1  0  0  0  0
 13 37  1  0  0  0  0
 14 15  2  0  0  0  0
 14 16  1  0  0  0  0
 15 18  1  0  0  0  0
 15 38  1  0  0  0  0
 16 19  2  0  0  0  0
 16 39  1  0  0  0  0
 17 21  2  0  0  0  0
 17 22  1  0  0  0  0
 18 20  2  0  0  0  0
 19 20  1  0  0  0  0
 19 40  1  0  0  0  0
 21 23  1  0  0  0  0
 21 41  1  0  0  0  0
 22 24  2  0  0  0  0
 22 42  1  0  0  0  0
 23 25  2  0  0  0  0
 23 43  1  0  0  0  0
 24 25  1  0  0  0  0
 24 44  1  0  0  0  0
 25 45  1  0  0  0  0
M  END
> <PUBCHEM_COMPOUND_CID>
17396456

> <PUBCHEM_CONFORMER_RMSD>
1

> <PUBCHEM_CONFORMER_DIVERSEORDER>
2
80
99
47
21
38
76
74
14
107
79
4
94
13
30
96
26
10
86
52
11
61
81
51
45
111
15
12
20
91
116
68
105
73
37
59
1
62
85
102
66
100
115
50
106
95
89
32
27
23
41
25
44
82
64
65
112
90
56
43
36
109
117
71
57
110
103
72
93
92
87
17
108
55
70
49
3
58
46
97
77
16
48
18
98
53
54
63
78
75
34
22
40
7
60
114
8
19
24
33
5
67
101
83
35
113
39
69
84
28
42
31
9
29
6
88
104

> <PUBCHEM_MMFF94_PARTIAL_CHARGES>
34
1 -0.18
10 0.3
11 0.27
12 0.54
13 0.28
14 0.09
15 -0.15
16 -0.15
17 0.08
18 0.18
19 -0.15
2 -0.36
20 0.08
21 -0.15
22 -0.15
23 -0.15
24 -0.15
25 -0.15
3 -0.57
38 0.15
39 0.15
4 -0.53
40 0.15
41 0.15
42 0.15
43 0.15
44 0.15
45 0.15
46 0.45
5 -0.81
6 -0.66
7 0.27
8 0.27
9 0.3

> <PUBCHEM_EFFECTIVE_ROTOR_COUNT>
7.2

> <PUBCHEM_PHARMACOPHORE_FEATURES>
7
1 2 acceptor
1 3 acceptor
1 4 donor
1 5 cation
6 14 15 16 18 19 20 rings
6 17 21 22 23 24 25 rings
6 5 6 7 8 9 10 rings

> <PUBCHEM_HEAVY_ATOM_COUNT>
25

> <PUBCHEM_ATOM_DEF_STEREO_COUNT>
0

> <PUBCHEM_ATOM_UDEF_STEREO_COUNT>
0

> <PUBCHEM_BOND_DEF_STEREO_COUNT>
0

> <PUBCHEM_BOND_UDEF_STEREO_COUNT>
0

> <PUBCHEM_ISOTOPIC_ATOM_COUNT>
0

> <PUBCHEM_COMPONENT_COUNT>
1

> <PUBCHEM_CACTVS_TAUTO_COUNT>
4

> <PUBCHEM_CONFORMER_ID>
010972E800000002

> <PUBCHEM_MMFF94_ENERGY>
69.9591

> <PUBCHEM_FEATURE_SELFOVERLAP>
35.52

> <PUBCHEM_SHAPE_FINGERPRINT>
10 15 17775564226153396857
10638233 991 17676206888227586265
11181472 205 17169541030112414337
11524674 6 10087632698920892633
11761917 142 17058945548820191989
125118 31 18201156654630773733
12778500 126 16486981695942077064
12838862 33 18334304132889648048
13533116 47 18335979886713994818
13878862 14 18339656623838130846
14123256 34 8718833088977207004
14347424 109 15698284408656568644
14461889 52 18060411392205312027
14528608 73 17894347782816356594
14598715 104 17988373641348950893
14681490 219 17530684320767930169
14767858 380 17748826332612095601
15183329 4 17095242527669771581
16079462 125 18272934938296979051
18335252 114 18186236239203059460
20157964 124 18410854395071653198
20281389 69 18060418032329719685
20554085 129 17989213642161483961
21033648 29 18338521820664374536
21150785 3 15357698578365782560
21344244 181 6483350036554498797
21521721 280 18260546736650355843
21585481 104 15936954323734775873
22864921 267 14620244103597591553
23035841 295 5256403882191180901
23081809 10 17531245123574884155
23522609 53 16081631345536656771
249057 25 17459464627246004706
2748736 6 18343304777422713637
312425 54 15267341795079619096
335352 9 18335131030290230342
34797466 226 17095519608583689045
3627633 1 17547848560223703898
3918712 181 18336266730817050880
4073 2 18273208682502083579
4340502 62 16415760833861876922
44249763 50 18335148535832857023
445580 126 18334864909499297296
5080951 261 16128096625638966459
6898599 12 17896043135283935903

> <PUBCHEM_SHAPE_MULTIPOLES>
488.79
23.52
2.46
1.43
33.08
0.88
0.16
-16.81
-2.07
-4.06
0.15
-1.06
-0.74
1.85

> <PUBCHEM_SHAPE_SELFOVERLAP>
1027.094

> <PUBCHEM_SHAPE_VOLUME>
275.7

> <PUBCHEM_COORDINATE_TYPE>
2
5
10

$$$$

