6942
  -OEChem-06261201363D

 18 18  0     0  0  0  0  0  0999 V2000
    2.3498    0.3108    1.1187 O   0  0  0  0  0  0  0  0  0  0  0  0
    0.3129   -2.2030    0.0032 N   0  0  0  0  0  0  0  0  0  0  0  0
    2.3850    0.3475   -1.1740 N   0  0  0  0  0  0  0  0  0  0  0  0
    0.2660    0.2388    0.0235 C   0  0  0  0  0  0  0  0  0  0  0  0
   -0.4028   -0.9850    0.0019 C   0  0  0  0  0  0  0  0  0  0  0  0
   -0.4594    1.4302    0.0224 C   0  0  0  0  0  0  0  0  0  0  0  0
   -1.7971   -1.0175   -0.0208 C   0  0  0  0  0  0  0  0  0  0  0  0
   -1.8537    1.3978   -0.0003 C   0  0  0  0  0  0  0  0  0  0  0  0
   -2.5226    0.1739   -0.0220 C   0  0  0  0  0  0  0  0  0  0  0  0
    1.7218    0.3067    0.0474 C   0  0  0  0  0  0  0  0  0  0  0  0
    0.0499    2.3905    0.0395 H   0  0  0  0  0  0  0  0  0  0  0  0
   -2.3312   -1.9642   -0.0377 H   0  0  0  0  0  0  0  0  0  0  0  0
   -2.4187    2.3253   -0.0011 H   0  0  0  0  0  0  0  0  0  0  0  0
   -3.6082    0.1487   -0.0397 H   0  0  0  0  0  0  0  0  0  0  0  0
    1.3235   -2.2077    0.0171 H   0  0  0  0  0  0  0  0  0  0  0  0
   -0.1897   -3.0807   -0.0137 H   0  0  0  0  0  0  0  0  0  0  0  0
    1.8872    0.3368   -2.0585 H   0  0  0  0  0  0  0  0  0  0  0  0
    3.3978    0.3886   -1.2167 H   0  0  0  0  0  0  0  0  0  0  0  0
  1 10  2  0  0  0  0
  2  5  1  0  0  0  0
  2 15  1  0  0  0  0
  2 16  1  0  0  0  0
  3 10  1  0  0  0  0
  3 17  1  0  0  0  0
  3 18  1  0  0  0  0
  4  5  1  0  0  0  0
  4  6  2  0  0  0  0
  4 10  1  0  0  0  0
  5  7  2  0  0  0  0
  6  8  1  0  0  0  0
  6 11  1  0  0  0  0
  7  9  1  0  0  0  0
  7 12  1  0  0  0  0
  8  9  2  0  0  0  0
  8 13  1  0  0  0  0
  9 14  1  0  0  0  0
M  END
> <PUBCHEM_COMPOUND_CID>
6942

> <PUBCHEM_CONFORMER_RMSD>
0.4

> <PUBCHEM_CONFORMER_DIVERSEORDER>
1
3
2

> <PUBCHEM_MMFF94_PARTIAL_CHARGES>
18
1 -0.57
10 0.54
11 0.15
12 0.15
13 0.15
14 0.15
15 0.4
16 0.4
17 0.37
18 0.37
2 -0.9
3 -0.8
4 0.09
5 0.1
6 -0.15
7 -0.15
8 -0.15
9 -0.15

> <PUBCHEM_EFFECTIVE_ROTOR_COUNT>
1

> <PUBCHEM_PHARMACOPHORE_FEATURES>
5
1 1 acceptor
1 2 cation
1 2 donor
1 3 donor
6 4 5 6 7 8 9 rings

> <PUBCHEM_HEAVY_ATOM_COUNT>
10

> <PUBCHEM_ATOM_DEF_STEREO_COUNT>
0

> <PUBCHEM_ATOM_UDEF_STEREO_COUNT>
0

> <PUBCHEM_BOND_DEF_STEREO_COUNT>
0

> <PUBCHEM_BOND_UDEF_STEREO_COUNT>
0

> <PUBCHEM_ISOTOPIC_ATOM_COUNT>
0

> <PUBCHEM_COMPONENT_COUNT>
1

> <PUBCHEM_CACTVS_TAUTO_COUNT>
5

> <PUBCHEM_CONFORMER_ID>
00001B1E00000001

> <PUBCHEM_MMFF94_ENERGY>
42.0596

> <PUBCHEM_FEATURE_SELFOVERLAP>
25.371

> <PUBCHEM_SHAPE_FINGERPRINT>
10857977 72 18336553707271424745
12423570 1 11418118123560758639
15310529 11 16773801355108111029
16945 1 18410575080758560201
20645464 45 17968105179076351848
21040471 1 18338517546544219305
23235685 24 18413103983114116757
23552423 10 18200026399125750959
2748010 2 18123467443533753989
29004967 10 16225762999846912576
369184 2 18114192916423512904
5084963 1 18187072953785881468

> <PUBCHEM_SHAPE_MULTIPOLES>
189.96
3.25
1.67
0.8
0.58
0.57
0.02
-0.6
0.07
-0.43
0
0.48
-0.08
-0.02

> <PUBCHEM_SHAPE_SELFOVERLAP>
398.41

> <PUBCHEM_SHAPE_VOLUME>
107.5

> <PUBCHEM_COORDINATE_TYPE>
2
5
10

$$$$

