11955
  -OEChem-06261206203D

 18 18  0     0  0  0  0  0  0999 V2000
    1.8075    1.4504   -0.4190 O   0  0  0  0  0  0  0  0  0  0  0  0
    2.1541   -0.7470    0.2398 N   0  0  0  0  0  0  0  0  0  0  0  0
    3.5292   -0.6133    0.2281 N   0  0  0  0  0  0  0  0  0  0  0  0
   -0.0934    0.1301   -0.0444 C   0  0  0  0  0  0  0  0  0  0  0  0
   -0.9473    1.2071    0.1933 C   0  0  0  0  0  0  0  0  0  0  0  0
   -0.6186   -1.1487   -0.2294 C   0  0  0  0  0  0  0  0  0  0  0  0
    1.3445    0.3402   -0.0991 C   0  0  0  0  0  0  0  0  0  0  0  0
   -2.3265    1.0053    0.2462 C   0  0  0  0  0  0  0  0  0  0  0  0
   -1.9978   -1.3506   -0.1767 C   0  0  0  0  0  0  0  0  0  0  0  0
   -2.8517   -0.2735    0.0611 C   0  0  0  0  0  0  0  0  0  0  0  0
   -0.5581    2.2107    0.3445 H   0  0  0  0  0  0  0  0  0  0  0  0
    0.0080   -2.0090   -0.4454 H   0  0  0  0  0  0  0  0  0  0  0  0
   -2.9916    1.8436    0.4321 H   0  0  0  0  0  0  0  0  0  0  0  0
   -2.4079   -2.3450   -0.3273 H   0  0  0  0  0  0  0  0  0  0  0  0
   -3.9257   -0.4304    0.1007 H   0  0  0  0  0  0  0  0  0  0  0  0
    1.7842   -1.6369    0.5573 H   0  0  0  0  0  0  0  0  0  0  0  0
    3.8553   -0.8337    1.1682 H   0  0  0  0  0  0  0  0  0  0  0  0
    3.8920   -1.3498   -0.3755 H   0  0  0  0  0  0  0  0  0  0  0  0
  1  7  2  0  0  0  0
  2  3  1  0  0  0  0
  2  7  1  0  0  0  0
  2 16  1  0  0  0  0
  3 17  1  0  0  0  0
  3 18  1  0  0  0  0
  4  5  2  0  0  0  0
  4  6  1  0  0  0  0
  4  7  1  0  0  0  0
  5  8  1  0  0  0  0
  5 11  1  0  0  0  0
  6  9  2  0  0  0  0
  6 12  1  0  0  0  0
  8 10  2  0  0  0  0
  8 13  1  0  0  0  0
  9 10  1  0  0  0  0
  9 14  1  0  0  0  0
 10 15  1  0  0  0  0
M  END
> <PUBCHEM_COMPOUND_CID>
11955

> <PUBCHEM_CONFORMER_RMSD>
0.4

> <PUBCHEM_CONFORMER_DIVERSEORDER>
1
3
2

> <PUBCHEM_MMFF94_PARTIAL_CHARGES>
18
1 -0.57
10 -0.15
11 0.15
12 0.15
13 0.15
14 0.15
15 0.15
16 0.37
17 0.36
18 0.36
2 -0.42
3 -0.73
4 0.09
5 -0.15
6 -0.15
7 0.54
8 -0.15
9 -0.15

> <PUBCHEM_EFFECTIVE_ROTOR_COUNT>
2

> <PUBCHEM_PHARMACOPHORE_FEATURES>
4
1 1 acceptor
1 2 donor
1 3 donor
6 4 5 6 8 9 10 rings

> <PUBCHEM_HEAVY_ATOM_COUNT>
10

> <PUBCHEM_ATOM_DEF_STEREO_COUNT>
0

> <PUBCHEM_ATOM_UDEF_STEREO_COUNT>
0

> <PUBCHEM_BOND_DEF_STEREO_COUNT>
0

> <PUBCHEM_BOND_UDEF_STEREO_COUNT>
0

> <PUBCHEM_ISOTOPIC_ATOM_COUNT>
0

> <PUBCHEM_COMPONENT_COUNT>
1

> <PUBCHEM_CACTVS_TAUTO_COUNT>
2

> <PUBCHEM_CONFORMER_ID>
00002EB300000001

> <PUBCHEM_MMFF94_ENERGY>
25.9651

> <PUBCHEM_FEATURE_SELFOVERLAP>
21.803

> <PUBCHEM_SHAPE_FINGERPRINT>
12932764 1 17823413799325225713
13024252 1 15339116866474426253
14325111 11 18410291414979393385
16945 1 18337101367162286671
20645464 45 17240483610819432442
20653085 51 17131843057739507805
20871998 184 18040715818746860383
21040471 1 18262512701778870561
23402539 116 17968670405731815589
23552423 10 18271807861020549127
29004967 10 16128660717145754789
369184 2 18260832574865205649
5084963 1 18410014346802554937

> <PUBCHEM_SHAPE_MULTIPOLES>
189.96
4.44
1.46
0.63
2.44
0.07
0
-0.61
0.35
-0.3
-0.06
-0.02
0.01
-0.3

> <PUBCHEM_SHAPE_SELFOVERLAP>
394.11

> <PUBCHEM_SHAPE_VOLUME>
108.4

> <PUBCHEM_COORDINATE_TYPE>
2
5
10

$$$$

