51090980
  -OEChem-06241223013D

 45 47  0     0  0  0  0  0  0999 V2000
   -5.3028    1.2619   -0.2603 O   0  0  0  0  0  0  0  0  0  0  0  0
    1.2138    3.9516   -0.7166 O   0  0  0  0  0  0  0  0  0  0  0  0
   -6.4178   -0.7879   -0.8625 O   0  0  0  0  0  0  0  0  0  0  0  0
    1.3979   -1.0597    2.1270 O   0  0  0  0  0  0  0  0  0  0  0  0
    2.0741    0.6455    0.6999 N   0  0  0  0  0  0  0  0  0  0  0  0
    3.9864   -1.7454    0.3440 N   0  0  0  0  0  0  0  0  0  0  0  0
    1.7823    1.6549   -0.3163 C   0  0  0  0  0  0  0  0  0  0  0  0
    3.4772    0.5159    1.0710 C   0  0  0  0  0  0  0  0  0  0  0  0
    1.4549    2.9982    0.3100 C   0  0  0  0  0  0  0  0  0  0  0  0
    1.1274   -0.1950    1.2925 C   0  0  0  0  0  0  0  0  0  0  0  0
    4.2140   -0.4254    0.1626 C   0  0  0  0  0  0  0  0  0  0  0  0
   -2.5153   -1.0346    0.3866 C   0  0  0  0  0  0  0  0  0  0  0  0
   -4.4958    0.1747   -0.1227 C   0  0  0  0  0  0  0  0  0  0  0  0
   -5.1326   -0.9958   -0.4663 C   0  0  0  0  0  0  0  0  0  0  0  0
   -0.2831   -0.0207    0.8360 C   0  0  0  0  0  0  0  0  0  0  0  0
   -3.1851    0.1888    0.3082 C   0  0  0  0  0  0  0  0  0  0  0  0
   -1.1146   -1.0732    0.8420 C   0  0  0  0  0  0  0  0  0  0  0  0
   -3.1660   -2.2305    0.0355 C   0  0  0  0  0  0  0  0  0  0  0  0
   -4.4939   -2.2168   -0.3981 C   0  0  0  0  0  0  0  0  0  0  0  0
    5.0713    0.0894   -0.7967 C   0  0  0  0  0  0  0  0  0  0  0  0
   -6.5188    0.6446   -0.7298 C   0  0  0  0  0  0  0  0  0  0  0  0
    5.7377   -0.8087   -1.6229 C   0  0  0  0  0  0  0  0  0  0  0  0
    4.6518   -2.5880   -0.4776 C   0  0  0  0  0  0  0  0  0  0  0  0
    5.5293   -2.1747   -1.4669 C   0  0  0  0  0  0  0  0  0  0  0  0
    0.9074    5.2308   -0.1786 C   0  0  0  0  0  0  0  0  0  0  0  0
    0.9594    1.3264   -0.9600 H   0  0  0  0  0  0  0  0  0  0  0  0
    2.6398    1.7565   -0.9917 H   0  0  0  0  0  0  0  0  0  0  0  0
    3.5473    0.1271    2.0944 H   0  0  0  0  0  0  0  0  0  0  0  0
    3.9417    1.5089    1.0914 H   0  0  0  0  0  0  0  0  0  0  0  0
    2.2939    3.3387    0.9289 H   0  0  0  0  0  0  0  0  0  0  0  0
    0.5722    2.9226    0.9550 H   0  0  0  0  0  0  0  0  0  0  0  0
   -0.5957    0.9585    0.5026 H   0  0  0  0  0  0  0  0  0  0  0  0
   -2.7355    1.1353    0.5857 H   0  0  0  0  0  0  0  0  0  0  0  0
   -0.7573   -2.0485    1.1648 H   0  0  0  0  0  0  0  0  0  0  0  0
   -2.6446   -3.1834    0.0952 H   0  0  0  0  0  0  0  0  0  0  0  0
   -4.9992   -3.1366   -0.6699 H   0  0  0  0  0  0  0  0  0  0  0  0
    5.2284    1.1564   -0.9123 H   0  0  0  0  0  0  0  0  0  0  0  0
   -6.7739    1.0705   -1.7070 H   0  0  0  0  0  0  0  0  0  0  0  0
   -7.3248    0.8757   -0.0239 H   0  0  0  0  0  0  0  0  0  0  0  0
    6.4180   -0.4451   -2.3871 H   0  0  0  0  0  0  0  0  0  0  0  0
    4.4546   -3.6425   -0.3151 H   0  0  0  0  0  0  0  0  0  0  0  0
    6.0378   -2.8929   -2.0997 H   0  0  0  0  0  0  0  0  0  0  0  0
    0.0006    5.1831    0.4320 H   0  0  0  0  0  0  0  0  0  0  0  0
    1.7444    5.6073    0.4173 H   0  0  0  0  0  0  0  0  0  0  0  0
    0.7327    5.9203   -1.0089 H   0  0  0  0  0  0  0  0  0  0  0  0
  1 13  1  0  0  0  0
  1 21  1  0  0  0  0
  2  9  1  0  0  0  0
  2 25  1  0  0  0  0
  3 14  1  0  0  0  0
  3 21  1  0  0  0  0
  4 10  2  0  0  0  0
  5  7  1  0  0  0  0
  5  8  1  0  0  0  0
  5 10  1  0  0  0  0
  6 11  1  0  0  0  0
  6 23  2  0  0  0  0
  7  9  1  0  0  0  0
  7 26  1  0  0  0  0
  7 27  1  0  0  0  0
  8 11  1  0  0  0  0
  8 28  1  0  0  0  0
  8 29  1  0  0  0  0
  9 30  1  0  0  0  0
  9 31  1  0  0  0  0
 10 15  1  0  0  0  0
 11 20  2  0  0  0  0
 12 16  2  0  0  0  0
 12 17  1  0  0  0  0
 12 18  1  0  0  0  0
 13 14  2  0  0  0  0
 13 16  1  0  0  0  0
 14 19  1  0  0  0  0
 15 17  2  0  0  0  0
 15 32  1  0  0  0  0
 16 33  1  0  0  0  0
 17 34  1  0  0  0  0
 18 19  2  0  0  0  0
 18 35  1  0  0  0  0
 19 36  1  0  0  0  0
 20 22  1  0  0  0  0
 20 37  1  0  0  0  0
 21 38  1  0  0  0  0
 21 39  1  0  0  0  0
 22 24  2  0  0  0  0
 22 40  1  0  0  0  0
 23 24  1  0  0  0  0
 23 41  1  0  0  0  0
 24 42  1  0  0  0  0
 25 43  1  0  0  0  0
 25 44  1  0  0  0  0
 25 45  1  0  0  0  0
M  END
> <PUBCHEM_COMPOUND_CID>
51090980

> <PUBCHEM_CONFORMER_RMSD>
1

> <PUBCHEM_CONFORMER_DIVERSEORDER>
1
12
160
89
147
32
109
50
141
47
131
118
39
21
30
28
129
149
136
45
122
121
42
151
100
145
46
53
62
71
127
102
15
26
153
154
87
73
2
84
65
107
92
76
146
56
125
112
137
38
96
18
17
66
117
67
43
85
49
138
13
25
64
94
29
58
31
143
115
60
37
113
27
150
108
54
119
161
63
81
88
101
134
69
41
126
99
74
72
40
59
9
111
124
156
57
78
44
33
158
86
120
91
80
23
68
48
3
104
130
83
155
114
105
61
52
142
110
159
93
157
139
4
148
36
106
133
20
144
19
132
34
152
77
103
79
135
55
14
140
35
128
51
95
5
22
116
7
24
75
16
82
97
70
90
123
98
11
8
10
6

> <PUBCHEM_MMFF94_PARTIAL_CHARGES>
34
1 -0.36
10 0.62
11 0.17
12 0.03
13 0.08
14 0.08
15 -0.14
16 -0.15
17 -0.18
18 -0.15
19 -0.15
2 -0.56
20 -0.15
21 0.56
22 -0.15
23 0.16
24 -0.15
25 0.28
3 -0.36
32 0.15
33 0.15
34 0.15
35 0.15
36 0.15
37 0.15
4 -0.57
40 0.15
41 0.15
42 0.15
5 -0.66
6 -0.62
7 0.3
8 0.44
9 0.28

> <PUBCHEM_EFFECTIVE_ROTOR_COUNT>
8.6

> <PUBCHEM_PHARMACOPHORE_FEATURES>
8
1 1 acceptor
1 2 acceptor
1 3 acceptor
1 4 acceptor
1 6 acceptor
5 1 3 13 14 21 rings
6 12 13 14 16 18 19 rings
6 6 11 20 22 23 24 rings

> <PUBCHEM_HEAVY_ATOM_COUNT>
25

> <PUBCHEM_ATOM_DEF_STEREO_COUNT>
0

> <PUBCHEM_ATOM_UDEF_STEREO_COUNT>
0

> <PUBCHEM_BOND_DEF_STEREO_COUNT>
1

> <PUBCHEM_BOND_UDEF_STEREO_COUNT>
0

> <PUBCHEM_ISOTOPIC_ATOM_COUNT>
0

> <PUBCHEM_COMPONENT_COUNT>
1

> <PUBCHEM_CACTVS_TAUTO_COUNT>
1

> <PUBCHEM_CONFORMER_ID>
030B962400000001

> <PUBCHEM_MMFF94_ENERGY>
68.2997

> <PUBCHEM_FEATURE_SELFOVERLAP>
40.75

> <PUBCHEM_SHAPE_FINGERPRINT>
10815517 723 18117824723917014481
11386260 185 18339095791673319709
11796584 16 17530682099942692286
12166972 35 18187082841301978113
12788726 201 18128531759900383248
12839892 36 7853570197237892697
13533116 47 17095527279506374650
13668630 136 16877660162664021591
13914758 101 14996281462070908651
14681490 219 18342174518166055668
15183329 4 18409164454300232619
15210252 30 17632287965887637860
15475509 8 18337102479617007521
15575132 122 16845298288937863751
15664445 248 18340773650685476840
16126227 98 9366756583203325982
16988056 13 18341054004101463684
17349148 13 16008739195633373650
17492 89 18194119608303694999
17844677 252 18340485539783872563
18335252 114 18340217370995770157
18681886 176 18336557014354116331
19377110 9 10231753345208286201
21285901 2 18188485916970604470
21641784 216 16845291708594201412
22061861 79 17821450166227016751
22079108 93 10087632689728863298
221357 26 18343023306566741053
2215653 11 18259987088936240055
23559900 14 18261961756364504459
3004659 81 18340767130878090002
3103668 31 18055357096092947189
340366 18 18260549978723040407
437795 70 18339918320052703645
437815 12 18333730242926127292
44062 13 18113903715381645767
46194498 28 18269276750935881614
465052 167 14490191601011734042
5081480 168 18200888291846255653
5207 123 18334010609917189982
54076057 255 17275102834137673781
6442390 28 9151169853302250680
960060 61 18413099568373312502
9971528 1 18335987493227507920
9981440 41 17331404172909494881

> <PUBCHEM_SHAPE_MULTIPOLES>
481.05
15.67
4.08
1.27
10.39
7.12
-0.18
-8.88
7.45
-3.03
0.99
-1.2
-0.35
0.87

> <PUBCHEM_SHAPE_SELFOVERLAP>
1024.453

> <PUBCHEM_SHAPE_VOLUME>
266.7

> <PUBCHEM_COORDINATE_TYPE>
2
5
10

$$$$

