12212
  -OEChem-06261206403D

 24 23  0     0  0  0  0  0  0999 V2000
   -3.4514   -0.6569   -0.2033 O   0  0  0  0  0  0  0  0  0  0  0  0
   -2.1189   -0.9054    0.1313 N   0  0  0  0  0  0  0  0  0  0  0  0
    2.4136   -0.1028   -0.4827 C   0  0  0  0  0  0  0  0  0  0  0  0
    0.8919   -0.0589   -0.7257 C   0  0  0  0  0  0  0  0  0  0  0  0
    0.0376    0.1065    0.5321 C   0  0  0  0  0  0  0  0  0  0  0  0
    2.8577    1.1736    0.2376 C   0  0  0  0  0  0  0  0  0  0  0  0
    2.8411   -1.3264    0.3288 C   0  0  0  0  0  0  0  0  0  0  0  0
   -1.4426    0.1998    0.2131 C   0  0  0  0  0  0  0  0  0  0  0  0
   -2.0288    1.5705   -0.0311 C   0  0  0  0  0  0  0  0  0  0  0  0
    2.9101   -0.1449   -1.4601 H   0  0  0  0  0  0  0  0  0  0  0  0
    0.5868   -0.9734   -1.2509 H   0  0  0  0  0  0  0  0  0  0  0  0
    0.6686    0.7657   -1.4158 H   0  0  0  0  0  0  0  0  0  0  0  0
    0.3127    1.0057    1.0914 H   0  0  0  0  0  0  0  0  0  0  0  0
    0.1823   -0.7480    1.2030 H   0  0  0  0  0  0  0  0  0  0  0  0
    2.4886    2.0667   -0.2776 H   0  0  0  0  0  0  0  0  0  0  0  0
    2.5188    1.2064    1.2778 H   0  0  0  0  0  0  0  0  0  0  0  0
    3.9518    1.2325    0.2548 H   0  0  0  0  0  0  0  0  0  0  0  0
    2.5001   -2.2485   -0.1530 H   0  0  0  0  0  0  0  0  0  0  0  0
    3.9329   -1.3730    0.4040 H   0  0  0  0  0  0  0  0  0  0  0  0
    2.4402   -1.3052    1.3471 H   0  0  0  0  0  0  0  0  0  0  0  0
   -1.2695    2.3456    0.1006 H   0  0  0  0  0  0  0  0  0  0  0  0
   -2.4106    1.6279   -1.0542 H   0  0  0  0  0  0  0  0  0  0  0  0
   -2.8427    1.7537    0.6755 H   0  0  0  0  0  0  0  0  0  0  0  0
   -3.8182   -1.5568   -0.2266 H   0  0  0  0  0  0  0  0  0  0  0  0
  1  2  1  0  0  0  0
  1 24  1  0  0  0  0
  2  8  2  0  0  0  0
  3  4  1  0  0  0  0
  3  6  1  0  0  0  0
  3  7  1  0  0  0  0
  3 10  1  0  0  0  0
  4  5  1  0  0  0  0
  4 11  1  0  0  0  0
  4 12  1  0  0  0  0
  5  8  1  0  0  0  0
  5 13  1  0  0  0  0
  5 14  1  0  0  0  0
  6 15  1  0  0  0  0
  6 16  1  0  0  0  0
  6 17  1  0  0  0  0
  7 18  1  0  0  0  0
  7 19  1  0  0  0  0
  7 20  1  0  0  0  0
  8  9  1  0  0  0  0
  9 21  1  0  0  0  0
  9 22  1  0  0  0  0
  9 23  1  0  0  0  0
M  END
> <PUBCHEM_COMPOUND_CID>
12212

> <PUBCHEM_CONFORMER_RMSD>
0.6

> <PUBCHEM_CONFORMER_DIVERSEORDER>
2
5
6
4
1
3

> <PUBCHEM_MMFF94_PARTIAL_CHARGES>
6
1 -0.34
2 -0.51
24 0.4
5 0.06
8 0.33
9 0.06

> <PUBCHEM_EFFECTIVE_ROTOR_COUNT>
3

> <PUBCHEM_PHARMACOPHORE_FEATURES>
3
1 1 anion
1 2 acceptor
3 3 6 7 hydrophobe

> <PUBCHEM_HEAVY_ATOM_COUNT>
9

> <PUBCHEM_ATOM_DEF_STEREO_COUNT>
0

> <PUBCHEM_ATOM_UDEF_STEREO_COUNT>
0

> <PUBCHEM_BOND_DEF_STEREO_COUNT>
0

> <PUBCHEM_BOND_UDEF_STEREO_COUNT>
1

> <PUBCHEM_ISOTOPIC_ATOM_COUNT>
0

> <PUBCHEM_COMPONENT_COUNT>
1

> <PUBCHEM_CACTVS_TAUTO_COUNT>
2

> <PUBCHEM_CONFORMER_ID>
00002FB400000002

> <PUBCHEM_MMFF94_ENERGY>
14.1294

> <PUBCHEM_FEATURE_SELFOVERLAP>
15.223

> <PUBCHEM_SHAPE_FINGERPRINT>
10857977 72 16588025705757545059
11062470 55 18272653407095303517
12716758 59 18341334499719291177
12897270 3 18411133610800191910
12932764 1 18339347656453861752
14325111 11 18410855481719140256
14390081 3 18410854365080624728
15310529 11 18334016081462821516
177051 138 18261393377361723038
19973954 147 18409163337772369864
23552423 10 18273209828709068810
29004967 10 16660358207772352346
3248919 1 17386002931099658136
369184 2 18410008857755203321
5084963 1 17775001310338070510
8030462 33 18202270416579742446

> <PUBCHEM_SHAPE_MULTIPOLES>
174.37
5.41
1.37
0.75
0.77
0.23
0.03
-0.62
-0.02
-0.06
-0.1
-0.19
0
-0.05

> <PUBCHEM_SHAPE_SELFOVERLAP>
314.347

> <PUBCHEM_SHAPE_VOLUME>
113.7

> <PUBCHEM_COORDINATE_TYPE>
2
5
10

$$$$

