47205027
  -OEChem-06241222572D

 37 38  0     0  0  0  0  0  0999 V2000
    2.8660   -2.7047    0.0000 O   0  0  0  0  0  0  0  0  0  0  0  0
    6.3301   -2.7047    0.0000 O   0  0  0  0  0  0  0  0  0  0  0  0
    3.7320    0.7953    0.0000 O   0  0  0  0  0  0  0  0  0  0  0  0
    5.4641    0.7953    0.0000 N   0  0  0  0  0  0  0  0  0  0  0  0
    6.4347    3.2898    0.0000 N   0  0  0  0  0  0  0  0  0  0  0  0
    7.4128    3.4977    0.0000 N   0  0  0  0  0  0  0  0  0  0  0  0
    4.5981   -0.7047    0.0000 C   0  0  0  0  0  0  0  0  0  0  0  0
    4.5981   -2.7047    0.0000 C   0  0  0  0  0  0  0  0  0  0  0  0
    3.7320   -2.2047    0.0000 C   0  0  0  0  0  0  0  0  0  0  0  0
    5.4641   -2.2047    0.0000 C   0  0  0  0  0  0  0  0  0  0  0  0
    3.7320   -1.2047    0.0000 C   0  0  0  0  0  0  0  0  0  0  0  0
    5.4641   -1.2047    0.0000 C   0  0  0  0  0  0  0  0  0  0  0  0
    5.4641    1.7953    0.0000 C   0  0  0  0  0  0  0  0  0  0  0  0
    4.5981    0.2953    0.0000 C   0  0  0  0  0  0  0  0  0  0  0  0
    6.3301    2.2953    0.0000 C   0  0  0  0  0  0  0  0  0  0  0  0
    4.5981   -3.7047    0.0000 C   0  0  0  0  0  0  0  0  0  0  0  0
    7.2437    1.8886    0.0000 C   0  0  0  0  0  0  0  0  0  0  0  0
    7.9128    2.6317    0.0000 C   0  0  0  0  0  0  0  0  0  0  0  0
    2.0000   -2.2047    0.0000 C   0  0  0  0  0  0  0  0  0  0  0  0
    7.1962   -2.2047    0.0000 C   0  0  0  0  0  0  0  0  0  0  0  0
    3.1951   -0.8947    0.0000 H   0  0  0  0  0  0  0  0  0  0  0  0
    6.0010   -0.8947    0.0000 H   0  0  0  0  0  0  0  0  0  0  0  0
    5.2520    2.3779    0.0000 H   0  0  0  0  0  0  0  0  0  0  0  0
    4.8535    1.6876    0.0000 H   0  0  0  0  0  0  0  0  0  0  0  0
    6.0010    0.4853    0.0000 H   0  0  0  0  0  0  0  0  0  0  0  0
    3.9781   -3.7047    0.0000 H   0  0  0  0  0  0  0  0  0  0  0  0
    4.5981   -4.3247    0.0000 H   0  0  0  0  0  0  0  0  0  0  0  0
    5.2181   -3.7047    0.0000 H   0  0  0  0  0  0  0  0  0  0  0  0
    7.3726    1.2821    0.0000 H   0  0  0  0  0  0  0  0  0  0  0  0
    5.9739    3.7047    0.0000 H   0  0  0  0  0  0  0  0  0  0  0  0
    8.5294    2.5669    0.0000 H   0  0  0  0  0  0  0  0  0  0  0  0
    2.3100   -1.6678    0.0000 H   0  0  0  0  0  0  0  0  0  0  0  0
    1.4631   -1.8947    0.0000 H   0  0  0  0  0  0  0  0  0  0  0  0
    1.6900   -2.7416    0.0000 H   0  0  0  0  0  0  0  0  0  0  0  0
    7.5062   -2.7416    0.0000 H   0  0  0  0  0  0  0  0  0  0  0  0
    7.7331   -1.8947    0.0000 H   0  0  0  0  0  0  0  0  0  0  0  0
    6.8862   -1.6678    0.0000 H   0  0  0  0  0  0  0  0  0  0  0  0
  1  9  1  0  0  0  0
  1 19  1  0  0  0  0
  2 10  1  0  0  0  0
  2 20  1  0  0  0  0
  3 14  2  0  0  0  0
  4 13  1  0  0  0  0
  4 14  1  0  0  0  0
  4 25  1  0  0  0  0
  5  6  1  0  0  0  0
  5 15  1  0  0  0  0
  5 30  1  0  0  0  0
  6 18  2  0  0  0  0
  7 11  2  0  0  0  0
  7 12  1  0  0  0  0
  7 14  1  0  0  0  0
  8  9  2  0  0  0  0
  8 10  1  0  0  0  0
  8 16  1  0  0  0  0
  9 11  1  0  0  0  0
 10 12  2  0  0  0  0
 11 21  1  0  0  0  0
 12 22  1  0  0  0  0
 13 15  1  0  0  0  0
 13 23  1  0  0  0  0
 13 24  1  0  0  0  0
 15 17  2  0  0  0  0
 16 26  1  0  0  0  0
 16 27  1  0  0  0  0
 16 28  1  0  0  0  0
 17 18  1  0  0  0  0
 17 29  1  0  0  0  0
 18 31  1  0  0  0  0
 19 32  1  0  0  0  0
 19 33  1  0  0  0  0
 19 34  1  0  0  0  0
 20 35  1  0  0  0  0
 20 36  1  0  0  0  0
 20 37  1  0  0  0  0
M  END
> <PUBCHEM_COMPOUND_CID>
47205027

> <PUBCHEM_COMPOUND_CANONICALIZED>
1

> <PUBCHEM_CACTVS_COMPLEXITY>
313

> <PUBCHEM_CACTVS_HBOND_ACCEPTOR>
4

> <PUBCHEM_CACTVS_HBOND_DONOR>
2

> <PUBCHEM_CACTVS_ROTATABLE_BOND>
5

> <PUBCHEM_CACTVS_SUBSKEYS>
AAADceBzMAAAAAAAAAAAAAAAAAAAAWAAAAAwAAAAAAAAAAABwAAAHgAYAAAADAzBngY+hpLjBACqAzV3UACSDAAkogAYuaE+bNgMZ7KE9duUtShl3hWI6Ye66DyOQAABCAAIAACAAAIQABAAAAAAAAAAAA==

> <PUBCHEM_IUPAC_OPENEYE_NAME>
3,5-dimethoxy-4-methyl-N-(1H-pyrazol-5-ylmethyl)benzamide

> <PUBCHEM_IUPAC_CAS_NAME>
3,5-dimethoxy-4-methyl-N-(1H-pyrazol-5-ylmethyl)benzamide

> <PUBCHEM_IUPAC_NAME>
3,5-dimethoxy-4-methyl-N-(1H-pyrazol-5-ylmethyl)benzamide

> <PUBCHEM_IUPAC_SYSTEMATIC_NAME>
3,5-dimethoxy-4-methyl-N-(1H-pyrazol-5-ylmethyl)benzamide

> <PUBCHEM_IUPAC_TRADITIONAL_NAME>
3,5-dimethoxy-4-methyl-N-(1H-pyrazol-5-ylmethyl)benzamide

> <PUBCHEM_IUPAC_INCHI>
InChI=1S/C14H17N3O3/c1-9-12(19-2)6-10(7-13(9)20-3)14(18)15-8-11-4-5-16-17-11/h4-7H,8H2,1-3H3,(H,15,18)(H,16,17)

> <PUBCHEM_IUPAC_INCHIKEY>
RREIFFKVJIAVBB-UHFFFAOYSA-N

> <PUBCHEM_XLOGP3_AA>
1.3

> <PUBCHEM_EXACT_MASS>
275.126991

> <PUBCHEM_MOLECULAR_FORMULA>
C14H17N3O3

> <PUBCHEM_MOLECULAR_WEIGHT>
275.30308

> <PUBCHEM_OPENEYE_CAN_SMILES>
CC1=C(C=C(C=C1OC)C(=O)NCC2=CC=NN2)OC

> <PUBCHEM_OPENEYE_ISO_SMILES>
CC1=C(C=C(C=C1OC)C(=O)NCC2=CC=NN2)OC

> <PUBCHEM_CACTVS_TPSA>
76.2

> <PUBCHEM_MONOISOTOPIC_WEIGHT>
275.126991

> <PUBCHEM_TOTAL_CHARGE>
0

> <PUBCHEM_HEAVY_ATOM_COUNT>
20

> <PUBCHEM_ATOM_DEF_STEREO_COUNT>
0

> <PUBCHEM_ATOM_UDEF_STEREO_COUNT>
0

> <PUBCHEM_BOND_DEF_STEREO_COUNT>
0

> <PUBCHEM_BOND_UDEF_STEREO_COUNT>
0

> <PUBCHEM_ISOTOPIC_ATOM_COUNT>
0

> <PUBCHEM_COMPONENT_COUNT>
1

> <PUBCHEM_CACTVS_TAUTO_COUNT>
10

> <PUBCHEM_COORDINATE_TYPE>
1
5
255

> <PUBCHEM_BONDANNOTATIONS>
10  12  8
15  17  8
17  18  8
5  15  8
5  6  8
6  18  8
7  11  8
7  12  8
8  10  8
8  9  8
9  11  8

$$$$

