17395550
  -OEChem-06241222512D

 47 51  0     1  0  0  0  0  0999 V2000
    3.8047   -0.4700    0.0000 S   0  0  0  0  0  0  0  0  0  0  0  0
    4.7320    0.1136    0.0000 O   0  0  0  0  0  0  0  0  0  0  0  0
    8.2241    1.0790    0.0000 O   0  0  0  0  0  0  0  0  0  0  0  0
    8.2241    3.1483    0.0000 O   0  0  0  0  0  0  0  0  0  0  0  0
    3.8660    1.6136    0.0000 N   0  0  0  0  0  0  0  0  0  0  0  0
    2.1953   -0.4700    0.0000 N   0  0  0  0  0  0  0  0  0  0  0  0
    3.0000    1.1136    0.0000 C   0  0  3  0  0  0  0  0  0  0  0  0
    2.1340    1.6136    0.0000 C   0  0  0  0  0  0  0  0  0  0  0  0
    2.1340    2.6136    0.0000 C   0  0  0  0  0  0  0  0  0  0  0  0
    3.0000    3.1136    0.0000 C   0  0  0  0  0  0  0  0  0  0  0  0
    3.8660    2.6136    0.0000 C   0  0  0  0  0  0  0  0  0  0  0  0
    3.0000    0.1136    0.0000 C   0  0  0  0  0  0  0  0  0  0  0  0
    4.7320    1.1136    0.0000 C   0  0  0  0  0  0  0  0  0  0  0  0
    5.5981    1.6136    0.0000 C   0  0  0  0  0  0  0  0  0  0  0  0
    3.5000   -1.4162    0.0000 C   0  0  0  0  0  0  0  0  0  0  0  0
    2.5000   -1.4162    0.0000 C   0  0  0  0  0  0  0  0  0  0  0  0
    6.4641    1.1136    0.0000 C   0  0  0  0  0  0  0  0  0  0  0  0
    5.5981    2.6136    0.0000 C   0  0  0  0  0  0  0  0  0  0  0  0
    7.3301    1.6136    0.0000 C   0  0  0  0  0  0  0  0  0  0  0  0
    7.3301    2.6136    0.0000 C   0  0  0  0  0  0  0  0  0  0  0  0
    4.0000   -2.2822    0.0000 C   0  0  0  0  0  0  0  0  0  0  0  0
    2.0000   -2.2822    0.0000 C   0  0  0  0  0  0  0  0  0  0  0  0
    6.4641    3.1136    0.0000 C   0  0  0  0  0  0  0  0  0  0  0  0
    9.1301    1.5928    0.0000 C   0  0  0  0  0  0  0  0  0  0  0  0
    3.5000   -3.1483    0.0000 C   0  0  0  0  0  0  0  0  0  0  0  0
    2.5000   -3.1483    0.0000 C   0  0  0  0  0  0  0  0  0  0  0  0
    9.1301    2.6344    0.0000 C   0  0  0  0  0  0  0  0  0  0  0  0
    3.5369    0.8036    0.0000 H   0  0  0  0  0  0  0  0  0  0  0  0
    1.5234    1.7213    0.0000 H   0  0  0  0  0  0  0  0  0  0  0  0
    1.9219    1.0310    0.0000 H   0  0  0  0  0  0  0  0  0  0  0  0
    1.9219    3.1962    0.0000 H   0  0  0  0  0  0  0  0  0  0  0  0
    1.5234    2.5060    0.0000 H   0  0  0  0  0  0  0  0  0  0  0  0
    3.3985    3.5886    0.0000 H   0  0  0  0  0  0  0  0  0  0  0  0
    2.6015    3.5886    0.0000 H   0  0  0  0  0  0  0  0  0  0  0  0
    4.4766    2.5060    0.0000 H   0  0  0  0  0  0  0  0  0  0  0  0
    4.0781    3.1962    0.0000 H   0  0  0  0  0  0  0  0  0  0  0  0
    6.4641    0.4936    0.0000 H   0  0  0  0  0  0  0  0  0  0  0  0
    5.0611    2.9236    0.0000 H   0  0  0  0  0  0  0  0  0  0  0  0
    6.4641    3.7336    0.0000 H   0  0  0  0  0  0  0  0  0  0  0  0
    4.6200   -2.2822    0.0000 H   0  0  0  0  0  0  0  0  0  0  0  0
    1.3800   -2.2822    0.0000 H   0  0  0  0  0  0  0  0  0  0  0  0
    9.3392    1.0091    0.0000 H   0  0  0  0  0  0  0  0  0  0  0  0
    9.7410    1.6989    0.0000 H   0  0  0  0  0  0  0  0  0  0  0  0
    9.7410    2.5283    0.0000 H   0  0  0  0  0  0  0  0  0  0  0  0
    9.3392    3.2181    0.0000 H   0  0  0  0  0  0  0  0  0  0  0  0
    3.8100   -3.6852    0.0000 H   0  0  0  0  0  0  0  0  0  0  0  0
    2.1900   -3.6852    0.0000 H   0  0  0  0  0  0  0  0  0  0  0  0
  1 12  1  0  0  0  0
  1 15  1  0  0  0  0
  2 13  2  0  0  0  0
  3 19  1  0  0  0  0
  3 24  1  0  0  0  0
  4 20  1  0  0  0  0
  4 27  1  0  0  0  0
  5  7  1  0  0  0  0
  5 11  1  0  0  0  0
  5 13  1  0  0  0  0
  6 12  2  0  0  0  0
  6 16  1  0  0  0  0
  7  8  1  0  0  0  0
  7 12  1  0  0  0  0
  7 28  1  0  0  0  0
  8  9  1  0  0  0  0
  8 29  1  0  0  0  0
  8 30  1  0  0  0  0
  9 10  1  0  0  0  0
  9 31  1  0  0  0  0
  9 32  1  0  0  0  0
 10 11  1  0  0  0  0
 10 33  1  0  0  0  0
 10 34  1  0  0  0  0
 11 35  1  0  0  0  0
 11 36  1  0  0  0  0
 13 14  1  0  0  0  0
 14 17  2  0  0  0  0
 14 18  1  0  0  0  0
 15 16  1  0  0  0  0
 15 21  2  0  0  0  0
 16 22  2  0  0  0  0
 17 19  1  0  0  0  0
 17 37  1  0  0  0  0
 18 23  2  0  0  0  0
 18 38  1  0  0  0  0
 19 20  2  0  0  0  0
 20 23  1  0  0  0  0
 21 25  1  0  0  0  0
 21 40  1  0  0  0  0
 22 26  1  0  0  0  0
 22 41  1  0  0  0  0
 23 39  1  0  0  0  0
 24 27  1  0  0  0  0
 24 42  1  0  0  0  0
 24 43  1  0  0  0  0
 25 26  2  0  0  0  0
 25 46  1  0  0  0  0
 26 47  1  0  0  0  0
 27 44  1  0  0  0  0
 27 45  1  0  0  0  0
M  END
> <PUBCHEM_COMPOUND_CID>
17395550

> <PUBCHEM_COMPOUND_CANONICALIZED>
1

> <PUBCHEM_CACTVS_COMPLEXITY>
548

> <PUBCHEM_CACTVS_HBOND_ACCEPTOR>
5

> <PUBCHEM_CACTVS_HBOND_DONOR>
0

> <PUBCHEM_CACTVS_ROTATABLE_BOND>
2

> <PUBCHEM_CACTVS_SUBSKEYS>
AAADceB7MABAAAAAAAAAAAAAAAAAAWAAAAA8aIEAAAAAAFiR9AAAHgQAAAAADCzh3gYwx7MIFAisAyVyVACD+KBlKjhImD0+7NgNZrLktZuWOSrkxhHq6Ye63BLOIAABAAAAQQBAAAIAAACCAAAAAAAAAA==

> <PUBCHEM_IUPAC_OPENEYE_NAME>
[2-(1,3-benzothiazol-2-yl)-1-piperidyl]-(2,3-dihydro-1,4-benzodioxin-6-yl)methanone

> <PUBCHEM_IUPAC_CAS_NAME>
[2-(1,3-benzothiazol-2-yl)-1-piperidinyl]-(2,3-dihydro-1,4-benzodioxin-6-yl)methanone

> <PUBCHEM_IUPAC_NAME>
[2-(1,3-benzothiazol-2-yl)piperidin-1-yl]-(2,3-dihydro-1,4-benzodioxin-6-yl)methanone

> <PUBCHEM_IUPAC_SYSTEMATIC_NAME>
[2-(1,3-benzothiazol-2-yl)piperidin-1-yl]-(2,3-dihydro-1,4-benzodioxin-6-yl)methanone

> <PUBCHEM_IUPAC_TRADITIONAL_NAME>
[2-(1,3-benzothiazol-2-yl)piperidino]-(2,3-dihydro-1,4-benzodioxin-6-yl)methanone

> <PUBCHEM_IUPAC_INCHI>
InChI=1S/C21H20N2O3S/c24-21(14-8-9-17-18(13-14)26-12-11-25-17)23-10-4-3-6-16(23)20-22-15-5-1-2-7-19(15)27-20/h1-2,5,7-9,13,16H,3-4,6,10-12H2

> <PUBCHEM_IUPAC_INCHIKEY>
HJKQMIUYZGZTIZ-UHFFFAOYSA-N

> <PUBCHEM_XLOGP3_AA>
4

> <PUBCHEM_EXACT_MASS>
380.119464

> <PUBCHEM_MOLECULAR_FORMULA>
C21H20N2O3S

> <PUBCHEM_MOLECULAR_WEIGHT>
380.4601

> <PUBCHEM_OPENEYE_CAN_SMILES>
C1CCN(C(C1)C2=NC3=CC=CC=C3S2)C(=O)C4=CC5=C(C=C4)OCCO5

> <PUBCHEM_OPENEYE_ISO_SMILES>
C1CCN(C(C1)C2=NC3=CC=CC=C3S2)C(=O)C4=CC5=C(C=C4)OCCO5

> <PUBCHEM_CACTVS_TPSA>
79.9

> <PUBCHEM_MONOISOTOPIC_WEIGHT>
380.119464

> <PUBCHEM_TOTAL_CHARGE>
0

> <PUBCHEM_HEAVY_ATOM_COUNT>
27

> <PUBCHEM_ATOM_DEF_STEREO_COUNT>
0

> <PUBCHEM_ATOM_UDEF_STEREO_COUNT>
1

> <PUBCHEM_BOND_DEF_STEREO_COUNT>
0

> <PUBCHEM_BOND_UDEF_STEREO_COUNT>
0

> <PUBCHEM_ISOTOPIC_ATOM_COUNT>
0

> <PUBCHEM_COMPONENT_COUNT>
1

> <PUBCHEM_CACTVS_TAUTO_COUNT>
1

> <PUBCHEM_COORDINATE_TYPE>
1
5
255

> <PUBCHEM_BONDANNOTATIONS>
1  12  8
1  15  8
14  17  8
14  18  8
15  16  8
15  21  8
16  22  8
17  19  8
18  23  8
19  20  8
20  23  8
21  25  8
22  26  8
25  26  8
6  12  8
6  16  8
7  12  3

$$$$

