582698
  -OEChem-06241222432D

 33 32  0     0  0  0  0  0  0999 V2000
    6.3301    0.0000    0.0000 Si  0  0  0  0  0  0  0  0  0  0  0  0
    5.8301    0.8660    0.0000 O   0  0  0  0  0  0  0  0  0  0  0  0
    6.8301   -0.8660    0.0000 O   0  0  0  0  0  0  0  0  0  0  0  0
   10.6603   -0.5000    0.0000 N   0  0  0  0  0  0  0  0  0  0  0  0
    2.0000    0.5000    0.0000 N   0  0  0  0  0  0  0  0  0  0  0  0
    7.1962    0.5000    0.0000 C   0  0  0  0  0  0  0  0  0  0  0  0
    5.4641   -0.5000    0.0000 C   0  0  0  0  0  0  0  0  0  0  0  0
    8.0622    0.0000    0.0000 C   0  0  0  0  0  0  0  0  0  0  0  0
    4.5981    0.0000    0.0000 C   0  0  0  0  0  0  0  0  0  0  0  0
    8.9282    0.5000    0.0000 C   0  0  0  0  0  0  0  0  0  0  0  0
    3.7320   -0.5000    0.0000 C   0  0  0  0  0  0  0  0  0  0  0  0
    6.3301    1.7320    0.0000 C   0  0  0  0  0  0  0  0  0  0  0  0
    6.3301   -1.7320    0.0000 C   0  0  0  0  0  0  0  0  0  0  0  0
    9.7942    0.0000    0.0000 C   0  0  0  0  0  0  0  0  0  0  0  0
    2.8660    0.0000    0.0000 C   0  0  0  0  0  0  0  0  0  0  0  0
    5.0656   -0.9749    0.0000 H   0  0  0  0  0  0  0  0  0  0  0  0
    5.8626   -0.9749    0.0000 H   0  0  0  0  0  0  0  0  0  0  0  0
    7.5947    0.9749    0.0000 H   0  0  0  0  0  0  0  0  0  0  0  0
    6.7976    0.9749    0.0000 H   0  0  0  0  0  0  0  0  0  0  0  0
    4.9966    0.4749    0.0000 H   0  0  0  0  0  0  0  0  0  0  0  0
    4.1996    0.4749    0.0000 H   0  0  0  0  0  0  0  0  0  0  0  0
    7.6636   -0.4749    0.0000 H   0  0  0  0  0  0  0  0  0  0  0  0
    8.4607   -0.4749    0.0000 H   0  0  0  0  0  0  0  0  0  0  0  0
    9.3267    0.9749    0.0000 H   0  0  0  0  0  0  0  0  0  0  0  0
    8.5297    0.9749    0.0000 H   0  0  0  0  0  0  0  0  0  0  0  0
    3.3335   -0.9749    0.0000 H   0  0  0  0  0  0  0  0  0  0  0  0
    4.1306   -0.9749    0.0000 H   0  0  0  0  0  0  0  0  0  0  0  0
    6.8671    1.4220    0.0000 H   0  0  0  0  0  0  0  0  0  0  0  0
    6.6401    2.2690    0.0000 H   0  0  0  0  0  0  0  0  0  0  0  0
    5.7932    2.0420    0.0000 H   0  0  0  0  0  0  0  0  0  0  0  0
    5.7932   -1.4220    0.0000 H   0  0  0  0  0  0  0  0  0  0  0  0
    6.0201   -2.2690    0.0000 H   0  0  0  0  0  0  0  0  0  0  0  0
    6.8671   -2.0420    0.0000 H   0  0  0  0  0  0  0  0  0  0  0  0
  1  2  1  0  0  0  0
  1  3  1  0  0  0  0
  1  6  1  0  0  0  0
  1  7  1  0  0  0  0
  2 12  1  0  0  0  0
  3 13  1  0  0  0  0
  4 14  3  0  0  0  0
  5 15  3  0  0  0  0
  6  8  1  0  0  0  0
  6 18  1  0  0  0  0
  6 19  1  0  0  0  0
  7  9  1  0  0  0  0
  7 16  1  0  0  0  0
  7 17  1  0  0  0  0
  8 10  1  0  0  0  0
  8 22  1  0  0  0  0
  8 23  1  0  0  0  0
  9 11  1  0  0  0  0
  9 20  1  0  0  0  0
  9 21  1  0  0  0  0
 10 14  1  0  0  0  0
 10 24  1  0  0  0  0
 10 25  1  0  0  0  0
 11 15  1  0  0  0  0
 11 26  1  0  0  0  0
 11 27  1  0  0  0  0
 12 28  1  0  0  0  0
 12 29  1  0  0  0  0
 12 30  1  0  0  0  0
 13 31  1  0  0  0  0
 13 32  1  0  0  0  0
 13 33  1  0  0  0  0
M  END
> <PUBCHEM_COMPOUND_CID>
582698

> <PUBCHEM_COMPOUND_CANONICALIZED>
1

> <PUBCHEM_CACTVS_COMPLEXITY>
235

> <PUBCHEM_CACTVS_HBOND_ACCEPTOR>
4

> <PUBCHEM_CACTVS_HBOND_DONOR>
0

> <PUBCHEM_CACTVS_ROTATABLE_BOND>
8

> <PUBCHEM_CACTVS_SUBSKEYS>
AAADceBzMAgAAAAAAAAAAAAAAAAAAAAAAAAAAAAAAAAAAAAAAAAAHhAAAEAACACBIAJCAAAAAAEQBAAAAAAAAAAAAAAAAAAAAAAAgAAAAAAAAAAAAAAAAAgAAAAAAAAAAAAAAAAAAAAAAAAAAAAAAAAAAA==

> <PUBCHEM_IUPAC_OPENEYE_NAME>
4-[3-cyanopropyl(dimethoxy)silyl]butanenitrile

> <PUBCHEM_IUPAC_CAS_NAME>
4-[3-cyanopropyl(dimethoxy)silyl]butanenitrile

> <PUBCHEM_IUPAC_NAME>
4-[3-cyanopropyl(dimethoxy)silyl]butanenitrile

> <PUBCHEM_IUPAC_SYSTEMATIC_NAME>
4-[3-cyanopropyl(dimethoxy)silyl]butanenitrile

> <PUBCHEM_IUPAC_TRADITIONAL_NAME>
4-[3-cyanopropyl(dimethoxy)silyl]butyronitrile

> <PUBCHEM_IUPAC_INCHI>
InChI=1S/C10H18N2O2Si/c1-13-15(14-2,9-5-3-7-11)10-6-4-8-12/h3-6,9-10H2,1-2H3

> <PUBCHEM_IUPAC_INCHIKEY>
FQKGSCOHCDSKAC-UHFFFAOYSA-N

> <PUBCHEM_EXACT_MASS>
226.113754

> <PUBCHEM_MOLECULAR_FORMULA>
C10H18N2O2Si

> <PUBCHEM_MOLECULAR_WEIGHT>
226.34762

> <PUBCHEM_OPENEYE_CAN_SMILES>
CO[Si](CCCC#N)(CCCC#N)OC

> <PUBCHEM_OPENEYE_ISO_SMILES>
CO[Si](CCCC#N)(CCCC#N)OC

> <PUBCHEM_CACTVS_TPSA>
66

> <PUBCHEM_MONOISOTOPIC_WEIGHT>
226.113754

> <PUBCHEM_TOTAL_CHARGE>
0

> <PUBCHEM_HEAVY_ATOM_COUNT>
15

> <PUBCHEM_ATOM_DEF_STEREO_COUNT>
0

> <PUBCHEM_ATOM_UDEF_STEREO_COUNT>
0

> <PUBCHEM_BOND_DEF_STEREO_COUNT>
0

> <PUBCHEM_BOND_UDEF_STEREO_COUNT>
0

> <PUBCHEM_ISOTOPIC_ATOM_COUNT>
0

> <PUBCHEM_COMPONENT_COUNT>
1

> <PUBCHEM_CACTVS_TAUTO_COUNT>
1

> <PUBCHEM_COORDINATE_TYPE>
1
5
255

$$$$

