13316
  -OEChem-06261208533D

 44 46  0     1  0  0  0  0  0999 V2000
   -4.3473    3.3654   -1.4300 Br  0  0  0  0  0  0  0  0  0  0  0  0
   -2.1180   -1.8556    1.7144 S   0  0  0  0  0  0  0  0  0  0  0  0
    4.2918    2.2236    0.0348 N   0  0  0  0  0  0  0  0  0  0  0  0
   -0.2256    0.1811   -0.4198 C   0  0  1  0  0  0  0  0  0  0  0  0
    0.6738    1.1076    0.4162 C   0  0  0  0  0  0  0  0  0  0  0  0
    0.3207   -1.2340   -0.5179 C   0  0  0  0  0  0  0  0  0  0  0  0
    2.0741    1.1755   -0.1775 C   0  0  0  0  0  0  0  0  0  0  0  0
   -1.7057    0.3787   -0.0921 C   0  0  0  0  0  0  0  0  0  0  0  0
    0.3302   -2.1341    0.5597 C   0  0  0  0  0  0  0  0  0  0  0  0
    2.9742    2.1302    0.5998 C   0  0  0  0  0  0  0  0  0  0  0  0
   -2.5231   -0.3876    0.7646 C   0  0  0  0  0  0  0  0  0  0  0  0
   -0.3211   -1.7955    1.8643 C   0  0  0  0  0  0  0  0  0  0  0  0
    0.8951   -1.6462   -1.7387 C   0  0  0  0  0  0  0  0  0  0  0  0
   -2.2956    1.5051   -0.7278 C   0  0  0  0  0  0  0  0  0  0  0  0
    0.9026   -3.4102    0.3969 C   0  0  0  0  0  0  0  0  0  0  0  0
   -3.8810   -0.0168    0.9228 C   0  0  0  0  0  0  0  0  0  0  0  0
    1.4602   -2.9129   -1.8876 C   0  0  0  0  0  0  0  0  0  0  0  0
   -3.6323    1.8561   -0.5507 C   0  0  0  0  0  0  0  0  0  0  0  0
    1.4659   -3.7958   -0.8170 C   0  0  0  0  0  0  0  0  0  0  0  0
   -4.4295    1.0890    0.2768 C   0  0  0  0  0  0  0  0  0  0  0  0
    4.9920    0.9303    0.0889 C   0  0  0  0  0  0  0  0  0  0  0  0
    5.0986    3.2461    0.7199 C   0  0  0  0  0  0  0  0  0  0  0  0
   -0.1443    0.5625   -1.4505 H   0  0  0  0  0  0  0  0  0  0  0  0
    0.2528    2.1219    0.4240 H   0  0  0  0  0  0  0  0  0  0  0  0
    0.7331    0.8104    1.4647 H   0  0  0  0  0  0  0  0  0  0  0  0
    2.5063    0.1716   -0.1562 H   0  0  0  0  0  0  0  0  0  0  0  0
    2.0224    1.4929   -1.2268 H   0  0  0  0  0  0  0  0  0  0  0  0
    3.0135    1.8222    1.6536 H   0  0  0  0  0  0  0  0  0  0  0  0
    2.4998    3.1204    0.5844 H   0  0  0  0  0  0  0  0  0  0  0  0
   -0.0416   -2.5379    2.6213 H   0  0  0  0  0  0  0  0  0  0  0  0
    0.0049   -0.8433    2.2794 H   0  0  0  0  0  0  0  0  0  0  0  0
    0.9155   -0.9727   -2.5930 H   0  0  0  0  0  0  0  0  0  0  0  0
   -1.6810    2.1250   -1.3815 H   0  0  0  0  0  0  0  0  0  0  0  0
    0.9034   -4.1200    1.2212 H   0  0  0  0  0  0  0  0  0  0  0  0
   -4.5432   -0.5939    1.5685 H   0  0  0  0  0  0  0  0  0  0  0  0
    1.8970   -3.2047   -2.8379 H   0  0  0  0  0  0  0  0  0  0  0  0
    1.9026   -4.7839   -0.9256 H   0  0  0  0  0  0  0  0  0  0  0  0
   -5.4764    1.3318    0.4364 H   0  0  0  0  0  0  0  0  0  0  0  0
    6.0315    1.0461   -0.2411 H   0  0  0  0  0  0  0  0  0  0  0  0
    5.0052    0.5078    1.1001 H   0  0  0  0  0  0  0  0  0  0  0  0
    4.5531    0.2023   -0.5998 H   0  0  0  0  0  0  0  0  0  0  0  0
    4.6117    4.2255    0.6540 H   0  0  0  0  0  0  0  0  0  0  0  0
    5.2530    3.0058    1.7780 H   0  0  0  0  0  0  0  0  0  0  0  0
    6.0775    3.3501    0.2390 H   0  0  0  0  0  0  0  0  0  0  0  0
  1 18  1  0  0  0  0
  2 11  1  0  0  0  0
  2 12  1  0  0  0  0
  3 10  1  0  0  0  0
  3 21  1  0  0  0  0
  3 22  1  0  0  0  0
  4  5  1  0  0  0  0
  4  6  1  0  0  0  0
  4  8  1  0  0  0  0
  4 23  1  0  0  0  0
  5  7  1  0  0  0  0
  5 24  1  0  0  0  0
  5 25  1  0  0  0  0
  6  9  1  0  0  0  0
  6 13  2  0  0  0  0
  7 10  1  0  0  0  0
  7 26  1  0  0  0  0
  7 27  1  0  0  0  0
  8 11  2  0  0  0  0
  8 14  1  0  0  0  0
  9 12  1  0  0  0  0
  9 15  2  0  0  0  0
 10 28  1  0  0  0  0
 10 29  1  0  0  0  0
 11 16  1  0  0  0  0
 12 30  1  0  0  0  0
 12 31  1  0  0  0  0
 13 17  1  0  0  0  0
 13 32  1  0  0  0  0
 14 18  2  0  0  0  0
 14 33  1  0  0  0  0
 15 19  1  0  0  0  0
 15 34  1  0  0  0  0
 16 20  2  0  0  0  0
 16 35  1  0  0  0  0
 17 19  2  0  0  0  0
 17 36  1  0  0  0  0
 18 20  1  0  0  0  0
 19 37  1  0  0  0  0
 20 38  1  0  0  0  0
 21 39  1  0  0  0  0
 21 40  1  0  0  0  0
 21 41  1  0  0  0  0
 22 42  1  0  0  0  0
 22 43  1  0  0  0  0
 22 44  1  0  0  0  0
M  END
> <PUBCHEM_COMPOUND_CID>
13316

> <PUBCHEM_CONFORMER_RMSD>
0.8

> <PUBCHEM_CONFORMER_DIVERSEORDER>
4
1
18
12
11
14
16
10
2
17
13
7
3
9
15
8
5
6

> <PUBCHEM_MMFF94_PARTIAL_CHARGES>
27
1 -0.11
10 0.27
11 0.1
12 0.37
13 -0.15
14 -0.15
15 -0.15
16 -0.15
17 -0.15
18 0.11
19 -0.15
2 -0.33
20 -0.15
21 0.27
22 0.27
3 -0.81
32 0.15
33 0.15
34 0.15
35 0.15
36 0.15
37 0.15
38 0.15
4 0.29
6 -0.14
8 -0.14
9 -0.14

> <PUBCHEM_EFFECTIVE_ROTOR_COUNT>
4.6

> <PUBCHEM_PHARMACOPHORE_FEATURES>
5
1 1 hydrophobe
1 3 cation
6 6 9 13 15 17 19 rings
6 8 11 14 16 18 20 rings
7 2 4 6 8 9 11 12 rings

> <PUBCHEM_HEAVY_ATOM_COUNT>
22

> <PUBCHEM_ATOM_DEF_STEREO_COUNT>
0

> <PUBCHEM_ATOM_UDEF_STEREO_COUNT>
1

> <PUBCHEM_BOND_DEF_STEREO_COUNT>
0

> <PUBCHEM_BOND_UDEF_STEREO_COUNT>
0

> <PUBCHEM_ISOTOPIC_ATOM_COUNT>
0

> <PUBCHEM_COMPONENT_COUNT>
1

> <PUBCHEM_CACTVS_TAUTO_COUNT>
1

> <PUBCHEM_CONFORMER_ID>
0000340400000004

> <PUBCHEM_MMFF94_ENERGY>
69.9169

> <PUBCHEM_FEATURE_SELFOVERLAP>
25.384

> <PUBCHEM_SHAPE_FINGERPRINT>
10764073 3 17629499728705787850
107951 10 18131064892994041490
11578080 2 16914264163109115182
12293681 160 17479154814694114402
12549972 3 17771606117643436825
12592029 89 18334010610033396986
12707595 3 17905322180567734247
12788726 201 17759264902754316962
13004483 165 17036700946451635270
13540713 4 18128811018937998665
13681431 1 17826512463768897998
15230672 131 18341889672726382902
15664445 248 17541944629706130103
17980427 26 17912948346031143471
1813 80 16592229323336423294
18915476 22 18260819449503314215
20600515 1 17330015979428188129
21033648 29 18189629254239830664
21120745 212 17041186945171190884
21524375 3 18263363598839543781
22182313 1 18058997497961926577
23419403 2 17975091527251285270
23559900 14 18051133888914641187
23598288 3 17838893729634455364
23728640 28 18048321050866677090
2748010 2 17984388946537422283
3298306 158 18409444804480379908
3411729 13 18268435796360767969
376196 1 18341063981056881848
5265222 85 18196920095127633028
532947 4 18334851771057448478
6138700 20 18263920111639626910
633830 44 17459164379172873408
7364860 26 18264767838576481519
7399639 24 18339065026706045971
81228 2 17325227129500445474
9862522 239 18265048025084141458
9981440 41 18411426089705025305

> <PUBCHEM_SHAPE_MULTIPOLES>
457.56
8.58
4.87
1.57
0.96
0.73
0.17
-11.72
-0.18
3.98
0.71
-0.34
0.99
3.31

> <PUBCHEM_SHAPE_SELFOVERLAP>
939.345

> <PUBCHEM_SHAPE_VOLUME>
268.8

> <PUBCHEM_COORDINATE_TYPE>
2
5
10

$$$$

