854351
  -OEChem-06241222482D

 23 23  0     1  0  0  0  0  0999 V2000
    2.5369   -0.6900    0.0000 O   0  0  0  0  0  0  0  0  0  0  0  0
    3.4030    0.8100    0.0000 O   0  0  0  0  0  0  0  0  0  0  0  0
    6.0010   -0.6900    0.0000 N   0  0  0  0  0  0  0  0  0  0  0  0
    5.1350   -0.1900    0.0000 C   0  0  1  0  0  0  0  0  0  0  0  0
    5.1350    0.8100    0.0000 C   0  0  0  0  0  0  0  0  0  0  0  0
    6.0010    1.3100    0.0000 C   0  0  0  0  0  0  0  0  0  0  0  0
    6.8671    0.8100    0.0000 C   0  0  0  0  0  0  0  0  0  0  0  0
    6.8671   -0.1900    0.0000 C   0  0  0  0  0  0  0  0  0  0  0  0
    4.2690   -0.6900    0.0000 C   0  0  0  0  0  0  0  0  0  0  0  0
    3.4030   -0.1900    0.0000 C   0  0  0  0  0  0  0  0  0  0  0  0
    5.1350   -0.8100    0.0000 H   0  0  0  0  0  0  0  0  0  0  0  0
    4.9230    1.3926    0.0000 H   0  0  0  0  0  0  0  0  0  0  0  0
    4.5244    0.7023    0.0000 H   0  0  0  0  0  0  0  0  0  0  0  0
    6.3996    1.7850    0.0000 H   0  0  0  0  0  0  0  0  0  0  0  0
    5.6025    1.7850    0.0000 H   0  0  0  0  0  0  0  0  0  0  0  0
    7.4776    0.7023    0.0000 H   0  0  0  0  0  0  0  0  0  0  0  0
    7.0791    1.3926    0.0000 H   0  0  0  0  0  0  0  0  0  0  0  0
    7.0791   -0.7726    0.0000 H   0  0  0  0  0  0  0  0  0  0  0  0
    7.4776   -0.0823    0.0000 H   0  0  0  0  0  0  0  0  0  0  0  0
    6.0010   -1.3100    0.0000 H   0  0  0  0  0  0  0  0  0  0  0  0
    3.8705   -1.1650    0.0000 H   0  0  0  0  0  0  0  0  0  0  0  0
    4.6675   -1.1650    0.0000 H   0  0  0  0  0  0  0  0  0  0  0  0
    2.0000   -0.3800    0.0000 H   0  0  0  0  0  0  0  0  0  0  0  0
  1 10  1  0  0  0  0
  1 23  1  0  0  0  0
  2 10  2  0  0  0  0
  3  4  1  0  0  0  0
  3  8  1  0  0  0  0
  3 20  1  0  0  0  0
  4  5  1  0  0  0  0
  4  9  1  6  0  0  0
  4 11  1  0  0  0  0
  5  6  1  0  0  0  0
  5 12  1  0  0  0  0
  5 13  1  0  0  0  0
  6  7  1  0  0  0  0
  6 14  1  0  0  0  0
  6 15  1  0  0  0  0
  7  8  1  0  0  0  0
  7 16  1  0  0  0  0
  7 17  1  0  0  0  0
  8 18  1  0  0  0  0
  8 19  1  0  0  0  0
  9 10  1  0  0  0  0
  9 21  1  0  0  0  0
  9 22  1  0  0  0  0
M  END
> <PUBCHEM_COMPOUND_CID>
854351

> <PUBCHEM_COMPOUND_CANONICALIZED>
1

> <PUBCHEM_CACTVS_COMPLEXITY>
125

> <PUBCHEM_CACTVS_HBOND_ACCEPTOR>
3

> <PUBCHEM_CACTVS_HBOND_DONOR>
2

> <PUBCHEM_CACTVS_ROTATABLE_BOND>
2

> <PUBCHEM_CACTVS_SUBSKEYS>
AAADccBiMAAAAAAAAAAAAAAAAAAAAAAAAAAsAAAAAAAAAAAAAAAAHgAQCAAACCjBgAQACALAAgAIAACQCAAAAAAAAAAAAIEIAAAAABoAgAAEQAAGEACAAAGYyCCAAAAAAAAAAAAAAAAAAAAAAAAAAAAAAA==

> <PUBCHEM_IUPAC_OPENEYE_NAME>
2-[(2S)-2-piperidyl]acetic acid

> <PUBCHEM_IUPAC_CAS_NAME>
2-[(2S)-2-piperidinyl]acetic acid

> <PUBCHEM_IUPAC_NAME>
2-[(2S)-piperidin-2-yl]acetic acid

> <PUBCHEM_IUPAC_SYSTEMATIC_NAME>
2-[(2S)-piperidin-2-yl]ethanoic acid

> <PUBCHEM_IUPAC_TRADITIONAL_NAME>
2-[(2S)-2-piperidyl]acetic acid

> <PUBCHEM_IUPAC_INCHI>
InChI=1S/C7H13NO2/c9-7(10)5-6-3-1-2-4-8-6/h6,8H,1-5H2,(H,9,10)/t6-/m0/s1

> <PUBCHEM_IUPAC_INCHIKEY>
PRNLNZMJMCUWNV-LURJTMIESA-N

> <PUBCHEM_XLOGP3_AA>
-2.1

> <PUBCHEM_EXACT_MASS>
143.094629

> <PUBCHEM_MOLECULAR_FORMULA>
C7H13NO2

> <PUBCHEM_MOLECULAR_WEIGHT>
143.18362

> <PUBCHEM_OPENEYE_CAN_SMILES>
C1CCNC(C1)CC(=O)O

> <PUBCHEM_OPENEYE_ISO_SMILES>
C1CCN[C@@H](C1)CC(=O)O

> <PUBCHEM_CACTVS_TPSA>
49.3

> <PUBCHEM_MONOISOTOPIC_WEIGHT>
143.094629

> <PUBCHEM_TOTAL_CHARGE>
0

> <PUBCHEM_HEAVY_ATOM_COUNT>
10

> <PUBCHEM_ATOM_DEF_STEREO_COUNT>
1

> <PUBCHEM_ATOM_UDEF_STEREO_COUNT>
0

> <PUBCHEM_BOND_DEF_STEREO_COUNT>
0

> <PUBCHEM_BOND_UDEF_STEREO_COUNT>
0

> <PUBCHEM_ISOTOPIC_ATOM_COUNT>
0

> <PUBCHEM_COMPONENT_COUNT>
1

> <PUBCHEM_CACTVS_TAUTO_COUNT>
1

> <PUBCHEM_COORDINATE_TYPE>
1
5
255

> <PUBCHEM_BONDANNOTATIONS>
4  9  6

$$$$

