6320
  -OEChem-06261201152D

 28 29  0     0  0  0  0  0  0999 V2000
    2.5369   -1.3450    0.0000 O   0  0  0  0  0  0  0  0  0  0  0  0
    4.2690   -4.3450    0.0000 O   0  0  0  0  0  0  0  0  0  0  0  0
    6.0010    4.6550    0.0000 O   0  5  0  0  0  0  0  0  0  0  0  0
    4.2690    4.6550    0.0000 O   0  0  0  0  0  0  0  0  0  0  0  0
    4.2690   -0.3450    0.0000 N   0  0  0  0  0  0  0  0  0  0  0  0
    5.1350    0.1550    0.0000 N   0  0  0  0  0  0  0  0  0  0  0  0
    5.1350    4.1550    0.0000 N   0  3  0  0  0  0  0  0  0  0  0  0
    4.2690   -1.3450    0.0000 C   0  0  0  0  0  0  0  0  0  0  0  0
    5.1350    1.1550    0.0000 C   0  0  0  0  0  0  0  0  0  0  0  0
    3.4030   -1.8450    0.0000 C   0  0  0  0  0  0  0  0  0  0  0  0
    5.1350    3.1550    0.0000 C   0  0  0  0  0  0  0  0  0  0  0  0
    4.2690    1.6550    0.0000 C   0  0  0  0  0  0  0  0  0  0  0  0
    6.0010    1.6550    0.0000 C   0  0  0  0  0  0  0  0  0  0  0  0
    5.1350   -1.8450    0.0000 C   0  0  0  0  0  0  0  0  0  0  0  0
    4.2690    2.6550    0.0000 C   0  0  0  0  0  0  0  0  0  0  0  0
    6.0010    2.6550    0.0000 C   0  0  0  0  0  0  0  0  0  0  0  0
    3.4030   -2.8450    0.0000 C   0  0  0  0  0  0  0  0  0  0  0  0
    4.2690   -3.3450    0.0000 C   0  0  0  0  0  0  0  0  0  0  0  0
    5.1350   -2.8450    0.0000 C   0  0  0  0  0  0  0  0  0  0  0  0
    3.7321    1.3450    0.0000 H   0  0  0  0  0  0  0  0  0  0  0  0
    6.5380    1.3450    0.0000 H   0  0  0  0  0  0  0  0  0  0  0  0
    5.6719   -1.5350    0.0000 H   0  0  0  0  0  0  0  0  0  0  0  0
    3.7321    2.9650    0.0000 H   0  0  0  0  0  0  0  0  0  0  0  0
    6.5380    2.9650    0.0000 H   0  0  0  0  0  0  0  0  0  0  0  0
    2.8660   -3.1550    0.0000 H   0  0  0  0  0  0  0  0  0  0  0  0
    5.6719   -3.1550    0.0000 H   0  0  0  0  0  0  0  0  0  0  0  0
    2.0000   -1.6550    0.0000 H   0  0  0  0  0  0  0  0  0  0  0  0
    4.8059   -4.6550    0.0000 H   0  0  0  0  0  0  0  0  0  0  0  0
  1 10  1  0  0  0  0
  1 27  1  0  0  0  0
  2 18  1  0  0  0  0
  2 28  1  0  0  0  0
  3  7  1  0  0  0  0
  4  7  2  0  0  0  0
  5  6  2  0  0  0  0
  5  8  1  0  0  0  0
  6  9  1  0  0  0  0
  7 11  1  0  0  0  0
  8 10  2  0  0  0  0
  8 14  1  0  0  0  0
  9 12  2  0  0  0  0
  9 13  1  0  0  0  0
 10 17  1  0  0  0  0
 11 15  2  0  0  0  0
 11 16  1  0  0  0  0
 12 15  1  0  0  0  0
 12 20  1  0  0  0  0
 13 16  2  0  0  0  0
 13 21  1  0  0  0  0
 14 19  2  0  0  0  0
 14 22  1  0  0  0  0
 15 23  1  0  0  0  0
 16 24  1  0  0  0  0
 17 18  2  0  0  0  0
 17 25  1  0  0  0  0
 18 19  1  0  0  0  0
 19 26  1  0  0  0  0
M  CHG  2   3  -1   7   1
M  END
> <PUBCHEM_COMPOUND_CID>
6320

> <PUBCHEM_COMPOUND_CANONICALIZED>
1

> <PUBCHEM_CACTVS_COMPLEXITY>
336

> <PUBCHEM_CACTVS_HBOND_ACCEPTOR>
6

> <PUBCHEM_CACTVS_HBOND_DONOR>
2

> <PUBCHEM_CACTVS_ROTATABLE_BOND>
2

> <PUBCHEM_CACTVS_SUBSKEYS>
AAADccBzOAAAAAAAAAAAAAAAAAAAAAAAAAAwYAAAAAAAAAABQAAAHgAMCAAACAyBkAAwxoAQQgCDACRCQwCCAAAgIgAoiAAHbIoKJyKSkZOAcABlwBUI2AewYAQAAECACAAAEAAAgQAQAAAgAAAAAAAAAA==

> <PUBCHEM_IUPAC_OPENEYE_NAME>
4-(4-nitrophenyl)azobenzene-1,3-diol

> <PUBCHEM_IUPAC_CAS_NAME>
4-(4-nitrophenyl)azobenzene-1,3-diol

> <PUBCHEM_IUPAC_NAME>
4-[(4-nitrophenyl)diazenyl]benzene-1,3-diol

> <PUBCHEM_IUPAC_SYSTEMATIC_NAME>
4-[(4-nitrophenyl)diazenyl]benzene-1,3-diol

> <PUBCHEM_IUPAC_TRADITIONAL_NAME>
4-(4-nitrophenyl)azoresorcinol

> <PUBCHEM_IUPAC_INCHI>
InChI=1S/C12H9N3O4/c16-10-5-6-11(12(17)7-10)14-13-8-1-3-9(4-2-8)15(18)19/h1-7,16-17H

> <PUBCHEM_IUPAC_INCHIKEY>
NGPGYVQZGRJHFJ-UHFFFAOYSA-N

> <PUBCHEM_XLOGP3_AA>
2.8

> <PUBCHEM_EXACT_MASS>
259.059306

> <PUBCHEM_MOLECULAR_FORMULA>
C12H9N3O4

> <PUBCHEM_MOLECULAR_WEIGHT>
259.21756

> <PUBCHEM_OPENEYE_CAN_SMILES>
C1=CC(=CC=C1N=NC2=C(C=C(C=C2)O)O)[N+](=O)[O-]

> <PUBCHEM_OPENEYE_ISO_SMILES>
C1=CC(=CC=C1N=NC2=C(C=C(C=C2)O)O)[N+](=O)[O-]

> <PUBCHEM_CACTVS_TPSA>
111

> <PUBCHEM_MONOISOTOPIC_WEIGHT>
259.059306

> <PUBCHEM_TOTAL_CHARGE>
0

> <PUBCHEM_HEAVY_ATOM_COUNT>
19

> <PUBCHEM_ATOM_DEF_STEREO_COUNT>
0

> <PUBCHEM_ATOM_UDEF_STEREO_COUNT>
0

> <PUBCHEM_BOND_DEF_STEREO_COUNT>
0

> <PUBCHEM_BOND_UDEF_STEREO_COUNT>
0

> <PUBCHEM_ISOTOPIC_ATOM_COUNT>
0

> <PUBCHEM_COMPONENT_COUNT>
1

> <PUBCHEM_CACTVS_TAUTO_COUNT>
12

> <PUBCHEM_COORDINATE_TYPE>
1
5
255

> <PUBCHEM_BONDANNOTATIONS>
10  17  8
11  15  8
11  16  8
12  15  8
13  16  8
14  19  8
17  18  8
18  19  8
8  10  8
8  14  8
9  12  8
9  13  8

$$$$

