17395664
  -OEChem-06241222512D

 54 57  0     1  0  0  0  0  0999 V2000
    2.0000    1.7500    0.0000 O   0  0  0  0  0  0  0  0  0  0  0  0
    8.0622    0.2500    0.0000 O   0  0  0  0  0  0  0  0  0  0  0  0
    9.7942   -0.7500    0.0000 N   0  0  3  0  0  0  0  0  0  0  0  0
    3.7320    0.7500    0.0000 N   0  0  0  0  0  0  0  0  0  0  0  0
    7.1962   -1.2500    0.0000 N   0  0  0  0  0  0  0  0  0  0  0  0
    9.7942    0.2500    0.0000 C   0  0  0  0  0  0  0  0  0  0  0  0
   10.6603   -1.2500    0.0000 C   0  0  0  0  0  0  0  0  0  0  0  0
    8.9282   -1.2500    0.0000 C   0  0  3  0  0  0  0  0  0  0  0  0
   10.6603    0.7500    0.0000 C   0  0  0  0  0  0  0  0  0  0  0  0
   11.5263   -0.7500    0.0000 C   0  0  0  0  0  0  0  0  0  0  0  0
   11.5263    0.2500    0.0000 C   0  0  0  0  0  0  0  0  0  0  0  0
    8.9282   -2.2500    0.0000 C   0  0  0  0  0  0  0  0  0  0  0  0
    8.0622   -0.7500    0.0000 C   0  0  0  0  0  0  0  0  0  0  0  0
   12.4202   -1.2847    0.0000 C   0  0  0  0  0  0  0  0  0  0  0  0
   12.4202    0.7847    0.0000 C   0  0  0  0  0  0  0  0  0  0  0  0
    3.7320    1.7500    0.0000 C   0  0  0  0  0  0  0  0  0  0  0  0
    2.8660    0.2500    0.0000 C   0  0  0  0  0  0  0  0  0  0  0  0
    4.5981    0.2500    0.0000 C   0  0  0  0  0  0  0  0  0  0  0  0
   13.3263   -0.7708    0.0000 C   0  0  0  0  0  0  0  0  0  0  0  0
   13.3263    0.2708    0.0000 C   0  0  0  0  0  0  0  0  0  0  0  0
    2.0000    0.7500    0.0000 C   0  0  0  0  0  0  0  0  0  0  0  0
    2.8660    2.2500    0.0000 C   0  0  0  0  0  0  0  0  0  0  0  0
    6.3301   -0.7500    0.0000 C   0  0  0  0  0  0  0  0  0  0  0  0
    4.5981   -0.7500    0.0000 C   0  0  0  0  0  0  0  0  0  0  0  0
    5.4641    0.7500    0.0000 C   0  0  0  0  0  0  0  0  0  0  0  0
    5.4641   -1.2500    0.0000 C   0  0  0  0  0  0  0  0  0  0  0  0
    6.3301    0.2500    0.0000 C   0  0  0  0  0  0  0  0  0  0  0  0
    9.5822    0.8326    0.0000 H   0  0  0  0  0  0  0  0  0  0  0  0
    9.1836    0.1423    0.0000 H   0  0  0  0  0  0  0  0  0  0  0  0
   10.2617   -1.7250    0.0000 H   0  0  0  0  0  0  0  0  0  0  0  0
   11.0588   -1.7250    0.0000 H   0  0  0  0  0  0  0  0  0  0  0  0
    9.4651   -1.5600    0.0000 H   0  0  0  0  0  0  0  0  0  0  0  0
   11.0588    1.2250    0.0000 H   0  0  0  0  0  0  0  0  0  0  0  0
   10.2617    1.2250    0.0000 H   0  0  0  0  0  0  0  0  0  0  0  0
    8.3082   -2.2500    0.0000 H   0  0  0  0  0  0  0  0  0  0  0  0
    8.9282   -2.8700    0.0000 H   0  0  0  0  0  0  0  0  0  0  0  0
    9.5482   -2.2500    0.0000 H   0  0  0  0  0  0  0  0  0  0  0  0
   12.4131   -1.9046    0.0000 H   0  0  0  0  0  0  0  0  0  0  0  0
   12.4131    1.4046    0.0000 H   0  0  0  0  0  0  0  0  0  0  0  0
    2.4675   -0.2249    0.0000 H   0  0  0  0  0  0  0  0  0  0  0  0
    3.2646   -0.2249    0.0000 H   0  0  0  0  0  0  0  0  0  0  0  0
    4.3426    1.6423    0.0000 H   0  0  0  0  0  0  0  0  0  0  0  0
    3.9441    2.3326    0.0000 H   0  0  0  0  0  0  0  0  0  0  0  0
    7.1962   -1.8700    0.0000 H   0  0  0  0  0  0  0  0  0  0  0  0
    1.3894    0.8577    0.0000 H   0  0  0  0  0  0  0  0  0  0  0  0
    1.7880    0.1674    0.0000 H   0  0  0  0  0  0  0  0  0  0  0  0
    3.2646    2.7250    0.0000 H   0  0  0  0  0  0  0  0  0  0  0  0
    2.4675    2.7250    0.0000 H   0  0  0  0  0  0  0  0  0  0  0  0
   13.8620   -1.0829    0.0000 H   0  0  0  0  0  0  0  0  0  0  0  0
   13.8620    0.5829    0.0000 H   0  0  0  0  0  0  0  0  0  0  0  0
    4.0611   -1.0600    0.0000 H   0  0  0  0  0  0  0  0  0  0  0  0
    5.4641    1.3700    0.0000 H   0  0  0  0  0  0  0  0  0  0  0  0
    5.4641   -1.8700    0.0000 H   0  0  0  0  0  0  0  0  0  0  0  0
    6.8671    0.5600    0.0000 H   0  0  0  0  0  0  0  0  0  0  0  0
  1 21  1  0  0  0  0
  1 22  1  0  0  0  0
  2 13  2  0  0  0  0
  3  6  1  0  0  0  0
  3  7  1  0  0  0  0
  3  8  1  0  0  0  0
  4 16  1  0  0  0  0
  4 17  1  0  0  0  0
  4 18  1  0  0  0  0
  5 13  1  0  0  0  0
  5 23  1  0  0  0  0
  5 44  1  0  0  0  0
  6  9  1  0  0  0  0
  6 28  1  0  0  0  0
  6 29  1  0  0  0  0
  7 10  1  0  0  0  0
  7 30  1  0  0  0  0
  7 31  1  0  0  0  0
  8 12  1  0  0  0  0
  8 13  1  0  0  0  0
  8 32  1  0  0  0  0
  9 11  1  0  0  0  0
  9 33  1  0  0  0  0
  9 34  1  0  0  0  0
 10 11  1  0  0  0  0
 10 14  2  0  0  0  0
 11 15  2  0  0  0  0
 12 35  1  0  0  0  0
 12 36  1  0  0  0  0
 12 37  1  0  0  0  0
 14 19  1  0  0  0  0
 14 38  1  0  0  0  0
 15 20  1  0  0  0  0
 15 39  1  0  0  0  0
 16 22  1  0  0  0  0
 16 42  1  0  0  0  0
 16 43  1  0  0  0  0
 17 21  1  0  0  0  0
 17 40  1  0  0  0  0
 17 41  1  0  0  0  0
 18 24  2  0  0  0  0
 18 25  1  0  0  0  0
 19 20  2  0  0  0  0
 19 49  1  0  0  0  0
 20 50  1  0  0  0  0
 21 45  1  0  0  0  0
 21 46  1  0  0  0  0
 22 47  1  0  0  0  0
 22 48  1  0  0  0  0
 23 26  2  0  0  0  0
 23 27  1  0  0  0  0
 24 26  1  0  0  0  0
 24 51  1  0  0  0  0
 25 27  2  0  0  0  0
 25 52  1  0  0  0  0
 26 53  1  0  0  0  0
 27 54  1  0  0  0  0
M  END
> <PUBCHEM_COMPOUND_CID>
17395664

> <PUBCHEM_COMPOUND_CANONICALIZED>
1

> <PUBCHEM_CACTVS_COMPLEXITY>
486

> <PUBCHEM_CACTVS_HBOND_ACCEPTOR>
4

> <PUBCHEM_CACTVS_HBOND_DONOR>
1

> <PUBCHEM_CACTVS_ROTATABLE_BOND>
4

> <PUBCHEM_CACTVS_SUBSKEYS>
AAADceB7MAAAAAAAAAAAAAAAAAAAAAAAAAA8eIEAAAAAAACxQAAAHgAQAAAADCjhmAYywIPABACIAiVSUACCAAAhAgAIiAGIZIgKYCLAkbGXIAhglADYyAcQgIAOgACAAAAQAAAAAQAAACAAAAAAAAAAAA==

> <PUBCHEM_IUPAC_OPENEYE_NAME>
2-(3,4-dihydro-1H-isoquinolin-2-yl)-N-(4-morpholinophenyl)propanamide

> <PUBCHEM_IUPAC_CAS_NAME>
2-(3,4-dihydro-1H-isoquinolin-2-yl)-N-[4-(4-morpholinyl)phenyl]propanamide

> <PUBCHEM_IUPAC_NAME>
2-(3,4-dihydro-1H-isoquinolin-2-yl)-N-(4-morpholin-4-ylphenyl)propanamide

> <PUBCHEM_IUPAC_SYSTEMATIC_NAME>
2-(3,4-dihydro-1H-isoquinolin-2-yl)-N-(4-morpholin-4-ylphenyl)propanamide

> <PUBCHEM_IUPAC_TRADITIONAL_NAME>
2-(3,4-dihydro-1H-isoquinolin-2-yl)-N-(4-morpholinophenyl)propionamide

> <PUBCHEM_IUPAC_INCHI>
InChI=1S/C22H27N3O2/c1-17(25-11-10-18-4-2-3-5-19(18)16-25)22(26)23-20-6-8-21(9-7-20)24-12-14-27-15-13-24/h2-9,17H,10-16H2,1H3,(H,23,26)

> <PUBCHEM_IUPAC_INCHIKEY>
VQOOKQWZQNZDJN-UHFFFAOYSA-N

> <PUBCHEM_XLOGP3_AA>
2.8

> <PUBCHEM_EXACT_MASS>
365.210327

> <PUBCHEM_MOLECULAR_FORMULA>
C22H27N3O2

> <PUBCHEM_MOLECULAR_WEIGHT>
365.46868

> <PUBCHEM_OPENEYE_CAN_SMILES>
CC(C(=O)NC1=CC=C(C=C1)N2CCOCC2)N3CCC4=CC=CC=C4C3

> <PUBCHEM_OPENEYE_ISO_SMILES>
CC(C(=O)NC1=CC=C(C=C1)N2CCOCC2)N3CCC4=CC=CC=C4C3

> <PUBCHEM_CACTVS_TPSA>
44.8

> <PUBCHEM_MONOISOTOPIC_WEIGHT>
365.210327

> <PUBCHEM_TOTAL_CHARGE>
0

> <PUBCHEM_HEAVY_ATOM_COUNT>
27

> <PUBCHEM_ATOM_DEF_STEREO_COUNT>
0

> <PUBCHEM_ATOM_UDEF_STEREO_COUNT>
1

> <PUBCHEM_BOND_DEF_STEREO_COUNT>
0

> <PUBCHEM_BOND_UDEF_STEREO_COUNT>
0

> <PUBCHEM_ISOTOPIC_ATOM_COUNT>
0

> <PUBCHEM_COMPONENT_COUNT>
1

> <PUBCHEM_CACTVS_TAUTO_COUNT>
3

> <PUBCHEM_COORDINATE_TYPE>
1
5
255

> <PUBCHEM_BONDANNOTATIONS>
10  11  8
10  14  8
11  15  8
14  19  8
15  20  8
18  24  8
18  25  8
19  20  8
23  26  8
23  27  8
24  26  8
25  27  8
8  12  3

$$$$

