17395804
  -OEChem-06241222523D

 46 48  0     0  0  0  0  0  0999 V2000
    5.4060   -3.6152    0.2389 Cl  0  0  0  0  0  0  0  0  0  0  0  0
    1.0092    2.4566   -0.2717 O   0  0  0  0  0  0  0  0  0  0  0  0
   -3.4763    0.1278   -0.0793 N   0  0  0  0  0  0  0  0  0  0  0  0
   -0.6797    0.8612   -0.2249 N   0  0  0  0  0  0  0  0  0  0  0  0
    2.9722    0.8569   -0.0428 N   0  0  0  0  0  0  0  0  0  0  0  0
   -3.0095    1.4365    0.3870 C   0  0  0  0  0  0  0  0  0  0  0  0
   -2.5009   -0.7755   -0.6951 C   0  0  0  0  0  0  0  0  0  0  0  0
   -1.7429    1.8541   -0.3570 C   0  0  0  0  0  0  0  0  0  0  0  0
   -1.1036   -0.5370   -0.1225 C   0  0  0  0  0  0  0  0  0  0  0  0
   -4.8185   -0.2280    0.0284 C   0  0  0  0  0  0  0  0  0  0  0  0
    0.6512    1.2790   -0.1939 C   0  0  0  0  0  0  0  0  0  0  0  0
    1.6886    0.1910   -0.0616 C   0  0  0  0  0  0  0  0  0  0  0  0
   -5.5960    0.2890    1.0647 C   0  0  0  0  0  0  0  0  0  0  0  0
   -5.3851   -1.1015   -0.8999 C   0  0  0  0  0  0  0  0  0  0  0  0
    4.1819    0.1878    0.0300 C   0  0  0  0  0  0  0  0  0  0  0  0
   -6.9404   -0.0673    1.1726 C   0  0  0  0  0  0  0  0  0  0  0  0
   -6.7295   -1.4579   -0.7918 C   0  0  0  0  0  0  0  0  0  0  0  0
   -7.5073   -0.9407    0.2443 C   0  0  0  0  0  0  0  0  0  0  0  0
    5.3865    0.8914    0.0444 C   0  0  0  0  0  0  0  0  0  0  0  0
    4.1878   -1.2058    0.0896 C   0  0  0  0  0  0  0  0  0  0  0  0
    6.5967    0.2015    0.1179 C   0  0  0  0  0  0  0  0  0  0  0  0
    5.4097    2.3841   -0.0186 C   0  0  0  0  0  0  0  0  0  0  0  0
    5.3977   -1.8958    0.1636 C   0  0  0  0  0  0  0  0  0  0  0  0
    6.6022   -1.1921    0.1777 C   0  0  0  0  0  0  0  0  0  0  0  0
   -3.7707    2.2075    0.2156 H   0  0  0  0  0  0  0  0  0  0  0  0
   -2.8079    1.3868    1.4640 H   0  0  0  0  0  0  0  0  0  0  0  0
   -2.7618   -1.8246   -0.5098 H   0  0  0  0  0  0  0  0  0  0  0  0
   -2.4924   -0.6134   -1.7800 H   0  0  0  0  0  0  0  0  0  0  0  0
   -1.9460    1.9603   -1.4298 H   0  0  0  0  0  0  0  0  0  0  0  0
   -1.3969    2.8273    0.0073 H   0  0  0  0  0  0  0  0  0  0  0  0
   -1.0831   -0.7924    0.9440 H   0  0  0  0  0  0  0  0  0  0  0  0
   -0.3896   -1.1904   -0.6307 H   0  0  0  0  0  0  0  0  0  0  0  0
    1.5154   -0.3607    0.8681 H   0  0  0  0  0  0  0  0  0  0  0  0
    1.6195   -0.4682   -0.9326 H   0  0  0  0  0  0  0  0  0  0  0  0
   -5.1825    0.9595    1.8129 H   0  0  0  0  0  0  0  0  0  0  0  0
   -4.8129   -1.5098   -1.7284 H   0  0  0  0  0  0  0  0  0  0  0  0
    2.9869    1.8696   -0.0726 H   0  0  0  0  0  0  0  0  0  0  0  0
   -7.5453    0.3325    1.9812 H   0  0  0  0  0  0  0  0  0  0  0  0
   -7.1720   -2.1352   -1.5165 H   0  0  0  0  0  0  0  0  0  0  0  0
   -8.5540   -1.2180    0.3282 H   0  0  0  0  0  0  0  0  0  0  0  0
    3.2668   -1.7827    0.0820 H   0  0  0  0  0  0  0  0  0  0  0  0
    7.5442    0.7337    0.1299 H   0  0  0  0  0  0  0  0  0  0  0  0
    6.4331    2.7753   -0.0015 H   0  0  0  0  0  0  0  0  0  0  0  0
    4.8858    2.8141    0.8416 H   0  0  0  0  0  0  0  0  0  0  0  0
    4.9451    2.7381   -0.9450 H   0  0  0  0  0  0  0  0  0  0  0  0
    7.5526   -1.7167    0.2352 H   0  0  0  0  0  0  0  0  0  0  0  0
  1 23  1  0  0  0  0
  2 11  2  0  0  0  0
  3  6  1  0  0  0  0
  3  7  1  0  0  0  0
  3 10  1  0  0  0  0
  4  8  1  0  0  0  0
  4  9  1  0  0  0  0
  4 11  1  0  0  0  0
  5 12  1  0  0  0  0
  5 15  1  0  0  0  0
  5 37  1  0  0  0  0
  6  8  1  0  0  0  0
  6 25  1  0  0  0  0
  6 26  1  0  0  0  0
  7  9  1  0  0  0  0
  7 27  1  0  0  0  0
  7 28  1  0  0  0  0
  8 29  1  0  0  0  0
  8 30  1  0  0  0  0
  9 31  1  0  0  0  0
  9 32  1  0  0  0  0
 10 13  2  0  0  0  0
 10 14  1  0  0  0  0
 11 12  1  0  0  0  0
 12 33  1  0  0  0  0
 12 34  1  0  0  0  0
 13 16  1  0  0  0  0
 13 35  1  0  0  0  0
 14 17  2  0  0  0  0
 14 36  1  0  0  0  0
 15 19  2  0  0  0  0
 15 20  1  0  0  0  0
 16 18  2  0  0  0  0
 16 38  1  0  0  0  0
 17 18  1  0  0  0  0
 17 39  1  0  0  0  0
 18 40  1  0  0  0  0
 19 21  1  0  0  0  0
 19 22  1  0  0  0  0
 20 23  2  0  0  0  0
 20 41  1  0  0  0  0
 21 24  2  0  0  0  0
 21 42  1  0  0  0  0
 22 43  1  0  0  0  0
 22 44  1  0  0  0  0
 22 45  1  0  0  0  0
 23 24  1  0  0  0  0
 24 46  1  0  0  0  0
M  END
> <PUBCHEM_COMPOUND_CID>
17395804

> <PUBCHEM_CONFORMER_RMSD>
0.8

> <PUBCHEM_CONFORMER_DIVERSEORDER>
1
102
73
80
103
25
20
107
83
112
70
61
54
21
42
72
104
62
85
87
48
19
97
15
10
78
49
74
96
33
36
50
81
13
44
106
90
77
35
53
84
51
22
60
34
52
94
76
17
111
108
37
30
39
66
93
14
45
31
109
110
79
59
64
24
29
28
91
92
98
63
56
38
105
6
82
4
101
100
55
47
16
58
88
40
9
32
95
7
71
26
65
41
46
5
67
57
69
99
113
89
23
86
11
18
68
8
75
2
3
43
12
27

> <PUBCHEM_MMFF94_PARTIAL_CHARGES>
33
1 -0.18
10 0.1
11 0.57
12 0.43
13 -0.15
14 -0.15
15 0.1
16 -0.15
17 -0.15
18 -0.15
19 -0.14
2 -0.57
20 -0.15
21 -0.15
22 0.14
23 0.18
24 -0.15
3 -0.84
35 0.15
36 0.15
37 0.4
38 0.15
39 0.15
4 -0.66
40 0.15
41 0.15
42 0.15
46 0.15
5 -0.87
6 0.37
7 0.37
8 0.3
9 0.3

> <PUBCHEM_EFFECTIVE_ROTOR_COUNT>
6.2

> <PUBCHEM_PHARMACOPHORE_FEATURES>
7
1 2 acceptor
1 3 cation
1 5 cation
1 5 donor
6 10 13 14 16 17 18 rings
6 15 19 20 21 23 24 rings
6 3 4 6 7 8 9 rings

> <PUBCHEM_HEAVY_ATOM_COUNT>
24

> <PUBCHEM_ATOM_DEF_STEREO_COUNT>
0

> <PUBCHEM_ATOM_UDEF_STEREO_COUNT>
0

> <PUBCHEM_BOND_DEF_STEREO_COUNT>
0

> <PUBCHEM_BOND_UDEF_STEREO_COUNT>
0

> <PUBCHEM_ISOTOPIC_ATOM_COUNT>
0

> <PUBCHEM_COMPONENT_COUNT>
1

> <PUBCHEM_CACTVS_TAUTO_COUNT>
1

> <PUBCHEM_CONFORMER_ID>
0109705C00000001

> <PUBCHEM_MMFF94_ENERGY>
84.7982

> <PUBCHEM_FEATURE_SELFOVERLAP>
35.52

> <PUBCHEM_SHAPE_FINGERPRINT>
10 15 15357701868168176738
10299344 5 18259982665040303554
10595046 47 18408885148788473640
11315181 36 17968094184777576105
11524674 6 16081089256117923391
12166972 35 18334575715939569153
12236239 1 18333448733890254513
12516196 113 18333452032282914456
12623949 98 18263356057774219878
12760667 363 18412825794219741809
13073987 5 18335422408833673888
13533116 47 18409730660313195872
13551218 46 18409167744171276511
13668630 136 17632293454813429595
13685833 64 18342457040829722400
13862211 1 18410292506391456775
13885169 127 18271809060303284221
14178184 131 18117274745435194447
14216079 64 18413109480915017599
14251764 18 18113899338503164701
14347332 77 18339927116209081332
14849402 71 18041840576293136129
15183329 4 18411984654349221899
15198563 99 17203056278529590501
15352257 5 18413670205690569675
15419008 91 17417265238276440285
15461852 350 16370730319153435965
15483637 11 18054505799278496858
15716309 27 18334857208464692537
17492 89 18194686102021626450
1768 124 18187083970609780446
20165401 70 18336269024092300926
21130935 74 18335137588024744179
21150785 3 15482666875224101670
21197605 99 18408323298505409934
21267235 1 18410289242474787652
21344244 181 17989200469323409050
21365058 113 17060613387430840189
220451 1 18187365402430329558
22224240 67 5184346309422777109
23081809 10 18113618963154230349
23522609 53 18117531016868351673
23559900 14 18199189482341888569
23569943 247 18269558419292584283
255183 451 18263072388380437718
3004659 81 18202848764571136000
33532 11 18412827988658457931
34797466 226 16630519614347628460
3663271 9 18113334232328565704
397830 11 4750294371588816071
4073 2 18269554927705055490
44880568 143 16773802502149411725
46194498 28 17203611458823687372
5104073 3 18115875260067921312
54039377 194 18337670945110887958
9831232 110 17970055846133311222
9996256 80 18334013908367690219
999808 66 18060127718722154467

> <PUBCHEM_SHAPE_MULTIPOLES>
474.97
22.9
2.56
0.82
9.69
0.93
0.06
10.1
2.78
-4.67
-0.05
1.11
0.09
-1.03

> <PUBCHEM_SHAPE_SELFOVERLAP>
998.759

> <PUBCHEM_SHAPE_VOLUME>
267.5

> <PUBCHEM_COORDINATE_TYPE>
2
5
10

$$$$

