10851
  -OEChem-06261205022D

119118  0     0  0  0  0  0  0999 V2000
   14.9904    5.0000    0.0000 O   0  0  0  0  0  0  0  0  0  0  0  0
   12.3923    4.5000    0.0000 O   0  0  0  0  0  0  0  0  0  0  0  0
   13.2583    3.0000    0.0000 O   0  0  0  0  0  0  0  0  0  0  0  0
   15.8564    3.5000    0.0000 O   0  0  0  0  0  0  0  0  0  0  0  0
   11.5263    6.0000    0.0000 O   0  0  0  0  0  0  0  0  0  0  0  0
   14.1244    1.5000    0.0000 O   0  0  0  0  0  0  0  0  0  0  0  0
   20.1865    5.0000    0.0000 C   0  0  0  0  0  0  0  0  0  0  0  0
   21.0526    4.5000    0.0000 C   0  0  0  0  0  0  0  0  0  0  0  0
    7.1962    4.5000    0.0000 C   0  0  0  0  0  0  0  0  0  0  0  0
   10.6603   -1.5000    0.0000 C   0  0  0  0  0  0  0  0  0  0  0  0
    6.3301    5.0000    0.0000 C   0  0  0  0  0  0  0  0  0  0  0  0
   10.6603   -2.5000    0.0000 C   0  0  0  0  0  0  0  0  0  0  0  0
   19.3205    4.5000    0.0000 C   0  0  0  0  0  0  0  0  0  0  0  0
   21.9186    5.0000    0.0000 C   0  0  0  0  0  0  0  0  0  0  0  0
    8.0622    5.0000    0.0000 C   0  0  0  0  0  0  0  0  0  0  0  0
   11.5263   -1.0000    0.0000 C   0  0  0  0  0  0  0  0  0  0  0  0
    5.4641    4.5000    0.0000 C   0  0  0  0  0  0  0  0  0  0  0  0
    9.7942   -3.0000    0.0000 C   0  0  0  0  0  0  0  0  0  0  0  0
   18.4545    5.0000    0.0000 C   0  0  0  0  0  0  0  0  0  0  0  0
   22.7846    4.5000    0.0000 C   0  0  0  0  0  0  0  0  0  0  0  0
    8.9282    4.5000    0.0000 C   0  0  0  0  0  0  0  0  0  0  0  0
   11.5263    0.0000    0.0000 C   0  0  0  0  0  0  0  0  0  0  0  0
    4.5981    5.0000    0.0000 C   0  0  0  0  0  0  0  0  0  0  0  0
    9.7942   -4.0000    0.0000 C   0  0  0  0  0  0  0  0  0  0  0  0
   17.5885    4.5000    0.0000 C   0  0  0  0  0  0  0  0  0  0  0  0
    9.7942    5.0000    0.0000 C   0  0  0  0  0  0  0  0  0  0  0  0
   12.3923    0.5000    0.0000 C   0  0  0  0  0  0  0  0  0  0  0  0
   23.6506    5.0000    0.0000 C   0  0  0  0  0  0  0  0  0  0  0  0
    3.7320    4.5000    0.0000 C   0  0  0  0  0  0  0  0  0  0  0  0
    8.9282   -4.5000    0.0000 C   0  0  0  0  0  0  0  0  0  0  0  0
   16.7224    5.0000    0.0000 C   0  0  0  0  0  0  0  0  0  0  0  0
   10.6603    4.5000    0.0000 C   0  0  0  0  0  0  0  0  0  0  0  0
   12.3923    1.5000    0.0000 C   0  0  0  0  0  0  0  0  0  0  0  0
   24.5167    4.5000    0.0000 C   0  0  0  0  0  0  0  0  0  0  0  0
    2.8660    5.0000    0.0000 C   0  0  0  0  0  0  0  0  0  0  0  0
    8.9282   -5.5000    0.0000 C   0  0  0  0  0  0  0  0  0  0  0  0
   14.1244    4.5000    0.0000 C   0  0  0  0  0  0  0  0  0  0  0  0
   15.8564    4.5000    0.0000 C   0  0  0  0  0  0  0  0  0  0  0  0
   13.2583    5.0000    0.0000 C   0  0  0  0  0  0  0  0  0  0  0  0
   14.1244    3.5000    0.0000 C   0  0  0  0  0  0  0  0  0  0  0  0
   11.5263    5.0000    0.0000 C   0  0  0  0  0  0  0  0  0  0  0  0
   13.2583    2.0000    0.0000 C   0  0  0  0  0  0  0  0  0  0  0  0
   25.3827    5.0000    0.0000 C   0  0  0  0  0  0  0  0  0  0  0  0
    2.0000    4.5000    0.0000 C   0  0  0  0  0  0  0  0  0  0  0  0
    8.0622   -6.0000    0.0000 C   0  0  0  0  0  0  0  0  0  0  0  0
   20.5851    5.4750    0.0000 H   0  0  0  0  0  0  0  0  0  0  0  0
   19.7880    5.4750    0.0000 H   0  0  0  0  0  0  0  0  0  0  0  0
   20.6540    4.0250    0.0000 H   0  0  0  0  0  0  0  0  0  0  0  0
   21.4511    4.0250    0.0000 H   0  0  0  0  0  0  0  0  0  0  0  0
    6.7976    4.0250    0.0000 H   0  0  0  0  0  0  0  0  0  0  0  0
    7.5947    4.0250    0.0000 H   0  0  0  0  0  0  0  0  0  0  0  0
   10.4482   -0.9174    0.0000 H   0  0  0  0  0  0  0  0  0  0  0  0
   10.0497   -1.6077    0.0000 H   0  0  0  0  0  0  0  0  0  0  0  0
    6.7287    5.4750    0.0000 H   0  0  0  0  0  0  0  0  0  0  0  0
    5.9316    5.4750    0.0000 H   0  0  0  0  0  0  0  0  0  0  0  0
   10.8723   -3.0826    0.0000 H   0  0  0  0  0  0  0  0  0  0  0  0
   11.2708   -2.3923    0.0000 H   0  0  0  0  0  0  0  0  0  0  0  0
   18.9220    4.0250    0.0000 H   0  0  0  0  0  0  0  0  0  0  0  0
   19.7190    4.0250    0.0000 H   0  0  0  0  0  0  0  0  0  0  0  0
   22.3171    5.4750    0.0000 H   0  0  0  0  0  0  0  0  0  0  0  0
   21.5201    5.4750    0.0000 H   0  0  0  0  0  0  0  0  0  0  0  0
    8.4607    5.4750    0.0000 H   0  0  0  0  0  0  0  0  0  0  0  0
   11.7383   -1.5826    0.0000 H   0  0  0  0  0  0  0  0  0  0  0  0
   12.1369   -0.8923    0.0000 H   0  0  0  0  0  0  0  0  0  0  0  0
    7.6636    5.4750    0.0000 H   0  0  0  0  0  0  0  0  0  0  0  0
    5.0656    4.0250    0.0000 H   0  0  0  0  0  0  0  0  0  0  0  0
    5.8626    4.0250    0.0000 H   0  0  0  0  0  0  0  0  0  0  0  0
    9.5822   -2.4174    0.0000 H   0  0  0  0  0  0  0  0  0  0  0  0
    9.1836   -3.1077    0.0000 H   0  0  0  0  0  0  0  0  0  0  0  0
   18.8530    5.4750    0.0000 H   0  0  0  0  0  0  0  0  0  0  0  0
   18.0560    5.4750    0.0000 H   0  0  0  0  0  0  0  0  0  0  0  0
   22.3861    4.0250    0.0000 H   0  0  0  0  0  0  0  0  0  0  0  0
   23.1831    4.0250    0.0000 H   0  0  0  0  0  0  0  0  0  0  0  0
    8.5297    4.0250    0.0000 H   0  0  0  0  0  0  0  0  0  0  0  0
    9.3267    4.0250    0.0000 H   0  0  0  0  0  0  0  0  0  0  0  0
   11.3142    0.5826    0.0000 H   0  0  0  0  0  0  0  0  0  0  0  0
   10.9157   -0.1077    0.0000 H   0  0  0  0  0  0  0  0  0  0  0  0
    4.9966    5.4750    0.0000 H   0  0  0  0  0  0  0  0  0  0  0  0
    4.1996    5.4750    0.0000 H   0  0  0  0  0  0  0  0  0  0  0  0
   10.0063   -4.5826    0.0000 H   0  0  0  0  0  0  0  0  0  0  0  0
   10.4048   -3.8923    0.0000 H   0  0  0  0  0  0  0  0  0  0  0  0
   17.1899    4.0250    0.0000 H   0  0  0  0  0  0  0  0  0  0  0  0
   17.9870    4.0250    0.0000 H   0  0  0  0  0  0  0  0  0  0  0  0
   12.6044   -0.0826    0.0000 H   0  0  0  0  0  0  0  0  0  0  0  0
   10.1928    5.4750    0.0000 H   0  0  0  0  0  0  0  0  0  0  0  0
    9.3957    5.4750    0.0000 H   0  0  0  0  0  0  0  0  0  0  0  0
   13.0029    0.6077    0.0000 H   0  0  0  0  0  0  0  0  0  0  0  0
   24.0492    5.4750    0.0000 H   0  0  0  0  0  0  0  0  0  0  0  0
   23.2521    5.4750    0.0000 H   0  0  0  0  0  0  0  0  0  0  0  0
    8.7162   -3.9174    0.0000 H   0  0  0  0  0  0  0  0  0  0  0  0
    8.3176   -4.6077    0.0000 H   0  0  0  0  0  0  0  0  0  0  0  0
    3.3335    4.0250    0.0000 H   0  0  0  0  0  0  0  0  0  0  0  0
    4.1306    4.0250    0.0000 H   0  0  0  0  0  0  0  0  0  0  0  0
   17.1210    5.4750    0.0000 H   0  0  0  0  0  0  0  0  0  0  0  0
   16.3239    5.4750    0.0000 H   0  0  0  0  0  0  0  0  0  0  0  0
   10.2617    4.0250    0.0000 H   0  0  0  0  0  0  0  0  0  0  0  0
   11.0588    4.0250    0.0000 H   0  0  0  0  0  0  0  0  0  0  0  0
   12.1803    2.0826    0.0000 H   0  0  0  0  0  0  0  0  0  0  0  0
   11.7817    1.3923    0.0000 H   0  0  0  0  0  0  0  0  0  0  0  0
   24.1181    4.0250    0.0000 H   0  0  0  0  0  0  0  0  0  0  0  0
   24.9152    4.0250    0.0000 H   0  0  0  0  0  0  0  0  0  0  0  0
    9.1403   -6.0826    0.0000 H   0  0  0  0  0  0  0  0  0  0  0  0
    9.5388   -5.3923    0.0000 H   0  0  0  0  0  0  0  0  0  0  0  0
    3.2646    5.4750    0.0000 H   0  0  0  0  0  0  0  0  0  0  0  0
    2.4675    5.4750    0.0000 H   0  0  0  0  0  0  0  0  0  0  0  0
   14.1244    5.1200    0.0000 H   0  0  0  0  0  0  0  0  0  0  0  0
   14.3364    2.9174    0.0000 H   0  0  0  0  0  0  0  0  0  0  0  0
   14.7349    3.6077    0.0000 H   0  0  0  0  0  0  0  0  0  0  0  0
   13.6569    5.4750    0.0000 H   0  0  0  0  0  0  0  0  0  0  0  0
   12.8598    5.4750    0.0000 H   0  0  0  0  0  0  0  0  0  0  0  0
   25.6927    4.4631    0.0000 H   0  0  0  0  0  0  0  0  0  0  0  0
   25.9196    5.3100    0.0000 H   0  0  0  0  0  0  0  0  0  0  0  0
   25.0727    5.5369    0.0000 H   0  0  0  0  0  0  0  0  0  0  0  0
    1.6900    5.0369    0.0000 H   0  0  0  0  0  0  0  0  0  0  0  0
    1.4631    4.1900    0.0000 H   0  0  0  0  0  0  0  0  0  0  0  0
    2.3100    3.9631    0.0000 H   0  0  0  0  0  0  0  0  0  0  0  0
    7.7522   -5.4631    0.0000 H   0  0  0  0  0  0  0  0  0  0  0  0
    7.5252   -6.3100    0.0000 H   0  0  0  0  0  0  0  0  0  0  0  0
    8.3722   -6.5369    0.0000 H   0  0  0  0  0  0  0  0  0  0  0  0
  1 37  1  0  0  0  0
  1 38  1  0  0  0  0
  2 39  1  0  0  0  0
  2 41  1  0  0  0  0
  3 40  1  0  0  0  0
  3 42  1  0  0  0  0
  4 38  2  0  0  0  0
  5 41  2  0  0  0  0
  6 42  2  0  0  0  0
  7  8  1  0  0  0  0
  7 13  1  0  0  0  0
  7 46  1  0  0  0  0
  7 47  1  0  0  0  0
  8 14  1  0  0  0  0
  8 48  1  0  0  0  0
  8 49  1  0  0  0  0
  9 11  1  0  0  0  0
  9 15  1  0  0  0  0
  9 50  1  0  0  0  0
  9 51  1  0  0  0  0
 10 12  1  0  0  0  0
 10 16  1  0  0  0  0
 10 52  1  0  0  0  0
 10 53  1  0  0  0  0
 11 17  1  0  0  0  0
 11 54  1  0  0  0  0
 11 55  1  0  0  0  0
 12 18  1  0  0  0  0
 12 56  1  0  0  0  0
 12 57  1  0  0  0  0
 13 19  1  0  0  0  0
 13 58  1  0  0  0  0
 13 59  1  0  0  0  0
 14 20  1  0  0  0  0
 14 60  1  0  0  0  0
 14 61  1  0  0  0  0
 15 21  1  0  0  0  0
 15 62  1  0  0  0  0
 15 65  1  0  0  0  0
 16 22  1  0  0  0  0
 16 63  1  0  0  0  0
 16 64  1  0  0  0  0
 17 23  1  0  0  0  0
 17 66  1  0  0  0  0
 17 67  1  0  0  0  0
 18 24  1  0  0  0  0
 18 68  1  0  0  0  0
 18 69  1  0  0  0  0
 19 25  1  0  0  0  0
 19 70  1  0  0  0  0
 19 71  1  0  0  0  0
 20 28  1  0  0  0  0
 20 72  1  0  0  0  0
 20 73  1  0  0  0  0
 21 26  1  0  0  0  0
 21 74  1  0  0  0  0
 21 75  1  0  0  0  0
 22 27  1  0  0  0  0
 22 76  1  0  0  0  0
 22 77  1  0  0  0  0
 23 29  1  0  0  0  0
 23 78  1  0  0  0  0
 23 79  1  0  0  0  0
 24 30  1  0  0  0  0
 24 80  1  0  0  0  0
 24 81  1  0  0  0  0
 25 31  1  0  0  0  0
 25 82  1  0  0  0  0
 25 83  1  0  0  0  0
 26 32  1  0  0  0  0
 26 85  1  0  0  0  0
 26 86  1  0  0  0  0
 27 33  1  0  0  0  0
 27 84  1  0  0  0  0
 27 87  1  0  0  0  0
 28 34  1  0  0  0  0
 28 88  1  0  0  0  0
 28 89  1  0  0  0  0
 29 35  1  0  0  0  0
 29 92  1  0  0  0  0
 29 93  1  0  0  0  0
 30 36  1  0  0  0  0
 30 90  1  0  0  0  0
 30 91  1  0  0  0  0
 31 38  1  0  0  0  0
 31 94  1  0  0  0  0
 31 95  1  0  0  0  0
 32 41  1  0  0  0  0
 32 96  1  0  0  0  0
 32 97  1  0  0  0  0
 33 42  1  0  0  0  0
 33 98  1  0  0  0  0
 33 99  1  0  0  0  0
 34 43  1  0  0  0  0
 34100  1  0  0  0  0
 34101  1  0  0  0  0
 35 44  1  0  0  0  0
 35104  1  0  0  0  0
 35105  1  0  0  0  0
 36 45  1  0  0  0  0
 36102  1  0  0  0  0
 36103  1  0  0  0  0
 37 39  1  0  0  0  0
 37 40  1  0  0  0  0
 37106  1  0  0  0  0
 39109  1  0  0  0  0
 39110  1  0  0  0  0
 40107  1  0  0  0  0
 40108  1  0  0  0  0
 43111  1  0  0  0  0
 43112  1  0  0  0  0
 43113  1  0  0  0  0
 44114  1  0  0  0  0
 44115  1  0  0  0  0
 44116  1  0  0  0  0
 45117  1  0  0  0  0
 45118  1  0  0  0  0
 45119  1  0  0  0  0
M  END
> <PUBCHEM_COMPOUND_CID>
10851

> <PUBCHEM_COMPOUND_CANONICALIZED>
1

> <PUBCHEM_CACTVS_COMPLEXITY>
626

> <PUBCHEM_CACTVS_HBOND_ACCEPTOR>
6

> <PUBCHEM_CACTVS_HBOND_DONOR>
0

> <PUBCHEM_CACTVS_ROTATABLE_BOND>
38

> <PUBCHEM_CACTVS_SUBSKEYS>
AAADcfB8OAAAAAAAAAAAAAAAAAAAAAAAAAAAAAAAAAAAAAAAAAAAGgAAAAAACBSggAICCAAABAAIAACQCAAAAAAAAAAAAAEAAAABABIAAAACAAAFAAACAAGIyKCAAAAAAAAAAAAAAAAAAAAAAAAAAAAAAA==

> <PUBCHEM_IUPAC_OPENEYE_NAME>
2,3-di(dodecanoyloxy)propyl dodecanoate

> <PUBCHEM_IUPAC_CAS_NAME>
dodecanoic acid 2,3-bis(1-oxododecoxy)propyl ester

> <PUBCHEM_IUPAC_NAME>
2,3-di(dodecanoyloxy)propyl dodecanoate

> <PUBCHEM_IUPAC_SYSTEMATIC_NAME>
2,3-di(dodecanoyloxy)propyl dodecanoate

> <PUBCHEM_IUPAC_TRADITIONAL_NAME>
lauric acid 2,3-dilauroyloxypropyl ester

> <PUBCHEM_IUPAC_INCHI>
InChI=1S/C39H74O6/c1-4-7-10-13-16-19-22-25-28-31-37(40)43-34-36(45-39(42)33-30-27-24-21-18-15-12-9-6-3)35-44-38(41)32-29-26-23-20-17-14-11-8-5-2/h36H,4-35H2,1-3H3

> <PUBCHEM_IUPAC_INCHIKEY>
VMPHSYLJUKZBJJ-UHFFFAOYSA-N

> <PUBCHEM_XLOGP3_AA>
15.4

> <PUBCHEM_EXACT_MASS>
638.54854

> <PUBCHEM_MOLECULAR_FORMULA>
C39H74O6

> <PUBCHEM_MOLECULAR_WEIGHT>
639.00126

> <PUBCHEM_OPENEYE_CAN_SMILES>
CCCCCCCCCCCC(=O)OCC(COC(=O)CCCCCCCCCCC)OC(=O)CCCCCCCCCCC

> <PUBCHEM_OPENEYE_ISO_SMILES>
CCCCCCCCCCCC(=O)OCC(COC(=O)CCCCCCCCCCC)OC(=O)CCCCCCCCCCC

> <PUBCHEM_CACTVS_TPSA>
78.9

> <PUBCHEM_MONOISOTOPIC_WEIGHT>
638.54854

> <PUBCHEM_TOTAL_CHARGE>
0

> <PUBCHEM_HEAVY_ATOM_COUNT>
45

> <PUBCHEM_ATOM_DEF_STEREO_COUNT>
0

> <PUBCHEM_ATOM_UDEF_STEREO_COUNT>
0

> <PUBCHEM_BOND_DEF_STEREO_COUNT>
0

> <PUBCHEM_BOND_UDEF_STEREO_COUNT>
0

> <PUBCHEM_ISOTOPIC_ATOM_COUNT>
0

> <PUBCHEM_COMPONENT_COUNT>
1

> <PUBCHEM_CACTVS_TAUTO_COUNT>
1

> <PUBCHEM_COORDINATE_TYPE>
1
5
255

$$$$

