14100
  -OEChem-06241222422D

 21 21  0     0  0  0  0  0  0999 V2000
    2.8660    0.2500    0.0000 N   0  0  0  0  0  0  0  0  0  0  0  0
    5.4641    2.7500    0.0000 N   0  0  0  0  0  0  0  0  0  0  0  0
    3.7320    0.7500    0.0000 C   0  0  0  0  0  0  0  0  0  0  0  0
    2.8660   -0.7500    0.0000 C   0  0  0  0  0  0  0  0  0  0  0  0
    3.7320    1.7500    0.0000 C   0  0  0  0  0  0  0  0  0  0  0  0
    2.0000   -1.2500    0.0000 C   0  0  0  0  0  0  0  0  0  0  0  0
    3.7320   -1.2500    0.0000 C   0  0  0  0  0  0  0  0  0  0  0  0
    2.0000   -2.2500    0.0000 C   0  0  0  0  0  0  0  0  0  0  0  0
    3.7320   -2.2500    0.0000 C   0  0  0  0  0  0  0  0  0  0  0  0
    2.8660   -2.7500    0.0000 C   0  0  0  0  0  0  0  0  0  0  0  0
    4.5981    2.2500    0.0000 C   0  0  0  0  0  0  0  0  0  0  0  0
    3.9441    0.1674    0.0000 H   0  0  0  0  0  0  0  0  0  0  0  0
    4.3426    0.8577    0.0000 H   0  0  0  0  0  0  0  0  0  0  0  0
    2.3291    0.5600    0.0000 H   0  0  0  0  0  0  0  0  0  0  0  0
    3.5200    2.3326    0.0000 H   0  0  0  0  0  0  0  0  0  0  0  0
    3.1215    1.6423    0.0000 H   0  0  0  0  0  0  0  0  0  0  0  0
    1.4631   -0.9400    0.0000 H   0  0  0  0  0  0  0  0  0  0  0  0
    4.2690   -0.9400    0.0000 H   0  0  0  0  0  0  0  0  0  0  0  0
    1.4631   -2.5600    0.0000 H   0  0  0  0  0  0  0  0  0  0  0  0
    4.2690   -2.5600    0.0000 H   0  0  0  0  0  0  0  0  0  0  0  0
    2.8660   -3.3700    0.0000 H   0  0  0  0  0  0  0  0  0  0  0  0
  1  3  1  0  0  0  0
  1  4  1  0  0  0  0
  1 14  1  0  0  0  0
  2 11  3  0  0  0  0
  3  5  1  0  0  0  0
  3 12  1  0  0  0  0
  3 13  1  0  0  0  0
  4  6  2  0  0  0  0
  4  7  1  0  0  0  0
  5 11  1  0  0  0  0
  5 15  1  0  0  0  0
  5 16  1  0  0  0  0
  6  8  1  0  0  0  0
  6 17  1  0  0  0  0
  7  9  2  0  0  0  0
  7 18  1  0  0  0  0
  8 10  2  0  0  0  0
  8 19  1  0  0  0  0
  9 10  1  0  0  0  0
  9 20  1  0  0  0  0
 10 21  1  0  0  0  0
M  END
> <PUBCHEM_COMPOUND_CID>
14100

> <PUBCHEM_COMPOUND_CANONICALIZED>
1

> <PUBCHEM_CACTVS_COMPLEXITY>
139

> <PUBCHEM_CACTVS_HBOND_ACCEPTOR>
2

> <PUBCHEM_CACTVS_HBOND_DONOR>
1

> <PUBCHEM_CACTVS_ROTATABLE_BOND>
3

> <PUBCHEM_CACTVS_SUBSKEYS>
AAADccBzAAAAAAAAAAAAAAAAAAAAAAAAAAAwAAAAAAAAAAABAAAAHAAQAAAACAjBEAQwwILAAACQBCRCQACCAAAhAgAIiIAIZIgIoCLAkZGEIAhgkADIyAcQAAAAAAAAAAAAAAAAAAAAAAAAAAAAAAAAAA==

> <PUBCHEM_IUPAC_OPENEYE_NAME>
3-anilinopropanenitrile

> <PUBCHEM_IUPAC_CAS_NAME>
3-anilinopropanenitrile

> <PUBCHEM_IUPAC_NAME>
3-anilinopropanenitrile

> <PUBCHEM_IUPAC_SYSTEMATIC_NAME>
3-phenylazanylpropanenitrile

> <PUBCHEM_IUPAC_TRADITIONAL_NAME>
3-anilinopropionitrile

> <PUBCHEM_IUPAC_INCHI>
InChI=1S/C9H10N2/c10-7-4-8-11-9-5-2-1-3-6-9/h1-3,5-6,11H,4,8H2

> <PUBCHEM_IUPAC_INCHIKEY>
FENJKTQEFUPECW-UHFFFAOYSA-N

> <PUBCHEM_XLOGP3>
2

> <PUBCHEM_EXACT_MASS>
146.084398

> <PUBCHEM_MOLECULAR_FORMULA>
C9H10N2

> <PUBCHEM_MOLECULAR_WEIGHT>
146.1891

> <PUBCHEM_OPENEYE_CAN_SMILES>
C1=CC=C(C=C1)NCCC#N

> <PUBCHEM_OPENEYE_ISO_SMILES>
C1=CC=C(C=C1)NCCC#N

> <PUBCHEM_CACTVS_TPSA>
35.8

> <PUBCHEM_MONOISOTOPIC_WEIGHT>
146.084398

> <PUBCHEM_TOTAL_CHARGE>
0

> <PUBCHEM_HEAVY_ATOM_COUNT>
11

> <PUBCHEM_ATOM_DEF_STEREO_COUNT>
0

> <PUBCHEM_ATOM_UDEF_STEREO_COUNT>
0

> <PUBCHEM_BOND_DEF_STEREO_COUNT>
0

> <PUBCHEM_BOND_UDEF_STEREO_COUNT>
0

> <PUBCHEM_ISOTOPIC_ATOM_COUNT>
0

> <PUBCHEM_COMPONENT_COUNT>
1

> <PUBCHEM_CACTVS_TAUTO_COUNT>
1

> <PUBCHEM_COORDINATE_TYPE>
1
5
255

> <PUBCHEM_BONDANNOTATIONS>
4  6  8
4  7  8
6  8  8
7  9  8
8  10  8
9  10  8

$$$$

