6676
  -OEChem-06261201263D

 69 72  0     1  0  0  0  0  0999 V2000
   -0.6045    0.9535   -1.7236 O   0  0  0  0  0  0  0  0  0  0  0  0
    1.7320    0.9282    2.4144 O   0  0  0  0  0  0  0  0  0  0  0  0
    5.0935    3.2641   -0.3753 O   0  0  0  0  0  0  0  0  0  0  0  0
   -6.3475    2.8561    0.2358 O   0  0  0  0  0  0  0  0  0  0  0  0
   -7.1803    0.8046    0.7402 O   0  0  0  0  0  0  0  0  0  0  0  0
   -0.9978   -1.0466   -0.3395 C   0  0  1  0  0  0  0  0  0  0  0  0
   -0.2263   -0.5124    0.8901 C   0  0  2  0  0  0  0  0  0  0  0  0
    1.2574   -0.9127    0.8919 C   0  0  1  0  0  0  0  0  0  0  0  0
    1.9362   -0.3504   -0.4025 C   0  0  1  0  0  0  0  0  0  0  0  0
    3.4673   -0.7267   -0.4682 C   0  0  2  0  0  0  0  0  0  0  0  0
   -2.4166   -0.5380    0.0282 C   0  0  2  0  0  0  0  0  0  0  0  0
   -0.3741   -0.4511   -1.6180 C   0  0  2  0  0  0  0  0  0  0  0  0
    1.1430   -0.7256   -1.6900 C   0  0  0  0  0  0  0  0  0  0  0  0
    4.1818   -0.2143    0.8267 C   0  0  2  0  0  0  0  0  0  0  0  0
   -1.0955   -0.9352    2.0736 C   0  0  0  0  0  0  0  0  0  0  0  0
    1.9843   -0.4523    2.1705 C   0  0  1  0  0  0  0  0  0  0  0  0
   -2.5359   -0.8398    1.5399 C   0  0  0  0  0  0  0  0  0  0  0  0
    3.4923   -0.7115    2.1133 C   0  0  0  0  0  0  0  0  0  0  0  0
    4.1830   -0.1132   -1.7082 C   0  0  0  0  0  0  0  0  0  0  0  0
   -0.9810   -2.5958   -0.4540 C   0  0  0  0  0  0  0  0  0  0  0  0
   -3.5716   -1.1076   -0.7829 C   0  0  1  0  0  0  0  0  0  0  0  0
    4.3613    1.3185    0.8474 C   0  0  0  0  0  0  0  0  0  0  0  0
    3.6641   -2.2622   -0.5854 C   0  0  0  0  0  0  0  0  0  0  0  0
    4.3160    1.4028   -1.6624 C   0  0  0  0  0  0  0  0  0  0  0  0
    5.0558    1.8413   -0.4062 C   0  0  1  0  0  0  0  0  0  0  0  0
   -4.9114   -0.5404   -0.2705 C   0  0  0  0  0  0  0  0  0  0  0  0
   -3.3585   -0.8208   -2.2730 C   0  0  0  0  0  0  0  0  0  0  0  0
   -4.9841    0.9877   -0.2965 C   0  0  0  0  0  0  0  0  0  0  0  0
   -6.2829    1.4997    0.2845 C   0  0  0  0  0  0  0  0  0  0  0  0
   -0.2691    0.5876    0.8594 H   0  0  0  0  0  0  0  0  0  0  0  0
    1.3195   -2.0052    0.8792 H   0  0  0  0  0  0  0  0  0  0  0  0
    1.8708    0.7435   -0.3502 H   0  0  0  0  0  0  0  0  0  0  0  0
   -2.3976    0.5530   -0.0825 H   0  0  0  0  0  0  0  0  0  0  0  0
   -0.7990   -0.8987   -2.5175 H   0  0  0  0  0  0  0  0  0  0  0  0
    1.5478   -0.1573   -2.5347 H   0  0  0  0  0  0  0  0  0  0  0  0
    1.2941   -1.7844   -1.9208 H   0  0  0  0  0  0  0  0  0  0  0  0
    5.1988   -0.6340    0.8375 H   0  0  0  0  0  0  0  0  0  0  0  0
   -0.9505   -0.2820    2.9401 H   0  0  0  0  0  0  0  0  0  0  0  0
   -0.8723   -1.9598    2.3914 H   0  0  0  0  0  0  0  0  0  0  0  0
    1.5803   -0.9921    3.0344 H   0  0  0  0  0  0  0  0  0  0  0  0
   -3.0596   -1.7824    1.7359 H   0  0  0  0  0  0  0  0  0  0  0  0
   -3.0860   -0.0445    2.0544 H   0  0  0  0  0  0  0  0  0  0  0  0
    3.6636   -1.7905    2.2102 H   0  0  0  0  0  0  0  0  0  0  0  0
    3.9753   -0.2443    2.9808 H   0  0  0  0  0  0  0  0  0  0  0  0
    3.6867   -0.4092   -2.6385 H   0  0  0  0  0  0  0  0  0  0  0  0
    5.1970   -0.5323   -1.7779 H   0  0  0  0  0  0  0  0  0  0  0  0
   -1.5015   -2.9357   -1.3549 H   0  0  0  0  0  0  0  0  0  0  0  0
    0.0318   -3.0023   -0.5175 H   0  0  0  0  0  0  0  0  0  0  0  0
   -1.4624   -3.0857    0.3980 H   0  0  0  0  0  0  0  0  0  0  0  0
   -3.6324   -2.1957   -0.6570 H   0  0  0  0  0  0  0  0  0  0  0  0
    3.4132    1.8498    0.9483 H   0  0  0  0  0  0  0  0  0  0  0  0
    4.9479    1.6127    1.7275 H   0  0  0  0  0  0  0  0  0  0  0  0
    4.7293   -2.5207   -0.5477 H   0  0  0  0  0  0  0  0  0  0  0  0
    3.1769   -2.8210    0.2168 H   0  0  0  0  0  0  0  0  0  0  0  0
    3.2805   -2.6464   -1.5360 H   0  0  0  0  0  0  0  0  0  0  0  0
    4.8600    1.7519   -2.5489 H   0  0  0  0  0  0  0  0  0  0  0  0
    3.3325    1.8846   -1.7172 H   0  0  0  0  0  0  0  0  0  0  0  0
    6.0909    1.4803   -0.4295 H   0  0  0  0  0  0  0  0  0  0  0  0
   -0.2113    1.2561   -2.5597 H   0  0  0  0  0  0  0  0  0  0  0  0
   -5.7292   -0.9492   -0.8788 H   0  0  0  0  0  0  0  0  0  0  0  0
   -5.1030   -0.9003    0.7480 H   0  0  0  0  0  0  0  0  0  0  0  0
    1.5607    1.3895    1.5799 H   0  0  0  0  0  0  0  0  0  0  0  0
   -3.0093    0.1974   -2.4644 H   0  0  0  0  0  0  0  0  0  0  0  0
   -2.6869   -1.5463   -2.7345 H   0  0  0  0  0  0  0  0  0  0  0  0
   -4.3073   -0.9335   -2.8118 H   0  0  0  0  0  0  0  0  0  0  0  0
    5.5561    3.5635   -1.1766 H   0  0  0  0  0  0  0  0  0  0  0  0
   -4.1952    1.4396    0.3098 H   0  0  0  0  0  0  0  0  0  0  0  0
   -4.9062    1.3540   -1.3252 H   0  0  0  0  0  0  0  0  0  0  0  0
   -7.1892    3.1954    0.6081 H   0  0  0  0  0  0  0  0  0  0  0  0
  1 12  1  0  0  0  0
  1 59  1  0  0  0  0
  2 16  1  0  0  0  0
  2 62  1  0  0  0  0
  3 25  1  0  0  0  0
  3 66  1  0  0  0  0
  4 29  1  0  0  0  0
  4 69  1  0  0  0  0
  5 29  2  0  0  0  0
  6  7  1  0  0  0  0
  6 11  1  0  0  0  0
  6 12  1  0  0  0  0
  6 20  1  0  0  0  0
  7  8  1  0  0  0  0
  7 15  1  0  0  0  0
  7 30  1  0  0  0  0
  8  9  1  0  0  0  0
  8 16  1  0  0  0  0
  8 31  1  0  0  0  0
  9 10  1  0  0  0  0
  9 13  1  0  0  0  0
  9 32  1  0  0  0  0
 10 14  1  0  0  0  0
 10 19  1  0  0  0  0
 10 23  1  0  0  0  0
 11 17  1  0  0  0  0
 11 21  1  0  0  0  0
 11 33  1  0  0  0  0
 12 13  1  0  0  0  0
 12 34  1  0  0  0  0
 13 35  1  0  0  0  0
 13 36  1  0  0  0  0
 14 18  1  0  0  0  0
 14 22  1  0  0  0  0
 14 37  1  0  0  0  0
 15 17  1  0  0  0  0
 15 38  1  0  0  0  0
 15 39  1  0  0  0  0
 16 18  1  0  0  0  0
 16 40  1  0  0  0  0
 17 41  1  0  0  0  0
 17 42  1  0  0  0  0
 18 43  1  0  0  0  0
 18 44  1  0  0  0  0
 19 24  1  0  0  0  0
 19 45  1  0  0  0  0
 19 46  1  0  0  0  0
 20 47  1  0  0  0  0
 20 48  1  0  0  0  0
 20 49  1  0  0  0  0
 21 26  1  0  0  0  0
 21 27  1  0  0  0  0
 21 50  1  0  0  0  0
 22 25  1  0  0  0  0
 22 51  1  0  0  0  0
 22 52  1  0  0  0  0
 23 53  1  0  0  0  0
 23 54  1  0  0  0  0
 23 55  1  0  0  0  0
 24 25  1  0  0  0  0
 24 56  1  0  0  0  0
 24 57  1  0  0  0  0
 25 58  1  0  0  0  0
 26 28  1  0  0  0  0
 26 60  1  0  0  0  0
 26 61  1  0  0  0  0
 27 63  1  0  0  0  0
 27 64  1  0  0  0  0
 27 65  1  0  0  0  0
 28 29  1  0  0  0  0
 28 67  1  0  0  0  0
 28 68  1  0  0  0  0
M  END
> <PUBCHEM_COMPOUND_CID>
6676

> <PUBCHEM_CONFORMER_RMSD>
0.8

> <PUBCHEM_CONFORMER_DIVERSEORDER>
6
9
8
11
5
10
7
2
12
1
3
4
13

> <PUBCHEM_MMFF94_PARTIAL_CHARGES>
14
1 -0.68
12 0.28
16 0.28
2 -0.68
25 0.28
28 0.06
29 0.66
3 -0.68
4 -0.65
5 -0.57
59 0.4
62 0.4
66 0.4
69 0.5

> <PUBCHEM_EFFECTIVE_ROTOR_COUNT>
6.2

> <PUBCHEM_PHARMACOPHORE_FEATURES>
14
1 1 acceptor
1 1 donor
1 2 acceptor
1 2 donor
1 27 hydrophobe
1 3 acceptor
1 3 donor
1 4 acceptor
1 5 acceptor
3 4 5 29 anion
5 6 7 11 15 17 rings
6 10 14 19 22 24 25 rings
6 6 7 8 9 12 13 rings
6 8 9 10 14 16 18 rings

> <PUBCHEM_HEAVY_ATOM_COUNT>
29

> <PUBCHEM_ATOM_DEF_STEREO_COUNT>
10

> <PUBCHEM_ATOM_UDEF_STEREO_COUNT>
1

> <PUBCHEM_BOND_DEF_STEREO_COUNT>
0

> <PUBCHEM_BOND_UDEF_STEREO_COUNT>
0

> <PUBCHEM_ISOTOPIC_ATOM_COUNT>
0

> <PUBCHEM_COMPONENT_COUNT>
1

> <PUBCHEM_CACTVS_TAUTO_COUNT>
1

> <PUBCHEM_CONFORMER_ID>
00001A1400000006

> <PUBCHEM_MMFF94_ENERGY>
105.6399

> <PUBCHEM_FEATURE_SELFOVERLAP>
71.22

> <PUBCHEM_SHAPE_FINGERPRINT>
10 15 14907897146055447805
10554248 39 17968950819724770487
10693767 8 4678542325513552613
11135609 201 18130229255160912353
11578080 2 18339636737928475394
11954058 11 9006790791205186760
12011746 2 16443059482986597818
12236239 1 18059853991760664263
12403259 415 17240768329003087635
12422481 6 15051470292157741744
12596602 18 17917709102593880089
12633257 1 14907899323735878178
12892183 10 14979965812920211967
13140716 1 15696859342348997398
13224815 77 16773802442193948066
13533116 47 17489310836259362586
13955234 65 17560813181320653202
14931854 50 16081352022354547132
15163728 17 18261668264095699097
15183329 4 16009031713740655155
15188451 53 10519987045997117793
15238133 3 18187658989731747330
15475509 35 10879995735458826652
15840311 113 18271803575492839013
17349148 13 6843932710061506975
18222031 100 5400802760682240906
19377110 9 15123508086544108659
1979834 28 15985104132421555978
20775438 99 5399925346129771484
21033648 29 18259991440022584115
21267235 1 15554168185314474202
21521239 73 4967600664681809461
21623969 137 14477239371052845697
21641784 216 16515673481675103601
21792934 111 16128111021951883261
22122407 14 18340761542424167889
22149856 69 15841262762250432749
2215653 11 14923940141664776669
22393880 68 16226057643393904303
23559900 14 15140965002541127482
23569914 152 13988286717927981657
23569914 2 17832191299804606137
2838139 119 18410297999343970197
29717793 49 5400800557653980155
3004659 81 17677049148383710294
34797466 226 18114451258848727463
34934 24 17489306330891448838
3680242 22 16415487021523592020
392239 28 16486981643653110325
4058900 60 17822277011935316183
4340502 62 15913327992022457267
465052 167 11671780468510707932
5104073 3 16845573076096476704
633830 44 18412832399405241535
960060 61 16805597045666876388

> <PUBCHEM_SHAPE_MULTIPOLES>
567.46
13.69
2.25
2.2
15.98
1.24
-0.26
10.2
-1.1
-0.75
0.01
-0.82
-0.37
-0.95

> <PUBCHEM_SHAPE_SELFOVERLAP>
1190.568

> <PUBCHEM_SHAPE_VOLUME>
316.6

> <PUBCHEM_COORDINATE_TYPE>
2
5
10

$$$$

