5285
  -OEChem-06261200372D

 79 82  0     1  0  0  0  0  0999 V2000
   13.2673    3.2367    0.0000 O   0  0  0  0  0  0  0  0  0  0  0  0
    7.2194    0.6916    0.0000 O   0  0  0  0  0  0  0  0  0  0  0  0
   12.4070    4.7401    0.0000 O   0  0  0  0  0  0  0  0  0  0  0  0
    4.2677   -2.8390    0.0000 O   0  0  0  0  0  0  0  0  0  0  0  0
    2.6213   -2.3009    0.0000 O   0  0  0  0  0  0  0  0  0  0  0  0
   10.6153    1.6916    0.0000 C   0  0  3  0  0  0  0  0  0  0  0  0
   11.4813    1.1916    0.0000 C   0  0  3  0  0  0  0  0  0  0  0  0
    9.7492    1.1916    0.0000 C   0  0  3  0  0  0  0  0  0  0  0  0
    9.7492    0.1916    0.0000 C   0  0  3  0  0  0  0  0  0  0  0  0
   12.3913    1.6985    0.0000 C   0  0  0  0  0  0  0  0  0  0  0  0
   11.4813    0.1916    0.0000 C   0  0  0  0  0  0  0  0  0  0  0  0
   10.5992    2.7331    0.0000 C   0  0  0  0  0  0  0  0  0  0  0  0
   10.6153   -0.3084    0.0000 C   0  0  0  0  0  0  0  0  0  0  0  0
   12.3993    2.7401    0.0000 C   0  0  3  0  0  0  0  0  0  0  0  0
    8.8030    1.4964    0.0000 C   0  0  0  0  0  0  0  0  0  0  0  0
   11.4972    3.2609    0.0000 C   0  0  0  0  0  0  0  0  0  0  0  0
    9.7492    2.1916    0.0000 C   0  0  0  0  0  0  0  0  0  0  0  0
    8.8030   -0.1131    0.0000 C   0  0  0  0  0  0  0  0  0  0  0  0
    9.7492   -0.8084    0.0000 C   0  0  0  0  0  0  0  0  0  0  0  0
    8.2194    0.6916    0.0000 C   0  0  0  0  0  0  0  0  0  0  0  0
   13.3912    1.6869    0.0000 C   0  0  0  0  0  0  0  0  0  0  0  0
   12.8812    0.8267    0.0000 C   0  0  0  0  0  0  0  0  0  0  0  0
    8.4924   -1.0636    0.0000 C   0  0  0  0  0  0  0  0  0  0  0  0
    9.1602   -1.8079    0.0000 C   0  0  0  0  0  0  0  0  0  0  0  0
    7.5138   -1.2698    0.0000 C   0  0  0  0  0  0  0  0  0  0  0  0
   13.2711    4.2367    0.0000 C   0  0  0  0  0  0  0  0  0  0  0  0
   14.1391    4.7334    0.0000 C   0  0  0  0  0  0  0  0  0  0  0  0
    7.2032   -2.2204    0.0000 C   0  0  0  0  0  0  0  0  0  0  0  0
    6.2247   -2.4266    0.0000 C   0  0  0  0  0  0  0  0  0  0  0  0
    5.9140   -3.3771    0.0000 C   0  0  0  0  0  0  0  0  0  0  0  0
    6.5819   -4.1214    0.0000 C   0  0  0  0  0  0  0  0  0  0  0  0
    4.9355   -3.5833    0.0000 C   0  0  0  0  0  0  0  0  0  0  0  0
    4.6249   -4.5338    0.0000 C   0  0  0  0  0  0  0  0  0  0  0  0
    3.6464   -4.7401    0.0000 C   0  0  0  0  0  0  0  0  0  0  0  0
    3.2892   -3.0452    0.0000 C   0  0  0  0  0  0  0  0  0  0  0  0
    2.9785   -3.9958    0.0000 C   0  0  0  0  0  0  0  0  0  0  0  0
    2.0000   -4.2020    0.0000 C   0  0  0  0  0  0  0  0  0  0  0  0
   12.2141    0.7610    0.0000 H   0  0  0  0  0  0  0  0  0  0  0  0
    9.6593    2.0369    0.0000 H   0  0  0  0  0  0  0  0  0  0  0  0
   11.6933   -0.3910    0.0000 H   0  0  0  0  0  0  0  0  0  0  0  0
   12.0919    0.2993    0.0000 H   0  0  0  0  0  0  0  0  0  0  0  0
   10.3812    3.3135    0.0000 H   0  0  0  0  0  0  0  0  0  0  0  0
    9.9901    2.6176    0.0000 H   0  0  0  0  0  0  0  0  0  0  0  0
   10.2167   -0.7833    0.0000 H   0  0  0  0  0  0  0  0  0  0  0  0
   11.0138   -0.7833    0.0000 H   0  0  0  0  0  0  0  0  0  0  0  0
   13.1330    2.3108    0.0000 H   0  0  0  0  0  0  0  0  0  0  0  0
    9.0541    2.0633    0.0000 H   0  0  0  0  0  0  0  0  0  0  0  0
    8.2656    1.8056    0.0000 H   0  0  0  0  0  0  0  0  0  0  0  0
   11.8946    3.7369    0.0000 H   0  0  0  0  0  0  0  0  0  0  0  0
   11.0963    3.7338    0.0000 H   0  0  0  0  0  0  0  0  0  0  0  0
   10.0592    2.7286    0.0000 H   0  0  0  0  0  0  0  0  0  0  0  0
    9.2123    2.5016    0.0000 H   0  0  0  0  0  0  0  0  0  0  0  0
    9.4392    1.6547    0.0000 H   0  0  0  0  0  0  0  0  0  0  0  0
    9.1292   -0.8084    0.0000 H   0  0  0  0  0  0  0  0  0  0  0  0
    9.7492   -1.4284    0.0000 H   0  0  0  0  0  0  0  0  0  0  0  0
   10.3692   -0.8084    0.0000 H   0  0  0  0  0  0  0  0  0  0  0  0
   13.3841    1.0670    0.0000 H   0  0  0  0  0  0  0  0  0  0  0  0
   14.0112    1.6797    0.0000 H   0  0  0  0  0  0  0  0  0  0  0  0
   13.3984    2.3069    0.0000 H   0  0  0  0  0  0  0  0  0  0  0  0
   12.3408    0.5230    0.0000 H   0  0  0  0  0  0  0  0  0  0  0  0
   13.1850    0.2862    0.0000 H   0  0  0  0  0  0  0  0  0  0  0  0
   13.4217    1.1305    0.0000 H   0  0  0  0  0  0  0  0  0  0  0  0
    8.6987   -2.2220    0.0000 H   0  0  0  0  0  0  0  0  0  0  0  0
    9.5743   -2.2694    0.0000 H   0  0  0  0  0  0  0  0  0  0  0  0
    9.6217   -1.3939    0.0000 H   0  0  0  0  0  0  0  0  0  0  0  0
    7.0998   -0.8084    0.0000 H   0  0  0  0  0  0  0  0  0  0  0  0
   14.4470    4.1953    0.0000 H   0  0  0  0  0  0  0  0  0  0  0  0
   14.6772    5.0413    0.0000 H   0  0  0  0  0  0  0  0  0  0  0  0
   13.8311    5.2715    0.0000 H   0  0  0  0  0  0  0  0  0  0  0  0
    7.6172   -2.6818    0.0000 H   0  0  0  0  0  0  0  0  0  0  0  0
    5.8106   -1.9651    0.0000 H   0  0  0  0  0  0  0  0  0  0  0  0
    6.1204   -4.5355    0.0000 H   0  0  0  0  0  0  0  0  0  0  0  0
    6.9959   -4.5829    0.0000 H   0  0  0  0  0  0  0  0  0  0  0  0
    7.0433   -3.7073    0.0000 H   0  0  0  0  0  0  0  0  0  0  0  0
    5.0389   -4.9953    0.0000 H   0  0  0  0  0  0  0  0  0  0  0  0
    3.4537   -5.3294    0.0000 H   0  0  0  0  0  0  0  0  0  0  0  0
    1.8721   -3.5953    0.0000 H   0  0  0  0  0  0  0  0  0  0  0  0
    1.3933   -4.3298    0.0000 H   0  0  0  0  0  0  0  0  0  0  0  0
    2.1279   -4.8086    0.0000 H   0  0  0  0  0  0  0  0  0  0  0  0
  1 14  1  0  0  0  0
  1 26  1  0  0  0  0
  2 20  2  0  0  0  0
  3 26  2  0  0  0  0
  4 32  1  0  0  0  0
  4 35  1  0  0  0  0
  5 35  2  0  0  0  0
  6  7  1  0  0  0  0
  6  8  1  0  0  0  0
  6 12  1  0  0  0  0
  6 17  1  0  0  0  0
  7 10  1  0  0  0  0
  7 11  1  0  0  0  0
  7 38  1  0  0  0  0
  8  9  1  0  0  0  0
  8 15  1  0  0  0  0
  8 39  1  0  0  0  0
  9 13  1  0  0  0  0
  9 18  1  0  0  0  0
  9 19  1  0  0  0  0
 10 14  1  0  0  0  0
 10 21  1  0  0  0  0
 10 22  1  0  0  0  0
 11 13  1  0  0  0  0
 11 40  1  0  0  0  0
 11 41  1  0  0  0  0
 12 16  1  0  0  0  0
 12 42  1  0  0  0  0
 12 43  1  0  0  0  0
 13 44  1  0  0  0  0
 13 45  1  0  0  0  0
 14 16  1  0  0  0  0
 14 46  1  0  0  0  0
 15 20  1  0  0  0  0
 15 47  1  0  0  0  0
 15 48  1  0  0  0  0
 16 49  1  0  0  0  0
 16 50  1  0  0  0  0
 17 51  1  0  0  0  0
 17 52  1  0  0  0  0
 17 53  1  0  0  0  0
 18 20  1  0  0  0  0
 18 23  2  3  0  0  0
 19 54  1  0  0  0  0
 19 55  1  0  0  0  0
 19 56  1  0  0  0  0
 21 57  1  0  0  0  0
 21 58  1  0  0  0  0
 21 59  1  0  0  0  0
 22 60  1  0  0  0  0
 22 61  1  0  0  0  0
 22 62  1  0  0  0  0
 23 24  1  0  0  0  0
 23 25  1  0  0  0  0
 24 63  1  0  0  0  0
 24 64  1  0  0  0  0
 24 65  1  0  0  0  0
 25 28  2  3  0  0  0
 25 66  1  0  0  0  0
 26 27  1  0  0  0  0
 27 67  1  0  0  0  0
 27 68  1  0  0  0  0
 27 69  1  0  0  0  0
 28 29  1  0  0  0  0
 28 70  1  0  0  0  0
 29 30  2  3  0  0  0
 29 71  1  0  0  0  0
 30 31  1  0  0  0  0
 30 32  1  0  0  0  0
 31 72  1  0  0  0  0
 31 73  1  0  0  0  0
 31 74  1  0  0  0  0
 32 33  2  0  0  0  0
 33 34  1  0  0  0  0
 33 75  1  0  0  0  0
 34 36  2  0  0  0  0
 34 76  1  0  0  0  0
 35 36  1  0  0  0  0
 36 37  1  0  0  0  0
 37 77  1  0  0  0  0
 37 78  1  0  0  0  0
 37 79  1  0  0  0  0
M  END
> <PUBCHEM_COMPOUND_CID>
5285

> <PUBCHEM_COMPOUND_CANONICALIZED>
1

> <PUBCHEM_CACTVS_COMPLEXITY>
1180

> <PUBCHEM_CACTVS_HBOND_ACCEPTOR>
5

> <PUBCHEM_CACTVS_HBOND_DONOR>
0

> <PUBCHEM_CACTVS_ROTATABLE_BOND>
5

> <PUBCHEM_CACTVS_SUBSKEYS>
AAADcfB8OAAAAAAAAAAAAAAAAAAAAYAAAAAwYIAAAAAAAGDAAAAAGgAAAAAADxSggAICCAAABACIAqDSCAAACAAgIAAICAEAAEgIBBIAIQACEAAEgAAIoYOIyPCPgAAAAAAAAADAAAYAADAAAAAACAAAAA==

> <PUBCHEM_IUPAC_OPENEYE_NAME>
[3a,6,6,9a-tetramethyl-3-[1-methyl-5-(5-methyl-6-oxo-pyran-2-yl)hexa-2,4-dienylidene]-2-oxo-1,4,5,5a,7,8,9,9b-octahydrocyclopenta[a]naphthalen-7-yl] acetate

> <PUBCHEM_IUPAC_CAS_NAME>
acetic acid [3a,6,6,9a-tetramethyl-3-[6-(5-methyl-6-oxo-2-pyranyl)hepta-3,5-dien-2-ylidene]-2-oxo-1,4,5,5a,7,8,9,9b-octahydrocyclopenta[a]naphthalen-7-yl] ester

> <PUBCHEM_IUPAC_NAME>
[3a,6,6,9a-tetramethyl-3-[6-(5-methyl-6-oxopyran-2-yl)hepta-3,5-dien-2-ylidene]-2-oxo-1,4,5,5a,7,8,9,9b-octahydrocyclopenta[a]naphthalen-7-yl] acetate

> <PUBCHEM_IUPAC_SYSTEMATIC_NAME>
[3a,6,6,9a-tetramethyl-3-[6-(5-methyl-6-oxidanylidene-pyran-2-yl)hepta-3,5-dien-2-ylidene]-2-oxidanylidene-1,4,5,5a,7,8,9,9b-octahydrocyclopenta[a]naphthalen-7-yl] ethanoate

> <PUBCHEM_IUPAC_TRADITIONAL_NAME>
acetic acid [2-keto-3-[5-(6-keto-5-methyl-pyran-2-yl)-1-methyl-hexa-2,4-dienylidene]-3a,6,6,9a-tetramethyl-1,4,5,5a,7,8,9,9b-octahydrobenz[e]inden-7-yl] ester

> <PUBCHEM_IUPAC_INCHI>
InChI=1S/C32H42O5/c1-19(24-13-12-21(3)29(35)37-24)10-9-11-20(2)28-23(34)18-26-31(7)17-15-27(36-22(4)33)30(5,6)25(31)14-16-32(26,28)8/h9-13,25-27H,14-18H2,1-8H3

> <PUBCHEM_IUPAC_INCHIKEY>
FXUTZQWZMMBKRZ-UHFFFAOYSA-N

> <PUBCHEM_XLOGP3_AA>
7.9

> <PUBCHEM_EXACT_MASS>
506.303224

> <PUBCHEM_MOLECULAR_FORMULA>
C32H42O5

> <PUBCHEM_MOLECULAR_WEIGHT>
506.67288

> <PUBCHEM_OPENEYE_CAN_SMILES>
CC1=CC=C(OC1=O)C(=CC=CC(=C2C(=O)CC3C2(CCC4C3(CCC(C4(C)C)OC(=O)C)C)C)C)C

> <PUBCHEM_OPENEYE_ISO_SMILES>
CC1=CC=C(OC1=O)C(=CC=CC(=C2C(=O)CC3C2(CCC4C3(CCC(C4(C)C)OC(=O)C)C)C)C)C

> <PUBCHEM_CACTVS_TPSA>
69.7

> <PUBCHEM_MONOISOTOPIC_WEIGHT>
506.303224

> <PUBCHEM_TOTAL_CHARGE>
0

> <PUBCHEM_HEAVY_ATOM_COUNT>
37

> <PUBCHEM_ATOM_DEF_STEREO_COUNT>
0

> <PUBCHEM_ATOM_UDEF_STEREO_COUNT>
5

> <PUBCHEM_BOND_DEF_STEREO_COUNT>
0

> <PUBCHEM_BOND_UDEF_STEREO_COUNT>
3

> <PUBCHEM_ISOTOPIC_ATOM_COUNT>
0

> <PUBCHEM_COMPONENT_COUNT>
1

> <PUBCHEM_CACTVS_TAUTO_COUNT>
5

> <PUBCHEM_COORDINATE_TYPE>
1
5
255

> <PUBCHEM_BONDANNOTATIONS>
14  46  3
18  23  1
25  28  1
29  30  1
32  33  8
33  34  8
34  36  8
35  36  8
4  32  8
4  35  8
6  17  3
7  38  3
8  39  3
9  19  3

$$$$

