17396116
  -OEChem-06241222542D

 48 51  0     0  0  0  0  0  0999 V2000
    6.7619    1.9010    0.0000 O   0  0  0  0  0  0  0  0  0  0  0  0
    9.7619    0.1690    0.0000 N   0  0  0  0  0  0  0  0  0  0  0  0
    6.7619    0.1690    0.0000 N   0  0  0  0  0  0  0  0  0  0  0  0
    4.6783    1.8398    0.0000 N   0  0  0  0  0  0  0  0  0  0  0  0
    9.3551    1.0825    0.0000 C   0  0  0  0  0  0  0  0  0  0  0  0
   10.7564    0.2735    0.0000 C   0  0  0  0  0  0  0  0  0  0  0  0
   10.0983    1.7517    0.0000 C   0  0  0  0  0  0  0  0  0  0  0  0
   10.9643    1.2517    0.0000 C   0  0  0  0  0  0  0  0  0  0  0  0
    9.2619   -0.6970    0.0000 C   0  0  0  0  0  0  0  0  0  0  0  0
    8.2619   -0.6970    0.0000 C   0  0  0  0  0  0  0  0  0  0  0  0
    7.7619    0.1690    0.0000 C   0  0  0  0  0  0  0  0  0  0  0  0
    9.7619   -1.5630    0.0000 C   0  0  0  0  0  0  0  0  0  0  0  0
    7.7619   -1.5630    0.0000 C   0  0  0  0  0  0  0  0  0  0  0  0
    9.2619   -2.4291    0.0000 C   0  0  0  0  0  0  0  0  0  0  0  0
    8.2619   -2.4291    0.0000 C   0  0  0  0  0  0  0  0  0  0  0  0
    6.2619    1.0350    0.0000 C   0  0  0  0  0  0  0  0  0  0  0  0
    5.2619    1.0350    0.0000 C   0  0  0  0  0  0  0  0  0  0  0  0
    6.2619   -0.6970    0.0000 C   0  0  0  0  0  0  0  0  0  0  0  0
    3.7320    1.5350    0.0000 C   0  0  0  0  0  0  0  0  0  0  0  0
    3.7320    0.5350    0.0000 C   0  0  0  0  0  0  0  0  0  0  0  0
    4.6783    0.2303    0.0000 C   0  0  0  0  0  0  0  0  0  0  0  0
    2.8660    2.0350    0.0000 C   0  0  0  0  0  0  0  0  0  0  0  0
    2.8660    0.0350    0.0000 C   0  0  0  0  0  0  0  0  0  0  0  0
    2.0000    1.5350    0.0000 C   0  0  0  0  0  0  0  0  0  0  0  0
    2.0000    0.5350    0.0000 C   0  0  0  0  0  0  0  0  0  0  0  0
   10.7564   -0.3465    0.0000 H   0  0  0  0  0  0  0  0  0  0  0  0
   11.3730    0.2087    0.0000 H   0  0  0  0  0  0  0  0  0  0  0  0
    8.9907    1.5841    0.0000 H   0  0  0  0  0  0  0  0  0  0  0  0
    8.8182    0.7725    0.0000 H   0  0  0  0  0  0  0  0  0  0  0  0
   11.5540    1.0601    0.0000 H   0  0  0  0  0  0  0  0  0  0  0  0
   11.2165    1.8181    0.0000 H   0  0  0  0  0  0  0  0  0  0  0  0
   10.4627    2.2533    0.0000 H   0  0  0  0  0  0  0  0  0  0  0  0
    9.6375    2.1665    0.0000 H   0  0  0  0  0  0  0  0  0  0  0  0
    8.3445    0.3811    0.0000 H   0  0  0  0  0  0  0  0  0  0  0  0
    7.6542    0.7796    0.0000 H   0  0  0  0  0  0  0  0  0  0  0  0
   10.3819   -1.5630    0.0000 H   0  0  0  0  0  0  0  0  0  0  0  0
    7.1419   -1.5630    0.0000 H   0  0  0  0  0  0  0  0  0  0  0  0
    9.5719   -2.9660    0.0000 H   0  0  0  0  0  0  0  0  0  0  0  0
    7.9519   -2.9660    0.0000 H   0  0  0  0  0  0  0  0  0  0  0  0
    5.7249   -0.3870    0.0000 H   0  0  0  0  0  0  0  0  0  0  0  0
    5.9519   -1.2340    0.0000 H   0  0  0  0  0  0  0  0  0  0  0  0
    6.7988   -1.0070    0.0000 H   0  0  0  0  0  0  0  0  0  0  0  0
    4.8709    2.4291    0.0000 H   0  0  0  0  0  0  0  0  0  0  0  0
    4.8709   -0.3590    0.0000 H   0  0  0  0  0  0  0  0  0  0  0  0
    2.8660    2.6550    0.0000 H   0  0  0  0  0  0  0  0  0  0  0  0
    2.8660   -0.5850    0.0000 H   0  0  0  0  0  0  0  0  0  0  0  0
    1.4631    1.8450    0.0000 H   0  0  0  0  0  0  0  0  0  0  0  0
    1.4631    0.2250    0.0000 H   0  0  0  0  0  0  0  0  0  0  0  0
  1 16  2  0  0  0  0
  2  5  1  0  0  0  0
  2  6  1  0  0  0  0
  2  9  1  0  0  0  0
  3 11  1  0  0  0  0
  3 16  1  0  0  0  0
  3 18  1  0  0  0  0
  4 17  1  0  0  0  0
  4 19  1  0  0  0  0
  4 43  1  0  0  0  0
  5  7  1  0  0  0  0
  5 28  1  0  0  0  0
  5 29  1  0  0  0  0
  6  8  1  0  0  0  0
  6 26  1  0  0  0  0
  6 27  1  0  0  0  0
  7  8  1  0  0  0  0
  7 32  1  0  0  0  0
  7 33  1  0  0  0  0
  8 30  1  0  0  0  0
  8 31  1  0  0  0  0
  9 10  1  0  0  0  0
  9 12  2  0  0  0  0
 10 11  1  0  0  0  0
 10 13  2  0  0  0  0
 11 34  1  0  0  0  0
 11 35  1  0  0  0  0
 12 14  1  0  0  0  0
 12 36  1  0  0  0  0
 13 15  1  0  0  0  0
 13 37  1  0  0  0  0
 14 15  2  0  0  0  0
 14 38  1  0  0  0  0
 15 39  1  0  0  0  0
 16 17  1  0  0  0  0
 17 21  2  0  0  0  0
 18 40  1  0  0  0  0
 18 41  1  0  0  0  0
 18 42  1  0  0  0  0
 19 20  1  0  0  0  0
 19 22  2  0  0  0  0
 20 21  1  0  0  0  0
 20 23  2  0  0  0  0
 21 44  1  0  0  0  0
 22 24  1  0  0  0  0
 22 45  1  0  0  0  0
 23 25  1  0  0  0  0
 23 46  1  0  0  0  0
 24 25  2  0  0  0  0
 24 47  1  0  0  0  0
 25 48  1  0  0  0  0
M  END
> <PUBCHEM_COMPOUND_CID>
17396116

> <PUBCHEM_COMPOUND_CANONICALIZED>
1

> <PUBCHEM_CACTVS_COMPLEXITY>
462

> <PUBCHEM_CACTVS_HBOND_ACCEPTOR>
2

> <PUBCHEM_CACTVS_HBOND_DONOR>
1

> <PUBCHEM_CACTVS_ROTATABLE_BOND>
4

> <PUBCHEM_CACTVS_SUBSKEYS>
AAADceB7IAAAAAAAAAAAAAAAAAAAAWLAAAAwYAAAAAAAAFgB9AAAHgAQAAAADAjBngQywPPJkACoAyVyVACCgCAnAiAImSG4ZNgIYPLA1bGUIQhglgDIyYcYiYCeAAAAAAACAAAAAAAAAAQAAAAAAAAAAA==

> <PUBCHEM_IUPAC_OPENEYE_NAME>
N-methyl-N-[(2-pyrrolidin-1-ylphenyl)methyl]-1H-indole-2-carboxamide

> <PUBCHEM_IUPAC_CAS_NAME>
N-methyl-N-[[2-(1-pyrrolidinyl)phenyl]methyl]-1H-indole-2-carboxamide

> <PUBCHEM_IUPAC_NAME>
N-methyl-N-[(2-pyrrolidin-1-ylphenyl)methyl]-1H-indole-2-carboxamide

> <PUBCHEM_IUPAC_SYSTEMATIC_NAME>
N-methyl-N-[(2-pyrrolidin-1-ylphenyl)methyl]-1H-indole-2-carboxamide

> <PUBCHEM_IUPAC_TRADITIONAL_NAME>
N-methyl-N-(2-pyrrolidinobenzyl)-1H-indole-2-carboxamide

> <PUBCHEM_IUPAC_INCHI>
InChI=1S/C21H23N3O/c1-23(21(25)19-14-16-8-2-4-10-18(16)22-19)15-17-9-3-5-11-20(17)24-12-6-7-13-24/h2-5,8-11,14,22H,6-7,12-13,15H2,1H3

> <PUBCHEM_IUPAC_INCHIKEY>
RXVDQLKTOLMOSU-UHFFFAOYSA-N

> <PUBCHEM_XLOGP3_AA>
3.9

> <PUBCHEM_EXACT_MASS>
333.184112

> <PUBCHEM_MOLECULAR_FORMULA>
C21H23N3O

> <PUBCHEM_MOLECULAR_WEIGHT>
333.42682

> <PUBCHEM_OPENEYE_CAN_SMILES>
CN(CC1=CC=CC=C1N2CCCC2)C(=O)C3=CC4=CC=CC=C4N3

> <PUBCHEM_OPENEYE_ISO_SMILES>
CN(CC1=CC=CC=C1N2CCCC2)C(=O)C3=CC4=CC=CC=C4N3

> <PUBCHEM_CACTVS_TPSA>
39.3

> <PUBCHEM_MONOISOTOPIC_WEIGHT>
333.184112

> <PUBCHEM_TOTAL_CHARGE>
0

> <PUBCHEM_HEAVY_ATOM_COUNT>
25

> <PUBCHEM_ATOM_DEF_STEREO_COUNT>
0

> <PUBCHEM_ATOM_UDEF_STEREO_COUNT>
0

> <PUBCHEM_BOND_DEF_STEREO_COUNT>
0

> <PUBCHEM_BOND_UDEF_STEREO_COUNT>
0

> <PUBCHEM_ISOTOPIC_ATOM_COUNT>
0

> <PUBCHEM_COMPONENT_COUNT>
1

> <PUBCHEM_CACTVS_TAUTO_COUNT>
6

> <PUBCHEM_COORDINATE_TYPE>
1
5
255

> <PUBCHEM_BONDANNOTATIONS>
10  13  8
12  14  8
13  15  8
14  15  8
17  21  8
19  20  8
19  22  8
20  21  8
20  23  8
22  24  8
23  25  8
24  25  8
4  17  8
4  19  8
9  10  8
9  12  8

$$$$

