7161
  -OEChem-06261201502D

 31 31  0     0  0  0  0  0  0999 V2000
    2.0000   -1.5000    0.0000 Cl  0  0  0  0  0  0  0  0  0  0  0  0
    5.4641   -3.5000    0.0000 Cl  0  0  0  0  0  0  0  0  0  0  0  0
    3.7320   -4.5000    0.0000 Cl  0  0  0  0  0  0  0  0  0  0  0  0
    5.4641    1.5000    0.0000 O   0  0  0  0  0  0  0  0  0  0  0  0
    3.7320   -0.5000    0.0000 O   0  0  0  0  0  0  0  0  0  0  0  0
    3.7320    1.5000    0.0000 O   0  0  0  0  0  0  0  0  0  0  0  0
    6.3301    3.0000    0.0000 C   0  0  0  0  0  0  0  0  0  0  0  0
    6.3301    4.0000    0.0000 C   0  0  0  0  0  0  0  0  0  0  0  0
    5.4641    2.5000    0.0000 C   0  0  0  0  0  0  0  0  0  0  0  0
    7.1962    4.5000    0.0000 C   0  0  0  0  0  0  0  0  0  0  0  0
    4.5981    0.0000    0.0000 C   0  0  0  0  0  0  0  0  0  0  0  0
    4.5981    1.0000    0.0000 C   0  0  0  0  0  0  0  0  0  0  0  0
    3.7320   -1.5000    0.0000 C   0  0  0  0  0  0  0  0  0  0  0  0
    2.8660   -2.0000    0.0000 C   0  0  0  0  0  0  0  0  0  0  0  0
    4.5981   -2.0000    0.0000 C   0  0  0  0  0  0  0  0  0  0  0  0
    4.5981   -3.0000    0.0000 C   0  0  0  0  0  0  0  0  0  0  0  0
    2.8660   -3.0000    0.0000 C   0  0  0  0  0  0  0  0  0  0  0  0
    3.7320   -3.5000    0.0000 C   0  0  0  0  0  0  0  0  0  0  0  0
    6.5422    2.4174    0.0000 H   0  0  0  0  0  0  0  0  0  0  0  0
    6.9407    3.1077    0.0000 H   0  0  0  0  0  0  0  0  0  0  0  0
    6.1181    4.5826    0.0000 H   0  0  0  0  0  0  0  0  0  0  0  0
    5.7196    3.8923    0.0000 H   0  0  0  0  0  0  0  0  0  0  0  0
    5.2520    3.0826    0.0000 H   0  0  0  0  0  0  0  0  0  0  0  0
    4.8535    2.3923    0.0000 H   0  0  0  0  0  0  0  0  0  0  0  0
    7.5062    3.9631    0.0000 H   0  0  0  0  0  0  0  0  0  0  0  0
    7.7331    4.8100    0.0000 H   0  0  0  0  0  0  0  0  0  0  0  0
    6.8862    5.0369    0.0000 H   0  0  0  0  0  0  0  0  0  0  0  0
    4.8101   -0.5826    0.0000 H   0  0  0  0  0  0  0  0  0  0  0  0
    5.2087    0.1077    0.0000 H   0  0  0  0  0  0  0  0  0  0  0  0
    5.1350   -1.6900    0.0000 H   0  0  0  0  0  0  0  0  0  0  0  0
    2.3291   -3.3100    0.0000 H   0  0  0  0  0  0  0  0  0  0  0  0
  1 14  1  0  0  0  0
  2 16  1  0  0  0  0
  3 18  1  0  0  0  0
  4  9  1  0  0  0  0
  4 12  1  0  0  0  0
  5 11  1  0  0  0  0
  5 13  1  0  0  0  0
  6 12  2  0  0  0  0
  7  8  1  0  0  0  0
  7  9  1  0  0  0  0
  7 19  1  0  0  0  0
  7 20  1  0  0  0  0
  8 10  1  0  0  0  0
  8 21  1  0  0  0  0
  8 22  1  0  0  0  0
  9 23  1  0  0  0  0
  9 24  1  0  0  0  0
 10 25  1  0  0  0  0
 10 26  1  0  0  0  0
 10 27  1  0  0  0  0
 11 12  1  0  0  0  0
 11 28  1  0  0  0  0
 11 29  1  0  0  0  0
 13 14  1  0  0  0  0
 13 15  2  0  0  0  0
 14 17  2  0  0  0  0
 15 16  1  0  0  0  0
 15 30  1  0  0  0  0
 16 18  2  0  0  0  0
 17 18  1  0  0  0  0
 17 31  1  0  0  0  0
M  END
> <PUBCHEM_COMPOUND_CID>
7161

> <PUBCHEM_COMPOUND_CANONICALIZED>
1

> <PUBCHEM_CACTVS_COMPLEXITY>
263

> <PUBCHEM_CACTVS_HBOND_ACCEPTOR>
3

> <PUBCHEM_CACTVS_HBOND_DONOR>
0

> <PUBCHEM_CACTVS_ROTATABLE_BOND>
7

> <PUBCHEM_CACTVS_SUBSKEYS>
AAADccBwMAAGAAAAAAAAAAAAAAAAAAAAAAAwAAAAAAAAAAABAAAAGgIAAAAACAagkCIyDoAABACIACDSCAICCAAgJUAAikBGC4gNJiOFMh6COCCkwBEKqAeAQAAAACAQAQCACAQAQCACAQAQCAAAAAAAAA==

> <PUBCHEM_IUPAC_OPENEYE_NAME>
butyl 2-(2,4,5-trichlorophenoxy)acetate

> <PUBCHEM_IUPAC_CAS_NAME>
2-(2,4,5-trichlorophenoxy)acetic acid butyl ester

> <PUBCHEM_IUPAC_NAME>
butyl 2-(2,4,5-trichlorophenoxy)acetate

> <PUBCHEM_IUPAC_SYSTEMATIC_NAME>
butyl 2-[2,4,5-tris(chloranyl)phenoxy]ethanoate

> <PUBCHEM_IUPAC_TRADITIONAL_NAME>
2-(2,4,5-trichlorophenoxy)acetic acid butyl ester

> <PUBCHEM_IUPAC_INCHI>
InChI=1S/C12H13Cl3O3/c1-2-3-4-17-12(16)7-18-11-6-9(14)8(13)5-10(11)15/h5-6H,2-4,7H2,1H3

> <PUBCHEM_IUPAC_INCHIKEY>
FNEXNZUHBCBQTI-UHFFFAOYSA-N

> <PUBCHEM_XLOGP3>
4.9

> <PUBCHEM_EXACT_MASS>
309.993027

> <PUBCHEM_MOLECULAR_FORMULA>
C12H13Cl3O3

> <PUBCHEM_MOLECULAR_WEIGHT>
311.58882

> <PUBCHEM_OPENEYE_CAN_SMILES>
CCCCOC(=O)COC1=CC(=C(C=C1Cl)Cl)Cl

> <PUBCHEM_OPENEYE_ISO_SMILES>
CCCCOC(=O)COC1=CC(=C(C=C1Cl)Cl)Cl

> <PUBCHEM_CACTVS_TPSA>
35.5

> <PUBCHEM_MONOISOTOPIC_WEIGHT>
309.993027

> <PUBCHEM_TOTAL_CHARGE>
0

> <PUBCHEM_HEAVY_ATOM_COUNT>
18

> <PUBCHEM_ATOM_DEF_STEREO_COUNT>
0

> <PUBCHEM_ATOM_UDEF_STEREO_COUNT>
0

> <PUBCHEM_BOND_DEF_STEREO_COUNT>
0

> <PUBCHEM_BOND_UDEF_STEREO_COUNT>
0

> <PUBCHEM_ISOTOPIC_ATOM_COUNT>
0

> <PUBCHEM_COMPONENT_COUNT>
1

> <PUBCHEM_CACTVS_TAUTO_COUNT>
1

> <PUBCHEM_COORDINATE_TYPE>
1
5
255

> <PUBCHEM_BONDANNOTATIONS>
13  14  8
13  15  8
14  17  8
15  16  8
16  18  8
17  18  8

$$$$

