17396067
  -OEChem-06241222542D

 56 59  0     1  0  0  0  0  0999 V2000
    8.0524    1.2842    0.0000 S   0  0  0  0  0  0  0  0  0  0  0  0
    6.5661   -0.0540    0.0000 O   0  0  0  0  0  0  0  0  0  0  0  0
    2.8660   -0.3546    0.0000 O   0  0  0  0  0  0  0  0  0  0  0  0
    6.3301   -2.3546    0.0000 O   0  0  0  0  0  0  0  0  0  0  0  0
    5.4071    1.2332    0.0000 N   0  0  0  0  0  0  0  0  0  0  0  0
    9.7736    1.7455    0.0000 N   0  0  0  0  0  0  0  0  0  0  0  0
   10.2736    2.6115    0.0000 N   0  0  0  0  0  0  0  0  0  0  0  0
    8.6910    2.9479    0.0000 N   0  0  0  0  0  0  0  0  0  0  0  0
    9.6045    3.3546    0.0000 N   0  0  0  0  0  0  0  0  0  0  0  0
   10.1804    0.8319    0.0000 C   0  0  0  0  0  0  0  0  0  0  0  0
    4.5981    0.6454    0.0000 C   0  0  3  0  0  0  0  0  0  0  0  0
    9.6804   -0.0341    0.0000 C   0  0  0  0  0  0  0  0  0  0  0  0
   11.1585    0.6240    0.0000 C   0  0  0  0  0  0  0  0  0  0  0  0
   11.2631   -0.3705    0.0000 C   0  0  0  0  0  0  0  0  0  0  0  0
   10.3495   -0.7772    0.0000 C   0  0  0  0  0  0  0  0  0  0  0  0
    3.7891    1.2332    0.0000 C   0  0  0  0  0  0  0  0  0  0  0  0
    4.0981    2.1842    0.0000 C   0  0  0  0  0  0  0  0  0  0  0  0
    5.0981    2.1842    0.0000 C   0  0  0  0  0  0  0  0  0  0  0  0
    4.5981   -0.3546    0.0000 C   0  0  0  0  0  0  0  0  0  0  0  0
    6.3582    0.9241    0.0000 C   0  0  0  0  0  0  0  0  0  0  0  0
    8.7955    1.9534    0.0000 C   0  0  0  0  0  0  0  0  0  0  0  0
    7.1013    1.5933    0.0000 C   0  0  0  0  0  0  0  0  0  0  0  0
    3.7320   -0.8546    0.0000 C   0  0  0  0  0  0  0  0  0  0  0  0
    5.4641   -0.8546    0.0000 C   0  0  0  0  0  0  0  0  0  0  0  0
    5.4641   -1.8546    0.0000 C   0  0  0  0  0  0  0  0  0  0  0  0
    3.7320   -1.8546    0.0000 C   0  0  0  0  0  0  0  0  0  0  0  0
    4.5981   -2.3546    0.0000 C   0  0  0  0  0  0  0  0  0  0  0  0
    2.0000   -0.8546    0.0000 C   0  0  0  0  0  0  0  0  0  0  0  0
    6.3301   -3.3546    0.0000 C   0  0  0  0  0  0  0  0  0  0  0  0
    9.5612    0.8644    0.0000 H   0  0  0  0  0  0  0  0  0  0  0  0
    5.1505    0.3639    0.0000 H   0  0  0  0  0  0  0  0  0  0  0  0
    9.1788    0.3303    0.0000 H   0  0  0  0  0  0  0  0  0  0  0  0
    9.2655   -0.4949    0.0000 H   0  0  0  0  0  0  0  0  0  0  0  0
   11.7785    0.6240    0.0000 H   0  0  0  0  0  0  0  0  0  0  0  0
   11.2233    1.2406    0.0000 H   0  0  0  0  0  0  0  0  0  0  0  0
    9.8479   -1.1417    0.0000 H   0  0  0  0  0  0  0  0  0  0  0  0
   11.4546   -0.9602    0.0000 H   0  0  0  0  0  0  0  0  0  0  0  0
   11.8695   -0.2416    0.0000 H   0  0  0  0  0  0  0  0  0  0  0  0
   10.6595   -1.3142    0.0000 H   0  0  0  0  0  0  0  0  0  0  0  0
    3.2227    1.4853    0.0000 H   0  0  0  0  0  0  0  0  0  0  0  0
    3.4791    0.6962    0.0000 H   0  0  0  0  0  0  0  0  0  0  0  0
    4.1629    2.8008    0.0000 H   0  0  0  0  0  0  0  0  0  0  0  0
    3.4916    2.3131    0.0000 H   0  0  0  0  0  0  0  0  0  0  0  0
    5.7045    2.3131    0.0000 H   0  0  0  0  0  0  0  0  0  0  0  0
    5.0333    2.8008    0.0000 H   0  0  0  0  0  0  0  0  0  0  0  0
    7.3924    2.1407    0.0000 H   0  0  0  0  0  0  0  0  0  0  0  0
    6.6127    1.9750    0.0000 H   0  0  0  0  0  0  0  0  0  0  0  0
    6.0010   -0.5446    0.0000 H   0  0  0  0  0  0  0  0  0  0  0  0
    3.1951   -2.1646    0.0000 H   0  0  0  0  0  0  0  0  0  0  0  0
    4.5981   -2.9746    0.0000 H   0  0  0  0  0  0  0  0  0  0  0  0
    1.6900   -0.3177    0.0000 H   0  0  0  0  0  0  0  0  0  0  0  0
    1.4631   -1.1646    0.0000 H   0  0  0  0  0  0  0  0  0  0  0  0
    2.3100   -1.3916    0.0000 H   0  0  0  0  0  0  0  0  0  0  0  0
    5.7101   -3.3546    0.0000 H   0  0  0  0  0  0  0  0  0  0  0  0
    6.3301   -3.9746    0.0000 H   0  0  0  0  0  0  0  0  0  0  0  0
    6.9501   -3.3546    0.0000 H   0  0  0  0  0  0  0  0  0  0  0  0
  1 21  1  0  0  0  0
  1 22  1  0  0  0  0
  2 20  2  0  0  0  0
  3 23  1  0  0  0  0
  3 28  1  0  0  0  0
  4 25  1  0  0  0  0
  4 29  1  0  0  0  0
  5 11  1  0  0  0  0
  5 18  1  0  0  0  0
  5 20  1  0  0  0  0
  6  7  1  0  0  0  0
  6 10  1  0  0  0  0
  6 21  1  0  0  0  0
  7  9  2  0  0  0  0
  8  9  1  0  0  0  0
  8 21  2  0  0  0  0
 10 12  1  0  0  0  0
 10 13  1  0  0  0  0
 10 30  1  0  0  0  0
 11 16  1  0  0  0  0
 11 19  1  0  0  0  0
 11 31  1  0  0  0  0
 12 15  1  0  0  0  0
 12 32  1  0  0  0  0
 12 33  1  0  0  0  0
 13 14  1  0  0  0  0
 13 34  1  0  0  0  0
 13 35  1  0  0  0  0
 14 15  1  0  0  0  0
 14 37  1  0  0  0  0
 14 38  1  0  0  0  0
 15 36  1  0  0  0  0
 15 39  1  0  0  0  0
 16 17  1  0  0  0  0
 16 40  1  0  0  0  0
 16 41  1  0  0  0  0
 17 18  1  0  0  0  0
 17 42  1  0  0  0  0
 17 43  1  0  0  0  0
 18 44  1  0  0  0  0
 18 45  1  0  0  0  0
 19 23  2  0  0  0  0
 19 24  1  0  0  0  0
 20 22  1  0  0  0  0
 22 46  1  0  0  0  0
 22 47  1  0  0  0  0
 23 26  1  0  0  0  0
 24 25  2  0  0  0  0
 24 48  1  0  0  0  0
 25 27  1  0  0  0  0
 26 27  2  0  0  0  0
 26 49  1  0  0  0  0
 27 50  1  0  0  0  0
 28 51  1  0  0  0  0
 28 52  1  0  0  0  0
 28 53  1  0  0  0  0
 29 54  1  0  0  0  0
 29 55  1  0  0  0  0
 29 56  1  0  0  0  0
M  END
> <PUBCHEM_COMPOUND_CID>
17396067

> <PUBCHEM_COMPOUND_CANONICALIZED>
1

> <PUBCHEM_CACTVS_COMPLEXITY>
550

> <PUBCHEM_CACTVS_HBOND_ACCEPTOR>
7

> <PUBCHEM_CACTVS_HBOND_DONOR>
0

> <PUBCHEM_CACTVS_ROTATABLE_BOND>
7

> <PUBCHEM_CACTVS_SUBSKEYS>
AAADceB7sABAAAAAAAAAAAAAAAAAAeLEAAAwAAAAAAAAAAABwAAAHgQIAAAADCzF2AazFocIBAiqAiFSNACCGANgoJAdyAAODIiMJiKEuRuEMChmxhOIqAfwwLAOAQABAAAIAAACAAIAABAAAAAAAAAAAA==

> <PUBCHEM_IUPAC_OPENEYE_NAME>
2-(1-cyclopentyltetrazol-5-yl)sulfanyl-1-[2-(2,5-dimethoxyphenyl)pyrrolidin-1-yl]ethanone

> <PUBCHEM_IUPAC_CAS_NAME>
2-[(1-cyclopentyl-5-tetrazolyl)thio]-1-[2-(2,5-dimethoxyphenyl)-1-pyrrolidinyl]ethanone

> <PUBCHEM_IUPAC_NAME>
2-(1-cyclopentyltetrazol-5-yl)sulfanyl-1-[2-(2,5-dimethoxyphenyl)pyrrolidin-1-yl]ethanone

> <PUBCHEM_IUPAC_SYSTEMATIC_NAME>
2-[(1-cyclopentyl-1,2,3,4-tetrazol-5-yl)sulfanyl]-1-[2-(2,5-dimethoxyphenyl)pyrrolidin-1-yl]ethanone

> <PUBCHEM_IUPAC_TRADITIONAL_NAME>
2-[(1-cyclopentyltetrazol-5-yl)thio]-1-[2-(2,5-dimethoxyphenyl)pyrrolidino]ethanone

> <PUBCHEM_IUPAC_INCHI>
InChI=1S/C20H27N5O3S/c1-27-15-9-10-18(28-2)16(12-15)17-8-5-11-24(17)19(26)13-29-20-21-22-23-25(20)14-6-3-4-7-14/h9-10,12,14,17H,3-8,11,13H2,1-2H3

> <PUBCHEM_IUPAC_INCHIKEY>
WJVZPWCHBCWPMJ-UHFFFAOYSA-N

> <PUBCHEM_XLOGP3_AA>
3.1

> <PUBCHEM_EXACT_MASS>
417.183461

> <PUBCHEM_MOLECULAR_FORMULA>
C20H27N5O3S

> <PUBCHEM_MOLECULAR_WEIGHT>
417.52508

> <PUBCHEM_OPENEYE_CAN_SMILES>
COC1=CC(=C(C=C1)OC)C2CCCN2C(=O)CSC3=NN=NN3C4CCCC4

> <PUBCHEM_OPENEYE_ISO_SMILES>
COC1=CC(=C(C=C1)OC)C2CCCN2C(=O)CSC3=NN=NN3C4CCCC4

> <PUBCHEM_CACTVS_TPSA>
108

> <PUBCHEM_MONOISOTOPIC_WEIGHT>
417.183461

> <PUBCHEM_TOTAL_CHARGE>
0

> <PUBCHEM_HEAVY_ATOM_COUNT>
29

> <PUBCHEM_ATOM_DEF_STEREO_COUNT>
0

> <PUBCHEM_ATOM_UDEF_STEREO_COUNT>
1

> <PUBCHEM_BOND_DEF_STEREO_COUNT>
0

> <PUBCHEM_BOND_UDEF_STEREO_COUNT>
0

> <PUBCHEM_ISOTOPIC_ATOM_COUNT>
0

> <PUBCHEM_COMPONENT_COUNT>
1

> <PUBCHEM_CACTVS_TAUTO_COUNT>
1

> <PUBCHEM_COORDINATE_TYPE>
1
5
255

> <PUBCHEM_BONDANNOTATIONS>
11  19  3
19  23  8
19  24  8
23  26  8
24  25  8
25  27  8
26  27  8
6  21  8
6  7  8
7  9  8
8  21  8
8  9  8

$$$$

