17395853
  -OEChem-06241222523D

 43 45  0     0  0  0  0  0  0999 V2000
    3.4643   -0.5795   -1.4218 S   0  0  0  0  0  0  0  0  0  0  0  0
    3.8292    2.1613   -0.3852 S   0  0  0  0  0  0  0  0  0  0  0  0
    3.5537    0.0944   -2.7025 O   0  0  0  0  0  0  0  0  0  0  0  0
    4.1092   -1.8582   -1.1959 O   0  0  0  0  0  0  0  0  0  0  0  0
   -2.0605   -0.8703    1.1208 N   0  0  0  0  0  0  0  0  0  0  0  0
   -2.0983   -2.1288    0.6510 N   0  0  0  0  0  0  0  0  0  0  0  0
    1.8025   -0.6710   -0.9596 N   0  0  0  0  0  0  0  0  0  0  0  0
    0.0186   -1.2732    0.5861 C   0  0  0  0  0  0  0  0  0  0  0  0
   -0.8159   -0.3125    1.1032 C   0  0  0  0  0  0  0  0  0  0  0  0
    1.4708   -1.1743    0.3567 C   0  0  0  0  0  0  0  0  0  0  0  0
   -0.8253   -2.3694    0.3258 C   0  0  0  0  0  0  0  0  0  0  0  0
   -3.3014   -0.2424    1.5868 C   0  0  0  0  0  0  0  0  0  0  0  0
   -0.5476    1.0602    1.5731 C   0  0  0  0  0  0  0  0  0  0  0  0
   -4.0065    0.4785    0.4879 C   0  0  0  0  0  0  0  0  0  0  0  0
   -0.4562   -3.6803   -0.2377 C   0  0  0  0  0  0  0  0  0  0  0  0
    4.2698    0.5120   -0.2500 C   0  0  0  0  0  0  0  0  0  0  0  0
   -4.9467   -0.1914   -0.2950 C   0  0  0  0  0  0  0  0  0  0  0  0
   -3.7261    1.8230    0.2432 C   0  0  0  0  0  0  0  0  0  0  0  0
   -5.6064    0.4828   -1.3225 C   0  0  0  0  0  0  0  0  0  0  0  0
   -4.3859    2.4971   -0.7845 C   0  0  0  0  0  0  0  0  0  0  0  0
    5.1868    0.3028    0.7566 C   0  0  0  0  0  0  0  0  0  0  0  0
   -5.3261    1.8269   -1.5673 C   0  0  0  0  0  0  0  0  0  0  0  0
    5.5320    1.5124    1.4257 C   0  0  0  0  0  0  0  0  0  0  0  0
    4.8660    2.5999    0.9050 C   0  0  0  0  0  0  0  0  0  0  0  0
    1.9132   -0.5207    1.1163 H   0  0  0  0  0  0  0  0  0  0  0  0
    1.9282   -2.1614    0.4914 H   0  0  0  0  0  0  0  0  0  0  0  0
   -3.0697    0.4185    2.4274 H   0  0  0  0  0  0  0  0  0  0  0  0
   -3.9294   -1.0421    2.0001 H   0  0  0  0  0  0  0  0  0  0  0  0
    0.5087    1.1838    1.8345 H   0  0  0  0  0  0  0  0  0  0  0  0
   -1.1164    1.3214    2.4689 H   0  0  0  0  0  0  0  0  0  0  0  0
   -0.7671    1.7856    0.7846 H   0  0  0  0  0  0  0  0  0  0  0  0
    1.2445    0.1478   -1.2383 H   0  0  0  0  0  0  0  0  0  0  0  0
    0.1694   -4.2369    0.4676 H   0  0  0  0  0  0  0  0  0  0  0  0
   -1.3374   -4.2915   -0.4597 H   0  0  0  0  0  0  0  0  0  0  0  0
    0.1049   -3.5563   -1.1697 H   0  0  0  0  0  0  0  0  0  0  0  0
   -5.1741   -1.2389   -0.1155 H   0  0  0  0  0  0  0  0  0  0  0  0
   -3.0154    2.3682    0.8559 H   0  0  0  0  0  0  0  0  0  0  0  0
    5.5921   -0.6696    1.0047 H   0  0  0  0  0  0  0  0  0  0  0  0
   -6.3385   -0.0389   -1.9321 H   0  0  0  0  0  0  0  0  0  0  0  0
   -4.1717    3.5452   -0.9717 H   0  0  0  0  0  0  0  0  0  0  0  0
   -5.8407    2.3523   -2.3665 H   0  0  0  0  0  0  0  0  0  0  0  0
    6.2330    1.5813    2.2473 H   0  0  0  0  0  0  0  0  0  0  0  0
    4.9384    3.6311    1.2207 H   0  0  0  0  0  0  0  0  0  0  0  0
  1  3  2  0  0  0  0
  1  4  2  0  0  0  0
  1  7  1  0  0  0  0
  1 16  1  0  0  0  0
  2 16  1  0  0  0  0
  2 24  1  0  0  0  0
  5  6  1  0  0  0  0
  5  9  1  0  0  0  0
  5 12  1  0  0  0  0
  6 11  2  0  0  0  0
  7 10  1  0  0  0  0
  7 32  1  0  0  0  0
  8  9  2  0  0  0  0
  8 10  1  0  0  0  0
  8 11  1  0  0  0  0
  9 13  1  0  0  0  0
 10 25  1  0  0  0  0
 10 26  1  0  0  0  0
 11 15  1  0  0  0  0
 12 14  1  0  0  0  0
 12 27  1  0  0  0  0
 12 28  1  0  0  0  0
 13 29  1  0  0  0  0
 13 30  1  0  0  0  0
 13 31  1  0  0  0  0
 14 17  2  0  0  0  0
 14 18  1  0  0  0  0
 15 33  1  0  0  0  0
 15 34  1  0  0  0  0
 15 35  1  0  0  0  0
 16 21  2  0  0  0  0
 17 19  1  0  0  0  0
 17 36  1  0  0  0  0
 18 20  2  0  0  0  0
 18 37  1  0  0  0  0
 19 22  2  0  0  0  0
 19 39  1  0  0  0  0
 20 22  1  0  0  0  0
 20 40  1  0  0  0  0
 21 23  1  0  0  0  0
 21 38  1  0  0  0  0
 22 41  1  0  0  0  0
 23 24  2  0  0  0  0
 23 42  1  0  0  0  0
 24 43  1  0  0  0  0
M  END
> <PUBCHEM_COMPOUND_CID>
17395853

> <PUBCHEM_CONFORMER_RMSD>
0.8

> <PUBCHEM_CONFORMER_DIVERSEORDER>
1
257
251
249
360
326
267
284
135
378
82
406
205
298
52
374
345
35
311
116
146
222
395
389
240
350
415
417
355
89
175
23
409
78
129
292
215
307
219
387
128
105
319
137
263
49
176
404
60
138
405
201
250
287
281
106
9
39
274
385
357
4
397
63
178
346
86
165
289
228
155
331
171
233
353
14
285
161
304
317
127
44
366
342
38
361
370
154
408
265
109
297
383
279
77
424
344
61
132
239
282
191
334
398
229
212
166
185
131
67
157
16
277
2
372
188
336
402
51
193
113
258
81
343
93
348
184
115
264
321
136
386
259
167
401
183
309
28
411
24
330
266
72
414
379
234
36
69
34
197
187
232
130
74
413
252
20
198
85
3
327
209
310
371
25
407
48
220
153
418
142
256
400
362
248
216
88
302
341
322
351
269
364
203
10
71
236
111
296
84
243
87
150
335
102
301
275
421
202
377
8
394
241
376
126
117
218
41
158
382
381
365
246
194
37
174
253
416
59
145
280
375
390
121
262
30
32
76
186
314
295
392
140
237
332
272
422
96
403
17
347
204
273
134
325
99
305
337
110
299
271
95
192
177
278
308
43
151
338
303
173
180
373
179
112
261
139
300
320
224
419
358
66
380
206
22
13
214
199
195
114
396
313
122
143
268
276
247
349
79
40
45
333
189
148
328
290
55
293
162
225
70
108
369
323
217
242
420
410
12
190
270
423
363
196
62
53
291
91
339
104
393
306
213
125
92
367
169
47
19
58
260
235
80
168
329
356
207
98
164
144
388
160
124
94
119
227
123
210
391
133
211
359
11
97
244
316
156
340
354
399
64
238
149
141
50
315
245
26
118
283
170
75
65
208
54
182
412
103
318
100
312
200
221
384
73
231
226
31
83
286
18
57
147
15
152
101
42
181
56
159
254
68
223
288
324
7
352
163
5
294
230
107
172
46
255
29
90
21
6
33
368
27
120

> <PUBCHEM_MMFF94_PARTIAL_CHARGES>
33
1 1.5
10 0.54
11 0.11
12 0.4
13 0.18
14 -0.14
15 0.18
16 -0.02
17 -0.15
18 -0.15
19 -0.15
2 -0.08
20 -0.15
21 -0.15
22 -0.15
23 -0.15
24 -0.11
3 -0.65
32 0.42
36 0.15
37 0.15
38 0.15
39 0.15
4 -0.65
40 0.15
41 0.15
42 0.15
43 0.15
5 0.31
6 -0.71
7 -0.91
8 -0.18
9 -0.33

> <PUBCHEM_EFFECTIVE_ROTOR_COUNT>
6

> <PUBCHEM_PHARMACOPHORE_FEATURES>
7
1 3 acceptor
1 4 acceptor
1 6 acceptor
1 7 donor
5 2 16 21 23 24 rings
5 5 6 8 9 11 rings
6 14 17 18 19 20 22 rings

> <PUBCHEM_HEAVY_ATOM_COUNT>
24

> <PUBCHEM_ATOM_DEF_STEREO_COUNT>
0

> <PUBCHEM_ATOM_UDEF_STEREO_COUNT>
0

> <PUBCHEM_BOND_DEF_STEREO_COUNT>
0

> <PUBCHEM_BOND_UDEF_STEREO_COUNT>
0

> <PUBCHEM_ISOTOPIC_ATOM_COUNT>
0

> <PUBCHEM_COMPONENT_COUNT>
1

> <PUBCHEM_CACTVS_TAUTO_COUNT>
1

> <PUBCHEM_CONFORMER_ID>
0109708D00000001

> <PUBCHEM_MMFF94_ENERGY>
34.3392

> <PUBCHEM_FEATURE_SELFOVERLAP>
35.537

> <PUBCHEM_SHAPE_FINGERPRINT>
10042902 136 6554827114560627109
105312 117 18343587339210493423
10928967 22 6843913941366310077
11089746 13 18341615953506183754
11961588 58 18337966618483964459
12403259 118 17489583437838693115
12422481 6 16845302677929917390
12596602 18 13182722758947587941
12969540 114 18335420179571320399
13103583 49 11311774033722915365
13383661 66 6266047050918905589
13402501 40 18411708672657249400
13642711 20 18264500631397005605
14187579 7 18114746065753084913
14251732 14 6411015395851400112
14251757 17 18408317787402590264
14251758 9 15841562893799932886
14251764 30 9151169874307783733
14251764 38 18412541002970051404
14347329 18 17845633959066451268
14739800 52 17987816192557357657
14951699 99 17845932902055456516
15238133 3 16917347043832752132
15463212 79 18410862036288387159
15537594 2 5184349603509517661
15669420 48 17459769033532643221
173720 79 17704358757922008387
193927 3 7925912573435332627
20197701 30 18413392050823584579
20715895 44 18411705395776167552
21033648 29 18272642454802344896
21304303 282 18193859066628677438
21388113 180 18339643339378268020
21859007 373 18129389353200218668
21968339 14 17822017527691891952
22950370 63 8862939506766676851
23227448 37 18337107843714506156
23559900 14 18041827490070772166
2838139 119 18131361829626229037
3117164 225 10952053372847204887
341906 21 17846208943201646132
3737641 26 9222967987939131028
4015057 19 17458057153920672642
4371632 12 15577551275668824016
44317340 157 17968650627169975625
5283173 99 18335704926996430587
53917941 68 18336557023034176079
56633871 153 10807926081616883833
633830 44 17532631607178353611
6371380 46 18342737460179012418
7918774 8 8646767819869767821
9981440 41 17918273177944693435

> <PUBCHEM_SHAPE_MULTIPOLES>
474.93
14.02
3.16
1.74
0.9
1.23
0.57
-10.29
2.78
-0.08
0.16
0.6
-0.24
2.41

> <PUBCHEM_SHAPE_SELFOVERLAP>
985.197

> <PUBCHEM_SHAPE_VOLUME>
273.6

> <PUBCHEM_COORDINATE_TYPE>
2
5
10

$$$$

