4715
  -OEChem-06261200182D

 85 84  0     1  0  0  0  0  0999 V2000
    7.7331   -1.5950    0.0000 O   0  0  0  0  0  0  0  0  0  0  0  0
   28.5177   -1.5950    0.0000 O   0  0  0  0  0  0  0  0  0  0  0  0
    2.5369    1.4050    0.0000 O   0  0  0  0  0  0  0  0  0  0  0  0
   21.5895   -0.5950    0.0000 C   0  0  0  0  0  0  0  0  0  0  0  0
   20.7235   -0.0950    0.0000 C   0  0  0  0  0  0  0  0  0  0  0  0
   22.4555   -0.0950    0.0000 C   0  0  0  0  0  0  0  0  0  0  0  0
   12.0632   -0.0950    0.0000 C   0  0  0  0  0  0  0  0  0  0  0  0
   12.9292   -0.5950    0.0000 C   0  0  0  0  0  0  0  0  0  0  0  0
   11.1972   -0.5950    0.0000 C   0  0  0  0  0  0  0  0  0  0  0  0
   19.8574   -0.5950    0.0000 C   0  0  0  0  0  0  0  0  0  0  0  0
   23.3215   -0.5950    0.0000 C   0  0  0  0  0  0  0  0  0  0  0  0
   13.7953   -0.0950    0.0000 C   0  0  0  0  0  0  0  0  0  0  0  0
   10.3312   -0.0950    0.0000 C   0  0  0  0  0  0  0  0  0  0  0  0
   18.9914   -0.0950    0.0000 C   0  0  0  0  0  0  0  0  0  0  0  0
   24.1876   -0.0950    0.0000 C   0  0  0  0  0  0  0  0  0  0  0  0
   14.6613   -0.5950    0.0000 C   0  0  0  0  0  0  0  0  0  0  0  0
    9.4651   -0.5950    0.0000 C   0  0  0  0  0  0  0  0  0  0  0  0
   18.1254   -0.5950    0.0000 C   0  0  0  0  0  0  0  0  0  0  0  0
   15.5273   -0.0950    0.0000 C   0  0  0  0  0  0  0  0  0  0  0  0
   25.0536   -0.5950    0.0000 C   0  0  0  0  0  0  0  0  0  0  0  0
    8.5991   -0.0950    0.0000 C   0  0  0  0  0  0  0  0  0  0  0  0
   17.2594   -0.0950    0.0000 C   0  0  0  0  0  0  0  0  0  0  0  0
   16.3933   -0.5950    0.0000 C   0  0  0  0  0  0  0  0  0  0  0  0
   25.9196   -0.0950    0.0000 C   0  0  0  0  0  0  0  0  0  0  0  0
    7.7331   -0.5950    0.0000 C   0  0  3  0  0  0  0  0  0  0  0  0
   26.7856   -0.5950    0.0000 C   0  0  0  0  0  0  0  0  0  0  0  0
    6.8671   -0.0950    0.0000 C   0  0  0  0  0  0  0  0  0  0  0  0
   27.6517   -0.0950    0.0000 C   0  0  0  0  0  0  0  0  0  0  0  0
   28.5177   -0.5950    0.0000 C   0  0  3  0  0  0  0  0  0  0  0  0
    6.0010    0.4050    0.0000 C   0  0  0  0  0  0  0  0  0  0  0  0
   29.3837   -0.0950    0.0000 C   0  0  0  0  0  0  0  0  0  0  0  0
    5.1350    0.9050    0.0000 C   0  0  0  0  0  0  0  0  0  0  0  0
   30.2497    0.4050    0.0000 C   0  0  0  0  0  0  0  0  0  0  0  0
    4.2690    1.4050    0.0000 C   0  0  0  0  0  0  0  0  0  0  0  0
    3.4030    1.9050    0.0000 C   0  0  0  0  0  0  0  0  0  0  0  0
   21.1910   -1.0700    0.0000 H   0  0  0  0  0  0  0  0  0  0  0  0
   21.9880   -1.0700    0.0000 H   0  0  0  0  0  0  0  0  0  0  0  0
   21.1220    0.3799    0.0000 H   0  0  0  0  0  0  0  0  0  0  0  0
   20.3249    0.3799    0.0000 H   0  0  0  0  0  0  0  0  0  0  0  0
   22.8540    0.3799    0.0000 H   0  0  0  0  0  0  0  0  0  0  0  0
   22.0570    0.3799    0.0000 H   0  0  0  0  0  0  0  0  0  0  0  0
   12.4617    0.3799    0.0000 H   0  0  0  0  0  0  0  0  0  0  0  0
   11.6647    0.3799    0.0000 H   0  0  0  0  0  0  0  0  0  0  0  0
   12.5307   -1.0700    0.0000 H   0  0  0  0  0  0  0  0  0  0  0  0
   13.3278   -1.0700    0.0000 H   0  0  0  0  0  0  0  0  0  0  0  0
   10.7987   -1.0700    0.0000 H   0  0  0  0  0  0  0  0  0  0  0  0
   11.5957   -1.0700    0.0000 H   0  0  0  0  0  0  0  0  0  0  0  0
   19.4589   -1.0700    0.0000 H   0  0  0  0  0  0  0  0  0  0  0  0
   20.2560   -1.0700    0.0000 H   0  0  0  0  0  0  0  0  0  0  0  0
   22.9230   -1.0700    0.0000 H   0  0  0  0  0  0  0  0  0  0  0  0
   23.7201   -1.0700    0.0000 H   0  0  0  0  0  0  0  0  0  0  0  0
   14.1938    0.3799    0.0000 H   0  0  0  0  0  0  0  0  0  0  0  0
   13.3967    0.3799    0.0000 H   0  0  0  0  0  0  0  0  0  0  0  0
   10.7297    0.3799    0.0000 H   0  0  0  0  0  0  0  0  0  0  0  0
    9.9326    0.3799    0.0000 H   0  0  0  0  0  0  0  0  0  0  0  0
   19.3899    0.3799    0.0000 H   0  0  0  0  0  0  0  0  0  0  0  0
   18.5929    0.3799    0.0000 H   0  0  0  0  0  0  0  0  0  0  0  0
   24.5861    0.3799    0.0000 H   0  0  0  0  0  0  0  0  0  0  0  0
   23.7890    0.3799    0.0000 H   0  0  0  0  0  0  0  0  0  0  0  0
   14.2628   -1.0700    0.0000 H   0  0  0  0  0  0  0  0  0  0  0  0
   15.0598   -1.0700    0.0000 H   0  0  0  0  0  0  0  0  0  0  0  0
    9.0666   -1.0700    0.0000 H   0  0  0  0  0  0  0  0  0  0  0  0
    9.8637   -1.0700    0.0000 H   0  0  0  0  0  0  0  0  0  0  0  0
   17.7269   -1.0700    0.0000 H   0  0  0  0  0  0  0  0  0  0  0  0
   18.5239   -1.0700    0.0000 H   0  0  0  0  0  0  0  0  0  0  0  0
   15.9258    0.3799    0.0000 H   0  0  0  0  0  0  0  0  0  0  0  0
   15.1288    0.3799    0.0000 H   0  0  0  0  0  0  0  0  0  0  0  0
   24.6551   -1.0700    0.0000 H   0  0  0  0  0  0  0  0  0  0  0  0
   25.4521   -1.0700    0.0000 H   0  0  0  0  0  0  0  0  0  0  0  0
    8.9976    0.3799    0.0000 H   0  0  0  0  0  0  0  0  0  0  0  0
    8.2006    0.3799    0.0000 H   0  0  0  0  0  0  0  0  0  0  0  0
   17.2594    0.5250    0.0000 H   0  0  0  0  0  0  0  0  0  0  0  0
   16.3933   -1.2150    0.0000 H   0  0  0  0  0  0  0  0  0  0  0  0
   26.3182    0.3799    0.0000 H   0  0  0  0  0  0  0  0  0  0  0  0
   25.5211    0.3799    0.0000 H   0  0  0  0  0  0  0  0  0  0  0  0
    8.4692   -1.0200    0.0000 H   0  0  0  0  0  0  0  0  0  0  0  0
   26.7856   -1.2150    0.0000 H   0  0  0  0  0  0  0  0  0  0  0  0
    7.1962   -1.9050    0.0000 H   0  0  0  0  0  0  0  0  0  0  0  0
   27.6517    0.5250    0.0000 H   0  0  0  0  0  0  0  0  0  0  0  0
   29.2538   -1.0200    0.0000 H   0  0  0  0  0  0  0  0  0  0  0  0
   29.0546   -1.9050    0.0000 H   0  0  0  0  0  0  0  0  0  0  0  0
   30.7867    0.7150    0.0000 H   0  0  0  0  0  0  0  0  0  0  0  0
    3.8015    2.3800    0.0000 H   0  0  0  0  0  0  0  0  0  0  0  0
    3.0044    2.3800    0.0000 H   0  0  0  0  0  0  0  0  0  0  0  0
    2.0000    1.7150    0.0000 H   0  0  0  0  0  0  0  0  0  0  0  0
  1 25  1  0  0  0  0
  1 78  1  0  0  0  0
  2 29  1  0  0  0  0
  2 81  1  0  0  0  0
  3 35  1  0  0  0  0
  3 85  1  0  0  0  0
  4  5  1  0  0  0  0
  4  6  1  0  0  0  0
  4 36  1  0  0  0  0
  4 37  1  0  0  0  0
  5 10  1  0  0  0  0
  5 38  1  0  0  0  0
  5 39  1  0  0  0  0
  6 11  1  0  0  0  0
  6 40  1  0  0  0  0
  6 41  1  0  0  0  0
  7  8  1  0  0  0  0
  7  9  1  0  0  0  0
  7 42  1  0  0  0  0
  7 43  1  0  0  0  0
  8 12  1  0  0  0  0
  8 44  1  0  0  0  0
  8 45  1  0  0  0  0
  9 13  1  0  0  0  0
  9 46  1  0  0  0  0
  9 47  1  0  0  0  0
 10 14  1  0  0  0  0
 10 48  1  0  0  0  0
 10 49  1  0  0  0  0
 11 15  1  0  0  0  0
 11 50  1  0  0  0  0
 11 51  1  0  0  0  0
 12 16  1  0  0  0  0
 12 52  1  0  0  0  0
 12 53  1  0  0  0  0
 13 17  1  0  0  0  0
 13 54  1  0  0  0  0
 13 55  1  0  0  0  0
 14 18  1  0  0  0  0
 14 56  1  0  0  0  0
 14 57  1  0  0  0  0
 15 20  1  0  0  0  0
 15 58  1  0  0  0  0
 15 59  1  0  0  0  0
 16 19  1  0  0  0  0
 16 60  1  0  0  0  0
 16 61  1  0  0  0  0
 17 21  1  0  0  0  0
 17 62  1  0  0  0  0
 17 63  1  0  0  0  0
 18 22  1  0  0  0  0
 18 64  1  0  0  0  0
 18 65  1  0  0  0  0
 19 23  1  0  0  0  0
 19 66  1  0  0  0  0
 19 67  1  0  0  0  0
 20 24  1  0  0  0  0
 20 68  1  0  0  0  0
 20 69  1  0  0  0  0
 21 25  1  0  0  0  0
 21 70  1  0  0  0  0
 21 71  1  0  0  0  0
 22 23  2  3  0  0  0
 22 72  1  0  0  0  0
 23 73  1  0  0  0  0
 24 26  1  0  0  0  0
 24 74  1  0  0  0  0
 24 75  1  0  0  0  0
 25 27  1  0  0  0  0
 25 76  1  0  0  0  0
 26 28  2  3  0  0  0
 26 77  1  0  0  0  0
 27 30  3  0  0  0  0
 28 29  1  0  0  0  0
 28 79  1  0  0  0  0
 29 31  1  0  0  0  0
 29 80  1  0  0  0  0
 30 32  1  0  0  0  0
 31 33  3  0  0  0  0
 32 34  3  0  0  0  0
 33 82  1  0  0  0  0
 34 35  1  0  0  0  0
 35 83  1  0  0  0  0
 35 84  1  0  0  0  0
M  END
> <PUBCHEM_COMPOUND_CID>
4715

> <PUBCHEM_COMPOUND_CANONICALIZED>
1

> <PUBCHEM_CACTVS_COMPLEXITY>
712

> <PUBCHEM_CACTVS_HBOND_ACCEPTOR>
3

> <PUBCHEM_CACTVS_HBOND_DONOR>
3

> <PUBCHEM_CACTVS_ROTATABLE_BOND>
23

> <PUBCHEM_CACTVS_SUBSKEYS>
AAADcfB8MAAAAAAAAAAAAAAAAAAAAAAAAAAAAAAAAAAAAAAAAAAAGgAACAAACBSggAIAAAAAAgDAGCBCAAgAAAAgAAAICAAAAAgAFAIAAQAAUAAEgAAIEAOAwKAAAAAAAAAAAAAAAAAAAAAAAAAAAAAAAA==

> <PUBCHEM_IUPAC_OPENEYE_NAME>
dotriaconta-16,28-dien-2,4,31-triyne-1,6,30-triol

> <PUBCHEM_IUPAC_CAS_NAME>
dotriaconta-16,28-dien-2,4,31-triyne-1,6,30-triol

> <PUBCHEM_IUPAC_NAME>
dotriaconta-16,28-dien-2,4,31-triyne-1,6,30-triol

> <PUBCHEM_IUPAC_SYSTEMATIC_NAME>
dotriaconta-16,28-dien-2,4,31-triyne-1,6,30-triol

> <PUBCHEM_IUPAC_TRADITIONAL_NAME>
dotriaconta-16,28-dien-2,4,31-triyne-1,6,30-triol

> <PUBCHEM_IUPAC_INCHI>
InChI=1S/C32H50O3/c1-2-31(34)27-23-20-18-16-14-12-10-8-6-4-3-5-7-9-11-13-15-17-19-21-24-28-32(35)29-25-22-26-30-33/h1,5,7,23,27,31-35H,3-4,6,8-21,24,28,30H2

> <PUBCHEM_IUPAC_INCHIKEY>
JZGLSELQORBWPZ-UHFFFAOYSA-N

> <PUBCHEM_XLOGP3_AA>
9.3

> <PUBCHEM_EXACT_MASS>
482.375995

> <PUBCHEM_MOLECULAR_FORMULA>
C32H50O3

> <PUBCHEM_MOLECULAR_WEIGHT>
482.7376

> <PUBCHEM_OPENEYE_CAN_SMILES>
C#CC(C=CCCCCCCCCCCC=CCCCCCCCCCC(C#CC#CCO)O)O

> <PUBCHEM_OPENEYE_ISO_SMILES>
C#CC(C=CCCCCCCCCCCC=CCCCCCCCCCC(C#CC#CCO)O)O

> <PUBCHEM_CACTVS_TPSA>
60.7

> <PUBCHEM_MONOISOTOPIC_WEIGHT>
482.375995

> <PUBCHEM_TOTAL_CHARGE>
0

> <PUBCHEM_HEAVY_ATOM_COUNT>
35

> <PUBCHEM_ATOM_DEF_STEREO_COUNT>
0

> <PUBCHEM_ATOM_UDEF_STEREO_COUNT>
2

> <PUBCHEM_BOND_DEF_STEREO_COUNT>
0

> <PUBCHEM_BOND_UDEF_STEREO_COUNT>
2

> <PUBCHEM_ISOTOPIC_ATOM_COUNT>
0

> <PUBCHEM_COMPONENT_COUNT>
1

> <PUBCHEM_CACTVS_TAUTO_COUNT>
1

> <PUBCHEM_COORDINATE_TYPE>
1
5
255

> <PUBCHEM_BONDANNOTATIONS>
22  23  1
25  76  3
26  28  1
29  80  3

$$$$

