17395631
  -OEChem-06241222513D

 43 44  0     1  0  0  0  0  0999 V2000
   -3.7748    1.0937   -0.2779 S   0  0  0  0  0  0  0  0  0  0  0  0
   -1.7801    3.0407    1.1195 O   0  0  0  0  0  0  0  0  0  0  0  0
    4.4834   -0.1963   -1.6315 O   0  0  0  0  0  0  0  0  0  0  0  0
   -3.1366   -2.6870    0.5650 N   0  0  0  0  0  0  0  0  0  0  0  0
   -1.9139   -0.9408   -0.2647 N   0  0  0  0  0  0  0  0  0  0  0  0
   -3.8712   -1.5677    0.4776 N   0  0  0  0  0  0  0  0  0  0  0  0
    3.8417    0.1107    0.6162 N   0  0  0  0  0  0  0  0  0  0  0  0
   -0.8112   -3.1816    0.0164 C   0  0  0  0  0  0  0  0  0  0  0  0
   -1.9609   -2.2547    0.1043 C   0  0  0  0  0  0  0  0  0  0  0  0
   -2.2829    1.9011   -0.9409 C   0  0  2  0  0  0  0  0  0  0  0  0
    0.3768   -2.7600    0.9117 C   0  0  0  0  0  0  0  0  0  0  0  0
   -0.3126   -3.3934   -1.4318 C   0  0  0  0  0  0  0  0  0  0  0  0
   -1.3589    2.2582    0.2412 C   0  0  0  0  0  0  0  0  0  0  0  0
   -0.0177    1.7047    0.3383 C   0  0  0  0  0  0  0  0  0  0  0  0
   -3.1372   -0.5345   -0.0162 C   0  0  0  0  0  0  0  0  0  0  0  0
   -2.6841    3.1358   -1.7424 C   0  0  0  0  0  0  0  0  0  0  0  0
    0.6908    1.3869   -0.8206 C   0  0  0  0  0  0  0  0  0  0  0  0
    0.5602    1.4907    1.5898 C   0  0  0  0  0  0  0  0  0  0  0  0
    2.5547    0.6414    0.5236 C   0  0  0  0  0  0  0  0  0  0  0  0
    1.9770    0.8554   -0.7279 C   0  0  0  0  0  0  0  0  0  0  0  0
    1.8463    0.9591    1.6824 C   0  0  0  0  0  0  0  0  0  0  0  0
    4.6997   -0.2651   -0.4261 C   0  0  0  0  0  0  0  0  0  0  0  0
    6.0115   -0.7974    0.0939 C   0  0  0  0  0  0  0  0  0  0  0  0
   -1.1298   -4.1698    0.3778 H   0  0  0  0  0  0  0  0  0  0  0  0
   -1.8041    1.2045   -1.6321 H   0  0  0  0  0  0  0  0  0  0  0  0
    0.7967   -1.8078    0.5773 H   0  0  0  0  0  0  0  0  0  0  0  0
    1.1715   -3.5127    0.8841 H   0  0  0  0  0  0  0  0  0  0  0  0
    0.0555   -2.6396    1.9519 H   0  0  0  0  0  0  0  0  0  0  0  0
    0.0639   -2.4574   -1.8594 H   0  0  0  0  0  0  0  0  0  0  0  0
   -1.1268   -3.7501   -2.0720 H   0  0  0  0  0  0  0  0  0  0  0  0
    0.4940   -4.1332   -1.4615 H   0  0  0  0  0  0  0  0  0  0  0  0
   -3.5090   -3.5670    0.9111 H   0  0  0  0  0  0  0  0  0  0  0  0
   -3.3283    2.8735   -2.5887 H   0  0  0  0  0  0  0  0  0  0  0  0
   -1.7922    3.6298   -2.1442 H   0  0  0  0  0  0  0  0  0  0  0  0
   -3.2062    3.8745   -1.1236 H   0  0  0  0  0  0  0  0  0  0  0  0
    0.2856    1.5689   -1.8113 H   0  0  0  0  0  0  0  0  0  0  0  0
    0.0216    1.7265    2.5039 H   0  0  0  0  0  0  0  0  0  0  0  0
    2.4654    0.6404   -1.6680 H   0  0  0  0  0  0  0  0  0  0  0  0
    2.2837    0.7960    2.6642 H   0  0  0  0  0  0  0  0  0  0  0  0
    4.1920   -0.0157    1.5635 H   0  0  0  0  0  0  0  0  0  0  0  0
    5.8317   -1.6650    0.7352 H   0  0  0  0  0  0  0  0  0  0  0  0
    6.5250   -0.0198    0.6661 H   0  0  0  0  0  0  0  0  0  0  0  0
    6.6463   -1.1009   -0.7431 H   0  0  0  0  0  0  0  0  0  0  0  0
  1 10  1  0  0  0  0
  1 15  1  0  0  0  0
  2 13  2  0  0  0  0
  3 22  2  0  0  0  0
  4  6  1  0  0  0  0
  4  9  1  0  0  0  0
  4 32  1  0  0  0  0
  5  9  2  0  0  0  0
  5 15  1  0  0  0  0
  6 15  2  0  0  0  0
  7 19  1  0  0  0  0
  7 22  1  0  0  0  0
  7 40  1  0  0  0  0
  8  9  1  0  0  0  0
  8 11  1  0  0  0  0
  8 12  1  0  0  0  0
  8 24  1  0  0  0  0
 10 13  1  0  0  0  0
 10 16  1  0  0  0  0
 10 25  1  0  0  0  0
 11 26  1  0  0  0  0
 11 27  1  0  0  0  0
 11 28  1  0  0  0  0
 12 29  1  0  0  0  0
 12 30  1  0  0  0  0
 12 31  1  0  0  0  0
 13 14  1  0  0  0  0
 14 17  2  0  0  0  0
 14 18  1  0  0  0  0
 16 33  1  0  0  0  0
 16 34  1  0  0  0  0
 16 35  1  0  0  0  0
 17 20  1  0  0  0  0
 17 36  1  0  0  0  0
 18 21  2  0  0  0  0
 18 37  1  0  0  0  0
 19 20  2  0  0  0  0
 19 21  1  0  0  0  0
 20 38  1  0  0  0  0
 21 39  1  0  0  0  0
 22 23  1  0  0  0  0
 23 41  1  0  0  0  0
 23 42  1  0  0  0  0
 23 43  1  0  0  0  0
M  END
> <PUBCHEM_COMPOUND_CID>
17395631

> <PUBCHEM_CONFORMER_RMSD>
1

> <PUBCHEM_CONFORMER_DIVERSEORDER>
1
48
56
85
59
38
68
91
123
141
20
134
50
137
65
2
79
66
23
133
138
76
127
110
60
118
98
7
111
71
112
96
143
10
37
132
70
128
82
42
73
44
88
19
31
94
72
117
86
45
139
61
39
69
125
131
136
51
104
99
115
32
6
33
108
121
52
113
4
22
119
142
14
130
43
135
140
25
24
17
105
101
8
124
26
54
89
34
120
129
40
57
30
3
41
95
102
67
11
126
35
106
62
100
9
83
55
78
29
122
5
63
28
75
13
87
97
84
12
90
18
15
74
16
103
36
107
109
116
80
21
77
64
81
49
47
53
92
58
93
46
114
27

> <PUBCHEM_MMFF94_PARTIAL_CHARGES>
26
1 -0.28
10 0.29
13 0.42
14 0.09
15 0.57
17 -0.15
18 -0.15
19 0.12
2 -0.57
20 -0.15
21 -0.15
22 0.57
23 0.06
3 -0.57
32 0.27
36 0.15
37 0.15
38 0.15
39 0.15
4 0.3
40 0.37
5 -0.57
6 -0.71
7 -0.55
8 0.18
9 0.01

> <PUBCHEM_EFFECTIVE_ROTOR_COUNT>
7

> <PUBCHEM_PHARMACOPHORE_FEATURES>
10
1 16 hydrophobe
1 2 acceptor
1 3 acceptor
1 4 donor
1 7 donor
3 4 5 9 cation
3 5 6 15 cation
3 8 11 12 hydrophobe
5 4 5 6 9 15 rings
6 14 17 18 19 20 21 rings

> <PUBCHEM_HEAVY_ATOM_COUNT>
23

> <PUBCHEM_ATOM_DEF_STEREO_COUNT>
0

> <PUBCHEM_ATOM_UDEF_STEREO_COUNT>
1

> <PUBCHEM_BOND_DEF_STEREO_COUNT>
0

> <PUBCHEM_BOND_UDEF_STEREO_COUNT>
0

> <PUBCHEM_ISOTOPIC_ATOM_COUNT>
0

> <PUBCHEM_COMPONENT_COUNT>
1

> <PUBCHEM_CACTVS_TAUTO_COUNT>
45

> <PUBCHEM_CONFORMER_ID>
01096FAF00000001

> <PUBCHEM_MMFF94_ENERGY>
61.5033

> <PUBCHEM_FEATURE_SELFOVERLAP>
53.492

> <PUBCHEM_SHAPE_FINGERPRINT>
104564 63 18410856572799375178
10759866 29 18059860622794745122
11578080 2 16843340127622578511
12553582 1 17548423609394091235
12712778 12 18265917855294618442
12788726 201 18266159683411985484
13140716 1 18338793404284209129
13402501 40 18333166171912531503
13941206 138 18060134396869168770
14251740 79 18336538413125018194
14251751 93 18202284740300923388
14251757 17 18115858771477631006
14251757 5 18269823230228020374
15927050 60 17900818559676484529
16752209 62 18270417034825263957
167882 2 17551525765498677357
20905425 154 18410859901525818215
21634736 98 17987234422226010700
23559900 14 18334583425996449224
23566358 2 18191300691964364582
3027735 51 18334568092224730318
338550 245 18129381656819842706
5265222 85 18412256234000916140
5283178 26 18042675122718689815
574716 61 17274813598376274276
602551 16 18410580587223145096
6437827 68 18267025140887364330
9862886 166 18407478869458729738

> <PUBCHEM_SHAPE_MULTIPOLES>
445.52
8.37
4.24
1.41
11.62
2.51
0.08
0.37
1.42
-4.26
0.44
0.3
-0.49
1.01

> <PUBCHEM_SHAPE_SELFOVERLAP>
915.211

> <PUBCHEM_SHAPE_VOLUME>
259.3

> <PUBCHEM_COORDINATE_TYPE>
2
5
10

$$$$

