854341
  -OEChem-06241222483D

 24 25  0     0  0  0  0  0  0999 V2000
    4.0905   -0.0675    0.2916 O   0  0  0  0  0  0  0  0  0  0  0  0
    2.4112    0.0476   -1.2842 O   0  0  0  0  0  0  0  0  0  0  0  0
   -0.2673   -1.0434    0.5460 N   0  0  0  0  0  0  0  0  0  0  0  0
   -0.2784    1.1776    0.4623 N   0  0  0  0  0  0  0  0  0  0  0  0
   -1.5436   -0.6973    0.1829 C   0  0  0  0  0  0  0  0  0  0  0  0
    0.4500    0.1100    0.7009 C   0  0  0  0  0  0  0  0  0  0  0  0
   -1.5251    0.6941    0.1376 C   0  0  0  0  0  0  0  0  0  0  0  0
    1.8716    0.0812    1.0925 C   0  0  0  0  0  0  0  0  0  0  0  0
   -2.6781   -1.4583   -0.1012 C   0  0  0  0  0  0  0  0  0  0  0  0
   -2.6990    1.3837   -0.2097 C   0  0  0  0  0  0  0  0  0  0  0  0
   -3.8375   -0.7556   -0.4452 C   0  0  0  0  0  0  0  0  0  0  0  0
   -3.8499    0.6401   -0.4989 C   0  0  0  0  0  0  0  0  0  0  0  0
    2.7897    0.0210   -0.1211 C   0  0  0  0  0  0  0  0  0  0  0  0
    5.0659   -0.1330   -0.7537 C   0  0  0  0  0  0  0  0  0  0  0  0
    0.0785   -1.9853    0.6743 H   0  0  0  0  0  0  0  0  0  0  0  0
    2.1145    0.9886    1.6564 H   0  0  0  0  0  0  0  0  0  0  0  0
    2.0771   -0.7890    1.7260 H   0  0  0  0  0  0  0  0  0  0  0  0
   -2.6659   -2.5414   -0.0587 H   0  0  0  0  0  0  0  0  0  0  0  0
   -2.7190    2.4679   -0.2543 H   0  0  0  0  0  0  0  0  0  0  0  0
   -4.7459   -1.3071   -0.6748 H   0  0  0  0  0  0  0  0  0  0  0  0
   -4.7665    1.1581   -0.7694 H   0  0  0  0  0  0  0  0  0  0  0  0
    5.0255    0.7725   -1.3666 H   0  0  0  0  0  0  0  0  0  0  0  0
    4.9033   -1.0239   -1.3679 H   0  0  0  0  0  0  0  0  0  0  0  0
    6.0546   -0.2006   -0.2922 H   0  0  0  0  0  0  0  0  0  0  0  0
  1 13  1  0  0  0  0
  1 14  1  0  0  0  0
  2 13  2  0  0  0  0
  3  5  1  0  0  0  0
  3  6  1  0  0  0  0
  3 15  1  0  0  0  0
  4  6  2  0  0  0  0
  4  7  1  0  0  0  0
  5  7  1  0  0  0  0
  5  9  2  0  0  0  0
  6  8  1  0  0  0  0
  7 10  2  0  0  0  0
  8 13  1  0  0  0  0
  8 16  1  0  0  0  0
  8 17  1  0  0  0  0
  9 11  1  0  0  0  0
  9 18  1  0  0  0  0
 10 12  1  0  0  0  0
 10 19  1  0  0  0  0
 11 12  2  0  0  0  0
 11 20  1  0  0  0  0
 12 21  1  0  0  0  0
 14 22  1  0  0  0  0
 14 23  1  0  0  0  0
 14 24  1  0  0  0  0
M  END
> <PUBCHEM_COMPOUND_CID>
854341

> <PUBCHEM_CONFORMER_RMSD>
0.6

> <PUBCHEM_CONFORMER_DIVERSEORDER>
1
9
3
8
7
4
5
6
2

> <PUBCHEM_MMFF94_PARTIAL_CHARGES>
19
1 -0.43
10 -0.15
11 -0.15
12 -0.15
13 0.66
14 0.28
15 0.27
18 0.15
19 0.15
2 -0.57
20 0.15
21 0.15
3 0.03
4 -0.57
5 -0.15
6 0.01
7 0.23
8 0.24
9 -0.15

> <PUBCHEM_EFFECTIVE_ROTOR_COUNT>
3

> <PUBCHEM_PHARMACOPHORE_FEATURES>
5
1 2 acceptor
1 3 donor
3 3 4 6 cation
5 3 4 5 6 7 rings
6 5 7 9 10 11 12 rings

> <PUBCHEM_HEAVY_ATOM_COUNT>
14

> <PUBCHEM_ATOM_DEF_STEREO_COUNT>
0

> <PUBCHEM_ATOM_UDEF_STEREO_COUNT>
0

> <PUBCHEM_BOND_DEF_STEREO_COUNT>
0

> <PUBCHEM_BOND_UDEF_STEREO_COUNT>
0

> <PUBCHEM_ISOTOPIC_ATOM_COUNT>
0

> <PUBCHEM_COMPONENT_COUNT>
1

> <PUBCHEM_CACTVS_TAUTO_COUNT>
3

> <PUBCHEM_CONFORMER_ID>
000D094500000001

> <PUBCHEM_MMFF94_ENERGY>
20.6362

> <PUBCHEM_FEATURE_SELFOVERLAP>
25.479

> <PUBCHEM_SHAPE_FINGERPRINT>
10465860 71 18410567370970686172
12032990 46 18188212005278210491
12186901 62 18410858784833788733
12251169 10 8430313541272684386
14911166 2 18409739460722427213
14993402 34 17846785096010863215
15219456 202 17822866272736729224
15775835 57 17704072919000042476
16945 1 18339094734931301609
17870717 6 18260816125182803422
1813 80 14418398980908043264
18186145 218 18343029869197673849
1986462 14 18335422369883101199
200 152 15864073182375439610
20201158 50 17676203580754510838
20279233 1 17676204671523158294
20300324 65 18412262817969099965
20325693 3 18411978070469889999
204376 136 14764624209846169712
20645476 183 17846501409147639899
20645477 70 16660644098318283236
20871999 31 18411138026063527965
21119208 17 18060701693181040014
22485316 2 17748830713225705102
23402539 116 18412268350224600524
23402655 69 17704079533191734236
23403322 49 17894907468821668454
23557571 272 18187640340636081724
23559900 14 18334580144730527562
26918003 58 15357697483070072231
2748010 2 17979933613857473387
449060 50 12751235917532418138
474 4 16772945879739115676
7364860 26 17972042439773782369
9981440 41 16837675091365804404

> <PUBCHEM_SHAPE_MULTIPOLES>
266.41
8.46
1.2
0.93
7.41
0.02
0.03
0.44
2.64
-1.24
-0.01
0.53
-0.01
0.09

> <PUBCHEM_SHAPE_SELFOVERLAP>
572.344

> <PUBCHEM_SHAPE_VOLUME>
149.5

> <PUBCHEM_COORDINATE_TYPE>
2
5
10

$$$$

