9235
  -OEChem-06261203313D

 22 23  0     0  0  0  0  0  0999 V2000
    1.3007    0.0001   -0.0003 C   0  0  0  0  0  0  0  0  0  0  0  0
   -1.3007    0.0000    0.0003 C   0  0  0  0  0  0  0  0  0  0  0  0
    0.7680   -0.5998    1.3120 C   0  0  0  0  0  0  0  0  0  0  0  0
    0.7676    1.4364   -0.1369 C   0  0  0  0  0  0  0  0  0  0  0  0
    0.7674   -0.8366   -1.1757 C   0  0  0  0  0  0  0  0  0  0  0  0
   -0.7672   -0.5999    1.3124 C   0  0  0  0  0  0  0  0  0  0  0  0
   -0.7677    1.4363   -0.1364 C   0  0  0  0  0  0  0  0  0  0  0  0
   -0.7679   -0.8365   -1.1754 C   0  0  0  0  0  0  0  0  0  0  0  0
    2.3959    0.0001   -0.0006 H   0  0  0  0  0  0  0  0  0  0  0  0
   -2.3959    0.0000    0.0007 H   0  0  0  0  0  0  0  0  0  0  0  0
    1.1388   -0.0249    2.1691 H   0  0  0  0  0  0  0  0  0  0  0  0
    1.1387   -1.6241    1.4380 H   0  0  0  0  0  0  0  0  0  0  0  0
    1.1379    1.8912   -1.0635 H   0  0  0  0  0  0  0  0  0  0  0  0
    1.1384    2.0579    0.6870 H   0  0  0  0  0  0  0  0  0  0  0  0
    1.1379   -1.8664   -1.1064 H   0  0  0  0  0  0  0  0  0  0  0  0
    1.1377   -0.4338   -2.1261 H   0  0  0  0  0  0  0  0  0  0  0  0
   -1.1378   -1.6243    1.4386 H   0  0  0  0  0  0  0  0  0  0  0  0
   -1.1377   -0.0251    2.1697 H   0  0  0  0  0  0  0  0  0  0  0  0
   -1.1381    2.0576    0.6878 H   0  0  0  0  0  0  0  0  0  0  0  0
   -1.1387    1.8912   -1.0628 H   0  0  0  0  0  0  0  0  0  0  0  0
   -1.1387   -0.4334   -2.1254 H   0  0  0  0  0  0  0  0  0  0  0  0
   -1.1386   -1.8662   -1.1061 H   0  0  0  0  0  0  0  0  0  0  0  0
  1  3  1  0  0  0  0
  1  4  1  0  0  0  0
  1  5  1  0  0  0  0
  1  9  1  0  0  0  0
  2  6  1  0  0  0  0
  2  7  1  0  0  0  0
  2  8  1  0  0  0  0
  2 10  1  0  0  0  0
  3  6  1  0  0  0  0
  3 11  1  0  0  0  0
  3 12  1  0  0  0  0
  4  7  1  0  0  0  0
  4 13  1  0  0  0  0
  4 14  1  0  0  0  0
  5  8  1  0  0  0  0
  5 15  1  0  0  0  0
  5 16  1  0  0  0  0
  6 17  1  0  0  0  0
  6 18  1  0  0  0  0
  7 19  1  0  0  0  0
  7 20  1  0  0  0  0
  8 21  1  0  0  0  0
  8 22  1  0  0  0  0
M  END
> <PUBCHEM_COMPOUND_CID>
9235

> <PUBCHEM_CONFORMER_RMSD>
0.4

> <PUBCHEM_CONFORMER_DIVERSEORDER>
1

> <PUBCHEM_MMFF94_PARTIAL_CHARGES>
0

> <PUBCHEM_EFFECTIVE_ROTOR_COUNT>
1.2

> <PUBCHEM_PHARMACOPHORE_FEATURES>
1
8 1 2 3 4 5 6 7 8 rings

> <PUBCHEM_HEAVY_ATOM_COUNT>
8

> <PUBCHEM_ATOM_DEF_STEREO_COUNT>
0

> <PUBCHEM_ATOM_UDEF_STEREO_COUNT>
0

> <PUBCHEM_BOND_DEF_STEREO_COUNT>
0

> <PUBCHEM_BOND_UDEF_STEREO_COUNT>
0

> <PUBCHEM_ISOTOPIC_ATOM_COUNT>
0

> <PUBCHEM_COMPONENT_COUNT>
1

> <PUBCHEM_CACTVS_TAUTO_COUNT>
1

> <PUBCHEM_CONFORMER_ID>
0000241300000001

> <PUBCHEM_MMFF94_ENERGY>
15.5267

> <PUBCHEM_FEATURE_SELFOVERLAP>
5.074

> <PUBCHEM_SHAPE_FINGERPRINT>
12423570 1 9259674990231472321
13024252 1 6827986604756954261
137420 1 9187414630787487206
16945 1 8040311531277283655
21040471 1 9478090097693221014
29004967 10 10761297266165549349
5943 1 14008821703302765824

> <PUBCHEM_SHAPE_MULTIPOLES>
164.64
1.48
1.4
1.4
0
0.53
-0.19
0
0
0
0.19
0
-0.53
0

> <PUBCHEM_SHAPE_SELFOVERLAP>
339.062

> <PUBCHEM_SHAPE_VOLUME>
89.5

> <PUBCHEM_COORDINATE_TYPE>
2
5
10

$$$$

