17396178
  -OEChem-06241222553D

 42 45  0     1  0  0  0  0  0999 V2000
   -0.5539    2.9364   -0.7664 S   0  0  0  0  0  0  0  0  0  0  0  0
    2.3429    1.5736   -1.9070 O   0  0  0  0  0  0  0  0  0  0  0  0
   -1.7517    0.7486    0.4024 N   0  0  0  0  0  0  0  0  0  0  0  0
   -2.6619   -0.8814    1.5998 N   0  0  0  0  0  0  0  0  0  0  0  0
   -1.6201    1.2141    2.4801 N   0  0  0  0  0  0  0  0  0  0  0  0
   -1.0304    2.2802    1.8057 N   0  0  0  0  0  0  0  0  0  0  0  0
    1.7839    0.7402    0.2145 N   0  0  0  0  0  0  0  0  0  0  0  0
   -2.1651   -0.1429   -0.5370 C   0  0  0  0  0  0  0  0  0  0  0  0
   -2.0621    0.2760    1.6301 C   0  0  0  0  0  0  0  0  0  0  0  0
   -1.1250    1.9687    0.5374 C   0  0  0  0  0  0  0  0  0  0  0  0
   -2.7372   -1.1651    0.2412 C   0  0  0  0  0  0  0  0  0  0  0  0
    1.2047    3.0135   -0.3496 C   0  0  1  0  0  0  0  0  0  0  0  0
   -2.1149   -0.1879   -1.9313 C   0  0  0  0  0  0  0  0  0  0  0  0
   -3.2860   -2.2868   -0.4049 C   0  0  0  0  0  0  0  0  0  0  0  0
    1.8427    1.7001   -0.7927 C   0  0  0  0  0  0  0  0  0  0  0  0
    1.8412    4.2124   -1.0414 C   0  0  0  0  0  0  0  0  0  0  0  0
   -2.6682   -1.3146   -2.5493 C   0  0  0  0  0  0  0  0  0  0  0  0
   -3.2430   -2.3453   -1.8028 C   0  0  0  0  0  0  0  0  0  0  0  0
    2.2697   -0.5883    0.1704 C   0  0  0  0  0  0  0  0  0  0  0  0
    2.1346   -1.4363    1.2696 C   0  0  0  0  0  0  0  0  0  0  0  0
    2.8898   -1.0466   -0.9920 C   0  0  0  0  0  0  0  0  0  0  0  0
    2.6200   -2.7426    1.2065 C   0  0  0  0  0  0  0  0  0  0  0  0
    1.4749   -0.9723    2.5277 C   0  0  0  0  0  0  0  0  0  0  0  0
    3.3751   -2.3528   -1.0550 C   0  0  0  0  0  0  0  0  0  0  0  0
    3.2401   -3.2008    0.0442 C   0  0  0  0  0  0  0  0  0  0  0  0
    1.3338    3.1473    0.7303 H   0  0  0  0  0  0  0  0  0  0  0  0
   -1.6699    0.6060   -2.5192 H   0  0  0  0  0  0  0  0  0  0  0  0
   -1.6754    1.2053    3.4915 H   0  0  0  0  0  0  0  0  0  0  0  0
   -3.7354   -3.0942    0.1646 H   0  0  0  0  0  0  0  0  0  0  0  0
    1.7380    4.1665   -2.1319 H   0  0  0  0  0  0  0  0  0  0  0  0
    1.4011    5.1535   -0.6933 H   0  0  0  0  0  0  0  0  0  0  0  0
    2.9147    4.2494   -0.8232 H   0  0  0  0  0  0  0  0  0  0  0  0
   -2.6492   -1.3885   -3.6340 H   0  0  0  0  0  0  0  0  0  0  0  0
   -3.6637   -3.2072   -2.3144 H   0  0  0  0  0  0  0  0  0  0  0  0
    1.3385    1.0167    1.0844 H   0  0  0  0  0  0  0  0  0  0  0  0
    3.0335   -0.4588   -1.8865 H   0  0  0  0  0  0  0  0  0  0  0  0
    2.5220   -3.4170    2.0531 H   0  0  0  0  0  0  0  0  0  0  0  0
    1.9241   -0.0424    2.8911 H   0  0  0  0  0  0  0  0  0  0  0  0
    0.4061   -0.8300    2.3626 H   0  0  0  0  0  0  0  0  0  0  0  0
    1.5842   -1.7073    3.3331 H   0  0  0  0  0  0  0  0  0  0  0  0
    3.8577   -2.7114   -1.9596 H   0  0  0  0  0  0  0  0  0  0  0  0
    3.6176   -4.2180   -0.0053 H   0  0  0  0  0  0  0  0  0  0  0  0
  1 10  1  0  0  0  0
  1 12  1  0  0  0  0
  2 15  2  0  0  0  0
  3  8  1  0  0  0  0
  3  9  1  0  0  0  0
  3 10  1  0  0  0  0
  4  9  2  0  0  0  0
  4 11  1  0  0  0  0
  5  6  1  0  0  0  0
  5  9  1  0  0  0  0
  5 28  1  0  0  0  0
  6 10  2  0  0  0  0
  7 15  1  0  0  0  0
  7 19  1  0  0  0  0
  7 35  1  0  0  0  0
  8 11  1  0  0  0  0
  8 13  2  0  0  0  0
 11 14  2  0  0  0  0
 12 15  1  0  0  0  0
 12 16  1  0  0  0  0
 12 26  1  0  0  0  0
 13 17  1  0  0  0  0
 13 27  1  0  0  0  0
 14 18  1  0  0  0  0
 14 29  1  0  0  0  0
 16 30  1  0  0  0  0
 16 31  1  0  0  0  0
 16 32  1  0  0  0  0
 17 18  2  0  0  0  0
 17 33  1  0  0  0  0
 18 34  1  0  0  0  0
 19 20  1  0  0  0  0
 19 21  2  0  0  0  0
 20 22  2  0  0  0  0
 20 23  1  0  0  0  0
 21 24  1  0  0  0  0
 21 36  1  0  0  0  0
 22 25  1  0  0  0  0
 22 37  1  0  0  0  0
 23 38  1  0  0  0  0
 23 39  1  0  0  0  0
 23 40  1  0  0  0  0
 24 25  2  0  0  0  0
 24 41  1  0  0  0  0
 25 42  1  0  0  0  0
M  END
> <PUBCHEM_COMPOUND_CID>
17396178

> <PUBCHEM_CONFORMER_RMSD>
0.8

> <PUBCHEM_CONFORMER_DIVERSEORDER>
2
67
61
22
53
15
64
160
18
102
35
203
122
113
71
24
96
135
199
138
44
124
127
200
77
157
76
29
158
6
85
179
180
144
186
99
81
194
28
32
82
13
10
182
175
56
52
39
27
155
147
153
25
197
134
201
43
152
143
117
33
145
66
110
70
74
65
26
188
192
206
21
111
16
4
130
3
103
72
57
140
75
88
210
132
54
91
170
80
45
191
23
62
94
8
34
48
131
49
20
168
41
1
7
95
92
60
142
115
167
159
58
47
189
118
86
31
5
84
59
133
171
208
207
12
156
183
129
125
121
30
150
204
177
119
148
187
90
107
128
89
185
11
126
73
37
68
50
93
104
9
149
100
172
69
55
161
141
165
196
42
195
114
163
151
98
109
51
123
108
209
17
40
105
202
205
190
162
137
136
184
169
181
198
87
46
112
38
83
139
78
176
101
178
146
164
173
120
193
116
174
14
154
166
106
63
79
97
36
19

> <PUBCHEM_MMFF94_PARTIAL_CHARGES>
34
1 -0.37
10 0.6
11 0.23
12 0.29
13 -0.15
14 -0.15
15 0.57
17 -0.15
18 -0.15
19 0.12
2 -0.57
20 -0.14
21 -0.15
22 -0.15
23 0.14
24 -0.15
25 -0.15
27 0.15
28 0.4
29 0.15
3 0.29
33 0.15
34 0.15
35 0.37
36 0.15
37 0.15
4 -0.57
41 0.15
42 0.15
5 -0.44
6 -0.49
7 -0.55
8 -0.15
9 0.27

> <PUBCHEM_EFFECTIVE_ROTOR_COUNT>
5

> <PUBCHEM_PHARMACOPHORE_FEATURES>
9
1 16 hydrophobe
1 2 acceptor
1 5 donor
1 7 donor
4 3 4 5 9 cation
5 3 4 8 9 11 rings
5 3 5 6 9 10 rings
6 19 20 21 22 24 25 rings
6 8 11 13 14 17 18 rings

> <PUBCHEM_HEAVY_ATOM_COUNT>
25

> <PUBCHEM_ATOM_DEF_STEREO_COUNT>
0

> <PUBCHEM_ATOM_UDEF_STEREO_COUNT>
1

> <PUBCHEM_BOND_DEF_STEREO_COUNT>
0

> <PUBCHEM_BOND_UDEF_STEREO_COUNT>
0

> <PUBCHEM_ISOTOPIC_ATOM_COUNT>
0

> <PUBCHEM_COMPONENT_COUNT>
1

> <PUBCHEM_CACTVS_TAUTO_COUNT>
4

> <PUBCHEM_CONFORMER_ID>
010971D200000002

> <PUBCHEM_MMFF94_ENERGY>
81.1664

> <PUBCHEM_FEATURE_SELFOVERLAP>
46.11

> <PUBCHEM_SHAPE_FINGERPRINT>
107951 10 16327353815488539514
11578080 2 17968961694498483449
12156800 1 15088699953274415574
12539773 59 17970883739111295610
12553582 1 18198334242367529050
12633257 1 15068342302323533039
12788726 201 17695928995545507964
128993 33 9871181838162604863
13911987 19 17481416089211216012
16752209 62 17191797485403477448
17138139 8 16528649586771692983
18981168 100 11815614258681965641
19026451 147 18265626381022476294
19777482 4 18264221347037894037
20600515 1 17908748112396502099
21731516 1 18339642342750091878
23419403 2 16897159988376446449
23598288 3 17409910854026564942
23728640 28 17548425151060484234
238 59 17843410578692407198
35225 105 17327204519774990670
469060 322 15585773543954418914
5262128 65 18412269440761606874
5283178 26 17103667200125255158
6438718 38 17334773570984921866
90525 40 16976450458017751328

> <PUBCHEM_SHAPE_MULTIPOLES>
487.56
5.89
4.56
2.4
0.18
3.17
0.54
-5.64
-1.57
2.63
-1.29
-1.02
-0.28
-1.92

> <PUBCHEM_SHAPE_SELFOVERLAP>
1062.781

> <PUBCHEM_SHAPE_VOLUME>
268.6

> <PUBCHEM_COORDINATE_TYPE>
2
5
10

$$$$

