4531
  -OEChem-06261200122D

 28 27  0     1  0  0  0  0  0999 V2000
    2.0000    0.3450    0.0000 O   0  5  0  0  0  0  0  0  0  0  0  0
    2.8660   -1.1550    0.0000 O   0  0  0  0  0  0  0  0  0  0  0  0
    7.1962    1.3450    0.0000 O   0  0  0  0  0  0  0  0  0  0  0  0
    5.4641   -1.6550    0.0000 O   0  0  0  0  0  0  0  0  0  0  0  0
    2.8660   -0.1550    0.0000 N   0  3  0  0  0  0  0  0  0  0  0  0
    6.3301   -1.1550    0.0000 N   0  0  0  0  0  0  0  0  0  0  0  0
    8.0622   -0.1550    0.0000 N   0  0  0  0  0  0  0  0  0  0  0  0
    3.7321    0.3450    0.0000 C   0  0  3  0  0  0  0  0  0  0  0  0
    4.5981   -0.1550    0.0000 C   0  0  0  0  0  0  0  0  0  0  0  0
    4.5981   -1.1550    0.0000 C   0  0  0  0  0  0  0  0  0  0  0  0
    3.7321    1.3450    0.0000 C   0  0  0  0  0  0  0  0  0  0  0  0
    5.4641    0.3450    0.0000 C   0  0  0  0  0  0  0  0  0  0  0  0
    3.7321   -1.6550    0.0000 C   0  0  0  0  0  0  0  0  0  0  0  0
    6.3301   -0.1550    0.0000 C   0  0  0  0  0  0  0  0  0  0  0  0
    7.1962    0.3450    0.0000 C   0  0  0  0  0  0  0  0  0  0  0  0
    3.7321   -0.2750    0.0000 H   0  0  0  0  0  0  0  0  0  0  0  0
    4.8101   -1.7376    0.0000 H   0  0  0  0  0  0  0  0  0  0  0  0
    5.2087   -1.0473    0.0000 H   0  0  0  0  0  0  0  0  0  0  0  0
    4.3521    1.3450    0.0000 H   0  0  0  0  0  0  0  0  0  0  0  0
    3.7321    1.9650    0.0000 H   0  0  0  0  0  0  0  0  0  0  0  0
    3.1121    1.3450    0.0000 H   0  0  0  0  0  0  0  0  0  0  0  0
    5.4641    0.9650    0.0000 H   0  0  0  0  0  0  0  0  0  0  0  0
    3.4221   -1.1181    0.0000 H   0  0  0  0  0  0  0  0  0  0  0  0
    3.1951   -1.9650    0.0000 H   0  0  0  0  0  0  0  0  0  0  0  0
    4.0421   -2.1919    0.0000 H   0  0  0  0  0  0  0  0  0  0  0  0
    8.5991    0.1550    0.0000 H   0  0  0  0  0  0  0  0  0  0  0  0
    8.0622   -0.7750    0.0000 H   0  0  0  0  0  0  0  0  0  0  0  0
    7.7331    1.6550    0.0000 H   0  0  0  0  0  0  0  0  0  0  0  0
  1  5  1  0  0  0  0
  2  5  2  0  0  0  0
  3 15  1  0  0  0  0
  3 28  1  0  0  0  0
  4  6  2  0  0  0  0
  5  8  1  0  0  0  0
  6 14  1  0  0  0  0
  7 15  1  0  0  0  0
  7 26  1  0  0  0  0
  7 27  1  0  0  0  0
  8  9  1  0  0  0  0
  8 11  1  0  0  0  0
  8 16  1  0  0  0  0
  9 10  1  0  0  0  0
  9 12  2  3  0  0  0
 10 13  1  0  0  0  0
 10 17  1  0  0  0  0
 10 18  1  0  0  0  0
 11 19  1  0  0  0  0
 11 20  1  0  0  0  0
 11 21  1  0  0  0  0
 12 14  1  0  0  0  0
 12 22  1  0  0  0  0
 13 23  1  0  0  0  0
 13 24  1  0  0  0  0
 13 25  1  0  0  0  0
 14 15  2  3  0  0  0
M  CHG  2   1  -1   5   1
M  END
> <PUBCHEM_COMPOUND_CID>
4531

> <PUBCHEM_COMPOUND_CANONICALIZED>
1

> <PUBCHEM_CACTVS_COMPLEXITY>
316

> <PUBCHEM_CACTVS_HBOND_ACCEPTOR>
6

> <PUBCHEM_CACTVS_HBOND_DONOR>
2

> <PUBCHEM_CACTVS_ROTATABLE_BOND>
3

> <PUBCHEM_CACTVS_SUBSKEYS>
AAADccBzOAAAAAAAAAAAAAAAAAAAAAAAAAAAAAAAAAAAAAAAAAAAHgAUCAAADCjBgAQCAABQQgCBAiRCQwCAAAAgIAAgCAAAAAkIAAIAgQAAAAAAAAAIgAIAAAAAAAAAAAAAAAAAAAAAAAAAAAAAAAAAAA==

> <PUBCHEM_IUPAC_OPENEYE_NAME>
1-amino-4-ethyl-5-nitro-2-nitroso-hexa-1,3-dien-1-ol

> <PUBCHEM_IUPAC_CAS_NAME>
1-amino-4-ethyl-5-nitro-2-nitroso-1-hexa-1,3-dienol

> <PUBCHEM_IUPAC_NAME>
1-amino-4-ethyl-5-nitro-2-nitrosohexa-1,3-dien-1-ol

> <PUBCHEM_IUPAC_SYSTEMATIC_NAME>
1-azanyl-4-ethyl-5-nitro-2-nitroso-hexa-1,3-dien-1-ol

> <PUBCHEM_IUPAC_TRADITIONAL_NAME>
1-amino-4-ethyl-5-nitro-2-nitroso-hexa-1,3-dien-1-ol

> <PUBCHEM_IUPAC_INCHI>
InChI=1S/C8H13N3O4/c1-3-6(5(2)11(14)15)4-7(10-13)8(9)12/h4-5,12H,3,9H2,1-2H3

> <PUBCHEM_IUPAC_INCHIKEY>
QPKQIUIFWXZRJZ-UHFFFAOYSA-N

> <PUBCHEM_XLOGP3_AA>
1.5

> <PUBCHEM_EXACT_MASS>
215.090606

> <PUBCHEM_MOLECULAR_FORMULA>
C8H13N3O4

> <PUBCHEM_MOLECULAR_WEIGHT>
215.20652

> <PUBCHEM_OPENEYE_CAN_SMILES>
CCC(=CC(=C(N)O)N=O)C(C)[N+](=O)[O-]

> <PUBCHEM_OPENEYE_ISO_SMILES>
CCC(=CC(=C(N)O)N=O)C(C)[N+](=O)[O-]

> <PUBCHEM_CACTVS_TPSA>
122

> <PUBCHEM_MONOISOTOPIC_WEIGHT>
215.090606

> <PUBCHEM_TOTAL_CHARGE>
0

> <PUBCHEM_HEAVY_ATOM_COUNT>
15

> <PUBCHEM_ATOM_DEF_STEREO_COUNT>
0

> <PUBCHEM_ATOM_UDEF_STEREO_COUNT>
1

> <PUBCHEM_BOND_DEF_STEREO_COUNT>
0

> <PUBCHEM_BOND_UDEF_STEREO_COUNT>
2

> <PUBCHEM_ISOTOPIC_ATOM_COUNT>
0

> <PUBCHEM_COMPONENT_COUNT>
1

> <PUBCHEM_CACTVS_TAUTO_COUNT>
10

> <PUBCHEM_COORDINATE_TYPE>
1
5
255

> <PUBCHEM_BONDANNOTATIONS>
14  15  1
8  11  3
9  12  1

$$$$

