582843
  -OEChem-06241222443D

 23 24  0     1  0  0  0  0  0999 V2000
    1.2281   -1.1744    1.6248 F   0  0  0  0  0  0  0  0  0  0  0  0
    0.0836    1.0603    2.0642 F   0  0  0  0  0  0  0  0  0  0  0  0
   -0.4911   -2.6901   -0.0256 F   0  0  0  0  0  0  0  0  0  0  0  0
   -1.2856   -1.5276    1.6320 F   0  0  0  0  0  0  0  0  0  0  0  0
    2.2180   -1.8356   -0.7249 F   0  0  0  0  0  0  0  0  0  0  0  0
    1.0167   -0.3671   -1.7788 F   0  0  0  0  0  0  0  0  0  0  0  0
   -0.2653    1.5912   -1.3934 F   0  0  0  0  0  0  0  0  0  0  0  0
   -0.9246    2.7491    0.3166 F   0  0  0  0  0  0  0  0  0  0  0  0
   -1.3438   -0.7963   -1.7985 F   0  0  0  0  0  0  0  0  0  0  0  0
   -2.9212   -1.4384   -0.4523 F   0  0  0  0  0  0  0  0  0  0  0  0
   -2.5133    0.7197    1.1583 F   0  0  0  0  0  0  0  0  0  0  0  0
   -2.8897    1.2666   -0.9143 F   0  0  0  0  0  0  0  0  0  0  0  0
    3.3733    0.0301    0.7740 F   0  0  0  0  0  0  0  0  0  0  0  0
    3.1804    0.9899   -1.1788 F   0  0  0  0  0  0  0  0  0  0  0  0
    1.6625    1.4546    0.4682 O   0  0  0  0  0  0  0  0  0  0  0  0
    0.5738   -0.6605    0.5341 C   0  0  2  0  0  0  0  0  0  0  0  0
    0.3911    0.8424    0.7587 C   0  0  1  0  0  0  0  0  0  0  0  0
   -0.7285   -1.4246    0.3893 C   0  0  0  0  0  0  0  0  0  0  0  0
    1.5777   -0.6643   -0.5903 C   0  0  0  0  0  0  0  0  0  0  0  0
   -0.6920    1.4826   -0.1093 C   0  0  0  0  0  0  0  0  0  0  0  0
   -1.7525   -0.7537   -0.5081 C   0  0  0  0  0  0  0  0  0  0  0  0
   -1.9836    0.6886   -0.0906 C   0  0  0  0  0  0  0  0  0  0  0  0
    2.4862    0.4574   -0.1553 C   0  0  0  0  0  0  0  0  0  0  0  0
  1 16  1  0  0  0  0
  2 17  1  0  0  0  0
  3 18  1  0  0  0  0
  4 18  1  0  0  0  0
  5 19  1  0  0  0  0
  6 19  1  0  0  0  0
  7 20  1  0  0  0  0
  8 20  1  0  0  0  0
  9 21  1  0  0  0  0
 10 21  1  0  0  0  0
 11 22  1  0  0  0  0
 12 22  1  0  0  0  0
 13 23  1  0  0  0  0
 14 23  1  0  0  0  0
 15 17  1  0  0  0  0
 15 23  1  0  0  0  0
 16 17  1  0  0  0  0
 16 18  1  0  0  0  0
 16 19  1  0  0  0  0
 17 20  1  0  0  0  0
 18 21  1  0  0  0  0
 19 23  1  0  0  0  0
 20 22  1  0  0  0  0
 21 22  1  0  0  0  0
M  END
> <PUBCHEM_COMPOUND_CID>
582843

> <PUBCHEM_CONFORMER_RMSD>
0.6

> <PUBCHEM_CONFORMER_DIVERSEORDER>
1
3
4
2
5
6

> <PUBCHEM_MMFF94_PARTIAL_CHARGES>
23
1 -0.34
10 -0.34
11 -0.34
12 -0.34
13 -0.34
14 -0.34
15 -0.56
16 0.34
17 0.62
18 0.68
19 0.68
2 -0.34
20 0.68
21 0.68
22 0.68
23 0.96
3 -0.34
4 -0.34
5 -0.34
6 -0.34
7 -0.34
8 -0.34
9 -0.34

> <PUBCHEM_EFFECTIVE_ROTOR_COUNT>
1.4

> <PUBCHEM_PHARMACOPHORE_FEATURES>
3
1 15 acceptor
5 15 16 17 19 23 rings
6 16 17 18 20 21 22 rings

> <PUBCHEM_HEAVY_ATOM_COUNT>
23

> <PUBCHEM_ATOM_DEF_STEREO_COUNT>
0

> <PUBCHEM_ATOM_UDEF_STEREO_COUNT>
2

> <PUBCHEM_BOND_DEF_STEREO_COUNT>
0

> <PUBCHEM_BOND_UDEF_STEREO_COUNT>
0

> <PUBCHEM_ISOTOPIC_ATOM_COUNT>
0

> <PUBCHEM_COMPONENT_COUNT>
1

> <PUBCHEM_CACTVS_TAUTO_COUNT>
1

> <PUBCHEM_CONFORMER_ID>
0008E4BB00000001

> <PUBCHEM_MMFF94_ENERGY>
35.0512

> <PUBCHEM_FEATURE_SELFOVERLAP>
15.373

> <PUBCHEM_SHAPE_FINGERPRINT>
10863032 1 18412548725288665735
10948715 1 18060142093223274285
12423570 1 7378294111314636282
12491281 212 17822556304920512025
13024252 1 15051731941417785864
13140716 1 18338800129770406723
13172582 1 18271800198872798217
13299463 15 18259990335814938432
141345 1 9190977370747572275
144361 1 18114467764334192555
14817 1 14317988623456920281
15775835 57 18201163251151530781
16945 1 18334853918050446768
19868273 325 18265325110630623388
20525323 117 18335704918707202336
21501502 16 18408037420716884374
22344851 341 18192157202985072018
22802520 49 18335128825974689158
2334 1 18411421691668920227
23402539 116 18263099728939444239
23419403 2 16738370584966622107
23559900 14 18335426760305230432
2748010 2 18410573985362629631
353137 74 18343304794428353356
528886 8 18341901800437633945

> <PUBCHEM_SHAPE_MULTIPOLES>
365.63
3.68
2.16
1.47
0.98
0.04
-0.1
-0.2
0.58
-0.58
-0.08
0.03
0.04
0.02

> <PUBCHEM_SHAPE_SELFOVERLAP>
839.7

> <PUBCHEM_SHAPE_VOLUME>
186.9

> <PUBCHEM_COORDINATE_TYPE>
2
5
10

$$$$

