17396006
  -OEChem-06241222533D

 35 36  0     0  0  0  0  0  0999 V2000
   -6.5222   -3.1889   -0.1398 Cl  0  0  0  0  0  0  0  0  0  0  0  0
    7.5929   -0.4958   -0.3180 F   0  0  0  0  0  0  0  0  0  0  0  0
    6.1136   -1.8956   -1.0967 F   0  0  0  0  0  0  0  0  0  0  0  0
    5.7748    0.2579   -1.2564 F   0  0  0  0  0  0  0  0  0  0  0  0
    0.9098    0.5997    0.3460 O   0  0  0  0  0  0  0  0  0  0  0  0
   -0.8180   -0.9056    0.2751 O   0  0  0  0  0  0  0  0  0  0  0  0
    3.5071    1.2707    0.5700 O   0  0  0  0  0  0  0  0  0  0  0  0
   -3.0842    2.6567   -0.1917 N   0  0  0  0  0  0  0  0  0  0  0  0
    4.1652   -0.9519    0.7627 N   0  0  0  0  0  0  0  0  0  0  0  0
   -2.0753    3.5437   -0.1507 N   0  0  0  0  0  0  0  0  0  0  0  0
   -2.6829    1.3593   -0.0640 C   0  0  0  0  0  0  0  0  0  0  0  0
   -3.6125    0.2571   -0.0826 C   0  0  0  0  0  0  0  0  0  0  0  0
   -1.3164    1.4006    0.0698 C   0  0  0  0  0  0  0  0  0  0  0  0
   -0.9981    2.7705    0.0090 C   0  0  0  0  0  0  0  0  0  0  0  0
   -3.7081   -0.5933    1.0190 C   0  0  0  0  0  0  0  0  0  0  0  0
   -4.4166    0.0418   -1.2017 C   0  0  0  0  0  0  0  0  0  0  0  0
   -0.4194    0.2540    0.2366 C   0  0  0  0  0  0  0  0  0  0  0  0
    1.8294   -0.4590    0.5094 C   0  0  0  0  0  0  0  0  0  0  0  0
    5.5864   -0.7221    0.8854 C   0  0  0  0  0  0  0  0  0  0  0  0
    3.2430    0.0723    0.6147 C   0  0  0  0  0  0  0  0  0  0  0  0
   -4.6077   -1.6589    1.0014 C   0  0  0  0  0  0  0  0  0  0  0  0
   -5.3162   -1.0240   -1.2195 C   0  0  0  0  0  0  0  0  0  0  0  0
   -5.4117   -1.8744   -0.1179 C   0  0  0  0  0  0  0  0  0  0  0  0
    6.2670   -0.7149   -0.4602 C   0  0  0  0  0  0  0  0  0  0  0  0
   -4.0257    3.0108   -0.3087 H   0  0  0  0  0  0  0  0  0  0  0  0
   -0.0283    3.2434    0.0739 H   0  0  0  0  0  0  0  0  0  0  0  0
   -3.0975   -0.4364    1.9052 H   0  0  0  0  0  0  0  0  0  0  0  0
   -4.3541    0.6921   -2.0712 H   0  0  0  0  0  0  0  0  0  0  0  0
    5.9933   -1.5221    1.5114 H   0  0  0  0  0  0  0  0  0  0  0  0
    5.7535    0.2317    1.3962 H   0  0  0  0  0  0  0  0  0  0  0  0
    1.7768   -1.1331   -0.3535 H   0  0  0  0  0  0  0  0  0  0  0  0
    1.5995   -1.0129    1.4271 H   0  0  0  0  0  0  0  0  0  0  0  0
    3.8393   -1.9141    0.7787 H   0  0  0  0  0  0  0  0  0  0  0  0
   -4.6730   -2.3123    1.8677 H   0  0  0  0  0  0  0  0  0  0  0  0
   -5.9360   -1.1803   -2.0987 H   0  0  0  0  0  0  0  0  0  0  0  0
  1 23  1  0  0  0  0
  2 24  1  0  0  0  0
  3 24  1  0  0  0  0
  4 24  1  0  0  0  0
  5 17  1  0  0  0  0
  5 18  1  0  0  0  0
  6 17  2  0  0  0  0
  7 20  2  0  0  0  0
  8 10  1  0  0  0  0
  8 11  1  0  0  0  0
  8 25  1  0  0  0  0
  9 19  1  0  0  0  0
  9 20  1  0  0  0  0
  9 33  1  0  0  0  0
 10 14  2  0  0  0  0
 11 12  1  0  0  0  0
 11 13  2  0  0  0  0
 12 15  2  0  0  0  0
 12 16  1  0  0  0  0
 13 14  1  0  0  0  0
 13 17  1  0  0  0  0
 14 26  1  0  0  0  0
 15 21  1  0  0  0  0
 15 27  1  0  0  0  0
 16 22  2  0  0  0  0
 16 28  1  0  0  0  0
 18 20  1  0  0  0  0
 18 31  1  0  0  0  0
 18 32  1  0  0  0  0
 19 24  1  0  0  0  0
 19 29  1  0  0  0  0
 19 30  1  0  0  0  0
 21 23  2  0  0  0  0
 21 34  1  0  0  0  0
 22 23  1  0  0  0  0
 22 35  1  0  0  0  0
M  END
> <PUBCHEM_COMPOUND_CID>
17396006

> <PUBCHEM_CONFORMER_RMSD>
1

> <PUBCHEM_CONFORMER_DIVERSEORDER>
1
43
98
91
20
13
64
61
55
81
3
78
85
88
2
49
41
93
69
37
32
57
9
82
99
109
30
75
53
56
106
31
7
48
100
95
6
36
67
71
23
97
110
60
12
77
72
73
38
80
94
66
14
62
15
18
54
70
96
5
59
52
26
105
76
83
103
10
68
65
42
25
39
33
24
51
47
8
104
107
74
101
17
44
21
22
87
34
35
79
90
50
92
40
45
58
63
11
89
84
4
19
28
108
29
46
102
16
86
111
27

> <PUBCHEM_MMFF94_PARTIAL_CHARGES>
31
1 -0.18
10 -0.71
11 -0.2
12 0.05
13 -0.09
14 0.14
15 -0.15
16 -0.15
17 0.81
18 0.34
19 0.3
2 -0.34
20 0.57
21 -0.15
22 -0.15
23 0.18
24 1.02
25 0.27
26 0.15
27 0.15
28 0.15
3 -0.34
33 0.37
34 0.15
35 0.15
4 -0.34
5 -0.43
6 -0.57
7 -0.57
8 0.3
9 -0.73

> <PUBCHEM_EFFECTIVE_ROTOR_COUNT>
8

> <PUBCHEM_PHARMACOPHORE_FEATURES>
7
1 10 acceptor
1 6 acceptor
1 7 acceptor
1 8 donor
1 9 donor
5 8 10 11 13 14 rings
6 12 15 16 21 22 23 rings

> <PUBCHEM_HEAVY_ATOM_COUNT>
24

> <PUBCHEM_ATOM_DEF_STEREO_COUNT>
0

> <PUBCHEM_ATOM_UDEF_STEREO_COUNT>
0

> <PUBCHEM_BOND_DEF_STEREO_COUNT>
0

> <PUBCHEM_BOND_UDEF_STEREO_COUNT>
0

> <PUBCHEM_ISOTOPIC_ATOM_COUNT>
0

> <PUBCHEM_COMPONENT_COUNT>
1

> <PUBCHEM_CACTVS_TAUTO_COUNT>
6

> <PUBCHEM_CONFORMER_ID>
0109712600000001

> <PUBCHEM_MMFF94_ENERGY>
36.9219

> <PUBCHEM_FEATURE_SELFOVERLAP>
35.52

> <PUBCHEM_SHAPE_FINGERPRINT>
10 15 7060371565520792111
10411042 1 18339361847806503593
10595046 47 18272367599219271152
10912923 1 17703229637185365416
11056379 131 18339359772588440649
11089746 13 14045739314377325470
11101153 10 18343014459288110916
11315181 36 17917991680707096848
11524674 6 16370728119249226039
11963148 33 18409175393772794854
12166972 35 17775003449221481877
12616971 3 4967599590744436680
12760667 363 18413106135420110035
13288520 33 18409731759867047465
13631057 29 18341897398154230123
13673619 4 17968096395578094377
13782708 43 18040719168984822670
14117953 113 18334862685039229711
14123256 34 18333730191238930322
14251764 18 7709456126148744433
14251764 30 18187363190612082971
14347332 77 18410574002706042164
14508225 48 18272098175705269229
14556957 393 17275095154609126453
14931854 50 17775017760722957427
15021287 119 14057008217118123482
15250474 111 17986123009175507338
1577012 14 17988640861460554800
16079462 125 12103841250937537926
16087824 20 18268435814991960749
17844677 252 18113338626623870040
18927931 339 18410572903336702847
19427546 20 18272091651491612997
20281389 69 8790882990776414374
21054139 6 18131353029438771306
21150785 3 17775003462465144350
21267235 1 18340768148821879275
21344244 246 17915173503598871436
21424621 283 10663556914860420303
21623969 137 17022618702455465822
2297311 6 18410573985420522059
2303208 19 17748827453804326862
23081809 10 17775002453532575064
23402539 116 18411987966243364409
23522609 53 18121184715371453008
23559900 14 18272376334318179305
300161 21 10807939266796671440
3004659 81 17917438588104429635
335352 9 18341057380894531685
4938544 92 17313373587327079225
497634 4 18060140984995053244
5104073 3 18334305287597405016
636775 8 18340761568552634910
7970288 3 18338240349935989699

> <PUBCHEM_SHAPE_MULTIPOLES>
441.41
18.28
2.98
1.02
25.98
1.75
-0.12
-15.48
-3.9
-4.5
-0.15
0.03
-0.28
0.54

> <PUBCHEM_SHAPE_SELFOVERLAP>
933.287

> <PUBCHEM_SHAPE_VOLUME>
249

> <PUBCHEM_COORDINATE_TYPE>
2
5
10

$$$$

