13361
  -OEChem-06261209202D

 13 12  0     0  0  0  0  0  0999 V2000
    3.7321   -0.3170    0.0000 P   0  0  0  0  0  0  0  0  0  0  0  0
    4.5981    0.1830    0.0000 O   0  0  0  0  0  0  0  0  0  0  0  0
    2.8660   -0.8170    0.0000 O   0  0  0  0  0  0  0  0  0  0  0  0
    4.2321   -1.1830    0.0000 O   0  0  0  0  0  0  0  0  0  0  0  0
    4.5981    1.1830    0.0000 C   0  0  0  0  0  0  0  0  0  0  0  0
    2.0000   -0.3170    0.0000 C   0  0  0  0  0  0  0  0  0  0  0  0
    3.4221    0.2199    0.0000 H   0  0  0  0  0  0  0  0  0  0  0  0
    5.2181    1.1830    0.0000 H   0  0  0  0  0  0  0  0  0  0  0  0
    4.5981    1.8030    0.0000 H   0  0  0  0  0  0  0  0  0  0  0  0
    3.9781    1.1830    0.0000 H   0  0  0  0  0  0  0  0  0  0  0  0
    2.3100    0.2199    0.0000 H   0  0  0  0  0  0  0  0  0  0  0  0
    1.4631   -0.0070    0.0000 H   0  0  0  0  0  0  0  0  0  0  0  0
    1.6900   -0.8539    0.0000 H   0  0  0  0  0  0  0  0  0  0  0  0
  1  2  1  0  0  0  0
  1  3  1  0  0  0  0
  1  4  2  0  0  0  0
  1  7  1  0  0  0  0
  2  5  1  0  0  0  0
  3  6  1  0  0  0  0
  5  8  1  0  0  0  0
  5  9  1  0  0  0  0
  5 10  1  0  0  0  0
  6 11  1  0  0  0  0
  6 12  1  0  0  0  0
  6 13  1  0  0  0  0
M  END
> <PUBCHEM_COMPOUND_CID>
13361

> <PUBCHEM_COMPOUND_CANONICALIZED>
1

> <PUBCHEM_CACTVS_COMPLEXITY>
46.8

> <PUBCHEM_CACTVS_HBOND_ACCEPTOR>
3

> <PUBCHEM_CACTVS_HBOND_DONOR>
0

> <PUBCHEM_CACTVS_ROTATABLE_BOND>
2

> <PUBCHEM_CACTVS_SUBSKEYS>
AAADcYBAMAIAAAAAAAAAAAAAAAAAAAAAAAAAAAAAAAAAAAAAAAAAEgAAACAQAAAAAAICAAAAARAAQAAAAIAAAAAAAAAAAAAAAAAAAAAAAAAAAAAAAAAAAAAAAAAAAAAAAAAAAAAAAAAAAAAAAAAAAAAAAA==

> <PUBCHEM_IUPAC_OPENEYE_NAME>
methoxyphosphonoyloxymethane

> <PUBCHEM_IUPAC_CAS_NAME>
methoxyphosphonoyloxymethane

> <PUBCHEM_IUPAC_NAME>
methoxyphosphonoyloxymethane

> <PUBCHEM_IUPAC_SYSTEMATIC_NAME>
methoxyphosphonoyloxymethane

> <PUBCHEM_IUPAC_TRADITIONAL_NAME>
methoxyphosphonoyloxymethane

> <PUBCHEM_IUPAC_INCHI>
InChI=1S/C2H7O3P/c1-4-6(3)5-2/h6H,1-2H3

> <PUBCHEM_IUPAC_INCHIKEY>
HZCDANOFLILNSA-UHFFFAOYSA-N

> <PUBCHEM_XLOGP3_AA>
-0.5

> <PUBCHEM_EXACT_MASS>
110.013281

> <PUBCHEM_MOLECULAR_FORMULA>
C2H7O3P

> <PUBCHEM_MOLECULAR_WEIGHT>
110.048942

> <PUBCHEM_OPENEYE_CAN_SMILES>
COP(=O)OC

> <PUBCHEM_OPENEYE_ISO_SMILES>
COP(=O)OC

> <PUBCHEM_CACTVS_TPSA>
35.5

> <PUBCHEM_MONOISOTOPIC_WEIGHT>
110.013281

> <PUBCHEM_TOTAL_CHARGE>
0

> <PUBCHEM_HEAVY_ATOM_COUNT>
6

> <PUBCHEM_ATOM_DEF_STEREO_COUNT>
0

> <PUBCHEM_ATOM_UDEF_STEREO_COUNT>
0

> <PUBCHEM_BOND_DEF_STEREO_COUNT>
0

> <PUBCHEM_BOND_UDEF_STEREO_COUNT>
0

> <PUBCHEM_ISOTOPIC_ATOM_COUNT>
0

> <PUBCHEM_COMPONENT_COUNT>
1

> <PUBCHEM_CACTVS_TAUTO_COUNT>
2

> <PUBCHEM_COORDINATE_TYPE>
1
5
255

$$$$

