17395903
  -OEChem-06241222533D

 48 49  0     1  0  0  0  0  0999 V2000
    6.4108   -1.4752    0.8550 Cl  0  0  0  0  0  0  0  0  0  0  0  0
   -6.1208   -0.9934    1.4105 O   0  0  0  0  0  0  0  0  0  0  0  0
    0.2775    1.5017    1.4761 O   0  0  0  0  0  0  0  0  0  0  0  0
    2.8734   -0.2350   -2.5505 O   0  0  0  0  0  0  0  0  0  0  0  0
   -2.1663    1.1047   -0.0118 N   0  0  0  0  0  0  0  0  0  0  0  0
    1.1463    0.8355   -0.6002 N   0  0  0  0  0  0  0  0  0  0  0  0
   -5.8012   -2.7176   -0.0792 N   0  0  0  0  0  0  0  0  0  0  0  0
   -4.4039   -0.7641   -0.2344 C   0  0  0  0  0  0  0  0  0  0  0  0
   -4.6100    0.7470   -0.1484 C   0  0  0  0  0  0  0  0  0  0  0  0
   -3.0758   -1.1570    0.4101 C   0  0  0  0  0  0  0  0  0  0  0  0
   -3.4010    1.5039   -0.7013 C   0  0  0  0  0  0  0  0  0  0  0  0
   -1.9179   -0.3360   -0.1601 C   0  0  0  0  0  0  0  0  0  0  0  0
   -1.0283    1.8744   -0.5140 C   0  0  1  0  0  0  0  0  0  0  0  0
   -5.5260   -1.4796    0.4519 C   0  0  0  0  0  0  0  0  0  0  0  0
   -1.2804    3.3627   -0.3030 C   0  0  0  0  0  0  0  0  0  0  0  0
    0.1998    1.3938    0.2554 C   0  0  0  0  0  0  0  0  0  0  0  0
    2.4040    0.2857   -0.2558 C   0  0  0  0  0  0  0  0  0  0  0  0
    3.2428   -0.2401   -1.2385 C   0  0  0  0  0  0  0  0  0  0  0  0
    2.8013    0.2713    1.0811 C   0  0  0  0  0  0  0  0  0  0  0  0
    4.0375   -0.2690    1.4354 C   0  0  0  0  0  0  0  0  0  0  0  0
    4.4791   -0.7803   -0.8842 C   0  0  0  0  0  0  0  0  0  0  0  0
    4.8763   -0.7948    0.4529 C   0  0  0  0  0  0  0  0  0  0  0  0
    4.4261   -0.2661    2.8787 C   0  0  0  0  0  0  0  0  0  0  0  0
    2.1567   -1.3726   -3.0256 C   0  0  0  0  0  0  0  0  0  0  0  0
   -4.3881   -1.0513   -1.2944 H   0  0  0  0  0  0  0  0  0  0  0  0
   -5.5110    1.0343   -0.7045 H   0  0  0  0  0  0  0  0  0  0  0  0
   -4.7751    1.0590    0.8917 H   0  0  0  0  0  0  0  0  0  0  0  0
   -3.1256   -1.0142    1.4983 H   0  0  0  0  0  0  0  0  0  0  0  0
   -2.8800   -2.2244    0.2491 H   0  0  0  0  0  0  0  0  0  0  0  0
   -3.3214    1.3327   -1.7830 H   0  0  0  0  0  0  0  0  0  0  0  0
   -3.6269    2.5640   -0.5513 H   0  0  0  0  0  0  0  0  0  0  0  0
   -1.7662   -0.6003   -1.2153 H   0  0  0  0  0  0  0  0  0  0  0  0
   -1.0286   -0.6637    0.3883 H   0  0  0  0  0  0  0  0  0  0  0  0
   -0.8912    1.7034   -1.5899 H   0  0  0  0  0  0  0  0  0  0  0  0
   -1.6679    3.5774    0.7000 H   0  0  0  0  0  0  0  0  0  0  0  0
   -0.3402    3.9190   -0.3992 H   0  0  0  0  0  0  0  0  0  0  0  0
   -1.9670    3.7809   -1.0457 H   0  0  0  0  0  0  0  0  0  0  0  0
    0.9355    0.8121   -1.5951 H   0  0  0  0  0  0  0  0  0  0  0  0
   -6.5385   -3.2979    0.3069 H   0  0  0  0  0  0  0  0  0  0  0  0
   -5.2852   -3.1011   -0.8644 H   0  0  0  0  0  0  0  0  0  0  0  0
    2.1982    0.6632    1.8865 H   0  0  0  0  0  0  0  0  0  0  0  0
    5.1272   -1.1878   -1.6568 H   0  0  0  0  0  0  0  0  0  0  0  0
    4.5781   -1.2896    3.2372 H   0  0  0  0  0  0  0  0  0  0  0  0
    5.3438    0.3124    3.0281 H   0  0  0  0  0  0  0  0  0  0  0  0
    3.6555    0.1852    3.5132 H   0  0  0  0  0  0  0  0  0  0  0  0
    2.7796   -2.2703   -2.9603 H   0  0  0  0  0  0  0  0  0  0  0  0
    1.2318   -1.5163   -2.4581 H   0  0  0  0  0  0  0  0  0  0  0  0
    1.8995   -1.2016   -4.0745 H   0  0  0  0  0  0  0  0  0  0  0  0
  1 22  1  0  0  0  0
  2 14  2  0  0  0  0
  3 16  2  0  0  0  0
  4 18  1  0  0  0  0
  4 24  1  0  0  0  0
  5 11  1  0  0  0  0
  5 12  1  0  0  0  0
  5 13  1  0  0  0  0
  6 16  1  0  0  0  0
  6 17  1  0  0  0  0
  6 38  1  0  0  0  0
  7 14  1  0  0  0  0
  7 39  1  0  0  0  0
  7 40  1  0  0  0  0
  8  9  1  0  0  0  0
  8 10  1  0  0  0  0
  8 14  1  0  0  0  0
  8 25  1  0  0  0  0
  9 11  1  0  0  0  0
  9 26  1  0  0  0  0
  9 27  1  0  0  0  0
 10 12  1  0  0  0  0
 10 28  1  0  0  0  0
 10 29  1  0  0  0  0
 11 30  1  0  0  0  0
 11 31  1  0  0  0  0
 12 32  1  0  0  0  0
 12 33  1  0  0  0  0
 13 15  1  0  0  0  0
 13 16  1  0  0  0  0
 13 34  1  0  0  0  0
 15 35  1  0  0  0  0
 15 36  1  0  0  0  0
 15 37  1  0  0  0  0
 17 18  2  0  0  0  0
 17 19  1  0  0  0  0
 18 21  1  0  0  0  0
 19 20  2  0  0  0  0
 19 41  1  0  0  0  0
 20 22  1  0  0  0  0
 20 23  1  0  0  0  0
 21 22  2  0  0  0  0
 21 42  1  0  0  0  0
 23 43  1  0  0  0  0
 23 44  1  0  0  0  0
 23 45  1  0  0  0  0
 24 46  1  0  0  0  0
 24 47  1  0  0  0  0
 24 48  1  0  0  0  0
M  END
> <PUBCHEM_COMPOUND_CID>
17395903

> <PUBCHEM_CONFORMER_RMSD>
0.8

> <PUBCHEM_CONFORMER_DIVERSEORDER>
1
241
262
204
265
149
10
239
281
57
192
169
122
164
56
172
157
115
128
186
52
163
84
82
89
55
67
19
275
159
90
100
189
130
125
238
232
167
99
171
205
196
123
83
187
113
181
70
119
165
252
26
62
268
142
195
110
144
28
153
223
80
231
199
126
85
198
201
274
246
135
107
233
260
139
222
176
124
88
236
216
61
230
191
98
76
220
73
24
180
72
54
207
133
33
41
105
251
156
202
234
206
111
240
23
160
249
218
86
168
103
170
197
273
59
271
132
212
155
6
255
188
30
22
277
247
227
106
213
31
21
53
263
243
36
87
253
39
193
245
74
29
235
217
174
148
162
146
9
143
25
224
35
261
272
48
158
269
175
244
147
221
270
92
71
78
120
129
228
95
166
108
226
173
117
178
254
49
154
46
101
151
47
14
200
45
219
16
267
104
229
60
121
81
225
94
278
136
209
65
69
145
15
75
211
44
214
150
264
64
34
79
12
210
91
127
68
17
40
66
138
102
63
96
208
2
177
258
58
109
3
134
4
250
183
5
118
27
7
32
279
215
112
140
194
182
259
43
179
141
114
276
184
116
266
280
20
237
97
77
51
203
256
11
18
38
242
42
152
248
93
13
185
8
131
161
257
37
137
50
190

> <PUBCHEM_MMFF94_PARTIAL_CHARGES>
26
1 -0.18
11 0.27
12 0.27
13 0.33
14 0.57
16 0.57
17 0.12
18 0.08
19 -0.15
2 -0.57
20 -0.14
21 -0.15
22 0.18
23 0.14
24 0.28
3 -0.57
38 0.37
39 0.37
4 -0.36
40 0.37
41 0.15
42 0.15
5 -0.81
6 -0.55
7 -0.8
8 0.06

> <PUBCHEM_EFFECTIVE_ROTOR_COUNT>
7.2

> <PUBCHEM_PHARMACOPHORE_FEATURES>
8
1 2 acceptor
1 3 acceptor
1 4 acceptor
1 5 cation
1 6 donor
1 7 donor
6 17 18 19 20 21 22 rings
6 5 8 9 10 11 12 rings

> <PUBCHEM_HEAVY_ATOM_COUNT>
24

> <PUBCHEM_ATOM_DEF_STEREO_COUNT>
0

> <PUBCHEM_ATOM_UDEF_STEREO_COUNT>
1

> <PUBCHEM_BOND_DEF_STEREO_COUNT>
0

> <PUBCHEM_BOND_UDEF_STEREO_COUNT>
0

> <PUBCHEM_ISOTOPIC_ATOM_COUNT>
0

> <PUBCHEM_COMPONENT_COUNT>
1

> <PUBCHEM_CACTVS_TAUTO_COUNT>
4

> <PUBCHEM_CONFORMER_ID>
010970BF00000001

> <PUBCHEM_MMFF94_ENERGY>
70.8876

> <PUBCHEM_FEATURE_SELFOVERLAP>
40.594

> <PUBCHEM_SHAPE_FINGERPRINT>
10622 236 16986900014416980018
11796584 16 18198912589688691314
12035758 1 17023200348855362746
12166972 35 17275102825452416750
12236239 1 17632577193095382652
12363563 72 18412258415691022461
12596602 18 17989209257115983412
12633257 1 16878236281065857934
12892183 10 16588013624473432033
13402501 40 18040149634730583462
13583140 156 18046374047892030136
13862211 1 18341333306256758235
14386348 63 18040713701137657092
14528608 73 12823302252245706803
15183329 4 15769785671095845791
15342816 4 18272929397388559221
17349148 13 17632574997960899760
1813 80 18338224991011171933
18681886 176 18131633387960867946
19784866 240 17561364006412195638
1979834 28 17240756264023079238
200 152 16773795947992484476
20374829 77 18412544310563510213
20403669 9 18409161087436087415
20626108 58 18202284697319933468
21054139 6 17703512181529921986
21065201 7 18192997238870194372
21623969 137 17385726898052324438
21728266 224 18059584623479207000
221357 26 14261359063005550358
23522609 53 17984948623963407261
23557571 272 18334571395107088293
23559900 14 18117553153250185852
2748736 6 6987503546379570035
3004659 81 17561085804105638562
312425 54 17385433324569900987
3178227 256 17022906762065544170
351380 3 18131071528122434147
392239 28 16515697640744511558
4340502 62 16008745784129049862
439807 62 17203605953066283091
465052 167 18260832596830652570
5104073 3 18334297573699172960
7471813 234 17131547336593984828
7970288 3 18342742867147173475
86090 222 17605250991355103406
9658208 31 17611168743572378065

> <PUBCHEM_SHAPE_MULTIPOLES>
463.23
14.57
2.33
2.07
4.93
1.02
0.75
-10.78
-4.35
3.36
0.05
-3.5
-0.64
0.57

> <PUBCHEM_SHAPE_SELFOVERLAP>
953.796

> <PUBCHEM_SHAPE_VOLUME>
266.8

> <PUBCHEM_COORDINATE_TYPE>
2
5
10

$$$$

