4313
  -OEChem-06261200022D

 73 78  0     1  0  0  0  0  0999 V2000
    4.6596   -0.4819    0.0000 O   0  0  0  0  0  0  0  0  0  0  0  0
    4.8959   -3.0587    0.0000 O   0  0  0  0  0  0  0  0  0  0  0  0
    2.6062   -0.8637    0.0000 O   0  0  0  0  0  0  0  0  0  0  0  0
    6.0764   -3.5511    0.0000 O   0  0  0  0  0  0  0  0  0  0  0  0
   10.3289   -2.5939    0.0000 O   0  0  0  0  0  0  0  0  0  0  0  0
    8.9254   -5.7610    0.0000 O   0  0  0  0  0  0  0  0  0  0  0  0
    6.3221    0.1596    0.0000 N   0  0  0  0  0  0  0  0  0  0  0  0
    6.7781   -1.9676    0.0000 N   0  0  0  0  0  0  0  0  0  0  0  0
    7.8450    3.1314    0.0000 N   0  0  0  0  0  0  0  0  0  0  0  0
    7.7160    0.9644    0.0000 N   0  0  0  0  0  0  0  0  0  0  0  0
    5.2469    1.6314    0.0000 N   0  0  0  0  0  0  0  0  0  0  0  0
    6.1129    3.1314    0.0000 N   0  0  0  0  0  0  0  0  0  0  0  0
    5.8639   -1.5625    0.0000 C   0  0  3  0  0  0  0  0  0  0  0  0
    5.6543   -0.5847    0.0000 C   0  0  3  0  0  0  0  0  0  0  0  0
    4.9987   -2.0640    0.0000 C   0  0  3  0  0  0  0  0  0  0  0  0
    4.2544   -1.3961    0.0000 C   0  0  3  0  0  0  0  0  0  0  0  0
    3.2766   -1.6057    0.0000 C   0  0  0  0  0  0  0  0  0  0  0  0
    6.1129    1.1314    0.0000 C   0  0  0  0  0  0  0  0  0  0  0  0
    7.8450    4.1314    0.0000 C   0  0  3  0  0  0  0  0  0  0  0  0
    6.9790    4.6314    0.0000 C   0  0  0  0  0  0  0  0  0  0  0  0
    7.3108    0.0566    0.0000 C   0  0  0  0  0  0  0  0  0  0  0  0
    6.9790    1.6314    0.0000 C   0  0  0  0  0  0  0  0  0  0  0  0
    6.9790    5.6314    0.0000 C   0  0  0  0  0  0  0  0  0  0  0  0
    8.7110    4.6314    0.0000 C   0  0  0  0  0  0  0  0  0  0  0  0
    7.8450    6.1314    0.0000 C   0  0  0  0  0  0  0  0  0  0  0  0
    8.7110    5.6314    0.0000 C   0  0  0  0  0  0  0  0  0  0  0  0
    6.8844   -2.9620    0.0000 C   0  0  0  0  0  0  0  0  0  0  0  0
    6.9790    2.6314    0.0000 C   0  0  0  0  0  0  0  0  0  0  0  0
    9.6049    4.0968    0.0000 C   0  0  0  0  0  0  0  0  0  0  0  0
    9.6049    6.1661    0.0000 C   0  0  0  0  0  0  0  0  0  0  0  0
    7.7986   -3.3671    0.0000 C   0  0  0  0  0  0  0  0  0  0  0  0
    5.2469    2.6314    0.0000 C   0  0  0  0  0  0  0  0  0  0  0  0
   10.5110    4.6106    0.0000 C   0  0  0  0  0  0  0  0  0  0  0  0
   10.5110    5.6523    0.0000 C   0  0  0  0  0  0  0  0  0  0  0  0
    7.9049   -4.3614    0.0000 C   0  0  0  0  0  0  0  0  0  0  0  0
    8.6066   -2.7779    0.0000 C   0  0  0  0  0  0  0  0  0  0  0  0
    9.5209   -3.1831    0.0000 C   0  0  0  0  0  0  0  0  0  0  0  0
    8.8191   -4.7666    0.0000 C   0  0  0  0  0  0  0  0  0  0  0  0
    9.6271   -4.1774    0.0000 C   0  0  0  0  0  0  0  0  0  0  0  0
   11.2431   -2.9990    0.0000 C   0  0  0  0  0  0  0  0  0  0  0  0
    9.8396   -6.1661    0.0000 C   0  0  0  0  0  0  0  0  0  0  0  0
    6.3450   -1.1715    0.0000 H   0  0  0  0  0  0  0  0  0  0  0  0
    5.4311   -0.0062    0.0000 H   0  0  0  0  0  0  0  0  0  0  0  0
    5.5193   -2.4007    0.0000 H   0  0  0  0  0  0  0  0  0  0  0  0
    3.8634   -0.9150    0.0000 H   0  0  0  0  0  0  0  0  0  0  0  0
    7.2791   -1.6023    0.0000 H   0  0  0  0  0  0  0  0  0  0  0  0
    2.7514   -1.9352    0.0000 H   0  0  0  0  0  0  0  0  0  0  0  0
    3.5099   -2.1802    0.0000 H   0  0  0  0  0  0  0  0  0  0  0  0
    8.3819    3.8214    0.0000 H   0  0  0  0  0  0  0  0  0  0  0  0
    4.3300   -3.3118    0.0000 H   0  0  0  0  0  0  0  0  0  0  0  0
    6.3684    4.7391    0.0000 H   0  0  0  0  0  0  0  0  0  0  0  0
    6.7669    4.0488    0.0000 H   0  0  0  0  0  0  0  0  0  0  0  0
    7.6208   -0.4804    0.0000 H   0  0  0  0  0  0  0  0  0  0  0  0
    6.7669    6.2140    0.0000 H   0  0  0  0  0  0  0  0  0  0  0  0
    6.3684    5.5238    0.0000 H   0  0  0  0  0  0  0  0  0  0  0  0
    8.2435    6.6064    0.0000 H   0  0  0  0  0  0  0  0  0  0  0  0
    7.4464    6.6064    0.0000 H   0  0  0  0  0  0  0  0  0  0  0  0
    8.3819    2.8214    0.0000 H   0  0  0  0  0  0  0  0  0  0  0  0
    2.0000   -0.9937    0.0000 H   0  0  0  0  0  0  0  0  0  0  0  0
    9.5978    3.4768    0.0000 H   0  0  0  0  0  0  0  0  0  0  0  0
    9.5978    6.7861    0.0000 H   0  0  0  0  0  0  0  0  0  0  0  0
    4.7100    2.9414    0.0000 H   0  0  0  0  0  0  0  0  0  0  0  0
   11.0467    4.2986    0.0000 H   0  0  0  0  0  0  0  0  0  0  0  0
   11.0467    5.9643    0.0000 H   0  0  0  0  0  0  0  0  0  0  0  0
    7.4039   -4.7268    0.0000 H   0  0  0  0  0  0  0  0  0  0  0  0
    8.5408   -2.1614    0.0000 H   0  0  0  0  0  0  0  0  0  0  0  0
   10.1940   -4.4286    0.0000 H   0  0  0  0  0  0  0  0  0  0  0  0
   10.9919   -3.5659    0.0000 H   0  0  0  0  0  0  0  0  0  0  0  0
   11.8100   -3.2502    0.0000 H   0  0  0  0  0  0  0  0  0  0  0  0
   11.4943   -2.4322    0.0000 H   0  0  0  0  0  0  0  0  0  0  0  0
    9.5884   -6.7329    0.0000 H   0  0  0  0  0  0  0  0  0  0  0  0
   10.4065   -6.4173    0.0000 H   0  0  0  0  0  0  0  0  0  0  0  0
   10.0908   -5.5993    0.0000 H   0  0  0  0  0  0  0  0  0  0  0  0
  1 14  1  0  0  0  0
  1 16  1  0  0  0  0
  2 15  1  0  0  0  0
  2 50  1  0  0  0  0
  3 17  1  0  0  0  0
  3 59  1  0  0  0  0
  4 27  2  0  0  0  0
  5 37  1  0  0  0  0
  5 40  1  0  0  0  0
  6 38  1  0  0  0  0
  6 41  1  0  0  0  0
  7 14  1  0  0  0  0
  7 18  1  0  0  0  0
  7 21  1  0  0  0  0
  8 13  1  0  0  0  0
  8 27  1  0  0  0  0
  8 46  1  0  0  0  0
  9 19  1  0  0  0  0
  9 28  1  0  0  0  0
  9 58  1  0  0  0  0
 10 21  2  0  0  0  0
 10 22  1  0  0  0  0
 11 18  2  0  0  0  0
 11 32  1  0  0  0  0
 12 28  1  0  0  0  0
 12 32  2  0  0  0  0
 13 14  1  0  0  0  0
 13 15  1  0  0  0  0
 13 42  1  0  0  0  0
 14 43  1  0  0  0  0
 15 16  1  0  0  0  0
 15 44  1  0  0  0  0
 16 17  1  0  0  0  0
 16 45  1  0  0  0  0
 17 47  1  0  0  0  0
 17 48  1  0  0  0  0
 18 22  1  0  0  0  0
 19 20  1  0  0  0  0
 19 24  1  0  0  0  0
 19 49  1  0  0  0  0
 20 23  1  0  0  0  0
 20 51  1  0  0  0  0
 20 52  1  0  0  0  0
 21 53  1  0  0  0  0
 22 28  2  0  0  0  0
 23 25  1  0  0  0  0
 23 54  1  0  0  0  0
 23 55  1  0  0  0  0
 24 26  1  0  0  0  0
 24 29  2  0  0  0  0
 25 26  1  0  0  0  0
 25 56  1  0  0  0  0
 25 57  1  0  0  0  0
 26 30  2  0  0  0  0
 27 31  1  0  0  0  0
 29 33  1  0  0  0  0
 29 60  1  0  0  0  0
 30 34  1  0  0  0  0
 30 61  1  0  0  0  0
 31 35  2  0  0  0  0
 31 36  1  0  0  0  0
 32 62  1  0  0  0  0
 33 34  2  0  0  0  0
 33 63  1  0  0  0  0
 34 64  1  0  0  0  0
 35 38  1  0  0  0  0
 35 65  1  0  0  0  0
 36 37  2  0  0  0  0
 36 66  1  0  0  0  0
 37 39  1  0  0  0  0
 38 39  2  0  0  0  0
 39 67  1  0  0  0  0
 40 68  1  0  0  0  0
 40 69  1  0  0  0  0
 40 70  1  0  0  0  0
 41 71  1  0  0  0  0
 41 72  1  0  0  0  0
 41 73  1  0  0  0  0
M  END
> <PUBCHEM_COMPOUND_CID>
4313

> <PUBCHEM_COMPOUND_CANONICALIZED>
1

> <PUBCHEM_CACTVS_COMPLEXITY>
875

> <PUBCHEM_CACTVS_HBOND_ACCEPTOR>
10

> <PUBCHEM_CACTVS_HBOND_DONOR>
4

> <PUBCHEM_CACTVS_ROTATABLE_BOND>
8

> <PUBCHEM_CACTVS_SUBSKEYS>
AAADcfB7uAAAAAAAAAAAAAAAAAAAAWJAAAA8YMEAAAAAAFjB/AAAHgAQCAAADDzhnwY39r/MFgCoAydzdACCiC01MKAJ2KEuXNiPfzLE/VufdShv1hfbqae6+J6OgAABCAAQAAAAAAKQACQAAAAAAAAAAA==

> <PUBCHEM_IUPAC_OPENEYE_NAME>
N-[4-hydroxy-5-(hydroxymethyl)-2-[6-(tetralin-1-ylamino)purin-9-yl]tetrahydrofuran-3-yl]-3,5-dimethoxy-benzamide

> <PUBCHEM_IUPAC_CAS_NAME>
N-[4-hydroxy-5-(hydroxymethyl)-2-[6-(1,2,3,4-tetrahydronaphthalen-1-ylamino)-9-purinyl]-3-oxolanyl]-3,5-dimethoxybenzamide

> <PUBCHEM_IUPAC_NAME>
N-[4-hydroxy-5-(hydroxymethyl)-2-[6-(1,2,3,4-tetrahydronaphthalen-1-ylamino)purin-9-yl]oxolan-3-yl]-3,5-dimethoxybenzamide

> <PUBCHEM_IUPAC_SYSTEMATIC_NAME>
N-[5-(hydroxymethyl)-4-oxidanyl-2-[6-(1,2,3,4-tetrahydronaphthalen-1-ylamino)purin-9-yl]oxolan-3-yl]-3,5-dimethoxy-benzamide

> <PUBCHEM_IUPAC_TRADITIONAL_NAME>
N-[4-hydroxy-5-methylol-2-[6-(tetralin-1-ylamino)purin-9-yl]tetrahydrofuran-3-yl]-3,5-dimethoxy-benzamide

> <PUBCHEM_IUPAC_INCHI>
InChI=1S/C29H32N6O6/c1-39-18-10-17(11-19(12-18)40-2)28(38)34-23-25(37)22(13-36)41-29(23)35-15-32-24-26(30-14-31-27(24)35)33-21-9-5-7-16-6-3-4-8-20(16)21/h3-4,6,8,10-12,14-15,21-23,25,29,36-37H,5,7,9,13H2,1-2H3,(H,34,38)(H,30,31,33)

> <PUBCHEM_IUPAC_INCHIKEY>
FDZQGEIYGFPMOB-UHFFFAOYSA-N

> <PUBCHEM_XLOGP3_AA>
2.6

> <PUBCHEM_EXACT_MASS>
560.238333

> <PUBCHEM_MOLECULAR_FORMULA>
C29H32N6O6

> <PUBCHEM_MOLECULAR_WEIGHT>
560.60098

> <PUBCHEM_OPENEYE_CAN_SMILES>
COC1=CC(=CC(=C1)C(=O)NC2C(C(OC2N3C=NC4=C3N=CN=C4NC5CCCC6=CC=CC=C56)CO)O)OC

> <PUBCHEM_OPENEYE_ISO_SMILES>
COC1=CC(=CC(=C1)C(=O)NC2C(C(OC2N3C=NC4=C3N=CN=C4NC5CCCC6=CC=CC=C56)CO)O)OC

> <PUBCHEM_CACTVS_TPSA>
153

> <PUBCHEM_MONOISOTOPIC_WEIGHT>
560.238333

> <PUBCHEM_TOTAL_CHARGE>
0

> <PUBCHEM_HEAVY_ATOM_COUNT>
41

> <PUBCHEM_ATOM_DEF_STEREO_COUNT>
0

> <PUBCHEM_ATOM_UDEF_STEREO_COUNT>
5

> <PUBCHEM_BOND_DEF_STEREO_COUNT>
0

> <PUBCHEM_BOND_UDEF_STEREO_COUNT>
0

> <PUBCHEM_ISOTOPIC_ATOM_COUNT>
0

> <PUBCHEM_COMPONENT_COUNT>
1

> <PUBCHEM_CACTVS_TAUTO_COUNT>
6

> <PUBCHEM_COORDINATE_TYPE>
1
5
255

> <PUBCHEM_BONDANNOTATIONS>
10  21  8
10  22  8
11  18  8
11  32  8
12  28  8
12  32  8
16  17  3
18  22  8
15  2  3
22  28  8
24  26  8
24  29  8
26  30  8
29  33  8
30  34  8
31  35  8
31  36  8
33  34  8
35  38  8
36  37  8
37  39  8
38  39  8
14  7  3
7  18  8
7  21  8
13  8  3
19  9  3

$$$$

