10581
  -OEChem-06261204433D

 26 26  0     1  0  0  0  0  0999 V2000
   -1.1606   -0.1037   -0.2320 C   0  0  0  0  0  0  0  0  0  0  0  0
    0.1632   -0.9522   -0.0829 C   0  0  1  0  0  0  0  0  0  0  0  0
    1.4114   -0.0747   -0.1776 C   0  0  0  0  0  0  0  0  0  0  0  0
   -1.0379    1.2250    0.5000 C   0  0  0  0  0  0  0  0  0  0  0  0
   -1.4043    0.2068   -1.7274 C   0  0  0  0  0  0  0  0  0  0  0  0
   -2.3947   -0.8616    0.2917 C   0  0  0  0  0  0  0  0  0  0  0  0
    0.2395   -1.7572    1.2257 C   0  0  0  0  0  0  0  0  0  0  0  0
    1.3681    1.2134    0.2082 C   0  0  0  0  0  0  0  0  0  0  0  0
    0.1519    1.8080    0.7074 C   0  0  0  0  0  0  0  0  0  0  0  0
    2.6634   -0.7040   -0.7131 C   0  0  0  0  0  0  0  0  0  0  0  0
    0.1886   -1.6758   -0.9096 H   0  0  0  0  0  0  0  0  0  0  0  0
   -1.9408    1.7274    0.8357 H   0  0  0  0  0  0  0  0  0  0  0  0
   -2.3035    0.8189   -1.8674 H   0  0  0  0  0  0  0  0  0  0  0  0
   -0.5661    0.7509   -2.1775 H   0  0  0  0  0  0  0  0  0  0  0  0
   -1.5428   -0.7171   -2.3008 H   0  0  0  0  0  0  0  0  0  0  0  0
   -2.4782   -1.8487   -0.1769 H   0  0  0  0  0  0  0  0  0  0  0  0
   -2.3613   -0.9995    1.3782 H   0  0  0  0  0  0  0  0  0  0  0  0
   -3.3202   -0.3155    0.0713 H   0  0  0  0  0  0  0  0  0  0  0  0
    1.1982   -2.2791    1.3196 H   0  0  0  0  0  0  0  0  0  0  0  0
    0.1240   -1.1147    2.1054 H   0  0  0  0  0  0  0  0  0  0  0  0
   -0.5377   -2.5275    1.2607 H   0  0  0  0  0  0  0  0  0  0  0  0
    2.2459    1.8493    0.1590 H   0  0  0  0  0  0  0  0  0  0  0  0
    0.2216    2.7658    1.2108 H   0  0  0  0  0  0  0  0  0  0  0  0
    2.4929   -1.0818   -1.7263 H   0  0  0  0  0  0  0  0  0  0  0  0
    2.9802   -1.5378   -0.0798 H   0  0  0  0  0  0  0  0  0  0  0  0
    3.4925    0.0099   -0.7608 H   0  0  0  0  0  0  0  0  0  0  0  0
  1  2  1  0  0  0  0
  1  4  1  0  0  0  0
  1  5  1  0  0  0  0
  1  6  1  0  0  0  0
  2  3  1  0  0  0  0
  2  7  1  0  0  0  0
  2 11  1  0  0  0  0
  3  8  2  0  0  0  0
  3 10  1  0  0  0  0
  4  9  2  0  0  0  0
  4 12  1  0  0  0  0
  5 13  1  0  0  0  0
  5 14  1  0  0  0  0
  5 15  1  0  0  0  0
  6 16  1  0  0  0  0
  6 17  1  0  0  0  0
  6 18  1  0  0  0  0
  7 19  1  0  0  0  0
  7 20  1  0  0  0  0
  7 21  1  0  0  0  0
  8  9  1  0  0  0  0
  8 22  1  0  0  0  0
  9 23  1  0  0  0  0
 10 24  1  0  0  0  0
 10 25  1  0  0  0  0
 10 26  1  0  0  0  0
M  END
> <PUBCHEM_COMPOUND_CID>
10581

> <PUBCHEM_CONFORMER_RMSD>
0.4

> <PUBCHEM_CONFORMER_DIVERSEORDER>
2
3
1
4

> <PUBCHEM_MMFF94_PARTIAL_CHARGES>
10
1 0.14
10 0.14
12 0.15
2 0.14
22 0.15
23 0.15
3 -0.28
4 -0.29
8 -0.15
9 -0.15

> <PUBCHEM_EFFECTIVE_ROTOR_COUNT>
0.4

> <PUBCHEM_PHARMACOPHORE_FEATURES>
2
3 1 5 6 hydrophobe
6 1 2 3 4 8 9 rings

> <PUBCHEM_HEAVY_ATOM_COUNT>
10

> <PUBCHEM_ATOM_DEF_STEREO_COUNT>
0

> <PUBCHEM_ATOM_UDEF_STEREO_COUNT>
1

> <PUBCHEM_BOND_DEF_STEREO_COUNT>
0

> <PUBCHEM_BOND_UDEF_STEREO_COUNT>
0

> <PUBCHEM_ISOTOPIC_ATOM_COUNT>
0

> <PUBCHEM_COMPONENT_COUNT>
1

> <PUBCHEM_CACTVS_TAUTO_COUNT>
1

> <PUBCHEM_CONFORMER_ID>
0000295500000002

> <PUBCHEM_MMFF94_ENERGY>
23.6219

> <PUBCHEM_FEATURE_SELFOVERLAP>
10.148

> <PUBCHEM_SHAPE_FINGERPRINT>
10353120 184 18336537300322222124
12423570 1 8934701336498132533
13024252 1 18056733594423836614
137420 1 12155098764604974457
14761567 1 18127710402738600255
16945 1 17971453341969304720
18185500 45 18051700141634239490
21040471 1 17907020569112408561
23235685 24 18048603616206197536
23419403 2 6541315593864871794
23552423 10 18340194297792807926
241688 4 18334571382201055128
2748010 2 18335704927007304881
29004967 10 18114742625034867618
5084963 1 17988920067855847694
535629 181 18115877467163860596
54338 74 16474058314719204123

> <PUBCHEM_SHAPE_MULTIPOLES>
205.8
2.74
1.77
1.21
0.51
0.23
-0.32
-0.63
-0.64
0.13
0.69
-0.28
-0.12
0.18

> <PUBCHEM_SHAPE_SELFOVERLAP>
410.874

> <PUBCHEM_SHAPE_VOLUME>
122.2

> <PUBCHEM_COORDINATE_TYPE>
2
5
10

$$$$

