3965
  -OEChem-06251223473D

 36 37  0     1  0  0  0  0  0999 V2000
    4.8111    1.1902    0.9558 O   0  0  0  0  0  0  0  0  0  0  0  0
   -5.4161   -1.2669    0.3225 O   0  0  0  0  0  0  0  0  0  0  0  0
   -3.3575   -1.5844    1.2154 O   0  0  0  0  0  0  0  0  0  0  0  0
    2.8055   -0.0449    0.3686 C   0  0  2  0  0  0  0  0  0  0  0  0
    2.7477   -1.1942   -0.6395 C   0  0  0  0  0  0  0  0  0  0  0  0
    4.0150   -1.9933   -0.3648 C   0  0  0  0  0  0  0  0  0  0  0  0
    5.0904   -0.9362   -0.1472 C   0  0  0  0  0  0  0  0  0  0  0  0
    2.0334    1.1783   -0.0834 C   0  0  0  0  0  0  0  0  0  0  0  0
    4.2987    0.1962    0.4566 C   0  0  0  0  0  0  0  0  0  0  0  0
    0.5541    0.9053   -0.1924 C   0  0  0  0  0  0  0  0  0  0  0  0
    0.0331    0.4485   -1.3933 C   0  0  0  0  0  0  0  0  0  0  0  0
   -0.2599    1.1154    0.9102 C   0  0  0  0  0  0  0  0  0  0  0  0
   -2.1655    0.4028   -0.3928 C   0  0  0  0  0  0  0  0  0  0  0  0
   -1.3350    0.1958   -1.4942 C   0  0  0  0  0  0  0  0  0  0  0  0
   -1.6280    0.8626    0.8094 C   0  0  0  0  0  0  0  0  0  0  0  0
   -3.6282    0.1327   -0.5006 C   0  0  2  0  0  0  0  0  0  0  0  0
   -4.5077    1.3783   -0.2691 C   0  0  0  0  0  0  0  0  0  0  0  0
   -4.0911   -0.9864    0.4389 C   0  0  0  0  0  0  0  0  0  0  0  0
    2.4704   -0.3956    1.3529 H   0  0  0  0  0  0  0  0  0  0  0  0
    2.7749   -0.8255   -1.6724 H   0  0  0  0  0  0  0  0  0  0  0  0
    1.8527   -1.8122   -0.5173 H   0  0  0  0  0  0  0  0  0  0  0  0
    4.2655   -2.6717   -1.1856 H   0  0  0  0  0  0  0  0  0  0  0  0
    3.8885   -2.5944    0.5441 H   0  0  0  0  0  0  0  0  0  0  0  0
    5.5197   -0.6026   -1.0962 H   0  0  0  0  0  0  0  0  0  0  0  0
    5.8704   -1.2834    0.5335 H   0  0  0  0  0  0  0  0  0  0  0  0
    2.4149    1.5485   -1.0449 H   0  0  0  0  0  0  0  0  0  0  0  0
    2.1985    2.0068    0.6185 H   0  0  0  0  0  0  0  0  0  0  0  0
    0.6666    0.2918   -2.2612 H   0  0  0  0  0  0  0  0  0  0  0  0
    0.1498    1.4712    1.8512 H   0  0  0  0  0  0  0  0  0  0  0  0
   -3.8422   -0.2355   -1.5137 H   0  0  0  0  0  0  0  0  0  0  0  0
   -1.7373   -0.1601   -2.4390 H   0  0  0  0  0  0  0  0  0  0  0  0
   -2.2581    1.0307    1.6786 H   0  0  0  0  0  0  0  0  0  0  0  0
   -4.4657    1.7136    0.7732 H   0  0  0  0  0  0  0  0  0  0  0  0
   -4.1813    2.2079   -0.9058 H   0  0  0  0  0  0  0  0  0  0  0  0
   -5.5573    1.1706   -0.5036 H   0  0  0  0  0  0  0  0  0  0  0  0
   -5.6914   -1.9873    0.9287 H   0  0  0  0  0  0  0  0  0  0  0  0
  1  9  2  0  0  0  0
  2 18  1  0  0  0  0
  2 36  1  0  0  0  0
  3 18  2  0  0  0  0
  4  5  1  0  0  0  0
  4  8  1  0  0  0  0
  4  9  1  0  0  0  0
  4 19  1  0  0  0  0
  5  6  1  0  0  0  0
  5 20  1  0  0  0  0
  5 21  1  0  0  0  0
  6  7  1  0  0  0  0
  6 22  1  0  0  0  0
  6 23  1  0  0  0  0
  7  9  1  0  0  0  0
  7 24  1  0  0  0  0
  7 25  1  0  0  0  0
  8 10  1  0  0  0  0
  8 26  1  0  0  0  0
  8 27  1  0  0  0  0
 10 11  2  0  0  0  0
 10 12  1  0  0  0  0
 11 14  1  0  0  0  0
 11 28  1  0  0  0  0
 12 15  2  0  0  0  0
 12 29  1  0  0  0  0
 13 14  2  0  0  0  0
 13 15  1  0  0  0  0
 13 16  1  0  0  0  0
 14 31  1  0  0  0  0
 15 32  1  0  0  0  0
 16 17  1  0  0  0  0
 16 18  1  0  0  0  0
 16 30  1  0  0  0  0
 17 33  1  0  0  0  0
 17 34  1  0  0  0  0
 17 35  1  0  0  0  0
M  END
> <PUBCHEM_COMPOUND_CID>
3965

> <PUBCHEM_CONFORMER_RMSD>
0.6

> <PUBCHEM_CONFORMER_DIVERSEORDER>
1
105
125
61
69
70
78
121
114
64
110
97
86
75
127
71
118
101
115
47
99
54
72
117
34
37
92
85
98
40
116
122
41
19
63
46
87
25
56
38
123
5
59
35
90
126
100
88
91
45
36
80
119
107
73
84
120
83
26
113
21
111
43
11
96
2
57
82
39
103
53
48
106
124
102
16
4
24
13
32
20
65
7
129
12
28
112
62
33
14
104
66
15
23
51
60
94
10
68
6
109
22
79
89
30
58
55
77
74
3
93
67
29
108
31
95
128
17
52
27
44
50
81
18
8
49
42
9
76

> <PUBCHEM_MMFF94_PARTIAL_CHARGES>
20
1 -0.57
10 -0.14
11 -0.15
12 -0.15
13 -0.14
14 -0.15
15 -0.15
16 0.2
18 0.66
2 -0.65
28 0.15
29 0.15
3 -0.57
31 0.15
32 0.15
36 0.5
4 0.06
7 0.06
8 0.14
9 0.45

> <PUBCHEM_EFFECTIVE_ROTOR_COUNT>
4.8

> <PUBCHEM_PHARMACOPHORE_FEATURES>
7
1 1 acceptor
1 17 hydrophobe
1 2 acceptor
1 3 acceptor
3 2 3 18 anion
5 4 5 6 7 9 rings
6 10 11 12 13 14 15 rings

> <PUBCHEM_HEAVY_ATOM_COUNT>
18

> <PUBCHEM_ATOM_DEF_STEREO_COUNT>
0

> <PUBCHEM_ATOM_UDEF_STEREO_COUNT>
2

> <PUBCHEM_BOND_DEF_STEREO_COUNT>
0

> <PUBCHEM_BOND_UDEF_STEREO_COUNT>
0

> <PUBCHEM_ISOTOPIC_ATOM_COUNT>
0

> <PUBCHEM_COMPONENT_COUNT>
1

> <PUBCHEM_CACTVS_TAUTO_COUNT>
3

> <PUBCHEM_CONFORMER_ID>
00000F7D00000001

> <PUBCHEM_MMFF94_ENERGY>
36.5711

> <PUBCHEM_FEATURE_SELFOVERLAP>
35.58

> <PUBCHEM_SHAPE_FINGERPRINT>
106641 1 16733268928713639987
11128504 68 15338829867948428558
11595378 159 15140948599786854115
11796584 16 18201725020622280019
12251169 10 16660648453188449412
124424 183 18259707817868401013
12507560 40 18334014994926013237
12596602 18 16805604720341463579
12670546 177 13254792404710825003
12892183 10 18114181951546248304
13288520 33 18202281403464716735
13583140 156 18186810153580525745
13675066 3 18261117373904224732
14251764 18 18040710360655420561
14251764 38 8646770014588312162
14252887 29 18408603665147481578
14386348 63 18341892995786501074
14911166 2 14548739482636020765
15209294 21 4678828229028292771
15375462 189 17603311453343897624
17844677 252 18335697247743163632
1813 80 17489867141650256012
18785283 64 18125164836153437760
19141452 34 18131068251510468191
192875 21 13973970913224594294
193927 3 17703214127926636067
19862831 5 13254794637982990252
200 152 18334296474160521097
20281475 54 17775289412618188780
20374829 77 17775288282746345398
20432913 95 18334009484451265587
20645477 70 18343021077758048684
21033650 10 16413785136521630620
21079973 296 18131069312051054714
21267235 1 17967528004665973822
21503847 285 5184341932898581850
22485316 2 18202284735942639432
23402539 116 15267349543163359604
23557571 272 17846503672785120828
23559900 14 18412266146780010848
239999 70 18413670215039776122
26918003 58 18408608092937055888
351380 180 7997966873307294774
42 15 18260266373500364964
4325135 7 17703506598140781404
465052 167 18113613465232276759
4921388 177 17060046035056766619
5104073 3 18114465673128231864

> <PUBCHEM_SHAPE_MULTIPOLES>
352.82
11.42
1.63
1.13
0.71
0.44
0.16
3.6
-1.79
0.2
-0.24
-0.37
-0.02
1.12

> <PUBCHEM_SHAPE_SELFOVERLAP>
742.686

> <PUBCHEM_SHAPE_VOLUME>
199.3

> <PUBCHEM_COORDINATE_TYPE>
2
5
10

$$$$

