11986
  -OEChem-06261206223D

 14 15  0     0  0  0  0  0  0999 V2000
   -3.6124   -0.0244    0.0000 Cl  0  0  0  0  0  0  0  0  0  0  0  0
   -1.1404   -1.1401   -0.0003 O   0  0  0  0  0  0  0  0  0  0  0  0
   -1.2136    1.1251   -0.0001 N   0  0  0  0  0  0  0  0  0  0  0  0
    0.1444   -0.6776    0.0001 C   0  0  0  0  0  0  0  0  0  0  0  0
    0.0957    0.7086    0.0001 C   0  0  0  0  0  0  0  0  0  0  0  0
    1.3133   -1.4287    0.0001 C   0  0  0  0  0  0  0  0  0  0  0  0
    1.2986    1.4291   -0.0001 C   0  0  0  0  0  0  0  0  0  0  0  0
    2.5045   -0.6949    0.0000 C   0  0  0  0  0  0  0  0  0  0  0  0
    2.5000    0.7054   -0.0001 C   0  0  0  0  0  0  0  0  0  0  0  0
   -1.8900   -0.0024    0.0002 C   0  0  0  0  0  0  0  0  0  0  0  0
    1.3059   -2.5115    0.0001 H   0  0  0  0  0  0  0  0  0  0  0  0
    1.3071    2.5140   -0.0002 H   0  0  0  0  0  0  0  0  0  0  0  0
    3.4545   -1.2240    0.0000 H   0  0  0  0  0  0  0  0  0  0  0  0
    3.4453    1.2425   -0.0002 H   0  0  0  0  0  0  0  0  0  0  0  0
  1 10  1  0  0  0  0
  2  4  1  0  0  0  0
  2 10  1  0  0  0  0
  3  5  1  0  0  0  0
  3 10  2  0  0  0  0
  4  5  1  0  0  0  0
  4  6  2  0  0  0  0
  5  7  2  0  0  0  0
  6  8  1  0  0  0  0
  6 11  1  0  0  0  0
  7  9  1  0  0  0  0
  7 12  1  0  0  0  0
  8  9  2  0  0  0  0
  8 13  1  0  0  0  0
  9 14  1  0  0  0  0
M  END
> <PUBCHEM_COMPOUND_CID>
11986

> <PUBCHEM_CONFORMER_RMSD>
0.4

> <PUBCHEM_CONFORMER_DIVERSEORDER>
1

> <PUBCHEM_MMFF94_PARTIAL_CHARGES>
14
1 -0.12
10 0.6
11 0.15
12 0.15
13 0.15
14 0.15
2 -0.28
3 -0.57
4 0.14
5 0.23
6 -0.15
7 -0.15
8 -0.15
9 -0.15

> <PUBCHEM_EFFECTIVE_ROTOR_COUNT>
0

> <PUBCHEM_PHARMACOPHORE_FEATURES>
2
5 2 3 4 5 10 rings
6 4 5 6 7 8 9 rings

> <PUBCHEM_HEAVY_ATOM_COUNT>
10

> <PUBCHEM_ATOM_DEF_STEREO_COUNT>
0

> <PUBCHEM_ATOM_UDEF_STEREO_COUNT>
0

> <PUBCHEM_BOND_DEF_STEREO_COUNT>
0

> <PUBCHEM_BOND_UDEF_STEREO_COUNT>
0

> <PUBCHEM_ISOTOPIC_ATOM_COUNT>
0

> <PUBCHEM_COMPONENT_COUNT>
1

> <PUBCHEM_CACTVS_TAUTO_COUNT>
1

> <PUBCHEM_CONFORMER_ID>
00002ED200000001

> <PUBCHEM_MMFF94_ENERGY>
13.9298

> <PUBCHEM_FEATURE_SELFOVERLAP>
10.267

> <PUBCHEM_SHAPE_FINGERPRINT>
11471102 20 18411142445959447997
12897270 3 18411418401518022406
14325111 11 18410573976978390849
16945 1 18410856559740022852
193761 8 17473825507513812806
20201158 50 18412826906025739595
20645477 70 18410299150959591143
20871998 22 18046060733916981758
21040471 1 18194683661962860868
23235685 24 18340492170749062668
23402655 69 18336558187502686877
23552423 10 18271525299580675390
2748010 2 18050564049769957886
29004967 10 18343858926855821880
5084963 1 18261111906436977368
528886 8 18410015394721756186

> <PUBCHEM_SHAPE_MULTIPOLES>
196.81
4.35
1.43
0.6
2.92
0
0
-0.04
0
-0.57
0
-0.01
0
0

> <PUBCHEM_SHAPE_SELFOVERLAP>
423.868

> <PUBCHEM_SHAPE_VOLUME>
110.9

> <PUBCHEM_COORDINATE_TYPE>
2
5
10

$$$$

