3316
  -OEChem-06251223202D

 35 35  0     0  0  0  0  0  0999 V2000
    7.1962   -0.0600    0.0000 O   0  0  0  0  0  0  0  0  0  0  0  0
    8.0622    1.4400    0.0000 O   0  0  0  0  0  0  0  0  0  0  0  0
    9.7942    1.4400    0.0000 N   0  0  0  0  0  0  0  0  0  0  0  0
    4.5981   -0.5600    0.0000 C   0  0  0  0  0  0  0  0  0  0  0  0
    3.7320   -0.0600    0.0000 C   0  0  0  0  0  0  0  0  0  0  0  0
    5.4641   -0.0600    0.0000 C   0  0  0  0  0  0  0  0  0  0  0  0
    2.8660   -0.5600    0.0000 C   0  0  0  0  0  0  0  0  0  0  0  0
    6.3301   -0.5600    0.0000 C   0  0  0  0  0  0  0  0  0  0  0  0
    2.0000   -0.0600    0.0000 C   0  0  0  0  0  0  0  0  0  0  0  0
    8.0622   -0.5600    0.0000 C   0  0  0  0  0  0  0  0  0  0  0  0
    8.9282   -0.0600    0.0000 C   0  0  0  0  0  0  0  0  0  0  0  0
    8.0622   -1.5600    0.0000 C   0  0  0  0  0  0  0  0  0  0  0  0
    9.7942   -0.5600    0.0000 C   0  0  0  0  0  0  0  0  0  0  0  0
    8.9282   -2.0600    0.0000 C   0  0  0  0  0  0  0  0  0  0  0  0
    9.7942   -1.5600    0.0000 C   0  0  0  0  0  0  0  0  0  0  0  0
    8.9282    0.9400    0.0000 C   0  0  0  0  0  0  0  0  0  0  0  0
    4.1996   -1.0350    0.0000 H   0  0  0  0  0  0  0  0  0  0  0  0
    4.9966   -1.0350    0.0000 H   0  0  0  0  0  0  0  0  0  0  0  0
    4.1306    0.4149    0.0000 H   0  0  0  0  0  0  0  0  0  0  0  0
    3.3335    0.4149    0.0000 H   0  0  0  0  0  0  0  0  0  0  0  0
    5.8626    0.4149    0.0000 H   0  0  0  0  0  0  0  0  0  0  0  0
    5.0656    0.4149    0.0000 H   0  0  0  0  0  0  0  0  0  0  0  0
    2.4675   -1.0350    0.0000 H   0  0  0  0  0  0  0  0  0  0  0  0
    3.2646   -1.0350    0.0000 H   0  0  0  0  0  0  0  0  0  0  0  0
    5.9316   -1.0350    0.0000 H   0  0  0  0  0  0  0  0  0  0  0  0
    6.7287   -1.0350    0.0000 H   0  0  0  0  0  0  0  0  0  0  0  0
    2.3100    0.4769    0.0000 H   0  0  0  0  0  0  0  0  0  0  0  0
    1.4631    0.2500    0.0000 H   0  0  0  0  0  0  0  0  0  0  0  0
    1.6900   -0.5969    0.0000 H   0  0  0  0  0  0  0  0  0  0  0  0
    7.5252   -1.8700    0.0000 H   0  0  0  0  0  0  0  0  0  0  0  0
   10.3312   -0.2500    0.0000 H   0  0  0  0  0  0  0  0  0  0  0  0
    8.9282   -2.6800    0.0000 H   0  0  0  0  0  0  0  0  0  0  0  0
   10.3312   -1.8700    0.0000 H   0  0  0  0  0  0  0  0  0  0  0  0
    9.7942    2.0600    0.0000 H   0  0  0  0  0  0  0  0  0  0  0  0
   10.3312    1.1300    0.0000 H   0  0  0  0  0  0  0  0  0  0  0  0
  1  8  1  0  0  0  0
  1 10  1  0  0  0  0
  2 16  2  0  0  0  0
  3 16  1  0  0  0  0
  3 34  1  0  0  0  0
  3 35  1  0  0  0  0
  4  5  1  0  0  0  0
  4  6  1  0  0  0  0
  4 17  1  0  0  0  0
  4 18  1  0  0  0  0
  5  7  1  0  0  0  0
  5 19  1  0  0  0  0
  5 20  1  0  0  0  0
  6  8  1  0  0  0  0
  6 21  1  0  0  0  0
  6 22  1  0  0  0  0
  7  9  1  0  0  0  0
  7 23  1  0  0  0  0
  7 24  1  0  0  0  0
  8 25  1  0  0  0  0
  8 26  1  0  0  0  0
  9 27  1  0  0  0  0
  9 28  1  0  0  0  0
  9 29  1  0  0  0  0
 10 11  1  0  0  0  0
 10 12  2  0  0  0  0
 11 13  2  0  0  0  0
 11 16  1  0  0  0  0
 12 14  1  0  0  0  0
 12 30  1  0  0  0  0
 13 15  1  0  0  0  0
 13 31  1  0  0  0  0
 14 15  2  0  0  0  0
 14 32  1  0  0  0  0
 15 33  1  0  0  0  0
M  END
> <PUBCHEM_COMPOUND_CID>
3316

> <PUBCHEM_COMPOUND_CANONICALIZED>
1

> <PUBCHEM_CACTVS_COMPLEXITY>
206

> <PUBCHEM_CACTVS_HBOND_ACCEPTOR>
2

> <PUBCHEM_CACTVS_HBOND_DONOR>
1

> <PUBCHEM_CACTVS_ROTATABLE_BOND>
7

> <PUBCHEM_CACTVS_SUBSKEYS>
AAADceByMAAAAAAAAAAAAAAAAAAAAAAAAAAwAAAAAAAAAAABAAAAHgAQAAAADAShmAIyBoBABACIAiFSEACCCAAkIAAIiAEGDMgMJjaEtRuCOWDm4BEIqYeYyCCOAAAAAAAIAAAAAAAAABAAAAAAAAAAAA==

> <PUBCHEM_IUPAC_OPENEYE_NAME>
2-hexoxybenzamide

> <PUBCHEM_IUPAC_CAS_NAME>
2-hexoxybenzamide

> <PUBCHEM_IUPAC_NAME>
2-hexoxybenzamide

> <PUBCHEM_IUPAC_SYSTEMATIC_NAME>
2-hexoxybenzamide

> <PUBCHEM_IUPAC_TRADITIONAL_NAME>
2-hexoxybenzamide

> <PUBCHEM_IUPAC_INCHI>
InChI=1S/C13H19NO2/c1-2-3-4-7-10-16-12-9-6-5-8-11(12)13(14)15/h5-6,8-9H,2-4,7,10H2,1H3,(H2,14,15)

> <PUBCHEM_IUPAC_INCHIKEY>
CKSJXOVLXUMMFF-UHFFFAOYSA-N

> <PUBCHEM_XLOGP3>
3.2

> <PUBCHEM_EXACT_MASS>
221.141579

> <PUBCHEM_MOLECULAR_FORMULA>
C13H19NO2

> <PUBCHEM_MOLECULAR_WEIGHT>
221.29546

> <PUBCHEM_OPENEYE_CAN_SMILES>
CCCCCCOC1=CC=CC=C1C(=O)N

> <PUBCHEM_OPENEYE_ISO_SMILES>
CCCCCCOC1=CC=CC=C1C(=O)N

> <PUBCHEM_CACTVS_TPSA>
52.3

> <PUBCHEM_MONOISOTOPIC_WEIGHT>
221.141579

> <PUBCHEM_TOTAL_CHARGE>
0

> <PUBCHEM_HEAVY_ATOM_COUNT>
16

> <PUBCHEM_ATOM_DEF_STEREO_COUNT>
0

> <PUBCHEM_ATOM_UDEF_STEREO_COUNT>
0

> <PUBCHEM_BOND_DEF_STEREO_COUNT>
0

> <PUBCHEM_BOND_UDEF_STEREO_COUNT>
0

> <PUBCHEM_ISOTOPIC_ATOM_COUNT>
0

> <PUBCHEM_COMPONENT_COUNT>
1

> <PUBCHEM_CACTVS_TAUTO_COUNT>
2

> <PUBCHEM_COORDINATE_TYPE>
1
5
255

> <PUBCHEM_BONDANNOTATIONS>
10  11  8
10  12  8
11  13  8
12  14  8
13  15  8
14  15  8

$$$$

