14174
  -OEChem-06241222422D

 48 50  0     1  0  0  0  0  0999 V2000
    4.0719    4.4338    0.0000 F   0  0  0  0  0  0  0  0  0  0  0  0
    6.2862    0.4217    0.0000 O   0  0  0  0  0  0  0  0  0  0  0  0
    4.5878   -2.7588    0.0000 N   0  0  3  0  0  0  0  0  0  0  0  0
    4.0000   -3.5678    0.0000 C   0  0  0  0  0  0  0  0  0  0  0  0
    4.5878   -4.3768    0.0000 C   0  0  0  0  0  0  0  0  0  0  0  0
    3.5000   -4.4338    0.0000 C   0  0  0  0  0  0  0  0  0  0  0  0
    3.5000   -2.7018    0.0000 C   0  0  0  0  0  0  0  0  0  0  0  0
    5.5388   -4.0678    0.0000 C   0  0  0  0  0  0  0  0  0  0  0  0
    5.5388   -3.0678    0.0000 C   0  0  0  0  0  0  0  0  0  0  0  0
    2.5000   -4.4338    0.0000 C   0  0  0  0  0  0  0  0  0  0  0  0
    2.5000   -2.7018    0.0000 C   0  0  0  0  0  0  0  0  0  0  0  0
    2.0000   -3.5678    0.0000 C   0  0  0  0  0  0  0  0  0  0  0  0
    4.2788   -1.8077    0.0000 C   0  0  0  0  0  0  0  0  0  0  0  0
    4.9479   -1.0646    0.0000 C   0  0  0  0  0  0  0  0  0  0  0  0
    4.6389   -0.1135    0.0000 C   0  0  0  0  0  0  0  0  0  0  0  0
    5.3080    0.6296    0.0000 C   0  0  0  0  0  0  0  0  0  0  0  0
    4.9990    1.5807    0.0000 C   0  0  0  0  0  0  0  0  0  0  0  0
    5.6681    2.3238    0.0000 C   0  0  0  0  0  0  0  0  0  0  0  0
    4.0208    1.7886    0.0000 C   0  0  0  0  0  0  0  0  0  0  0  0
    5.3591    3.2749    0.0000 C   0  0  0  0  0  0  0  0  0  0  0  0
    3.7118    2.7396    0.0000 C   0  0  0  0  0  0  0  0  0  0  0  0
    4.3810    3.4828    0.0000 C   0  0  0  0  0  0  0  0  0  0  0  0
    4.0508   -4.6868    0.0000 H   0  0  0  0  0  0  0  0  0  0  0  0
    4.8400   -4.9432    0.0000 H   0  0  0  0  0  0  0  0  0  0  0  0
    4.0826   -2.4897    0.0000 H   0  0  0  0  0  0  0  0  0  0  0  0
    3.3923   -2.0912    0.0000 H   0  0  0  0  0  0  0  0  0  0  0  0
    3.3923   -5.0444    0.0000 H   0  0  0  0  0  0  0  0  0  0  0  0
    4.0826   -4.6459    0.0000 H   0  0  0  0  0  0  0  0  0  0  0  0
    5.6678   -4.6743    0.0000 H   0  0  0  0  0  0  0  0  0  0  0  0
    6.1554   -4.0030    0.0000 H   0  0  0  0  0  0  0  0  0  0  0  0
    6.1554   -3.1326    0.0000 H   0  0  0  0  0  0  0  0  0  0  0  0
    5.6678   -2.4614    0.0000 H   0  0  0  0  0  0  0  0  0  0  0  0
    2.6077   -2.0912    0.0000 H   0  0  0  0  0  0  0  0  0  0  0  0
    1.9174   -2.4897    0.0000 H   0  0  0  0  0  0  0  0  0  0  0  0
    1.9174   -4.6459    0.0000 H   0  0  0  0  0  0  0  0  0  0  0  0
    2.6077   -5.0444    0.0000 H   0  0  0  0  0  0  0  0  0  0  0  0
    1.5250   -3.1693    0.0000 H   0  0  0  0  0  0  0  0  0  0  0  0
    1.5250   -3.9663    0.0000 H   0  0  0  0  0  0  0  0  0  0  0  0
    3.8971   -1.3192    0.0000 H   0  0  0  0  0  0  0  0  0  0  0  0
    3.7313   -2.0988    0.0000 H   0  0  0  0  0  0  0  0  0  0  0  0
    5.3296   -1.5532    0.0000 H   0  0  0  0  0  0  0  0  0  0  0  0
    5.4953   -0.7735    0.0000 H   0  0  0  0  0  0  0  0  0  0  0  0
    4.2572    0.3750    0.0000 H   0  0  0  0  0  0  0  0  0  0  0  0
    4.0914   -0.4046    0.0000 H   0  0  0  0  0  0  0  0  0  0  0  0
    6.2746    2.1949    0.0000 H   0  0  0  0  0  0  0  0  0  0  0  0
    3.6060    1.3278    0.0000 H   0  0  0  0  0  0  0  0  0  0  0  0
    5.7740    3.7356    0.0000 H   0  0  0  0  0  0  0  0  0  0  0  0
    3.1054    2.8685    0.0000 H   0  0  0  0  0  0  0  0  0  0  0  0
  1 22  1  0  0  0  0
  2 16  2  0  0  0  0
  3  4  1  0  0  0  0
  3  9  1  0  0  0  0
  3 13  1  0  0  0  0
  4  5  1  0  0  0  0
  4  6  1  0  0  0  0
  4  7  1  0  0  0  0
  5  8  1  0  0  0  0
  5 23  1  0  0  0  0
  5 24  1  0  0  0  0
  6 10  1  0  0  0  0
  6 27  1  0  0  0  0
  6 28  1  0  0  0  0
  7 11  1  0  0  0  0
  7 25  1  0  0  0  0
  7 26  1  0  0  0  0
  8  9  1  0  0  0  0
  8 29  1  0  0  0  0
  8 30  1  0  0  0  0
  9 31  1  0  0  0  0
  9 32  1  0  0  0  0
 10 12  1  0  0  0  0
 10 35  1  0  0  0  0
 10 36  1  0  0  0  0
 11 12  1  0  0  0  0
 11 33  1  0  0  0  0
 11 34  1  0  0  0  0
 12 37  1  0  0  0  0
 12 38  1  0  0  0  0
 13 14  1  0  0  0  0
 13 39  1  0  0  0  0
 13 40  1  0  0  0  0
 14 15  1  0  0  0  0
 14 41  1  0  0  0  0
 14 42  1  0  0  0  0
 15 16  1  0  0  0  0
 15 43  1  0  0  0  0
 15 44  1  0  0  0  0
 16 17  1  0  0  0  0
 17 18  2  0  0  0  0
 17 19  1  0  0  0  0
 18 20  1  0  0  0  0
 18 45  1  0  0  0  0
 19 21  2  0  0  0  0
 19 46  1  0  0  0  0
 20 22  2  0  0  0  0
 20 47  1  0  0  0  0
 21 22  1  0  0  0  0
 21 48  1  0  0  0  0
M  END
> <PUBCHEM_COMPOUND_CID>
14174

> <PUBCHEM_COMPOUND_CANONICALIZED>
1

> <PUBCHEM_CACTVS_COMPLEXITY>
370

> <PUBCHEM_CACTVS_HBOND_ACCEPTOR>
3

> <PUBCHEM_CACTVS_HBOND_DONOR>
0

> <PUBCHEM_CACTVS_ROTATABLE_BOND>
5

> <PUBCHEM_CACTVS_SUBSKEYS>
AAADceB6IQAAAAAAAAAAAAAAAAAAAWAAAAAwYAAAAAAAAAABAAAAHwAAAAAADIzBmAwwAIMAAACIAqBSAAACAAAkAAAIiAEIAMgIIDKAlRCEIQAggACIiYcciICOAAAAAAAAAAAAAAAAAAAAAAAAAAAAAA==

> <PUBCHEM_IUPAC_OPENEYE_NAME>
4-(1-azaspiro[4.5]decan-1-yl)-1-(4-fluorophenyl)butan-1-one

> <PUBCHEM_IUPAC_CAS_NAME>
4-(1-azaspiro[4.5]decan-1-yl)-1-(4-fluorophenyl)-1-butanone

> <PUBCHEM_IUPAC_NAME>
4-(1-azaspiro[4.5]decan-1-yl)-1-(4-fluorophenyl)butan-1-one

> <PUBCHEM_IUPAC_SYSTEMATIC_NAME>
4-(1-azaspiro[4.5]decan-1-yl)-1-(4-fluorophenyl)butan-1-one

> <PUBCHEM_IUPAC_TRADITIONAL_NAME>
4-(1-azaspiro[4.5]decan-1-yl)-1-(4-fluorophenyl)butan-1-one

> <PUBCHEM_IUPAC_INCHI>
InChI=1S/C19H26FNO/c20-17-9-7-16(8-10-17)18(22)6-4-14-21-15-5-13-19(21)11-2-1-3-12-19/h7-10H,1-6,11-15H2

> <PUBCHEM_IUPAC_INCHIKEY>
QPQPLSLLZVCHKN-UHFFFAOYSA-N

> <PUBCHEM_XLOGP3_AA>
4.2

> <PUBCHEM_EXACT_MASS>
303.199843

> <PUBCHEM_MOLECULAR_FORMULA>
C19H26FNO

> <PUBCHEM_MOLECULAR_WEIGHT>
303.414243

> <PUBCHEM_OPENEYE_CAN_SMILES>
C1CCC2(CC1)CCCN2CCCC(=O)C3=CC=C(C=C3)F

> <PUBCHEM_OPENEYE_ISO_SMILES>
C1CCC2(CC1)CCCN2CCCC(=O)C3=CC=C(C=C3)F

> <PUBCHEM_CACTVS_TPSA>
20.3

> <PUBCHEM_MONOISOTOPIC_WEIGHT>
303.199843

> <PUBCHEM_TOTAL_CHARGE>
0

> <PUBCHEM_HEAVY_ATOM_COUNT>
22

> <PUBCHEM_ATOM_DEF_STEREO_COUNT>
0

> <PUBCHEM_ATOM_UDEF_STEREO_COUNT>
0

> <PUBCHEM_BOND_DEF_STEREO_COUNT>
0

> <PUBCHEM_BOND_UDEF_STEREO_COUNT>
0

> <PUBCHEM_ISOTOPIC_ATOM_COUNT>
0

> <PUBCHEM_COMPONENT_COUNT>
1

> <PUBCHEM_CACTVS_TAUTO_COUNT>
2

> <PUBCHEM_COORDINATE_TYPE>
1
5
255

> <PUBCHEM_BONDANNOTATIONS>
17  18  8
17  19  8
18  20  8
19  21  8
20  22  8
21  22  8

$$$$

