17395479
  -OEChem-06241222503D

 38 41  0     0  0  0  0  0  0999 V2000
    2.6922   -1.0249   -1.7422 S   0  0  0  0  0  0  0  0  0  0  0  0
   -2.6655    2.6236   -1.0499 O   0  0  0  0  0  0  0  0  0  0  0  0
   -1.6609   -1.9172   -0.3715 N   0  0  0  0  0  0  0  0  0  0  0  0
    0.2610   -1.6801    0.7480 N   0  0  0  0  0  0  0  0  0  0  0  0
    2.3941    0.8157    0.3075 N   0  0  0  0  0  0  0  0  0  0  0  0
    3.0391    1.3118    1.3725 N   0  0  0  0  0  0  0  0  0  0  0  0
    4.2923   -0.2314    0.3631 N   0  0  0  0  0  0  0  0  0  0  0  0
    4.1993    0.6673    1.4018 N   0  0  0  0  0  0  0  0  0  0  0  0
    0.5031   -2.1673   -0.5116 C   0  0  0  0  0  0  0  0  0  0  0  0
   -1.0464   -1.5343    0.8179 C   0  0  0  0  0  0  0  0  0  0  0  0
   -0.6641   -2.3222   -1.2216 C   0  0  0  0  0  0  0  0  0  0  0  0
    1.8776   -2.4549   -0.9491 C   0  0  0  0  0  0  0  0  0  0  0  0
   -3.0365   -1.8678   -0.5786 C   0  0  0  0  0  0  0  0  0  0  0  0
   -1.8953   -1.0691    1.8650 C   0  0  0  0  0  0  0  0  0  0  0  0
    1.1241    1.2696   -0.0332 C   0  0  0  0  0  0  0  0  0  0  0  0
    3.1645   -0.1232   -0.3008 C   0  0  0  0  0  0  0  0  0  0  0  0
   -3.8295   -1.4294    0.4126 C   0  0  0  0  0  0  0  0  0  0  0  0
   -3.2274   -1.0191    1.6712 C   0  0  0  0  0  0  0  0  0  0  0  0
    0.7183    1.2696   -1.3678 C   0  0  0  0  0  0  0  0  0  0  0  0
    0.2564    1.7246    0.9596 C   0  0  0  0  0  0  0  0  0  0  0  0
   -1.4229    2.1796   -0.7165 C   0  0  0  0  0  0  0  0  0  0  0  0
   -0.5552    1.7246   -1.7094 C   0  0  0  0  0  0  0  0  0  0  0  0
   -1.0171    2.1797    0.6180 C   0  0  0  0  0  0  0  0  0  0  0  0
   -3.5013    3.0748    0.0149 C   0  0  0  0  0  0  0  0  0  0  0  0
   -0.8676   -2.6725   -2.2245 H   0  0  0  0  0  0  0  0  0  0  0  0
    2.4874   -2.8017   -0.1075 H   0  0  0  0  0  0  0  0  0  0  0  0
    1.8695   -3.2687   -1.6827 H   0  0  0  0  0  0  0  0  0  0  0  0
   -3.4185   -2.1872   -1.5405 H   0  0  0  0  0  0  0  0  0  0  0  0
   -1.4575   -0.7594    2.8073 H   0  0  0  0  0  0  0  0  0  0  0  0
   -4.9052   -1.3708    0.3014 H   0  0  0  0  0  0  0  0  0  0  0  0
   -3.8888   -0.6665    2.4551 H   0  0  0  0  0  0  0  0  0  0  0  0
    1.3755    1.0649   -2.2024 H   0  0  0  0  0  0  0  0  0  0  0  0
    0.5407    1.7256    2.0091 H   0  0  0  0  0  0  0  0  0  0  0  0
   -0.8568    1.7492   -2.7530 H   0  0  0  0  0  0  0  0  0  0  0  0
   -1.6413    2.5158    1.4388 H   0  0  0  0  0  0  0  0  0  0  0  0
   -4.4499    3.3914   -0.4309 H   0  0  0  0  0  0  0  0  0  0  0  0
   -3.0759    3.9502    0.5172 H   0  0  0  0  0  0  0  0  0  0  0  0
   -3.7320    2.2654    0.7157 H   0  0  0  0  0  0  0  0  0  0  0  0
  1 12  1  0  0  0  0
  1 16  1  0  0  0  0
  2 21  1  0  0  0  0
  2 24  1  0  0  0  0
  3 10  1  0  0  0  0
  3 11  1  0  0  0  0
  3 13  1  0  0  0  0
  4  9  1  0  0  0  0
  4 10  2  0  0  0  0
  5  6  1  0  0  0  0
  5 15  1  0  0  0  0
  5 16  1  0  0  0  0
  6  8  2  0  0  0  0
  7  8  1  0  0  0  0
  7 16  2  0  0  0  0
  9 11  2  0  0  0  0
  9 12  1  0  0  0  0
 10 14  1  0  0  0  0
 11 25  1  0  0  0  0
 12 26  1  0  0  0  0
 12 27  1  0  0  0  0
 13 17  2  0  0  0  0
 13 28  1  0  0  0  0
 14 18  2  0  0  0  0
 14 29  1  0  0  0  0
 15 19  2  0  0  0  0
 15 20  1  0  0  0  0
 17 18  1  0  0  0  0
 17 30  1  0  0  0  0
 18 31  1  0  0  0  0
 19 22  1  0  0  0  0
 19 32  1  0  0  0  0
 20 23  2  0  0  0  0
 20 33  1  0  0  0  0
 21 22  2  0  0  0  0
 21 23  1  0  0  0  0
 22 34  1  0  0  0  0
 23 35  1  0  0  0  0
 24 36  1  0  0  0  0
 24 37  1  0  0  0  0
 24 38  1  0  0  0  0
M  END
> <PUBCHEM_COMPOUND_CID>
17395479

> <PUBCHEM_CONFORMER_RMSD>
0.8

> <PUBCHEM_CONFORMER_DIVERSEORDER>
1
38
12
115
40
53
11
20
55
26
22
3
80
6
104
48
41
52
103
93
58
2
36
56
15
89
95
4
63
110
118
70
72
60
111
17
106
75
101
83
68
39
116
50
113
5
97
27
44
86
100
23
98
34
8
62
99
78
21
105
19
79
51
59
10
77
108
112
29
96
24
114
47
45
69
18
66
33
30
16
90
67
64
35
102
9
31
54
94
25
81
109
49
57
37
7
92
84
13
61
42
43
76
117
65
73
14
74
46
82
71
87
32
107
91
28
88
85

> <PUBCHEM_MMFF94_PARTIAL_CHARGES>
32
1 -0.29
10 0.14
11 -0.3
12 0.41
13 -0.18
14 -0.11
15 -0.02
16 0.24
17 -0.15
18 -0.15
19 -0.15
2 -0.36
20 -0.15
21 0.08
22 -0.15
23 -0.15
24 0.28
25 0.15
28 0.15
29 0.15
3 0.33
30 0.15
31 0.15
32 0.15
33 0.15
34 0.15
35 0.15
4 -0.57
5 0.59
6 -0.42
7 -0.34
9 0.05

> <PUBCHEM_EFFECTIVE_ROTOR_COUNT>
5

> <PUBCHEM_PHARMACOPHORE_FEATURES>
7
1 2 acceptor
3 3 4 10 cation
3 5 7 16 cation
5 3 4 9 10 11 rings
5 5 6 7 8 16 rings
6 15 19 20 21 22 23 rings
6 3 10 13 14 17 18 rings

> <PUBCHEM_HEAVY_ATOM_COUNT>
24

> <PUBCHEM_ATOM_DEF_STEREO_COUNT>
0

> <PUBCHEM_ATOM_UDEF_STEREO_COUNT>
0

> <PUBCHEM_BOND_DEF_STEREO_COUNT>
0

> <PUBCHEM_BOND_UDEF_STEREO_COUNT>
0

> <PUBCHEM_ISOTOPIC_ATOM_COUNT>
0

> <PUBCHEM_COMPONENT_COUNT>
1

> <PUBCHEM_CACTVS_TAUTO_COUNT>
1

> <PUBCHEM_CONFORMER_ID>
01096F1700000001

> <PUBCHEM_MMFF94_ENERGY>
69.749

> <PUBCHEM_FEATURE_SELFOVERLAP>
35.636

> <PUBCHEM_SHAPE_FINGERPRINT>
104564 63 18342455932838955793
10863032 1 18264210390344122327
11578080 2 18187075204433270960
11680986 33 18193554699665429438
12422481 6 18195782233383287593
12633257 1 17896036551483562802
12788726 201 18200018556410207525
13140716 1 18051693239590510090
13149001 5 17761767768748801262
13965767 371 17898536956821248731
14251745 187 18340491152994709893
14840074 17 17910105812100110276
15881359 60 18410291380672318198
16752209 62 18342735204650431014
16945 1 18270950246341108542
17357779 13 18410572872923973823
17492 54 17479997032284668109
18981168 100 18042692873755292146
20691752 17 18267845234168238771
20905425 154 18411415159108208607
21756936 100 15650158604768957424
22182313 1 18263635315719318246
23184049 59 18265330599377444027
23419403 2 18044355352368470774
23559900 14 18263922310467482700
238 59 17824550909233861260
2748010 2 18264759033904074374
3052486 1 17774429590267224061
4340502 62 18193843867171725597
495365 180 17263585681749584685
5283268 108 18127949980646844771
6992083 37 17975133136831074003
81228 2 18272079509159656776

> <PUBCHEM_SHAPE_MULTIPOLES>
462
6.18
3.61
1.69
1.94
0.78
0.08
0.19
1.57
-2.67
-0.83
0.2
0.03
1.47

> <PUBCHEM_SHAPE_SELFOVERLAP>
1004.389

> <PUBCHEM_SHAPE_VOLUME>
255

> <PUBCHEM_COORDINATE_TYPE>
2
5
10

$$$$

