4550
  -OEChem-06261200122D

 30 32  0     0  0  0  0  0  0999 V2000
    7.1279   -2.1296    0.0000 O   0  0  0  0  0  0  0  0  0  0  0  0
    7.9939   -0.6296    0.0000 O   0  0  0  0  0  0  0  0  0  0  0  0
    2.0000   -0.1296    0.0000 O   0  0  0  0  0  0  0  0  0  0  0  0
    2.2944   -2.0911    0.0000 O   0  0  0  0  0  0  0  0  0  0  0  0
    3.5836    0.6751    0.0000 N   0  0  0  0  0  0  0  0  0  0  0  0
    7.1279   -1.1296    0.0000 N   0  0  0  0  0  0  0  0  0  0  0  0
    3.2729   -1.8849    0.0000 N   0  0  0  0  0  0  0  0  0  0  0  0
    5.3958    0.8704    0.0000 C   0  0  0  0  0  0  0  0  0  0  0  0
    6.2619    0.3704    0.0000 C   0  0  0  0  0  0  0  0  0  0  0  0
    5.3798    1.9119    0.0000 C   0  0  0  0  0  0  0  0  0  0  0  0
    7.1719    0.8772    0.0000 C   0  0  0  0  0  0  0  0  0  0  0  0
    6.2778    2.4396    0.0000 C   0  0  0  0  0  0  0  0  0  0  0  0
    7.1799    1.9188    0.0000 C   0  0  0  0  0  0  0  0  0  0  0  0
    4.5298    0.3704    0.0000 C   0  0  0  0  0  0  0  0  0  0  0  0
    6.2619   -0.6296    0.0000 C   0  0  0  0  0  0  0  0  0  0  0  0
    4.5298   -0.6296    0.0000 C   0  0  0  0  0  0  0  0  0  0  0  0
    5.3958   -1.1296    0.0000 C   0  0  0  0  0  0  0  0  0  0  0  0
    3.5836   -0.9344    0.0000 C   0  0  0  0  0  0  0  0  0  0  0  0
    3.0000   -0.1296    0.0000 C   0  0  0  0  0  0  0  0  0  0  0  0
    5.1618    2.4923    0.0000 H   0  0  0  0  0  0  0  0  0  0  0  0
    4.7706    1.7964    0.0000 H   0  0  0  0  0  0  0  0  0  0  0  0
    7.3764    0.2919    0.0000 H   0  0  0  0  0  0  0  0  0  0  0  0
    7.7835    0.9786    0.0000 H   0  0  0  0  0  0  0  0  0  0  0  0
    6.6751    2.9156    0.0000 H   0  0  0  0  0  0  0  0  0  0  0  0
    5.8769    2.9125    0.0000 H   0  0  0  0  0  0  0  0  0  0  0  0
    7.7899    1.8080    0.0000 H   0  0  0  0  0  0  0  0  0  0  0  0
    7.3935    2.5009    0.0000 H   0  0  0  0  0  0  0  0  0  0  0  0
    5.3958   -1.7496    0.0000 H   0  0  0  0  0  0  0  0  0  0  0  0
    8.5309   -0.9396    0.0000 H   0  0  0  0  0  0  0  0  0  0  0  0
    7.6648   -2.4396    0.0000 H   0  0  0  0  0  0  0  0  0  0  0  0
  1  6  1  0  0  0  0
  1 30  1  0  0  0  0
  2  6  1  0  0  0  0
  2 29  1  0  0  0  0
  3 19  2  0  0  0  0
  4  7  2  0  0  0  0
  5 14  2  0  0  0  0
  5 19  1  0  0  0  0
  6 15  1  0  0  0  0
  7 18  1  0  0  0  0
  8  9  2  0  0  0  0
  8 10  1  0  0  0  0
  8 14  1  0  0  0  0
  9 11  1  0  0  0  0
  9 15  1  0  0  0  0
 10 12  1  0  0  0  0
 10 20  1  0  0  0  0
 10 21  1  0  0  0  0
 11 13  1  0  0  0  0
 11 22  1  0  0  0  0
 11 23  1  0  0  0  0
 12 13  1  0  0  0  0
 12 24  1  0  0  0  0
 12 25  1  0  0  0  0
 13 26  1  0  0  0  0
 13 27  1  0  0  0  0
 14 16  1  0  0  0  0
 15 17  2  0  0  0  0
 16 17  1  0  0  0  0
 16 18  2  0  0  0  0
 17 28  1  0  0  0  0
 18 19  1  0  0  0  0
M  END
> <PUBCHEM_COMPOUND_CID>
4550

> <PUBCHEM_COMPOUND_CANONICALIZED>
1

> <PUBCHEM_CACTVS_COMPLEXITY>
611

> <PUBCHEM_CACTVS_HBOND_ACCEPTOR>
6

> <PUBCHEM_CACTVS_HBOND_DONOR>
2

> <PUBCHEM_CACTVS_ROTATABLE_BOND>
1

> <PUBCHEM_CACTVS_SUBSKEYS>
AAADccBzOAAAAAAAAAAAAAAAAAAAAQAAAAAgQAAAAAAAAECAAAAAHgAECAAADAiBgAAAAAIQQACpAyVyVgCAAAAgAgAgCACgAFgIQAIAgAAAAAAAgAAIgQMQgIAAAAAAAAAAAAAAAAAAAAAAAAAAAAAAAA==

> <PUBCHEM_IUPAC_OPENEYE_NAME>
5-(dihydroxyamino)-3-nitroso-6,7,8,9-tetrahydrobenzo[g]indol-2-one

> <PUBCHEM_IUPAC_CAS_NAME>
5-(dihydroxyamino)-3-nitroso-6,7,8,9-tetrahydrobenzo[g]indol-2-one

> <PUBCHEM_IUPAC_NAME>
5-(dihydroxyamino)-3-nitroso-6,7,8,9-tetrahydrobenzo[g]indol-2-one

> <PUBCHEM_IUPAC_SYSTEMATIC_NAME>
5-[bis(oxidanyl)amino]-3-nitroso-6,7,8,9-tetrahydrobenzo[g]indol-2-one

> <PUBCHEM_IUPAC_TRADITIONAL_NAME>
5-(dihydroxyamino)-3-nitroso-6,7,8,9-tetrahydrobenz[g]indol-2-one

> <PUBCHEM_IUPAC_INCHI>
InChI=1S/C12H11N3O4/c16-12-11(14-17)8-5-9(15(18)19)6-3-1-2-4-7(6)10(8)13-12/h5,18-19H,1-4H2

> <PUBCHEM_IUPAC_INCHIKEY>
OZGILHKVNJOFFQ-UHFFFAOYSA-N

> <PUBCHEM_XLOGP3_AA>
0.3

> <PUBCHEM_EXACT_MASS>
261.074956

> <PUBCHEM_MOLECULAR_FORMULA>
C12H11N3O4

> <PUBCHEM_MOLECULAR_WEIGHT>
261.23344

> <PUBCHEM_OPENEYE_CAN_SMILES>
C1CCC2=C(C1)C(=CC3=C(C(=O)N=C23)N=O)N(O)O

> <PUBCHEM_OPENEYE_ISO_SMILES>
C1CCC2=C(C1)C(=CC3=C(C(=O)N=C23)N=O)N(O)O

> <PUBCHEM_CACTVS_TPSA>
103

> <PUBCHEM_MONOISOTOPIC_WEIGHT>
261.074956

> <PUBCHEM_TOTAL_CHARGE>
0

> <PUBCHEM_HEAVY_ATOM_COUNT>
19

> <PUBCHEM_ATOM_DEF_STEREO_COUNT>
0

> <PUBCHEM_ATOM_UDEF_STEREO_COUNT>
0

> <PUBCHEM_BOND_DEF_STEREO_COUNT>
0

> <PUBCHEM_BOND_UDEF_STEREO_COUNT>
0

> <PUBCHEM_ISOTOPIC_ATOM_COUNT>
0

> <PUBCHEM_COMPONENT_COUNT>
1

> <PUBCHEM_CACTVS_TAUTO_COUNT>
47

> <PUBCHEM_COORDINATE_TYPE>
1
5
255

> <PUBCHEM_BONDANNOTATIONS>
14  16  8
15  17  8
16  17  8
8  14  8
8  9  8
9  15  8

$$$$

