6219
  -OEChem-06261201113D

 57 58  0     0  0  0  0  0  0999 V2000
    0.4361   -0.6770    0.5777 O   0  0  0  0  0  0  0  0  0  0  0  0
   -0.3218    0.4499   -1.2874 O   0  0  0  0  0  0  0  0  0  0  0  0
   -4.2081    0.5011    0.4559 N   0  0  0  0  0  0  0  0  0  0  0  0
    1.7546   -0.7119    0.0232 C   0  0  0  0  0  0  0  0  0  0  0  0
    2.2169    0.7332   -0.1721 C   0  0  0  0  0  0  0  0  0  0  0  0
    2.6693   -1.4373    1.0220 C   0  0  0  0  0  0  0  0  0  0  0  0
    1.7129   -1.4561   -1.3215 C   0  0  0  0  0  0  0  0  0  0  0  0
    2.1439    1.5089    1.1501 C   0  0  0  0  0  0  0  0  0  0  0  0
    3.6372    0.7742   -0.7519 C   0  0  0  0  0  0  0  0  0  0  0  0
    2.3014   -2.9139    1.1797 C   0  0  0  0  0  0  0  0  0  0  0  0
    1.3458   -2.9315   -1.1557 C   0  0  0  0  0  0  0  0  0  0  0  0
    2.6510    2.9405    0.9924 C   0  0  0  0  0  0  0  0  0  0  0  0
    4.1419    2.2069   -0.9062 C   0  0  0  0  0  0  0  0  0  0  0  0
    2.2699   -3.6324   -0.1653 C   0  0  0  0  0  0  0  0  0  0  0  0
    4.0596    2.9774    0.4078 C   0  0  0  0  0  0  0  0  0  0  0  0
   -0.5101   -0.0603   -0.1917 C   0  0  0  0  0  0  0  0  0  0  0  0
   -1.8369   -0.1078    0.5322 C   0  0  0  0  0  0  0  0  0  0  0  0
   -2.9404    0.5891   -0.2582 C   0  0  0  0  0  0  0  0  0  0  0  0
   -4.8269   -0.8096    0.2489 C   0  0  0  0  0  0  0  0  0  0  0  0
   -5.1175    1.5650    0.0261 C   0  0  0  0  0  0  0  0  0  0  0  0
   -6.1167   -0.9390    1.0414 C   0  0  0  0  0  0  0  0  0  0  0  0
   -5.4621    1.4305   -1.4475 C   0  0  0  0  0  0  0  0  0  0  0  0
    1.6056    1.2848   -0.8897 H   0  0  0  0  0  0  0  0  0  0  0  0
    2.5944   -1.0032    2.0240 H   0  0  0  0  0  0  0  0  0  0  0  0
    3.7201   -1.4125    0.7238 H   0  0  0  0  0  0  0  0  0  0  0  0
    2.7086   -1.4597   -1.7791 H   0  0  0  0  0  0  0  0  0  0  0  0
    1.0582   -1.0254   -2.0797 H   0  0  0  0  0  0  0  0  0  0  0  0
    1.1178    1.5478    1.5317 H   0  0  0  0  0  0  0  0  0  0  0  0
    2.7575    1.0416    1.9266 H   0  0  0  0  0  0  0  0  0  0  0  0
    4.3619    0.2566   -0.1185 H   0  0  0  0  0  0  0  0  0  0  0  0
    3.6826    0.3169   -1.7442 H   0  0  0  0  0  0  0  0  0  0  0  0
    1.3207   -3.0013    1.6632 H   0  0  0  0  0  0  0  0  0  0  0  0
    3.0241   -3.4049    1.8416 H   0  0  0  0  0  0  0  0  0  0  0  0
    1.4062   -3.4356   -2.1273 H   0  0  0  0  0  0  0  0  0  0  0  0
    0.3063   -3.0207   -0.8179 H   0  0  0  0  0  0  0  0  0  0  0  0
    2.6434    3.4444    1.9656 H   0  0  0  0  0  0  0  0  0  0  0  0
    1.9694    3.4993    0.3393 H   0  0  0  0  0  0  0  0  0  0  0  0
    5.1783    2.1978   -1.2628 H   0  0  0  0  0  0  0  0  0  0  0  0
    3.5477    2.7239   -1.6700 H   0  0  0  0  0  0  0  0  0  0  0  0
    1.9399   -4.6675   -0.0226 H   0  0  0  0  0  0  0  0  0  0  0  0
    3.2847   -3.6754   -0.5797 H   0  0  0  0  0  0  0  0  0  0  0  0
    4.7654    2.5464    1.1285 H   0  0  0  0  0  0  0  0  0  0  0  0
    4.3643    4.0174    0.2453 H   0  0  0  0  0  0  0  0  0  0  0  0
   -1.7106    0.3809    1.5057 H   0  0  0  0  0  0  0  0  0  0  0  0
   -2.0682   -1.1655    0.6939 H   0  0  0  0  0  0  0  0  0  0  0  0
   -2.6361    1.6381   -0.3776 H   0  0  0  0  0  0  0  0  0  0  0  0
   -2.9973    0.1645   -1.2691 H   0  0  0  0  0  0  0  0  0  0  0  0
   -4.1599   -1.5884    0.6359 H   0  0  0  0  0  0  0  0  0  0  0  0
   -4.9944   -1.0646   -0.8036 H   0  0  0  0  0  0  0  0  0  0  0  0
   -6.0272    1.6006    0.6348 H   0  0  0  0  0  0  0  0  0  0  0  0
   -4.6406    2.5393    0.1957 H   0  0  0  0  0  0  0  0  0  0  0  0
   -5.9871   -0.6202    2.0814 H   0  0  0  0  0  0  0  0  0  0  0  0
   -6.9420   -0.3739    0.5980 H   0  0  0  0  0  0  0  0  0  0  0  0
   -6.4307   -1.9888    1.0608 H   0  0  0  0  0  0  0  0  0  0  0  0
   -4.5884    1.4392   -2.1051 H   0  0  0  0  0  0  0  0  0  0  0  0
   -6.0694    0.5494   -1.6722 H   0  0  0  0  0  0  0  0  0  0  0  0
   -6.0697    2.2948   -1.7423 H   0  0  0  0  0  0  0  0  0  0  0  0
  1  4  1  0  0  0  0
  1 16  1  0  0  0  0
  2 16  2  0  0  0  0
  3 18  1  0  0  0  0
  3 19  1  0  0  0  0
  3 20  1  0  0  0  0
  4  5  1  0  0  0  0
  4  6  1  0  0  0  0
  4  7  1  0  0  0  0
  5  8  1  0  0  0  0
  5  9  1  0  0  0  0
  5 23  1  0  0  0  0
  6 10  1  0  0  0  0
  6 24  1  0  0  0  0
  6 25  1  0  0  0  0
  7 11  1  0  0  0  0
  7 26  1  0  0  0  0
  7 27  1  0  0  0  0
  8 12  1  0  0  0  0
  8 28  1  0  0  0  0
  8 29  1  0  0  0  0
  9 13  1  0  0  0  0
  9 30  1  0  0  0  0
  9 31  1  0  0  0  0
 10 14  1  0  0  0  0
 10 32  1  0  0  0  0
 10 33  1  0  0  0  0
 11 14  1  0  0  0  0
 11 34  1  0  0  0  0
 11 35  1  0  0  0  0
 12 15  1  0  0  0  0
 12 36  1  0  0  0  0
 12 37  1  0  0  0  0
 13 15  1  0  0  0  0
 13 38  1  0  0  0  0
 13 39  1  0  0  0  0
 14 40  1  0  0  0  0
 14 41  1  0  0  0  0
 15 42  1  0  0  0  0
 15 43  1  0  0  0  0
 16 17  1  0  0  0  0
 17 18  1  0  0  0  0
 17 44  1  0  0  0  0
 17 45  1  0  0  0  0
 18 46  1  0  0  0  0
 18 47  1  0  0  0  0
 19 21  1  0  0  0  0
 19 48  1  0  0  0  0
 19 49  1  0  0  0  0
 20 22  1  0  0  0  0
 20 50  1  0  0  0  0
 20 51  1  0  0  0  0
 21 52  1  0  0  0  0
 21 53  1  0  0  0  0
 21 54  1  0  0  0  0
 22 55  1  0  0  0  0
 22 56  1  0  0  0  0
 22 57  1  0  0  0  0
M  END
> <PUBCHEM_COMPOUND_CID>
6219

> <PUBCHEM_CONFORMER_RMSD>
1

> <PUBCHEM_CONFORMER_DIVERSEORDER>
1
19
20
31
8
22
55
28
51
53
50
27
30
52
56
41
37
5
11
14
39
2
45
36
12
6
4
21
29
38
42
33
16
35
13
25
15
49
57
47
18
46
48
26
54
40
24
7
32
23
3
10
58
17
43
9
59
60
34
44

> <PUBCHEM_MMFF94_PARTIAL_CHARGES>
9
1 -0.43
16 0.66
17 0.06
18 0.27
19 0.27
2 -0.57
20 0.27
3 -0.81
4 0.28

> <PUBCHEM_EFFECTIVE_ROTOR_COUNT>
10.4

> <PUBCHEM_PHARMACOPHORE_FEATURES>
4
1 2 acceptor
1 3 cation
6 4 6 7 10 11 14 rings
6 5 8 9 12 13 15 rings

> <PUBCHEM_HEAVY_ATOM_COUNT>
22

> <PUBCHEM_ATOM_DEF_STEREO_COUNT>
0

> <PUBCHEM_ATOM_UDEF_STEREO_COUNT>
0

> <PUBCHEM_BOND_DEF_STEREO_COUNT>
0

> <PUBCHEM_BOND_UDEF_STEREO_COUNT>
0

> <PUBCHEM_ISOTOPIC_ATOM_COUNT>
0

> <PUBCHEM_COMPONENT_COUNT>
1

> <PUBCHEM_CACTVS_TAUTO_COUNT>
1

> <PUBCHEM_CONFORMER_ID>
0000184B00000001

> <PUBCHEM_MMFF94_ENERGY>
42.408

> <PUBCHEM_FEATURE_SELFOVERLAP>
20.297

> <PUBCHEM_SHAPE_FINGERPRINT>
10165383 225 18270110202889736868
11405975 8 18268429208645469873
11475781 23 16988021470066450959
12532896 13 18120939404566935142
12644460 14 18261101993784541467
12730499 353 18338224986415173539
12769317 202 18335143068033852544
13009979 54 16952796522577664794
13533116 47 18409729599809909539
13583140 156 18408609158632329509
13878862 14 18196957654189836469
13955234 65 18409444812596041682
14178000 15 18120093042311192658
14178342 30 17845088463712570355
146900 427 18260538988323391865
14955137 171 18335991977716839778
15961568 22 17703788098434401837
17134986 127 18263364703216091420
17844677 252 18339354288569292601
17868525 174 17982180224791911705
18785283 64 18342461435166757258
20369508 70 18127976518880962707
20465049 17 18261941991046327774
20645477 70 18410006680433916815
21065201 7 17203043093227494379
21120745 212 17470716072379462918
21524375 3 18337388224118108556
22289505 5 18339084903176804325
22393880 68 18261952959870679199
23557571 272 17561080319928144013
23558518 356 17398685506148611888
23559900 14 18337677545752415739
239999 70 18261383481562069910
268830 7 18261103128336500297
3060560 45 18113334215554852316
31174 14 18341056331883307134
312423 11 18041830852591724201
3178227 256 18410287000380533664
495365 180 18335430057769209216
5104073 3 18272647987553646833
6025842 7 18408887356037465663
621550 34 18343022177259276781
6442390 28 18267302019726172702
7364860 26 18410011082991536618
77188 2 17979358891467616218
7808743 9 17763465020040499136
81539 233 18410571764954065628
8272917 22 18335416906494848622
9841814 1 18198062684354384082
9999458 23 18341611499941316854

> <PUBCHEM_SHAPE_MULTIPOLES>
436.03
11.53
3.81
1.3
22.43
1.55
-0.14
-5.51
0.31
-5.7
0.23
-0.09
0.1
0.96

> <PUBCHEM_SHAPE_SELFOVERLAP>
872.318

> <PUBCHEM_SHAPE_VOLUME>
254.2

> <PUBCHEM_COORDINATE_TYPE>
2
5
10

$$$$

