17396653
  -OEChem-06241222573D

 50 53  0     1  0  0  0  0  0999 V2000
    3.8362    0.9050   -2.4233 F   0  0  0  0  0  0  0  0  0  0  0  0
    1.2357   -2.2151    1.5819 O   0  0  0  0  0  0  0  0  0  0  0  0
    1.0859   -3.4947   -0.9970 O   0  0  0  0  0  0  0  0  0  0  0  0
   -0.7200    1.7556   -1.8412 O   0  0  0  0  0  0  0  0  0  0  0  0
   -3.1518    1.2080   -0.2799 N   0  0  1  0  0  0  0  0  0  0  0  0
    0.0902    2.0266    0.3456 N   0  0  0  0  0  0  0  0  0  0  0  0
   -2.9595    0.1075    0.6853 C   0  0  1  0  0  0  0  0  0  0  0  0
   -4.3420   -0.5617    0.7961 C   0  0  0  0  0  0  0  0  0  0  0  0
   -5.2579    0.2678   -0.0926 C   0  0  0  0  0  0  0  0  0  0  0  0
   -4.5554    1.6078   -0.1769 C   0  0  0  0  0  0  0  0  0  0  0  0
   -1.8750   -0.8590    0.2582 C   0  0  0  0  0  0  0  0  0  0  0  0
   -2.2454    2.3281   -0.0618 C   0  0  0  0  0  0  0  0  0  0  0  0
   -0.7887   -1.1035    1.0985 C   0  0  0  0  0  0  0  0  0  0  0  0
   -1.9669   -1.5077   -0.9737 C   0  0  0  0  0  0  0  0  0  0  0  0
   -0.8843    1.9988   -0.6500 C   0  0  0  0  0  0  0  0  0  0  0  0
    0.2046   -2.0007    0.7050 C   0  0  0  0  0  0  0  0  0  0  0  0
   -0.9672   -2.3946   -1.3740 C   0  0  0  0  0  0  0  0  0  0  0  0
    0.1264   -2.6294   -0.5402 C   0  0  0  0  0  0  0  0  0  0  0  0
    1.9906   -3.3817    1.2426 C   0  0  0  0  0  0  0  0  0  0  0  0
    2.2968   -3.3954   -0.2424 C   0  0  0  0  0  0  0  0  0  0  0  0
    1.4761    1.7765    0.2045 C   0  0  0  0  0  0  0  0  0  0  0  0
    2.3304    1.8431    1.3052 C   0  0  0  0  0  0  0  0  0  0  0  0
    1.9848    1.4598   -1.0550 C   0  0  0  0  0  0  0  0  0  0  0  0
    3.6934    1.5931    1.1463 C   0  0  0  0  0  0  0  0  0  0  0  0
    1.8133    2.1799    2.6660 C   0  0  0  0  0  0  0  0  0  0  0  0
    3.3478    1.2096   -1.2139 C   0  0  0  0  0  0  0  0  0  0  0  0
    4.2021    1.2764   -0.1134 C   0  0  0  0  0  0  0  0  0  0  0  0
   -2.7204    0.5121    1.6792 H   0  0  0  0  0  0  0  0  0  0  0  0
   -4.3667   -1.6175    0.5064 H   0  0  0  0  0  0  0  0  0  0  0  0
   -4.6934   -0.4999    1.8338 H   0  0  0  0  0  0  0  0  0  0  0  0
   -6.2690    0.3494    0.3170 H   0  0  0  0  0  0  0  0  0  0  0  0
   -5.3285   -0.1907   -1.0867 H   0  0  0  0  0  0  0  0  0  0  0  0
   -4.7458    2.1950    0.7304 H   0  0  0  0  0  0  0  0  0  0  0  0
   -4.8860    2.1812   -1.0484 H   0  0  0  0  0  0  0  0  0  0  0  0
   -2.5915    3.2087   -0.6195 H   0  0  0  0  0  0  0  0  0  0  0  0
   -2.2000    2.6287    0.9911 H   0  0  0  0  0  0  0  0  0  0  0  0
   -0.7154   -0.6083    2.0636 H   0  0  0  0  0  0  0  0  0  0  0  0
   -2.8081   -1.3310   -1.6388 H   0  0  0  0  0  0  0  0  0  0  0  0
   -1.0419   -2.8884   -2.3390 H   0  0  0  0  0  0  0  0  0  0  0  0
   -0.2179    2.2454    1.2885 H   0  0  0  0  0  0  0  0  0  0  0  0
    2.9189   -3.3570    1.8218 H   0  0  0  0  0  0  0  0  0  0  0  0
    1.4206   -4.2684    1.5462 H   0  0  0  0  0  0  0  0  0  0  0  0
    2.8295   -2.4879   -0.5531 H   0  0  0  0  0  0  0  0  0  0  0  0
    2.9183   -4.2601   -0.4947 H   0  0  0  0  0  0  0  0  0  0  0  0
    1.3944    1.3851   -1.9562 H   0  0  0  0  0  0  0  0  0  0  0  0
    4.3734    1.6402    1.9928 H   0  0  0  0  0  0  0  0  0  0  0  0
    2.6146    2.1924    3.4131 H   0  0  0  0  0  0  0  0  0  0  0  0
    1.0793    1.4362    2.9936 H   0  0  0  0  0  0  0  0  0  0  0  0
    1.3546    3.1743    2.6689 H   0  0  0  0  0  0  0  0  0  0  0  0
    5.2631    1.0810   -0.2377 H   0  0  0  0  0  0  0  0  0  0  0  0
  1 26  1  0  0  0  0
  2 16  1  0  0  0  0
  2 19  1  0  0  0  0
  3 18  1  0  0  0  0
  3 20  1  0  0  0  0
  4 15  2  0  0  0  0
  5  7  1  0  0  0  0
  5 10  1  0  0  0  0
  5 12  1  0  0  0  0
  6 15  1  0  0  0  0
  6 21  1  0  0  0  0
  6 40  1  0  0  0  0
  7  8  1  0  0  0  0
  7 11  1  0  0  0  0
  7 28  1  0  0  0  0
  8  9  1  0  0  0  0
  8 29  1  0  0  0  0
  8 30  1  0  0  0  0
  9 10  1  0  0  0  0
  9 31  1  0  0  0  0
  9 32  1  0  0  0  0
 10 33  1  0  0  0  0
 10 34  1  0  0  0  0
 11 13  2  0  0  0  0
 11 14  1  0  0  0  0
 12 15  1  0  0  0  0
 12 35  1  0  0  0  0
 12 36  1  0  0  0  0
 13 16  1  0  0  0  0
 13 37  1  0  0  0  0
 14 17  2  0  0  0  0
 14 38  1  0  0  0  0
 16 18  2  0  0  0  0
 17 18  1  0  0  0  0
 17 39  1  0  0  0  0
 19 20  1  0  0  0  0
 19 41  1  0  0  0  0
 19 42  1  0  0  0  0
 20 43  1  0  0  0  0
 20 44  1  0  0  0  0
 21 22  2  0  0  0  0
 21 23  1  0  0  0  0
 22 24  1  0  0  0  0
 22 25  1  0  0  0  0
 23 26  2  0  0  0  0
 23 45  1  0  0  0  0
 24 27  2  0  0  0  0
 24 46  1  0  0  0  0
 25 47  1  0  0  0  0
 25 48  1  0  0  0  0
 25 49  1  0  0  0  0
 26 27  1  0  0  0  0
 27 50  1  0  0  0  0
M  END
> <PUBCHEM_COMPOUND_CID>
17396653

> <PUBCHEM_CONFORMER_RMSD>
0.8

> <PUBCHEM_CONFORMER_DIVERSEORDER>
1
225
301
332
58
146
324
184
69
3
109
38
40
166
138
181
312
195
124
154
243
199
293
148
257
167
284
313
67
62
49
240
263
350
88
189
44
331
103
68
61
87
192
14
79
310
57
247
43
235
279
187
161
129
345
261
133
149
47
76
323
63
102
113
249
337
142
186
223
213
41
131
200
59
94
236
159
70
99
335
164
115
309
141
111
229
85
231
282
302
218
2
352
53
237
65
162
114
290
298
220
210
224
151
155
157
252
92
277
37
20
48
165
173
182
194
320
100
147
130
106
303
179
214
262
31
9
123
259
144
50
52
348
188
280
305
294
273
258
10
328
344
343
207
288
120
307
172
16
34
45
230
292
156
134
27
314
340
17
132
82
180
12
308
145
35
7
339
221
233
209
232
77
341
264
299
274
287
80
25
105
316
160
241
267
193
286
351
169
36
112
300
306
278
353
91
321
15
81
205
285
271
255
319
83
216
127
347
96
251
234
64
190
325
6
174
42
24
54
228
254
5
108
215
30
289
327
152
22
226
227
4
203
13
51
196
78
297
183
317
118
175
272
248
333
304
222
326
269
171
55
322
23
191
212
311
334
18
204
90
101
121
56
104
185
275
97
242
197
281
21
336
238
318
250
295
163
206
60
201
122
198
29
217
32
244
116
11
110
137
19
93
168
72
46
349
89
107
246
211
202
71
84
140
342
315
39
26
268
66
150
253
125
153
139
245
119
75
265
135
338
28
296
170
33
346
117
329
98
291
95
276
283
143
86
177
208
158
73
239
8
266
178
270
256
260
126
128
219
176
136
330
74

> <PUBCHEM_MMFF94_PARTIAL_CHARGES>
32
1 -0.19
10 0.27
11 -0.14
12 0.33
13 -0.15
14 -0.15
15 0.57
16 0.08
17 -0.15
18 0.08
19 0.28
2 -0.36
20 0.28
21 0.12
22 -0.14
23 -0.15
24 -0.15
25 0.14
26 0.19
27 -0.15
3 -0.36
37 0.15
38 0.15
39 0.15
4 -0.57
40 0.37
45 0.15
46 0.15
5 -0.81
50 0.15
6 -0.55
7 0.41

> <PUBCHEM_EFFECTIVE_ROTOR_COUNT>
6.8

> <PUBCHEM_PHARMACOPHORE_FEATURES>
9
1 2 acceptor
1 3 acceptor
1 4 acceptor
1 5 cation
1 6 donor
5 5 7 8 9 10 rings
6 11 13 14 16 17 18 rings
6 2 3 16 18 19 20 rings
6 21 22 23 24 26 27 rings

> <PUBCHEM_HEAVY_ATOM_COUNT>
27

> <PUBCHEM_ATOM_DEF_STEREO_COUNT>
0

> <PUBCHEM_ATOM_UDEF_STEREO_COUNT>
1

> <PUBCHEM_BOND_DEF_STEREO_COUNT>
0

> <PUBCHEM_BOND_UDEF_STEREO_COUNT>
0

> <PUBCHEM_ISOTOPIC_ATOM_COUNT>
0

> <PUBCHEM_COMPONENT_COUNT>
1

> <PUBCHEM_CACTVS_TAUTO_COUNT>
2

> <PUBCHEM_CONFORMER_ID>
010973AD00000001

> <PUBCHEM_MMFF94_ENERGY>
76.909

> <PUBCHEM_FEATURE_SELFOVERLAP>
45.711

> <PUBCHEM_SHAPE_FINGERPRINT>
10190108 129 18049424956537121883
11370993 70 16878501203143593284
11578080 2 16844459404436376863
11582403 64 16013021742152674696
11963148 33 18128819630369371443
12156800 1 15048873202943878402
12422481 6 18126592186760151616
12553582 1 16609414187551245115
12592029 89 18341041935521916977
12633257 1 18044677307855480744
12788726 201 17402895518616846767
13140716 1 18051407371590204057
13149001 5 17407700848423872301
133893 2 18055048103043674441
14955137 171 17972604556403210662
16752209 62 18198069070880841617
17492 54 17551501576479996414
20028762 73 17974846169335289239
20642791 13 17395311126120993869
20905425 154 18266732657207185205
22956985 138 17914909852857830107
23419403 2 17913507992948973047
23559900 14 18127980913075273995
3298306 158 18413108368333858837
3380486 77 17192118117316911806
3411729 13 18341045320035676409
465052 167 17345182299989386977
513532 50 17313398845423058793
5265222 85 18339917096910456820
6287921 2 17898306132145757527
81228 2 17397828977689299811

> <PUBCHEM_SHAPE_MULTIPOLES>
520.8
7.58
4.33
1.76
4.76
3.8
0.11
-4.14
-0.21
-2.53
0.19
-1.56
-0.41
0.11

> <PUBCHEM_SHAPE_SELFOVERLAP>
1130.054

> <PUBCHEM_SHAPE_VOLUME>
286.5

> <PUBCHEM_COORDINATE_TYPE>
2
5
10

$$$$

