6456
  -OEChem-06261201203D

 35 37  0     0  0  0  0  0  0999 V2000
    0.0169   -0.0108    2.4785 Cl  0  0  0  0  0  0  0  0  0  0  0  0
   -0.0546   -0.0108    0.5872 C   0  0  0  0  0  0  0  0  0  0  0  0
   -1.4788   -0.2099    0.1914 C   0  0  0  0  0  0  0  0  0  0  0  0
    0.5597    1.3851    0.1837 C   0  0  0  0  0  0  0  0  0  0  0  0
    0.9223   -1.1777    0.1716 C   0  0  0  0  0  0  0  0  0  0  0  0
   -1.9811    0.4215   -0.9465 C   0  0  0  0  0  0  0  0  0  0  0  0
   -0.0394    2.4870    0.6936 C   0  0  0  0  0  0  0  0  0  0  0  0
    0.6082   -1.8676   -0.9502 C   0  0  0  0  0  0  0  0  0  0  0  0
   -2.3083   -1.0278    0.9587 C   0  0  0  0  0  0  0  0  0  0  0  0
    1.6351    1.3652   -0.6385 C   0  0  0  0  0  0  0  0  0  0  0  0
    1.9940   -1.3918    0.9709 C   0  0  0  0  0  0  0  0  0  0  0  0
   -3.3129    0.2353   -1.3170 C   0  0  0  0  0  0  0  0  0  0  0  0
    0.5038    3.7214    0.3370 C   0  0  0  0  0  0  0  0  0  0  0  0
    1.4719   -2.8992   -1.3180 C   0  0  0  0  0  0  0  0  0  0  0  0
   -3.6401   -1.2142    0.5879 C   0  0  0  0  0  0  0  0  0  0  0  0
    2.1784    2.5996   -0.9949 C   0  0  0  0  0  0  0  0  0  0  0  0
    2.8578   -2.4234    0.6030 C   0  0  0  0  0  0  0  0  0  0  0  0
   -4.1423   -0.5825   -0.5499 C   0  0  0  0  0  0  0  0  0  0  0  0
    1.6126    3.7776   -0.5071 C   0  0  0  0  0  0  0  0  0  0  0  0
    2.5968   -3.1771   -0.5414 C   0  0  0  0  0  0  0  0  0  0  0  0
   -1.3607    1.0449   -1.5836 H   0  0  0  0  0  0  0  0  0  0  0  0
   -0.9089    2.4592    1.3403 H   0  0  0  0  0  0  0  0  0  0  0  0
   -0.2457   -1.6651   -1.5831 H   0  0  0  0  0  0  0  0  0  0  0  0
   -1.9557   -1.5792    1.8246 H   0  0  0  0  0  0  0  0  0  0  0  0
    2.1034    0.4956   -1.0761 H   0  0  0  0  0  0  0  0  0  0  0  0
    2.2860   -0.7982    1.8273 H   0  0  0  0  0  0  0  0  0  0  0  0
   -3.7027    0.7216   -2.2065 H   0  0  0  0  0  0  0  0  0  0  0  0
    0.0612    4.6389    0.7140 H   0  0  0  0  0  0  0  0  0  0  0  0
    1.2719   -3.4829   -2.2119 H   0  0  0  0  0  0  0  0  0  0  0  0
   -4.2835   -1.8599    1.1784 H   0  0  0  0  0  0  0  0  0  0  0  0
    3.0376    2.6451   -1.6580 H   0  0  0  0  0  0  0  0  0  0  0  0
    3.7430   -2.6300    1.1977 H   0  0  0  0  0  0  0  0  0  0  0  0
   -5.1781   -0.7309   -0.8407 H   0  0  0  0  0  0  0  0  0  0  0  0
    2.0341    4.7388   -0.7865 H   0  0  0  0  0  0  0  0  0  0  0  0
    3.2721   -3.9770   -0.8305 H   0  0  0  0  0  0  0  0  0  0  0  0
  1  2  1  0  0  0  0
  2  3  1  0  0  0  0
  2  4  1  0  0  0  0
  2  5  1  0  0  0  0
  3  6  2  0  0  0  0
  3  9  1  0  0  0  0
  4  7  2  0  0  0  0
  4 10  1  0  0  0  0
  5  8  2  0  0  0  0
  5 11  1  0  0  0  0
  6 12  1  0  0  0  0
  6 21  1  0  0  0  0
  7 13  1  0  0  0  0
  7 22  1  0  0  0  0
  8 14  1  0  0  0  0
  8 23  1  0  0  0  0
  9 15  2  0  0  0  0
  9 24  1  0  0  0  0
 10 16  2  0  0  0  0
 10 25  1  0  0  0  0
 11 17  2  0  0  0  0
 11 26  1  0  0  0  0
 12 18  2  0  0  0  0
 12 27  1  0  0  0  0
 13 19  2  0  0  0  0
 13 28  1  0  0  0  0
 14 20  2  0  0  0  0
 14 29  1  0  0  0  0
 15 18  1  0  0  0  0
 15 30  1  0  0  0  0
 16 19  1  0  0  0  0
 16 31  1  0  0  0  0
 17 20  1  0  0  0  0
 17 32  1  0  0  0  0
 18 33  1  0  0  0  0
 19 34  1  0  0  0  0
 20 35  1  0  0  0  0
M  END
> <PUBCHEM_COMPOUND_CID>
6456

> <PUBCHEM_CONFORMER_RMSD>
0.6

> <PUBCHEM_CONFORMER_DIVERSEORDER>
1
2
3

> <PUBCHEM_MMFF94_PARTIAL_CHARGES>
35
1 -0.29
10 -0.15
11 -0.15
12 -0.15
13 -0.15
14 -0.15
15 -0.15
16 -0.15
17 -0.15
18 -0.15
19 -0.15
2 0.72
20 -0.15
21 0.15
22 0.15
23 0.15
24 0.15
25 0.15
26 0.15
27 0.15
28 0.15
29 0.15
3 -0.14
30 0.15
31 0.15
32 0.15
33 0.15
34 0.15
35 0.15
4 -0.14
5 -0.14
6 -0.15
7 -0.15
8 -0.15
9 -0.15

> <PUBCHEM_EFFECTIVE_ROTOR_COUNT>
3

> <PUBCHEM_PHARMACOPHORE_FEATURES>
3
6 3 6 9 12 15 18 rings
6 4 7 10 13 16 19 rings
6 5 8 11 14 17 20 rings

> <PUBCHEM_HEAVY_ATOM_COUNT>
20

> <PUBCHEM_ATOM_DEF_STEREO_COUNT>
0

> <PUBCHEM_ATOM_UDEF_STEREO_COUNT>
0

> <PUBCHEM_BOND_DEF_STEREO_COUNT>
0

> <PUBCHEM_BOND_UDEF_STEREO_COUNT>
0

> <PUBCHEM_ISOTOPIC_ATOM_COUNT>
0

> <PUBCHEM_COMPONENT_COUNT>
1

> <PUBCHEM_CACTVS_TAUTO_COUNT>
1

> <PUBCHEM_CONFORMER_ID>
0000193800000001

> <PUBCHEM_MMFF94_ENERGY>
90.1638

> <PUBCHEM_FEATURE_SELFOVERLAP>
15.223

> <PUBCHEM_SHAPE_FINGERPRINT>
1 1 18196089941239480645
11101153 10 18267856372052444878
11322862 65 17401190180276666572
11578080 2 17387997488152894616
116883 192 18047757292979343229
11833330 49 17908142427338929088
12532896 13 17545601149865490684
12553582 1 18193820759814896399
12592029 89 18196648493199060658
12617007 42 18194699261431922693
12730499 353 18196365910959700299
12788726 201 17691971878634376546
13004483 165 18050580834497551395
13134695 92 18269012988388449431
13140716 1 17977666411573692081
13149001 5 17985851430072140549
13681431 1 18410294739273323105
13911987 19 18125410096139112382
13955234 65 18338234843840079571
14004458 79 17833822055645807782
14022347 108 17981324813672715395
14955137 171 18337678495103445858
15309172 13 17835231251949162417
15490181 7 17762624983969902800
15502722 9 18339922606672573719
16945 1 18271247110106246737
17134986 127 17979080383711907557
17357779 13 17828227688875543151
17539 30 17760939836397958519
1813 80 18043515316995525383
19591789 44 17762052147059983254
20600515 1 17697916830616021577
20711985 344 17691130756608273155
20905425 154 18059027128171389389
21041028 32 18266450091699483129
21285901 2 17466243232748236573
21452121 199 18337965583143631955
21524375 3 17838055901183148760
23114952 82 18272371958152316469
23419403 2 17771942482280831300
23557571 272 17978805819596012782
238 59 18122930658515806183
25 1 17902777583858735757
25222932 49 16526316582745228475
2748010 2 18193015908602101296
298252 57 17837776620919149264
3060560 45 18122347874129462261
3729539 64 18123722319999917684
458136 41 18123455086881188323
46194498 28 18124628403622605839
5262128 65 18339928211699898867
5845 1 16879914294597196055
6442390 28 17546437887157551835
6669772 16 18047459029603324484
7364860 26 18339928121273314717
81228 2 17833552670943954433
84936 31 18188787053732472378
9925002 15 17906153398136087284

> <PUBCHEM_SHAPE_MULTIPOLES>
413.46
4.88
4.56
1.51
5.32
2.94
-0.55
-2.75
1.03
-5.05
0.96
0.1
-0.25
0

> <PUBCHEM_SHAPE_SELFOVERLAP>
905.634

> <PUBCHEM_SHAPE_VOLUME>
218.2

> <PUBCHEM_COORDINATE_TYPE>
2
5
10

$$$$

