13639
  -OEChem-06241222393D

 21 22  0     0  0  0  0  0  0999 V2000
    1.7871   -1.1019    0.0015 N   0  0  0  0  0  0  0  0  0  0  0  0
    1.7157    1.1624   -0.0002 N   0  0  0  0  0  0  0  0  0  0  0  0
    3.1841   -0.7874   -0.0059 C   0  0  0  0  0  0  0  0  0  0  0  0
    3.1471    0.7433    0.0044 C   0  0  0  0  0  0  0  0  0  0  0  0
    1.0368    0.0397    0.0007 C   0  0  0  0  0  0  0  0  0  0  0  0
   -0.4172    0.0148    0.0001 C   0  0  0  0  0  0  0  0  0  0  0  0
   -1.1354    1.2105   -0.0013 C   0  0  0  0  0  0  0  0  0  0  0  0
   -1.0935   -1.2050    0.0013 C   0  0  0  0  0  0  0  0  0  0  0  0
   -2.5301    1.1864   -0.0014 C   0  0  0  0  0  0  0  0  0  0  0  0
   -2.4882   -1.2293    0.0011 C   0  0  0  0  0  0  0  0  0  0  0  0
   -3.2065   -0.0335   -0.0003 C   0  0  0  0  0  0  0  0  0  0  0  0
    3.6748   -1.1714   -0.9050 H   0  0  0  0  0  0  0  0  0  0  0  0
    3.6891   -1.1842    0.8795 H   0  0  0  0  0  0  0  0  0  0  0  0
    3.6406    1.1416    0.8973 H   0  0  0  0  0  0  0  0  0  0  0  0
    3.6516    1.1541   -0.8766 H   0  0  0  0  0  0  0  0  0  0  0  0
    1.4528   -2.0568   -0.0001 H   0  0  0  0  0  0  0  0  0  0  0  0
   -0.6364    2.1758   -0.0022 H   0  0  0  0  0  0  0  0  0  0  0  0
   -0.5775   -2.1596    0.0026 H   0  0  0  0  0  0  0  0  0  0  0  0
   -3.0897    2.1172   -0.0024 H   0  0  0  0  0  0  0  0  0  0  0  0
   -3.0155   -2.1788    0.0020 H   0  0  0  0  0  0  0  0  0  0  0  0
   -4.2924   -0.0523   -0.0005 H   0  0  0  0  0  0  0  0  0  0  0  0
  1  3  1  0  0  0  0
  1  5  1  0  0  0  0
  1 16  1  0  0  0  0
  2  4  1  0  0  0  0
  2  5  2  0  0  0  0
  3  4  1  0  0  0  0
  3 12  1  0  0  0  0
  3 13  1  0  0  0  0
  4 14  1  0  0  0  0
  4 15  1  0  0  0  0
  5  6  1  0  0  0  0
  6  7  2  0  0  0  0
  6  8  1  0  0  0  0
  7  9  1  0  0  0  0
  7 17  1  0  0  0  0
  8 10  2  0  0  0  0
  8 18  1  0  0  0  0
  9 11  2  0  0  0  0
  9 19  1  0  0  0  0
 10 11  1  0  0  0  0
 10 20  1  0  0  0  0
 11 21  1  0  0  0  0
M  END
> <PUBCHEM_COMPOUND_CID>
13639

> <PUBCHEM_CONFORMER_RMSD>
0.4

> <PUBCHEM_CONFORMER_DIVERSEORDER>
1
2

> <PUBCHEM_MMFF94_PARTIAL_CHARGES>
17
1 -0.82
10 -0.15
11 -0.15
16 0.4
17 0.15
18 0.15
19 0.15
2 -0.7
20 0.15
21 0.15
3 0.37
4 0.25
5 0.41
6 0.09
7 -0.15
8 -0.15
9 -0.15

> <PUBCHEM_EFFECTIVE_ROTOR_COUNT>
1.6

> <PUBCHEM_PHARMACOPHORE_FEATURES>
4
1 1 donor
3 1 2 5 cation
5 1 2 3 4 5 rings
6 6 7 8 9 10 11 rings

> <PUBCHEM_HEAVY_ATOM_COUNT>
11

> <PUBCHEM_ATOM_DEF_STEREO_COUNT>
0

> <PUBCHEM_ATOM_UDEF_STEREO_COUNT>
0

> <PUBCHEM_BOND_DEF_STEREO_COUNT>
0

> <PUBCHEM_BOND_UDEF_STEREO_COUNT>
0

> <PUBCHEM_ISOTOPIC_ATOM_COUNT>
0

> <PUBCHEM_COMPONENT_COUNT>
1

> <PUBCHEM_CACTVS_TAUTO_COUNT>
1

> <PUBCHEM_CONFORMER_ID>
0000354700000001

> <PUBCHEM_MMFF94_ENERGY>
33.8664

> <PUBCHEM_FEATURE_SELFOVERLAP>
20.297

> <PUBCHEM_SHAPE_FINGERPRINT>
10608611 8 18409735057911827088
12032990 46 18340761564230793547
12897270 3 18410575054640512420
12932764 1 17531252716438499830
13024252 1 15697999639503024545
14144814 61 18411419531178830314
14325111 11 18410855477313448640
15775835 57 18271520995923211473
16945 1 18410855494661979971
19973954 147 18410572872792150048
20201158 50 18334576866731815014
20871998 184 18187641341574491031
21501502 16 18410009927138684980
23402539 116 18187093875315405141
23402655 69 18263094343788881597
23463225 33 18341051921067977458
23552423 10 18272932687206660247
2748010 2 18410293588227362669
3248919 1 18409456885717000590
369184 2 18408886235119306617
5084963 1 18408323306398206753
6333449 129 18409169904824325061
7364860 26 18263360305085418156

> <PUBCHEM_SHAPE_MULTIPOLES>
216.41
5.47
1.45
0.6
1.6
0
0
0.08
0
-0.29
0
-0.03
0
0

> <PUBCHEM_SHAPE_SELFOVERLAP>
461.848

> <PUBCHEM_SHAPE_VOLUME>
119.5

> <PUBCHEM_COORDINATE_TYPE>
2
5
10

$$$$

