47205197
  -OEChem-06241222582D

 36 37  0     0  0  0  0  0  0999 V2000
    2.0000   -3.1012    0.0000 Br  0  0  0  0  0  0  0  0  0  0  0  0
    3.7320    1.8988    0.0000 O   0  0  0  0  0  0  0  0  0  0  0  0
    7.9128    3.7352    0.0000 O   0  0  0  0  0  0  0  0  0  0  0  0
    3.7320   -4.1012    0.0000 O   0  0  0  0  0  0  0  0  0  0  0  0
    5.4641    1.8988    0.0000 N   0  0  0  0  0  0  0  0  0  0  0  0
    3.7320   -0.1012    0.0000 C   0  0  0  0  0  0  0  0  0  0  0  0
    4.5981    0.3988    0.0000 C   0  0  0  0  0  0  0  0  0  0  0  0
    3.7320   -1.1012    0.0000 C   0  0  0  0  0  0  0  0  0  0  0  0
    4.5981    1.3988    0.0000 C   0  0  0  0  0  0  0  0  0  0  0  0
    5.4641    2.8988    0.0000 C   0  0  0  0  0  0  0  0  0  0  0  0
    2.8660   -1.6012    0.0000 C   0  0  0  0  0  0  0  0  0  0  0  0
    4.5981   -1.6012    0.0000 C   0  0  0  0  0  0  0  0  0  0  0  0
    6.3301    3.3988    0.0000 C   0  0  0  0  0  0  0  0  0  0  0  0
    2.8660   -2.6012    0.0000 C   0  0  0  0  0  0  0  0  0  0  0  0
    4.5981   -2.6012    0.0000 C   0  0  0  0  0  0  0  0  0  0  0  0
    3.7320   -3.1012    0.0000 C   0  0  0  0  0  0  0  0  0  0  0  0
    6.4347    4.3933    0.0000 C   0  0  0  0  0  0  0  0  0  0  0  0
    7.2437    2.9920    0.0000 C   0  0  0  0  0  0  0  0  0  0  0  0
    7.4128    4.6012    0.0000 C   0  0  0  0  0  0  0  0  0  0  0  0
    4.5981   -4.6012    0.0000 C   0  0  0  0  0  0  0  0  0  0  0  0
    3.5200    0.4814    0.0000 H   0  0  0  0  0  0  0  0  0  0  0  0
    3.1215   -0.2089    0.0000 H   0  0  0  0  0  0  0  0  0  0  0  0
    4.8101   -0.1838    0.0000 H   0  0  0  0  0  0  0  0  0  0  0  0
    5.2087    0.5064    0.0000 H   0  0  0  0  0  0  0  0  0  0  0  0
    5.2520    3.4814    0.0000 H   0  0  0  0  0  0  0  0  0  0  0  0
    4.8535    2.7911    0.0000 H   0  0  0  0  0  0  0  0  0  0  0  0
    6.0010    1.5888    0.0000 H   0  0  0  0  0  0  0  0  0  0  0  0
    2.3291   -1.2912    0.0000 H   0  0  0  0  0  0  0  0  0  0  0  0
    5.1350   -1.2912    0.0000 H   0  0  0  0  0  0  0  0  0  0  0  0
    5.1350   -2.9112    0.0000 H   0  0  0  0  0  0  0  0  0  0  0  0
    5.9739    4.8082    0.0000 H   0  0  0  0  0  0  0  0  0  0  0  0
    7.3726    2.3856    0.0000 H   0  0  0  0  0  0  0  0  0  0  0  0
    7.6650    5.1676    0.0000 H   0  0  0  0  0  0  0  0  0  0  0  0
    4.2881   -5.1382    0.0000 H   0  0  0  0  0  0  0  0  0  0  0  0
    5.1350   -4.9112    0.0000 H   0  0  0  0  0  0  0  0  0  0  0  0
    4.9081   -4.0643    0.0000 H   0  0  0  0  0  0  0  0  0  0  0  0
  1 14  1  0  0  0  0
  2  9  2  0  0  0  0
  3 18  1  0  0  0  0
  3 19  1  0  0  0  0
  4 16  1  0  0  0  0
  4 20  1  0  0  0  0
  5  9  1  0  0  0  0
  5 10  1  0  0  0  0
  5 27  1  0  0  0  0
  6  7  1  0  0  0  0
  6  8  1  0  0  0  0
  6 21  1  0  0  0  0
  6 22  1  0  0  0  0
  7  9  1  0  0  0  0
  7 23  1  0  0  0  0
  7 24  1  0  0  0  0
  8 11  2  0  0  0  0
  8 12  1  0  0  0  0
 10 13  1  0  0  0  0
 10 25  1  0  0  0  0
 10 26  1  0  0  0  0
 11 14  1  0  0  0  0
 11 28  1  0  0  0  0
 12 15  2  0  0  0  0
 12 29  1  0  0  0  0
 13 17  1  0  0  0  0
 13 18  2  0  0  0  0
 14 16  2  0  0  0  0
 15 16  1  0  0  0  0
 15 30  1  0  0  0  0
 17 19  2  0  0  0  0
 17 31  1  0  0  0  0
 18 32  1  0  0  0  0
 19 33  1  0  0  0  0
 20 34  1  0  0  0  0
 20 35  1  0  0  0  0
 20 36  1  0  0  0  0
M  END
> <PUBCHEM_COMPOUND_CID>
47205197

> <PUBCHEM_COMPOUND_CANONICALIZED>
1

> <PUBCHEM_CACTVS_COMPLEXITY>
314

> <PUBCHEM_CACTVS_HBOND_ACCEPTOR>
3

> <PUBCHEM_CACTVS_HBOND_DONOR>
1

> <PUBCHEM_CACTVS_ROTATABLE_BOND>
6

> <PUBCHEM_CACTVS_SUBSKEYS>
AAADceByMAAAEAAAAAAAAAAAAAAAASAAAAAwAAAAAAAAAAABwAAAHgBQAAABrAThmAYyBoLABECIAilSkACCCAAkIAQIiIEODOgMJjqEtRuGOSjm1hGIq5e8yKCOIAAAEAAABABAAAAgAAAIAAAAAAAAAA==

> <PUBCHEM_IUPAC_OPENEYE_NAME>
3-(3-bromo-4-methoxy-phenyl)-N-(3-furylmethyl)propanamide

> <PUBCHEM_IUPAC_CAS_NAME>
3-(3-bromo-4-methoxyphenyl)-N-(3-furanylmethyl)propanamide

> <PUBCHEM_IUPAC_NAME>
3-(3-bromo-4-methoxyphenyl)-N-(furan-3-ylmethyl)propanamide

> <PUBCHEM_IUPAC_SYSTEMATIC_NAME>
3-(3-bromanyl-4-methoxy-phenyl)-N-(furan-3-ylmethyl)propanamide

> <PUBCHEM_IUPAC_TRADITIONAL_NAME>
3-(3-bromo-4-methoxy-phenyl)-N-(3-furfuryl)propionamide

> <PUBCHEM_IUPAC_INCHI>
InChI=1S/C15H16BrNO3/c1-19-14-4-2-11(8-13(14)16)3-5-15(18)17-9-12-6-7-20-10-12/h2,4,6-8,10H,3,5,9H2,1H3,(H,17,18)

> <PUBCHEM_IUPAC_INCHIKEY>
CMJFJIKOHATVFJ-UHFFFAOYSA-N

> <PUBCHEM_XLOGP3_AA>
2.7

> <PUBCHEM_EXACT_MASS>
337.031355

> <PUBCHEM_MOLECULAR_FORMULA>
C15H16BrNO3

> <PUBCHEM_MOLECULAR_WEIGHT>
338.19644

> <PUBCHEM_OPENEYE_CAN_SMILES>
COC1=C(C=C(C=C1)CCC(=O)NCC2=COC=C2)Br

> <PUBCHEM_OPENEYE_ISO_SMILES>
COC1=C(C=C(C=C1)CCC(=O)NCC2=COC=C2)Br

> <PUBCHEM_CACTVS_TPSA>
51.5

> <PUBCHEM_MONOISOTOPIC_WEIGHT>
337.031355

> <PUBCHEM_TOTAL_CHARGE>
0

> <PUBCHEM_HEAVY_ATOM_COUNT>
20

> <PUBCHEM_ATOM_DEF_STEREO_COUNT>
0

> <PUBCHEM_ATOM_UDEF_STEREO_COUNT>
0

> <PUBCHEM_BOND_DEF_STEREO_COUNT>
0

> <PUBCHEM_BOND_UDEF_STEREO_COUNT>
0

> <PUBCHEM_ISOTOPIC_ATOM_COUNT>
0

> <PUBCHEM_COMPONENT_COUNT>
1

> <PUBCHEM_CACTVS_TAUTO_COUNT>
2

> <PUBCHEM_COORDINATE_TYPE>
1
5
255

> <PUBCHEM_BONDANNOTATIONS>
11  14  8
12  15  8
13  17  8
13  18  8
14  16  8
15  16  8
17  19  8
3  18  8
3  19  8
8  11  8
8  12  8

$$$$

