13043
  -OEChem-06261207413D

 26 27  0     0  0  0  0  0  0999 V2000
   -2.9094   -1.0771   -0.6467 C   0  0  0  0  0  0  0  0  0  0  0  0
   -3.5926   -0.1052    0.3072 C   0  0  0  0  0  0  0  0  0  0  0  0
   -1.4382   -1.2675   -0.2671 C   0  0  0  0  0  0  0  0  0  0  0  0
   -2.8995    1.2563    0.2933 C   0  0  0  0  0  0  0  0  0  0  0  0
   -0.7199    0.0342    0.0108 C   0  0  0  0  0  0  0  0  0  0  0  0
   -1.4005    1.1693    0.2612 C   0  0  0  0  0  0  0  0  0  0  0  0
    0.7633    0.0156    0.0085 C   0  0  0  0  0  0  0  0  0  0  0  0
    1.4768    1.1586   -0.3563 C   0  0  0  0  0  0  0  0  0  0  0  0
    1.4492   -1.1448    0.3717 C   0  0  0  0  0  0  0  0  0  0  0  0
    2.8716    1.1415   -0.3580 C   0  0  0  0  0  0  0  0  0  0  0  0
    2.8440   -1.1620    0.3701 C   0  0  0  0  0  0  0  0  0  0  0  0
    3.5551   -0.0188    0.0052 C   0  0  0  0  0  0  0  0  0  0  0  0
   -2.9813   -0.6961   -1.6733 H   0  0  0  0  0  0  0  0  0  0  0  0
   -3.4228   -2.0451   -0.6283 H   0  0  0  0  0  0  0  0  0  0  0  0
   -3.5708   -0.5181    1.3239 H   0  0  0  0  0  0  0  0  0  0  0  0
   -4.6474    0.0137    0.0356 H   0  0  0  0  0  0  0  0  0  0  0  0
   -0.9484   -1.8093   -1.0857 H   0  0  0  0  0  0  0  0  0  0  0  0
   -1.3877   -1.9024    0.6265 H   0  0  0  0  0  0  0  0  0  0  0  0
   -3.2120    1.8241    1.1772 H   0  0  0  0  0  0  0  0  0  0  0  0
   -3.2270    1.8264   -0.5845 H   0  0  0  0  0  0  0  0  0  0  0  0
   -0.8912    2.1040    0.4778 H   0  0  0  0  0  0  0  0  0  0  0  0
    0.9849    2.0746   -0.6716 H   0  0  0  0  0  0  0  0  0  0  0  0
    0.9299   -2.0500    0.6733 H   0  0  0  0  0  0  0  0  0  0  0  0
    3.4259    2.0295   -0.6479 H   0  0  0  0  0  0  0  0  0  0  0  0
    3.3768   -2.0645    0.6552 H   0  0  0  0  0  0  0  0  0  0  0  0
    4.6411   -0.0326    0.0032 H   0  0  0  0  0  0  0  0  0  0  0  0
  1  2  1  0  0  0  0
  1  3  1  0  0  0  0
  1 13  1  0  0  0  0
  1 14  1  0  0  0  0
  2  4  1  0  0  0  0
  2 15  1  0  0  0  0
  2 16  1  0  0  0  0
  3  5  1  0  0  0  0
  3 17  1  0  0  0  0
  3 18  1  0  0  0  0
  4  6  1  0  0  0  0
  4 19  1  0  0  0  0
  4 20  1  0  0  0  0
  5  6  2  0  0  0  0
  5  7  1  0  0  0  0
  6 21  1  0  0  0  0
  7  8  2  0  0  0  0
  7  9  1  0  0  0  0
  8 10  1  0  0  0  0
  8 22  1  0  0  0  0
  9 11  2  0  0  0  0
  9 23  1  0  0  0  0
 10 12  2  0  0  0  0
 10 24  1  0  0  0  0
 11 12  1  0  0  0  0
 11 25  1  0  0  0  0
 12 26  1  0  0  0  0
M  END
> <PUBCHEM_COMPOUND_CID>
13043

> <PUBCHEM_CONFORMER_RMSD>
0.4

> <PUBCHEM_CONFORMER_DIVERSEORDER>
1
2
3

> <PUBCHEM_MMFF94_PARTIAL_CHARGES>
16
10 -0.15
11 -0.15
12 -0.15
21 0.15
22 0.15
23 0.15
24 0.15
25 0.15
26 0.15
3 0.14
4 0.14
5 -0.17
6 -0.29
7 0.03
8 -0.15
9 -0.15

> <PUBCHEM_EFFECTIVE_ROTOR_COUNT>
1.8

> <PUBCHEM_PHARMACOPHORE_FEATURES>
2
6 1 2 3 4 5 6 rings
6 7 8 9 10 11 12 rings

> <PUBCHEM_HEAVY_ATOM_COUNT>
12

> <PUBCHEM_ATOM_DEF_STEREO_COUNT>
0

> <PUBCHEM_ATOM_UDEF_STEREO_COUNT>
0

> <PUBCHEM_BOND_DEF_STEREO_COUNT>
0

> <PUBCHEM_BOND_UDEF_STEREO_COUNT>
0

> <PUBCHEM_ISOTOPIC_ATOM_COUNT>
0

> <PUBCHEM_COMPONENT_COUNT>
1

> <PUBCHEM_CACTVS_TAUTO_COUNT>
1

> <PUBCHEM_CONFORMER_ID>
000032F300000001

> <PUBCHEM_MMFF94_ENERGY>
22.8086

> <PUBCHEM_FEATURE_SELFOVERLAP>
10.149

> <PUBCHEM_SHAPE_FINGERPRINT>
10608611 8 18410859862485964656
11132069 177 18335145305674351304
12251169 10 18410575106137915400
12932764 1 17822296751430350275
13380535 76 18411135835620105674
14144814 61 18411419526778354931
14325111 11 18411135848509976985
15442244 35 18194683889495926906
15536298 74 18335420171287100514
15669948 3 18114185189962106815
15775835 57 18410004438144314825
16945 1 18339924796826157304
17844478 74 17418089944763256517
18186145 218 17917713512902774326
19422 9 18410572885698098991
200 152 18336277773034569615
20279233 1 15841556262254292611
20645477 70 18271815665256194551
20871998 184 17968374555293999455
20871998 22 18050852414513099418
21267235 1 18410846668341007186
21501502 16 18410293609696924292
22445834 79 18341896337181341227
2255824 54 18059853970106577178
23402539 116 17967823768904095197
23402655 69 18413109489072403301
23463225 33 18411419552653816094
23552423 10 18342740689054636095
23559900 14 17967254234860468642
2748010 2 17113821254321207268
3248919 1 17846778473055313128
3312278 4 18339922606641035611
5104073 3 18410573993741393232
7364860 26 18333449846434314658
77492 1 18410575084668353679
8030462 33 18341326712932904044

> <PUBCHEM_SHAPE_MULTIPOLES>
246.95
6.3
1.54
0.72
0.26
0.02
0.02
-0.03
-0.09
0.06
0.03
0.07
-0.03
-0.63

> <PUBCHEM_SHAPE_SELFOVERLAP>
519.097

> <PUBCHEM_SHAPE_VOLUME>
132.6

> <PUBCHEM_COORDINATE_TYPE>
2
5
10

$$$$

