47205519
  -OEChem-06241222593D

 35 36  0     1  0  0  0  0  0999 V2000
   -2.6167    1.6045    0.2931 O   0  0  0  0  0  0  0  0  0  0  0  0
   -4.0774   -1.5795   -1.6433 O   0  0  0  0  0  0  0  0  0  0  0  0
   -1.0497   -0.1221    0.5610 N   0  0  0  0  0  0  0  0  0  0  0  0
   -4.5787   -0.3074    0.2387 N   0  0  0  0  0  0  0  0  0  0  0  0
    4.8622   -0.0707   -0.8341 N   0  0  0  0  0  0  0  0  0  0  0  0
    5.9130   -0.8896   -0.6572 N   0  0  0  0  0  0  0  0  0  0  0  0
   -6.0561   -0.4216   -1.5223 N   0  0  0  0  0  0  0  0  0  0  0  0
   -3.3769   -0.5774    0.9845 C   0  0  1  0  0  0  0  0  0  0  0  0
    0.1755    0.5089    0.2391 C   0  0  0  0  0  0  0  0  0  0  0  0
    2.5715    0.4008   -0.0526 C   0  0  0  0  0  0  0  0  0  0  0  0
   -2.3191    0.4496    0.5847 C   0  0  0  0  0  0  0  0  0  0  0  0
    1.3639   -0.2212    0.2645 C   0  0  0  0  0  0  0  0  0  0  0  0
   -3.6422   -0.5287    2.4812 C   0  0  0  0  0  0  0  0  0  0  0  0
    3.8004   -0.3544   -0.0262 C   0  0  0  0  0  0  0  0  0  0  0  0
    0.1948    1.8610   -0.1035 C   0  0  0  0  0  0  0  0  0  0  0  0
    2.5909    1.7529   -0.3953 C   0  0  0  0  0  0  0  0  0  0  0  0
    1.4025    2.4829   -0.4209 C   0  0  0  0  0  0  0  0  0  0  0  0
    4.1831   -1.4341    0.7315 C   0  0  0  0  0  0  0  0  0  0  0  0
   -4.8335   -0.8337   -1.0232 C   0  0  0  0  0  0  0  0  0  0  0  0
    5.4924   -1.7203    0.3004 C   0  0  0  0  0  0  0  0  0  0  0  0
   -3.0353   -1.5834    0.7129 H   0  0  0  0  0  0  0  0  0  0  0  0
    1.3343   -1.2767    0.5270 H   0  0  0  0  0  0  0  0  0  0  0  0
   -0.9696   -1.1047    0.8129 H   0  0  0  0  0  0  0  0  0  0  0  0
   -2.7315   -0.7517    3.0471 H   0  0  0  0  0  0  0  0  0  0  0  0
   -4.4108   -1.2551    2.7661 H   0  0  0  0  0  0  0  0  0  0  0  0
   -3.9894    0.4634    2.7917 H   0  0  0  0  0  0  0  0  0  0  0  0
   -0.6809    2.4931   -0.1418 H   0  0  0  0  0  0  0  0  0  0  0  0
   -5.2397    0.3661    0.6146 H   0  0  0  0  0  0  0  0  0  0  0  0
    3.5166    2.2695   -0.6364 H   0  0  0  0  0  0  0  0  0  0  0  0
    1.4190    3.5365   -0.6847 H   0  0  0  0  0  0  0  0  0  0  0  0
    3.6094   -1.9457    1.4911 H   0  0  0  0  0  0  0  0  0  0  0  0
    4.9430    0.6563   -1.5345 H   0  0  0  0  0  0  0  0  0  0  0  0
    6.1575   -2.4990    0.6449 H   0  0  0  0  0  0  0  0  0  0  0  0
   -6.3801   -0.7246   -2.4347 H   0  0  0  0  0  0  0  0  0  0  0  0
   -6.6672    0.1929   -0.9951 H   0  0  0  0  0  0  0  0  0  0  0  0
  1 11  2  0  0  0  0
  2 19  2  0  0  0  0
  3  9  1  0  0  0  0
  3 11  1  0  0  0  0
  3 23  1  0  0  0  0
  4  8  1  0  0  0  0
  4 19  1  0  0  0  0
  4 28  1  0  0  0  0
  5  6  1  0  0  0  0
  5 14  1  0  0  0  0
  5 32  1  0  0  0  0
  6 20  2  0  0  0  0
  7 19  1  0  0  0  0
  7 34  1  0  0  0  0
  7 35  1  0  0  0  0
  8 11  1  0  0  0  0
  8 13  1  0  0  0  0
  8 21  1  0  0  0  0
  9 12  1  0  0  0  0
  9 15  2  0  0  0  0
 10 12  2  0  0  0  0
 10 14  1  0  0  0  0
 10 16  1  0  0  0  0
 12 22  1  0  0  0  0
 13 24  1  0  0  0  0
 13 25  1  0  0  0  0
 13 26  1  0  0  0  0
 14 18  2  0  0  0  0
 15 17  1  0  0  0  0
 15 27  1  0  0  0  0
 16 17  2  0  0  0  0
 16 29  1  0  0  0  0
 17 30  1  0  0  0  0
 18 20  1  0  0  0  0
 18 31  1  0  0  0  0
 20 33  1  0  0  0  0
M  END
> <PUBCHEM_COMPOUND_CID>
47205519

> <PUBCHEM_CONFORMER_RMSD>
0.8

> <PUBCHEM_CONFORMER_DIVERSEORDER>
1
49
58
61
25
92
28
24
62
70
73
87
32
77
12
14
43
71
69
48
10
50
66
56
95
18
96
33
41
4
34
76
31
80
101
17
40
83
64
11
68
37
2
86
85
23
93
42
60
82
35
5
84
19
53
36
103
13
29
46
74
45
100
98
59
15
22
81
106
20
55
21
38
78
47
90
107
54
97
27
9
67
52
105
51
8
89
26
7
57
75
44
104
88
72
3
30
79
99
6
16
94
65
102
91
39
63

> <PUBCHEM_MMFF94_PARTIAL_CHARGES>
30
1 -0.57
10 0.05
11 0.57
12 -0.15
14 -0.2
15 -0.15
16 -0.15
17 -0.15
18 -0.15
19 0.69
2 -0.57
20 0.14
22 0.15
23 0.37
27 0.15
28 0.37
29 0.15
3 -0.55
30 0.15
31 0.15
32 0.27
33 0.15
34 0.37
35 0.37
4 -0.73
5 0.3
6 -0.71
7 -0.8
8 0.36
9 0.12

> <PUBCHEM_EFFECTIVE_ROTOR_COUNT>
6

> <PUBCHEM_PHARMACOPHORE_FEATURES>
9
1 1 acceptor
1 2 acceptor
1 3 donor
1 4 donor
1 5 donor
1 6 acceptor
1 7 donor
5 5 6 14 18 20 rings
6 9 10 12 15 16 17 rings

> <PUBCHEM_HEAVY_ATOM_COUNT>
20

> <PUBCHEM_ATOM_DEF_STEREO_COUNT>
0

> <PUBCHEM_ATOM_UDEF_STEREO_COUNT>
1

> <PUBCHEM_BOND_DEF_STEREO_COUNT>
0

> <PUBCHEM_BOND_UDEF_STEREO_COUNT>
0

> <PUBCHEM_ISOTOPIC_ATOM_COUNT>
0

> <PUBCHEM_COMPONENT_COUNT>
1

> <PUBCHEM_CACTVS_TAUTO_COUNT>
12

> <PUBCHEM_CONFORMER_ID>
02D04C8F00000001

> <PUBCHEM_MMFF94_ENERGY>
46.3891

> <PUBCHEM_FEATURE_SELFOVERLAP>
45.72

> <PUBCHEM_SHAPE_FINGERPRINT>
10 15 5328736374962393498
10447042 23 18131071558952128426
10493431 412 8934998192043127245
10803635 8 16415479345994937690
10912923 1 17531236232348964400
12236239 1 17967249788746455841
12403259 118 14634865349362720507
12403259 415 17060052602035329625
12523318 42 15936129651649264639
12555020 224 18342741801942224467
12596602 18 16732986435835169810
12616971 3 18187072928670114761
12670543 26 17846786234266861005
12760667 363 18270963569814931666
12892183 10 15068615037115090644
13134695 92 18340200787198956493
13760787 5 18339632361261991753
13862211 1 18411139169131866914
14178342 30 16371270208646411249
14366163 111 13973965402728701956
14508225 48 18131071549545075684
14573314 32 17203613691652708151
15183329 4 16988851617512186959
15188451 53 17022911142235600647
15242439 84 17561084691946284283
15475509 35 15285901616477235796
15848700 24 18342176678861646536
15880784 105 17748547026235264466
17349148 13 18113331998845415831
17857418 61 18259988171204396310
17862501 102 17822008700900888011
18186145 218 17131833123406552289
18222031 100 18408606972303948112
19784866 240 18113621162388417671
200 152 18408041801831491721
20028762 73 17894354367191801934
20645477 56 6627749972303351465
20645477 70 18201719500903106129
20871999 31 17417811785454052988
21065201 7 16343421683601484433
21728266 224 16877943845654523683
221357 26 18131361808225239549
221490 88 17915441823364365864
2215653 11 18060422412879993459
22393880 68 17346039974392642683
22646028 1 18187081745662947331
23198884 109 16702026404868770751
23402539 116 18409728499385600097
23402655 69 11527942344775704984
23557571 272 15141221257438234649
23559900 14 17988923323320005176
23596394 208 17274832358592897450
2838139 119 11887669555461308974
2871803 45 17917710236517844042
29717793 49 18408321094521756500
312425 54 16733254763795790954
314194 84 18411411822166455122
3286 77 17386009438059683505
32948 21 16917075468280723101
351380 3 18408602569456463746
4259306 186 18273214222634757338
46194498 28 16199288881474207751
465052 167 18409719660823271158
5104073 3 17894905179646077403
542803 24 12607406585226107291
543368 44 11743832547879550527
559249 180 18114183060338647391
7471813 234 18260829280457225336
76465 3 18261115162001270501
960060 61 18131631166966988380
9971528 1 18411424968755672216

> <PUBCHEM_SHAPE_MULTIPOLES>
374.95
13.66
1.92
1.37
0.96
0.98
-0.2
-7.89
4.12
-1.55
0.03
2.61
-0.57
-0.51

> <PUBCHEM_SHAPE_SELFOVERLAP>
796.32

> <PUBCHEM_SHAPE_VOLUME>
209.6

> <PUBCHEM_COORDINATE_TYPE>
2
5
10

$$$$

