13131
  -OEChem-06261207483D

 11 10  0     1  0  0  0  0  0999 V2000
   -1.9057   -1.2101   -0.0338 Cl  0  0  0  0  0  0  0  0  0  0  0  0
    0.7019   -0.0944    1.7914 Cl  0  0  0  0  0  0  0  0  0  0  0  0
    1.2857   -1.5735   -0.6406 Cl  0  0  0  0  0  0  0  0  0  0  0  0
    1.6781    1.2883   -0.5805 Cl  0  0  0  0  0  0  0  0  0  0  0  0
   -0.8437    0.1684   -0.5054 C   0  0  2  0  0  0  0  0  0  0  0  0
    0.6044   -0.0354    0.0011 C   0  0  0  0  0  0  0  0  0  0  0  0
   -1.5207    1.4567   -0.0321 C   0  0  0  0  0  0  0  0  0  0  0  0
   -0.8446    0.1702   -1.6022 H   0  0  0  0  0  0  0  0  0  0  0  0
   -1.6261    1.4916    1.0571 H   0  0  0  0  0  0  0  0  0  0  0  0
   -0.9610    2.3427   -0.3463 H   0  0  0  0  0  0  0  0  0  0  0  0
   -2.5246    1.5451   -0.4632 H   0  0  0  0  0  0  0  0  0  0  0  0
  1  5  1  0  0  0  0
  2  6  1  0  0  0  0
  3  6  1  0  0  0  0
  4  6  1  0  0  0  0
  5  6  1  0  0  0  0
  5  7  1  0  0  0  0
  5  8  1  0  0  0  0
  7  9  1  0  0  0  0
  7 10  1  0  0  0  0
  7 11  1  0  0  0  0
M  END
> <PUBCHEM_COMPOUND_CID>
13131

> <PUBCHEM_CONFORMER_RMSD>
0.4

> <PUBCHEM_CONFORMER_DIVERSEORDER>
1
2

> <PUBCHEM_MMFF94_PARTIAL_CHARGES>
6
1 -0.29
2 -0.29
3 -0.29
4 -0.29
5 0.29
6 0.87

> <PUBCHEM_EFFECTIVE_ROTOR_COUNT>
1

> <PUBCHEM_PHARMACOPHORE_FEATURES>
0

> <PUBCHEM_HEAVY_ATOM_COUNT>
7

> <PUBCHEM_ATOM_DEF_STEREO_COUNT>
0

> <PUBCHEM_ATOM_UDEF_STEREO_COUNT>
1

> <PUBCHEM_BOND_DEF_STEREO_COUNT>
0

> <PUBCHEM_BOND_UDEF_STEREO_COUNT>
0

> <PUBCHEM_ISOTOPIC_ATOM_COUNT>
0

> <PUBCHEM_COMPONENT_COUNT>
1

> <PUBCHEM_CACTVS_TAUTO_COUNT>
1

> <PUBCHEM_CONFORMER_ID>
0000334B00000001

> <PUBCHEM_MMFF94_ENERGY>
7.8975

> <PUBCHEM_FEATURE_SELFOVERLAP>
0

> <PUBCHEM_SHAPE_FINGERPRINT>
137420 1 8515144114719575714
16714656 1 17904477411565153028
21040471 1 18192723464527063917
24536 1 18338536216846137517
29004967 10 18123736570210612595
5943 1 16457633350519734697

> <PUBCHEM_SHAPE_MULTIPOLES>
151.54
2.37
1.76
1.26
0.57
0.07
0.77
-0.02
-0.36
-0.01
-0.4
-0.45
0.08
0

> <PUBCHEM_SHAPE_SELFOVERLAP>
241.176

> <PUBCHEM_SHAPE_VOLUME>
106.6

> <PUBCHEM_COORDINATE_TYPE>
2
5
10

$$$$

