9067
  -OEChem-06261203222D

 15 14  0     0  0  0  0  0  0999 V2000
    0.0000    1.0000    0.0000 Na  0  3  0  0  0  0  0  0  0  0  0  0
    5.1962    1.0000    0.0000 O   0  0  0  0  0  0  0  0  0  0  0  0
    3.4641    4.0000    0.0000 O   0  0  0  0  0  0  0  0  0  0  0  0
    0.8660    1.5000    0.0000 O   0  5  0  0  0  0  0  0  0  0  0  0
    1.7321    0.0000    0.0000 O   0  0  0  0  0  0  0  0  0  0  0  0
    3.4641    1.0000    0.0000 N   0  0  0  0  0  0  0  0  0  0  0  0
    4.3301    2.5000    0.0000 N   0  0  0  0  0  0  0  0  0  0  0  0
    2.5981    1.5000    0.0000 C   0  0  0  0  0  0  0  0  0  0  0  0
    2.5981    2.5000    0.0000 C   0  0  0  0  0  0  0  0  0  0  0  0
    4.3301    1.5000    0.0000 C   0  0  0  0  0  0  0  0  0  0  0  0
    3.4641    3.0000    0.0000 C   0  0  0  0  0  0  0  0  0  0  0  0
    1.7321    1.0000    0.0000 C   0  0  0  0  0  0  0  0  0  0  0  0
    3.4641    0.3800    0.0000 H   0  0  0  0  0  0  0  0  0  0  0  0
    2.0611    2.8100    0.0000 H   0  0  0  0  0  0  0  0  0  0  0  0
    4.8671    2.8100    0.0000 H   0  0  0  0  0  0  0  0  0  0  0  0
  2 10  2  0  0  0  0
  3 11  2  0  0  0  0
  4 12  1  0  0  0  0
  5 12  2  0  0  0  0
  6  8  1  0  0  0  0
  6 10  1  0  0  0  0
  6 13  1  0  0  0  0
  7 10  1  0  0  0  0
  7 11  1  0  0  0  0
  7 15  1  0  0  0  0
  8  9  2  0  0  0  0
  8 12  1  0  0  0  0
  9 11  1  0  0  0  0
  9 14  1  0  0  0  0
M  CHG  2   1   1   4  -1
M  END
> <PUBCHEM_COMPOUND_CID>
9067

> <PUBCHEM_COMPOUND_CANONICALIZED>
1

> <PUBCHEM_CACTVS_COMPLEXITY>
262

> <PUBCHEM_CACTVS_HBOND_ACCEPTOR>
4

> <PUBCHEM_CACTVS_HBOND_DONOR>
2

> <PUBCHEM_CACTVS_ROTATABLE_BOND>
0

> <PUBCHEM_CACTVS_SUBSKEYS>
AAADcQBjOCAAAAAAAAAAAAAAAAAAAAAAAAAgAAAAAAAAAAAAAAAAHgAQAAAACAiBgAABCALAAACIACXSWACAAAAAAgAACACAAECCBAAAACAAEAAIFSIQAcAAAAAAAAAAAAAAAAAAAAAAAAAAAAAAAAAAAA==

> <PUBCHEM_IUPAC_OPENEYE_NAME>
sodium 2,4-dioxo-1H-pyrimidine-6-carboxylate

> <PUBCHEM_IUPAC_CAS_NAME>
sodium 2,4-dioxo-1H-pyrimidine-6-carboxylate

> <PUBCHEM_IUPAC_NAME>
sodium 2,4-dioxo-1H-pyrimidine-6-carboxylate

> <PUBCHEM_IUPAC_SYSTEMATIC_NAME>
sodium 2,4-bis(oxidanylidene)-1H-pyrimidine-6-carboxylate

> <PUBCHEM_IUPAC_TRADITIONAL_NAME>
sodium orotate

> <PUBCHEM_IUPAC_INCHI>
InChI=1S/C5H4N2O4.Na/c8-3-1-2(4(9)10)6-5(11)7-3;/h1H,(H,9,10)(H2,6,7,8,11);/q;+1/p-1

> <PUBCHEM_IUPAC_INCHIKEY>
ZTHMWDSJKLNDTE-UHFFFAOYSA-M

> <PUBCHEM_EXACT_MASS>
177.999051

> <PUBCHEM_MOLECULAR_FORMULA>
C5H3N2NaO4

> <PUBCHEM_MOLECULAR_WEIGHT>
178.078089

> <PUBCHEM_OPENEYE_CAN_SMILES>
C1=C(NC(=O)NC1=O)C(=O)[O-].[Na+]

> <PUBCHEM_OPENEYE_ISO_SMILES>
C1=C(NC(=O)NC1=O)C(=O)[O-].[Na+]

> <PUBCHEM_CACTVS_TPSA>
98.3

> <PUBCHEM_MONOISOTOPIC_WEIGHT>
177.999051

> <PUBCHEM_TOTAL_CHARGE>
0

> <PUBCHEM_HEAVY_ATOM_COUNT>
12

> <PUBCHEM_ATOM_DEF_STEREO_COUNT>
0

> <PUBCHEM_ATOM_UDEF_STEREO_COUNT>
0

> <PUBCHEM_BOND_DEF_STEREO_COUNT>
0

> <PUBCHEM_BOND_UDEF_STEREO_COUNT>
0

> <PUBCHEM_ISOTOPIC_ATOM_COUNT>
0

> <PUBCHEM_COMPONENT_COUNT>
2

> <PUBCHEM_CACTVS_TAUTO_COUNT>
6

> <PUBCHEM_COORDINATE_TYPE>
1
5
255

> <PUBCHEM_BONDANNOTATIONS>
6  10  8
6  8  8
7  10  8
7  11  8
8  9  8
9  11  8

$$$$

