8136
  -OEChem-06261202373D

 30 29  0     0  0  0  0  0  0999 V2000
   -4.2216   -0.5724    0.7290 O   0  0  0  0  0  0  0  0  0  0  0  0
   -3.6024    0.1675   -1.3704 O   0  0  0  0  0  0  0  0  0  0  0  0
    2.7578    0.5252    0.3589 C   0  0  0  0  0  0  0  0  0  0  0  0
    3.8565   -0.3314   -0.2742 C   0  0  0  0  0  0  0  0  0  0  0  0
    1.3877    0.2018   -0.2425 C   0  0  0  0  0  0  0  0  0  0  0  0
    5.2458   -0.0645    0.3090 C   0  0  0  0  0  0  0  0  0  0  0  0
    0.2824    1.0303    0.4156 C   0  0  0  0  0  0  0  0  0  0  0  0
    6.3293   -0.9631   -0.2667 C   0  0  0  0  0  0  0  0  0  0  0  0
   -1.0567    0.7359   -0.1980 C   0  0  0  0  0  0  0  0  0  0  0  0
   -2.0816    0.2132    0.4883 C   0  0  0  0  0  0  0  0  0  0  0  0
   -3.3674   -0.0510   -0.1925 C   0  0  0  0  0  0  0  0  0  0  0  0
   -5.5298   -0.8914    0.2435 C   0  0  0  0  0  0  0  0  0  0  0  0
    2.9872    1.5869    0.2081 H   0  0  0  0  0  0  0  0  0  0  0  0
    2.7359    0.3487    1.4411 H   0  0  0  0  0  0  0  0  0  0  0  0
    3.8810   -0.1513   -1.3561 H   0  0  0  0  0  0  0  0  0  0  0  0
    3.6100   -1.3916   -0.1358 H   0  0  0  0  0  0  0  0  0  0  0  0
    1.1732   -0.8668   -0.1139 H   0  0  0  0  0  0  0  0  0  0  0  0
    1.4084    0.3967   -1.3223 H   0  0  0  0  0  0  0  0  0  0  0  0
    5.5189    0.9823    0.1305 H   0  0  0  0  0  0  0  0  0  0  0  0
    5.2159   -0.2038    1.3963 H   0  0  0  0  0  0  0  0  0  0  0  0
    0.4934    2.0989    0.2889 H   0  0  0  0  0  0  0  0  0  0  0  0
    0.2680    0.8351    1.4949 H   0  0  0  0  0  0  0  0  0  0  0  0
    6.4137   -0.8270   -1.3495 H   0  0  0  0  0  0  0  0  0  0  0  0
    6.1083   -2.0168   -0.0690 H   0  0  0  0  0  0  0  0  0  0  0  0
    7.2984   -0.7274    0.1838 H   0  0  0  0  0  0  0  0  0  0  0  0
   -1.1657    0.9766   -1.2526 H   0  0  0  0  0  0  0  0  0  0  0  0
   -1.9912   -0.0298    1.5416 H   0  0  0  0  0  0  0  0  0  0  0  0
   -6.0273    0.0107   -0.1252 H   0  0  0  0  0  0  0  0  0  0  0  0
   -6.1113   -1.2981    1.0751 H   0  0  0  0  0  0  0  0  0  0  0  0
   -5.4671   -1.6480   -0.5446 H   0  0  0  0  0  0  0  0  0  0  0  0
  1 11  1  0  0  0  0
  1 12  1  0  0  0  0
  2 11  2  0  0  0  0
  3  4  1  0  0  0  0
  3  5  1  0  0  0  0
  3 13  1  0  0  0  0
  3 14  1  0  0  0  0
  4  6  1  0  0  0  0
  4 15  1  0  0  0  0
  4 16  1  0  0  0  0
  5  7  1  0  0  0  0
  5 17  1  0  0  0  0
  5 18  1  0  0  0  0
  6  8  1  0  0  0  0
  6 19  1  0  0  0  0
  6 20  1  0  0  0  0
  7  9  1  0  0  0  0
  7 21  1  0  0  0  0
  7 22  1  0  0  0  0
  8 23  1  0  0  0  0
  8 24  1  0  0  0  0
  8 25  1  0  0  0  0
  9 10  2  0  0  0  0
  9 26  1  0  0  0  0
 10 11  1  0  0  0  0
 10 27  1  0  0  0  0
 12 28  1  0  0  0  0
 12 29  1  0  0  0  0
 12 30  1  0  0  0  0
M  END
> <PUBCHEM_COMPOUND_CID>
8136

> <PUBCHEM_CONFORMER_RMSD>
0.8

> <PUBCHEM_CONFORMER_DIVERSEORDER>
2
51
39
34
25
12
23
48
22
4
32
10
15
38
46
9
14
1
13
26
20
19
37
18
8
3
36
49
44
7
24
5
42
30
35
6
47
29
43
40
41
33
21
50
28
16
45
27
17
11
31

> <PUBCHEM_MMFF94_PARTIAL_CHARGES>
9
1 -0.43
10 -0.14
11 0.71
12 0.28
2 -0.57
26 0.15
27 0.15
7 0.14
9 -0.29

> <PUBCHEM_EFFECTIVE_ROTOR_COUNT>
7

> <PUBCHEM_PHARMACOPHORE_FEATURES>
4
1 2 acceptor
1 8 hydrophobe
3 3 4 6 hydrophobe
3 5 7 9 hydrophobe

> <PUBCHEM_HEAVY_ATOM_COUNT>
12

> <PUBCHEM_ATOM_DEF_STEREO_COUNT>
0

> <PUBCHEM_ATOM_UDEF_STEREO_COUNT>
0

> <PUBCHEM_BOND_DEF_STEREO_COUNT>
0

> <PUBCHEM_BOND_UDEF_STEREO_COUNT>
1

> <PUBCHEM_ISOTOPIC_ATOM_COUNT>
0

> <PUBCHEM_COMPONENT_COUNT>
1

> <PUBCHEM_CACTVS_TAUTO_COUNT>
1

> <PUBCHEM_CONFORMER_ID>
00001FC800000002

> <PUBCHEM_MMFF94_ENERGY>
6.9505

> <PUBCHEM_FEATURE_SELFOVERLAP>
20.308

> <PUBCHEM_SHAPE_FINGERPRINT>
10354089 29 5039950745886839962
114248 4 17132114632600277320
12507557 5 7348884499102415787
12714333 28 12391515273762398778
13214271 11 7132713903443360473
14123238 8 15051735291634617096
1420 363 18335417972232371850
14251718 22 17346878944888062990
14252887 29 17240755212262311886
14350574 20 17989484100209540809
14455015 7 18408037420738015874
15048467 5 9079112255080125234
15242439 84 14405180660413117384
15501527 16 9079110068508988492
15501527 24 15195565697672273828
17834072 33 16845569799495215598
17834072 8 13470684845845857894
17834076 25 12751237008812794352
18342897 14 6050444808144432810
187816 3 15913326896674226560
200 152 18410012156596152264
20281389 69 7637407310908288826
20300324 65 15913331311905700149
20605781 2 9223232944581546552
20621476 21 17845076390886796403
20645477 56 9079112254779328080
20645477 70 18273494594216414146
20767249 13 18413670214649152128
20767249 213 8502654800957968851
20828058 44 15646775574091486084
21119208 17 15985103007266568688
23402539 116 18410293644141448456
23402655 69 13182748038902954601
26918003 58 17895191087076535595
2916195 48 8646478610052550550
351380 3 18333171674045134406
42 15 16298386864248914744
42788 4 18410292514854914160
49783359 22 16805328799025933550

> <PUBCHEM_SHAPE_MULTIPOLES>
235.22
14.69
0.96
0.83
7.25
0.01
-0.12
-6.43
0.64
0.17
0.05
-0.59
-0.01
0.36

> <PUBCHEM_SHAPE_SELFOVERLAP>
431.375

> <PUBCHEM_SHAPE_VOLUME>
149.8

> <PUBCHEM_COORDINATE_TYPE>
2
5
10

$$$$

