47205503
  -OEChem-06241222592D

 38 40  0     1  0  0  0  0  0999 V2000
    5.1328    1.8949    0.0000 S   0  0  0  0  0  0  0  0  0  0  0  0
    6.7290   -0.6340    0.0000 O   0  0  0  0  0  0  0  0  0  0  0  0
    5.1408    0.2854    0.0000 N   0  0  0  0  0  0  0  0  0  0  0  0
    6.7204    1.0980    0.0000 N   0  0  0  0  0  0  0  0  0  0  0  0
    8.7290   -0.6240    0.0000 N   0  0  0  0  0  0  0  0  0  0  0  0
    9.9368   -1.7007    0.0000 N   0  0  0  0  0  0  0  0  0  0  0  0
    2.0000    1.0745    0.0000 C   0  0  0  0  0  0  0  0  0  0  0  0
    2.4294    1.9776    0.0000 C   0  0  0  0  0  0  0  0  0  0  0  0
    2.4384    0.1757    0.0000 C   0  0  0  0  0  0  0  0  0  0  0  0
    3.4032    2.2050    0.0000 C   0  0  0  0  0  0  0  0  0  0  0  0
    3.4144   -0.0420    0.0000 C   0  0  0  0  0  0  0  0  0  0  0  0
    4.1881    1.5854    0.0000 C   0  0  0  0  0  0  0  0  0  0  0  0
    4.1931    0.5854    0.0000 C   0  0  0  0  0  0  0  0  0  0  0  0
    5.7204    1.0930    0.0000 C   0  0  0  0  0  0  0  0  0  0  0  0
    8.2247    0.2395    0.0000 C   0  0  3  0  0  0  0  0  0  0  0  0
    7.2247    0.2345    0.0000 C   0  0  0  0  0  0  0  0  0  0  0  0
    8.7204    1.1080    0.0000 C   0  0  0  0  0  0  0  0  0  0  0  0
    8.3268   -1.5396    0.0000 C   0  0  0  0  0  0  0  0  0  0  0  0
    9.7241   -0.7236    0.0000 C   0  0  0  0  0  0  0  0  0  0  0  0
    9.0733   -2.2050    0.0000 C   0  0  0  0  0  0  0  0  0  0  0  0
    1.5133    1.4586    0.0000 H   0  0  0  0  0  0  0  0  0  0  0  0
    1.5172    0.6855    0.0000 H   0  0  0  0  0  0  0  0  0  0  0  0
    2.4263    2.5976    0.0000 H   0  0  0  0  0  0  0  0  0  0  0  0
    1.8242    2.1126    0.0000 H   0  0  0  0  0  0  0  0  0  0  0  0
    1.8346    0.0347    0.0000 H   0  0  0  0  0  0  0  0  0  0  0  0
    2.4415   -0.4443    0.0000 H   0  0  0  0  0  0  0  0  0  0  0  0
    3.8860    2.5940    0.0000 H   0  0  0  0  0  0  0  0  0  0  0  0
    3.1314    2.7622    0.0000 H   0  0  0  0  0  0  0  0  0  0  0  0
    3.1482   -0.6019    0.0000 H   0  0  0  0  0  0  0  0  0  0  0  0
    3.9010   -0.4261    0.0000 H   0  0  0  0  0  0  0  0  0  0  0  0
    8.8447    0.2426    0.0000 H   0  0  0  0  0  0  0  0  0  0  0  0
    7.0277    1.6365    0.0000 H   0  0  0  0  0  0  0  0  0  0  0  0
    9.2589    0.8007    0.0000 H   0  0  0  0  0  0  0  0  0  0  0  0
    9.0277    1.6465    0.0000 H   0  0  0  0  0  0  0  0  0  0  0  0
    8.1819    1.4153    0.0000 H   0  0  0  0  0  0  0  0  0  0  0  0
    7.7210   -1.6715    0.0000 H   0  0  0  0  0  0  0  0  0  0  0  0
   10.1366   -0.2608    0.0000 H   0  0  0  0  0  0  0  0  0  0  0  0
    9.0116   -2.8219    0.0000 H   0  0  0  0  0  0  0  0  0  0  0  0
  1 12  1  0  0  0  0
  1 14  1  0  0  0  0
  2 16  2  0  0  0  0
  3 13  1  0  0  0  0
  3 14  2  0  0  0  0
  4 14  1  0  0  0  0
  4 16  1  0  0  0  0
  4 32  1  0  0  0  0
  5 15  1  0  0  0  0
  5 18  1  0  0  0  0
  5 19  1  0  0  0  0
  6 19  2  0  0  0  0
  6 20  1  0  0  0  0
  7  8  1  0  0  0  0
  7  9  1  0  0  0  0
  7 21  1  0  0  0  0
  7 22  1  0  0  0  0
  8 10  1  0  0  0  0
  8 23  1  0  0  0  0
  8 24  1  0  0  0  0
  9 11  1  0  0  0  0
  9 25  1  0  0  0  0
  9 26  1  0  0  0  0
 10 12  1  0  0  0  0
 10 27  1  0  0  0  0
 10 28  1  0  0  0  0
 11 13  1  0  0  0  0
 11 29  1  0  0  0  0
 11 30  1  0  0  0  0
 12 13  2  0  0  0  0
 15 16  1  0  0  0  0
 15 17  1  0  0  0  0
 15 31  1  0  0  0  0
 17 33  1  0  0  0  0
 17 34  1  0  0  0  0
 17 35  1  0  0  0  0
 18 20  2  0  0  0  0
 18 36  1  0  0  0  0
 19 37  1  0  0  0  0
 20 38  1  0  0  0  0
M  END
> <PUBCHEM_COMPOUND_CID>
47205503

> <PUBCHEM_COMPOUND_CANONICALIZED>
1

> <PUBCHEM_CACTVS_COMPLEXITY>
354

> <PUBCHEM_CACTVS_HBOND_ACCEPTOR>
4

> <PUBCHEM_CACTVS_HBOND_DONOR>
1

> <PUBCHEM_CACTVS_ROTATABLE_BOND>
3

> <PUBCHEM_CACTVS_SUBSKEYS>
AAADceBzoABAAAAAAAAAAAAAAAAAAWLAAAAAAAAABgAAAACx4AAAHgQQAAAACCjB1gQvkRfMEAisARV3dAAA8K1xGrkJWBW4cAiAaAJgmCCUAAAokQLISCMQgAAAAAAAAAAAAAAAAAAAAAAAAAAAAAAAAA==

> <PUBCHEM_IUPAC_OPENEYE_NAME>
2-imidazol-1-yl-N-(5,6,7,8-tetrahydro-4H-cyclohepta[d]thiazol-2-yl)propanamide

> <PUBCHEM_IUPAC_CAS_NAME>
2-(1-imidazolyl)-N-(5,6,7,8-tetrahydro-4H-cyclohepta[d]thiazol-2-yl)propanamide

> <PUBCHEM_IUPAC_NAME>
2-imidazol-1-yl-N-(5,6,7,8-tetrahydro-4H-cyclohepta[d][1,3]thiazol-2-yl)propanamide

> <PUBCHEM_IUPAC_SYSTEMATIC_NAME>
2-imidazol-1-yl-N-(5,6,7,8-tetrahydro-4H-cyclohepta[d][1,3]thiazol-2-yl)propanamide

> <PUBCHEM_IUPAC_TRADITIONAL_NAME>
2-imidazol-1-yl-N-(5,6,7,8-tetrahydro-4H-cyclohepta[d]thiazol-2-yl)propionamide

> <PUBCHEM_IUPAC_INCHI>
InChI=1S/C14H18N4OS/c1-10(18-8-7-15-9-18)13(19)17-14-16-11-5-3-2-4-6-12(11)20-14/h7-10H,2-6H2,1H3,(H,16,17,19)

> <PUBCHEM_IUPAC_INCHIKEY>
YVTRXACNZRGOTF-UHFFFAOYSA-N

> <PUBCHEM_XLOGP3_AA>
2.4

> <PUBCHEM_EXACT_MASS>
290.120132

> <PUBCHEM_MOLECULAR_FORMULA>
C14H18N4OS

> <PUBCHEM_MOLECULAR_WEIGHT>
290.38392

> <PUBCHEM_OPENEYE_CAN_SMILES>
CC(C(=O)NC1=NC2=C(S1)CCCCC2)N3C=CN=C3

> <PUBCHEM_OPENEYE_ISO_SMILES>
CC(C(=O)NC1=NC2=C(S1)CCCCC2)N3C=CN=C3

> <PUBCHEM_CACTVS_TPSA>
88

> <PUBCHEM_MONOISOTOPIC_WEIGHT>
290.120132

> <PUBCHEM_TOTAL_CHARGE>
0

> <PUBCHEM_HEAVY_ATOM_COUNT>
20

> <PUBCHEM_ATOM_DEF_STEREO_COUNT>
0

> <PUBCHEM_ATOM_UDEF_STEREO_COUNT>
1

> <PUBCHEM_BOND_DEF_STEREO_COUNT>
0

> <PUBCHEM_BOND_UDEF_STEREO_COUNT>
0

> <PUBCHEM_ISOTOPIC_ATOM_COUNT>
0

> <PUBCHEM_COMPONENT_COUNT>
1

> <PUBCHEM_CACTVS_TAUTO_COUNT>
5

> <PUBCHEM_COORDINATE_TYPE>
1
5
255

> <PUBCHEM_BONDANNOTATIONS>
1  12  8
1  14  8
12  13  8
15  17  3
18  20  8
3  13  8
3  14  8
5  18  8
5  19  8
6  19  8
6  20  8

$$$$

