47205459
  -OEChem-06241222583D

 33 34  0     0  0  0  0  0  0999 V2000
    3.9312   -1.1766   -0.5540 O   0  0  0  0  0  0  0  0  0  0  0  0
   -2.4448    1.4876   -1.0404 O   0  0  0  0  0  0  0  0  0  0  0  0
   -3.2853   -0.7250    1.6650 O   0  0  0  0  0  0  0  0  0  0  0  0
    2.1799    0.2938    0.1503 N   0  0  0  0  0  0  0  0  0  0  0  0
    4.3249    1.0299    0.0465 N   0  0  0  0  0  0  0  0  0  0  0  0
   -3.1478    0.8970    0.0254 N   0  0  0  0  0  0  0  0  0  0  0  0
    2.1591    1.6611    0.6440 C   0  0  0  0  0  0  0  0  0  0  0  0
    3.5673    2.1857    0.4291 C   0  0  0  0  0  0  0  0  0  0  0  0
    1.0059   -0.5105    0.0773 C   0  0  0  0  0  0  0  0  0  0  0  0
    3.5080   -0.0944   -0.1695 C   0  0  0  0  0  0  0  0  0  0  0  0
   -0.2317    0.0279    0.4296 C   0  0  0  0  0  0  0  0  0  0  0  0
    1.0944   -1.8365   -0.3470 C   0  0  0  0  0  0  0  0  0  0  0  0
   -1.3809   -0.7596    0.3576 C   0  0  0  0  0  0  0  0  0  0  0  0
   -0.0548   -2.6238   -0.4193 C   0  0  0  0  0  0  0  0  0  0  0  0
   -1.2924   -2.0855   -0.0667 C   0  0  0  0  0  0  0  0  0  0  0  0
   -2.6898   -0.1915    0.7307 C   0  0  0  0  0  0  0  0  0  0  0  0
   -4.4085    1.5607    0.2996 C   0  0  0  0  0  0  0  0  0  0  0  0
   -2.8347    0.8594   -2.2582 C   0  0  0  0  0  0  0  0  0  0  0  0
    1.4352    2.2685    0.0912 H   0  0  0  0  0  0  0  0  0  0  0  0
    1.9033    1.6520    1.7093 H   0  0  0  0  0  0  0  0  0  0  0  0
    3.9969    2.6294    1.3311 H   0  0  0  0  0  0  0  0  0  0  0  0
    3.6137    2.9113   -0.3886 H   0  0  0  0  0  0  0  0  0  0  0  0
    5.3274    1.0323   -0.1130 H   0  0  0  0  0  0  0  0  0  0  0  0
   -0.3269    1.0524    0.7776 H   0  0  0  0  0  0  0  0  0  0  0  0
    2.0206   -2.3148   -0.6352 H   0  0  0  0  0  0  0  0  0  0  0  0
    0.0129   -3.6560   -0.7506 H   0  0  0  0  0  0  0  0  0  0  0  0
   -2.1810   -2.7082   -0.1293 H   0  0  0  0  0  0  0  0  0  0  0  0
   -4.2179    2.6261    0.4562 H   0  0  0  0  0  0  0  0  0  0  0  0
   -4.8847    1.1416    1.1897 H   0  0  0  0  0  0  0  0  0  0  0  0
   -5.0780    1.4338   -0.5549 H   0  0  0  0  0  0  0  0  0  0  0  0
   -2.7573   -0.2303   -2.1969 H   0  0  0  0  0  0  0  0  0  0  0  0
   -3.8544    1.1485   -2.5290 H   0  0  0  0  0  0  0  0  0  0  0  0
   -2.1612    1.2063   -3.0469 H   0  0  0  0  0  0  0  0  0  0  0  0
  1 10  2  0  0  0  0
  2  6  1  0  0  0  0
  2 18  1  0  0  0  0
  3 16  2  0  0  0  0
  4  7  1  0  0  0  0
  4  9  1  0  0  0  0
  4 10  1  0  0  0  0
  5  8  1  0  0  0  0
  5 10  1  0  0  0  0
  5 23  1  0  0  0  0
  6 16  1  0  0  0  0
  6 17  1  0  0  0  0
  7  8  1  0  0  0  0
  7 19  1  0  0  0  0
  7 20  1  0  0  0  0
  8 21  1  0  0  0  0
  8 22  1  0  0  0  0
  9 11  1  0  0  0  0
  9 12  2  0  0  0  0
 11 13  2  0  0  0  0
 11 24  1  0  0  0  0
 12 14  1  0  0  0  0
 12 25  1  0  0  0  0
 13 15  1  0  0  0  0
 13 16  1  0  0  0  0
 14 15  2  0  0  0  0
 14 26  1  0  0  0  0
 15 27  1  0  0  0  0
 17 28  1  0  0  0  0
 17 29  1  0  0  0  0
 17 30  1  0  0  0  0
 18 31  1  0  0  0  0
 18 32  1  0  0  0  0
 18 33  1  0  0  0  0
M  END
> <PUBCHEM_COMPOUND_CID>
47205459

> <PUBCHEM_CONFORMER_RMSD>
0.6

> <PUBCHEM_CONFORMER_DIVERSEORDER>
4
20
53
94
98
65
55
41
9
30
92
101
97
77
15
12
109
81
107
16
111
75
36
70
49
60
24
63
46
80
91
102
43
57
67
78
89
39
59
35
74
64
68
84
38
5
106
37
33
34
79
83
100
62
56
42
26
72
10
31
40
28
3
58
82
105
8
29
110
88
69
71
17
66
47
2
103
44
52
104
93
1
25
51
86
14
85
48
99
23
45
18
112
76
95
13
61
87
96
19
21
73
6
50
11
27
7
90
54
108
32
22

> <PUBCHEM_MMFF94_PARTIAL_CHARGES>
23
1 -0.57
10 0.69
11 -0.15
12 -0.15
13 0.09
14 -0.15
15 -0.15
16 0.54
17 0.3
18 0.28
2 -0.32
23 0.37
24 0.15
25 0.15
26 0.15
27 0.15
3 -0.57
4 -0.48
5 -0.73
6 -0.32
7 0.3
8 0.3
9 0.12

> <PUBCHEM_EFFECTIVE_ROTOR_COUNT>
4.8

> <PUBCHEM_PHARMACOPHORE_FEATURES>
5
1 1 acceptor
1 3 acceptor
1 5 donor
5 4 5 7 8 10 rings
6 9 11 12 13 14 15 rings

> <PUBCHEM_HEAVY_ATOM_COUNT>
18

> <PUBCHEM_ATOM_DEF_STEREO_COUNT>
0

> <PUBCHEM_ATOM_UDEF_STEREO_COUNT>
0

> <PUBCHEM_BOND_DEF_STEREO_COUNT>
0

> <PUBCHEM_BOND_UDEF_STEREO_COUNT>
0

> <PUBCHEM_ISOTOPIC_ATOM_COUNT>
0

> <PUBCHEM_COMPONENT_COUNT>
1

> <PUBCHEM_CACTVS_TAUTO_COUNT>
2

> <PUBCHEM_CONFORMER_ID>
02D04C5300000004

> <PUBCHEM_MMFF94_ENERGY>
61.9403

> <PUBCHEM_FEATURE_SELFOVERLAP>
25.371

> <PUBCHEM_SHAPE_MULTIPOLES>
337.88
7.81
2.45
1.19
1.86
0.65
0.48
-4.63
-0.08
0.43
0.16
-1.41
-0.25
0.98

> <PUBCHEM_SHAPE_SELFOVERLAP>
709.111

> <PUBCHEM_SHAPE_VOLUME>
191.1

> <PUBCHEM_COORDINATE_TYPE>
2
5
10

$$$$

