13153
  -OEChem-06261207493D

  8  7  0     0  0  0  0  0  0999 V2000
   -0.2151    2.2180    0.0005 Cl  0  0  0  0  0  0  0  0  0  0  0  0
   -2.7872    0.2689   -0.1732 Cl  0  0  0  0  0  0  0  0  0  0  0  0
   -1.0218   -2.0509    0.0784 Cl  0  0  0  0  0  0  0  0  0  0  0  0
    2.1822   -0.3486   -1.3334 Cl  0  0  0  0  0  0  0  0  0  0  0  0
    1.7855   -0.2180    1.2732 O   0  0  0  0  0  0  0  0  0  0  0  0
   -0.0907    0.4890    0.0306 C   0  0  0  0  0  0  0  0  0  0  0  0
   -1.1611   -0.3216   -0.0302 C   0  0  0  0  0  0  0  0  0  0  0  0
    1.3081   -0.0369    0.1541 C   0  0  0  0  0  0  0  0  0  0  0  0
  1  6  1  0  0  0  0
  2  7  1  0  0  0  0
  3  7  1  0  0  0  0
  4  8  1  0  0  0  0
  5  8  2  0  0  0  0
  6  7  2  0  0  0  0
  6  8  1  0  0  0  0
M  END
> <PUBCHEM_COMPOUND_CID>
13153

> <PUBCHEM_CONFORMER_RMSD>
0.4

> <PUBCHEM_CONFORMER_DIVERSEORDER>
1
3
6
2
4
5

> <PUBCHEM_MMFF94_PARTIAL_CHARGES>
8
1 -0.14
2 -0.14
3 -0.14
4 -0.21
5 -0.57
6 0.15
7 0.28
8 0.76

> <PUBCHEM_EFFECTIVE_ROTOR_COUNT>
1

> <PUBCHEM_PHARMACOPHORE_FEATURES>
0

> <PUBCHEM_HEAVY_ATOM_COUNT>
8

> <PUBCHEM_ATOM_DEF_STEREO_COUNT>
0

> <PUBCHEM_ATOM_UDEF_STEREO_COUNT>
0

> <PUBCHEM_BOND_DEF_STEREO_COUNT>
0

> <PUBCHEM_BOND_UDEF_STEREO_COUNT>
0

> <PUBCHEM_ISOTOPIC_ATOM_COUNT>
0

> <PUBCHEM_COMPONENT_COUNT>
1

> <PUBCHEM_CACTVS_TAUTO_COUNT>
1

> <PUBCHEM_CONFORMER_ID>
0000336100000001

> <PUBCHEM_MMFF94_ENERGY>
16.7791

> <PUBCHEM_FEATURE_SELFOVERLAP>
0

> <PUBCHEM_SHAPE_FINGERPRINT>
15310529 11 16774077371281459359
16714656 1 18338784710663461141
18185500 45 18130236972979539122
20711978 78 17610615315639780895
21040471 1 18411704321986506779
22082395 3 18339069479917115015
23552333 60 17346600802521293432
23552423 10 17769095640317563567
24536 1 17969498195715409787
29004967 10 16588029017245817586
5084963 1 17969778764301072653

> <PUBCHEM_SHAPE_MULTIPOLES>
166.25
3.13
1.93
1.01
0.46
0.32
0
-0.39
0.62
0.63
-0.04
-0.7
-0.11
0.15

> <PUBCHEM_SHAPE_SELFOVERLAP>
282.966

> <PUBCHEM_SHAPE_VOLUME>
112.2

> <PUBCHEM_COORDINATE_TYPE>
2
5
10

$$$$

