12192
  -OEChem-06261206383D

 14 13  0     0  0  0  0  0  0999 V2000
   -1.2186   -0.4618    0.0046 O   0  0  0  0  0  0  0  0  0  0  0  0
    0.2127    1.4576   -0.0013 O   0  5  0  0  0  0  0  0  0  0  0  0
    2.4389   -0.3322   -0.0010 N   0  3  0  0  0  0  0  0  0  0  0  0
    3.4786   -0.0458   -0.0022 N   0  0  0  0  0  0  0  0  0  0  0  0
   -2.3690    0.3821    0.0041 C   0  0  0  0  0  0  0  0  0  0  0  0
   -3.6132   -0.4803   -0.0066 C   0  0  0  0  0  0  0  0  0  0  0  0
    0.0407    0.2003    0.0007 C   0  0  0  0  0  0  0  0  0  0  0  0
    1.0299   -0.7200    0.0017 C   0  0  0  0  0  0  0  0  0  0  0  0
   -2.3764    1.0091    0.9034 H   0  0  0  0  0  0  0  0  0  0  0  0
   -2.3700    1.0188   -0.8886 H   0  0  0  0  0  0  0  0  0  0  0  0
   -4.5167    0.1359   -0.0072 H   0  0  0  0  0  0  0  0  0  0  0  0
   -3.6262   -1.1275   -0.8899 H   0  0  0  0  0  0  0  0  0  0  0  0
   -3.6343   -1.1375    0.8691 H   0  0  0  0  0  0  0  0  0  0  0  0
    0.8092   -1.7836    0.0043 H   0  0  0  0  0  0  0  0  0  0  0  0
  1  5  1  0  0  0  0
  1  7  1  0  0  0  0
  2  7  1  0  0  0  0
  3  4  3  0  0  0  0
  3  8  1  0  0  0  0
  5  6  1  0  0  0  0
  5  9  1  0  0  0  0
  5 10  1  0  0  0  0
  6 11  1  0  0  0  0
  6 12  1  0  0  0  0
  6 13  1  0  0  0  0
  7  8  2  0  0  0  0
  8 14  1  0  0  0  0
M  CHG  2   2  -1   3   1
M  END
> <PUBCHEM_COMPOUND_CID>
12192

> <PUBCHEM_CONFORMER_RMSD>
0.4

> <PUBCHEM_CONFORMER_DIVERSEORDER>
1
2
3
4
5
6

> <PUBCHEM_MMFF94_PARTIAL_CHARGES>
8
1 -0.36
14 0.15
2 -0.85
3 1.36
4 -0.49
5 0.28
7 -0.07
8 -0.02

> <PUBCHEM_EFFECTIVE_ROTOR_COUNT>
2

> <PUBCHEM_PHARMACOPHORE_FEATURES>
1
1 1 acceptor

> <PUBCHEM_HEAVY_ATOM_COUNT>
8

> <PUBCHEM_ATOM_DEF_STEREO_COUNT>
0

> <PUBCHEM_ATOM_UDEF_STEREO_COUNT>
0

> <PUBCHEM_BOND_DEF_STEREO_COUNT>
0

> <PUBCHEM_BOND_UDEF_STEREO_COUNT>
1

> <PUBCHEM_ISOTOPIC_ATOM_COUNT>
0

> <PUBCHEM_COMPONENT_COUNT>
1

> <PUBCHEM_CACTVS_TAUTO_COUNT>
1

> <PUBCHEM_CONFORMER_ID>
00002FA000000001

> <PUBCHEM_MMFF94_ENERGY>
18.9609

> <PUBCHEM_FEATURE_SELFOVERLAP>
5.074

> <PUBCHEM_SHAPE_FINGERPRINT>
11062470 55 17560801039088903558
12932764 1 15647346280819108231
14325111 11 18410574019511332419
21293036 1 18342738502884640486
29004967 10 18411695508560556771
5460574 1 9295286140483389923

> <PUBCHEM_SHAPE_MULTIPOLES>
142.94
5.51
0.96
0.57
0.29
0.25
0
-0.92
0.01
0.04
0
0.06
-0.01
0

> <PUBCHEM_SHAPE_SELFOVERLAP>
263.279

> <PUBCHEM_SHAPE_VOLUME>
89

> <PUBCHEM_COORDINATE_TYPE>
2
5
10

$$$$

