10450
  -OEChem-06261204333D

 14 14  0     0  0  0  0  0  0999 V2000
   -1.1886   -0.6952   -0.2317 O   0  0  0  0  0  0  0  0  0  0  0  0
    1.1886   -0.6949   -0.2319 O   0  0  0  0  0  0  0  0  0  0  0  0
   -0.0001    1.4104   -0.2161 C   0  0  0  0  0  0  0  0  0  0  0  0
   -1.2488    0.6565    0.2232 C   0  0  0  0  0  0  0  0  0  0  0  0
    1.2487    0.6566    0.2234 C   0  0  0  0  0  0  0  0  0  0  0  0
    0.0002   -1.3333    0.2331 C   0  0  0  0  0  0  0  0  0  0  0  0
    0.0000    1.4660   -1.3117 H   0  0  0  0  0  0  0  0  0  0  0  0
   -0.0002    2.4312    0.1779 H   0  0  0  0  0  0  0  0  0  0  0  0
   -1.3555    0.6660    1.3142 H   0  0  0  0  0  0  0  0  0  0  0  0
   -2.1434    1.1196   -0.2045 H   0  0  0  0  0  0  0  0  0  0  0  0
    2.1433    1.1199   -0.2041 H   0  0  0  0  0  0  0  0  0  0  0  0
    1.3551    0.6658    1.3145 H   0  0  0  0  0  0  0  0  0  0  0  0
    0.0002   -1.3932    1.3286 H   0  0  0  0  0  0  0  0  0  0  0  0
    0.0003   -2.3559   -0.1552 H   0  0  0  0  0  0  0  0  0  0  0  0
  1  4  1  0  0  0  0
  1  6  1  0  0  0  0
  2  5  1  0  0  0  0
  2  6  1  0  0  0  0
  3  4  1  0  0  0  0
  3  5  1  0  0  0  0
  3  7  1  0  0  0  0
  3  8  1  0  0  0  0
  4  9  1  0  0  0  0
  4 10  1  0  0  0  0
  5 11  1  0  0  0  0
  5 12  1  0  0  0  0
  6 13  1  0  0  0  0
  6 14  1  0  0  0  0
M  END
> <PUBCHEM_COMPOUND_CID>
10450

> <PUBCHEM_CONFORMER_RMSD>
0.4

> <PUBCHEM_CONFORMER_DIVERSEORDER>
1

> <PUBCHEM_MMFF94_PARTIAL_CHARGES>
5
1 -0.56
2 -0.56
4 0.28
5 0.28
6 0.56

> <PUBCHEM_EFFECTIVE_ROTOR_COUNT>
1.2

> <PUBCHEM_PHARMACOPHORE_FEATURES>
3
1 1 acceptor
1 2 acceptor
6 1 2 3 4 5 6 rings

> <PUBCHEM_HEAVY_ATOM_COUNT>
6

> <PUBCHEM_ATOM_DEF_STEREO_COUNT>
0

> <PUBCHEM_ATOM_UDEF_STEREO_COUNT>
0

> <PUBCHEM_BOND_DEF_STEREO_COUNT>
0

> <PUBCHEM_BOND_UDEF_STEREO_COUNT>
0

> <PUBCHEM_ISOTOPIC_ATOM_COUNT>
0

> <PUBCHEM_COMPONENT_COUNT>
1

> <PUBCHEM_CACTVS_TAUTO_COUNT>
1

> <PUBCHEM_CONFORMER_ID>
000028D200000001

> <PUBCHEM_MMFF94_ENERGY>
8.3873

> <PUBCHEM_FEATURE_SELFOVERLAP>
15.258

> <PUBCHEM_SHAPE_FINGERPRINT>
16714656 1 18194104442562526742
20096714 4 18264767834149489513
21015797 1 9295289447465718097
21040471 1 18410854330610006105
5943 1 5434351501781924136

> <PUBCHEM_SHAPE_MULTIPOLES>
111.74
1.56
1.53
0.63
0.04
0
0.02
0
-0.01
-0.07
0.03
-0.02
0
0

> <PUBCHEM_SHAPE_SELFOVERLAP>
211.209

> <PUBCHEM_SHAPE_VOLUME>
67.7

> <PUBCHEM_COORDINATE_TYPE>
2
5
10

$$$$

