13872
  -OEChem-06241222402D

 20 21  0     0  0  0  0  0  0999 V2000
    2.8660   -1.1970    0.0000 O   0  0  0  0  0  0  0  0  0  0  0  0
    6.4103    0.6077    0.0000 N   0  0  0  0  0  0  0  0  0  0  0  0
    5.4641   -0.6970    0.0000 C   0  0  0  0  0  0  0  0  0  0  0  0
    5.4641    0.3030    0.0000 C   0  0  0  0  0  0  0  0  0  0  0  0
    4.5981   -1.1970    0.0000 C   0  0  0  0  0  0  0  0  0  0  0  0
    6.4103   -1.0018    0.0000 C   0  0  0  0  0  0  0  0  0  0  0  0
    4.5981    0.8030    0.0000 C   0  0  0  0  0  0  0  0  0  0  0  0
    3.7320   -0.6970    0.0000 C   0  0  0  0  0  0  0  0  0  0  0  0
    6.9939   -0.1970    0.0000 C   0  0  0  0  0  0  0  0  0  0  0  0
    3.7320    0.3030    0.0000 C   0  0  0  0  0  0  0  0  0  0  0  0
    2.0000   -0.6970    0.0000 C   0  0  0  0  0  0  0  0  0  0  0  0
    4.5981   -1.8170    0.0000 H   0  0  0  0  0  0  0  0  0  0  0  0
    6.6029   -1.5911    0.0000 H   0  0  0  0  0  0  0  0  0  0  0  0
    4.5981    1.4230    0.0000 H   0  0  0  0  0  0  0  0  0  0  0  0
    6.6029    1.1970    0.0000 H   0  0  0  0  0  0  0  0  0  0  0  0
    3.1951    0.6130    0.0000 H   0  0  0  0  0  0  0  0  0  0  0  0
    7.6139   -0.1970    0.0000 H   0  0  0  0  0  0  0  0  0  0  0  0
    2.3100   -0.1601    0.0000 H   0  0  0  0  0  0  0  0  0  0  0  0
    1.4631   -0.3870    0.0000 H   0  0  0  0  0  0  0  0  0  0  0  0
    1.6900   -1.2340    0.0000 H   0  0  0  0  0  0  0  0  0  0  0  0
  1  8  1  0  0  0  0
  1 11  1  0  0  0  0
  2  4  1  0  0  0  0
  2  9  1  0  0  0  0
  2 15  1  0  0  0  0
  3  4  2  0  0  0  0
  3  5  1  0  0  0  0
  3  6  1  0  0  0  0
  4  7  1  0  0  0  0
  5  8  2  0  0  0  0
  5 12  1  0  0  0  0
  6  9  2  0  0  0  0
  6 13  1  0  0  0  0
  7 10  2  0  0  0  0
  7 14  1  0  0  0  0
  8 10  1  0  0  0  0
  9 17  1  0  0  0  0
 10 16  1  0  0  0  0
 11 18  1  0  0  0  0
 11 19  1  0  0  0  0
 11 20  1  0  0  0  0
M  END
> <PUBCHEM_COMPOUND_CID>
13872

> <PUBCHEM_COMPOUND_CANONICALIZED>
1

> <PUBCHEM_CACTVS_COMPLEXITY>
138

> <PUBCHEM_CACTVS_HBOND_ACCEPTOR>
1

> <PUBCHEM_CACTVS_HBOND_DONOR>
1

> <PUBCHEM_CACTVS_ROTATABLE_BOND>
1

> <PUBCHEM_CACTVS_SUBSKEYS>
AAADccByIAAAAAAAAAAAAAAAAAAAAWAAAAAwAAAAAAAAAFgB8AAAHgAQAAAADAzBngY+xvLJlACgAzRnRACCiCAxIiAI2aA+bJgMJuLEsZuEMChk0BHI6Aew0LIOAEABAAACAAAAgAIAAAQAAAAAAAAAAA==

> <PUBCHEM_IUPAC_OPENEYE_NAME>
5-methoxy-1H-indole

> <PUBCHEM_IUPAC_CAS_NAME>
5-methoxy-1H-indole

> <PUBCHEM_IUPAC_NAME>
5-methoxy-1H-indole

> <PUBCHEM_IUPAC_SYSTEMATIC_NAME>
5-methoxy-1H-indole

> <PUBCHEM_IUPAC_TRADITIONAL_NAME>
5-methoxy-1H-indole

> <PUBCHEM_IUPAC_INCHI>
InChI=1S/C9H9NO/c1-11-8-2-3-9-7(6-8)4-5-10-9/h2-6,10H,1H3

> <PUBCHEM_IUPAC_INCHIKEY>
DWAQDRSOVMLGRQ-UHFFFAOYSA-N

> <PUBCHEM_XLOGP3>
2.1

> <PUBCHEM_EXACT_MASS>
147.068414

> <PUBCHEM_MOLECULAR_FORMULA>
C9H9NO

> <PUBCHEM_MOLECULAR_WEIGHT>
147.17386

> <PUBCHEM_OPENEYE_CAN_SMILES>
COC1=CC2=C(C=C1)NC=C2

> <PUBCHEM_OPENEYE_ISO_SMILES>
COC1=CC2=C(C=C1)NC=C2

> <PUBCHEM_CACTVS_TPSA>
25

> <PUBCHEM_MONOISOTOPIC_WEIGHT>
147.068414

> <PUBCHEM_TOTAL_CHARGE>
0

> <PUBCHEM_HEAVY_ATOM_COUNT>
11

> <PUBCHEM_ATOM_DEF_STEREO_COUNT>
0

> <PUBCHEM_ATOM_UDEF_STEREO_COUNT>
0

> <PUBCHEM_BOND_DEF_STEREO_COUNT>
0

> <PUBCHEM_BOND_UDEF_STEREO_COUNT>
0

> <PUBCHEM_ISOTOPIC_ATOM_COUNT>
0

> <PUBCHEM_COMPONENT_COUNT>
1

> <PUBCHEM_CACTVS_TAUTO_COUNT>
1

> <PUBCHEM_COORDINATE_TYPE>
1
5
255

> <PUBCHEM_BONDANNOTATIONS>
2  4  8
2  9  8
3  4  8
3  5  8
3  6  8
4  7  8
5  8  8
6  9  8
7  10  8
8  10  8

$$$$

