47205724
  -OEChem-06241223003D

 38 38  0     0  0  0  0  0  0999 V2000
    3.3423    2.1884    1.4623 F   0  0  0  0  0  0  0  0  0  0  0  0
   -0.8033    1.2119   -1.9311 O   0  0  0  0  0  0  0  0  0  0  0  0
   -1.1836   -3.0240   -0.4200 O   0  0  0  0  0  0  0  0  0  0  0  0
   -1.3925   -0.2444   -0.1714 N   0  0  0  0  0  0  0  0  0  0  0  0
    0.4237   -3.0223    1.2240 N   0  0  0  0  0  0  0  0  0  0  0  0
   -2.8059   -0.2607   -0.4286 C   0  0  0  0  0  0  0  0  0  0  0  0
   -3.5474    0.8382    0.3255 C   0  0  0  0  0  0  0  0  0  0  0  0
   -5.0569    0.8071    0.0757 C   0  0  0  0  0  0  0  0  0  0  0  0
   -0.9232   -1.0513    0.9603 C   0  0  0  0  0  0  0  0  0  0  0  0
   -0.5008    0.5096   -0.9670 C   0  0  0  0  0  0  0  0  0  0  0  0
    0.9301    0.4489   -0.6291 C   0  0  0  0  0  0  0  0  0  0  0  0
   -5.7757    1.8744    0.8862 C   0  0  0  0  0  0  0  0  0  0  0  0
   -0.5897   -2.4475    0.4871 C   0  0  0  0  0  0  0  0  0  0  0  0
    1.4730    1.3636    0.2732 C   0  0  0  0  0  0  0  0  0  0  0  0
    1.7436   -0.5232   -1.2113 C   0  0  0  0  0  0  0  0  0  0  0  0
    3.6429    0.3342    0.0112 C   0  0  0  0  0  0  0  0  0  0  0  0
    2.8294    1.3063    0.5932 C   0  0  0  0  0  0  0  0  0  0  0  0
    3.1001   -0.5806   -0.8912 C   0  0  0  0  0  0  0  0  0  0  0  0
    5.0938    0.2714    0.3511 C   0  0  0  0  0  0  0  0  0  0  0  0
   -2.9634   -0.1166   -1.5043 H   0  0  0  0  0  0  0  0  0  0  0  0
   -3.2138   -1.2463   -0.1768 H   0  0  0  0  0  0  0  0  0  0  0  0
   -3.3563    0.7355    1.4011 H   0  0  0  0  0  0  0  0  0  0  0  0
   -3.1479    1.8179    0.0341 H   0  0  0  0  0  0  0  0  0  0  0  0
   -5.4575   -0.1774    0.3437 H   0  0  0  0  0  0  0  0  0  0  0  0
   -5.2596    0.9619   -0.9903 H   0  0  0  0  0  0  0  0  0  0  0  0
   -0.0608   -0.5871    1.4434 H   0  0  0  0  0  0  0  0  0  0  0  0
   -1.7159   -1.1192    1.7139 H   0  0  0  0  0  0  0  0  0  0  0  0
   -5.4172    2.8745    0.6226 H   0  0  0  0  0  0  0  0  0  0  0  0
   -6.8521    1.8369    0.6917 H   0  0  0  0  0  0  0  0  0  0  0  0
   -5.6191    1.7245    1.9592 H   0  0  0  0  0  0  0  0  0  0  0  0
    0.8481    2.1248    0.7328 H   0  0  0  0  0  0  0  0  0  0  0  0
    1.3310   -1.2402   -1.9164 H   0  0  0  0  0  0  0  0  0  0  0  0
    3.7214   -1.3430   -1.3536 H   0  0  0  0  0  0  0  0  0  0  0  0
    5.6153    1.1415   -0.0608 H   0  0  0  0  0  0  0  0  0  0  0  0
    5.2315    0.2539    1.4374 H   0  0  0  0  0  0  0  0  0  0  0  0
    5.5683   -0.6295   -0.0522 H   0  0  0  0  0  0  0  0  0  0  0  0
    0.7418   -3.9647    1.0237 H   0  0  0  0  0  0  0  0  0  0  0  0
    0.8918   -2.5370    1.9826 H   0  0  0  0  0  0  0  0  0  0  0  0
  1 17  1  0  0  0  0
  2 10  2  0  0  0  0
  3 13  2  0  0  0  0
  4  6  1  0  0  0  0
  4  9  1  0  0  0  0
  4 10  1  0  0  0  0
  5 13  1  0  0  0  0
  5 37  1  0  0  0  0
  5 38  1  0  0  0  0
  6  7  1  0  0  0  0
  6 20  1  0  0  0  0
  6 21  1  0  0  0  0
  7  8  1  0  0  0  0
  7 22  1  0  0  0  0
  7 23  1  0  0  0  0
  8 12  1  0  0  0  0
  8 24  1  0  0  0  0
  8 25  1  0  0  0  0
  9 13  1  0  0  0  0
  9 26  1  0  0  0  0
  9 27  1  0  0  0  0
 10 11  1  0  0  0  0
 11 14  2  0  0  0  0
 11 15  1  0  0  0  0
 12 28  1  0  0  0  0
 12 29  1  0  0  0  0
 12 30  1  0  0  0  0
 14 17  1  0  0  0  0
 14 31  1  0  0  0  0
 15 18  2  0  0  0  0
 15 32  1  0  0  0  0
 16 17  2  0  0  0  0
 16 18  1  0  0  0  0
 16 19  1  0  0  0  0
 18 33  1  0  0  0  0
 19 34  1  0  0  0  0
 19 35  1  0  0  0  0
 19 36  1  0  0  0  0
M  END
> <PUBCHEM_COMPOUND_CID>
47205724

> <PUBCHEM_CONFORMER_RMSD>
0.8

> <PUBCHEM_CONFORMER_DIVERSEORDER>
3
246
172
196
124
237
159
50
190
146
221
142
187
66
223
12
107
308
220
122
118
247
95
278
99
216
191
43
291
42
261
194
228
79
143
63
239
185
17
214
253
287
238
255
20
59
126
274
39
229
151
250
232
149
244
116
72
178
235
231
111
288
227
98
273
243
166
109
230
283
100
184
94
277
281
89
198
175
219
163
127
148
131
181
32
145
304
290
266
113
234
269
301
306
165
157
137
85
10
53
173
139
91
160
176
136
265
188
51
35
296
104
164
199
45
158
123
78
31
215
144
289
74
179
203
141
193
27
49
202
263
300
192
182
60
252
259
245
24
73
186
207
242
298
180
154
22
68
284
110
267
305
299
272
58
209
4
62
286
93
86
257
48
307
285
170
169
303
254
153
171
26
201
65
218
135
37
155
200
115
29
282
208
264
34
249
204
213
152
132
102
225
80
302
119
251
69
258
11
129
279
224
55
217
295
268
18
5
262
275
130
276
292
57
105
280
83
54
92
197
293
76
121
108
44
206
233
150
106
177
156
236
38
211
28
168
13
84
212
117
71
88
70
16
75
87
40
256
294
9
240
174
64
25
147
167
2
125
189
112
41
101
61
195
128
56
1
46
47
133
222
8
52
297
21
77
14
271
30
114
205
82
19
248
6
33
183
138
23
270
97
81
36
210
241
67
103
120
260
226
134
15
161
162
90
140
96
7

> <PUBCHEM_MMFF94_PARTIAL_CHARGES>
21
1 -0.19
10 0.54
11 0.09
13 0.57
14 -0.15
15 -0.15
16 -0.14
17 0.19
18 -0.15
19 0.14
2 -0.57
3 -0.57
31 0.15
32 0.15
33 0.15
37 0.37
38 0.37
4 -0.66
5 -0.8
6 0.3
9 0.36

> <PUBCHEM_EFFECTIVE_ROTOR_COUNT>
7

> <PUBCHEM_PHARMACOPHORE_FEATURES>
5
1 12 hydrophobe
1 2 acceptor
1 3 acceptor
1 5 donor
6 11 14 15 16 17 18 rings

> <PUBCHEM_HEAVY_ATOM_COUNT>
19

> <PUBCHEM_ATOM_DEF_STEREO_COUNT>
0

> <PUBCHEM_ATOM_UDEF_STEREO_COUNT>
0

> <PUBCHEM_BOND_DEF_STEREO_COUNT>
0

> <PUBCHEM_BOND_UDEF_STEREO_COUNT>
0

> <PUBCHEM_ISOTOPIC_ATOM_COUNT>
0

> <PUBCHEM_COMPONENT_COUNT>
1

> <PUBCHEM_CACTVS_TAUTO_COUNT>
6

> <PUBCHEM_CONFORMER_ID>
02D04D5C00000003

> <PUBCHEM_MMFF94_ENERGY>
42.8943

> <PUBCHEM_FEATURE_SELFOVERLAP>
25.371

> <PUBCHEM_SHAPE_MULTIPOLES>
362.04
9.35
2.55
1.26
7.3
2.25
-0.18
-6.45
2.4
0.5
0.92
-0.26
-0.14
0.29

> <PUBCHEM_SHAPE_SELFOVERLAP>
736.934

> <PUBCHEM_SHAPE_VOLUME>
211.9

> <PUBCHEM_COORDINATE_TYPE>
2
5
10

$$$$

