6752
  -OEChem-06261201293D

 25 26  0     0  0  0  0  0  0999 V2000
   -2.8112   -0.1255   -0.0762 S   0  0  0  0  0  0  0  0  0  0  0  0
    3.6618   -0.2086    0.0394 O   0  0  0  0  0  0  0  0  0  0  0  0
   -3.0467   -0.7790    1.4006 O   0  0  0  0  0  0  0  0  0  0  0  0
   -3.6920    1.0240   -0.1845 O   0  0  0  0  0  0  0  0  0  0  0  0
   -2.8450   -1.1919   -1.0599 O   0  0  0  0  0  0  0  0  0  0  0  0
    2.6586    2.2309    0.0276 N   0  0  0  0  0  0  0  0  0  0  0  0
   -0.0416   -0.3769   -0.0270 C   0  0  0  0  0  0  0  0  0  0  0  0
    1.2563    0.1868   -0.0023 C   0  0  0  0  0  0  0  0  0  0  0  0
   -1.1592    0.4734   -0.0450 C   0  0  0  0  0  0  0  0  0  0  0  0
    1.3984    1.5840    0.0033 C   0  0  0  0  0  0  0  0  0  0  0  0
   -0.9996    1.8595   -0.0385 C   0  0  0  0  0  0  0  0  0  0  0  0
    2.3740   -0.6633    0.0154 C   0  0  0  0  0  0  0  0  0  0  0  0
   -0.1834   -1.7741   -0.0330 C   0  0  0  0  0  0  0  0  0  0  0  0
    0.2768    2.4138   -0.0147 C   0  0  0  0  0  0  0  0  0  0  0  0
    2.2146   -2.0493    0.0095 C   0  0  0  0  0  0  0  0  0  0  0  0
    0.9382   -2.6036   -0.0148 C   0  0  0  0  0  0  0  0  0  0  0  0
   -1.8437    2.5421   -0.0486 H   0  0  0  0  0  0  0  0  0  0  0  0
   -1.1382   -2.2838   -0.0016 H   0  0  0  0  0  0  0  0  0  0  0  0
    0.3822    3.4961   -0.0094 H   0  0  0  0  0  0  0  0  0  0  0  0
    3.0749   -2.7135    0.0259 H   0  0  0  0  0  0  0  0  0  0  0  0
    0.8153   -3.6829   -0.0083 H   0  0  0  0  0  0  0  0  0  0  0  0
    2.7054    3.2415    0.0301 H   0  0  0  0  0  0  0  0  0  0  0  0
    3.5155    1.6968    0.0408 H   0  0  0  0  0  0  0  0  0  0  0  0
    4.2780   -0.9606    0.0482 H   0  0  0  0  0  0  0  0  0  0  0  0
   -2.9686   -0.1528    2.1583 H   0  0  0  0  0  0  0  0  0  0  0  0
  1  3  1  0  0  0  0
  1  4  2  0  0  0  0
  1  5  2  0  0  0  0
  1  9  1  0  0  0  0
  2 12  1  0  0  0  0
  2 24  1  0  0  0  0
  3 25  1  0  0  0  0
  6 10  1  0  0  0  0
  6 22  1  0  0  0  0
  6 23  1  0  0  0  0
  7  8  1  0  0  0  0
  7  9  2  0  0  0  0
  7 13  1  0  0  0  0
  8 10  2  0  0  0  0
  8 12  1  0  0  0  0
  9 11  1  0  0  0  0
 10 14  1  0  0  0  0
 11 14  2  0  0  0  0
 11 17  1  0  0  0  0
 12 15  2  0  0  0  0
 13 16  2  0  0  0  0
 13 18  1  0  0  0  0
 14 19  1  0  0  0  0
 15 16  1  0  0  0  0
 15 20  1  0  0  0  0
 16 21  1  0  0  0  0
M  END
> <PUBCHEM_COMPOUND_CID>
6752

> <PUBCHEM_CONFORMER_RMSD>
0.6

> <PUBCHEM_CONFORMER_DIVERSEORDER>
1

> <PUBCHEM_MMFF94_PARTIAL_CHARGES>
23
1 1.49
10 0.1
11 -0.15
12 0.08
13 -0.15
14 -0.15
15 -0.15
16 -0.15
17 0.15
18 0.15
19 0.15
2 -0.53
20 0.15
21 0.15
22 0.4
23 0.4
24 0.45
25 0.5
3 -0.68
4 -0.65
5 -0.65
6 -0.9
9 -0.01

> <PUBCHEM_EFFECTIVE_ROTOR_COUNT>
1

> <PUBCHEM_PHARMACOPHORE_FEATURES>
9
1 2 donor
1 3 acceptor
1 4 acceptor
1 5 acceptor
1 6 cation
1 6 donor
4 1 3 4 5 anion
6 7 8 12 13 15 16 rings
6 7 8 9 10 11 14 rings

> <PUBCHEM_HEAVY_ATOM_COUNT>
16

> <PUBCHEM_ATOM_DEF_STEREO_COUNT>
0

> <PUBCHEM_ATOM_UDEF_STEREO_COUNT>
0

> <PUBCHEM_BOND_DEF_STEREO_COUNT>
0

> <PUBCHEM_BOND_UDEF_STEREO_COUNT>
0

> <PUBCHEM_ISOTOPIC_ATOM_COUNT>
0

> <PUBCHEM_COMPONENT_COUNT>
1

> <PUBCHEM_CACTVS_TAUTO_COUNT>
12

> <PUBCHEM_CONFORMER_ID>
00001A6000000001

> <PUBCHEM_MMFF94_ENERGY>
56.4398

> <PUBCHEM_FEATURE_SELFOVERLAP>
45.762

> <PUBCHEM_SHAPE_FINGERPRINT>
10967382 1 18410576222876904660
11132069 177 18261401056784106938
11471102 20 18339648948557310957
11471102 22 18341596110546137131
11578080 2 17243617236761410857
13140716 1 18266741286039387946
13380535 76 18122070810294771074
14251717 144 18337681831971339623
14790565 3 18339061723549881724
15219456 202 18272366443403745673
16945 1 18410292523249747838
193761 8 17906173202198321956
19591789 44 18195236729233736718
20201158 50 18342458196445034883
20645477 70 18409454682942239991
22721475 48 18267302212841438965
2334 1 17978229361822616086
23388829 49 18336270119007234924
23402539 116 18335432296017135910
23463225 33 18411139181404442796
23559900 14 15378531433342989014
2748010 2 18123182403591886126
34934 24 18266187295223988029
528886 8 18409736178771275171
7364860 26 18335704961525110412
81228 2 17690276435978201480
8809292 202 18129373963937030947

> <PUBCHEM_SHAPE_MULTIPOLES>
304.66
4.91
2.8
0.74
1.91
0.3
-0.07
-0.41
-0.1
-1.28
0.05
0.44
-0.16
0.04

> <PUBCHEM_SHAPE_SELFOVERLAP>
658.451

> <PUBCHEM_SHAPE_VOLUME>
167.6

> <PUBCHEM_COORDINATE_TYPE>
2
5
10

$$$$

