12144
  -OEChem-06261206353D

 19 19  0     0  0  0  0  0  0999 V2000
    1.6456   -0.6426    0.7429 S   0  0  0  0  0  0  0  0  0  0  0  0
   -0.0480   -0.2671    0.3334 C   0  0  0  0  0  0  0  0  0  0  0  0
    2.5488    0.3309   -0.4944 C   0  0  0  0  0  0  0  0  0  0  0  0
   -0.5014    1.0512    0.3801 C   0  0  0  0  0  0  0  0  0  0  0  0
   -0.9199   -1.2918   -0.0342 C   0  0  0  0  0  0  0  0  0  0  0  0
    4.0455    0.1529   -0.3235 C   0  0  0  0  0  0  0  0  0  0  0  0
   -1.8268    1.3448    0.0593 C   0  0  0  0  0  0  0  0  0  0  0  0
   -2.2453   -0.9983   -0.3552 C   0  0  0  0  0  0  0  0  0  0  0  0
   -2.6986    0.3200   -0.3084 C   0  0  0  0  0  0  0  0  0  0  0  0
    2.2484    0.0068   -1.4960 H   0  0  0  0  0  0  0  0  0  0  0  0
    2.2987    1.3909   -0.3893 H   0  0  0  0  0  0  0  0  0  0  0  0
    0.1568    1.8654    0.6724 H   0  0  0  0  0  0  0  0  0  0  0  0
   -0.5848   -2.3252   -0.0766 H   0  0  0  0  0  0  0  0  0  0  0  0
    4.3809    0.4932    0.6622 H   0  0  0  0  0  0  0  0  0  0  0  0
    4.3433   -0.8934   -0.4511 H   0  0  0  0  0  0  0  0  0  0  0  0
    4.5795    0.7425   -1.0763 H   0  0  0  0  0  0  0  0  0  0  0  0
   -2.1806    2.3709    0.0977 H   0  0  0  0  0  0  0  0  0  0  0  0
   -2.9243   -1.7961   -0.6415 H   0  0  0  0  0  0  0  0  0  0  0  0
   -3.7307    0.5485   -0.5578 H   0  0  0  0  0  0  0  0  0  0  0  0
  1  2  1  0  0  0  0
  1  3  1  0  0  0  0
  2  4  2  0  0  0  0
  2  5  1  0  0  0  0
  3  6  1  0  0  0  0
  3 10  1  0  0  0  0
  3 11  1  0  0  0  0
  4  7  1  0  0  0  0
  4 12  1  0  0  0  0
  5  8  2  0  0  0  0
  5 13  1  0  0  0  0
  6 14  1  0  0  0  0
  6 15  1  0  0  0  0
  6 16  1  0  0  0  0
  7  9  2  0  0  0  0
  7 17  1  0  0  0  0
  8  9  1  0  0  0  0
  8 18  1  0  0  0  0
  9 19  1  0  0  0  0
M  END
> <PUBCHEM_COMPOUND_CID>
12144

> <PUBCHEM_CONFORMER_RMSD>
0.4

> <PUBCHEM_CONFORMER_DIVERSEORDER>
2
4
7
8
3
5
9
6
1

> <PUBCHEM_MMFF94_PARTIAL_CHARGES>
13
1 -0.33
12 0.15
13 0.15
17 0.15
18 0.15
19 0.15
2 0.1
3 0.23
4 -0.15
5 -0.15
7 -0.15
8 -0.15
9 -0.15

> <PUBCHEM_EFFECTIVE_ROTOR_COUNT>
2

> <PUBCHEM_PHARMACOPHORE_FEATURES>
2
1 6 hydrophobe
6 2 4 5 7 8 9 rings

> <PUBCHEM_HEAVY_ATOM_COUNT>
9

> <PUBCHEM_ATOM_DEF_STEREO_COUNT>
0

> <PUBCHEM_ATOM_UDEF_STEREO_COUNT>
0

> <PUBCHEM_BOND_DEF_STEREO_COUNT>
0

> <PUBCHEM_BOND_UDEF_STEREO_COUNT>
0

> <PUBCHEM_ISOTOPIC_ATOM_COUNT>
0

> <PUBCHEM_COMPONENT_COUNT>
1

> <PUBCHEM_CACTVS_TAUTO_COUNT>
1

> <PUBCHEM_CONFORMER_ID>
00002F7000000002

> <PUBCHEM_MMFF94_ENERGY>
18.244

> <PUBCHEM_FEATURE_SELFOVERLAP>
10.148

> <PUBCHEM_SHAPE_FINGERPRINT>
12716758 59 18334579040164517506
12897270 3 18335421253312968990
12932764 1 17749399160700439466
13024252 1 17775281647364790459
14325111 11 18411981394779806194
14390081 3 18413109459276455960
15310529 11 17346327032726311913
15775835 57 18202280346560156452
20201158 50 17675921010692917670
20645464 45 17387157345368310402
20653085 51 18197487635266657808
21040471 1 18118979224094573721
21293036 1 18409735049458548981
23552423 10 18198629826058417457
2748010 2 17976559216713601411
29004967 10 15575004956846451627
369184 2 14549022078229820129
528716 315 18411131411977467958

> <PUBCHEM_SHAPE_MULTIPOLES>
189.07
5.29
1.32
0.79
5
0.01
0.05
0.49
-1.16
-0.73
0.04
0.18
-0.03
-0.29

> <PUBCHEM_SHAPE_SELFOVERLAP>
364.386

> <PUBCHEM_SHAPE_VOLUME>
116.2

> <PUBCHEM_COORDINATE_TYPE>
2
5
10

$$$$

