3571
  -OEChem-06251223313D

 63 65  0     1  0  0  0  0  0999 V2000
   -0.5114   -2.7375   -1.5694 O   0  0  0  0  0  0  0  0  0  0  0  0
    8.4751    1.1365    0.0471 O   0  0  0  0  0  0  0  0  0  0  0  0
   -3.9832   -0.4338   -1.1030 O   0  0  0  0  0  0  0  0  0  0  0  0
    0.3567    1.9328    0.5437 O   0  0  0  0  0  0  0  0  0  0  0  0
    6.5060    0.1591    1.8121 O   0  0  0  0  0  0  0  0  0  0  0  0
   -2.9511    3.4982    1.2018 O   0  0  0  0  0  0  0  0  0  0  0  0
   -2.2484   -2.2937   -0.1344 N   0  0  0  0  0  0  0  0  0  0  0  0
   -0.7800    0.3881   -0.7687 N   0  0  0  0  0  0  0  0  0  0  0  0
   -4.1155    0.6459    0.9474 N   0  0  0  0  0  0  0  0  0  0  0  0
   -2.6544    2.4546   -0.8556 N   0  0  0  0  0  0  0  0  0  0  0  0
   -3.0076   -1.5074    0.8410 C   0  0  2  0  0  0  0  0  0  0  0  0
   -4.0003   -2.5061    1.4333 C   0  0  0  0  0  0  0  0  0  0  0  0
   -2.9490   -3.5343   -0.4523 C   0  0  0  0  0  0  0  0  0  0  0  0
   -4.2882   -3.4425    0.2637 C   0  0  0  0  0  0  0  0  0  0  0  0
   -0.2313   -0.8127   -0.1542 C   0  0  1  0  0  0  0  0  0  0  0  0
   -0.9994   -2.0300   -0.6813 C   0  0  0  0  0  0  0  0  0  0  0  0
    1.2607   -0.9519   -0.4656 C   0  0  0  0  0  0  0  0  0  0  0  0
   -3.7468   -0.3938    0.1033 C   0  0  0  0  0  0  0  0  0  0  0  0
    1.8521   -2.1810    0.2160 C   0  0  0  0  0  0  0  0  0  0  0  0
    3.3364   -2.3341   -0.1223 C   0  0  0  0  0  0  0  0  0  0  0  0
    4.1449   -1.1309    0.3714 C   0  0  0  0  0  0  0  0  0  0  0  0
   -4.6206    1.9183    0.4411 C   0  0  2  0  0  0  0  0  0  0  0  0
    5.6358   -1.2663    0.0746 C   0  0  0  0  0  0  0  0  0  0  0  0
    7.1710    0.7227   -0.3804 C   0  0  1  0  0  0  0  0  0  0  0  0
   -0.4806    1.6688   -0.3192 C   0  0  0  0  0  0  0  0  0  0  0  0
   -1.2497    2.7838   -1.0248 C   0  0  1  0  0  0  0  0  0  0  0  0
    6.4362   -0.1062    0.6177 C   0  0  0  0  0  0  0  0  0  0  0  0
    7.4880    2.1645   -0.1079 C   0  0  0  0  0  0  0  0  0  0  0  0
   -3.3538    2.7546    0.3098 C   0  0  0  0  0  0  0  0  0  0  0  0
   -5.6215    2.5304    1.4062 C   0  0  0  0  0  0  0  0  0  0  0  0
   -0.8702    2.9035   -2.4913 C   0  0  0  0  0  0  0  0  0  0  0  0
   -2.3503   -1.0825    1.6037 H   0  0  0  0  0  0  0  0  0  0  0  0
   -3.5213   -3.0714    2.2421 H   0  0  0  0  0  0  0  0  0  0  0  0
   -4.9115   -2.0458    1.8270 H   0  0  0  0  0  0  0  0  0  0  0  0
   -3.0542   -3.6474   -1.5356 H   0  0  0  0  0  0  0  0  0  0  0  0
   -2.3465   -4.3661   -0.0704 H   0  0  0  0  0  0  0  0  0  0  0  0
   -5.0395   -2.9960   -0.3983 H   0  0  0  0  0  0  0  0  0  0  0  0
   -4.6605   -4.4200    0.5830 H   0  0  0  0  0  0  0  0  0  0  0  0
   -0.3547   -0.7274    0.9301 H   0  0  0  0  0  0  0  0  0  0  0  0
    1.4245   -1.0061   -1.5498 H   0  0  0  0  0  0  0  0  0  0  0  0
    1.7667   -0.0465   -0.1217 H   0  0  0  0  0  0  0  0  0  0  0  0
    1.3484   -3.1038   -0.0850 H   0  0  0  0  0  0  0  0  0  0  0  0
    1.7302   -2.0975    1.3031 H   0  0  0  0  0  0  0  0  0  0  0  0
    3.7164   -3.2481    0.3493 H   0  0  0  0  0  0  0  0  0  0  0  0
    3.4637   -2.4529   -1.2049 H   0  0  0  0  0  0  0  0  0  0  0  0
   -1.4579    0.2786   -1.5172 H   0  0  0  0  0  0  0  0  0  0  0  0
    3.9933   -1.0022    1.4504 H   0  0  0  0  0  0  0  0  0  0  0  0
    3.8089   -0.2051   -0.1060 H   0  0  0  0  0  0  0  0  0  0  0  0
   -3.8810    0.5858    1.9344 H   0  0  0  0  0  0  0  0  0  0  0  0
   -5.0825    1.7762   -0.5420 H   0  0  0  0  0  0  0  0  0  0  0  0
    6.0372   -2.1793    0.5299 H   0  0  0  0  0  0  0  0  0  0  0  0
    5.7928   -1.3570   -1.0057 H   0  0  0  0  0  0  0  0  0  0  0  0
    7.0682    0.4372   -1.4212 H   0  0  0  0  0  0  0  0  0  0  0  0
   -1.0422    3.7257   -0.5044 H   0  0  0  0  0  0  0  0  0  0  0  0
    7.5924    2.8324   -0.9535 H   0  0  0  0  0  0  0  0  0  0  0  0
    7.1019    2.6296    0.7897 H   0  0  0  0  0  0  0  0  0  0  0  0
   -3.0769    1.8270   -1.5337 H   0  0  0  0  0  0  0  0  0  0  0  0
   -6.5021    1.8874    1.5085 H   0  0  0  0  0  0  0  0  0  0  0  0
   -5.9509    3.5127    1.0517 H   0  0  0  0  0  0  0  0  0  0  0  0
   -5.1937    2.6634    2.4064 H   0  0  0  0  0  0  0  0  0  0  0  0
   -1.1001    1.9907   -3.0517 H   0  0  0  0  0  0  0  0  0  0  0  0
   -1.4186    3.7246   -2.9650 H   0  0  0  0  0  0  0  0  0  0  0  0
    0.2021    3.0977   -2.5994 H   0  0  0  0  0  0  0  0  0  0  0  0
  1 16  2  0  0  0  0
  2 24  1  0  0  0  0
  2 28  1  0  0  0  0
  3 18  2  0  0  0  0
  4 25  2  0  0  0  0
  5 27  2  0  0  0  0
  6 29  2  0  0  0  0
  7 11  1  0  0  0  0
  7 13  1  0  0  0  0
  7 16  1  0  0  0  0
  8 15  1  0  0  0  0
  8 25  1  0  0  0  0
  8 46  1  0  0  0  0
  9 18  1  0  0  0  0
  9 22  1  0  0  0  0
  9 49  1  0  0  0  0
 10 26  1  0  0  0  0
 10 29  1  0  0  0  0
 10 57  1  0  0  0  0
 11 12  1  0  0  0  0
 11 18  1  0  0  0  0
 11 32  1  0  0  0  0
 12 14  1  0  0  0  0
 12 33  1  0  0  0  0
 12 34  1  0  0  0  0
 13 14  1  0  0  0  0
 13 35  1  0  0  0  0
 13 36  1  0  0  0  0
 14 37  1  0  0  0  0
 14 38  1  0  0  0  0
 15 16  1  0  0  0  0
 15 17  1  0  0  0  0
 15 39  1  0  0  0  0
 17 19  1  0  0  0  0
 17 40  1  0  0  0  0
 17 41  1  0  0  0  0
 19 20  1  0  0  0  0
 19 42  1  0  0  0  0
 19 43  1  0  0  0  0
 20 21  1  0  0  0  0
 20 44  1  0  0  0  0
 20 45  1  0  0  0  0
 21 23  1  0  0  0  0
 21 47  1  0  0  0  0
 21 48  1  0  0  0  0
 22 29  1  0  0  0  0
 22 30  1  0  0  0  0
 22 50  1  0  0  0  0
 23 27  1  0  0  0  0
 23 51  1  0  0  0  0
 23 52  1  0  0  0  0
 24 27  1  0  0  0  0
 24 28  1  0  0  0  0
 24 53  1  0  0  0  0
 25 26  1  0  0  0  0
 26 31  1  0  0  0  0
 26 54  1  0  0  0  0
 28 55  1  0  0  0  0
 28 56  1  0  0  0  0
 30 58  1  0  0  0  0
 30 59  1  0  0  0  0
 30 60  1  0  0  0  0
 31 61  1  0  0  0  0
 31 62  1  0  0  0  0
 31 63  1  0  0  0  0
M  END
> <PUBCHEM_COMPOUND_CID>
3571

> <PUBCHEM_CONFORMER_RMSD>
1.6

> <PUBCHEM_CONFORMER_DIVERSEORDER>
2
39
70
3
62
11
35
55
58
44
34
9
64
37
59
18
26
42
46
69
41
60
24
22
45
15
65
13
63
28
32
25
38
7
36
76
19
80
75
27
51
74
56
20
4
49
72
78
17
68
33
53
14
54
23
16
79
29
67
21
30
8
47
12
61
52
1
77
73
31
40
6
5
57
50
66
43
71
48
10

> <PUBCHEM_MMFF94_PARTIAL_CHARGES>
29
1 -0.57
10 -0.73
11 0.36
13 0.3
15 0.36
16 0.57
18 0.57
2 -0.3
22 0.36
23 0.06
24 0.05
25 0.57
26 0.36
27 0.51
28 -0.05
29 0.57
3 -0.57
4 -0.57
46 0.37
49 0.37
5 -0.57
53 0.1
55 0.1
56 0.1
57 0.37
6 -0.57
7 -0.66
8 -0.73
9 -0.73

> <PUBCHEM_EFFECTIVE_ROTOR_COUNT>
9.4

> <PUBCHEM_PHARMACOPHORE_FEATURES>
11
1 1 acceptor
1 10 donor
1 2 acceptor
1 3 acceptor
1 4 acceptor
1 5 acceptor
1 6 acceptor
1 8 donor
1 9 donor
5 17 19 20 21 23 hydrophobe
5 7 11 12 13 14 rings

> <PUBCHEM_HEAVY_ATOM_COUNT>
31

> <PUBCHEM_ATOM_DEF_STEREO_COUNT>
0

> <PUBCHEM_ATOM_UDEF_STEREO_COUNT>
5

> <PUBCHEM_BOND_DEF_STEREO_COUNT>
0

> <PUBCHEM_BOND_UDEF_STEREO_COUNT>
0

> <PUBCHEM_ISOTOPIC_ATOM_COUNT>
0

> <PUBCHEM_COMPONENT_COUNT>
1

> <PUBCHEM_CACTVS_TAUTO_COUNT>
24

> <PUBCHEM_CONFORMER_ID>
00000DF300000002

> <PUBCHEM_MMFF94_ENERGY>
74.8494

> <PUBCHEM_FEATURE_SELFOVERLAP>
55.827

> <PUBCHEM_SHAPE_FINGERPRINT>
10087517 78 18342177735270789418
10411042 1 18048317735216105039
12422481 6 18410569583332251268
12596602 18 17346047697392693674
13111901 25 18200584805853463444
13140716 1 18338505366866391555
13757389 114 18116151069862079382
14395042 24 18270385119957321227
14415360 78 18123762108408980117
14765038 42 18115859870994429777
14790565 3 17975972382093840184
15338160 23 18410292506090789332
16110190 28 18413384349963008156
18393751 57 18267858574974645563
19377110 9 17775007890998315898
21302155 148 18410289246659102092
21304303 282 13181643102737318263
22956985 138 16977570328002442827
2747138 104 18198613346965729210
469060 322 17274824675102270030
5104073 3 18341058518697336290
550186 72 18342741806353587532

> <PUBCHEM_SHAPE_MULTIPOLES>
582.83
17.18
4.84
1.36
44.75
0.19
-0.27
6.11
5.97
-6.43
-0.52
-0.74
0.68
-0.61

> <PUBCHEM_SHAPE_SELFOVERLAP>
1191.299

> <PUBCHEM_SHAPE_VOLUME>
333.1

> <PUBCHEM_COORDINATE_TYPE>
2
5
10

$$$$

