4863
  -OEChem-06261200232D

 72 73  0     1  0  0  0  0  0999 V2000
    7.1962   -0.9400    0.0000 O   0  0  0  0  0  0  0  0  0  0  0  0
    4.5981    1.5600    0.0000 O   0  0  0  0  0  0  0  0  0  0  0  0
    5.4641   -3.9400    0.0000 O   0  0  0  0  0  0  0  0  0  0  0  0
    2.8660    3.5600    0.0000 O   0  0  0  0  0  0  0  0  0  0  0  0
    3.7320    2.0600    0.0000 O   0  0  0  0  0  0  0  0  0  0  0  0
    2.8660   -4.4400    0.0000 O   0  0  0  0  0  0  0  0  0  0  0  0
    3.7320   -5.9400    0.0000 O   0  0  0  0  0  0  0  0  0  0  0  0
    3.7320   -2.9400    0.0000 O   0  0  0  0  0  0  0  0  0  0  0  0
    5.4641   -5.9400    0.0000 O   0  0  0  0  0  0  0  0  0  0  0  0
    6.3301    1.5600    0.0000 N   0  0  0  0  0  0  0  0  0  0  0  0
    8.0622    0.5600    0.0000 N   0  0  0  0  0  0  0  0  0  0  0  0
    5.4641    3.0600    0.0000 N   0  0  0  0  0  0  0  0  0  0  0  0
    6.3301    0.5600    0.0000 C   0  0  3  0  0  0  0  0  0  0  0  0
    5.4641    0.0600    0.0000 C   0  0  0  0  0  0  0  0  0  0  0  0
    9.7942    0.5600    0.0000 C   0  0  0  0  0  0  0  0  0  0  0  0
    8.9282    0.0600    0.0000 C   0  0  0  0  0  0  0  0  0  0  0  0
    7.1962    0.0600    0.0000 C   0  0  0  0  0  0  0  0  0  0  0  0
   10.6603    0.0600    0.0000 C   0  0  0  0  0  0  0  0  0  0  0  0
    5.4641   -0.9400    0.0000 C   0  0  0  0  0  0  0  0  0  0  0  0
    4.5981    3.5600    0.0000 C   0  0  3  0  0  0  0  0  0  0  0  0
   11.5263    0.5600    0.0000 C   0  0  0  0  0  0  0  0  0  0  0  0
    4.5981    4.5600    0.0000 C   0  0  0  0  0  0  0  0  0  0  0  0
    5.4641    2.0600    0.0000 C   0  0  0  0  0  0  0  0  0  0  0  0
    4.5981   -1.4400    0.0000 C   0  0  0  0  0  0  0  0  0  0  0  0
    6.3301   -1.4400    0.0000 C   0  0  0  0  0  0  0  0  0  0  0  0
    3.7320    5.0600    0.0000 C   0  0  0  0  0  0  0  0  0  0  0  0
   12.3923    0.0600    0.0000 C   0  0  0  0  0  0  0  0  0  0  0  0
    4.5981   -2.4400    0.0000 C   0  0  0  0  0  0  0  0  0  0  0  0
    6.3301   -2.4400    0.0000 C   0  0  0  0  0  0  0  0  0  0  0  0
    3.7320    3.0600    0.0000 C   0  0  0  0  0  0  0  0  0  0  0  0
    5.4641   -2.9400    0.0000 C   0  0  0  0  0  0  0  0  0  0  0  0
    2.8660    4.5600    0.0000 C   0  0  0  0  0  0  0  0  0  0  0  0
    3.7320    6.0600    0.0000 C   0  0  0  0  0  0  0  0  0  0  0  0
    2.0000    5.0600    0.0000 C   0  0  0  0  0  0  0  0  0  0  0  0
    2.8660    6.5600    0.0000 C   0  0  0  0  0  0  0  0  0  0  0  0
    2.0000    6.0600    0.0000 C   0  0  0  0  0  0  0  0  0  0  0  0
    4.5981   -4.4400    0.0000 C   0  0  0  0  0  0  0  0  0  0  0  0
    4.5981   -5.4400    0.0000 C   0  0  0  0  0  0  0  0  0  0  0  0
    3.7320   -3.9400    0.0000 C   0  0  0  0  0  0  0  0  0  0  0  0
    6.8671    0.8700    0.0000 H   0  0  0  0  0  0  0  0  0  0  0  0
    5.2520    0.6426    0.0000 H   0  0  0  0  0  0  0  0  0  0  0  0
    4.8535   -0.0477    0.0000 H   0  0  0  0  0  0  0  0  0  0  0  0
   10.1928    1.0350    0.0000 H   0  0  0  0  0  0  0  0  0  0  0  0
    9.3957    1.0350    0.0000 H   0  0  0  0  0  0  0  0  0  0  0  0
    8.5297   -0.4149    0.0000 H   0  0  0  0  0  0  0  0  0  0  0  0
    9.3267   -0.4149    0.0000 H   0  0  0  0  0  0  0  0  0  0  0  0
   10.2617   -0.4149    0.0000 H   0  0  0  0  0  0  0  0  0  0  0  0
   11.0588   -0.4149    0.0000 H   0  0  0  0  0  0  0  0  0  0  0  0
    6.8671    1.8700    0.0000 H   0  0  0  0  0  0  0  0  0  0  0  0
    8.0622    1.1800    0.0000 H   0  0  0  0  0  0  0  0  0  0  0  0
    4.5981    2.9400    0.0000 H   0  0  0  0  0  0  0  0  0  0  0  0
   11.9248    1.0350    0.0000 H   0  0  0  0  0  0  0  0  0  0  0  0
   11.1278    1.0350    0.0000 H   0  0  0  0  0  0  0  0  0  0  0  0
    5.2087    4.4523    0.0000 H   0  0  0  0  0  0  0  0  0  0  0  0
    4.8101    5.1426    0.0000 H   0  0  0  0  0  0  0  0  0  0  0  0
    6.0010    3.3700    0.0000 H   0  0  0  0  0  0  0  0  0  0  0  0
    4.0611   -1.1300    0.0000 H   0  0  0  0  0  0  0  0  0  0  0  0
    6.8671   -1.1300    0.0000 H   0  0  0  0  0  0  0  0  0  0  0  0
   12.0823   -0.4769    0.0000 H   0  0  0  0  0  0  0  0  0  0  0  0
   12.9292   -0.2500    0.0000 H   0  0  0  0  0  0  0  0  0  0  0  0
   12.7023    0.5969    0.0000 H   0  0  0  0  0  0  0  0  0  0  0  0
    4.0611   -2.7500    0.0000 H   0  0  0  0  0  0  0  0  0  0  0  0
    6.8671   -2.7500    0.0000 H   0  0  0  0  0  0  0  0  0  0  0  0
    2.8660    3.9400    0.0000 H   0  0  0  0  0  0  0  0  0  0  0  0
    4.2690    6.3700    0.0000 H   0  0  0  0  0  0  0  0  0  0  0  0
    1.4631    4.7500    0.0000 H   0  0  0  0  0  0  0  0  0  0  0  0
    2.8660    7.1800    0.0000 H   0  0  0  0  0  0  0  0  0  0  0  0
    1.4631    6.3700    0.0000 H   0  0  0  0  0  0  0  0  0  0  0  0
    4.5981   -3.8200    0.0000 H   0  0  0  0  0  0  0  0  0  0  0  0
    2.3291    3.2500    0.0000 H   0  0  0  0  0  0  0  0  0  0  0  0
    2.3291   -4.1300    0.0000 H   0  0  0  0  0  0  0  0  0  0  0  0
    3.7320   -6.5600    0.0000 H   0  0  0  0  0  0  0  0  0  0  0  0
  1 17  2  0  0  0  0
  2 23  2  0  0  0  0
  3 31  1  0  0  0  0
  3 37  1  0  0  0  0
  4 30  1  0  0  0  0
  4 70  1  0  0  0  0
  5 30  2  0  0  0  0
  6 39  1  0  0  0  0
  6 71  1  0  0  0  0
  7 38  1  0  0  0  0
  7 72  1  0  0  0  0
  8 39  2  0  0  0  0
  9 38  2  0  0  0  0
 10 13  1  0  0  0  0
 10 23  1  0  0  0  0
 10 49  1  0  0  0  0
 11 16  1  0  0  0  0
 11 17  1  0  0  0  0
 11 50  1  0  0  0  0
 12 20  1  0  0  0  0
 12 23  1  0  0  0  0
 12 56  1  0  0  0  0
 13 14  1  0  0  0  0
 13 17  1  0  0  0  0
 13 40  1  0  0  0  0
 14 19  1  0  0  0  0
 14 41  1  0  0  0  0
 14 42  1  0  0  0  0
 15 16  1  0  0  0  0
 15 18  1  0  0  0  0
 15 43  1  0  0  0  0
 15 44  1  0  0  0  0
 16 45  1  0  0  0  0
 16 46  1  0  0  0  0
 18 21  1  0  0  0  0
 18 47  1  0  0  0  0
 18 48  1  0  0  0  0
 19 24  2  0  0  0  0
 19 25  1  0  0  0  0
 20 22  1  0  0  0  0
 20 30  1  0  0  0  0
 20 51  1  0  0  0  0
 21 27  1  0  0  0  0
 21 52  1  0  0  0  0
 21 53  1  0  0  0  0
 22 26  1  0  0  0  0
 22 54  1  0  0  0  0
 22 55  1  0  0  0  0
 24 28  1  0  0  0  0
 24 57  1  0  0  0  0
 25 29  2  0  0  0  0
 25 58  1  0  0  0  0
 26 32  2  0  0  0  0
 26 33  1  0  0  0  0
 27 59  1  0  0  0  0
 27 60  1  0  0  0  0
 27 61  1  0  0  0  0
 28 31  2  0  0  0  0
 28 62  1  0  0  0  0
 29 31  1  0  0  0  0
 29 63  1  0  0  0  0
 32 34  1  0  0  0  0
 32 64  1  0  0  0  0
 33 35  2  0  0  0  0
 33 65  1  0  0  0  0
 34 36  2  0  0  0  0
 34 66  1  0  0  0  0
 35 36  1  0  0  0  0
 35 67  1  0  0  0  0
 36 68  1  0  0  0  0
 37 38  1  0  0  0  0
 37 39  1  0  0  0  0
 37 69  1  0  0  0  0
M  END
> <PUBCHEM_COMPOUND_CID>
4863

> <PUBCHEM_COMPOUND_CANONICALIZED>
1

> <PUBCHEM_CACTVS_COMPLEXITY>
809

> <PUBCHEM_CACTVS_HBOND_ACCEPTOR>
9

> <PUBCHEM_CACTVS_HBOND_DONOR>
6

> <PUBCHEM_CACTVS_ROTATABLE_BOND>
16

> <PUBCHEM_CACTVS_SUBSKEYS>
AAADcfB7PAAAAAAAAAAAAAAAAAAAAAAAAAAwYAAAAAAAAAABQAAAHgAQCAAADDzhmAYzDoLABgCIAiHSGAICCAAgIAAIiIHOCIiPZjaMsT+WeCCt9hObqAeYyKCOIAAAAAAAAABAAAAAAAAAAAAAAAAAAA==

> <PUBCHEM_IUPAC_OPENEYE_NAME>
2-[4-[2-[(1-carboxy-2-phenyl-ethyl)carbamoylamino]-3-oxo-3-(pentylamino)propyl]phenoxy]propanedioic acid

> <PUBCHEM_IUPAC_CAS_NAME>
2-[4-[2-[[[(1-carboxy-2-phenylethyl)amino]-oxomethyl]amino]-3-oxo-3-(pentylamino)propyl]phenoxy]propanedioic acid

> <PUBCHEM_IUPAC_NAME>
2-[4-[2-[(1-carboxy-2-phenylethyl)carbamoylamino]-3-oxo-3-(pentylamino)propyl]phenoxy]propanedioic acid

> <PUBCHEM_IUPAC_SYSTEMATIC_NAME>
2-[4-[3-oxidanylidene-2-[(1-oxidanyl-1-oxidanylidene-3-phenyl-propan-2-yl)carbamoylamino]-3-(pentylamino)propyl]phenoxy]propanedioic acid

> <PUBCHEM_IUPAC_TRADITIONAL_NAME>
2-[4-[3-(amylamino)-2-[(1-carboxy-2-phenyl-ethyl)carbamoylamino]-3-keto-propyl]phenoxy]malonic acid

> <PUBCHEM_IUPAC_INCHI>
InChI=1S/C27H33N3O9/c1-2-3-7-14-28-23(31)20(15-18-10-12-19(13-11-18)39-22(25(34)35)26(36)37)29-27(38)30-21(24(32)33)16-17-8-5-4-6-9-17/h4-6,8-13,20-22H,2-3,7,14-16H2,1H3,(H,28,31)(H,32,33)(H,34,35)(H,36,37)(H2,29,30,38)

> <PUBCHEM_IUPAC_INCHIKEY>
BKONADSQADEJJP-UHFFFAOYSA-N

> <PUBCHEM_XLOGP3_AA>
3.4

> <PUBCHEM_EXACT_MASS>
543.22168

> <PUBCHEM_MOLECULAR_FORMULA>
C27H33N3O9

> <PUBCHEM_MOLECULAR_WEIGHT>
543.56562

> <PUBCHEM_OPENEYE_CAN_SMILES>
CCCCCNC(=O)C(CC1=CC=C(C=C1)OC(C(=O)O)C(=O)O)NC(=O)NC(CC2=CC=CC=C2)C(=O)O

> <PUBCHEM_OPENEYE_ISO_SMILES>
CCCCCNC(=O)C(CC1=CC=C(C=C1)OC(C(=O)O)C(=O)O)NC(=O)NC(CC2=CC=CC=C2)C(=O)O

> <PUBCHEM_CACTVS_TPSA>
191

> <PUBCHEM_MONOISOTOPIC_WEIGHT>
543.22168

> <PUBCHEM_TOTAL_CHARGE>
0

> <PUBCHEM_HEAVY_ATOM_COUNT>
39

> <PUBCHEM_ATOM_DEF_STEREO_COUNT>
0

> <PUBCHEM_ATOM_UDEF_STEREO_COUNT>
2

> <PUBCHEM_BOND_DEF_STEREO_COUNT>
0

> <PUBCHEM_BOND_UDEF_STEREO_COUNT>
0

> <PUBCHEM_ISOTOPIC_ATOM_COUNT>
0

> <PUBCHEM_COMPONENT_COUNT>
1

> <PUBCHEM_CACTVS_TAUTO_COUNT>
6

> <PUBCHEM_COORDINATE_TYPE>
1
5
255

> <PUBCHEM_BONDANNOTATIONS>
13  14  3
19  24  8
19  25  8
20  22  3
24  28  8
25  29  8
26  32  8
26  33  8
28  31  8
29  31  8
32  34  8
33  35  8
34  36  8
35  36  8

$$$$

