12457
  -OEChem-06261206572D

 49 52  0     0  0  0  0  0  0999 V2000
    4.4968    0.8660    0.0000 S   0  0  0  0  0  0  0  0  0  0  0  0
    9.3629    5.3437    0.0000 O   0  0  0  0  0  0  0  0  0  0  0  0
    7.9110    4.5055    0.0000 O   0  0  0  0  0  0  0  0  0  0  0  0
    3.2255   10.1647    0.0000 O   0  0  0  0  0  0  0  0  0  0  0  0
    1.4061    9.1328    0.0000 O   0  0  0  0  0  0  0  0  0  0  0  0
    5.3628    1.3660    0.0000 O   0  0  0  0  0  0  0  0  0  0  0  0
    3.6308    0.3660    0.0000 O   0  5  0  0  0  0  0  0  0  0  0  0
    3.9968    1.7320    0.0000 O   0  0  0  0  0  0  0  0  0  0  0  0
    4.9968    0.0000    0.0000 O   0  0  0  0  0  0  0  0  0  0  0  0
    5.9451    8.5870    0.0000 N   0  3  0  0  0  0  0  0  0  0  0  0
    6.8111    9.0870    0.0000 C   0  0  0  0  0  0  0  0  0  0  0  0
    7.6772    8.5870    0.0000 C   0  0  0  0  0  0  0  0  0  0  0  0
    5.9451    7.5870    0.0000 C   0  0  0  0  0  0  0  0  0  0  0  0
    7.6772    7.5870    0.0000 C   0  0  0  0  0  0  0  0  0  0  0  0
    6.8111    7.0870    0.0000 C   0  0  0  0  0  0  0  0  0  0  0  0
    5.0512    9.1217    0.0000 C   0  0  0  0  0  0  0  0  0  0  0  0
    5.0512    7.0523    0.0000 C   0  0  0  0  0  0  0  0  0  0  0  0
    4.1451    8.6078    0.0000 C   0  0  0  0  0  0  0  0  0  0  0  0
    4.1451    7.5662    0.0000 C   0  0  0  0  0  0  0  0  0  0  0  0
    8.5872    7.0802    0.0000 C   0  0  0  0  0  0  0  0  0  0  0  0
    6.7951    6.0455    0.0000 C   0  0  0  0  0  0  0  0  0  0  0  0
    8.5952    6.0386    0.0000 C   0  0  0  0  0  0  0  0  0  0  0  0
    7.6931    5.5177    0.0000 C   0  0  0  0  0  0  0  0  0  0  0  0
    3.2140    9.1647    0.0000 C   0  0  0  0  0  0  0  0  0  0  0  0
    3.2140    7.0093    0.0000 C   0  0  0  0  0  0  0  0  0  0  0  0
    2.2702    8.6295    0.0000 C   0  0  0  0  0  0  0  0  0  0  0  0
    8.9409    4.3981    0.0000 C   0  0  0  0  0  0  0  0  0  0  0  0
    2.2702    7.5445    0.0000 C   0  0  0  0  0  0  0  0  0  0  0  0
    2.3653   10.6747    0.0000 C   0  0  0  0  0  0  0  0  0  0  0  0
    0.5381    8.6362    0.0000 C   0  0  0  0  0  0  0  0  0  0  0  0
    7.2097    9.5620    0.0000 H   0  0  0  0  0  0  0  0  0  0  0  0
    6.4126    9.5620    0.0000 H   0  0  0  0  0  0  0  0  0  0  0  0
    8.2878    8.4793    0.0000 H   0  0  0  0  0  0  0  0  0  0  0  0
    7.8892    9.1696    0.0000 H   0  0  0  0  0  0  0  0  0  0  0  0
    5.0583    9.7416    0.0000 H   0  0  0  0  0  0  0  0  0  0  0  0
    5.0583    6.4324    0.0000 H   0  0  0  0  0  0  0  0  0  0  0  0
    9.1205    7.3964    0.0000 H   0  0  0  0  0  0  0  0  0  0  0  0
    6.2546    5.7417    0.0000 H   0  0  0  0  0  0  0  0  0  0  0  0
    3.2211    6.3893    0.0000 H   0  0  0  0  0  0  0  0  0  0  0  0
    8.8122    3.7916    0.0000 H   0  0  0  0  0  0  0  0  0  0  0  0
    9.5305    4.2064    0.0000 H   0  0  0  0  0  0  0  0  0  0  0  0
    1.7344    7.2324    0.0000 H   0  0  0  0  0  0  0  0  0  0  0  0
    2.6815   11.2080    0.0000 H   0  0  0  0  0  0  0  0  0  0  0  0
    1.8320   10.9908    0.0000 H   0  0  0  0  0  0  0  0  0  0  0  0
    2.0491   10.1413    0.0000 H   0  0  0  0  0  0  0  0  0  0  0  0
    0.2302    9.1743    0.0000 H   0  0  0  0  0  0  0  0  0  0  0  0
    0.0000    8.3282    0.0000 H   0  0  0  0  0  0  0  0  0  0  0  0
    0.8461    8.0980    0.0000 H   0  0  0  0  0  0  0  0  0  0  0  0
    5.8998    1.0560    0.0000 H   0  0  0  0  0  0  0  0  0  0  0  0
  1  6  1  0  0  0  0
  1  7  1  0  0  0  0
  1  8  2  0  0  0  0
  1  9  2  0  0  0  0
  2 22  1  0  0  0  0
  2 27  1  0  0  0  0
  3 23  1  0  0  0  0
  3 27  1  0  0  0  0
  4 24  1  0  0  0  0
  4 29  1  0  0  0  0
  5 26  1  0  0  0  0
  5 30  1  0  0  0  0
  6 49  1  0  0  0  0
 10 11  1  0  0  0  0
 10 13  2  0  0  0  0
 10 16  1  0  0  0  0
 11 12  1  0  0  0  0
 11 31  1  0  0  0  0
 11 32  1  0  0  0  0
 12 14  1  0  0  0  0
 12 33  1  0  0  0  0
 12 34  1  0  0  0  0
 13 15  1  0  0  0  0
 13 17  1  0  0  0  0
 14 15  1  0  0  0  0
 14 20  2  0  0  0  0
 15 21  2  0  0  0  0
 16 18  2  0  0  0  0
 16 35  1  0  0  0  0
 17 19  2  0  0  0  0
 17 36  1  0  0  0  0
 18 19  1  0  0  0  0
 18 24  1  0  0  0  0
 19 25  1  0  0  0  0
 20 22  1  0  0  0  0
 20 37  1  0  0  0  0
 21 23  1  0  0  0  0
 21 38  1  0  0  0  0
 22 23  2  0  0  0  0
 24 26  2  0  0  0  0
 25 28  2  0  0  0  0
 25 39  1  0  0  0  0
 26 28  1  0  0  0  0
 27 40  1  0  0  0  0
 27 41  1  0  0  0  0
 28 42  1  0  0  0  0
 29 43  1  0  0  0  0
 29 44  1  0  0  0  0
 29 45  1  0  0  0  0
 30 46  1  0  0  0  0
 30 47  1  0  0  0  0
 30 48  1  0  0  0  0
M  CHG  2   7  -1  10   1
M  END
> <PUBCHEM_COMPOUND_CID>
12457

> <PUBCHEM_COMPOUND_CANONICALIZED>
1

> <PUBCHEM_CACTVS_COMPLEXITY>
564

> <PUBCHEM_CACTVS_HBOND_ACCEPTOR>
8

> <PUBCHEM_CACTVS_HBOND_DONOR>
1

> <PUBCHEM_CACTVS_ROTATABLE_BOND>
2

> <PUBCHEM_CACTVS_SUBSKEYS>
AAADceB6PABAAAAAAAAAAAAAAAAAASAAAAA8eIEAAAAAAEix9AAAHgAACAAADAzBngc+jtMMFICgAzRnRDCCiCAxIiAI2CA+7JgdJuLEsZukMCpmwBnO6Aew0PMOoAABAAAYQABAAAIAADCAAAAAAAAAAA==

> <PUBCHEM_IUPAC_INCHI>
InChI=1S/C20H18NO4.H2O4S/c1-22-17-4-3-12-7-16-14-9-19-18(24-11-25-19)8-13(14)5-6-21(16)10-15(12)20(17)23-2;1-5(2,3)4/h3-4,7-10H,5-6,11H2,1-2H3;(H2,1,2,3,4)/q+1;/p-1

> <PUBCHEM_IUPAC_INCHIKEY>
JISRTQBQFQMSLG-UHFFFAOYSA-M

> <PUBCHEM_EXACT_MASS>
433.083138

> <PUBCHEM_MOLECULAR_FORMULA>
C20H19NO8S

> <PUBCHEM_MOLECULAR_WEIGHT>
433.43176

> <PUBCHEM_OPENEYE_CAN_SMILES>
COC1=C(C2=C[N+]3=C(C=C2C=C1)C4=CC5=C(C=C4CC3)OCO5)OC.OS(=O)(=O)[O-]

> <PUBCHEM_OPENEYE_ISO_SMILES>
COC1=C(C2=C[N+]3=C(C=C2C=C1)C4=CC5=C(C=C4CC3)OCO5)OC.OS(=O)(=O)[O-]

> <PUBCHEM_CACTVS_TPSA>
127

> <PUBCHEM_MONOISOTOPIC_WEIGHT>
433.083138

> <PUBCHEM_TOTAL_CHARGE>
0

> <PUBCHEM_HEAVY_ATOM_COUNT>
30

> <PUBCHEM_ATOM_DEF_STEREO_COUNT>
0

> <PUBCHEM_ATOM_UDEF_STEREO_COUNT>
0

> <PUBCHEM_BOND_DEF_STEREO_COUNT>
0

> <PUBCHEM_BOND_UDEF_STEREO_COUNT>
0

> <PUBCHEM_ISOTOPIC_ATOM_COUNT>
0

> <PUBCHEM_COMPONENT_COUNT>
2

> <PUBCHEM_CACTVS_TAUTO_COUNT>
1

> <PUBCHEM_COORDINATE_TYPE>
1
5
255

> <PUBCHEM_BONDANNOTATIONS>
10  13  8
10  16  8
13  17  8
14  15  8
14  20  8
15  21  8
16  18  8
17  19  8
18  19  8
18  24  8
19  25  8
20  22  8
21  23  8
22  23  8
24  26  8
25  28  8
26  28  8

$$$$

