47205541
  -OEChem-06241222593D

 31 32  0     1  0  0  0  0  0999 V2000
    0.4119   -1.8093    0.8061 O   0  0  0  0  0  0  0  0  0  0  0  0
    2.8727    0.0867   -0.1490 N   0  0  0  0  0  0  0  0  0  0  0  0
   -0.2691   -0.1931   -0.7538 N   0  0  0  0  0  0  0  0  0  0  0  0
    4.0812    1.9368    0.0710 N   0  0  0  0  0  0  0  0  0  0  0  0
   -2.3392    0.9106   -1.1428 N   0  0  0  0  0  0  0  0  0  0  0  0
    2.0149   -0.9833   -0.8000 C   0  0  1  0  0  0  0  0  0  0  0  0
    2.7215   -2.3414   -0.7797 C   0  0  0  0  0  0  0  0  0  0  0  0
    0.6322   -1.0609   -0.1420 C   0  0  0  0  0  0  0  0  0  0  0  0
    3.2844    0.1120    1.1537 C   0  0  0  0  0  0  0  0  0  0  0  0
    3.3753    1.2021   -0.7594 C   0  0  0  0  0  0  0  0  0  0  0  0
   -1.6282    0.0161   -0.4202 C   0  0  0  0  0  0  0  0  0  0  0  0
    4.0285    1.2629    1.2655 C   0  0  0  0  0  0  0  0  0  0  0  0
   -2.1476   -0.7167    0.6349 C   0  0  0  0  0  0  0  0  0  0  0  0
   -4.2464    0.3931    0.2499 C   0  0  0  0  0  0  0  0  0  0  0  0
   -3.4825   -0.5187    0.9700 C   0  0  0  0  0  0  0  0  0  0  0  0
   -3.6332    1.0762   -0.7879 C   0  0  0  0  0  0  0  0  0  0  0  0
   -5.6766    0.6270    0.5839 C   0  0  0  0  0  0  0  0  0  0  0  0
    1.9123   -0.6637   -1.8448 H   0  0  0  0  0  0  0  0  0  0  0  0
    2.8914   -2.6971    0.2424 H   0  0  0  0  0  0  0  0  0  0  0  0
    2.1190   -3.0958   -1.2968 H   0  0  0  0  0  0  0  0  0  0  0  0
    3.6956   -2.2802   -1.2765 H   0  0  0  0  0  0  0  0  0  0  0  0
    3.0237   -0.6591    1.8649 H   0  0  0  0  0  0  0  0  0  0  0  0
    0.0582    0.3754   -1.5308 H   0  0  0  0  0  0  0  0  0  0  0  0
    3.1959    1.4260   -1.8020 H   0  0  0  0  0  0  0  0  0  0  0  0
    4.5287    1.6405    2.1453 H   0  0  0  0  0  0  0  0  0  0  0  0
   -1.6213   -1.4379    1.2378 H   0  0  0  0  0  0  0  0  0  0  0  0
   -3.9179   -1.0778    1.7939 H   0  0  0  0  0  0  0  0  0  0  0  0
   -4.1762    1.8018   -1.3856 H   0  0  0  0  0  0  0  0  0  0  0  0
   -5.7623    1.4031    1.3507 H   0  0  0  0  0  0  0  0  0  0  0  0
   -6.2428    0.9437   -0.2986 H   0  0  0  0  0  0  0  0  0  0  0  0
   -6.1484   -0.2886    0.9563 H   0  0  0  0  0  0  0  0  0  0  0  0
  1  8  2  0  0  0  0
  2  6  1  0  0  0  0
  2  9  1  0  0  0  0
  2 10  1  0  0  0  0
  3  8  1  0  0  0  0
  3 11  1  0  0  0  0
  3 23  1  0  0  0  0
  4 10  2  0  0  0  0
  4 12  1  0  0  0  0
  5 11  2  0  0  0  0
  5 16  1  0  0  0  0
  6  7  1  0  0  0  0
  6  8  1  0  0  0  0
  6 18  1  0  0  0  0
  7 19  1  0  0  0  0
  7 20  1  0  0  0  0
  7 21  1  0  0  0  0
  9 12  2  0  0  0  0
  9 22  1  0  0  0  0
 10 24  1  0  0  0  0
 11 13  1  0  0  0  0
 12 25  1  0  0  0  0
 13 15  2  0  0  0  0
 13 26  1  0  0  0  0
 14 15  1  0  0  0  0
 14 16  2  0  0  0  0
 14 17  1  0  0  0  0
 15 27  1  0  0  0  0
 16 28  1  0  0  0  0
 17 29  1  0  0  0  0
 17 30  1  0  0  0  0
 17 31  1  0  0  0  0
M  END
> <PUBCHEM_COMPOUND_CID>
47205541

> <PUBCHEM_CONFORMER_RMSD>
0.6

> <PUBCHEM_CONFORMER_DIVERSEORDER>
1
23
22
16
19
5
15
34
31
2
18
32
3
17
30
14
10
33
7
26
24
6
27
9
13
28
4
11
29
25
8
12
21
20

> <PUBCHEM_MMFF94_PARTIAL_CHARGES>
23
1 -0.57
10 0.04
11 0.43
12 0.08
13 -0.15
14 -0.14
15 -0.15
16 0.16
17 0.14
2 0.05
22 0.15
23 0.37
24 0.15
25 0.15
26 0.15
27 0.15
28 0.15
3 -0.55
4 -0.57
5 -0.62
6 0.32
8 0.57
9 -0.3

> <PUBCHEM_EFFECTIVE_ROTOR_COUNT>
4

> <PUBCHEM_PHARMACOPHORE_FEATURES>
5
1 1 acceptor
1 3 donor
3 2 4 10 cation
5 2 4 9 10 12 rings
6 5 11 13 14 15 16 rings

> <PUBCHEM_HEAVY_ATOM_COUNT>
17

> <PUBCHEM_ATOM_DEF_STEREO_COUNT>
0

> <PUBCHEM_ATOM_UDEF_STEREO_COUNT>
1

> <PUBCHEM_BOND_DEF_STEREO_COUNT>
0

> <PUBCHEM_BOND_UDEF_STEREO_COUNT>
0

> <PUBCHEM_ISOTOPIC_ATOM_COUNT>
0

> <PUBCHEM_COMPONENT_COUNT>
1

> <PUBCHEM_CACTVS_TAUTO_COUNT>
3

> <PUBCHEM_CONFORMER_ID>
02D04CA500000001

> <PUBCHEM_MMFF94_ENERGY>
38.9745

> <PUBCHEM_FEATURE_SELFOVERLAP>
25.371

> <PUBCHEM_SHAPE_FINGERPRINT>
11128504 68 15719395018814001913
11132069 177 17989201547512536975
11543360 7 16443068279121863679
12251169 10 17203329983477567764
12363563 72 10447661218192520944
12403259 415 18130787918704992749
12616999 72 15285355132705460748
12892183 10 16343440456988073476
13167823 11 11815605368637882761
13583140 156 16486433000309429974
13675066 3 15339126744756775787
13955234 65 18261387922590194579
14170010 4 18114181982312743326
14341114 328 17346598522025872288
14366163 111 15719393919112210504
15342168 16 18334573503862145165
15375358 24 18131353020732324111
17834072 33 17821731628846021479
1798214 20 8718836387712803688
1813 80 16663720643665012102
18186145 218 18261947531106006238
193927 3 11239721923799165424
19784866 34 17749117638673968768
204376 136 18409450258719924735
20645477 56 18343017805140701295
20645477 70 18041555952835923670
20871999 31 5833716806733556442
21452121 103 18337114561322958074
22079108 93 18260828164377066851
22646028 28 13326853335732541745
22854114 59 18342737425195924229
22926399 37 17821727226219739137
23559900 14 17845360188833970231
270888 7 18115875083948472808
3004659 81 5472874640330340060
3060560 45 15864068767602954628
312423 11 17314214730316666307
4072396 5 16415201191697729403
42 15 15841838858207067273
449060 50 18410572886077673357
449060 62 18187080654931268628
465052 167 11527945677095586904
474 4 18187083906126832672
49207404 50 18272082781993236690
495365 180 18260267464696734914
4990 188 7348889958010740503
5104073 3 18129656534631361161
5281201 14 18189048866375224061
5374978 207 17418091027174110213
573450 72 15123790699966903061
6333272 397 18201718444409781292
7808743 9 18053378800165416156
90316 7 15913334632131639733
960060 61 7709457242650506640

> <PUBCHEM_SHAPE_MULTIPOLES>
324.06
10.51
1.8
1.17
6.68
0.48
0.1
-4.8
1.85
-2.24
-0.13
-0.22
-0.1
0.92

> <PUBCHEM_SHAPE_SELFOVERLAP>
682.116

> <PUBCHEM_SHAPE_VOLUME>
184

> <PUBCHEM_COORDINATE_TYPE>
2
5
10

$$$$

