854022
  -OEChem-06241222463D

 21 22  0     1  0  0  0  0  0999 V2000
    0.6722    2.6549    0.3388 O   0  0  0  0  0  0  0  0  0  0  0  0
   -2.0048   -1.9253    0.1767 O   0  0  0  0  0  0  0  0  0  0  0  0
    0.0012   -0.7686    0.0118 N   0  0  0  0  0  0  0  0  0  0  0  0
   -1.3273    1.5105    0.1777 N   0  0  0  0  0  0  0  0  0  0  0  0
    0.6977    0.3948   -0.5196 C   0  0  2  0  0  0  0  0  0  0  0  0
    2.1484    0.1674   -0.1133 C   0  0  0  0  0  0  0  0  0  0  0  0
    2.2694   -1.3554   -0.1266 C   0  0  0  0  0  0  0  0  0  0  0  0
    0.9207   -1.8213    0.4049 C   0  0  0  0  0  0  0  0  0  0  0  0
    0.0529    1.6265    0.0810 C   0  0  0  0  0  0  0  0  0  0  0  0
   -1.3770   -0.8869   -0.0106 C   0  0  0  0  0  0  0  0  0  0  0  0
   -2.0534    0.4034   -0.4209 C   0  0  0  0  0  0  0  0  0  0  0  0
    0.5743    0.4068   -1.6089 H   0  0  0  0  0  0  0  0  0  0  0  0
    2.3448    0.5476    0.8968 H   0  0  0  0  0  0  0  0  0  0  0  0
    2.8533    0.6499   -0.7968 H   0  0  0  0  0  0  0  0  0  0  0  0
    2.4048   -1.7039   -1.1578 H   0  0  0  0  0  0  0  0  0  0  0  0
    3.1080   -1.7230    0.4709 H   0  0  0  0  0  0  0  0  0  0  0  0
    0.6058   -2.7874    0.0006 H   0  0  0  0  0  0  0  0  0  0  0  0
    0.9149   -1.8742    1.4987 H   0  0  0  0  0  0  0  0  0  0  0  0
   -2.0387    0.5073   -1.5094 H   0  0  0  0  0  0  0  0  0  0  0  0
   -3.0792    0.4268   -0.0448 H   0  0  0  0  0  0  0  0  0  0  0  0
   -1.8539    2.3089    0.5185 H   0  0  0  0  0  0  0  0  0  0  0  0
  1  9  2  0  0  0  0
  2 10  2  0  0  0  0
  3  5  1  0  0  0  0
  3  8  1  0  0  0  0
  3 10  1  0  0  0  0
  4  9  1  0  0  0  0
  4 11  1  0  0  0  0
  4 21  1  0  0  0  0
  5  6  1  0  0  0  0
  5  9  1  0  0  0  0
  5 12  1  0  0  0  0
  6  7  1  0  0  0  0
  6 13  1  0  0  0  0
  6 14  1  0  0  0  0
  7  8  1  0  0  0  0
  7 15  1  0  0  0  0
  7 16  1  0  0  0  0
  8 17  1  0  0  0  0
  8 18  1  0  0  0  0
 10 11  1  0  0  0  0
 11 19  1  0  0  0  0
 11 20  1  0  0  0  0
M  END
> <PUBCHEM_COMPOUND_CID>
854022

> <PUBCHEM_CONFORMER_RMSD>
0.4

> <PUBCHEM_CONFORMER_DIVERSEORDER>
1

> <PUBCHEM_MMFF94_PARTIAL_CHARGES>
10
1 -0.57
10 0.57
11 0.36
2 -0.57
21 0.37
3 -0.66
4 -0.73
5 0.36
8 0.3
9 0.57

> <PUBCHEM_EFFECTIVE_ROTOR_COUNT>
1

> <PUBCHEM_PHARMACOPHORE_FEATURES>
5
1 1 acceptor
1 2 acceptor
1 4 donor
5 3 5 6 7 8 rings
6 3 4 5 9 10 11 rings

> <PUBCHEM_HEAVY_ATOM_COUNT>
11

> <PUBCHEM_ATOM_DEF_STEREO_COUNT>
1

> <PUBCHEM_ATOM_UDEF_STEREO_COUNT>
0

> <PUBCHEM_BOND_DEF_STEREO_COUNT>
0

> <PUBCHEM_BOND_UDEF_STEREO_COUNT>
0

> <PUBCHEM_ISOTOPIC_ATOM_COUNT>
0

> <PUBCHEM_COMPONENT_COUNT>
1

> <PUBCHEM_CACTVS_TAUTO_COUNT>
2

> <PUBCHEM_CONFORMER_ID>
000D080600000001

> <PUBCHEM_MMFF94_ENERGY>
34.0433

> <PUBCHEM_FEATURE_SELFOVERLAP>
25.47

> <PUBCHEM_SHAPE_FINGERPRINT>
12524768 44 18189054363938799958
161256 15 18123464978001038399
16945 1 18123188171643306826
18185500 45 18340485668004948822
193761 8 18338517430764887541
21040471 1 17401204968102286982
23552423 10 18273207625512353758
241688 4 18410854395118736528
2748010 2 18410013225868831710
5084963 1 15234102098361937336
66348 1 18409732893126496870

> <PUBCHEM_SHAPE_MULTIPOLES>
204.67
2.8
2.43
0.66
0.82
0.43
-0.03
-0.58
-0.16
-0.66
0.38
0.02
0.01
-0.13

> <PUBCHEM_SHAPE_SELFOVERLAP>
430.241

> <PUBCHEM_SHAPE_VOLUME>
115.6

> <PUBCHEM_COORDINATE_TYPE>
2
5
10

$$$$

