9606
  -OEChem-06261203513D

 15 15  0     0  0  0  0  0  0999 V2000
   -2.3459    1.1016    0.0001 F   0  0  0  0  0  0  0  0  0  0  0  0
    1.2033    0.3027    0.0000 C   0  0  0  0  0  0  0  0  0  0  0  0
    0.0214    1.0435    0.0000 C   0  0  0  0  0  0  0  0  0  0  0  0
    1.1528   -1.0912    0.0000 C   0  0  0  0  0  0  0  0  0  0  0  0
    2.5209    1.0009    0.0000 C   0  0  0  0  0  0  0  0  0  0  0  0
   -1.2111    0.3904   -0.0002 C   0  0  0  0  0  0  0  0  0  0  0  0
   -0.0797   -1.7443    0.0000 C   0  0  0  0  0  0  0  0  0  0  0  0
   -1.2617   -1.0035    0.0000 C   0  0  0  0  0  0  0  0  0  0  0  0
    0.0473    2.1299    0.0018 H   0  0  0  0  0  0  0  0  0  0  0  0
    2.0666   -1.6795    0.0019 H   0  0  0  0  0  0  0  0  0  0  0  0
    2.4574    1.9653   -0.5154 H   0  0  0  0  0  0  0  0  0  0  0  0
    2.8543    1.1741    1.0281 H   0  0  0  0  0  0  0  0  0  0  0  0
    3.2817    0.4094   -0.5207 H   0  0  0  0  0  0  0  0  0  0  0  0
   -0.1193   -2.8296    0.0007 H   0  0  0  0  0  0  0  0  0  0  0  0
   -2.2214   -1.5118    0.0002 H   0  0  0  0  0  0  0  0  0  0  0  0
  1  6  1  0  0  0  0
  2  3  2  0  0  0  0
  2  4  1  0  0  0  0
  2  5  1  0  0  0  0
  3  6  1  0  0  0  0
  3  9  1  0  0  0  0
  4  7  2  0  0  0  0
  4 10  1  0  0  0  0
  5 11  1  0  0  0  0
  5 12  1  0  0  0  0
  5 13  1  0  0  0  0
  6  8  2  0  0  0  0
  7  8  1  0  0  0  0
  7 14  1  0  0  0  0
  8 15  1  0  0  0  0
M  END
> <PUBCHEM_COMPOUND_CID>
9606

> <PUBCHEM_CONFORMER_RMSD>
0.4

> <PUBCHEM_CONFORMER_DIVERSEORDER>
1

> <PUBCHEM_MMFF94_PARTIAL_CHARGES>
12
1 -0.19
10 0.15
14 0.15
15 0.15
2 -0.14
3 -0.15
4 -0.15
5 0.14
6 0.19
7 -0.15
8 -0.15
9 0.15

> <PUBCHEM_EFFECTIVE_ROTOR_COUNT>
0

> <PUBCHEM_PHARMACOPHORE_FEATURES>
1
6 2 3 4 6 7 8 rings

> <PUBCHEM_HEAVY_ATOM_COUNT>
8

> <PUBCHEM_ATOM_DEF_STEREO_COUNT>
0

> <PUBCHEM_ATOM_UDEF_STEREO_COUNT>
0

> <PUBCHEM_BOND_DEF_STEREO_COUNT>
0

> <PUBCHEM_BOND_UDEF_STEREO_COUNT>
0

> <PUBCHEM_ISOTOPIC_ATOM_COUNT>
0

> <PUBCHEM_COMPONENT_COUNT>
1

> <PUBCHEM_CACTVS_TAUTO_COUNT>
1

> <PUBCHEM_CONFORMER_ID>
0000258600000001

> <PUBCHEM_MMFF94_ENERGY>
15.8281

> <PUBCHEM_FEATURE_SELFOVERLAP>
5.074

> <PUBCHEM_SHAPE_FINGERPRINT>
16714656 1 18122339082336376494
18185500 45 17257088697462628907
20096714 4 18410574032406770827
21040471 1 18410855451670147968
23552423 10 18200592497780667798
241688 4 16824179126661773642
2748010 2 18410851070698193062
29004967 10 17981880062443728891
5084963 1 17970904462465654834

> <PUBCHEM_SHAPE_MULTIPOLES>
157.36
2.67
1.68
0.6
0.78
0.4
0
-1.02
0
-0.34
0
0.03
0.02
0

> <PUBCHEM_SHAPE_SELFOVERLAP>
325.036

> <PUBCHEM_SHAPE_VOLUME>
91.3

> <PUBCHEM_COORDINATE_TYPE>
2
5
10

$$$$

