47205217
  -OEChem-06241222583D

 30 31  0     0  0  0  0  0  0999 V2000
    2.7842   -1.9155    2.1842 Br  0  0  0  0  0  0  0  0  0  0  0  0
    6.1517    2.0120    0.2295 Cl  0  0  0  0  0  0  0  0  0  0  0  0
    1.2625   -1.1932   -0.4482 O   0  0  0  0  0  0  0  0  0  0  0  0
   -1.2398   -1.9439    0.2014 O   0  0  0  0  0  0  0  0  0  0  0  0
   -2.1814   -0.5247   -1.3821 N   0  0  0  0  0  0  0  0  0  0  0  0
   -5.0497    1.0602   -0.4660 N   0  0  0  0  0  0  0  0  0  0  0  0
   -5.5021    1.7796    0.5752 N   0  0  0  0  0  0  0  0  0  0  0  0
   -3.5653   -0.8524   -1.1282 C   0  0  0  0  0  0  0  0  0  0  0  0
   -4.1836    0.0669   -0.1148 C   0  0  0  0  0  0  0  0  0  0  0  0
    0.2086   -0.5789   -1.1589 C   0  0  0  0  0  0  0  0  0  0  0  0
   -1.1307   -1.1046   -0.6885 C   0  0  0  0  0  0  0  0  0  0  0  0
   -4.0604    0.1418    1.2511 C   0  0  0  0  0  0  0  0  0  0  0  0
    2.4096   -0.4570   -0.2665 C   0  0  0  0  0  0  0  0  0  0  0  0
   -4.8942    1.2139    1.6215 C   0  0  0  0  0  0  0  0  0  0  0  0
    3.2217   -0.6392    0.8529 C   0  0  0  0  0  0  0  0  0  0  0  0
    2.7545    0.4889   -1.2319 C   0  0  0  0  0  0  0  0  0  0  0  0
    4.3789    0.1241    1.0066 C   0  0  0  0  0  0  0  0  0  0  0  0
    3.9116    1.2523   -1.0782 C   0  0  0  0  0  0  0  0  0  0  0  0
    4.7239    1.0699    0.0410 C   0  0  0  0  0  0  0  0  0  0  0  0
   -3.6356   -1.8873   -0.7750 H   0  0  0  0  0  0  0  0  0  0  0  0
   -4.0950   -0.7875   -2.0847 H   0  0  0  0  0  0  0  0  0  0  0  0
   -1.9827    0.1755   -2.0910 H   0  0  0  0  0  0  0  0  0  0  0  0
    0.3105   -0.7983   -2.2279 H   0  0  0  0  0  0  0  0  0  0  0  0
    0.1798    0.5071   -0.9972 H   0  0  0  0  0  0  0  0  0  0  0  0
   -3.4560   -0.4875    1.8879 H   0  0  0  0  0  0  0  0  0  0  0  0
   -5.3758    1.3040   -1.3931 H   0  0  0  0  0  0  0  0  0  0  0  0
    2.1701    0.6437   -2.1339 H   0  0  0  0  0  0  0  0  0  0  0  0
   -5.0842    1.6063    2.6101 H   0  0  0  0  0  0  0  0  0  0  0  0
    5.0150   -0.0152    1.8781 H   0  0  0  0  0  0  0  0  0  0  0  0
    4.1721    1.9810   -1.8417 H   0  0  0  0  0  0  0  0  0  0  0  0
  1 15  1  0  0  0  0
  2 19  1  0  0  0  0
  3 10  1  0  0  0  0
  3 13  1  0  0  0  0
  4 11  2  0  0  0  0
  5  8  1  0  0  0  0
  5 11  1  0  0  0  0
  5 22  1  0  0  0  0
  6  7  1  0  0  0  0
  6  9  1  0  0  0  0
  6 26  1  0  0  0  0
  7 14  2  0  0  0  0
  8  9  1  0  0  0  0
  8 20  1  0  0  0  0
  8 21  1  0  0  0  0
  9 12  2  0  0  0  0
 10 11  1  0  0  0  0
 10 23  1  0  0  0  0
 10 24  1  0  0  0  0
 12 14  1  0  0  0  0
 12 25  1  0  0  0  0
 13 15  2  0  0  0  0
 13 16  1  0  0  0  0
 14 28  1  0  0  0  0
 15 17  1  0  0  0  0
 16 18  2  0  0  0  0
 16 27  1  0  0  0  0
 17 19  2  0  0  0  0
 17 29  1  0  0  0  0
 18 19  1  0  0  0  0
 18 30  1  0  0  0  0
M  END
> <PUBCHEM_COMPOUND_CID>
47205217

> <PUBCHEM_CONFORMER_RMSD>
1

> <PUBCHEM_CONFORMER_DIVERSEORDER>
2
93
6
17
120
50
9
97
23
114
88
58
73
39
121
48
83
96
76
90
29
67
4
95
74
79
34
75
81
42
109
10
32
14
110
5
115
124
47
18
86
104
8
85
84
116
3
26
15
102
107
22
53
106
122
27
57
77
62
7
117
1
103
55
101
20
40
118
64
54
45
68
38
87
78
71
63
31
108
41
119
98
35
70
16
25
33
91
94
61
105
80
82
21
24
52
66
126
12
28
11
92
100
46
44
43
19
113
112
13
56
99
59
65
72
36
51
60
125
30
37
49
89
69
123
111

> <PUBCHEM_MMFF94_PARTIAL_CHARGES>
26
1 -0.11
10 0.34
11 0.57
12 -0.15
13 0.08
14 0.14
15 0.11
16 -0.15
17 -0.15
18 -0.15
19 0.18
2 -0.18
22 0.37
25 0.15
26 0.27
27 0.15
28 0.15
29 0.15
3 -0.36
30 0.15
4 -0.57
5 -0.73
6 0.3
7 -0.71
8 0.48
9 -0.33

> <PUBCHEM_EFFECTIVE_ROTOR_COUNT>
6

> <PUBCHEM_PHARMACOPHORE_FEATURES>
8
1 1 hydrophobe
1 3 acceptor
1 4 acceptor
1 5 donor
1 6 donor
1 7 acceptor
5 6 7 9 12 14 rings
6 13 15 16 17 18 19 rings

> <PUBCHEM_HEAVY_ATOM_COUNT>
19

> <PUBCHEM_ATOM_DEF_STEREO_COUNT>
0

> <PUBCHEM_ATOM_UDEF_STEREO_COUNT>
0

> <PUBCHEM_BOND_DEF_STEREO_COUNT>
0

> <PUBCHEM_BOND_UDEF_STEREO_COUNT>
0

> <PUBCHEM_ISOTOPIC_ATOM_COUNT>
0

> <PUBCHEM_COMPONENT_COUNT>
1

> <PUBCHEM_CACTVS_TAUTO_COUNT>
4

> <PUBCHEM_CONFORMER_ID>
02D04B6100000002

> <PUBCHEM_MMFF94_ENERGY>
35.3397

> <PUBCHEM_FEATURE_SELFOVERLAP>
40.601

> <PUBCHEM_SHAPE_MULTIPOLES>
372.14
14.48
1.94
1.68
6.02
0.7
0.26
-8.28
6.46
-2.07
0.7
1.26
0.14
-1.36

> <PUBCHEM_SHAPE_SELFOVERLAP>
760.772

> <PUBCHEM_SHAPE_VOLUME>
220.2

> <PUBCHEM_COORDINATE_TYPE>
2
5
10

$$$$

