17395559
  -OEChem-06241222513D

 46 47  0     1  0  0  0  0  0999 V2000
    0.4894   -1.9676   -0.9983 O   0  0  0  0  0  0  0  0  0  0  0  0
    3.2055    1.3474    1.7611 O   0  0  0  0  0  0  0  0  0  0  0  0
   -1.9108   -0.8950    0.1966 N   0  0  0  0  0  0  0  0  0  0  0  0
   -4.0808    0.9443   -0.3197 N   0  0  0  0  0  0  0  0  0  0  0  0
    1.4171   -0.4535    0.5369 N   0  0  0  0  0  0  0  0  0  0  0  0
   -3.1342   -0.9129    1.0078 C   0  0  0  0  0  0  0  0  0  0  0  0
   -1.6586    0.4558   -0.3198 C   0  0  0  0  0  0  0  0  0  0  0  0
   -4.3330   -0.4058    0.1986 C   0  0  0  0  0  0  0  0  0  0  0  0
   -2.8569    0.9623   -1.1300 C   0  0  0  0  0  0  0  0  0  0  0  0
   -0.7681   -1.3769    0.9699 C   0  0  1  0  0  0  0  0  0  0  0  0
   -5.2233    1.4247   -1.0943 C   0  0  0  0  0  0  0  0  0  0  0  0
   -1.0389   -2.7952    1.4582 C   0  0  0  0  0  0  0  0  0  0  0  0
    0.4441   -1.3191    0.0433 C   0  0  0  0  0  0  0  0  0  0  0  0
   -6.4805    1.4784   -0.2428 C   0  0  0  0  0  0  0  0  0  0  0  0
    2.6704   -0.1428   -0.0422 C   0  0  0  0  0  0  0  0  0  0  0  0
    3.5401    0.7519    0.5815 C   0  0  0  0  0  0  0  0  0  0  0  0
    3.0329   -0.7412   -1.2490 C   0  0  0  0  0  0  0  0  0  0  0  0
    4.7722    1.0481   -0.0017 C   0  0  0  0  0  0  0  0  0  0  0  0
    4.2650   -0.4448   -1.8321 C   0  0  0  0  0  0  0  0  0  0  0  0
    5.1346    0.4498   -1.2085 C   0  0  0  0  0  0  0  0  0  0  0  0
    2.5137    2.5919    1.6845 C   0  0  0  0  0  0  0  0  0  0  0  0
   -3.3941   -1.9291    1.3212 H   0  0  0  0  0  0  0  0  0  0  0  0
   -3.0153   -0.3050    1.9150 H   0  0  0  0  0  0  0  0  0  0  0  0
   -1.4466    1.1563    0.4998 H   0  0  0  0  0  0  0  0  0  0  0  0
   -0.8021    0.4823   -1.0021 H   0  0  0  0  0  0  0  0  0  0  0  0
   -4.5528   -1.1066   -0.6182 H   0  0  0  0  0  0  0  0  0  0  0  0
   -5.1880   -0.4156    0.8826 H   0  0  0  0  0  0  0  0  0  0  0  0
   -2.6437    1.9878   -1.4557 H   0  0  0  0  0  0  0  0  0  0  0  0
   -2.9763    0.3502   -2.0345 H   0  0  0  0  0  0  0  0  0  0  0  0
   -0.6020   -0.7424    1.8503 H   0  0  0  0  0  0  0  0  0  0  0  0
   -5.0144    2.4419   -1.4479 H   0  0  0  0  0  0  0  0  0  0  0  0
   -5.4049    0.8041   -1.9808 H   0  0  0  0  0  0  0  0  0  0  0  0
   -1.4394   -3.4350    0.6631 H   0  0  0  0  0  0  0  0  0  0  0  0
   -0.1041   -3.2610    1.7925 H   0  0  0  0  0  0  0  0  0  0  0  0
   -1.7239   -2.8205    2.3117 H   0  0  0  0  0  0  0  0  0  0  0  0
   -6.8995    0.4857   -0.0521 H   0  0  0  0  0  0  0  0  0  0  0  0
   -6.3010    1.9793    0.7147 H   0  0  0  0  0  0  0  0  0  0  0  0
   -7.2541    2.0487   -0.7692 H   0  0  0  0  0  0  0  0  0  0  0  0
    1.2322    0.0201    1.4179 H   0  0  0  0  0  0  0  0  0  0  0  0
    2.4202   -1.4434   -1.7952 H   0  0  0  0  0  0  0  0  0  0  0  0
    5.4554    1.7434    0.4786 H   0  0  0  0  0  0  0  0  0  0  0  0
    4.5487   -0.9102   -2.7717 H   0  0  0  0  0  0  0  0  0  0  0  0
    6.0939    0.6804   -1.6624 H   0  0  0  0  0  0  0  0  0  0  0  0
    3.1439    3.3500    1.2088 H   0  0  0  0  0  0  0  0  0  0  0  0
    1.5756    2.4836    1.1310 H   0  0  0  0  0  0  0  0  0  0  0  0
    2.2826    2.9183    2.7022 H   0  0  0  0  0  0  0  0  0  0  0  0
  1 13  2  0  0  0  0
  2 16  1  0  0  0  0
  2 21  1  0  0  0  0
  3  6  1  0  0  0  0
  3  7  1  0  0  0  0
  3 10  1  0  0  0  0
  4  8  1  0  0  0  0
  4  9  1  0  0  0  0
  4 11  1  0  0  0  0
  5 13  1  0  0  0  0
  5 15  1  0  0  0  0
  5 39  1  0  0  0  0
  6  8  1  0  0  0  0
  6 22  1  0  0  0  0
  6 23  1  0  0  0  0
  7  9  1  0  0  0  0
  7 24  1  0  0  0  0
  7 25  1  0  0  0  0
  8 26  1  0  0  0  0
  8 27  1  0  0  0  0
  9 28  1  0  0  0  0
  9 29  1  0  0  0  0
 10 12  1  0  0  0  0
 10 13  1  0  0  0  0
 10 30  1  0  0  0  0
 11 14  1  0  0  0  0
 11 31  1  0  0  0  0
 11 32  1  0  0  0  0
 12 33  1  0  0  0  0
 12 34  1  0  0  0  0
 12 35  1  0  0  0  0
 14 36  1  0  0  0  0
 14 37  1  0  0  0  0
 14 38  1  0  0  0  0
 15 16  1  0  0  0  0
 15 17  2  0  0  0  0
 16 18  2  0  0  0  0
 17 19  1  0  0  0  0
 17 40  1  0  0  0  0
 18 20  1  0  0  0  0
 18 41  1  0  0  0  0
 19 20  2  0  0  0  0
 19 42  1  0  0  0  0
 20 43  1  0  0  0  0
 21 44  1  0  0  0  0
 21 45  1  0  0  0  0
 21 46  1  0  0  0  0
M  END
> <PUBCHEM_COMPOUND_CID>
17395559

> <PUBCHEM_CONFORMER_RMSD>
0.8

> <PUBCHEM_CONFORMER_DIVERSEORDER>
1
79
136
22
138
106
99
120
92
80
149
72
86
23
74
146
155
156
122
44
123
130
128
89
108
87
43
82
125
81
153
124
73
15
26
141
32
65
104
68
97
112
111
4
148
119
133
143
96
154
27
117
59
52
147
53
66
24
110
134
36
30
129
49
78
11
29
39
7
100
118
55
48
18
50
93
28
103
102
60
105
101
56
42
17
75
98
131
40
38
91
83
151
157
90
144
12
95
88
140
67
46
9
132
135
51
71
152
45
19
94
116
85
139
34
76
16
58
8
121
115
10
6
137
126
25
70
63
20
3
145
109
84
77
5
41
158
113
107
127
62
114
47
61
150
54
33
14
69
21
37
35
2
142
13
31
64
57

> <PUBCHEM_MMFF94_PARTIAL_CHARGES>
24
1 -0.57
10 0.33
11 0.27
13 0.57
15 0.12
16 0.08
17 -0.15
18 -0.15
19 -0.15
2 -0.36
20 -0.15
21 0.28
3 -0.81
39 0.37
4 -0.81
40 0.15
41 0.15
42 0.15
43 0.15
5 -0.55
6 0.27
7 0.27
8 0.27
9 0.27

> <PUBCHEM_EFFECTIVE_ROTOR_COUNT>
7.2

> <PUBCHEM_PHARMACOPHORE_FEATURES>
7
1 1 acceptor
1 2 acceptor
1 3 cation
1 4 cation
1 5 donor
6 15 16 17 18 19 20 rings
6 3 4 6 7 8 9 rings

> <PUBCHEM_HEAVY_ATOM_COUNT>
21

> <PUBCHEM_ATOM_DEF_STEREO_COUNT>
0

> <PUBCHEM_ATOM_UDEF_STEREO_COUNT>
1

> <PUBCHEM_BOND_DEF_STEREO_COUNT>
0

> <PUBCHEM_BOND_UDEF_STEREO_COUNT>
0

> <PUBCHEM_ISOTOPIC_ATOM_COUNT>
0

> <PUBCHEM_COMPONENT_COUNT>
1

> <PUBCHEM_CACTVS_TAUTO_COUNT>
2

> <PUBCHEM_CONFORMER_ID>
01096F6700000001

> <PUBCHEM_MMFF94_ENERGY>
63.1401

> <PUBCHEM_FEATURE_SELFOVERLAP>
35.522

> <PUBCHEM_SHAPE_FINGERPRINT>
10498660 4 18343862225369956900
10670039 82 17916015944517636100
11595378 159 16200160923255381125
11796584 16 18272643538310938562
12236239 1 16271925986880607538
12390115 104 18270950337210206921
12403259 415 18337104575534473051
12596602 18 15482382093244249593
12730499 353 18335414699346317391
12892183 10 13110969751094509519
12969540 114 18335431174940637383
13134695 92 17531232951832732808
13402501 40 18408608045756342736
13544653 18 11167946852868249987
13583140 156 18336259025608538554
13685833 64 7132424736343571309
14341114 328 15769772455122799365
14528608 73 18186810188266954789
15003188 100 18187652366718525365
15183329 4 15864349199060991241
15210252 30 18272082795380149740
15238133 3 18202291290643320128
15806764 133 18191848060124238328
15885798 251 7637396337435503159
17357779 13 17967802856624103864
17980427 23 16773787079312423079
18186145 218 18040433270001743906
193927 3 7997684350732766117
200 152 15864059975657271378
20388580 30 5617242750102576475
20645477 70 17604131693529996702
21033648 29 18411703140712355656
212847 35 18272092725137802656
212916 134 18059864951873716611
21792961 116 18264183891524917654
221357 26 17894910775651385760
22289505 5 18186518817680650300
23557571 272 18270949173100509319
23559900 14 18201151148340307966
2838139 119 18341062890440825637
3060560 45 17603585240503326054
312425 54 12175621828423261285
341906 21 17918278636167546317
3472631 163 17845926351723148492
34797466 226 17749113266835280237
4028521 119 18408882940689551523
465052 167 7709448437867407269
495365 180 18334021613840141338
5104073 3 17702942686262405241
53794403 172 18197499528369730677
633830 44 18261406532994146357
7471813 234 15574703704257324642
7808743 9 17917143901766209596

> <PUBCHEM_SHAPE_MULTIPOLES>
405.49
12.65
2.26
1.58
8.05
0.58
0.15
-7.88
-3.52
0.88
0.98
-1.59
-0.29
2.19

> <PUBCHEM_SHAPE_SELFOVERLAP>
830.047

> <PUBCHEM_SHAPE_VOLUME>
235.3

> <PUBCHEM_COORDINATE_TYPE>
2
5
10

$$$$

