13757
  -OEChem-06241222402D

 35 38  0     0  0  0  0  0  0999 V2000
    4.6501   -0.1863    0.0000 N   0  0  0  0  0  0  0  0  0  0  0  0
    2.9180   -0.1863    0.0000 C   0  0  0  0  0  0  0  0  0  0  0  0
    2.9180    0.8137    0.0000 C   0  0  0  0  0  0  0  0  0  0  0  0
    3.7841   -0.6863    0.0000 C   0  0  0  0  0  0  0  0  0  0  0  0
    3.7841    1.3137    0.0000 C   0  0  0  0  0  0  0  0  0  0  0  0
    3.8001   -1.7278    0.0000 C   0  0  0  0  0  0  0  0  0  0  0  0
    4.6501    0.8137    0.0000 C   0  0  0  0  0  0  0  0  0  0  0  0
    2.9021   -2.2555    0.0000 C   0  0  0  0  0  0  0  0  0  0  0  0
    2.0080   -0.6931    0.0000 C   0  0  0  0  0  0  0  0  0  0  0  0
    3.7680    2.3552    0.0000 C   0  0  0  0  0  0  0  0  0  0  0  0
    2.0000   -1.7347    0.0000 C   0  0  0  0  0  0  0  0  0  0  0  0
    2.0520    1.3137    0.0000 C   0  0  0  0  0  0  0  0  0  0  0  0
    4.6660    2.8830    0.0000 C   0  0  0  0  0  0  0  0  0  0  0  0
    5.5601    1.3206    0.0000 C   0  0  0  0  0  0  0  0  0  0  0  0
    4.7520   -2.2484    0.0000 C   0  0  0  0  0  0  0  0  0  0  0  0
    5.5681    2.3622    0.0000 C   0  0  0  0  0  0  0  0  0  0  0  0
    2.8937   -3.3405    0.0000 C   0  0  0  0  0  0  0  0  0  0  0  0
    4.7688   -3.3333    0.0000 C   0  0  0  0  0  0  0  0  0  0  0  0
    3.8334   -3.8830    0.0000 C   0  0  0  0  0  0  0  0  0  0  0  0
    4.6622    3.8830    0.0000 C   0  0  0  0  0  0  0  0  0  0  0  0
    1.4747   -0.3769    0.0000 H   0  0  0  0  0  0  0  0  0  0  0  0
    3.2275    2.6590    0.0000 H   0  0  0  0  0  0  0  0  0  0  0  0
    1.4619   -2.0426    0.0000 H   0  0  0  0  0  0  0  0  0  0  0  0
    2.3620    1.8507    0.0000 H   0  0  0  0  0  0  0  0  0  0  0  0
    1.5151    1.6237    0.0000 H   0  0  0  0  0  0  0  0  0  0  0  0
    1.7420    0.7768    0.0000 H   0  0  0  0  0  0  0  0  0  0  0  0
    6.0934    1.0044    0.0000 H   0  0  0  0  0  0  0  0  0  0  0  0
    5.2829   -1.9281    0.0000 H   0  0  0  0  0  0  0  0  0  0  0  0
    6.1062    2.6701    0.0000 H   0  0  0  0  0  0  0  0  0  0  0  0
    2.3556   -3.6484    0.0000 H   0  0  0  0  0  0  0  0  0  0  0  0
    5.3093   -3.6370    0.0000 H   0  0  0  0  0  0  0  0  0  0  0  0
    3.8357   -4.5030    0.0000 H   0  0  0  0  0  0  0  0  0  0  0  0
    5.2822    3.8854    0.0000 H   0  0  0  0  0  0  0  0  0  0  0  0
    4.6598    4.5030    0.0000 H   0  0  0  0  0  0  0  0  0  0  0  0
    4.0422    3.8806    0.0000 H   0  0  0  0  0  0  0  0  0  0  0  0
  1  4  2  0  0  0  0
  1  7  1  0  0  0  0
  2  3  2  0  0  0  0
  2  4  1  0  0  0  0
  2  9  1  0  0  0  0
  3  5  1  0  0  0  0
  3 12  1  0  0  0  0
  4  6  1  0  0  0  0
  5  7  2  0  0  0  0
  5 10  1  0  0  0  0
  6  8  1  0  0  0  0
  6 15  2  0  0  0  0
  7 14  1  0  0  0  0
  8 11  1  0  0  0  0
  8 17  2  0  0  0  0
  9 11  2  0  0  0  0
  9 21  1  0  0  0  0
 10 13  2  0  0  0  0
 10 22  1  0  0  0  0
 11 23  1  0  0  0  0
 12 24  1  0  0  0  0
 12 25  1  0  0  0  0
 12 26  1  0  0  0  0
 13 16  1  0  0  0  0
 13 20  1  0  0  0  0
 14 16  2  0  0  0  0
 14 27  1  0  0  0  0
 15 18  1  0  0  0  0
 15 28  1  0  0  0  0
 16 29  1  0  0  0  0
 17 19  1  0  0  0  0
 17 30  1  0  0  0  0
 18 19  2  0  0  0  0
 18 31  1  0  0  0  0
 19 32  1  0  0  0  0
 20 33  1  0  0  0  0
 20 34  1  0  0  0  0
 20 35  1  0  0  0  0
M  END
> <PUBCHEM_COMPOUND_CID>
13757

> <PUBCHEM_COMPOUND_CANONICALIZED>
1

> <PUBCHEM_CACTVS_COMPLEXITY>
352

> <PUBCHEM_CACTVS_HBOND_ACCEPTOR>
1

> <PUBCHEM_CACTVS_HBOND_DONOR>
0

> <PUBCHEM_CACTVS_ROTATABLE_BOND>
0

> <PUBCHEM_CACTVS_SUBSKEYS>
AAADccB6AAAAAAAAAAAAAAAAAAAAAAAAAAA8YMEAAAAAAADx/AAAHAAAAAAADAiBHgAywPIIEACgAyRiRACCgCAhAiAImCAwZJgIIOLAkZGEIAhggADIyAcQgMAOyAACQAASAACQAASAACQAAAAAAAAAAA==

> <PUBCHEM_IUPAC_OPENEYE_NAME>
7,9-dimethylbenzo[c]acridine

> <PUBCHEM_IUPAC_CAS_NAME>
7,9-dimethylbenzo[c]acridine

> <PUBCHEM_IUPAC_NAME>
7,9-dimethylbenzo[c]acridine

> <PUBCHEM_IUPAC_SYSTEMATIC_NAME>
7,9-dimethylbenzo[c]acridine

> <PUBCHEM_IUPAC_TRADITIONAL_NAME>
7,9-dimethylbenz[c]acridine

> <PUBCHEM_IUPAC_INCHI>
InChI=1S/C19H15N/c1-12-7-10-18-17(11-12)13(2)15-9-8-14-5-3-4-6-16(14)19(15)20-18/h3-11H,1-2H3

> <PUBCHEM_IUPAC_INCHIKEY>
HEFJMRLDXHSXEP-UHFFFAOYSA-N

> <PUBCHEM_XLOGP3_AA>
5.5

> <PUBCHEM_EXACT_MASS>
257.120449

> <PUBCHEM_MOLECULAR_FORMULA>
C19H15N

> <PUBCHEM_MOLECULAR_WEIGHT>
257.3291

> <PUBCHEM_OPENEYE_CAN_SMILES>
CC1=CC2=C(C=C1)N=C3C(=C2C)C=CC4=CC=CC=C43

> <PUBCHEM_OPENEYE_ISO_SMILES>
CC1=CC2=C(C=C1)N=C3C(=C2C)C=CC4=CC=CC=C43

> <PUBCHEM_CACTVS_TPSA>
12.9

> <PUBCHEM_MONOISOTOPIC_WEIGHT>
257.120449

> <PUBCHEM_TOTAL_CHARGE>
0

> <PUBCHEM_HEAVY_ATOM_COUNT>
20

> <PUBCHEM_ATOM_DEF_STEREO_COUNT>
0

> <PUBCHEM_ATOM_UDEF_STEREO_COUNT>
0

> <PUBCHEM_BOND_DEF_STEREO_COUNT>
0

> <PUBCHEM_BOND_UDEF_STEREO_COUNT>
0

> <PUBCHEM_ISOTOPIC_ATOM_COUNT>
0

> <PUBCHEM_COMPONENT_COUNT>
1

> <PUBCHEM_CACTVS_TAUTO_COUNT>
1

> <PUBCHEM_COORDINATE_TYPE>
1
5
255

> <PUBCHEM_BONDANNOTATIONS>
1  4  8
1  7  8
10  13  8
13  16  8
14  16  8
15  18  8
17  19  8
18  19  8
2  3  8
2  4  8
2  9  8
3  5  8
4  6  8
5  10  8
5  7  8
6  15  8
6  8  8
7  14  8
8  11  8
8  17  8
9  11  8

$$$$

