11739
  -OEChem-06261206032D

 11 10  0     0  0  0  0  0  0999 V2000
    2.0000   -0.8170    0.0000 Cl  0  0  0  0  0  0  0  0  0  0  0  0
    2.3660    0.5490    0.0000 Cl  0  0  0  0  0  0  0  0  0  0  0  0
    3.3660   -1.1830    0.0000 Cl  0  0  0  0  0  0  0  0  0  0  0  0
    4.5981   -0.3170    0.0000 O   0  0  0  0  0  0  0  0  0  0  0  0
    3.7320    1.1830    0.0000 O   0  0  0  0  0  0  0  0  0  0  0  0
    2.8660   -0.3170    0.0000 C   0  0  0  0  0  0  0  0  0  0  0  0
    3.7320    0.1830    0.0000 C   0  0  0  0  0  0  0  0  0  0  0  0
    5.4641    0.1830    0.0000 C   0  0  0  0  0  0  0  0  0  0  0  0
    5.7741   -0.3539    0.0000 H   0  0  0  0  0  0  0  0  0  0  0  0
    6.0010    0.4930    0.0000 H   0  0  0  0  0  0  0  0  0  0  0  0
    5.1541    0.7199    0.0000 H   0  0  0  0  0  0  0  0  0  0  0  0
  1  6  1  0  0  0  0
  2  6  1  0  0  0  0
  3  6  1  0  0  0  0
  4  7  1  0  0  0  0
  4  8  1  0  0  0  0
  5  7  2  0  0  0  0
  6  7  1  0  0  0  0
  8  9  1  0  0  0  0
  8 10  1  0  0  0  0
  8 11  1  0  0  0  0
M  END
> <PUBCHEM_COMPOUND_CID>
11739

> <PUBCHEM_COMPOUND_CANONICALIZED>
1

> <PUBCHEM_CACTVS_COMPLEXITY>
95.2

> <PUBCHEM_CACTVS_HBOND_ACCEPTOR>
2

> <PUBCHEM_CACTVS_HBOND_DONOR>
0

> <PUBCHEM_CACTVS_ROTATABLE_BOND>
1

> <PUBCHEM_CACTVS_SUBSKEYS>
AAADcQBAMAAGAAAAAAAAAAAAAAAAAAAAAAAAAAAAAAAAAAAAAAAAGgIAAAAAAAIAgIICCAAABAAIAACQCAAAAAAAAAAAAAAAAQBAAAAAAAAAAAAAAAAAAAAAAAAAAAAAAAAAAAAAAAAAAAAAAAAAAAAAAA==

> <PUBCHEM_IUPAC_OPENEYE_NAME>
methyl 2,2,2-trichloroacetate

> <PUBCHEM_IUPAC_CAS_NAME>
2,2,2-trichloroacetic acid methyl ester

> <PUBCHEM_IUPAC_NAME>
methyl 2,2,2-trichloroacetate

> <PUBCHEM_IUPAC_SYSTEMATIC_NAME>
methyl 2,2,2-tris(chloranyl)ethanoate

> <PUBCHEM_IUPAC_TRADITIONAL_NAME>
2,2,2-trichloroacetic acid methyl ester

> <PUBCHEM_IUPAC_INCHI>
InChI=1S/C3H3Cl3O2/c1-8-2(7)3(4,5)6/h1H3

> <PUBCHEM_IUPAC_INCHIKEY>
VHFUHRXYRYWELT-UHFFFAOYSA-N

> <PUBCHEM_XLOGP3>
2

> <PUBCHEM_EXACT_MASS>
175.919862

> <PUBCHEM_MOLECULAR_FORMULA>
C3H3Cl3O2

> <PUBCHEM_MOLECULAR_WEIGHT>
177.41372

> <PUBCHEM_OPENEYE_CAN_SMILES>
COC(=O)C(Cl)(Cl)Cl

> <PUBCHEM_OPENEYE_ISO_SMILES>
COC(=O)C(Cl)(Cl)Cl

> <PUBCHEM_CACTVS_TPSA>
26.3

> <PUBCHEM_MONOISOTOPIC_WEIGHT>
175.919862

> <PUBCHEM_TOTAL_CHARGE>
0

> <PUBCHEM_HEAVY_ATOM_COUNT>
8

> <PUBCHEM_ATOM_DEF_STEREO_COUNT>
0

> <PUBCHEM_ATOM_UDEF_STEREO_COUNT>
0

> <PUBCHEM_BOND_DEF_STEREO_COUNT>
0

> <PUBCHEM_BOND_UDEF_STEREO_COUNT>
0

> <PUBCHEM_ISOTOPIC_ATOM_COUNT>
0

> <PUBCHEM_COMPONENT_COUNT>
1

> <PUBCHEM_CACTVS_TAUTO_COUNT>
1

> <PUBCHEM_COORDINATE_TYPE>
1
5
255

$$$$

