51091016
  -OEChem-06241223013D

 40 41  0     0  0  0  0  0  0999 V2000
    1.3775   -0.0986   -0.3742 S   0  0  0  0  0  0  0  0  0  0  0  0
   -4.7552    0.1211    1.6946 O   0  0  0  0  0  0  0  0  0  0  0  0
    4.0916    0.3253    0.0809 N   0  0  0  0  0  0  0  0  0  0  0  0
    5.1460   -0.1844    0.7326 N   0  0  0  0  0  0  0  0  0  0  0  0
   -4.2942    1.7623    0.0953 N   0  0  0  0  0  0  0  0  0  0  0  0
    3.3336   -1.4265    1.1100 N   0  0  0  0  0  0  0  0  0  0  0  0
    4.6763   -1.2555    1.3606 N   0  0  0  0  0  0  0  0  0  0  0  0
    4.2371    1.5141   -0.7206 C   0  0  0  0  0  0  0  0  0  0  0  0
    5.2134    1.2963   -1.8791 C   0  0  0  0  0  0  0  0  0  0  0  0
    4.6573    2.7170    0.1275 C   0  0  0  0  0  0  0  0  0  0  0  0
   -1.0286   -1.4224   -0.1111 C   0  0  0  0  0  0  0  0  0  0  0  0
    2.9925   -0.4377    0.3162 C   0  0  0  0  0  0  0  0  0  0  0  0
    0.3989   -1.4662    0.3186 C   0  0  0  0  0  0  0  0  0  0  0  0
   -3.2399   -0.4658    0.0691 C   0  0  0  0  0  0  0  0  0  0  0  0
   -1.9051   -0.5073    0.4720 C   0  0  0  0  0  0  0  0  0  0  0  0
   -1.4869   -2.2961   -1.0972 C   0  0  0  0  0  0  0  0  0  0  0  0
   -3.6983   -1.3395   -0.9170 C   0  0  0  0  0  0  0  0  0  0  0  0
   -4.1537    0.4888    0.6765 C   0  0  0  0  0  0  0  0  0  0  0  0
   -2.8217   -2.2545   -1.5003 C   0  0  0  0  0  0  0  0  0  0  0  0
   -3.5633    2.1532   -1.1083 C   0  0  0  0  0  0  0  0  0  0  0  0
   -5.1774    2.7765    0.6539 C   0  0  0  0  0  0  0  0  0  0  0  0
    3.2634    1.7526   -1.1592 H   0  0  0  0  0  0  0  0  0  0  0  0
    4.6856    3.6278   -0.4801 H   0  0  0  0  0  0  0  0  0  0  0  0
    3.9505    2.8810    0.9485 H   0  0  0  0  0  0  0  0  0  0  0  0
    4.9047    0.4436   -2.4939 H   0  0  0  0  0  0  0  0  0  0  0  0
    5.2519    2.1806   -2.5240 H   0  0  0  0  0  0  0  0  0  0  0  0
    6.2295    1.0976   -1.5206 H   0  0  0  0  0  0  0  0  0  0  0  0
    5.6509    2.5755    0.5671 H   0  0  0  0  0  0  0  0  0  0  0  0
    0.4506   -1.4278    1.4133 H   0  0  0  0  0  0  0  0  0  0  0  0
    0.8594   -2.4149    0.0189 H   0  0  0  0  0  0  0  0  0  0  0  0
   -1.5507    0.1738    1.2427 H   0  0  0  0  0  0  0  0  0  0  0  0
   -0.8153   -3.0131   -1.5620 H   0  0  0  0  0  0  0  0  0  0  0  0
   -4.7362   -1.3155   -1.2390 H   0  0  0  0  0  0  0  0  0  0  0  0
   -3.1785   -2.9342   -2.2686 H   0  0  0  0  0  0  0  0  0  0  0  0
   -2.9529    3.0300   -0.8707 H   0  0  0  0  0  0  0  0  0  0  0  0
   -5.9262    3.0459   -0.0964 H   0  0  0  0  0  0  0  0  0  0  0  0
   -5.6842    2.4060    1.5485 H   0  0  0  0  0  0  0  0  0  0  0  0
   -4.5840    3.6567    0.9169 H   0  0  0  0  0  0  0  0  0  0  0  0
   -2.9102    1.3769   -1.5058 H   0  0  0  0  0  0  0  0  0  0  0  0
   -4.2905    2.4221   -1.8806 H   0  0  0  0  0  0  0  0  0  0  0  0
  1 12  1  0  0  0  0
  1 13  1  0  0  0  0
  2 18  2  0  0  0  0
  3  4  1  0  0  0  0
  3  8  1  0  0  0  0
  3 12  1  0  0  0  0
  4  7  2  0  0  0  0
  5 18  1  0  0  0  0
  5 20  1  0  0  0  0
  5 21  1  0  0  0  0
  6  7  1  0  0  0  0
  6 12  2  0  0  0  0
  8  9  1  0  0  0  0
  8 10  1  0  0  0  0
  8 22  1  0  0  0  0
  9 25  1  0  0  0  0
  9 26  1  0  0  0  0
  9 27  1  0  0  0  0
 10 23  1  0  0  0  0
 10 24  1  0  0  0  0
 10 28  1  0  0  0  0
 11 13  1  0  0  0  0
 11 15  2  0  0  0  0
 11 16  1  0  0  0  0
 13 29  1  0  0  0  0
 13 30  1  0  0  0  0
 14 15  1  0  0  0  0
 14 17  2  0  0  0  0
 14 18  1  0  0  0  0
 15 31  1  0  0  0  0
 16 19  2  0  0  0  0
 16 32  1  0  0  0  0
 17 19  1  0  0  0  0
 17 33  1  0  0  0  0
 19 34  1  0  0  0  0
 20 35  1  0  0  0  0
 20 39  1  0  0  0  0
 20 40  1  0  0  0  0
 21 36  1  0  0  0  0
 21 37  1  0  0  0  0
 21 38  1  0  0  0  0
M  END
> <PUBCHEM_COMPOUND_CID>
51091016

> <PUBCHEM_CONFORMER_RMSD>
0.8

> <PUBCHEM_CONFORMER_DIVERSEORDER>
1
19
125
178
76
278
103
257
233
161
106
84
214
181
228
235
217
303
81
130
96
293
32
115
132
218
301
263
142
124
298
137
83
135
180
287
160
297
269
62
175
202
282
134
267
69
310
101
205
152
3
281
121
201
4
229
91
244
97
241
176
260
30
2
141
156
6
279
26
311
118
247
155
105
87
138
209
53
223
186
54
179
79
168
126
140
259
261
113
185
71
73
268
242
243
15
23
288
88
78
309
48
17
305
240
56
194
192
57
108
144
227
114
296
136
299
100
225
239
232
75
304
60
174
72
63
98
18
294
27
207
286
251
245
237
199
277
248
193
284
66
184
43
8
116
148
127
219
291
147
40
172
206
208
256
90
41
224
264
28
276
102
270
74
272
171
109
99
64
46
110
131
250
25
38
162
211
187
29
173
7
11
191
13
165
266
55
283
170
253
44
212
21
167
111
159
246
65
149
143
300
80
236
280
77
234
86
271
34
166
274
262
203
182
275
68
129
89
39
94
158
117
265
183
5
215
122
216
231
226
16
230
188
128
49
290
197
163
123
200
47
164
61
59
169
254
9
302
289
70
308
145
220
133
35
273
36
92
85
112
252
195
222
258
67
119
42
292
210
22
12
204
151
190
295
249
306
146
107
189
45
20
50
238
196
82
10
221
285
213
198
37
58
150
104
157
52
153
33
307
177
154
51
255
93
31
95
139
120
14
24

> <PUBCHEM_MMFF94_PARTIAL_CHARGES>
22
1 -0.29
11 -0.14
12 0.24
13 0.37
14 0.09
15 -0.15
16 -0.15
17 -0.15
18 0.54
19 -0.15
2 -0.57
20 0.3
21 0.3
3 0.31
31 0.15
32 0.15
33 0.15
34 0.15
4 -0.42
5 -0.66
6 -0.34
8 0.26

> <PUBCHEM_EFFECTIVE_ROTOR_COUNT>
6

> <PUBCHEM_PHARMACOPHORE_FEATURES>
5
1 2 acceptor
3 3 6 12 cation
3 8 9 10 hydrophobe
5 3 4 6 7 12 rings
6 11 14 15 16 17 19 rings

> <PUBCHEM_HEAVY_ATOM_COUNT>
21

> <PUBCHEM_ATOM_DEF_STEREO_COUNT>
0

> <PUBCHEM_ATOM_UDEF_STEREO_COUNT>
0

> <PUBCHEM_BOND_DEF_STEREO_COUNT>
0

> <PUBCHEM_BOND_UDEF_STEREO_COUNT>
0

> <PUBCHEM_ISOTOPIC_ATOM_COUNT>
0

> <PUBCHEM_COMPONENT_COUNT>
1

> <PUBCHEM_CACTVS_TAUTO_COUNT>
1

> <PUBCHEM_CONFORMER_ID>
030B964800000001

> <PUBCHEM_MMFF94_ENERGY>
46.3566

> <PUBCHEM_FEATURE_SELFOVERLAP>
25.371

> <PUBCHEM_SHAPE_FINGERPRINT>
10498660 4 17822005385507915040
105312 117 17675927611946960063
10912923 1 18343027653263756458
12107183 9 18194411215018430634
12390115 104 17749940155456069227
12596602 18 17275099514249123777
12616971 3 18342462547452777146
12788726 201 17905054651234769926
12892183 10 17704065214103091643
13583140 156 17201652257703991207
14251764 75 18116140259650759409
14739800 52 18045800996233837560
14848178 5 9367349193393278020
14950920 106 17274826890862315761
15163728 17 18041828640757458717
15239154 128 18411704249109251820
17818456 19 18117282664805040906
17834072 32 18408322202707935509
20101258 96 17977095765672379091
20645477 56 17894906317997403011
23557571 272 17168693142536412127
23559900 14 17458336477409243038
23596394 208 15574702604540215086
268830 7 18059866055848954130
2838139 119 18056774332674456093
341906 21 17968101897731861098
3472631 163 18334293184516428437
34797466 226 16951122846862886656
350125 39 18260548880070820147
5104073 3 18131356289033684032
633830 44 18272369789136380962
90127 26 18341884195482940186

> <PUBCHEM_SHAPE_MULTIPOLES>
405.25
13.89
2.94
1.4
8.52
1.31
-0.22
8.48
1.01
-2.03
-0.55
0.31
-0.14
-2.34

> <PUBCHEM_SHAPE_SELFOVERLAP>
822.623

> <PUBCHEM_SHAPE_VOLUME>
237.9

> <PUBCHEM_COORDINATE_TYPE>
2
5
10

$$$$

