51091004
  -OEChem-06241223012D

 42 44  0     0  0  0  0  0  0999 V2000
    5.4381   -0.6374    0.0000 S   0  0  0  0  0  0  0  0  0  0  0  0
    3.5827   -4.1194    0.0000 O   0  0  0  0  0  0  0  0  0  0  0  0
    6.3041    3.8626    0.0000 O   0  0  0  0  0  0  0  0  0  0  0  0
    4.4676   -2.1319    0.0000 N   0  0  0  0  0  0  0  0  0  0  0  0
    8.0362    3.8626    0.0000 N   0  0  0  0  0  0  0  0  0  0  0  0
    2.9894   -1.4738    0.0000 N   0  0  0  0  0  0  0  0  0  0  0  0
    3.6585   -0.7307    0.0000 N   0  0  0  0  0  0  0  0  0  0  0  0
    6.3041    0.8626    0.0000 C   0  0  0  0  0  0  0  0  0  0  0  0
    5.4381    0.3626    0.0000 C   0  0  0  0  0  0  0  0  0  0  0  0
    7.1702    2.3626    0.0000 C   0  0  0  0  0  0  0  0  0  0  0  0
    6.3041    1.8626    0.0000 C   0  0  0  0  0  0  0  0  0  0  0  0
    3.4894   -2.3399    0.0000 C   0  0  0  0  0  0  0  0  0  0  0  0
    4.5721   -1.1374    0.0000 C   0  0  0  0  0  0  0  0  0  0  0  0
    7.1702    0.3626    0.0000 C   0  0  0  0  0  0  0  0  0  0  0  0
    8.0362    1.8626    0.0000 C   0  0  0  0  0  0  0  0  0  0  0  0
    3.0827   -3.2534    0.0000 C   0  0  0  0  0  0  0  0  0  0  0  0
    7.1702    3.3626    0.0000 C   0  0  0  0  0  0  0  0  0  0  0  0
    8.0362    0.8626    0.0000 C   0  0  0  0  0  0  0  0  0  0  0  0
    5.2107   -2.8011    0.0000 C   0  0  0  0  0  0  0  0  0  0  0  0
    2.1045   -3.4613    0.0000 C   0  0  0  0  0  0  0  0  0  0  0  0
    8.0362    4.8626    0.0000 C   0  0  0  0  0  0  0  0  0  0  0  0
    8.9022    3.3626    0.0000 C   0  0  0  0  0  0  0  0  0  0  0  0
    2.0000   -4.4558    0.0000 C   0  0  0  0  0  0  0  0  0  0  0  0
    2.9136   -4.8626    0.0000 C   0  0  0  0  0  0  0  0  0  0  0  0
    5.2261    0.9452    0.0000 H   0  0  0  0  0  0  0  0  0  0  0  0
    4.8275    0.2549    0.0000 H   0  0  0  0  0  0  0  0  0  0  0  0
    5.7672    2.1726    0.0000 H   0  0  0  0  0  0  0  0  0  0  0  0
    7.1702   -0.2574    0.0000 H   0  0  0  0  0  0  0  0  0  0  0  0
    8.5731    2.1726    0.0000 H   0  0  0  0  0  0  0  0  0  0  0  0
    8.5731    0.5526    0.0000 H   0  0  0  0  0  0  0  0  0  0  0  0
    4.7958   -3.2618    0.0000 H   0  0  0  0  0  0  0  0  0  0  0  0
    5.6714   -3.2159    0.0000 H   0  0  0  0  0  0  0  0  0  0  0  0
    5.6256   -2.3403    0.0000 H   0  0  0  0  0  0  0  0  0  0  0  0
    1.6438   -3.0465    0.0000 H   0  0  0  0  0  0  0  0  0  0  0  0
    8.6562    4.8626    0.0000 H   0  0  0  0  0  0  0  0  0  0  0  0
    8.0362    5.4826    0.0000 H   0  0  0  0  0  0  0  0  0  0  0  0
    7.4162    4.8626    0.0000 H   0  0  0  0  0  0  0  0  0  0  0  0
    8.5922    2.8256    0.0000 H   0  0  0  0  0  0  0  0  0  0  0  0
    9.4392    3.0526    0.0000 H   0  0  0  0  0  0  0  0  0  0  0  0
    9.2122    3.8995    0.0000 H   0  0  0  0  0  0  0  0  0  0  0  0
    1.4631   -4.7658    0.0000 H   0  0  0  0  0  0  0  0  0  0  0  0
    3.0424   -5.4690    0.0000 H   0  0  0  0  0  0  0  0  0  0  0  0
  1  9  1  0  0  0  0
  1 13  1  0  0  0  0
  2 16  1  0  0  0  0
  2 24  1  0  0  0  0
  3 17  2  0  0  0  0
  4 12  1  0  0  0  0
  4 13  1  0  0  0  0
  4 19  1  0  0  0  0
  5 17  1  0  0  0  0
  5 21  1  0  0  0  0
  5 22  1  0  0  0  0
  6  7  1  0  0  0  0
  6 12  2  0  0  0  0
  7 13  2  0  0  0  0
  8  9  1  0  0  0  0
  8 11  2  0  0  0  0
  8 14  1  0  0  0  0
  9 25  1  0  0  0  0
  9 26  1  0  0  0  0
 10 11  1  0  0  0  0
 10 15  2  0  0  0  0
 10 17  1  0  0  0  0
 11 27  1  0  0  0  0
 12 16  1  0  0  0  0
 14 18  2  0  0  0  0
 14 28  1  0  0  0  0
 15 18  1  0  0  0  0
 15 29  1  0  0  0  0
 16 20  2  0  0  0  0
 18 30  1  0  0  0  0
 19 31  1  0  0  0  0
 19 32  1  0  0  0  0
 19 33  1  0  0  0  0
 20 23  1  0  0  0  0
 20 34  1  0  0  0  0
 21 35  1  0  0  0  0
 21 36  1  0  0  0  0
 21 37  1  0  0  0  0
 22 38  1  0  0  0  0
 22 39  1  0  0  0  0
 22 40  1  0  0  0  0
 23 24  2  0  0  0  0
 23 41  1  0  0  0  0
 24 42  1  0  0  0  0
M  END
> <PUBCHEM_COMPOUND_CID>
51091004

> <PUBCHEM_COMPOUND_CANONICALIZED>
1

> <PUBCHEM_CACTVS_COMPLEXITY>
437

> <PUBCHEM_CACTVS_HBOND_ACCEPTOR>
5

> <PUBCHEM_CACTVS_HBOND_DONOR>
0

> <PUBCHEM_CACTVS_ROTATABLE_BOND>
5

> <PUBCHEM_CACTVS_SUBSKEYS>
AAADceB7sABAAAAAAAAAAAAAAAAAAWJAAAAwAAAAAAAAAAAB8AAAHgQIAAAADASl2wazFIcMFEiqAqtytASS2AtmILAdyCGuDNiOLrKkvTuHOSjkyhMYqYeYmUKOAAACAAAAAAAAAAQAAAAAAAAAAAAAAA==

> <PUBCHEM_IUPAC_OPENEYE_NAME>
3-[[5-(2-furyl)-4-methyl-1,2,4-triazol-3-yl]sulfanylmethyl]-N,N-dimethyl-benzamide

> <PUBCHEM_IUPAC_CAS_NAME>
3-[[[5-(2-furanyl)-4-methyl-1,2,4-triazol-3-yl]thio]methyl]-N,N-dimethylbenzamide

> <PUBCHEM_IUPAC_NAME>
3-[[5-(furan-2-yl)-4-methyl-1,2,4-triazol-3-yl]sulfanylmethyl]-N,N-dimethylbenzamide

> <PUBCHEM_IUPAC_SYSTEMATIC_NAME>
3-[[5-(furan-2-yl)-4-methyl-1,2,4-triazol-3-yl]sulfanylmethyl]-N,N-dimethyl-benzamide

> <PUBCHEM_IUPAC_TRADITIONAL_NAME>
3-[[[5-(2-furyl)-4-methyl-1,2,4-triazol-3-yl]thio]methyl]-N,N-dimethyl-benzamide

> <PUBCHEM_IUPAC_INCHI>
InChI=1S/C17H18N4O2S/c1-20(2)16(22)13-7-4-6-12(10-13)11-24-17-19-18-15(21(17)3)14-8-5-9-23-14/h4-10H,11H2,1-3H3

> <PUBCHEM_IUPAC_INCHIKEY>
LPHUIUXJVBHDEI-UHFFFAOYSA-N

> <PUBCHEM_XLOGP3_AA>
2

> <PUBCHEM_EXACT_MASS>
342.115047

> <PUBCHEM_MOLECULAR_FORMULA>
C17H18N4O2S

> <PUBCHEM_MOLECULAR_WEIGHT>
342.41542

> <PUBCHEM_OPENEYE_CAN_SMILES>
CN1C(=NN=C1SCC2=CC=CC(=C2)C(=O)N(C)C)C3=CC=CO3

> <PUBCHEM_OPENEYE_ISO_SMILES>
CN1C(=NN=C1SCC2=CC=CC(=C2)C(=O)N(C)C)C3=CC=CO3

> <PUBCHEM_CACTVS_TPSA>
89.5

> <PUBCHEM_MONOISOTOPIC_WEIGHT>
342.115047

> <PUBCHEM_TOTAL_CHARGE>
0

> <PUBCHEM_HEAVY_ATOM_COUNT>
24

> <PUBCHEM_ATOM_DEF_STEREO_COUNT>
0

> <PUBCHEM_ATOM_UDEF_STEREO_COUNT>
0

> <PUBCHEM_BOND_DEF_STEREO_COUNT>
0

> <PUBCHEM_BOND_UDEF_STEREO_COUNT>
0

> <PUBCHEM_ISOTOPIC_ATOM_COUNT>
0

> <PUBCHEM_COMPONENT_COUNT>
1

> <PUBCHEM_CACTVS_TAUTO_COUNT>
1

> <PUBCHEM_COORDINATE_TYPE>
1
5
255

> <PUBCHEM_BONDANNOTATIONS>
10  11  8
10  15  8
14  18  8
15  18  8
16  20  8
2  16  8
2  24  8
20  23  8
23  24  8
4  12  8
4  13  8
6  12  8
6  7  8
7  13  8
8  11  8
8  14  8

$$$$

