583051
  -OEChem-06241222443D

 24 25  0     1  0  0  0  0  0999 V2000
   -2.2621    1.4876    0.9852 O   0  0  0  0  0  0  0  0  0  0  0  0
   -3.0956   -1.3758    0.0397 O   0  0  0  0  0  0  0  0  0  0  0  0
   -1.1295   -0.1723   -0.2445 N   0  0  0  0  0  0  0  0  0  0  0  0
   -0.3898    2.1222   -0.4020 C   0  0  0  0  0  0  0  0  0  0  0  0
   -1.6217    1.2137   -0.2575 C   0  0  2  0  0  0  0  0  0  0  0  0
    0.7308    1.1583   -0.1475 C   0  0  0  0  0  0  0  0  0  0  0  0
    0.2672   -0.1586   -0.1052 C   0  0  0  0  0  0  0  0  0  0  0  0
    1.1403   -1.2230    0.0530 C   0  0  0  0  0  0  0  0  0  0  0  0
    2.0812    1.4441   -0.0296 C   0  0  0  0  0  0  0  0  0  0  0  0
    2.5033   -0.9416    0.1802 C   0  0  0  0  0  0  0  0  0  0  0  0
    2.9704    0.3816    0.1412 C   0  0  0  0  0  0  0  0  0  0  0  0
   -1.9345   -1.2818   -0.3460 C   0  0  0  0  0  0  0  0  0  0  0  0
    0.7399   -2.6544    0.1330 C   0  0  0  0  0  0  0  0  0  0  0  0
   -2.3550    1.3456   -1.0600 H   0  0  0  0  0  0  0  0  0  0  0  0
   -0.3824    2.9535    0.3089 H   0  0  0  0  0  0  0  0  0  0  0  0
   -0.3073    2.4984   -1.4272 H   0  0  0  0  0  0  0  0  0  0  0  0
    2.4450    2.4650   -0.0763 H   0  0  0  0  0  0  0  0  0  0  0  0
    3.2293   -1.7408    0.3118 H   0  0  0  0  0  0  0  0  0  0  0  0
    4.0346    0.5787    0.2377 H   0  0  0  0  0  0  0  0  0  0  0  0
   -1.4317   -2.1660   -0.7433 H   0  0  0  0  0  0  0  0  0  0  0  0
    1.5647   -3.2820    0.4925 H   0  0  0  0  0  0  0  0  0  0  0  0
   -0.0707   -2.8028    0.8529 H   0  0  0  0  0  0  0  0  0  0  0  0
    0.4676   -3.0384   -0.8546 H   0  0  0  0  0  0  0  0  0  0  0  0
   -2.5762    2.4074    0.9533 H   0  0  0  0  0  0  0  0  0  0  0  0
  1  5  1  0  0  0  0
  1 24  1  0  0  0  0
  2 12  2  0  0  0  0
  3  5  1  0  0  0  0
  3  7  1  0  0  0  0
  3 12  1  0  0  0  0
  4  5  1  0  0  0  0
  4  6  1  0  0  0  0
  4 15  1  0  0  0  0
  4 16  1  0  0  0  0
  5 14  1  0  0  0  0
  6  7  1  0  0  0  0
  6  9  2  0  0  0  0
  7  8  2  0  0  0  0
  8 10  1  0  0  0  0
  8 13  1  0  0  0  0
  9 11  1  0  0  0  0
  9 17  1  0  0  0  0
 10 11  2  0  0  0  0
 10 18  1  0  0  0  0
 11 19  1  0  0  0  0
 12 20  1  0  0  0  0
 13 21  1  0  0  0  0
 13 22  1  0  0  0  0
 13 23  1  0  0  0  0
M  END
> <PUBCHEM_COMPOUND_CID>
583051

> <PUBCHEM_CONFORMER_RMSD>
0.6

> <PUBCHEM_CONFORMER_DIVERSEORDER>
2
1

> <PUBCHEM_MMFF94_PARTIAL_CHARGES>
18
1 -0.68
10 -0.15
11 -0.15
12 0.57
13 0.14
17 0.15
18 0.15
19 0.15
2 -0.57
20 0.06
24 0.4
3 -0.48
4 0.14
5 0.58
6 -0.14
7 0.12
8 -0.14
9 -0.15

> <PUBCHEM_EFFECTIVE_ROTOR_COUNT>
1.6

> <PUBCHEM_PHARMACOPHORE_FEATURES>
5
1 1 acceptor
1 1 donor
1 2 acceptor
5 3 4 5 6 7 rings
6 6 7 8 9 10 11 rings

> <PUBCHEM_HEAVY_ATOM_COUNT>
13

> <PUBCHEM_ATOM_DEF_STEREO_COUNT>
0

> <PUBCHEM_ATOM_UDEF_STEREO_COUNT>
1

> <PUBCHEM_BOND_DEF_STEREO_COUNT>
0

> <PUBCHEM_BOND_UDEF_STEREO_COUNT>
0

> <PUBCHEM_ISOTOPIC_ATOM_COUNT>
0

> <PUBCHEM_COMPONENT_COUNT>
1

> <PUBCHEM_CACTVS_TAUTO_COUNT>
1

> <PUBCHEM_CONFORMER_ID>
0008E58B00000002

> <PUBCHEM_MMFF94_ENERGY>
45.3487

> <PUBCHEM_FEATURE_SELFOVERLAP>
25.459

> <PUBCHEM_SHAPE_FINGERPRINT>
10967382 1 18051413967915795158
12382932 28 18263650726156811544
12423570 1 11959151095088983344
12524768 44 18050288360051034398
13140716 1 18410579530291996704
13380535 21 18264477567464446742
14251717 144 18122916330531884215
16945 1 18195250150848131804
193761 8 18195251237284953646
21501502 16 18411419552711753922
2334 1 18411421674510033180
23388829 49 18265338309001658069
23402539 116 18191038806723640734
23463225 33 18342179964142135432
23552423 10 18343018925805282292
23559900 14 17973441298897776214
241688 4 18413394245425175040
2748010 2 18411706473775600340
5084963 1 18260267417367127032
5255222 1 18195249038467543332
528886 8 18411144657698839296
66348 1 18268149768818644914

> <PUBCHEM_SHAPE_MULTIPOLES>
250.81
3.85
2.53
0.69
0.35
0.59
0.04
0.35
0.37
0.25
-0.01
0.14
-0.11
-0.24

> <PUBCHEM_SHAPE_SELFOVERLAP>
539.467

> <PUBCHEM_SHAPE_VOLUME>
140.2

> <PUBCHEM_COORDINATE_TYPE>
2
5
10

$$$$

