4855
  -OEChem-06261200222D

 37 39  0     0  0  0  0  0  0999 V2000
    5.1350    2.2500    0.0000 O   0  0  0  0  0  0  0  0  0  0  0  0
    2.5369    0.7500    0.0000 O   0  0  0  0  0  0  0  0  0  0  0  0
    3.4030    2.2500    0.0000 O   0  0  0  0  0  0  0  0  0  0  0  0
    8.6651   -0.7742    0.0000 N   0  0  0  0  0  0  0  0  0  0  0  0
    5.1350   -0.7500    0.0000 N   0  0  0  0  0  0  0  0  0  0  0  0
    6.8950   -0.7847    0.0000 N   0  0  0  0  0  0  0  0  0  0  0  0
    7.8010    0.7708    0.0000 N   0  0  0  0  0  0  0  0  0  0  0  0
    9.7432   -1.9808    0.0000 C   0  0  0  0  0  0  0  0  0  0  0  0
   10.2465   -1.1167    0.0000 C   0  0  0  0  0  0  0  0  0  0  0  0
    8.7658   -1.7691    0.0000 C   0  0  0  0  0  0  0  0  0  0  0  0
    9.5802   -0.3709    0.0000 C   0  0  0  0  0  0  0  0  0  0  0  0
    7.8010   -0.2708    0.0000 C   0  0  0  0  0  0  0  0  0  0  0  0
    6.0010   -0.2500    0.0000 C   0  0  0  0  0  0  0  0  0  0  0  0
    6.0010    0.7500    0.0000 C   0  0  0  0  0  0  0  0  0  0  0  0
    5.1350   -1.7500    0.0000 C   0  0  0  0  0  0  0  0  0  0  0  0
    6.8950    1.2847    0.0000 C   0  0  0  0  0  0  0  0  0  0  0  0
    4.2690   -0.2500    0.0000 C   0  0  0  0  0  0  0  0  0  0  0  0
    5.1350    1.2500    0.0000 C   0  0  0  0  0  0  0  0  0  0  0  0
    4.2690    0.7500    0.0000 C   0  0  0  0  0  0  0  0  0  0  0  0
    4.2690   -2.2500    0.0000 C   0  0  0  0  0  0  0  0  0  0  0  0
    3.4030    1.2500    0.0000 C   0  0  0  0  0  0  0  0  0  0  0  0
   10.7467   -1.4830    0.0000 H   0  0  0  0  0  0  0  0  0  0  0  0
   10.6631   -0.6575    0.0000 H   0  0  0  0  0  0  0  0  0  0  0  0
    9.5493   -2.5697    0.0000 H   0  0  0  0  0  0  0  0  0  0  0  0
   10.3086   -2.2351    0.0000 H   0  0  0  0  0  0  0  0  0  0  0  0
   10.0832   -0.0084    0.0000 H   0  0  0  0  0  0  0  0  0  0  0  0
    9.2723    0.1672    0.0000 H   0  0  0  0  0  0  0  0  0  0  0  0
    8.1458   -1.7667    0.0000 H   0  0  0  0  0  0  0  0  0  0  0  0
    8.6986   -2.3854    0.0000 H   0  0  0  0  0  0  0  0  0  0  0  0
    5.3471   -2.3326    0.0000 H   0  0  0  0  0  0  0  0  0  0  0  0
    5.7456   -1.6423    0.0000 H   0  0  0  0  0  0  0  0  0  0  0  0
    6.8878    1.9046    0.0000 H   0  0  0  0  0  0  0  0  0  0  0  0
    3.7320   -0.5600    0.0000 H   0  0  0  0  0  0  0  0  0  0  0  0
    3.9590   -1.7131    0.0000 H   0  0  0  0  0  0  0  0  0  0  0  0
    3.7320   -2.5600    0.0000 H   0  0  0  0  0  0  0  0  0  0  0  0
    4.5790   -2.7869    0.0000 H   0  0  0  0  0  0  0  0  0  0  0  0
    2.0000    1.0600    0.0000 H   0  0  0  0  0  0  0  0  0  0  0  0
  1 18  2  0  0  0  0
  2 21  1  0  0  0  0
  2 37  1  0  0  0  0
  3 21  2  0  0  0  0
  4 10  1  0  0  0  0
  4 11  1  0  0  0  0
  4 12  1  0  0  0  0
  5 13  1  0  0  0  0
  5 15  1  0  0  0  0
  5 17  1  0  0  0  0
  6 12  1  0  0  0  0
  6 13  2  0  0  0  0
  7 12  2  0  0  0  0
  7 16  1  0  0  0  0
  8  9  1  0  0  0  0
  8 10  1  0  0  0  0
  8 24  1  0  0  0  0
  8 25  1  0  0  0  0
  9 11  1  0  0  0  0
  9 22  1  0  0  0  0
  9 23  1  0  0  0  0
 10 28  1  0  0  0  0
 10 29  1  0  0  0  0
 11 26  1  0  0  0  0
 11 27  1  0  0  0  0
 13 14  1  0  0  0  0
 14 16  2  0  0  0  0
 14 18  1  0  0  0  0
 15 20  1  0  0  0  0
 15 30  1  0  0  0  0
 15 31  1  0  0  0  0
 16 32  1  0  0  0  0
 17 19  2  0  0  0  0
 17 33  1  0  0  0  0
 18 19  1  0  0  0  0
 19 21  1  0  0  0  0
 20 34  1  0  0  0  0
 20 35  1  0  0  0  0
 20 36  1  0  0  0  0
M  END
> <PUBCHEM_COMPOUND_CID>
4855

> <PUBCHEM_COMPOUND_CANONICALIZED>
1

> <PUBCHEM_CACTVS_COMPLEXITY>
473

> <PUBCHEM_CACTVS_HBOND_ACCEPTOR>
7

> <PUBCHEM_CACTVS_HBOND_DONOR>
1

> <PUBCHEM_CACTVS_ROTATABLE_BOND>
3

> <PUBCHEM_CACTVS_SUBSKEYS>
AAADceBzsAAAAAAAAAAAAAAAAAAAAWAAAAAsQAAAAAAAAACBgAAAHgAACAAADATBmgQvuJcIEgCoApL3bACAgCk1AKABUCEoRFiALJ5I2ECERIgMoALAUOCYEQIMAAAAAAAAAAAAAAAAAAAAAAAAAAAAAA==

> <PUBCHEM_IUPAC_OPENEYE_NAME>
8-ethyl-5-oxo-2-pyrrolidin-1-yl-pyrido[2,3-d]pyrimidine-6-carboxylic acid

> <PUBCHEM_IUPAC_CAS_NAME>
8-ethyl-5-oxo-2-(1-pyrrolidinyl)-6-pyrido[2,3-d]pyrimidinecarboxylic acid

> <PUBCHEM_IUPAC_NAME>
8-ethyl-5-oxo-2-pyrrolidin-1-ylpyrido[2,3-d]pyrimidine-6-carboxylic acid

> <PUBCHEM_IUPAC_SYSTEMATIC_NAME>
8-ethyl-5-oxidanylidene-2-pyrrolidin-1-yl-pyrido[2,3-d]pyrimidine-6-carboxylic acid

> <PUBCHEM_IUPAC_TRADITIONAL_NAME>
8-ethyl-5-keto-2-pyrrolidino-pyrido[2,3-d]pyrimidine-6-carboxylic acid

> <PUBCHEM_IUPAC_INCHI>
InChI=1S/C14H16N4O3/c1-2-17-8-10(13(20)21)11(19)9-7-15-14(16-12(9)17)18-5-3-4-6-18/h7-8H,2-6H2,1H3,(H,20,21)

> <PUBCHEM_IUPAC_INCHIKEY>
RCIMBBZXSXFZBV-UHFFFAOYSA-N

> <PUBCHEM_XLOGP3>
1.3

> <PUBCHEM_EXACT_MASS>
288.12224

> <PUBCHEM_MOLECULAR_FORMULA>
C14H16N4O3

> <PUBCHEM_MOLECULAR_WEIGHT>
288.30184

> <PUBCHEM_OPENEYE_CAN_SMILES>
CCN1C=C(C(=O)C2=CN=C(N=C21)N3CCCC3)C(=O)O

> <PUBCHEM_OPENEYE_ISO_SMILES>
CCN1C=C(C(=O)C2=CN=C(N=C21)N3CCCC3)C(=O)O

> <PUBCHEM_CACTVS_TPSA>
86.6

> <PUBCHEM_MONOISOTOPIC_WEIGHT>
288.12224

> <PUBCHEM_TOTAL_CHARGE>
0

> <PUBCHEM_HEAVY_ATOM_COUNT>
21

> <PUBCHEM_ATOM_DEF_STEREO_COUNT>
0

> <PUBCHEM_ATOM_UDEF_STEREO_COUNT>
0

> <PUBCHEM_BOND_DEF_STEREO_COUNT>
0

> <PUBCHEM_BOND_UDEF_STEREO_COUNT>
0

> <PUBCHEM_ISOTOPIC_ATOM_COUNT>
0

> <PUBCHEM_COMPONENT_COUNT>
1

> <PUBCHEM_CACTVS_TAUTO_COUNT>
1

> <PUBCHEM_COORDINATE_TYPE>
1
5
255

> <PUBCHEM_BONDANNOTATIONS>
13  14  8
14  16  8
14  18  8
17  19  8
18  19  8
5  13  8
5  17  8
6  12  8
6  13  8
7  12  8
7  16  8

$$$$

