12633
  -OEChem-06261207112D

 38 37  0     0  0  0  0  0  0999 V2000
    7.4040    3.2615    0.0000 Br  0  5  0  0  0  0  0  0  0  0  0  0
    2.2690    3.6200    0.0000 O   0  0  0  0  0  0  0  0  0  0  0  0
    4.0010    5.6200    0.0000 N   0  3  0  0  0  0  0  0  0  0  0  0
    3.1350    5.1200    0.0000 C   0  0  0  0  0  0  0  0  0  0  0  0
    4.8671    6.1200    0.0000 C   0  0  0  0  0  0  0  0  0  0  0  0
    3.5010    6.4860    0.0000 C   0  0  0  0  0  0  0  0  0  0  0  0
    4.5010    4.7540    0.0000 C   0  0  0  0  0  0  0  0  0  0  0  0
    3.1350    4.1200    0.0000 C   0  0  0  0  0  0  0  0  0  0  0  0
    2.2690    2.6200    0.0000 C   0  0  0  0  0  0  0  0  0  0  0  0
    1.4030    2.1200    0.0000 C   0  0  0  0  0  0  0  0  0  0  0  0
    3.1350    2.1200    0.0000 C   0  0  0  0  0  0  0  0  0  0  0  0
    1.4030    1.1200    0.0000 C   0  0  0  0  0  0  0  0  0  0  0  0
    3.1350    1.1200    0.0000 C   0  0  0  0  0  0  0  0  0  0  0  0
    0.5369    2.6200    0.0000 C   0  0  0  0  0  0  0  0  0  0  0  0
    4.0010    2.6200    0.0000 C   0  0  0  0  0  0  0  0  0  0  0  0
    2.2690    0.6200    0.0000 C   0  0  0  0  0  0  0  0  0  0  0  0
    2.9230    5.7026    0.0000 H   0  0  0  0  0  0  0  0  0  0  0  0
    2.5244    5.0123    0.0000 H   0  0  0  0  0  0  0  0  0  0  0  0
    5.1771    5.5831    0.0000 H   0  0  0  0  0  0  0  0  0  0  0  0
    5.4040    6.4300    0.0000 H   0  0  0  0  0  0  0  0  0  0  0  0
    4.5571    6.6569    0.0000 H   0  0  0  0  0  0  0  0  0  0  0  0
    4.0380    6.7960    0.0000 H   0  0  0  0  0  0  0  0  0  0  0  0
    3.1910    7.0230    0.0000 H   0  0  0  0  0  0  0  0  0  0  0  0
    2.9641    6.1760    0.0000 H   0  0  0  0  0  0  0  0  0  0  0  0
    3.9641    4.4440    0.0000 H   0  0  0  0  0  0  0  0  0  0  0  0
    4.8110    4.2170    0.0000 H   0  0  0  0  0  0  0  0  0  0  0  0
    5.0380    5.0640    0.0000 H   0  0  0  0  0  0  0  0  0  0  0  0
    3.3471    3.5374    0.0000 H   0  0  0  0  0  0  0  0  0  0  0  0
    3.7456    4.2277    0.0000 H   0  0  0  0  0  0  0  0  0  0  0  0
    0.8660    0.8100    0.0000 H   0  0  0  0  0  0  0  0  0  0  0  0
    3.6720    0.8100    0.0000 H   0  0  0  0  0  0  0  0  0  0  0  0
    0.8469    3.1569    0.0000 H   0  0  0  0  0  0  0  0  0  0  0  0
    0.0000    2.9300    0.0000 H   0  0  0  0  0  0  0  0  0  0  0  0
    0.2269    2.0831    0.0000 H   0  0  0  0  0  0  0  0  0  0  0  0
    4.3110    2.0831    0.0000 H   0  0  0  0  0  0  0  0  0  0  0  0
    4.5380    2.9300    0.0000 H   0  0  0  0  0  0  0  0  0  0  0  0
    3.6910    3.1569    0.0000 H   0  0  0  0  0  0  0  0  0  0  0  0
    2.2690    0.0000    0.0000 H   0  0  0  0  0  0  0  0  0  0  0  0
  2  8  1  0  0  0  0
  2  9  1  0  0  0  0
  3  4  1  0  0  0  0
  3  5  1  0  0  0  0
  3  6  1  0  0  0  0
  3  7  1  0  0  0  0
  4  8  1  0  0  0  0
  4 17  1  0  0  0  0
  4 18  1  0  0  0  0
  5 19  1  0  0  0  0
  5 20  1  0  0  0  0
  5 21  1  0  0  0  0
  6 22  1  0  0  0  0
  6 23  1  0  0  0  0
  6 24  1  0  0  0  0
  7 25  1  0  0  0  0
  7 26  1  0  0  0  0
  7 27  1  0  0  0  0
  8 28  1  0  0  0  0
  8 29  1  0  0  0  0
  9 10  2  0  0  0  0
  9 11  1  0  0  0  0
 10 12  1  0  0  0  0
 10 14  1  0  0  0  0
 11 13  2  0  0  0  0
 11 15  1  0  0  0  0
 12 16  2  0  0  0  0
 12 30  1  0  0  0  0
 13 16  1  0  0  0  0
 13 31  1  0  0  0  0
 14 32  1  0  0  0  0
 14 33  1  0  0  0  0
 14 34  1  0  0  0  0
 15 35  1  0  0  0  0
 15 36  1  0  0  0  0
 15 37  1  0  0  0  0
 16 38  1  0  0  0  0
M  CHG  2   1  -1   3   1
M  END
> <PUBCHEM_COMPOUND_CID>
12633

> <PUBCHEM_COMPOUND_CANONICALIZED>
1

> <PUBCHEM_CACTVS_COMPLEXITY>
176

> <PUBCHEM_CACTVS_HBOND_ACCEPTOR>
2

> <PUBCHEM_CACTVS_HBOND_DONOR>
0

> <PUBCHEM_CACTVS_ROTATABLE_BOND>
4

> <PUBCHEM_CACTVS_SUBSKEYS>
AAADceByIAAAEAAAAAAAAAAAAAAAAAAAAAAwAAAAAAAAAAABAAAAHgAAAAAADAThmAYyBoMABACAAiBCAAACCAAgIAAIiAAMCIgOJiKEMRqDOCCkwBEYqAeAwGAOAAACAAAIAAAAAAQAABAAAAAAAAAAAA==

> <PUBCHEM_IUPAC_OPENEYE_NAME>
2-(2,6-dimethylphenoxy)ethyl-trimethyl-ammonium bromide

> <PUBCHEM_IUPAC_CAS_NAME>
2-(2,6-dimethylphenoxy)ethyl-trimethylammonium bromide

> <PUBCHEM_IUPAC_NAME>
2-(2,6-dimethylphenoxy)ethyl-trimethylazanium bromide

> <PUBCHEM_IUPAC_SYSTEMATIC_NAME>
2-(2,6-dimethylphenoxy)ethyl-trimethyl-azanium bromide

> <PUBCHEM_IUPAC_TRADITIONAL_NAME>
2-(2,6-dimethylphenoxy)ethyl-trimethyl-ammonium bromide

> <PUBCHEM_IUPAC_INCHI>
InChI=1S/C13H22NO.BrH/c1-11-7-6-8-12(2)13(11)15-10-9-14(3,4)5;/h6-8H,9-10H2,1-5H3;1H/q+1;/p-1

> <PUBCHEM_IUPAC_INCHIKEY>
ZFHWDLYDBITDJK-UHFFFAOYSA-M

> <PUBCHEM_EXACT_MASS>
287.088476

> <PUBCHEM_MOLECULAR_FORMULA>
C13H22BrNO

> <PUBCHEM_MOLECULAR_WEIGHT>
288.22388

> <PUBCHEM_OPENEYE_CAN_SMILES>
CC1=C(C(=CC=C1)C)OCC[N+](C)(C)C.[Br-]

> <PUBCHEM_OPENEYE_ISO_SMILES>
CC1=C(C(=CC=C1)C)OCC[N+](C)(C)C.[Br-]

> <PUBCHEM_CACTVS_TPSA>
9.2

> <PUBCHEM_MONOISOTOPIC_WEIGHT>
287.088476

> <PUBCHEM_TOTAL_CHARGE>
0

> <PUBCHEM_HEAVY_ATOM_COUNT>
16

> <PUBCHEM_ATOM_DEF_STEREO_COUNT>
0

> <PUBCHEM_ATOM_UDEF_STEREO_COUNT>
0

> <PUBCHEM_BOND_DEF_STEREO_COUNT>
0

> <PUBCHEM_BOND_UDEF_STEREO_COUNT>
0

> <PUBCHEM_ISOTOPIC_ATOM_COUNT>
0

> <PUBCHEM_COMPONENT_COUNT>
2

> <PUBCHEM_CACTVS_TAUTO_COUNT>
1

> <PUBCHEM_COORDINATE_TYPE>
1
5
255

> <PUBCHEM_BONDANNOTATIONS>
10  12  8
11  13  8
12  16  8
13  16  8
9  10  8
9  11  8

$$$$

