12026
  -OEChem-06261206243D

 28 27  0     1  0  0  0  0  0999 V2000
    2.0389   -0.0619   -0.0653 P   0  0  1  0  0  0  0  0  0  0  0  0
    0.4817   -0.3430   -0.3635 O   0  0  0  0  0  0  0  0  0  0  0  0
    2.8213   -1.2464   -0.8400 O   0  0  0  0  0  0  0  0  0  0  0  0
    2.4908    1.3188   -0.4429 O   0  0  0  0  0  0  0  0  0  0  0  0
   -1.9393   -0.2176    0.0103 C   0  0  0  0  0  0  0  0  0  0  0  0
   -0.5349    0.3676    0.3476 C   0  0  2  0  0  0  0  0  0  0  0  0
   -3.0280    0.4739    0.8520 C   0  0  0  0  0  0  0  0  0  0  0  0
   -2.2482    0.0369   -1.4806 C   0  0  0  0  0  0  0  0  0  0  0  0
   -2.0141   -1.7360    0.2579 C   0  0  0  0  0  0  0  0  0  0  0  0
   -0.3518    1.8576    0.0682 C   0  0  0  0  0  0  0  0  0  0  0  0
    2.2835   -0.4499    1.6562 C   0  0  0  0  0  0  0  0  0  0  0  0
   -0.3694    0.2005    1.4184 H   0  0  0  0  0  0  0  0  0  0  0  0
   -2.8030    0.3991    1.9216 H   0  0  0  0  0  0  0  0  0  0  0  0
   -4.0061    0.0062    0.6880 H   0  0  0  0  0  0  0  0  0  0  0  0
   -3.1408    1.5330    0.6019 H   0  0  0  0  0  0  0  0  0  0  0  0
   -2.2939    1.1062   -1.7126 H   0  0  0  0  0  0  0  0  0  0  0  0
   -3.2185   -0.3924   -1.7570 H   0  0  0  0  0  0  0  0  0  0  0  0
   -1.4926   -0.4178   -2.1306 H   0  0  0  0  0  0  0  0  0  0  0  0
   -3.0123   -2.1296    0.0352 H   0  0  0  0  0  0  0  0  0  0  0  0
   -1.2982   -2.2802   -0.3676 H   0  0  0  0  0  0  0  0  0  0  0  0
   -1.7884   -1.9700    1.3043 H   0  0  0  0  0  0  0  0  0  0  0  0
   -1.2036    2.4536    0.4035 H   0  0  0  0  0  0  0  0  0  0  0  0
    0.5132    2.2495    0.6118 H   0  0  0  0  0  0  0  0  0  0  0  0
   -0.1842    2.0525   -0.9962 H   0  0  0  0  0  0  0  0  0  0  0  0
    1.7872    0.2803    2.3009 H   0  0  0  0  0  0  0  0  0  0  0  0
    1.8901   -1.4432    1.8896 H   0  0  0  0  0  0  0  0  0  0  0  0
    3.3503   -0.4395    1.8972 H   0  0  0  0  0  0  0  0  0  0  0  0
    2.8886   -1.2099   -1.8179 H   0  0  0  0  0  0  0  0  0  0  0  0
  1  2  1  0  0  0  0
  1  3  1  0  0  0  0
  1  4  2  0  0  0  0
  1 11  1  0  0  0  0
  2  6  1  0  0  0  0
  3 28  1  0  0  0  0
  5  6  1  0  0  0  0
  5  7  1  0  0  0  0
  5  8  1  0  0  0  0
  5  9  1  0  0  0  0
  6 10  1  0  0  0  0
  6 12  1  0  0  0  0
  7 13  1  0  0  0  0
  7 14  1  0  0  0  0
  7 15  1  0  0  0  0
  8 16  1  0  0  0  0
  8 17  1  0  0  0  0
  8 18  1  0  0  0  0
  9 19  1  0  0  0  0
  9 20  1  0  0  0  0
  9 21  1  0  0  0  0
 10 22  1  0  0  0  0
 10 23  1  0  0  0  0
 10 24  1  0  0  0  0
 11 25  1  0  0  0  0
 11 26  1  0  0  0  0
 11 27  1  0  0  0  0
M  END
> <PUBCHEM_COMPOUND_CID>
12026

> <PUBCHEM_CONFORMER_RMSD>
0.6

> <PUBCHEM_CONFORMER_DIVERSEORDER>
1
4
6
7
8
2
5
3

> <PUBCHEM_MMFF94_PARTIAL_CHARGES>
6
1 1.24
2 -0.55
28 0.5
3 -0.77
4 -0.7
6 0.28

> <PUBCHEM_EFFECTIVE_ROTOR_COUNT>
3

> <PUBCHEM_PHARMACOPHORE_FEATURES>
3
1 3 acceptor
1 4 acceptor
4 5 7 8 9 hydrophobe

> <PUBCHEM_HEAVY_ATOM_COUNT>
11

> <PUBCHEM_ATOM_DEF_STEREO_COUNT>
0

> <PUBCHEM_ATOM_UDEF_STEREO_COUNT>
1

> <PUBCHEM_BOND_DEF_STEREO_COUNT>
0

> <PUBCHEM_BOND_UDEF_STEREO_COUNT>
0

> <PUBCHEM_ISOTOPIC_ATOM_COUNT>
0

> <PUBCHEM_COMPONENT_COUNT>
1

> <PUBCHEM_CACTVS_TAUTO_COUNT>
1

> <PUBCHEM_CONFORMER_ID>
00002EFA00000001

> <PUBCHEM_MMFF94_ENERGY>
9.0564

> <PUBCHEM_FEATURE_SELFOVERLAP>
15.234

> <PUBCHEM_SHAPE_FINGERPRINT>
10857977 72 18187933824166850075
12524768 44 18410013217073136228
12897270 3 18411132524468891244
12932764 1 17632578249056015702
15775835 57 17561362889673245322
16945 1 18271251628480355283
20653085 51 14476404927436747277
20711983 138 18186793725119440251
20711985 344 18195249046936275492
23552423 10 17987796306684397812
29004967 10 18334574599015248601
3248919 1 18334303045391931610
369184 2 17846786199843851441
5084963 1 18041559255871008394
8030462 33 17749109967440404244

> <PUBCHEM_SHAPE_MULTIPOLES>
212.62
4.74
1.52
1.23
0.89
0.13
0.07
-0.71
0.09
-0.04
0.01
0.09
-0.13
-0.08

> <PUBCHEM_SHAPE_SELFOVERLAP>
381.295

> <PUBCHEM_SHAPE_VOLUME>
141.2

> <PUBCHEM_COORDINATE_TYPE>
2
5
10

$$$$

