47205460
  -OEChem-06241222583D

 35 36  0     1  0  0  0  0  0999 V2000
   -1.2600   -0.5630   -2.5347 Br  0  0  0  0  0  0  0  0  0  0  0  0
    1.4866    2.4360   -1.0512 O   0  0  0  0  0  0  0  0  0  0  0  0
    0.1824    1.1276    0.3567 N   0  0  0  0  0  0  0  0  0  0  0  0
    2.5968   -0.5241    0.3980 N   0  0  0  0  0  0  0  0  0  0  0  0
    2.6544   -2.5198   -0.5744 N   0  0  0  0  0  0  0  0  0  0  0  0
   -1.1102    1.5509   -0.1319 C   0  0  1  0  0  0  0  0  0  0  0  0
    2.5945    0.9864    0.5464 C   0  0  2  0  0  0  0  0  0  0  0  0
    1.3825    1.6091   -0.1476 C   0  0  0  0  0  0  0  0  0  0  0  0
   -2.1440    0.4551    0.0134 C   0  0  0  0  0  0  0  0  0  0  0  0
   -1.5317    2.8489    0.5539 C   0  0  0  0  0  0  0  0  0  0  0  0
    3.9024    1.5926    0.0317 C   0  0  0  0  0  0  0  0  0  0  0  0
   -2.3153   -0.5300   -0.9593 C   0  0  0  0  0  0  0  0  0  0  0  0
   -2.9371    0.4475    1.1609 C   0  0  0  0  0  0  0  0  0  0  0  0
    2.5192   -1.4368    1.4120 C   0  0  0  0  0  0  0  0  0  0  0  0
    2.6762   -1.2210   -0.7755 C   0  0  0  0  0  0  0  0  0  0  0  0
   -3.2797   -1.5226   -0.7845 C   0  0  0  0  0  0  0  0  0  0  0  0
   -3.9012   -0.5453    1.3359 C   0  0  0  0  0  0  0  0  0  0  0  0
    2.5567   -2.6611    0.7873 C   0  0  0  0  0  0  0  0  0  0  0  0
   -4.0727   -1.5303    0.3631 C   0  0  0  0  0  0  0  0  0  0  0  0
   -1.0074    1.8209   -1.1887 H   0  0  0  0  0  0  0  0  0  0  0  0
    2.5079    1.1688    1.6250 H   0  0  0  0  0  0  0  0  0  0  0  0
    0.2042    0.4840    1.1428 H   0  0  0  0  0  0  0  0  0  0  0  0
   -2.5464    3.1507    0.2714 H   0  0  0  0  0  0  0  0  0  0  0  0
   -0.8585    3.6637    0.2598 H   0  0  0  0  0  0  0  0  0  0  0  0
   -1.4676    2.7913    1.6463 H   0  0  0  0  0  0  0  0  0  0  0  0
    4.7641    1.1417    0.5355 H   0  0  0  0  0  0  0  0  0  0  0  0
    3.9273    2.6722    0.2146 H   0  0  0  0  0  0  0  0  0  0  0  0
    4.0261    1.4351   -1.0455 H   0  0  0  0  0  0  0  0  0  0  0  0
   -2.8279    1.1755    1.9573 H   0  0  0  0  0  0  0  0  0  0  0  0
    2.4461   -1.1494    2.4514 H   0  0  0  0  0  0  0  0  0  0  0  0
    2.7448   -0.7346   -1.7389 H   0  0  0  0  0  0  0  0  0  0  0  0
   -3.4274   -2.2988   -1.5311 H   0  0  0  0  0  0  0  0  0  0  0  0
   -4.5152   -0.5552    2.2318 H   0  0  0  0  0  0  0  0  0  0  0  0
    2.5179   -3.6370    1.2487 H   0  0  0  0  0  0  0  0  0  0  0  0
   -4.8225   -2.3039    0.5001 H   0  0  0  0  0  0  0  0  0  0  0  0
  1 12  1  0  0  0  0
  2  8  2  0  0  0  0
  3  6  1  0  0  0  0
  3  8  1  0  0  0  0
  3 22  1  0  0  0  0
  4  7  1  0  0  0  0
  4 14  1  0  0  0  0
  4 15  1  0  0  0  0
  5 15  2  0  0  0  0
  5 18  1  0  0  0  0
  6  9  1  0  0  0  0
  6 10  1  0  0  0  0
  6 20  1  0  0  0  0
  7  8  1  0  0  0  0
  7 11  1  0  0  0  0
  7 21  1  0  0  0  0
  9 12  1  0  0  0  0
  9 13  2  0  0  0  0
 10 23  1  0  0  0  0
 10 24  1  0  0  0  0
 10 25  1  0  0  0  0
 11 26  1  0  0  0  0
 11 27  1  0  0  0  0
 11 28  1  0  0  0  0
 12 16  2  0  0  0  0
 13 17  1  0  0  0  0
 13 29  1  0  0  0  0
 14 18  2  0  0  0  0
 14 30  1  0  0  0  0
 15 31  1  0  0  0  0
 16 19  1  0  0  0  0
 16 32  1  0  0  0  0
 17 19  2  0  0  0  0
 17 33  1  0  0  0  0
 18 34  1  0  0  0  0
 19 35  1  0  0  0  0
M  END
> <PUBCHEM_COMPOUND_CID>
47205460

> <PUBCHEM_CONFORMER_RMSD>
0.6

> <PUBCHEM_CONFORMER_DIVERSEORDER>
22
41
142
356
278
333
303
201
297
295
67
66
137
60
366
256
32
20
228
345
349
107
301
1
91
189
58
257
326
359
95
97
17
59
327
33
226
65
126
304
104
328
230
361
51
310
313
294
250
128
110
215
124
2
343
139
320
260
236
290
314
144
346
233
103
174
374
100
138
214
21
23
123
283
39
308
207
19
342
253
286
68
90
191
9
132
163
106
135
136
362
171
306
176
267
240
121
351
265
166
239
172
293
276
193
208
96
165
347
129
180
375
99
108
352
254
354
252
111
249
162
199
24
279
69
371
42
309
258
323
271
146
183
289
232
216
367
27
93
337
319
210
200
187
302
348
198
225
325
38
330
190
298
243
10
373
247
112
274
185
266
188
329
195
365
45
292
364
213
222
157
131
241
209
229
102
336
181
291
339
18
246
322
372
363
369
145
72
197
89
182
235
25
248
324
63
227
161
262
83
270
75
37
355
70
332
143
231
212
268
234
164
71
194
73
219
264
245
284
305
275
156
26
251
244
368
317
130
316
341
154
360
119
98
62
158
87
115
259
338
220
82
12
357
269
277
203
80
340
370
85
175
205
223
287
16
344
282
148
15
122
101
61
173
221
56
315
3
74
331
296
192
159
321
88
28
150
11
86
50
153
281
114
155
49
13
105
307
288
211
217
127
47
237
125
46
14
184
52
92
168
196
335
79
311
53
167
35
299
4
64
5
116
109
43
84
178
78
7
218
48
169
261
272
152
273
140
54
141
113
29
40
358
353
280
36
312
300
44
81
263
238
149
334
206
55
285
151
170
8
31
177
318
255
94
6
350
204
179
147
160
77
134
57
242
186
30
133
76
34
202
224
118
117
120

> <PUBCHEM_MMFF94_PARTIAL_CHARGES>
25
1 -0.11
12 0.11
13 -0.15
14 -0.3
15 0.04
16 -0.15
17 -0.15
18 0.08
19 -0.15
2 -0.57
22 0.37
29 0.15
3 -0.73
30 0.15
31 0.15
32 0.15
33 0.15
34 0.15
35 0.15
4 0.05
5 -0.57
6 0.44
7 0.32
8 0.57
9 -0.14

> <PUBCHEM_EFFECTIVE_ROTOR_COUNT>
5

> <PUBCHEM_PHARMACOPHORE_FEATURES>
6
1 1 hydrophobe
1 2 acceptor
1 3 donor
3 4 5 15 cation
5 4 5 14 15 18 rings
6 9 12 13 16 17 19 rings

> <PUBCHEM_HEAVY_ATOM_COUNT>
19

> <PUBCHEM_ATOM_DEF_STEREO_COUNT>
0

> <PUBCHEM_ATOM_UDEF_STEREO_COUNT>
2

> <PUBCHEM_BOND_DEF_STEREO_COUNT>
0

> <PUBCHEM_BOND_UDEF_STEREO_COUNT>
0

> <PUBCHEM_ISOTOPIC_ATOM_COUNT>
0

> <PUBCHEM_COMPONENT_COUNT>
1

> <PUBCHEM_CACTVS_TAUTO_COUNT>
2

> <PUBCHEM_CONFORMER_ID>
02D04C5400000016

> <PUBCHEM_MMFF94_ENERGY>
37.028

> <PUBCHEM_FEATURE_SELFOVERLAP>
30.446

> <PUBCHEM_SHAPE_MULTIPOLES>
376.14
7.31
2.99
1.6
0.92
0.3
0.78
-2.66
-1.79
-1.78
-0.19
0.79
-0.5
-0.76

> <PUBCHEM_SHAPE_SELFOVERLAP>
773.369

> <PUBCHEM_SHAPE_VOLUME>
221.7

> <PUBCHEM_COORDINATE_TYPE>
2
5
10

$$$$

