17396441
  -OEChem-06241222563D

 36 37  0     0  0  0  0  0  0999 V2000
    5.2402   -0.5735   -0.6015 S   0  0  0  0  0  0  0  0  0  0  0  0
   -0.7383   -2.8506   -0.0457 O   0  0  0  0  0  0  0  0  0  0  0  0
   -2.3275    1.8531    1.0980 O   0  0  0  0  0  0  0  0  0  0  0  0
   -1.1332   -0.6726    0.7328 N   0  0  0  0  0  0  0  0  0  0  0  0
    1.8268   -0.8364    1.2576 C   0  0  0  0  0  0  0  0  0  0  0  0
    2.5283   -0.9636   -0.1025 C   0  0  0  0  0  0  0  0  0  0  0  0
    0.7764   -1.9147    1.5428 C   0  0  0  0  0  0  0  0  0  0  0  0
    3.6597    0.0151   -0.3048 C   0  0  0  0  0  0  0  0  0  0  0  0
   -0.4456   -1.8747    0.6406 C   0  0  0  0  0  0  0  0  0  0  0  0
   -2.3069   -0.2991    0.0367 C   0  0  0  0  0  0  0  0  0  0  0  0
    3.6159    1.3918   -0.2862 C   0  0  0  0  0  0  0  0  0  0  0  0
   -2.8813    0.9569    0.2332 C   0  0  0  0  0  0  0  0  0  0  0  0
   -2.8900   -1.2012   -0.8532 C   0  0  0  0  0  0  0  0  0  0  0  0
    4.8967    1.9710   -0.5186 C   0  0  0  0  0  0  0  0  0  0  0  0
    5.8706    1.0150   -0.7060 C   0  0  0  0  0  0  0  0  0  0  0  0
   -4.0387    1.3106   -0.4606 C   0  0  0  0  0  0  0  0  0  0  0  0
   -4.0475   -0.8473   -1.5467 C   0  0  0  0  0  0  0  0  0  0  0  0
   -4.6217    0.4084   -1.3503 C   0  0  0  0  0  0  0  0  0  0  0  0
   -2.9838    3.1117    1.2342 C   0  0  0  0  0  0  0  0  0  0  0  0
    1.3827    0.1621    1.3449 H   0  0  0  0  0  0  0  0  0  0  0  0
    2.5869   -0.8952    2.0480 H   0  0  0  0  0  0  0  0  0  0  0  0
    1.7951   -0.8042   -0.9036 H   0  0  0  0  0  0  0  0  0  0  0  0
    2.8897   -1.9933   -0.2189 H   0  0  0  0  0  0  0  0  0  0  0  0
    0.4252   -1.8118    2.5770 H   0  0  0  0  0  0  0  0  0  0  0  0
    1.2341   -2.9077    1.4604 H   0  0  0  0  0  0  0  0  0  0  0  0
   -0.7778    0.0313    1.3755 H   0  0  0  0  0  0  0  0  0  0  0  0
    2.7108    1.9610   -0.1161 H   0  0  0  0  0  0  0  0  0  0  0  0
   -2.5110   -2.1902   -1.0645 H   0  0  0  0  0  0  0  0  0  0  0  0
    5.0937    3.0348   -0.5473 H   0  0  0  0  0  0  0  0  0  0  0  0
    6.9222    1.1736   -0.8994 H   0  0  0  0  0  0  0  0  0  0  0  0
   -4.5414    2.2663   -0.3607 H   0  0  0  0  0  0  0  0  0  0  0  0
   -4.5025   -1.5486   -2.2402 H   0  0  0  0  0  0  0  0  0  0  0  0
   -5.5230    0.6827   -1.8911 H   0  0  0  0  0  0  0  0  0  0  0  0
   -2.9758    3.6757    0.2952 H   0  0  0  0  0  0  0  0  0  0  0  0
   -3.9924    2.9994    1.6465 H   0  0  0  0  0  0  0  0  0  0  0  0
   -2.4089    3.6971    1.9595 H   0  0  0  0  0  0  0  0  0  0  0  0
  1  8  1  0  0  0  0
  1 15  1  0  0  0  0
  2  9  2  0  0  0  0
  3 12  1  0  0  0  0
  3 19  1  0  0  0  0
  4  9  1  0  0  0  0
  4 10  1  0  0  0  0
  4 26  1  0  0  0  0
  5  6  1  0  0  0  0
  5  7  1  0  0  0  0
  5 20  1  0  0  0  0
  5 21  1  0  0  0  0
  6  8  1  0  0  0  0
  6 22  1  0  0  0  0
  6 23  1  0  0  0  0
  7  9  1  0  0  0  0
  7 24  1  0  0  0  0
  7 25  1  0  0  0  0
  8 11  2  0  0  0  0
 10 12  1  0  0  0  0
 10 13  2  0  0  0  0
 11 14  1  0  0  0  0
 11 27  1  0  0  0  0
 12 16  2  0  0  0  0
 13 17  1  0  0  0  0
 13 28  1  0  0  0  0
 14 15  2  0  0  0  0
 14 29  1  0  0  0  0
 15 30  1  0  0  0  0
 16 18  1  0  0  0  0
 16 31  1  0  0  0  0
 17 18  2  0  0  0  0
 17 32  1  0  0  0  0
 18 33  1  0  0  0  0
 19 34  1  0  0  0  0
 19 35  1  0  0  0  0
 19 36  1  0  0  0  0
M  END
> <PUBCHEM_COMPOUND_CID>
17396441

> <PUBCHEM_CONFORMER_RMSD>
0.8

> <PUBCHEM_CONFORMER_DIVERSEORDER>
6
222
163
17
190
167
54
169
19
98
51
219
90
199
75
170
227
84
149
62
181
187
212
56
226
183
191
39
118
176
184
105
207
192
197
41
153
206
193
217
18
8
92
216
129
148
132
82
182
23
110
49
135
81
42
198
133
134
80
186
86
210
25
14
221
100
73
35
16
103
201
111
140
61
223
125
99
36
58
48
4
224
152
195
20
72
156
126
225
71
107
66
10
123
87
9
185
63
128
200
205
228
138
171
40
165
174
218
83
1
22
220
46
95
144
101
43
158
213
89
60
202
55
109
139
57
38
15
29
168
211
173
94
160
68
44
209
79
162
52
179
172
208
21
27
196
142
117
93
28
194
50
161
157
97
5
11
214
130
131
166
91
215
77
70
24
59
31
151
141
121
189
53
76
85
12
136
102
3
178
114
124
33
88
147
32
96
177
65
78
7
143
69
34
120
127
146
106
145
188
104
122
26
64
150
137
30
47
203
37
113
164
116
180
115
204
13
2
175
67
45
74
108
155
154
159
112
119

> <PUBCHEM_MMFF94_PARTIAL_CHARGES>
26
1 -0.08
10 0.12
11 -0.15
12 0.08
13 -0.15
14 -0.15
15 -0.11
16 -0.15
17 -0.15
18 -0.15
19 0.28
2 -0.57
26 0.37
27 0.15
28 0.15
29 0.15
3 -0.36
30 0.15
31 0.15
32 0.15
33 0.15
4 -0.55
6 0.18
7 0.06
8 -0.14
9 0.57

> <PUBCHEM_EFFECTIVE_ROTOR_COUNT>
7

> <PUBCHEM_PHARMACOPHORE_FEATURES>
5
1 2 acceptor
1 3 acceptor
1 4 donor
5 1 8 11 14 15 rings
6 10 12 13 16 17 18 rings

> <PUBCHEM_HEAVY_ATOM_COUNT>
19

> <PUBCHEM_ATOM_DEF_STEREO_COUNT>
0

> <PUBCHEM_ATOM_UDEF_STEREO_COUNT>
0

> <PUBCHEM_BOND_DEF_STEREO_COUNT>
0

> <PUBCHEM_BOND_UDEF_STEREO_COUNT>
0

> <PUBCHEM_ISOTOPIC_ATOM_COUNT>
0

> <PUBCHEM_COMPONENT_COUNT>
1

> <PUBCHEM_CACTVS_TAUTO_COUNT>
2

> <PUBCHEM_CONFORMER_ID>
010972D900000006

> <PUBCHEM_MMFF94_ENERGY>
49.9338

> <PUBCHEM_FEATURE_SELFOVERLAP>
25.371

> <PUBCHEM_SHAPE_FINGERPRINT>
10498660 4 18201725058633147412
10670039 82 18410575119561309800
10871710 139 18337952393721598177
11089746 13 18343308046535994694
13103583 49 11312056573434699582
13544653 18 7060375920918349706
14178342 30 11599716324774456057
1420 369 7060381439956274974
14251764 38 18261104218846437964
14251764 75 17828752186288502873
14739800 52 18264511515640556616
14848178 96 18130786720905190444
14931854 50 18409168809513356156
14950920 106 12175625045062979374
15003188 33 18114175376510585158
15183329 4 18271804662346359414
15420108 30 16676955620226707672
16994733 274 16414660258163237503
1813 80 6194564437242892514
193927 3 5328463734786125886
20300324 65 18187365419663056389
20693207 138 16009328521102136023
20871999 31 17822009813144437058
21095088 737 18411137991719938961
212916 134 12678913414729120391
21713013 43 16009041561483570775
21864079 5 18268142226713739640
221357 26 18113620058139003104
22182937 141 18130212766786471722
235170 7 16877936131729931540
23557571 272 18267578005608708718
23559900 14 18115598023786549296
2838139 119 18272093798974741260
312425 83 17823685542307074796
3472631 163 18264207083699859309
351380 3 6916265143800163788
4028521 119 18271526407903783814
474 4 18201442540079747227
56633871 153 9655586218181211953
6328613 192 18059845118775287588

> <PUBCHEM_SHAPE_MULTIPOLES>
378.14
12.47
2.75
1.35
11.27
0.65
0.11
6.26
-5.56
-1.11
0.98
-0.97
-0.06
-1.67

> <PUBCHEM_SHAPE_SELFOVERLAP>
774.689

> <PUBCHEM_SHAPE_VOLUME>
218.7

> <PUBCHEM_COORDINATE_TYPE>
2
5
10

$$$$

