51091021
  -OEChem-06241223013D

 39 41  0     0  0  0  0  0  0999 V2000
   -2.1920   -1.9416    0.7127 S   0  0  0  0  0  0  0  0  0  0  0  0
    4.1549    0.5894    0.9511 O   0  0  0  0  0  0  0  0  0  0  0  0
   -2.9835    0.6699    0.1624 N   0  0  0  0  0  0  0  0  0  0  0  0
   -1.7903    0.4971    1.9883 N   0  0  0  0  0  0  0  0  0  0  0  0
   -2.1260    1.8246    1.8113 N   0  0  0  0  0  0  0  0  0  0  0  0
    2.7716    1.9121   -0.3908 N   0  0  0  0  0  0  0  0  0  0  0  0
   -3.7067    0.3637   -1.0508 C   0  0  0  0  0  0  0  0  0  0  0  0
   -3.0543   -0.3810   -2.1783 C   0  0  0  0  0  0  0  0  0  0  0  0
   -3.4008    1.0703   -2.3388 C   0  0  0  0  0  0  0  0  0  0  0  0
   -2.3134   -0.1787    0.9904 C   0  0  0  0  0  0  0  0  0  0  0  0
   -2.8409    1.9077    0.7122 C   0  0  0  0  0  0  0  0  0  0  0  0
   -0.5788   -2.3115    1.4667 C   0  0  0  0  0  0  0  0  0  0  0  0
    0.5630   -1.9677    0.5709 C   0  0  0  0  0  0  0  0  0  0  0  0
    1.3133   -0.8158    0.8075 C   0  0  0  0  0  0  0  0  0  0  0  0
    2.3818   -0.4950   -0.0299 C   0  0  0  0  0  0  0  0  0  0  0  0
    0.8813   -2.7990   -0.5031 C   0  0  0  0  0  0  0  0  0  0  0  0
    2.7001   -1.3263   -1.1039 C   0  0  0  0  0  0  0  0  0  0  0  0
    1.9500   -2.4784   -1.3404 C   0  0  0  0  0  0  0  0  0  0  0  0
    3.1645    0.7056    0.2171 C   0  0  0  0  0  0  0  0  0  0  0  0
    3.5125    3.1517   -0.2039 C   0  0  0  0  0  0  0  0  0  0  0  0
    1.5936    2.0027   -1.2509 C   0  0  0  0  0  0  0  0  0  0  0  0
   -4.7522    0.1359   -0.8638 H   0  0  0  0  0  0  0  0  0  0  0  0
   -4.2321    1.3217   -2.9862 H   0  0  0  0  0  0  0  0  0  0  0  0
   -2.5818    1.7786   -2.3685 H   0  0  0  0  0  0  0  0  0  0  0  0
   -1.9999   -0.6239   -2.1271 H   0  0  0  0  0  0  0  0  0  0  0  0
   -3.6528   -1.1050   -2.7177 H   0  0  0  0  0  0  0  0  0  0  0  0
   -3.2643    2.8069    0.2876 H   0  0  0  0  0  0  0  0  0  0  0  0
   -0.5521   -3.3860    1.6845 H   0  0  0  0  0  0  0  0  0  0  0  0
   -0.4929   -1.8142    2.4395 H   0  0  0  0  0  0  0  0  0  0  0  0
    1.0698   -0.1658    1.6448 H   0  0  0  0  0  0  0  0  0  0  0  0
    0.3069   -3.7008   -0.6979 H   0  0  0  0  0  0  0  0  0  0  0  0
    3.5304   -1.0860   -1.7629 H   0  0  0  0  0  0  0  0  0  0  0  0
    2.1980   -3.1258   -2.1764 H   0  0  0  0  0  0  0  0  0  0  0  0
    1.9146    2.3437   -2.2400 H   0  0  0  0  0  0  0  0  0  0  0  0
    1.0533    1.0638   -1.3684 H   0  0  0  0  0  0  0  0  0  0  0  0
    0.9098    2.7417   -0.8217 H   0  0  0  0  0  0  0  0  0  0  0  0
    2.8498    3.8956    0.2474 H   0  0  0  0  0  0  0  0  0  0  0  0
    4.3756    2.9985    0.4488 H   0  0  0  0  0  0  0  0  0  0  0  0
    3.8589    3.5075   -1.1783 H   0  0  0  0  0  0  0  0  0  0  0  0
  1 10  1  0  0  0  0
  1 12  1  0  0  0  0
  2 19  2  0  0  0  0
  3  7  1  0  0  0  0
  3 10  1  0  0  0  0
  3 11  1  0  0  0  0
  4  5  1  0  0  0  0
  4 10  2  0  0  0  0
  5 11  2  0  0  0  0
  6 19  1  0  0  0  0
  6 20  1  0  0  0  0
  6 21  1  0  0  0  0
  7  8  1  0  0  0  0
  7  9  1  0  0  0  0
  7 22  1  0  0  0  0
  8  9  1  0  0  0  0
  8 25  1  0  0  0  0
  8 26  1  0  0  0  0
  9 23  1  0  0  0  0
  9 24  1  0  0  0  0
 11 27  1  0  0  0  0
 12 13  1  0  0  0  0
 12 28  1  0  0  0  0
 12 29  1  0  0  0  0
 13 14  2  0  0  0  0
 13 16  1  0  0  0  0
 14 15  1  0  0  0  0
 14 30  1  0  0  0  0
 15 17  2  0  0  0  0
 15 19  1  0  0  0  0
 16 18  2  0  0  0  0
 16 31  1  0  0  0  0
 17 18  1  0  0  0  0
 17 32  1  0  0  0  0
 18 33  1  0  0  0  0
 20 37  1  0  0  0  0
 20 38  1  0  0  0  0
 20 39  1  0  0  0  0
 21 34  1  0  0  0  0
 21 35  1  0  0  0  0
 21 36  1  0  0  0  0
M  END
> <PUBCHEM_COMPOUND_CID>
51091021

> <PUBCHEM_CONFORMER_RMSD>
1

> <PUBCHEM_CONFORMER_DIVERSEORDER>
1
72
103
41
67
99
36
23
62
22
73
78
90
20
15
97
38
113
25
105
74
82
100
93
12
49
75
68
80
112
37
50
28
33
46
58
34
70
89
8
116
3
5
104
18
71
96
60
107
117
43
84
19
85
32
14
101
30
114
4
95
53
2
120
109
47
40
83
42
119
63
11
21
17
65
45
64
29
92
44
66
77
102
59
48
108
106
55
87
57
81
94
13
7
61
91
52
110
86
56
6
27
69
35
26
98
9
24
115
118
76
10
16
88
79
51
54
111
31
39

> <PUBCHEM_MMFF94_PARTIAL_CHARGES>
31
1 -0.29
10 0.24
11 0.04
12 0.37
13 -0.14
14 -0.15
15 0.09
16 -0.15
17 -0.15
18 -0.15
19 0.54
2 -0.57
20 0.3
21 0.3
22 0.1
23 0.1
24 0.1
25 0.1
26 0.1
27 0.15
3 0.29
30 0.15
31 0.15
32 0.15
33 0.15
4 -0.34
5 -0.34
6 -0.66
7 -0.09
8 -0.2
9 -0.2

> <PUBCHEM_EFFECTIVE_ROTOR_COUNT>
6.6

> <PUBCHEM_PHARMACOPHORE_FEATURES>
5
1 2 acceptor
3 3 4 10 cation
3 3 5 11 cation
5 3 4 5 10 11 rings
6 13 14 15 16 17 18 rings

> <PUBCHEM_HEAVY_ATOM_COUNT>
21

> <PUBCHEM_ATOM_DEF_STEREO_COUNT>
0

> <PUBCHEM_ATOM_UDEF_STEREO_COUNT>
0

> <PUBCHEM_BOND_DEF_STEREO_COUNT>
0

> <PUBCHEM_BOND_UDEF_STEREO_COUNT>
0

> <PUBCHEM_ISOTOPIC_ATOM_COUNT>
0

> <PUBCHEM_COMPONENT_COUNT>
1

> <PUBCHEM_CACTVS_TAUTO_COUNT>
1

> <PUBCHEM_CONFORMER_ID>
030B964D00000001

> <PUBCHEM_MMFF94_ENERGY>
51.0541

> <PUBCHEM_FEATURE_SELFOVERLAP>
27.874

> <PUBCHEM_SHAPE_FINGERPRINT>
10165383 225 17197374075198654531
11221954 11 18269258098156691682
11370993 70 18341620273858291501
11725454 13 16557652848576726391
11759241 127 18265605477643428351
12077114 3 17489593341822190218
12156800 1 16109586196179890997
12539773 59 17677596713701019489
12596599 1 18188777282871863159
128993 33 17915148373865846205
13134695 92 18053663856944508486
13583140 156 17632296765700569274
14250199 8 18262511627884104819
14251764 3 17632024129750443069
14957384 54 17916601851244898568
17349148 13 18261966227309727026
17980427 23 18116168820919020594
18219364 16 18059849597444618065
18981168 100 18268409317823993703
192875 21 18265351636242979808
21095088 737 17900547778546141064
21486144 27 18270101531028596947
22749437 52 18410853231209245672
23419403 2 15362784704313129154
238 59 18261965054408861557
35225 105 17546986560354929869
474 4 18410011056678167044
81228 2 17485609751371996619
9862522 239 17980763740646480020

> <PUBCHEM_SHAPE_MULTIPOLES>
410.23
7.09
3.4
1.99
0.16
0.08
-0.45
4.24
-1.53
2.19
-0.1
-1.92
0.15
0.55

> <PUBCHEM_SHAPE_SELFOVERLAP>
849.926

> <PUBCHEM_SHAPE_VOLUME>
236.2

> <PUBCHEM_COORDINATE_TYPE>
2
5
10

$$$$

