12893
  -OEChem-06261207303D

 30 31  0     0  0  0  0  0  0999 V2000
   -0.5568   -0.7423   -0.5517 O   0  0  0  0  0  0  0  0  0  0  0  0
    1.0982   -0.6182    1.2146 O   0  0  0  0  0  0  0  0  0  0  0  0
    1.4747   -3.3356    1.0028 O   0  0  0  0  0  0  0  0  0  0  0  0
    0.8800   -3.0361   -1.1690 O   0  0  0  0  0  0  0  0  0  0  0  0
    0.1511   -1.4089    0.4958 C   0  0  0  0  0  0  0  0  0  0  0  0
   -1.7495   -0.1320   -0.3132 C   0  0  0  0  0  0  0  0  0  0  0  0
    1.7062    0.4214    0.5633 C   0  0  0  0  0  0  0  0  0  0  0  0
   -2.0181    0.4072    0.9451 C   0  0  0  0  0  0  0  0  0  0  0  0
    2.4697    0.1715   -0.5720 C   0  0  0  0  0  0  0  0  0  0  0  0
   -2.7038   -0.0460   -1.3269 C   0  0  0  0  0  0  0  0  0  0  0  0
    1.5551    1.7180    1.0434 C   0  0  0  0  0  0  0  0  0  0  0  0
    0.8490   -2.6693   -0.0018 C   0  0  0  0  0  0  0  0  0  0  0  0
   -3.2411    1.0321    1.1895 C   0  0  0  0  0  0  0  0  0  0  0  0
    3.0898    1.2307   -1.2349 C   0  0  0  0  0  0  0  0  0  0  0  0
   -3.9268    0.5790   -1.0823 C   0  0  0  0  0  0  0  0  0  0  0  0
    2.1751    2.7771    0.3803 C   0  0  0  0  0  0  0  0  0  0  0  0
   -4.1952    1.1181    0.1759 C   0  0  0  0  0  0  0  0  0  0  0  0
    2.9424    2.5333   -0.7588 C   0  0  0  0  0  0  0  0  0  0  0  0
   -0.5759   -1.7895    1.2268 H   0  0  0  0  0  0  0  0  0  0  0  0
   -1.2982    0.3718    1.7561 H   0  0  0  0  0  0  0  0  0  0  0  0
    2.6126   -0.8349   -0.9508 H   0  0  0  0  0  0  0  0  0  0  0  0
   -2.5003   -0.4642   -2.3089 H   0  0  0  0  0  0  0  0  0  0  0  0
    0.9597    1.9127    1.9308 H   0  0  0  0  0  0  0  0  0  0  0  0
   -3.4495    1.4546    2.1681 H   0  0  0  0  0  0  0  0  0  0  0  0
    3.6905    1.0407   -2.1196 H   0  0  0  0  0  0  0  0  0  0  0  0
   -4.6698    0.6461   -1.8716 H   0  0  0  0  0  0  0  0  0  0  0  0
    2.0606    3.7915    0.7511 H   0  0  0  0  0  0  0  0  0  0  0  0
   -5.1470    1.6053    0.3659 H   0  0  0  0  0  0  0  0  0  0  0  0
    3.4259    3.3579   -1.2745 H   0  0  0  0  0  0  0  0  0  0  0  0
    1.9370   -4.1372    0.6772 H   0  0  0  0  0  0  0  0  0  0  0  0
  1  5  1  0  0  0  0
  1  6  1  0  0  0  0
  2  5  1  0  0  0  0
  2  7  1  0  0  0  0
  3 12  1  0  0  0  0
  3 30  1  0  0  0  0
  4 12  2  0  0  0  0
  5 12  1  0  0  0  0
  5 19  1  0  0  0  0
  6  8  2  0  0  0  0
  6 10  1  0  0  0  0
  7  9  2  0  0  0  0
  7 11  1  0  0  0  0
  8 13  1  0  0  0  0
  8 20  1  0  0  0  0
  9 14  1  0  0  0  0
  9 21  1  0  0  0  0
 10 15  2  0  0  0  0
 10 22  1  0  0  0  0
 11 16  2  0  0  0  0
 11 23  1  0  0  0  0
 13 17  2  0  0  0  0
 13 24  1  0  0  0  0
 14 18  2  0  0  0  0
 14 25  1  0  0  0  0
 15 17  1  0  0  0  0
 15 26  1  0  0  0  0
 16 18  1  0  0  0  0
 16 27  1  0  0  0  0
 17 28  1  0  0  0  0
 18 29  1  0  0  0  0
M  END
> <PUBCHEM_COMPOUND_CID>
12893

> <PUBCHEM_CONFORMER_RMSD>
0.6

> <PUBCHEM_CONFORMER_DIVERSEORDER>
1
75
42
114
148
17
105
106
16
116
133
158
150
62
85
82
46
73
57
138
40
50
151
155
137
58
103
144
130
112
118
30
7
93
156
53
134
140
125
139
79
99
11
24
35
126
78
127
145
47
89
88
92
70
3
124
67
119
2
97
77
111
109
87
28
60
147
5
110
141
120
4
115
20
81
44
21
84
142
94
100
38
74
136
14
104
131
132
54
76
101
157
107
102
86
83
71
80
96
68
33
56
19
149
43
12
65
128
69
64
117
91
51
122
49
55
13
161
108
143
66
123
90
95
32
29
159
15
31
135
59
63
6
8
45
153
113
37
41
98
39
72
25
22
61
9
26
27
36
146
18
48
154
129
52
34
121
160
23
10
152
162

> <PUBCHEM_MMFF94_PARTIAL_CHARGES>
29
1 -0.36
10 -0.15
11 -0.15
12 0.66
13 -0.15
14 -0.15
15 -0.15
16 -0.15
17 -0.15
18 -0.15
2 -0.36
20 0.15
21 0.15
22 0.15
23 0.15
24 0.15
25 0.15
26 0.15
27 0.15
28 0.15
29 0.15
3 -0.65
30 0.5
4 -0.57
5 0.62
6 0.08
7 0.08
8 -0.15
9 -0.15

> <PUBCHEM_EFFECTIVE_ROTOR_COUNT>
5

> <PUBCHEM_PHARMACOPHORE_FEATURES>
7
1 1 acceptor
1 2 acceptor
1 3 acceptor
1 4 acceptor
3 3 4 12 anion
6 6 8 10 13 15 17 rings
6 7 9 11 14 16 18 rings

> <PUBCHEM_HEAVY_ATOM_COUNT>
18

> <PUBCHEM_ATOM_DEF_STEREO_COUNT>
0

> <PUBCHEM_ATOM_UDEF_STEREO_COUNT>
0

> <PUBCHEM_BOND_DEF_STEREO_COUNT>
0

> <PUBCHEM_BOND_UDEF_STEREO_COUNT>
0

> <PUBCHEM_ISOTOPIC_ATOM_COUNT>
0

> <PUBCHEM_COMPONENT_COUNT>
1

> <PUBCHEM_CACTVS_TAUTO_COUNT>
1

> <PUBCHEM_CONFORMER_ID>
0000325D00000001

> <PUBCHEM_MMFF94_ENERGY>
62.5674

> <PUBCHEM_FEATURE_SELFOVERLAP>
35.617

> <PUBCHEM_SHAPE_FINGERPRINT>
10498660 4 18270124504851361637
11101153 10 17692802002416663878
11221954 11 17415588611766415749
12173636 292 18193269698483684477
12730499 353 18341602716696227769
12788726 201 17546457678187705014
13009979 54 17461155732243452819
13134695 92 17983876732668398510
13681431 1 18123187076300286174
15309172 13 18271524182947454117
17134986 127 18340208492411976828
1741750 31 18194683661957852608
1813 80 17757547834526642270
18186145 218 18336255752400015932
18219364 16 18270106929628609689
19786989 88 18272654554078392361
20510252 161 17905327325627201355
20559304 39 18042697271933366875
20671657 1 18335989743610866703
21041028 32 17907573988469979640
21524375 3 18341056203002581074
21639500 275 18339935886758834829
2255824 54 18265898136709612047
23419403 2 17265475553364184762
23557571 272 17256527414373548620
23558518 356 18123478180878725550
23559900 14 15482394273940020387
23598291 2 17679858490849722923
238 59 18408321073120740223
25 1 18336814334524398644
2637199 183 18335125475868588805
3060560 45 18410016528651300708
350125 39 18269832013103974186
458136 41 18342163467225642091
474 4 18411138026332819573
633830 44 18188478112709364549
6442390 28 18125141763272119235
7364860 26 18337113483017238727
81228 2 17475513872116814018
90316 7 9798600808065154989
9981440 41 17101173095827197384

> <PUBCHEM_SHAPE_MULTIPOLES>
346.95
6.31
3.3
1.34
4.98
2.66
-0.08
-4.86
-1.36
-3.03
0.22
0.19
-0.05
-0.53

> <PUBCHEM_SHAPE_SELFOVERLAP>
739.675

> <PUBCHEM_SHAPE_VOLUME>
191.2

> <PUBCHEM_COORDINATE_TYPE>
2
5
10

$$$$

