6798
  -OEChem-06261201303D

 35 35  0     0  0  0  0  0  0999 V2000
    0.0107    2.8240   -1.1912 I   0  0  0  0  0  0  0  0  0  0  0  0
    3.0479   -2.3443   -0.0351 I   0  0  0  0  0  0  0  0  0  0  0  0
   -3.0595   -2.3250   -0.0378 I   0  0  0  0  0  0  0  0  0  0  0  0
   -2.8873    1.5239    1.4452 O   0  0  0  0  0  0  0  0  0  0  0  0
    2.8989    1.5041    1.4489 O   0  0  0  0  0  0  0  0  0  0  0  0
   -0.0095   -3.6303    1.5423 O   0  0  0  0  0  0  0  0  0  0  0  0
   -0.0117   -4.3153   -0.6250 O   0  0  0  0  0  0  0  0  0  0  0  0
   -2.4182    0.7561   -0.7278 N   0  0  0  0  0  0  0  0  0  0  0  0
    2.4266    0.7413   -0.7252 N   0  0  0  0  0  0  0  0  0  0  0  0
   -1.2060    0.0678   -0.5738 C   0  0  0  0  0  0  0  0  0  0  0  0
    1.2101    0.0604   -0.5727 C   0  0  0  0  0  0  0  0  0  0  0  0
    0.0042    0.7448   -0.7256 C   0  0  0  0  0  0  0  0  0  0  0  0
   -0.0047   -1.9776   -0.1161 C   0  0  0  0  0  0  0  0  0  0  0  0
    1.2056   -1.3008   -0.2680 C   0  0  0  0  0  0  0  0  0  0  0  0
   -1.2104   -1.2933   -0.2690 C   0  0  0  0  0  0  0  0  0  0  0  0
   -3.1623    1.4202    0.2544 C   0  0  0  0  0  0  0  0  0  0  0  0
    3.1740    1.4001    0.2581 C   0  0  0  0  0  0  0  0  0  0  0  0
   -4.4199    2.0368   -0.3400 C   0  0  0  0  0  0  0  0  0  0  0  0
    4.4358    2.0092   -0.3347 C   0  0  0  0  0  0  0  0  0  0  0  0
   -0.0094   -3.4061    0.2033 C   0  0  0  0  0  0  0  0  0  0  0  0
   -5.2762    2.7394    0.6982 C   0  0  0  0  0  0  0  0  0  0  0  0
    5.2612    2.7645    0.6915 C   0  0  0  0  0  0  0  0  0  0  0  0
   -2.7752    0.7715   -1.6806 H   0  0  0  0  0  0  0  0  0  0  0  0
    2.8016    0.7261   -1.6710 H   0  0  0  0  0  0  0  0  0  0  0  0
   -4.1213    2.7521   -1.1147 H   0  0  0  0  0  0  0  0  0  0  0  0
   -5.0035    1.2422   -0.8186 H   0  0  0  0  0  0  0  0  0  0  0  0
    5.0380    1.2030   -0.7687 H   0  0  0  0  0  0  0  0  0  0  0  0
    4.1462    2.6896   -1.1437 H   0  0  0  0  0  0  0  0  0  0  0  0
   -5.5979    2.0424    1.4790 H   0  0  0  0  0  0  0  0  0  0  0  0
   -6.1692    3.1654    0.2307 H   0  0  0  0  0  0  0  0  0  0  0  0
   -4.7222    3.5515    1.1805 H   0  0  0  0  0  0  0  0  0  0  0  0
    4.6849    3.5843    1.1329 H   0  0  0  0  0  0  0  0  0  0  0  0
    6.1558    3.1877    0.2244 H   0  0  0  0  0  0  0  0  0  0  0  0
    5.5797    2.1028    1.5037 H   0  0  0  0  0  0  0  0  0  0  0  0
   -0.0120   -4.5884    1.7529 H   0  0  0  0  0  0  0  0  0  0  0  0
  1 12  1  0  0  0  0
  2 14  1  0  0  0  0
  3 15  1  0  0  0  0
  4 16  2  0  0  0  0
  5 17  2  0  0  0  0
  6 20  1  0  0  0  0
  6 35  1  0  0  0  0
  7 20  2  0  0  0  0
  8 10  1  0  0  0  0
  8 16  1  0  0  0  0
  8 23  1  0  0  0  0
  9 11  1  0  0  0  0
  9 17  1  0  0  0  0
  9 24  1  0  0  0  0
 10 12  2  0  0  0  0
 10 15  1  0  0  0  0
 11 12  1  0  0  0  0
 11 14  2  0  0  0  0
 13 14  1  0  0  0  0
 13 15  2  0  0  0  0
 13 20  1  0  0  0  0
 16 18  1  0  0  0  0
 17 19  1  0  0  0  0
 18 21  1  0  0  0  0
 18 25  1  0  0  0  0
 18 26  1  0  0  0  0
 19 22  1  0  0  0  0
 19 27  1  0  0  0  0
 19 28  1  0  0  0  0
 21 29  1  0  0  0  0
 21 30  1  0  0  0  0
 21 31  1  0  0  0  0
 22 32  1  0  0  0  0
 22 33  1  0  0  0  0
 22 34  1  0  0  0  0
M  END
> <PUBCHEM_COMPOUND_CID>
6798

> <PUBCHEM_CONFORMER_RMSD>
0.8

> <PUBCHEM_CONFORMER_DIVERSEORDER>
1
2
3
4

> <PUBCHEM_MMFF94_PARTIAL_CHARGES>
23
1 -0.08
10 0.12
11 0.12
12 0.08
13 0.09
14 0.08
15 0.08
16 0.57
17 0.57
18 0.06
19 0.06
2 -0.08
20 0.63
23 0.37
24 0.37
3 -0.08
35 0.5
4 -0.57
5 -0.57
6 -0.65
7 -0.57
8 -0.55
9 -0.55

> <PUBCHEM_EFFECTIVE_ROTOR_COUNT>
7

> <PUBCHEM_PHARMACOPHORE_FEATURES>
13
1 1 hydrophobe
1 2 hydrophobe
1 21 hydrophobe
1 22 hydrophobe
1 3 hydrophobe
1 4 acceptor
1 5 acceptor
1 6 acceptor
1 7 acceptor
1 8 donor
1 9 donor
3 6 7 20 anion
6 10 11 12 13 14 15 rings

> <PUBCHEM_HEAVY_ATOM_COUNT>
22

> <PUBCHEM_ATOM_DEF_STEREO_COUNT>
0

> <PUBCHEM_ATOM_UDEF_STEREO_COUNT>
0

> <PUBCHEM_BOND_DEF_STEREO_COUNT>
0

> <PUBCHEM_BOND_UDEF_STEREO_COUNT>
0

> <PUBCHEM_ISOTOPIC_ATOM_COUNT>
0

> <PUBCHEM_COMPONENT_COUNT>
1

> <PUBCHEM_CACTVS_TAUTO_COUNT>
3

> <PUBCHEM_CONFORMER_ID>
00001A8E00000001

> <PUBCHEM_MMFF94_ENERGY>
106.92

> <PUBCHEM_FEATURE_SELFOVERLAP>
66.024

> <PUBCHEM_SHAPE_FINGERPRINT>
10366900 7 17841132665677918201
10493431 412 18410854335042565325
10967382 1 18052818336475631559
1100329 8 18266742561550001818
11646440 116 17906166257806514451
12107183 9 18340782511334903472
12390115 104 18263630806040898940
12553582 1 17908432694246005463
12633257 1 18340504351803653368
12788726 201 17837198282092287133
12930653 34 18410852136367034111
13140716 1 18341613762619318475
13878862 14 17764602297584877661
13955234 65 18123743425363324923
13965767 371 18201726201121309124
14142880 1 18340495460926178893
14178342 30 18412825772565654741
14790565 3 18411132580177482828
14955137 171 18049718826182449202
15042514 8 17836363744346409494
15420108 30 18337402616126385967
15927050 60 18409166597958671830
16945 1 18053094030273413502
17980427 26 18263093260939846966
18785283 64 18270116958413772538
19591789 44 18268425913677618590
20510252 161 18263078812574994803
20739085 24 18128806615763311188
2334 1 18341331115111307054
23402539 116 18048888393991647215
23419403 2 17248027364482580134
23557571 272 18118668938857621756
23558518 356 18342452595649997095
23559900 14 18260828259024888990
23845131 108 18412543219662909851
2748010 2 18342173371104099126
283562 15 18266465304595179215
3091708 16 9191845177337427007
31174 14 17908141328270231245
350125 39 18410849962628603902
474 4 18335988678522306913
5104073 3 18342176678217887043
633830 44 18261115213561945237
7364860 26 18121218950439088087
81228 2 18054225436391593958
84936 182 18188493613209406209
9999458 23 18268425926520380990

> <PUBCHEM_SHAPE_MULTIPOLES>
455.12
8.37
5.32
1.12
0.01
3.58
0.18
-9.57
2.4
0
0.38
0
-0.33
0

> <PUBCHEM_SHAPE_SELFOVERLAP>
875.665

> <PUBCHEM_SHAPE_VOLUME>
285.5

> <PUBCHEM_COORDINATE_TYPE>
2
5
10

$$$$

