7831
  -OEChem-06261202222D

 79 79  0     1  0  0  0  0  0999 V2000
   17.2224    0.6160    0.0000 O   0  0  0  0  0  0  0  0  0  0  0  0
    8.9282   -0.7500    0.0000 O   0  0  0  0  0  0  0  0  0  0  0  0
    9.7942    0.7500    0.0000 O   0  0  0  0  0  0  0  0  0  0  0  0
   16.7224   -0.2500    0.0000 C   0  0  3  0  0  0  0  0  0  0  0  0
   17.7224   -0.2500    0.0000 C   0  0  3  0  0  0  0  0  0  0  0  0
   15.8564   -0.7500    0.0000 C   0  0  0  0  0  0  0  0  0  0  0  0
   18.5885   -0.7500    0.0000 C   0  0  0  0  0  0  0  0  0  0  0  0
   14.9904   -0.2500    0.0000 C   0  0  0  0  0  0  0  0  0  0  0  0
   19.4545   -0.2500    0.0000 C   0  0  0  0  0  0  0  0  0  0  0  0
   14.1244   -0.7500    0.0000 C   0  0  0  0  0  0  0  0  0  0  0  0
   20.3205   -0.7500    0.0000 C   0  0  0  0  0  0  0  0  0  0  0  0
   13.2583   -0.2500    0.0000 C   0  0  0  0  0  0  0  0  0  0  0  0
   21.1865   -0.2500    0.0000 C   0  0  0  0  0  0  0  0  0  0  0  0
   12.3923   -0.7500    0.0000 C   0  0  0  0  0  0  0  0  0  0  0  0
   22.0526   -0.7500    0.0000 C   0  0  0  0  0  0  0  0  0  0  0  0
   11.5263   -0.2500    0.0000 C   0  0  0  0  0  0  0  0  0  0  0  0
   22.9186   -0.2500    0.0000 C   0  0  0  0  0  0  0  0  0  0  0  0
   23.7846   -0.7500    0.0000 C   0  0  0  0  0  0  0  0  0  0  0  0
   10.6603   -0.7500    0.0000 C   0  0  0  0  0  0  0  0  0  0  0  0
   24.6506   -0.2500    0.0000 C   0  0  0  0  0  0  0  0  0  0  0  0
    9.7942   -0.2500    0.0000 C   0  0  0  0  0  0  0  0  0  0  0  0
    5.4641   -0.7500    0.0000 C   0  0  0  0  0  0  0  0  0  0  0  0
    6.3301   -0.2500    0.0000 C   0  0  0  0  0  0  0  0  0  0  0  0
    7.1962   -0.7500    0.0000 C   0  0  0  0  0  0  0  0  0  0  0  0
    4.5981   -0.2500    0.0000 C   0  0  0  0  0  0  0  0  0  0  0  0
    8.0622   -0.2500    0.0000 C   0  0  0  0  0  0  0  0  0  0  0  0
    3.7320   -0.7500    0.0000 C   0  0  0  0  0  0  0  0  0  0  0  0
    2.8660   -0.2500    0.0000 C   0  0  0  0  0  0  0  0  0  0  0  0
    2.0000   -0.7500    0.0000 C   0  0  0  0  0  0  0  0  0  0  0  0
   16.1214    0.3510    0.0000 H   0  0  0  0  0  0  0  0  0  0  0  0
   18.3235    0.3510    0.0000 H   0  0  0  0  0  0  0  0  0  0  0  0
   15.4579   -1.2250    0.0000 H   0  0  0  0  0  0  0  0  0  0  0  0
   16.2549   -1.2250    0.0000 H   0  0  0  0  0  0  0  0  0  0  0  0
   18.1899   -1.2250    0.0000 H   0  0  0  0  0  0  0  0  0  0  0  0
   18.9870   -1.2250    0.0000 H   0  0  0  0  0  0  0  0  0  0  0  0
   15.3889    0.2249    0.0000 H   0  0  0  0  0  0  0  0  0  0  0  0
   14.5919    0.2249    0.0000 H   0  0  0  0  0  0  0  0  0  0  0  0
   19.8530    0.2249    0.0000 H   0  0  0  0  0  0  0  0  0  0  0  0
   19.0560    0.2249    0.0000 H   0  0  0  0  0  0  0  0  0  0  0  0
   13.7258   -1.2250    0.0000 H   0  0  0  0  0  0  0  0  0  0  0  0
   14.5229   -1.2250    0.0000 H   0  0  0  0  0  0  0  0  0  0  0  0
   19.9220   -1.2250    0.0000 H   0  0  0  0  0  0  0  0  0  0  0  0
   20.7190   -1.2250    0.0000 H   0  0  0  0  0  0  0  0  0  0  0  0
   13.6569    0.2249    0.0000 H   0  0  0  0  0  0  0  0  0  0  0  0
   12.8598    0.2249    0.0000 H   0  0  0  0  0  0  0  0  0  0  0  0
   21.5851    0.2249    0.0000 H   0  0  0  0  0  0  0  0  0  0  0  0
   20.7880    0.2249    0.0000 H   0  0  0  0  0  0  0  0  0  0  0  0
   11.9938   -1.2250    0.0000 H   0  0  0  0  0  0  0  0  0  0  0  0
   12.7908   -1.2250    0.0000 H   0  0  0  0  0  0  0  0  0  0  0  0
   21.6540   -1.2250    0.0000 H   0  0  0  0  0  0  0  0  0  0  0  0
   22.4511   -1.2250    0.0000 H   0  0  0  0  0  0  0  0  0  0  0  0
   11.9248    0.2249    0.0000 H   0  0  0  0  0  0  0  0  0  0  0  0
   11.1278    0.2249    0.0000 H   0  0  0  0  0  0  0  0  0  0  0  0
   23.3171    0.2249    0.0000 H   0  0  0  0  0  0  0  0  0  0  0  0
   22.5201    0.2249    0.0000 H   0  0  0  0  0  0  0  0  0  0  0  0
   23.3861   -1.2250    0.0000 H   0  0  0  0  0  0  0  0  0  0  0  0
   24.1831   -1.2250    0.0000 H   0  0  0  0  0  0  0  0  0  0  0  0
   10.2617   -1.2250    0.0000 H   0  0  0  0  0  0  0  0  0  0  0  0
   11.0588   -1.2250    0.0000 H   0  0  0  0  0  0  0  0  0  0  0  0
   24.9606   -0.7869    0.0000 H   0  0  0  0  0  0  0  0  0  0  0  0
   25.1876    0.0600    0.0000 H   0  0  0  0  0  0  0  0  0  0  0  0
   24.3406    0.2869    0.0000 H   0  0  0  0  0  0  0  0  0  0  0  0
    5.0656   -1.2250    0.0000 H   0  0  0  0  0  0  0  0  0  0  0  0
    5.8626   -1.2250    0.0000 H   0  0  0  0  0  0  0  0  0  0  0  0
    6.7287    0.2249    0.0000 H   0  0  0  0  0  0  0  0  0  0  0  0
    5.9316    0.2249    0.0000 H   0  0  0  0  0  0  0  0  0  0  0  0
    4.9966    0.2249    0.0000 H   0  0  0  0  0  0  0  0  0  0  0  0
    4.1996    0.2249    0.0000 H   0  0  0  0  0  0  0  0  0  0  0  0
    6.7976   -1.2250    0.0000 H   0  0  0  0  0  0  0  0  0  0  0  0
    7.5947   -1.2250    0.0000 H   0  0  0  0  0  0  0  0  0  0  0  0
    8.4607    0.2249    0.0000 H   0  0  0  0  0  0  0  0  0  0  0  0
    7.6636    0.2249    0.0000 H   0  0  0  0  0  0  0  0  0  0  0  0
    3.3335   -1.2250    0.0000 H   0  0  0  0  0  0  0  0  0  0  0  0
    4.1306   -1.2250    0.0000 H   0  0  0  0  0  0  0  0  0  0  0  0
    3.2646    0.2249    0.0000 H   0  0  0  0  0  0  0  0  0  0  0  0
    2.4675    0.2249    0.0000 H   0  0  0  0  0  0  0  0  0  0  0  0
    1.6900   -0.2131    0.0000 H   0  0  0  0  0  0  0  0  0  0  0  0
    1.4631   -1.0600    0.0000 H   0  0  0  0  0  0  0  0  0  0  0  0
    2.3100   -1.2869    0.0000 H   0  0  0  0  0  0  0  0  0  0  0  0
  1  4  1  0  0  0  0
  1  5  1  0  0  0  0
  2 21  1  0  0  0  0
  2 26  1  0  0  0  0
  3 21  2  0  0  0  0
  4  5  1  0  0  0  0
  4  6  1  0  0  0  0
  4 30  1  0  0  0  0
  5  7  1  0  0  0  0
  5 31  1  0  0  0  0
  6  8  1  0  0  0  0
  6 32  1  0  0  0  0
  6 33  1  0  0  0  0
  7  9  1  0  0  0  0
  7 34  1  0  0  0  0
  7 35  1  0  0  0  0
  8 10  1  0  0  0  0
  8 36  1  0  0  0  0
  8 37  1  0  0  0  0
  9 11  1  0  0  0  0
  9 38  1  0  0  0  0
  9 39  1  0  0  0  0
 10 12  1  0  0  0  0
 10 40  1  0  0  0  0
 10 41  1  0  0  0  0
 11 13  1  0  0  0  0
 11 42  1  0  0  0  0
 11 43  1  0  0  0  0
 12 14  1  0  0  0  0
 12 44  1  0  0  0  0
 12 45  1  0  0  0  0
 13 15  1  0  0  0  0
 13 46  1  0  0  0  0
 13 47  1  0  0  0  0
 14 16  1  0  0  0  0
 14 48  1  0  0  0  0
 14 49  1  0  0  0  0
 15 17  1  0  0  0  0
 15 50  1  0  0  0  0
 15 51  1  0  0  0  0
 16 19  1  0  0  0  0
 16 52  1  0  0  0  0
 16 53  1  0  0  0  0
 17 18  1  0  0  0  0
 17 54  1  0  0  0  0
 17 55  1  0  0  0  0
 18 20  1  0  0  0  0
 18 56  1  0  0  0  0
 18 57  1  0  0  0  0
 19 21  1  0  0  0  0
 19 58  1  0  0  0  0
 19 59  1  0  0  0  0
 20 60  1  0  0  0  0
 20 61  1  0  0  0  0
 20 62  1  0  0  0  0
 22 23  1  0  0  0  0
 22 25  1  0  0  0  0
 22 63  1  0  0  0  0
 22 64  1  0  0  0  0
 23 24  1  0  0  0  0
 23 65  1  0  0  0  0
 23 66  1  0  0  0  0
 24 26  1  0  0  0  0
 24 69  1  0  0  0  0
 24 70  1  0  0  0  0
 25 27  1  0  0  0  0
 25 67  1  0  0  0  0
 25 68  1  0  0  0  0
 26 71  1  0  0  0  0
 26 72  1  0  0  0  0
 27 28  1  0  0  0  0
 27 73  1  0  0  0  0
 27 74  1  0  0  0  0
 28 29  1  0  0  0  0
 28 75  1  0  0  0  0
 28 76  1  0  0  0  0
 29 77  1  0  0  0  0
 29 78  1  0  0  0  0
 29 79  1  0  0  0  0
M  END
> <PUBCHEM_COMPOUND_CID>
7831

> <PUBCHEM_COMPOUND_CANONICALIZED>
1

> <PUBCHEM_CACTVS_COMPLEXITY>
369

> <PUBCHEM_CACTVS_HBOND_ACCEPTOR>
3

> <PUBCHEM_CACTVS_HBOND_DONOR>
0

> <PUBCHEM_CACTVS_ROTATABLE_BOND>
23

> <PUBCHEM_CACTVS_SUBSKEYS>
AAADcfB4MAAAAAAAAAAAAAAAEgAAAAAAAAAAAAAAAAAAAAAAAAAAGgAAAAAACBSggAICCAAABAAIAACQCAAAAAAAAAAAAAEAAAAAABIAAAACAAAEAAAAAAGIyKCAAAAAAAAAAAAAAAAAAAAAAAAAAAAAAA==

> <PUBCHEM_IUPAC_OPENEYE_NAME>
octyl 8-(3-octyloxiran-2-yl)octanoate

> <PUBCHEM_IUPAC_CAS_NAME>
8-(3-octyl-2-oxiranyl)octanoic acid octyl ester

> <PUBCHEM_IUPAC_NAME>
octyl 8-(3-octyloxiran-2-yl)octanoate

> <PUBCHEM_IUPAC_SYSTEMATIC_NAME>
octyl 8-(3-octyloxiran-2-yl)octanoate

> <PUBCHEM_IUPAC_TRADITIONAL_NAME>
8-(3-octyloxiran-2-yl)caprylic acid octyl ester

> <PUBCHEM_IUPAC_INCHI>
InChI=1S/C26H50O3/c1-3-5-7-9-12-16-20-24-25(29-24)21-17-13-11-14-18-22-26(27)28-23-19-15-10-8-6-4-2/h24-25H,3-23H2,1-2H3

> <PUBCHEM_IUPAC_INCHIKEY>
FIBARIGPBPUBHC-UHFFFAOYSA-N

> <PUBCHEM_XLOGP3_AA>
9.9

> <PUBCHEM_EXACT_MASS>
410.375995

> <PUBCHEM_MOLECULAR_FORMULA>
C26H50O3

> <PUBCHEM_MOLECULAR_WEIGHT>
410.6734

> <PUBCHEM_OPENEYE_CAN_SMILES>
CCCCCCCCC1C(O1)CCCCCCCC(=O)OCCCCCCCC

> <PUBCHEM_OPENEYE_ISO_SMILES>
CCCCCCCCC1C(O1)CCCCCCCC(=O)OCCCCCCCC

> <PUBCHEM_CACTVS_TPSA>
38.8

> <PUBCHEM_MONOISOTOPIC_WEIGHT>
410.375995

> <PUBCHEM_TOTAL_CHARGE>
0

> <PUBCHEM_HEAVY_ATOM_COUNT>
29

> <PUBCHEM_ATOM_DEF_STEREO_COUNT>
0

> <PUBCHEM_ATOM_UDEF_STEREO_COUNT>
2

> <PUBCHEM_BOND_DEF_STEREO_COUNT>
0

> <PUBCHEM_BOND_UDEF_STEREO_COUNT>
0

> <PUBCHEM_ISOTOPIC_ATOM_COUNT>
0

> <PUBCHEM_COMPONENT_COUNT>
1

> <PUBCHEM_CACTVS_TAUTO_COUNT>
1

> <PUBCHEM_COORDINATE_TYPE>
1
5
255

> <PUBCHEM_BONDANNOTATIONS>
4  30  3
5  31  3

$$$$

