582773
  -OEChem-06241222442D

 35 36  0     1  0  0  0  0  0999 V2000
    7.2566    1.7809    0.0000 O   0  0  0  0  0  0  0  0  0  0  0  0
    5.6103    2.3190    0.0000 O   0  0  0  0  0  0  0  0  0  0  0  0
    4.6783   -2.1421    0.0000 N   0  0  0  0  0  0  0  0  0  0  0  0
    5.9674    0.6241    0.0000 C   0  0  3  0  0  0  0  0  0  0  0  0
    4.9889    0.4179    0.0000 C   0  0  0  0  0  0  0  0  0  0  0  0
    4.6783   -0.5326    0.0000 C   0  0  0  0  0  0  0  0  0  0  0  0
    3.7320   -0.8373    0.0000 C   0  0  0  0  0  0  0  0  0  0  0  0
    6.6353   -0.1202    0.0000 C   0  0  0  0  0  0  0  0  0  0  0  0
    3.7320   -1.8373    0.0000 C   0  0  0  0  0  0  0  0  0  0  0  0
    5.2619   -1.3373    0.0000 C   0  0  0  0  0  0  0  0  0  0  0  0
    6.2781    1.5747    0.0000 C   0  0  0  0  0  0  0  0  0  0  0  0
    2.8660   -0.3373    0.0000 C   0  0  0  0  0  0  0  0  0  0  0  0
    2.8660   -2.3373    0.0000 C   0  0  0  0  0  0  0  0  0  0  0  0
    7.6138    0.0861    0.0000 C   0  0  0  0  0  0  0  0  0  0  0  0
    2.0000   -0.8373    0.0000 C   0  0  0  0  0  0  0  0  0  0  0  0
    2.0000   -1.8373    0.0000 C   0  0  0  0  0  0  0  0  0  0  0  0
    8.2816   -0.6583    0.0000 C   0  0  0  0  0  0  0  0  0  0  0  0
    7.5673    2.7314    0.0000 C   0  0  0  0  0  0  0  0  0  0  0  0
    5.7748    0.0348    0.0000 H   0  0  0  0  0  0  0  0  0  0  0  0
    4.9684    1.0376    0.0000 H   0  0  0  0  0  0  0  0  0  0  0  0
    4.3751    0.5053    0.0000 H   0  0  0  0  0  0  0  0  0  0  0  0
    6.1089   -0.4478    0.0000 H   0  0  0  0  0  0  0  0  0  0  0  0
    6.8665   -0.6954    0.0000 H   0  0  0  0  0  0  0  0  0  0  0  0
    5.8819   -1.3373    0.0000 H   0  0  0  0  0  0  0  0  0  0  0  0
    4.8709   -2.7314    0.0000 H   0  0  0  0  0  0  0  0  0  0  0  0
    2.8660    0.2827    0.0000 H   0  0  0  0  0  0  0  0  0  0  0  0
    2.8660   -2.9573    0.0000 H   0  0  0  0  0  0  0  0  0  0  0  0
    7.8064    0.6754    0.0000 H   0  0  0  0  0  0  0  0  0  0  0  0
    1.4631   -0.5273    0.0000 H   0  0  0  0  0  0  0  0  0  0  0  0
    1.4631   -2.1473    0.0000 H   0  0  0  0  0  0  0  0  0  0  0  0
    8.0890   -1.2476    0.0000 H   0  0  0  0  0  0  0  0  0  0  0  0
    8.8883   -0.5304    0.0000 H   0  0  0  0  0  0  0  0  0  0  0  0
    8.1566    2.5388    0.0000 H   0  0  0  0  0  0  0  0  0  0  0  0
    7.7599    3.3207    0.0000 H   0  0  0  0  0  0  0  0  0  0  0  0
    6.9780    2.9240    0.0000 H   0  0  0  0  0  0  0  0  0  0  0  0
  1 11  1  0  0  0  0
  1 18  1  0  0  0  0
  2 11  2  0  0  0  0
  3  9  1  0  0  0  0
  3 10  1  0  0  0  0
  3 25  1  0  0  0  0
  4  5  1  0  0  0  0
  4  8  1  0  0  0  0
  4 11  1  0  0  0  0
  4 19  1  0  0  0  0
  5  6  1  0  0  0  0
  5 20  1  0  0  0  0
  5 21  1  0  0  0  0
  6  7  1  0  0  0  0
  6 10  2  0  0  0  0
  7  9  1  0  0  0  0
  7 12  2  0  0  0  0
  8 14  1  0  0  0  0
  8 22  1  0  0  0  0
  8 23  1  0  0  0  0
  9 13  2  0  0  0  0
 10 24  1  0  0  0  0
 12 15  1  0  0  0  0
 12 26  1  0  0  0  0
 13 16  1  0  0  0  0
 13 27  1  0  0  0  0
 14 17  2  0  0  0  0
 14 28  1  0  0  0  0
 15 16  2  0  0  0  0
 15 29  1  0  0  0  0
 16 30  1  0  0  0  0
 17 31  1  0  0  0  0
 17 32  1  0  0  0  0
 18 33  1  0  0  0  0
 18 34  1  0  0  0  0
 18 35  1  0  0  0  0
M  END
> <PUBCHEM_COMPOUND_CID>
582773

> <PUBCHEM_COMPOUND_CANONICALIZED>
1

> <PUBCHEM_CACTVS_COMPLEXITY>
303

> <PUBCHEM_CACTVS_HBOND_ACCEPTOR>
2

> <PUBCHEM_CACTVS_HBOND_DONOR>
1

> <PUBCHEM_CACTVS_ROTATABLE_BOND>
6

> <PUBCHEM_CACTVS_SUBSKEYS>
AAADceByMAAAAAAAAAAAAAAAAAAAAWAAAAAwAAAAAAAAAFgB8AAAHgAQAAAADQjBngY+yPLJlACoAzT3TACCgCAxAiAI2aE4ZJgIIPLAkZGEIAhkkADIyAeY2fKOgAAAAAACAAAAAAAAAAQAAAAAAAAAAA==

> <PUBCHEM_IUPAC_OPENEYE_NAME>
methyl 2-(1H-indol-3-ylmethyl)pent-4-enoate

> <PUBCHEM_IUPAC_CAS_NAME>
2-(1H-indol-3-ylmethyl)-4-pentenoic acid methyl ester

> <PUBCHEM_IUPAC_NAME>
methyl 2-(1H-indol-3-ylmethyl)pent-4-enoate

> <PUBCHEM_IUPAC_SYSTEMATIC_NAME>
methyl 2-(1H-indol-3-ylmethyl)pent-4-enoate

> <PUBCHEM_IUPAC_TRADITIONAL_NAME>
2-(1H-indol-3-ylmethyl)pent-4-enoic acid methyl ester

> <PUBCHEM_IUPAC_INCHI>
InChI=1S/C15H17NO2/c1-3-6-11(15(17)18-2)9-12-10-16-14-8-5-4-7-13(12)14/h3-5,7-8,10-11,16H,1,6,9H2,2H3

> <PUBCHEM_IUPAC_INCHIKEY>
FCFHIRNQJNJBTQ-UHFFFAOYSA-N

> <PUBCHEM_XLOGP3>
3.5

> <PUBCHEM_EXACT_MASS>
243.125929

> <PUBCHEM_MOLECULAR_FORMULA>
C15H17NO2

> <PUBCHEM_MOLECULAR_WEIGHT>
243.30098

> <PUBCHEM_OPENEYE_CAN_SMILES>
COC(=O)C(CC=C)CC1=CNC2=CC=CC=C21

> <PUBCHEM_OPENEYE_ISO_SMILES>
COC(=O)C(CC=C)CC1=CNC2=CC=CC=C21

> <PUBCHEM_CACTVS_TPSA>
42.1

> <PUBCHEM_MONOISOTOPIC_WEIGHT>
243.125929

> <PUBCHEM_TOTAL_CHARGE>
0

> <PUBCHEM_HEAVY_ATOM_COUNT>
18

> <PUBCHEM_ATOM_DEF_STEREO_COUNT>
0

> <PUBCHEM_ATOM_UDEF_STEREO_COUNT>
1

> <PUBCHEM_BOND_DEF_STEREO_COUNT>
0

> <PUBCHEM_BOND_UDEF_STEREO_COUNT>
0

> <PUBCHEM_ISOTOPIC_ATOM_COUNT>
0

> <PUBCHEM_COMPONENT_COUNT>
1

> <PUBCHEM_CACTVS_TAUTO_COUNT>
1

> <PUBCHEM_COORDINATE_TYPE>
1
5
255

> <PUBCHEM_BONDANNOTATIONS>
12  15  8
13  16  8
15  16  8
3  10  8
3  9  8
4  8  3
6  10  8
6  7  8
7  12  8
7  9  8
9  13  8

$$$$

