9796
  -OEChem-06261204043D

 15 15  0     0  0  0  0  0  0999 V2000
    0.3109    2.3398    0.1551 F   0  0  0  0  0  0  0  0  0  0  0  0
    0.1300   -2.3974   -0.1325 F   0  0  0  0  0  0  0  0  0  0  0  0
    2.2778    1.0174   -0.5387 O   0  0  0  0  0  0  0  0  0  0  0  0
    2.3885   -1.0141    0.4750 O   0  0  0  0  0  0  0  0  0  0  0  0
    0.2574   -0.0303    0.0117 C   0  0  0  0  0  0  0  0  0  0  0  0
   -0.3935    1.2015    0.0806 C   0  0  0  0  0  0  0  0  0  0  0  0
   -0.4855   -1.2083   -0.0655 C   0  0  0  0  0  0  0  0  0  0  0  0
   -1.7873    1.2553    0.0722 C   0  0  0  0  0  0  0  0  0  0  0  0
   -1.8793   -1.1546   -0.0739 C   0  0  0  0  0  0  0  0  0  0  0  0
   -2.5302    0.0772   -0.0050 C   0  0  0  0  0  0  0  0  0  0  0  0
    1.7111   -0.0865    0.0209 C   0  0  0  0  0  0  0  0  0  0  0  0
   -2.2939    2.2144    0.1257 H   0  0  0  0  0  0  0  0  0  0  0  0
   -2.4575   -2.0719   -0.1341 H   0  0  0  0  0  0  0  0  0  0  0  0
   -3.6155    0.1190   -0.0116 H   0  0  0  0  0  0  0  0  0  0  0  0
    3.2576    0.9698   -0.5280 H   0  0  0  0  0  0  0  0  0  0  0  0
  1  6  1  0  0  0  0
  2  7  1  0  0  0  0
  3 11  1  0  0  0  0
  3 15  1  0  0  0  0
  4 11  2  0  0  0  0
  5  6  2  0  0  0  0
  5  7  1  0  0  0  0
  5 11  1  0  0  0  0
  6  8  1  0  0  0  0
  7  9  2  0  0  0  0
  8 10  2  0  0  0  0
  8 12  1  0  0  0  0
  9 10  1  0  0  0  0
  9 13  1  0  0  0  0
 10 14  1  0  0  0  0
M  END
> <PUBCHEM_COMPOUND_CID>
9796

> <PUBCHEM_CONFORMER_RMSD>
0.4

> <PUBCHEM_CONFORMER_DIVERSEORDER>
1
2
3

> <PUBCHEM_MMFF94_PARTIAL_CHARGES>
15
1 -0.19
10 -0.15
11 0.63
12 0.15
13 0.15
14 0.15
15 0.5
2 -0.19
3 -0.65
4 -0.57
5 0.09
6 0.19
7 0.19
8 -0.15
9 -0.15

> <PUBCHEM_EFFECTIVE_ROTOR_COUNT>
1

> <PUBCHEM_PHARMACOPHORE_FEATURES>
4
1 3 acceptor
1 4 acceptor
3 3 4 11 anion
6 5 6 7 8 9 10 rings

> <PUBCHEM_HEAVY_ATOM_COUNT>
11

> <PUBCHEM_ATOM_DEF_STEREO_COUNT>
0

> <PUBCHEM_ATOM_UDEF_STEREO_COUNT>
0

> <PUBCHEM_BOND_DEF_STEREO_COUNT>
0

> <PUBCHEM_BOND_UDEF_STEREO_COUNT>
0

> <PUBCHEM_ISOTOPIC_ATOM_COUNT>
0

> <PUBCHEM_COMPONENT_COUNT>
1

> <PUBCHEM_CACTVS_TAUTO_COUNT>
1

> <PUBCHEM_CONFORMER_ID>
0000264400000001

> <PUBCHEM_MMFF94_ENERGY>
25.6448

> <PUBCHEM_FEATURE_SELFOVERLAP>
20.355

> <PUBCHEM_SHAPE_FINGERPRINT>
12423570 1 8472664732241741825
16945 1 18122909728749866425
18185500 45 18268149760186460350
193761 8 17689437083631286091
21040471 1 18409449189061753106
23552423 10 18343581871416529726
241688 4 16970545002149321899
2748010 2 18410293613997185933
369184 2 18410579495641977761
5084963 1 18114744957270811074
528886 8 18410015454935681385
66348 1 18194682566408544813

> <PUBCHEM_SHAPE_MULTIPOLES>
200.09
3.06
2.07
0.62
0.42
0.03
0
0.02
0
0.01
0
0.04
-0.01
-0.21

> <PUBCHEM_SHAPE_SELFOVERLAP>
428.584

> <PUBCHEM_SHAPE_VOLUME>
110.6

> <PUBCHEM_COORDINATE_TYPE>
2
5
10

$$$$

