17396263
  -OEChem-06241222553D

 43 45  0     1  0  0  0  0  0999 V2000
    0.7152    1.2723   -0.6641 O   0  0  0  0  0  0  0  0  0  0  0  0
   -2.8601    2.8594   -0.8765 O   0  0  0  0  0  0  0  0  0  0  0  0
    1.9451   -0.5175    0.1906 N   0  0  0  0  0  0  0  0  0  0  0  0
   -1.9032    1.4499    0.7096 N   0  0  0  0  0  0  0  0  0  0  0  0
    2.0202   -1.8361    0.8542 C   0  0  0  0  0  0  0  0  0  0  0  0
    3.5009   -2.2078    0.9894 C   0  0  0  0  0  0  0  0  0  0  0  0
    3.2588   -0.0836   -0.0839 C   0  0  0  0  0  0  0  0  0  0  0  0
    4.1792   -1.0343    0.3621 C   0  0  0  0  0  0  0  0  0  0  0  0
   -0.4957   -0.5251    0.2954 C   0  0  0  0  0  0  0  0  0  0  0  0
   -1.7049    0.2987   -0.1444 C   0  0  1  0  0  0  0  0  0  0  0  0
    0.7800    0.1740   -0.1115 C   0  0  0  0  0  0  0  0  0  0  0  0
    3.6905    1.0841   -0.6960 C   0  0  0  0  0  0  0  0  0  0  0  0
    5.5442   -0.8438    0.2089 C   0  0  0  0  0  0  0  0  0  0  0  0
   -2.9584   -0.5499   -0.1906 C   0  0  0  0  0  0  0  0  0  0  0  0
    5.0656    1.2841   -0.8549 C   0  0  0  0  0  0  0  0  0  0  0  0
    5.9865    0.3273   -0.4057 C   0  0  0  0  0  0  0  0  0  0  0  0
   -3.3052   -1.2185   -1.3647 C   0  0  0  0  0  0  0  0  0  0  0  0
   -3.7663   -0.6632    0.9410 C   0  0  0  0  0  0  0  0  0  0  0  0
   -2.4659    2.6326    0.2644 C   0  0  0  0  0  0  0  0  0  0  0  0
   -4.4596   -2.0003   -1.4075 C   0  0  0  0  0  0  0  0  0  0  0  0
   -4.9206   -1.4451    0.8982 C   0  0  0  0  0  0  0  0  0  0  0  0
   -5.2672   -2.1136   -0.2760 C   0  0  0  0  0  0  0  0  0  0  0  0
   -2.5790    3.6565    1.3620 C   0  0  0  0  0  0  0  0  0  0  0  0
    1.4797   -2.5728    0.2496 H   0  0  0  0  0  0  0  0  0  0  0  0
    1.5323   -1.7741    1.8332 H   0  0  0  0  0  0  0  0  0  0  0  0
    3.7261   -3.1332    0.4504 H   0  0  0  0  0  0  0  0  0  0  0  0
    3.7855   -2.3158    2.0406 H   0  0  0  0  0  0  0  0  0  0  0  0
   -0.4999   -0.6820    1.3802 H   0  0  0  0  0  0  0  0  0  0  0  0
   -0.5118   -1.5053   -0.1959 H   0  0  0  0  0  0  0  0  0  0  0  0
   -1.5530    0.6828   -1.1625 H   0  0  0  0  0  0  0  0  0  0  0  0
    3.0079    1.8444   -1.0551 H   0  0  0  0  0  0  0  0  0  0  0  0
    6.2557   -1.5849    0.5573 H   0  0  0  0  0  0  0  0  0  0  0  0
   -1.6672    1.3612    1.6942 H   0  0  0  0  0  0  0  0  0  0  0  0
    5.4256    2.1918   -1.3320 H   0  0  0  0  0  0  0  0  0  0  0  0
    7.0508    0.5006   -0.5379 H   0  0  0  0  0  0  0  0  0  0  0  0
   -2.6832   -1.1406   -2.2525 H   0  0  0  0  0  0  0  0  0  0  0  0
   -3.5146   -0.1689    1.8751 H   0  0  0  0  0  0  0  0  0  0  0  0
   -4.7291   -2.5215   -2.3213 H   0  0  0  0  0  0  0  0  0  0  0  0
   -5.5477   -1.5369    1.7802 H   0  0  0  0  0  0  0  0  0  0  0  0
   -6.1654   -2.7234   -0.3088 H   0  0  0  0  0  0  0  0  0  0  0  0
   -3.3713    3.3610    2.0553 H   0  0  0  0  0  0  0  0  0  0  0  0
   -2.8219    4.6320    0.9319 H   0  0  0  0  0  0  0  0  0  0  0  0
   -1.6323    3.7390    1.9036 H   0  0  0  0  0  0  0  0  0  0  0  0
  1 11  2  0  0  0  0
  2 19  2  0  0  0  0
  3  5  1  0  0  0  0
  3  7  1  0  0  0  0
  3 11  1  0  0  0  0
  4 10  1  0  0  0  0
  4 19  1  0  0  0  0
  4 33  1  0  0  0  0
  5  6  1  0  0  0  0
  5 24  1  0  0  0  0
  5 25  1  0  0  0  0
  6  8  1  0  0  0  0
  6 26  1  0  0  0  0
  6 27  1  0  0  0  0
  7  8  1  0  0  0  0
  7 12  2  0  0  0  0
  8 13  2  0  0  0  0
  9 10  1  0  0  0  0
  9 11  1  0  0  0  0
  9 28  1  0  0  0  0
  9 29  1  0  0  0  0
 10 14  1  0  0  0  0
 10 30  1  0  0  0  0
 12 15  1  0  0  0  0
 12 31  1  0  0  0  0
 13 16  1  0  0  0  0
 13 32  1  0  0  0  0
 14 17  2  0  0  0  0
 14 18  1  0  0  0  0
 15 16  2  0  0  0  0
 15 34  1  0  0  0  0
 16 35  1  0  0  0  0
 17 20  1  0  0  0  0
 17 36  1  0  0  0  0
 18 21  2  0  0  0  0
 18 37  1  0  0  0  0
 19 23  1  0  0  0  0
 20 22  2  0  0  0  0
 20 38  1  0  0  0  0
 21 22  1  0  0  0  0
 21 39  1  0  0  0  0
 22 40  1  0  0  0  0
 23 41  1  0  0  0  0
 23 42  1  0  0  0  0
 23 43  1  0  0  0  0
M  END
> <PUBCHEM_COMPOUND_CID>
17396263

> <PUBCHEM_CONFORMER_RMSD>
0.8

> <PUBCHEM_CONFORMER_DIVERSEORDER>
1
106
168
148
142
83
99
25
122
156
128
79
167
94
29
20
64
80
149
139
69
19
26
136
111
87
121
113
141
160
126
63
134
114
103
166
159
37
44
110
131
48
7
118
60
42
49
152
32
8
78
105
12
31
140
27
161
115
120
107
21
62
22
65
96
43
59
162
33
52
13
97
129
73
153
40
89
76
24
124
72
92
14
11
98
88
46
15
158
169
137
155
93
138
147
145
36
30
112
58
123
157
71
81
38
82
132
173
101
66
77
35
23
86
28
163
5
90
56
74
70
53
41
171
9
4
51
39
6
17
164
165
50
10
150
154
109
16
57
34
135
151
67
18
85
119
68
116
117
144
146
102
95
108
3
130
104
75
2
55
170
84
133
54
143
91
45
127
125
100
47
61
172

> <PUBCHEM_MMFF94_PARTIAL_CHARGES>
33
1 -0.57
10 0.44
11 0.57
12 -0.15
13 -0.15
14 -0.14
15 -0.15
16 -0.15
17 -0.15
18 -0.15
19 0.57
2 -0.57
20 -0.15
21 -0.15
22 -0.15
23 0.06
3 -0.48
31 0.15
32 0.15
33 0.37
34 0.15
35 0.15
36 0.15
37 0.15
38 0.15
39 0.15
4 -0.73
40 0.15
5 0.3
6 0.14
7 0.12
8 -0.14
9 0.06

> <PUBCHEM_EFFECTIVE_ROTOR_COUNT>
6.6

> <PUBCHEM_PHARMACOPHORE_FEATURES>
6
1 1 acceptor
1 2 acceptor
1 4 donor
5 3 5 6 7 8 rings
6 14 17 18 20 21 22 rings
6 7 8 12 13 15 16 rings

> <PUBCHEM_HEAVY_ATOM_COUNT>
23

> <PUBCHEM_ATOM_DEF_STEREO_COUNT>
0

> <PUBCHEM_ATOM_UDEF_STEREO_COUNT>
1

> <PUBCHEM_BOND_DEF_STEREO_COUNT>
0

> <PUBCHEM_BOND_UDEF_STEREO_COUNT>
0

> <PUBCHEM_ISOTOPIC_ATOM_COUNT>
0

> <PUBCHEM_COMPONENT_COUNT>
1

> <PUBCHEM_CACTVS_TAUTO_COUNT>
2

> <PUBCHEM_CONFORMER_ID>
0109722700000001

> <PUBCHEM_MMFF94_ENERGY>
66.8087

> <PUBCHEM_FEATURE_SELFOVERLAP>
30.532

> <PUBCHEM_SHAPE_FINGERPRINT>
10366900 7 18340485569442267186
10595046 47 18412261740385826840
11045515 52 18131075896610713101
11056379 131 18261105300867050951
11101153 10 18340762629430734060
11315621 246 18114175285878506950
11552529 35 18335424620330342009
12107183 9 17691689304504884274
12166972 35 17632293428621671972
12236239 1 18335416846481636814
12516196 113 18335986346845798971
12553582 1 18261684670776129655
12714826 92 17822017527322425587
12788726 201 18408891741373343195
13073987 5 18410294735864514416
13167823 11 18411701027926107738
13583140 156 17241345679849769266
13631057 29 18410014320906059641
14840074 17 18334572391639799591
15196674 1 18271524299422845168
15806764 133 16950290615324043672
17349148 13 17918274238337202664
17492 89 18338797939364037242
17844677 252 18409160043874825574
18222031 100 17750528295118576351
19377110 9 18412829088238131882
19489759 90 13758363253848431807
200 152 18343023263843817255
21033650 10 18118373311878897524
21049683 271 18054787283244847397
21065198 48 18342175613540815802
21236236 1 18412543236252116868
21267235 1 18341886399239090666
21426921 1 18334013930006258393
21709351 56 18272369823864657268
23402539 116 18411418393292182159
23559900 14 17986957349337356537
23598288 3 18188497989859747455
25147074 1 18270969062618842578
283562 15 18412826902295190555
312423 11 18343294907613916286
350125 39 18410289211788089593
351380 3 18261394403769457047
4214541 1 18341049721997236132
497634 4 18273215326140620749
5104073 3 18340774857481304784
5283173 99 16630262371233686103
602551 16 16733271136226889782
7237137 82 18410576197471494333
7495541 125 17530686472767467282

> <PUBCHEM_SHAPE_MULTIPOLES>
451.63
13.56
3.11
1.16
7.97
2.86
-0.06
-4.9
-1.37
-3.77
0.65
-0.74
-0.05
-2.05

> <PUBCHEM_SHAPE_SELFOVERLAP>
969.726

> <PUBCHEM_SHAPE_VOLUME>
249.5

> <PUBCHEM_COORDINATE_TYPE>
2
5
10

$$$$

