12900
  -OEChem-06261207313D

 27 28  0     0  0  0  0  0  0999 V2000
   -0.4795    2.2838   -0.0001 O   0  0  0  0  0  0  0  0  0  0  0  0
    3.5780    2.2781    0.0006 O   0  5  0  0  0  0  0  0  0  0  0  0
    1.6931    3.4035    0.0003 O   0  0  0  0  0  0  0  0  0  0  0  0
    1.6614   -3.6215    0.0011 O   0  5  0  0  0  0  0  0  0  0  0  0
    3.5620   -2.5229    0.0000 O   0  0  0  0  0  0  0  0  0  0  0  0
    2.3251    2.3208    0.0004 N   0  3  0  0  0  0  0  0  0  0  0  0
    2.3076   -2.5459    0.0003 N   0  3  0  0  0  0  0  0  0  0  0  0
   -0.4984   -0.1093   -0.0008 C   0  0  0  0  0  0  0  0  0  0  0  0
   -1.9451   -0.1338   -0.0003 C   0  0  0  0  0  0  0  0  0  0  0  0
    0.2011    1.0991   -0.0004 C   0  0  0  0  0  0  0  0  0  0  0  0
    0.2020   -1.3170   -0.0010 C   0  0  0  0  0  0  0  0  0  0  0  0
    1.5959    1.0996   -0.0001 C   0  0  0  0  0  0  0  0  0  0  0  0
    1.5969   -1.3164   -0.0008 C   0  0  0  0  0  0  0  0  0  0  0  0
    2.2938   -0.1082   -0.0004 C   0  0  0  0  0  0  0  0  0  0  0  0
   -2.6421   -0.1456    1.2079 C   0  0  0  0  0  0  0  0  0  0  0  0
   -2.6428   -0.1456   -1.2081 C   0  0  0  0  0  0  0  0  0  0  0  0
   -4.0368   -0.1691    1.2084 C   0  0  0  0  0  0  0  0  0  0  0  0
   -4.0375   -0.1689   -1.2076 C   0  0  0  0  0  0  0  0  0  0  0  0
   -4.7344   -0.1807    0.0007 C   0  0  0  0  0  0  0  0  0  0  0  0
   -0.3582   -2.2504   -0.0011 H   0  0  0  0  0  0  0  0  0  0  0  0
    3.3813   -0.1112   -0.0001 H   0  0  0  0  0  0  0  0  0  0  0  0
   -2.1137   -0.1361    2.1583 H   0  0  0  0  0  0  0  0  0  0  0  0
   -2.1150   -0.1361   -2.1588 H   0  0  0  0  0  0  0  0  0  0  0  0
   -4.5797   -0.1781    2.1491 H   0  0  0  0  0  0  0  0  0  0  0  0
   -4.5809   -0.1779   -2.1479 H   0  0  0  0  0  0  0  0  0  0  0  0
   -5.8204   -0.1989    0.0010 H   0  0  0  0  0  0  0  0  0  0  0  0
   -1.4390    2.1433   -0.0010 H   0  0  0  0  0  0  0  0  0  0  0  0
  1 10  1  0  0  0  0
  1 27  1  0  0  0  0
  2  6  1  0  0  0  0
  3  6  2  0  0  0  0
  4  7  1  0  0  0  0
  5  7  2  0  0  0  0
  6 12  1  0  0  0  0
  7 13  1  0  0  0  0
  8  9  1  0  0  0  0
  8 10  2  0  0  0  0
  8 11  1  0  0  0  0
  9 15  2  0  0  0  0
  9 16  1  0  0  0  0
 10 12  1  0  0  0  0
 11 13  2  0  0  0  0
 11 20  1  0  0  0  0
 12 14  2  0  0  0  0
 13 14  1  0  0  0  0
 14 21  1  0  0  0  0
 15 17  1  0  0  0  0
 15 22  1  0  0  0  0
 16 18  2  0  0  0  0
 16 23  1  0  0  0  0
 17 19  2  0  0  0  0
 17 24  1  0  0  0  0
 18 19  1  0  0  0  0
 18 25  1  0  0  0  0
 19 26  1  0  0  0  0
M  CHG  4   2  -1   4  -1   6   1   7   1
M  END
> <PUBCHEM_COMPOUND_CID>
12900

> <PUBCHEM_CONFORMER_RMSD>
0.6

> <PUBCHEM_CONFORMER_DIVERSEORDER>
1

> <PUBCHEM_MMFF94_PARTIAL_CHARGES>
25
1 -0.53
10 0.08
11 -0.15
12 0.13
13 0.13
14 -0.15
15 -0.15
16 -0.15
17 -0.15
18 -0.15
19 -0.15
2 -0.52
20 0.15
21 0.15
22 0.15
23 0.15
24 0.15
25 0.15
26 0.15
27 0.45
3 -0.52
4 -0.52
5 -0.52
6 0.91
7 0.91

> <PUBCHEM_EFFECTIVE_ROTOR_COUNT>
3

> <PUBCHEM_PHARMACOPHORE_FEATURES>
9
1 1 donor
1 2 acceptor
1 2 anion
1 3 acceptor
1 4 acceptor
1 4 anion
1 5 acceptor
6 8 10 11 12 13 14 rings
6 9 15 16 17 18 19 rings

> <PUBCHEM_HEAVY_ATOM_COUNT>
19

> <PUBCHEM_ATOM_DEF_STEREO_COUNT>
0

> <PUBCHEM_ATOM_UDEF_STEREO_COUNT>
0

> <PUBCHEM_BOND_DEF_STEREO_COUNT>
0

> <PUBCHEM_BOND_UDEF_STEREO_COUNT>
0

> <PUBCHEM_ISOTOPIC_ATOM_COUNT>
0

> <PUBCHEM_COMPONENT_COUNT>
1

> <PUBCHEM_CACTVS_TAUTO_COUNT>
6

> <PUBCHEM_CONFORMER_ID>
0000326400000001

> <PUBCHEM_MMFF94_ENERGY>
70.369

> <PUBCHEM_FEATURE_SELFOVERLAP>
45.832

> <PUBCHEM_SHAPE_FINGERPRINT>
10411042 1 18122343746603009190
10693767 8 18113899355915656646
10967382 1 18410855443285915716
10980938 120 18410858715924550637
10989021 7 18336827610014966626
11471102 20 18411420583403873093
12236239 1 17748824099387311401
12553582 1 18265047127320438694
12644460 14 18411976953451384602
12707595 3 18200315553572838243
12730499 353 18269269076409624139
12895836 83 17412439370315620492
13009979 54 17677044745910220211
13134695 92 18340209699165827438
13140716 1 18266463092544032106
13533116 47 18333733495071022971
14790565 3 18267570317834020404
15219456 202 18131072606602083453
15279307 12 18042688304020768247
15309172 13 18195524783952645289
15442244 35 18263921227761418009
15502722 9 18411419488313663791
15842332 3 17894630340699832367
16945 1 18410575084721107684
1813 80 17970616613858256318
18186145 218 18263637364424285549
19049666 15 17988651847559643021
19591789 44 17979066090234696106
19784866 34 18191307061469676513
204376 136 18123749755639190764
20645477 70 18342469131574292815
21041028 32 18265325290971939505
21499 59 18194122919417122381
21524375 3 17911525294100253976
21639500 275 18337962190362022277
22112679 90 17385445431886918985
221490 88 18341612671903041869
2255824 54 18335136492491481502
22943178 12 17988923362654893867
23175994 123 18197211662544317679
2334 1 17906453229971273542
23419403 2 17629516169871972838
23559900 14 18411987978843605291
23598291 2 18040439884478142463
25 1 18339925887764019069
2748010 2 18048893075922276062
3060560 45 18339080376608036284
3071541 37 18341608179557167460
3091708 16 9288336131926826402
3886686 26 17180282923133928664
458136 41 18269261374979549940
474 4 18264488382266327905
54173680 148 17546444943651649474
6049 1 17917990607540162685
633830 44 17970891289833243261
7364860 26 18410575084990165506
7615 1 17822293509247039201
77492 1 17676487237948991651
81228 2 17546458133485542848
81539 233 18272089336239943860
8272917 22 18409164407398061597
84936 182 18042126466379805601

> <PUBCHEM_SHAPE_MULTIPOLES>
351.7
7.2
3.2
0.92
5.66
0.27
0
0.59
0
-5.39
0
1.14
0.04
0

> <PUBCHEM_SHAPE_SELFOVERLAP>
771.716

> <PUBCHEM_SHAPE_VOLUME>
190.4

> <PUBCHEM_COORDINATE_TYPE>
2
5
10

$$$$

