13171
  -OEChem-06261207512D

 25 24  0     0  0  0  0  0  0999 V2000
    3.4030    0.7035    0.0000 P   0  0  0  0  0  0  0  0  0  0  0  0
    4.2690    1.2035    0.0000 O   0  0  0  0  0  0  0  0  0  0  0  0
    7.7331    1.2035    0.0000 O   0  0  0  0  0  0  0  0  0  0  0  0
    6.0010   -1.7965    0.0000 O   0  0  0  0  0  0  0  0  0  0  0  0
    2.5369    0.2035    0.0000 O   0  0  0  0  0  0  0  0  0  0  0  0
    2.9030    1.5695    0.0000 O   0  0  0  0  0  0  0  0  0  0  0  0
    3.9030   -0.1625    0.0000 O   0  0  0  0  0  0  0  0  0  0  0  0
    5.1350    0.7035    0.0000 C   0  0  0  0  0  0  0  0  0  0  0  0
    6.0010    1.2035    0.0000 C   0  0  0  0  0  0  0  0  0  0  0  0
    5.1350   -0.2965    0.0000 C   0  0  0  0  0  0  0  0  0  0  0  0
    6.8671    0.7035    0.0000 C   0  0  0  0  0  0  0  0  0  0  0  0
    6.0010   -0.7965    0.0000 C   0  0  0  0  0  0  0  0  0  0  0  0
    4.5981    0.3935    0.0000 H   0  0  0  0  0  0  0  0  0  0  0  0
    6.3996    1.6785    0.0000 H   0  0  0  0  0  0  0  0  0  0  0  0
    5.6025    1.6785    0.0000 H   0  0  0  0  0  0  0  0  0  0  0  0
    4.5244   -0.1888    0.0000 H   0  0  0  0  0  0  0  0  0  0  0  0
    4.9230   -0.8791    0.0000 H   0  0  0  0  0  0  0  0  0  0  0  0
    6.4685    0.2286    0.0000 H   0  0  0  0  0  0  0  0  0  0  0  0
    7.2656    0.2286    0.0000 H   0  0  0  0  0  0  0  0  0  0  0  0
    6.6116   -0.9041    0.0000 H   0  0  0  0  0  0  0  0  0  0  0  0
    6.2131   -0.2139    0.0000 H   0  0  0  0  0  0  0  0  0  0  0  0
    6.5380   -2.1065    0.0000 H   0  0  0  0  0  0  0  0  0  0  0  0
    8.2700    0.8935    0.0000 H   0  0  0  0  0  0  0  0  0  0  0  0
    3.2130    2.1065    0.0000 H   0  0  0  0  0  0  0  0  0  0  0  0
    2.0000    0.5135    0.0000 H   0  0  0  0  0  0  0  0  0  0  0  0
  1  2  1  0  0  0  0
  1  5  1  0  0  0  0
  1  6  1  0  0  0  0
  1  7  2  0  0  0  0
  2  8  1  0  0  0  0
  3 11  1  0  0  0  0
  3 23  1  0  0  0  0
  4 12  1  0  0  0  0
  4 22  1  0  0  0  0
  5 25  1  0  0  0  0
  6 24  1  0  0  0  0
  8  9  1  0  0  0  0
  8 10  1  0  0  0  0
  8 13  1  0  0  0  0
  9 11  1  0  0  0  0
  9 14  1  0  0  0  0
  9 15  1  0  0  0  0
 10 12  1  0  0  0  0
 10 16  1  0  0  0  0
 10 17  1  0  0  0  0
 11 18  1  0  0  0  0
 11 19  1  0  0  0  0
 12 20  1  0  0  0  0
 12 21  1  0  0  0  0
M  END
> <PUBCHEM_COMPOUND_CID>
13171

> <PUBCHEM_COMPOUND_CANONICALIZED>
1

> <PUBCHEM_CACTVS_COMPLEXITY>
148

> <PUBCHEM_CACTVS_HBOND_ACCEPTOR>
6

> <PUBCHEM_CACTVS_HBOND_DONOR>
4

> <PUBCHEM_CACTVS_ROTATABLE_BOND>
6

> <PUBCHEM_CACTVS_SUBSKEYS>
AAADccBgOAIAAAAAAAAAAAAAAAAAAAAAAAAAAAAAAAAAAAAAAAAAGgAACCAACBSggAIAAAAAAxAAQAAAAIAAAAAAAAAAAAAAAAAAEAIAAAAAQAAFAAAAAACAIAAAAAAAAAAAAAAAAAAAAAAAAAAAAAAAAA==

> <PUBCHEM_IUPAC_OPENEYE_NAME>
[3-hydroxy-1-(2-hydroxyethyl)propyl] dihydrogen phosphate

> <PUBCHEM_IUPAC_CAS_NAME>
1,5-dihydroxypentan-3-yl dihydrogen phosphate

> <PUBCHEM_IUPAC_NAME>
1,5-dihydroxypentan-3-yl dihydrogen phosphate

> <PUBCHEM_IUPAC_SYSTEMATIC_NAME>
1,5-bis(oxidanyl)pentan-3-yl dihydrogen phosphate

> <PUBCHEM_IUPAC_TRADITIONAL_NAME>
[3-hydroxy-1-(2-hydroxyethyl)propyl] dihydrogen phosphate

> <PUBCHEM_IUPAC_INCHI>
InChI=1S/C5H13O6P/c6-3-1-5(2-4-7)11-12(8,9)10/h5-7H,1-4H2,(H2,8,9,10)

> <PUBCHEM_IUPAC_INCHIKEY>
WRTRZAGRUVFFKR-UHFFFAOYSA-N

> <PUBCHEM_XLOGP3_AA>
-2.1

> <PUBCHEM_EXACT_MASS>
200.044975

> <PUBCHEM_MOLECULAR_FORMULA>
C5H13O6P

> <PUBCHEM_MOLECULAR_WEIGHT>
200.126882

> <PUBCHEM_OPENEYE_CAN_SMILES>
C(CO)C(CCO)OP(=O)(O)O

> <PUBCHEM_OPENEYE_ISO_SMILES>
C(CO)C(CCO)OP(=O)(O)O

> <PUBCHEM_CACTVS_TPSA>
107

> <PUBCHEM_MONOISOTOPIC_WEIGHT>
200.044975

> <PUBCHEM_TOTAL_CHARGE>
0

> <PUBCHEM_HEAVY_ATOM_COUNT>
12

> <PUBCHEM_ATOM_DEF_STEREO_COUNT>
0

> <PUBCHEM_ATOM_UDEF_STEREO_COUNT>
0

> <PUBCHEM_BOND_DEF_STEREO_COUNT>
0

> <PUBCHEM_BOND_UDEF_STEREO_COUNT>
0

> <PUBCHEM_ISOTOPIC_ATOM_COUNT>
0

> <PUBCHEM_COMPONENT_COUNT>
1

> <PUBCHEM_CACTVS_TAUTO_COUNT>
1

> <PUBCHEM_COORDINATE_TYPE>
1
5
255

$$$$

