4695
  -OEChem-06261200172D

 70 72  0     0  0  0  0  0  0999 V2000
    4.3479   -1.6513    0.0000 S   0  0  0  0  0  0  0  0  0  0  0  0
    7.9308   -3.3250    0.0000 S   0  0  0  0  0  0  0  0  0  0  0  0
    4.1742   -2.6361    0.0000 O   0  0  0  0  0  0  0  0  0  0  0  0
    3.3631   -1.4777    0.0000 O   0  0  0  0  0  0  0  0  0  0  0  0
    4.5216   -0.6665    0.0000 O   0  0  0  0  0  0  0  0  0  0  0  0
    8.7968   -3.8250    0.0000 O   0  0  0  0  0  0  0  0  0  0  0  0
    7.4308   -4.1910    0.0000 O   0  0  0  0  0  0  0  0  0  0  0  0
    8.4308   -2.4589    0.0000 O   0  0  0  0  0  0  0  0  0  0  0  0
    9.6628    1.6750    0.0000 N   0  0  0  0  0  0  0  0  0  0  0  0
    3.6276    2.7392    0.0000 N   0  3  0  0  0  0  0  0  0  0  0  0
    6.1988   -0.3250    0.0000 C   0  0  0  0  0  0  0  0  0  0  0  0
    6.1988   -1.3250    0.0000 C   0  0  0  0  0  0  0  0  0  0  0  0
    7.0648    0.1750    0.0000 C   0  0  0  0  0  0  0  0  0  0  0  0
    5.5560    0.4411    0.0000 C   0  0  0  0  0  0  0  0  0  0  0  0
    5.3327   -1.8250    0.0000 C   0  0  0  0  0  0  0  0  0  0  0  0
    8.7968    1.1750    0.0000 C   0  0  0  0  0  0  0  0  0  0  0  0
    4.2704    1.9732    0.0000 C   0  0  0  0  0  0  0  0  0  0  0  0
    7.0648   -1.8250    0.0000 C   0  0  0  0  0  0  0  0  0  0  0  0
    7.9308   -0.3250    0.0000 C   0  0  0  0  0  0  0  0  0  0  0  0
    7.0648    1.1750    0.0000 C   0  0  0  0  0  0  0  0  0  0  0  0
    5.8980    1.3808    0.0000 C   0  0  0  0  0  0  0  0  0  0  0  0
    4.5712    0.2675    0.0000 C   0  0  0  0  0  0  0  0  0  0  0  0
    8.7968    0.1750    0.0000 C   0  0  0  0  0  0  0  0  0  0  0  0
    7.9308    1.6750    0.0000 C   0  0  0  0  0  0  0  0  0  0  0  0
    3.9284    1.0335    0.0000 C   0  0  0  0  0  0  0  0  0  0  0  0
    5.2552    2.1468    0.0000 C   0  0  0  0  0  0  0  0  0  0  0  0
    7.0648   -2.8250    0.0000 C   0  0  0  0  0  0  0  0  0  0  0  0
    9.6628    2.6750    0.0000 C   0  0  0  0  0  0  0  0  0  0  0  0
   10.5289    1.1750    0.0000 C   0  0  0  0  0  0  0  0  0  0  0  0
    3.9696    3.6789    0.0000 C   0  0  0  0  0  0  0  0  0  0  0  0
    2.6428    2.5656    0.0000 C   0  0  0  0  0  0  0  0  0  0  0  0
    5.3327   -2.8250    0.0000 C   0  0  0  0  0  0  0  0  0  0  0  0
    6.1988   -3.3250    0.0000 C   0  0  0  0  0  0  0  0  0  0  0  0
   11.3949    1.6750    0.0000 C   0  0  0  0  0  0  0  0  0  0  0  0
   10.5289    3.1750    0.0000 C   0  0  0  0  0  0  0  0  0  0  0  0
    2.0000    3.3316    0.0000 C   0  0  0  0  0  0  0  0  0  0  0  0
    3.3268    4.4450    0.0000 C   0  0  0  0  0  0  0  0  0  0  0  0
    7.6017   -1.5150    0.0000 H   0  0  0  0  0  0  0  0  0  0  0  0
    7.9308   -0.9450    0.0000 H   0  0  0  0  0  0  0  0  0  0  0  0
    6.5278    1.4850    0.0000 H   0  0  0  0  0  0  0  0  0  0  0  0
    6.5086    1.4884    0.0000 H   0  0  0  0  0  0  0  0  0  0  0  0
    4.3591   -0.3151    0.0000 H   0  0  0  0  0  0  0  0  0  0  0  0
    9.3338   -0.1350    0.0000 H   0  0  0  0  0  0  0  0  0  0  0  0
    7.9308    2.2950    0.0000 H   0  0  0  0  0  0  0  0  0  0  0  0
    5.4672    2.7294    0.0000 H   0  0  0  0  0  0  0  0  0  0  0  0
    3.3178    0.9258    0.0000 H   0  0  0  0  0  0  0  0  0  0  0  0
    9.4508    3.2576    0.0000 H   0  0  0  0  0  0  0  0  0  0  0  0
    9.0523    2.5674    0.0000 H   0  0  0  0  0  0  0  0  0  0  0  0
   10.1303    0.7001    0.0000 H   0  0  0  0  0  0  0  0  0  0  0  0
   10.9274    0.7001    0.0000 H   0  0  0  0  0  0  0  0  0  0  0  0
    4.5066    3.3689    0.0000 H   0  0  0  0  0  0  0  0  0  0  0  0
    4.3681    4.1539    0.0000 H   0  0  0  0  0  0  0  0  0  0  0  0
    2.1059    2.2556    0.0000 H   0  0  0  0  0  0  0  0  0  0  0  0
    2.8548    1.9830    0.0000 H   0  0  0  0  0  0  0  0  0  0  0  0
    4.7958   -3.1350    0.0000 H   0  0  0  0  0  0  0  0  0  0  0  0
    6.1988   -3.9450    0.0000 H   0  0  0  0  0  0  0  0  0  0  0  0
   11.7049    1.1381    0.0000 H   0  0  0  0  0  0  0  0  0  0  0  0
   10.8389    2.6381    0.0000 H   0  0  0  0  0  0  0  0  0  0  0  0
   11.0658    3.4850    0.0000 H   0  0  0  0  0  0  0  0  0  0  0  0
   10.2189    3.7120    0.0000 H   0  0  0  0  0  0  0  0  0  0  0  0
   11.9318    1.9850    0.0000 H   0  0  0  0  0  0  0  0  0  0  0  0
   11.0849    2.2120    0.0000 H   0  0  0  0  0  0  0  0  0  0  0  0
    2.4750    3.7301    0.0000 H   0  0  0  0  0  0  0  0  0  0  0  0
    1.6015    3.8066    0.0000 H   0  0  0  0  0  0  0  0  0  0  0  0
    1.5250    2.9331    0.0000 H   0  0  0  0  0  0  0  0  0  0  0  0
    3.8018    4.8435    0.0000 H   0  0  0  0  0  0  0  0  0  0  0  0
    2.9283    4.9199    0.0000 H   0  0  0  0  0  0  0  0  0  0  0  0
    2.8519    4.0464    0.0000 H   0  0  0  0  0  0  0  0  0  0  0  0
    3.5916   -2.8481    0.0000 H   0  0  0  0  0  0  0  0  0  0  0  0
    8.7968   -4.4450    0.0000 H   0  0  0  0  0  0  0  0  0  0  0  0
  1  3  1  0  0  0  0
  1  4  2  0  0  0  0
  1  5  2  0  0  0  0
  1 15  1  0  0  0  0
  2  6  1  0  0  0  0
  2  7  2  0  0  0  0
  2  8  2  0  0  0  0
  2 27  1  0  0  0  0
  3 69  1  0  0  0  0
  6 70  1  0  0  0  0
  9 16  1  0  0  0  0
  9 28  1  0  0  0  0
  9 29  1  0  0  0  0
 10 17  2  0  0  0  0
 10 30  1  0  0  0  0
 10 31  1  0  0  0  0
 11 12  1  0  0  0  0
 11 13  1  0  0  0  0
 11 14  2  0  0  0  0
 12 15  2  0  0  0  0
 12 18  1  0  0  0  0
 13 19  2  0  0  0  0
 13 20  1  0  0  0  0
 14 21  1  0  0  0  0
 14 22  1  0  0  0  0
 15 32  1  0  0  0  0
 16 23  2  0  0  0  0
 16 24  1  0  0  0  0
 17 25  1  0  0  0  0
 17 26  1  0  0  0  0
 18 27  2  0  0  0  0
 18 38  1  0  0  0  0
 19 23  1  0  0  0  0
 19 39  1  0  0  0  0
 20 24  2  0  0  0  0
 20 40  1  0  0  0  0
 21 26  2  0  0  0  0
 21 41  1  0  0  0  0
 22 25  2  0  0  0  0
 22 42  1  0  0  0  0
 23 43  1  0  0  0  0
 24 44  1  0  0  0  0
 25 46  1  0  0  0  0
 26 45  1  0  0  0  0
 27 33  1  0  0  0  0
 28 35  1  0  0  0  0
 28 47  1  0  0  0  0
 28 48  1  0  0  0  0
 29 34  1  0  0  0  0
 29 49  1  0  0  0  0
 29 50  1  0  0  0  0
 30 37  1  0  0  0  0
 30 51  1  0  0  0  0
 30 52  1  0  0  0  0
 31 36  1  0  0  0  0
 31 53  1  0  0  0  0
 31 54  1  0  0  0  0
 32 33  2  0  0  0  0
 32 55  1  0  0  0  0
 33 56  1  0  0  0  0
 34 57  1  0  0  0  0
 34 61  1  0  0  0  0
 34 62  1  0  0  0  0
 35 58  1  0  0  0  0
 35 59  1  0  0  0  0
 35 60  1  0  0  0  0
 36 63  1  0  0  0  0
 36 64  1  0  0  0  0
 36 65  1  0  0  0  0
 37 66  1  0  0  0  0
 37 67  1  0  0  0  0
 37 68  1  0  0  0  0
M  CHG  1  10   1
M  END
> <PUBCHEM_COMPOUND_CID>
4695

> <PUBCHEM_COMPOUND_CANONICALIZED>
1

> <PUBCHEM_CACTVS_COMPLEXITY>
1060

> <PUBCHEM_CACTVS_HBOND_ACCEPTOR>
7

> <PUBCHEM_CACTVS_HBOND_DONOR>
2

> <PUBCHEM_CACTVS_ROTATABLE_BOND>
9

> <PUBCHEM_CACTVS_SUBSKEYS>
AAADcfB7OABgAAAAAAAAAAAAAAAAAAAAAAAwYIAAAAAAAAABQAAAHAQACAAADAjBWAQywYMAAIKgAyRiRHDCAEAhAgAIiBgYZJgIICLAkZGEIAhggADIyAcQgMAOCAgAgAAEAAAQEAEAAAgAAAAAAAAAAA==

> <PUBCHEM_IUPAC_OPENEYE_NAME>
[4-[[4-(diethylamino)phenyl]-(2,5-disulfophenyl)methylene]cyclohexa-2,5-dien-1-ylidene]-diethyl-ammonium

> <PUBCHEM_IUPAC_CAS_NAME>
[4-[[4-(diethylamino)phenyl]-(2,5-disulfophenyl)methylidene]-1-cyclohexa-2,5-dienylidene]-diethylammonium

> <PUBCHEM_IUPAC_NAME>
[4-[[4-(diethylamino)phenyl]-(2,5-disulfophenyl)methylidene]cyclohexa-2,5-dien-1-ylidene]-diethylazanium

> <PUBCHEM_IUPAC_SYSTEMATIC_NAME>
[4-[[4-(diethylamino)phenyl]-(2,5-disulfophenyl)methylidene]cyclohexa-2,5-dien-1-ylidene]-diethyl-azanium

> <PUBCHEM_IUPAC_TRADITIONAL_NAME>
[4-[[4-(diethylamino)phenyl]-(2,5-disulfophenyl)methylene]cyclohexa-2,5-dien-1-ylidene]-diethyl-ammonium

> <PUBCHEM_IUPAC_INCHI>
InChI=1S/C27H32N2O6S2/c1-5-28(6-2)22-13-9-20(10-14-22)27(21-11-15-23(16-12-21)29(7-3)8-4)25-19-24(36(30,31)32)17-18-26(25)37(33,34)35/h9-19H,5-8H2,1-4H3,(H-,30,31,32,33,34,35)/p+1

> <PUBCHEM_IUPAC_INCHIKEY>
YFKDCGWIINMRQY-UHFFFAOYSA-O

> <PUBCHEM_XLOGP3_AA>
3.6

> <PUBCHEM_EXACT_MASS>
545.178004

> <PUBCHEM_MOLECULAR_FORMULA>
C27H33N2O6S2+

> <PUBCHEM_MOLECULAR_WEIGHT>
545.69072

> <PUBCHEM_OPENEYE_CAN_SMILES>
CCN(CC)C1=CC=C(C=C1)C(=C2C=CC(=[N+](CC)CC)C=C2)C3=C(C=CC(=C3)S(=O)(=O)O)S(=O)(=O)O

> <PUBCHEM_OPENEYE_ISO_SMILES>
CCN(CC)C1=CC=C(C=C1)C(=C2C=CC(=[N+](CC)CC)C=C2)C3=C(C=CC(=C3)S(=O)(=O)O)S(=O)(=O)O

> <PUBCHEM_CACTVS_TPSA>
132

> <PUBCHEM_MONOISOTOPIC_WEIGHT>
545.178004

> <PUBCHEM_TOTAL_CHARGE>
1

> <PUBCHEM_HEAVY_ATOM_COUNT>
37

> <PUBCHEM_ATOM_DEF_STEREO_COUNT>
0

> <PUBCHEM_ATOM_UDEF_STEREO_COUNT>
0

> <PUBCHEM_BOND_DEF_STEREO_COUNT>
0

> <PUBCHEM_BOND_UDEF_STEREO_COUNT>
0

> <PUBCHEM_ISOTOPIC_ATOM_COUNT>
0

> <PUBCHEM_COMPONENT_COUNT>
1

> <PUBCHEM_CACTVS_TAUTO_COUNT>
1

> <PUBCHEM_COORDINATE_TYPE>
1
5
255

> <PUBCHEM_BONDANNOTATIONS>
12  15  8
12  18  8
13  19  8
13  20  8
15  32  8
16  23  8
16  24  8
18  27  8
19  23  8
20  24  8
27  33  8
32  33  8

$$$$

