12857
  -OEChem-06261207273D

 28 28  0     1  0  0  0  0  0999 V2000
    5.2012    0.8251    0.0035 F   0  0  0  0  0  0  0  0  0  0  0  0
   -4.5139   -0.3200    0.3159 O   0  0  0  0  0  0  0  0  0  0  0  0
   -3.1855    1.3882   -0.4534 O   0  0  0  0  0  0  0  0  0  0  0  0
   -1.0132    0.0746    0.6888 N   0  0  0  0  0  0  0  0  0  0  0  0
   -2.3126   -0.3990    0.7420 N   0  0  0  0  0  0  0  0  0  0  0  0
   -0.1474   -0.9010    0.0410 C   0  0  2  0  0  0  0  0  0  0  0  0
    1.2929   -0.4362    0.0311 C   0  0  0  0  0  0  0  0  0  0  0  0
   -0.6639   -1.2332   -1.3574 C   0  0  0  0  0  0  0  0  0  0  0  0
    2.3048   -1.3711    0.1613 C   0  0  0  0  0  0  0  0  0  0  0  0
    1.5659    0.9132   -0.1083 C   0  0  0  0  0  0  0  0  0  0  0  0
    3.6323   -0.9427    0.1523 C   0  0  0  0  0  0  0  0  0  0  0  0
    2.8932    1.3416   -0.1173 C   0  0  0  0  0  0  0  0  0  0  0  0
    3.9264    0.4137    0.0130 C   0  0  0  0  0  0  0  0  0  0  0  0
   -3.3213    0.3252    0.1447 C   0  0  0  0  0  0  0  0  0  0  0  0
   -5.6587    0.3216   -0.2572 C   0  0  0  0  0  0  0  0  0  0  0  0
   -0.1854   -1.8248    0.6369 H   0  0  0  0  0  0  0  0  0  0  0  0
    0.0203   -1.9211   -1.8684 H   0  0  0  0  0  0  0  0  0  0  0  0
   -1.6442   -1.7213   -1.3387 H   0  0  0  0  0  0  0  0  0  0  0  0
   -0.7403   -0.3351   -1.9821 H   0  0  0  0  0  0  0  0  0  0  0  0
   -0.7148    0.2131    1.6543 H   0  0  0  0  0  0  0  0  0  0  0  0
    2.0868   -2.4297    0.2677 H   0  0  0  0  0  0  0  0  0  0  0  0
    0.7838    1.6563   -0.2309 H   0  0  0  0  0  0  0  0  0  0  0  0
    4.4370   -1.6649    0.2528 H   0  0  0  0  0  0  0  0  0  0  0  0
    3.1231    2.3970   -0.2302 H   0  0  0  0  0  0  0  0  0  0  0  0
   -2.4993   -1.2658    1.2359 H   0  0  0  0  0  0  0  0  0  0  0  0
   -5.5409    0.4074   -1.3416 H   0  0  0  0  0  0  0  0  0  0  0  0
   -5.8070    1.3064    0.1958 H   0  0  0  0  0  0  0  0  0  0  0  0
   -6.5353   -0.2970   -0.0472 H   0  0  0  0  0  0  0  0  0  0  0  0
  1 13  1  0  0  0  0
  2 14  1  0  0  0  0
  2 15  1  0  0  0  0
  3 14  2  0  0  0  0
  4  5  1  0  0  0  0
  4  6  1  0  0  0  0
  4 20  1  0  0  0  0
  5 14  1  0  0  0  0
  5 25  1  0  0  0  0
  6  7  1  0  0  0  0
  6  8  1  0  0  0  0
  6 16  1  0  0  0  0
  7  9  2  0  0  0  0
  7 10  1  0  0  0  0
  8 17  1  0  0  0  0
  8 18  1  0  0  0  0
  8 19  1  0  0  0  0
  9 11  1  0  0  0  0
  9 21  1  0  0  0  0
 10 12  2  0  0  0  0
 10 22  1  0  0  0  0
 11 13  2  0  0  0  0
 11 23  1  0  0  0  0
 12 13  1  0  0  0  0
 12 24  1  0  0  0  0
 15 26  1  0  0  0  0
 15 27  1  0  0  0  0
 15 28  1  0  0  0  0
M  END
> <PUBCHEM_COMPOUND_CID>
12857

> <PUBCHEM_CONFORMER_RMSD>
0.6

> <PUBCHEM_CONFORMER_DIVERSEORDER>
2
17
6
11
3
9
4
10
7
12
14
15
1
13
18
5
8
16

> <PUBCHEM_MMFF94_PARTIAL_CHARGES>
20
1 -0.19
10 -0.15
11 -0.15
12 -0.15
13 0.19
14 0.78
15 0.28
2 -0.43
20 0.36
21 0.15
22 0.15
23 0.15
24 0.15
25 0.37
3 -0.57
4 -0.64
5 -0.42
6 0.41
7 -0.14
9 -0.15

> <PUBCHEM_EFFECTIVE_ROTOR_COUNT>
5

> <PUBCHEM_PHARMACOPHORE_FEATURES>
4
1 3 acceptor
1 4 donor
1 5 donor
6 7 9 10 11 12 13 rings

> <PUBCHEM_HEAVY_ATOM_COUNT>
15

> <PUBCHEM_ATOM_DEF_STEREO_COUNT>
0

> <PUBCHEM_ATOM_UDEF_STEREO_COUNT>
1

> <PUBCHEM_BOND_DEF_STEREO_COUNT>
0

> <PUBCHEM_BOND_UDEF_STEREO_COUNT>
0

> <PUBCHEM_ISOTOPIC_ATOM_COUNT>
0

> <PUBCHEM_COMPONENT_COUNT>
1

> <PUBCHEM_CACTVS_TAUTO_COUNT>
2

> <PUBCHEM_CONFORMER_ID>
0000323900000002

> <PUBCHEM_MMFF94_ENERGY>
28.3282

> <PUBCHEM_FEATURE_SELFOVERLAP>
21.791

> <PUBCHEM_SHAPE_FINGERPRINT>
11471102 20 18412544323432535818
12236239 1 18040435494594200030
13081056 2 18413388747935601301
14123238 8 18333169466378865411
14252887 29 12607411013669828984
14897335 6 18260830375952953702
14993402 34 17748824111792204426
15048467 5 17060613378872319492
15196674 1 18340487879955655037
15342168 16 17844521107428535340
15775835 57 18260829276119299836
17802600 8 18412829088027537337
17834072 33 18411139104242997415
17834072 8 18187355537660597062
187816 3 16081366345431850947
200 152 18187366536892532681
20279233 1 17918265459102458963
20645477 70 18337389456531642606
21652331 79 18412265038546599157
22854114 59 17704072897604281719
23402539 116 18272938207009846991
23402655 69 18334577962127726109
23559900 14 18131067147171409266
265663 24 18410858767611968235
351380 180 18272371975321681173
3545911 37 18411697673160776867
4047638 21 17385725777334684202
4990 188 14201394993256070799
522135 26 18411981381984802450
69090 78 18411702075903448243
8272917 22 18338231677742625031

> <PUBCHEM_SHAPE_MULTIPOLES>
279.72
10.44
1.34
0.8
8.02
0
0.14
2.6
-0.12
-0.75
0.18
0.25
-0.16
-0.06

> <PUBCHEM_SHAPE_SELFOVERLAP>
570.844

> <PUBCHEM_SHAPE_VOLUME>
163

> <PUBCHEM_COORDINATE_TYPE>
2
5
10

$$$$

