7847017
  -OEChem-06241222482D

 46 48  0     0  0  0  0  0  0999 V2000
    4.6783    3.3358    0.0000 S   0  0  0  0  0  0  0  0  0  0  0  0
    8.2619    0.7990    0.0000 O   0  0  0  0  0  0  0  0  0  0  0  0
    8.2619    2.5311    0.0000 O   0  0  0  0  0  0  0  0  0  0  0  0
    9.2619   -0.9330    0.0000 O   0  0  0  0  0  0  0  0  0  0  0  0
    4.6783    1.7264    0.0000 N   0  0  0  0  0  0  0  0  0  0  0  0
   10.7619   -0.0670    0.0000 N   0  0  0  0  0  0  0  0  0  0  0  0
    6.2619    2.5311    0.0000 C   0  0  0  0  0  0  0  0  0  0  0  0
    6.7619    1.6651    0.0000 C   0  0  0  0  0  0  0  0  0  0  0  0
    5.2619    2.5311    0.0000 C   0  0  0  0  0  0  0  0  0  0  0  0
    3.7320    3.0311    0.0000 C   0  0  0  0  0  0  0  0  0  0  0  0
    3.7320    2.0311    0.0000 C   0  0  0  0  0  0  0  0  0  0  0  0
   12.2619   -2.6651    0.0000 C   0  0  0  0  0  0  0  0  0  0  0  0
   12.7619   -3.5311    0.0000 C   0  0  0  0  0  0  0  0  0  0  0  0
   11.2619   -0.9330    0.0000 C   0  0  0  0  0  0  0  0  0  0  0  0
    7.7619    1.6651    0.0000 C   0  0  0  0  0  0  0  0  0  0  0  0
   12.7619   -1.7990    0.0000 C   0  0  0  0  0  0  0  0  0  0  0  0
   11.2619   -2.6651    0.0000 C   0  0  0  0  0  0  0  0  0  0  0  0
   12.2619   -0.9330    0.0000 C   0  0  0  0  0  0  0  0  0  0  0  0
   10.7619   -1.7990    0.0000 C   0  0  0  0  0  0  0  0  0  0  0  0
    2.8660    3.5311    0.0000 C   0  0  0  0  0  0  0  0  0  0  0  0
    2.8660    1.5311    0.0000 C   0  0  0  0  0  0  0  0  0  0  0  0
    9.2619    0.7990    0.0000 C   0  0  0  0  0  0  0  0  0  0  0  0
   13.7619   -3.5311    0.0000 C   0  0  0  0  0  0  0  0  0  0  0  0
    2.0000    3.0311    0.0000 C   0  0  0  0  0  0  0  0  0  0  0  0
    2.0000    2.0311    0.0000 C   0  0  0  0  0  0  0  0  0  0  0  0
    9.7619   -0.0670    0.0000 C   0  0  0  0  0  0  0  0  0  0  0  0
    6.8445    2.7431    0.0000 H   0  0  0  0  0  0  0  0  0  0  0  0
    6.1542    3.1417    0.0000 H   0  0  0  0  0  0  0  0  0  0  0  0
    6.1793    1.4530    0.0000 H   0  0  0  0  0  0  0  0  0  0  0  0
    6.8695    1.0545    0.0000 H   0  0  0  0  0  0  0  0  0  0  0  0
   12.1793   -3.7431    0.0000 H   0  0  0  0  0  0  0  0  0  0  0  0
   12.8695   -4.1417    0.0000 H   0  0  0  0  0  0  0  0  0  0  0  0
   13.3819   -1.7990    0.0000 H   0  0  0  0  0  0  0  0  0  0  0  0
   10.9519   -3.2020    0.0000 H   0  0  0  0  0  0  0  0  0  0  0  0
   12.5719   -0.3961    0.0000 H   0  0  0  0  0  0  0  0  0  0  0  0
   10.1419   -1.7990    0.0000 H   0  0  0  0  0  0  0  0  0  0  0  0
    2.8660    4.1511    0.0000 H   0  0  0  0  0  0  0  0  0  0  0  0
    2.8660    0.9111    0.0000 H   0  0  0  0  0  0  0  0  0  0  0  0
   11.0719    0.4699    0.0000 H   0  0  0  0  0  0  0  0  0  0  0  0
    9.8445    1.0111    0.0000 H   0  0  0  0  0  0  0  0  0  0  0  0
    9.1542    1.4096    0.0000 H   0  0  0  0  0  0  0  0  0  0  0  0
   13.7619   -4.1511    0.0000 H   0  0  0  0  0  0  0  0  0  0  0  0
   14.3819   -3.5311    0.0000 H   0  0  0  0  0  0  0  0  0  0  0  0
   13.7619   -2.9111    0.0000 H   0  0  0  0  0  0  0  0  0  0  0  0
    1.4631    3.3411    0.0000 H   0  0  0  0  0  0  0  0  0  0  0  0
    1.4631    1.7211    0.0000 H   0  0  0  0  0  0  0  0  0  0  0  0
  1  9  1  0  0  0  0
  1 10  1  0  0  0  0
  2 15  1  0  0  0  0
  2 22  1  0  0  0  0
  3 15  2  0  0  0  0
  4 26  2  0  0  0  0
  5  9  2  0  0  0  0
  5 11  1  0  0  0  0
  6 14  1  0  0  0  0
  6 26  1  0  0  0  0
  6 39  1  0  0  0  0
  7  8  1  0  0  0  0
  7  9  1  0  0  0  0
  7 27  1  0  0  0  0
  7 28  1  0  0  0  0
  8 15  1  0  0  0  0
  8 29  1  0  0  0  0
  8 30  1  0  0  0  0
 10 11  1  0  0  0  0
 10 20  2  0  0  0  0
 11 21  2  0  0  0  0
 12 13  1  0  0  0  0
 12 16  2  0  0  0  0
 12 17  1  0  0  0  0
 13 23  1  0  0  0  0
 13 31  1  0  0  0  0
 13 32  1  0  0  0  0
 14 18  2  0  0  0  0
 14 19  1  0  0  0  0
 16 18  1  0  0  0  0
 16 33  1  0  0  0  0
 17 19  2  0  0  0  0
 17 34  1  0  0  0  0
 18 35  1  0  0  0  0
 19 36  1  0  0  0  0
 20 24  1  0  0  0  0
 20 37  1  0  0  0  0
 21 25  1  0  0  0  0
 21 38  1  0  0  0  0
 22 26  1  0  0  0  0
 22 40  1  0  0  0  0
 22 41  1  0  0  0  0
 23 42  1  0  0  0  0
 23 43  1  0  0  0  0
 23 44  1  0  0  0  0
 24 25  2  0  0  0  0
 24 45  1  0  0  0  0
 25 46  1  0  0  0  0
M  END
> <PUBCHEM_COMPOUND_CID>
7847017

> <PUBCHEM_COMPOUND_CANONICALIZED>
1

> <PUBCHEM_CACTVS_COMPLEXITY>
480

> <PUBCHEM_CACTVS_HBOND_ACCEPTOR>
5

> <PUBCHEM_CACTVS_HBOND_DONOR>
1

> <PUBCHEM_CACTVS_ROTATABLE_BOND>
8

> <PUBCHEM_CACTVS_SUBSKEYS>
AAADceB7MABAAAAAAAAAAAAAAAAAAWAAAAAwYAAAAAAAAFgB9AAAHgQQAAAADAih3gIyybLIFAisAyXyXAKD8KBhCjhImD1wZJgKILLgkZWHIAhklAD4yAc0gIAOCAAAAAAAAQAQAAAAAAACAAAAAAAAAA==

> <PUBCHEM_IUPAC_OPENEYE_NAME>
[2-(4-ethylanilino)-2-oxo-ethyl] 3-(1,3-benzothiazol-2-yl)propanoate

> <PUBCHEM_IUPAC_CAS_NAME>
3-(1,3-benzothiazol-2-yl)propanoic acid [2-(4-ethylanilino)-2-oxoethyl] ester

> <PUBCHEM_IUPAC_NAME>
[2-(4-ethylanilino)-2-oxoethyl] 3-(1,3-benzothiazol-2-yl)propanoate

> <PUBCHEM_IUPAC_SYSTEMATIC_NAME>
[2-[(4-ethylphenyl)amino]-2-oxidanylidene-ethyl] 3-(1,3-benzothiazol-2-yl)propanoate

> <PUBCHEM_IUPAC_TRADITIONAL_NAME>
3-(1,3-benzothiazol-2-yl)propionic acid [2-(4-ethylanilino)-2-keto-ethyl] ester

> <PUBCHEM_IUPAC_INCHI>
InChI=1S/C20H20N2O3S/c1-2-14-7-9-15(10-8-14)21-18(23)13-25-20(24)12-11-19-22-16-5-3-4-6-17(16)26-19/h3-10H,2,11-13H2,1H3,(H,21,23)

> <PUBCHEM_IUPAC_INCHIKEY>
WDAFLODJVKRAMN-UHFFFAOYSA-N

> <PUBCHEM_XLOGP3_AA>
4.2

> <PUBCHEM_EXACT_MASS>
368.119464

> <PUBCHEM_MOLECULAR_FORMULA>
C20H20N2O3S

> <PUBCHEM_MOLECULAR_WEIGHT>
368.4494

> <PUBCHEM_OPENEYE_CAN_SMILES>
CCC1=CC=C(C=C1)NC(=O)COC(=O)CCC2=NC3=CC=CC=C3S2

> <PUBCHEM_OPENEYE_ISO_SMILES>
CCC1=CC=C(C=C1)NC(=O)COC(=O)CCC2=NC3=CC=CC=C3S2

> <PUBCHEM_CACTVS_TPSA>
96.5

> <PUBCHEM_MONOISOTOPIC_WEIGHT>
368.119464

> <PUBCHEM_TOTAL_CHARGE>
0

> <PUBCHEM_HEAVY_ATOM_COUNT>
26

> <PUBCHEM_ATOM_DEF_STEREO_COUNT>
0

> <PUBCHEM_ATOM_UDEF_STEREO_COUNT>
0

> <PUBCHEM_BOND_DEF_STEREO_COUNT>
0

> <PUBCHEM_BOND_UDEF_STEREO_COUNT>
0

> <PUBCHEM_ISOTOPIC_ATOM_COUNT>
0

> <PUBCHEM_COMPONENT_COUNT>
1

> <PUBCHEM_CACTVS_TAUTO_COUNT>
6

> <PUBCHEM_COORDINATE_TYPE>
1
5
255

> <PUBCHEM_BONDANNOTATIONS>
1  10  8
1  9  8
10  11  8
10  20  8
11  21  8
12  16  8
12  17  8
14  18  8
14  19  8
16  18  8
17  19  8
20  24  8
21  25  8
24  25  8
5  11  8
5  9  8

$$$$

