12513
  -OEChem-06261207023D

 17 16  0     1  0  0  0  0  0999 V2000
   -2.6508   -1.1046   -0.1064 I   0  0  0  0  0  0  0  0  0  0  0  0
    0.3365   -0.5033   -0.0793 C   0  0  0  0  0  0  0  0  0  0  0  0
   -0.9550    0.1857    0.3915 C   0  0  1  0  0  0  0  0  0  0  0  0
    1.5976    0.2998    0.2497 C   0  0  0  0  0  0  0  0  0  0  0  0
   -1.1820    1.5520   -0.2526 C   0  0  0  0  0  0  0  0  0  0  0  0
    2.8536   -0.4296   -0.2029 C   0  0  0  0  0  0  0  0  0  0  0  0
    0.2959   -0.6759   -1.1629 H   0  0  0  0  0  0  0  0  0  0  0  0
    0.4145   -1.4924    0.3907 H   0  0  0  0  0  0  0  0  0  0  0  0
   -0.9354    0.2999    1.4817 H   0  0  0  0  0  0  0  0  0  0  0  0
    1.6524    0.4809    1.3292 H   0  0  0  0  0  0  0  0  0  0  0  0
    1.5726    1.2756   -0.2462 H   0  0  0  0  0  0  0  0  0  0  0  0
   -0.4213    2.2713    0.0657 H   0  0  0  0  0  0  0  0  0  0  0  0
   -2.1538    1.9689    0.0344 H   0  0  0  0  0  0  0  0  0  0  0  0
   -1.1546    1.4912   -1.3463 H   0  0  0  0  0  0  0  0  0  0  0  0
    2.8422   -0.5964   -1.2847 H   0  0  0  0  0  0  0  0  0  0  0  0
    2.9439   -1.4007    0.2942 H   0  0  0  0  0  0  0  0  0  0  0  0
    3.7428    0.1603    0.0406 H   0  0  0  0  0  0  0  0  0  0  0  0
  1  3  1  0  0  0  0
  2  3  1  0  0  0  0
  2  4  1  0  0  0  0
  2  7  1  0  0  0  0
  2  8  1  0  0  0  0
  3  5  1  0  0  0  0
  3  9  1  0  0  0  0
  4  6  1  0  0  0  0
  4 10  1  0  0  0  0
  4 11  1  0  0  0  0
  5 12  1  0  0  0  0
  5 13  1  0  0  0  0
  5 14  1  0  0  0  0
  6 15  1  0  0  0  0
  6 16  1  0  0  0  0
  6 17  1  0  0  0  0
M  END
> <PUBCHEM_COMPOUND_CID>
12513

> <PUBCHEM_CONFORMER_RMSD>
0.4

> <PUBCHEM_CONFORMER_DIVERSEORDER>
1
10
9
2
3
4
6
5
8
7

> <PUBCHEM_MMFF94_PARTIAL_CHARGES>
2
1 -0.19
3 0.19

> <PUBCHEM_EFFECTIVE_ROTOR_COUNT>
2

> <PUBCHEM_PHARMACOPHORE_FEATURES>
3
1 1 hydrophobe
1 6 hydrophobe
3 1 3 5 hydrophobe

> <PUBCHEM_HEAVY_ATOM_COUNT>
6

> <PUBCHEM_ATOM_DEF_STEREO_COUNT>
0

> <PUBCHEM_ATOM_UDEF_STEREO_COUNT>
1

> <PUBCHEM_BOND_DEF_STEREO_COUNT>
0

> <PUBCHEM_BOND_UDEF_STEREO_COUNT>
0

> <PUBCHEM_ISOTOPIC_ATOM_COUNT>
0

> <PUBCHEM_COMPONENT_COUNT>
1

> <PUBCHEM_CACTVS_TAUTO_COUNT>
1

> <PUBCHEM_CONFORMER_ID>
000030E100000001

> <PUBCHEM_MMFF94_ENERGY>
2.1436

> <PUBCHEM_FEATURE_SELFOVERLAP>
15.805

> <PUBCHEM_SHAPE_FINGERPRINT>
12897270 3 18413111649498832335
16714656 1 18408604742926011423
21040471 1 17979924026783827193
23552423 10 18201153368569192562
23552449 1 18410859896872024821
29004967 10 18339643309318135211
5460574 1 9799694792138664162

> <PUBCHEM_SHAPE_MULTIPOLES>
135.41
4.31
1.39
0.72
1.07
0.48
0
-1.76
-0.27
-0.71
-0.13
-0.12
-0.02
0.08

> <PUBCHEM_SHAPE_SELFOVERLAP>
212.961

> <PUBCHEM_SHAPE_VOLUME>
99.1

> <PUBCHEM_COORDINATE_TYPE>
2
5
10

$$$$

