7202
  -OEChem-06261201533D

 19 19  0     0  0  0  0  0  0999 V2000
    3.0371    0.8387    0.0001 O   0  0  0  0  0  0  0  0  0  0  0  0
    1.4195   -0.8886   -0.0001 N   0  0  0  0  0  0  0  0  0  0  0  0
   -1.0087   -0.9271    0.0000 C   0  0  0  0  0  0  0  0  0  0  0  0
    0.1932   -0.2191    0.0000 C   0  0  0  0  0  0  0  0  0  0  0  0
   -2.2228   -0.2402    0.0000 C   0  0  0  0  0  0  0  0  0  0  0  0
    0.1808    1.1758   -0.0001 C   0  0  0  0  0  0  0  0  0  0  0  0
   -1.0259   -2.4214    0.0001 C   0  0  0  0  0  0  0  0  0  0  0  0
   -2.2350    1.1547    0.0000 C   0  0  0  0  0  0  0  0  0  0  0  0
   -1.0332    1.8627    0.0000 C   0  0  0  0  0  0  0  0  0  0  0  0
    2.6951   -0.3355    0.0000 C   0  0  0  0  0  0  0  0  0  0  0  0
   -3.1686   -0.7756    0.0000 H   0  0  0  0  0  0  0  0  0  0  0  0
    1.0678    1.7938   -0.0001 H   0  0  0  0  0  0  0  0  0  0  0  0
   -0.5302   -2.8126   -0.8946 H   0  0  0  0  0  0  0  0  0  0  0  0
   -0.5302   -2.8123    0.8948 H   0  0  0  0  0  0  0  0  0  0  0  0
   -2.0483   -2.8155    0.0001 H   0  0  0  0  0  0  0  0  0  0  0  0
   -3.1802    1.6896    0.0000 H   0  0  0  0  0  0  0  0  0  0  0  0
   -1.0442    2.9489    0.0001 H   0  0  0  0  0  0  0  0  0  0  0  0
    1.3850   -1.9042   -0.0002 H   0  0  0  0  0  0  0  0  0  0  0  0
    3.4468   -1.1434    0.0000 H   0  0  0  0  0  0  0  0  0  0  0  0
  1 10  2  0  0  0  0
  2  4  1  0  0  0  0
  2 10  1  0  0  0  0
  2 18  1  0  0  0  0
  3  4  1  0  0  0  0
  3  5  2  0  0  0  0
  3  7  1  0  0  0  0
  4  6  2  0  0  0  0
  5  8  1  0  0  0  0
  5 11  1  0  0  0  0
  6  9  1  0  0  0  0
  6 12  1  0  0  0  0
  7 13  1  0  0  0  0
  7 14  1  0  0  0  0
  7 15  1  0  0  0  0
  8  9  2  0  0  0  0
  8 16  1  0  0  0  0
  9 17  1  0  0  0  0
 10 19  1  0  0  0  0
M  END
> <PUBCHEM_COMPOUND_CID>
7202

> <PUBCHEM_CONFORMER_RMSD>
0.4

> <PUBCHEM_CONFORMER_DIVERSEORDER>
1
5
3
4
6
2

> <PUBCHEM_MMFF94_PARTIAL_CHARGES>
16
1 -0.57
10 0.57
11 0.15
12 0.15
16 0.15
17 0.15
18 0.37
19 0.06
2 -0.55
3 -0.14
4 0.12
5 -0.15
6 -0.15
7 0.14
8 -0.15
9 -0.15

> <PUBCHEM_EFFECTIVE_ROTOR_COUNT>
2

> <PUBCHEM_PHARMACOPHORE_FEATURES>
3
1 1 acceptor
1 2 donor
6 3 4 5 6 8 9 rings

> <PUBCHEM_HEAVY_ATOM_COUNT>
10

> <PUBCHEM_ATOM_DEF_STEREO_COUNT>
0

> <PUBCHEM_ATOM_UDEF_STEREO_COUNT>
0

> <PUBCHEM_BOND_DEF_STEREO_COUNT>
0

> <PUBCHEM_BOND_UDEF_STEREO_COUNT>
0

> <PUBCHEM_ISOTOPIC_ATOM_COUNT>
0

> <PUBCHEM_COMPONENT_COUNT>
1

> <PUBCHEM_CACTVS_TAUTO_COUNT>
2

> <PUBCHEM_CONFORMER_ID>
00001C2200000001

> <PUBCHEM_MMFF94_ENERGY>
28.0662

> <PUBCHEM_FEATURE_SELFOVERLAP>
15.223

> <PUBCHEM_SHAPE_FINGERPRINT>
12716758 59 18408882970917995778
13024252 1 14979954783027249893
14325111 11 18338797934852129472
16945 1 18410856533885907493
193761 8 17834394523594903173
20871998 184 18188484670992498391
21040471 1 18338799042948254694
23552423 10 17984140361950375932
241688 4 15744166319902658819
2748010 2 18267581505964161943
369184 2 16415761937747410736
5084963 1 17898015873760167698
6333449 129 18408888425346996680

> <PUBCHEM_SHAPE_MULTIPOLES>
194.94
3.6
2.1
0.6
2.7
0.66
0
-0.65
0
-0.92
0
-0.04
0
0

> <PUBCHEM_SHAPE_SELFOVERLAP>
401.756

> <PUBCHEM_SHAPE_VOLUME>
110.5

> <PUBCHEM_COORDINATE_TYPE>
2
5
10

$$$$

