17395841
  -OEChem-06241222523D

 43 45  0     0  0  0  0  0  0999 V2000
   -7.2548    2.2094   -0.5549 Cl  0  0  0  0  0  0  0  0  0  0  0  0
    3.3057   -2.1331   -0.9109 O   0  0  0  0  0  0  0  0  0  0  0  0
    2.2196    0.2005    2.3264 O   0  5  0  0  0  0  0  0  0  0  0  0
    4.1176   -0.9008    2.2647 O   0  0  0  0  0  0  0  0  0  0  0  0
   -1.5307   -1.2376   -0.1038 N   0  0  0  0  0  0  0  0  0  0  0  0
    1.2287   -1.0620   -0.8513 N   0  0  0  0  0  0  0  0  0  0  0  0
    3.3245   -0.0532    1.7919 N   0  3  0  0  0  0  0  0  0  0  0  0
   -0.6802   -2.4368   -0.1039 C   0  0  0  0  0  0  0  0  0  0  0  0
   -0.7410   -0.0480    0.2457 C   0  0  0  0  0  0  0  0  0  0  0  0
    0.4669   -2.2835   -1.1014 C   0  0  0  0  0  0  0  0  0  0  0  0
    0.4157    0.1538   -0.7357 C   0  0  0  0  0  0  0  0  0  0  0  0
   -2.6500   -1.4018    0.8229 C   0  0  0  0  0  0  0  0  0  0  0  0
    2.6241   -1.1136   -0.8139 C   0  0  0  0  0  0  0  0  0  0  0  0
   -3.8008   -0.5009    0.4792 C   0  0  0  0  0  0  0  0  0  0  0  0
    3.3609    0.1470   -0.6534 C   0  0  0  0  0  0  0  0  0  0  0  0
   -3.8726    0.7788    1.0297 C   0  0  0  0  0  0  0  0  0  0  0  0
   -4.7975   -0.9431   -0.3907 C   0  0  0  0  0  0  0  0  0  0  0  0
    3.6909    0.6447    0.6073 C   0  0  0  0  0  0  0  0  0  0  0  0
    3.7316    0.8501   -1.7997 C   0  0  0  0  0  0  0  0  0  0  0  0
   -4.9411    1.6164    0.7102 C   0  0  0  0  0  0  0  0  0  0  0  0
   -5.8662   -0.1054   -0.7102 C   0  0  0  0  0  0  0  0  0  0  0  0
    4.3919    1.8454    0.7214 C   0  0  0  0  0  0  0  0  0  0  0  0
   -5.9380    1.1744   -0.1596 C   0  0  0  0  0  0  0  0  0  0  0  0
    4.4324    2.0509   -1.6854 C   0  0  0  0  0  0  0  0  0  0  0  0
    4.7624    2.5485   -0.4249 C   0  0  0  0  0  0  0  0  0  0  0  0
   -1.2671   -3.3173   -0.3919 H   0  0  0  0  0  0  0  0  0  0  0  0
   -0.2746   -2.6215    0.8999 H   0  0  0  0  0  0  0  0  0  0  0  0
   -0.3454   -0.1330    1.2658 H   0  0  0  0  0  0  0  0  0  0  0  0
   -1.3473    0.8607    0.1994 H   0  0  0  0  0  0  0  0  0  0  0  0
    1.1186   -3.1620   -1.0550 H   0  0  0  0  0  0  0  0  0  0  0  0
    0.0793   -2.2182   -2.1256 H   0  0  0  0  0  0  0  0  0  0  0  0
    0.0304    0.3751   -1.7389 H   0  0  0  0  0  0  0  0  0  0  0  0
    1.0128    1.0128   -0.4221 H   0  0  0  0  0  0  0  0  0  0  0  0
   -3.0276   -2.4334    0.7829 H   0  0  0  0  0  0  0  0  0  0  0  0
   -2.3439   -1.2571    1.8684 H   0  0  0  0  0  0  0  0  0  0  0  0
   -3.1138    1.1330    1.7222 H   0  0  0  0  0  0  0  0  0  0  0  0
   -4.7524   -1.9368   -0.8286 H   0  0  0  0  0  0  0  0  0  0  0  0
    3.4799    0.4731   -2.7877 H   0  0  0  0  0  0  0  0  0  0  0  0
   -4.9858    2.6097    1.1492 H   0  0  0  0  0  0  0  0  0  0  0  0
   -6.6352   -0.4626   -1.3902 H   0  0  0  0  0  0  0  0  0  0  0  0
    4.6562    2.2460    1.6971 H   0  0  0  0  0  0  0  0  0  0  0  0
    4.7207    2.5985   -2.5779 H   0  0  0  0  0  0  0  0  0  0  0  0
    5.3078    3.4834   -0.3361 H   0  0  0  0  0  0  0  0  0  0  0  0
  1 23  1  0  0  0  0
  2 13  2  0  0  0  0
  3  7  1  0  0  0  0
  4  7  2  0  0  0  0
  5  8  1  0  0  0  0
  5  9  1  0  0  0  0
  5 12  1  0  0  0  0
  6 10  1  0  0  0  0
  6 11  1  0  0  0  0
  6 13  1  0  0  0  0
  7 18  1  0  0  0  0
  8 10  1  0  0  0  0
  8 26  1  0  0  0  0
  8 27  1  0  0  0  0
  9 11  1  0  0  0  0
  9 28  1  0  0  0  0
  9 29  1  0  0  0  0
 10 30  1  0  0  0  0
 10 31  1  0  0  0  0
 11 32  1  0  0  0  0
 11 33  1  0  0  0  0
 12 14  1  0  0  0  0
 12 34  1  0  0  0  0
 12 35  1  0  0  0  0
 13 15  1  0  0  0  0
 14 16  2  0  0  0  0
 14 17  1  0  0  0  0
 15 18  1  0  0  0  0
 15 19  2  0  0  0  0
 16 20  1  0  0  0  0
 16 36  1  0  0  0  0
 17 21  2  0  0  0  0
 17 37  1  0  0  0  0
 18 22  2  0  0  0  0
 19 24  1  0  0  0  0
 19 38  1  0  0  0  0
 20 23  2  0  0  0  0
 20 39  1  0  0  0  0
 21 23  1  0  0  0  0
 21 40  1  0  0  0  0
 22 25  1  0  0  0  0
 22 41  1  0  0  0  0
 24 25  2  0  0  0  0
 24 42  1  0  0  0  0
 25 43  1  0  0  0  0
M  CHG  2   3  -1   7   1
M  END
> <PUBCHEM_COMPOUND_CID>
17395841

> <PUBCHEM_CONFORMER_RMSD>
0.8

> <PUBCHEM_CONFORMER_DIVERSEORDER>
1
54
34
25
39
28
81
72
84
55
49
22
69
78
15
19
41
66
63
45
83
62
38
58
65
76
3
42
52
5
85
56
53
79
27
57
30
89
14
75
60
68
17
87
73
61
77
40
86
74
43
59
44
2
11
21
24
82
51
32
47
35
48
64
12
6
26
20
80
67
36
37
46
13
4
50
31
71
88
10
23
7
9
8
18
70
33
29
16

> <PUBCHEM_MMFF94_PARTIAL_CHARGES>
33
1 -0.18
10 0.3
11 0.3
12 0.41
13 0.54
14 -0.14
15 0.09
16 -0.15
17 -0.15
18 0.13
19 -0.15
2 -0.57
20 -0.15
21 -0.15
22 -0.15
23 0.18
24 -0.15
25 -0.15
3 -0.52
36 0.15
37 0.15
38 0.15
39 0.15
4 -0.52
40 0.15
41 0.15
42 0.15
43 0.15
5 -0.81
6 -0.66
7 0.91
8 0.27
9 0.27

> <PUBCHEM_EFFECTIVE_ROTOR_COUNT>
6.2

> <PUBCHEM_PHARMACOPHORE_FEATURES>
8
1 2 acceptor
1 3 acceptor
1 3 anion
1 4 acceptor
1 5 cation
6 14 16 17 20 21 23 rings
6 15 18 19 22 24 25 rings
6 5 6 8 9 10 11 rings

> <PUBCHEM_HEAVY_ATOM_COUNT>
25

> <PUBCHEM_ATOM_DEF_STEREO_COUNT>
0

> <PUBCHEM_ATOM_UDEF_STEREO_COUNT>
0

> <PUBCHEM_BOND_DEF_STEREO_COUNT>
0

> <PUBCHEM_BOND_UDEF_STEREO_COUNT>
0

> <PUBCHEM_ISOTOPIC_ATOM_COUNT>
0

> <PUBCHEM_COMPONENT_COUNT>
1

> <PUBCHEM_CACTVS_TAUTO_COUNT>
1

> <PUBCHEM_CONFORMER_ID>
0109708100000001

> <PUBCHEM_MMFF94_ENERGY>
72.7543

> <PUBCHEM_FEATURE_SELFOVERLAP>
40.676

> <PUBCHEM_SHAPE_FINGERPRINT>
10498660 4 17968930890891938888
10670039 82 18115009879665667572
10674148 151 17916008085803781052
10928967 22 8646488479909009077
11128504 68 4895551900679644347
11595378 159 17632577184110290101
12403259 415 18336250293897483279
12422481 6 17060342967805379277
12596602 18 17704069560784029937
12670546 56 17275391997211040055
12778500 126 17989211473308695288
13583140 156 17131264633045142953
13673619 4 15984274066337559362
13675066 3 14908186334962460679
13878862 14 18339654437356873205
13965767 371 18270973336786756260
14211702 104 10662941154559216497
14251758 9 14907908197391590675
14251764 30 8646768902744884405
14341114 176 11383820589979644671
14341114 328 17488744446342864468
14347329 18 18261381243973506704
14420673 8 10087656905176562165
14528608 73 17967529065027069301
14848178 96 18261384572604516977
15210252 30 18187356585411928848
15238133 3 18409736127938523696
1601671 61 18410568453508322476
16067690 210 17632579396462137289
1813 80 8286193955688933659
20567600 247 6266630771254827492
20691028 202 17972312091723976849
20715895 44 18412261761597309141
20775438 99 5039078845444546828
21033648 29 18041278777321488171
22393880 68 17167861937510362175
22950370 63 8935002577315434839
23559900 14 18262229031937306494
268830 7 17917999347513968423
2748736 6 18341338898589274445
2838139 119 18335421240254097949
3388396 114 4750314193068798450
341906 21 18410292475999735563
3472631 163 18201718440521015409
34797466 226 15213027042149450385
350125 39 18337946883520553406
3680242 22 17989205992798790269
44062 13 7853313990028817667
44317340 157 18114457968352742495
465052 167 10952054450588252312
495365 180 17530966899529941174
5104073 3 17632855317976588531
633830 44 18272088296774046935
7808743 9 18190459347037213592
7970288 3 9582702856762193212
9841814 1 11671779347719786734

> <PUBCHEM_SHAPE_MULTIPOLES>
483.81
15.65
2.57
1.64
19.34
0.08
-0.62
11.64
1.18
-0.61
0.64
-2.26
0.05
-0.38

> <PUBCHEM_SHAPE_SELFOVERLAP>
1025.933

> <PUBCHEM_SHAPE_VOLUME>
270.9

> <PUBCHEM_COORDINATE_TYPE>
2
5
10

$$$$

