14384
  -OEChem-06241222433D

 39 40  0     0  0  0  0  0  0999 V2000
    0.0838    0.7480   -1.1720 O   0  0  0  0  0  0  0  0  0  0  0  0
    3.5520   -2.0161    0.3712 O   0  0  0  0  0  0  0  0  0  0  0  0
    4.2296    2.4808   -0.2412 O   0  0  0  0  0  0  0  0  0  0  0  0
   -3.5372    0.4491    0.4403 N   0  0  0  0  0  0  0  0  0  0  0  0
    2.1269    1.6280   -0.6119 N   0  0  0  0  0  0  0  0  0  0  0  0
    3.8596    0.2472    0.1583 N   0  0  0  0  0  0  0  0  0  0  0  0
   -5.3568    0.6163   -1.0125 C   0  0  0  0  0  0  0  0  0  0  0  0
   -4.2557   -0.1974   -1.6855 C   0  0  0  0  0  0  0  0  0  0  0  0
   -4.9868    0.6420    0.4631 C   0  0  0  0  0  0  0  0  0  0  0  0
   -3.3084   -0.5914   -0.5618 C   0  0  0  0  0  0  0  0  0  0  0  0
    1.5703   -0.6357    0.1532 C   0  0  0  0  0  0  0  0  0  0  0  0
    0.8642   -1.8585   -0.4503 C   0  0  0  0  0  0  0  0  0  0  0  0
    1.0882   -0.4329    1.6006 C   0  0  0  0  0  0  0  0  0  0  0  0
   -3.0038    0.0900    1.7459 C   0  0  0  0  0  0  0  0  0  0  0  0
    1.1795    0.6154   -0.6273 C   0  0  0  0  0  0  0  0  0  0  0  0
    3.0726   -0.8935    0.2148 C   0  0  0  0  0  0  0  0  0  0  0  0
    1.2785   -2.0710   -1.8902 C   0  0  0  0  0  0  0  0  0  0  0  0
   -0.3605   -0.2482    1.6375 C   0  0  0  0  0  0  0  0  0  0  0  0
   -1.5509   -0.0949    1.6844 C   0  0  0  0  0  0  0  0  0  0  0  0
    3.4550    1.5227   -0.2166 C   0  0  0  0  0  0  0  0  0  0  0  0
   -5.3739    1.6310   -1.4274 H   0  0  0  0  0  0  0  0  0  0  0  0
   -6.3444    0.1719   -1.1714 H   0  0  0  0  0  0  0  0  0  0  0  0
   -4.6578   -1.0770   -2.1984 H   0  0  0  0  0  0  0  0  0  0  0  0
   -3.7412    0.4207   -2.4308 H   0  0  0  0  0  0  0  0  0  0  0  0
   -5.2705    1.5889    0.9331 H   0  0  0  0  0  0  0  0  0  0  0  0
   -5.4984   -0.1757    0.9870 H   0  0  0  0  0  0  0  0  0  0  0  0
   -3.5769   -1.5875   -0.1865 H   0  0  0  0  0  0  0  0  0  0  0  0
   -2.2781   -0.6201   -0.9253 H   0  0  0  0  0  0  0  0  0  0  0  0
   -0.2263   -1.7613   -0.4380 H   0  0  0  0  0  0  0  0  0  0  0  0
    1.0982   -2.7644    0.1236 H   0  0  0  0  0  0  0  0  0  0  0  0
    1.5761    0.4389    2.0553 H   0  0  0  0  0  0  0  0  0  0  0  0
    1.3661   -1.2950    2.2205 H   0  0  0  0  0  0  0  0  0  0  0  0
   -3.4741   -0.8223    2.1345 H   0  0  0  0  0  0  0  0  0  0  0  0
   -3.2237    0.8919    2.4611 H   0  0  0  0  0  0  0  0  0  0  0  0
    0.9895   -1.2408   -2.5409 H   0  0  0  0  0  0  0  0  0  0  0  0
    2.3556   -2.2286   -1.9982 H   0  0  0  0  0  0  0  0  0  0  0  0
    0.7849   -2.9670   -2.2830 H   0  0  0  0  0  0  0  0  0  0  0  0
    1.8430    2.5213   -1.0046 H   0  0  0  0  0  0  0  0  0  0  0  0
    4.8528    0.1226    0.3333 H   0  0  0  0  0  0  0  0  0  0  0  0
  1 15  2  0  0  0  0
  2 16  2  0  0  0  0
  3 20  2  0  0  0  0
  4  9  1  0  0  0  0
  4 10  1  0  0  0  0
  4 14  1  0  0  0  0
  5 15  1  0  0  0  0
  5 20  1  0  0  0  0
  5 38  1  0  0  0  0
  6 16  1  0  0  0  0
  6 20  1  0  0  0  0
  6 39  1  0  0  0  0
  7  8  1  0  0  0  0
  7  9  1  0  0  0  0
  7 21  1  0  0  0  0
  7 22  1  0  0  0  0
  8 10  1  0  0  0  0
  8 23  1  0  0  0  0
  8 24  1  0  0  0  0
  9 25  1  0  0  0  0
  9 26  1  0  0  0  0
 10 27  1  0  0  0  0
 10 28  1  0  0  0  0
 11 12  1  0  0  0  0
 11 13  1  0  0  0  0
 11 15  1  0  0  0  0
 11 16  1  0  0  0  0
 12 17  1  0  0  0  0
 12 29  1  0  0  0  0
 12 30  1  0  0  0  0
 13 18  1  0  0  0  0
 13 31  1  0  0  0  0
 13 32  1  0  0  0  0
 14 19  1  0  0  0  0
 14 33  1  0  0  0  0
 14 34  1  0  0  0  0
 17 35  1  0  0  0  0
 17 36  1  0  0  0  0
 17 37  1  0  0  0  0
 18 19  3  0  0  0  0
M  END
> <PUBCHEM_COMPOUND_CID>
14384

> <PUBCHEM_CONFORMER_RMSD>
0.6

> <PUBCHEM_CONFORMER_DIVERSEORDER>
1
12
18
14
2
8
21
27
17
10
22
23
7
5
26
19
6
11
20
25
16
13
9
15
24
3
4

> <PUBCHEM_MMFF94_PARTIAL_CHARGES>
18
1 -0.57
10 0.27
11 0.12
13 0.2
14 0.47
15 0.57
16 0.57
18 -0.2
19 -0.2
2 -0.57
20 0.69
3 -0.57
38 0.37
39 0.37
4 -0.81
5 -0.49
6 -0.49
9 0.27

> <PUBCHEM_EFFECTIVE_ROTOR_COUNT>
4.6

> <PUBCHEM_PHARMACOPHORE_FEATURES>
9
1 1 acceptor
1 17 hydrophobe
1 2 acceptor
1 3 acceptor
1 4 cation
1 5 donor
1 6 donor
5 4 7 8 9 10 rings
6 5 6 11 15 16 20 rings

> <PUBCHEM_HEAVY_ATOM_COUNT>
20

> <PUBCHEM_ATOM_DEF_STEREO_COUNT>
0

> <PUBCHEM_ATOM_UDEF_STEREO_COUNT>
0

> <PUBCHEM_BOND_DEF_STEREO_COUNT>
0

> <PUBCHEM_BOND_UDEF_STEREO_COUNT>
0

> <PUBCHEM_ISOTOPIC_ATOM_COUNT>
0

> <PUBCHEM_COMPONENT_COUNT>
1

> <PUBCHEM_CACTVS_TAUTO_COUNT>
5

> <PUBCHEM_CONFORMER_ID>
0000383000000001

> <PUBCHEM_MMFF94_ENERGY>
42.2852

> <PUBCHEM_FEATURE_SELFOVERLAP>
45.71

> <PUBCHEM_SHAPE_FINGERPRINT>
10646746 165 16988841665946426769
10759866 29 17530961406181886615
11069576 57 17387426850767416703
11961588 58 16806452397263316096
12011746 2 18130776885445698894
12119455 92 18340768144189152376
12236239 1 17749110002069135428
12403259 415 17417800747487984953
12553582 1 16370438948070714123
13134695 92 18343580772168581056
13675066 3 16630519635674745795
14178342 30 15410325529860895056
14863182 85 16950844812013121118
15375358 24 17847063276937743709
15537594 2 16660359269431329447
16945 1 18270950281354610978
1813 80 17826218877443797510
18186145 218 17560797758203355681
20645477 70 18341326772936196539
21033648 29 17060618888872534177
22892500 29 17917713508897886002
23419403 2 15623453906328071282
23557571 272 17274807035755929507
23559900 14 16988839514806335714
2838139 119 18270966743558763180
5895379 119 17907879631518452041

> <PUBCHEM_SHAPE_MULTIPOLES>
379.04
9.74
1.85
1.73
9.02
0.81
0.28
-2.15
-2.99
-1.99
-0.55
0.41
-0.28
-1.63

> <PUBCHEM_SHAPE_SELFOVERLAP>
786.744

> <PUBCHEM_SHAPE_VOLUME>
213.2

> <PUBCHEM_COORDINATE_TYPE>
2
5
10

$$$$

