17395910
  -OEChem-06241222532D

 45 47  0     0  0  0  0  0  0999 V2000
    4.5981   -1.2500    0.0000 O   0  0  0  0  0  0  0  0  0  0  0  0
    8.0622    2.7500    0.0000 O   0  0  0  0  0  0  0  0  0  0  0  0
    3.7320    3.2500    0.0000 O   0  0  0  0  0  0  0  0  0  0  0  0
    2.8660   -0.2500    0.0000 O   0  0  0  0  0  0  0  0  0  0  0  0
    5.4641    3.2500    0.0000 N   0  0  0  0  0  0  0  0  0  0  0  0
    7.1962    4.2500    0.0000 N   0  0  0  0  0  0  0  0  0  0  0  0
    5.4641    4.2500    0.0000 C   0  0  0  0  0  0  0  0  0  0  0  0
    6.3301    4.7500    0.0000 C   0  0  0  0  0  0  0  0  0  0  0  0
    6.3301    2.7500    0.0000 C   0  0  0  0  0  0  0  0  0  0  0  0
    7.1962    3.2500    0.0000 C   0  0  0  0  0  0  0  0  0  0  0  0
    4.5981    2.7500    0.0000 C   0  0  0  0  0  0  0  0  0  0  0  0
    4.5981    1.7500    0.0000 C   0  0  0  0  0  0  0  0  0  0  0  0
    3.7320    1.2500    0.0000 C   0  0  0  0  0  0  0  0  0  0  0  0
    5.4641    1.2500    0.0000 C   0  0  0  0  0  0  0  0  0  0  0  0
    3.7320    0.2500    0.0000 C   0  0  0  0  0  0  0  0  0  0  0  0
    4.5981   -0.2500    0.0000 C   0  0  0  0  0  0  0  0  0  0  0  0
    5.4641    0.2500    0.0000 C   0  0  0  0  0  0  0  0  0  0  0  0
    5.4641   -1.7500    0.0000 C   0  0  0  0  0  0  0  0  0  0  0  0
    5.4641   -2.7500    0.0000 C   0  0  0  0  0  0  0  0  0  0  0  0
    4.5981   -3.2500    0.0000 C   0  0  0  0  0  0  0  0  0  0  0  0
    6.3301   -3.2500    0.0000 C   0  0  0  0  0  0  0  0  0  0  0  0
    4.5981   -4.2500    0.0000 C   0  0  0  0  0  0  0  0  0  0  0  0
    6.3301   -4.2500    0.0000 C   0  0  0  0  0  0  0  0  0  0  0  0
    2.0000    0.2500    0.0000 C   0  0  0  0  0  0  0  0  0  0  0  0
    5.4641   -4.7500    0.0000 C   0  0  0  0  0  0  0  0  0  0  0  0
    5.2520    4.8326    0.0000 H   0  0  0  0  0  0  0  0  0  0  0  0
    4.8535    4.1423    0.0000 H   0  0  0  0  0  0  0  0  0  0  0  0
    6.7287    5.2250    0.0000 H   0  0  0  0  0  0  0  0  0  0  0  0
    5.9316    5.2250    0.0000 H   0  0  0  0  0  0  0  0  0  0  0  0
    5.9316    2.2750    0.0000 H   0  0  0  0  0  0  0  0  0  0  0  0
    6.7287    2.2750    0.0000 H   0  0  0  0  0  0  0  0  0  0  0  0
    7.7331    4.5600    0.0000 H   0  0  0  0  0  0  0  0  0  0  0  0
    3.1951    1.5600    0.0000 H   0  0  0  0  0  0  0  0  0  0  0  0
    6.0010    1.5600    0.0000 H   0  0  0  0  0  0  0  0  0  0  0  0
    6.0010   -0.0600    0.0000 H   0  0  0  0  0  0  0  0  0  0  0  0
    6.0747   -1.8577    0.0000 H   0  0  0  0  0  0  0  0  0  0  0  0
    5.6762   -1.1674    0.0000 H   0  0  0  0  0  0  0  0  0  0  0  0
    4.0611   -2.9400    0.0000 H   0  0  0  0  0  0  0  0  0  0  0  0
    6.8671   -2.9400    0.0000 H   0  0  0  0  0  0  0  0  0  0  0  0
    4.0611   -4.5600    0.0000 H   0  0  0  0  0  0  0  0  0  0  0  0
    6.8671   -4.5600    0.0000 H   0  0  0  0  0  0  0  0  0  0  0  0
    2.3100    0.7869    0.0000 H   0  0  0  0  0  0  0  0  0  0  0  0
    1.4631    0.5600    0.0000 H   0  0  0  0  0  0  0  0  0  0  0  0
    1.6900   -0.2869    0.0000 H   0  0  0  0  0  0  0  0  0  0  0  0
    5.4641   -5.3700    0.0000 H   0  0  0  0  0  0  0  0  0  0  0  0
  1 16  1  0  0  0  0
  1 18  1  0  0  0  0
  2 10  2  0  0  0  0
  3 11  2  0  0  0  0
  4 15  1  0  0  0  0
  4 24  1  0  0  0  0
  5  7  1  0  0  0  0
  5  9  1  0  0  0  0
  5 11  1  0  0  0  0
  6  8  1  0  0  0  0
  6 10  1  0  0  0  0
  6 32  1  0  0  0  0
  7  8  1  0  0  0  0
  7 26  1  0  0  0  0
  7 27  1  0  0  0  0
  8 28  1  0  0  0  0
  8 29  1  0  0  0  0
  9 10  1  0  0  0  0
  9 30  1  0  0  0  0
  9 31  1  0  0  0  0
 11 12  1  0  0  0  0
 12 13  2  0  0  0  0
 12 14  1  0  0  0  0
 13 15  1  0  0  0  0
 13 33  1  0  0  0  0
 14 17  2  0  0  0  0
 14 34  1  0  0  0  0
 15 16  2  0  0  0  0
 16 17  1  0  0  0  0
 17 35  1  0  0  0  0
 18 19  1  0  0  0  0
 18 36  1  0  0  0  0
 18 37  1  0  0  0  0
 19 20  2  0  0  0  0
 19 21  1  0  0  0  0
 20 22  1  0  0  0  0
 20 38  1  0  0  0  0
 21 23  2  0  0  0  0
 21 39  1  0  0  0  0
 22 25  2  0  0  0  0
 22 40  1  0  0  0  0
 23 25  1  0  0  0  0
 23 41  1  0  0  0  0
 24 42  1  0  0  0  0
 24 43  1  0  0  0  0
 24 44  1  0  0  0  0
 25 45  1  0  0  0  0
M  END
> <PUBCHEM_COMPOUND_CID>
17395910

> <PUBCHEM_COMPOUND_CANONICALIZED>
1

> <PUBCHEM_CACTVS_COMPLEXITY>
464

> <PUBCHEM_CACTVS_HBOND_ACCEPTOR>
4

> <PUBCHEM_CACTVS_HBOND_DONOR>
1

> <PUBCHEM_CACTVS_ROTATABLE_BOND>
5

> <PUBCHEM_CACTVS_SUBSKEYS>
AAADceB7OAAAAAAAAAAAAAAAAAAAAAAAAAA8YIAAAAAAAAABQAAAHgAQAAAADAThmAYyBoPABACIAiFSEACCCAAkIAAIiIGOjMgNZjKEtTuWOSrk1hGKqYe63DLOIAABAAAAQABAAAIAAACAAAAAAAAAAA==

> <PUBCHEM_IUPAC_OPENEYE_NAME>
4-(4-benzyloxy-3-methoxy-benzoyl)piperazin-2-one

> <PUBCHEM_IUPAC_CAS_NAME>
4-[(3-methoxy-4-phenylmethoxyphenyl)-oxomethyl]-2-piperazinone

> <PUBCHEM_IUPAC_NAME>
4-(3-methoxy-4-phenylmethoxybenzoyl)piperazin-2-one

> <PUBCHEM_IUPAC_SYSTEMATIC_NAME>
4-(3-methoxy-4-phenylmethoxy-phenyl)carbonylpiperazin-2-one

> <PUBCHEM_IUPAC_TRADITIONAL_NAME>
4-(4-benzoxy-3-methoxy-benzoyl)piperazin-2-one

> <PUBCHEM_IUPAC_INCHI>
InChI=1S/C19H20N2O4/c1-24-17-11-15(19(23)21-10-9-20-18(22)12-21)7-8-16(17)25-13-14-5-3-2-4-6-14/h2-8,11H,9-10,12-13H2,1H3,(H,20,22)

> <PUBCHEM_IUPAC_INCHIKEY>
DPXLPOZLUFODIP-UHFFFAOYSA-N

> <PUBCHEM_XLOGP3_AA>
1.9

> <PUBCHEM_EXACT_MASS>
340.142307

> <PUBCHEM_MOLECULAR_FORMULA>
C19H20N2O4

> <PUBCHEM_MOLECULAR_WEIGHT>
340.3731

> <PUBCHEM_OPENEYE_CAN_SMILES>
COC1=C(C=CC(=C1)C(=O)N2CCNC(=O)C2)OCC3=CC=CC=C3

> <PUBCHEM_OPENEYE_ISO_SMILES>
COC1=C(C=CC(=C1)C(=O)N2CCNC(=O)C2)OCC3=CC=CC=C3

> <PUBCHEM_CACTVS_TPSA>
67.9

> <PUBCHEM_MONOISOTOPIC_WEIGHT>
340.142307

> <PUBCHEM_TOTAL_CHARGE>
0

> <PUBCHEM_HEAVY_ATOM_COUNT>
25

> <PUBCHEM_ATOM_DEF_STEREO_COUNT>
0

> <PUBCHEM_ATOM_UDEF_STEREO_COUNT>
0

> <PUBCHEM_BOND_DEF_STEREO_COUNT>
0

> <PUBCHEM_BOND_UDEF_STEREO_COUNT>
0

> <PUBCHEM_ISOTOPIC_ATOM_COUNT>
0

> <PUBCHEM_COMPONENT_COUNT>
1

> <PUBCHEM_CACTVS_TAUTO_COUNT>
3

> <PUBCHEM_COORDINATE_TYPE>
1
5
255

> <PUBCHEM_BONDANNOTATIONS>
12  13  8
12  14  8
13  15  8
14  17  8
15  16  8
16  17  8
19  20  8
19  21  8
20  22  8
21  23  8
22  25  8
23  25  8

$$$$

