17395259
  -OEChem-06241222493D

 50 52  0     0  0  0  0  0  0999 V2000
    1.3367   -1.7616   -3.3465 S   0  0  0  0  0  0  0  0  0  0  0  0
    1.9659   -1.0294    1.2200 O   0  0  0  0  0  0  0  0  0  0  0  0
    3.7072    0.2950   -1.3153 O   0  0  0  0  0  0  0  0  0  0  0  0
   -3.3204    2.0327   -0.0819 O   0  0  0  0  0  0  0  0  0  0  0  0
    2.9966    1.6731    0.4031 N   0  0  0  0  0  0  0  0  0  0  0  0
    0.8742   -1.0172   -0.7475 C   0  0  0  0  0  0  0  0  0  0  0  0
    0.2244   -1.9443    0.1094 C   0  0  0  0  0  0  0  0  0  0  0  0
    1.9216   -0.4916   -0.0269 C   0  0  0  0  0  0  0  0  0  0  0  0
    0.9334   -1.9146    1.3059 C   0  0  0  0  0  0  0  0  0  0  0  0
    2.1011    1.9871    1.5153 C   0  0  0  0  0  0  0  0  0  0  0  0
    2.9121    0.4740   -0.3649 C   0  0  0  0  0  0  0  0  0  0  0  0
    0.5004   -0.6843   -2.1360 C   0  0  0  0  0  0  0  0  0  0  0  0
    0.6611    1.9997    1.0908 C   0  0  0  0  0  0  0  0  0  0  0  0
   -0.8833   -2.8039    0.0063 C   0  0  0  0  0  0  0  0  0  0  0  0
    0.6169   -2.6880    2.4212 C   0  0  0  0  0  0  0  0  0  0  0  0
    3.9944    2.6897    0.0959 C   0  0  0  0  0  0  0  0  0  0  0  0
   -1.2260   -3.5948    1.1117 C   0  0  0  0  0  0  0  0  0  0  0  0
   -0.4876   -3.5360    2.2964 C   0  0  0  0  0  0  0  0  0  0  0  0
   -0.3028    1.3685    1.8770 C   0  0  0  0  0  0  0  0  0  0  0  0
    0.2869    2.6420   -0.0896 C   0  0  0  0  0  0  0  0  0  0  0  0
   -1.6408    1.3797    1.4831 C   0  0  0  0  0  0  0  0  0  0  0  0
   -1.0512    2.6532   -0.4835 C   0  0  0  0  0  0  0  0  0  0  0  0
   -2.0150    2.0221    0.3029 C   0  0  0  0  0  0  0  0  0  0  0  0
    0.6330   -1.0494   -4.8499 C   0  0  0  0  0  0  0  0  0  0  0  0
   -4.1214    0.9181    0.3079 C   0  0  0  0  0  0  0  0  0  0  0  0
   -5.2189    0.7441   -0.6887 C   0  0  0  0  0  0  0  0  0  0  0  0
   -5.3986   -0.3638   -1.4162 C   0  0  0  0  0  0  0  0  0  0  0  0
    2.2790    1.2433    2.2998 H   0  0  0  0  0  0  0  0  0  0  0  0
    2.3562    2.9673    1.9358 H   0  0  0  0  0  0  0  0  0  0  0  0
   -0.5825   -0.7826   -2.2691 H   0  0  0  0  0  0  0  0  0  0  0  0
    0.7607    0.3557   -2.3606 H   0  0  0  0  0  0  0  0  0  0  0  0
   -1.4688   -2.8616   -0.9063 H   0  0  0  0  0  0  0  0  0  0  0  0
    1.1940   -2.6362    3.3368 H   0  0  0  0  0  0  0  0  0  0  0  0
    4.6238    2.8408    0.9779 H   0  0  0  0  0  0  0  0  0  0  0  0
    4.6286    2.3958   -0.7436 H   0  0  0  0  0  0  0  0  0  0  0  0
    3.4850    3.6242   -0.1566 H   0  0  0  0  0  0  0  0  0  0  0  0
   -2.0804   -4.2634    1.0450 H   0  0  0  0  0  0  0  0  0  0  0  0
   -0.7772   -4.1607    3.1377 H   0  0  0  0  0  0  0  0  0  0  0  0
   -0.0266    0.8731    2.8040 H   0  0  0  0  0  0  0  0  0  0  0  0
    1.0179    3.1488   -0.7132 H   0  0  0  0  0  0  0  0  0  0  0  0
   -2.3622    0.9001    2.1379 H   0  0  0  0  0  0  0  0  0  0  0  0
   -1.3370    3.1560   -1.4033 H   0  0  0  0  0  0  0  0  0  0  0  0
   -0.4555   -1.1501   -4.8468 H   0  0  0  0  0  0  0  0  0  0  0  0
    0.9050    0.0058   -4.9359 H   0  0  0  0  0  0  0  0  0  0  0  0
    1.0278   -1.5812   -5.7196 H   0  0  0  0  0  0  0  0  0  0  0  0
   -3.5307   -0.0060    0.3609 H   0  0  0  0  0  0  0  0  0  0  0  0
   -4.5617    1.1197    1.2911 H   0  0  0  0  0  0  0  0  0  0  0  0
   -5.9107    1.5720   -0.8203 H   0  0  0  0  0  0  0  0  0  0  0  0
   -4.7383   -1.2190   -1.3228 H   0  0  0  0  0  0  0  0  0  0  0  0
   -6.2182   -0.4289   -2.1235 H   0  0  0  0  0  0  0  0  0  0  0  0
  1 12  1  0  0  0  0
  1 24  1  0  0  0  0
  2  8  1  0  0  0  0
  2  9  1  0  0  0  0
  3 11  2  0  0  0  0
  4 23  1  0  0  0  0
  4 25  1  0  0  0  0
  5 10  1  0  0  0  0
  5 11  1  0  0  0  0
  5 16  1  0  0  0  0
  6  7  1  0  0  0  0
  6  8  2  0  0  0  0
  6 12  1  0  0  0  0
  7  9  1  0  0  0  0
  7 14  2  0  0  0  0
  8 11  1  0  0  0  0
  9 15  2  0  0  0  0
 10 13  1  0  0  0  0
 10 28  1  0  0  0  0
 10 29  1  0  0  0  0
 12 30  1  0  0  0  0
 12 31  1  0  0  0  0
 13 19  2  0  0  0  0
 13 20  1  0  0  0  0
 14 17  1  0  0  0  0
 14 32  1  0  0  0  0
 15 18  1  0  0  0  0
 15 33  1  0  0  0  0
 16 34  1  0  0  0  0
 16 35  1  0  0  0  0
 16 36  1  0  0  0  0
 17 18  2  0  0  0  0
 17 37  1  0  0  0  0
 18 38  1  0  0  0  0
 19 21  1  0  0  0  0
 19 39  1  0  0  0  0
 20 22  2  0  0  0  0
 20 40  1  0  0  0  0
 21 23  2  0  0  0  0
 21 41  1  0  0  0  0
 22 23  1  0  0  0  0
 22 42  1  0  0  0  0
 24 43  1  0  0  0  0
 24 44  1  0  0  0  0
 24 45  1  0  0  0  0
 25 26  1  0  0  0  0
 25 46  1  0  0  0  0
 25 47  1  0  0  0  0
 26 27  2  0  0  0  0
 26 48  1  0  0  0  0
 27 49  1  0  0  0  0
 27 50  1  0  0  0  0
M  END
> <PUBCHEM_COMPOUND_CID>
17395259

> <PUBCHEM_CONFORMER_RMSD>
1

> <PUBCHEM_CONFORMER_DIVERSEORDER>
3
75
90
28
36
54
73
76
59
84
99
74
40
63
21
78
82
96
88
50
87
83
9
19
6
15
86
94
45
25
97
46
57
14
17
7
29
64
81
95
37
16
85
38
18
49
62
8
48
27
44
79
20
43
42
58
61
93
11
30
80
4
24
67
23
71
68
77
33
47
89
35
13
92
65
10
22
41
5
26
60
55
51
70
34
31
53
72
39
69
12
52
91
32
66
1
98
56
2

> <PUBCHEM_MMFF94_PARTIAL_CHARGES>
37
1 -0.46
10 0.44
11 0.71
12 0.41
13 -0.14
14 -0.15
15 -0.15
16 0.3
17 -0.15
18 -0.15
19 -0.15
2 -0.28
20 -0.15
21 -0.15
22 -0.15
23 0.08
24 0.23
25 0.42
26 -0.29
27 -0.3
3 -0.57
32 0.15
33 0.15
37 0.15
38 0.15
39 0.15
4 -0.36
40 0.15
41 0.15
42 0.15
48 0.15
49 0.15
5 -0.66
50 0.15
6 -0.18
8 0.05
9 0.14

> <PUBCHEM_EFFECTIVE_ROTOR_COUNT>
9

> <PUBCHEM_PHARMACOPHORE_FEATURES>
8
1 2 acceptor
1 24 hydrophobe
1 27 hydrophobe
1 3 acceptor
1 4 acceptor
5 2 6 7 8 9 rings
6 13 19 20 21 22 23 rings
6 7 9 14 15 17 18 rings

> <PUBCHEM_HEAVY_ATOM_COUNT>
27

> <PUBCHEM_ATOM_DEF_STEREO_COUNT>
0

> <PUBCHEM_ATOM_UDEF_STEREO_COUNT>
0

> <PUBCHEM_BOND_DEF_STEREO_COUNT>
0

> <PUBCHEM_BOND_UDEF_STEREO_COUNT>
0

> <PUBCHEM_ISOTOPIC_ATOM_COUNT>
0

> <PUBCHEM_COMPONENT_COUNT>
1

> <PUBCHEM_CACTVS_TAUTO_COUNT>
1

> <PUBCHEM_CONFORMER_ID>
01096E3B00000003

> <PUBCHEM_MMFF94_ENERGY>
69.0192

> <PUBCHEM_FEATURE_SELFOVERLAP>
40.697

> <PUBCHEM_SHAPE_FINGERPRINT>
104564 63 17761205514775345288
108634 29 18337945671796735911
1100329 8 18342752835591785354
12156800 1 17625795211490036973
12293681 25 17754416288203800798
13149001 5 17687413153587039324
17138139 8 17899722080263782965
17357779 13 17757258298217329904
17492 54 18412542102633971357
20691752 17 18198083433647112037
20764821 26 18200033916210141003
21421861 104 17977659042064395001
22182313 1 17753302328817528988
22393880 68 18337394971295985693
23419403 2 17032690202926739660
238 59 18341610481464635057
25222932 49 18338527357241638495
3052486 1 18057330487451018513
3493558 16 16119375088109556853
3797600 57 18041858314412427305
404807 78 17417241011004246387
469060 322 15817995012446097586
5080951 261 16083890674871694764
6823239 73 17461719790593666693

> <PUBCHEM_SHAPE_MULTIPOLES>
536.91
6.32
4.41
3.31
8.31
1.51
-4.22
-4.27
-2.35
-0.18
2.22
-1.18
3.39
0.86

> <PUBCHEM_SHAPE_SELFOVERLAP>
1134.865

> <PUBCHEM_SHAPE_VOLUME>
305.8

> <PUBCHEM_COORDINATE_TYPE>
2
5
10

$$$$

