9820
  -OEChem-06261204052D

 70 69  0     0  0  0  0  0  0999 V2000
    2.5000    6.9650    0.0000 Br  0  5  0  0  0  0  0  0  0  0  0  0
    0.0000    6.9650    0.0000 Br  0  5  0  0  0  0  0  0  0  0  0  0
   12.4651    5.6200    0.0000 O   0  0  0  0  0  0  0  0  0  0  0  0
    7.2690    2.6200    0.0000 N   0  3  0  0  0  0  0  0  0  0  0  0
   12.4651   11.6200    0.0000 N   0  3  0  0  0  0  0  0  0  0  0  0
   12.4651   10.6200    0.0000 C   0  0  0  0  0  0  0  0  0  0  0  0
    8.1350    3.1200    0.0000 C   0  0  0  0  0  0  0  0  0  0  0  0
    6.4030    2.1200    0.0000 C   0  0  0  0  0  0  0  0  0  0  0  0
   12.4651   12.6200    0.0000 C   0  0  0  0  0  0  0  0  0  0  0  0
   13.4651   11.6200    0.0000 C   0  0  0  0  0  0  0  0  0  0  0  0
   11.4651   11.6200    0.0000 C   0  0  0  0  0  0  0  0  0  0  0  0
    7.7690    1.7540    0.0000 C   0  0  0  0  0  0  0  0  0  0  0  0
    6.7690    3.4860    0.0000 C   0  0  0  0  0  0  0  0  0  0  0  0
    9.0010    2.6200    0.0000 C   0  0  0  0  0  0  0  0  0  0  0  0
   11.5991   10.1200    0.0000 C   0  0  0  0  0  0  0  0  0  0  0  0
    8.1350    4.1200    0.0000 C   0  0  0  0  0  0  0  0  0  0  0  0
   13.3312   10.1200    0.0000 C   0  0  0  0  0  0  0  0  0  0  0  0
    9.8671    4.1200    0.0000 C   0  0  0  0  0  0  0  0  0  0  0  0
   12.4651    8.6200    0.0000 C   0  0  0  0  0  0  0  0  0  0  0  0
   10.7331    4.6200    0.0000 C   0  0  0  0  0  0  0  0  0  0  0  0
   12.4651    7.6200    0.0000 C   0  0  0  0  0  0  0  0  0  0  0  0
   10.7331    5.6200    0.0000 C   0  0  0  0  0  0  0  0  0  0  0  0
   11.5991    7.1200    0.0000 C   0  0  0  0  0  0  0  0  0  0  0  0
    9.8671    3.1200    0.0000 C   0  0  0  0  0  0  0  0  0  0  0  0
   11.5991    9.1200    0.0000 C   0  0  0  0  0  0  0  0  0  0  0  0
    9.0010    4.6200    0.0000 C   0  0  0  0  0  0  0  0  0  0  0  0
   13.3312    9.1200    0.0000 C   0  0  0  0  0  0  0  0  0  0  0  0
   13.3312   13.1200    0.0000 C   0  0  0  0  0  0  0  0  0  0  0  0
    6.4030    1.1200    0.0000 C   0  0  0  0  0  0  0  0  0  0  0  0
   11.5991    6.1200    0.0000 C   0  0  0  0  0  0  0  0  0  0  0  0
    5.5369    0.6200    0.0000 C   0  0  0  0  0  0  0  0  0  0  0  0
   13.3312   14.1200    0.0000 C   0  0  0  0  0  0  0  0  0  0  0  0
   12.2531   13.2026    0.0000 H   0  0  0  0  0  0  0  0  0  0  0  0
   11.8546   12.5123    0.0000 H   0  0  0  0  0  0  0  0  0  0  0  0
    6.1909    2.7026    0.0000 H   0  0  0  0  0  0  0  0  0  0  0  0
    5.7924    2.0123    0.0000 H   0  0  0  0  0  0  0  0  0  0  0  0
   13.4651   11.0000    0.0000 H   0  0  0  0  0  0  0  0  0  0  0  0
   14.0851   11.6200    0.0000 H   0  0  0  0  0  0  0  0  0  0  0  0
   13.4651   12.2400    0.0000 H   0  0  0  0  0  0  0  0  0  0  0  0
   11.4651   12.2400    0.0000 H   0  0  0  0  0  0  0  0  0  0  0  0
   10.8451   11.6200    0.0000 H   0  0  0  0  0  0  0  0  0  0  0  0
   11.4651   11.0000    0.0000 H   0  0  0  0  0  0  0  0  0  0  0  0
    7.2320    1.4440    0.0000 H   0  0  0  0  0  0  0  0  0  0  0  0
    8.0790    1.2170    0.0000 H   0  0  0  0  0  0  0  0  0  0  0  0
    8.3059    2.0640    0.0000 H   0  0  0  0  0  0  0  0  0  0  0  0
    7.3059    3.7960    0.0000 H   0  0  0  0  0  0  0  0  0  0  0  0
    6.4590    4.0230    0.0000 H   0  0  0  0  0  0  0  0  0  0  0  0
    6.2320    3.1760    0.0000 H   0  0  0  0  0  0  0  0  0  0  0  0
    9.0010    2.0000    0.0000 H   0  0  0  0  0  0  0  0  0  0  0  0
   11.0622   10.4300    0.0000 H   0  0  0  0  0  0  0  0  0  0  0  0
    7.5981    4.4300    0.0000 H   0  0  0  0  0  0  0  0  0  0  0  0
   13.8681   10.4300    0.0000 H   0  0  0  0  0  0  0  0  0  0  0  0
   10.9451    4.0374    0.0000 H   0  0  0  0  0  0  0  0  0  0  0  0
   11.3437    4.7277    0.0000 H   0  0  0  0  0  0  0  0  0  0  0  0
   12.6772    7.0374    0.0000 H   0  0  0  0  0  0  0  0  0  0  0  0
   13.0757    7.7277    0.0000 H   0  0  0  0  0  0  0  0  0  0  0  0
   11.3871    7.7026    0.0000 H   0  0  0  0  0  0  0  0  0  0  0  0
   10.9885    7.0123    0.0000 H   0  0  0  0  0  0  0  0  0  0  0  0
   10.5210    6.2026    0.0000 H   0  0  0  0  0  0  0  0  0  0  0  0
   10.1225    5.5123    0.0000 H   0  0  0  0  0  0  0  0  0  0  0  0
   10.4040    2.8100    0.0000 H   0  0  0  0  0  0  0  0  0  0  0  0
   11.0622    8.8100    0.0000 H   0  0  0  0  0  0  0  0  0  0  0  0
    9.0010    5.2400    0.0000 H   0  0  0  0  0  0  0  0  0  0  0  0
   13.8681    8.8100    0.0000 H   0  0  0  0  0  0  0  0  0  0  0  0
    6.9399    0.8100    0.0000 H   0  0  0  0  0  0  0  0  0  0  0  0
   13.8681   12.8100    0.0000 H   0  0  0  0  0  0  0  0  0  0  0  0
    5.0000    0.9300    0.0000 H   0  0  0  0  0  0  0  0  0  0  0  0
    5.5369    0.0000    0.0000 H   0  0  0  0  0  0  0  0  0  0  0  0
   13.8681   14.4300    0.0000 H   0  0  0  0  0  0  0  0  0  0  0  0
   12.7942   14.4300    0.0000 H   0  0  0  0  0  0  0  0  0  0  0  0
  3 30  2  0  0  0  0
  4  7  1  0  0  0  0
  4  8  1  0  0  0  0
  4 12  1  0  0  0  0
  4 13  1  0  0  0  0
  5  6  1  0  0  0  0
  5  9  1  0  0  0  0
  5 10  1  0  0  0  0
  5 11  1  0  0  0  0
  6 15  2  0  0  0  0
  6 17  1  0  0  0  0
  7 14  2  0  0  0  0
  7 16  1  0  0  0  0
  8 29  1  0  0  0  0
  8 35  1  0  0  0  0
  8 36  1  0  0  0  0
  9 28  1  0  0  0  0
  9 33  1  0  0  0  0
  9 34  1  0  0  0  0
 10 37  1  0  0  0  0
 10 38  1  0  0  0  0
 10 39  1  0  0  0  0
 11 40  1  0  0  0  0
 11 41  1  0  0  0  0
 11 42  1  0  0  0  0
 12 43  1  0  0  0  0
 12 44  1  0  0  0  0
 12 45  1  0  0  0  0
 13 46  1  0  0  0  0
 13 47  1  0  0  0  0
 13 48  1  0  0  0  0
 14 24  1  0  0  0  0
 14 49  1  0  0  0  0
 15 25  1  0  0  0  0
 15 50  1  0  0  0  0
 16 26  2  0  0  0  0
 16 51  1  0  0  0  0
 17 27  2  0  0  0  0
 17 52  1  0  0  0  0
 18 20  1  0  0  0  0
 18 24  2  0  0  0  0
 18 26  1  0  0  0  0
 19 21  1  0  0  0  0
 19 25  2  0  0  0  0
 19 27  1  0  0  0  0
 20 22  1  0  0  0  0
 20 53  1  0  0  0  0
 20 54  1  0  0  0  0
 21 23  1  0  0  0  0
 21 55  1  0  0  0  0
 21 56  1  0  0  0  0
 22 30  1  0  0  0  0
 22 59  1  0  0  0  0
 22 60  1  0  0  0  0
 23 30  1  0  0  0  0
 23 57  1  0  0  0  0
 23 58  1  0  0  0  0
 24 61  1  0  0  0  0
 25 62  1  0  0  0  0
 26 63  1  0  0  0  0
 27 64  1  0  0  0  0
 28 32  2  0  0  0  0
 28 66  1  0  0  0  0
 29 31  2  0  0  0  0
 29 65  1  0  0  0  0
 31 67  1  0  0  0  0
 31 68  1  0  0  0  0
 32 69  1  0  0  0  0
 32 70  1  0  0  0  0
M  CHG  4   1  -1   2  -1   4   1   5   1
M  END
> <PUBCHEM_COMPOUND_CID>
9820

> <PUBCHEM_COMPOUND_CANONICALIZED>
1

> <PUBCHEM_CACTVS_COMPLEXITY>
501

> <PUBCHEM_CACTVS_HBOND_ACCEPTOR>
3

> <PUBCHEM_CACTVS_HBOND_DONOR>
0

> <PUBCHEM_CACTVS_ROTATABLE_BOND>
12

> <PUBCHEM_CACTVS_SUBSKEYS>
AAADcfB7IAAAGAAAAAAAAAAAAAAAAAAAAAAwYAAAAAAAAAABQAAAHgAAAAAADAzBmAQywIMAAACIAqRSQACCAAAhAgAIiAEIZIgIIDLAkZGEIAhggADIyAcYiMCOCAAAAAAAAAAQAAAAAAAAAAAAAAAAAA==

> <PUBCHEM_IUPAC_OPENEYE_NAME>
allyl-[4-[5-[4-[allyl(dimethyl)ammonio]phenyl]-3-oxo-pentyl]phenyl]-dimethyl-ammonium dibromide

> <PUBCHEM_IUPAC_CAS_NAME>
[4-[5-[4-[dimethyl(prop-2-enyl)ammonio]phenyl]-3-oxopentyl]phenyl]-dimethyl-prop-2-enylammonium dibromide

> <PUBCHEM_IUPAC_NAME>
[4-[5-[4-[dimethyl(prop-2-enyl)azaniumyl]phenyl]-3-oxopentyl]phenyl]-dimethyl-prop-2-enylazanium dibromide

> <PUBCHEM_IUPAC_SYSTEMATIC_NAME>
[4-[5-[4-[dimethyl(prop-2-enyl)azaniumyl]phenyl]-3-oxidanylidene-pentyl]phenyl]-dimethyl-prop-2-enyl-azanium dibromide

> <PUBCHEM_IUPAC_TRADITIONAL_NAME>
allyl-[4-[5-[4-[allyl(dimethyl)ammonio]phenyl]-3-keto-pentyl]phenyl]-dimethyl-ammonium dibromide

> <PUBCHEM_IUPAC_INCHI>
InChI=1S/C27H38N2O.2BrH/c1-7-21-28(3,4)25-15-9-23(10-16-25)13-19-27(30)20-14-24-11-17-26(18-12-24)29(5,6)22-8-2;;/h7-12,15-18H,1-2,13-14,19-22H2,3-6H3;2*1H/q+2;;/p-2

> <PUBCHEM_IUPAC_INCHIKEY>
WKDURMTZOWGWTD-UHFFFAOYSA-L

> <PUBCHEM_EXACT_MASS>
566.133042

> <PUBCHEM_MOLECULAR_FORMULA>
C27H38Br2N2O

> <PUBCHEM_MOLECULAR_WEIGHT>
566.41142

> <PUBCHEM_OPENEYE_CAN_SMILES>
C[N+](C)(CC=C)C1=CC=C(C=C1)CCC(=O)CCC2=CC=C(C=C2)[N+](C)(C)CC=C.[Br-].[Br-]

> <PUBCHEM_OPENEYE_ISO_SMILES>
C[N+](C)(CC=C)C1=CC=C(C=C1)CCC(=O)CCC2=CC=C(C=C2)[N+](C)(C)CC=C.[Br-].[Br-]

> <PUBCHEM_CACTVS_TPSA>
17.1

> <PUBCHEM_MONOISOTOPIC_WEIGHT>
564.135088

> <PUBCHEM_TOTAL_CHARGE>
0

> <PUBCHEM_HEAVY_ATOM_COUNT>
32

> <PUBCHEM_ATOM_DEF_STEREO_COUNT>
0

> <PUBCHEM_ATOM_UDEF_STEREO_COUNT>
0

> <PUBCHEM_BOND_DEF_STEREO_COUNT>
0

> <PUBCHEM_BOND_UDEF_STEREO_COUNT>
0

> <PUBCHEM_ISOTOPIC_ATOM_COUNT>
0

> <PUBCHEM_COMPONENT_COUNT>
3

> <PUBCHEM_CACTVS_TAUTO_COUNT>
2

> <PUBCHEM_COORDINATE_TYPE>
1
5
255

> <PUBCHEM_BONDANNOTATIONS>
14  24  8
15  25  8
16  26  8
17  27  8
18  24  8
18  26  8
19  25  8
19  27  8
6  15  8
6  17  8
7  14  8
7  16  8

$$$$

