12797
  -OEChem-06261207232D

 22 23  0     1  0  0  0  0  0999 V2000
    2.8660    0.8170    0.0000 O   0  0  0  0  0  0  0  0  0  0  0  0
    5.5981    0.8170    0.0000 N   0  0  0  0  0  0  0  0  0  0  0  0
    4.7320    1.3170    0.0000 C   0  0  2  0  0  0  0  0  0  0  0  0
    3.7320    1.3170    0.0000 C   0  0  2  0  0  0  0  0  0  0  0  0
    4.2320    2.1830    0.0000 C   0  0  0  0  0  0  0  0  0  0  0  0
    2.8660   -0.1830    0.0000 C   0  0  0  0  0  0  0  0  0  0  0  0
    2.0000   -0.6830    0.0000 C   0  0  0  0  0  0  0  0  0  0  0  0
    3.7320   -0.6830    0.0000 C   0  0  0  0  0  0  0  0  0  0  0  0
    2.0000   -1.6830    0.0000 C   0  0  0  0  0  0  0  0  0  0  0  0
    3.7320   -1.6830    0.0000 C   0  0  0  0  0  0  0  0  0  0  0  0
    2.8660   -2.1830    0.0000 C   0  0  0  0  0  0  0  0  0  0  0  0
    3.8925    0.7181    0.0000 H   0  0  0  0  0  0  0  0  0  0  0  0
    4.5716    0.7181    0.0000 H   0  0  0  0  0  0  0  0  0  0  0  0
    4.7070    2.5815    0.0000 H   0  0  0  0  0  0  0  0  0  0  0  0
    3.7571    2.5815    0.0000 H   0  0  0  0  0  0  0  0  0  0  0  0
    6.1350    1.1270    0.0000 H   0  0  0  0  0  0  0  0  0  0  0  0
    5.5981    0.1970    0.0000 H   0  0  0  0  0  0  0  0  0  0  0  0
    1.4631   -0.3730    0.0000 H   0  0  0  0  0  0  0  0  0  0  0  0
    4.2690   -0.3730    0.0000 H   0  0  0  0  0  0  0  0  0  0  0  0
    1.4631   -1.9930    0.0000 H   0  0  0  0  0  0  0  0  0  0  0  0
    4.2690   -1.9930    0.0000 H   0  0  0  0  0  0  0  0  0  0  0  0
    2.8660   -2.8030    0.0000 H   0  0  0  0  0  0  0  0  0  0  0  0
  4  1  1  1  0  0  0
  1  6  1  0  0  0  0
  3  2  1  6  0  0  0
  2 16  1  0  0  0  0
  2 17  1  0  0  0  0
  3  4  1  0  0  0  0
  3  5  1  0  0  0  0
  3 13  1  0  0  0  0
  4  5  1  0  0  0  0
  4 12  1  0  0  0  0
  5 14  1  0  0  0  0
  5 15  1  0  0  0  0
  6  7  2  0  0  0  0
  6  8  1  0  0  0  0
  7  9  1  0  0  0  0
  7 18  1  0  0  0  0
  8 10  2  0  0  0  0
  8 19  1  0  0  0  0
  9 11  2  0  0  0  0
  9 20  1  0  0  0  0
 10 11  1  0  0  0  0
 10 21  1  0  0  0  0
 11 22  1  0  0  0  0
M  END
> <PUBCHEM_COMPOUND_CID>
12797

> <PUBCHEM_COMPOUND_CANONICALIZED>
1

> <PUBCHEM_CACTVS_COMPLEXITY>
132

> <PUBCHEM_CACTVS_HBOND_ACCEPTOR>
2

> <PUBCHEM_CACTVS_HBOND_DONOR>
1

> <PUBCHEM_CACTVS_ROTATABLE_BOND>
2

> <PUBCHEM_CACTVS_SUBSKEYS>
AAADccByIAAAAAAAAAAAAAAAGAAAAAAAAAAwAAAAAAAAAAABAAAAHgAQAAAACDzhkAYwBoBABACAACBCAAACCAAgIAAIiIAGCIgOJiKEMRqDOCCm0BEIqAeAQAAAAAAAAAAAAAAAAAAAAAAAAAAAAAAAAA==

> <PUBCHEM_IUPAC_OPENEYE_NAME>
(1S,2S)-2-phenoxycyclopropanamine

> <PUBCHEM_IUPAC_CAS_NAME>
(1S,2S)-2-phenoxy-1-cyclopropanamine

> <PUBCHEM_IUPAC_NAME>
(1S,2S)-2-phenoxycyclopropan-1-amine

> <PUBCHEM_IUPAC_SYSTEMATIC_NAME>
(1S,2S)-2-phenoxycyclopropan-1-amine

> <PUBCHEM_IUPAC_TRADITIONAL_NAME>
[(1S,2S)-2-phenoxycyclopropyl]amine

> <PUBCHEM_IUPAC_INCHI>
InChI=1S/C9H11NO/c10-8-6-9(8)11-7-4-2-1-3-5-7/h1-5,8-9H,6,10H2/t8-,9-/m0/s1

> <PUBCHEM_IUPAC_INCHIKEY>
LWTVCQHYQVDFLN-IUCAKERBSA-N

> <PUBCHEM_XLOGP3_AA>
1.2

> <PUBCHEM_EXACT_MASS>
149.084064

> <PUBCHEM_MOLECULAR_FORMULA>
C9H11NO

> <PUBCHEM_MOLECULAR_WEIGHT>
149.18974

> <PUBCHEM_OPENEYE_CAN_SMILES>
C1C(C1OC2=CC=CC=C2)N

> <PUBCHEM_OPENEYE_ISO_SMILES>
C1[C@@H]([C@H]1OC2=CC=CC=C2)N

> <PUBCHEM_CACTVS_TPSA>
35.2

> <PUBCHEM_MONOISOTOPIC_WEIGHT>
149.084064

> <PUBCHEM_TOTAL_CHARGE>
0

> <PUBCHEM_HEAVY_ATOM_COUNT>
11

> <PUBCHEM_ATOM_DEF_STEREO_COUNT>
2

> <PUBCHEM_ATOM_UDEF_STEREO_COUNT>
0

> <PUBCHEM_BOND_DEF_STEREO_COUNT>
0

> <PUBCHEM_BOND_UDEF_STEREO_COUNT>
0

> <PUBCHEM_ISOTOPIC_ATOM_COUNT>
0

> <PUBCHEM_COMPONENT_COUNT>
1

> <PUBCHEM_CACTVS_TAUTO_COUNT>
1

> <PUBCHEM_COORDINATE_TYPE>
1
5
255

> <PUBCHEM_BONDANNOTATIONS>
4  1  5
10  11  8
3  2  6
6  7  8
6  8  8
7  9  8
8  10  8
9  11  8

$$$$

