17396628
  -OEChem-06241222572D

 51 53  0     1  0  0  0  0  0999 V2000
    6.3301   -0.7673    0.0000 O   0  0  0  0  0  0  0  0  0  0  0  0
    2.8660   -0.7673    0.0000 O   0  0  0  0  0  0  0  0  0  0  0  0
    7.1962    0.7327    0.0000 N   0  0  0  0  0  0  0  0  0  0  0  0
    4.5981   -0.7673    0.0000 N   0  0  0  0  0  0  0  0  0  0  0  0
    4.5981    0.2327    0.0000 C   0  0  3  0  0  0  0  0  0  0  0  0
    8.0622    0.2327    0.0000 C   0  0  3  0  0  0  0  0  0  0  0  0
    5.4641    0.7327    0.0000 C   0  0  0  0  0  0  0  0  0  0  0  0
    8.9282    0.7327    0.0000 C   0  0  0  0  0  0  0  0  0  0  0  0
    6.3301    0.2327    0.0000 C   0  0  0  0  0  0  0  0  0  0  0  0
    3.7320    0.7327    0.0000 C   0  0  0  0  0  0  0  0  0  0  0  0
    8.0622   -0.7673    0.0000 C   0  0  0  0  0  0  0  0  0  0  0  0
    9.7942    0.2327    0.0000 C   0  0  0  0  0  0  0  0  0  0  0  0
   10.6603    0.7327    0.0000 C   0  0  0  0  0  0  0  0  0  0  0  0
    8.9282    1.7327    0.0000 C   0  0  0  0  0  0  0  0  0  0  0  0
   10.6603    1.7327    0.0000 C   0  0  0  0  0  0  0  0  0  0  0  0
    9.7942    2.2327    0.0000 C   0  0  0  0  0  0  0  0  0  0  0  0
    3.7320    1.7327    0.0000 C   0  0  0  0  0  0  0  0  0  0  0  0
    2.8660    0.2327    0.0000 C   0  0  0  0  0  0  0  0  0  0  0  0
   11.5542    0.1980    0.0000 C   0  0  0  0  0  0  0  0  0  0  0  0
   11.5542    2.2673    0.0000 C   0  0  0  0  0  0  0  0  0  0  0  0
    3.7320   -1.2673    0.0000 C   0  0  0  0  0  0  0  0  0  0  0  0
    2.8660    2.2327    0.0000 C   0  0  0  0  0  0  0  0  0  0  0  0
    2.0000    0.7327    0.0000 C   0  0  0  0  0  0  0  0  0  0  0  0
   12.4603    0.7119    0.0000 C   0  0  0  0  0  0  0  0  0  0  0  0
   12.4603    1.7535    0.0000 C   0  0  0  0  0  0  0  0  0  0  0  0
    2.0000    1.7327    0.0000 C   0  0  0  0  0  0  0  0  0  0  0  0
    3.7320   -2.2673    0.0000 C   0  0  0  0  0  0  0  0  0  0  0  0
    5.1350   -0.0773    0.0000 H   0  0  0  0  0  0  0  0  0  0  0  0
    8.0622    0.8527    0.0000 H   0  0  0  0  0  0  0  0  0  0  0  0
    5.8626    1.2076    0.0000 H   0  0  0  0  0  0  0  0  0  0  0  0
    5.0656    1.2076    0.0000 H   0  0  0  0  0  0  0  0  0  0  0  0
    7.1962    1.3527    0.0000 H   0  0  0  0  0  0  0  0  0  0  0  0
    7.4422   -0.7673    0.0000 H   0  0  0  0  0  0  0  0  0  0  0  0
    8.0622   -1.3873    0.0000 H   0  0  0  0  0  0  0  0  0  0  0  0
    8.6822   -0.7673    0.0000 H   0  0  0  0  0  0  0  0  0  0  0  0
    9.7942   -0.3873    0.0000 H   0  0  0  0  0  0  0  0  0  0  0  0
    5.1350   -1.0773    0.0000 H   0  0  0  0  0  0  0  0  0  0  0  0
    8.3913    2.0427    0.0000 H   0  0  0  0  0  0  0  0  0  0  0  0
    9.7942    2.8527    0.0000 H   0  0  0  0  0  0  0  0  0  0  0  0
    4.2690    2.0427    0.0000 H   0  0  0  0  0  0  0  0  0  0  0  0
    2.8660   -0.3873    0.0000 H   0  0  0  0  0  0  0  0  0  0  0  0
   11.5470   -0.4220    0.0000 H   0  0  0  0  0  0  0  0  0  0  0  0
   11.5470    2.8873    0.0000 H   0  0  0  0  0  0  0  0  0  0  0  0
    2.8660    2.8527    0.0000 H   0  0  0  0  0  0  0  0  0  0  0  0
    1.4631    0.4227    0.0000 H   0  0  0  0  0  0  0  0  0  0  0  0
   12.9960    0.3998    0.0000 H   0  0  0  0  0  0  0  0  0  0  0  0
   12.9960    2.0656    0.0000 H   0  0  0  0  0  0  0  0  0  0  0  0
    1.4631    2.0427    0.0000 H   0  0  0  0  0  0  0  0  0  0  0  0
    3.1120   -2.2673    0.0000 H   0  0  0  0  0  0  0  0  0  0  0  0
    3.7320   -2.8873    0.0000 H   0  0  0  0  0  0  0  0  0  0  0  0
    4.3520   -2.2673    0.0000 H   0  0  0  0  0  0  0  0  0  0  0  0
  1  9  2  0  0  0  0
  2 21  2  0  0  0  0
  3  6  1  0  0  0  0
  3  9  1  0  0  0  0
  3 32  1  0  0  0  0
  4  5  1  0  0  0  0
  4 21  1  0  0  0  0
  4 37  1  0  0  0  0
  5  7  1  0  0  0  0
  5 10  1  0  0  0  0
  5 28  1  0  0  0  0
  6  8  1  0  0  0  0
  6 11  1  0  0  0  0
  6 29  1  0  0  0  0
  7  9  1  0  0  0  0
  7 30  1  0  0  0  0
  7 31  1  0  0  0  0
  8 12  2  0  0  0  0
  8 14  1  0  0  0  0
 10 17  2  0  0  0  0
 10 18  1  0  0  0  0
 11 33  1  0  0  0  0
 11 34  1  0  0  0  0
 11 35  1  0  0  0  0
 12 13  1  0  0  0  0
 12 36  1  0  0  0  0
 13 15  1  0  0  0  0
 13 19  2  0  0  0  0
 14 16  2  0  0  0  0
 14 38  1  0  0  0  0
 15 16  1  0  0  0  0
 15 20  2  0  0  0  0
 16 39  1  0  0  0  0
 17 22  1  0  0  0  0
 17 40  1  0  0  0  0
 18 23  2  0  0  0  0
 18 41  1  0  0  0  0
 19 24  1  0  0  0  0
 19 42  1  0  0  0  0
 20 25  1  0  0  0  0
 20 43  1  0  0  0  0
 21 27  1  0  0  0  0
 22 26  2  0  0  0  0
 22 44  1  0  0  0  0
 23 26  1  0  0  0  0
 23 45  1  0  0  0  0
 24 25  2  0  0  0  0
 24 46  1  0  0  0  0
 25 47  1  0  0  0  0
 26 48  1  0  0  0  0
 27 49  1  0  0  0  0
 27 50  1  0  0  0  0
 27 51  1  0  0  0  0
M  END
> <PUBCHEM_COMPOUND_CID>
17396628

> <PUBCHEM_COMPOUND_CANONICALIZED>
1

> <PUBCHEM_CACTVS_COMPLEXITY>
501

> <PUBCHEM_CACTVS_HBOND_ACCEPTOR>
2

> <PUBCHEM_CACTVS_HBOND_DONOR>
2

> <PUBCHEM_CACTVS_ROTATABLE_BOND>
6

> <PUBCHEM_CACTVS_SUBSKEYS>
AAADceB7MAAAAAAAAAAAAAAAAAAAAAAAAAAwYMAAAAAAAADBVAAAHgAQAAAADCjBmAQyAMLAAACIAiFSEACCAAAgAAAIiIEIBIgIIDqA0RGEIAhglgCIiAcYiMCOwAACAAAQAACAAAQAACAAAAAAAAAAAA==

> <PUBCHEM_IUPAC_OPENEYE_NAME>
3-acetamido-N-[1-(2-naphthyl)ethyl]-3-phenyl-propanamide

> <PUBCHEM_IUPAC_CAS_NAME>
3-acetamido-N-[1-(2-naphthalenyl)ethyl]-3-phenylpropanamide

> <PUBCHEM_IUPAC_NAME>
3-acetamido-N-(1-naphthalen-2-ylethyl)-3-phenylpropanamide

> <PUBCHEM_IUPAC_SYSTEMATIC_NAME>
3-acetamido-N-(1-naphthalen-2-ylethyl)-3-phenyl-propanamide

> <PUBCHEM_IUPAC_TRADITIONAL_NAME>
3-acetamido-N-[1-(2-naphthyl)ethyl]-3-phenyl-propionamide

> <PUBCHEM_IUPAC_INCHI>
InChI=1S/C23H24N2O2/c1-16(20-13-12-18-8-6-7-11-21(18)14-20)24-23(27)15-22(25-17(2)26)19-9-4-3-5-10-19/h3-14,16,22H,15H2,1-2H3,(H,24,27)(H,25,26)

> <PUBCHEM_IUPAC_INCHIKEY>
FNIZFBQKRHEVOZ-UHFFFAOYSA-N

> <PUBCHEM_XLOGP3_AA>
3.5

> <PUBCHEM_EXACT_MASS>
360.183778

> <PUBCHEM_MOLECULAR_FORMULA>
C23H24N2O2

> <PUBCHEM_MOLECULAR_WEIGHT>
360.44886

> <PUBCHEM_OPENEYE_CAN_SMILES>
CC(C1=CC2=CC=CC=C2C=C1)NC(=O)CC(C3=CC=CC=C3)NC(=O)C

> <PUBCHEM_OPENEYE_ISO_SMILES>
CC(C1=CC2=CC=CC=C2C=C1)NC(=O)CC(C3=CC=CC=C3)NC(=O)C

> <PUBCHEM_CACTVS_TPSA>
58.2

> <PUBCHEM_MONOISOTOPIC_WEIGHT>
360.183778

> <PUBCHEM_TOTAL_CHARGE>
0

> <PUBCHEM_HEAVY_ATOM_COUNT>
27

> <PUBCHEM_ATOM_DEF_STEREO_COUNT>
0

> <PUBCHEM_ATOM_UDEF_STEREO_COUNT>
2

> <PUBCHEM_BOND_DEF_STEREO_COUNT>
0

> <PUBCHEM_BOND_UDEF_STEREO_COUNT>
0

> <PUBCHEM_ISOTOPIC_ATOM_COUNT>
0

> <PUBCHEM_COMPONENT_COUNT>
1

> <PUBCHEM_CACTVS_TAUTO_COUNT>
4

> <PUBCHEM_COORDINATE_TYPE>
1
5
255

> <PUBCHEM_BONDANNOTATIONS>
10  17  8
10  18  8
12  13  8
13  15  8
13  19  8
14  16  8
15  16  8
15  20  8
17  22  8
18  23  8
19  24  8
20  25  8
22  26  8
23  26  8
24  25  8
5  7  3
6  11  3
8  12  8
8  14  8

$$$$

