47205595
  -OEChem-06241222592D

 33 35  0     0  0  0  0  0  0999 V2000
    9.8497    0.3230    0.0000 S   0  0  0  0  0  0  0  0  0  0  0  0
    6.2619   -0.4860    0.0000 O   0  0  0  0  0  0  0  0  0  0  0  0
    7.7619    0.3800    0.0000 N   0  0  0  0  0  0  0  0  0  0  0  0
    3.7320    1.7461    0.0000 N   0  0  0  0  0  0  0  0  0  0  0  0
    4.6783    2.0508    0.0000 N   0  0  0  0  0  0  0  0  0  0  0  0
    4.6783    0.4413    0.0000 N   0  0  0  0  0  0  0  0  0  0  0  0
    2.8660    0.2461    0.0000 N   0  0  0  0  0  0  0  0  0  0  0  0
    8.2619   -0.4860    0.0000 C   0  0  0  0  0  0  0  0  0  0  0  0
    9.2619   -0.4860    0.0000 C   0  0  0  0  0  0  0  0  0  0  0  0
    6.2619    1.2461    0.0000 C   0  0  0  0  0  0  0  0  0  0  0  0
    9.8497   -1.2950    0.0000 C   0  0  0  0  0  0  0  0  0  0  0  0
    5.2619    1.2461    0.0000 C   0  0  0  0  0  0  0  0  0  0  0  0
    6.7619    0.3800    0.0000 C   0  0  0  0  0  0  0  0  0  0  0  0
   10.8007   -0.9860    0.0000 C   0  0  0  0  0  0  0  0  0  0  0  0
    3.7320    0.7461    0.0000 C   0  0  0  0  0  0  0  0  0  0  0  0
    9.5406   -2.2461    0.0000 C   0  0  0  0  0  0  0  0  0  0  0  0
   10.8007    0.0140    0.0000 C   0  0  0  0  0  0  0  0  0  0  0  0
    2.8660    2.2461    0.0000 C   0  0  0  0  0  0  0  0  0  0  0  0
    2.0000    1.7461    0.0000 C   0  0  0  0  0  0  0  0  0  0  0  0
    2.0000    0.7461    0.0000 C   0  0  0  0  0  0  0  0  0  0  0  0
    7.6793   -0.6980    0.0000 H   0  0  0  0  0  0  0  0  0  0  0  0
    8.3695   -1.0966    0.0000 H   0  0  0  0  0  0  0  0  0  0  0  0
    6.8445    1.4581    0.0000 H   0  0  0  0  0  0  0  0  0  0  0  0
    6.1542    1.8566    0.0000 H   0  0  0  0  0  0  0  0  0  0  0  0
    8.0719    0.9170    0.0000 H   0  0  0  0  0  0  0  0  0  0  0  0
   11.3023   -1.3504    0.0000 H   0  0  0  0  0  0  0  0  0  0  0  0
    8.9510   -2.0545    0.0000 H   0  0  0  0  0  0  0  0  0  0  0  0
    9.3491   -2.8357    0.0000 H   0  0  0  0  0  0  0  0  0  0  0  0
   10.1303   -2.4376    0.0000 H   0  0  0  0  0  0  0  0  0  0  0  0
   11.3023    0.3784    0.0000 H   0  0  0  0  0  0  0  0  0  0  0  0
    2.8660    2.8661    0.0000 H   0  0  0  0  0  0  0  0  0  0  0  0
    1.4631    2.0561    0.0000 H   0  0  0  0  0  0  0  0  0  0  0  0
    1.4631    0.4361    0.0000 H   0  0  0  0  0  0  0  0  0  0  0  0
  1  9  1  0  0  0  0
  1 17  1  0  0  0  0
  2 13  2  0  0  0  0
  3  8  1  0  0  0  0
  3 13  1  0  0  0  0
  3 25  1  0  0  0  0
  4  5  1  0  0  0  0
  4 15  1  0  0  0  0
  4 18  1  0  0  0  0
  5 12  2  0  0  0  0
  6 12  1  0  0  0  0
  6 15  2  0  0  0  0
  7 15  1  0  0  0  0
  7 20  2  0  0  0  0
  8  9  1  0  0  0  0
  8 21  1  0  0  0  0
  8 22  1  0  0  0  0
  9 11  2  0  0  0  0
 10 12  1  0  0  0  0
 10 13  1  0  0  0  0
 10 23  1  0  0  0  0
 10 24  1  0  0  0  0
 11 14  1  0  0  0  0
 11 16  1  0  0  0  0
 14 17  2  0  0  0  0
 14 26  1  0  0  0  0
 16 27  1  0  0  0  0
 16 28  1  0  0  0  0
 16 29  1  0  0  0  0
 17 30  1  0  0  0  0
 18 19  2  0  0  0  0
 18 31  1  0  0  0  0
 19 20  1  0  0  0  0
 19 32  1  0  0  0  0
 20 33  1  0  0  0  0
M  END
> <PUBCHEM_COMPOUND_CID>
47205595

> <PUBCHEM_COMPOUND_CANONICALIZED>
1

> <PUBCHEM_CACTVS_COMPLEXITY>
356

> <PUBCHEM_CACTVS_HBOND_ACCEPTOR>
5

> <PUBCHEM_CACTVS_HBOND_DONOR>
1

> <PUBCHEM_CACTVS_ROTATABLE_BOND>
4

> <PUBCHEM_CACTVS_SUBSKEYS>
AAADccBzoABAAAAAAAAAAAAAAAAAAWJAAAAsAAAAAAAAAFgB+AAAHgQYAAAADADF2wS/kZbIEAiuAjN3dACThKsxirBd2Lk4ZJiIKKrg2VGEhAhongLoiCYQAAAKAAAAAAAAAAAAAAAAAAAAAAAAAAAAAA==

> <PUBCHEM_IUPAC_OPENEYE_NAME>
N-[(3-methyl-2-thienyl)methyl]-2-([1,2,4]triazolo[1,5-a]pyrimidin-2-yl)acetamide

> <PUBCHEM_IUPAC_CAS_NAME>
N-[(3-methyl-2-thiophenyl)methyl]-2-([1,2,4]triazolo[1,5-a]pyrimidin-2-yl)acetamide

> <PUBCHEM_IUPAC_NAME>
N-[(3-methylthiophen-2-yl)methyl]-2-([1,2,4]triazolo[1,5-a]pyrimidin-2-yl)acetamide

> <PUBCHEM_IUPAC_SYSTEMATIC_NAME>
N-[(3-methylthiophen-2-yl)methyl]-2-([1,2,4]triazolo[1,5-a]pyrimidin-2-yl)ethanamide

> <PUBCHEM_IUPAC_TRADITIONAL_NAME>
N-[(3-methyl-2-thienyl)methyl]-2-([1,2,4]triazolo[1,5-a]pyrimidin-2-yl)acetamide

> <PUBCHEM_IUPAC_INCHI>
InChI=1S/C13H13N5OS/c1-9-3-6-20-10(9)8-15-12(19)7-11-16-13-14-4-2-5-18(13)17-11/h2-6H,7-8H2,1H3,(H,15,19)

> <PUBCHEM_IUPAC_INCHIKEY>
RSVKLOXZCZNHMI-UHFFFAOYSA-N

> <PUBCHEM_XLOGP3_AA>
0.9

> <PUBCHEM_EXACT_MASS>
287.084081

> <PUBCHEM_MOLECULAR_FORMULA>
C13H13N5OS

> <PUBCHEM_MOLECULAR_WEIGHT>
287.34022

> <PUBCHEM_OPENEYE_CAN_SMILES>
CC1=C(SC=C1)CNC(=O)CC2=NN3C=CC=NC3=N2

> <PUBCHEM_OPENEYE_ISO_SMILES>
CC1=C(SC=C1)CNC(=O)CC2=NN3C=CC=NC3=N2

> <PUBCHEM_CACTVS_TPSA>
100

> <PUBCHEM_MONOISOTOPIC_WEIGHT>
287.084081

> <PUBCHEM_TOTAL_CHARGE>
0

> <PUBCHEM_HEAVY_ATOM_COUNT>
20

> <PUBCHEM_ATOM_DEF_STEREO_COUNT>
0

> <PUBCHEM_ATOM_UDEF_STEREO_COUNT>
0

> <PUBCHEM_BOND_DEF_STEREO_COUNT>
0

> <PUBCHEM_BOND_UDEF_STEREO_COUNT>
0

> <PUBCHEM_ISOTOPIC_ATOM_COUNT>
0

> <PUBCHEM_COMPONENT_COUNT>
1

> <PUBCHEM_CACTVS_TAUTO_COUNT>
2

> <PUBCHEM_COORDINATE_TYPE>
1
5
255

> <PUBCHEM_BONDANNOTATIONS>
1  17  8
1  9  8
11  14  8
14  17  8
18  19  8
19  20  8
4  15  8
4  18  8
4  5  8
5  12  8
6  12  8
6  15  8
7  15  8
7  20  8
9  11  8

$$$$

