17395476
  -OEChem-06241222503D

 47 48  0     1  0  0  0  0  0999 V2000
    5.9455    0.7288   -0.3749 O   0  0  0  0  0  0  0  0  0  0  0  0
    4.8244    1.7606    1.3615 O   0  0  0  0  0  0  0  0  0  0  0  0
   -1.0861   -1.5565    1.5659 O   0  0  0  0  0  0  0  0  0  0  0  0
   -3.8356    0.7456   -2.0564 O   0  0  0  0  0  0  0  0  0  0  0  0
    1.2619   -1.1932   -0.0768 N   0  0  0  0  0  0  0  0  0  0  0  0
   -2.0539   -0.6308   -0.3618 N   0  0  0  0  0  0  0  0  0  0  0  0
    3.6174    0.5228   -0.3124 C   0  0  0  0  0  0  0  0  0  0  0  0
    2.3772    0.9455    0.4731 C   0  0  0  0  0  0  0  0  0  0  0  0
    3.7089   -1.0003   -0.3821 C   0  0  0  0  0  0  0  0  0  0  0  0
    1.1180    0.2692   -0.0719 C   0  0  0  0  0  0  0  0  0  0  0  0
    2.4053   -1.6110   -0.8997 C   0  0  0  0  0  0  0  0  0  0  0  0
    0.0316   -1.8267   -0.5512 C   0  0  1  0  0  0  0  0  0  0  0  0
    4.8414    1.0858    0.3411 C   0  0  0  0  0  0  0  0  0  0  0  0
    0.1801   -3.3427   -0.4985 C   0  0  0  0  0  0  0  0  0  0  0  0
   -1.0927   -1.3362    0.3580 C   0  0  0  0  0  0  0  0  0  0  0  0
   -3.2344   -0.0282    0.1343 C   0  0  0  0  0  0  0  0  0  0  0  0
    7.1929    1.2038    0.1410 C   0  0  0  0  0  0  0  0  0  0  0  0
   -4.1021    0.6483   -0.7232 C   0  0  0  0  0  0  0  0  0  0  0  0
   -3.5265   -0.1158    1.4954 C   0  0  0  0  0  0  0  0  0  0  0  0
   -5.2620    1.2372   -0.2192 C   0  0  0  0  0  0  0  0  0  0  0  0
   -4.6864    0.4732    1.9992 C   0  0  0  0  0  0  0  0  0  0  0  0
   -5.5539    1.1496    1.1420 C   0  0  0  0  0  0  0  0  0  0  0  0
   -3.0711    1.8709   -2.4834 C   0  0  0  0  0  0  0  0  0  0  0  0
    3.5512    0.9438   -1.3240 H   0  0  0  0  0  0  0  0  0  0  0  0
    2.4875    0.6879    1.5355 H   0  0  0  0  0  0  0  0  0  0  0  0
    2.2547    2.0350    0.4276 H   0  0  0  0  0  0  0  0  0  0  0  0
    4.5308   -1.3063   -1.0410 H   0  0  0  0  0  0  0  0  0  0  0  0
    3.9399   -1.4106    0.6106 H   0  0  0  0  0  0  0  0  0  0  0  0
    0.3012    0.6051    0.5755 H   0  0  0  0  0  0  0  0  0  0  0  0
    0.9086    0.6450   -1.0825 H   0  0  0  0  0  0  0  0  0  0  0  0
    2.2579   -1.3303   -1.9509 H   0  0  0  0  0  0  0  0  0  0  0  0
    2.5571   -2.6943   -0.8656 H   0  0  0  0  0  0  0  0  0  0  0  0
   -0.1724   -1.5424   -1.5918 H   0  0  0  0  0  0  0  0  0  0  0  0
    0.6239   -3.6812    0.4452 H   0  0  0  0  0  0  0  0  0  0  0  0
   -0.8058   -3.8180   -0.5671 H   0  0  0  0  0  0  0  0  0  0  0  0
    0.7734   -3.7349   -1.3306 H   0  0  0  0  0  0  0  0  0  0  0  0
   -1.9179   -0.5260   -1.3644 H   0  0  0  0  0  0  0  0  0  0  0  0
    7.2054    2.2978    0.1541 H   0  0  0  0  0  0  0  0  0  0  0  0
    7.3648    0.8028    1.1444 H   0  0  0  0  0  0  0  0  0  0  0  0
    7.9900    0.8514   -0.5190 H   0  0  0  0  0  0  0  0  0  0  0  0
   -2.9101   -0.6204    2.2250 H   0  0  0  0  0  0  0  0  0  0  0  0
   -5.9432    1.7651   -0.8809 H   0  0  0  0  0  0  0  0  0  0  0  0
   -4.9152    0.4057    3.0588 H   0  0  0  0  0  0  0  0  0  0  0  0
   -6.4570    1.6080    1.5343 H   0  0  0  0  0  0  0  0  0  0  0  0
   -3.6153    2.7995   -2.2840 H   0  0  0  0  0  0  0  0  0  0  0  0
   -2.0970    1.8930   -1.9844 H   0  0  0  0  0  0  0  0  0  0  0  0
   -2.9091    1.7857   -3.5614 H   0  0  0  0  0  0  0  0  0  0  0  0
  1 13  1  0  0  0  0
  1 17  1  0  0  0  0
  2 13  2  0  0  0  0
  3 15  2  0  0  0  0
  4 18  1  0  0  0  0
  4 23  1  0  0  0  0
  5 10  1  0  0  0  0
  5 11  1  0  0  0  0
  5 12  1  0  0  0  0
  6 15  1  0  0  0  0
  6 16  1  0  0  0  0
  6 37  1  0  0  0  0
  7  8  1  0  0  0  0
  7  9  1  0  0  0  0
  7 13  1  0  0  0  0
  7 24  1  0  0  0  0
  8 10  1  0  0  0  0
  8 25  1  0  0  0  0
  8 26  1  0  0  0  0
  9 11  1  0  0  0  0
  9 27  1  0  0  0  0
  9 28  1  0  0  0  0
 10 29  1  0  0  0  0
 10 30  1  0  0  0  0
 11 31  1  0  0  0  0
 11 32  1  0  0  0  0
 12 14  1  0  0  0  0
 12 15  1  0  0  0  0
 12 33  1  0  0  0  0
 14 34  1  0  0  0  0
 14 35  1  0  0  0  0
 14 36  1  0  0  0  0
 16 18  1  0  0  0  0
 16 19  2  0  0  0  0
 17 38  1  0  0  0  0
 17 39  1  0  0  0  0
 17 40  1  0  0  0  0
 18 20  2  0  0  0  0
 19 21  1  0  0  0  0
 19 41  1  0  0  0  0
 20 22  1  0  0  0  0
 20 42  1  0  0  0  0
 21 22  2  0  0  0  0
 21 43  1  0  0  0  0
 22 44  1  0  0  0  0
 23 45  1  0  0  0  0
 23 46  1  0  0  0  0
 23 47  1  0  0  0  0
M  END
> <PUBCHEM_COMPOUND_CID>
17395476

> <PUBCHEM_CONFORMER_RMSD>
0.8

> <PUBCHEM_CONFORMER_DIVERSEORDER>
1
194
120
381
331
366
123
215
99
144
382
310
244
172
459
432
36
370
461
159
116
355
443
450
127
232
409
252
374
288
324
167
293
191
270
9
85
224
357
304
428
240
218
344
438
286
139
281
237
226
117
279
199
151
316
390
349
201
439
429
356
168
97
95
235
365
420
341
234
146
367
149
425
205
441
339
414
142
384
391
347
352
424
100
378
93
88
49
195
377
148
446
181
369
239
303
460
102
96
354
171
299
408
451
342
306
340
192
309
312
17
358
180
346
371
276
322
140
44
440
404
52
30
53
386
231
128
376
165
86
62
389
39
43
111
68
427
336
298
65
154
383
200
364
325
333
54
410
90
373
138
435
295
50
323
297
282
203
174
112
259
122
160
249
60
10
58
292
114
421
105
301
415
262
271
57
6
63
188
419
32
261
257
246
436
360
442
84
445
362
399
64
326
418
457
18
22
405
290
35
294
338
396
209
107
40
71
392
221
89
417
113
217
101
305
448
348
119
94
132
153
130
223
332
104
92
21
157
213
431
214
129
379
48
274
256
141
4
335
400
103
170
327
156
207
67
238
452
411
196
291
206
402
108
124
135
76
254
189
183
394
272
285
25
308
350
241
313
77
337
387
150
184
403
248
302
334
426
186
433
27
449
278
7
198
385
14
462
447
72
273
178
31
19
422
164
176
37
158
81
202
61
126
166
212
182
253
307
375
13
28
359
247
91
20
458
406
318
106
137
219
118
423
175
185
197
34
59
78
319
263
269
296
388
320
66
33
2
69
353
73
115
250
98
173
145
260
351
38
190
397
125
300
46
163
243
79
437
12
280
87
267
121
268
109
368
311
222
315
401
80
454
328
136
41
380
453
393
23
242
407
275
395
220
204
210
177
225
47
321
211
143
330
265
345
83
15
3
361
51
236
147
75
8
229
216
24
255
434
16
131
363
228
258
455
266
187
251
412
55
5
208
56
11
343
289
227
230
245
372
416
152
398
277
264
155
287
179
70
283
45
42
456
413
314
430
110
444
134
329
133
82
162
169
193
284
26
233
161
74
317
29

> <PUBCHEM_MMFF94_PARTIAL_CHARGES>
25
1 -0.43
10 0.27
11 0.27
12 0.33
13 0.66
15 0.57
16 0.12
17 0.28
18 0.08
19 -0.15
2 -0.57
20 -0.15
21 -0.15
22 -0.15
23 0.28
3 -0.57
37 0.37
4 -0.36
41 0.15
42 0.15
43 0.15
44 0.15
5 -0.81
6 -0.55
7 0.06

> <PUBCHEM_EFFECTIVE_ROTOR_COUNT>
8.2

> <PUBCHEM_PHARMACOPHORE_FEATURES>
7
1 2 acceptor
1 3 acceptor
1 4 acceptor
1 5 cation
1 6 donor
6 16 18 19 20 21 22 rings
6 5 7 8 9 10 11 rings

> <PUBCHEM_HEAVY_ATOM_COUNT>
23

> <PUBCHEM_ATOM_DEF_STEREO_COUNT>
0

> <PUBCHEM_ATOM_UDEF_STEREO_COUNT>
1

> <PUBCHEM_BOND_DEF_STEREO_COUNT>
0

> <PUBCHEM_BOND_UDEF_STEREO_COUNT>
0

> <PUBCHEM_ISOTOPIC_ATOM_COUNT>
0

> <PUBCHEM_COMPONENT_COUNT>
1

> <PUBCHEM_CACTVS_TAUTO_COUNT>
2

> <PUBCHEM_CONFORMER_ID>
01096F1400000001

> <PUBCHEM_MMFF94_ENERGY>
65.3711

> <PUBCHEM_FEATURE_SELFOVERLAP>
35.52

> <PUBCHEM_SHAPE_FINGERPRINT>
10 15 17632291251236873484
10319926 262 16988562467255131163
11089746 13 17312822654876722336
12236239 1 17168142377478815383
12403259 415 18201152273162446495
12633257 1 17203037496241639915
12788726 201 16009298933162034243
12892183 10 16917072195473718587
12969540 114 18334864917582875038
13103583 49 14405187295773482797
13402501 40 18201722877185835477
13583140 156 16415213247138101559
13631057 29 18041850494068701239
15081414 286 18409722989449332036
15183329 4 16153702150471863156
15188451 53 14907889432884917617
17780758 139 15051734175138591393
17870717 6 5400798354678745877
1813 80 16812066821114732575
18222031 100 10375868537473685742
19784866 34 18259982699737964019
20511986 3 17023191586204038569
20645477 56 18342739593948771374
20871999 31 14201394997830703939
21033648 144 18410014355361153231
21033648 29 17917427687545965519
21307412 95 6555399913227538149
21315764 119 14201661100829649744
21756936 100 17458617913672907267
22122407 14 17826213371543403897
22393880 68 15140690171625291166
23198884 109 16950280706691981933
23402539 116 17385439908400941720
23402655 69 17675924304700835454
23522609 53 11527099152607442454
23557571 272 17273680148259783711
23559900 14 16914807301006672823
2748736 6 17823711772105550552
2838139 119 18040718060877972872
2916195 48 18412261740111617953
293599 30 18408038499012170922
314194 84 10735877279281577624
329604 57 8502377750256626010
34797466 226 5039651682581501587
4259306 186 8862947168988430304
4325135 7 18260548884360928439
474 4 18260545645417335203
4938544 92 14045478768217255151
5104073 3 18412536630867210267
5385378 56 18338510945433024586
543368 44 17676488350324578585
633830 44 17822847688423964271
9981440 41 16988008318559994521

> <PUBCHEM_SHAPE_MULTIPOLES>
439.89
14.78
2.32
1.65
11.74
1.7
0.4
-11.08
-2.31
0.98
0.4
-2.69
-0.69
1.39

> <PUBCHEM_SHAPE_SELFOVERLAP>
909.294

> <PUBCHEM_SHAPE_VOLUME>
251.3

> <PUBCHEM_COORDINATE_TYPE>
2
5
10

$$$$

