11052
  -OEChem-06261205163D

 28 28  0     0  0  0  0  0  0999 V2000
   -0.2291    2.0441   -0.0397 O   0  0  0  0  0  0  0  0  0  0  0  0
    2.7493    1.1322    1.2033 O   0  0  0  0  0  0  0  0  0  0  0  0
    2.8958    1.2110   -1.0636 O   0  0  0  0  0  0  0  0  0  0  0  0
   -2.6681    0.5907   -0.0011 C   0  0  0  0  0  0  0  0  0  0  0  0
   -1.3306   -0.0735   -0.0057 C   0  0  0  0  0  0  0  0  0  0  0  0
   -0.1578    0.6813   -0.0250 C   0  0  0  0  0  0  0  0  0  0  0  0
   -3.4763    0.2741    1.2706 C   0  0  0  0  0  0  0  0  0  0  0  0
   -3.4995    0.2449   -1.2500 C   0  0  0  0  0  0  0  0  0  0  0  0
   -1.2633   -1.4667    0.0102 C   0  0  0  0  0  0  0  0  0  0  0  0
    1.0824    0.0430   -0.0285 C   0  0  0  0  0  0  0  0  0  0  0  0
    1.1498   -1.3502   -0.0129 C   0  0  0  0  0  0  0  0  0  0  0  0
   -0.0231   -2.1050    0.0064 C   0  0  0  0  0  0  0  0  0  0  0  0
    2.4634   -2.0622   -0.0165 C   0  0  0  0  0  0  0  0  0  0  0  0
    2.3070    0.8361   -0.0476 C   0  0  0  0  0  0  0  0  0  0  0  0
   -2.5703    1.6808   -0.0018 H   0  0  0  0  0  0  0  0  0  0  0  0
   -3.7364   -0.7876    1.3387 H   0  0  0  0  0  0  0  0  0  0  0  0
   -4.4109    0.8456    1.2845 H   0  0  0  0  0  0  0  0  0  0  0  0
   -2.9075    0.5388    2.1690 H   0  0  0  0  0  0  0  0  0  0  0  0
   -2.9485    0.4922   -2.1642 H   0  0  0  0  0  0  0  0  0  0  0  0
   -4.4355    0.8141   -1.2580 H   0  0  0  0  0  0  0  0  0  0  0  0
   -3.7583   -0.8186   -1.2905 H   0  0  0  0  0  0  0  0  0  0  0  0
   -2.1625   -2.0762    0.0255 H   0  0  0  0  0  0  0  0  0  0  0  0
    0.0110   -3.1912    0.0190 H   0  0  0  0  0  0  0  0  0  0  0  0
    3.0408   -1.7992   -0.9090 H   0  0  0  0  0  0  0  0  0  0  0  0
    3.0412   -1.8065    0.8778 H   0  0  0  0  0  0  0  0  0  0  0  0
    2.3373   -3.1504   -0.0219 H   0  0  0  0  0  0  0  0  0  0  0  0
   -0.8834    2.3125   -0.7063 H   0  0  0  0  0  0  0  0  0  0  0  0
    3.5727    1.6649    1.1830 H   0  0  0  0  0  0  0  0  0  0  0  0
  1  6  1  0  0  0  0
  1 27  1  0  0  0  0
  2 14  1  0  0  0  0
  2 28  1  0  0  0  0
  3 14  2  0  0  0  0
  4  5  1  0  0  0  0
  4  7  1  0  0  0  0
  4  8  1  0  0  0  0
  4 15  1  0  0  0  0
  5  6  2  0  0  0  0
  5  9  1  0  0  0  0
  6 10  1  0  0  0  0
  7 16  1  0  0  0  0
  7 17  1  0  0  0  0
  7 18  1  0  0  0  0
  8 19  1  0  0  0  0
  8 20  1  0  0  0  0
  8 21  1  0  0  0  0
  9 12  2  0  0  0  0
  9 22  1  0  0  0  0
 10 11  2  0  0  0  0
 10 14  1  0  0  0  0
 11 12  1  0  0  0  0
 11 13  1  0  0  0  0
 12 23  1  0  0  0  0
 13 24  1  0  0  0  0
 13 25  1  0  0  0  0
 13 26  1  0  0  0  0
M  END
> <PUBCHEM_COMPOUND_CID>
11052

> <PUBCHEM_CONFORMER_RMSD>
0.6

> <PUBCHEM_CONFORMER_DIVERSEORDER>
1
2

> <PUBCHEM_MMFF94_PARTIAL_CHARGES>
16
1 -0.53
10 0.09
11 -0.14
12 -0.15
13 0.14
14 0.63
2 -0.65
22 0.15
23 0.15
27 0.45
28 0.5
3 -0.57
4 0.14
5 -0.14
6 0.08
9 -0.15

> <PUBCHEM_EFFECTIVE_ROTOR_COUNT>
2

> <PUBCHEM_PHARMACOPHORE_FEATURES>
6
1 1 donor
1 2 acceptor
1 3 acceptor
3 2 3 14 anion
3 4 7 8 hydrophobe
6 5 6 9 10 11 12 rings

> <PUBCHEM_HEAVY_ATOM_COUNT>
14

> <PUBCHEM_ATOM_DEF_STEREO_COUNT>
0

> <PUBCHEM_ATOM_UDEF_STEREO_COUNT>
0

> <PUBCHEM_BOND_DEF_STEREO_COUNT>
0

> <PUBCHEM_BOND_UDEF_STEREO_COUNT>
0

> <PUBCHEM_ISOTOPIC_ATOM_COUNT>
0

> <PUBCHEM_COMPONENT_COUNT>
1

> <PUBCHEM_CACTVS_TAUTO_COUNT>
13

> <PUBCHEM_CONFORMER_ID>
00002B2C00000001

> <PUBCHEM_MMFF94_ENERGY>
45.7833

> <PUBCHEM_FEATURE_SELFOVERLAP>
30.503

> <PUBCHEM_SHAPE_FINGERPRINT>
10980938 120 18410854369401796899
11206711 2 18050852121927536719
12382932 28 18339368474017836576
12423570 1 9269239642140348475
12491281 212 17676759925137804315
12524768 44 18409445920671074039
12932764 1 17967250922997909513
13140716 1 18410574002368932627
13296908 3 18059570330244601971
13380535 21 18339629062526804162
13380535 76 18410865325810874770
13897977 150 18409450254218923767
14617773 55 17823128106843722097
14897335 6 18336558135166578294
15219456 202 18131063870596327427
15775835 57 18187078464540158689
161256 15 18338796852683680414
16945 1 18410575046108846885
17844478 74 17917135191725461901
18186145 218 18261106387557034781
20645477 70 18338241586901843471
20715346 28 17917706924797365231
21029758 27 18054778757397765086
21501502 16 18192991745111176529
230 275 18413390951285238738
2334 1 18338798909847025207
23419403 2 15402793033371268755
23493267 7 17561078133178074832
2748010 2 18411411787263676943
276578 36 18335969917920288440
5084963 1 17970638595294869115
528886 8 18410293579647990568
53812653 166 18261954042202372688
7364860 26 18188212104157676526
77492 1 17676773162448523951
81228 2 17761777260521173090

> <PUBCHEM_SHAPE_MULTIPOLES>
270.51
5.17
2.05
0.98
2.17
0.57
0.04
-1.04
-0.01
-1.37
-0.01
0.45
-0.21
-0.01

> <PUBCHEM_SHAPE_SELFOVERLAP>
564.03

> <PUBCHEM_SHAPE_VOLUME>
155.2

> <PUBCHEM_COORDINATE_TYPE>
2
5
10

$$$$

