4541
  -OEChem-06261200123D

 37 38  0     1  0  0  0  0  0999 V2000
   -5.5884    0.6193    0.2088 F   0  0  0  0  0  0  0  0  0  0  0  0
   -4.9635   -0.1712   -1.7117 F   0  0  0  0  0  0  0  0  0  0  0  0
   -5.2208   -1.5118   -0.0190 F   0  0  0  0  0  0  0  0  0  0  0  0
    0.6617    0.4344    1.0914 O   0  0  0  0  0  0  0  0  0  0  0  0
    3.7297    3.8134   -0.5912 N   0  0  0  0  0  0  0  0  0  0  0  0
    1.5796    0.7026    0.0293 C   0  0  1  0  0  0  0  0  0  0  0  0
    2.2018    2.0912    0.2484 C   0  0  0  0  0  0  0  0  0  0  0  0
    2.5872   -0.4225   -0.0110 C   0  0  0  0  0  0  0  0  0  0  0  0
    3.1661    2.4963   -0.8668 C   0  0  0  0  0  0  0  0  0  0  0  0
   -0.6472    0.2601    0.7376 C   0  0  0  0  0  0  0  0  0  0  0  0
    3.1481   -0.7870   -1.2241 C   0  0  0  0  0  0  0  0  0  0  0  0
    2.9311   -1.0673    1.1658 C   0  0  0  0  0  0  0  0  0  0  0  0
   -1.6214    1.1102    1.2529 C   0  0  0  0  0  0  0  0  0  0  0  0
   -0.9971   -0.7657   -0.1358 C   0  0  0  0  0  0  0  0  0  0  0  0
    4.0787   -1.8253   -1.2616 C   0  0  0  0  0  0  0  0  0  0  0  0
    3.8618   -2.1058    1.1283 C   0  0  0  0  0  0  0  0  0  0  0  0
   -3.3127   -0.0935    0.0173 C   0  0  0  0  0  0  0  0  0  0  0  0
   -2.9570    0.9330    0.8921 C   0  0  0  0  0  0  0  0  0  0  0  0
   -2.3328   -0.9428   -0.4967 C   0  0  0  0  0  0  0  0  0  0  0  0
    4.4355   -2.4847   -0.0854 C   0  0  0  0  0  0  0  0  0  0  0  0
   -4.7405   -0.2829   -0.3687 C   0  0  0  0  0  0  0  0  0  0  0  0
    1.0491    0.7314   -0.9338 H   0  0  0  0  0  0  0  0  0  0  0  0
    2.7205    2.1096    1.2168 H   0  0  0  0  0  0  0  0  0  0  0  0
    1.3940    2.8305    0.3330 H   0  0  0  0  0  0  0  0  0  0  0  0
    2.6482    2.5139   -1.8316 H   0  0  0  0  0  0  0  0  0  0  0  0
    4.0013    1.7953   -0.9400 H   0  0  0  0  0  0  0  0  0  0  0  0
    2.8745   -0.2846   -2.1474 H   0  0  0  0  0  0  0  0  0  0  0  0
    2.5118   -0.7821    2.1260 H   0  0  0  0  0  0  0  0  0  0  0  0
   -1.3485    1.9115    1.9340 H   0  0  0  0  0  0  0  0  0  0  0  0
   -0.2480   -1.4430   -0.5358 H   0  0  0  0  0  0  0  0  0  0  0  0
    4.5247   -2.1211   -2.2066 H   0  0  0  0  0  0  0  0  0  0  0  0
    4.1427   -2.6170    2.0444 H   0  0  0  0  0  0  0  0  0  0  0  0
    2.9814    4.5038   -0.5450 H   0  0  0  0  0  0  0  0  0  0  0  0
    4.3288    4.0935   -1.3667 H   0  0  0  0  0  0  0  0  0  0  0  0
   -3.7057    1.6049    1.3027 H   0  0  0  0  0  0  0  0  0  0  0  0
   -2.6006   -1.7469   -1.1770 H   0  0  0  0  0  0  0  0  0  0  0  0
    5.1606   -3.2928   -0.1144 H   0  0  0  0  0  0  0  0  0  0  0  0
  1 21  1  0  0  0  0
  2 21  1  0  0  0  0
  3 21  1  0  0  0  0
  4  6  1  0  0  0  0
  4 10  1  0  0  0  0
  5  9  1  0  0  0  0
  5 33  1  0  0  0  0
  5 34  1  0  0  0  0
  6  7  1  0  0  0  0
  6  8  1  0  0  0  0
  6 22  1  0  0  0  0
  7  9  1  0  0  0  0
  7 23  1  0  0  0  0
  7 24  1  0  0  0  0
  8 11  2  0  0  0  0
  8 12  1  0  0  0  0
  9 25  1  0  0  0  0
  9 26  1  0  0  0  0
 10 13  2  0  0  0  0
 10 14  1  0  0  0  0
 11 15  1  0  0  0  0
 11 27  1  0  0  0  0
 12 16  2  0  0  0  0
 12 28  1  0  0  0  0
 13 18  1  0  0  0  0
 13 29  1  0  0  0  0
 14 19  2  0  0  0  0
 14 30  1  0  0  0  0
 15 20  2  0  0  0  0
 15 31  1  0  0  0  0
 16 20  1  0  0  0  0
 16 32  1  0  0  0  0
 17 18  2  0  0  0  0
 17 19  1  0  0  0  0
 17 21  1  0  0  0  0
 18 35  1  0  0  0  0
 19 36  1  0  0  0  0
 20 37  1  0  0  0  0
M  END
> <PUBCHEM_COMPOUND_CID>
4541

> <PUBCHEM_CONFORMER_RMSD>
0.8

> <PUBCHEM_CONFORMER_DIVERSEORDER>
1
28
33
24
35
40
18
36
29
32
30
11
25
3
16
27
26
20
42
5
23
39
13
41
2
22
14
15
19
9
17
31
21
34
10
4
7
38
8
12
6
37

> <PUBCHEM_MMFF94_PARTIAL_CHARGES>
31
1 -0.34
10 0.08
11 -0.15
12 -0.15
13 -0.15
14 -0.15
15 -0.15
16 -0.15
17 -0.14
18 -0.15
19 -0.15
2 -0.34
20 -0.15
21 1.16
27 0.15
28 0.15
29 0.15
3 -0.34
30 0.15
31 0.15
32 0.15
33 0.36
34 0.36
35 0.15
36 0.15
37 0.15
4 -0.36
5 -0.99
6 0.42
8 -0.14
9 0.27

> <PUBCHEM_EFFECTIVE_ROTOR_COUNT>
6

> <PUBCHEM_PHARMACOPHORE_FEATURES>
5
1 4 acceptor
1 5 cation
1 5 donor
6 10 13 14 17 18 19 rings
6 8 11 12 15 16 20 rings

> <PUBCHEM_HEAVY_ATOM_COUNT>
21

> <PUBCHEM_ATOM_DEF_STEREO_COUNT>
0

> <PUBCHEM_ATOM_UDEF_STEREO_COUNT>
1

> <PUBCHEM_BOND_DEF_STEREO_COUNT>
0

> <PUBCHEM_BOND_UDEF_STEREO_COUNT>
0

> <PUBCHEM_ISOTOPIC_ATOM_COUNT>
0

> <PUBCHEM_COMPONENT_COUNT>
1

> <PUBCHEM_CACTVS_TAUTO_COUNT>
1

> <PUBCHEM_CONFORMER_ID>
000011BD00000001

> <PUBCHEM_MMFF94_ENERGY>
51.4496

> <PUBCHEM_FEATURE_SELFOVERLAP>
25.371

> <PUBCHEM_SHAPE_FINGERPRINT>
10759866 29 18263081007271634822
12553582 1 18197766903242361602
12616971 3 18260546741024151841
12730499 353 18199175192500164224
12788726 201 17458610212585640281
12916754 54 18411698798990873561
13009979 54 17895742023932700808
13533116 47 18335420132526899971
14178000 29 18262510533158061366
15163728 17 17414417413103207188
15238133 3 14404918997793658669
15342816 4 18265046019893895174
15842332 3 17896576514355875720
17349148 13 17821730563198396295
17818456 19 17751910565312071776
17844677 252 18343017805299086673
1813 80 18265048210279405534
18186145 218 18130791153020984195
18222031 100 18262797497029272534
18335252 98 18126843803704968771
193927 3 18186794811830802355
20369508 70 18201723981092260850
20388580 30 18335982051709282290
20554085 129 17898015638455657480
20626108 58 18263929998211081226
20645477 70 18411134710391122818
21304303 282 17035593760086787468
2255824 54 18412258433324487978
23559900 14 18334018280575968978
23598291 2 18262503892606105752
25147074 1 18041825294556442472
29717793 49 18334303080474226861
3004659 81 18259702315360848791
312423 11 18260818306920772577
3472631 163 11671194433013937410
474 4 18127688236813740784
495365 180 17632577128444026680
5104073 3 18113615673520674683
5281201 14 18272937128408884813
6025842 7 18339361860074188148
633830 44 18343025488995325987
7164475 11 18187080697659986905
7364860 26 18334853892876794104
7471813 234 18338514257179818088
7970288 3 18194401315177510702
90127 26 17917994975712053409
960060 61 17703502285519271534
9841814 1 18201165425011482176
9971528 1 18261960738494139482
9981440 41 17907299849856976696

> <PUBCHEM_SHAPE_MULTIPOLES>
399.5
11.37
2.83
1.25
11.91
2.43
0.06
-3.95
2.49
-5.32
0.47
-0.3
-0.15
-1.13

> <PUBCHEM_SHAPE_SELFOVERLAP>
848.083

> <PUBCHEM_SHAPE_VOLUME>
224.2

> <PUBCHEM_COORDINATE_TYPE>
2
5
10

$$$$

