17395311
  -OEChem-06241222492D

 42 44  0     0  0  0  0  0  0999 V2000
   13.2862    0.1980    0.0000 O   0  0  0  0  0  0  0  0  0  0  0  0
   13.2862    2.2673    0.0000 O   0  0  0  0  0  0  0  0  0  0  0  0
    9.7942    0.2327    0.0000 O   0  0  0  0  0  0  0  0  0  0  0  0
    8.0622   -0.7673    0.0000 O   0  0  0  0  0  0  0  0  0  0  0  0
    2.8660   -0.7673    0.0000 O   0  0  0  0  0  0  0  0  0  0  0  0
    3.7320   -2.2673    0.0000 O   0  0  0  0  0  0  0  0  0  0  0  0
    7.1962    0.7327    0.0000 N   0  0  0  0  0  0  0  0  0  0  0  0
   12.3923    0.7327    0.0000 C   0  0  0  0  0  0  0  0  0  0  0  0
   12.3923    1.7327    0.0000 C   0  0  0  0  0  0  0  0  0  0  0  0
   14.1923    0.7119    0.0000 C   0  0  0  0  0  0  0  0  0  0  0  0
   14.1923    1.7535    0.0000 C   0  0  0  0  0  0  0  0  0  0  0  0
   11.5263    0.2327    0.0000 C   0  0  0  0  0  0  0  0  0  0  0  0
   10.6603    0.7327    0.0000 C   0  0  0  0  0  0  0  0  0  0  0  0
   11.5263    2.2327    0.0000 C   0  0  0  0  0  0  0  0  0  0  0  0
   10.6603    1.7327    0.0000 C   0  0  0  0  0  0  0  0  0  0  0  0
    8.9282    0.7327    0.0000 C   0  0  0  0  0  0  0  0  0  0  0  0
    6.3301    0.2327    0.0000 C   0  0  0  0  0  0  0  0  0  0  0  0
    8.0622    0.2327    0.0000 C   0  0  0  0  0  0  0  0  0  0  0  0
    5.4641    0.7327    0.0000 C   0  0  0  0  0  0  0  0  0  0  0  0
    6.3301   -0.7673    0.0000 C   0  0  0  0  0  0  0  0  0  0  0  0
    4.5981   -0.7673    0.0000 C   0  0  0  0  0  0  0  0  0  0  0  0
    4.5981    0.2327    0.0000 C   0  0  0  0  0  0  0  0  0  0  0  0
    5.4641   -1.2673    0.0000 C   0  0  0  0  0  0  0  0  0  0  0  0
    3.7320   -1.2673    0.0000 C   0  0  0  0  0  0  0  0  0  0  0  0
    2.0000   -1.2673    0.0000 C   0  0  0  0  0  0  0  0  0  0  0  0
   14.4014    0.1282    0.0000 H   0  0  0  0  0  0  0  0  0  0  0  0
   14.8032    0.8179    0.0000 H   0  0  0  0  0  0  0  0  0  0  0  0
   14.8032    1.6474    0.0000 H   0  0  0  0  0  0  0  0  0  0  0  0
   14.4014    2.3372    0.0000 H   0  0  0  0  0  0  0  0  0  0  0  0
   11.5263   -0.3873    0.0000 H   0  0  0  0  0  0  0  0  0  0  0  0
   11.5263    2.8527    0.0000 H   0  0  0  0  0  0  0  0  0  0  0  0
   10.1233    2.0427    0.0000 H   0  0  0  0  0  0  0  0  0  0  0  0
    9.3267    1.2076    0.0000 H   0  0  0  0  0  0  0  0  0  0  0  0
    8.5297    1.2076    0.0000 H   0  0  0  0  0  0  0  0  0  0  0  0
    7.1962    1.3527    0.0000 H   0  0  0  0  0  0  0  0  0  0  0  0
    5.4641    1.3527    0.0000 H   0  0  0  0  0  0  0  0  0  0  0  0
    6.8671   -1.0773    0.0000 H   0  0  0  0  0  0  0  0  0  0  0  0
    4.0611    0.5427    0.0000 H   0  0  0  0  0  0  0  0  0  0  0  0
    5.4641   -1.8873    0.0000 H   0  0  0  0  0  0  0  0  0  0  0  0
    1.6900   -0.7304    0.0000 H   0  0  0  0  0  0  0  0  0  0  0  0
    1.4631   -1.5773    0.0000 H   0  0  0  0  0  0  0  0  0  0  0  0
    2.3100   -1.8043    0.0000 H   0  0  0  0  0  0  0  0  0  0  0  0
  1  8  1  0  0  0  0
  1 10  1  0  0  0  0
  2  9  1  0  0  0  0
  2 11  1  0  0  0  0
  3 13  1  0  0  0  0
  3 16  1  0  0  0  0
  4 18  2  0  0  0  0
  5 24  1  0  0  0  0
  5 25  1  0  0  0  0
  6 24  2  0  0  0  0
  7 17  1  0  0  0  0
  7 18  1  0  0  0  0
  7 35  1  0  0  0  0
  8  9  2  0  0  0  0
  8 12  1  0  0  0  0
  9 14  1  0  0  0  0
 10 11  1  0  0  0  0
 10 26  1  0  0  0  0
 10 27  1  0  0  0  0
 11 28  1  0  0  0  0
 11 29  1  0  0  0  0
 12 13  2  0  0  0  0
 12 30  1  0  0  0  0
 13 15  1  0  0  0  0
 14 15  2  0  0  0  0
 14 31  1  0  0  0  0
 15 32  1  0  0  0  0
 16 18  1  0  0  0  0
 16 33  1  0  0  0  0
 16 34  1  0  0  0  0
 17 19  2  0  0  0  0
 17 20  1  0  0  0  0
 19 22  1  0  0  0  0
 19 36  1  0  0  0  0
 20 23  2  0  0  0  0
 20 37  1  0  0  0  0
 21 22  2  0  0  0  0
 21 23  1  0  0  0  0
 21 24  1  0  0  0  0
 22 38  1  0  0  0  0
 23 39  1  0  0  0  0
 25 40  1  0  0  0  0
 25 41  1  0  0  0  0
 25 42  1  0  0  0  0
M  END
> <PUBCHEM_COMPOUND_CID>
17395311

> <PUBCHEM_COMPOUND_CANONICALIZED>
1

> <PUBCHEM_CACTVS_COMPLEXITY>
463

> <PUBCHEM_CACTVS_HBOND_ACCEPTOR>
6

> <PUBCHEM_CACTVS_HBOND_DONOR>
1

> <PUBCHEM_CACTVS_ROTATABLE_BOND>
6

> <PUBCHEM_CACTVS_SUBSKEYS>
AAADceB6OAAAAAAAAAAAAAAAAAAAAAAAAAA0YIAAAAAAAACRQAAAHgAQAAAADAyhmAIyzoLABACIAiXSWAKCCAAlIgAIiAFG7MgPJzLEtZ+HOSrl1BXa6YfY+S+eCQAACAAAQAASAAAQAACAAAAAAAAAAA==

> <PUBCHEM_IUPAC_OPENEYE_NAME>
methyl 4-[[2-(2,3-dihydro-1,4-benzodioxin-6-yloxy)acetyl]amino]benzoate

> <PUBCHEM_IUPAC_CAS_NAME>
4-[[2-(2,3-dihydro-1,4-benzodioxin-6-yloxy)-1-oxoethyl]amino]benzoic acid methyl ester

> <PUBCHEM_IUPAC_NAME>
methyl 4-[[2-(2,3-dihydro-1,4-benzodioxin-6-yloxy)acetyl]amino]benzoate

> <PUBCHEM_IUPAC_SYSTEMATIC_NAME>
methyl 4-[2-(2,3-dihydro-1,4-benzodioxin-6-yloxy)ethanoylamino]benzoate

> <PUBCHEM_IUPAC_TRADITIONAL_NAME>
4-[[2-(2,3-dihydro-1,4-benzodioxin-6-yloxy)acetyl]amino]benzoic acid methyl ester

> <PUBCHEM_IUPAC_INCHI>
InChI=1S/C18H17NO6/c1-22-18(21)12-2-4-13(5-3-12)19-17(20)11-25-14-6-7-15-16(10-14)24-9-8-23-15/h2-7,10H,8-9,11H2,1H3,(H,19,20)

> <PUBCHEM_IUPAC_INCHIKEY>
DNOXHEYZHIAEEI-UHFFFAOYSA-N

> <PUBCHEM_XLOGP3_AA>
2.4

> <PUBCHEM_EXACT_MASS>
343.105587

> <PUBCHEM_MOLECULAR_FORMULA>
C18H17NO6

> <PUBCHEM_MOLECULAR_WEIGHT>
343.33068

> <PUBCHEM_OPENEYE_CAN_SMILES>
COC(=O)C1=CC=C(C=C1)NC(=O)COC2=CC3=C(C=C2)OCCO3

> <PUBCHEM_OPENEYE_ISO_SMILES>
COC(=O)C1=CC=C(C=C1)NC(=O)COC2=CC3=C(C=C2)OCCO3

> <PUBCHEM_CACTVS_TPSA>
83.1

> <PUBCHEM_MONOISOTOPIC_WEIGHT>
343.105587

> <PUBCHEM_TOTAL_CHARGE>
0

> <PUBCHEM_HEAVY_ATOM_COUNT>
25

> <PUBCHEM_ATOM_DEF_STEREO_COUNT>
0

> <PUBCHEM_ATOM_UDEF_STEREO_COUNT>
0

> <PUBCHEM_BOND_DEF_STEREO_COUNT>
0

> <PUBCHEM_BOND_UDEF_STEREO_COUNT>
0

> <PUBCHEM_ISOTOPIC_ATOM_COUNT>
0

> <PUBCHEM_COMPONENT_COUNT>
1

> <PUBCHEM_CACTVS_TAUTO_COUNT>
7

> <PUBCHEM_COORDINATE_TYPE>
1
5
255

> <PUBCHEM_BONDANNOTATIONS>
12  13  8
13  15  8
14  15  8
17  19  8
17  20  8
19  22  8
20  23  8
21  22  8
21  23  8
8  12  8
8  9  8
9  14  8

$$$$

