12140
  -OEChem-06261206353D

 34 35  0     0  0  0  0  0  0999 V2000
    1.5944   -1.2714    0.5375 O   0  0  0  0  0  0  0  0  0  0  0  0
   -1.5214   -1.2694   -0.8796 O   0  0  0  0  0  0  0  0  0  0  0  0
    0.5152   -3.8289    0.7442 O   0  0  0  0  0  0  0  0  0  0  0  0
    0.1104   -2.9542   -0.3114 C   0  0  0  0  0  0  0  0  0  0  0  0
    1.2768   -2.0269   -0.6268 C   0  0  0  0  0  0  0  0  0  0  0  0
   -1.1160   -2.1719    0.1444 C   0  0  0  0  0  0  0  0  0  0  0  0
    2.1328   -0.0283    0.3369 C   0  0  0  0  0  0  0  0  0  0  0  0
   -2.1672   -0.1310   -0.4766 C   0  0  0  0  0  0  0  0  0  0  0  0
    2.9040    0.2143   -0.7947 C   0  0  0  0  0  0  0  0  0  0  0  0
   -2.9373   -0.1488    0.6812 C   0  0  0  0  0  0  0  0  0  0  0  0
    1.9042    0.9799    1.2670 C   0  0  0  0  0  0  0  0  0  0  0  0
   -2.0477    1.0321   -1.2295 C   0  0  0  0  0  0  0  0  0  0  0  0
    3.4533    1.4801   -0.9985 C   0  0  0  0  0  0  0  0  0  0  0  0
   -3.5960    1.0105    1.0911 C   0  0  0  0  0  0  0  0  0  0  0  0
    2.4533    2.2458    1.0632 C   0  0  0  0  0  0  0  0  0  0  0  0
   -2.7063    2.1914   -0.8196 C   0  0  0  0  0  0  0  0  0  0  0  0
    3.2279    2.4959   -0.0696 C   0  0  0  0  0  0  0  0  0  0  0  0
   -3.4804    2.1806    0.3407 C   0  0  0  0  0  0  0  0  0  0  0  0
   -0.1252   -3.5585   -1.1937 H   0  0  0  0  0  0  0  0  0  0  0  0
    0.9988   -1.3903   -1.4761 H   0  0  0  0  0  0  0  0  0  0  0  0
    2.1562   -2.6253   -0.8935 H   0  0  0  0  0  0  0  0  0  0  0  0
   -0.8809   -1.6576    1.0863 H   0  0  0  0  0  0  0  0  0  0  0  0
   -1.9328   -2.8751    0.3503 H   0  0  0  0  0  0  0  0  0  0  0  0
    0.7622   -3.2802    1.5084 H   0  0  0  0  0  0  0  0  0  0  0  0
    3.1285   -0.5557   -1.5264 H   0  0  0  0  0  0  0  0  0  0  0  0
   -3.0782   -1.0447    1.2778 H   0  0  0  0  0  0  0  0  0  0  0  0
    1.3005    0.7895    2.1499 H   0  0  0  0  0  0  0  0  0  0  0  0
   -1.4447    1.0450   -2.1330 H   0  0  0  0  0  0  0  0  0  0  0  0
    4.0622    1.6736   -1.8769 H   0  0  0  0  0  0  0  0  0  0  0  0
   -4.2044    1.0008    1.9908 H   0  0  0  0  0  0  0  0  0  0  0  0
    2.2776    3.0369    1.7864 H   0  0  0  0  0  0  0  0  0  0  0  0
   -2.6162    3.1025   -1.4037 H   0  0  0  0  0  0  0  0  0  0  0  0
    3.6567    3.4812   -0.2275 H   0  0  0  0  0  0  0  0  0  0  0  0
   -3.9945    3.0828    0.6590 H   0  0  0  0  0  0  0  0  0  0  0  0
  1  5  1  0  0  0  0
  1  7  1  0  0  0  0
  2  6  1  0  0  0  0
  2  8  1  0  0  0  0
  3  4  1  0  0  0  0
  3 24  1  0  0  0  0
  4  5  1  0  0  0  0
  4  6  1  0  0  0  0
  4 19  1  0  0  0  0
  5 20  1  0  0  0  0
  5 21  1  0  0  0  0
  6 22  1  0  0  0  0
  6 23  1  0  0  0  0
  7  9  2  0  0  0  0
  7 11  1  0  0  0  0
  8 10  2  0  0  0  0
  8 12  1  0  0  0  0
  9 13  1  0  0  0  0
  9 25  1  0  0  0  0
 10 14  1  0  0  0  0
 10 26  1  0  0  0  0
 11 15  2  0  0  0  0
 11 27  1  0  0  0  0
 12 16  2  0  0  0  0
 12 28  1  0  0  0  0
 13 17  2  0  0  0  0
 13 29  1  0  0  0  0
 14 18  2  0  0  0  0
 14 30  1  0  0  0  0
 15 17  1  0  0  0  0
 15 31  1  0  0  0  0
 16 18  1  0  0  0  0
 16 32  1  0  0  0  0
 17 33  1  0  0  0  0
 18 34  1  0  0  0  0
M  END
> <PUBCHEM_COMPOUND_CID>
12140

> <PUBCHEM_CONFORMER_RMSD>
0.8

> <PUBCHEM_CONFORMER_DIVERSEORDER>
1
37
53
26
44
2
9
54
30
3
36
23
35
29
39
48
42
5
15
7
47
6
31
41
51
19
52
45
18
32
4
50
46
20
10
27
55
22
17
40
43
11
14
21
25
8
38
16
13
28
49
12
24
34
33

> <PUBCHEM_MMFF94_PARTIAL_CHARGES>
29
1 -0.36
10 -0.15
11 -0.15
12 -0.15
13 -0.15
14 -0.15
15 -0.15
16 -0.15
17 -0.15
18 -0.15
2 -0.36
24 0.4
25 0.15
26 0.15
27 0.15
28 0.15
29 0.15
3 -0.68
30 0.15
31 0.15
32 0.15
33 0.15
34 0.15
4 0.28
5 0.28
6 0.28
7 0.08
8 0.08
9 -0.15

> <PUBCHEM_EFFECTIVE_ROTOR_COUNT>
6

> <PUBCHEM_PHARMACOPHORE_FEATURES>
6
1 1 acceptor
1 2 acceptor
1 3 acceptor
1 3 donor
6 7 9 11 13 15 17 rings
6 8 10 12 14 16 18 rings

> <PUBCHEM_HEAVY_ATOM_COUNT>
18

> <PUBCHEM_ATOM_DEF_STEREO_COUNT>
0

> <PUBCHEM_ATOM_UDEF_STEREO_COUNT>
0

> <PUBCHEM_BOND_DEF_STEREO_COUNT>
0

> <PUBCHEM_BOND_UDEF_STEREO_COUNT>
0

> <PUBCHEM_ISOTOPIC_ATOM_COUNT>
0

> <PUBCHEM_COMPONENT_COUNT>
1

> <PUBCHEM_CACTVS_TAUTO_COUNT>
1

> <PUBCHEM_CONFORMER_ID>
00002F6C00000001

> <PUBCHEM_MMFF94_ENERGY>
60.9639

> <PUBCHEM_FEATURE_SELFOVERLAP>
30.45

> <PUBCHEM_SHAPE_FINGERPRINT>
10006869 2 18268153063449938891
10165383 225 18267281231789333909
10366900 7 18057590165743281011
10498660 4 18196100949441075133
12173636 292 18337391539490236189
128993 33 18408886221960500893
13764800 53 18054512404647267874
14026960 21 18341325686826123281
14386348 128 18409446977175006501
14713325 29 17909531875804429486
151778 21 18339348781709406833
18219364 16 18340772649372553509
20465049 17 18190159356002699085
20510252 161 18121220878984801355
20671657 1 18263086672317829599
20681677 76 18054509373054036453
21041028 32 17329709237159348647
21524375 3 18408326566252510902
22182937 141 18190733146348177872
23557571 272 17617379476951153358
238 59 18122371178759056853
25 1 18261103097722823294
2637199 183 18261095400888357660
31174 14 18052247686067588051
350125 39 18411417293427600586
3797600 57 16556185949287945012
49207404 50 18270948138012969161
5048184 11 18409448072523802133
54672768 99 17911807082515411652
6442390 28 18266723723870895035
7226269 152 18187366554410168104
7808743 9 18124588683401853524
81228 2 17834120740482970938

> <PUBCHEM_SHAPE_MULTIPOLES>
352.82
6.52
3.89
1.2
0.82
2.9
0.02
-5.81
0.1
-0.59
0.31
-0.01
-0.34
0.17

> <PUBCHEM_SHAPE_SELFOVERLAP>
741.988

> <PUBCHEM_SHAPE_VOLUME>
198.6

> <PUBCHEM_COORDINATE_TYPE>
2
5
10

$$$$

