8420
  -OEChem-06261202493D

 22 23  0     0  0  0  0  0  0999 V2000
   -2.9292   -0.2449    0.0847 S   0  0  0  0  0  0  0  0  0  0  0  0
   -3.3769   -0.3636   -1.4832 O   0  0  0  0  0  0  0  0  0  0  0  0
   -3.0636   -1.5727    0.6661 O   0  0  0  0  0  0  0  0  0  0  0  0
   -3.6224    0.8935    0.6673 O   0  0  0  0  0  0  0  0  0  0  0  0
    1.0970   -0.5493    0.0186 C   0  0  0  0  0  0  0  0  0  0  0  0
    1.5015    0.8066   -0.0055 C   0  0  0  0  0  0  0  0  0  0  0  0
   -1.2307    0.1580    0.0473 C   0  0  0  0  0  0  0  0  0  0  0  0
   -0.2731   -0.8568    0.0448 C   0  0  0  0  0  0  0  0  0  0  0  0
    0.5240    1.8152   -0.0030 C   0  0  0  0  0  0  0  0  0  0  0  0
   -0.8329    1.4915    0.0232 C   0  0  0  0  0  0  0  0  0  0  0  0
    2.0745   -1.5577    0.0158 C   0  0  0  0  0  0  0  0  0  0  0  0
    2.8715    1.1143   -0.0319 C   0  0  0  0  0  0  0  0  0  0  0  0
    3.4313   -1.2338   -0.0102 C   0  0  0  0  0  0  0  0  0  0  0  0
    3.8291    0.0997   -0.0339 C   0  0  0  0  0  0  0  0  0  0  0  0
   -0.5836   -1.8997    0.0561 H   0  0  0  0  0  0  0  0  0  0  0  0
    0.8124    2.8642   -0.0231 H   0  0  0  0  0  0  0  0  0  0  0  0
   -1.5602    2.2984    0.0170 H   0  0  0  0  0  0  0  0  0  0  0  0
    1.7868   -2.6068    0.0340 H   0  0  0  0  0  0  0  0  0  0  0  0
    3.2052    2.1497   -0.0508 H   0  0  0  0  0  0  0  0  0  0  0  0
    4.1772   -2.0233   -0.0120 H   0  0  0  0  0  0  0  0  0  0  0  0
    4.8855    0.3511   -0.0543 H   0  0  0  0  0  0  0  0  0  0  0  0
   -2.9183   -1.0659   -2.0018 H   0  0  0  0  0  0  0  0  0  0  0  0
  1  2  1  0  0  0  0
  1  3  2  0  0  0  0
  1  4  2  0  0  0  0
  1  7  1  0  0  0  0
  2 22  1  0  0  0  0
  5  6  1  0  0  0  0
  5  8  1  0  0  0  0
  5 11  2  0  0  0  0
  6  9  1  0  0  0  0
  6 12  2  0  0  0  0
  7  8  2  0  0  0  0
  7 10  1  0  0  0  0
  8 15  1  0  0  0  0
  9 10  2  0  0  0  0
  9 16  1  0  0  0  0
 10 17  1  0  0  0  0
 11 13  1  0  0  0  0
 11 18  1  0  0  0  0
 12 14  1  0  0  0  0
 12 19  1  0  0  0  0
 13 14  2  0  0  0  0
 13 20  1  0  0  0  0
 14 21  1  0  0  0  0
M  END
> <PUBCHEM_COMPOUND_CID>
8420

> <PUBCHEM_CONFORMER_RMSD>
0.4

> <PUBCHEM_CONFORMER_DIVERSEORDER>
1
2

> <PUBCHEM_MMFF94_PARTIAL_CHARGES>
20
1 1.49
10 -0.15
11 -0.15
12 -0.15
13 -0.15
14 -0.15
15 0.15
16 0.15
17 0.15
18 0.15
19 0.15
2 -0.68
20 0.15
21 0.15
22 0.5
3 -0.65
4 -0.65
7 -0.01
8 -0.15
9 -0.15

> <PUBCHEM_EFFECTIVE_ROTOR_COUNT>
1

> <PUBCHEM_PHARMACOPHORE_FEATURES>
6
1 2 acceptor
1 3 acceptor
1 4 acceptor
4 1 2 3 4 anion
6 5 6 11 12 13 14 rings
6 5 6 7 8 9 10 rings

> <PUBCHEM_HEAVY_ATOM_COUNT>
14

> <PUBCHEM_ATOM_DEF_STEREO_COUNT>
0

> <PUBCHEM_ATOM_UDEF_STEREO_COUNT>
0

> <PUBCHEM_BOND_DEF_STEREO_COUNT>
0

> <PUBCHEM_BOND_UDEF_STEREO_COUNT>
0

> <PUBCHEM_ISOTOPIC_ATOM_COUNT>
0

> <PUBCHEM_COMPONENT_COUNT>
1

> <PUBCHEM_CACTVS_TAUTO_COUNT>
1

> <PUBCHEM_CONFORMER_ID>
000020E400000001

> <PUBCHEM_MMFF94_ENERGY>
30.1352

> <PUBCHEM_FEATURE_SELFOVERLAP>
30.529

> <PUBCHEM_SHAPE_FINGERPRINT>
10219947 1 18333731312425588366
10608611 8 18413392037785760356
11132069 177 18409171021410346616
11471102 20 18411704287616141076
11769659 78 18334018314914387134
11806522 49 18265618688893836791
12032990 46 18411411813286291978
12932764 1 17458345200028391217
13221675 6 18409448085561223638
13296908 3 18342454824721738211
14144814 61 18409165510766891226
14251717 144 18408892814824776342
14289901 80 15936407831868873522
14325111 11 18410571773290896464
14576447 43 18115603525644579671
14993402 34 18114186310758537142
15442244 35 18120933068994321048
15536298 74 18261109677860673024
16945 1 18410856521227956352
17844478 74 17988640813329788797
18186145 218 17917711318190232394
19026448 4 16128937828467302212
19107657 46 18411416193931582678
19422 9 18259983768899626751
200 152 18186811283019313463
20201158 50 18342458144662853698
20281475 54 18413103965796987026
20645477 70 18408890663004229599
21267235 1 18410000040092704370
21501502 16 18266175213692169376
21501925 9 18340498849913688722
23402539 116 18335146414203188118
23402655 69 18336550511568064045
23463225 33 18411415133311745076
23559900 14 18343023324469290202
2748010 2 18266184005500747956
3312278 4 18411695491438664457
5104073 3 18410572885655668131
581208 293 18336271167380207744
7364860 26 18264205812247159936
8809292 202 18201994426144731571

> <PUBCHEM_SHAPE_MULTIPOLES>
274.35
6.53
1.72
0.77
1.44
0.15
0.15
-1.26
0.11
-0.34
-0.11
0.54
-0.06
-0.05

> <PUBCHEM_SHAPE_SELFOVERLAP>
586.612

> <PUBCHEM_SHAPE_VOLUME>
152.4

> <PUBCHEM_COORDINATE_TYPE>
2
5
10

$$$$

