13374
  -OEChem-06261209272D

 30 27  0     0  0  0  0  0  0999 V2000
    2.5369    0.2500    0.0000 S   0  0  0  0  0  0  0  0  0  0  0  0
   12.0632   -0.2500    0.0000 S   0  0  0  0  0  0  0  0  0  0  0  0
    3.4030   -1.2500    0.0000 S   0  5  0  0  0  0  0  0  0  0  0  0
   11.1972    1.2500    0.0000 S   0  5  0  0  0  0  0  0  0  0  0  0
   12.0632    1.7500    0.0000 Na  0  3  0  0  0  0  0  0  0  0  0  0
    2.5369   -1.7500    0.0000 Na  0  3  0  0  0  0  0  0  0  0  0  0
    4.2690    0.2500    0.0000 N   0  0  0  0  0  0  0  0  0  0  0  0
   10.3312   -0.2500    0.0000 N   0  0  0  0  0  0  0  0  0  0  0  0
    6.8671   -0.2500    0.0000 C   0  0  0  0  0  0  0  0  0  0  0  0
    7.7331    0.2500    0.0000 C   0  0  0  0  0  0  0  0  0  0  0  0
    6.0010    0.2500    0.0000 C   0  0  0  0  0  0  0  0  0  0  0  0
    8.5991   -0.2500    0.0000 C   0  0  0  0  0  0  0  0  0  0  0  0
    5.1350   -0.2500    0.0000 C   0  0  0  0  0  0  0  0  0  0  0  0
    9.4651    0.2500    0.0000 C   0  0  0  0  0  0  0  0  0  0  0  0
    3.4030   -0.2500    0.0000 C   0  0  0  0  0  0  0  0  0  0  0  0
   11.1972    0.2500    0.0000 C   0  0  0  0  0  0  0  0  0  0  0  0
    6.4685   -0.7249    0.0000 H   0  0  0  0  0  0  0  0  0  0  0  0
    7.2656   -0.7249    0.0000 H   0  0  0  0  0  0  0  0  0  0  0  0
    8.1316    0.7249    0.0000 H   0  0  0  0  0  0  0  0  0  0  0  0
    7.3346    0.7249    0.0000 H   0  0  0  0  0  0  0  0  0  0  0  0
    6.3996    0.7249    0.0000 H   0  0  0  0  0  0  0  0  0  0  0  0
    5.6025    0.7249    0.0000 H   0  0  0  0  0  0  0  0  0  0  0  0
    8.2006   -0.7249    0.0000 H   0  0  0  0  0  0  0  0  0  0  0  0
    8.9976   -0.7249    0.0000 H   0  0  0  0  0  0  0  0  0  0  0  0
    4.7365   -0.7249    0.0000 H   0  0  0  0  0  0  0  0  0  0  0  0
    5.5335   -0.7249    0.0000 H   0  0  0  0  0  0  0  0  0  0  0  0
    9.8637    0.7249    0.0000 H   0  0  0  0  0  0  0  0  0  0  0  0
    9.0666    0.7249    0.0000 H   0  0  0  0  0  0  0  0  0  0  0  0
    2.0000   -0.0600    0.0000 H   0  0  0  0  0  0  0  0  0  0  0  0
   12.6002    0.0600    0.0000 H   0  0  0  0  0  0  0  0  0  0  0  0
  1 15  1  0  0  0  0
  1 29  1  0  0  0  0
  2 16  1  0  0  0  0
  2 30  1  0  0  0  0
  3 15  1  0  0  0  0
  4 16  1  0  0  0  0
  7 13  1  0  0  0  0
  7 15  2  0  0  0  0
  8 14  1  0  0  0  0
  8 16  2  0  0  0  0
  9 10  1  0  0  0  0
  9 11  1  0  0  0  0
  9 17  1  0  0  0  0
  9 18  1  0  0  0  0
 10 12  1  0  0  0  0
 10 19  1  0  0  0  0
 10 20  1  0  0  0  0
 11 13  1  0  0  0  0
 11 21  1  0  0  0  0
 11 22  1  0  0  0  0
 12 14  1  0  0  0  0
 12 23  1  0  0  0  0
 12 24  1  0  0  0  0
 13 25  1  0  0  0  0
 13 26  1  0  0  0  0
 14 27  1  0  0  0  0
 14 28  1  0  0  0  0
M  CHG  4   3  -1   4  -1   5   1   6   1
M  END
> <PUBCHEM_COMPOUND_CID>
13374

> <PUBCHEM_COMPOUND_CANONICALIZED>
1

> <PUBCHEM_CACTVS_COMPLEXITY>
182

> <PUBCHEM_CACTVS_HBOND_ACCEPTOR>
6

> <PUBCHEM_CACTVS_HBOND_DONOR>
2

> <PUBCHEM_CACTVS_ROTATABLE_BOND>
7

> <PUBCHEM_CACTVS_SUBSKEYS>
AAADccBzADBwAAAAAAAAAAAAAAAAAAAAAAAAAAAAAAAAAAAAAAAAHAQAAAAACADBAAQAAAIAAAQgAAAABAAAEAAAAAAAAAAAAAAAAAIAgAAAAAAAAAAAAAEQAAAAAAAAAAAAAAAAAAAAAAAAAAAAAAAAAA==

> <PUBCHEM_IUPAC_OPENEYE_NAME>
disodium 1-sulfanyl-N-[6-[[sulfanyl(sulfido)methylene]amino]hexyl]methanimidothioate

> <PUBCHEM_IUPAC_CAS_NAME>
disodium 1-mercapto-N-[6-[[mercapto(sulfido)methylidene]amino]hexyl]methanimidothioate

> <PUBCHEM_IUPAC_NAME>
disodium 1-sulfanyl-N-[6-[[sulfanyl(sulfido)methylidene]amino]hexyl]methanimidothioate

> <PUBCHEM_IUPAC_SYSTEMATIC_NAME>
disodium N-[6-[[sulfanidyl(sulfanyl)methylidene]amino]hexyl]-1-sulfanyl-methanimidothioate

> <PUBCHEM_IUPAC_TRADITIONAL_NAME>
disodium 1-mercapto-N-[6-[[mercapto(sulfido)methylene]amino]hexyl]thioformimidate

> <PUBCHEM_IUPAC_INCHI>
InChI=1S/C8H16N2S4.2Na/c11-7(12)9-5-3-1-2-4-6-10-8(13)14;;/h1-6H2,(H2,9,11,12)(H2,10,13,14);;/q;2*+1/p-2

> <PUBCHEM_IUPAC_INCHIKEY>
YECKGFONHTVTNM-UHFFFAOYSA-L

> <PUBCHEM_EXACT_MASS>
311.983521

> <PUBCHEM_MOLECULAR_FORMULA>
C8H14N2Na2S4

> <PUBCHEM_MOLECULAR_WEIGHT>
312.449699

> <PUBCHEM_OPENEYE_CAN_SMILES>
C(CCCN=C(S)[S-])CCN=C(S)[S-].[Na+].[Na+]

> <PUBCHEM_OPENEYE_ISO_SMILES>
C(CCCN=C(S)[S-])CCN=C(S)[S-].[Na+].[Na+]

> <PUBCHEM_CACTVS_TPSA>
28.7

> <PUBCHEM_MONOISOTOPIC_WEIGHT>
311.983521

> <PUBCHEM_TOTAL_CHARGE>
0

> <PUBCHEM_HEAVY_ATOM_COUNT>
16

> <PUBCHEM_ATOM_DEF_STEREO_COUNT>
0

> <PUBCHEM_ATOM_UDEF_STEREO_COUNT>
0

> <PUBCHEM_BOND_DEF_STEREO_COUNT>
0

> <PUBCHEM_BOND_UDEF_STEREO_COUNT>
0

> <PUBCHEM_ISOTOPIC_ATOM_COUNT>
0

> <PUBCHEM_COMPONENT_COUNT>
3

> <PUBCHEM_CACTVS_TAUTO_COUNT>
3

> <PUBCHEM_COORDINATE_TYPE>
1
5
255

$$$$

