17396313
  -OEChem-06241222553D

 47 48  0     0  0  0  0  0  0999 V2000
   -2.5231    2.2706   -1.3690 S   0  0  0  0  0  0  0  0  0  0  0  0
    0.1401    3.4699   -0.0492 O   0  0  0  0  0  0  0  0  0  0  0  0
    3.9785   -0.3537    2.1759 O   0  0  0  0  0  0  0  0  0  0  0  0
    1.6764    0.6519   -1.6173 N   0  0  0  0  0  0  0  0  0  0  0  0
   -2.1660   -0.3319   -0.8653 N   0  0  0  0  0  0  0  0  0  0  0  0
   -2.4647   -1.3768    1.2855 N   0  0  0  0  0  0  0  0  0  0  0  0
    1.7711    0.9874    0.5760 C   0  0  0  0  0  0  0  0  0  0  0  0
    1.1782    1.4129   -0.5922 C   0  0  0  0  0  0  0  0  0  0  0  0
    2.6571   -0.0663    0.2414 C   0  0  0  0  0  0  0  0  0  0  0  0
    2.5789   -0.2525   -1.1211 C   0  0  0  0  0  0  0  0  0  0  0  0
   -1.7891   -2.7283   -0.6270 C   0  0  0  0  0  0  0  0  0  0  0  0
    0.1819    2.4838   -0.7864 C   0  0  0  0  0  0  0  0  0  0  0  0
    1.5285    1.5290    1.9299 C   0  0  0  0  0  0  0  0  0  0  0  0
    3.2707   -1.2017   -2.0150 C   0  0  0  0  0  0  0  0  0  0  0  0
    3.4988   -0.8265    1.1218 C   0  0  0  0  0  0  0  0  0  0  0  0
   -0.8011    2.3244   -1.9400 C   0  0  0  0  0  0  0  0  0  0  0  0
   -2.1660   -1.3863   -0.0276 C   0  0  0  0  0  0  0  0  0  0  0  0
   -2.7783   -3.1574   -1.7136 C   0  0  0  0  0  0  0  0  0  0  0  0
   -0.3564   -2.7215   -1.1660 C   0  0  0  0  0  0  0  0  0  0  0  0
   -2.5057    0.8448   -0.2994 C   0  0  0  0  0  0  0  0  0  0  0  0
    3.8545   -2.2783    0.8028 C   0  0  0  0  0  0  0  0  0  0  0  0
   -2.7953   -0.1680    1.7855 C   0  0  0  0  0  0  0  0  0  0  0  0
   -2.8334    0.9883    1.0334 C   0  0  0  0  0  0  0  0  0  0  0  0
   -3.1356   -0.1137    3.2369 C   0  0  0  0  0  0  0  0  0  0  0  0
    1.4362    0.7495   -2.5941 H   0  0  0  0  0  0  0  0  0  0  0  0
   -1.8349   -3.4792    0.1729 H   0  0  0  0  0  0  0  0  0  0  0  0
    1.6539    0.7604    2.6990 H   0  0  0  0  0  0  0  0  0  0  0  0
    0.5074    1.9090    2.0360 H   0  0  0  0  0  0  0  0  0  0  0  0
    2.2240    2.3466    2.1440 H   0  0  0  0  0  0  0  0  0  0  0  0
    4.3522   -1.1813   -1.8511 H   0  0  0  0  0  0  0  0  0  0  0  0
    3.1059   -0.9469   -3.0681 H   0  0  0  0  0  0  0  0  0  0  0  0
    2.9025   -2.2214   -1.8707 H   0  0  0  0  0  0  0  0  0  0  0  0
   -0.6101    1.4241   -2.5276 H   0  0  0  0  0  0  0  0  0  0  0  0
   -0.6731    3.1816   -2.6089 H   0  0  0  0  0  0  0  0  0  0  0  0
   -2.5341   -4.1577   -2.0866 H   0  0  0  0  0  0  0  0  0  0  0  0
   -3.8010   -3.1840   -1.3215 H   0  0  0  0  0  0  0  0  0  0  0  0
   -2.7664   -2.4681   -2.5654 H   0  0  0  0  0  0  0  0  0  0  0  0
   -0.2367   -2.0068   -1.9877 H   0  0  0  0  0  0  0  0  0  0  0  0
   -0.0769   -3.7126   -1.5386 H   0  0  0  0  0  0  0  0  0  0  0  0
    0.3522   -2.4470   -0.3773 H   0  0  0  0  0  0  0  0  0  0  0  0
    4.7048   -2.3174    0.1197 H   0  0  0  0  0  0  0  0  0  0  0  0
    2.9900   -2.8039    0.3902 H   0  0  0  0  0  0  0  0  0  0  0  0
    4.1323   -2.7871    1.7317 H   0  0  0  0  0  0  0  0  0  0  0  0
   -3.1031    1.9429    1.4698 H   0  0  0  0  0  0  0  0  0  0  0  0
   -4.1601    0.2462    3.3747 H   0  0  0  0  0  0  0  0  0  0  0  0
   -3.0613   -1.1050    3.6960 H   0  0  0  0  0  0  0  0  0  0  0  0
   -2.4473    0.5546    3.7641 H   0  0  0  0  0  0  0  0  0  0  0  0
  1 16  1  0  0  0  0
  1 20  1  0  0  0  0
  2 12  2  0  0  0  0
  3 15  2  0  0  0  0
  4  8  1  0  0  0  0
  4 10  1  0  0  0  0
  4 25  1  0  0  0  0
  5 17  1  0  0  0  0
  5 20  2  0  0  0  0
  6 17  2  0  0  0  0
  6 22  1  0  0  0  0
  7  8  2  0  0  0  0
  7  9  1  0  0  0  0
  7 13  1  0  0  0  0
  8 12  1  0  0  0  0
  9 10  2  0  0  0  0
  9 15  1  0  0  0  0
 10 14  1  0  0  0  0
 11 17  1  0  0  0  0
 11 18  1  0  0  0  0
 11 19  1  0  0  0  0
 11 26  1  0  0  0  0
 12 16  1  0  0  0  0
 13 27  1  0  0  0  0
 13 28  1  0  0  0  0
 13 29  1  0  0  0  0
 14 30  1  0  0  0  0
 14 31  1  0  0  0  0
 14 32  1  0  0  0  0
 15 21  1  0  0  0  0
 16 33  1  0  0  0  0
 16 34  1  0  0  0  0
 18 35  1  0  0  0  0
 18 36  1  0  0  0  0
 18 37  1  0  0  0  0
 19 38  1  0  0  0  0
 19 39  1  0  0  0  0
 19 40  1  0  0  0  0
 20 23  1  0  0  0  0
 21 41  1  0  0  0  0
 21 42  1  0  0  0  0
 21 43  1  0  0  0  0
 22 23  2  0  0  0  0
 22 24  1  0  0  0  0
 23 44  1  0  0  0  0
 24 45  1  0  0  0  0
 24 46  1  0  0  0  0
 24 47  1  0  0  0  0
M  END
> <PUBCHEM_COMPOUND_CID>
17396313

> <PUBCHEM_CONFORMER_RMSD>
1.2

> <PUBCHEM_CONFORMER_DIVERSEORDER>
2
35
69
3
78
32
46
66
54
43
27
41
48
52
38
63
75
4
55
30
67
7
11
5
53
15
22
13
37
60
58
10
59
71
64
26
1
40
24
29
47
72
28
34
18
49
33
42
31
6
44
56
50
70
74
61
51
39
14
57
77
25
76
19
21
17
23
45
20
73
65
62
36
16
12
9
68
8

> <PUBCHEM_MMFF94_PARTIAL_CHARGES>
24
1 -0.33
10 -0.33
11 0.14
12 0.59
13 0.18
14 0.18
15 0.6
16 0.29
17 0.48
2 -0.57
20 0.41
21 0.06
22 0.17
23 -0.15
24 0.14
25 0.27
3 -0.57
4 0.03
44 0.15
5 -0.62
6 -0.62
7 -0.18
8 -0.24
9 -0.09

> <PUBCHEM_EFFECTIVE_ROTOR_COUNT>
6

> <PUBCHEM_PHARMACOPHORE_FEATURES>
9
1 2 acceptor
1 3 acceptor
1 4 cation
1 4 donor
1 5 acceptor
3 11 18 19 hydrophobe
3 5 6 17 cation
5 4 7 8 9 10 rings
6 5 6 17 20 22 23 rings

> <PUBCHEM_HEAVY_ATOM_COUNT>
24

> <PUBCHEM_ATOM_DEF_STEREO_COUNT>
0

> <PUBCHEM_ATOM_UDEF_STEREO_COUNT>
0

> <PUBCHEM_BOND_DEF_STEREO_COUNT>
0

> <PUBCHEM_BOND_UDEF_STEREO_COUNT>
0

> <PUBCHEM_ISOTOPIC_ATOM_COUNT>
0

> <PUBCHEM_COMPONENT_COUNT>
1

> <PUBCHEM_CACTVS_TAUTO_COUNT>
156

> <PUBCHEM_CONFORMER_ID>
0109725900000002

> <PUBCHEM_MMFF94_ENERGY>
43.7063

> <PUBCHEM_FEATURE_SELFOVERLAP>
45.669

> <PUBCHEM_SHAPE_FINGERPRINT>
107951 10 17055556943696851273
11552529 35 17605292704562368582
11578080 2 18191044334157303001
12156800 1 16105105909513904655
12403259 327 16951660576810492147
12553582 1 18272363127499244870
12633257 1 17967535696514499466
13726171 33 17696711753388549884
14114207 22 15115669938500589707
16752209 62 17558849500766501317
18981168 100 6843108080957648949
19777482 4 18047776826801920215
20645476 183 16413800520889314725
21731516 1 18272646796982476909
23419403 2 15440394188031966733
23598288 3 17702656795167925964
23728640 28 18198643192181219963
3027735 51 14034854256225342649
35225 105 17337640981108901368
5283178 26 17825080817888090023
6992083 37 18408322172595451411

> <PUBCHEM_SHAPE_MULTIPOLES>
471.08
6.54
3.63
2.57
3.64
0.57
-1.31
2.8
-2.54
-1.7
1.98
-0.78
0.05
-0.09

> <PUBCHEM_SHAPE_SELFOVERLAP>
971.501

> <PUBCHEM_SHAPE_VOLUME>
275.8

> <PUBCHEM_COORDINATE_TYPE>
2
5
10

$$$$

