582706
  -OEChem-06241222433D

 23 24  0     0  0  0  0  0  0999 V2000
   -0.4556    2.2280    1.1813 O   0  0  0  0  0  0  0  0  0  0  0  0
   -2.4455   -2.4503    0.3599 O   0  0  0  0  0  0  0  0  0  0  0  0
   -0.2987   -1.7465    0.1868 N   0  0  0  0  0  0  0  0  0  0  0  0
    0.7223    0.5246    0.0963 C   0  0  0  0  0  0  0  0  0  0  0  0
    0.7863   -0.8669    0.0286 C   0  0  0  0  0  0  0  0  0  0  0  0
   -0.5006    1.2794    0.4042 C   0  0  0  0  0  0  0  0  0  0  0  0
   -1.7396    0.9553   -0.3294 C   0  0  0  0  0  0  0  0  0  0  0  0
    1.8953    1.2893   -0.0366 C   0  0  0  0  0  0  0  0  0  0  0  0
    2.0440   -1.4743   -0.1421 C   0  0  0  0  0  0  0  0  0  0  0  0
   -2.1989   -0.2916   -0.4609 C   0  0  0  0  0  0  0  0  0  0  0  0
   -1.6475   -1.5458    0.0939 C   0  0  0  0  0  0  0  0  0  0  0  0
    3.1289    0.6729   -0.2352 C   0  0  0  0  0  0  0  0  0  0  0  0
    3.2044   -0.7125   -0.2828 C   0  0  0  0  0  0  0  0  0  0  0  0
   -2.4946    2.1384   -0.8637 C   0  0  0  0  0  0  0  0  0  0  0  0
   -0.0373   -2.7137    0.3669 H   0  0  0  0  0  0  0  0  0  0  0  0
    1.8620    2.3755    0.0168 H   0  0  0  0  0  0  0  0  0  0  0  0
    2.1317   -2.5589   -0.1783 H   0  0  0  0  0  0  0  0  0  0  0  0
   -3.1536   -0.4350   -0.9656 H   0  0  0  0  0  0  0  0  0  0  0  0
    4.0277    1.2731   -0.3395 H   0  0  0  0  0  0  0  0  0  0  0  0
   -3.3808    1.8400   -1.4340 H   0  0  0  0  0  0  0  0  0  0  0  0
   -1.8557    2.7258   -1.5317 H   0  0  0  0  0  0  0  0  0  0  0  0
   -2.8288    2.7846   -0.0453 H   0  0  0  0  0  0  0  0  0  0  0  0
    4.1629   -1.2025   -0.4252 H   0  0  0  0  0  0  0  0  0  0  0  0
  1  6  2  0  0  0  0
  2 11  2  0  0  0  0
  3  5  1  0  0  0  0
  3 11  1  0  0  0  0
  3 15  1  0  0  0  0
  4  5  1  0  0  0  0
  4  6  1  0  0  0  0
  4  8  2  0  0  0  0
  5  9  2  0  0  0  0
  6  7  1  0  0  0  0
  7 10  2  0  0  0  0
  7 14  1  0  0  0  0
  8 12  1  0  0  0  0
  8 16  1  0  0  0  0
  9 13  1  0  0  0  0
  9 17  1  0  0  0  0
 10 11  1  0  0  0  0
 10 18  1  0  0  0  0
 12 13  2  0  0  0  0
 12 19  1  0  0  0  0
 13 23  1  0  0  0  0
 14 20  1  0  0  0  0
 14 21  1  0  0  0  0
 14 22  1  0  0  0  0
M  END
> <PUBCHEM_COMPOUND_CID>
582706

> <PUBCHEM_CONFORMER_RMSD>
0.4

> <PUBCHEM_CONFORMER_DIVERSEORDER>
1
2

> <PUBCHEM_MMFF94_PARTIAL_CHARGES>
20
1 -0.57
10 -0.14
11 0.62
12 -0.15
13 -0.15
14 0.14
15 0.37
16 0.15
17 0.15
18 0.15
19 0.15
2 -0.57
23 0.15
3 -0.55
4 0.09
5 0.12
6 0.47
7 -0.12
8 -0.15
9 -0.15

> <PUBCHEM_EFFECTIVE_ROTOR_COUNT>
0

> <PUBCHEM_PHARMACOPHORE_FEATURES>
5
1 1 acceptor
1 2 acceptor
1 3 donor
6 4 5 8 9 12 13 rings
7 3 4 5 6 7 10 11 rings

> <PUBCHEM_HEAVY_ATOM_COUNT>
14

> <PUBCHEM_ATOM_DEF_STEREO_COUNT>
0

> <PUBCHEM_ATOM_UDEF_STEREO_COUNT>
0

> <PUBCHEM_BOND_DEF_STEREO_COUNT>
0

> <PUBCHEM_BOND_UDEF_STEREO_COUNT>
0

> <PUBCHEM_ISOTOPIC_ATOM_COUNT>
0

> <PUBCHEM_COMPONENT_COUNT>
1

> <PUBCHEM_CACTVS_TAUTO_COUNT>
5

> <PUBCHEM_CONFORMER_ID>
0008E43200000001

> <PUBCHEM_MMFF94_ENERGY>
56.6391

> <PUBCHEM_FEATURE_SELFOVERLAP>
25.38

> <PUBCHEM_SHAPE_FINGERPRINT>
10608611 8 18410860936554660996
10967382 1 18194965368493213726
11206711 2 18339636755034388022
12716758 59 18411145761278652537
12730499 353 17624986315447898805
13380535 76 18265059217568402855
15490181 8 17901377115271557694
15775835 57 17987512796146325204
161256 15 18048601408613742561
16945 1 18342743987573630236
17844478 74 18201145547496874851
18186145 218 18122349239886955357
19973954 147 18411980239328219118
20201158 50 18409169874543542590
20588541 1 17907010682076717586
20645476 183 17915161628035039430
21501502 16 18412825772354671086
22721475 48 18267017245993123587
22802520 49 18408323259111277518
2334 1 18337392643170055122
23419403 2 15749044491980776427
23552423 10 18271805696684118526
23559900 14 18262523714824142842
241688 4 18052822451233252899
25 1 17981612881192344261
2748010 2 18335424525977847788
3312278 4 18409164411624476424
353137 74 18192435392211639280
528886 8 18196942277620833888
81228 2 18271530780291345505
8809292 202 18412539920806558642

> <PUBCHEM_SHAPE_MULTIPOLES>
271.39
4.43
2.53
0.79
1.79
0.43
-0.04
-0.08
0.89
-1.57
-0.28
-0.19
-0.27
0.37

> <PUBCHEM_SHAPE_SELFOVERLAP>
589.398

> <PUBCHEM_SHAPE_VOLUME>
146.8

> <PUBCHEM_COORDINATE_TYPE>
2
5
10

$$$$

