582815
  -OEChem-06241222442D

 39 42  0     1  0  0  0  0  0999 V2000
    6.3981   -1.7500    0.0000 O   0  0  0  0  0  0  0  0  0  0  0  0
    7.2641   -0.2500    0.0000 N   0  0  0  0  0  0  0  0  0  0  0  0
    4.6660    0.2500    0.0000 N   0  0  0  0  0  0  0  0  0  0  0  0
    7.2641    1.7500    0.0000 N   0  0  0  0  0  0  0  0  0  0  0  0
    4.6660   -1.7500    0.0000 N   0  0  0  0  0  0  0  0  0  0  0  0
    6.3981    0.2500    0.0000 C   0  0  3  0  0  0  0  0  0  0  0  0
    5.5321   -0.2500    0.0000 C   0  0  3  0  0  0  0  0  0  0  0  0
    8.1301    0.2500    0.0000 C   0  0  0  0  0  0  0  0  0  0  0  0
    6.3981    1.2500    0.0000 C   0  0  0  0  0  0  0  0  0  0  0  0
    5.5321   -1.2500    0.0000 C   0  0  0  0  0  0  0  0  0  0  0  0
    3.8000   -0.2500    0.0000 C   0  0  0  0  0  0  0  0  0  0  0  0
    8.1301    1.2500    0.0000 C   0  0  0  0  0  0  0  0  0  0  0  0
    7.2641   -1.2500    0.0000 C   0  0  0  0  0  0  0  0  0  0  0  0
    3.8000   -1.2500    0.0000 C   0  0  0  0  0  0  0  0  0  0  0  0
    9.0241   -0.2847    0.0000 C   0  0  0  0  0  0  0  0  0  0  0  0
    9.0241    1.7847    0.0000 C   0  0  0  0  0  0  0  0  0  0  0  0
    2.9061    0.2847    0.0000 C   0  0  0  0  0  0  0  0  0  0  0  0
    8.1301   -1.7500    0.0000 C   0  0  0  0  0  0  0  0  0  0  0  0
    2.9061   -1.7847    0.0000 C   0  0  0  0  0  0  0  0  0  0  0  0
    9.9301    0.2292    0.0000 C   0  0  0  0  0  0  0  0  0  0  0  0
    9.9301    1.2708    0.0000 C   0  0  0  0  0  0  0  0  0  0  0  0
    2.0000   -0.2292    0.0000 C   0  0  0  0  0  0  0  0  0  0  0  0
    2.0000   -1.2708    0.0000 C   0  0  0  0  0  0  0  0  0  0  0  0
    6.3981   -0.3700    0.0000 H   0  0  0  0  0  0  0  0  0  0  0  0
    5.5321    0.3700    0.0000 H   0  0  0  0  0  0  0  0  0  0  0  0
    4.6660    0.8700    0.0000 H   0  0  0  0  0  0  0  0  0  0  0  0
    5.8612    1.5600    0.0000 H   0  0  0  0  0  0  0  0  0  0  0  0
    6.0690   -1.5600    0.0000 H   0  0  0  0  0  0  0  0  0  0  0  0
    9.0169   -0.9046    0.0000 H   0  0  0  0  0  0  0  0  0  0  0  0
    9.0169    2.4046    0.0000 H   0  0  0  0  0  0  0  0  0  0  0  0
    2.9132    0.9046    0.0000 H   0  0  0  0  0  0  0  0  0  0  0  0
    7.8201   -2.2869    0.0000 H   0  0  0  0  0  0  0  0  0  0  0  0
    8.6671   -2.0600    0.0000 H   0  0  0  0  0  0  0  0  0  0  0  0
    8.4401   -1.2131    0.0000 H   0  0  0  0  0  0  0  0  0  0  0  0
    2.9132   -2.4046    0.0000 H   0  0  0  0  0  0  0  0  0  0  0  0
   10.4659   -0.0829    0.0000 H   0  0  0  0  0  0  0  0  0  0  0  0
   10.4659    1.5829    0.0000 H   0  0  0  0  0  0  0  0  0  0  0  0
    1.4643    0.0829    0.0000 H   0  0  0  0  0  0  0  0  0  0  0  0
    1.4643   -1.5829    0.0000 H   0  0  0  0  0  0  0  0  0  0  0  0
  1 13  2  0  0  0  0
  2  6  1  0  0  0  0
  2  8  1  0  0  0  0
  2 13  1  0  0  0  0
  3  7  1  0  0  0  0
  3 11  1  0  0  0  0
  3 26  1  0  0  0  0
  4  9  2  0  0  0  0
  4 12  1  0  0  0  0
  5 10  2  0  0  0  0
  5 14  1  0  0  0  0
  6  7  1  0  0  0  0
  6  9  1  0  0  0  0
  6 24  1  0  0  0  0
  7 10  1  0  0  0  0
  7 25  1  0  0  0  0
  8 12  1  0  0  0  0
  8 15  2  0  0  0  0
  9 27  1  0  0  0  0
 10 28  1  0  0  0  0
 11 14  1  0  0  0  0
 11 17  2  0  0  0  0
 12 16  2  0  0  0  0
 13 18  1  0  0  0  0
 14 19  2  0  0  0  0
 15 20  1  0  0  0  0
 15 29  1  0  0  0  0
 16 21  1  0  0  0  0
 16 30  1  0  0  0  0
 17 22  1  0  0  0  0
 17 31  1  0  0  0  0
 18 32  1  0  0  0  0
 18 33  1  0  0  0  0
 18 34  1  0  0  0  0
 19 23  1  0  0  0  0
 19 35  1  0  0  0  0
 20 21  2  0  0  0  0
 20 36  1  0  0  0  0
 21 37  1  0  0  0  0
 22 23  2  0  0  0  0
 22 38  1  0  0  0  0
 23 39  1  0  0  0  0
M  END
> <PUBCHEM_COMPOUND_CID>
582815

> <PUBCHEM_COMPOUND_CANONICALIZED>
1

> <PUBCHEM_CACTVS_COMPLEXITY>
517

> <PUBCHEM_CACTVS_HBOND_ACCEPTOR>
4

> <PUBCHEM_CACTVS_HBOND_DONOR>
1

> <PUBCHEM_CACTVS_ROTATABLE_BOND>
1

> <PUBCHEM_CACTVS_SUBSKEYS>
AAADceB7oAAAAAAAAAAAAAAAAAAAAAAAAAAwYIEAAAAAAACBQAAAHgAQAAAACCjBkAQywIPAAACoADVzVACCAAAhAgAIiIA4dIgIYCLAkZGUIAhglgDIyAcQAAAAAAAAAAAAACAAAAAAAAAAQAAAAAAAAA==

> <PUBCHEM_IUPAC_OPENEYE_NAME>
1-[2-(1,2-dihydroquinoxalin-2-yl)-2H-quinoxalin-1-yl]ethanone

> <PUBCHEM_IUPAC_CAS_NAME>
1-[2-(1,2-dihydroquinoxalin-2-yl)-2H-quinoxalin-1-yl]ethanone

> <PUBCHEM_IUPAC_NAME>
1-[2-(1,2-dihydroquinoxalin-2-yl)-2H-quinoxalin-1-yl]ethanone

> <PUBCHEM_IUPAC_SYSTEMATIC_NAME>
1-[2-(1,2-dihydroquinoxalin-2-yl)-2H-quinoxalin-1-yl]ethanone

> <PUBCHEM_IUPAC_TRADITIONAL_NAME>
1-[2-(1,2-dihydroquinoxalin-2-yl)-2H-quinoxalin-1-yl]ethanone

> <PUBCHEM_IUPAC_INCHI>
InChI=1S/C18H16N4O/c1-12(23)22-17-9-5-4-8-15(17)20-11-18(22)16-10-19-13-6-2-3-7-14(13)21-16/h2-11,16,18,21H,1H3

> <PUBCHEM_IUPAC_INCHIKEY>
NLJKIILJDNSLIN-UHFFFAOYSA-N

> <PUBCHEM_XLOGP3_AA>
1.5

> <PUBCHEM_EXACT_MASS>
304.132411

> <PUBCHEM_MOLECULAR_FORMULA>
C18H16N4O

> <PUBCHEM_MOLECULAR_WEIGHT>
304.34584

> <PUBCHEM_OPENEYE_CAN_SMILES>
CC(=O)N1C(C=NC2=CC=CC=C21)C3C=NC4=CC=CC=C4N3

> <PUBCHEM_OPENEYE_ISO_SMILES>
CC(=O)N1C(C=NC2=CC=CC=C21)C3C=NC4=CC=CC=C4N3

> <PUBCHEM_CACTVS_TPSA>
57.1

> <PUBCHEM_MONOISOTOPIC_WEIGHT>
304.132411

> <PUBCHEM_TOTAL_CHARGE>
0

> <PUBCHEM_HEAVY_ATOM_COUNT>
23

> <PUBCHEM_ATOM_DEF_STEREO_COUNT>
0

> <PUBCHEM_ATOM_UDEF_STEREO_COUNT>
2

> <PUBCHEM_BOND_DEF_STEREO_COUNT>
0

> <PUBCHEM_BOND_UDEF_STEREO_COUNT>
0

> <PUBCHEM_ISOTOPIC_ATOM_COUNT>
0

> <PUBCHEM_COMPONENT_COUNT>
1

> <PUBCHEM_CACTVS_TAUTO_COUNT>
7

> <PUBCHEM_COORDINATE_TYPE>
1
5
255

> <PUBCHEM_BONDANNOTATIONS>
11  14  8
11  17  8
12  16  8
14  19  8
15  20  8
16  21  8
17  22  8
19  23  8
20  21  8
22  23  8
6  9  3
7  10  3
8  12  8
8  15  8

$$$$

