8602
  -OEChem-06261202563D

 24 25  0     1  0  0  0  0  0999 V2000
   -5.0142   -0.6882   -0.7297 Cl  0  0  0  0  0  0  0  0  0  0  0  0
   -0.5595   -1.0505    0.2268 O   0  0  0  0  0  0  0  0  0  0  0  0
    0.6750    2.7920   -0.2935 O   0  0  0  0  0  0  0  0  0  0  0  0
   -0.9706    1.2994    0.3209 N   0  0  0  0  0  0  0  0  0  0  0  0
   -1.2746    0.0010    0.8916 C   0  0  1  0  0  0  0  0  0  0  0  0
   -2.7602   -0.3046    0.7847 C   0  0  0  0  0  0  0  0  0  0  0  0
    0.7757   -0.7776    0.0863 C   0  0  0  0  0  0  0  0  0  0  0  0
    1.2701    0.5252   -0.0166 C   0  0  0  0  0  0  0  0  0  0  0  0
    0.3206    1.6551   -0.0062 C   0  0  0  0  0  0  0  0  0  0  0  0
   -3.2696   -0.3512   -0.6517 C   0  0  0  0  0  0  0  0  0  0  0  0
    1.6457   -1.8635   -0.0051 C   0  0  0  0  0  0  0  0  0  0  0  0
    2.6388    0.7475   -0.1852 C   0  0  0  0  0  0  0  0  0  0  0  0
    3.0137   -1.6434   -0.1681 C   0  0  0  0  0  0  0  0  0  0  0  0
    3.5091   -0.3412   -0.2540 C   0  0  0  0  0  0  0  0  0  0  0  0
   -0.9776    0.0185    1.9483 H   0  0  0  0  0  0  0  0  0  0  0  0
   -2.9566   -1.2765    1.2553 H   0  0  0  0  0  0  0  0  0  0  0  0
   -3.3277    0.4479    1.3466 H   0  0  0  0  0  0  0  0  0  0  0  0
   -1.6693    2.0350    0.3703 H   0  0  0  0  0  0  0  0  0  0  0  0
   -2.7650   -1.1349   -1.2247 H   0  0  0  0  0  0  0  0  0  0  0  0
   -3.1088    0.6020   -1.1634 H   0  0  0  0  0  0  0  0  0  0  0  0
    1.2683   -2.8805    0.0565 H   0  0  0  0  0  0  0  0  0  0  0  0
    3.0417    1.7526   -0.2706 H   0  0  0  0  0  0  0  0  0  0  0  0
    3.6947   -2.4872   -0.2312 H   0  0  0  0  0  0  0  0  0  0  0  0
    4.5747   -0.1753   -0.3844 H   0  0  0  0  0  0  0  0  0  0  0  0
  1 10  1  0  0  0  0
  2  5  1  0  0  0  0
  2  7  1  0  0  0  0
  3  9  2  0  0  0  0
  4  5  1  0  0  0  0
  4  9  1  0  0  0  0
  4 18  1  0  0  0  0
  5  6  1  0  0  0  0
  5 15  1  0  0  0  0
  6 10  1  0  0  0  0
  6 16  1  0  0  0  0
  6 17  1  0  0  0  0
  7  8  1  0  0  0  0
  7 11  2  0  0  0  0
  8  9  1  0  0  0  0
  8 12  2  0  0  0  0
 10 19  1  0  0  0  0
 10 20  1  0  0  0  0
 11 13  1  0  0  0  0
 11 21  1  0  0  0  0
 12 14  1  0  0  0  0
 12 22  1  0  0  0  0
 13 14  2  0  0  0  0
 13 23  1  0  0  0  0
 14 24  1  0  0  0  0
M  END
> <PUBCHEM_COMPOUND_CID>
8602

> <PUBCHEM_CONFORMER_RMSD>
0.6

> <PUBCHEM_CONFORMER_DIVERSEORDER>
1
8
5
4
7
12
19
18
13
14
6
9
15
3
2
16
17
11
10

> <PUBCHEM_MMFF94_PARTIAL_CHARGES>
18
1 -0.29
10 0.29
11 -0.15
12 -0.15
13 -0.15
14 -0.15
18 0.37
2 -0.36
21 0.15
22 0.15
23 0.15
24 0.15
3 -0.57
4 -0.73
5 0.58
7 0.08
8 0.09
9 0.54

> <PUBCHEM_EFFECTIVE_ROTOR_COUNT>
2.6

> <PUBCHEM_PHARMACOPHORE_FEATURES>
5
1 2 acceptor
1 3 acceptor
1 4 donor
6 2 4 5 7 8 9 rings
6 7 8 11 12 13 14 rings

> <PUBCHEM_HEAVY_ATOM_COUNT>
14

> <PUBCHEM_ATOM_DEF_STEREO_COUNT>
0

> <PUBCHEM_ATOM_UDEF_STEREO_COUNT>
1

> <PUBCHEM_BOND_DEF_STEREO_COUNT>
0

> <PUBCHEM_BOND_UDEF_STEREO_COUNT>
0

> <PUBCHEM_ISOTOPIC_ATOM_COUNT>
0

> <PUBCHEM_COMPONENT_COUNT>
1

> <PUBCHEM_CACTVS_TAUTO_COUNT>
2

> <PUBCHEM_CONFORMER_ID>
0000219A00000001

> <PUBCHEM_MMFF94_ENERGY>
35.6731

> <PUBCHEM_FEATURE_SELFOVERLAP>
25.405

> <PUBCHEM_SHAPE_FINGERPRINT>
10219947 1 18409442583528821362
11206711 2 18127116692419107862
11471102 20 18412546479173744135
11578080 2 17605299396121630937
11806522 49 18260270720059944491
12032990 46 18339913896289149266
12654215 9 18273218573130653684
13571099 22 18410855443217428403
14251717 144 18409731737864885255
14576447 43 18261399914296783519
14911166 2 18341891870362508343
14993402 34 18334008380597210830
15477762 27 18408888404114922359
15757776 16 18410295830242826870
15848700 24 18410296925554121212
16945 1 18339629058437260032
18186145 218 17846505833480438467
193761 8 17618212915344425202
200 152 18260833721553064271
20201158 50 18344143696009346379
20606313 2 18413109437595871671
20645477 70 18339081489131133663
20671657 53 18408885157119464725
21256008 61 18335424547526576287
21501502 16 18123180462377275824
21501925 9 18411425046259950770
221357 26 18341910610354776445
221490 88 18196931059599137339
2334 1 17617932539599780504
23388829 49 18334850632284427368
23402539 116 18336270149093312934
23402655 69 18411142454776132133
2748010 2 18267861855844226116
3060560 45 18408891706728774799
3071541 158 18130501942354895748
3286 77 17313391162106400586
4072396 5 18199769006399590272
581208 293 18335703823559048784
7364860 26 18261957319220533232
81228 2 18055343893262647936

> <PUBCHEM_SHAPE_MULTIPOLES>
273.26
6.78
2.02
0.81
7.25
0.94
-0.04
-2.81
1.77
-1.22
0.16
0.48
-0.04
-0.21

> <PUBCHEM_SHAPE_SELFOVERLAP>
571.028

> <PUBCHEM_SHAPE_VOLUME>
155.1

> <PUBCHEM_COORDINATE_TYPE>
2
5
10

$$$$

