6916
  -OEChem-06261201353D

 18 17  0     0  0  0  0  0  0999 V2000
    2.3291    0.6203   -0.5453 Cl  0  0  0  0  0  0  0  0  0  0  0  0
    0.4031    2.0182    0.5353 O   0  0  0  0  0  0  0  0  0  0  0  0
   -0.2051   -0.1478    0.0166 N   0  0  0  0  0  0  0  0  0  0  0  0
   -1.5741   -0.0260    0.5042 C   0  0  0  0  0  0  0  0  0  0  0  0
    0.1459   -1.4560   -0.5313 C   0  0  0  0  0  0  0  0  0  0  0  0
   -2.5091    0.4452   -0.5967 C   0  0  0  0  0  0  0  0  0  0  0  0
    0.6975   -2.3729    0.5473 C   0  0  0  0  0  0  0  0  0  0  0  0
    0.7127    0.9190    0.0700 C   0  0  0  0  0  0  0  0  0  0  0  0
   -1.9075   -0.9836    0.9176 H   0  0  0  0  0  0  0  0  0  0  0  0
   -1.5912    0.7065    1.3188 H   0  0  0  0  0  0  0  0  0  0  0  0
   -0.7482   -1.9055   -0.9787 H   0  0  0  0  0  0  0  0  0  0  0  0
    0.8709   -1.3564   -1.3434 H   0  0  0  0  0  0  0  0  0  0  0  0
   -2.1920    1.4147   -0.9947 H   0  0  0  0  0  0  0  0  0  0  0  0
   -2.5318   -0.2649   -1.4296 H   0  0  0  0  0  0  0  0  0  0  0  0
   -3.5276    0.5509   -0.2107 H   0  0  0  0  0  0  0  0  0  0  0  0
    1.5984   -1.9545    1.0071 H   0  0  0  0  0  0  0  0  0  0  0  0
   -0.0361   -2.5341    1.3438 H   0  0  0  0  0  0  0  0  0  0  0  0
    0.9541   -3.3476    0.1209 H   0  0  0  0  0  0  0  0  0  0  0  0
  1  8  1  0  0  0  0
  2  8  2  0  0  0  0
  3  4  1  0  0  0  0
  3  5  1  0  0  0  0
  3  8  1  0  0  0  0
  4  6  1  0  0  0  0
  4  9  1  0  0  0  0
  4 10  1  0  0  0  0
  5  7  1  0  0  0  0
  5 11  1  0  0  0  0
  5 12  1  0  0  0  0
  6 13  1  0  0  0  0
  6 14  1  0  0  0  0
  6 15  1  0  0  0  0
  7 16  1  0  0  0  0
  7 17  1  0  0  0  0
  7 18  1  0  0  0  0
M  END
> <PUBCHEM_COMPOUND_CID>
6916

> <PUBCHEM_CONFORMER_RMSD>
0.6

> <PUBCHEM_CONFORMER_DIVERSEORDER>
1
2
3
4

> <PUBCHEM_MMFF94_PARTIAL_CHARGES>
6
1 -0.21
2 -0.57
3 -0.66
4 0.3
5 0.3
8 0.84

> <PUBCHEM_EFFECTIVE_ROTOR_COUNT>
3

> <PUBCHEM_PHARMACOPHORE_FEATURES>
1
1 2 acceptor

> <PUBCHEM_HEAVY_ATOM_COUNT>
8

> <PUBCHEM_ATOM_DEF_STEREO_COUNT>
0

> <PUBCHEM_ATOM_UDEF_STEREO_COUNT>
0

> <PUBCHEM_BOND_DEF_STEREO_COUNT>
0

> <PUBCHEM_BOND_UDEF_STEREO_COUNT>
0

> <PUBCHEM_ISOTOPIC_ATOM_COUNT>
0

> <PUBCHEM_COMPONENT_COUNT>
1

> <PUBCHEM_CACTVS_TAUTO_COUNT>
1

> <PUBCHEM_CONFORMER_ID>
00001B0400000001

> <PUBCHEM_MMFF94_ENERGY>
7.2528

> <PUBCHEM_FEATURE_SELFOVERLAP>
5.074

> <PUBCHEM_SHAPE_FINGERPRINT>
21040471 1 18267587892517415796
23552423 10 18053093205623413406
5084963 1 18117835499899392193
528862 383 18059306447406787930

> <PUBCHEM_SHAPE_MULTIPOLES>
155.66
2.7
2.2
0.83
0.82
0.98
-0.03
-0.86
-0.64
-0.9
0.43
0.04
0.03
-0.07

> <PUBCHEM_SHAPE_SELFOVERLAP>
272.604

> <PUBCHEM_SHAPE_VOLUME>
103

> <PUBCHEM_COORDINATE_TYPE>
2
5
10

$$$$

