13234
  -OEChem-06261207553D

 27 27  0     1  0  0  0  0  0999 V2000
   -2.9838   -1.0359   -0.4553 O   0  0  0  0  0  0  0  0  0  0  0  0
   -1.2125   -2.1943    0.3151 O   0  0  0  0  0  0  0  0  0  0  0  0
   -1.0321    0.2596    0.2396 C   0  0  1  0  0  0  0  0  0  0  0  0
   -1.5594    1.2729   -0.8263 C   0  0  0  0  0  0  0  0  0  0  0  0
    0.4956    0.0646    0.0882 C   0  0  0  0  0  0  0  0  0  0  0  0
   -1.4378    0.7506    1.6503 C   0  0  0  0  0  0  0  0  0  0  0  0
   -1.7211   -1.1130    0.0382 C   0  0  0  0  0  0  0  0  0  0  0  0
   -1.0135    2.6937   -0.7008 C   0  0  0  0  0  0  0  0  0  0  0  0
    0.9662   -0.4160   -1.1027 C   0  0  0  0  0  0  0  0  0  0  0  0
    1.2918    0.3830    1.1539 C   0  0  0  0  0  0  0  0  0  0  0  0
    2.3432   -0.5921   -1.2389 C   0  0  0  0  0  0  0  0  0  0  0  0
    2.6688    0.2072    1.0176 C   0  0  0  0  0  0  0  0  0  0  0  0
    3.1946   -0.2803   -0.1789 C   0  0  0  0  0  0  0  0  0  0  0  0
   -1.3585    0.9080   -1.8412 H   0  0  0  0  0  0  0  0  0  0  0  0
   -2.6526    1.3489   -0.7562 H   0  0  0  0  0  0  0  0  0  0  0  0
   -2.5262    0.8787    1.7079 H   0  0  0  0  0  0  0  0  0  0  0  0
   -1.1805    0.0163    2.4239 H   0  0  0  0  0  0  0  0  0  0  0  0
   -0.9918    1.7127    1.9217 H   0  0  0  0  0  0  0  0  0  0  0  0
   -1.3201    3.1651    0.2369 H   0  0  0  0  0  0  0  0  0  0  0  0
   -1.4040    3.3113   -1.5168 H   0  0  0  0  0  0  0  0  0  0  0  0
    0.0781    2.7164   -0.7640 H   0  0  0  0  0  0  0  0  0  0  0  0
    0.3172   -0.6709   -1.9335 H   0  0  0  0  0  0  0  0  0  0  0  0
    0.9426    0.7622    2.1049 H   0  0  0  0  0  0  0  0  0  0  0  0
    2.7526   -0.9737   -2.1698 H   0  0  0  0  0  0  0  0  0  0  0  0
    3.3325    0.4490    1.8428 H   0  0  0  0  0  0  0  0  0  0  0  0
    4.2667   -0.4179   -0.2848 H   0  0  0  0  0  0  0  0  0  0  0  0
   -3.3917   -1.9223   -0.5564 H   0  0  0  0  0  0  0  0  0  0  0  0
  1  7  1  0  0  0  0
  1 27  1  0  0  0  0
  2  7  2  0  0  0  0
  3  4  1  0  0  0  0
  3  5  1  0  0  0  0
  3  6  1  0  0  0  0
  3  7  1  0  0  0  0
  4  8  1  0  0  0  0
  4 14  1  0  0  0  0
  4 15  1  0  0  0  0
  5  9  2  0  0  0  0
  5 10  1  0  0  0  0
  6 16  1  0  0  0  0
  6 17  1  0  0  0  0
  6 18  1  0  0  0  0
  8 19  1  0  0  0  0
  8 20  1  0  0  0  0
  8 21  1  0  0  0  0
  9 11  1  0  0  0  0
  9 22  1  0  0  0  0
 10 12  2  0  0  0  0
 10 23  1  0  0  0  0
 11 13  2  0  0  0  0
 11 24  1  0  0  0  0
 12 13  1  0  0  0  0
 12 25  1  0  0  0  0
 13 26  1  0  0  0  0
M  END
> <PUBCHEM_COMPOUND_CID>
13234

> <PUBCHEM_CONFORMER_RMSD>
0.6

> <PUBCHEM_CONFORMER_DIVERSEORDER>
1
7
11
4
14
15
19
17
8
5
2
13
16
20
3
10
18
12
6
9

> <PUBCHEM_MMFF94_PARTIAL_CHARGES>
16
1 -0.65
10 -0.15
11 -0.15
12 -0.15
13 -0.15
2 -0.57
22 0.15
23 0.15
24 0.15
25 0.15
26 0.15
27 0.5
3 0.2
5 -0.14
7 0.66
9 -0.15

> <PUBCHEM_EFFECTIVE_ROTOR_COUNT>
3

> <PUBCHEM_PHARMACOPHORE_FEATURES>
6
1 1 acceptor
1 2 acceptor
1 6 hydrophobe
1 8 hydrophobe
3 1 2 7 anion
6 5 9 10 11 12 13 rings

> <PUBCHEM_HEAVY_ATOM_COUNT>
13

> <PUBCHEM_ATOM_DEF_STEREO_COUNT>
0

> <PUBCHEM_ATOM_UDEF_STEREO_COUNT>
1

> <PUBCHEM_BOND_DEF_STEREO_COUNT>
0

> <PUBCHEM_BOND_UDEF_STEREO_COUNT>
0

> <PUBCHEM_ISOTOPIC_ATOM_COUNT>
0

> <PUBCHEM_COMPONENT_COUNT>
1

> <PUBCHEM_CACTVS_TAUTO_COUNT>
1

> <PUBCHEM_CONFORMER_ID>
000033B200000001

> <PUBCHEM_MMFF94_ENERGY>
40.4326

> <PUBCHEM_FEATURE_SELFOVERLAP>
30.51

> <PUBCHEM_SHAPE_FINGERPRINT>
1 1 17333656471149706781
12138202 97 18266752452695764732
12423570 1 8116201181131052748
12716758 59 18267024045100290038
12932764 1 18341600573333447514
13024252 1 16558743525098032657
13380537 58 18270124659279747292
15775835 57 18268989950167990970
15852999 172 18045519739651228726
15906896 17 17560230466032970105
16945 1 18343301470081214946
17844478 74 17967248672207920224
18534176 82 18337118950626722692
19837323 101 18127124410233167637
20082192 1 18336819870779577720
20201158 50 17967253074428462654
20711985 344 18411983585076022705
21501502 16 17749657558822929210
21524375 3 17340694397729537437
21930827 45 18264774444062258828
23402539 116 18267606713222304445
23419403 2 17610663784520062257
23557571 272 18409445873896081604
23559900 14 17900827364718702806
25 1 17391347785929507448
2748010 2 18123194493729697499
369184 2 18410014363966502418
5084963 1 18333731321078722444
535629 181 17632281380937680437
54338 74 18272089366294204437
77492 1 17131838693641219452
8030462 33 17346595292241620520
81228 2 18411415116179465833

> <PUBCHEM_SHAPE_MULTIPOLES>
255.8
4.03
1.85
1.35
1.94
0.45
0.23
-0.6
-0.2
-1.63
-0.38
0.2
0.26
0.41

> <PUBCHEM_SHAPE_SELFOVERLAP>
528.178

> <PUBCHEM_SHAPE_VOLUME>
146.4

> <PUBCHEM_COORDINATE_TYPE>
2
5
10

$$$$

