854015
  -OEChem-06241222463D

 31 32  0     0  0  0  0  0  0999 V2000
   -6.4131   -0.4509   -1.1403 O   0  0  0  0  0  0  0  0  0  0  0  0
   -6.4927   -0.1015    1.1043 O   0  0  0  0  0  0  0  0  0  0  0  0
   -0.2029    0.1993   -0.2909 N   0  0  0  0  0  0  0  0  0  0  0  0
    2.7833   -0.6021    0.4497 N   0  0  0  0  0  0  0  0  0  0  0  0
    3.9090    1.8630   -0.2734 N   0  0  0  0  0  0  0  0  0  0  0  0
    5.9906    0.7846   -0.6441 N   0  0  0  0  0  0  0  0  0  0  0  0
    5.3960   -2.7190    0.1155 N   0  0  0  0  0  0  0  0  0  0  0  0
    0.6315    0.4484    0.8437 C   0  0  0  0  0  0  0  0  0  0  0  0
   -1.6069    0.0984   -0.2016 C   0  0  0  0  0  0  0  0  0  0  0  0
    2.0784    0.5385    0.4421 C   0  0  0  0  0  0  0  0  0  0  0  0
   -2.2399    0.2431    1.0328 C   0  0  0  0  0  0  0  0  0  0  0  0
   -2.3624   -0.1477   -1.3480 C   0  0  0  0  0  0  0  0  0  0  0  0
   -4.3837   -0.1043   -0.0253 C   0  0  0  0  0  0  0  0  0  0  0  0
   -3.6283    0.1417    1.1211 C   0  0  0  0  0  0  0  0  0  0  0  0
   -3.7508   -0.2489   -1.2600 C   0  0  0  0  0  0  0  0  0  0  0  0
    2.6164    1.7482    0.0910 C   0  0  0  0  0  0  0  0  0  0  0  0
    4.0758   -0.4874    0.0851 C   0  0  0  0  0  0  0  0  0  0  0  0
    4.6286    0.7234   -0.2701 C   0  0  0  0  0  0  0  0  0  0  0  0
   -5.8312   -0.2112    0.0668 C   0  0  0  0  0  0  0  0  0  0  0  0
    4.8025   -1.7155    0.1017 C   0  0  0  0  0  0  0  0  0  0  0  0
    0.5320   -0.3616    1.5777 H   0  0  0  0  0  0  0  0  0  0  0  0
    0.3477    1.3808    1.3484 H   0  0  0  0  0  0  0  0  0  0  0  0
    0.2125    0.0800   -1.2087 H   0  0  0  0  0  0  0  0  0  0  0  0
   -1.6908    0.4332    1.9501 H   0  0  0  0  0  0  0  0  0  0  0  0
   -1.8807   -0.2626   -2.3157 H   0  0  0  0  0  0  0  0  0  0  0  0
   -4.1027    0.2567    2.0922 H   0  0  0  0  0  0  0  0  0  0  0  0
   -4.3002   -0.4415   -2.1772 H   0  0  0  0  0  0  0  0  0  0  0  0
    2.0442    2.6679    0.0840 H   0  0  0  0  0  0  0  0  0  0  0  0
    6.3525    1.6975   -0.8921 H   0  0  0  0  0  0  0  0  0  0  0  0
    6.4105   -0.0222   -1.0885 H   0  0  0  0  0  0  0  0  0  0  0  0
   -7.3890   -0.5208   -1.0675 H   0  0  0  0  0  0  0  0  0  0  0  0
  1 19  1  0  0  0  0
  1 31  1  0  0  0  0
  2 19  2  0  0  0  0
  3  8  1  0  0  0  0
  3  9  1  0  0  0  0
  3 23  1  0  0  0  0
  4 10  1  0  0  0  0
  4 17  2  0  0  0  0
  5 16  1  0  0  0  0
  5 18  2  0  0  0  0
  6 18  1  0  0  0  0
  6 29  1  0  0  0  0
  6 30  1  0  0  0  0
  7 20  3  0  0  0  0
  8 10  1  0  0  0  0
  8 21  1  0  0  0  0
  8 22  1  0  0  0  0
  9 11  2  0  0  0  0
  9 12  1  0  0  0  0
 10 16  2  0  0  0  0
 11 14  1  0  0  0  0
 11 24  1  0  0  0  0
 12 15  2  0  0  0  0
 12 25  1  0  0  0  0
 13 14  2  0  0  0  0
 13 15  1  0  0  0  0
 13 19  1  0  0  0  0
 14 26  1  0  0  0  0
 15 27  1  0  0  0  0
 16 28  1  0  0  0  0
 17 18  1  0  0  0  0
 17 20  1  0  0  0  0
M  END
> <PUBCHEM_COMPOUND_CID>
854015

> <PUBCHEM_CONFORMER_RMSD>
0.6

> <PUBCHEM_CONFORMER_DIVERSEORDER>
1
42
27
36
39
3
43
38
44
16
25
4
7
21
15
12
8
13
14
34
45
31
22
24
2
26
10
37
17
6
23
28
18
32
41
40
19
11
9
5
35
20
29
33
30

> <PUBCHEM_MMFF94_PARTIAL_CHARGES>
29
1 -0.65
10 0.17
11 -0.15
12 -0.15
13 0.09
14 -0.15
15 -0.15
16 0.16
17 0.38
18 0.41
19 0.63
2 -0.57
20 0.48
23 0.4
24 0.15
25 0.15
26 0.15
27 0.15
28 0.15
29 0.4
3 -0.87
30 0.4
31 0.5
4 -0.62
5 -0.62
6 -0.9
7 -0.56
8 0.51
9 0.1

> <PUBCHEM_EFFECTIVE_ROTOR_COUNT>
4

> <PUBCHEM_PHARMACOPHORE_FEATURES>
11
1 1 acceptor
1 2 acceptor
1 3 cation
1 3 donor
1 4 acceptor
1 6 donor
1 7 acceptor
3 1 2 19 anion
3 5 6 18 cation
6 4 5 10 16 17 18 rings
6 9 11 12 13 14 15 rings

> <PUBCHEM_HEAVY_ATOM_COUNT>
20

> <PUBCHEM_ATOM_DEF_STEREO_COUNT>
0

> <PUBCHEM_ATOM_UDEF_STEREO_COUNT>
0

> <PUBCHEM_BOND_DEF_STEREO_COUNT>
0

> <PUBCHEM_BOND_UDEF_STEREO_COUNT>
0

> <PUBCHEM_ISOTOPIC_ATOM_COUNT>
0

> <PUBCHEM_COMPONENT_COUNT>
1

> <PUBCHEM_CACTVS_TAUTO_COUNT>
4

> <PUBCHEM_CONFORMER_ID>
000D07FF00000001

> <PUBCHEM_MMFF94_ENERGY>
68.7992

> <PUBCHEM_FEATURE_SELFOVERLAP>
55.875

> <PUBCHEM_SHAPE_FINGERPRINT>
10670039 82 14835847352042496590
10912923 1 17821722827761751953
12107183 9 17684357743532366545
12236239 1 18040154020028842241
12390115 104 16557918969435900357
12616971 3 18114188535841740279
12730499 353 17704070694433856434
12916748 109 16271930415355938668
13073987 5 18336828684195004480
13533116 47 18335139808501438378
13862211 1 16588031178426588629
13955234 65 18410580553011249448
1420 363 17132113541947551193
14251752 14 18113901606699967577
14251764 18 17676209065554231310
14341114 176 18272647948403074701
15183329 4 17749106699534989189
15475509 35 15068894348356823534
17844677 252 18272649086221482653
17857418 61 17967255303511052055
19489759 90 14562522982214111515
200 152 18335140899117234857
20645477 70 18343585174773940210
21033648 29 17916884442808208805
21267235 1 18335979874630725294
220451 1 18259982647971282319
22061861 79 18202004347461045887
221357 26 18201442492951320364
2215653 11 17917997182934794935
2297311 6 16845569842523964535
2303208 19 17560793338676843875
23081809 10 17967533459095098017
23402539 116 15213301924578559153
23522609 53 17896577554054777777
23536379 177 18408603673732329993
23557571 272 16845578637978787548
23559900 14 18130507436076951281
29717793 49 18335421295998910900
3004659 81 17240198811838949056
3014965 18 18340492252232161119
34797466 226 16917056751019099294
351380 3 17894912936188234078
3545911 37 18131349679031730272
4073 2 18129376012546793090
46194498 28 17632857508452205140
465052 167 18335135401775503726
522135 26 18409731751229776552
5281201 14 17989207070872290988
542803 24 18335138678951361073
573450 72 17240203248228617627
6025842 7 18412823574048781974

> <PUBCHEM_SHAPE_MULTIPOLES>
374.95
16.64
1.5
1.09
6.44
0.54
-0.08
3.83
-1.03
-3.73
0.02
1.32
0
-0.78

> <PUBCHEM_SHAPE_SELFOVERLAP>
805.956

> <PUBCHEM_SHAPE_VOLUME>
204.4

> <PUBCHEM_COORDINATE_TYPE>
2
5
10

$$$$

