583304
  -OEChem-06241222453D

 40 42  0     0  0  0  0  0  0999 V2000
   -0.2181   -2.0809   -0.5895 S   0  0  0  0  0  0  0  0  0  0  0  0
    1.6294   -0.2142   -0.7075 N   0  0  0  0  0  0  0  0  0  0  0  0
   -0.6350    0.4867   -0.3592 N   0  0  0  0  0  0  0  0  0  0  0  0
   -1.8872   -0.1022   -0.2337 N   0  0  0  0  0  0  0  0  0  0  0  0
   -5.0135    0.9794    0.9097 N   0  0  0  0  0  0  0  0  0  0  0  0
    3.1849    1.6548   -0.6294 C   0  0  0  0  0  0  0  0  0  0  0  0
    2.1653    0.9029   -1.4785 C   0  0  0  0  0  0  0  0  0  0  0  0
    2.5946   -1.2259   -0.2732 C   0  0  0  0  0  0  0  0  0  0  0  0
    4.2229    0.7232   -0.0609 C   0  0  0  0  0  0  0  0  0  0  0  0
    3.9290   -0.6394    0.1272 C   0  0  0  0  0  0  0  0  0  0  0  0
    5.4705    1.2253    0.3336 C   0  0  0  0  0  0  0  0  0  0  0  0
    4.9053   -1.4822    0.6791 C   0  0  0  0  0  0  0  0  0  0  0  0
    0.2976   -0.3934   -0.5433 C   0  0  0  0  0  0  0  0  0  0  0  0
    6.4303    0.3776    0.8856 C   0  0  0  0  0  0  0  0  0  0  0  0
    6.1490   -0.9755    1.0558 C   0  0  0  0  0  0  0  0  0  0  0  0
   -2.8519    0.7491   -0.0473 C   0  0  0  0  0  0  0  0  0  0  0  0
   -4.2339    0.2250    0.1287 C   0  0  0  0  0  0  0  0  0  0  0  0
   -2.6426    2.2502    0.0124 C   0  0  0  0  0  0  0  0  0  0  0  0
   -4.5848   -0.9405   -0.4957 C   0  0  0  0  0  0  0  0  0  0  0  0
   -5.8870   -1.3856   -0.2973 C   0  0  0  0  0  0  0  0  0  0  0  0
   -6.7530   -0.6497    0.5039 C   0  0  0  0  0  0  0  0  0  0  0  0
   -6.2718    0.5151    1.0795 C   0  0  0  0  0  0  0  0  0  0  0  0
    2.6795    2.1561    0.2054 H   0  0  0  0  0  0  0  0  0  0  0  0
    3.6629    2.4245   -1.2464 H   0  0  0  0  0  0  0  0  0  0  0  0
    1.3730    1.5925   -1.7928 H   0  0  0  0  0  0  0  0  0  0  0  0
    2.6332    0.5173   -2.3932 H   0  0  0  0  0  0  0  0  0  0  0  0
    2.7620   -1.9437   -1.0858 H   0  0  0  0  0  0  0  0  0  0  0  0
    2.2219   -1.7601    0.6098 H   0  0  0  0  0  0  0  0  0  0  0  0
    5.7013    2.2805    0.2108 H   0  0  0  0  0  0  0  0  0  0  0  0
    4.6986   -2.5403    0.8202 H   0  0  0  0  0  0  0  0  0  0  0  0
    7.3967    0.7733    1.1840 H   0  0  0  0  0  0  0  0  0  0  0  0
    6.8968   -1.6362    1.4846 H   0  0  0  0  0  0  0  0  0  0  0  0
   -1.5064   -1.9066   -0.2693 H   0  0  0  0  0  0  0  0  0  0  0  0
   -2.1016    2.5029    0.9289 H   0  0  0  0  0  0  0  0  0  0  0  0
   -2.0601    2.5778   -0.8540 H   0  0  0  0  0  0  0  0  0  0  0  0
   -3.5873    2.7991   -0.0036 H   0  0  0  0  0  0  0  0  0  0  0  0
   -3.9102   -1.5069   -1.1268 H   0  0  0  0  0  0  0  0  0  0  0  0
   -6.2272   -2.3032   -0.7678 H   0  0  0  0  0  0  0  0  0  0  0  0
   -7.7724   -0.9774    0.6721 H   0  0  0  0  0  0  0  0  0  0  0  0
   -6.9074    1.1253    1.7128 H   0  0  0  0  0  0  0  0  0  0  0  0
  1 13  1  0  0  0  0
  1 33  1  0  0  0  0
  2  7  1  0  0  0  0
  2  8  1  0  0  0  0
  2 13  1  0  0  0  0
  3  4  1  0  0  0  0
  3 13  2  0  0  0  0
  4 16  2  0  0  0  0
  5 17  1  0  0  0  0
  5 22  2  0  0  0  0
  6  7  1  0  0  0  0
  6  9  1  0  0  0  0
  6 23  1  0  0  0  0
  6 24  1  0  0  0  0
  7 25  1  0  0  0  0
  7 26  1  0  0  0  0
  8 10  1  0  0  0  0
  8 27  1  0  0  0  0
  8 28  1  0  0  0  0
  9 10  1  0  0  0  0
  9 11  2  0  0  0  0
 10 12  2  0  0  0  0
 11 14  1  0  0  0  0
 11 29  1  0  0  0  0
 12 15  1  0  0  0  0
 12 30  1  0  0  0  0
 14 15  2  0  0  0  0
 14 31  1  0  0  0  0
 15 32  1  0  0  0  0
 16 17  1  0  0  0  0
 16 18  1  0  0  0  0
 17 19  2  0  0  0  0
 18 34  1  0  0  0  0
 18 35  1  0  0  0  0
 18 36  1  0  0  0  0
 19 20  1  0  0  0  0
 19 37  1  0  0  0  0
 20 21  2  0  0  0  0
 20 38  1  0  0  0  0
 21 22  1  0  0  0  0
 21 39  1  0  0  0  0
 22 40  1  0  0  0  0
M  END
> <PUBCHEM_COMPOUND_CID>
583304

> <PUBCHEM_CONFORMER_RMSD>
0.6

> <PUBCHEM_CONFORMER_DIVERSEORDER>
2
33
32
11
37
12
24
15
31
8
26
36
25
35
34
13
9
21
4
28
30
7
18
19
23
3
10
38
27
16
17
20
14
22
39
6
1
5
29

> <PUBCHEM_MMFF94_PARTIAL_CHARGES>
31
1 -0.32
10 -0.14
11 -0.15
12 -0.15
13 0.64
14 -0.15
15 -0.15
16 0.3
17 0.4
18 0.06
19 -0.15
2 -0.79
20 -0.15
21 -0.15
22 0.16
29 0.15
3 -0.45
30 0.15
31 0.15
32 0.15
33 0.18
37 0.15
38 0.15
39 0.15
4 -0.45
40 0.15
5 -0.62
6 0.14
7 0.37
8 0.51
9 -0.14

> <PUBCHEM_EFFECTIVE_ROTOR_COUNT>
3.8

> <PUBCHEM_PHARMACOPHORE_FEATURES>
6
1 4 acceptor
1 5 acceptor
3 2 3 13 cation
6 2 6 7 8 9 10 rings
6 5 17 19 20 21 22 rings
6 9 10 11 12 14 15 rings

> <PUBCHEM_HEAVY_ATOM_COUNT>
22

> <PUBCHEM_ATOM_DEF_STEREO_COUNT>
0

> <PUBCHEM_ATOM_UDEF_STEREO_COUNT>
0

> <PUBCHEM_BOND_DEF_STEREO_COUNT>
0

> <PUBCHEM_BOND_UDEF_STEREO_COUNT>
2

> <PUBCHEM_ISOTOPIC_ATOM_COUNT>
0

> <PUBCHEM_COMPONENT_COUNT>
1

> <PUBCHEM_CACTVS_TAUTO_COUNT>
3

> <PUBCHEM_CONFORMER_ID>
0008E68800000002

> <PUBCHEM_MMFF94_ENERGY>
77.2202

> <PUBCHEM_FEATURE_SELFOVERLAP>
30.469

> <PUBCHEM_SHAPE_FINGERPRINT>
10 15 18334575728591608592
10066227 112 7060380314701535715
10354089 29 18410856560457447592
106641 1 18272374144723173688
10688039 33 17846782931617171004
10693767 8 9943269051419204216
11315181 36 13830127308747155719
11646440 116 16732980912338097528
11724838 91 18336268955366522990
11796584 16 12031783682553720288
12166972 35 18343017787850711876
12236239 1 18411420609104851654
12596602 18 18272375299578980552
12616971 3 18201996604141205855
12670543 26 9727635011751372954
12730499 353 14056995010410179804
12916748 109 18187079572720835828
13533116 47 18202282502860358600
13668630 136 14979953679304979987
13685833 64 16630525137390785912
13914758 101 17203337740795393421
14211702 104 18059283271800695427
14251764 18 18343022177675845372
14341114 176 18343018908825873032
14341114 328 18186796985289566749
14848160 23 16988561286613566313
14849402 71 18263927648917419432
15048467 5 5833989451331288027
15475509 35 16415216589472296336
15716309 27 18412265038794298115
17834072 8 9655577409397719571
17857418 61 18342739606986641027
18222031 100 14692566633056773534
19377110 9 18334007311508784105
19489759 90 15554452907623641861
20028762 73 18412546517776670094
20567600 75 15841279223900041094
21150785 3 6916256330838586529
21267235 1 18341895234371693606
21792934 111 18413108373394028889
221357 26 8430320130232960802
22149856 69 17751052822627201947
2215653 11 12175622875566599425
22224240 67 17822012004300834231
22956985 138 14187637998633399760
23198884 109 9583516521420620939
23402539 116 18273216413426709749
23402655 69 8142079866929091284
23559900 14 11887375968555413719
23622692 88 18130787845986175078
25147074 1 18269275651872803182
29717793 49 11095888185557600288
300161 21 8502367819717094756
3663271 9 18335420179323290707
4325135 7 18186520990807105479
4340502 62 18040714775233266310
44062 13 13326274954447332505
465052 167 17418371402823900338
469060 322 17968640709895772489
474229 33 18408041801757931119
5104073 3 18265050421533247361
7495541 125 18041283179483735257
960060 61 9583515417260513540

> <PUBCHEM_SHAPE_MULTIPOLES>
436.68
18.79
1.84
1.02
7.88
0.05
0.01
-1.2
-7.11
-0.15
0.14
-0.31
0.05
-1.06

> <PUBCHEM_SHAPE_SELFOVERLAP>
926.794

> <PUBCHEM_SHAPE_VOLUME>
246.5

> <PUBCHEM_COORDINATE_TYPE>
2
5
10

$$$$

