17396337
  -OEChem-06241222562D

 39 40  0     0  0  0  0  0  0999 V2000
    7.4128    3.4752    0.0000 S   0  0  0  0  0  0  0  0  0  0  0  0
    4.5981   -3.7272    0.0000 S   0  0  0  0  0  0  0  0  0  0  0  0
    5.4641    0.7728    0.0000 O   0  0  0  0  0  0  0  0  0  0  0  0
    2.8660   -0.7272    0.0000 O   0  0  0  0  0  0  0  0  0  0  0  0
    3.7320    0.7728    0.0000 O   0  0  0  0  0  0  0  0  0  0  0  0
    9.0884    4.2272    0.0000 O   0  0  0  0  0  0  0  0  0  0  0  0
    7.2437    1.8660    0.0000 N   0  0  0  0  0  0  0  0  0  0  0  0
    8.9073    2.5047    0.0000 N   0  0  0  0  0  0  0  0  0  0  0  0
    4.5981   -0.7272    0.0000 C   0  0  0  0  0  0  0  0  0  0  0  0
    3.7320   -1.2272    0.0000 C   0  0  0  0  0  0  0  0  0  0  0  0
    5.4641    1.7728    0.0000 C   0  0  0  0  0  0  0  0  0  0  0  0
    5.4641   -1.2272    0.0000 C   0  0  0  0  0  0  0  0  0  0  0  0
    6.3301    2.2728    0.0000 C   0  0  0  0  0  0  0  0  0  0  0  0
    3.7320   -2.2272    0.0000 C   0  0  0  0  0  0  0  0  0  0  0  0
    4.5981   -2.7272    0.0000 C   0  0  0  0  0  0  0  0  0  0  0  0
    4.5981    0.2728    0.0000 C   0  0  0  0  0  0  0  0  0  0  0  0
    5.4641   -2.2272    0.0000 C   0  0  0  0  0  0  0  0  0  0  0  0
    6.4347    3.2673    0.0000 C   0  0  0  0  0  0  0  0  0  0  0  0
    7.9128    2.6092    0.0000 C   0  0  0  0  0  0  0  0  0  0  0  0
    2.0000   -1.2272    0.0000 C   0  0  0  0  0  0  0  0  0  0  0  0
    9.4951    3.3137    0.0000 C   0  0  0  0  0  0  0  0  0  0  0  0
    5.4641   -4.2272    0.0000 C   0  0  0  0  0  0  0  0  0  0  0  0
   10.4896    3.2092    0.0000 C   0  0  0  0  0  0  0  0  0  0  0  0
    5.2520    2.3554    0.0000 H   0  0  0  0  0  0  0  0  0  0  0  0
    4.8535    1.6651    0.0000 H   0  0  0  0  0  0  0  0  0  0  0  0
    6.0010   -0.9172    0.0000 H   0  0  0  0  0  0  0  0  0  0  0  0
    3.1951   -2.5372    0.0000 H   0  0  0  0  0  0  0  0  0  0  0  0
    6.0010   -2.5372    0.0000 H   0  0  0  0  0  0  0  0  0  0  0  0
    5.9739    3.6822    0.0000 H   0  0  0  0  0  0  0  0  0  0  0  0
    9.1595    1.9383    0.0000 H   0  0  0  0  0  0  0  0  0  0  0  0
    1.6900   -0.6903    0.0000 H   0  0  0  0  0  0  0  0  0  0  0  0
    1.4631   -1.5372    0.0000 H   0  0  0  0  0  0  0  0  0  0  0  0
    2.3100   -1.7642    0.0000 H   0  0  0  0  0  0  0  0  0  0  0  0
    5.1541   -4.7642    0.0000 H   0  0  0  0  0  0  0  0  0  0  0  0
    6.0010   -4.5372    0.0000 H   0  0  0  0  0  0  0  0  0  0  0  0
    5.7741   -3.6903    0.0000 H   0  0  0  0  0  0  0  0  0  0  0  0
   10.4248    2.5925    0.0000 H   0  0  0  0  0  0  0  0  0  0  0  0
   11.1062    3.1443    0.0000 H   0  0  0  0  0  0  0  0  0  0  0  0
   10.5544    3.8258    0.0000 H   0  0  0  0  0  0  0  0  0  0  0  0
  1 18  1  0  0  0  0
  1 19  1  0  0  0  0
  2 15  1  0  0  0  0
  2 22  1  0  0  0  0
  3 11  1  0  0  0  0
  3 16  1  0  0  0  0
  4 10  1  0  0  0  0
  4 20  1  0  0  0  0
  5 16  2  0  0  0  0
  6 21  2  0  0  0  0
  7 13  1  0  0  0  0
  7 19  2  0  0  0  0
  8 19  1  0  0  0  0
  8 21  1  0  0  0  0
  8 30  1  0  0  0  0
  9 10  2  0  0  0  0
  9 12  1  0  0  0  0
  9 16  1  0  0  0  0
 10 14  1  0  0  0  0
 11 13  1  0  0  0  0
 11 24  1  0  0  0  0
 11 25  1  0  0  0  0
 12 17  2  0  0  0  0
 12 26  1  0  0  0  0
 13 18  2  0  0  0  0
 14 15  2  0  0  0  0
 14 27  1  0  0  0  0
 15 17  1  0  0  0  0
 17 28  1  0  0  0  0
 18 29  1  0  0  0  0
 20 31  1  0  0  0  0
 20 32  1  0  0  0  0
 20 33  1  0  0  0  0
 21 23  1  0  0  0  0
 22 34  1  0  0  0  0
 22 35  1  0  0  0  0
 22 36  1  0  0  0  0
 23 37  1  0  0  0  0
 23 38  1  0  0  0  0
 23 39  1  0  0  0  0
M  END
> <PUBCHEM_COMPOUND_CID>
17396337

> <PUBCHEM_COMPOUND_CANONICALIZED>
1

> <PUBCHEM_CACTVS_COMPLEXITY>
424

> <PUBCHEM_CACTVS_HBOND_ACCEPTOR>
7

> <PUBCHEM_CACTVS_HBOND_DONOR>
1

> <PUBCHEM_CACTVS_ROTATABLE_BOND>
7

> <PUBCHEM_CACTVS_SUBSKEYS>
AAADceBzOABgAAAAAAAAAAAAAAAAAWAAAAAwAAAAAAAAAAABwAAAHgQQAAAADAyl3gKzn5LIFAisAyXyfAQC+KllKjkJiB0WKMiOJzakPRqDMWAt8RMYqaeIyCCOEAAABAAIAAAgAAAIABAAAAAAAAAAAA==

> <PUBCHEM_IUPAC_OPENEYE_NAME>
(2-acetamidothiazol-4-yl)methyl 2-methoxy-4-methylsulfanyl-benzoate

> <PUBCHEM_IUPAC_CAS_NAME>
2-methoxy-4-(methylthio)benzoic acid (2-acetamido-4-thiazolyl)methyl ester

> <PUBCHEM_IUPAC_NAME>
(2-acetamido-1,3-thiazol-4-yl)methyl 2-methoxy-4-methylsulfanylbenzoate

> <PUBCHEM_IUPAC_SYSTEMATIC_NAME>
(2-acetamido-1,3-thiazol-4-yl)methyl 2-methoxy-4-methylsulfanyl-benzoate

> <PUBCHEM_IUPAC_TRADITIONAL_NAME>
2-methoxy-4-(methylthio)benzoic acid (2-acetamidothiazol-4-yl)methyl ester

> <PUBCHEM_IUPAC_INCHI>
InChI=1S/C15H16N2O4S2/c1-9(18)16-15-17-10(8-23-15)7-21-14(19)12-5-4-11(22-3)6-13(12)20-2/h4-6,8H,7H2,1-3H3,(H,16,17,18)

> <PUBCHEM_IUPAC_INCHIKEY>
KZQMCSACMPVPAW-UHFFFAOYSA-N

> <PUBCHEM_XLOGP3_AA>
2.3

> <PUBCHEM_EXACT_MASS>
352.055149

> <PUBCHEM_MOLECULAR_FORMULA>
C15H16N2O4S2

> <PUBCHEM_MOLECULAR_WEIGHT>
352.42854

> <PUBCHEM_OPENEYE_CAN_SMILES>
CC(=O)NC1=NC(=CS1)COC(=O)C2=C(C=C(C=C2)SC)OC

> <PUBCHEM_OPENEYE_ISO_SMILES>
CC(=O)NC1=NC(=CS1)COC(=O)C2=C(C=C(C=C2)SC)OC

> <PUBCHEM_CACTVS_TPSA>
131

> <PUBCHEM_MONOISOTOPIC_WEIGHT>
352.055149

> <PUBCHEM_TOTAL_CHARGE>
0

> <PUBCHEM_HEAVY_ATOM_COUNT>
23

> <PUBCHEM_ATOM_DEF_STEREO_COUNT>
0

> <PUBCHEM_ATOM_UDEF_STEREO_COUNT>
0

> <PUBCHEM_BOND_DEF_STEREO_COUNT>
0

> <PUBCHEM_BOND_UDEF_STEREO_COUNT>
0

> <PUBCHEM_ISOTOPIC_ATOM_COUNT>
0

> <PUBCHEM_COMPONENT_COUNT>
1

> <PUBCHEM_CACTVS_TAUTO_COUNT>
5

> <PUBCHEM_COORDINATE_TYPE>
1
5
255

> <PUBCHEM_BONDANNOTATIONS>
1  18  8
1  19  8
10  14  8
12  17  8
13  18  8
14  15  8
15  17  8
7  13  8
7  19  8
9  10  8
9  12  8

$$$$

