6149
  -OEChem-06261201082D

 34 33  0     1  0  0  0  0  0999 V2000
    9.2260    0.0000    0.0000 Na  0  3  0  0  0  0  0  0  0  0  0  0
    6.6279    3.5000    0.0000 O   0  0  0  0  0  0  0  0  0  0  0  0
   10.0921    3.5000    0.0000 O   0  0  0  0  0  0  0  0  0  0  0  0
    8.3600    0.5000    0.0000 O   0  5  0  0  0  0  0  0  0  0  0  0
    7.4940    2.0000    0.0000 N   0  0  0  0  0  0  0  0  0  0  0  0
    9.2260    2.0000    0.0000 N   0  0  0  0  0  0  0  0  0  0  0  0
    8.3600    3.5000    0.0000 C   0  0  3  0  0  0  0  0  0  0  0  0
    8.8600    4.3660    0.0000 C   0  0  0  0  0  0  0  0  0  0  0  0
    8.3600    5.2321    0.0000 C   0  0  0  0  0  0  0  0  0  0  0  0
    7.8600    4.3660    0.0000 C   0  0  0  0  0  0  0  0  0  0  0  0
    8.8600    6.0981    0.0000 C   0  0  0  0  0  0  0  0  0  0  0  0
    7.4940    3.0000    0.0000 C   0  0  0  0  0  0  0  0  0  0  0  0
    9.2260    3.0000    0.0000 C   0  0  0  0  0  0  0  0  0  0  0  0
    6.8600    4.3660    0.0000 C   0  0  0  0  0  0  0  0  0  0  0  0
    9.8600    6.0981    0.0000 C   0  0  0  0  0  0  0  0  0  0  0  0
    8.3600    6.9641    0.0000 C   0  0  0  0  0  0  0  0  0  0  0  0
    8.3600    1.5000    0.0000 C   0  0  0  0  0  0  0  0  0  0  0  0
    9.3349    3.9675    0.0000 H   0  0  0  0  0  0  0  0  0  0  0  0
    9.3349    4.7646    0.0000 H   0  0  0  0  0  0  0  0  0  0  0  0
    7.8851    5.6306    0.0000 H   0  0  0  0  0  0  0  0  0  0  0  0
    7.8851    4.8335    0.0000 H   0  0  0  0  0  0  0  0  0  0  0  0
    8.4426    4.5781    0.0000 H   0  0  0  0  0  0  0  0  0  0  0  0
    7.7523    4.9766    0.0000 H   0  0  0  0  0  0  0  0  0  0  0  0
    8.2400    6.0981    0.0000 H   0  0  0  0  0  0  0  0  0  0  0  0
    6.8600    3.7460    0.0000 H   0  0  0  0  0  0  0  0  0  0  0  0
    6.2400    4.3660    0.0000 H   0  0  0  0  0  0  0  0  0  0  0  0
    6.8600    4.9860    0.0000 H   0  0  0  0  0  0  0  0  0  0  0  0
    9.8600    6.7181    0.0000 H   0  0  0  0  0  0  0  0  0  0  0  0
   10.4800    6.0981    0.0000 H   0  0  0  0  0  0  0  0  0  0  0  0
    9.8600    5.4781    0.0000 H   0  0  0  0  0  0  0  0  0  0  0  0
    7.8231    6.6541    0.0000 H   0  0  0  0  0  0  0  0  0  0  0  0
    8.0500    7.5010    0.0000 H   0  0  0  0  0  0  0  0  0  0  0  0
    8.8969    7.2741    0.0000 H   0  0  0  0  0  0  0  0  0  0  0  0
    6.9570    1.6900    0.0000 H   0  0  0  0  0  0  0  0  0  0  0  0
  2 12  2  0  0  0  0
  3 13  2  0  0  0  0
  4 17  1  0  0  0  0
  5 12  1  0  0  0  0
  5 17  1  0  0  0  0
  5 34  1  0  0  0  0
  6 13  1  0  0  0  0
  6 17  2  0  0  0  0
  7  8  1  0  0  0  0
  7 10  1  0  0  0  0
  7 12  1  0  0  0  0
  7 13  1  0  0  0  0
  8  9  1  0  0  0  0
  8 18  1  0  0  0  0
  8 19  1  0  0  0  0
  9 11  1  0  0  0  0
  9 20  1  0  0  0  0
  9 21  1  0  0  0  0
 10 14  1  0  0  0  0
 10 22  1  0  0  0  0
 10 23  1  0  0  0  0
 11 15  1  0  0  0  0
 11 16  1  0  0  0  0
 11 24  1  0  0  0  0
 14 25  1  0  0  0  0
 14 26  1  0  0  0  0
 14 27  1  0  0  0  0
 15 28  1  0  0  0  0
 15 29  1  0  0  0  0
 15 30  1  0  0  0  0
 16 31  1  0  0  0  0
 16 32  1  0  0  0  0
 16 33  1  0  0  0  0
M  CHG  2   1   1   4  -1
M  END
> <PUBCHEM_COMPOUND_CID>
6149

> <PUBCHEM_COMPOUND_CANONICALIZED>
1

> <PUBCHEM_CACTVS_COMPLEXITY>
336

> <PUBCHEM_CACTVS_HBOND_ACCEPTOR>
3

> <PUBCHEM_CACTVS_HBOND_DONOR>
1

> <PUBCHEM_CACTVS_ROTATABLE_BOND>
4

> <PUBCHEM_CACTVS_SUBSKEYS>
AAADceBzMCAAAAAAAAAAAAAAAAAAAAAAAAAgAAAAAAAAAAAAAAAAHgAQAAAADwCBgAADAALAAAAoAAEQNAAAAAEAAAABAAEAAAEAABoIyAAEAAAAAAAAAAEYiEAPAAAAAAAAAAAAAAAAAAAAAAAAAAAAAA==

> <PUBCHEM_IUPAC_OPENEYE_NAME>
sodium 5-ethyl-5-isopentyl-4,6-dioxo-1H-pyrimidin-2-olate

> <PUBCHEM_IUPAC_CAS_NAME>
sodium 5-ethyl-5-(3-methylbutyl)-4,6-dioxo-1H-pyrimidin-2-olate

> <PUBCHEM_IUPAC_NAME>
sodium 5-ethyl-5-(3-methylbutyl)-4,6-dioxo-1H-pyrimidin-2-olate

> <PUBCHEM_IUPAC_SYSTEMATIC_NAME>
sodium 5-ethyl-5-(3-methylbutyl)-4,6-bis(oxidanylidene)-1H-pyrimidin-2-olate

> <PUBCHEM_IUPAC_TRADITIONAL_NAME>
sodium 5-ethyl-5-isoamyl-4,6-diketo-1H-pyrimidin-2-olate

> <PUBCHEM_IUPAC_INCHI>
InChI=1S/C11H18N2O3.Na/c1-4-11(6-5-7(2)3)8(14)12-10(16)13-9(11)15;/h7H,4-6H2,1-3H3,(H2,12,13,14,15,16);/q;+1/p-1

> <PUBCHEM_IUPAC_INCHIKEY>
BNHGKKNINBGEQL-UHFFFAOYSA-M

> <PUBCHEM_EXACT_MASS>
248.113687

> <PUBCHEM_MOLECULAR_FORMULA>
C11H17N2NaO3

> <PUBCHEM_MOLECULAR_WEIGHT>
248.254049

> <PUBCHEM_OPENEYE_CAN_SMILES>
CCC1(C(=O)NC(=NC1=O)[O-])CCC(C)C.[Na+]

> <PUBCHEM_OPENEYE_ISO_SMILES>
CCC1(C(=O)NC(=NC1=O)[O-])CCC(C)C.[Na+]

> <PUBCHEM_CACTVS_TPSA>
81.6

> <PUBCHEM_MONOISOTOPIC_WEIGHT>
248.113687

> <PUBCHEM_TOTAL_CHARGE>
0

> <PUBCHEM_HEAVY_ATOM_COUNT>
17

> <PUBCHEM_ATOM_DEF_STEREO_COUNT>
0

> <PUBCHEM_ATOM_UDEF_STEREO_COUNT>
1

> <PUBCHEM_BOND_DEF_STEREO_COUNT>
0

> <PUBCHEM_BOND_UDEF_STEREO_COUNT>
0

> <PUBCHEM_ISOTOPIC_ATOM_COUNT>
0

> <PUBCHEM_COMPONENT_COUNT>
2

> <PUBCHEM_CACTVS_TAUTO_COUNT>
2

> <PUBCHEM_COORDINATE_TYPE>
1
5
255

> <PUBCHEM_BONDANNOTATIONS>
7  8  3

$$$$

