4888
  -OEChem-06261200243D

 32 34  0     1  0  0  0  0  0999 V2000
    1.8431   -1.4625   -0.2337 O   0  0  0  0  0  0  0  0  0  0  0  0
   -5.5132    0.9453   -0.5065 O   0  0  0  0  0  0  0  0  0  0  0  0
   -3.5034    1.2004   -1.5223 O   0  0  0  0  0  0  0  0  0  0  0  0
    4.0741   -0.9462   -0.3082 N   0  0  0  0  0  0  0  0  0  0  0  0
    0.1065    0.1936    0.2145 C   0  0  0  0  0  0  0  0  0  0  0  0
    1.1037    1.3050    0.3500 C   0  0  0  0  0  0  0  0  0  0  0  0
   -2.1952   -0.5747    0.2438 C   0  0  0  0  0  0  0  0  0  0  0  0
   -3.6492   -0.2863    0.4102 C   0  0  1  0  0  0  0  0  0  0  0  0
    0.5251   -1.1098   -0.0657 C   0  0  0  0  0  0  0  0  0  0  0  0
   -1.2615    0.4545    0.3685 C   0  0  0  0  0  0  0  0  0  0  0  0
    2.5128    0.8403    0.1529 C   0  0  0  0  0  0  0  0  0  0  0  0
   -1.7696   -1.8716   -0.0358 C   0  0  0  0  0  0  0  0  0  0  0  0
   -0.4105   -2.1404   -0.1907 C   0  0  0  0  0  0  0  0  0  0  0  0
    2.8123   -0.4897   -0.1236 C   0  0  0  0  0  0  0  0  0  0  0  0
   -4.0233    0.2576    1.8039 C   0  0  0  0  0  0  0  0  0  0  0  0
    3.5775    1.7408    0.2424 C   0  0  0  0  0  0  0  0  0  0  0  0
   -4.1855    0.6884   -0.6441 C   0  0  0  0  0  0  0  0  0  0  0  0
    4.8817    1.2988    0.0577 C   0  0  0  0  0  0  0  0  0  0  0  0
    5.0747   -0.0432   -0.2133 C   0  0  0  0  0  0  0  0  0  0  0  0
    0.8773    2.0759   -0.3966 H   0  0  0  0  0  0  0  0  0  0  0  0
    1.0118    1.7421    1.3517 H   0  0  0  0  0  0  0  0  0  0  0  0
   -4.2122   -1.2175    0.2574 H   0  0  0  0  0  0  0  0  0  0  0  0
   -1.5854    1.4695    0.5877 H   0  0  0  0  0  0  0  0  0  0  0  0
   -2.4830   -2.6852   -0.1362 H   0  0  0  0  0  0  0  0  0  0  0  0
   -0.0866   -3.1548   -0.4086 H   0  0  0  0  0  0  0  0  0  0  0  0
   -3.6222   -0.3889    2.5923 H   0  0  0  0  0  0  0  0  0  0  0  0
   -3.6301    1.2681    1.9625 H   0  0  0  0  0  0  0  0  0  0  0  0
   -5.1099    0.3045    1.9338 H   0  0  0  0  0  0  0  0  0  0  0  0
    3.3931    2.7902    0.4566 H   0  0  0  0  0  0  0  0  0  0  0  0
    5.7189    1.9839    0.1237 H   0  0  0  0  0  0  0  0  0  0  0  0
    6.0722   -0.4418   -0.3663 H   0  0  0  0  0  0  0  0  0  0  0  0
   -5.8357    1.5742   -1.1868 H   0  0  0  0  0  0  0  0  0  0  0  0
  1  9  1  0  0  0  0
  1 14  1  0  0  0  0
  2 17  1  0  0  0  0
  2 32  1  0  0  0  0
  3 17  2  0  0  0  0
  4 14  1  0  0  0  0
  4 19  2  0  0  0  0
  5  6  1  0  0  0  0
  5  9  2  0  0  0  0
  5 10  1  0  0  0  0
  6 11  1  0  0  0  0
  6 20  1  0  0  0  0
  6 21  1  0  0  0  0
  7  8  1  0  0  0  0
  7 10  2  0  0  0  0
  7 12  1  0  0  0  0
  8 15  1  0  0  0  0
  8 17  1  0  0  0  0
  8 22  1  0  0  0  0
  9 13  1  0  0  0  0
 10 23  1  0  0  0  0
 11 14  2  0  0  0  0
 11 16  1  0  0  0  0
 12 13  2  0  0  0  0
 12 24  1  0  0  0  0
 13 25  1  0  0  0  0
 15 26  1  0  0  0  0
 15 27  1  0  0  0  0
 15 28  1  0  0  0  0
 16 18  2  0  0  0  0
 16 29  1  0  0  0  0
 18 19  1  0  0  0  0
 18 30  1  0  0  0  0
 19 31  1  0  0  0  0
M  END
> <PUBCHEM_COMPOUND_CID>
4888

> <PUBCHEM_CONFORMER_RMSD>
0.6

> <PUBCHEM_CONFORMER_DIVERSEORDER>
2
4
3
5
1

> <PUBCHEM_MMFF94_PARTIAL_CHARGES>
25
1 -0.17
10 -0.15
11 -0.14
12 -0.15
13 -0.15
14 0.39
16 -0.15
17 0.66
18 -0.15
19 0.16
2 -0.65
23 0.15
24 0.15
25 0.15
29 0.15
3 -0.57
30 0.15
31 0.15
32 0.5
4 -0.62
5 -0.14
6 0.29
7 -0.14
8 0.2
9 0.08

> <PUBCHEM_EFFECTIVE_ROTOR_COUNT>
2.4

> <PUBCHEM_PHARMACOPHORE_FEATURES>
9
1 1 acceptor
1 15 hydrophobe
1 2 acceptor
1 3 acceptor
1 4 acceptor
3 2 3 17 anion
6 1 5 6 9 11 14 rings
6 4 11 14 16 18 19 rings
6 5 7 9 10 12 13 rings

> <PUBCHEM_HEAVY_ATOM_COUNT>
19

> <PUBCHEM_ATOM_DEF_STEREO_COUNT>
0

> <PUBCHEM_ATOM_UDEF_STEREO_COUNT>
1

> <PUBCHEM_BOND_DEF_STEREO_COUNT>
0

> <PUBCHEM_BOND_UDEF_STEREO_COUNT>
0

> <PUBCHEM_ISOTOPIC_ATOM_COUNT>
0

> <PUBCHEM_COMPONENT_COUNT>
1

> <PUBCHEM_CACTVS_TAUTO_COUNT>
1

> <PUBCHEM_CONFORMER_ID>
0000131800000002

> <PUBCHEM_MMFF94_ENERGY>
52.6259

> <PUBCHEM_FEATURE_SELFOVERLAP>
45.842

> <PUBCHEM_SHAPE_FINGERPRINT>
10014705 185 18411984620052358167
10411042 1 17545037568568649623
11089746 13 17095526171810727792
11471102 20 18334294271274775844
11543360 7 15068625950389626120
11595378 159 16128108830880752660
12236239 1 17313384552257090289
12403259 415 18335704888690118753
12500047 106 18336550395914981762
12969540 114 18341066171800893831
13583140 156 17704353260321671801
13675066 3 18059850645342817818
14251752 14 18131630115285563318
15099037 51 18409167709964161558
15196674 1 18336263440718308938
15375358 24 18259982661151609150
15788980 27 18131350799975769304
17834072 8 18335415773230046766
18186145 218 18334850619420455502
200 152 17095522893975110153
204376 136 18409445882216854363
20645477 56 18343586204890799484
20645477 70 18259981600331902910
21033648 29 18342469131405974969
21267235 1 18262787472190696162
231179 274 18272937132518897618
23227448 37 18339925896327301015
23402539 116 17312818294635688248
23402655 69 18186522107013325196
23493267 7 17846501443628308089
23559900 14 18113898209639227872
25 1 18409454712685309335
300161 21 18335424522215825416
335352 9 18408885148988667678
34934 24 18409737227360538762
350125 39 18192144902705229331
3545911 37 18409163282063882394
4028521 119 18410858758689470909
4072396 5 18337404819988038506
4214541 1 18410010987985181059
495365 180 17386582271281206160
5104073 3 18336827477467340090
542803 24 17167574990460291025
633830 44 17822838879487893647
69090 78 18261111855066376134
90127 26 17917706885810564704

> <PUBCHEM_SHAPE_MULTIPOLES>
368.42
10.68
1.81
0.95
0.44
0.53
-0.11
-4.1
0.71
0.36
0.14
-1.25
-0.25
0.6

> <PUBCHEM_SHAPE_SELFOVERLAP>
811.278

> <PUBCHEM_SHAPE_VOLUME>
196.5

> <PUBCHEM_COORDINATE_TYPE>
2
5
10

$$$$

