17396183
  -OEChem-06241222553D

 43 45  0     1  0  0  0  0  0999 V2000
    3.6770   -1.3232    0.2553 S   0  0  0  0  0  0  0  0  0  0  0  0
   -1.9287   -1.4617    1.4510 S   0  0  0  0  0  0  0  0  0  0  0  0
    3.0809    1.3165   -1.2415 O   0  0  0  0  0  0  0  0  0  0  0  0
   -3.4033    2.3375   -0.0494 O   0  0  0  0  0  0  0  0  0  0  0  0
    0.6003    1.8536    1.2734 N   0  0  0  0  0  0  0  0  0  0  0  0
    0.9529   -1.6663    0.5003 N   0  0  0  0  0  0  0  0  0  0  0  0
    0.5141   -3.1473   -1.1870 N   0  0  0  0  0  0  0  0  0  0  0  0
    1.8183   -2.8382   -1.1286 N   0  0  0  0  0  0  0  0  0  0  0  0
    1.0990    1.5340    0.0376 C   0  0  0  0  0  0  0  0  0  0  0  0
    0.0915    1.7153   -0.8838 C   0  0  0  0  0  0  0  0  0  0  0  0
   -1.0532    2.1598   -0.1771 C   0  0  0  0  0  0  0  0  0  0  0  0
   -0.7101    2.2369    1.1546 C   0  0  0  0  0  0  0  0  0  0  0  0
    2.4855    1.0818   -0.1859 C   0  0  0  0  0  0  0  0  0  0  0  0
    3.2097    0.3089    0.9178 C   0  0  2  0  0  0  0  0  0  0  0  0
    0.1853    1.4879   -2.3415 C   0  0  0  0  0  0  0  0  0  0  0  0
   -1.4936    2.6371    2.3398 C   0  0  0  0  0  0  0  0  0  0  0  0
   -2.3486    2.4822   -0.7060 C   0  0  0  0  0  0  0  0  0  0  0  0
    4.4647    1.0438    1.3826 C   0  0  0  0  0  0  0  0  0  0  0  0
   -2.4995    3.0273   -2.1259 C   0  0  0  0  0  0  0  0  0  0  0  0
    2.0708   -1.9574   -0.1235 C   0  0  0  0  0  0  0  0  0  0  0  0
    0.0345   -2.4125   -0.1813 C   0  0  0  0  0  0  0  0  0  0  0  0
   -1.3434   -2.4128    0.1529 C   0  0  0  0  0  0  0  0  0  0  0  0
   -2.3505   -3.1227   -0.4631 C   0  0  0  0  0  0  0  0  0  0  0  0
   -3.6196   -2.8823    0.1384 C   0  0  0  0  0  0  0  0  0  0  0  0
   -3.5340   -1.9981    1.1912 C   0  0  0  0  0  0  0  0  0  0  0  0
    1.1194    1.8262    2.1402 H   0  0  0  0  0  0  0  0  0  0  0  0
    2.5564    0.1502    1.7805 H   0  0  0  0  0  0  0  0  0  0  0  0
   -0.7048    0.9773   -2.7203 H   0  0  0  0  0  0  0  0  0  0  0  0
    1.0281    0.8408   -2.6023 H   0  0  0  0  0  0  0  0  0  0  0  0
    0.3140    2.4330   -2.8771 H   0  0  0  0  0  0  0  0  0  0  0  0
   -1.9783    3.6047    2.1742 H   0  0  0  0  0  0  0  0  0  0  0  0
   -0.8642    2.7313    3.2310 H   0  0  0  0  0  0  0  0  0  0  0  0
   -2.2697    1.8961    2.5556 H   0  0  0  0  0  0  0  0  0  0  0  0
    4.9770    0.4961    2.1810 H   0  0  0  0  0  0  0  0  0  0  0  0
    4.1976    2.0313    1.7759 H   0  0  0  0  0  0  0  0  0  0  0  0
    5.1736    1.2078    0.5629 H   0  0  0  0  0  0  0  0  0  0  0  0
   -2.5828    2.2031   -2.8368 H   0  0  0  0  0  0  0  0  0  0  0  0
   -1.6616    3.6811   -2.3790 H   0  0  0  0  0  0  0  0  0  0  0  0
   -3.4123    3.6294   -2.1790 H   0  0  0  0  0  0  0  0  0  0  0  0
    0.1332   -3.7914   -1.8750 H   0  0  0  0  0  0  0  0  0  0  0  0
   -2.2069   -3.7878   -1.3058 H   0  0  0  0  0  0  0  0  0  0  0  0
   -4.5482   -3.3347   -0.1847 H   0  0  0  0  0  0  0  0  0  0  0  0
   -4.3373   -1.6409    1.8200 H   0  0  0  0  0  0  0  0  0  0  0  0
  1 14  1  0  0  0  0
  1 20  1  0  0  0  0
  2 22  1  0  0  0  0
  2 25  1  0  0  0  0
  3 13  2  0  0  0  0
  4 17  2  0  0  0  0
  5  9  1  0  0  0  0
  5 12  1  0  0  0  0
  5 26  1  0  0  0  0
  6 20  1  0  0  0  0
  6 21  2  0  0  0  0
  7  8  1  0  0  0  0
  7 21  1  0  0  0  0
  7 40  1  0  0  0  0
  8 20  2  0  0  0  0
  9 10  2  0  0  0  0
  9 13  1  0  0  0  0
 10 11  1  0  0  0  0
 10 15  1  0  0  0  0
 11 12  2  0  0  0  0
 11 17  1  0  0  0  0
 12 16  1  0  0  0  0
 13 14  1  0  0  0  0
 14 18  1  0  0  0  0
 14 27  1  0  0  0  0
 15 28  1  0  0  0  0
 15 29  1  0  0  0  0
 15 30  1  0  0  0  0
 16 31  1  0  0  0  0
 16 32  1  0  0  0  0
 16 33  1  0  0  0  0
 17 19  1  0  0  0  0
 18 34  1  0  0  0  0
 18 35  1  0  0  0  0
 18 36  1  0  0  0  0
 19 37  1  0  0  0  0
 19 38  1  0  0  0  0
 19 39  1  0  0  0  0
 21 22  1  0  0  0  0
 22 23  2  0  0  0  0
 23 24  1  0  0  0  0
 23 41  1  0  0  0  0
 24 25  2  0  0  0  0
 24 42  1  0  0  0  0
 25 43  1  0  0  0  0
M  END
> <PUBCHEM_COMPOUND_CID>
17396183

> <PUBCHEM_CONFORMER_RMSD>
1

> <PUBCHEM_CONFORMER_DIVERSEORDER>
1
217
74
341
55
149
352
276
176
168
56
75
16
313
87
191
346
231
234
106
304
37
92
134
36
172
363
268
22
194
90
3
122
70
380
77
108
262
186
265
15
253
151
43
329
170
374
275
101
83
241
289
80
244
305
337
369
51
94
339
310
371
227
34
162
236
130
26
226
314
280
153
199
169
373
84
223
249
376
42
202
377
123
95
208
354
133
187
277
27
243
165
146
173
24
301
28
132
65
315
48
215
21
197
213
57
232
312
259
342
33
120
175
355
163
287
135
49
381
188
105
79
359
144
200
19
140
11
361
196
131
82
4
137
126
60
274
177
31
222
39
306
98
72
281
50
110
12
273
104
114
119
198
145
116
157
179
237
252
316
218
299
193
182
291
102
58
214
17
67
248
207
6
365
221
23
125
9
245
8
143
40
235
330
13
278
100
375
261
63
257
233
220
166
152
378
255
47
141
25
38
158
251
2
209
189
139
293
258
358
180
7
323
190
267
59
161
154
240
338
328
136
53
347
286
367
264
254
206
121
379
332
239
96
309
5
284
357
228
211
174
203
54
113
192
311
109
344
78
351
150
73
155
89
372
76
219
45
14
99
148
156
97
195
46
324
88
349
318
32
205
201
142
271
111
71
285
362
164
129
308
69
212
127
260
204
68
10
66
322
138
283
250
320
364
160
171
368
183
242
247
282
86
230
290
224
294
20
115
93
117
300
370
61
348
297
317
288
295
353
35
272
44
343
225
229
382
319
181
334
256
345
81
292
246
279
335
185
216
112
128
383
178
326
124
118
336
103
210
269
366
18
266
29
296
167
263
30
159
333
41
331
62
147
327
360
85
325
64
350
184
107
303
321
270
52
340
307
298
356
238
302
91

> <PUBCHEM_MMFF94_PARTIAL_CHARGES>
29
1 -0.28
10 -0.18
11 -0.09
12 -0.33
13 0.59
14 0.29
15 0.18
16 0.18
17 0.6
19 0.06
2 -0.08
20 0.57
21 0.19
22 0.04
23 -0.15
24 -0.15
25 -0.11
26 0.27
3 -0.57
4 -0.57
40 0.27
41 0.15
42 0.15
43 0.15
5 0.03
6 -0.57
7 0.3
8 -0.71
9 -0.24

> <PUBCHEM_EFFECTIVE_ROTOR_COUNT>
6

> <PUBCHEM_PHARMACOPHORE_FEATURES>
11
1 18 hydrophobe
1 3 acceptor
1 4 acceptor
1 5 cation
1 5 donor
1 7 donor
3 6 7 21 cation
3 6 8 20 cation
5 2 22 23 24 25 rings
5 5 9 10 11 12 rings
5 6 7 8 20 21 rings

> <PUBCHEM_HEAVY_ATOM_COUNT>
25

> <PUBCHEM_ATOM_DEF_STEREO_COUNT>
0

> <PUBCHEM_ATOM_UDEF_STEREO_COUNT>
1

> <PUBCHEM_BOND_DEF_STEREO_COUNT>
0

> <PUBCHEM_BOND_UDEF_STEREO_COUNT>
0

> <PUBCHEM_ISOTOPIC_ATOM_COUNT>
0

> <PUBCHEM_COMPONENT_COUNT>
1

> <PUBCHEM_CACTVS_TAUTO_COUNT>
156

> <PUBCHEM_CONFORMER_ID>
010971D700000001

> <PUBCHEM_MMFF94_ENERGY>
46.4464

> <PUBCHEM_FEATURE_SELFOVERLAP>
58.566

> <PUBCHEM_SHAPE_FINGERPRINT>
10064457 181 17973987742457857424
104564 63 18340762637703371358
10688039 33 18130510713010397323
108634 29 18339367486407999815
11370993 70 18124612017499989812
11640471 11 12386103632070433813
12035759 4 17698983121246808572
12156800 1 6583938080632588467
12422481 6 18197190699140944457
12553582 1 18052812555259474002
12596599 1 16526111398496108775
12788726 201 18052526682869683876
13140716 1 18337960107540371250
13149001 5 17976811318293333302
13402501 40 18412273835198543767
13965767 371 18116126966120278170
14787075 74 18044681881921576509
14840074 17 17838894833436061456
17138139 8 17756753820133579245
17357779 13 18266756708961070519
17492 54 17553183803178890951
20905425 154 18410567358149230711
22182313 1 18333733537836092462
23419403 2 17097508491826917233
238 59 17119450732660171735
3052486 1 18201992240407168118
4340502 62 18265343982801850653
4409770 3 18194989394851575414
5282274 181 18048571996640744226
7832392 63 17543630829677151590
81228 2 18199167654827772299

> <PUBCHEM_SHAPE_MULTIPOLES>
490.52
6.06
5.1
1.85
2.2
0.05
0.07
2.22
-1.56
-3.89
1.15
-0.33
-1.41
0.9

> <PUBCHEM_SHAPE_SELFOVERLAP>
1030.8

> <PUBCHEM_SHAPE_VOLUME>
281.7

> <PUBCHEM_COORDINATE_TYPE>
2
5
10

$$$$

