12687
  -OEChem-06261207153D

 53 52  0     0  0  0  0  0  0999 V2000
    3.0914   -1.8579   -1.9601 O   0  0  0  0  0  0  0  0  0  0  0  0
    2.5338   -3.1229   -0.1514 O   0  0  0  0  0  0  0  0  0  0  0  0
    3.9903   -0.3300    0.6831 N   0  3  0  0  0  0  0  0  0  0  0  0
    3.3132    0.6087   -0.2416 C   0  0  0  0  0  0  0  0  0  0  0  0
    2.8880    1.8741    0.4929 C   0  0  0  0  0  0  0  0  0  0  0  0
    2.1266    2.9078   -0.3452 C   0  0  0  0  0  0  0  0  0  0  0  0
    4.4277   -1.6048   -0.0534 C   0  0  0  0  0  0  0  0  0  0  0  0
    0.8415    2.4084   -1.0125 C   0  0  0  0  0  0  0  0  0  0  0  0
    5.2406    0.3147    1.2997 C   0  0  0  0  0  0  0  0  0  0  0  0
    3.0538   -0.7411    1.8289 C   0  0  0  0  0  0  0  0  0  0  0  0
   -0.1714    1.8263   -0.0232 C   0  0  0  0  0  0  0  0  0  0  0  0
   -1.4685    1.4279   -0.7324 C   0  0  0  0  0  0  0  0  0  0  0  0
   -2.5313    0.8631    0.2146 C   0  0  0  0  0  0  0  0  0  0  0  0
   -3.8186    0.4419   -0.4977 C   0  0  0  0  0  0  0  0  0  0  0  0
   -4.8706   -0.0451    0.5015 C   0  0  0  0  0  0  0  0  0  0  0  0
    3.2539   -2.2918   -0.6842 C   0  0  0  0  0  0  0  0  0  0  0  0
   -6.1718   -0.4303   -0.2043 C   0  0  0  0  0  0  0  0  0  0  0  0
   -7.2112   -0.9484    0.7894 C   0  0  0  0  0  0  0  0  0  0  0  0
   -8.5175   -1.3006    0.0959 C   0  0  0  0  0  0  0  0  0  0  0  0
    2.4245    0.1189   -0.6480 H   0  0  0  0  0  0  0  0  0  0  0  0
    3.9979    0.8444   -1.0647 H   0  0  0  0  0  0  0  0  0  0  0  0
    3.7678    2.4030    0.8756 H   0  0  0  0  0  0  0  0  0  0  0  0
    2.2646    1.6484    1.3626 H   0  0  0  0  0  0  0  0  0  0  0  0
    2.7949    3.2887   -1.1276 H   0  0  0  0  0  0  0  0  0  0  0  0
    1.8834    3.7645    0.2960 H   0  0  0  0  0  0  0  0  0  0  0  0
    4.9098   -2.2804    0.6623 H   0  0  0  0  0  0  0  0  0  0  0  0
    5.1685   -1.3227   -0.8108 H   0  0  0  0  0  0  0  0  0  0  0  0
    0.3842    3.2512   -1.5458 H   0  0  0  0  0  0  0  0  0  0  0  0
    1.0864    1.6591   -1.7744 H   0  0  0  0  0  0  0  0  0  0  0  0
    5.8521    0.7237    0.4903 H   0  0  0  0  0  0  0  0  0  0  0  0
    4.9481    1.0918    2.0098 H   0  0  0  0  0  0  0  0  0  0  0  0
    5.7939   -0.4637    1.8350 H   0  0  0  0  0  0  0  0  0  0  0  0
    2.0700   -0.9865    1.4192 H   0  0  0  0  0  0  0  0  0  0  0  0
    3.4883   -1.6090    2.3351 H   0  0  0  0  0  0  0  0  0  0  0  0
    2.9756    0.0773    2.5496 H   0  0  0  0  0  0  0  0  0  0  0  0
   -0.3919    2.5657    0.7558 H   0  0  0  0  0  0  0  0  0  0  0  0
    0.2443    0.9427    0.4734 H   0  0  0  0  0  0  0  0  0  0  0  0
   -1.2426    0.6807   -1.5035 H   0  0  0  0  0  0  0  0  0  0  0  0
   -1.8821    2.3021   -1.2503 H   0  0  0  0  0  0  0  0  0  0  0  0
   -2.7671    1.6197    0.9733 H   0  0  0  0  0  0  0  0  0  0  0  0
   -2.1155   -0.0008    0.7479 H   0  0  0  0  0  0  0  0  0  0  0  0
   -3.5957   -0.3522   -1.2203 H   0  0  0  0  0  0  0  0  0  0  0  0
   -4.2167    1.2927   -1.0638 H   0  0  0  0  0  0  0  0  0  0  0  0
   -4.4795   -0.9093    1.0520 H   0  0  0  0  0  0  0  0  0  0  0  0
   -5.0734    0.7426    1.2373 H   0  0  0  0  0  0  0  0  0  0  0  0
   -6.5722    0.4417   -0.7356 H   0  0  0  0  0  0  0  0  0  0  0  0
   -5.9685   -1.2017   -0.9571 H   0  0  0  0  0  0  0  0  0  0  0  0
   -6.8249   -1.8361    1.3035 H   0  0  0  0  0  0  0  0  0  0  0  0
   -7.4056   -0.1885    1.5553 H   0  0  0  0  0  0  0  0  0  0  0  0
   -8.9473   -0.4243   -0.3999 H   0  0  0  0  0  0  0  0  0  0  0  0
   -9.2459   -1.6698    0.8246 H   0  0  0  0  0  0  0  0  0  0  0  0
   -8.3642   -2.0808   -0.6564 H   0  0  0  0  0  0  0  0  0  0  0  0
    2.3269   -2.2888   -2.3984 H   0  0  0  0  0  0  0  0  0  0  0  0
  1 16  1  0  0  0  0
  1 53  1  0  0  0  0
  2 16  2  0  0  0  0
  3  4  1  0  0  0  0
  3  7  1  0  0  0  0
  3  9  1  0  0  0  0
  3 10  1  0  0  0  0
  4  5  1  0  0  0  0
  4 20  1  0  0  0  0
  4 21  1  0  0  0  0
  5  6  1  0  0  0  0
  5 22  1  0  0  0  0
  5 23  1  0  0  0  0
  6  8  1  0  0  0  0
  6 24  1  0  0  0  0
  6 25  1  0  0  0  0
  7 16  1  0  0  0  0
  7 26  1  0  0  0  0
  7 27  1  0  0  0  0
  8 11  1  0  0  0  0
  8 28  1  0  0  0  0
  8 29  1  0  0  0  0
  9 30  1  0  0  0  0
  9 31  1  0  0  0  0
  9 32  1  0  0  0  0
 10 33  1  0  0  0  0
 10 34  1  0  0  0  0
 10 35  1  0  0  0  0
 11 12  1  0  0  0  0
 11 36  1  0  0  0  0
 11 37  1  0  0  0  0
 12 13  1  0  0  0  0
 12 38  1  0  0  0  0
 12 39  1  0  0  0  0
 13 14  1  0  0  0  0
 13 40  1  0  0  0  0
 13 41  1  0  0  0  0
 14 15  1  0  0  0  0
 14 42  1  0  0  0  0
 14 43  1  0  0  0  0
 15 17  1  0  0  0  0
 15 44  1  0  0  0  0
 15 45  1  0  0  0  0
 17 18  1  0  0  0  0
 17 46  1  0  0  0  0
 17 47  1  0  0  0  0
 18 19  1  0  0  0  0
 18 48  1  0  0  0  0
 18 49  1  0  0  0  0
 19 50  1  0  0  0  0
 19 51  1  0  0  0  0
 19 52  1  0  0  0  0
M  CHG  1   3   1
M  END
> <PUBCHEM_COMPOUND_CID>
12687

> <PUBCHEM_CONFORMER_RMSD>
1.2

> <PUBCHEM_CONFORMER_DIVERSEORDER>
2
89
73
32
81
68
67
38
63
69
8
87
55
49
13
90
74
54
61
60
4
43
64
77
57
15
3
41
35
75
27
85
31
14
28
86
29
30
51
12
56
9
71
88
36
17
62
52
53
37
26
91
83
92
40
33
7
66
46
1
25
42
21
94
23
11
70
39
58
45
59
44
5
18
20
72
93
10
6
65
79
19
76
22
48
50
24
16
78
80
34
47
84
82

> <PUBCHEM_MMFF94_PARTIAL_CHARGES>
9
1 -0.65
10 0.5
16 0.66
2 -0.57
3 -1.01
4 0.5
53 0.5
7 0.56
9 0.5

> <PUBCHEM_EFFECTIVE_ROTOR_COUNT>
13

> <PUBCHEM_PHARMACOPHORE_FEATURES>
5
1 1 acceptor
1 19 hydrophobe
1 2 acceptor
1 3 cation
3 1 2 16 anion

> <PUBCHEM_HEAVY_ATOM_COUNT>
19

> <PUBCHEM_ATOM_DEF_STEREO_COUNT>
0

> <PUBCHEM_ATOM_UDEF_STEREO_COUNT>
0

> <PUBCHEM_BOND_DEF_STEREO_COUNT>
0

> <PUBCHEM_BOND_UDEF_STEREO_COUNT>
0

> <PUBCHEM_ISOTOPIC_ATOM_COUNT>
0

> <PUBCHEM_COMPONENT_COUNT>
1

> <PUBCHEM_CACTVS_TAUTO_COUNT>
1

> <PUBCHEM_CONFORMER_ID>
0000318F00000002

> <PUBCHEM_MMFF94_ENERGY>
27.3767

> <PUBCHEM_FEATURE_SELFOVERLAP>
25.428

> <PUBCHEM_SHAPE_FINGERPRINT>
10316853 100 18342452625978577235
125118 31 7060117540645525547
12596602 18 16950284000789285179
12778500 126 16950275256383635083
12892183 10 17749397026355323472
13464513 79 18411984685083587608
13533116 47 18261107444546543433
13551218 46 18408040698383501943
13617811 41 15482676763125131511
13989917 61 18338792317637040059
14211702 104 18057032524902571355
14251740 57 18187638150118111775
14252887 29 18337113466512823776
14528608 73 10015864267518306081
15003188 105 17845942943240212002
15342816 4 17845375604072845544
15635459 17 18342174505513106520
1768 124 18335703793890319431
17859628 70 18335419084481228164
1979834 28 18040155132225210846
20165401 70 18335422340541945959
20397935 70 18261107465810006509
20403669 9 18202002144337806961
20645477 70 18272090482922833116
21197605 99 18265615381563686795
21623969 137 18412266129510132963
22224240 67 18114758040548530904
239999 70 18060140899169845896
3472631 163 10735872876950844137
465052 167 18413109454760053117
6025842 7 18129376003909918348

> <PUBCHEM_SHAPE_MULTIPOLES>
374.29
18.43
3.08
1.25
46.6
0.12
0.03
11.32
3.96
-3.98
-0.96
-1.43
0.38
1

> <PUBCHEM_SHAPE_SELFOVERLAP>
687.87

> <PUBCHEM_SHAPE_VOLUME>
238.5

> <PUBCHEM_COORDINATE_TYPE>
2
5
10

$$$$

