17395363
  -OEChem-06241222493D

 47 49  0     0  0  0  0  0  0999 V2000
   -2.0190   -2.3045   -0.1862 S   0  0  0  0  0  0  0  0  0  0  0  0
   -2.0782   -3.0840    1.0365 O   0  0  0  0  0  0  0  0  0  0  0  0
   -1.6810   -2.9363   -1.4487 O   0  0  0  0  0  0  0  0  0  0  0  0
    3.3272   -1.8997   -0.6756 O   0  0  0  0  0  0  0  0  0  0  0  0
   -2.5264    0.5732    0.5458 N   0  0  0  0  0  0  0  0  0  0  0  0
   -3.4037   -1.4873   -0.3743 N   0  0  0  0  0  0  0  0  0  0  0  0
    3.8863   -0.2124    0.7793 N   0  0  0  0  0  0  0  0  0  0  0  0
   -2.8736    1.8556    1.1772 C   0  0  0  0  0  0  0  0  0  0  0  0
   -3.1325    2.9319    0.1257 C   0  0  0  0  0  0  0  0  0  0  0  0
   -4.5333    2.8575   -0.4829 C   0  0  0  0  0  0  0  0  0  0  0  0
   -4.8625    1.5352   -1.1756 C   0  0  0  0  0  0  0  0  0  0  0  0
   -4.9065    0.3437   -0.2222 C   0  0  0  0  0  0  0  0  0  0  0  0
   -3.5146   -0.2493    0.0005 C   0  0  0  0  0  0  0  0  0  0  0  0
   -1.1611    0.2217    0.4349 C   0  0  0  0  0  0  0  0  0  0  0  0
   -0.7806   -1.0838    0.0935 C   0  0  0  0  0  0  0  0  0  0  0  0
   -0.1056    1.1352    0.6199 C   0  0  0  0  0  0  0  0  0  0  0  0
    0.5542   -1.4834   -0.0390 C   0  0  0  0  0  0  0  0  0  0  0  0
    1.5663   -0.5562    0.1656 C   0  0  0  0  0  0  0  0  0  0  0  0
    1.2368    0.7537    0.4914 C   0  0  0  0  0  0  0  0  0  0  0  0
    2.9596   -0.9494    0.0327 C   0  0  0  0  0  0  0  0  0  0  0  0
    5.3020   -0.5037    0.7744 C   0  0  0  0  0  0  0  0  0  0  0  0
    6.0491    0.2583   -0.3152 C   0  0  0  0  0  0  0  0  0  0  0  0
    5.9470    1.7760   -0.1469 C   0  0  0  0  0  0  0  0  0  0  0  0
    6.7500    2.5078   -1.2110 C   0  0  0  0  0  0  0  0  0  0  0  0
   -2.1012    2.1881    1.8796 H   0  0  0  0  0  0  0  0  0  0  0  0
   -3.7567    1.7291    1.8163 H   0  0  0  0  0  0  0  0  0  0  0  0
   -3.0293    3.9145    0.6023 H   0  0  0  0  0  0  0  0  0  0  0  0
   -2.3808    2.8878   -0.6714 H   0  0  0  0  0  0  0  0  0  0  0  0
   -5.2793    3.0543    0.2974 H   0  0  0  0  0  0  0  0  0  0  0  0
   -4.6337    3.6682   -1.2152 H   0  0  0  0  0  0  0  0  0  0  0  0
   -5.8513    1.6411   -1.6387 H   0  0  0  0  0  0  0  0  0  0  0  0
   -4.1491    1.3543   -1.9888 H   0  0  0  0  0  0  0  0  0  0  0  0
   -5.3618    0.6003    0.7397 H   0  0  0  0  0  0  0  0  0  0  0  0
   -5.5410   -0.4328   -0.6687 H   0  0  0  0  0  0  0  0  0  0  0  0
   -0.2920    2.1832    0.8392 H   0  0  0  0  0  0  0  0  0  0  0  0
    0.7941   -2.5128   -0.2928 H   0  0  0  0  0  0  0  0  0  0  0  0
    1.9882    1.5284    0.6170 H   0  0  0  0  0  0  0  0  0  0  0  0
    5.6912   -0.2358    1.7626 H   0  0  0  0  0  0  0  0  0  0  0  0
    5.4482   -1.5807    0.6395 H   0  0  0  0  0  0  0  0  0  0  0  0
    7.1038   -0.0413   -0.2927 H   0  0  0  0  0  0  0  0  0  0  0  0
    5.6555   -0.0246   -1.2993 H   0  0  0  0  0  0  0  0  0  0  0  0
    3.5773    0.5233    1.4053 H   0  0  0  0  0  0  0  0  0  0  0  0
    4.9012    2.0971   -0.2115 H   0  0  0  0  0  0  0  0  0  0  0  0
    6.3158    2.0658    0.8438 H   0  0  0  0  0  0  0  0  0  0  0  0
    6.3862    2.2631   -2.2140 H   0  0  0  0  0  0  0  0  0  0  0  0
    6.6640    3.5902   -1.0731 H   0  0  0  0  0  0  0  0  0  0  0  0
    7.8103    2.2416   -1.1549 H   0  0  0  0  0  0  0  0  0  0  0  0
  1  2  2  0  0  0  0
  1  3  2  0  0  0  0
  1  6  1  0  0  0  0
  1 15  1  0  0  0  0
  4 20  2  0  0  0  0
  5  8  1  0  0  0  0
  5 13  1  0  0  0  0
  5 14  1  0  0  0  0
  6 13  2  0  0  0  0
  7 20  1  0  0  0  0
  7 21  1  0  0  0  0
  7 42  1  0  0  0  0
  8  9  1  0  0  0  0
  8 25  1  0  0  0  0
  8 26  1  0  0  0  0
  9 10  1  0  0  0  0
  9 27  1  0  0  0  0
  9 28  1  0  0  0  0
 10 11  1  0  0  0  0
 10 29  1  0  0  0  0
 10 30  1  0  0  0  0
 11 12  1  0  0  0  0
 11 31  1  0  0  0  0
 11 32  1  0  0  0  0
 12 13  1  0  0  0  0
 12 33  1  0  0  0  0
 12 34  1  0  0  0  0
 14 15  2  0  0  0  0
 14 16  1  0  0  0  0
 15 17  1  0  0  0  0
 16 19  2  0  0  0  0
 16 35  1  0  0  0  0
 17 18  2  0  0  0  0
 17 36  1  0  0  0  0
 18 19  1  0  0  0  0
 18 20  1  0  0  0  0
 19 37  1  0  0  0  0
 21 22  1  0  0  0  0
 21 38  1  0  0  0  0
 21 39  1  0  0  0  0
 22 23  1  0  0  0  0
 22 40  1  0  0  0  0
 22 41  1  0  0  0  0
 23 24  1  0  0  0  0
 23 43  1  0  0  0  0
 23 44  1  0  0  0  0
 24 45  1  0  0  0  0
 24 46  1  0  0  0  0
 24 47  1  0  0  0  0
M  END
> <PUBCHEM_COMPOUND_CID>
17395363

> <PUBCHEM_CONFORMER_RMSD>
0.8

> <PUBCHEM_CONFORMER_DIVERSEORDER>
1
13
23
33
40
9
16
42
10
17
28
7
19
29
14
38
46
12
21
50
18
34
4
24
11
35
36
2
5
27
37
49
6
25
30
3
22
48
8
47
41
45
31
32
43
15
20
26
44
39

> <PUBCHEM_MMFF94_PARTIAL_CHARGES>
22
1 1.5
12 0.06
13 0.44
14 0.1
15 -0.01
16 -0.15
17 -0.15
18 0.09
19 -0.15
2 -0.65
20 0.54
21 0.3
3 -0.65
35 0.15
36 0.15
37 0.15
4 -0.57
42 0.37
5 -0.52
6 -0.64
7 -0.73
8 0.37

> <PUBCHEM_EFFECTIVE_ROTOR_COUNT>
6

> <PUBCHEM_PHARMACOPHORE_FEATURES>
9
1 2 acceptor
1 24 hydrophobe
1 3 acceptor
1 4 acceptor
1 6 donor
1 7 donor
6 1 5 6 13 14 15 rings
6 14 15 16 17 18 19 rings
7 5 8 9 10 11 12 13 rings

> <PUBCHEM_HEAVY_ATOM_COUNT>
24

> <PUBCHEM_ATOM_DEF_STEREO_COUNT>
0

> <PUBCHEM_ATOM_UDEF_STEREO_COUNT>
0

> <PUBCHEM_BOND_DEF_STEREO_COUNT>
0

> <PUBCHEM_BOND_UDEF_STEREO_COUNT>
0

> <PUBCHEM_ISOTOPIC_ATOM_COUNT>
0

> <PUBCHEM_COMPONENT_COUNT>
1

> <PUBCHEM_CACTVS_TAUTO_COUNT>
2

> <PUBCHEM_CONFORMER_ID>
01096EA300000001

> <PUBCHEM_MMFF94_ENERGY>
46.113

> <PUBCHEM_FEATURE_SELFOVERLAP>
45.714

> <PUBCHEM_SHAPE_FINGERPRINT>
10014705 185 18413107277348634648
10366900 7 17095246934010948466
10411042 1 17905612099440437023
10669705 176 18336818720656913508
10906281 52 18041828601796856273
12107183 9 18054236698497425674
12236239 1 18131636681805443946
12390115 104 17968083283227887457
12596602 18 17632578249156301744
13140716 1 18191302676777293259
13257819 101 17201654478840400557
13383661 66 14275169912634761292
13690498 29 17970909955935094438
14251764 30 8357671020171558949
14528608 73 18408602540182970356
14790565 3 18268147728762245184
15196674 1 18263364853081011003
15575132 122 18262232202070830022
17980427 23 17988353866939621221
19427546 20 18339078164594221206
20511986 3 18272381849688852100
21304253 335 18131064918832449740
22182313 1 18042105678632714607
23402539 116 18261125088087293191
23559900 14 18041852705338360520
255183 451 17176884324007729215
268830 7 17703801314580695776
3004659 81 18337391647687331970
34797466 226 17894903010941105244
34934 24 18341056301824025242
350125 39 18408321077837928361
3759504 43 18201999967043011371
5283173 99 18408888472776435288
6327066 14 18269280230429701421
6898599 12 18337670819801884524
7237137 82 18335702689445206612
7970288 3 8645895877100800253

> <PUBCHEM_SHAPE_MULTIPOLES>
465.21
13.97
3.37
1.02
21.67
0.02
0.1
-10.17
3.31
-2.28
0.61
-0.05
-0.06
-0.81

> <PUBCHEM_SHAPE_SELFOVERLAP>
966.204

> <PUBCHEM_SHAPE_VOLUME>
264.2

> <PUBCHEM_COORDINATE_TYPE>
2
5
10

$$$$

