6122
  -OEChem-06261201072D

 44 48  0     1  0  0  0  0  0999 V2000
    7.3434    0.2295    0.0000 O   0  0  0  0  0  0  0  0  0  0  0  0
    8.3739    2.1667    0.0000 O   0  0  0  0  0  0  0  0  0  0  0  0
    7.0648   -2.3132    0.0000 O   0  0  0  0  0  0  0  0  0  0  0  0
    4.3958    0.9983    0.0000 N   0  0  3  0  0  0  0  0  0  0  0  0
    5.9510    1.0367    0.0000 C   0  0  1  0  0  0  0  0  0  0  0  0
    5.2078    1.7058    0.0000 C   0  0  2  0  0  0  0  0  0  0  0  0
    4.2568    1.3968    0.0000 C   0  0  2  0  0  0  0  0  0  0  0  0
    6.9399    1.1380    0.0000 C   0  0  2  0  0  0  0  0  0  0  0  0
    5.6619    0.7292    0.0000 C   0  0  0  0  0  0  0  0  0  0  0  0
    5.7431    0.0585    0.0000 C   0  0  0  0  0  0  0  0  0  0  0  0
    4.0489    0.4186    0.0000 C   0  0  0  0  0  0  0  0  0  0  0  0
    4.9311    0.4038    0.0000 C   0  0  0  0  0  0  0  0  0  0  0  0
    4.7920   -0.2505    0.0000 C   0  0  0  0  0  0  0  0  0  0  0  0
    7.3780    2.0762    0.0000 C   0  0  2  0  0  0  0  0  0  0  0  0
    5.7480    2.8146    0.0000 C   0  0  0  0  0  0  0  0  0  0  0  0
    6.5278   -0.6264    0.0000 C   0  0  0  0  0  0  0  0  0  0  0  0
    6.7780    2.9202    0.0000 C   0  0  0  0  0  0  0  0  0  0  0  0
    3.4013    0.8938    0.0000 C   0  0  0  0  0  0  0  0  0  0  0  0
    4.5598   -1.2659    0.0000 C   0  0  0  0  0  0  0  0  0  0  0  0
    6.3191   -1.6470    0.0000 C   0  0  0  0  0  0  0  0  0  0  0  0
    5.3284   -1.9688    0.0000 C   0  0  0  0  0  0  0  0  0  0  0  0
    2.9945   -0.0197    0.0000 C   0  0  0  0  0  0  0  0  0  0  0  0
    2.0000   -0.1243    0.0000 C   0  0  0  0  0  0  0  0  0  0  0  0
    5.3742    2.4883    0.0000 H   0  0  0  0  0  0  0  0  0  0  0  0
    3.4743    1.5631    0.0000 H   0  0  0  0  0  0  0  0  0  0  0  0
    7.7398    1.1305    0.0000 H   0  0  0  0  0  0  0  0  0  0  0  0
    5.6791    0.1094    0.0000 H   0  0  0  0  0  0  0  0  0  0  0  0
    5.3029    1.2347    0.0000 H   0  0  0  0  0  0  0  0  0  0  0  0
    3.4740    0.6509    0.0000 H   0  0  0  0  0  0  0  0  0  0  0  0
    3.7203   -0.1071    0.0000 H   0  0  0  0  0  0  0  0  0  0  0  0
    4.4295    0.0394    0.0000 H   0  0  0  0  0  0  0  0  0  0  0  0
    5.2411   -0.1331    0.0000 H   0  0  0  0  0  0  0  0  0  0  0  0
    7.6371    2.6395    0.0000 H   0  0  0  0  0  0  0  0  0  0  0  0
    5.3929    3.3228    0.0000 H   0  0  0  0  0  0  0  0  0  0  0  0
    7.0339    3.4849    0.0000 H   0  0  0  0  0  0  0  0  0  0  0  0
    3.4445    1.5123    0.0000 H   0  0  0  0  0  0  0  0  0  0  0  0
    2.7997    1.0438    0.0000 H   0  0  0  0  0  0  0  0  0  0  0  0
    3.9679   -1.4507    0.0000 H   0  0  0  0  0  0  0  0  0  0  0  0
    5.1972   -2.5748    0.0000 H   0  0  0  0  0  0  0  0  0  0  0  0
    8.6341    2.7294    0.0000 H   0  0  0  0  0  0  0  0  0  0  0  0
    3.3589   -0.5213    0.0000 H   0  0  0  0  0  0  0  0  0  0  0  0
    6.9382   -2.9202    0.0000 H   0  0  0  0  0  0  0  0  0  0  0  0
    1.6356    0.3773    0.0000 H   0  0  0  0  0  0  0  0  0  0  0  0
    1.7478   -0.6907    0.0000 H   0  0  0  0  0  0  0  0  0  0  0  0
  1  8  1  0  0  0  0
  1 16  1  0  0  0  0
  2 14  1  0  0  0  0
  2 40  1  0  0  0  0
  3 20  1  0  0  0  0
  3 42  1  0  0  0  0
  4  7  1  0  0  0  0
  4 12  1  0  0  0  0
  4 18  1  0  0  0  0
  5  6  1  0  0  0  0
  5  8  1  0  0  0  0
  5  9  1  0  0  0  0
  5 10  1  0  0  0  0
  6  7  1  0  0  0  0
  6 15  1  0  0  0  0
  6 24  1  0  0  0  0
  7 11  1  0  0  0  0
  7 25  1  0  0  0  0
  8 14  1  0  0  0  0
  8 26  1  0  0  0  0
  9 12  1  0  0  0  0
  9 27  1  0  0  0  0
  9 28  1  0  0  0  0
 10 13  2  0  0  0  0
 10 16  1  0  0  0  0
 11 13  1  0  0  0  0
 11 29  1  0  0  0  0
 11 30  1  0  0  0  0
 12 31  1  0  0  0  0
 12 32  1  0  0  0  0
 13 19  1  0  0  0  0
 14 17  1  0  0  0  0
 14 33  1  0  0  0  0
 15 17  2  0  0  0  0
 15 34  1  0  0  0  0
 16 20  2  0  0  0  0
 17 35  1  0  0  0  0
 18 22  1  0  0  0  0
 18 36  1  0  0  0  0
 18 37  1  0  0  0  0
 19 21  2  0  0  0  0
 19 38  1  0  0  0  0
 20 21  1  0  0  0  0
 21 39  1  0  0  0  0
 22 23  2  0  0  0  0
 22 41  1  0  0  0  0
 23 43  1  0  0  0  0
 23 44  1  0  0  0  0
M  END
> <PUBCHEM_COMPOUND_CID>
6122

> <PUBCHEM_COMPOUND_CANONICALIZED>
1

> <PUBCHEM_CACTVS_COMPLEXITY>
549

> <PUBCHEM_CACTVS_HBOND_ACCEPTOR>
4

> <PUBCHEM_CACTVS_HBOND_DONOR>
2

> <PUBCHEM_CACTVS_ROTATABLE_BOND>
2

> <PUBCHEM_CACTVS_SUBSKEYS>
AAADceB6MAAAAAAAAAAAAAAAAAAAASAAAAA8YIEAAAAWAEjBAAAAHgAACAAADzzhmAYwBoMABgCAAiBCAACCCAAgIAAIiAAOiIgNNiKGsRuGeCOkwBGLuAew8PcPoAABAAAYQADQAAaAADSAAAAAAAAAAA==

> <PUBCHEM_IUPAC_OPENEYE_NAME>
(4S,4aR,7S,7aR,12bS)-3-allyl-2,4,4a,7,7a,13-hexahydro-1H-4,12-methanobenzofuro[3,2-e]isoquinoline-7,9-diol

> <PUBCHEM_IUPAC_CAS_NAME>
(4S,4aR,7S,7aR,12bS)-3-prop-2-enyl-2,4,4a,7,7a,13-hexahydro-1H-4,12-methanobenzofuro[3,2-e]isoquinoline-7,9-diol

> <PUBCHEM_IUPAC_NAME>
(4S,4aR,7S,7aR,12bS)-3-prop-2-enyl-2,4,4a,7,7a,13-hexahydro-1H-4,12-methanobenzofuro[3,2-e]isoquinoline-7,9-diol

> <PUBCHEM_IUPAC_SYSTEMATIC_NAME>
(4S,4aR,7S,7aR,12bS)-3-prop-2-enyl-2,4,4a,7,7a,13-hexahydro-1H-4,12-methanobenzofuro[3,2-e]isoquinoline-7,9-diol

> <PUBCHEM_IUPAC_TRADITIONAL_NAME>
(4S,4aR,7S,7aR,12bS)-3-allyl-2,4,4a,7,7a,13-hexahydro-1H-4,12-methanobenzofuro[3,2-e]isoquinoline-7,9-diol

> <PUBCHEM_IUPAC_INCHI>
InChI=1S/C19H21NO3/c1-2-8-20-9-7-19-12-4-6-15(22)18(19)23-17-14(21)5-3-11(16(17)19)10-13(12)20/h2-6,12-13,15,18,21-22H,1,7-10H2/t12-,13-,15-,18-,19-/m0/s1

> <PUBCHEM_IUPAC_INCHIKEY>
UIQMVEYFGZJHCZ-QBQAKCNGSA-N

> <PUBCHEM_XLOGP3>
1.9

> <PUBCHEM_EXACT_MASS>
311.152144

> <PUBCHEM_MOLECULAR_FORMULA>
C19H21NO3

> <PUBCHEM_MOLECULAR_WEIGHT>
311.37494

> <PUBCHEM_OPENEYE_CAN_SMILES>
C=CCN1CCC23C4C1CC5=C2C(=C(C=C5)O)OC3C(C=C4)O

> <PUBCHEM_OPENEYE_ISO_SMILES>
C=CCN1CC[C@]23[C@@H]4[C@@H]1CC5=C2C(=C(C=C5)O)O[C@H]3[C@H](C=C4)O

> <PUBCHEM_CACTVS_TPSA>
52.9

> <PUBCHEM_MONOISOTOPIC_WEIGHT>
311.152144

> <PUBCHEM_TOTAL_CHARGE>
0

> <PUBCHEM_HEAVY_ATOM_COUNT>
23

> <PUBCHEM_ATOM_DEF_STEREO_COUNT>
5

> <PUBCHEM_ATOM_UDEF_STEREO_COUNT>
0

> <PUBCHEM_BOND_DEF_STEREO_COUNT>
0

> <PUBCHEM_BOND_UDEF_STEREO_COUNT>
0

> <PUBCHEM_ISOTOPIC_ATOM_COUNT>
0

> <PUBCHEM_COMPONENT_COUNT>
1

> <PUBCHEM_CACTVS_TAUTO_COUNT>
3

> <PUBCHEM_COORDINATE_TYPE>
1
5
255

> <PUBCHEM_BONDANNOTATIONS>
10  13  8
10  16  8
13  19  8
16  20  8
19  21  8
14  2  3
20  21  8
5  9  3
6  24  3
7  25  3
8  26  3

$$$$

