12596
  -OEChem-06261207082D

 33 36  0     0  0  0  0  0  0999 V2000
    4.6660    0.0984    0.0000 C   0  0  0  0  0  0  0  0  0  0  0  0
    3.8000    0.5984    0.0000 C   0  0  0  0  0  0  0  0  0  0  0  0
    5.5321    0.5984    0.0000 C   0  0  0  0  0  0  0  0  0  0  0  0
    4.6500   -0.9431    0.0000 C   0  0  0  0  0  0  0  0  0  0  0  0
    3.8000    1.5984    0.0000 C   0  0  0  0  0  0  0  0  0  0  0  0
    4.6660    2.0984    0.0000 C   0  0  0  0  0  0  0  0  0  0  0  0
    5.5480   -1.4709    0.0000 C   0  0  0  0  0  0  0  0  0  0  0  0
    5.5321    1.5984    0.0000 C   0  0  0  0  0  0  0  0  0  0  0  0
    6.4421    0.0915    0.0000 C   0  0  0  0  0  0  0  0  0  0  0  0
    6.4501   -0.9501    0.0000 C   0  0  0  0  0  0  0  0  0  0  0  0
    2.9061    0.0637    0.0000 C   0  0  0  0  0  0  0  0  0  0  0  0
    2.9061    2.1330    0.0000 C   0  0  0  0  0  0  0  0  0  0  0  0
    3.6980   -1.4638    0.0000 C   0  0  0  0  0  0  0  0  0  0  0  0
    4.6660    3.0984    0.0000 C   0  0  0  0  0  0  0  0  0  0  0  0
    5.5564   -2.5559    0.0000 C   0  0  0  0  0  0  0  0  0  0  0  0
    2.0000    0.5775    0.0000 C   0  0  0  0  0  0  0  0  0  0  0  0
    2.0000    1.6192    0.0000 C   0  0  0  0  0  0  0  0  0  0  0  0
    3.6813   -2.5486    0.0000 C   0  0  0  0  0  0  0  0  0  0  0  0
    4.6167   -3.0984    0.0000 C   0  0  0  0  0  0  0  0  0  0  0  0
    6.0690    1.9084    0.0000 H   0  0  0  0  0  0  0  0  0  0  0  0
    6.9754    0.4077    0.0000 H   0  0  0  0  0  0  0  0  0  0  0  0
    6.9882   -1.2580    0.0000 H   0  0  0  0  0  0  0  0  0  0  0  0
    2.9132   -0.5563    0.0000 H   0  0  0  0  0  0  0  0  0  0  0  0
    2.9132    2.7530    0.0000 H   0  0  0  0  0  0  0  0  0  0  0  0
    3.1672   -1.1435    0.0000 H   0  0  0  0  0  0  0  0  0  0  0  0
    5.2860    3.0984    0.0000 H   0  0  0  0  0  0  0  0  0  0  0  0
    4.6660    3.7184    0.0000 H   0  0  0  0  0  0  0  0  0  0  0  0
    4.0460    3.0984    0.0000 H   0  0  0  0  0  0  0  0  0  0  0  0
    6.0945   -2.8638    0.0000 H   0  0  0  0  0  0  0  0  0  0  0  0
    1.4643    0.2655    0.0000 H   0  0  0  0  0  0  0  0  0  0  0  0
    1.4643    1.9312    0.0000 H   0  0  0  0  0  0  0  0  0  0  0  0
    3.1408   -2.8524    0.0000 H   0  0  0  0  0  0  0  0  0  0  0  0
    4.6144   -3.7184    0.0000 H   0  0  0  0  0  0  0  0  0  0  0  0
  1  2  1  0  0  0  0
  1  3  2  0  0  0  0
  1  4  1  0  0  0  0
  2  5  1  0  0  0  0
  2 11  2  0  0  0  0
  3  8  1  0  0  0  0
  3  9  1  0  0  0  0
  4  7  1  0  0  0  0
  4 13  2  0  0  0  0
  5  6  1  0  0  0  0
  5 12  2  0  0  0  0
  6  8  2  0  0  0  0
  6 14  1  0  0  0  0
  7 10  1  0  0  0  0
  7 15  2  0  0  0  0
  8 20  1  0  0  0  0
  9 10  2  0  0  0  0
  9 21  1  0  0  0  0
 10 22  1  0  0  0  0
 11 16  1  0  0  0  0
 11 23  1  0  0  0  0
 12 17  1  0  0  0  0
 12 24  1  0  0  0  0
 13 18  1  0  0  0  0
 13 25  1  0  0  0  0
 14 26  1  0  0  0  0
 14 27  1  0  0  0  0
 14 28  1  0  0  0  0
 15 19  1  0  0  0  0
 15 29  1  0  0  0  0
 16 17  2  0  0  0  0
 16 30  1  0  0  0  0
 17 31  1  0  0  0  0
 18 19  2  0  0  0  0
 18 32  1  0  0  0  0
 19 33  1  0  0  0  0
M  END
> <PUBCHEM_COMPOUND_CID>
12596

> <PUBCHEM_COMPOUND_CANONICALIZED>
1

> <PUBCHEM_CACTVS_COMPLEXITY>
320

> <PUBCHEM_CACTVS_HBOND_ACCEPTOR>
0

> <PUBCHEM_CACTVS_HBOND_DONOR>
0

> <PUBCHEM_CACTVS_ROTATABLE_BOND>
0

> <PUBCHEM_CACTVS_SUBSKEYS>
AAADccB4AAAAAAAAAAAAAAAAAAAAAAAAAAAwYMGAAAAAAADBVAAAGAAAAAAADACAGAAyAMAAAACAAiBCAAACAAAgAAAIiAAAAIgIICKAERCAIAAggAAIiAcAgMAOwAACAAAQAACAAAQAACAAAAAAAAAAAA==

> <PUBCHEM_IUPAC_OPENEYE_NAME>
5-methylbenzo[c]phenanthrene

> <PUBCHEM_IUPAC_CAS_NAME>
5-methylbenzo[c]phenanthrene

> <PUBCHEM_IUPAC_NAME>
5-methylbenzo[c]phenanthrene

> <PUBCHEM_IUPAC_SYSTEMATIC_NAME>
5-methylbenzo[c]phenanthrene

> <PUBCHEM_IUPAC_TRADITIONAL_NAME>
5-methylbenzo[c]phenanthrene

> <PUBCHEM_IUPAC_INCHI>
InChI=1S/C19H14/c1-13-12-15-11-10-14-6-2-3-8-17(14)19(15)18-9-5-4-7-16(13)18/h2-12H,1H3

> <PUBCHEM_IUPAC_INCHIKEY>
PSEUAMGCKSRKQL-UHFFFAOYSA-N

> <PUBCHEM_XLOGP3>
6.6

> <PUBCHEM_EXACT_MASS>
242.10955

> <PUBCHEM_MOLECULAR_FORMULA>
C19H14

> <PUBCHEM_MOLECULAR_WEIGHT>
242.31446

> <PUBCHEM_OPENEYE_CAN_SMILES>
CC1=CC2=C(C3=CC=CC=C3C=C2)C4=CC=CC=C14

> <PUBCHEM_OPENEYE_ISO_SMILES>
CC1=CC2=C(C3=CC=CC=C3C=C2)C4=CC=CC=C14

> <PUBCHEM_CACTVS_TPSA>
0

> <PUBCHEM_MONOISOTOPIC_WEIGHT>
242.10955

> <PUBCHEM_TOTAL_CHARGE>
0

> <PUBCHEM_HEAVY_ATOM_COUNT>
19

> <PUBCHEM_ATOM_DEF_STEREO_COUNT>
0

> <PUBCHEM_ATOM_UDEF_STEREO_COUNT>
0

> <PUBCHEM_BOND_DEF_STEREO_COUNT>
0

> <PUBCHEM_BOND_UDEF_STEREO_COUNT>
0

> <PUBCHEM_ISOTOPIC_ATOM_COUNT>
0

> <PUBCHEM_COMPONENT_COUNT>
1

> <PUBCHEM_CACTVS_TAUTO_COUNT>
1

> <PUBCHEM_COORDINATE_TYPE>
1
5
255

> <PUBCHEM_BONDANNOTATIONS>
1  2  8
1  3  8
1  4  8
11  16  8
12  17  8
13  18  8
15  19  8
16  17  8
18  19  8
2  11  8
2  5  8
3  8  8
3  9  8
4  13  8
4  7  8
5  12  8
5  6  8
6  8  8
7  10  8
7  15  8
9  10  8

$$$$

