10867
  -OEChem-06261205033D

 29 30  0     0  0  0  0  0  0999 V2000
    0.0069    0.0000    0.0668 S   0  0  0  0  0  0  0  0  0  0  0  0
   -1.3720   -0.0001   -1.1191 C   0  0  0  0  0  0  0  0  0  0  0  0
    1.3695    0.0000   -1.1198 C   0  0  0  0  0  0  0  0  0  0  0  0
   -2.7035   -0.0001   -0.4473 C   0  0  0  0  0  0  0  0  0  0  0  0
    2.7121    0.0001   -0.4422 C   0  0  0  0  0  0  0  0  0  0  0  0
   -3.3263    1.2079   -0.1331 C   0  0  0  0  0  0  0  0  0  0  0  0
    3.3237   -1.2080   -0.1336 C   0  0  0  0  0  0  0  0  0  0  0  0
   -3.3265   -1.2081   -0.1334 C   0  0  0  0  0  0  0  0  0  0  0  0
    3.3241    1.2081   -0.1340 C   0  0  0  0  0  0  0  0  0  0  0  0
   -4.5716    1.2080    0.4950 C   0  0  0  0  0  0  0  0  0  0  0  0
    4.5690   -1.2080    0.4947 C   0  0  0  0  0  0  0  0  0  0  0  0
   -4.5721   -1.2079    0.4946 C   0  0  0  0  0  0  0  0  0  0  0  0
    4.5695    1.2079    0.4942 C   0  0  0  0  0  0  0  0  0  0  0  0
   -5.1946    0.0003    0.8088 C   0  0  0  0  0  0  0  0  0  0  0  0
    5.1919   -0.0002    0.8085 C   0  0  0  0  0  0  0  0  0  0  0  0
   -1.2828   -0.8790   -1.7683 H   0  0  0  0  0  0  0  0  0  0  0  0
   -1.2828    0.8788   -1.7684 H   0  0  0  0  0  0  0  0  0  0  0  0
    1.2845    0.8792   -1.7692 H   0  0  0  0  0  0  0  0  0  0  0  0
    1.2846   -0.8792   -1.7691 H   0  0  0  0  0  0  0  0  0  0  0  0
   -2.8516    2.1562   -0.3712 H   0  0  0  0  0  0  0  0  0  0  0  0
    2.8475   -2.1548   -0.3726 H   0  0  0  0  0  0  0  0  0  0  0  0
   -2.8521   -2.1565   -0.3717 H   0  0  0  0  0  0  0  0  0  0  0  0
    2.8481    2.1550   -0.3733 H   0  0  0  0  0  0  0  0  0  0  0  0
   -5.0563    2.1486    0.7400 H   0  0  0  0  0  0  0  0  0  0  0  0
    5.0537   -2.1486    0.7397 H   0  0  0  0  0  0  0  0  0  0  0  0
   -5.0572   -2.1483    0.7393 H   0  0  0  0  0  0  0  0  0  0  0  0
    5.0545    2.1483    0.7390 H   0  0  0  0  0  0  0  0  0  0  0  0
   -6.1643    0.0004    1.2979 H   0  0  0  0  0  0  0  0  0  0  0  0
    6.1616   -0.0003    1.2977 H   0  0  0  0  0  0  0  0  0  0  0  0
  1  2  1  0  0  0  0
  1  3  1  0  0  0  0
  2  4  1  0  0  0  0
  2 16  1  0  0  0  0
  2 17  1  0  0  0  0
  3  5  1  0  0  0  0
  3 18  1  0  0  0  0
  3 19  1  0  0  0  0
  4  6  2  0  0  0  0
  4  8  1  0  0  0  0
  5  7  2  0  0  0  0
  5  9  1  0  0  0  0
  6 10  1  0  0  0  0
  6 20  1  0  0  0  0
  7 11  1  0  0  0  0
  7 21  1  0  0  0  0
  8 12  2  0  0  0  0
  8 22  1  0  0  0  0
  9 13  2  0  0  0  0
  9 23  1  0  0  0  0
 10 14  2  0  0  0  0
 10 24  1  0  0  0  0
 11 15  2  0  0  0  0
 11 25  1  0  0  0  0
 12 14  1  0  0  0  0
 12 26  1  0  0  0  0
 13 15  1  0  0  0  0
 13 27  1  0  0  0  0
 14 28  1  0  0  0  0
 15 29  1  0  0  0  0
M  END
> <PUBCHEM_COMPOUND_CID>
10867

> <PUBCHEM_CONFORMER_RMSD>
0.6

> <PUBCHEM_CONFORMER_DIVERSEORDER>
1
6
8
10
7
5
9
4
2
3

> <PUBCHEM_MMFF94_PARTIAL_CHARGES>
25
1 -0.46
10 -0.15
11 -0.15
12 -0.15
13 -0.15
14 -0.15
15 -0.15
2 0.37
20 0.15
21 0.15
22 0.15
23 0.15
24 0.15
25 0.15
26 0.15
27 0.15
28 0.15
29 0.15
3 0.37
4 -0.14
5 -0.14
6 -0.15
7 -0.15
8 -0.15
9 -0.15

> <PUBCHEM_EFFECTIVE_ROTOR_COUNT>
4

> <PUBCHEM_PHARMACOPHORE_FEATURES>
2
6 4 6 8 10 12 14 rings
6 5 7 9 11 13 15 rings

> <PUBCHEM_HEAVY_ATOM_COUNT>
15

> <PUBCHEM_ATOM_DEF_STEREO_COUNT>
0

> <PUBCHEM_ATOM_UDEF_STEREO_COUNT>
0

> <PUBCHEM_BOND_DEF_STEREO_COUNT>
0

> <PUBCHEM_BOND_UDEF_STEREO_COUNT>
0

> <PUBCHEM_ISOTOPIC_ATOM_COUNT>
0

> <PUBCHEM_COMPONENT_COUNT>
1

> <PUBCHEM_CACTVS_TAUTO_COUNT>
1

> <PUBCHEM_CONFORMER_ID>
00002A7300000001

> <PUBCHEM_MMFF94_ENERGY>
36.7332

> <PUBCHEM_FEATURE_SELFOVERLAP>
10.149

> <PUBCHEM_SHAPE_FINGERPRINT>
10014705 185 13840270290607277527
10354089 29 18333732403832643104
11089746 13 5473136319770803414
12107183 9 17762055849263504475
12596602 18 18410573980861772281
13167823 11 18342740719140759634
13668630 136 14189571953059355528
13675066 3 18410575110432883046
14123238 8 18410856546754887765
1420 369 16917068866847495258
14252887 29 17632581569698660278
14341114 176 18410006646005444260
14528608 73 7925625609722292394
15188451 53 17917714548533406787
17834076 25 14851605483433786534
17844677 252 18341608235096719788
17870717 6 11312059868064973185
1813 80 16774072994572784774
18222031 100 15770056111974441295
19050596 39 18410575076110080828
200 152 13326857725315627989
20369508 70 13614239261716964198
20432913 95 17418092134959044635
204376 136 16732701653569786295
20645477 56 17095243618232814229
20871999 31 9511460018103841959
21065199 12 18410575119022817492
22289505 5 7853576803530811282
22646028 1 15769776853168979231
23402539 116 17989211443022137679
23402655 69 8646772209721755814
23559900 14 17458612441821139174
23590187 198 17775284967253327507
26918003 58 18410858771590197080
29717793 49 12463578400092796026
314173 85 16773799207624372613
351380 3 15770057232934304249
42 15 18272368685017854582
4214541 1 18412263956283223837
465052 167 14261342570441500720
49783359 22 18202567267602884139
4990 188 9727637219765522188
5104073 3 18410575088958047008
5374978 207 18186801396279054064
542803 24 17240201032072946058
5924683 9 18261959531756698103
77779 3 18410573985156725917
960060 61 8430319060827827888

> <PUBCHEM_SHAPE_MULTIPOLES>
312.54
13.8
1.39
0.97
0.04
0
-0.1
0
4.49
0
0.14
0
0
0

> <PUBCHEM_SHAPE_SELFOVERLAP>
644.094

> <PUBCHEM_SHAPE_VOLUME>
179.3

> <PUBCHEM_COORDINATE_TYPE>
2
5
10

$$$$

