13739
  -OEChem-06241222402D

 32 32  0     0  0  0  0  0  0999 V2000
    5.1350    2.5000    0.0000 O   0  0  0  0  0  0  0  0  0  0  0  0
    3.4030   -2.5000    0.0000 O   0  0  0  0  0  0  0  0  0  0  0  0
    3.4030    2.5000    0.0000 O   0  0  0  0  0  0  0  0  0  0  0  0
    5.1350   -2.5000    0.0000 O   0  0  0  0  0  0  0  0  0  0  0  0
    6.0010    5.0000    0.0000 O   0  0  0  0  0  0  0  0  0  0  0  0
    2.5369   -5.0000    0.0000 O   0  0  0  0  0  0  0  0  0  0  0  0
    4.2690    1.0000    0.0000 C   0  0  0  0  0  0  0  0  0  0  0  0
    4.2690   -1.0000    0.0000 C   0  0  0  0  0  0  0  0  0  0  0  0
    3.4030    0.5000    0.0000 C   0  0  0  0  0  0  0  0  0  0  0  0
    3.4030   -0.5000    0.0000 C   0  0  0  0  0  0  0  0  0  0  0  0
    5.1350    0.5000    0.0000 C   0  0  0  0  0  0  0  0  0  0  0  0
    5.1350   -0.5000    0.0000 C   0  0  0  0  0  0  0  0  0  0  0  0
    4.2690    2.0000    0.0000 C   0  0  0  0  0  0  0  0  0  0  0  0
    4.2690   -2.0000    0.0000 C   0  0  0  0  0  0  0  0  0  0  0  0
    5.1350    3.5000    0.0000 C   0  0  0  0  0  0  0  0  0  0  0  0
    3.4030   -3.5000    0.0000 C   0  0  0  0  0  0  0  0  0  0  0  0
    6.0010    4.0000    0.0000 C   0  0  0  0  0  0  0  0  0  0  0  0
    2.5369   -4.0000    0.0000 C   0  0  0  0  0  0  0  0  0  0  0  0
    2.8660    0.8100    0.0000 H   0  0  0  0  0  0  0  0  0  0  0  0
    2.8660   -0.8100    0.0000 H   0  0  0  0  0  0  0  0  0  0  0  0
    5.6720    0.8100    0.0000 H   0  0  0  0  0  0  0  0  0  0  0  0
    5.6720   -0.8100    0.0000 H   0  0  0  0  0  0  0  0  0  0  0  0
    4.9230    4.0826    0.0000 H   0  0  0  0  0  0  0  0  0  0  0  0
    4.5244    3.3923    0.0000 H   0  0  0  0  0  0  0  0  0  0  0  0
    3.6150   -4.0826    0.0000 H   0  0  0  0  0  0  0  0  0  0  0  0
    4.0135   -3.3923    0.0000 H   0  0  0  0  0  0  0  0  0  0  0  0
    6.2131    3.4174    0.0000 H   0  0  0  0  0  0  0  0  0  0  0  0
    6.6116    4.1077    0.0000 H   0  0  0  0  0  0  0  0  0  0  0  0
    2.3249   -3.4174    0.0000 H   0  0  0  0  0  0  0  0  0  0  0  0
    1.9264   -4.1077    0.0000 H   0  0  0  0  0  0  0  0  0  0  0  0
    6.5380    5.3100    0.0000 H   0  0  0  0  0  0  0  0  0  0  0  0
    2.0000   -5.3100    0.0000 H   0  0  0  0  0  0  0  0  0  0  0  0
  1 13  1  0  0  0  0
  1 15  1  0  0  0  0
  2 14  1  0  0  0  0
  2 16  1  0  0  0  0
  3 13  2  0  0  0  0
  4 14  2  0  0  0  0
  5 17  1  0  0  0  0
  5 31  1  0  0  0  0
  6 18  1  0  0  0  0
  6 32  1  0  0  0  0
  7  9  2  0  0  0  0
  7 11  1  0  0  0  0
  7 13  1  0  0  0  0
  8 10  2  0  0  0  0
  8 12  1  0  0  0  0
  8 14  1  0  0  0  0
  9 10  1  0  0  0  0
  9 19  1  0  0  0  0
 10 20  1  0  0  0  0
 11 12  2  0  0  0  0
 11 21  1  0  0  0  0
 12 22  1  0  0  0  0
 15 17  1  0  0  0  0
 15 23  1  0  0  0  0
 15 24  1  0  0  0  0
 16 18  1  0  0  0  0
 16 25  1  0  0  0  0
 16 26  1  0  0  0  0
 17 27  1  0  0  0  0
 17 28  1  0  0  0  0
 18 29  1  0  0  0  0
 18 30  1  0  0  0  0
M  END
> <PUBCHEM_COMPOUND_CID>
13739

> <PUBCHEM_COMPOUND_CANONICALIZED>
1

> <PUBCHEM_CACTVS_COMPLEXITY>
242

> <PUBCHEM_CACTVS_HBOND_ACCEPTOR>
6

> <PUBCHEM_CACTVS_HBOND_DONOR>
2

> <PUBCHEM_CACTVS_ROTATABLE_BOND>
8

> <PUBCHEM_CACTVS_SUBSKEYS>
AAADccBwOAAAAAAAAAAAAAAAAAAAAAAAAAAwAAAAAAAAAAABAAAAGgAACAAADACgmAIwCIAABgCIAiDSCAACAAAkAAAIiAEACMgJNjKANRiCMQAkwAELqYeIyDCOQAAAAAAAAACAAAAAAAAAAAAAAAAAAA==

> <PUBCHEM_IUPAC_OPENEYE_NAME>
bis(2-hydroxyethyl) benzene-1,4-dicarboxylate

> <PUBCHEM_IUPAC_CAS_NAME>
benzene-1,4-dicarboxylic acid bis(2-hydroxyethyl) ester

> <PUBCHEM_IUPAC_NAME>
bis(2-hydroxyethyl) benzene-1,4-dicarboxylate

> <PUBCHEM_IUPAC_SYSTEMATIC_NAME>
bis(2-hydroxyethyl) benzene-1,4-dicarboxylate

> <PUBCHEM_IUPAC_TRADITIONAL_NAME>
benzene-1,4-dicarboxylic acid bis(2-hydroxyethyl) ester

> <PUBCHEM_IUPAC_INCHI>
InChI=1S/C12H14O6/c13-5-7-17-11(15)9-1-2-10(4-3-9)12(16)18-8-6-14/h1-4,13-14H,5-8H2

> <PUBCHEM_IUPAC_INCHIKEY>
QPKOBORKPHRBPS-UHFFFAOYSA-N

> <PUBCHEM_XLOGP3>
1.7

> <PUBCHEM_EXACT_MASS>
254.079038

> <PUBCHEM_MOLECULAR_FORMULA>
C12H14O6

> <PUBCHEM_MOLECULAR_WEIGHT>
254.23596

> <PUBCHEM_OPENEYE_CAN_SMILES>
C1=CC(=CC=C1C(=O)OCCO)C(=O)OCCO

> <PUBCHEM_OPENEYE_ISO_SMILES>
C1=CC(=CC=C1C(=O)OCCO)C(=O)OCCO

> <PUBCHEM_CACTVS_TPSA>
93.1

> <PUBCHEM_MONOISOTOPIC_WEIGHT>
254.079038

> <PUBCHEM_TOTAL_CHARGE>
0

> <PUBCHEM_HEAVY_ATOM_COUNT>
18

> <PUBCHEM_ATOM_DEF_STEREO_COUNT>
0

> <PUBCHEM_ATOM_UDEF_STEREO_COUNT>
0

> <PUBCHEM_BOND_DEF_STEREO_COUNT>
0

> <PUBCHEM_BOND_UDEF_STEREO_COUNT>
0

> <PUBCHEM_ISOTOPIC_ATOM_COUNT>
0

> <PUBCHEM_COMPONENT_COUNT>
1

> <PUBCHEM_CACTVS_TAUTO_COUNT>
1

> <PUBCHEM_COORDINATE_TYPE>
1
5
255

> <PUBCHEM_BONDANNOTATIONS>
11  12  8
7  11  8
7  9  8
8  10  8
8  12  8
9  10  8

$$$$

