10547
  -OEChem-06261204402D

 39 37  0     0  0  0  0  0  0999 V2000
    3.7510    0.0000    0.0000 I   0  5  0  0  0  0  0  0  0  0  0  0
    4.0010    4.4030    0.0000 S   0  0  0  0  0  0  0  0  0  0  0  0
    3.1350    3.9030    0.0000 P   0  0  0  0  0  0  0  0  0  0  0  0
    2.2690    3.4030    0.0000 O   0  0  0  0  0  0  0  0  0  0  0  0
    2.6350    4.7690    0.0000 O   0  0  0  0  0  0  0  0  0  0  0  0
    3.6350    3.0369    0.0000 O   0  0  0  0  0  0  0  0  0  0  0  0
    6.5991    3.9030    0.0000 N   0  3  0  0  0  0  0  0  0  0  0  0
    5.7331    4.4030    0.0000 C   0  0  0  0  0  0  0  0  0  0  0  0
    7.4651    3.4030    0.0000 C   0  0  0  0  0  0  0  0  0  0  0  0
    7.0991    4.7690    0.0000 C   0  0  0  0  0  0  0  0  0  0  0  0
    6.0991    3.0369    0.0000 C   0  0  0  0  0  0  0  0  0  0  0  0
    4.8671    3.9030    0.0000 C   0  0  0  0  0  0  0  0  0  0  0  0
    1.4030    3.9030    0.0000 C   0  0  0  0  0  0  0  0  0  0  0  0
    3.1350    5.6350    0.0000 C   0  0  0  0  0  0  0  0  0  0  0  0
    0.5369    3.4030    0.0000 C   0  0  0  0  0  0  0  0  0  0  0  0
    2.6350    6.5010    0.0000 C   0  0  0  0  0  0  0  0  0  0  0  0
    6.1316    4.8779    0.0000 H   0  0  0  0  0  0  0  0  0  0  0  0
    5.3346    4.8779    0.0000 H   0  0  0  0  0  0  0  0  0  0  0  0
    7.1551    2.8660    0.0000 H   0  0  0  0  0  0  0  0  0  0  0  0
    8.0021    3.0930    0.0000 H   0  0  0  0  0  0  0  0  0  0  0  0
    7.7751    3.9399    0.0000 H   0  0  0  0  0  0  0  0  0  0  0  0
    7.6360    4.4590    0.0000 H   0  0  0  0  0  0  0  0  0  0  0  0
    7.4091    5.3059    0.0000 H   0  0  0  0  0  0  0  0  0  0  0  0
    6.5622    5.0790    0.0000 H   0  0  0  0  0  0  0  0  0  0  0  0
    5.5622    3.3469    0.0000 H   0  0  0  0  0  0  0  0  0  0  0  0
    5.7891    2.5000    0.0000 H   0  0  0  0  0  0  0  0  0  0  0  0
    6.6360    2.7269    0.0000 H   0  0  0  0  0  0  0  0  0  0  0  0
    4.4685    3.4280    0.0000 H   0  0  0  0  0  0  0  0  0  0  0  0
    5.2656    3.4280    0.0000 H   0  0  0  0  0  0  0  0  0  0  0  0
    3.6100    5.2365    0.0000 H   0  0  0  0  0  0  0  0  0  0  0  0
    3.6100    6.0335    0.0000 H   0  0  0  0  0  0  0  0  0  0  0  0
    1.8015    4.3779    0.0000 H   0  0  0  0  0  0  0  0  0  0  0  0
    1.0044    4.3779    0.0000 H   0  0  0  0  0  0  0  0  0  0  0  0
    0.2269    3.9399    0.0000 H   0  0  0  0  0  0  0  0  0  0  0  0
    0.0000    3.0930    0.0000 H   0  0  0  0  0  0  0  0  0  0  0  0
    0.8469    2.8660    0.0000 H   0  0  0  0  0  0  0  0  0  0  0  0
    3.1720    6.8110    0.0000 H   0  0  0  0  0  0  0  0  0  0  0  0
    2.3250    7.0380    0.0000 H   0  0  0  0  0  0  0  0  0  0  0  0
    2.0981    6.1910    0.0000 H   0  0  0  0  0  0  0  0  0  0  0  0
  2  3  1  0  0  0  0
  2 12  1  0  0  0  0
  3  4  1  0  0  0  0
  3  5  1  0  0  0  0
  3  6  2  0  0  0  0
  4 13  1  0  0  0  0
  5 14  1  0  0  0  0
  7  8  1  0  0  0  0
  7  9  1  0  0  0  0
  7 10  1  0  0  0  0
  7 11  1  0  0  0  0
  8 12  1  0  0  0  0
  8 17  1  0  0  0  0
  8 18  1  0  0  0  0
  9 19  1  0  0  0  0
  9 20  1  0  0  0  0
  9 21  1  0  0  0  0
 10 22  1  0  0  0  0
 10 23  1  0  0  0  0
 10 24  1  0  0  0  0
 11 25  1  0  0  0  0
 11 26  1  0  0  0  0
 11 27  1  0  0  0  0
 12 28  1  0  0  0  0
 12 29  1  0  0  0  0
 13 15  1  0  0  0  0
 13 32  1  0  0  0  0
 13 33  1  0  0  0  0
 14 16  1  0  0  0  0
 14 30  1  0  0  0  0
 14 31  1  0  0  0  0
 15 34  1  0  0  0  0
 15 35  1  0  0  0  0
 15 36  1  0  0  0  0
 16 37  1  0  0  0  0
 16 38  1  0  0  0  0
 16 39  1  0  0  0  0
M  CHG  2   1  -1   7   1
M  END
> <PUBCHEM_COMPOUND_CID>
10547

> <PUBCHEM_COMPOUND_CANONICALIZED>
1

> <PUBCHEM_CACTVS_COMPLEXITY>
208

> <PUBCHEM_CACTVS_HBOND_ACCEPTOR>
5

> <PUBCHEM_CACTVS_HBOND_DONOR>
0

> <PUBCHEM_CACTVS_ROTATABLE_BOND>
8

> <PUBCHEM_CACTVS_SUBSKEYS>
AAADceByMAJAAgAAAAAAAAAAAAAAAAAAAAAAAAAAAAAAAAAAAAAAHgQAACAAAADlwAaCAAMAARAAQAAAAIAAAAAAAAAAAAAIAAAAAAAAAAAAAAAAAAAAAAAAAAAAAAAAAAAAAAAAAAAAAAAAAAAAAAAAAA==

> <PUBCHEM_IUPAC_OPENEYE_NAME>
2-diethoxyphosphorylsulfanylethyl(trimethyl)ammonium iodide

> <PUBCHEM_IUPAC_CAS_NAME>
2-(diethoxyphosphorylthio)ethyl-trimethylammonium iodide

> <PUBCHEM_IUPAC_NAME>
2-diethoxyphosphorylsulfanylethyl(trimethyl)azanium iodide

> <PUBCHEM_IUPAC_SYSTEMATIC_NAME>
2-diethoxyphosphorylsulfanylethyl(trimethyl)azanium iodide

> <PUBCHEM_IUPAC_TRADITIONAL_NAME>
2-(diethoxyphosphorylthio)ethyl-trimethyl-ammonium iodide

> <PUBCHEM_IUPAC_INCHI>
InChI=1S/C9H23NO3PS.HI/c1-6-12-14(11,13-7-2)15-9-8-10(3,4)5;/h6-9H2,1-5H3;1H/q+1;/p-1

> <PUBCHEM_IUPAC_INCHIKEY>
OVXQHPWHMXOFRD-UHFFFAOYSA-M

> <PUBCHEM_EXACT_MASS>
383.018099

> <PUBCHEM_MOLECULAR_FORMULA>
C9H23INO3PS

> <PUBCHEM_MOLECULAR_WEIGHT>
383.227052

> <PUBCHEM_OPENEYE_CAN_SMILES>
CCOP(=O)(OCC)SCC[N+](C)(C)C.[I-]

> <PUBCHEM_OPENEYE_ISO_SMILES>
CCOP(=O)(OCC)SCC[N+](C)(C)C.[I-]

> <PUBCHEM_CACTVS_TPSA>
60.8

> <PUBCHEM_MONOISOTOPIC_WEIGHT>
383.018099

> <PUBCHEM_TOTAL_CHARGE>
0

> <PUBCHEM_HEAVY_ATOM_COUNT>
16

> <PUBCHEM_ATOM_DEF_STEREO_COUNT>
0

> <PUBCHEM_ATOM_UDEF_STEREO_COUNT>
0

> <PUBCHEM_BOND_DEF_STEREO_COUNT>
0

> <PUBCHEM_BOND_UDEF_STEREO_COUNT>
0

> <PUBCHEM_ISOTOPIC_ATOM_COUNT>
0

> <PUBCHEM_COMPONENT_COUNT>
2

> <PUBCHEM_CACTVS_TAUTO_COUNT>
1

> <PUBCHEM_COORDINATE_TYPE>
1
5
255

$$$$

