7396
  -OEChem-06261202033D

 15 15  0     0  0  0  0  0  0999 V2000
    4.2562    0.0039    0.1202 Br  0  0  0  0  0  0  0  0  0  0  0  0
   -2.7025    0.0052    1.7768 Cl  0  0  0  0  0  0  0  0  0  0  0  0
   -2.1611   -0.0020   -0.1974 S   0  0  0  0  0  0  0  0  0  0  0  0
   -2.6090   -1.2740   -0.7333 O   0  0  0  0  0  0  0  0  0  0  0  0
   -2.6361    1.2649   -0.7225 O   0  0  0  0  0  0  0  0  0  0  0  0
   -0.4179   -0.0005   -0.1085 C   0  0  0  0  0  0  0  0  0  0  0  0
    0.2793   -1.2081   -0.0683 C   0  0  0  0  0  0  0  0  0  0  0  0
    0.2784    1.2079   -0.0809 C   0  0  0  0  0  0  0  0  0  0  0  0
    1.6725   -1.2072   -0.0004 C   0  0  0  0  0  0  0  0  0  0  0  0
    1.6716    1.2087   -0.0130 C   0  0  0  0  0  0  0  0  0  0  0  0
    2.3686    0.0012    0.0273 C   0  0  0  0  0  0  0  0  0  0  0  0
   -0.2426   -2.1607   -0.0831 H   0  0  0  0  0  0  0  0  0  0  0  0
   -0.2449    2.1596   -0.1065 H   0  0  0  0  0  0  0  0  0  0  0  0
    2.2006   -2.1567    0.0318 H   0  0  0  0  0  0  0  0  0  0  0  0
    2.1988    2.1590    0.0090 H   0  0  0  0  0  0  0  0  0  0  0  0
  1 11  1  0  0  0  0
  2  3  1  0  0  0  0
  3  4  2  0  0  0  0
  3  5  2  0  0  0  0
  3  6  1  0  0  0  0
  6  7  2  0  0  0  0
  6  8  1  0  0  0  0
  7  9  1  0  0  0  0
  7 12  1  0  0  0  0
  8 10  2  0  0  0  0
  8 13  1  0  0  0  0
  9 11  2  0  0  0  0
  9 14  1  0  0  0  0
 10 11  1  0  0  0  0
 10 15  1  0  0  0  0
M  END
> <PUBCHEM_COMPOUND_CID>
7396

> <PUBCHEM_CONFORMER_RMSD>
0.4

> <PUBCHEM_CONFORMER_DIVERSEORDER>
1

> <PUBCHEM_MMFF94_PARTIAL_CHARGES>
15
1 -0.11
10 -0.15
11 0.11
12 0.15
13 0.15
14 0.15
15 0.15
2 -0.19
3 1.49
4 -0.65
5 -0.65
6 -0.01
7 -0.15
8 -0.15
9 -0.15

> <PUBCHEM_EFFECTIVE_ROTOR_COUNT>
1

> <PUBCHEM_PHARMACOPHORE_FEATURES>
2
1 1 hydrophobe
6 6 7 8 9 10 11 rings

> <PUBCHEM_HEAVY_ATOM_COUNT>
11

> <PUBCHEM_ATOM_DEF_STEREO_COUNT>
0

> <PUBCHEM_ATOM_UDEF_STEREO_COUNT>
0

> <PUBCHEM_BOND_DEF_STEREO_COUNT>
0

> <PUBCHEM_BOND_UDEF_STEREO_COUNT>
0

> <PUBCHEM_ISOTOPIC_ATOM_COUNT>
0

> <PUBCHEM_COMPONENT_COUNT>
1

> <PUBCHEM_CACTVS_TAUTO_COUNT>
1

> <PUBCHEM_CONFORMER_ID>
00001CE400000001

> <PUBCHEM_MMFF94_ENERGY>
14.6929

> <PUBCHEM_FEATURE_SELFOVERLAP>
10.148

> <PUBCHEM_SHAPE_FINGERPRINT>
10219947 1 18411419514405116872
11132069 177 18335146405745037752
12032990 46 18411695496176918622
124424 183 17846791731698444640
12932764 1 18410571790470642144
14325111 11 18411142420189683140
15775835 57 18407758140394550493
16945 1 18410007741279886724
17844478 74 17988348321951789937
18186145 218 18040429980473480952
19026448 4 15913330169924271438
19026448 5 15864072096239272132
200 152 17968105183619290975
20201158 50 18272092724752849547
20645477 70 18265904742105517606
23402539 116 16558480733682857447
23402655 69 18193296280474318349
2748010 2 18122626329954777108
29004967 10 18272926150287495888
5084963 1 18261960630740103289
528886 8 18337684090965758132

> <PUBCHEM_SHAPE_MULTIPOLES>
226.3
5.89
1.37
1.01
2.87
0
-0.42
-0.02
-0.72
-0.1
0.2
-1
0
-0.01

> <PUBCHEM_SHAPE_SELFOVERLAP>
432.521

> <PUBCHEM_SHAPE_VOLUME>
143.5

> <PUBCHEM_COORDINATE_TYPE>
2
5
10

$$$$

