4127
  -OEChem-06251223543D

 34 35  0     1  0  0  0  0  0999 V2000
   -1.0280   -0.6226    2.0347 F   0  0  0  0  0  0  0  0  0  0  0  0
    5.1040   -0.1917   -0.2559 O   0  0  0  0  0  0  0  0  0  0  0  0
    3.2601   -1.5459    0.0107 O   0  0  0  0  0  0  0  0  0  0  0  0
    2.9918    0.8674   -0.2560 C   0  0  1  0  0  0  0  0  0  0  0  0
    1.4894    0.6392   -0.2281 C   0  0  0  0  0  0  0  0  0  0  0  0
   -1.2399    0.2245   -0.1775 C   0  0  0  0  0  0  0  0  0  0  0  0
    0.9152    0.1054    0.9085 C   0  0  0  0  0  0  0  0  0  0  0  0
    0.7415    0.9722   -1.3401 C   0  0  0  0  0  0  0  0  0  0  0  0
    3.4470    1.8625    0.8151 C   0  0  0  0  0  0  0  0  0  0  0  0
   -0.4638   -0.1042    0.9341 C   0  0  0  0  0  0  0  0  0  0  0  0
   -0.6372    0.7626   -1.3145 C   0  0  0  0  0  0  0  0  0  0  0  0
   -2.6703    0.0097   -0.1551 C   0  0  0  0  0  0  0  0  0  0  0  0
    3.7644   -0.4404   -0.1396 C   0  0  0  0  0  0  0  0  0  0  0  0
   -3.1998   -1.2069   -0.5861 C   0  0  0  0  0  0  0  0  0  0  0  0
   -3.5207    1.0186    0.2978 C   0  0  0  0  0  0  0  0  0  0  0  0
   -4.5790   -1.4144   -0.5644 C   0  0  0  0  0  0  0  0  0  0  0  0
   -4.8998    0.8110    0.3196 C   0  0  0  0  0  0  0  0  0  0  0  0
   -5.4289   -0.4056   -0.1115 C   0  0  0  0  0  0  0  0  0  0  0  0
    5.9542   -1.3413   -0.1919 C   0  0  0  0  0  0  0  0  0  0  0  0
    3.2571    1.2842   -1.2376 H   0  0  0  0  0  0  0  0  0  0  0  0
    1.5049   -0.1557    1.7819 H   0  0  0  0  0  0  0  0  0  0  0  0
    1.1989    1.3918   -2.2310 H   0  0  0  0  0  0  0  0  0  0  0  0
    4.4996    2.1340    0.6797 H   0  0  0  0  0  0  0  0  0  0  0  0
    2.8583    2.7855    0.7702 H   0  0  0  0  0  0  0  0  0  0  0  0
    3.3494    1.4472    1.8244 H   0  0  0  0  0  0  0  0  0  0  0  0
   -1.2274    1.0245   -2.1896 H   0  0  0  0  0  0  0  0  0  0  0  0
   -2.5514   -2.0041   -0.9420 H   0  0  0  0  0  0  0  0  0  0  0  0
   -3.1248    1.9729    0.6376 H   0  0  0  0  0  0  0  0  0  0  0  0
   -4.9911   -2.3616   -0.8999 H   0  0  0  0  0  0  0  0  0  0  0  0
   -5.5619    1.5964    0.6723 H   0  0  0  0  0  0  0  0  0  0  0  0
   -6.5027   -0.5672   -0.0944 H   0  0  0  0  0  0  0  0  0  0  0  0
    5.7235   -2.0289   -1.0111 H   0  0  0  0  0  0  0  0  0  0  0  0
    5.8435   -1.8405    0.7755 H   0  0  0  0  0  0  0  0  0  0  0  0
    6.9890   -1.0049   -0.2968 H   0  0  0  0  0  0  0  0  0  0  0  0
  1 10  1  0  0  0  0
  2 13  1  0  0  0  0
  2 19  1  0  0  0  0
  3 13  2  0  0  0  0
  4  5  1  0  0  0  0
  4  9  1  0  0  0  0
  4 13  1  0  0  0  0
  4 20  1  0  0  0  0
  5  7  2  0  0  0  0
  5  8  1  0  0  0  0
  6 10  2  0  0  0  0
  6 11  1  0  0  0  0
  6 12  1  0  0  0  0
  7 10  1  0  0  0  0
  7 21  1  0  0  0  0
  8 11  2  0  0  0  0
  8 22  1  0  0  0  0
  9 23  1  0  0  0  0
  9 24  1  0  0  0  0
  9 25  1  0  0  0  0
 11 26  1  0  0  0  0
 12 14  2  0  0  0  0
 12 15  1  0  0  0  0
 14 16  1  0  0  0  0
 14 27  1  0  0  0  0
 15 17  2  0  0  0  0
 15 28  1  0  0  0  0
 16 18  2  0  0  0  0
 16 29  1  0  0  0  0
 17 18  1  0  0  0  0
 17 30  1  0  0  0  0
 18 31  1  0  0  0  0
 19 32  1  0  0  0  0
 19 33  1  0  0  0  0
 19 34  1  0  0  0  0
M  END
> <PUBCHEM_COMPOUND_CID>
4127

> <PUBCHEM_CONFORMER_RMSD>
0.6

> <PUBCHEM_CONFORMER_DIVERSEORDER>
1
16
25
23
39
12
27
13
32
8
14
35
33
37
28
31
11
2
34
38
15
7
24
21
26
40
4
19
36
22
10
5
18
20
29
9
6
17
30
3

> <PUBCHEM_MMFF94_PARTIAL_CHARGES>
24
1 -0.19
10 0.19
11 -0.15
13 0.66
14 -0.15
15 -0.15
16 -0.15
17 -0.15
18 -0.15
19 0.28
2 -0.43
21 0.15
22 0.15
26 0.15
27 0.15
28 0.15
29 0.15
3 -0.57
30 0.15
31 0.15
4 0.2
5 -0.14
7 -0.15
8 -0.15

> <PUBCHEM_EFFECTIVE_ROTOR_COUNT>
4

> <PUBCHEM_PHARMACOPHORE_FEATURES>
4
1 3 acceptor
1 9 hydrophobe
6 12 14 15 16 17 18 rings
6 5 6 7 8 10 11 rings

> <PUBCHEM_HEAVY_ATOM_COUNT>
19

> <PUBCHEM_ATOM_DEF_STEREO_COUNT>
0

> <PUBCHEM_ATOM_UDEF_STEREO_COUNT>
1

> <PUBCHEM_BOND_DEF_STEREO_COUNT>
0

> <PUBCHEM_BOND_UDEF_STEREO_COUNT>
0

> <PUBCHEM_ISOTOPIC_ATOM_COUNT>
0

> <PUBCHEM_COMPONENT_COUNT>
1

> <PUBCHEM_CACTVS_TAUTO_COUNT>
1

> <PUBCHEM_CONFORMER_ID>
0000101F00000001

> <PUBCHEM_MMFF94_ENERGY>
53.2397

> <PUBCHEM_FEATURE_SELFOVERLAP>
20.297

> <PUBCHEM_SHAPE_FINGERPRINT>
10465860 250 17168143438404270433
106641 1 14418427550265540143
11405975 8 18187081737136472377
11796584 16 17967812747643772783
12107183 9 17685205471234346235
12236239 1 17603303760978349040
124424 183 17022905644803880093
12670543 26 16773525459204344686
12670546 56 18333455335165447521
13167823 11 18333453118777648127
13288520 33 18335420175371149391
13533116 47 4750606526007403004
13583140 156 17531538585224809281
13675066 3 18202280286747203261
13760787 19 17895475825743042709
13862211 1 17203615882196701520
14289901 80 18116155476128525385
14341114 176 18260827064485832281
14911166 2 16774078462023797942
15788980 27 17385445410190633973
15848700 24 17775289348146388900
15848702 151 18342458162027241935
16752209 62 16558765532447433372
16945 1 16702027456476530813
17834072 33 18335700520592230028
17844677 252 18260824886969204705
1813 80 17561082518418753916
18186145 218 17274827913344041525
18222031 100 17418381263578266845
19026448 5 18260828168192077085
19141452 34 18341894078181628247
19489759 90 17312821610840791169
19784866 240 18041271154134456038
200 152 18260829302179266898
20645477 70 18334855022363320870
21267235 1 17989480802392023739
21637258 2 18188221947779659566
22713019 99 17989488519741548378
23402539 116 18131071553923704557
23522609 53 18055324033856435804
23536379 177 18334012800134239665
23559900 14 18334582295639081688
23569943 247 17915466214247153642
26918003 58 17313103055325573263
3286 77 18335423461132179948
4072396 5 15719390663447924205
42 15 18334293167162323357
4214541 1 18333731338411832273
465052 167 18040431092843656806
4990 188 17988925582504139339
5104073 3 17967811605187370267
5374978 207 15646772275957380058
559249 180 18334015037970742295
633830 44 17489588939755096533
69090 78 18343304734409470603
7495541 125 17168711821507184473
77779 3 18333450915617589673
7970288 3 17614570237987103087
9971528 1 18202003192373605204
9981440 41 17117756948062852641

> <PUBCHEM_SHAPE_MULTIPOLES>
372
12.06
1.46
1.13
2.77
0.06
-0.14
3.72
0.23
0.67
0.01
-0.1
-0.12
-0.12

> <PUBCHEM_SHAPE_SELFOVERLAP>
798.668

> <PUBCHEM_SHAPE_VOLUME>
207.2

> <PUBCHEM_COORDINATE_TYPE>
2
5
10

$$$$

