7851
  -OEChem-06261202233D

 10  9  0     0  0  0  0  0  0999 V2000
    2.1926    0.1836    0.0109 Br  0  0  0  0  0  0  0  0  0  0  0  0
   -1.9698   -0.0815    0.0146 N   0  0  0  0  0  0  0  0  0  0  0  0
   -0.6329    0.4998   -0.0147 C   0  0  0  0  0  0  0  0  0  0  0  0
    0.4102   -0.6019   -0.0108 C   0  0  0  0  0  0  0  0  0  0  0  0
   -0.5066    1.1565    0.8536 H   0  0  0  0  0  0  0  0  0  0  0  0
   -0.5315    1.1214   -0.9112 H   0  0  0  0  0  0  0  0  0  0  0  0
    0.3430   -1.2335    0.8799 H   0  0  0  0  0  0  0  0  0  0  0  0
    0.3547   -1.2278   -0.9063 H   0  0  0  0  0  0  0  0  0  0  0  0
   -2.6620    0.6650    0.0620 H   0  0  0  0  0  0  0  0  0  0  0  0
   -2.0863   -0.6331    0.8638 H   0  0  0  0  0  0  0  0  0  0  0  0
  1  4  1  0  0  0  0
  2  3  1  0  0  0  0
  2  9  1  0  0  0  0
  2 10  1  0  0  0  0
  3  4  1  0  0  0  0
  3  5  1  0  0  0  0
  3  6  1  0  0  0  0
  4  7  1  0  0  0  0
  4  8  1  0  0  0  0
M  END
> <PUBCHEM_COMPOUND_CID>
7851

> <PUBCHEM_CONFORMER_RMSD>
0.4

> <PUBCHEM_CONFORMER_DIVERSEORDER>
1
3
2

> <PUBCHEM_MMFF94_PARTIAL_CHARGES>
6
1 -0.23
10 0.36
2 -0.99
3 0.27
4 0.23
9 0.36

> <PUBCHEM_EFFECTIVE_ROTOR_COUNT>
1

> <PUBCHEM_PHARMACOPHORE_FEATURES>
3
1 1 hydrophobe
1 2 cation
1 2 donor

> <PUBCHEM_HEAVY_ATOM_COUNT>
4

> <PUBCHEM_ATOM_DEF_STEREO_COUNT>
0

> <PUBCHEM_ATOM_UDEF_STEREO_COUNT>
0

> <PUBCHEM_BOND_DEF_STEREO_COUNT>
0

> <PUBCHEM_BOND_UDEF_STEREO_COUNT>
0

> <PUBCHEM_ISOTOPIC_ATOM_COUNT>
0

> <PUBCHEM_COMPONENT_COUNT>
1

> <PUBCHEM_CACTVS_TAUTO_COUNT>
1

> <PUBCHEM_CONFORMER_ID>
00001EAB00000001

> <PUBCHEM_MMFF94_ENERGY>
-3.3792

> <PUBCHEM_FEATURE_SELFOVERLAP>
15.223

> <PUBCHEM_SHAPE_FINGERPRINT>
139733 1 9151173151309431333
16714656 1 18333448724994202398
20096714 4 18410293592907523160
21015797 1 9366470722193827267
5460574 1 9295291642452456192

> <PUBCHEM_SHAPE_MULTIPOLES>
83.28
2.96
0.8
0.63
0.29
0.01
0
-0.2
-0.02
0.08
0
0.11
-0.01
0

> <PUBCHEM_SHAPE_SELFOVERLAP>
123.709

> <PUBCHEM_SHAPE_VOLUME>
63.2

> <PUBCHEM_COORDINATE_TYPE>
2
5
10

$$$$

