8612
  -OEChem-06261202573D

 37 37  0     0  0  0  0  0  0999 V2000
    2.4891   -2.5840    0.8947 Cl  0  0  0  0  0  0  0  0  0  0  0  0
   -0.3603    0.0437   -0.1680 O   0  0  0  0  0  0  0  0  0  0  0  0
    0.4500   -1.7348   -1.3843 O   0  0  0  0  0  0  0  0  0  0  0  0
   -4.0379    0.2540   -0.0374 N   0  0  0  0  0  0  0  0  0  0  0  0
    5.7035    1.3832    0.5900 N   0  0  0  0  0  0  0  0  0  0  0  0
   -2.6474    0.6198    0.2305 C   0  0  0  0  0  0  0  0  0  0  0  0
   -4.9477    1.2218    0.5743 C   0  0  0  0  0  0  0  0  0  0  0  0
   -4.3166   -1.0934    0.4579 C   0  0  0  0  0  0  0  0  0  0  0  0
   -1.6963   -0.3588   -0.4398 C   0  0  0  0  0  0  0  0  0  0  0  0
   -4.6792    2.6271    0.0769 C   0  0  0  0  0  0  0  0  0  0  0  0
   -5.7344   -1.5198    0.1383 C   0  0  0  0  0  0  0  0  0  0  0  0
    0.6199   -0.7358   -0.7026 C   0  0  0  0  0  0  0  0  0  0  0  0
    1.9626   -0.2118   -0.3460 C   0  0  0  0  0  0  0  0  0  0  0  0
    2.8588   -0.9808    0.3696 C   0  0  0  0  0  0  0  0  0  0  0  0
    2.2683    1.0707   -0.7617 C   0  0  0  0  0  0  0  0  0  0  0  0
    4.4394    0.8439    0.2734 C   0  0  0  0  0  0  0  0  0  0  0  0
    4.1095   -0.4482    0.6826 C   0  0  0  0  0  0  0  0  0  0  0  0
    3.5187    1.6033   -0.4487 C   0  0  0  0  0  0  0  0  0  0  0  0
   -2.4359    0.6668    1.3073 H   0  0  0  0  0  0  0  0  0  0  0  0
   -2.3987    1.6062   -0.1761 H   0  0  0  0  0  0  0  0  0  0  0  0
   -5.9838    1.0024    0.2963 H   0  0  0  0  0  0  0  0  0  0  0  0
   -4.8891    1.2022    1.6700 H   0  0  0  0  0  0  0  0  0  0  0  0
   -3.6952   -1.8379   -0.0463 H   0  0  0  0  0  0  0  0  0  0  0  0
   -4.1336   -1.1820    1.5361 H   0  0  0  0  0  0  0  0  0  0  0  0
   -1.8603   -0.3747   -1.5242 H   0  0  0  0  0  0  0  0  0  0  0  0
   -1.7933   -1.3717   -0.0408 H   0  0  0  0  0  0  0  0  0  0  0  0
   -3.7814    3.0664    0.5229 H   0  0  0  0  0  0  0  0  0  0  0  0
   -4.5909    2.6644   -1.0144 H   0  0  0  0  0  0  0  0  0  0  0  0
   -5.5137    3.2805    0.3565 H   0  0  0  0  0  0  0  0  0  0  0  0
   -6.4742   -1.0271    0.7768 H   0  0  0  0  0  0  0  0  0  0  0  0
   -5.9895   -1.3323   -0.9104 H   0  0  0  0  0  0  0  0  0  0  0  0
   -5.8437   -2.5967    0.3117 H   0  0  0  0  0  0  0  0  0  0  0  0
    1.5611    1.6697   -1.3284 H   0  0  0  0  0  0  0  0  0  0  0  0
    4.8303   -1.0374    1.2458 H   0  0  0  0  0  0  0  0  0  0  0  0
    3.7644    2.6110   -0.7740 H   0  0  0  0  0  0  0  0  0  0  0  0
    5.9431    2.3197    0.2929 H   0  0  0  0  0  0  0  0  0  0  0  0
    6.3722    0.8334    1.1129 H   0  0  0  0  0  0  0  0  0  0  0  0
  1 14  1  0  0  0  0
  2  9  1  0  0  0  0
  2 12  1  0  0  0  0
  3 12  2  0  0  0  0
  4  6  1  0  0  0  0
  4  7  1  0  0  0  0
  4  8  1  0  0  0  0
  5 16  1  0  0  0  0
  5 36  1  0  0  0  0
  5 37  1  0  0  0  0
  6  9  1  0  0  0  0
  6 19  1  0  0  0  0
  6 20  1  0  0  0  0
  7 10  1  0  0  0  0
  7 21  1  0  0  0  0
  7 22  1  0  0  0  0
  8 11  1  0  0  0  0
  8 23  1  0  0  0  0
  8 24  1  0  0  0  0
  9 25  1  0  0  0  0
  9 26  1  0  0  0  0
 10 27  1  0  0  0  0
 10 28  1  0  0  0  0
 10 29  1  0  0  0  0
 11 30  1  0  0  0  0
 11 31  1  0  0  0  0
 11 32  1  0  0  0  0
 12 13  1  0  0  0  0
 13 14  2  0  0  0  0
 13 15  1  0  0  0  0
 14 17  1  0  0  0  0
 15 18  2  0  0  0  0
 15 33  1  0  0  0  0
 16 17  2  0  0  0  0
 16 18  1  0  0  0  0
 17 34  1  0  0  0  0
 18 35  1  0  0  0  0
M  END
> <PUBCHEM_COMPOUND_CID>
8612

> <PUBCHEM_CONFORMER_RMSD>
0.8

> <PUBCHEM_CONFORMER_DIVERSEORDER>
1
52
46
74
75
93
29
10
94
20
71
15
86
67
81
47
27
22
3
83
97
41
95
39
42
18
69
26
25
54
82
13
37
66
45
60
85
24
48
76
70
58
23
61
51
87
7
33
80
5
59
2
4
21
73
64
101
57
84
89
14
34
8
78
100
32
31
62
104
36
6
109
90
11
9
12
88
99
65
92
53
68
72
79
98
56
91
17
28
77
35
63
30
106
44
50
49
96
19
16
38
40
103
55
105
107
43
108
102

> <PUBCHEM_MMFF94_PARTIAL_CHARGES>
21
1 -0.18
12 0.63
13 0.09
14 0.18
15 -0.15
16 0.1
17 -0.15
18 -0.15
2 -0.43
3 -0.57
33 0.15
34 0.15
35 0.15
36 0.4
37 0.4
4 -0.81
5 -0.9
6 0.27
7 0.27
8 0.27
9 0.28

> <PUBCHEM_EFFECTIVE_ROTOR_COUNT>
7

> <PUBCHEM_PHARMACOPHORE_FEATURES>
5
1 3 acceptor
1 4 cation
1 5 cation
1 5 donor
6 13 14 15 16 17 18 rings

> <PUBCHEM_HEAVY_ATOM_COUNT>
18

> <PUBCHEM_ATOM_DEF_STEREO_COUNT>
0

> <PUBCHEM_ATOM_UDEF_STEREO_COUNT>
0

> <PUBCHEM_BOND_DEF_STEREO_COUNT>
0

> <PUBCHEM_BOND_UDEF_STEREO_COUNT>
0

> <PUBCHEM_ISOTOPIC_ATOM_COUNT>
0

> <PUBCHEM_COMPONENT_COUNT>
1

> <PUBCHEM_CACTVS_TAUTO_COUNT>
2

> <PUBCHEM_CONFORMER_ID>
000021A400000001

> <PUBCHEM_MMFF94_ENERGY>
50.6991

> <PUBCHEM_FEATURE_SELFOVERLAP>
25.371

> <PUBCHEM_SHAPE_FINGERPRINT>
10354089 29 18412826855034576236
10366900 7 17632568345046066968
11405975 8 18268425918452607691
12107183 9 17837214049402449955
12236239 1 18408323281129445912
12403259 118 18410298008023425969
12596602 18 18408041809899083376
12633257 1 16988846038576763264
12916748 109 17531237340766927048
13073987 5 18341893017772806915
13167823 11 18412826902168797603
13785724 45 17759804037235862490
14252887 29 16988846120159880450
14341114 176 18341325703631589097
15183329 4 8358270224117492099
15188451 53 16271634591326067937
17844677 252 18337100254818491473
18222031 100 15267345115263463694
19784866 240 11240005585214760584
19784866 9 18410296908822645160
20715895 44 17977104892541472433
21065198 48 18413390959996674659
21065199 12 18271522087245779395
221357 26 7060386903012809723
22224240 67 17846223198957471384
23402539 116 18273501165368547653
23559900 14 17899125289910108975
2916195 48 17822580404245968432
300161 21 18272092721096075257
3060560 45 6555406518712672212
314173 85 15913329112998450143
3421961 26 18127697239123306858
4214541 1 18341611551365048369
474229 33 18261391096998028047
5104073 3 18341044216170767443
8272917 22 18341893047632096202
90127 26 18337096947641172891

> <PUBCHEM_SHAPE_MULTIPOLES>
350.6
13.42
2.33
0.91
9.39
0.07
-0.1
-3.71
3.27
0.64
0.26
-0.35
0.2
-0.52

> <PUBCHEM_SHAPE_SELFOVERLAP>
701.036

> <PUBCHEM_SHAPE_VOLUME>
208.6

> <PUBCHEM_COORDINATE_TYPE>
2
5
10

$$$$

