11750
  -OEChem-06261206043D

 13 12  0     1  0  0  0  0  0999 V2000
    0.4201    1.8673   -0.0661 Cl  0  0  0  0  0  0  0  0  0  0  0  0
   -1.9534   -0.5246   -0.8964 O   0  5  0  0  0  0  0  0  0  0  0  0
   -1.4454   -0.0876    1.1989 O   0  0  0  0  0  0  0  0  0  0  0  0
   -1.1666   -0.1810   -0.0046 N   0  3  0  0  0  0  0  0  0  0  0  0
    1.2321   -0.7472    0.3029 C   0  0  0  0  0  0  0  0  0  0  0  0
    0.2384    0.1444   -0.4357 C   0  0  2  0  0  0  0  0  0  0  0  0
    2.6749   -0.4713   -0.0990 C   0  0  0  0  0  0  0  0  0  0  0  0
    1.1414   -0.6257    1.3897 H   0  0  0  0  0  0  0  0  0  0  0  0
    1.0033   -1.7992    0.0902 H   0  0  0  0  0  0  0  0  0  0  0  0
    0.2960    0.0084   -1.5207 H   0  0  0  0  0  0  0  0  0  0  0  0
    2.8064   -0.5719   -1.1811 H   0  0  0  0  0  0  0  0  0  0  0  0
    3.3430   -1.1877    0.3900 H   0  0  0  0  0  0  0  0  0  0  0  0
    2.9933    0.5326    0.1969 H   0  0  0  0  0  0  0  0  0  0  0  0
  1  6  1  0  0  0  0
  2  4  1  0  0  0  0
  3  4  2  0  0  0  0
  4  6  1  0  0  0  0
  5  6  1  0  0  0  0
  5  7  1  0  0  0  0
  5  8  1  0  0  0  0
  5  9  1  0  0  0  0
  6 10  1  0  0  0  0
  7 11  1  0  0  0  0
  7 12  1  0  0  0  0
  7 13  1  0  0  0  0
M  CHG  2   2  -1   4   1
M  END
> <PUBCHEM_COMPOUND_CID>
11750

> <PUBCHEM_CONFORMER_RMSD>
0.4

> <PUBCHEM_CONFORMER_DIVERSEORDER>
1
8
7
5
9
2
6
4
3

> <PUBCHEM_MMFF94_PARTIAL_CHARGES>
5
1 -0.29
2 -0.52
3 -0.52
4 0.8
6 0.53

> <PUBCHEM_EFFECTIVE_ROTOR_COUNT>
2

> <PUBCHEM_PHARMACOPHORE_FEATURES>
4
1 2 acceptor
1 2 anion
1 3 acceptor
1 7 hydrophobe

> <PUBCHEM_HEAVY_ATOM_COUNT>
7

> <PUBCHEM_ATOM_DEF_STEREO_COUNT>
0

> <PUBCHEM_ATOM_UDEF_STEREO_COUNT>
1

> <PUBCHEM_BOND_DEF_STEREO_COUNT>
0

> <PUBCHEM_BOND_UDEF_STEREO_COUNT>
0

> <PUBCHEM_ISOTOPIC_ATOM_COUNT>
0

> <PUBCHEM_COMPONENT_COUNT>
1

> <PUBCHEM_CACTVS_TAUTO_COUNT>
2

> <PUBCHEM_CONFORMER_ID>
00002DE600000001

> <PUBCHEM_MMFF94_ENERGY>
5.5608

> <PUBCHEM_FEATURE_SELFOVERLAP>
20.377

> <PUBCHEM_SHAPE_FINGERPRINT>
139733 1 8574425430940127510
16714656 1 18261951950832874246
21040471 1 15338303214884788967
23552449 11 18196678231536780680
29004967 10 18272363183386326986
5460574 1 16271928242055072478
5943 1 17968085383382193225

> <PUBCHEM_SHAPE_MULTIPOLES>
129.21
2.8
1.35
0.88
0.95
1
0.1
-1.01
-0.15
0.19
0
-0.38
-0.08
-0.1

> <PUBCHEM_SHAPE_SELFOVERLAP>
224.817

> <PUBCHEM_SHAPE_VOLUME>
87.2

> <PUBCHEM_COORDINATE_TYPE>
2
5
10

$$$$

