14235
  -OEChem-06241222423D

 34 33  0     0  0  0  0  0  0999 V2000
    2.0427    0.1982   -0.8023 O   0  0  0  0  0  0  0  0  0  0  0  0
    2.1241    1.3508    1.1982 O   0  0  0  0  0  0  0  0  0  0  0  0
    1.9118   -1.0360   -0.0935 C   0  0  0  0  0  0  0  0  0  0  0  0
    0.6123   -0.9845    0.7354 C   0  0  0  0  0  0  0  0  0  0  0  0
   -0.6571   -0.7198   -0.0865 C   0  0  0  0  0  0  0  0  0  0  0  0
    1.8180   -2.1638   -1.1265 C   0  0  0  0  0  0  0  0  0  0  0  0
    3.1545   -1.2284    0.7785 C   0  0  0  0  0  0  0  0  0  0  0  0
   -1.8961   -0.6633    0.8179 C   0  0  0  0  0  0  0  0  0  0  0  0
   -3.1636   -0.3620    0.0464 C   0  0  0  0  0  0  0  0  0  0  0  0
    2.1394    1.3151   -0.0248 C   0  0  0  0  0  0  0  0  0  0  0  0
   -3.5372    1.0136   -0.2558 C   0  0  0  0  0  0  0  0  0  0  0  0
   -3.9387   -1.3711   -0.3884 C   0  0  0  0  0  0  0  0  0  0  0  0
    2.2712    2.5259   -0.8981 C   0  0  0  0  0  0  0  0  0  0  0  0
   -2.8812    2.1253    0.0995 C   0  0  0  0  0  0  0  0  0  0  0  0
    0.4935   -1.9550    1.2383 H   0  0  0  0  0  0  0  0  0  0  0  0
    0.6534   -0.2615    1.5538 H   0  0  0  0  0  0  0  0  0  0  0  0
   -0.8036   -1.5117   -0.8292 H   0  0  0  0  0  0  0  0  0  0  0  0
   -0.5563    0.2235   -0.6348 H   0  0  0  0  0  0  0  0  0  0  0  0
    1.5871   -3.1271   -0.6603 H   0  0  0  0  0  0  0  0  0  0  0  0
    1.0720   -1.9511   -1.8991 H   0  0  0  0  0  0  0  0  0  0  0  0
    2.7695   -2.2665   -1.6624 H   0  0  0  0  0  0  0  0  0  0  0  0
    4.0679   -0.9868    0.2229 H   0  0  0  0  0  0  0  0  0  0  0  0
    3.2286   -2.2694    1.1149 H   0  0  0  0  0  0  0  0  0  0  0  0
    3.1578   -0.6222    1.6879 H   0  0  0  0  0  0  0  0  0  0  0  0
   -1.9995   -1.6320    1.3267 H   0  0  0  0  0  0  0  0  0  0  0  0
   -1.7560    0.0639    1.6266 H   0  0  0  0  0  0  0  0  0  0  0  0
   -4.4534    1.1482   -0.8289 H   0  0  0  0  0  0  0  0  0  0  0  0
   -3.6777   -2.4060   -0.1897 H   0  0  0  0  0  0  0  0  0  0  0  0
   -4.8491   -1.1966   -0.9534 H   0  0  0  0  0  0  0  0  0  0  0  0
    1.3852    2.6239   -1.5305 H   0  0  0  0  0  0  0  0  0  0  0  0
    3.1741    2.4461   -1.5086 H   0  0  0  0  0  0  0  0  0  0  0  0
    2.3521    3.4182   -0.2709 H   0  0  0  0  0  0  0  0  0  0  0  0
   -3.2695    3.0971   -0.1884 H   0  0  0  0  0  0  0  0  0  0  0  0
   -1.9588    2.1125    0.6679 H   0  0  0  0  0  0  0  0  0  0  0  0
  1  3  1  0  0  0  0
  1 10  1  0  0  0  0
  2 10  2  0  0  0  0
  3  4  1  0  0  0  0
  3  6  1  0  0  0  0
  3  7  1  0  0  0  0
  4  5  1  0  0  0  0
  4 15  1  0  0  0  0
  4 16  1  0  0  0  0
  5  8  1  0  0  0  0
  5 17  1  0  0  0  0
  5 18  1  0  0  0  0
  6 19  1  0  0  0  0
  6 20  1  0  0  0  0
  6 21  1  0  0  0  0
  7 22  1  0  0  0  0
  7 23  1  0  0  0  0
  7 24  1  0  0  0  0
  8  9  1  0  0  0  0
  8 25  1  0  0  0  0
  8 26  1  0  0  0  0
  9 11  1  0  0  0  0
  9 12  2  0  0  0  0
 10 13  1  0  0  0  0
 11 14  2  0  0  0  0
 11 27  1  0  0  0  0
 12 28  1  0  0  0  0
 12 29  1  0  0  0  0
 13 30  1  0  0  0  0
 13 31  1  0  0  0  0
 13 32  1  0  0  0  0
 14 33  1  0  0  0  0
 14 34  1  0  0  0  0
M  END
> <PUBCHEM_COMPOUND_CID>
14235

> <PUBCHEM_CONFORMER_RMSD>
0.8

> <PUBCHEM_CONFORMER_DIVERSEORDER>
1
71
48
62
67
93
17
82
92
31
7
57
46
56
22
72
15
70
47
21
73
14
95
85
84
16
66
36
60
68
10
28
97
74
42
83
26
88
90
58
27
30
32
44
13
86
78
18
8
50
63
39
19
65
76
4
3
53
34
87
38
96
54
40
79
9
59
11
69
6
80
5
35
12
64
81
45
49
29
61
89
25
77
94
37
55
51
41
20
75
43
33
91
2
23
24
52

> <PUBCHEM_MMFF94_PARTIAL_CHARGES>
15
1 -0.43
10 0.66
11 -0.15
12 -0.3
13 0.06
14 -0.3
2 -0.57
27 0.15
28 0.15
29 0.15
3 0.28
33 0.15
34 0.15
8 0.14
9 -0.14

> <PUBCHEM_EFFECTIVE_ROTOR_COUNT>
7

> <PUBCHEM_PHARMACOPHORE_FEATURES>
5
1 12 hydrophobe
1 14 hydrophobe
1 2 acceptor
3 3 6 7 hydrophobe
5 4 5 8 9 11 hydrophobe

> <PUBCHEM_HEAVY_ATOM_COUNT>
14

> <PUBCHEM_ATOM_DEF_STEREO_COUNT>
0

> <PUBCHEM_ATOM_UDEF_STEREO_COUNT>
0

> <PUBCHEM_BOND_DEF_STEREO_COUNT>
0

> <PUBCHEM_BOND_UDEF_STEREO_COUNT>
0

> <PUBCHEM_ISOTOPIC_ATOM_COUNT>
0

> <PUBCHEM_COMPONENT_COUNT>
1

> <PUBCHEM_CACTVS_TAUTO_COUNT>
1

> <PUBCHEM_CONFORMER_ID>
0000379B00000001

> <PUBCHEM_MMFF94_ENERGY>
29.5788

> <PUBCHEM_FEATURE_SELFOVERLAP>
25.395

> <PUBCHEM_SHAPE_FINGERPRINT>
10608611 8 18411700993555553513
10922523 26 18188211025915027159
10980938 120 18335980870092226217
11615756 256 18341885286531467653
11715629 250 18261679181670437389
12162725 195 18412827988652695867
12932764 1 17822008671105259083
13618510 140 18199745847551353821
13922767 16 18339648931245728866
14250199 8 18413386544917929013
14415576 193 18409446964274059623
15375462 6 18334856078740808775
15442244 35 18269275827480898624
17041 49 18128541646377132178
17041 50 18192986234667986678
17802600 8 18270688674585498501
18186145 218 18272089435293320879
18522851 268 18260550047811600199
19973954 147 18411415137675355625
20233049 118 17701821218097075686
20279233 1 6915981418218320467
20653085 51 18338790243198549491
20671657 1 18271804575792554540
21501502 16 18411979169902571697
21524375 3 18121776124004114608
21947302 44 18271805683524832210
22096605 113 18339923688935669555
230 275 18341332193327049936
23402539 116 18266186208951281130
23419403 2 16959046215626803930
23532345 88 18409731754986634846
23557571 272 17749394788555367307
312423 11 18412252931313204179
3286 77 18201726158097581791
6049 1 18198318771948102515
6333272 397 17986955150503985603
7364860 26 18261109686208046950
74978 22 18271803557722015411
7832392 63 18195526128351106021
8050 44 18271814484266665413
81228 2 17544739588474783818
93112 12 18335700606734350991

> <PUBCHEM_SHAPE_MULTIPOLES>
276.37
6.82
2.55
1.02
5.08
1.25
-0.01
0.31
0.29
-0.98
0.55
-0.55
-0.09
-0.18

> <PUBCHEM_SHAPE_SELFOVERLAP>
528.245

> <PUBCHEM_SHAPE_VOLUME>
169.6

> <PUBCHEM_COORDINATE_TYPE>
2
5
10

$$$$

