8886
  -OEChem-06261203123D

 14 13  0     0  0  0  0  0  0999 V2000
   -1.9538   -1.5847   -0.0001 S   0  0  0  0  0  0  0  0  0  0  0  0
    1.9539    1.5848   -0.0001 S   0  0  0  0  0  0  0  0  0  0  0  0
   -0.4389    0.5403    0.0001 N   0  0  0  0  0  0  0  0  0  0  0  0
    0.4389   -0.5405   -0.0001 N   0  0  0  0  0  0  0  0  0  0  0  0
   -2.8181    0.9195    0.0001 N   0  0  0  0  0  0  0  0  0  0  0  0
    2.8181   -0.9194    0.0001 N   0  0  0  0  0  0  0  0  0  0  0  0
   -1.6779    0.1598   -0.0001 C   0  0  0  0  0  0  0  0  0  0  0  0
    1.6779   -0.1598    0.0001 C   0  0  0  0  0  0  0  0  0  0  0  0
   -2.7717    1.9327    0.0007 H   0  0  0  0  0  0  0  0  0  0  0  0
   -3.7402    0.4979    0.0007 H   0  0  0  0  0  0  0  0  0  0  0  0
    3.7401   -0.4978   -0.0007 H   0  0  0  0  0  0  0  0  0  0  0  0
    2.7718   -1.9327   -0.0006 H   0  0  0  0  0  0  0  0  0  0  0  0
   -3.2939   -1.5491   -0.0002 H   0  0  0  0  0  0  0  0  0  0  0  0
    3.2939    1.5491    0.0003 H   0  0  0  0  0  0  0  0  0  0  0  0
  1  7  1  0  0  0  0
  1 13  1  0  0  0  0
  2  8  1  0  0  0  0
  2 14  1  0  0  0  0
  3  4  1  0  0  0  0
  3  7  2  0  0  0  0
  4  8  2  0  0  0  0
  5  7  1  0  0  0  0
  5  9  1  0  0  0  0
  5 10  1  0  0  0  0
  6  8  1  0  0  0  0
  6 11  1  0  0  0  0
  6 12  1  0  0  0  0
M  END
> <PUBCHEM_COMPOUND_CID>
8886

> <PUBCHEM_CONFORMER_RMSD>
0.4

> <PUBCHEM_CONFORMER_DIVERSEORDER>
1

> <PUBCHEM_MMFF94_PARTIAL_CHARGES>
14
1 -0.32
10 0.4
11 0.4
12 0.4
13 0.18
14 0.18
2 -0.32
3 -0.45
4 -0.45
5 -0.85
6 -0.85
7 0.64
8 0.64
9 0.4

> <PUBCHEM_EFFECTIVE_ROTOR_COUNT>
1

> <PUBCHEM_PHARMACOPHORE_FEATURES>
6
1 5 donor
1 6 donor
3 1 5 7 anion
3 2 6 8 anion
3 3 5 7 cation
3 4 6 8 cation

> <PUBCHEM_HEAVY_ATOM_COUNT>
8

> <PUBCHEM_ATOM_DEF_STEREO_COUNT>
0

> <PUBCHEM_ATOM_UDEF_STEREO_COUNT>
0

> <PUBCHEM_BOND_DEF_STEREO_COUNT>
0

> <PUBCHEM_BOND_UDEF_STEREO_COUNT>
2

> <PUBCHEM_ISOTOPIC_ATOM_COUNT>
0

> <PUBCHEM_COMPONENT_COUNT>
1

> <PUBCHEM_CACTVS_TAUTO_COUNT>
6

> <PUBCHEM_CONFORMER_ID>
000022B600000001

> <PUBCHEM_MMFF94_ENERGY>
30.6295

> <PUBCHEM_FEATURE_SELFOVERLAP>
30.446

> <PUBCHEM_SHAPE_FINGERPRINT>
12897270 3 18194402182300786461
12932764 1 17561091314416615427
14325111 11 18410856529575096448
14390081 3 18335703780288005633
19973954 147 18338796719360651425
21040471 1 18410856512405796256
23552423 10 18271526399018521518
29004967 10 16877938339126609610
3248919 1 18337402551474860741
5460574 1 9223223053029212163

> <PUBCHEM_SHAPE_MULTIPOLES>
152.41
4.29
1.6
0.6
0
0
0
0
0
0
0
0
0
0

> <PUBCHEM_SHAPE_SELFOVERLAP>
269.246

> <PUBCHEM_SHAPE_VOLUME>
102.6

> <PUBCHEM_COORDINATE_TYPE>
2
5
10

$$$$

