47205083
  -OEChem-06241222583D

 34 35  0     0  0  0  0  0  0999 V2000
    0.9555   -1.5111   -0.1885 O   0  0  0  0  0  0  0  0  0  0  0  0
    5.7491    1.2356   -0.2928 O   0  0  0  0  0  0  0  0  0  0  0  0
   -1.6316   -1.8656   -0.8432 O   0  0  0  0  0  0  0  0  0  0  0  0
   -2.3666   -0.9431    1.1609 N   0  0  0  0  0  0  0  0  0  0  0  0
   -4.5623    1.3101    0.8165 N   0  0  0  0  0  0  0  0  0  0  0  0
   -5.0643    2.2595    0.0085 N   0  0  0  0  0  0  0  0  0  0  0  0
   -3.7847   -1.0743    0.9187 C   0  0  0  0  0  0  0  0  0  0  0  0
   -4.3434    0.1162    0.1942 C   0  0  0  0  0  0  0  0  0  0  0  0
   -0.0042   -1.0971    0.7606 C   0  0  0  0  0  0  0  0  0  0  0  0
   -1.4059   -1.3541    0.2501 C   0  0  0  0  0  0  0  0  0  0  0  0
    2.1481   -0.8271   -0.2145 C   0  0  0  0  0  0  0  0  0  0  0  0
   -4.7295    0.2970   -1.1115 C   0  0  0  0  0  0  0  0  0  0  0  0
    2.6498   -0.2554    0.9548 C   0  0  0  0  0  0  0  0  0  0  0  0
    2.8562   -0.7053   -1.4099 C   0  0  0  0  0  0  0  0  0  0  0  0
    4.5680    0.5597   -0.2671 C   0  0  0  0  0  0  0  0  0  0  0  0
    3.8598    0.4380    0.9284 C   0  0  0  0  0  0  0  0  0  0  0  0
    4.0661   -0.0120   -1.4363 C   0  0  0  0  0  0  0  0  0  0  0  0
   -5.1642    1.6348   -1.1679 C   0  0  0  0  0  0  0  0  0  0  0  0
    6.2041    1.7943    0.9389 C   0  0  0  0  0  0  0  0  0  0  0  0
   -4.2759   -1.1898    1.8908 H   0  0  0  0  0  0  0  0  0  0  0  0
   -3.9670   -1.9851    0.3375 H   0  0  0  0  0  0  0  0  0  0  0  0
   -2.0726   -0.5142    2.0338 H   0  0  0  0  0  0  0  0  0  0  0  0
    0.0548   -0.0189    0.9614 H   0  0  0  0  0  0  0  0  0  0  0  0
    0.1358   -1.6591    1.6911 H   0  0  0  0  0  0  0  0  0  0  0  0
   -4.6998   -0.4322   -1.9079 H   0  0  0  0  0  0  0  0  0  0  0  0
   -4.3919    1.5476    1.7858 H   0  0  0  0  0  0  0  0  0  0  0  0
    2.1414   -0.3516    1.9098 H   0  0  0  0  0  0  0  0  0  0  0  0
    2.4699   -1.1486   -2.3236 H   0  0  0  0  0  0  0  0  0  0  0  0
    4.1949    0.8520    1.8733 H   0  0  0  0  0  0  0  0  0  0  0  0
    4.6133    0.0795   -2.3705 H   0  0  0  0  0  0  0  0  0  0  0  0
   -5.5494    2.1804   -2.0173 H   0  0  0  0  0  0  0  0  0  0  0  0
    5.5142    2.5580    1.3137 H   0  0  0  0  0  0  0  0  0  0  0  0
    6.4067    1.0164    1.6830 H   0  0  0  0  0  0  0  0  0  0  0  0
    7.1556    2.2960    0.7341 H   0  0  0  0  0  0  0  0  0  0  0  0
  1  9  1  0  0  0  0
  1 11  1  0  0  0  0
  2 15  1  0  0  0  0
  2 19  1  0  0  0  0
  3 10  2  0  0  0  0
  4  7  1  0  0  0  0
  4 10  1  0  0  0  0
  4 22  1  0  0  0  0
  5  6  1  0  0  0  0
  5  8  1  0  0  0  0
  5 26  1  0  0  0  0
  6 18  2  0  0  0  0
  7  8  1  0  0  0  0
  7 20  1  0  0  0  0
  7 21  1  0  0  0  0
  8 12  2  0  0  0  0
  9 10  1  0  0  0  0
  9 23  1  0  0  0  0
  9 24  1  0  0  0  0
 11 13  2  0  0  0  0
 11 14  1  0  0  0  0
 12 18  1  0  0  0  0
 12 25  1  0  0  0  0
 13 16  1  0  0  0  0
 13 27  1  0  0  0  0
 14 17  2  0  0  0  0
 14 28  1  0  0  0  0
 15 16  2  0  0  0  0
 15 17  1  0  0  0  0
 16 29  1  0  0  0  0
 17 30  1  0  0  0  0
 18 31  1  0  0  0  0
 19 32  1  0  0  0  0
 19 33  1  0  0  0  0
 19 34  1  0  0  0  0
M  END
> <PUBCHEM_COMPOUND_CID>
47205083

> <PUBCHEM_CONFORMER_RMSD>
1

> <PUBCHEM_CONFORMER_DIVERSEORDER>
1
14
21
32
35
65
66
39
54
45
12
6
4
59
3
67
9
60
15
40
2
55
27
57
56
52
62
61
46
23
38
43
68
53
17
49
5
47
8
69
70
41
50
22
28
19
44
33
11
34
24
7
20
29
64
37
63
18
16
25
36
26
42
30
10
13
31
58
48
51

> <PUBCHEM_MMFF94_PARTIAL_CHARGES>
27
1 -0.36
10 0.57
11 0.08
12 -0.15
13 -0.15
14 -0.15
15 0.08
16 -0.15
17 -0.15
18 0.14
19 0.28
2 -0.36
22 0.37
25 0.15
26 0.27
27 0.15
28 0.15
29 0.15
3 -0.57
30 0.15
31 0.15
4 -0.73
5 0.3
6 -0.71
7 0.48
8 -0.33
9 0.34

> <PUBCHEM_EFFECTIVE_ROTOR_COUNT>
7

> <PUBCHEM_PHARMACOPHORE_FEATURES>
8
1 1 acceptor
1 2 acceptor
1 3 acceptor
1 4 donor
1 5 donor
1 6 acceptor
5 5 6 8 12 18 rings
6 11 13 14 15 16 17 rings

> <PUBCHEM_HEAVY_ATOM_COUNT>
19

> <PUBCHEM_ATOM_DEF_STEREO_COUNT>
0

> <PUBCHEM_ATOM_UDEF_STEREO_COUNT>
0

> <PUBCHEM_BOND_DEF_STEREO_COUNT>
0

> <PUBCHEM_BOND_UDEF_STEREO_COUNT>
0

> <PUBCHEM_ISOTOPIC_ATOM_COUNT>
0

> <PUBCHEM_COMPONENT_COUNT>
1

> <PUBCHEM_CACTVS_TAUTO_COUNT>
4

> <PUBCHEM_CONFORMER_ID>
02D04ADB00000001

> <PUBCHEM_MMFF94_ENERGY>
46.6972

> <PUBCHEM_FEATURE_SELFOVERLAP>
40.602

> <PUBCHEM_SHAPE_FINGERPRINT>
10014705 185 18260828163723140306
10498660 4 18335977640345404721
105312 117 18333730217436112991
10912923 1 16056307324441837082
11089746 13 18335146397028710450
12403259 118 17774715372969681543
12596602 18 14549008871612015149
12633257 1 15267340687093983898
12670546 177 16371008524731229543
12969540 114 18186525423134357199
13103583 49 12535341350894969309
14123255 352 18413109454691240891
14123256 34 8646489656529282520
1420 369 8862938373000838141
14251751 18 9007056868038066056
14251757 5 14635733903377313493
14251764 75 17688023533261293977
14341114 328 16558742399695346806
14455015 7 11024114239491456186
14576447 43 13839980028270053598
14739800 52 18272102616073316336
14950920 106 14261341454019412397
15188451 53 12750941206089312185
15209294 21 17275102838643552675
15238133 3 17632571639750226500
15348495 7 12823289087759377749
15537594 2 5906059140345197199
16079462 125 18186524267988608240
17780758 139 11887958765679063327
17870717 6 5906049223624484321
193927 3 7925624510263554831
20281389 69 18342176652706610728
20621476 21 8646485254029795549
20645477 70 16950827177151736342
20871999 31 14779260912576955039
21054139 6 5184349595114839740
22289505 5 17967811657091045616
22765269 38 18333736801536282352
23379529 103 5976948009595251237
23402655 69 17385719214213420026
23559900 14 18129930304010097990
25122255 55 9439135272663262792
26918003 58 11384119626650652843
270888 7 18269839886427977981
2767999 5 18342461438865904924
2838139 119 18335706069484390912
2916195 48 18338235968736155170
3089732 80 9511464433077787528
341906 21 18202001031946461105
351380 3 6844199853164939117
4028521 119 18187359939390405363
441001 317 18412824685854402955
465052 167 11383841467931786712
5104073 3 17775565372851851459
5924683 9 14691989338360989993
8863177 126 10735870669269185664
960060 61 15574713616488078446

> <PUBCHEM_SHAPE_MULTIPOLES>
358.46
15.53
1.91
1.34
1.15
0.5
-0.22
11.25
-0.26
-1.42
0.06
0.33
0
1.27

> <PUBCHEM_SHAPE_SELFOVERLAP>
752.037

> <PUBCHEM_SHAPE_VOLUME>
202.7

> <PUBCHEM_COORDINATE_TYPE>
2
5
10

$$$$

