17396353
  -OEChem-06241222563D

 47 49  0     1  0  0  0  0  0999 V2000
    0.3483   -1.9697   -0.2552 O   0  0  0  0  0  0  0  0  0  0  0  0
   -6.4690    2.5303   -0.7782 O   0  0  0  0  0  0  0  0  0  0  0  0
   -0.4512   -3.1581    1.5468 O   0  0  0  0  0  0  0  0  0  0  0  0
    3.4762   -2.0182   -1.5292 O   0  0  0  0  0  0  0  0  0  0  0  0
    2.5731    1.7008    1.8387 O   0  0  0  0  0  0  0  0  0  0  0  0
   -5.3776    0.6089   -0.1508 N   0  0  0  0  0  0  0  0  0  0  0  0
    2.7428   -0.5455    0.1457 N   0  0  0  0  0  0  0  0  0  0  0  0
   -2.9288    1.8043   -0.9626 C   0  0  0  0  0  0  0  0  0  0  0  0
   -2.9543    0.4635   -0.2872 C   0  0  0  0  0  0  0  0  0  0  0  0
   -4.0914    2.6683   -0.4970 C   0  0  0  0  0  0  0  0  0  0  0  0
   -4.1855   -0.1065    0.0605 C   0  0  0  0  0  0  0  0  0  0  0  0
   -1.7793   -0.2703   -0.0922 C   0  0  0  0  0  0  0  0  0  0  0  0
   -5.4197    1.9379   -0.5265 C   0  0  0  0  0  0  0  0  0  0  0  0
   -1.8359   -1.5524    0.4562 C   0  0  0  0  0  0  0  0  0  0  0  0
   -4.2442   -1.3973    0.5913 C   0  0  0  0  0  0  0  0  0  0  0  0
   -3.0662   -2.1156    0.7949 C   0  0  0  0  0  0  0  0  0  0  0  0
   -0.6109   -2.3096    0.6593 C   0  0  0  0  0  0  0  0  0  0  0  0
    1.6041   -2.6503   -0.1590 C   0  0  2  0  0  0  0  0  0  0  0  0
    2.7194   -1.7116   -0.6123 C   0  0  0  0  0  0  0  0  0  0  0  0
    1.5558   -3.9144   -1.0045 C   0  0  0  0  0  0  0  0  0  0  0  0
    3.6304    0.5495    0.0178 C   0  0  0  0  0  0  0  0  0  0  0  0
    3.5279    1.6513    0.8671 C   0  0  0  0  0  0  0  0  0  0  0  0
    4.6151    0.5194   -0.9697 C   0  0  0  0  0  0  0  0  0  0  0  0
    4.4102    2.7230    0.7287 C   0  0  0  0  0  0  0  0  0  0  0  0
    5.4973    1.5911   -1.1080 C   0  0  0  0  0  0  0  0  0  0  0  0
    5.3948    2.6928   -0.2589 C   0  0  0  0  0  0  0  0  0  0  0  0
    1.3185    2.2784    1.4844 C   0  0  0  0  0  0  0  0  0  0  0  0
   -2.9906    1.6448   -2.0461 H   0  0  0  0  0  0  0  0  0  0  0  0
   -1.9873    2.3247   -0.7527 H   0  0  0  0  0  0  0  0  0  0  0  0
   -3.9283    2.9996    0.5362 H   0  0  0  0  0  0  0  0  0  0  0  0
   -4.1627    3.5612   -1.1276 H   0  0  0  0  0  0  0  0  0  0  0  0
   -0.8298    0.1775   -0.3751 H   0  0  0  0  0  0  0  0  0  0  0  0
   -6.2562    0.1147   -0.0226 H   0  0  0  0  0  0  0  0  0  0  0  0
   -5.1970   -1.8490    0.8542 H   0  0  0  0  0  0  0  0  0  0  0  0
   -3.1254   -3.1176    1.2121 H   0  0  0  0  0  0  0  0  0  0  0  0
    1.8288   -2.9152    0.8826 H   0  0  0  0  0  0  0  0  0  0  0  0
    2.5063   -4.4564   -0.9703 H   0  0  0  0  0  0  0  0  0  0  0  0
    0.7628   -4.5847   -0.6567 H   0  0  0  0  0  0  0  0  0  0  0  0
    1.3317   -3.6775   -2.0508 H   0  0  0  0  0  0  0  0  0  0  0  0
    2.0476   -0.4542    0.8834 H   0  0  0  0  0  0  0  0  0  0  0  0
    4.7603   -0.2920   -1.6679 H   0  0  0  0  0  0  0  0  0  0  0  0
    4.3370    3.5844    1.3871 H   0  0  0  0  0  0  0  0  0  0  0  0
    6.2641    1.5693   -1.8770 H   0  0  0  0  0  0  0  0  0  0  0  0
    6.0817    3.5272   -0.3666 H   0  0  0  0  0  0  0  0  0  0  0  0
    1.4341    3.3521    1.3066 H   0  0  0  0  0  0  0  0  0  0  0  0
    0.9001    1.7961    0.5957 H   0  0  0  0  0  0  0  0  0  0  0  0
    0.6264    2.1340    2.3185 H   0  0  0  0  0  0  0  0  0  0  0  0
  1 17  1  0  0  0  0
  1 18  1  0  0  0  0
  2 13  2  0  0  0  0
  3 17  2  0  0  0  0
  4 19  2  0  0  0  0
  5 22  1  0  0  0  0
  5 27  1  0  0  0  0
  6 11  1  0  0  0  0
  6 13  1  0  0  0  0
  6 33  1  0  0  0  0
  7 19  1  0  0  0  0
  7 21  1  0  0  0  0
  7 40  1  0  0  0  0
  8  9  1  0  0  0  0
  8 10  1  0  0  0  0
  8 28  1  0  0  0  0
  8 29  1  0  0  0  0
  9 11  2  0  0  0  0
  9 12  1  0  0  0  0
 10 13  1  0  0  0  0
 10 30  1  0  0  0  0
 10 31  1  0  0  0  0
 11 15  1  0  0  0  0
 12 14  2  0  0  0  0
 12 32  1  0  0  0  0
 14 16  1  0  0  0  0
 14 17  1  0  0  0  0
 15 16  2  0  0  0  0
 15 34  1  0  0  0  0
 16 35  1  0  0  0  0
 18 19  1  0  0  0  0
 18 20  1  0  0  0  0
 18 36  1  0  0  0  0
 20 37  1  0  0  0  0
 20 38  1  0  0  0  0
 20 39  1  0  0  0  0
 21 22  1  0  0  0  0
 21 23  2  0  0  0  0
 22 24  2  0  0  0  0
 23 25  1  0  0  0  0
 23 41  1  0  0  0  0
 24 26  1  0  0  0  0
 24 42  1  0  0  0  0
 25 26  2  0  0  0  0
 25 43  1  0  0  0  0
 26 44  1  0  0  0  0
 27 45  1  0  0  0  0
 27 46  1  0  0  0  0
 27 47  1  0  0  0  0
M  END
> <PUBCHEM_COMPOUND_CID>
17396353

> <PUBCHEM_CONFORMER_RMSD>
1.2

> <PUBCHEM_CONFORMER_DIVERSEORDER>
1
56
20
16
71
88
52
47
81
80
18
44
79
12
39
84
36
22
28
33
3
19
54
78
74
10
75
72
42
58
17
70
55
53
21
26
57
34
4
5
27
67
35
29
51
50
86
15
46
48
41
85
62
40
87
65
8
49
30
76
9
77
38
66
43
31
59
63
60
24
32
82
25
73
45
6
64
11
14
83
69
68
37
13
7
61
2
23

> <PUBCHEM_MMFF94_PARTIAL_CHARGES>
35
1 -0.43
10 0.06
11 0.12
12 -0.15
13 0.57
14 0.09
15 -0.15
16 -0.15
17 0.63
18 0.34
19 0.57
2 -0.57
21 0.12
22 0.08
23 -0.15
24 -0.15
25 -0.15
26 -0.15
27 0.28
3 -0.57
32 0.15
33 0.37
34 0.15
35 0.15
4 -0.57
40 0.37
41 0.15
42 0.15
43 0.15
44 0.15
5 -0.36
6 -0.55
7 -0.55
8 0.14
9 -0.14

> <PUBCHEM_EFFECTIVE_ROTOR_COUNT>
7.6

> <PUBCHEM_PHARMACOPHORE_FEATURES>
9
1 2 acceptor
1 3 acceptor
1 4 acceptor
1 5 acceptor
1 6 donor
1 7 donor
6 21 22 23 24 25 26 rings
6 6 8 9 10 11 13 rings
6 9 11 12 14 15 16 rings

> <PUBCHEM_HEAVY_ATOM_COUNT>
27

> <PUBCHEM_ATOM_DEF_STEREO_COUNT>
0

> <PUBCHEM_ATOM_UDEF_STEREO_COUNT>
1

> <PUBCHEM_BOND_DEF_STEREO_COUNT>
0

> <PUBCHEM_BOND_UDEF_STEREO_COUNT>
0

> <PUBCHEM_ISOTOPIC_ATOM_COUNT>
0

> <PUBCHEM_COMPONENT_COUNT>
1

> <PUBCHEM_CACTVS_TAUTO_COUNT>
6

> <PUBCHEM_CONFORMER_ID>
0109728100000001

> <PUBCHEM_MMFF94_ENERGY>
86.3876

> <PUBCHEM_FEATURE_SELFOVERLAP>
45.694

> <PUBCHEM_SHAPE_FINGERPRINT>
10675989 125 18336265764053595144
1100329 8 17470721577662230328
11211813 74 18126857221515728557
11595378 159 16343427309871530957
11720765 8 18116714226353199270
12107183 9 18058465338650377426
12403259 415 18341037571434691415
12549972 3 17630582704251032810
12596602 18 16199870531773199658
12769317 202 18333170578786204546
12788726 201 16482718738383493035
13402501 40 18336824174252275864
13726171 33 18270391669044891712
13944108 23 18265331896748230720
14251757 17 18335137613583220273
14347329 18 18340767019118990336
14468879 13 18271801298410956099
14739800 52 18202291320064584523
14790565 3 17906731754902180897
14848178 96 18411420656587031193
14931854 50 18187072997221267252
15238133 3 18341341015901890000
15276724 80 18260831445965034631
15322687 12 18409171047133008984
17093844 170 18411139139019804896
17980427 26 18270978928191461334
18608769 82 18267297643471308355
21033648 29 18189342273162005872
21049683 118 17274541065901347251
21223535 225 16805588288118207008
21279426 13 18334284371602103076
23536364 44 17970603373080412900
23559900 14 18192997234211710859
2747138 104 17914876687774361611
2838139 119 18337676321723711542
3298306 158 18334016055882941240
34797466 226 18113612430926010311
376196 1 18411982463984862338
4371632 12 17170420428206805473
508706 21 18046911481033445206
5104073 3 18059570343314491107
5265222 85 18050841131623593532
7288768 16 18060139812616868955
7808743 9 18200030634221636416
9981440 41 18131063801545230707

> <PUBCHEM_SHAPE_MULTIPOLES>
516.34
13.6
4.55
1.25
3.78
1.96
0.21
-13.14
-3.17
-0.72
-0.15
-0.78
-0.06
2.69

> <PUBCHEM_SHAPE_SELFOVERLAP>
1109.715

> <PUBCHEM_SHAPE_VOLUME>
282.7

> <PUBCHEM_COORDINATE_TYPE>
2
5
10

$$$$

