6457
  -OEChem-06261201202D

 36 38  0     0  0  0  0  0  0999 V2000
    2.3100    0.0000    0.0000 O   0  0  0  0  0  0  0  0  0  0  0  0
    3.3100    0.0000    0.0000 C   0  0  0  0  0  0  0  0  0  0  0  0
    3.3100   -1.0000    0.0000 C   0  0  0  0  0  0  0  0  0  0  0  0
    3.3100    1.0000    0.0000 C   0  0  0  0  0  0  0  0  0  0  0  0
    4.3100    0.0000    0.0000 C   0  0  0  0  0  0  0  0  0  0  0  0
    4.8100   -0.8660    0.0000 C   0  0  0  0  0  0  0  0  0  0  0  0
    4.1760    1.5000    0.0000 C   0  0  0  0  0  0  0  0  0  0  0  0
    2.4440   -1.5000    0.0000 C   0  0  0  0  0  0  0  0  0  0  0  0
    4.8100    0.8660    0.0000 C   0  0  0  0  0  0  0  0  0  0  0  0
    2.4440    1.5000    0.0000 C   0  0  0  0  0  0  0  0  0  0  0  0
    4.1760   -1.5000    0.0000 C   0  0  0  0  0  0  0  0  0  0  0  0
    2.4440   -2.5000    0.0000 C   0  0  0  0  0  0  0  0  0  0  0  0
    4.1760    2.5000    0.0000 C   0  0  0  0  0  0  0  0  0  0  0  0
    5.8100   -0.8660    0.0000 C   0  0  0  0  0  0  0  0  0  0  0  0
    4.1760   -2.5000    0.0000 C   0  0  0  0  0  0  0  0  0  0  0  0
    2.4440    2.5000    0.0000 C   0  0  0  0  0  0  0  0  0  0  0  0
    5.8100    0.8660    0.0000 C   0  0  0  0  0  0  0  0  0  0  0  0
    3.3100   -3.0000    0.0000 C   0  0  0  0  0  0  0  0  0  0  0  0
    3.3100    3.0000    0.0000 C   0  0  0  0  0  0  0  0  0  0  0  0
    6.3100    0.0000    0.0000 C   0  0  0  0  0  0  0  0  0  0  0  0
    1.9070   -1.1900    0.0000 H   0  0  0  0  0  0  0  0  0  0  0  0
    4.7130    1.1900    0.0000 H   0  0  0  0  0  0  0  0  0  0  0  0
    4.5000   -1.4030    0.0000 H   0  0  0  0  0  0  0  0  0  0  0  0
    4.7130   -1.1900    0.0000 H   0  0  0  0  0  0  0  0  0  0  0  0
    1.9070    1.1900    0.0000 H   0  0  0  0  0  0  0  0  0  0  0  0
    4.5000    1.4030    0.0000 H   0  0  0  0  0  0  0  0  0  0  0  0
    2.0000    0.5369    0.0000 H   0  0  0  0  0  0  0  0  0  0  0  0
    6.1200   -1.4030    0.0000 H   0  0  0  0  0  0  0  0  0  0  0  0
    4.7130    2.8100    0.0000 H   0  0  0  0  0  0  0  0  0  0  0  0
    1.9070   -2.8100    0.0000 H   0  0  0  0  0  0  0  0  0  0  0  0
    6.1200    1.4030    0.0000 H   0  0  0  0  0  0  0  0  0  0  0  0
    1.9070    2.8100    0.0000 H   0  0  0  0  0  0  0  0  0  0  0  0
    4.7130   -2.8100    0.0000 H   0  0  0  0  0  0  0  0  0  0  0  0
    3.3100   -3.6200    0.0000 H   0  0  0  0  0  0  0  0  0  0  0  0
    3.3100    3.6200    0.0000 H   0  0  0  0  0  0  0  0  0  0  0  0
    6.9300    0.0000    0.0000 H   0  0  0  0  0  0  0  0  0  0  0  0
  1  2  1  0  0  0  0
  1 27  1  0  0  0  0
  2  3  1  0  0  0  0
  2  4  1  0  0  0  0
  2  5  1  0  0  0  0
  3  8  2  0  0  0  0
  3 11  1  0  0  0  0
  4  7  2  0  0  0  0
  4 10  1  0  0  0  0
  5  6  2  0  0  0  0
  5  9  1  0  0  0  0
  6 14  1  0  0  0  0
  6 23  1  0  0  0  0
  7 13  1  0  0  0  0
  7 22  1  0  0  0  0
  8 12  1  0  0  0  0
  8 21  1  0  0  0  0
  9 17  2  0  0  0  0
  9 26  1  0  0  0  0
 10 16  2  0  0  0  0
 10 25  1  0  0  0  0
 11 15  2  0  0  0  0
 11 24  1  0  0  0  0
 12 18  2  0  0  0  0
 12 30  1  0  0  0  0
 13 19  2  0  0  0  0
 13 29  1  0  0  0  0
 14 20  2  0  0  0  0
 14 28  1  0  0  0  0
 15 18  1  0  0  0  0
 15 33  1  0  0  0  0
 16 19  1  0  0  0  0
 16 32  1  0  0  0  0
 17 20  1  0  0  0  0
 17 31  1  0  0  0  0
 18 34  1  0  0  0  0
 19 35  1  0  0  0  0
 20 36  1  0  0  0  0
M  END
> <PUBCHEM_COMPOUND_CID>
6457

> <PUBCHEM_COMPOUND_CANONICALIZED>
1

> <PUBCHEM_CACTVS_COMPLEXITY>
235

> <PUBCHEM_CACTVS_HBOND_ACCEPTOR>
1

> <PUBCHEM_CACTVS_HBOND_DONOR>
1

> <PUBCHEM_CACTVS_ROTATABLE_BOND>
3

> <PUBCHEM_CACTVS_SUBSKEYS>
AAADceB4IAAAAAAAAAAAAAAAAAAAAAAAAAAwYMAAAAAAAAABUAAAGgAACAAADESAmAAwAIAAAgCAAiBCAAACAAAgAAAIiAAACIgIJiKAERCAcAAkwAEImAeAwOAOgAAAAAAAAAAAAAAAAAAAAAAAAAAAAA==

> <PUBCHEM_IUPAC_OPENEYE_NAME>
triphenylmethanol

> <PUBCHEM_IUPAC_CAS_NAME>
triphenylmethanol

> <PUBCHEM_IUPAC_NAME>
triphenylmethanol

> <PUBCHEM_IUPAC_SYSTEMATIC_NAME>
triphenylmethanol

> <PUBCHEM_IUPAC_TRADITIONAL_NAME>
triphenylmethanol

> <PUBCHEM_IUPAC_INCHI>
InChI=1S/C19H16O/c20-19(16-10-4-1-5-11-16,17-12-6-2-7-13-17)18-14-8-3-9-15-18/h1-15,20H

> <PUBCHEM_IUPAC_INCHIKEY>
LZTRCELOJRDYMQ-UHFFFAOYSA-N

> <PUBCHEM_XLOGP3>
3.7

> <PUBCHEM_EXACT_MASS>
260.120115

> <PUBCHEM_MOLECULAR_FORMULA>
C19H16O

> <PUBCHEM_MOLECULAR_WEIGHT>
260.32974

> <PUBCHEM_OPENEYE_CAN_SMILES>
C1=CC=C(C=C1)C(C2=CC=CC=C2)(C3=CC=CC=C3)O

> <PUBCHEM_OPENEYE_ISO_SMILES>
C1=CC=C(C=C1)C(C2=CC=CC=C2)(C3=CC=CC=C3)O

> <PUBCHEM_CACTVS_TPSA>
20.2

> <PUBCHEM_MONOISOTOPIC_WEIGHT>
260.120115

> <PUBCHEM_TOTAL_CHARGE>
0

> <PUBCHEM_HEAVY_ATOM_COUNT>
20

> <PUBCHEM_ATOM_DEF_STEREO_COUNT>
0

> <PUBCHEM_ATOM_UDEF_STEREO_COUNT>
0

> <PUBCHEM_BOND_DEF_STEREO_COUNT>
0

> <PUBCHEM_BOND_UDEF_STEREO_COUNT>
0

> <PUBCHEM_ISOTOPIC_ATOM_COUNT>
0

> <PUBCHEM_COMPONENT_COUNT>
1

> <PUBCHEM_CACTVS_TAUTO_COUNT>
1

> <PUBCHEM_COORDINATE_TYPE>
1
5
255

> <PUBCHEM_BONDANNOTATIONS>
10  16  8
11  15  8
12  18  8
13  19  8
14  20  8
15  18  8
16  19  8
17  20  8
3  11  8
3  8  8
4  10  8
4  7  8
5  6  8
5  9  8
6  14  8
7  13  8
8  12  8
9  17  8

$$$$

