13490
  -OEChem-06261214433D

 60 61  0     0  0  0  0  0  0999 V2000
    1.5600    2.3061    1.2935 S   0  0  0  0  0  0  0  0  0  0  0  0
   -6.1081    0.6910   -0.9167 O   0  0  0  0  0  0  0  0  0  0  0  0
    5.6943   -1.6487    0.1026 O   0  0  0  0  0  0  0  0  0  0  0  0
   -0.9912    2.1598    0.6871 N   0  0  0  0  0  0  0  0  0  0  0  0
    0.4826    0.2825    0.0721 N   0  0  0  0  0  0  0  0  0  0  0  0
   -8.5885   -2.0667   -0.1328 C   0  0  0  0  0  0  0  0  0  0  0  0
    9.1596   -0.2802   -0.5744 C   0  0  0  0  0  0  0  0  0  0  0  0
   -8.0263   -0.6725   -0.4543 C   0  0  0  0  0  0  0  0  0  0  0  0
    8.0208   -1.0816    0.0766 C   0  0  0  0  0  0  0  0  0  0  0  0
   -6.5144   -0.6494   -0.6443 C   0  0  0  0  0  0  0  0  0  0  0  0
    6.6669   -0.8784   -0.5928 C   0  0  0  0  0  0  0  0  0  0  0  0
   -7.9645   -2.5929    1.1619 C   0  0  0  0  0  0  0  0  0  0  0  0
  -10.1127   -2.0657   -0.0084 C   0  0  0  0  0  0  0  0  0  0  0  0
    8.8458    1.2162   -0.5088 C   0  0  0  0  0  0  0  0  0  0  0  0
   10.5135   -0.5533    0.0823 C   0  0  0  0  0  0  0  0  0  0  0  0
   -4.8555    1.0504   -0.5246 C   0  0  0  0  0  0  0  0  0  0  0  0
    4.4095   -1.1727    0.0954 C   0  0  0  0  0  0  0  0  0  0  0  0
   -4.5895    2.3720   -0.1665 C   0  0  0  0  0  0  0  0  0  0  0  0
   -3.8379    0.0974   -0.4804 C   0  0  0  0  0  0  0  0  0  0  0  0
    3.5618   -1.4356    1.1716 C   0  0  0  0  0  0  0  0  0  0  0  0
    3.9493   -0.4250   -0.9885 C   0  0  0  0  0  0  0  0  0  0  0  0
   -2.2881    1.7875    0.2801 C   0  0  0  0  0  0  0  0  0  0  0  0
   -3.3058    2.7406    0.2358 C   0  0  0  0  0  0  0  0  0  0  0  0
   -2.5543    0.4660   -0.0781 C   0  0  0  0  0  0  0  0  0  0  0  0
    1.7939   -0.2028    0.0800 C   0  0  0  0  0  0  0  0  0  0  0  0
    2.2542   -0.9506    1.1639 C   0  0  0  0  0  0  0  0  0  0  0  0
    2.6415    0.0599   -0.9962 C   0  0  0  0  0  0  0  0  0  0  0  0
    0.1833    1.4469    0.5638 C   0  0  0  0  0  0  0  0  0  0  0  0
   -8.3202   -2.7513   -0.9475 H   0  0  0  0  0  0  0  0  0  0  0  0
    9.2359   -0.5702   -1.6300 H   0  0  0  0  0  0  0  0  0  0  0  0
   -8.3015    0.0379    0.3367 H   0  0  0  0  0  0  0  0  0  0  0  0
   -8.5016   -0.2873   -1.3659 H   0  0  0  0  0  0  0  0  0  0  0  0
    7.9390   -0.8257    1.1415 H   0  0  0  0  0  0  0  0  0  0  0  0
    8.2672   -2.1513    0.0553 H   0  0  0  0  0  0  0  0  0  0  0  0
   -6.0380   -1.0092    0.2734 H   0  0  0  0  0  0  0  0  0  0  0  0
   -6.2291   -1.2911   -1.4855 H   0  0  0  0  0  0  0  0  0  0  0  0
    6.7098   -1.2062   -1.6376 H   0  0  0  0  0  0  0  0  0  0  0  0
    6.4099    0.1850   -0.5502 H   0  0  0  0  0  0  0  0  0  0  0  0
   -8.4510   -3.5244    1.4730 H   0  0  0  0  0  0  0  0  0  0  0  0
   -6.9029   -2.8250    1.0368 H   0  0  0  0  0  0  0  0  0  0  0  0
   -8.0700   -1.8728    1.9805 H   0  0  0  0  0  0  0  0  0  0  0  0
  -10.4431   -1.4145    0.8080 H   0  0  0  0  0  0  0  0  0  0  0  0
  -10.5746   -1.7080   -0.9346 H   0  0  0  0  0  0  0  0  0  0  0  0
  -10.4906   -3.0748    0.1864 H   0  0  0  0  0  0  0  0  0  0  0  0
    9.7053    1.8053   -0.8482 H   0  0  0  0  0  0  0  0  0  0  0  0
    8.0096    1.4854   -1.1606 H   0  0  0  0  0  0  0  0  0  0  0  0
    8.6078    1.5326    0.5125 H   0  0  0  0  0  0  0  0  0  0  0  0
   10.7604   -1.6187    0.0273 H   0  0  0  0  0  0  0  0  0  0  0  0
   11.3121    0.0020   -0.4207 H   0  0  0  0  0  0  0  0  0  0  0  0
   10.5079   -0.2612    1.1379 H   0  0  0  0  0  0  0  0  0  0  0  0
   -5.3783    3.1186   -0.1988 H   0  0  0  0  0  0  0  0  0  0  0  0
   -3.9971   -0.9363   -0.7729 H   0  0  0  0  0  0  0  0  0  0  0  0
    3.9149   -2.0178    2.0182 H   0  0  0  0  0  0  0  0  0  0  0  0
    4.5664   -0.2224   -1.8588 H   0  0  0  0  0  0  0  0  0  0  0  0
   -3.1122    3.7739    0.5118 H   0  0  0  0  0  0  0  0  0  0  0  0
   -1.8086   -0.3185   -0.0429 H   0  0  0  0  0  0  0  0  0  0  0  0
    1.6008   -1.1639    2.0061 H   0  0  0  0  0  0  0  0  0  0  0  0
    2.2893    0.6345   -1.8491 H   0  0  0  0  0  0  0  0  0  0  0  0
   -0.9363    3.0977    1.0726 H   0  0  0  0  0  0  0  0  0  0  0  0
    0.8955    3.3828    1.7347 H   0  0  0  0  0  0  0  0  0  0  0  0
  1 28  1  0  0  0  0
  1 60  1  0  0  0  0
  2 10  1  0  0  0  0
  2 16  1  0  0  0  0
  3 11  1  0  0  0  0
  3 17  1  0  0  0  0
  4 22  1  0  0  0  0
  4 28  1  0  0  0  0
  4 59  1  0  0  0  0
  5 25  1  0  0  0  0
  5 28  2  0  0  0  0
  6  8  1  0  0  0  0
  6 12  1  0  0  0  0
  6 13  1  0  0  0  0
  6 29  1  0  0  0  0
  7  9  1  0  0  0  0
  7 14  1  0  0  0  0
  7 15  1  0  0  0  0
  7 30  1  0  0  0  0
  8 10  1  0  0  0  0
  8 31  1  0  0  0  0
  8 32  1  0  0  0  0
  9 11  1  0  0  0  0
  9 33  1  0  0  0  0
  9 34  1  0  0  0  0
 10 35  1  0  0  0  0
 10 36  1  0  0  0  0
 11 37  1  0  0  0  0
 11 38  1  0  0  0  0
 12 39  1  0  0  0  0
 12 40  1  0  0  0  0
 12 41  1  0  0  0  0
 13 42  1  0  0  0  0
 13 43  1  0  0  0  0
 13 44  1  0  0  0  0
 14 45  1  0  0  0  0
 14 46  1  0  0  0  0
 14 47  1  0  0  0  0
 15 48  1  0  0  0  0
 15 49  1  0  0  0  0
 15 50  1  0  0  0  0
 16 18  2  0  0  0  0
 16 19  1  0  0  0  0
 17 20  2  0  0  0  0
 17 21  1  0  0  0  0
 18 23  1  0  0  0  0
 18 51  1  0  0  0  0
 19 24  2  0  0  0  0
 19 52  1  0  0  0  0
 20 26  1  0  0  0  0
 20 53  1  0  0  0  0
 21 27  2  0  0  0  0
 21 54  1  0  0  0  0
 22 23  2  0  0  0  0
 22 24  1  0  0  0  0
 23 55  1  0  0  0  0
 24 56  1  0  0  0  0
 25 26  2  0  0  0  0
 25 27  1  0  0  0  0
 26 57  1  0  0  0  0
 27 58  1  0  0  0  0
M  END
> <PUBCHEM_COMPOUND_CID>
13490

> <PUBCHEM_CONFORMER_RMSD>
1.2

> <PUBCHEM_CONFORMER_DIVERSEORDER>
1
25
26
23
18
17
22
27
31
19
24
3
20
7
15
12
8
10
29
4
11
21
14
6
28
30
5
2
16
9
13

> <PUBCHEM_MMFF94_PARTIAL_CHARGES>
30
1 -0.32
10 0.28
11 0.28
16 0.08
17 0.08
18 -0.15
19 -0.15
2 -0.36
20 -0.15
21 -0.15
22 0.1
23 -0.15
24 -0.15
25 0.18
26 -0.15
27 -0.15
28 0.64
3 -0.36
4 -0.55
5 -0.63
51 0.15
52 0.15
53 0.15
54 0.15
55 0.15
56 0.15
57 0.15
58 0.15
59 0.4
60 0.18

> <PUBCHEM_EFFECTIVE_ROTOR_COUNT>
11

> <PUBCHEM_PHARMACOPHORE_FEATURES>
8
1 2 acceptor
1 3 acceptor
1 4 donor
3 4 5 28 cation
3 6 12 13 hydrophobe
3 7 14 15 hydrophobe
6 16 18 19 22 23 24 rings
6 17 20 21 25 26 27 rings

> <PUBCHEM_HEAVY_ATOM_COUNT>
28

> <PUBCHEM_ATOM_DEF_STEREO_COUNT>
0

> <PUBCHEM_ATOM_UDEF_STEREO_COUNT>
0

> <PUBCHEM_BOND_DEF_STEREO_COUNT>
0

> <PUBCHEM_BOND_UDEF_STEREO_COUNT>
0

> <PUBCHEM_ISOTOPIC_ATOM_COUNT>
0

> <PUBCHEM_COMPONENT_COUNT>
1

> <PUBCHEM_CACTVS_TAUTO_COUNT>
2

> <PUBCHEM_CONFORMER_ID>
000034B200000001

> <PUBCHEM_MMFF94_ENERGY>
96.1375

> <PUBCHEM_FEATURE_SELFOVERLAP>
40.594

> <PUBCHEM_SHAPE_FINGERPRINT>
10076449 9 18040152915858386834
10162869 55 17775845710358339542
11135609 99 18337673018967642751
11315181 36 18261111928250047593
11409948 8 18114474366632532488
11756154 67 18411138005533021671
12236239 1 18270118066958472536
12373685 5 14979960259353322008
13673619 4 18259706688566328417
14150023 24 10375871870210844640
14202775 3 18335416933415737582
14428016 86 10807939280098187869
15145343 36 17968381140090417334
15289351 153 12607415398984451692
15461852 350 18413105082810185588
16067689 302 18114178606500265960
17686467 74 18409454682531361232
18335252 98 17894629284364848198
18681886 176 18334864935132230176
20105231 36 17967535666065223510
21049683 271 18408324380652545808
21150785 3 18408887360886067428
21267235 1 18333734615709178025
21344244 246 18200589194571912548
21403212 168 10159699097293059104
21585481 151 18187363196031118103
21591340 7 18202285828072484994
21781055 127 14418398950115037777
22224240 67 17632573886571912666
23424782 7 18333735728105681880
23522609 53 18194369322525246561
23569917 315 18116709811512701270
23729398 52 18116716214359621056
335507 130 18040437685565565836
3525247 94 18270686485070712442
395649 100 17274816927139952651
4325135 7 18334859446496348212
439807 62 18272370867905946987
4461854 278 17458063742353610695
5104073 3 18113341904100752641
5381727 24 18410015481956238042
54039377 194 18334858307960574367
54583773 228 18341608184216255260
636775 8 18411417302692567215
67123 10 18342176670166178150
8863177 126 18338519617742004971
9962374 69 17895486825855817047
9980921 7 17774431687155946036
9995097 26 18408322181101080823

> <PUBCHEM_SHAPE_MULTIPOLES>
558.38
34.76
2.69
1.03
10.05
0.89
0.15
-24.01
-4.92
-4.91
0.76
0.1
-0.04
0.61

> <PUBCHEM_SHAPE_SELFOVERLAP>
1133.053

> <PUBCHEM_SHAPE_VOLUME>
328.6

> <PUBCHEM_COORDINATE_TYPE>
2
5
10

$$$$

