4861
  -OEChem-06261200233D

 52 54  0     1  0  0  0  0  0999 V2000
   -2.4158    2.3456    0.7041 O   0  0  0  0  0  0  0  0  0  0  0  0
   -0.3019   -1.8949   -1.9711 O   0  0  0  0  0  0  0  0  0  0  0  0
    1.9074   -2.1666   -0.8877 O   0  0  0  0  0  0  0  0  0  0  0  0
   -4.5078    0.9040   -0.7017 O   0  0  0  0  0  0  0  0  0  0  0  0
   -3.2585   -1.9652   -0.3297 O   0  0  0  0  0  0  0  0  0  0  0  0
   -5.6205   -0.2659    1.8785 O   0  0  0  0  0  0  0  0  0  0  0  0
    4.1920   -2.3501    0.2016 O   0  0  0  0  0  0  0  0  0  0  0  0
   -1.6512    1.4380   -1.3530 C   0  0  1  0  0  0  0  0  0  0  0  0
   -0.3310    2.2085   -1.2568 C   0  0  0  0  0  0  0  0  0  0  0  0
   -1.4682    0.1804   -2.2004 C   0  0  0  0  0  0  0  0  0  0  0  0
   -2.2328    1.1149    0.0281 C   0  0  2  0  0  0  0  0  0  0  0  0
    0.8177    1.3402   -0.8183 C   0  0  0  0  0  0  0  0  0  0  0  0
    0.8298   -0.0388   -1.0567 C   0  0  0  0  0  0  0  0  0  0  0  0
   -0.3172   -0.6888   -1.7407 C   0  0  0  0  0  0  0  0  0  0  0  0
   -3.5697    0.3967   -0.0822 C   0  0  0  0  0  0  0  0  0  0  0  0
    1.9269    1.9311   -0.1950 C   0  0  0  0  0  0  0  0  0  0  0  0
    1.9216   -0.8188   -0.6544 C   0  0  0  0  0  0  0  0  0  0  0  0
   -3.7142   -0.9740    0.5825 C   0  0  1  0  0  0  0  0  0  0  0  0
    3.0303    1.1636    0.2135 C   0  0  0  0  0  0  0  0  0  0  0  0
    3.0262   -0.2304   -0.0174 C   0  0  0  0  0  0  0  0  0  0  0  0
   -5.1583   -1.2819    0.9890 C   0  0  1  0  0  0  0  0  0  0  0  0
    4.1297   -0.9972    0.3924 C   0  0  0  0  0  0  0  0  0  0  0  0
    4.1378    1.7522    0.8460 C   0  0  0  0  0  0  0  0  0  0  0  0
   -2.9325    2.1543    2.0163 C   0  0  0  0  0  0  0  0  0  0  0  0
    5.2212   -0.3970    1.0204 C   0  0  0  0  0  0  0  0  0  0  0  0
    5.2254    0.9758    1.2465 C   0  0  0  0  0  0  0  0  0  0  0  0
   -5.2857   -2.6314    1.6877 C   0  0  0  0  0  0  0  0  0  0  0  0
    6.3994   -1.2042    1.4583 C   0  0  0  0  0  0  0  0  0  0  0  0
   -2.3640    2.0950   -1.8714 H   0  0  0  0  0  0  0  0  0  0  0  0
   -0.4347    3.0699   -0.5867 H   0  0  0  0  0  0  0  0  0  0  0  0
   -0.0786    2.6114   -2.2467 H   0  0  0  0  0  0  0  0  0  0  0  0
   -1.2446    0.4694   -3.2356 H   0  0  0  0  0  0  0  0  0  0  0  0
   -2.3799   -0.4210   -2.2373 H   0  0  0  0  0  0  0  0  0  0  0  0
   -1.5368    0.4917    0.6014 H   0  0  0  0  0  0  0  0  0  0  0  0
    1.9271    3.0069   -0.0237 H   0  0  0  0  0  0  0  0  0  0  0  0
   -3.0728   -0.9866    1.4708 H   0  0  0  0  0  0  0  0  0  0  0  0
   -5.8102   -1.2794    0.1071 H   0  0  0  0  0  0  0  0  0  0  0  0
    4.1622    2.8238    1.0332 H   0  0  0  0  0  0  0  0  0  0  0  0
   -3.9949    1.9010    1.9873 H   0  0  0  0  0  0  0  0  0  0  0  0
   -2.8360    3.1023    2.5536 H   0  0  0  0  0  0  0  0  0  0  0  0
   -2.3660    1.3944    2.5638 H   0  0  0  0  0  0  0  0  0  0  0  0
    6.0673    1.4607    1.7337 H   0  0  0  0  0  0  0  0  0  0  0  0
   -4.6781   -2.6576    2.5991 H   0  0  0  0  0  0  0  0  0  0  0  0
   -6.3220   -2.8060    1.9969 H   0  0  0  0  0  0  0  0  0  0  0  0
   -4.9782   -3.4548    1.0363 H   0  0  0  0  0  0  0  0  0  0  0  0
    2.8070   -2.5267   -0.8845 H   0  0  0  0  0  0  0  0  0  0  0  0
   -3.8834   -1.9974   -1.0742 H   0  0  0  0  0  0  0  0  0  0  0  0
    6.8853   -1.6803    0.5999 H   0  0  0  0  0  0  0  0  0  0  0  0
    7.1568   -0.5792    1.9450 H   0  0  0  0  0  0  0  0  0  0  0  0
    6.1012   -1.9645    2.1881 H   0  0  0  0  0  0  0  0  0  0  0  0
   -6.5463   -0.4667    2.0981 H   0  0  0  0  0  0  0  0  0  0  0  0
    5.0277   -2.7342    0.5042 H   0  0  0  0  0  0  0  0  0  0  0  0
  1 11  1  0  0  0  0
  1 24  1  0  0  0  0
  2 14  2  0  0  0  0
  3 17  1  0  0  0  0
  3 46  1  0  0  0  0
  4 15  2  0  0  0  0
  5 18  1  0  0  0  0
  5 47  1  0  0  0  0
  6 21  1  0  0  0  0
  6 51  1  0  0  0  0
  7 22  1  0  0  0  0
  7 52  1  0  0  0  0
  8  9  1  0  0  0  0
  8 10  1  0  0  0  0
  8 11  1  0  0  0  0
  8 29  1  0  0  0  0
  9 12  1  0  0  0  0
  9 30  1  0  0  0  0
  9 31  1  0  0  0  0
 10 14  1  0  0  0  0
 10 32  1  0  0  0  0
 10 33  1  0  0  0  0
 11 15  1  0  0  0  0
 11 34  1  0  0  0  0
 12 13  2  0  0  0  0
 12 16  1  0  0  0  0
 13 14  1  0  0  0  0
 13 17  1  0  0  0  0
 15 18  1  0  0  0  0
 16 19  2  0  0  0  0
 16 35  1  0  0  0  0
 17 20  2  0  0  0  0
 18 21  1  0  0  0  0
 18 36  1  0  0  0  0
 19 20  1  0  0  0  0
 19 23  1  0  0  0  0
 20 22  1  0  0  0  0
 21 27  1  0  0  0  0
 21 37  1  0  0  0  0
 22 25  2  0  0  0  0
 23 26  2  0  0  0  0
 23 38  1  0  0  0  0
 24 39  1  0  0  0  0
 24 40  1  0  0  0  0
 24 41  1  0  0  0  0
 25 26  1  0  0  0  0
 25 28  1  0  0  0  0
 26 42  1  0  0  0  0
 27 43  1  0  0  0  0
 27 44  1  0  0  0  0
 27 45  1  0  0  0  0
 28 48  1  0  0  0  0
 28 49  1  0  0  0  0
 28 50  1  0  0  0  0
M  END
> <PUBCHEM_COMPOUND_CID>
4861

> <PUBCHEM_CONFORMER_RMSD>
0.8

> <PUBCHEM_CONFORMER_DIVERSEORDER>
1
106
198
193
96
184
181
124
75
171
183
156
188
134
179
31
157
196
13
141
145
121
77
194
126
105
150
102
147
125
3
114
39
47
176
80
28
23
186
10
127
22
136
170
155
169
163
67
72
133
118
2
167
131
24
56
49
11
191
26
29
45
174
160
38
158
97
138
190
82
6
48
30
192
32
175
46
66
116
122
148
12
109
8
55
7
37
5
161
162
25
9
168
57
65
81
92
87
152
112
59
108
63
123
18
135
64
146
103
4
132
140
14
185
197
88
33
27
111
178
36
19
16
74
128
130
139
73
41
60
35
86
137
144
153
151
113
61
76
43
187
172
69
115
40
42
195
100
91
70
58
85
94
189
99
78
95
71
143
199
83
17
51
110
107
62
54
154
177
180
173
93
84
129
52
20
90
182
21
50
101
53
166
68
120
98
164
165
117
15
142
34
79
149
44
119
89
159
104

> <PUBCHEM_MMFF94_PARTIAL_CHARGES>
31
1 -0.56
10 0.06
11 0.34
12 -0.14
13 0.09
14 0.42
15 0.45
16 -0.15
17 0.08
18 0.34
2 -0.57
21 0.28
22 0.08
23 -0.15
24 0.28
25 -0.14
26 -0.15
28 0.14
3 -0.53
35 0.15
38 0.15
4 -0.57
42 0.15
46 0.45
47 0.4
5 -0.68
51 0.4
52 0.45
6 -0.68
7 -0.53
9 0.14

> <PUBCHEM_EFFECTIVE_ROTOR_COUNT>
5.6

> <PUBCHEM_PHARMACOPHORE_FEATURES>
12
1 1 acceptor
1 2 acceptor
1 3 donor
1 4 acceptor
1 5 acceptor
1 5 donor
1 6 acceptor
1 6 donor
1 7 donor
6 12 13 16 17 19 20 rings
6 19 20 22 23 25 26 rings
6 8 9 10 12 13 14 rings

> <PUBCHEM_HEAVY_ATOM_COUNT>
28

> <PUBCHEM_ATOM_DEF_STEREO_COUNT>
0

> <PUBCHEM_ATOM_UDEF_STEREO_COUNT>
4

> <PUBCHEM_BOND_DEF_STEREO_COUNT>
0

> <PUBCHEM_BOND_UDEF_STEREO_COUNT>
0

> <PUBCHEM_ISOTOPIC_ATOM_COUNT>
0

> <PUBCHEM_COMPONENT_COUNT>
1

> <PUBCHEM_CACTVS_TAUTO_COUNT>
700

> <PUBCHEM_CONFORMER_ID>
000012FD00000001

> <PUBCHEM_MMFF94_ENERGY>
83.3216

> <PUBCHEM_FEATURE_SELFOVERLAP>
60.959

> <PUBCHEM_SHAPE_FINGERPRINT>
10498660 4 6194568762501916387
105312 117 5689589511240150532
11552529 35 18261684674738910966
11796584 16 17417541314030222877
11961588 58 6555412011310919943
12363563 72 16988555784618438197
12422481 6 18333450945402948510
12596602 18 18343024371924352816
12633257 1 18341038726812490785
12892183 10 18334010613990728032
13140716 1 17828492362114453308
13583140 156 18340782531991925676
13782708 43 16988293087866467866
13944108 23 8642891977454058651
14178342 30 18337658832553649981
14341114 176 18408039615450369464
14341114 328 17095519569992306385
14790565 3 17765713521382540164
14848178 5 17060339595770754635
14931854 50 9943538388079312467
14950920 106 18408605850842815243
14955137 171 18334576876207985996
15183329 4 11383840376303107531
15188451 53 17988648454493521699
15210252 30 6338957771944309170
15238133 3 16153428312284465864
15575132 122 5689051799190015419
15880784 105 17846780697917295208
16752209 62 12678922098846959869
17349148 13 14979959193805740625
17492 54 9943539487738359991
17959699 21 7709457242966867884
1813 80 16917349212226656799
1979834 28 17970041432302192767
19862831 5 10519983777173733804
20261772 1 18261398814958741764
20739085 24 18413394220457419604
20775438 99 13250548101365799563
21304304 249 18059574646603033619
21756936 100 15647059248228524230
23559900 14 18060427940281572045
23569914 152 10444888254299609296
2838139 119 6483088318506126019
3027735 51 14907358454330638681
392239 28 17749673982788522737
4098825 35 7925912594947280605
46194498 28 9078526232077041179
463206 1 16629956617355269683
5104073 3 18336553819362626544
6371380 46 17398658494756350653
7808743 9 5328746262182707451
8863177 126 18272090552212197674
9981440 41 17459470147027903361

> <PUBCHEM_SHAPE_MULTIPOLES>
535.14
12.91
2.69
1.9
2.33
0.35
0.12
6.59
-9.34
-1.09
-0.41
-1.22
0.01
0.75

> <PUBCHEM_SHAPE_SELFOVERLAP>
1159.876

> <PUBCHEM_SHAPE_VOLUME>
291.3

> <PUBCHEM_COORDINATE_TYPE>
2
5
10

$$$$

