5187
  -OEChem-06261200342D

106114  0     1  0  0  0  0  0999 V2000
   12.3932   -4.4601    0.0000 O   0  0  0  0  0  0  0  0  0  0  0  0
   13.8535   -3.2956    0.0000 O   0  0  0  0  0  0  0  0  0  0  0  0
   10.5723   -0.6789    0.0000 O   0  0  0  0  0  0  0  0  0  0  0  0
    6.2619   -1.4957    0.0000 O   0  0  0  0  0  0  0  0  0  0  0  0
   14.0163    2.9562    0.0000 O   0  0  0  0  0  0  0  0  0  0  0  0
   10.7619   -2.3617    0.0000 N   0  0  0  0  0  0  0  0  0  0  0  0
   12.1707   -1.2382    0.0000 N   0  0  0  0  0  0  0  0  0  0  0  0
    6.2619    0.2364    0.0000 N   0  0  0  0  0  0  0  0  0  0  0  0
   15.7050    2.5708    0.0000 N   0  0  0  0  0  0  0  0  0  0  0  0
    4.6783    1.0411    0.0000 N   0  0  0  0  0  0  0  0  0  0  0  0
   15.2728    4.2938    0.0000 N   0  0  0  0  0  0  0  0  0  0  0  0
    4.6783   -0.5684    0.0000 N   0  0  0  0  0  0  0  0  0  0  0  0
   16.8419    3.9357    0.0000 N   0  0  0  0  0  0  0  0  0  0  0  0
   12.9525   -1.8617    0.0000 C   0  0  3  0  0  0  0  0  0  0  0  0
   11.1958   -3.2627    0.0000 C   0  0  3  0  0  0  0  0  0  0  0  0
   12.9525   -2.8617    0.0000 C   0  0  3  0  0  0  0  0  0  0  0  0
   12.1707   -3.4852    0.0000 C   0  0  3  0  0  0  0  0  0  0  0  0
   10.5723   -4.0445    0.0000 C   0  0  0  0  0  0  0  0  0  0  0  0
   13.8535   -1.4278    0.0000 C   0  0  0  0  0  0  0  0  0  0  0  0
   11.1958   -1.4607    0.0000 C   0  0  0  0  0  0  0  0  0  0  0  0
    9.7619   -2.3617    0.0000 C   0  0  0  0  0  0  0  0  0  0  0  0
   12.3932   -0.2633    0.0000 C   0  0  0  0  0  0  0  0  0  0  0  0
   10.9376   -4.9754    0.0000 C   0  0  0  0  0  0  0  0  0  0  0  0
   14.6797   -1.9911    0.0000 C   0  0  0  0  0  0  0  0  0  0  0  0
    9.2619   -1.4957    0.0000 C   0  0  0  0  0  0  0  0  0  0  0  0
   13.3488    0.0315    0.0000 C   0  0  0  0  0  0  0  0  0  0  0  0
   14.6050   -2.9883    0.0000 C   0  0  0  0  0  0  0  0  0  0  0  0
   10.3141   -5.7572    0.0000 C   0  0  0  0  0  0  0  0  0  0  0  0
   15.5807   -1.5572    0.0000 C   0  0  0  0  0  0  0  0  0  0  0  0
   11.9264   -5.1244    0.0000 C   0  0  0  0  0  0  0  0  0  0  0  0
    8.2619   -1.4957    0.0000 C   0  0  0  0  0  0  0  0  0  0  0  0
   13.5713    1.0064    0.0000 C   0  0  0  0  0  0  0  0  0  0  0  0
    9.7619   -0.6297    0.0000 C   0  0  0  0  0  0  0  0  0  0  0  0
   14.0818   -0.6487    0.0000 C   0  0  0  0  0  0  0  0  0  0  0  0
   15.4312   -3.5517    0.0000 C   0  0  0  0  0  0  0  0  0  0  0  0
   10.6795   -6.6881    0.0000 C   0  0  0  0  0  0  0  0  0  0  0  0
   16.4069   -2.1206    0.0000 C   0  0  0  0  0  0  0  0  0  0  0  0
   12.2918   -6.0553    0.0000 C   0  0  0  0  0  0  0  0  0  0  0  0
   14.5269    1.3012    0.0000 C   0  0  0  0  0  0  0  0  0  0  0  0
    7.7619   -0.6297    0.0000 C   0  0  0  0  0  0  0  0  0  0  0  0
   11.6683   -6.8371    0.0000 C   0  0  0  0  0  0  0  0  0  0  0  0
   16.3322   -3.1178    0.0000 C   0  0  0  0  0  0  0  0  0  0  0  0
    9.2619    0.2364    0.0000 C   0  0  0  0  0  0  0  0  0  0  0  0
   15.0374   -0.3539    0.0000 C   0  0  0  0  0  0  0  0  0  0  0  0
    8.2619    0.2364    0.0000 C   0  0  0  0  0  0  0  0  0  0  0  0
   15.2599    0.6210    0.0000 C   0  0  0  0  0  0  0  0  0  0  0  0
   14.7494    2.2761    0.0000 C   0  0  0  0  0  0  0  0  0  0  0  0
    6.7619   -0.6297    0.0000 C   0  0  0  0  0  0  0  0  0  0  0  0
    5.2619    0.2364    0.0000 C   0  0  0  0  0  0  0  0  0  0  0  0
   15.9275    3.5458    0.0000 C   0  0  0  0  0  0  0  0  0  0  0  0
    3.7320    0.7364    0.0000 C   0  0  0  0  0  0  0  0  0  0  0  0
   15.7804    5.1485    0.0000 C   0  0  0  0  0  0  0  0  0  0  0  0
    3.7320   -0.2636    0.0000 C   0  0  0  0  0  0  0  0  0  0  0  0
   16.7554    4.9260    0.0000 C   0  0  0  0  0  0  0  0  0  0  0  0
   15.4857    6.1041    0.0000 C   0  0  0  0  0  0  0  0  0  0  0  0
    2.8660    1.2364    0.0000 C   0  0  0  0  0  0  0  0  0  0  0  0
    2.8660   -0.7636    0.0000 C   0  0  0  0  0  0  0  0  0  0  0  0
   17.4355    5.6590    0.0000 C   0  0  0  0  0  0  0  0  0  0  0  0
    2.0000    0.7364    0.0000 C   0  0  0  0  0  0  0  0  0  0  0  0
   16.1659    6.8371    0.0000 C   0  0  0  0  0  0  0  0  0  0  0  0
    2.0000   -0.2636    0.0000 C   0  0  0  0  0  0  0  0  0  0  0  0
   17.1408    6.6146    0.0000 C   0  0  0  0  0  0  0  0  0  0  0  0
   10.5797   -3.1932    0.0000 H   0  0  0  0  0  0  0  0  0  0  0  0
   13.0219   -1.2456    0.0000 H   0  0  0  0  0  0  0  0  0  0  0  0
   11.7323   -3.9236    0.0000 H   0  0  0  0  0  0  0  0  0  0  0  0
   13.4775   -2.5318    0.0000 H   0  0  0  0  0  0  0  0  0  0  0  0
   10.1620   -3.5796    0.0000 H   0  0  0  0  0  0  0  0  0  0  0  0
   10.0432   -4.3678    0.0000 H   0  0  0  0  0  0  0  0  0  0  0  0
   14.2864   -0.9840    0.0000 H   0  0  0  0  0  0  0  0  0  0  0  0
   13.4916   -0.9244    0.0000 H   0  0  0  0  0  0  0  0  0  0  0  0
    9.1793   -2.5738    0.0000 H   0  0  0  0  0  0  0  0  0  0  0  0
    9.8695   -2.9723    0.0000 H   0  0  0  0  0  0  0  0  0  0  0  0
   12.3161    0.3519    0.0000 H   0  0  0  0  0  0  0  0  0  0  0  0
   11.7740   -0.2324    0.0000 H   0  0  0  0  0  0  0  0  0  0  0  0
   12.9857   -4.6429    0.0000 H   0  0  0  0  0  0  0  0  0  0  0  0
   13.8998   -3.9138    0.0000 H   0  0  0  0  0  0  0  0  0  0  0  0
   14.0464   -3.2574    0.0000 H   0  0  0  0  0  0  0  0  0  0  0  0
    9.7010   -5.6648    0.0000 H   0  0  0  0  0  0  0  0  0  0  0  0
   15.6270   -0.9390    0.0000 H   0  0  0  0  0  0  0  0  0  0  0  0
   12.3130   -4.6397    0.0000 H   0  0  0  0  0  0  0  0  0  0  0  0
   13.1168    1.4281    0.0000 H   0  0  0  0  0  0  0  0  0  0  0  0
    7.9519   -2.0326    0.0000 H   0  0  0  0  0  0  0  0  0  0  0  0
   13.9439   -1.2532    0.0000 H   0  0  0  0  0  0  0  0  0  0  0  0
   10.3819   -0.6297    0.0000 H   0  0  0  0  0  0  0  0  0  0  0  0
   10.2929   -7.1728    0.0000 H   0  0  0  0  0  0  0  0  0  0  0  0
   15.3849   -4.1699    0.0000 H   0  0  0  0  0  0  0  0  0  0  0  0
   12.9049   -6.1477    0.0000 H   0  0  0  0  0  0  0  0  0  0  0  0
   16.9655   -1.8516    0.0000 H   0  0  0  0  0  0  0  0  0  0  0  0
   11.8948   -7.4143    0.0000 H   0  0  0  0  0  0  0  0  0  0  0  0
   16.8445   -3.4670    0.0000 H   0  0  0  0  0  0  0  0  0  0  0  0
    9.5719    0.7733    0.0000 H   0  0  0  0  0  0  0  0  0  0  0  0
   15.4919   -0.7757    0.0000 H   0  0  0  0  0  0  0  0  0  0  0  0
    7.9519    0.7733    0.0000 H   0  0  0  0  0  0  0  0  0  0  0  0
   15.8524    0.8037    0.0000 H   0  0  0  0  0  0  0  0  0  0  0  0
    6.5719    0.7733    0.0000 H   0  0  0  0  0  0  0  0  0  0  0  0
   16.1595    2.1491    0.0000 H   0  0  0  0  0  0  0  0  0  0  0  0
    4.8709    1.6304    0.0000 H   0  0  0  0  0  0  0  0  0  0  0  0
   14.6554    4.2372    0.0000 H   0  0  0  0  0  0  0  0  0  0  0  0
    2.8660    1.8564    0.0000 H   0  0  0  0  0  0  0  0  0  0  0  0
   14.8812    6.2420    0.0000 H   0  0  0  0  0  0  0  0  0  0  0  0
   18.0400    5.5211    0.0000 H   0  0  0  0  0  0  0  0  0  0  0  0
    2.8660   -1.3836    0.0000 H   0  0  0  0  0  0  0  0  0  0  0  0
    1.4631    1.0464    0.0000 H   0  0  0  0  0  0  0  0  0  0  0  0
   15.9831    7.4296    0.0000 H   0  0  0  0  0  0  0  0  0  0  0  0
    1.4631   -0.5736    0.0000 H   0  0  0  0  0  0  0  0  0  0  0  0
   17.5625    7.0691    0.0000 H   0  0  0  0  0  0  0  0  0  0  0  0
  1 17  1  0  0  0  0
  1 75  1  0  0  0  0
  2 16  1  0  0  0  0
  2 76  1  0  0  0  0
  3 20  2  0  0  0  0
  4 48  2  0  0  0  0
  5 47  2  0  0  0  0
  6 15  1  0  0  0  0
  6 20  1  0  0  0  0
  6 21  1  0  0  0  0
  7 14  1  0  0  0  0
  7 20  1  0  0  0  0
  7 22  1  0  0  0  0
  8 48  1  0  0  0  0
  8 49  1  0  0  0  0
  8 95  1  0  0  0  0
  9 47  1  0  0  0  0
  9 50  1  0  0  0  0
  9 96  1  0  0  0  0
 10 49  1  0  0  0  0
 10 51  1  0  0  0  0
 10 97  1  0  0  0  0
 11 50  1  0  0  0  0
 11 52  1  0  0  0  0
 11 98  1  0  0  0  0
 12 49  2  0  0  0  0
 12 53  1  0  0  0  0
 13 50  2  0  0  0  0
 13 54  1  0  0  0  0
 14 16  1  0  0  0  0
 14 19  1  0  0  0  0
 14 64  1  0  0  0  0
 15 17  1  0  0  0  0
 15 18  1  0  0  0  0
 15 63  1  0  0  0  0
 16 17  1  0  0  0  0
 16 66  1  0  0  0  0
 17 65  1  0  0  0  0
 18 23  1  0  0  0  0
 18 67  1  0  0  0  0
 18 68  1  0  0  0  0
 19 24  1  0  0  0  0
 19 69  1  0  0  0  0
 19 70  1  0  0  0  0
 21 25  1  0  0  0  0
 21 71  1  0  0  0  0
 21 72  1  0  0  0  0
 22 26  1  0  0  0  0
 22 73  1  0  0  0  0
 22 74  1  0  0  0  0
 23 28  2  0  0  0  0
 23 30  1  0  0  0  0
 24 27  2  0  0  0  0
 24 29  1  0  0  0  0
 25 31  2  0  0  0  0
 25 33  1  0  0  0  0
 26 32  2  0  0  0  0
 26 34  1  0  0  0  0
 27 35  1  0  0  0  0
 27 77  1  0  0  0  0
 28 36  1  0  0  0  0
 28 78  1  0  0  0  0
 29 37  2  0  0  0  0
 29 79  1  0  0  0  0
 30 38  2  0  0  0  0
 30 80  1  0  0  0  0
 31 40  1  0  0  0  0
 31 82  1  0  0  0  0
 32 39  1  0  0  0  0
 32 81  1  0  0  0  0
 33 43  2  0  0  0  0
 33 84  1  0  0  0  0
 34 44  2  0  0  0  0
 34 83  1  0  0  0  0
 35 42  2  0  0  0  0
 35 86  1  0  0  0  0
 36 41  2  0  0  0  0
 36 85  1  0  0  0  0
 37 42  1  0  0  0  0
 37 88  1  0  0  0  0
 38 41  1  0  0  0  0
 38 87  1  0  0  0  0
 39 46  2  0  0  0  0
 39 47  1  0  0  0  0
 40 45  2  0  0  0  0
 40 48  1  0  0  0  0
 41 89  1  0  0  0  0
 42 90  1  0  0  0  0
 43 45  1  0  0  0  0
 43 91  1  0  0  0  0
 44 46  1  0  0  0  0
 44 92  1  0  0  0  0
 45 93  1  0  0  0  0
 46 94  1  0  0  0  0
 51 53  1  0  0  0  0
 51 56  2  0  0  0  0
 52 54  1  0  0  0  0
 52 55  2  0  0  0  0
 53 57  2  0  0  0  0
 54 58  2  0  0  0  0
 55 60  1  0  0  0  0
 55100  1  0  0  0  0
 56 59  1  0  0  0  0
 56 99  1  0  0  0  0
 57 61  1  0  0  0  0
 57102  1  0  0  0  0
 58 62  1  0  0  0  0
 58101  1  0  0  0  0
 59 61  2  0  0  0  0
 59103  1  0  0  0  0
 60 62  2  0  0  0  0
 60104  1  0  0  0  0
 61105  1  0  0  0  0
 62106  1  0  0  0  0
M  END
> <PUBCHEM_COMPOUND_CID>
5187

> <PUBCHEM_COMPOUND_CANONICALIZED>
1

> <PUBCHEM_CACTVS_COMPLEXITY>
1390

> <PUBCHEM_CACTVS_HBOND_ACCEPTOR>
7

> <PUBCHEM_CACTVS_HBOND_DONOR>
6

> <PUBCHEM_CACTVS_ROTATABLE_BOND>
12

> <PUBCHEM_CACTVS_SUBSKEYS>
AAADcfB/+AAAAAAAAAAAAAAAAAAAAWLAAAAwYMGDBYAAAFgB/gAAHgAQCAAADDzhngYx0LfJkgCoAyVydACCgC2lEqAJmSE4dNiLeLLAnZGUYQhulwLZyaeYyfCOAAACAAAAACAAAAQAAAAAQAAAAAAAAA==

> <PUBCHEM_IUPAC_OPENEYE_NAME>
N-(1H-benzimidazol-2-yl)-3-[[3-[[3-(1H-benzimidazol-2-ylcarbamoyl)phenyl]methyl]-4,7-dibenzyl-5,6-dihydroxy-2-oxo-1,3-diazepan-1-yl]methyl]benzamide

> <PUBCHEM_IUPAC_CAS_NAME>
N-(1H-benzimidazol-2-yl)-3-[[3-[[3-[(1H-benzimidazol-2-ylamino)-oxomethyl]phenyl]methyl]-5,6-dihydroxy-2-oxo-4,7-bis(phenylmethyl)-1,3-diazepan-1-yl]methyl]benzamide

> <PUBCHEM_IUPAC_NAME>
N-(1H-benzimidazol-2-yl)-3-[[3-[[3-(1H-benzimidazol-2-ylcarbamoyl)phenyl]methyl]-4,7-dibenzyl-5,6-dihydroxy-2-oxo-1,3-diazepan-1-yl]methyl]benzamide

> <PUBCHEM_IUPAC_SYSTEMATIC_NAME>
N-(1H-benzimidazol-2-yl)-3-[[3-[[3-(1H-benzimidazol-2-ylcarbamoyl)phenyl]methyl]-5,6-bis(oxidanyl)-2-oxidanylidene-4,7-bis(phenylmethyl)-1,3-diazepan-1-yl]methyl]benzamide

> <PUBCHEM_IUPAC_TRADITIONAL_NAME>
N-(1H-benzimidazol-2-yl)-3-[[3-[3-(1H-benzimidazol-2-ylcarbamoyl)benzyl]-4,7-dibenzyl-5,6-dihydroxy-2-keto-1,3-diazepan-1-yl]methyl]benzamide

> <PUBCHEM_IUPAC_INCHI>
InChI=1S/C49H44N8O5/c58-43-41(27-31-13-3-1-4-14-31)56(29-33-17-11-19-35(25-33)45(60)54-47-50-37-21-7-8-22-38(37)51-47)49(62)57(42(44(43)59)28-32-15-5-2-6-16-32)30-34-18-12-20-36(26-34)46(61)55-48-52-39-23-9-10-24-40(39)53-48/h1-26,41-44,58-59H,27-30H2,(H2,50,51,54,60)(H2,52,53,55,61)

> <PUBCHEM_IUPAC_INCHIKEY>
UWSVAGUSMAEUKO-UHFFFAOYSA-N

> <PUBCHEM_XLOGP3_AA>
6.8

> <PUBCHEM_EXACT_MASS>
824.343467

> <PUBCHEM_MOLECULAR_FORMULA>
C49H44N8O5

> <PUBCHEM_MOLECULAR_WEIGHT>
824.92426

> <PUBCHEM_OPENEYE_CAN_SMILES>
C1=CC=C(C=C1)CC2C(C(C(N(C(=O)N2CC3=CC=CC(=C3)C(=O)NC4=NC5=CC=CC=C5N4)CC6=CC=CC(=C6)C(=O)NC7=NC8=CC=CC=C8N7)CC9=CC=CC=C9)O)O

> <PUBCHEM_OPENEYE_ISO_SMILES>
C1=CC=C(C=C1)CC2C(C(C(N(C(=O)N2CC3=CC=CC(=C3)C(=O)NC4=NC5=CC=CC=C5N4)CC6=CC=CC(=C6)C(=O)NC7=NC8=CC=CC=C8N7)CC9=CC=CC=C9)O)O

> <PUBCHEM_CACTVS_TPSA>
180

> <PUBCHEM_MONOISOTOPIC_WEIGHT>
824.343467

> <PUBCHEM_TOTAL_CHARGE>
0

> <PUBCHEM_HEAVY_ATOM_COUNT>
62

> <PUBCHEM_ATOM_DEF_STEREO_COUNT>
0

> <PUBCHEM_ATOM_UDEF_STEREO_COUNT>
4

> <PUBCHEM_BOND_DEF_STEREO_COUNT>
0

> <PUBCHEM_BOND_UDEF_STEREO_COUNT>
0

> <PUBCHEM_ISOTOPIC_ATOM_COUNT>
0

> <PUBCHEM_COMPONENT_COUNT>
1

> <PUBCHEM_CACTVS_TAUTO_COUNT>
6

> <PUBCHEM_COORDINATE_TYPE>
1
5
255

> <PUBCHEM_BONDANNOTATIONS>
17  1  3
10  49  8
10  51  8
11  50  8
11  52  8
12  49  8
12  53  8
13  50  8
13  54  8
14  19  3
15  18  3
16  2  3
23  28  8
23  30  8
24  27  8
24  29  8
25  31  8
25  33  8
26  32  8
26  34  8
27  35  8
28  36  8
29  37  8
30  38  8
31  40  8
32  39  8
33  43  8
34  44  8
35  42  8
36  41  8
37  42  8
38  41  8
39  46  8
40  45  8
43  45  8
44  46  8
51  53  8
51  56  8
52  54  8
52  55  8
53  57  8
54  58  8
55  60  8
56  59  8
57  61  8
58  62  8
59  61  8
60  62  8

$$$$

