51090945
  -OEChem-06241223013D

 51 54  0     0  0  0  0  0  0999 V2000
   -0.7738    3.2112   -0.4344 O   0  0  0  0  0  0  0  0  0  0  0  0
    4.1345   -0.4662   -0.1361 N   0  0  0  0  0  0  0  0  0  0  0  0
    0.4467    1.4716    0.5409 N   0  0  0  0  0  0  0  0  0  0  0  0
   -2.5436    0.6293    0.8571 N   0  0  0  0  0  0  0  0  0  0  0  0
    3.0299    0.1755    0.5764 C   0  0  0  0  0  0  0  0  0  0  0  0
    2.8607    1.6225    0.0927 C   0  0  0  0  0  0  0  0  0  0  0  0
    1.7341   -0.6203    0.3651 C   0  0  0  0  0  0  0  0  0  0  0  0
    5.3615    0.3323   -0.0079 C   0  0  0  0  0  0  0  0  0  0  0  0
    4.3378   -1.8356    0.3570 C   0  0  0  0  0  0  0  0  0  0  0  0
    0.5495    0.0870    1.0211 C   0  0  0  0  0  0  0  0  0  0  0  0
    1.6475    2.2811    0.7486 C   0  0  0  0  0  0  0  0  0  0  0  0
    5.4578   -2.5385   -0.4118 C   0  0  0  0  0  0  0  0  0  0  0  0
    6.5150   -0.2997   -0.7884 C   0  0  0  0  0  0  0  0  0  0  0  0
    6.7555   -1.7408   -0.3533 C   0  0  0  0  0  0  0  0  0  0  0  0
   -0.6870    2.0519   -0.0322 C   0  0  0  0  0  0  0  0  0  0  0  0
   -1.8867    1.2203   -0.1887 C   0  0  0  0  0  0  0  0  0  0  0  0
   -2.5519    0.8908   -1.3471 C   0  0  0  0  0  0  0  0  0  0  0  0
   -3.6288   -0.0812    0.3956 C   0  0  0  0  0  0  0  0  0  0  0  0
   -3.6573    0.0679   -0.9927 C   0  0  0  0  0  0  0  0  0  0  0  0
   -4.5776   -0.8366    1.0938 C   0  0  0  0  0  0  0  0  0  0  0  0
   -4.6824   -0.5667   -1.7220 C   0  0  0  0  0  0  0  0  0  0  0  0
   -5.5847   -1.4574    0.3493 C   0  0  0  0  0  0  0  0  0  0  0  0
   -5.6383   -1.3258   -1.0368 C   0  0  0  0  0  0  0  0  0  0  0  0
   -6.6184   -2.2727    1.0535 C   0  0  0  0  0  0  0  0  0  0  0  0
    3.2455    0.2020    1.6548 H   0  0  0  0  0  0  0  0  0  0  0  0
    1.7767   -1.6167    0.8143 H   0  0  0  0  0  0  0  0  0  0  0  0
    1.5350   -0.7431   -0.7077 H   0  0  0  0  0  0  0  0  0  0  0  0
    2.7406    1.6486   -0.9984 H   0  0  0  0  0  0  0  0  0  0  0  0
    3.7136    2.2551    0.3565 H   0  0  0  0  0  0  0  0  0  0  0  0
    3.4574   -2.4642    0.2014 H   0  0  0  0  0  0  0  0  0  0  0  0
    4.5667   -1.8396    1.4308 H   0  0  0  0  0  0  0  0  0  0  0  0
    5.6475    0.4564    1.0447 H   0  0  0  0  0  0  0  0  0  0  0  0
    5.2552    1.3264   -0.4498 H   0  0  0  0  0  0  0  0  0  0  0  0
   -0.3458   -0.4960    0.8082 H   0  0  0  0  0  0  0  0  0  0  0  0
    0.6716    0.1244    2.1099 H   0  0  0  0  0  0  0  0  0  0  0  0
    1.7970    2.3759    1.8307 H   0  0  0  0  0  0  0  0  0  0  0  0
    1.5102    3.2901    0.3466 H   0  0  0  0  0  0  0  0  0  0  0  0
    6.2902   -0.2761   -1.8625 H   0  0  0  0  0  0  0  0  0  0  0  0
    7.4289    0.2870   -0.6405 H   0  0  0  0  0  0  0  0  0  0  0  0
    5.6216   -3.5394    0.0035 H   0  0  0  0  0  0  0  0  0  0  0  0
    5.1583   -2.6718   -1.4593 H   0  0  0  0  0  0  0  0  0  0  0  0
    7.1469   -1.7533    0.6713 H   0  0  0  0  0  0  0  0  0  0  0  0
    7.5127   -2.2061   -0.9937 H   0  0  0  0  0  0  0  0  0  0  0  0
   -2.2773    0.7062    1.8292 H   0  0  0  0  0  0  0  0  0  0  0  0
   -2.2761    1.2065   -2.3444 H   0  0  0  0  0  0  0  0  0  0  0  0
   -4.5260   -0.9341    2.1736 H   0  0  0  0  0  0  0  0  0  0  0  0
   -4.7356   -0.4730   -2.8028 H   0  0  0  0  0  0  0  0  0  0  0  0
   -6.4254   -1.8146   -1.6063 H   0  0  0  0  0  0  0  0  0  0  0  0
   -7.5833   -2.2165    0.5380 H   0  0  0  0  0  0  0  0  0  0  0  0
   -6.7804   -1.9119    2.0750 H   0  0  0  0  0  0  0  0  0  0  0  0
   -6.3038   -3.3201    1.0980 H   0  0  0  0  0  0  0  0  0  0  0  0
  1 15  2  0  0  0  0
  2  5  1  0  0  0  0
  2  8  1  0  0  0  0
  2  9  1  0  0  0  0
  3 10  1  0  0  0  0
  3 11  1  0  0  0  0
  3 15  1  0  0  0  0
  4 16  1  0  0  0  0
  4 18  1  0  0  0  0
  4 44  1  0  0  0  0
  5  6  1  0  0  0  0
  5  7  1  0  0  0  0
  5 25  1  0  0  0  0
  6 11  1  0  0  0  0
  6 28  1  0  0  0  0
  6 29  1  0  0  0  0
  7 10  1  0  0  0  0
  7 26  1  0  0  0  0
  7 27  1  0  0  0  0
  8 13  1  0  0  0  0
  8 32  1  0  0  0  0
  8 33  1  0  0  0  0
  9 12  1  0  0  0  0
  9 30  1  0  0  0  0
  9 31  1  0  0  0  0
 10 34  1  0  0  0  0
 10 35  1  0  0  0  0
 11 36  1  0  0  0  0
 11 37  1  0  0  0  0
 12 14  1  0  0  0  0
 12 40  1  0  0  0  0
 12 41  1  0  0  0  0
 13 14  1  0  0  0  0
 13 38  1  0  0  0  0
 13 39  1  0  0  0  0
 14 42  1  0  0  0  0
 14 43  1  0  0  0  0
 15 16  1  0  0  0  0
 16 17  2  0  0  0  0
 17 19  1  0  0  0  0
 17 45  1  0  0  0  0
 18 19  2  0  0  0  0
 18 20  1  0  0  0  0
 19 21  1  0  0  0  0
 20 22  2  0  0  0  0
 20 46  1  0  0  0  0
 21 23  2  0  0  0  0
 21 47  1  0  0  0  0
 22 23  1  0  0  0  0
 22 24  1  0  0  0  0
 23 48  1  0  0  0  0
 24 49  1  0  0  0  0
 24 50  1  0  0  0  0
 24 51  1  0  0  0  0
M  END
> <PUBCHEM_COMPOUND_CID>
51090945

> <PUBCHEM_CONFORMER_RMSD>
0.8

> <PUBCHEM_CONFORMER_DIVERSEORDER>
1
16
27
23
14
30
6
7
8
10
9
21
5
26
17
15
22
11
31
28
3
32
2
29
4
19
12
24
18
20
13
25

> <PUBCHEM_MMFF94_PARTIAL_CHARGES>
23
1 -0.57
10 0.3
11 0.3
15 0.71
16 -0.24
17 -0.15
18 -0.15
2 -0.81
20 -0.15
21 -0.15
22 -0.14
23 -0.15
24 0.14
3 -0.66
4 0.03
44 0.27
45 0.15
46 0.15
47 0.15
48 0.15
5 0.27
8 0.27
9 0.27

> <PUBCHEM_EFFECTIVE_ROTOR_COUNT>
5.4

> <PUBCHEM_PHARMACOPHORE_FEATURES>
8
1 1 acceptor
1 2 cation
1 4 cation
1 4 donor
5 4 16 17 18 19 rings
6 18 19 20 21 22 23 rings
6 2 8 9 12 13 14 rings
6 3 5 6 7 10 11 rings

> <PUBCHEM_HEAVY_ATOM_COUNT>
24

> <PUBCHEM_ATOM_DEF_STEREO_COUNT>
0

> <PUBCHEM_ATOM_UDEF_STEREO_COUNT>
0

> <PUBCHEM_BOND_DEF_STEREO_COUNT>
0

> <PUBCHEM_BOND_UDEF_STEREO_COUNT>
0

> <PUBCHEM_ISOTOPIC_ATOM_COUNT>
0

> <PUBCHEM_COMPONENT_COUNT>
1

> <PUBCHEM_CACTVS_TAUTO_COUNT>
6

> <PUBCHEM_CONFORMER_ID>
030B960100000001

> <PUBCHEM_MMFF94_ENERGY>
43.6152

> <PUBCHEM_FEATURE_SELFOVERLAP>
40.686

> <PUBCHEM_SHAPE_FINGERPRINT>
10319926 262 14129335144497586253
10740516 88 17843106027849375091
11089746 13 13110959812803917534
11809386 21 18197787802294468648
12107183 9 18042392686154979001
12166972 35 17775562022639976412
12236239 1 17604147026399446441
12403259 118 5833700323187092697
12592606 108 18334861585595932823
12596602 18 15936695873792915123
12633257 1 15936413295357476421
12760667 363 18334296474598286455
13103583 49 16225768497510455535
13402501 40 18412542098170660403
13533116 47 18115027394225523761
13540713 4 18263948620678515585
13673619 4 18113337518263604280
13685833 64 18410571764896173331
13690498 29 18342463668275828413
13782708 43 18202286904848818394
13862211 1 18335986450004024946
13955234 65 18043538196487090000
14123256 34 18408600361843228134
14251764 30 18409166601762690671
14347332 77 18339082704580316192
14350574 20 18412825772196415600
14767858 380 18342447141853265180
15183329 4 16486977323538269034
15188451 53 15430614857258268525
15238133 3 5833706915951219320
15348495 7 5761355735007941334
15510800 12 17844239628531943259
15519825 34 14563397055145233287
15537594 2 18113905939899898454
17134984 74 17775004579331039938
17492 89 18120372314402866230
17780758 139 17458345277532949193
17870717 6 17561370569749880343
1813 80 18187354420236546125
18335252 98 18410852141052281018
19246450 95 17823397449497853059
193927 3 18410298012217997729
20028762 73 17894635846510997998
20281389 69 8574708005428751814
20567600 247 18333736818737581854
20621476 21 17988074475375496403
20715895 44 9583519815586950342
21033650 10 16630252501910867197
21150785 3 17561076995760762734
21196832 93 17916855816782752218
21267235 1 18410006620029743387
21307412 95 18130792205869103779
21344244 246 17773302453700529444
21637258 2 17676214562880307101
21682296 61 18410009910681892079
21774942 28 13829865642397374590
221357 26 18341897389469174312
22393880 68 17988655128366121900
22765269 38 8862951563225322723
22950370 63 18334293184305490024
23522609 53 18044906092036682408
23559900 14 18060422378430707745
270888 7 9799691493355977866
2748736 6 10592044648187514102
2767999 5 11600005440345031174
2838139 119 13470691446820358158
2916195 48 8214147361029900231
3004659 81 18060423499316815312
312425 54 16805329851024428027
314194 84 18260550013362099802
329604 57 18341611542716935766
33382 64 18040152937918818066
34797466 226 16916785111670574693
351380 3 18040719173237345318
3737641 26 17750507550062786878
439807 62 18343020025122114446
46194498 28 17917434181621387740
465052 167 18260825982169599294
474113 269 17531540768192381303
4938544 92 17168981343453098825
5104073 3 17967817171359724904
54039377 194 18334289886340501294
543368 44 11959737071184738503
636775 8 18337661006477333606
6431902 208 18409167739997693398
6608658 132 14548749421253914543
6669772 16 18050564046198606484
7970288 3 18335143085197982007
8217 86 18343017796260635734
8863177 126 18338516318352858659
9980921 7 17488163922385783948
999808 66 18411693275600147171

> <PUBCHEM_SHAPE_MULTIPOLES>
473.1
17.74
2.66
1.19
5.74
0.62
-0.22
-15.63
-2.1
0.8
0.12
-1.5
-0.14
1.18

> <PUBCHEM_SHAPE_SELFOVERLAP>
1014.222

> <PUBCHEM_SHAPE_VOLUME>
261.9

> <PUBCHEM_COORDINATE_TYPE>
2
5
10

$$$$

