9930
  -OEChem-06261204122D

 48 49  0     0  0  0  0  0  0999 V2000
    4.0124    0.0000    0.0000 Cl  0  0  0  0  0  0  0  0  0  0  0  0
    2.4777    6.7078    0.0000 O   0  0  0  0  0  0  0  0  0  0  0  0
    7.4841    7.4280    0.0000 N   0  0  0  0  0  0  0  0  0  0  0  0
    5.0468    6.3988    0.0000 C   0  0  0  0  0  0  0  0  0  0  0  0
    5.7899    7.0679    0.0000 C   0  0  0  0  0  0  0  0  0  0  0  0
    4.0957    6.7078    0.0000 C   0  0  0  0  0  0  0  0  0  0  0  0
    6.7410    6.7589    0.0000 C   0  0  0  0  0  0  0  0  0  0  0  0
    3.2867    6.1200    0.0000 C   0  0  0  0  0  0  0  0  0  0  0  0
    3.7867    7.6588    0.0000 C   0  0  0  0  0  0  0  0  0  0  0  0
    2.7867    7.6588    0.0000 C   0  0  0  0  0  0  0  0  0  0  0  0
    3.2867    5.1200    0.0000 C   0  0  0  0  0  0  0  0  0  0  0  0
    2.1989    8.4679    0.0000 C   0  0  0  0  0  0  0  0  0  0  0  0
    8.4352    7.1190    0.0000 C   0  0  0  0  0  0  0  0  0  0  0  0
    7.2762    8.4062    0.0000 C   0  0  0  0  0  0  0  0  0  0  0  0
    2.4207    4.6200    0.0000 C   0  0  0  0  0  0  0  0  0  0  0  0
    4.1527    4.6200    0.0000 C   0  0  0  0  0  0  0  0  0  0  0  0
    2.6056    9.3814    0.0000 C   0  0  0  0  0  0  0  0  0  0  0  0
    1.2044    8.3633    0.0000 C   0  0  0  0  0  0  0  0  0  0  0  0
    2.4207    3.6200    0.0000 C   0  0  0  0  0  0  0  0  0  0  0  0
    4.1527    3.6200    0.0000 C   0  0  0  0  0  0  0  0  0  0  0  0
    3.2867    3.1200    0.0000 C   0  0  0  0  0  0  0  0  0  0  0  0
    2.0179   10.1904    0.0000 C   0  0  0  0  0  0  0  0  0  0  0  0
    0.6166    9.1724    0.0000 C   0  0  0  0  0  0  0  0  0  0  0  0
    1.0233   10.0859    0.0000 C   0  0  0  0  0  0  0  0  0  0  0  0
    4.7557    5.8513    0.0000 H   0  0  0  0  0  0  0  0  0  0  0  0
    5.5353    6.0171    0.0000 H   0  0  0  0  0  0  0  0  0  0  0  0
    6.0810    7.6153    0.0000 H   0  0  0  0  0  0  0  0  0  0  0  0
    5.3014    7.4496    0.0000 H   0  0  0  0  0  0  0  0  0  0  0  0
    6.4499    6.2114    0.0000 H   0  0  0  0  0  0  0  0  0  0  0  0
    7.2295    6.3772    0.0000 H   0  0  0  0  0  0  0  0  0  0  0  0
    4.1511    8.1604    0.0000 H   0  0  0  0  0  0  0  0  0  0  0  0
    8.2436    6.5293    0.0000 H   0  0  0  0  0  0  0  0  0  0  0  0
    7.8827    8.5351    0.0000 H   0  0  0  0  0  0  0  0  0  0  0  0
    7.1473    9.0126    0.0000 H   0  0  0  0  0  0  0  0  0  0  0  0
    6.6698    8.2773    0.0000 H   0  0  0  0  0  0  0  0  0  0  0  0
    9.0248    6.9274    0.0000 H   0  0  0  0  0  0  0  0  0  0  0  0
    8.6268    7.7086    0.0000 H   0  0  0  0  0  0  0  0  0  0  0  0
    1.8837    4.9300    0.0000 H   0  0  0  0  0  0  0  0  0  0  0  0
    4.6897    4.9300    0.0000 H   0  0  0  0  0  0  0  0  0  0  0  0
    3.2222    9.4462    0.0000 H   0  0  0  0  0  0  0  0  0  0  0  0
    0.9522    7.7969    0.0000 H   0  0  0  0  0  0  0  0  0  0  0  0
    1.8837    3.3100    0.0000 H   0  0  0  0  0  0  0  0  0  0  0  0
    4.6897    3.3100    0.0000 H   0  0  0  0  0  0  0  0  0  0  0  0
    3.2867    2.5000    0.0000 H   0  0  0  0  0  0  0  0  0  0  0  0
    2.2700   10.7568    0.0000 H   0  0  0  0  0  0  0  0  0  0  0  0
    0.0000    9.1075    0.0000 H   0  0  0  0  0  0  0  0  0  0  0  0
    0.6589   10.5875    0.0000 H   0  0  0  0  0  0  0  0  0  0  0  0
    5.0124    0.0000    0.0000 H   0  0  0  0  0  0  0  0  0  0  0  0
  1 48  1  0  0  0  0
  2  8  1  0  0  0  0
  2 10  1  0  0  0  0
  3  7  1  0  0  0  0
  3 13  1  0  0  0  0
  3 14  1  0  0  0  0
  4  5  1  0  0  0  0
  4  6  1  0  0  0  0
  4 25  1  0  0  0  0
  4 26  1  0  0  0  0
  5  7  1  0  0  0  0
  5 27  1  0  0  0  0
  5 28  1  0  0  0  0
  6  8  2  0  0  0  0
  6  9  1  0  0  0  0
  7 29  1  0  0  0  0
  7 30  1  0  0  0  0
  8 11  1  0  0  0  0
  9 10  2  0  0  0  0
  9 31  1  0  0  0  0
 10 12  1  0  0  0  0
 11 15  2  0  0  0  0
 11 16  1  0  0  0  0
 12 17  2  0  0  0  0
 12 18  1  0  0  0  0
 13 32  1  0  0  0  0
 13 36  1  0  0  0  0
 13 37  1  0  0  0  0
 14 33  1  0  0  0  0
 14 34  1  0  0  0  0
 14 35  1  0  0  0  0
 15 19  1  0  0  0  0
 15 38  1  0  0  0  0
 16 20  2  0  0  0  0
 16 39  1  0  0  0  0
 17 22  1  0  0  0  0
 17 40  1  0  0  0  0
 18 23  2  0  0  0  0
 18 41  1  0  0  0  0
 19 21  2  0  0  0  0
 19 42  1  0  0  0  0
 20 21  1  0  0  0  0
 20 43  1  0  0  0  0
 21 44  1  0  0  0  0
 22 24  2  0  0  0  0
 22 45  1  0  0  0  0
 23 24  1  0  0  0  0
 23 46  1  0  0  0  0
 24 47  1  0  0  0  0
M  END
> <PUBCHEM_COMPOUND_CID>
9930

> <PUBCHEM_COMPOUND_CANONICALIZED>
1

> <PUBCHEM_CACTVS_COMPLEXITY>
331

> <PUBCHEM_CACTVS_HBOND_ACCEPTOR>
2

> <PUBCHEM_CACTVS_HBOND_DONOR>
1

> <PUBCHEM_CACTVS_ROTATABLE_BOND>
6

> <PUBCHEM_CACTVS_SUBSKEYS>
AAADceB6IAAEAAAAAAAAAAAAAAAAASAAAAAwYAAAAAAAAAAB0AAAHgAAAAAADATBmAQyBIMABECIAqBSAAACCAAkIAAIiAEOCMgMJjKEtRqGOSCkwBEIqYeY2fKOAAAAAAAAAAAAAAAAAAAAAAAAAAAAAA==

> <PUBCHEM_IUPAC_OPENEYE_NAME>
3-(2,5-diphenyl-3-furyl)-N,N-dimethyl-propan-1-amine hydrochloride

> <PUBCHEM_IUPAC_CAS_NAME>
3-(2,5-diphenyl-3-furanyl)-N,N-dimethyl-1-propanamine hydrochloride

> <PUBCHEM_IUPAC_NAME>
3-(2,5-diphenylfuran-3-yl)-N,N-dimethylpropan-1-amine hydrochloride

> <PUBCHEM_IUPAC_SYSTEMATIC_NAME>
3-(2,5-diphenylfuran-3-yl)-N,N-dimethyl-propan-1-amine hydrochloride

> <PUBCHEM_IUPAC_TRADITIONAL_NAME>
3-(2,5-diphenyl-3-furyl)propyl-dimethyl-amine hydrochloride

> <PUBCHEM_IUPAC_INCHI>
InChI=1S/C21H23NO.ClH/c1-22(2)15-9-14-19-16-20(17-10-5-3-6-11-17)23-21(19)18-12-7-4-8-13-18;/h3-8,10-13,16H,9,14-15H2,1-2H3;1H

> <PUBCHEM_IUPAC_INCHIKEY>
UWHMTVUXSZNXJQ-UHFFFAOYSA-N

> <PUBCHEM_EXACT_MASS>
341.154642

> <PUBCHEM_MOLECULAR_FORMULA>
C21H24ClNO

> <PUBCHEM_MOLECULAR_WEIGHT>
341.87436

> <PUBCHEM_OPENEYE_CAN_SMILES>
CN(C)CCCC1=C(OC(=C1)C2=CC=CC=C2)C3=CC=CC=C3.Cl

> <PUBCHEM_OPENEYE_ISO_SMILES>
CN(C)CCCC1=C(OC(=C1)C2=CC=CC=C2)C3=CC=CC=C3.Cl

> <PUBCHEM_CACTVS_TPSA>
16.4

> <PUBCHEM_MONOISOTOPIC_WEIGHT>
341.154642

> <PUBCHEM_TOTAL_CHARGE>
0

> <PUBCHEM_HEAVY_ATOM_COUNT>
24

> <PUBCHEM_ATOM_DEF_STEREO_COUNT>
0

> <PUBCHEM_ATOM_UDEF_STEREO_COUNT>
0

> <PUBCHEM_BOND_DEF_STEREO_COUNT>
0

> <PUBCHEM_BOND_UDEF_STEREO_COUNT>
0

> <PUBCHEM_ISOTOPIC_ATOM_COUNT>
0

> <PUBCHEM_COMPONENT_COUNT>
2

> <PUBCHEM_CACTVS_TAUTO_COUNT>
1

> <PUBCHEM_COORDINATE_TYPE>
1
5
255

> <PUBCHEM_BONDANNOTATIONS>
11  15  8
11  16  8
12  17  8
12  18  8
15  19  8
16  20  8
17  22  8
18  23  8
19  21  8
2  10  8
2  8  8
20  21  8
22  24  8
23  24  8
6  8  8
6  9  8
9  10  8

$$$$

