3435
  -OEChem-06251223253D

 23 24  0     0  0  0  0  0  0999 V2000
   -4.7706   -0.3904    0.2910 O   0  0  0  0  0  0  0  0  0  0  0  0
    1.9333   -0.5355    0.0900 O   0  0  0  0  0  0  0  0  0  0  0  0
   -3.9319    1.7184    0.5958 O   0  0  0  0  0  0  0  0  0  0  0  0
    5.3794    0.0455    0.0866 O   0  5  0  0  0  0  0  0  0  0  0  0
    4.2033   -1.7834    0.4178 O   0  0  0  0  0  0  0  0  0  0  0  0
   -2.6168   -0.0556   -0.1588 N   0  0  0  0  0  0  0  0  0  0  0  0
   -1.4478    0.5914   -0.2504 N   0  0  0  0  0  0  0  0  0  0  0  0
    4.2621   -0.5436    0.1689 N   0  3  0  0  0  0  0  0  0  0  0  0
   -2.7733   -1.4552   -0.3477 C   0  0  0  0  0  0  0  0  0  0  0  0
   -4.2767   -1.6021   -0.3128 C   0  0  0  0  0  0  0  0  0  0  0  0
   -3.7700    0.5513    0.2684 C   0  0  0  0  0  0  0  0  0  0  0  0
    0.9402    0.3466   -0.1210 C   0  0  0  0  0  0  0  0  0  0  0  0
   -0.4176   -0.1688   -0.0625 C   0  0  0  0  0  0  0  0  0  0  0  0
    1.3966    1.6005   -0.3586 C   0  0  0  0  0  0  0  0  0  0  0  0
    3.0831    0.1809   -0.0158 C   0  0  0  0  0  0  0  0  0  0  0  0
    2.8067    1.5000   -0.2910 C   0  0  0  0  0  0  0  0  0  0  0  0
   -2.3483   -2.0006    0.5018 H   0  0  0  0  0  0  0  0  0  0  0  0
   -2.3399   -1.8050   -1.2890 H   0  0  0  0  0  0  0  0  0  0  0  0
   -4.7047   -1.6776   -1.3180 H   0  0  0  0  0  0  0  0  0  0  0  0
   -4.5986   -2.4668    0.2749 H   0  0  0  0  0  0  0  0  0  0  0  0
   -0.4613   -1.2457    0.1721 H   0  0  0  0  0  0  0  0  0  0  0  0
    0.8126    2.4878   -0.5571 H   0  0  0  0  0  0  0  0  0  0  0  0
    3.5266    2.2948   -0.4272 H   0  0  0  0  0  0  0  0  0  0  0  0
  1 10  1  0  0  0  0
  1 11  1  0  0  0  0
  2 12  1  0  0  0  0
  2 15  1  0  0  0  0
  3 11  2  0  0  0  0
  4  8  1  0  0  0  0
  5  8  2  0  0  0  0
  6  7  1  0  0  0  0
  6  9  1  0  0  0  0
  6 11  1  0  0  0  0
  7 13  2  0  0  0  0
  8 15  1  0  0  0  0
  9 10  1  0  0  0  0
  9 17  1  0  0  0  0
  9 18  1  0  0  0  0
 10 19  1  0  0  0  0
 10 20  1  0  0  0  0
 12 13  1  0  0  0  0
 12 14  2  0  0  0  0
 13 21  1  0  0  0  0
 14 16  1  0  0  0  0
 14 22  1  0  0  0  0
 15 16  2  0  0  0  0
 16 23  1  0  0  0  0
M  CHG  2   4  -1   8   1
M  END
> <PUBCHEM_COMPOUND_CID>
3435

> <PUBCHEM_CONFORMER_RMSD>
0.6

> <PUBCHEM_CONFORMER_DIVERSEORDER>
1
4
6
3
2
5

> <PUBCHEM_MMFF94_PARTIAL_CHARGES>
19
1 -0.43
10 0.28
11 0.78
12 0.05
13 0.47
14 -0.15
15 0.22
16 -0.15
2 -0.28
21 0.06
22 0.15
23 0.15
3 -0.57
4 -0.52
5 -0.52
6 -0.3
7 -0.51
8 0.96
9 0.3

> <PUBCHEM_EFFECTIVE_ROTOR_COUNT>
3.8

> <PUBCHEM_PHARMACOPHORE_FEATURES>
8
1 2 acceptor
1 3 acceptor
1 4 acceptor
1 4 anion
1 5 acceptor
1 7 acceptor
5 1 6 9 10 11 rings
5 2 12 14 15 16 rings

> <PUBCHEM_HEAVY_ATOM_COUNT>
16

> <PUBCHEM_ATOM_DEF_STEREO_COUNT>
0

> <PUBCHEM_ATOM_UDEF_STEREO_COUNT>
0

> <PUBCHEM_BOND_DEF_STEREO_COUNT>
0

> <PUBCHEM_BOND_UDEF_STEREO_COUNT>
1

> <PUBCHEM_ISOTOPIC_ATOM_COUNT>
0

> <PUBCHEM_COMPONENT_COUNT>
1

> <PUBCHEM_CACTVS_TAUTO_COUNT>
1

> <PUBCHEM_CONFORMER_ID>
00000D6B00000001

> <PUBCHEM_MMFF94_ENERGY>
34.661

> <PUBCHEM_FEATURE_SELFOVERLAP>
40.689

> <PUBCHEM_SHAPE_FINGERPRINT>
10465860 250 17603305955522086305
10616163 171 18335981961246781807
10680689 15 16773800290341142197
11543360 7 10519983768298832549
12107183 9 17905325482848673201
12916754 54 18272652290868140781
13167823 11 18410294692034295422
13675066 3 17676490553220593684
14252887 29 18186795903327216262
15442244 35 18411135839909681293
17834072 33 18411979122874248436
1813 80 17489298733051812398
18186145 218 17274829017045109057
19050596 39 18334852788779795169
19422 9 18411979126926382205
200 152 18335423443777983963
20279233 1 15719388421722961045
20281475 54 18342177765082002308
20645477 56 10159711192110829671
20645477 70 18343021077826886894
21267235 1 18411129217170246703
221490 88 18128248982952625586
22485316 2 18411421721812611174
22646028 1 18411139112758890623
2306618 200 17967806163959697817
23402539 116 18335707151921586237
23532345 12 18334574637680737553
23559900 14 18336553707150300337
42 15 18409166605972950116
4214541 1 18409729569207100533
4463277 17 18410009940925887884
449060 50 7925636621992123835
5104073 3 18408884010184018257
559249 180 18339366365579543851
573450 72 18334580148477024515
633830 44 16917068849894635389
77779 3 18411417289274616373
9709674 26 18336538344147617783
9981440 41 17332525674849129264

> <PUBCHEM_SHAPE_MULTIPOLES>
284.98
11.01
1.65
0.64
1.08
0.01
0.02
2.6
-1.07
-0.24
-0.02
-0.11
-0.03
-0.83

> <PUBCHEM_SHAPE_SELFOVERLAP>
609.954

> <PUBCHEM_SHAPE_VOLUME>
159.3

> <PUBCHEM_COORDINATE_TYPE>
2
5
10

$$$$

