7056
  -OEChem-06261201423D

 18 19  0     0  0  0  0  0  0999 V2000
   -3.7573   -0.7786    0.0004 Cl  0  0  0  0  0  0  0  0  0  0  0  0
    0.2538   -0.6192    0.0000 C   0  0  0  0  0  0  0  0  0  0  0  0
    0.4977    0.7749    0.0002 C   0  0  0  0  0  0  0  0  0  0  0  0
   -1.0712   -1.0846   -0.0001 C   0  0  0  0  0  0  0  0  0  0  0  0
   -0.5907    1.6625    0.0001 C   0  0  0  0  0  0  0  0  0  0  0  0
    1.3422   -1.5067    0.0000 C   0  0  0  0  0  0  0  0  0  0  0  0
    1.8227    1.2404    0.0001 C   0  0  0  0  0  0  0  0  0  0  0  0
   -2.1405   -0.1885   -0.0004 C   0  0  0  0  0  0  0  0  0  0  0  0
   -1.9007    1.1824   -0.0003 C   0  0  0  0  0  0  0  0  0  0  0  0
    2.6522   -1.0268   -0.0001 C   0  0  0  0  0  0  0  0  0  0  0  0
    2.8920    0.3441    0.0000 C   0  0  0  0  0  0  0  0  0  0  0  0
   -1.2671   -2.1558   -0.0001 H   0  0  0  0  0  0  0  0  0  0  0  0
   -0.4267    2.7381    0.0002 H   0  0  0  0  0  0  0  0  0  0  0  0
    1.1785   -2.5824    0.0000 H   0  0  0  0  0  0  0  0  0  0  0  0
    2.0338    2.3078    0.0002 H   0  0  0  0  0  0  0  0  0  0  0  0
   -2.7243    1.8920   -0.0003 H   0  0  0  0  0  0  0  0  0  0  0  0
    3.4851   -1.7239   -0.0002 H   0  0  0  0  0  0  0  0  0  0  0  0
    3.9120    0.7170   -0.0001 H   0  0  0  0  0  0  0  0  0  0  0  0
  1  8  1  0  0  0  0
  2  3  1  0  0  0  0
  2  4  1  0  0  0  0
  2  6  2  0  0  0  0
  3  5  1  0  0  0  0
  3  7  2  0  0  0  0
  4  8  2  0  0  0  0
  4 12  1  0  0  0  0
  5  9  2  0  0  0  0
  5 13  1  0  0  0  0
  6 10  1  0  0  0  0
  6 14  1  0  0  0  0
  7 11  1  0  0  0  0
  7 15  1  0  0  0  0
  8  9  1  0  0  0  0
  9 16  1  0  0  0  0
 10 11  2  0  0  0  0
 10 17  1  0  0  0  0
 11 18  1  0  0  0  0
M  END
> <PUBCHEM_COMPOUND_CID>
7056

> <PUBCHEM_CONFORMER_RMSD>
0.4

> <PUBCHEM_CONFORMER_DIVERSEORDER>
1

> <PUBCHEM_MMFF94_PARTIAL_CHARGES>
16
1 -0.18
10 -0.15
11 -0.15
12 0.15
13 0.15
14 0.15
15 0.15
16 0.15
17 0.15
18 0.15
4 -0.15
5 -0.15
6 -0.15
7 -0.15
8 0.18
9 -0.15

> <PUBCHEM_EFFECTIVE_ROTOR_COUNT>
0

> <PUBCHEM_PHARMACOPHORE_FEATURES>
2
6 2 3 4 5 8 9 rings
6 2 3 6 7 10 11 rings

> <PUBCHEM_HEAVY_ATOM_COUNT>
11

> <PUBCHEM_ATOM_DEF_STEREO_COUNT>
0

> <PUBCHEM_ATOM_UDEF_STEREO_COUNT>
0

> <PUBCHEM_BOND_DEF_STEREO_COUNT>
0

> <PUBCHEM_BOND_UDEF_STEREO_COUNT>
0

> <PUBCHEM_ISOTOPIC_ATOM_COUNT>
0

> <PUBCHEM_COMPONENT_COUNT>
1

> <PUBCHEM_CACTVS_TAUTO_COUNT>
1

> <PUBCHEM_CONFORMER_ID>
00001B9000000001

> <PUBCHEM_MMFF94_ENERGY>
29.3239

> <PUBCHEM_FEATURE_SELFOVERLAP>
10.175

> <PUBCHEM_SHAPE_FINGERPRINT>
10219947 1 18335699408317032495
11206711 2 18341610472705719893
11471102 20 18411142415920953247
12032990 46 18411694379179537979
12897270 3 18411420622005584396
12932764 1 17240774981358530092
14325111 11 18410575106175079009
161256 15 18410013230032027540
16945 1 18410856546839342180
17844478 74 18131344211649002341
193761 8 17834113422021858439
19973954 147 18337952414794923372
20201158 50 18342176652569648891
20645477 70 18409735075629818751
21040471 1 18410575115107742564
21501502 16 18339076106988362120
21501925 9 18340499931871024370
23402655 69 18336837458976480357
23463225 33 18412262847896616983
23552423 10 18272085041182899086
23559900 14 17325768575519026022
2748010 2 18338238296281414428
369184 2 18410576222834752120
5084963 1 18261111897894476608
528886 8 18337676308516809354
53812653 166 18116438037853385312
7364860 26 18261672567706021424

> <PUBCHEM_SHAPE_MULTIPOLES>
228.24
4.76
1.7
0.62
1.89
0.2
0
-1.04
0
-0.15
0
0.01
0
0

> <PUBCHEM_SHAPE_SELFOVERLAP>
491.552

> <PUBCHEM_SHAPE_VOLUME>
121.3

> <PUBCHEM_COORDINATE_TYPE>
2
5
10

$$$$

