17395925
  -OEChem-06241222532D

 43 46  0     0  0  0  0  0  0999 V2000
    6.7619   -0.0670    0.0000 O   0  0  0  0  0  0  0  0  0  0  0  0
   11.2619    0.7990    0.0000 O   0  0  0  0  0  0  0  0  0  0  0  0
    3.7320    1.2990    0.0000 N   0  0  0  0  0  0  0  0  0  0  0  0
    4.6783   -0.0057    0.0000 N   0  0  0  0  0  0  0  0  0  0  0  0
   11.2619   -0.9330    0.0000 N   0  0  0  0  0  0  0  0  0  0  0  0
    5.2619    0.7990    0.0000 C   0  0  0  0  0  0  0  0  0  0  0  0
    3.7320    0.2990    0.0000 C   0  0  0  0  0  0  0  0  0  0  0  0
    4.6783    1.6038    0.0000 C   0  0  0  0  0  0  0  0  0  0  0  0
    6.2619    0.7990    0.0000 C   0  0  0  0  0  0  0  0  0  0  0  0
    2.8660    1.7990    0.0000 C   0  0  0  0  0  0  0  0  0  0  0  0
    2.8660   -0.2010    0.0000 C   0  0  0  0  0  0  0  0  0  0  0  0
    7.7619   -0.0670    0.0000 C   0  0  0  0  0  0  0  0  0  0  0  0
    9.7619   -0.0670    0.0000 C   0  0  0  0  0  0  0  0  0  0  0  0
    2.0000    1.2990    0.0000 C   0  0  0  0  0  0  0  0  0  0  0  0
    2.0000    0.2990    0.0000 C   0  0  0  0  0  0  0  0  0  0  0  0
    8.2619   -0.9330    0.0000 C   0  0  0  0  0  0  0  0  0  0  0  0
    8.2619    0.7990    0.0000 C   0  0  0  0  0  0  0  0  0  0  0  0
    9.2619   -0.9330    0.0000 C   0  0  0  0  0  0  0  0  0  0  0  0
    9.2619    0.7990    0.0000 C   0  0  0  0  0  0  0  0  0  0  0  0
   10.7619   -0.0670    0.0000 C   0  0  0  0  0  0  0  0  0  0  0  0
   12.2619   -0.9330    0.0000 C   0  0  0  0  0  0  0  0  0  0  0  0
   12.7619   -1.7990    0.0000 C   0  0  0  0  0  0  0  0  0  0  0  0
   12.7619   -0.0670    0.0000 C   0  0  0  0  0  0  0  0  0  0  0  0
   13.7619   -1.7990    0.0000 C   0  0  0  0  0  0  0  0  0  0  0  0
   13.7619   -0.0670    0.0000 C   0  0  0  0  0  0  0  0  0  0  0  0
   14.2619   -0.9330    0.0000 C   0  0  0  0  0  0  0  0  0  0  0  0
    4.8709    2.1931    0.0000 H   0  0  0  0  0  0  0  0  0  0  0  0
    6.8445    1.0111    0.0000 H   0  0  0  0  0  0  0  0  0  0  0  0
    6.1542    1.4096    0.0000 H   0  0  0  0  0  0  0  0  0  0  0  0
    2.8660    2.4190    0.0000 H   0  0  0  0  0  0  0  0  0  0  0  0
    2.8660   -0.8210    0.0000 H   0  0  0  0  0  0  0  0  0  0  0  0
    1.4631    1.6090    0.0000 H   0  0  0  0  0  0  0  0  0  0  0  0
    1.4631   -0.0110    0.0000 H   0  0  0  0  0  0  0  0  0  0  0  0
    7.9519   -1.4700    0.0000 H   0  0  0  0  0  0  0  0  0  0  0  0
    7.9519    1.3360    0.0000 H   0  0  0  0  0  0  0  0  0  0  0  0
    9.5719   -1.4700    0.0000 H   0  0  0  0  0  0  0  0  0  0  0  0
    9.5719    1.3360    0.0000 H   0  0  0  0  0  0  0  0  0  0  0  0
   10.9519   -1.4700    0.0000 H   0  0  0  0  0  0  0  0  0  0  0  0
   12.4519   -2.3360    0.0000 H   0  0  0  0  0  0  0  0  0  0  0  0
   12.4519    0.4699    0.0000 H   0  0  0  0  0  0  0  0  0  0  0  0
   14.0719   -2.3360    0.0000 H   0  0  0  0  0  0  0  0  0  0  0  0
   14.0719    0.4699    0.0000 H   0  0  0  0  0  0  0  0  0  0  0  0
   14.8819   -0.9330    0.0000 H   0  0  0  0  0  0  0  0  0  0  0  0
  1  9  1  0  0  0  0
  1 12  1  0  0  0  0
  2 20  2  0  0  0  0
  3  7  1  0  0  0  0
  3  8  1  0  0  0  0
  3 10  1  0  0  0  0
  4  6  1  0  0  0  0
  4  7  2  0  0  0  0
  5 20  1  0  0  0  0
  5 21  1  0  0  0  0
  5 38  1  0  0  0  0
  6  8  2  0  0  0  0
  6  9  1  0  0  0  0
  7 11  1  0  0  0  0
  8 27  1  0  0  0  0
  9 28  1  0  0  0  0
  9 29  1  0  0  0  0
 10 14  2  0  0  0  0
 10 30  1  0  0  0  0
 11 15  2  0  0  0  0
 11 31  1  0  0  0  0
 12 16  2  0  0  0  0
 12 17  1  0  0  0  0
 13 18  2  0  0  0  0
 13 19  1  0  0  0  0
 13 20  1  0  0  0  0
 14 15  1  0  0  0  0
 14 32  1  0  0  0  0
 15 33  1  0  0  0  0
 16 18  1  0  0  0  0
 16 34  1  0  0  0  0
 17 19  2  0  0  0  0
 17 35  1  0  0  0  0
 18 36  1  0  0  0  0
 19 37  1  0  0  0  0
 21 22  2  0  0  0  0
 21 23  1  0  0  0  0
 22 24  1  0  0  0  0
 22 39  1  0  0  0  0
 23 25  2  0  0  0  0
 23 40  1  0  0  0  0
 24 26  2  0  0  0  0
 24 41  1  0  0  0  0
 25 26  1  0  0  0  0
 25 42  1  0  0  0  0
 26 43  1  0  0  0  0
M  END
> <PUBCHEM_COMPOUND_CID>
17395925

> <PUBCHEM_COMPOUND_CANONICALIZED>
1

> <PUBCHEM_CACTVS_COMPLEXITY>
458

> <PUBCHEM_CACTVS_HBOND_ACCEPTOR>
3

> <PUBCHEM_CACTVS_HBOND_DONOR>
1

> <PUBCHEM_CACTVS_ROTATABLE_BOND>
5

> <PUBCHEM_CACTVS_SUBSKEYS>
AAADceB7MAAAAAAAAAAAAAAAAAAAAWAAAAA8YIAAAAAAAFgB9AAAHgAQAAAADAzhnwY99p/MHACoAzd3dASCiC01MqAJ2CE+fNiObvLEvZuXOSju1BPY6aeY3ALOIAAAAAAAAABAAAAAAAAAAAAAAAAAAA==

> <PUBCHEM_IUPAC_OPENEYE_NAME>
4-(imidazo[1,2-a]pyridin-2-ylmethoxy)-N-phenyl-benzamide

> <PUBCHEM_IUPAC_CAS_NAME>
4-(2-imidazo[1,2-a]pyridinylmethoxy)-N-phenylbenzamide

> <PUBCHEM_IUPAC_NAME>
4-(imidazo[1,2-a]pyridin-2-ylmethoxy)-N-phenylbenzamide

> <PUBCHEM_IUPAC_SYSTEMATIC_NAME>
4-(imidazo[1,2-a]pyridin-2-ylmethoxy)-N-phenyl-benzamide

> <PUBCHEM_IUPAC_TRADITIONAL_NAME>
4-(imidazo[1,2-a]pyridin-2-ylmethoxy)-N-phenyl-benzamide

> <PUBCHEM_IUPAC_INCHI>
InChI=1S/C21H17N3O2/c25-21(23-17-6-2-1-3-7-17)16-9-11-19(12-10-16)26-15-18-14-24-13-5-4-8-20(24)22-18/h1-14H,15H2,(H,23,25)

> <PUBCHEM_IUPAC_INCHIKEY>
QKOFNCJJAFXTNB-UHFFFAOYSA-N

> <PUBCHEM_XLOGP3_AA>
4.1

> <PUBCHEM_EXACT_MASS>
343.132077

> <PUBCHEM_MOLECULAR_FORMULA>
C21H17N3O2

> <PUBCHEM_MOLECULAR_WEIGHT>
343.37858

> <PUBCHEM_OPENEYE_CAN_SMILES>
C1=CC=C(C=C1)NC(=O)C2=CC=C(C=C2)OCC3=CN4C=CC=CC4=N3

> <PUBCHEM_OPENEYE_ISO_SMILES>
C1=CC=C(C=C1)NC(=O)C2=CC=C(C=C2)OCC3=CN4C=CC=CC4=N3

> <PUBCHEM_CACTVS_TPSA>
55.6

> <PUBCHEM_MONOISOTOPIC_WEIGHT>
343.132077

> <PUBCHEM_TOTAL_CHARGE>
0

> <PUBCHEM_HEAVY_ATOM_COUNT>
26

> <PUBCHEM_ATOM_DEF_STEREO_COUNT>
0

> <PUBCHEM_ATOM_UDEF_STEREO_COUNT>
0

> <PUBCHEM_BOND_DEF_STEREO_COUNT>
0

> <PUBCHEM_BOND_UDEF_STEREO_COUNT>
0

> <PUBCHEM_ISOTOPIC_ATOM_COUNT>
0

> <PUBCHEM_COMPONENT_COUNT>
1

> <PUBCHEM_CACTVS_TAUTO_COUNT>
2

> <PUBCHEM_COORDINATE_TYPE>
1
5
255

> <PUBCHEM_BONDANNOTATIONS>
10  14  8
11  15  8
12  16  8
12  17  8
13  18  8
13  19  8
14  15  8
16  18  8
17  19  8
21  22  8
21  23  8
22  24  8
23  25  8
24  26  8
25  26  8
3  10  8
3  7  8
3  8  8
4  6  8
4  7  8
6  8  8
7  11  8

$$$$

