5394
  -OEChem-06261200403D

 20 21  0     0  0  0  0  0  0999 V2000
    2.6498    1.6852    0.0032 O   0  0  0  0  0  0  0  0  0  0  0  0
   -2.8126   -1.6976    0.0114 O   0  0  0  0  0  0  0  0  0  0  0  0
    0.5864    0.7933    0.0007 N   0  0  0  0  0  0  0  0  0  0  0  0
    2.3381   -0.6593   -0.0007 N   0  0  0  0  0  0  0  0  0  0  0  0
   -1.4685    1.6448    0.0000 N   0  0  0  0  0  0  0  0  0  0  0  0
    0.2231   -1.5299   -0.0024 N   0  0  0  0  0  0  0  0  0  0  0  0
    1.4610   -1.7251   -0.0024 N   0  0  0  0  0  0  0  0  0  0  0  0
   -3.9618    0.2869   -0.0043 N   0  0  0  0  0  0  0  0  0  0  0  0
   -0.2632   -0.2747   -0.0013 C   0  0  0  0  0  0  0  0  0  0  0  0
   -1.5254    0.2747   -0.0019 C   0  0  0  0  0  0  0  0  0  0  0  0
    1.9626    0.6761    0.0013 C   0  0  0  0  0  0  0  0  0  0  0  0
   -0.1841    1.9271    0.0016 C   0  0  0  0  0  0  0  0  0  0  0  0
    3.7590   -0.9581   -0.0012 C   0  0  0  0  0  0  0  0  0  0  0  0
   -2.7644   -0.4433   -0.0039 C   0  0  0  0  0  0  0  0  0  0  0  0
    0.2405    2.9218    0.0032 H   0  0  0  0  0  0  0  0  0  0  0  0
    4.3703   -0.0519    0.0001 H   0  0  0  0  0  0  0  0  0  0  0  0
    3.9908   -1.5450   -0.8948 H   0  0  0  0  0  0  0  0  0  0  0  0
    3.9908   -1.5476    0.8906 H   0  0  0  0  0  0  0  0  0  0  0  0
   -3.9720    1.3019   -0.0090 H   0  0  0  0  0  0  0  0  0  0  0  0
   -4.8601   -0.1847    0.0004 H   0  0  0  0  0  0  0  0  0  0  0  0
  1 11  2  0  0  0  0
  2 14  2  0  0  0  0
  3  9  1  0  0  0  0
  3 11  1  0  0  0  0
  3 12  1  0  0  0  0
  4  7  1  0  0  0  0
  4 11  1  0  0  0  0
  4 13  1  0  0  0  0
  5 10  1  0  0  0  0
  5 12  2  0  0  0  0
  6  7  2  0  0  0  0
  6  9  1  0  0  0  0
  8 14  1  0  0  0  0
  8 19  1  0  0  0  0
  8 20  1  0  0  0  0
  9 10  2  0  0  0  0
 10 14  1  0  0  0  0
 12 15  1  0  0  0  0
 13 16  1  0  0  0  0
 13 17  1  0  0  0  0
 13 18  1  0  0  0  0
M  END
> <PUBCHEM_COMPOUND_CID>
5394

> <PUBCHEM_CONFORMER_RMSD>
0.4

> <PUBCHEM_CONFORMER_DIVERSEORDER>
1
3
2
4

> <PUBCHEM_MMFF94_PARTIAL_CHARGES>
17
1 -0.57
10 0.14
11 0.64
12 0.04
13 0.3
14 0.72
15 0.15
19 0.37
2 -0.57
20 0.37
3 0.29
4 -0.3
5 -0.57
6 -0.13
7 -0.06
8 -0.8
9 -0.03

> <PUBCHEM_EFFECTIVE_ROTOR_COUNT>
1

> <PUBCHEM_PHARMACOPHORE_FEATURES>
5
1 1 acceptor
1 2 acceptor
1 8 donor
5 3 5 9 10 12 rings
6 3 4 6 7 9 11 rings

> <PUBCHEM_HEAVY_ATOM_COUNT>
14

> <PUBCHEM_ATOM_DEF_STEREO_COUNT>
0

> <PUBCHEM_ATOM_UDEF_STEREO_COUNT>
0

> <PUBCHEM_BOND_DEF_STEREO_COUNT>
0

> <PUBCHEM_BOND_UDEF_STEREO_COUNT>
0

> <PUBCHEM_ISOTOPIC_ATOM_COUNT>
0

> <PUBCHEM_COMPONENT_COUNT>
1

> <PUBCHEM_CACTVS_TAUTO_COUNT>
2

> <PUBCHEM_CONFORMER_ID>
0000151200000001

> <PUBCHEM_MMFF94_ENERGY>
29.7544

> <PUBCHEM_FEATURE_SELFOVERLAP>
25.497

> <PUBCHEM_SHAPE_FINGERPRINT>
10967382 1 18410856551065698727
11132069 177 18408328769559645130
11206711 2 18341608286736138788
11471102 20 18411424994672772869
11769659 78 18410579461287682975
12032990 46 18411131424672660538
12897270 3 18411982476789817991
14325111 11 18338798918494514337
15536298 74 18333731295541124696
16945 1 18266740366604967904
193761 8 17834113426237710951
20201158 50 18412545444060570299
20645477 70 18408608058788613239
21267235 1 18410002248138443631
21501502 16 18338512044617532992
21501925 9 18411147943528051994
2334 1 18266458706881353519
23402655 69 18336278898859469781
23463225 33 18411982455278045172
23552423 10 18343581866963060028
23559900 14 18409169926879423218
2748010 2 18338800013595000476
5084963 1 18259986002504166848
528886 8 18409735027946802235
53812653 166 18189338965630817576
7364860 26 18334295332306167584
8809292 202 18272928315125515299

> <PUBCHEM_SHAPE_MULTIPOLES>
246.49
5.43
1.94
0.56
0.53
0.23
0
-1.3
0
-0.27
0
-0.01
0.01
0.01

> <PUBCHEM_SHAPE_SELFOVERLAP>
537.085

> <PUBCHEM_SHAPE_VOLUME>
135.1

> <PUBCHEM_COORDINATE_TYPE>
2
5
10

$$$$

