13091
  -OEChem-06261207453D

 33 36  0     0  0  0  0  0  0999 V2000
   -0.3036    0.0003   -0.9700 C   0  0  0  0  0  0  0  0  0  0  0  0
    0.5523    1.1817   -0.5206 C   0  0  0  0  0  0  0  0  0  0  0  0
    0.5516   -1.1817   -0.5210 C   0  0  0  0  0  0  0  0  0  0  0  0
    1.7383    0.7234    0.0974 C   0  0  0  0  0  0  0  0  0  0  0  0
    1.7377   -0.7243    0.0974 C   0  0  0  0  0  0  0  0  0  0  0  0
   -1.6546    0.0006   -0.3390 C   0  0  0  0  0  0  0  0  0  0  0  0
    0.2958    2.5348   -0.6744 C   0  0  0  0  0  0  0  0  0  0  0  0
    0.2942   -2.5347   -0.6752 C   0  0  0  0  0  0  0  0  0  0  0  0
    2.6733    1.6244    0.5802 C   0  0  0  0  0  0  0  0  0  0  0  0
    2.6718   -1.6259    0.5807 C   0  0  0  0  0  0  0  0  0  0  0  0
   -2.7981    0.0012   -1.1382 C   0  0  0  0  0  0  0  0  0  0  0  0
   -1.7758    0.0000    1.0510 C   0  0  0  0  0  0  0  0  0  0  0  0
    1.2384    3.4413   -0.1867 C   0  0  0  0  0  0  0  0  0  0  0  0
    1.2361   -3.4418   -0.1873 C   0  0  0  0  0  0  0  0  0  0  0  0
    2.4147    2.9907    0.4355 C   0  0  0  0  0  0  0  0  0  0  0  0
    2.4123   -2.9921    0.4357 C   0  0  0  0  0  0  0  0  0  0  0  0
   -4.0620    0.0014   -0.5480 C   0  0  0  0  0  0  0  0  0  0  0  0
   -3.0397    0.0001    1.6410 C   0  0  0  0  0  0  0  0  0  0  0  0
   -4.1828    0.0007    0.8415 C   0  0  0  0  0  0  0  0  0  0  0  0
   -0.3485    0.0005   -2.0665 H   0  0  0  0  0  0  0  0  0  0  0  0
   -0.6090    2.8865   -1.1578 H   0  0  0  0  0  0  0  0  0  0  0  0
   -0.6107   -2.8856   -1.1589 H   0  0  0  0  0  0  0  0  0  0  0  0
    3.5885    1.2926    1.0591 H   0  0  0  0  0  0  0  0  0  0  0  0
    3.5871   -1.2949    1.0601 H   0  0  0  0  0  0  0  0  0  0  0  0
   -2.7194    0.0017   -2.2221 H   0  0  0  0  0  0  0  0  0  0  0  0
   -0.9041   -0.0004    1.6996 H   0  0  0  0  0  0  0  0  0  0  0  0
    1.0628    4.5088   -0.2901 H   0  0  0  0  0  0  0  0  0  0  0  0
    1.0598   -4.5092   -0.2911 H   0  0  0  0  0  0  0  0  0  0  0  0
    3.1344    3.7158    0.8066 H   0  0  0  0  0  0  0  0  0  0  0  0
    3.1314   -3.7177    0.8071 H   0  0  0  0  0  0  0  0  0  0  0  0
   -4.9521    0.0018   -1.1704 H   0  0  0  0  0  0  0  0  0  0  0  0
   -3.1341   -0.0004    2.7230 H   0  0  0  0  0  0  0  0  0  0  0  0
   -5.1669    0.0007    1.3010 H   0  0  0  0  0  0  0  0  0  0  0  0
  1  2  1  0  0  0  0
  1  3  1  0  0  0  0
  1  6  1  0  0  0  0
  1 20  1  0  0  0  0
  2  4  1  0  0  0  0
  2  7  2  0  0  0  0
  3  5  1  0  0  0  0
  3  8  2  0  0  0  0
  4  5  1  0  0  0  0
  4  9  2  0  0  0  0
  5 10  2  0  0  0  0
  6 11  2  0  0  0  0
  6 12  1  0  0  0  0
  7 13  1  0  0  0  0
  7 21  1  0  0  0  0
  8 14  1  0  0  0  0
  8 22  1  0  0  0  0
  9 15  1  0  0  0  0
  9 23  1  0  0  0  0
 10 16  1  0  0  0  0
 10 24  1  0  0  0  0
 11 17  1  0  0  0  0
 11 25  1  0  0  0  0
 12 18  2  0  0  0  0
 12 26  1  0  0  0  0
 13 15  2  0  0  0  0
 13 27  1  0  0  0  0
 14 16  2  0  0  0  0
 14 28  1  0  0  0  0
 15 29  1  0  0  0  0
 16 30  1  0  0  0  0
 17 19  2  0  0  0  0
 17 31  1  0  0  0  0
 18 19  1  0  0  0  0
 18 32  1  0  0  0  0
 19 33  1  0  0  0  0
M  END
> <PUBCHEM_COMPOUND_CID>
13091

> <PUBCHEM_CONFORMER_RMSD>
0.6

> <PUBCHEM_CONFORMER_DIVERSEORDER>
1

> <PUBCHEM_MMFF94_PARTIAL_CHARGES>
30
1 0.43
10 -0.15
11 -0.15
12 -0.15
13 -0.15
14 -0.15
15 -0.15
16 -0.15
17 -0.15
18 -0.15
19 -0.15
2 -0.14
21 0.15
22 0.15
23 0.15
24 0.15
25 0.15
26 0.15
27 0.15
28 0.15
29 0.15
3 -0.14
30 0.15
31 0.15
32 0.15
33 0.15
6 -0.14
7 -0.15
8 -0.15
9 -0.15

> <PUBCHEM_EFFECTIVE_ROTOR_COUNT>
1.2

> <PUBCHEM_PHARMACOPHORE_FEATURES>
4
5 1 2 3 4 5 rings
6 2 4 7 9 13 15 rings
6 3 5 8 10 14 16 rings
6 6 11 12 17 18 19 rings

> <PUBCHEM_HEAVY_ATOM_COUNT>
19

> <PUBCHEM_ATOM_DEF_STEREO_COUNT>
0

> <PUBCHEM_ATOM_UDEF_STEREO_COUNT>
0

> <PUBCHEM_BOND_DEF_STEREO_COUNT>
0

> <PUBCHEM_BOND_UDEF_STEREO_COUNT>
0

> <PUBCHEM_ISOTOPIC_ATOM_COUNT>
0

> <PUBCHEM_COMPONENT_COUNT>
1

> <PUBCHEM_CACTVS_TAUTO_COUNT>
1

> <PUBCHEM_CONFORMER_ID>
0000332300000001

> <PUBCHEM_MMFF94_ENERGY>
64.7347

> <PUBCHEM_FEATURE_SELFOVERLAP>
20.458

> <PUBCHEM_SHAPE_FINGERPRINT>
10967382 1 18410866464235372438
1100329 8 18337395916404555234
11471102 22 18341614836429311539
11582403 64 16333924102118628957
11640471 11 17749661909857142537
116883 192 17762060238836228981
11725454 13 16912053943258781997
12403259 327 16557647239202238465
12553582 1 18265330805562468862
12788726 201 17333653176778000059
12954195 1 16683706006909289628
13009979 54 17749111127393271659
13134695 92 18341617082681493695
13140716 1 18267031548750989370
13149001 5 17687138116771658660
13681431 1 18270103746920303540
14787075 74 18059567036168963370
14790565 3 18411409588916096404
14844126 61 17260206899549670083
15309172 13 18195808470711003845
15906896 17 17468193336662935918
16945 1 18410858763010760052
17138139 8 17175209806537156287
1813 80 17898276454022144878
19049666 15 17988090001328641741
19591789 44 18340205181472051174
19765921 60 17896596172674052329
20157964 124 18409732855627293453
204376 136 18122906430146801089
20645477 70 18342472447431431359
20739085 24 18412819214056096408
21524375 3 17971189218755526005
21731228 192 18051125895816726384
2255824 54 18335977605880203622
2334 1 17979082574487710542
23419403 2 17771934824032200894
23558518 356 17761211012465041022
23559900 14 16988566865639401466
2748010 2 17976563902707433836
3091708 16 9039567227985186352
31174 14 18342444959545784803
350125 39 17907288862955729034
352729 6 17330565241569068390
3729539 64 18055036992759644596
3797600 57 17461418270962640923
3886686 26 17325807710970702184
4340502 62 18119516658175174083
474 4 18335700486411937225
54173680 148 17329714730665022478
5845 1 11956663746388690773
6443956 14 18196371635607546589
7364860 26 18410573985198923917
77492 1 17676493834860444543
81228 2 17405140111401289932
8272917 22 18409163312329211013
84936 182 18114187380517130513

> <PUBCHEM_SHAPE_MULTIPOLES>
391.01
5.5
3.96
1.13
6.28
0
0.17
-0.01
1.43
-4.94
-0.19
0.79
0
0

> <PUBCHEM_SHAPE_SELFOVERLAP>
888.194

> <PUBCHEM_SHAPE_VOLUME>
190.4

> <PUBCHEM_COORDINATE_TYPE>
2
5
10

$$$$

