51091004
  -OEChem-06241223013D

 42 44  0     0  0  0  0  0  0999 V2000
   -0.3378    3.4511   -0.1455 S   0  0  0  0  0  0  0  0  0  0  0  0
    3.1110   -1.0047   -1.0927 O   0  0  0  0  0  0  0  0  0  0  0  0
   -3.5222   -2.3812    1.4641 O   0  0  0  0  0  0  0  0  0  0  0  0
    1.5924    1.4598   -0.3820 N   0  0  0  0  0  0  0  0  0  0  0  0
   -1.5923   -2.7944    0.2115 N   0  0  0  0  0  0  0  0  0  0  0  0
    2.2448    1.1286    1.6799 N   0  0  0  0  0  0  0  0  0  0  0  0
    1.2738    2.1099    1.6826 N   0  0  0  0  0  0  0  0  0  0  0  0
   -2.4471    1.6905    0.1037 C   0  0  0  0  0  0  0  0  0  0  0  0
   -1.8152    2.8782    0.7473 C   0  0  0  0  0  0  0  0  0  0  0  0
   -2.8647   -0.6888    0.0550 C   0  0  0  0  0  0  0  0  0  0  0  0
   -2.2726    0.4218    0.6566 C   0  0  0  0  0  0  0  0  0  0  0  0
    2.4219    0.7518    0.4338 C   0  0  0  0  0  0  0  0  0  0  0  0
    0.8955    2.2944    0.4381 C   0  0  0  0  0  0  0  0  0  0  0  0
   -3.2138    1.8487   -1.0508 C   0  0  0  0  0  0  0  0  0  0  0  0
   -3.6314   -0.5306   -1.0996 C   0  0  0  0  0  0  0  0  0  0  0  0
    3.3372   -0.2369    0.0055 C   0  0  0  0  0  0  0  0  0  0  0  0
   -2.6834   -2.0115    0.6317 C   0  0  0  0  0  0  0  0  0  0  0  0
   -3.8061    0.7382   -1.6524 C   0  0  0  0  0  0  0  0  0  0  0  0
    1.4889    1.3412   -1.8190 C   0  0  0  0  0  0  0  0  0  0  0  0
    4.5375   -0.5700    0.5890 C   0  0  0  0  0  0  0  0  0  0  0  0
   -0.6258   -2.3165   -0.7749 C   0  0  0  0  0  0  0  0  0  0  0  0
   -1.3531   -4.1334    0.7313 C   0  0  0  0  0  0  0  0  0  0  0  0
    5.0839   -1.6090   -0.2015 C   0  0  0  0  0  0  0  0  0  0  0  0
    4.1785   -1.8370   -1.2117 C   0  0  0  0  0  0  0  0  0  0  0  0
   -2.5364    3.7037    0.7689 H   0  0  0  0  0  0  0  0  0  0  0  0
   -1.5607    2.6791    1.7948 H   0  0  0  0  0  0  0  0  0  0  0  0
   -1.6739    0.2948    1.5558 H   0  0  0  0  0  0  0  0  0  0  0  0
   -3.3603    2.8316   -1.4910 H   0  0  0  0  0  0  0  0  0  0  0  0
   -4.0971   -1.3889   -1.5769 H   0  0  0  0  0  0  0  0  0  0  0  0
   -4.4034    0.8614   -2.5510 H   0  0  0  0  0  0  0  0  0  0  0  0
    0.9082    0.4441   -2.0471 H   0  0  0  0  0  0  0  0  0  0  0  0
    1.0007    2.2180   -2.2466 H   0  0  0  0  0  0  0  0  0  0  0  0
    2.4931    1.2732   -2.2455 H   0  0  0  0  0  0  0  0  0  0  0  0
    4.9740   -0.1256    1.4729 H   0  0  0  0  0  0  0  0  0  0  0  0
   -2.1166   -4.4134    1.4613 H   0  0  0  0  0  0  0  0  0  0  0  0
   -1.3738   -4.8445   -0.0994 H   0  0  0  0  0  0  0  0  0  0  0  0
   -0.3714   -4.1558    1.2129 H   0  0  0  0  0  0  0  0  0  0  0  0
    0.3657   -2.3135   -0.3116 H   0  0  0  0  0  0  0  0  0  0  0  0
   -0.8319   -1.3154   -1.1519 H   0  0  0  0  0  0  0  0  0  0  0  0
   -0.6237   -3.0109   -1.6207 H   0  0  0  0  0  0  0  0  0  0  0  0
    6.0205   -2.1269   -0.0537 H   0  0  0  0  0  0  0  0  0  0  0  0
    4.1479   -2.5193   -2.0485 H   0  0  0  0  0  0  0  0  0  0  0  0
  1  9  1  0  0  0  0
  1 13  1  0  0  0  0
  2 16  1  0  0  0  0
  2 24  1  0  0  0  0
  3 17  2  0  0  0  0
  4 12  1  0  0  0  0
  4 13  1  0  0  0  0
  4 19  1  0  0  0  0
  5 17  1  0  0  0  0
  5 21  1  0  0  0  0
  5 22  1  0  0  0  0
  6  7  1  0  0  0  0
  6 12  2  0  0  0  0
  7 13  2  0  0  0  0
  8  9  1  0  0  0  0
  8 11  2  0  0  0  0
  8 14  1  0  0  0  0
  9 25  1  0  0  0  0
  9 26  1  0  0  0  0
 10 11  1  0  0  0  0
 10 15  2  0  0  0  0
 10 17  1  0  0  0  0
 11 27  1  0  0  0  0
 12 16  1  0  0  0  0
 14 18  2  0  0  0  0
 14 28  1  0  0  0  0
 15 18  1  0  0  0  0
 15 29  1  0  0  0  0
 16 20  2  0  0  0  0
 18 30  1  0  0  0  0
 19 31  1  0  0  0  0
 19 32  1  0  0  0  0
 19 33  1  0  0  0  0
 20 23  1  0  0  0  0
 20 34  1  0  0  0  0
 21 38  1  0  0  0  0
 21 39  1  0  0  0  0
 21 40  1  0  0  0  0
 22 35  1  0  0  0  0
 22 36  1  0  0  0  0
 22 37  1  0  0  0  0
 23 24  2  0  0  0  0
 23 41  1  0  0  0  0
 24 42  1  0  0  0  0
M  END
> <PUBCHEM_COMPOUND_CID>
51091004

> <PUBCHEM_CONFORMER_RMSD>
1

> <PUBCHEM_CONFORMER_DIVERSEORDER>
2
54
108
147
150
77
23
56
67
175
87
138
127
109
12
131
85
148
63
140
126
142
34
136
165
69
115
71
120
78
143
31
92
151
39
105
101
26
149
96
1
64
22
100
181
89
90
133
110
152
158
139
59
62
156
179
134
24
50
86
21
116
104
65
118
111
38
52
153
174
48
121
58
93
84
33
160
36
97
10
13
75
103
99
55
19
145
53
171
141
60
68
157
163
47
66
122
106
95
162
114
88
176
76
124
144
170
82
18
98
91
51
7
61
135
8
164
182
49
119
166
30
155
81
125
180
43
83
44
32
112
15
37
161
45
41
4
137
113
3
20
17
154
11
16
25
28
72
57
94
146
35
9
172
117
168
70
132
178
107
167
40
27
73
80
42
169
29
79
129
5
46
177
102
130
123
173
159
6
74
128
14

> <PUBCHEM_MMFF94_PARTIAL_CHARGES>
31
1 -0.29
10 0.09
11 -0.15
12 0.19
13 0.24
14 -0.15
15 -0.15
16 0.14
17 0.54
18 -0.15
19 0.26
2 -0.28
20 -0.15
21 0.3
22 0.3
23 -0.15
24 -0.01
27 0.15
28 0.15
29 0.15
3 -0.57
30 0.15
34 0.15
4 0.05
41 0.15
42 0.15
5 -0.66
6 -0.34
7 -0.34
8 -0.14
9 0.37

> <PUBCHEM_EFFECTIVE_ROTOR_COUNT>
6

> <PUBCHEM_PHARMACOPHORE_FEATURES>
7
1 2 acceptor
1 3 acceptor
3 4 6 12 cation
3 4 7 13 cation
5 2 16 20 23 24 rings
5 4 6 7 12 13 rings
6 8 10 11 14 15 18 rings

> <PUBCHEM_HEAVY_ATOM_COUNT>
24

> <PUBCHEM_ATOM_DEF_STEREO_COUNT>
0

> <PUBCHEM_ATOM_UDEF_STEREO_COUNT>
0

> <PUBCHEM_BOND_DEF_STEREO_COUNT>
0

> <PUBCHEM_BOND_UDEF_STEREO_COUNT>
0

> <PUBCHEM_ISOTOPIC_ATOM_COUNT>
0

> <PUBCHEM_COMPONENT_COUNT>
1

> <PUBCHEM_CACTVS_TAUTO_COUNT>
1

> <PUBCHEM_CONFORMER_ID>
030B963C00000002

> <PUBCHEM_MMFF94_ENERGY>
51.1019

> <PUBCHEM_FEATURE_SELFOVERLAP>
38.023

> <PUBCHEM_SHAPE_MULTIPOLES>
466.1
8.5
4.44
1.48
7.5
1.76
0.15
3.56
1.63
-2.59
-1.12
-0.13
-0.2
1.46

> <PUBCHEM_SHAPE_SELFOVERLAP>
986.807

> <PUBCHEM_SHAPE_VOLUME>
263.8

> <PUBCHEM_COORDINATE_TYPE>
2
5
10

$$$$

