7847067
  -OEChem-06241222483D

 58 60  0     1  0  0  0  0  0999 V2000
   -0.9045   -0.3031   -0.2318 O   0  0  0  0  0  0  0  0  0  0  0  0
    1.0548   -0.7275    1.5782 O   0  0  0  0  0  0  0  0  0  0  0  0
   -1.6868    0.0506   -2.3676 O   0  0  0  0  0  0  0  0  0  0  0  0
    2.7236   -0.6361   -0.0396 N   0  0  0  0  0  0  0  0  0  0  0  0
   -5.7268   -0.0621    0.6454 N   0  0  0  0  0  0  0  0  0  0  0  0
    3.8529   -0.8489    0.8363 C   0  0  1  0  0  0  0  0  0  0  0  0
    4.1052   -2.3485    1.0681 C   0  0  0  0  0  0  0  0  0  0  0  0
    5.0856   -0.1494    0.3004 C   0  0  0  0  0  0  0  0  0  0  0  0
   -3.2066   -0.0579   -0.5337 C   0  0  0  0  0  0  0  0  0  0  0  0
   -3.9097   -1.2479   -0.4132 C   0  0  0  0  0  0  0  0  0  0  0  0
   -3.7621    1.1397   -0.0636 C   0  0  0  0  0  0  0  0  0  0  0  0
   -5.1551   -1.1960    0.1791 C   0  0  0  0  0  0  0  0  0  0  0  0
    5.2243   -2.6048    2.0701 C   0  0  0  0  0  0  0  0  0  0  0  0
    5.6425   -0.5512   -0.9138 C   0  0  0  0  0  0  0  0  0  0  0  0
    5.6626    0.8967    1.0203 C   0  0  0  0  0  0  0  0  0  0  0  0
   -5.0422    1.0912    0.5271 C   0  0  0  0  0  0  0  0  0  0  0  0
   -5.9677   -2.4391    0.3413 C   0  0  0  0  0  0  0  0  0  0  0  0
    1.4136   -0.5938    0.4113 C   0  0  0  0  0  0  0  0  0  0  0  0
    7.3538    1.1393   -0.6880 C   0  0  0  0  0  0  0  0  0  0  0  0
    6.7766    0.0933   -1.4080 C   0  0  0  0  0  0  0  0  0  0  0  0
    6.7967    1.5411    0.5261 C   0  0  0  0  0  0  0  0  0  0  0  0
    0.4393   -0.3565   -0.7227 C   0  0  0  0  0  0  0  0  0  0  0  0
   -1.8845   -0.0930   -1.1587 C   0  0  0  0  0  0  0  0  0  0  0  0
   -3.3467   -2.5405   -0.9029 C   0  0  0  0  0  0  0  0  0  0  0  0
   -3.0757    2.3613   -0.1707 C   0  0  0  0  0  0  0  0  0  0  0  0
   -5.5935    2.2813    0.9939 C   0  0  0  0  0  0  0  0  0  0  0  0
   -6.8734   -2.6985   -0.8586 C   0  0  0  0  0  0  0  0  0  0  0  0
   -3.6509    3.5362    0.3046 C   0  0  0  0  0  0  0  0  0  0  0  0
   -4.9114    3.4958    0.8876 C   0  0  0  0  0  0  0  0  0  0  0  0
    8.5662    1.8283   -1.2168 C   0  0  0  0  0  0  0  0  0  0  0  0
    3.5890   -0.4074    1.8068 H   0  0  0  0  0  0  0  0  0  0  0  0
    4.3326   -2.8660    0.1282 H   0  0  0  0  0  0  0  0  0  0  0  0
    3.1868   -2.8122    1.4508 H   0  0  0  0  0  0  0  0  0  0  0  0
    2.8942   -0.5520   -1.0381 H   0  0  0  0  0  0  0  0  0  0  0  0
    6.1968   -2.2794    1.6891 H   0  0  0  0  0  0  0  0  0  0  0  0
    5.2968   -3.6769    2.2805 H   0  0  0  0  0  0  0  0  0  0  0  0
    5.0311   -2.0895    3.0165 H   0  0  0  0  0  0  0  0  0  0  0  0
    5.2055   -1.3599   -1.4931 H   0  0  0  0  0  0  0  0  0  0  0  0
    5.2406    1.2207    1.9678 H   0  0  0  0  0  0  0  0  0  0  0  0
   -6.6004   -2.3298    1.2321 H   0  0  0  0  0  0  0  0  0  0  0  0
   -5.3426   -3.3150    0.5448 H   0  0  0  0  0  0  0  0  0  0  0  0
    7.2016   -0.2290   -2.3549 H   0  0  0  0  0  0  0  0  0  0  0  0
    7.2384    2.3535    1.0971 H   0  0  0  0  0  0  0  0  0  0  0  0
    0.5315   -1.1787   -1.4414 H   0  0  0  0  0  0  0  0  0  0  0  0
    0.6880    0.5954   -1.2056 H   0  0  0  0  0  0  0  0  0  0  0  0
   -3.0406   -3.1611   -0.0540 H   0  0  0  0  0  0  0  0  0  0  0  0
   -4.0721   -3.0930   -1.5067 H   0  0  0  0  0  0  0  0  0  0  0  0
   -2.4712   -2.4246   -1.5476 H   0  0  0  0  0  0  0  0  0  0  0  0
   -2.0885    2.4260   -0.6213 H   0  0  0  0  0  0  0  0  0  0  0  0
   -6.5797    2.2764    1.4546 H   0  0  0  0  0  0  0  0  0  0  0  0
   -6.3044   -2.8233   -1.7845 H   0  0  0  0  0  0  0  0  0  0  0  0
   -7.4612   -3.6076   -0.6966 H   0  0  0  0  0  0  0  0  0  0  0  0
   -7.5717   -1.8677   -1.0085 H   0  0  0  0  0  0  0  0  0  0  0  0
   -3.1179    4.4784    0.2204 H   0  0  0  0  0  0  0  0  0  0  0  0
   -5.3677    4.4079    1.2611 H   0  0  0  0  0  0  0  0  0  0  0  0
    8.5969    2.8755   -0.8973 H   0  0  0  0  0  0  0  0  0  0  0  0
    8.5747    1.8276   -2.3121 H   0  0  0  0  0  0  0  0  0  0  0  0
    9.4700    1.3258   -0.8585 H   0  0  0  0  0  0  0  0  0  0  0  0
  1 22  1  0  0  0  0
  1 23  1  0  0  0  0
  2 18  2  0  0  0  0
  3 23  2  0  0  0  0
  4  6  1  0  0  0  0
  4 18  1  0  0  0  0
  4 34  1  0  0  0  0
  5 12  2  0  0  0  0
  5 16  1  0  0  0  0
  6  7  1  0  0  0  0
  6  8  1  0  0  0  0
  6 31  1  0  0  0  0
  7 13  1  0  0  0  0
  7 32  1  0  0  0  0
  7 33  1  0  0  0  0
  8 14  2  0  0  0  0
  8 15  1  0  0  0  0
  9 10  2  0  0  0  0
  9 11  1  0  0  0  0
  9 23  1  0  0  0  0
 10 12  1  0  0  0  0
 10 24  1  0  0  0  0
 11 16  1  0  0  0  0
 11 25  2  0  0  0  0
 12 17  1  0  0  0  0
 13 35  1  0  0  0  0
 13 36  1  0  0  0  0
 13 37  1  0  0  0  0
 14 20  1  0  0  0  0
 14 38  1  0  0  0  0
 15 21  2  0  0  0  0
 15 39  1  0  0  0  0
 16 26  2  0  0  0  0
 17 27  1  0  0  0  0
 17 40  1  0  0  0  0
 17 41  1  0  0  0  0
 18 22  1  0  0  0  0
 19 20  2  0  0  0  0
 19 21  1  0  0  0  0
 19 30  1  0  0  0  0
 20 42  1  0  0  0  0
 21 43  1  0  0  0  0
 22 44  1  0  0  0  0
 22 45  1  0  0  0  0
 24 46  1  0  0  0  0
 24 47  1  0  0  0  0
 24 48  1  0  0  0  0
 25 28  1  0  0  0  0
 25 49  1  0  0  0  0
 26 29  1  0  0  0  0
 26 50  1  0  0  0  0
 27 51  1  0  0  0  0
 27 52  1  0  0  0  0
 27 53  1  0  0  0  0
 28 29  2  0  0  0  0
 28 54  1  0  0  0  0
 29 55  1  0  0  0  0
 30 56  1  0  0  0  0
 30 57  1  0  0  0  0
 30 58  1  0  0  0  0
M  END
> <PUBCHEM_COMPOUND_CID>
7847067

> <PUBCHEM_CONFORMER_RMSD>
1

> <PUBCHEM_CONFORMER_DIVERSEORDER>
1
145
154
167
191
195
148
15
30
182
153
18
22
169
82
186
179
134
170
6
68
202
77
189
199
100
16
90
96
150
47
73
110
49
14
175
54
74
12
121
35
194
94
115
33
143
26
197
37
76
168
192
23
112
111
152
86
196
67
125
203
104
166
137
127
64
172
21
57
164
205
45
43
180
113
9
85
69
91
174
123
181
131
116
163
149
190
135
89
147
32
97
99
133
65
173
109
78
161
11
60
7
193
5
38
79
139
184
25
132
2
165
117
8
92
13
128
58
200
19
160
185
140
42
28
59
136
53
44
204
108
103
3
83
183
171
36
55
142
126
146
88
176
40
39
10
27
141
151
114
95
17
4
81
87
119
84
187
130
124
31
52
177
106
24
120
107
56
157
118
62
75
20
61
50
178
51
158
70
66
71
138
129
122
29
98
144
41
162
34
102
105
72
101
188
63
48
93
156
198
201
46
80
155
159

> <PUBCHEM_MMFF94_PARTIAL_CHARGES>
35
1 -0.43
10 -0.14
12 0.17
14 -0.15
15 -0.15
16 0.31
17 0.14
18 0.57
19 -0.14
2 -0.57
20 -0.15
21 -0.15
22 0.34
23 0.63
24 0.14
25 -0.15
26 -0.15
28 -0.15
29 -0.15
3 -0.57
30 0.14
34 0.37
38 0.15
39 0.15
4 -0.73
42 0.15
43 0.15
49 0.15
5 -0.62
50 0.15
54 0.15
55 0.15
6 0.44
8 -0.14
9 0.09

> <PUBCHEM_EFFECTIVE_ROTOR_COUNT>
9

> <PUBCHEM_PHARMACOPHORE_FEATURES>
9
1 13 hydrophobe
1 2 acceptor
1 27 hydrophobe
1 3 acceptor
1 4 donor
1 5 acceptor
6 11 16 25 26 28 29 rings
6 5 9 10 11 12 16 rings
6 8 14 15 19 20 21 rings

> <PUBCHEM_HEAVY_ATOM_COUNT>
30

> <PUBCHEM_ATOM_DEF_STEREO_COUNT>
1

> <PUBCHEM_ATOM_UDEF_STEREO_COUNT>
0

> <PUBCHEM_BOND_DEF_STEREO_COUNT>
0

> <PUBCHEM_BOND_UDEF_STEREO_COUNT>
0

> <PUBCHEM_ISOTOPIC_ATOM_COUNT>
0

> <PUBCHEM_COMPONENT_COUNT>
1

> <PUBCHEM_CACTVS_TAUTO_COUNT>
4

> <PUBCHEM_CONFORMER_ID>
0077BC9B00000001

> <PUBCHEM_MMFF94_ENERGY>
81.1359

> <PUBCHEM_FEATURE_SELFOVERLAP>
45.7

> <PUBCHEM_SHAPE_FINGERPRINT>
10 15 18410005576938402609
10369192 42 18260265231397676676
10411042 1 18118966894172440415
10595046 47 18342178877573789386
11101153 10 18338518530456259749
11315181 36 18272369746618633695
11672396 167 18265061399671356558
11991303 11 16732991894463900964
12082328 90 18335137592609439814
12144600 37 18261100903359240630
12596602 18 18271811258376532546
13073987 5 18412269449710062450
14118638 360 18342179964089875218
14849402 71 18129373814120279668
14856354 85 18335417903281254839
14933364 13 18187361026375729788
15183329 4 15213017167935377228
15338160 23 18408601483468119229
1577012 14 18343022219871131522
16110190 28 18339644567601329513
16992752 21 18337387124664867167
17844677 252 18335139791289777688
19377110 9 17989771107351925036
21033648 29 17095818705674039331
21792961 116 17240757415585952390
23081809 10 18272092720837930986
23522609 53 18128796690399825692
24771293 8 17917987257756218940
2747138 104 18266457616297530843
335507 130 18187643549414008582
3663271 9 18342741840343398146
394071 54 16845563211400577508
4073 2 18201712960006083466
4098825 35 18335133241944952662
4197921 191 18338236075957506417
4938544 92 18412544345197880213
497634 4 18272939331932543759
5104073 3 18341625862058974754
5265222 85 18114180787847858558
5758199 1 18059851749771729586
6057620 51 18272652294804613250

> <PUBCHEM_SHAPE_MULTIPOLES>
589.82
24.05
3.5
1.47
29.37
1.32
-0.06
3.89
-1.44
-5.74
0.91
1.49
-0.4
-3.7

> <PUBCHEM_SHAPE_SELFOVERLAP>
1260.84

> <PUBCHEM_SHAPE_VOLUME>
327.9

> <PUBCHEM_COORDINATE_TYPE>
2
5
10

$$$$

