17395849
  -OEChem-06241222522D

 41 43  0     0  0  0  0  0  0999 V2000
    2.5000   -1.3879    0.0000 S   0  0  0  0  0  0  0  0  0  0  0  0
    8.7788   -0.1855    0.0000 O   0  0  0  0  0  0  0  0  0  0  0  0
    4.2213   -1.8492    0.0000 O   0  0  0  0  0  0  0  0  0  0  0  0
    5.3147   -1.1855    0.0000 O   0  0  0  0  0  0  0  0  0  0  0  0
    3.5827   -0.1855    0.0000 N   0  0  0  0  0  0  0  0  0  0  0  0
    6.1808    0.3145    0.0000 N   0  0  0  0  0  0  0  0  0  0  0  0
    2.6691    0.2212    0.0000 C   0  0  0  0  0  0  0  0  0  0  0  0
    4.4487    0.3145    0.0000 C   0  0  0  0  0  0  0  0  0  0  0  0
    2.0000   -0.5219    0.0000 C   0  0  0  0  0  0  0  0  0  0  0  0
    3.4782   -1.1800    0.0000 C   0  0  0  0  0  0  0  0  0  0  0  0
    5.3147   -0.1855    0.0000 C   0  0  0  0  0  0  0  0  0  0  0  0
    7.0468   -0.1855    0.0000 C   0  0  0  0  0  0  0  0  0  0  0  0
    7.9128    0.3145    0.0000 C   0  0  0  0  0  0  0  0  0  0  0  0
   11.3769    0.3145    0.0000 C   0  0  0  0  0  0  0  0  0  0  0  0
   11.3769    1.3145    0.0000 C   0  0  0  0  0  0  0  0  0  0  0  0
    9.6448    0.3145    0.0000 C   0  0  0  0  0  0  0  0  0  0  0  0
   10.5109   -0.1855    0.0000 C   0  0  0  0  0  0  0  0  0  0  0  0
   10.5109    1.8145    0.0000 C   0  0  0  0  0  0  0  0  0  0  0  0
    9.6448    1.3145    0.0000 C   0  0  0  0  0  0  0  0  0  0  0  0
   12.2708   -0.2202    0.0000 C   0  0  0  0  0  0  0  0  0  0  0  0
   12.2708    1.8492    0.0000 C   0  0  0  0  0  0  0  0  0  0  0  0
   13.1769    0.2937    0.0000 C   0  0  0  0  0  0  0  0  0  0  0  0
   13.1769    1.3353    0.0000 C   0  0  0  0  0  0  0  0  0  0  0  0
    2.9791    0.7582    0.0000 H   0  0  0  0  0  0  0  0  0  0  0  0
    2.1675    0.5857    0.0000 H   0  0  0  0  0  0  0  0  0  0  0  0
    4.8472    0.7894    0.0000 H   0  0  0  0  0  0  0  0  0  0  0  0
    4.0502    0.7894    0.0000 H   0  0  0  0  0  0  0  0  0  0  0  0
    1.5851   -0.0612    0.0000 H   0  0  0  0  0  0  0  0  0  0  0  0
    1.4984   -0.8863    0.0000 H   0  0  0  0  0  0  0  0  0  0  0  0
    6.6482   -0.6605    0.0000 H   0  0  0  0  0  0  0  0  0  0  0  0
    7.4453   -0.6605    0.0000 H   0  0  0  0  0  0  0  0  0  0  0  0
    6.1808    0.9345    0.0000 H   0  0  0  0  0  0  0  0  0  0  0  0
    8.3113    0.7894    0.0000 H   0  0  0  0  0  0  0  0  0  0  0  0
    7.5143    0.7894    0.0000 H   0  0  0  0  0  0  0  0  0  0  0  0
   10.5109   -0.8055    0.0000 H   0  0  0  0  0  0  0  0  0  0  0  0
   10.5109    2.4345    0.0000 H   0  0  0  0  0  0  0  0  0  0  0  0
    9.1079    1.6245    0.0000 H   0  0  0  0  0  0  0  0  0  0  0  0
   12.2637   -0.8401    0.0000 H   0  0  0  0  0  0  0  0  0  0  0  0
   12.2637    2.4691    0.0000 H   0  0  0  0  0  0  0  0  0  0  0  0
   13.7127   -0.0184    0.0000 H   0  0  0  0  0  0  0  0  0  0  0  0
   13.7127    1.6474    0.0000 H   0  0  0  0  0  0  0  0  0  0  0  0
  1  9  1  0  0  0  0
  1 10  1  0  0  0  0
  2 13  1  0  0  0  0
  2 16  1  0  0  0  0
  3 10  2  0  0  0  0
  4 11  2  0  0  0  0
  5  7  1  0  0  0  0
  5  8  1  0  0  0  0
  5 10  1  0  0  0  0
  6 11  1  0  0  0  0
  6 12  1  0  0  0  0
  6 32  1  0  0  0  0
  7  9  1  0  0  0  0
  7 24  1  0  0  0  0
  7 25  1  0  0  0  0
  8 11  1  0  0  0  0
  8 26  1  0  0  0  0
  8 27  1  0  0  0  0
  9 28  1  0  0  0  0
  9 29  1  0  0  0  0
 12 13  1  0  0  0  0
 12 30  1  0  0  0  0
 12 31  1  0  0  0  0
 13 33  1  0  0  0  0
 13 34  1  0  0  0  0
 14 15  1  0  0  0  0
 14 17  1  0  0  0  0
 14 20  2  0  0  0  0
 15 18  1  0  0  0  0
 15 21  2  0  0  0  0
 16 17  2  0  0  0  0
 16 19  1  0  0  0  0
 17 35  1  0  0  0  0
 18 19  2  0  0  0  0
 18 36  1  0  0  0  0
 19 37  1  0  0  0  0
 20 22  1  0  0  0  0
 20 38  1  0  0  0  0
 21 23  1  0  0  0  0
 21 39  1  0  0  0  0
 22 23  2  0  0  0  0
 22 40  1  0  0  0  0
 23 41  1  0  0  0  0
M  END
> <PUBCHEM_COMPOUND_CID>
17395849

> <PUBCHEM_COMPOUND_CANONICALIZED>
1

> <PUBCHEM_CACTVS_COMPLEXITY>
432

> <PUBCHEM_CACTVS_HBOND_ACCEPTOR>
4

> <PUBCHEM_CACTVS_HBOND_DONOR>
1

> <PUBCHEM_CACTVS_ROTATABLE_BOND>
6

> <PUBCHEM_CACTVS_SUBSKEYS>
AAADceB7MABAAAAAAAAAAAAAAAAAAWAAAAAwYAAAAAAAAADBUAAAHgQQAAAADATl2AawBsPABAiIAiFSEAACCABgIBAIiICOCIgOZiKEMTqTOCCk1hGYqAeAwLAOoAABAAAQAABAAAIAACAAAAAAAAAAAA==

> <PUBCHEM_IUPAC_OPENEYE_NAME>
N-[2-(2-naphthyloxy)ethyl]-2-(2-oxothiazolidin-3-yl)acetamide

> <PUBCHEM_IUPAC_CAS_NAME>
N-[2-(2-naphthalenyloxy)ethyl]-2-(2-oxo-3-thiazolidinyl)acetamide

> <PUBCHEM_IUPAC_NAME>
N-(2-naphthalen-2-yloxyethyl)-2-(2-oxo-1,3-thiazolidin-3-yl)acetamide

> <PUBCHEM_IUPAC_SYSTEMATIC_NAME>
N-(2-naphthalen-2-yloxyethyl)-2-(2-oxidanylidene-1,3-thiazolidin-3-yl)ethanamide

> <PUBCHEM_IUPAC_TRADITIONAL_NAME>
2-(2-ketothiazolidin-3-yl)-N-[2-(2-naphthoxy)ethyl]acetamide

> <PUBCHEM_IUPAC_INCHI>
InChI=1S/C17H18N2O3S/c20-16(12-19-8-10-23-17(19)21)18-7-9-22-15-6-5-13-3-1-2-4-14(13)11-15/h1-6,11H,7-10,12H2,(H,18,20)

> <PUBCHEM_IUPAC_INCHIKEY>
VLFAQIFRRJTBOM-UHFFFAOYSA-N

> <PUBCHEM_XLOGP3_AA>
2.7

> <PUBCHEM_EXACT_MASS>
330.103813

> <PUBCHEM_MOLECULAR_FORMULA>
C17H18N2O3S

> <PUBCHEM_MOLECULAR_WEIGHT>
330.40142

> <PUBCHEM_OPENEYE_CAN_SMILES>
C1CSC(=O)N1CC(=O)NCCOC2=CC3=CC=CC=C3C=C2

> <PUBCHEM_OPENEYE_ISO_SMILES>
C1CSC(=O)N1CC(=O)NCCOC2=CC3=CC=CC=C3C=C2

> <PUBCHEM_CACTVS_TPSA>
83.9

> <PUBCHEM_MONOISOTOPIC_WEIGHT>
330.103813

> <PUBCHEM_TOTAL_CHARGE>
0

> <PUBCHEM_HEAVY_ATOM_COUNT>
23

> <PUBCHEM_ATOM_DEF_STEREO_COUNT>
0

> <PUBCHEM_ATOM_UDEF_STEREO_COUNT>
0

> <PUBCHEM_BOND_DEF_STEREO_COUNT>
0

> <PUBCHEM_BOND_UDEF_STEREO_COUNT>
0

> <PUBCHEM_ISOTOPIC_ATOM_COUNT>
0

> <PUBCHEM_COMPONENT_COUNT>
1

> <PUBCHEM_CACTVS_TAUTO_COUNT>
2

> <PUBCHEM_COORDINATE_TYPE>
1
5
255

> <PUBCHEM_BONDANNOTATIONS>
14  15  8
14  17  8
14  20  8
15  18  8
15  21  8
16  17  8
16  19  8
18  19  8
20  22  8
21  23  8
22  23  8

$$$$

