7535
  -OEChem-06261202082D

 68 67  0     0  0  0  0  0  0999 V2000
   11.7341    7.5785    0.0000 Cl  0  5  0  0  0  0  0  0  0  0  0  0
    2.2690    6.1200    0.0000 O   0  0  0  0  0  0  0  0  0  0  0  0
    2.2690    4.1200    0.0000 N   0  3  0  0  0  0  0  0  0  0  0  0
    4.0010    6.1200    0.0000 N   0  0  0  0  0  0  0  0  0  0  0  0
    3.1350    4.6200    0.0000 C   0  0  0  0  0  0  0  0  0  0  0  0
    1.4030    3.6200    0.0000 C   0  0  0  0  0  0  0  0  0  0  0  0
    1.7690    4.9860    0.0000 C   0  0  0  0  0  0  0  0  0  0  0  0
    2.7690    3.2540    0.0000 C   0  0  0  0  0  0  0  0  0  0  0  0
    5.7331   10.1200    0.0000 C   0  0  0  0  0  0  0  0  0  0  0  0
    5.7331    9.1200    0.0000 C   0  0  0  0  0  0  0  0  0  0  0  0
    6.5991   10.6200    0.0000 C   0  0  0  0  0  0  0  0  0  0  0  0
    4.8671    8.6200    0.0000 C   0  0  0  0  0  0  0  0  0  0  0  0
    6.5991   11.6200    0.0000 C   0  0  0  0  0  0  0  0  0  0  0  0
    4.8671    7.6200    0.0000 C   0  0  0  0  0  0  0  0  0  0  0  0
    3.1350    5.6200    0.0000 C   0  0  0  0  0  0  0  0  0  0  0  0
    1.4030    2.6200    0.0000 C   0  0  0  0  0  0  0  0  0  0  0  0
    7.4651   12.1200    0.0000 C   0  0  0  0  0  0  0  0  0  0  0  0
    4.0010    7.1200    0.0000 C   0  0  0  0  0  0  0  0  0  0  0  0
    7.4651   13.1200    0.0000 C   0  0  0  0  0  0  0  0  0  0  0  0
    8.3312   13.6200    0.0000 C   0  0  0  0  0  0  0  0  0  0  0  0
    0.5369    2.1200    0.0000 C   0  0  0  0  0  0  0  0  0  0  0  0
    2.2690    2.1200    0.0000 C   0  0  0  0  0  0  0  0  0  0  0  0
    8.3312   14.6200    0.0000 C   0  0  0  0  0  0  0  0  0  0  0  0
    0.5369    1.1200    0.0000 C   0  0  0  0  0  0  0  0  0  0  0  0
    2.2690    1.1200    0.0000 C   0  0  0  0  0  0  0  0  0  0  0  0
    9.1972   15.1200    0.0000 C   0  0  0  0  0  0  0  0  0  0  0  0
    1.4030    0.6200    0.0000 C   0  0  0  0  0  0  0  0  0  0  0  0
    3.3471    4.0374    0.0000 H   0  0  0  0  0  0  0  0  0  0  0  0
    3.7456    4.7277    0.0000 H   0  0  0  0  0  0  0  0  0  0  0  0
    1.1909    4.2026    0.0000 H   0  0  0  0  0  0  0  0  0  0  0  0
    0.7924    3.5123    0.0000 H   0  0  0  0  0  0  0  0  0  0  0  0
    2.3059    5.2960    0.0000 H   0  0  0  0  0  0  0  0  0  0  0  0
    1.4590    5.5230    0.0000 H   0  0  0  0  0  0  0  0  0  0  0  0
    1.2320    4.6760    0.0000 H   0  0  0  0  0  0  0  0  0  0  0  0
    2.2320    2.9440    0.0000 H   0  0  0  0  0  0  0  0  0  0  0  0
    3.0790    2.7170    0.0000 H   0  0  0  0  0  0  0  0  0  0  0  0
    3.3059    3.5640    0.0000 H   0  0  0  0  0  0  0  0  0  0  0  0
    5.5210   10.7026    0.0000 H   0  0  0  0  0  0  0  0  0  0  0  0
    5.1225   10.0123    0.0000 H   0  0  0  0  0  0  0  0  0  0  0  0
    5.9451    8.5374    0.0000 H   0  0  0  0  0  0  0  0  0  0  0  0
    6.3437    9.2277    0.0000 H   0  0  0  0  0  0  0  0  0  0  0  0
    6.8112   10.0374    0.0000 H   0  0  0  0  0  0  0  0  0  0  0  0
    7.2097   10.7277    0.0000 H   0  0  0  0  0  0  0  0  0  0  0  0
    4.6550    9.2026    0.0000 H   0  0  0  0  0  0  0  0  0  0  0  0
    4.2565    8.5123    0.0000 H   0  0  0  0  0  0  0  0  0  0  0  0
    6.3871   12.2026    0.0000 H   0  0  0  0  0  0  0  0  0  0  0  0
    5.9885   11.5123    0.0000 H   0  0  0  0  0  0  0  0  0  0  0  0
    5.0791    7.0374    0.0000 H   0  0  0  0  0  0  0  0  0  0  0  0
    5.4776    7.7277    0.0000 H   0  0  0  0  0  0  0  0  0  0  0  0
    7.6772   11.5374    0.0000 H   0  0  0  0  0  0  0  0  0  0  0  0
    8.0757   12.2277    0.0000 H   0  0  0  0  0  0  0  0  0  0  0  0
    3.7890    7.7026    0.0000 H   0  0  0  0  0  0  0  0  0  0  0  0
    3.3905    7.0123    0.0000 H   0  0  0  0  0  0  0  0  0  0  0  0
    7.2531   13.7026    0.0000 H   0  0  0  0  0  0  0  0  0  0  0  0
    6.8546   13.0123    0.0000 H   0  0  0  0  0  0  0  0  0  0  0  0
    4.5380    5.8100    0.0000 H   0  0  0  0  0  0  0  0  0  0  0  0
    8.5432   13.0374    0.0000 H   0  0  0  0  0  0  0  0  0  0  0  0
    8.9417   13.7277    0.0000 H   0  0  0  0  0  0  0  0  0  0  0  0
    0.0000    2.4300    0.0000 H   0  0  0  0  0  0  0  0  0  0  0  0
    2.8059    2.4300    0.0000 H   0  0  0  0  0  0  0  0  0  0  0  0
    8.1191   15.2026    0.0000 H   0  0  0  0  0  0  0  0  0  0  0  0
    7.7206   14.5123    0.0000 H   0  0  0  0  0  0  0  0  0  0  0  0
    0.0000    0.8100    0.0000 H   0  0  0  0  0  0  0  0  0  0  0  0
    2.8059    0.8100    0.0000 H   0  0  0  0  0  0  0  0  0  0  0  0
    9.5072   14.5831    0.0000 H   0  0  0  0  0  0  0  0  0  0  0  0
    9.7341   15.4300    0.0000 H   0  0  0  0  0  0  0  0  0  0  0  0
    8.8872   15.6569    0.0000 H   0  0  0  0  0  0  0  0  0  0  0  0
    1.4030    0.0000    0.0000 H   0  0  0  0  0  0  0  0  0  0  0  0
  2 15  2  0  0  0  0
  3  5  1  0  0  0  0
  3  6  1  0  0  0  0
  3  7  1  0  0  0  0
  3  8  1  0  0  0  0
  4 15  1  0  0  0  0
  4 18  1  0  0  0  0
  4 56  1  0  0  0  0
  5 15  1  0  0  0  0
  5 28  1  0  0  0  0
  5 29  1  0  0  0  0
  6 16  1  0  0  0  0
  6 30  1  0  0  0  0
  6 31  1  0  0  0  0
  7 32  1  0  0  0  0
  7 33  1  0  0  0  0
  7 34  1  0  0  0  0
  8 35  1  0  0  0  0
  8 36  1  0  0  0  0
  8 37  1  0  0  0  0
  9 10  1  0  0  0  0
  9 11  1  0  0  0  0
  9 38  1  0  0  0  0
  9 39  1  0  0  0  0
 10 12  1  0  0  0  0
 10 40  1  0  0  0  0
 10 41  1  0  0  0  0
 11 13  1  0  0  0  0
 11 42  1  0  0  0  0
 11 43  1  0  0  0  0
 12 14  1  0  0  0  0
 12 44  1  0  0  0  0
 12 45  1  0  0  0  0
 13 17  1  0  0  0  0
 13 46  1  0  0  0  0
 13 47  1  0  0  0  0
 14 18  1  0  0  0  0
 14 48  1  0  0  0  0
 14 49  1  0  0  0  0
 16 21  2  0  0  0  0
 16 22  1  0  0  0  0
 17 19  1  0  0  0  0
 17 50  1  0  0  0  0
 17 51  1  0  0  0  0
 18 52  1  0  0  0  0
 18 53  1  0  0  0  0
 19 20  1  0  0  0  0
 19 54  1  0  0  0  0
 19 55  1  0  0  0  0
 20 23  1  0  0  0  0
 20 57  1  0  0  0  0
 20 58  1  0  0  0  0
 21 24  1  0  0  0  0
 21 59  1  0  0  0  0
 22 25  2  0  0  0  0
 22 60  1  0  0  0  0
 23 26  1  0  0  0  0
 23 61  1  0  0  0  0
 23 62  1  0  0  0  0
 24 27  2  0  0  0  0
 24 63  1  0  0  0  0
 25 27  1  0  0  0  0
 25 64  1  0  0  0  0
 26 65  1  0  0  0  0
 26 66  1  0  0  0  0
 26 67  1  0  0  0  0
 27 68  1  0  0  0  0
M  CHG  2   1  -1   3   1
M  END
> <PUBCHEM_COMPOUND_CID>
7535

> <PUBCHEM_COMPOUND_CANONICALIZED>
1

> <PUBCHEM_CACTVS_COMPLEXITY>
348

> <PUBCHEM_CACTVS_HBOND_ACCEPTOR>
2

> <PUBCHEM_CACTVS_HBOND_DONOR>
1

> <PUBCHEM_CACTVS_ROTATABLE_BOND>
15

> <PUBCHEM_CACTVS_SUBSKEYS>
AAADcfB7IAAEAAAAAAAAAAAAAAAAAAAAAAAwAAAAAAAAAAABAAAAHgAQAAAADADBmAQyAIPAAACIAiFSEACCAAAgAAAIiICIBIgIYCKAkTGUIAhglgCIiAcQgIAOAAAAAAAAAAAAAAAAAAAAAAAAAAAAAA==

> <PUBCHEM_IUPAC_OPENEYE_NAME>
benzyl-[2-(dodecylamino)-2-oxo-ethyl]-dimethyl-ammonium chloride

> <PUBCHEM_IUPAC_CAS_NAME>
[2-(dodecylamino)-2-oxoethyl]-dimethyl-(phenylmethyl)ammonium chloride

> <PUBCHEM_IUPAC_NAME>
benzyl-[2-(dodecylamino)-2-oxoethyl]-dimethylazanium chloride

> <PUBCHEM_IUPAC_SYSTEMATIC_NAME>
[2-(dodecylamino)-2-oxidanylidene-ethyl]-dimethyl-(phenylmethyl)azanium chloride

> <PUBCHEM_IUPAC_TRADITIONAL_NAME>
benzyl-[2-keto-2-(laurylamino)ethyl]-dimethyl-ammonium chloride

> <PUBCHEM_IUPAC_INCHI>
InChI=1S/C23H40N2O.ClH/c1-4-5-6-7-8-9-10-11-12-16-19-24-23(26)21-25(2,3)20-22-17-14-13-15-18-22;/h13-15,17-18H,4-12,16,19-21H2,1-3H3;1H

> <PUBCHEM_IUPAC_INCHIKEY>
COLOBWZNRYGBRU-UHFFFAOYSA-N

> <PUBCHEM_EXACT_MASS>
396.290742

> <PUBCHEM_MOLECULAR_FORMULA>
C23H41ClN2O

> <PUBCHEM_MOLECULAR_WEIGHT>
397.03744

> <PUBCHEM_OPENEYE_CAN_SMILES>
CCCCCCCCCCCCNC(=O)C[N+](C)(C)CC1=CC=CC=C1.[Cl-]

> <PUBCHEM_OPENEYE_ISO_SMILES>
CCCCCCCCCCCCNC(=O)C[N+](C)(C)CC1=CC=CC=C1.[Cl-]

> <PUBCHEM_CACTVS_TPSA>
29.1

> <PUBCHEM_MONOISOTOPIC_WEIGHT>
396.290742

> <PUBCHEM_TOTAL_CHARGE>
0

> <PUBCHEM_HEAVY_ATOM_COUNT>
27

> <PUBCHEM_ATOM_DEF_STEREO_COUNT>
0

> <PUBCHEM_ATOM_UDEF_STEREO_COUNT>
0

> <PUBCHEM_BOND_DEF_STEREO_COUNT>
0

> <PUBCHEM_BOND_UDEF_STEREO_COUNT>
0

> <PUBCHEM_ISOTOPIC_ATOM_COUNT>
0

> <PUBCHEM_COMPONENT_COUNT>
2

> <PUBCHEM_CACTVS_TAUTO_COUNT>
2

> <PUBCHEM_COORDINATE_TYPE>
1
5
255

> <PUBCHEM_BONDANNOTATIONS>
16  21  8
16  22  8
21  24  8
22  25  8
24  27  8
25  27  8

$$$$

