4566
  -OEChem-06261200132D

 50 53  0     0  0  0  0  0  0999 V2000
    3.4030   -0.9400    0.0000 S   0  0  0  0  0  0  0  0  0  0  0  0
    8.5991    0.0600    0.0000 O   0  0  0  0  0  0  0  0  0  0  0  0
    2.9030   -1.8060    0.0000 O   0  0  0  0  0  0  0  0  0  0  0  0
    3.9030   -0.0740    0.0000 O   0  0  0  0  0  0  0  0  0  0  0  0
    7.7331   -1.4400    0.0000 N   0  0  0  0  0  0  0  0  0  0  0  0
   10.4114   -1.1353    0.0000 N   0  0  0  0  0  0  0  0  0  0  0  0
    8.5991   -2.9400    0.0000 N   0  0  0  0  0  0  0  0  0  0  0  0
    6.8671   -2.9400    0.0000 N   0  0  0  0  0  0  0  0  0  0  0  0
   10.4114   -2.7447    0.0000 N   0  0  0  0  0  0  0  0  0  0  0  0
    2.5369   -0.4400    0.0000 N   0  0  0  0  0  0  0  0  0  0  0  0
    7.7331    1.5600    0.0000 C   0  0  0  0  0  0  0  0  0  0  0  0
    8.5991    2.0600    0.0000 C   0  0  0  0  0  0  0  0  0  0  0  0
    6.8671    2.0600    0.0000 C   0  0  0  0  0  0  0  0  0  0  0  0
    6.8671    3.0600    0.0000 C   0  0  0  0  0  0  0  0  0  0  0  0
    8.5991    3.0600    0.0000 C   0  0  0  0  0  0  0  0  0  0  0  0
    7.7331    3.5600    0.0000 C   0  0  0  0  0  0  0  0  0  0  0  0
    7.7331    0.5600    0.0000 C   0  0  0  0  0  0  0  0  0  0  0  0
    8.5991   -0.9400    0.0000 C   0  0  0  0  0  0  0  0  0  0  0  0
    9.4651   -1.4400    0.0000 C   0  0  0  0  0  0  0  0  0  0  0  0
    9.4651   -2.4400    0.0000 C   0  0  0  0  0  0  0  0  0  0  0  0
    7.7331   -2.4400    0.0000 C   0  0  0  0  0  0  0  0  0  0  0  0
   10.9950   -1.9400    0.0000 C   0  0  0  0  0  0  0  0  0  0  0  0
    6.0010   -2.4400    0.0000 C   0  0  0  0  0  0  0  0  0  0  0  0
    4.2690   -1.4400    0.0000 C   0  0  0  0  0  0  0  0  0  0  0  0
    6.0010   -1.4400    0.0000 C   0  0  0  0  0  0  0  0  0  0  0  0
    5.1350   -2.9400    0.0000 C   0  0  0  0  0  0  0  0  0  0  0  0
    5.1350   -0.9400    0.0000 C   0  0  0  0  0  0  0  0  0  0  0  0
    4.2690   -2.4400    0.0000 C   0  0  0  0  0  0  0  0  0  0  0  0
    8.2700    1.2500    0.0000 H   0  0  0  0  0  0  0  0  0  0  0  0
    6.2565    2.1677    0.0000 H   0  0  0  0  0  0  0  0  0  0  0  0
    6.6550    1.4774    0.0000 H   0  0  0  0  0  0  0  0  0  0  0  0
    8.8112    1.4774    0.0000 H   0  0  0  0  0  0  0  0  0  0  0  0
    9.2097    2.1677    0.0000 H   0  0  0  0  0  0  0  0  0  0  0  0
    6.6550    3.6426    0.0000 H   0  0  0  0  0  0  0  0  0  0  0  0
    6.2565    2.9523    0.0000 H   0  0  0  0  0  0  0  0  0  0  0  0
    9.2097    2.9523    0.0000 H   0  0  0  0  0  0  0  0  0  0  0  0
    8.8112    3.6426    0.0000 H   0  0  0  0  0  0  0  0  0  0  0  0
    8.1316    4.0350    0.0000 H   0  0  0  0  0  0  0  0  0  0  0  0
    7.3346    4.0350    0.0000 H   0  0  0  0  0  0  0  0  0  0  0  0
    7.1225    0.6677    0.0000 H   0  0  0  0  0  0  0  0  0  0  0  0
    7.5210   -0.0226    0.0000 H   0  0  0  0  0  0  0  0  0  0  0  0
   10.6040   -0.5459    0.0000 H   0  0  0  0  0  0  0  0  0  0  0  0
    6.8671   -3.5600    0.0000 H   0  0  0  0  0  0  0  0  0  0  0  0
   11.6150   -1.9400    0.0000 H   0  0  0  0  0  0  0  0  0  0  0  0
    6.5380   -1.1300    0.0000 H   0  0  0  0  0  0  0  0  0  0  0  0
    5.1350   -3.5600    0.0000 H   0  0  0  0  0  0  0  0  0  0  0  0
    5.1350   -0.3200    0.0000 H   0  0  0  0  0  0  0  0  0  0  0  0
    3.7320   -2.7500    0.0000 H   0  0  0  0  0  0  0  0  0  0  0  0
    2.0000   -0.7500    0.0000 H   0  0  0  0  0  0  0  0  0  0  0  0
    2.5369    0.1800    0.0000 H   0  0  0  0  0  0  0  0  0  0  0  0
  1  3  2  0  0  0  0
  1  4  2  0  0  0  0
  1 10  1  0  0  0  0
  1 24  1  0  0  0  0
  2 17  1  0  0  0  0
  2 18  1  0  0  0  0
  5 18  2  0  0  0  0
  5 21  1  0  0  0  0
  6 19  1  0  0  0  0
  6 22  1  0  0  0  0
  6 42  1  0  0  0  0
  7 20  1  0  0  0  0
  7 21  2  0  0  0  0
  8 21  1  0  0  0  0
  8 23  1  0  0  0  0
  8 43  1  0  0  0  0
  9 20  1  0  0  0  0
  9 22  2  0  0  0  0
 10 49  1  0  0  0  0
 10 50  1  0  0  0  0
 11 12  1  0  0  0  0
 11 13  1  0  0  0  0
 11 17  1  0  0  0  0
 11 29  1  0  0  0  0
 12 15  1  0  0  0  0
 12 32  1  0  0  0  0
 12 33  1  0  0  0  0
 13 14  1  0  0  0  0
 13 30  1  0  0  0  0
 13 31  1  0  0  0  0
 14 16  1  0  0  0  0
 14 34  1  0  0  0  0
 14 35  1  0  0  0  0
 15 16  1  0  0  0  0
 15 36  1  0  0  0  0
 15 37  1  0  0  0  0
 16 38  1  0  0  0  0
 16 39  1  0  0  0  0
 17 40  1  0  0  0  0
 17 41  1  0  0  0  0
 18 19  1  0  0  0  0
 19 20  2  0  0  0  0
 22 44  1  0  0  0  0
 23 25  2  0  0  0  0
 23 26  1  0  0  0  0
 24 27  2  0  0  0  0
 24 28  1  0  0  0  0
 25 27  1  0  0  0  0
 25 45  1  0  0  0  0
 26 28  2  0  0  0  0
 26 46  1  0  0  0  0
 27 47  1  0  0  0  0
 28 48  1  0  0  0  0
M  END
> <PUBCHEM_COMPOUND_CID>
4566

> <PUBCHEM_COMPOUND_CANONICALIZED>
1

> <PUBCHEM_CACTVS_COMPLEXITY>
601

> <PUBCHEM_CACTVS_HBOND_ACCEPTOR>
8

> <PUBCHEM_CACTVS_HBOND_DONOR>
3

> <PUBCHEM_CACTVS_ROTATABLE_BOND>
6

> <PUBCHEM_CACTVS_SUBSKEYS>
AAADceB7sABAAAAAAAAAAAAAAAAAAWAAAAA8YIAAAAAAAFgB/AAAHgQQQAAADQih1wY19b7JlAKgASZjZHTCiD2xcqAJ2bgtfJiObCLE+dmfLCjukApY6CeQwCAOAAQAAAAAAAAACAAAAAAAAAAAAAAAAA==

> <PUBCHEM_IUPAC_OPENEYE_NAME>
4-[[6-(cyclohexylmethoxy)-7H-purin-2-yl]amino]benzenesulfonamide

> <PUBCHEM_IUPAC_CAS_NAME>
4-[[6-(cyclohexylmethoxy)-7H-purin-2-yl]amino]benzenesulfonamide

> <PUBCHEM_IUPAC_NAME>
4-[[6-(cyclohexylmethoxy)-7H-purin-2-yl]amino]benzenesulfonamide

> <PUBCHEM_IUPAC_SYSTEMATIC_NAME>
4-[[6-(cyclohexylmethoxy)-7H-purin-2-yl]amino]benzenesulfonamide

> <PUBCHEM_IUPAC_TRADITIONAL_NAME>
4-[[6-(cyclohexylmethoxy)-7H-purin-2-yl]amino]benzenesulfonamide

> <PUBCHEM_IUPAC_INCHI>
InChI=1S/C18H22N6O3S/c19-28(25,26)14-8-6-13(7-9-14)22-18-23-16-15(20-11-21-16)17(24-18)27-10-12-4-2-1-3-5-12/h6-9,11-12H,1-5,10H2,(H2,19,25,26)(H2,20,21,22,23,24)

> <PUBCHEM_IUPAC_INCHIKEY>
OWXORKPNCHJYOF-UHFFFAOYSA-N

> <PUBCHEM_XLOGP3_AA>
3.2

> <PUBCHEM_EXACT_MASS>
402.14741

> <PUBCHEM_MOLECULAR_FORMULA>
C18H22N6O3S

> <PUBCHEM_MOLECULAR_WEIGHT>
402.47068

> <PUBCHEM_OPENEYE_CAN_SMILES>
C1CCC(CC1)COC2=NC(=NC3=C2NC=N3)NC4=CC=C(C=C4)S(=O)(=O)N

> <PUBCHEM_OPENEYE_ISO_SMILES>
C1CCC(CC1)COC2=NC(=NC3=C2NC=N3)NC4=CC=C(C=C4)S(=O)(=O)N

> <PUBCHEM_CACTVS_TPSA>
144

> <PUBCHEM_MONOISOTOPIC_WEIGHT>
402.14741

> <PUBCHEM_TOTAL_CHARGE>
0

> <PUBCHEM_HEAVY_ATOM_COUNT>
28

> <PUBCHEM_ATOM_DEF_STEREO_COUNT>
0

> <PUBCHEM_ATOM_UDEF_STEREO_COUNT>
0

> <PUBCHEM_BOND_DEF_STEREO_COUNT>
0

> <PUBCHEM_BOND_UDEF_STEREO_COUNT>
0

> <PUBCHEM_ISOTOPIC_ATOM_COUNT>
0

> <PUBCHEM_COMPONENT_COUNT>
1

> <PUBCHEM_CACTVS_TAUTO_COUNT>
9

> <PUBCHEM_COORDINATE_TYPE>
1
5
255

> <PUBCHEM_BONDANNOTATIONS>
18  19  8
19  20  8
23  25  8
23  26  8
24  27  8
24  28  8
25  27  8
26  28  8
5  18  8
5  21  8
6  19  8
6  22  8
7  20  8
7  21  8
9  20  8
9  22  8

$$$$

