13859
  -OEChem-06241222402D

 19 19  0     1  0  0  0  0  0999 V2000
    4.7320   -0.3170    0.0000 S   0  0  3  0  0  0  0  0  0  0  0  0
    3.8660   -0.8170    0.0000 O   0  0  0  0  0  0  0  0  0  0  0  0
    4.7320    0.6830    0.0000 O   0  0  0  0  0  0  0  0  0  0  0  0
    5.5981   -0.8170    0.0000 O   0  0  0  0  0  0  0  0  0  0  0  0
    3.0000   -0.3170    0.0000 C   0  0  0  0  0  0  0  0  0  0  0  0
    3.0000    0.6830    0.0000 C   0  0  0  0  0  0  0  0  0  0  0  0
    3.8660    1.1830    0.0000 C   0  0  0  0  0  0  0  0  0  0  0  0
    2.0000   -0.3170    0.0000 C   0  0  0  0  0  0  0  0  0  0  0  0
    2.5000   -1.1830    0.0000 C   0  0  0  0  0  0  0  0  0  0  0  0
    2.7880    1.2656    0.0000 H   0  0  0  0  0  0  0  0  0  0  0  0
    2.3894    0.5754    0.0000 H   0  0  0  0  0  0  0  0  0  0  0  0
    4.2646    1.6580    0.0000 H   0  0  0  0  0  0  0  0  0  0  0  0
    3.4675    1.6580    0.0000 H   0  0  0  0  0  0  0  0  0  0  0  0
    2.0000    0.3030    0.0000 H   0  0  0  0  0  0  0  0  0  0  0  0
    1.3800   -0.3170    0.0000 H   0  0  0  0  0  0  0  0  0  0  0  0
    2.0000   -0.9370    0.0000 H   0  0  0  0  0  0  0  0  0  0  0  0
    1.9631   -0.8730    0.0000 H   0  0  0  0  0  0  0  0  0  0  0  0
    2.1900   -1.7200    0.0000 H   0  0  0  0  0  0  0  0  0  0  0  0
    3.0369   -1.4930    0.0000 H   0  0  0  0  0  0  0  0  0  0  0  0
  1  2  1  0  0  0  0
  1  3  1  0  0  0  0
  1  4  2  0  0  0  0
  2  5  1  0  0  0  0
  3  7  1  0  0  0  0
  5  6  1  0  0  0  0
  5  8  1  0  0  0  0
  5  9  1  0  0  0  0
  6  7  1  0  0  0  0
  6 10  1  0  0  0  0
  6 11  1  0  0  0  0
  7 12  1  0  0  0  0
  7 13  1  0  0  0  0
  8 14  1  0  0  0  0
  8 15  1  0  0  0  0
  8 16  1  0  0  0  0
  9 17  1  0  0  0  0
  9 18  1  0  0  0  0
  9 19  1  0  0  0  0
M  END
> <PUBCHEM_COMPOUND_CID>
13859

> <PUBCHEM_COMPOUND_CANONICALIZED>
1

> <PUBCHEM_CACTVS_COMPLEXITY>
132

> <PUBCHEM_CACTVS_HBOND_ACCEPTOR>
4

> <PUBCHEM_CACTVS_HBOND_DONOR>
0

> <PUBCHEM_CACTVS_ROTATABLE_BOND>
0

> <PUBCHEM_CACTVS_SUBSKEYS>
AAADccBgMABAAAAAAAAAAAAAAAAAAAAAAAAkAAAAAAAAAAAAAAAAGgAAAAAADESggAICAAAAAAAAAAAAACAAAAAAAAAAAAAAAAAAAAAAAAAAAAAFAAAAAAAAAAAIAAAAAAAAAAAAAAAAAAAAAAAAAAAAAA==

> <PUBCHEM_IUPAC_OPENEYE_NAME>
4,4-dimethyl-1,3,2-dioxathiane 2-oxide

> <PUBCHEM_IUPAC_CAS_NAME>
4,4-dimethyl-1,3,2-dioxathiane 2-oxide

> <PUBCHEM_IUPAC_NAME>
4,4-dimethyl-1,3,2-dioxathiane 2-oxide

> <PUBCHEM_IUPAC_SYSTEMATIC_NAME>
4,4-dimethyl-1,3,2-dioxathiane 2-oxide

> <PUBCHEM_IUPAC_TRADITIONAL_NAME>
4,4-dimethyl-1,3,2-dioxathiane 2-oxide

> <PUBCHEM_IUPAC_INCHI>
InChI=1S/C5H10O3S/c1-5(2)3-4-7-9(6)8-5/h3-4H2,1-2H3

> <PUBCHEM_IUPAC_INCHIKEY>
ZCWRAERLSMTDHH-UHFFFAOYSA-N

> <PUBCHEM_XLOGP3_AA>
0.9

> <PUBCHEM_EXACT_MASS>
150.035065

> <PUBCHEM_MOLECULAR_FORMULA>
C5H10O3S

> <PUBCHEM_MOLECULAR_WEIGHT>
150.1961

> <PUBCHEM_OPENEYE_CAN_SMILES>
CC1(CCOS(=O)O1)C

> <PUBCHEM_OPENEYE_ISO_SMILES>
CC1(CCOS(=O)O1)C

> <PUBCHEM_CACTVS_TPSA>
54.7

> <PUBCHEM_MONOISOTOPIC_WEIGHT>
150.035065

> <PUBCHEM_TOTAL_CHARGE>
0

> <PUBCHEM_HEAVY_ATOM_COUNT>
9

> <PUBCHEM_ATOM_DEF_STEREO_COUNT>
0

> <PUBCHEM_ATOM_UDEF_STEREO_COUNT>
1

> <PUBCHEM_BOND_DEF_STEREO_COUNT>
0

> <PUBCHEM_BOND_UDEF_STEREO_COUNT>
0

> <PUBCHEM_ISOTOPIC_ATOM_COUNT>
0

> <PUBCHEM_COMPONENT_COUNT>
1

> <PUBCHEM_CACTVS_TAUTO_COUNT>
1

> <PUBCHEM_COORDINATE_TYPE>
1
5
255

> <PUBCHEM_BONDANNOTATIONS>
1  2  3

$$$$

