17395711
  -OEChem-06241222512D

 42 44  0     1  0  0  0  0  0999 V2000
    4.4865    0.1900    0.0000 S   0  0  0  0  0  0  0  0  0  0  0  0
    3.4637    4.7566    0.0000 S   0  0  0  0  0  0  0  0  0  0  0  0
    5.6620    1.8080    0.0000 O   0  0  0  0  0  0  0  0  0  0  0  0
    4.2608    2.8261    0.0000 N   0  0  0  0  0  0  0  0  0  0  0  0
    2.5896   -1.5701    0.0000 N   0  0  0  0  0  0  0  0  0  0  0  0
    4.2077   -1.5701    0.0000 N   0  0  0  0  0  0  0  0  0  0  0  0
    2.8987   -0.6190    0.0000 N   0  0  0  0  0  0  0  0  0  0  0  0
    4.0797    1.1036    0.0000 C   0  0  3  0  0  0  0  0  0  0  0  0
    4.6675    1.9126    0.0000 C   0  0  0  0  0  0  0  0  0  0  0  0
    4.8486    3.6351    0.0000 C   0  0  0  0  0  0  0  0  0  0  0  0
    3.3987   -3.1578    0.0000 C   0  0  0  0  0  0  0  0  0  0  0  0
    3.0852    1.2081    0.0000 C   0  0  0  0  0  0  0  0  0  0  0  0
    3.3987   -2.1578    0.0000 C   0  0  0  0  0  0  0  0  0  0  0  0
    4.4418    4.5487    0.0000 C   0  0  0  0  0  0  0  0  0  0  0  0
    3.8987   -0.6190    0.0000 C   0  0  0  0  0  0  0  0  0  0  0  0
    3.3987   -5.1578    0.0000 C   0  0  0  0  0  0  0  0  0  0  0  0
    2.5326   -3.6578    0.0000 C   0  0  0  0  0  0  0  0  0  0  0  0
    4.2647   -3.6578    0.0000 C   0  0  0  0  0  0  0  0  0  0  0  0
    2.5326   -4.6578    0.0000 C   0  0  0  0  0  0  0  0  0  0  0  0
    4.2647   -4.6578    0.0000 C   0  0  0  0  0  0  0  0  0  0  0  0
    4.9418    5.4147    0.0000 C   0  0  0  0  0  0  0  0  0  0  0  0
    3.3987   -6.1578    0.0000 C   0  0  0  0  0  0  0  0  0  0  0  0
    4.2727    6.1578    0.0000 C   0  0  0  0  0  0  0  0  0  0  0  0
    3.3591    5.7511    0.0000 C   0  0  0  0  0  0  0  0  0  0  0  0
    3.7153    0.6020    0.0000 H   0  0  0  0  0  0  0  0  0  0  0  0
    5.2792    3.1891    0.0000 H   0  0  0  0  0  0  0  0  0  0  0  0
    5.3626    3.9818    0.0000 H   0  0  0  0  0  0  0  0  0  0  0  0
    3.6442    2.8909    0.0000 H   0  0  0  0  0  0  0  0  0  0  0  0
    3.1500    1.8247    0.0000 H   0  0  0  0  0  0  0  0  0  0  0  0
    2.4686    1.2729    0.0000 H   0  0  0  0  0  0  0  0  0  0  0  0
    3.0204    0.5915    0.0000 H   0  0  0  0  0  0  0  0  0  0  0  0
    1.9957   -3.3478    0.0000 H   0  0  0  0  0  0  0  0  0  0  0  0
    4.8016   -3.3478    0.0000 H   0  0  0  0  0  0  0  0  0  0  0  0
    1.9957   -4.9678    0.0000 H   0  0  0  0  0  0  0  0  0  0  0  0
    4.8016   -4.9678    0.0000 H   0  0  0  0  0  0  0  0  0  0  0  0
    2.0000   -1.7616    0.0000 H   0  0  0  0  0  0  0  0  0  0  0  0
    5.5584    5.4795    0.0000 H   0  0  0  0  0  0  0  0  0  0  0  0
    2.7787   -6.1578    0.0000 H   0  0  0  0  0  0  0  0  0  0  0  0
    3.3987   -6.7778    0.0000 H   0  0  0  0  0  0  0  0  0  0  0  0
    4.0187   -6.1578    0.0000 H   0  0  0  0  0  0  0  0  0  0  0  0
    4.4016    6.7643    0.0000 H   0  0  0  0  0  0  0  0  0  0  0  0
    2.8222    6.0611    0.0000 H   0  0  0  0  0  0  0  0  0  0  0  0
  1  8  1  0  0  0  0
  1 15  1  0  0  0  0
  2 14  1  0  0  0  0
  2 24  1  0  0  0  0
  3  9  2  0  0  0  0
  4  9  1  0  0  0  0
  4 10  1  0  0  0  0
  4 28  1  0  0  0  0
  5  7  1  0  0  0  0
  5 13  1  0  0  0  0
  5 36  1  0  0  0  0
  6 13  2  0  0  0  0
  6 15  1  0  0  0  0
  7 15  2  0  0  0  0
  8  9  1  0  0  0  0
  8 12  1  0  0  0  0
  8 25  1  0  0  0  0
 10 14  1  0  0  0  0
 10 26  1  0  0  0  0
 10 27  1  0  0  0  0
 11 13  1  0  0  0  0
 11 17  2  0  0  0  0
 11 18  1  0  0  0  0
 12 29  1  0  0  0  0
 12 30  1  0  0  0  0
 12 31  1  0  0  0  0
 14 21  2  0  0  0  0
 16 19  2  0  0  0  0
 16 20  1  0  0  0  0
 16 22  1  0  0  0  0
 17 19  1  0  0  0  0
 17 32  1  0  0  0  0
 18 20  2  0  0  0  0
 18 33  1  0  0  0  0
 19 34  1  0  0  0  0
 20 35  1  0  0  0  0
 21 23  1  0  0  0  0
 21 37  1  0  0  0  0
 22 38  1  0  0  0  0
 22 39  1  0  0  0  0
 22 40  1  0  0  0  0
 23 24  2  0  0  0  0
 23 41  1  0  0  0  0
 24 42  1  0  0  0  0
M  END
> <PUBCHEM_COMPOUND_CID>
17395711

> <PUBCHEM_COMPOUND_CANONICALIZED>
1

> <PUBCHEM_CACTVS_COMPLEXITY>
417

> <PUBCHEM_CACTVS_HBOND_ACCEPTOR>
5

> <PUBCHEM_CACTVS_HBOND_DONOR>
2

> <PUBCHEM_CACTVS_ROTATABLE_BOND>
6

> <PUBCHEM_CACTVS_SUBSKEYS>
AAADceB7oABgAAAAAAAAAAAAAAAAAWJAAAAwAAAAAAAAAAAB8AAAHgQYAAAADADF2wSzEYbrEAiuAiNyNACT0IvgCLBdqLkoBJiIKKKgmRGEIAhgngKoiAcQgAAOQAAAAAAAAACAAAAAAAAAAAAAAAAAAA==

> <PUBCHEM_IUPAC_OPENEYE_NAME>
2-[[5-(p-tolyl)-1H-1,2,4-triazol-3-yl]sulfanyl]-N-(2-thienylmethyl)propanamide

> <PUBCHEM_IUPAC_CAS_NAME>
2-[[5-(4-methylphenyl)-1H-1,2,4-triazol-3-yl]thio]-N-(thiophen-2-ylmethyl)propanamide

> <PUBCHEM_IUPAC_NAME>
2-[[5-(4-methylphenyl)-1H-1,2,4-triazol-3-yl]sulfanyl]-N-(thiophen-2-ylmethyl)propanamide

> <PUBCHEM_IUPAC_SYSTEMATIC_NAME>
2-[[5-(4-methylphenyl)-1H-1,2,4-triazol-3-yl]sulfanyl]-N-(thiophen-2-ylmethyl)propanamide

> <PUBCHEM_IUPAC_TRADITIONAL_NAME>
2-[[5-(p-tolyl)-1H-1,2,4-triazol-3-yl]thio]-N-(2-thenyl)propionamide

> <PUBCHEM_IUPAC_INCHI>
InChI=1S/C17H18N4OS2/c1-11-5-7-13(8-6-11)15-19-17(21-20-15)24-12(2)16(22)18-10-14-4-3-9-23-14/h3-9,12H,10H2,1-2H3,(H,18,22)(H,19,20,21)

> <PUBCHEM_IUPAC_INCHIKEY>
ABULMQYKDORIKH-UHFFFAOYSA-N

> <PUBCHEM_XLOGP3_AA>
3.8

> <PUBCHEM_EXACT_MASS>
358.092203

> <PUBCHEM_MOLECULAR_FORMULA>
C17H18N4OS2

> <PUBCHEM_MOLECULAR_WEIGHT>
358.48102

> <PUBCHEM_OPENEYE_CAN_SMILES>
CC1=CC=C(C=C1)C2=NC(=NN2)SC(C)C(=O)NCC3=CC=CS3

> <PUBCHEM_OPENEYE_ISO_SMILES>
CC1=CC=C(C=C1)C2=NC(=NN2)SC(C)C(=O)NCC3=CC=CS3

> <PUBCHEM_CACTVS_TPSA>
124

> <PUBCHEM_MONOISOTOPIC_WEIGHT>
358.092203

> <PUBCHEM_TOTAL_CHARGE>
0

> <PUBCHEM_HEAVY_ATOM_COUNT>
24

> <PUBCHEM_ATOM_DEF_STEREO_COUNT>
0

> <PUBCHEM_ATOM_UDEF_STEREO_COUNT>
1

> <PUBCHEM_BOND_DEF_STEREO_COUNT>
0

> <PUBCHEM_BOND_UDEF_STEREO_COUNT>
0

> <PUBCHEM_ISOTOPIC_ATOM_COUNT>
0

> <PUBCHEM_COMPONENT_COUNT>
1

> <PUBCHEM_CACTVS_TAUTO_COUNT>
6

> <PUBCHEM_COORDINATE_TYPE>
1
5
255

> <PUBCHEM_BONDANNOTATIONS>
11  17  8
11  18  8
14  21  8
16  19  8
16  20  8
17  19  8
18  20  8
2  14  8
2  24  8
21  23  8
23  24  8
5  13  8
5  7  8
6  13  8
6  15  8
7  15  8
8  12  3

$$$$

