5696
  -OEChem-06261200493D

 48 50  0     0  0  0  0  0  0999 V2000
    0.0777    1.9198    0.3850 S   0  0  0  0  0  0  0  0  0  0  0  0
   -4.8724   -2.7702   -0.4832 S   0  0  0  0  0  0  0  0  0  0  0  0
   -5.2018    2.5692    0.8472 S   0  0  0  0  0  0  0  0  0  0  0  0
    0.6056    1.9956   -1.1564 O   0  0  0  0  0  0  0  0  0  0  0  0
   -5.5539   -2.1061   -1.8090 O   0  0  0  0  0  0  0  0  0  0  0  0
   -0.1537    3.2810    0.8314 O   0  0  0  0  0  0  0  0  0  0  0  0
    0.9436    1.0216    1.1245 O   0  0  0  0  0  0  0  0  0  0  0  0
   -5.6124    3.2085   -0.6004 O   0  0  0  0  0  0  0  0  0  0  0  0
   -4.7137   -4.1897   -0.7447 O   0  0  0  0  0  0  0  0  0  0  0  0
   -5.5908   -2.2984    0.6864 O   0  0  0  0  0  0  0  0  0  0  0  0
   -6.3276    1.7589    1.2883 O   0  0  0  0  0  0  0  0  0  0  0  0
   -4.6857    3.6408    1.6843 O   0  0  0  0  0  0  0  0  0  0  0  0
    1.7853   -2.7266    0.3198 O   0  0  0  0  0  0  0  0  0  0  0  0
    3.7340    2.4011   -2.4680 O   0  5  0  0  0  0  0  0  0  0  0  0
    6.2787   -2.1665    2.2255 O   0  5  0  0  0  0  0  0  0  0  0  0
    5.8183    2.5623   -1.7984 O   0  0  0  0  0  0  0  0  0  0  0  0
    7.5682   -0.5788    1.4287 O   0  0  0  0  0  0  0  0  0  0  0  0
    0.7008   -0.7372   -0.3055 N   0  0  0  0  0  0  0  0  0  0  0  0
    4.6973    1.9997   -1.7715 N   0  3  0  0  0  0  0  0  0  0  0  0
    6.4632   -1.1700    1.4859 N   0  3  0  0  0  0  0  0  0  0  0  0
   -1.7144   -0.2243   -0.0376 C   0  0  0  0  0  0  0  0  0  0  0  0
   -3.0415   -0.7143   -0.0812 C   0  0  0  0  0  0  0  0  0  0  0  0
   -1.4906    1.1248    0.2820 C   0  0  0  0  0  0  0  0  0  0  0  0
   -0.6504   -1.0979   -0.3150 C   0  0  0  0  0  0  0  0  0  0  0  0
   -3.2654   -2.0632   -0.4011 C   0  0  0  0  0  0  0  0  0  0  0  0
   -4.1056    0.1594    0.1960 C   0  0  0  0  0  0  0  0  0  0  0  0
   -3.8647    1.4968    0.5117 C   0  0  0  0  0  0  0  0  0  0  0  0
   -2.5597    1.9787    0.5546 C   0  0  0  0  0  0  0  0  0  0  0  0
   -0.8912   -2.4354   -0.6311 C   0  0  0  0  0  0  0  0  0  0  0  0
   -2.1962   -2.9170   -0.6741 C   0  0  0  0  0  0  0  0  0  0  0  0
    1.8030   -1.5428    0.0004 C   0  0  0  0  0  0  0  0  0  0  0  0
    3.1221   -0.8591   -0.0498 C   0  0  0  0  0  0  0  0  0  0  0  0
    4.1499   -1.3384    0.7349 C   0  0  0  0  0  0  0  0  0  0  0  0
    3.2750    0.2320   -0.8793 C   0  0  0  0  0  0  0  0  0  0  0  0
    4.5127    0.8735   -0.9260 C   0  0  0  0  0  0  0  0  0  0  0  0
    5.3875   -0.6968    0.6881 C   0  0  0  0  0  0  0  0  0  0  0  0
    5.5690    0.4091   -0.1423 C   0  0  0  0  0  0  0  0  0  0  0  0
   -5.1411   -0.1441    0.1164 H   0  0  0  0  0  0  0  0  0  0  0  0
   -2.4135    3.0280    0.7868 H   0  0  0  0  0  0  0  0  0  0  0  0
   -0.1085   -3.1322   -0.9113 H   0  0  0  0  0  0  0  0  0  0  0  0
   -2.3390   -3.9598   -0.9403 H   0  0  0  0  0  0  0  0  0  0  0  0
    0.8999    0.2006   -0.5919 H   0  0  0  0  0  0  0  0  0  0  0  0
    0.0429    2.5217   -1.7720 H   0  0  0  0  0  0  0  0  0  0  0  0
   -5.0969   -2.2981   -2.6615 H   0  0  0  0  0  0  0  0  0  0  0  0
    3.9884   -2.1967    1.3814 H   0  0  0  0  0  0  0  0  0  0  0  0
    2.4988    0.5379   -1.5681 H   0  0  0  0  0  0  0  0  0  0  0  0
   -5.9163    2.5598   -1.2781 H   0  0  0  0  0  0  0  0  0  0  0  0
    6.5341    0.9093   -0.1787 H   0  0  0  0  0  0  0  0  0  0  0  0
  1  4  1  0  0  0  0
  1  6  2  0  0  0  0
  1  7  2  0  0  0  0
  1 23  1  0  0  0  0
  2  5  1  0  0  0  0
  2  9  2  0  0  0  0
  2 10  2  0  0  0  0
  2 25  1  0  0  0  0
  3  8  1  0  0  0  0
  3 11  2  0  0  0  0
  3 12  2  0  0  0  0
  3 27  1  0  0  0  0
  4 43  1  0  0  0  0
  5 44  1  0  0  0  0
  8 47  1  0  0  0  0
 13 31  2  0  0  0  0
 14 19  1  0  0  0  0
 15 20  1  0  0  0  0
 16 19  2  0  0  0  0
 17 20  2  0  0  0  0
 18 24  1  0  0  0  0
 18 31  1  0  0  0  0
 18 42  1  0  0  0  0
 19 35  1  0  0  0  0
 20 36  1  0  0  0  0
 21 22  1  0  0  0  0
 21 23  1  0  0  0  0
 21 24  2  0  0  0  0
 22 25  2  0  0  0  0
 22 26  1  0  0  0  0
 23 28  2  0  0  0  0
 24 29  1  0  0  0  0
 25 30  1  0  0  0  0
 26 27  2  0  0  0  0
 26 38  1  0  0  0  0
 27 28  1  0  0  0  0
 28 39  1  0  0  0  0
 29 30  2  0  0  0  0
 29 40  1  0  0  0  0
 30 41  1  0  0  0  0
 31 32  1  0  0  0  0
 32 33  2  0  0  0  0
 32 34  1  0  0  0  0
 33 36  1  0  0  0  0
 33 45  1  0  0  0  0
 34 35  2  0  0  0  0
 34 46  1  0  0  0  0
 35 37  1  0  0  0  0
 36 37  2  0  0  0  0
 37 48  1  0  0  0  0
M  CHG  4  14  -1  15  -1  19   1  20   1
M  END
> <PUBCHEM_COMPOUND_CID>
5696

> <PUBCHEM_CONFORMER_RMSD>
1

> <PUBCHEM_CONFORMER_DIVERSEORDER>
1
3
2

> <PUBCHEM_MMFF94_PARTIAL_CHARGES>
46
1 1.49
10 -0.65
11 -0.65
12 -0.65
13 -0.57
14 -0.52
15 -0.52
16 -0.52
17 -0.52
18 -0.55
19 0.91
2 1.49
20 0.91
23 -0.01
24 0.12
25 -0.01
26 -0.15
27 -0.01
28 -0.15
29 -0.15
3 1.49
30 -0.15
31 0.54
32 0.09
33 -0.15
34 -0.15
35 0.13
36 0.13
37 -0.15
38 0.15
39 0.15
4 -0.68
40 0.15
41 0.15
42 0.37
43 0.5
44 0.5
45 0.15
46 0.15
47 0.5
48 0.15
5 -0.68
6 -0.65
7 -0.65
8 -0.68
9 -0.65

> <PUBCHEM_EFFECTIVE_ROTOR_COUNT>
8

> <PUBCHEM_PHARMACOPHORE_FEATURES>
23
1 10 acceptor
1 11 acceptor
1 12 acceptor
1 13 acceptor
1 14 acceptor
1 14 anion
1 15 acceptor
1 15 anion
1 16 acceptor
1 17 acceptor
1 18 donor
1 4 acceptor
1 5 acceptor
1 6 acceptor
1 7 acceptor
1 8 acceptor
1 9 acceptor
4 1 4 6 7 anion
4 2 5 9 10 anion
4 3 8 11 12 anion
6 21 22 23 26 27 28 rings
6 21 22 24 25 29 30 rings
6 32 33 34 35 36 37 rings

> <PUBCHEM_HEAVY_ATOM_COUNT>
37

> <PUBCHEM_ATOM_DEF_STEREO_COUNT>
0

> <PUBCHEM_ATOM_UDEF_STEREO_COUNT>
0

> <PUBCHEM_BOND_DEF_STEREO_COUNT>
0

> <PUBCHEM_BOND_UDEF_STEREO_COUNT>
0

> <PUBCHEM_ISOTOPIC_ATOM_COUNT>
0

> <PUBCHEM_COMPONENT_COUNT>
1

> <PUBCHEM_CACTVS_TAUTO_COUNT>
2

> <PUBCHEM_CONFORMER_ID>
0000164000000001

> <PUBCHEM_MMFF94_ENERGY>
132.2746

> <PUBCHEM_FEATURE_SELFOVERLAP>
117.076

> <PUBCHEM_SHAPE_FINGERPRINT>
10411042 1 18046072562879751535
10675989 125 17113535373547775769
10906281 52 18042389400573347745
12107183 9 18270402836096205522
12166972 35 17988932119940431446
12236239 1 18272373066486123474
12422481 6 17774999145543399693
12616971 3 18059853995628344132
12788726 201 18263917748437111399
13617811 41 17908145374167075061
13726171 33 18116410588886682288
13782708 43 17167864115006546910
14068700 675 18116164277054695711
14117953 113 18196087966024302820
14347332 77 18264208015833843191
14394314 77 18412260619537629960
14400156 188 17476346216180590947
14739800 52 18119817911624177192
14790565 3 18118389886015885257
15021287 119 17632293509883392733
15131766 46 17129558186235117116
15250474 111 18412266120767691798
15297060 5 18041274465317053026
1577012 14 18342735218015309460
19319366 153 18200872988751081843
20511986 3 18342746217068306412
20642791 178 18341323444473640021
20715895 44 18125441062215720493
21033648 29 16370714924766631462
21236236 1 18334016099312908959
21792964 463 17488156284863696060
22149856 69 17897988356664676633
23522609 53 18196346179442378349
23559900 14 17897428709192959230
249057 25 18271811194347986534
25147074 1 18342173345434086564
3004659 81 18412823552473978790
350125 39 18336538336284988185
3680242 22 18271802467174784184
5104073 3 18343581824461728592
5171179 24 17677908833648727745
6058803 2 18199189499738204518

> <PUBCHEM_SHAPE_MULTIPOLES>
675.88
16.81
4.47
1.51
12.99
0.08
-0.23
0.32
3.2
-6.84
-0.31
1.99
0.55
-5.01

> <PUBCHEM_SHAPE_SELFOVERLAP>
1454.985

> <PUBCHEM_SHAPE_VOLUME>
371.9

> <PUBCHEM_COORDINATE_TYPE>
2
5
10

$$$$

