582838
  -OEChem-06241222443D

 33 33  0     1  0  0  0  0  0999 V2000
   -3.0878   -1.7215    0.1890 F   0  0  0  0  0  0  0  0  0  0  0  0
   -2.9769   -0.1658   -2.0885 F   0  0  0  0  0  0  0  0  0  0  0  0
   -3.9137    1.4804   -1.0127 F   0  0  0  0  0  0  0  0  0  0  0  0
   -4.9849   -0.4024   -1.2661 F   0  0  0  0  0  0  0  0  0  0  0  0
   -4.0842   -0.0319    1.3117 O   0  0  0  0  0  0  0  0  0  0  0  0
   -1.6983    1.3312    1.1246 O   0  0  0  0  0  0  0  0  0  0  0  0
    5.0687   -1.6828   -0.0554 O   0  5  0  0  0  0  0  0  0  0  0  0
    3.4676   -3.1844   -0.0808 O   0  0  0  0  0  0  0  0  0  0  0  0
    1.9533    3.6748    0.0048 O   0  5  0  0  0  0  0  0  0  0  0  0
    4.0423    3.0000    0.0035 O   0  0  0  0  0  0  0  0  0  0  0  0
   -0.7891   -0.4814   -0.0592 N   0  0  0  0  0  0  0  0  0  0  0  0
    3.8539   -1.9920   -0.0638 N   0  3  0  0  0  0  0  0  0  0  0  0
    2.8109    2.7588   -0.0039 N   0  3  0  0  0  0  0  0  0  0  0  0
    0.5987   -0.2083   -0.0499 C   0  0  0  0  0  0  0  0  0  0  0  0
    1.5170   -1.2466   -0.0613 C   0  0  0  0  0  0  0  0  0  0  0  0
   -3.1757   -0.3626    0.2679 C   0  0  1  0  0  0  0  0  0  0  0  0
    2.8809   -0.9544   -0.0531 C   0  0  0  0  0  0  0  0  0  0  0  0
   -1.8085    0.2822    0.4962 C   0  0  0  0  0  0  0  0  0  0  0  0
    1.0106    1.1155   -0.0304 C   0  0  0  0  0  0  0  0  0  0  0  0
    2.3745    1.4077   -0.0224 C   0  0  0  0  0  0  0  0  0  0  0  0
    3.3096    0.3727   -0.0337 C   0  0  0  0  0  0  0  0  0  0  0  0
    1.0519   -2.6705   -0.0792 C   0  0  0  0  0  0  0  0  0  0  0  0
   -3.7676    0.1363   -1.0363 C   0  0  0  0  0  0  0  0  0  0  0  0
   -3.6534   -0.4549    2.5989 C   0  0  0  0  0  0  0  0  0  0  0  0
   -1.0781   -1.3838   -0.4190 H   0  0  0  0  0  0  0  0  0  0  0  0
    0.2847    1.9216   -0.0610 H   0  0  0  0  0  0  0  0  0  0  0  0
    4.3721    0.6049   -0.0274 H   0  0  0  0  0  0  0  0  0  0  0  0
    1.3289   -3.1676   -1.0154 H   0  0  0  0  0  0  0  0  0  0  0  0
    1.4078   -3.2139    0.8037 H   0  0  0  0  0  0  0  0  0  0  0  0
   -0.0287   -2.8037   -0.0070 H   0  0  0  0  0  0  0  0  0  0  0  0
   -4.4886   -0.3209    3.2923 H   0  0  0  0  0  0  0  0  0  0  0  0
   -2.8189    0.1464    2.9669 H   0  0  0  0  0  0  0  0  0  0  0  0
   -3.3822   -1.5150    2.5928 H   0  0  0  0  0  0  0  0  0  0  0  0
  1 16  1  0  0  0  0
  2 23  1  0  0  0  0
  3 23  1  0  0  0  0
  4 23  1  0  0  0  0
  5 16  1  0  0  0  0
  5 24  1  0  0  0  0
  6 18  2  0  0  0  0
  7 12  1  0  0  0  0
  8 12  2  0  0  0  0
  9 13  1  0  0  0  0
 10 13  2  0  0  0  0
 11 14  1  0  0  0  0
 11 18  1  0  0  0  0
 11 25  1  0  0  0  0
 12 17  1  0  0  0  0
 13 20  1  0  0  0  0
 14 15  2  0  0  0  0
 14 19  1  0  0  0  0
 15 17  1  0  0  0  0
 15 22  1  0  0  0  0
 16 18  1  0  0  0  0
 16 23  1  0  0  0  0
 17 21  2  0  0  0  0
 19 20  2  0  0  0  0
 19 26  1  0  0  0  0
 20 21  1  0  0  0  0
 21 27  1  0  0  0  0
 22 28  1  0  0  0  0
 22 29  1  0  0  0  0
 22 30  1  0  0  0  0
 24 31  1  0  0  0  0
 24 32  1  0  0  0  0
 24 33  1  0  0  0  0
M  CHG  4   7  -1   9  -1  12   1  13   1
M  END
> <PUBCHEM_COMPOUND_CID>
582838

> <PUBCHEM_CONFORMER_RMSD>
0.8

> <PUBCHEM_CONFORMER_DIVERSEORDER>
3
11
8
5
13
6
10
1
4
12
2
9
7

> <PUBCHEM_MMFF94_PARTIAL_CHARGES>
27
1 -0.34
10 -0.52
11 -0.55
12 0.91
13 0.91
14 0.12
15 -0.14
16 0.68
17 0.13
18 0.57
19 -0.15
2 -0.34
20 0.13
21 -0.15
22 0.14
23 1.02
24 0.28
25 0.37
26 0.15
27 0.15
3 -0.34
4 -0.34
5 -0.56
6 -0.57
7 -0.52
8 -0.52
9 -0.52

> <PUBCHEM_EFFECTIVE_ROTOR_COUNT>
7

> <PUBCHEM_PHARMACOPHORE_FEATURES>
10
1 10 acceptor
1 11 donor
1 5 acceptor
1 6 acceptor
1 7 acceptor
1 7 anion
1 8 acceptor
1 9 acceptor
1 9 anion
6 14 15 17 19 20 21 rings

> <PUBCHEM_HEAVY_ATOM_COUNT>
24

> <PUBCHEM_ATOM_DEF_STEREO_COUNT>
0

> <PUBCHEM_ATOM_UDEF_STEREO_COUNT>
1

> <PUBCHEM_BOND_DEF_STEREO_COUNT>
0

> <PUBCHEM_BOND_UDEF_STEREO_COUNT>
0

> <PUBCHEM_ISOTOPIC_ATOM_COUNT>
0

> <PUBCHEM_COMPONENT_COUNT>
1

> <PUBCHEM_CACTVS_TAUTO_COUNT>
2

> <PUBCHEM_CONFORMER_ID>
0008E4B600000003

> <PUBCHEM_MMFF94_ENERGY>
80.7878

> <PUBCHEM_FEATURE_SELFOVERLAP>
50.912

> <PUBCHEM_SHAPE_FINGERPRINT>
10366900 7 17846504780765337679
11796584 16 16630245934890138826
12236239 1 17676491657011578847
12403259 415 17989201534326915673
12507557 5 18410857685132393346
12553582 1 18264756843708415886
12916754 54 18410292480780259195
13009979 54 17749659818197299314
13134695 92 18340210794878197694
13140716 1 18338785724286890402
13583140 156 17489041361146652104
13862211 1 18265618856946746158
13911987 19 17980756043701875069
15842332 3 17749382659599339257
17349148 13 18113625624342889007
1813 80 18042675290612817878
18186145 218 18263352625335428004
18222031 100 18263088867647725350
192875 21 18261680353990696658
200 152 18187374271875600591
20645477 70 18341621399076068726
20681677 76 18272089362004479491
21033648 29 17775569719205714909
21065201 7 16559030480537350899
21639500 275 18410015394732448564
221490 88 18341326721581127210
2255824 54 18335415764561243998
22943178 12 17989201521484179603
23557571 272 17203322270169978169
23559900 14 18409741667744741298
23598288 3 17676756665490170641
23598291 2 17895182329284972889
25147074 1 17894342281369517177
312423 11 17822003199163943195
474 4 18264491693807269952
5104073 3 18341325622206461963
5281201 14 18342178881747307605
6049 1 17846206753047711681
633830 44 17969200283719736733
7364860 26 18409727336114153072
7471813 234 17968673695096697208
7615 1 17749105604080809329
77492 1 17676203563548098849
9709674 26 18343022151494838379
9971528 1 18262245512127130602
9981440 41 17760661269620678752

> <PUBCHEM_SHAPE_MULTIPOLES>
414.65
9.57
3.16
1.29
3.37
1.27
-0.35
-1.12
0.44
-5.36
0.02
2.63
-0.06
0.36

> <PUBCHEM_SHAPE_SELFOVERLAP>
882.617

> <PUBCHEM_SHAPE_VOLUME>
231.9

> <PUBCHEM_COORDINATE_TYPE>
2
5
10

$$$$

