6658
  -OEChem-06261201262D

 15 14  0     0  0  0  0  0  0999 V2000
    2.8660    0.2500    0.0000 O   0  0  0  0  0  0  0  0  0  0  0  0
    3.7320   -1.2500    0.0000 O   0  0  0  0  0  0  0  0  0  0  0  0
    4.5981    0.2500    0.0000 C   0  0  0  0  0  0  0  0  0  0  0  0
    5.4641   -0.2500    0.0000 C   0  0  0  0  0  0  0  0  0  0  0  0
    3.7320   -0.2500    0.0000 C   0  0  0  0  0  0  0  0  0  0  0  0
    4.5981    1.2500    0.0000 C   0  0  0  0  0  0  0  0  0  0  0  0
    2.0000   -0.2500    0.0000 C   0  0  0  0  0  0  0  0  0  0  0  0
    5.1541   -0.7869    0.0000 H   0  0  0  0  0  0  0  0  0  0  0  0
    6.0010   -0.5600    0.0000 H   0  0  0  0  0  0  0  0  0  0  0  0
    5.7741    0.2869    0.0000 H   0  0  0  0  0  0  0  0  0  0  0  0
    5.1350    1.5600    0.0000 H   0  0  0  0  0  0  0  0  0  0  0  0
    4.0611    1.5600    0.0000 H   0  0  0  0  0  0  0  0  0  0  0  0
    1.6900    0.2869    0.0000 H   0  0  0  0  0  0  0  0  0  0  0  0
    1.4631   -0.5600    0.0000 H   0  0  0  0  0  0  0  0  0  0  0  0
    2.3100   -0.7869    0.0000 H   0  0  0  0  0  0  0  0  0  0  0  0
  1  5  1  0  0  0  0
  1  7  1  0  0  0  0
  2  5  2  0  0  0  0
  3  4  1  0  0  0  0
  3  5  1  0  0  0  0
  3  6  2  0  0  0  0
  4  8  1  0  0  0  0
  4  9  1  0  0  0  0
  4 10  1  0  0  0  0
  6 11  1  0  0  0  0
  6 12  1  0  0  0  0
  7 13  1  0  0  0  0
  7 14  1  0  0  0  0
  7 15  1  0  0  0  0
M  END
> <PUBCHEM_COMPOUND_CID>
6658

> <PUBCHEM_COMPOUND_CANONICALIZED>
1

> <PUBCHEM_CACTVS_COMPLEXITY>
94.3

> <PUBCHEM_CACTVS_HBOND_ACCEPTOR>
2

> <PUBCHEM_CACTVS_HBOND_DONOR>
0

> <PUBCHEM_CACTVS_ROTATABLE_BOND>
2

> <PUBCHEM_CACTVS_SUBSKEYS>
AAADccBgMAAAAAAAAAAAAAAAAAAAAAAAAAAAAAAAAAAAAAAAAAAAGgAAAAAADACAgAICCAAABACIAgDSCAAAAAAAAAAAAAEAAEAABAAAIQAAAAAAAAAAIIAAAAAAAAAAAAAAAAAAAAAAAAAAAAAAAAAAAA==

> <PUBCHEM_IUPAC_OPENEYE_NAME>
methyl 2-methylprop-2-enoate

> <PUBCHEM_IUPAC_CAS_NAME>
2-methyl-2-propenoic acid methyl ester

> <PUBCHEM_IUPAC_NAME>
methyl 2-methylprop-2-enoate

> <PUBCHEM_IUPAC_SYSTEMATIC_NAME>
methyl 2-methylprop-2-enoate

> <PUBCHEM_IUPAC_TRADITIONAL_NAME>
2-methylacrylic acid methyl ester

> <PUBCHEM_IUPAC_INCHI>
InChI=1S/C5H8O2/c1-4(2)5(6)7-3/h1H2,2-3H3

> <PUBCHEM_IUPAC_INCHIKEY>
VVQNEPGJFQJSBK-UHFFFAOYSA-N

> <PUBCHEM_XLOGP3>
1.4

> <PUBCHEM_EXACT_MASS>
100.052429

> <PUBCHEM_MOLECULAR_FORMULA>
C5H8O2

> <PUBCHEM_MOLECULAR_WEIGHT>
100.11582

> <PUBCHEM_OPENEYE_CAN_SMILES>
CC(=C)C(=O)OC

> <PUBCHEM_OPENEYE_ISO_SMILES>
CC(=C)C(=O)OC

> <PUBCHEM_CACTVS_TPSA>
26.3

> <PUBCHEM_MONOISOTOPIC_WEIGHT>
100.052429

> <PUBCHEM_TOTAL_CHARGE>
0

> <PUBCHEM_HEAVY_ATOM_COUNT>
7

> <PUBCHEM_ATOM_DEF_STEREO_COUNT>
0

> <PUBCHEM_ATOM_UDEF_STEREO_COUNT>
0

> <PUBCHEM_BOND_DEF_STEREO_COUNT>
0

> <PUBCHEM_BOND_UDEF_STEREO_COUNT>
0

> <PUBCHEM_ISOTOPIC_ATOM_COUNT>
0

> <PUBCHEM_COMPONENT_COUNT>
1

> <PUBCHEM_CACTVS_TAUTO_COUNT>
1

> <PUBCHEM_COORDINATE_TYPE>
1
5
255

$$$$

