586259
  -OEChem-06241222462D

 27 28  0     0  0  0  0  0  0999 V2000
    8.0085   -2.0084    0.0000 S   0  0  0  0  0  0  0  0  0  0  0  0
    2.8090    1.6720    0.0000 O   0  0  0  0  0  0  0  0  0  0  0  0
    6.4712    1.3328    0.0000 O   0  0  0  0  0  0  0  0  0  0  0  0
    4.7770    0.9726    0.0000 N   0  0  0  0  0  0  0  0  0  0  0  0
    4.5691    1.9508    0.0000 C   0  0  0  0  0  0  0  0  0  0  0  0
    3.6180    2.2598    0.0000 C   0  0  0  0  0  0  0  0  0  0  0  0
    3.3090    3.2109    0.0000 C   0  0  0  0  0  0  0  0  0  0  0  0
    5.7281    0.6636    0.0000 C   0  0  0  0  0  0  0  0  0  0  0  0
    2.3090    3.2109    0.0000 C   0  0  0  0  0  0  0  0  0  0  0  0
    7.0949   -1.6017    0.0000 C   0  0  0  0  0  0  0  0  0  0  0  0
    5.9360   -0.3145    0.0000 C   0  0  0  0  0  0  0  0  0  0  0  0
    6.8870   -0.6235    0.0000 C   0  0  0  0  0  0  0  0  0  0  0  0
    2.0000    2.2598    0.0000 C   0  0  0  0  0  0  0  0  0  0  0  0
    6.4258   -2.3448    0.0000 C   0  0  0  0  0  0  0  0  0  0  0  0
    6.9258   -3.2109    0.0000 C   0  0  0  0  0  0  0  0  0  0  0  0
    7.9040   -3.0029    0.0000 C   0  0  0  0  0  0  0  0  0  0  0  0
    5.1887    1.9724    0.0000 H   0  0  0  0  0  0  0  0  0  0  0  0
    4.6554    2.5648    0.0000 H   0  0  0  0  0  0  0  0  0  0  0  0
    4.3162    0.5578    0.0000 H   0  0  0  0  0  0  0  0  0  0  0  0
    3.6734    3.7124    0.0000 H   0  0  0  0  0  0  0  0  0  0  0  0
    1.9446    3.7124    0.0000 H   0  0  0  0  0  0  0  0  0  0  0  0
    5.4752   -0.7294    0.0000 H   0  0  0  0  0  0  0  0  0  0  0  0
    7.3478   -0.2087    0.0000 H   0  0  0  0  0  0  0  0  0  0  0  0
    1.4103    2.0682    0.0000 H   0  0  0  0  0  0  0  0  0  0  0  0
    5.8092   -2.2800    0.0000 H   0  0  0  0  0  0  0  0  0  0  0  0
    6.6736   -3.7773    0.0000 H   0  0  0  0  0  0  0  0  0  0  0  0
    8.3647   -3.4178    0.0000 H   0  0  0  0  0  0  0  0  0  0  0  0
  1 10  1  0  0  0  0
  1 16  1  0  0  0  0
  2  6  1  0  0  0  0
  2 13  1  0  0  0  0
  3  8  2  0  0  0  0
  4  5  1  0  0  0  0
  4  8  1  0  0  0  0
  4 19  1  0  0  0  0
  5  6  1  0  0  0  0
  5 17  1  0  0  0  0
  5 18  1  0  0  0  0
  6  7  2  0  0  0  0
  7  9  1  0  0  0  0
  7 20  1  0  0  0  0
  8 11  1  0  0  0  0
  9 13  2  0  0  0  0
  9 21  1  0  0  0  0
 10 12  1  0  0  0  0
 10 14  2  0  0  0  0
 11 12  2  3  0  0  0
 11 22  1  0  0  0  0
 12 23  1  0  0  0  0
 13 24  1  0  0  0  0
 14 15  1  0  0  0  0
 14 25  1  0  0  0  0
 15 16  2  0  0  0  0
 15 26  1  0  0  0  0
 16 27  1  0  0  0  0
M  END
> <PUBCHEM_COMPOUND_CID>
586259

> <PUBCHEM_COMPOUND_CANONICALIZED>
1

> <PUBCHEM_CACTVS_COMPLEXITY>
268

> <PUBCHEM_CACTVS_HBOND_ACCEPTOR>
3

> <PUBCHEM_CACTVS_HBOND_DONOR>
1

> <PUBCHEM_CACTVS_ROTATABLE_BOND>
4

> <PUBCHEM_CACTVS_SUBSKEYS>
AAADccByMABAAAAAAAAAAAAAAAAAASJAAAAAAAAAAAAAAAAB4AAAHgQQAAAACATl0AawBYLABEiMAKlSkACDCIAkKBBIiJmODMgOJjKktTuHGSjk1hG4qYaYEQIAAAAAAAAAAAAAAAAAAAAAAAAAAAAAAA==

> <PUBCHEM_IUPAC_OPENEYE_NAME>
N-(2-furylmethyl)-3-(2-thienyl)prop-2-enamide

> <PUBCHEM_IUPAC_CAS_NAME>
N-(2-furanylmethyl)-3-thiophen-2-yl-2-propenamide

> <PUBCHEM_IUPAC_NAME>
N-(furan-2-ylmethyl)-3-thiophen-2-ylprop-2-enamide

> <PUBCHEM_IUPAC_SYSTEMATIC_NAME>
N-(furan-2-ylmethyl)-3-thiophen-2-yl-prop-2-enamide

> <PUBCHEM_IUPAC_TRADITIONAL_NAME>
N-(2-furfuryl)-3-(2-thienyl)acrylamide

> <PUBCHEM_IUPAC_INCHI>
InChI=1S/C12H11NO2S/c14-12(6-5-11-4-2-8-16-11)13-9-10-3-1-7-15-10/h1-8H,9H2,(H,13,14)

> <PUBCHEM_IUPAC_INCHIKEY>
LJGPHOBCMNGYGQ-UHFFFAOYSA-N

> <PUBCHEM_XLOGP3_AA>
1.9

> <PUBCHEM_EXACT_MASS>
233.05105

> <PUBCHEM_MOLECULAR_FORMULA>
C12H11NO2S

> <PUBCHEM_MOLECULAR_WEIGHT>
233.28624

> <PUBCHEM_OPENEYE_CAN_SMILES>
C1=COC(=C1)CNC(=O)C=CC2=CC=CS2

> <PUBCHEM_OPENEYE_ISO_SMILES>
C1=COC(=C1)CNC(=O)C=CC2=CC=CS2

> <PUBCHEM_CACTVS_TPSA>
70.5

> <PUBCHEM_MONOISOTOPIC_WEIGHT>
233.05105

> <PUBCHEM_TOTAL_CHARGE>
0

> <PUBCHEM_HEAVY_ATOM_COUNT>
16

> <PUBCHEM_ATOM_DEF_STEREO_COUNT>
0

> <PUBCHEM_ATOM_UDEF_STEREO_COUNT>
0

> <PUBCHEM_BOND_DEF_STEREO_COUNT>
0

> <PUBCHEM_BOND_UDEF_STEREO_COUNT>
1

> <PUBCHEM_ISOTOPIC_ATOM_COUNT>
0

> <PUBCHEM_COMPONENT_COUNT>
1

> <PUBCHEM_CACTVS_TAUTO_COUNT>
2

> <PUBCHEM_COORDINATE_TYPE>
1
5
255

> <PUBCHEM_BONDANNOTATIONS>
1  10  8
1  16  8
10  14  8
11  12  1
14  15  8
15  16  8
2  13  8
2  6  8
6  7  8
7  9  8
9  13  8

$$$$

