8262
  -OEChem-06261202422D

 29 28  0     0  0  0  0  0  0999 V2000
    5.4641    0.5000    0.0000 S   0  0  0  0  0  0  0  0  0  0  0  0
    3.7320   -0.5000    0.0000 S   0  0  0  0  0  0  0  0  0  0  0  0
    4.9641    1.3660    0.0000 O   0  0  0  0  0  0  0  0  0  0  0  0
    5.9641   -0.3660    0.0000 O   0  0  0  0  0  0  0  0  0  0  0  0
    3.2320    0.3660    0.0000 O   0  0  0  0  0  0  0  0  0  0  0  0
    4.2320   -1.3660    0.0000 O   0  0  0  0  0  0  0  0  0  0  0  0
    4.5981    0.0000    0.0000 C   0  0  0  0  0  0  0  0  0  0  0  0
    4.0981    0.8660    0.0000 C   0  0  0  0  0  0  0  0  0  0  0  0
    5.0981   -0.8660    0.0000 C   0  0  0  0  0  0  0  0  0  0  0  0
    2.8660   -1.0000    0.0000 C   0  0  0  0  0  0  0  0  0  0  0  0
    6.3301    1.0000    0.0000 C   0  0  0  0  0  0  0  0  0  0  0  0
    7.1962    0.5000    0.0000 C   0  0  0  0  0  0  0  0  0  0  0  0
    2.0000   -0.5000    0.0000 C   0  0  0  0  0  0  0  0  0  0  0  0
    4.6350    1.1760    0.0000 H   0  0  0  0  0  0  0  0  0  0  0  0
    3.7881    1.4030    0.0000 H   0  0  0  0  0  0  0  0  0  0  0  0
    3.5611    0.5560    0.0000 H   0  0  0  0  0  0  0  0  0  0  0  0
    4.5611   -1.1760    0.0000 H   0  0  0  0  0  0  0  0  0  0  0  0
    5.4081   -1.4030    0.0000 H   0  0  0  0  0  0  0  0  0  0  0  0
    5.6350   -0.5560    0.0000 H   0  0  0  0  0  0  0  0  0  0  0  0
    2.4675   -1.4750    0.0000 H   0  0  0  0  0  0  0  0  0  0  0  0
    3.2646   -1.4750    0.0000 H   0  0  0  0  0  0  0  0  0  0  0  0
    6.7287    1.4750    0.0000 H   0  0  0  0  0  0  0  0  0  0  0  0
    5.9316    1.4750    0.0000 H   0  0  0  0  0  0  0  0  0  0  0  0
    6.8862   -0.0369    0.0000 H   0  0  0  0  0  0  0  0  0  0  0  0
    7.7331    0.1900    0.0000 H   0  0  0  0  0  0  0  0  0  0  0  0
    7.5062    1.0369    0.0000 H   0  0  0  0  0  0  0  0  0  0  0  0
    2.3100    0.0369    0.0000 H   0  0  0  0  0  0  0  0  0  0  0  0
    1.4631   -0.1900    0.0000 H   0  0  0  0  0  0  0  0  0  0  0  0
    1.6900   -1.0369    0.0000 H   0  0  0  0  0  0  0  0  0  0  0  0
  1  3  2  0  0  0  0
  1  4  2  0  0  0  0
  1  7  1  0  0  0  0
  1 11  1  0  0  0  0
  2  5  2  0  0  0  0
  2  6  2  0  0  0  0
  2  7  1  0  0  0  0
  2 10  1  0  0  0  0
  7  8  1  0  0  0  0
  7  9  1  0  0  0  0
  8 14  1  0  0  0  0
  8 15  1  0  0  0  0
  8 16  1  0  0  0  0
  9 17  1  0  0  0  0
  9 18  1  0  0  0  0
  9 19  1  0  0  0  0
 10 13  1  0  0  0  0
 10 20  1  0  0  0  0
 10 21  1  0  0  0  0
 11 12  1  0  0  0  0
 11 22  1  0  0  0  0
 11 23  1  0  0  0  0
 12 24  1  0  0  0  0
 12 25  1  0  0  0  0
 12 26  1  0  0  0  0
 13 27  1  0  0  0  0
 13 28  1  0  0  0  0
 13 29  1  0  0  0  0
M  END
> <PUBCHEM_COMPOUND_CID>
8262

> <PUBCHEM_COMPOUND_CANONICALIZED>
1

> <PUBCHEM_CACTVS_COMPLEXITY>
314

> <PUBCHEM_CACTVS_HBOND_ACCEPTOR>
4

> <PUBCHEM_CACTVS_HBOND_DONOR>
0

> <PUBCHEM_CACTVS_ROTATABLE_BOND>
4

> <PUBCHEM_CACTVS_SUBSKEYS>
AAADceBgOABgAAAAAAAAAAAAAAAAAAAAAAAAAAAAAAAAAAAAAAAAGAQAAAAACACEQACCAAAAAAoAAAAAAHBAAQAAABAAAAAAAAAAAAAAAAAAAAAAAAAgAAAAAAAAAAAAAAAAAAAAAAAAAAAAAAAAAAAAAA==

> <PUBCHEM_IUPAC_OPENEYE_NAME>
2,2-bis(ethylsulfonyl)propane

> <PUBCHEM_IUPAC_CAS_NAME>
2,2-bis(ethylsulfonyl)propane

> <PUBCHEM_IUPAC_NAME>
2,2-bis(ethylsulfonyl)propane

> <PUBCHEM_IUPAC_SYSTEMATIC_NAME>
2,2-bis(ethylsulfonyl)propane

> <PUBCHEM_IUPAC_TRADITIONAL_NAME>
2,2-diesylpropane

> <PUBCHEM_IUPAC_INCHI>
InChI=1S/C7H16O4S2/c1-5-12(8,9)7(3,4)13(10,11)6-2/h5-6H2,1-4H3

> <PUBCHEM_IUPAC_INCHIKEY>
CESKLHVYGRFMFP-UHFFFAOYSA-N

> <PUBCHEM_XLOGP3_AA>
0.4

> <PUBCHEM_EXACT_MASS>
228.049001

> <PUBCHEM_MOLECULAR_FORMULA>
C7H16O4S2

> <PUBCHEM_MOLECULAR_WEIGHT>
228.32954

> <PUBCHEM_OPENEYE_CAN_SMILES>
CCS(=O)(=O)C(C)(C)S(=O)(=O)CC

> <PUBCHEM_OPENEYE_ISO_SMILES>
CCS(=O)(=O)C(C)(C)S(=O)(=O)CC

> <PUBCHEM_CACTVS_TPSA>
85

> <PUBCHEM_MONOISOTOPIC_WEIGHT>
228.049001

> <PUBCHEM_TOTAL_CHARGE>
0

> <PUBCHEM_HEAVY_ATOM_COUNT>
13

> <PUBCHEM_ATOM_DEF_STEREO_COUNT>
0

> <PUBCHEM_ATOM_UDEF_STEREO_COUNT>
0

> <PUBCHEM_BOND_DEF_STEREO_COUNT>
0

> <PUBCHEM_BOND_UDEF_STEREO_COUNT>
0

> <PUBCHEM_ISOTOPIC_ATOM_COUNT>
0

> <PUBCHEM_COMPONENT_COUNT>
1

> <PUBCHEM_CACTVS_TAUTO_COUNT>
1

> <PUBCHEM_COORDINATE_TYPE>
1
5
255

$$$$

