17396041
  -OEChem-06241222543D

 52 55  0     1  0  0  0  0  0999 V2000
    5.2048   -1.5138   -1.0416 S   0  0  0  0  0  0  0  0  0  0  0  0
   -4.4928   -1.3879    1.0982 O   0  0  0  0  0  0  0  0  0  0  0  0
   -1.8381   -1.3210    0.0022 N   0  0  0  0  0  0  0  0  0  0  0  0
    0.9153   -0.7576    0.6808 N   0  0  0  0  0  0  0  0  0  0  0  0
   -4.6575    0.5940   -0.0774 N   0  0  0  0  0  0  0  0  0  0  0  0
   -3.0548   -1.1149   -0.7807 C   0  0  2  0  0  0  0  0  0  0  0  0
   -1.4650   -0.0950    0.7184 C   0  0  0  0  0  0  0  0  0  0  0  0
   -0.7347   -1.7680   -0.8568 C   0  0  0  0  0  0  0  0  0  0  0  0
   -0.1885   -0.3101    1.5390 C   0  0  0  0  0  0  0  0  0  0  0  0
    0.5424   -1.9826   -0.0374 C   0  0  0  0  0  0  0  0  0  0  0  0
   -5.7072    1.1744    0.7473 C   0  0  0  0  0  0  0  0  0  0  0  0
   -4.2715    1.5046   -1.1509 C   0  0  0  0  0  0  0  0  0  0  0  0
   -4.1304   -0.6598    0.1728 C   0  0  0  0  0  0  0  0  0  0  0  0
   -5.7487    2.6381    0.3361 C   0  0  0  0  0  0  0  0  0  0  0  0
   -5.3391    2.5893   -1.1305 C   0  0  0  0  0  0  0  0  0  0  0  0
    2.1312   -0.9651    1.4649 C   0  0  0  0  0  0  0  0  0  0  0  0
   -3.4709   -2.4014   -1.4747 C   0  0  0  0  0  0  0  0  0  0  0  0
    3.3206   -0.8647    0.5652 C   0  0  0  0  0  0  0  0  0  0  0  0
    4.0215    0.3580    0.2933 C   0  0  0  0  0  0  0  0  0  0  0  0
    3.8568   -1.9464   -0.0922 C   0  0  0  0  0  0  0  0  0  0  0  0
    5.0901    0.1446   -0.5829 C   0  0  0  0  0  0  0  0  0  0  0  0
    3.7938    1.6741    0.7629 C   0  0  0  0  0  0  0  0  0  0  0  0
    5.9262    1.2004   -0.9959 C   0  0  0  0  0  0  0  0  0  0  0  0
    4.6210    2.7238    0.3548 C   0  0  0  0  0  0  0  0  0  0  0  0
    5.6758    2.4870   -0.5150 C   0  0  0  0  0  0  0  0  0  0  0  0
   -2.8509   -0.3817   -1.5623 H   0  0  0  0  0  0  0  0  0  0  0  0
   -2.2361    0.2150    1.4319 H   0  0  0  0  0  0  0  0  0  0  0  0
   -1.3098    0.7368    0.0181 H   0  0  0  0  0  0  0  0  0  0  0  0
   -0.5407   -1.0449   -1.6607 H   0  0  0  0  0  0  0  0  0  0  0  0
   -0.9588   -2.7321   -1.3250 H   0  0  0  0  0  0  0  0  0  0  0  0
   -0.3798   -1.0367    2.3404 H   0  0  0  0  0  0  0  0  0  0  0  0
    0.0746    0.6422    2.0158 H   0  0  0  0  0  0  0  0  0  0  0  0
    0.3943   -2.8189    0.6596 H   0  0  0  0  0  0  0  0  0  0  0  0
    1.3197   -2.2804   -0.7467 H   0  0  0  0  0  0  0  0  0  0  0  0
   -6.6438    0.6608    0.5037 H   0  0  0  0  0  0  0  0  0  0  0  0
   -5.4917    1.0317    1.8104 H   0  0  0  0  0  0  0  0  0  0  0  0
   -3.2816    1.9104   -0.9201 H   0  0  0  0  0  0  0  0  0  0  0  0
   -4.2511    0.9984   -2.1197 H   0  0  0  0  0  0  0  0  0  0  0  0
   -6.7307    3.0926    0.4922 H   0  0  0  0  0  0  0  0  0  0  0  0
   -5.0085    3.2105    0.9081 H   0  0  0  0  0  0  0  0  0  0  0  0
   -4.9723    3.5487   -1.5052 H   0  0  0  0  0  0  0  0  0  0  0  0
   -6.1965    2.2856   -1.7435 H   0  0  0  0  0  0  0  0  0  0  0  0
    2.1180   -1.9265    1.9959 H   0  0  0  0  0  0  0  0  0  0  0  0
    2.2251   -0.2013    2.2476 H   0  0  0  0  0  0  0  0  0  0  0  0
   -2.8437   -2.6298   -2.3424 H   0  0  0  0  0  0  0  0  0  0  0  0
   -4.4993   -2.3171   -1.8466 H   0  0  0  0  0  0  0  0  0  0  0  0
   -3.4515   -3.2610   -0.7943 H   0  0  0  0  0  0  0  0  0  0  0  0
    3.5313   -2.9768   -0.0557 H   0  0  0  0  0  0  0  0  0  0  0  0
    2.9722    1.8865    1.4424 H   0  0  0  0  0  0  0  0  0  0  0  0
    6.7541    1.0244   -1.6769 H   0  0  0  0  0  0  0  0  0  0  0  0
    4.4353    3.7295    0.7213 H   0  0  0  0  0  0  0  0  0  0  0  0
    6.3138    3.3094   -0.8267 H   0  0  0  0  0  0  0  0  0  0  0  0
  1 20  1  0  0  0  0
  1 21  1  0  0  0  0
  2 13  2  0  0  0  0
  3  6  1  0  0  0  0
  3  7  1  0  0  0  0
  3  8  1  0  0  0  0
  4  9  1  0  0  0  0
  4 10  1  0  0  0  0
  4 16  1  0  0  0  0
  5 11  1  0  0  0  0
  5 12  1  0  0  0  0
  5 13  1  0  0  0  0
  6 13  1  0  0  0  0
  6 17  1  0  0  0  0
  6 26  1  0  0  0  0
  7  9  1  0  0  0  0
  7 27  1  0  0  0  0
  7 28  1  0  0  0  0
  8 10  1  0  0  0  0
  8 29  1  0  0  0  0
  8 30  1  0  0  0  0
  9 31  1  0  0  0  0
  9 32  1  0  0  0  0
 10 33  1  0  0  0  0
 10 34  1  0  0  0  0
 11 14  1  0  0  0  0
 11 35  1  0  0  0  0
 11 36  1  0  0  0  0
 12 15  1  0  0  0  0
 12 37  1  0  0  0  0
 12 38  1  0  0  0  0
 14 15  1  0  0  0  0
 14 39  1  0  0  0  0
 14 40  1  0  0  0  0
 15 41  1  0  0  0  0
 15 42  1  0  0  0  0
 16 18  1  0  0  0  0
 16 43  1  0  0  0  0
 16 44  1  0  0  0  0
 17 45  1  0  0  0  0
 17 46  1  0  0  0  0
 17 47  1  0  0  0  0
 18 19  1  0  0  0  0
 18 20  2  0  0  0  0
 19 21  1  0  0  0  0
 19 22  2  0  0  0  0
 20 48  1  0  0  0  0
 21 23  2  0  0  0  0
 22 24  1  0  0  0  0
 22 49  1  0  0  0  0
 23 25  1  0  0  0  0
 23 50  1  0  0  0  0
 24 25  2  0  0  0  0
 24 51  1  0  0  0  0
 25 52  1  0  0  0  0
M  END
> <PUBCHEM_COMPOUND_CID>
17396041

> <PUBCHEM_CONFORMER_RMSD>
0.8

> <PUBCHEM_CONFORMER_DIVERSEORDER>
1
244
102
131
5
162
222
215
65
317
105
58
97
288
251
245
74
246
29
165
78
156
300
146
45
145
130
223
158
241
220
137
63
139
136
129
232
234
263
116
56
200
298
153
49
267
277
12
127
296
305
35
218
32
121
176
169
191
111
212
260
265
71
125
239
228
179
33
314
149
229
148
193
254
199
186
76
61
81
315
2
143
62
20
253
227
301
24
166
198
197
128
159
48
183
266
173
231
311
213
170
41
283
154
163
271
243
75
284
208
225
28
117
54
292
189
304
147
306
308
172
160
294
88
214
252
122
79
144
274
100
34
190
307
196
95
290
37
240
275
207
276
55
82
44
94
310
262
278
256
133
285
195
119
4
201
206
164
90
151
135
99
19
249
216
177
210
312
180
185
85
264
96
309
297
187
203
313
205
110
316
86
303
52
108
174
289
237
255
47
188
109
3
269
168
155
175
157
282
268
238
209
299
250
68
132
142
87
113
31
93
270
248
247
98
124
91
120
219
84
104
25
211
236
107
123
53
51
302
161
13
16
281
66
291
204
106
226
259
194
40
141
171
286
279
115
59
126
140
70
178
287
30
14
38
150
42
8
27
9
184
224
26
43
221
80
11
60
36
295
101
261
138
134
258
257
73
118
217
114
77
280
167
182
181
72
57
192
230
273
69
46
233
152
39
103
67
18
242
21
83
10
202
22
7
235
17
89
112
50
272
23
92
6
64
15
293

> <PUBCHEM_MMFF94_PARTIAL_CHARGES>
26
1 -0.08
10 0.27
11 0.3
12 0.3
13 0.57
16 0.45
18 -0.18
2 -0.57
20 -0.11
21 0.04
22 -0.15
23 -0.15
24 -0.15
25 -0.15
3 -0.81
4 -0.81
48 0.15
49 0.15
5 -0.66
50 0.15
51 0.15
52 0.15
6 0.33
7 0.27
8 0.27
9 0.27

> <PUBCHEM_EFFECTIVE_ROTOR_COUNT>
7.2

> <PUBCHEM_PHARMACOPHORE_FEATURES>
7
1 2 acceptor
1 3 cation
1 4 cation
5 1 18 19 20 21 rings
5 5 11 12 14 15 rings
6 19 21 22 23 24 25 rings
6 3 4 7 8 9 10 rings

> <PUBCHEM_HEAVY_ATOM_COUNT>
25

> <PUBCHEM_ATOM_DEF_STEREO_COUNT>
0

> <PUBCHEM_ATOM_UDEF_STEREO_COUNT>
1

> <PUBCHEM_BOND_DEF_STEREO_COUNT>
0

> <PUBCHEM_BOND_UDEF_STEREO_COUNT>
0

> <PUBCHEM_ISOTOPIC_ATOM_COUNT>
0

> <PUBCHEM_COMPONENT_COUNT>
1

> <PUBCHEM_CACTVS_TAUTO_COUNT>
1

> <PUBCHEM_CONFORMER_ID>
0109714900000001

> <PUBCHEM_MMFF94_ENERGY>
58.0119

> <PUBCHEM_FEATURE_SELFOVERLAP>
35.582

> <PUBCHEM_SHAPE_FINGERPRINT>
10378564 45 18260545650128910388
11070050 100 16415202295288242312
11101153 10 18267587906161771989
11595378 159 15913057572086208660
11796584 16 7853586681364514311
11991303 11 17531256032823705895
12422481 6 17561084756318397805
12616971 3 18271820050438812114
12730499 353 18270672074959328282
12788726 201 17458616856704933464
13690498 29 17605844612181350271
13944108 23 17614002211197311841
14251751 18 7997964678673874161
14347329 18 18189341328369200489
14528608 73 18409169870517529094
14790565 3 18411136948195600209
14848160 23 8718825370947362835
14848178 5 7637394142559502373
14933364 13 18341324556917363203
15183329 4 17967809465987792152
15188451 53 9007056846647677513
15210252 30 18201155443703684460
15575132 122 18409166589220439949
15840311 113 18272082846961429253
17349148 13 6988316179196060211
17844677 252 18411976949209469899
17857418 61 8286204954551097352
17959699 21 18411702067276200760
18222031 100 4895555186572407490
19377110 9 13398625048041249282
20281389 69 18201438120879977385
20691028 202 18336830909273413569
21033648 29 18341335505031892912
21304253 335 18272928332152176596
21315759 148 17988066842691259755
22289505 5 18335137592762575976
23559900 14 17822295721071469398
23569914 2 17625871219622207269
25122255 55 7925628925411086813
268830 7 17988096559284766898
2838139 119 18268719470830050997
3004659 81 18040997375908360354
3472631 163 18408887356000276375
34797466 226 18334570248477290919
5104073 3 17703795824842605730
5718773 13 6843656647630365268
633830 44 18342185474332689850
6898599 12 18261961747779903431
7970288 3 8429504288484581860
90127 26 18342172267439824891
960060 61 16443346468633163568

> <PUBCHEM_SHAPE_MULTIPOLES>
497.53
16.95
3.15
1.31
2.65
1.34
-0.02
11.34
3.48
0.38
0.73
0.32
-0.16
0.09

> <PUBCHEM_SHAPE_SELFOVERLAP>
1048.131

> <PUBCHEM_SHAPE_VOLUME>
283.1

> <PUBCHEM_COORDINATE_TYPE>
2
5
10

$$$$

