47205006
  -OEChem-06241222572D

 33 35  0     0  0  0  0  0  0999 V2000
    7.6279    1.4680    0.0000 O   0  0  0  0  0  0  0  0  0  0  0  0
    8.6279   -1.9961    0.0000 O   0  0  0  0  0  0  0  0  0  0  0  0
    5.5443    1.4067    0.0000 N   0  0  0  0  0  0  0  0  0  0  0  0
    7.6279   -0.2640    0.0000 N   0  0  0  0  0  0  0  0  0  0  0  0
   10.1279    0.6020    0.0000 N   0  0  0  0  0  0  0  0  0  0  0  0
    4.5981    0.1020    0.0000 C   0  0  0  0  0  0  0  0  0  0  0  0
    4.5981    1.1020    0.0000 C   0  0  0  0  0  0  0  0  0  0  0  0
    6.1279    0.6020    0.0000 C   0  0  0  0  0  0  0  0  0  0  0  0
    5.5443   -0.2027    0.0000 C   0  0  0  0  0  0  0  0  0  0  0  0
    3.7320   -0.3980    0.0000 C   0  0  0  0  0  0  0  0  0  0  0  0
    2.8660    0.1020    0.0000 C   0  0  0  0  0  0  0  0  0  0  0  0
    3.7320    1.6020    0.0000 C   0  0  0  0  0  0  0  0  0  0  0  0
    2.8660    1.1020    0.0000 C   0  0  0  0  0  0  0  0  0  0  0  0
    7.1279    0.6020    0.0000 C   0  0  0  0  0  0  0  0  0  0  0  0
    2.0000   -0.3980    0.0000 C   0  0  0  0  0  0  0  0  0  0  0  0
    8.6279   -0.2640    0.0000 C   0  0  0  0  0  0  0  0  0  0  0  0
    9.1279   -1.1300    0.0000 C   0  0  0  0  0  0  0  0  0  0  0  0
    9.1279    0.6020    0.0000 C   0  0  0  0  0  0  0  0  0  0  0  0
   10.1279   -1.1300    0.0000 C   0  0  0  0  0  0  0  0  0  0  0  0
   10.6279   -0.2640    0.0000 C   0  0  0  0  0  0  0  0  0  0  0  0
    5.7369   -0.7920    0.0000 H   0  0  0  0  0  0  0  0  0  0  0  0
    5.7369    1.9961    0.0000 H   0  0  0  0  0  0  0  0  0  0  0  0
    3.7320   -1.0180    0.0000 H   0  0  0  0  0  0  0  0  0  0  0  0
    3.7320    2.2220    0.0000 H   0  0  0  0  0  0  0  0  0  0  0  0
    2.3291    1.4120    0.0000 H   0  0  0  0  0  0  0  0  0  0  0  0
    7.3179   -0.8010    0.0000 H   0  0  0  0  0  0  0  0  0  0  0  0
    1.6900    0.1389    0.0000 H   0  0  0  0  0  0  0  0  0  0  0  0
    1.4631   -0.7080    0.0000 H   0  0  0  0  0  0  0  0  0  0  0  0
    2.3100   -0.9349    0.0000 H   0  0  0  0  0  0  0  0  0  0  0  0
    8.8179    1.1389    0.0000 H   0  0  0  0  0  0  0  0  0  0  0  0
   10.4379   -1.6670    0.0000 H   0  0  0  0  0  0  0  0  0  0  0  0
   10.4379    1.1389    0.0000 H   0  0  0  0  0  0  0  0  0  0  0  0
   11.2479   -0.2640    0.0000 H   0  0  0  0  0  0  0  0  0  0  0  0
  1 14  2  0  0  0  0
  2 17  2  0  0  0  0
  3  7  1  0  0  0  0
  3  8  1  0  0  0  0
  3 22  1  0  0  0  0
  4 14  1  0  0  0  0
  4 16  1  0  0  0  0
  4 26  1  0  0  0  0
  5 18  1  0  0  0  0
  5 20  1  0  0  0  0
  5 32  1  0  0  0  0
  6  7  2  0  0  0  0
  6  9  1  0  0  0  0
  6 10  1  0  0  0  0
  7 12  1  0  0  0  0
  8  9  2  0  0  0  0
  8 14  1  0  0  0  0
  9 21  1  0  0  0  0
 10 11  2  0  0  0  0
 10 23  1  0  0  0  0
 11 13  1  0  0  0  0
 11 15  1  0  0  0  0
 12 13  2  0  0  0  0
 12 24  1  0  0  0  0
 13 25  1  0  0  0  0
 15 27  1  0  0  0  0
 15 28  1  0  0  0  0
 15 29  1  0  0  0  0
 16 17  1  0  0  0  0
 16 18  2  0  0  0  0
 17 19  1  0  0  0  0
 18 30  1  0  0  0  0
 19 20  2  0  0  0  0
 19 31  1  0  0  0  0
 20 33  1  0  0  0  0
M  END
> <PUBCHEM_COMPOUND_CID>
47205006

> <PUBCHEM_COMPOUND_CANONICALIZED>
1

> <PUBCHEM_CACTVS_COMPLEXITY>
484

> <PUBCHEM_CACTVS_HBOND_ACCEPTOR>
3

> <PUBCHEM_CACTVS_HBOND_DONOR>
3

> <PUBCHEM_CACTVS_ROTATABLE_BOND>
2

> <PUBCHEM_CACTVS_SUBSKEYS>
AAADccBzMAAAAAAAAAAAAAAAAAAAAWAAAAAwQAAAAAAAAFgB8AAAHgAQAAAADAzBngQywPLJkACoA6V2VACCgCAnAiAImaG4ZNgIYPLAlbGUIQhglADIyccYicCeCAACAAACAAAQAAQAAAQAAAAAAAAAAA==

> <PUBCHEM_IUPAC_OPENEYE_NAME>
5-methyl-N-(4-oxo-1H-pyridin-3-yl)-1H-indole-2-carboxamide

> <PUBCHEM_IUPAC_CAS_NAME>
5-methyl-N-(4-oxo-1H-pyridin-3-yl)-1H-indole-2-carboxamide

> <PUBCHEM_IUPAC_NAME>
5-methyl-N-(4-oxo-1H-pyridin-3-yl)-1H-indole-2-carboxamide

> <PUBCHEM_IUPAC_SYSTEMATIC_NAME>
5-methyl-N-(4-oxidanylidene-1H-pyridin-3-yl)-1H-indole-2-carboxamide

> <PUBCHEM_IUPAC_TRADITIONAL_NAME>
N-(4-keto-1H-pyridin-3-yl)-5-methyl-1H-indole-2-carboxamide

> <PUBCHEM_IUPAC_INCHI>
InChI=1S/C15H13N3O2/c1-9-2-3-11-10(6-9)7-12(17-11)15(20)18-13-8-16-5-4-14(13)19/h2-8,17H,1H3,(H,16,19)(H,18,20)

> <PUBCHEM_IUPAC_INCHIKEY>
BCQHJHREUAIWKP-UHFFFAOYSA-N

> <PUBCHEM_XLOGP3_AA>
2

> <PUBCHEM_EXACT_MASS>
267.100777

> <PUBCHEM_MOLECULAR_FORMULA>
C15H13N3O2

> <PUBCHEM_MOLECULAR_WEIGHT>
267.28262

> <PUBCHEM_OPENEYE_CAN_SMILES>
CC1=CC2=C(C=C1)NC(=C2)C(=O)NC3=CNC=CC3=O

> <PUBCHEM_OPENEYE_ISO_SMILES>
CC1=CC2=C(C=C1)NC(=C2)C(=O)NC3=CNC=CC3=O

> <PUBCHEM_CACTVS_TPSA>
74

> <PUBCHEM_MONOISOTOPIC_WEIGHT>
267.100777

> <PUBCHEM_TOTAL_CHARGE>
0

> <PUBCHEM_HEAVY_ATOM_COUNT>
20

> <PUBCHEM_ATOM_DEF_STEREO_COUNT>
0

> <PUBCHEM_ATOM_UDEF_STEREO_COUNT>
0

> <PUBCHEM_BOND_DEF_STEREO_COUNT>
0

> <PUBCHEM_BOND_UDEF_STEREO_COUNT>
0

> <PUBCHEM_ISOTOPIC_ATOM_COUNT>
0

> <PUBCHEM_COMPONENT_COUNT>
1

> <PUBCHEM_CACTVS_TAUTO_COUNT>
119

> <PUBCHEM_COORDINATE_TYPE>
1
5
255

> <PUBCHEM_BONDANNOTATIONS>
10  11  8
11  13  8
12  13  8
16  17  8
16  18  8
17  19  8
19  20  8
3  7  8
3  8  8
5  18  8
5  20  8
6  10  8
6  7  8
6  9  8
7  12  8
8  9  8

$$$$

