12966
  -OEChem-06261207363D

 32 31  0     0  0  0  0  0  0999 V2000
   -2.2669   -0.2946   -0.5509 O   0  0  0  0  0  0  0  0  0  0  0  0
    2.3731   -0.1219   -0.5231 O   0  0  0  0  0  0  0  0  0  0  0  0
   -1.3263   -0.9506    1.4473 O   0  0  0  0  0  0  0  0  0  0  0  0
    1.3197   -1.5726    0.9227 O   0  0  0  0  0  0  0  0  0  0  0  0
    0.1969    1.6471    0.0747 C   0  0  0  0  0  0  0  0  0  0  0  0
    0.0381    0.1419   -0.2551 C   0  0  0  0  0  0  0  0  0  0  0  0
    0.3050    1.9275    1.5772 C   0  0  0  0  0  0  0  0  0  0  0  0
   -0.9265    2.4911   -0.5345 C   0  0  0  0  0  0  0  0  0  0  0  0
   -1.2394   -0.4419    0.3373 C   0  0  0  0  0  0  0  0  0  0  0  0
    1.2921   -0.6314    0.1408 C   0  0  0  0  0  0  0  0  0  0  0  0
   -3.5371   -0.7875   -0.1131 C   0  0  0  0  0  0  0  0  0  0  0  0
    3.6224   -0.7674   -0.2568 C   0  0  0  0  0  0  0  0  0  0  0  0
   -4.5605   -0.5504   -1.2031 C   0  0  0  0  0  0  0  0  0  0  0  0
    4.7094   -0.0893   -1.0633 C   0  0  0  0  0  0  0  0  0  0  0  0
    1.1300    2.0034   -0.3815 H   0  0  0  0  0  0  0  0  0  0  0  0
   -0.0351    0.0089   -1.3447 H   0  0  0  0  0  0  0  0  0  0  0  0
    1.1303    1.3682    2.0289 H   0  0  0  0  0  0  0  0  0  0  0  0
    0.4945    2.9919    1.7547 H   0  0  0  0  0  0  0  0  0  0  0  0
   -0.6168    1.6644    2.1060 H   0  0  0  0  0  0  0  0  0  0  0  0
   -0.7079    3.5584   -0.4186 H   0  0  0  0  0  0  0  0  0  0  0  0
   -1.8896    2.3006   -0.0504 H   0  0  0  0  0  0  0  0  0  0  0  0
   -1.0310    2.2890   -1.6056 H   0  0  0  0  0  0  0  0  0  0  0  0
   -3.4603   -1.8603    0.0958 H   0  0  0  0  0  0  0  0  0  0  0  0
   -3.8385   -0.2596    0.7985 H   0  0  0  0  0  0  0  0  0  0  0  0
    3.8521   -0.6909    0.8119 H   0  0  0  0  0  0  0  0  0  0  0  0
    3.5554   -1.8237   -0.5403 H   0  0  0  0  0  0  0  0  0  0  0  0
   -5.5459   -0.9154   -0.9006 H   0  0  0  0  0  0  0  0  0  0  0  0
   -4.6345    0.5170   -1.4360 H   0  0  0  0  0  0  0  0  0  0  0  0
   -4.2636   -1.0573   -2.1272 H   0  0  0  0  0  0  0  0  0  0  0  0
    5.6807   -0.5584   -0.8829 H   0  0  0  0  0  0  0  0  0  0  0  0
    4.4846   -0.1416   -2.1337 H   0  0  0  0  0  0  0  0  0  0  0  0
    4.7757    0.9724   -0.8040 H   0  0  0  0  0  0  0  0  0  0  0  0
  1  9  1  0  0  0  0
  1 11  1  0  0  0  0
  2 10  1  0  0  0  0
  2 12  1  0  0  0  0
  3  9  2  0  0  0  0
  4 10  2  0  0  0  0
  5  6  1  0  0  0  0
  5  7  1  0  0  0  0
  5  8  1  0  0  0  0
  5 15  1  0  0  0  0
  6  9  1  0  0  0  0
  6 10  1  0  0  0  0
  6 16  1  0  0  0  0
  7 17  1  0  0  0  0
  7 18  1  0  0  0  0
  7 19  1  0  0  0  0
  8 20  1  0  0  0  0
  8 21  1  0  0  0  0
  8 22  1  0  0  0  0
 11 13  1  0  0  0  0
 11 23  1  0  0  0  0
 11 24  1  0  0  0  0
 12 14  1  0  0  0  0
 12 25  1  0  0  0  0
 12 26  1  0  0  0  0
 13 27  1  0  0  0  0
 13 28  1  0  0  0  0
 13 29  1  0  0  0  0
 14 30  1  0  0  0  0
 14 31  1  0  0  0  0
 14 32  1  0  0  0  0
M  END
> <PUBCHEM_COMPOUND_CID>
12966

> <PUBCHEM_CONFORMER_RMSD>
0.8

> <PUBCHEM_CONFORMER_DIVERSEORDER>
1
67
57
10
71
12
55
56
9
68
19
17
25
74
29
66
60
58
34
14
48
54
36
47
5
43
65
52
39
49
37
33
46
2
31
51
35
41
26
63
64
13
53
70
50
44
22
27
40
32
73
6
61
30
3
24
28
8
69
42
45
11
21
18
20
59
7
23
16
4
15
38
62
72

> <PUBCHEM_MMFF94_PARTIAL_CHARGES>
9
1 -0.43
10 0.66
11 0.28
12 0.28
2 -0.43
3 -0.57
4 -0.57
6 0.12
9 0.66

> <PUBCHEM_EFFECTIVE_ROTOR_COUNT>
7

> <PUBCHEM_PHARMACOPHORE_FEATURES>
4
1 3 acceptor
1 4 acceptor
1 6 anion
3 5 7 8 hydrophobe

> <PUBCHEM_HEAVY_ATOM_COUNT>
14

> <PUBCHEM_ATOM_DEF_STEREO_COUNT>
0

> <PUBCHEM_ATOM_UDEF_STEREO_COUNT>
0

> <PUBCHEM_BOND_DEF_STEREO_COUNT>
0

> <PUBCHEM_BOND_UDEF_STEREO_COUNT>
0

> <PUBCHEM_ISOTOPIC_ATOM_COUNT>
0

> <PUBCHEM_COMPONENT_COUNT>
1

> <PUBCHEM_CACTVS_TAUTO_COUNT>
1

> <PUBCHEM_CONFORMER_ID>
000032A600000001

> <PUBCHEM_MMFF94_ENERGY>
14.0449

> <PUBCHEM_FEATURE_SELFOVERLAP>
20.302

> <PUBCHEM_SHAPE_FINGERPRINT>
10756046 5 17983014745738345286
10922049 32 10807939279470719528
12251169 10 7132430237721995127
13380536 53 6915988083764795379
14178000 29 17530966851926085356
14911166 2 18343303643535334815
14943859 89 14117798015894219615
14993402 34 18187083936117744295
15048467 5 17418095429562964591
161256 15 18335718108346455881
16945 1 18202279216814725272
18186145 218 18340502062776157207
18410436 195 18041002817046076425
187816 3 18201717353498819550
200 152 18408882962586550254
20671657 53 17968095296340759789
20711985 327 17676199148237420005
20871999 31 18272656787419649941
21256008 61 18114184099013942199
21339142 36 18114181990317193376
21501502 16 18126568066197670082
21524375 3 10447926161570954045
21637258 2 16588315998318101671
228727 97 18340762732482795682
23402539 116 18335137626552589438
23402655 69 17988935491489732759
23419403 2 16405978547618474594
23526113 38 17918278666533283979
23557571 272 17895466029576774796
23559900 14 18201997695468983070
23598291 2 17896893062536198135
2748010 2 17982447105311105227
276578 36 11455897983104605005
366044 4 11527946742373848924
68521 5 18410009983042306053
7364860 26 17751087898970590625
81228 2 18266162006361857240

> <PUBCHEM_SHAPE_MULTIPOLES>
264.64
7.04
1.93
1.22
1.04
1.62
0.26
-3.64
-3.74
-0.28
0.28
-0.13
0.11
0.02

> <PUBCHEM_SHAPE_SELFOVERLAP>
501.389

> <PUBCHEM_SHAPE_VOLUME>
163.9

> <PUBCHEM_COORDINATE_TYPE>
2
5
10

$$$$

