17395485
  -OEChem-06241222503D

 43 45  0     0  0  0  0  0  0999 V2000
    3.9300   -0.1546    0.3083 S   0  0  0  0  0  0  0  0  0  0  0  0
   -0.0389    0.9565   -2.0446 F   0  0  0  0  0  0  0  0  0  0  0  0
   -5.2463   -0.2709   -0.3294 O   0  0  0  0  0  0  0  0  0  0  0  0
    6.8594   -0.3797   -0.6420 O   0  0  0  0  0  0  0  0  0  0  0  0
    1.2043   -0.2713    0.1170 N   0  0  0  0  0  0  0  0  0  0  0  0
    0.8149   -2.4243    0.1040 N   0  0  0  0  0  0  0  0  0  0  0  0
    2.1785   -2.2289    0.1973 N   0  0  0  0  0  0  0  0  0  0  0  0
    0.2487   -1.2397    0.0572 C   0  0  0  0  0  0  0  0  0  0  0  0
   -1.1683   -0.9892   -0.0429 C   0  0  0  0  0  0  0  0  0  0  0  0
    0.9941    1.1090    0.0905 C   0  0  0  0  0  0  0  0  0  0  0  0
    2.3918   -0.9324    0.2036 C   0  0  0  0  0  0  0  0  0  0  0  0
   -1.8860   -1.4694   -1.1384 C   0  0  0  0  0  0  0  0  0  0  0  0
   -1.8213   -0.2677    0.9565 C   0  0  0  0  0  0  0  0  0  0  0  0
    0.3677    1.7010   -1.0061 C   0  0  0  0  0  0  0  0  0  0  0  0
    1.4117    1.8957    1.1639 C   0  0  0  0  0  0  0  0  0  0  0  0
   -3.9092   -0.5065   -0.2352 C   0  0  0  0  0  0  0  0  0  0  0  0
   -3.2563   -1.2281   -1.2346 C   0  0  0  0  0  0  0  0  0  0  0  0
   -3.1916   -0.0263    0.8604 C   0  0  0  0  0  0  0  0  0  0  0  0
    5.0472   -1.5838    0.3984 C   0  0  0  0  0  0  0  0  0  0  0  0
    0.1588    3.0799   -1.0293 C   0  0  0  0  0  0  0  0  0  0  0  0
    1.2028    3.2748    1.1407 C   0  0  0  0  0  0  0  0  0  0  0  0
    0.5765    3.8669    0.0441 C   0  0  0  0  0  0  0  0  0  0  0  0
    6.5002   -1.1471    0.4995 C   0  0  0  0  0  0  0  0  0  0  0  0
   -5.9723   -0.1512    0.8931 C   0  0  0  0  0  0  0  0  0  0  0  0
   -7.3964   -0.6127    0.6681 C   0  0  0  0  0  0  0  0  0  0  0  0
   -1.3917   -2.0320   -1.9269 H   0  0  0  0  0  0  0  0  0  0  0  0
   -1.2834    0.1094    1.8230 H   0  0  0  0  0  0  0  0  0  0  0  0
    1.8821    1.4543    2.0391 H   0  0  0  0  0  0  0  0  0  0  0  0
   -3.8100   -1.6042   -2.0905 H   0  0  0  0  0  0  0  0  0  0  0  0
   -3.6563    0.5608    1.6469 H   0  0  0  0  0  0  0  0  0  0  0  0
    4.7868   -2.1994    1.2653 H   0  0  0  0  0  0  0  0  0  0  0  0
    4.9088   -2.1796   -0.5104 H   0  0  0  0  0  0  0  0  0  0  0  0
   -0.3296    3.5404   -1.8829 H   0  0  0  0  0  0  0  0  0  0  0  0
    1.5232    3.8869    1.9786 H   0  0  0  0  0  0  0  0  0  0  0  0
    0.4125    4.9404    0.0266 H   0  0  0  0  0  0  0  0  0  0  0  0
    7.1547   -2.0235    0.5347 H   0  0  0  0  0  0  0  0  0  0  0  0
    6.6869   -0.5517    1.3996 H   0  0  0  0  0  0  0  0  0  0  0  0
   -5.5447   -0.7789    1.6850 H   0  0  0  0  0  0  0  0  0  0  0  0
   -5.9685    0.8967    1.2129 H   0  0  0  0  0  0  0  0  0  0  0  0
   -7.8746   -0.0187   -0.1177 H   0  0  0  0  0  0  0  0  0  0  0  0
   -7.4159   -1.6556    0.3343 H   0  0  0  0  0  0  0  0  0  0  0  0
   -7.9864   -0.5244    1.5847 H   0  0  0  0  0  0  0  0  0  0  0  0
    6.2656    0.3898   -0.6737 H   0  0  0  0  0  0  0  0  0  0  0  0
  1 11  1  0  0  0  0
  1 19  1  0  0  0  0
  2 14  1  0  0  0  0
  3 16  1  0  0  0  0
  3 24  1  0  0  0  0
  4 23  1  0  0  0  0
  4 43  1  0  0  0  0
  5  8  1  0  0  0  0
  5 10  1  0  0  0  0
  5 11  1  0  0  0  0
  6  7  1  0  0  0  0
  6  8  2  0  0  0  0
  7 11  2  0  0  0  0
  8  9  1  0  0  0  0
  9 12  2  0  0  0  0
  9 13  1  0  0  0  0
 10 14  1  0  0  0  0
 10 15  2  0  0  0  0
 12 17  1  0  0  0  0
 12 26  1  0  0  0  0
 13 18  2  0  0  0  0
 13 27  1  0  0  0  0
 14 20  2  0  0  0  0
 15 21  1  0  0  0  0
 15 28  1  0  0  0  0
 16 17  2  0  0  0  0
 16 18  1  0  0  0  0
 17 29  1  0  0  0  0
 18 30  1  0  0  0  0
 19 23  1  0  0  0  0
 19 31  1  0  0  0  0
 19 32  1  0  0  0  0
 20 22  1  0  0  0  0
 20 33  1  0  0  0  0
 21 22  2  0  0  0  0
 21 34  1  0  0  0  0
 22 35  1  0  0  0  0
 23 36  1  0  0  0  0
 23 37  1  0  0  0  0
 24 25  1  0  0  0  0
 24 38  1  0  0  0  0
 24 39  1  0  0  0  0
 25 40  1  0  0  0  0
 25 41  1  0  0  0  0
 25 42  1  0  0  0  0
M  END
> <PUBCHEM_COMPOUND_CID>
17395485

> <PUBCHEM_CONFORMER_RMSD>
0.8

> <PUBCHEM_CONFORMER_DIVERSEORDER>
2
33
77
45
54
47
35
64
65
31
5
40
24
51
10
69
63
56
50
41
75
3
59
28
60
55
74
25
48
14
57
72
32
34
73
6
70
52
12
58
1
18
67
11
44
53
13
43
15
30
9
20
19
7
61
16
71
39
17
26
36
8
76
22
68
29
4
27
49
62
23
21
66
42
38
37
46

> <PUBCHEM_MMFF94_PARTIAL_CHARGES>
33
1 -0.29
10 -0.02
11 0.24
12 -0.15
13 -0.15
14 0.19
15 -0.15
16 0.08
17 -0.15
18 -0.15
19 0.23
2 -0.19
20 -0.15
21 -0.15
22 -0.15
23 0.28
24 0.28
26 0.15
27 0.15
28 0.15
29 0.15
3 -0.36
30 0.15
33 0.15
34 0.15
35 0.15
4 -0.68
43 0.4
5 0.33
6 -0.34
7 -0.34
8 0.13
9 0.05

> <PUBCHEM_EFFECTIVE_ROTOR_COUNT>
7

> <PUBCHEM_PHARMACOPHORE_FEATURES>
8
1 3 acceptor
1 4 acceptor
1 4 donor
3 5 6 8 cation
3 5 7 11 cation
5 5 6 7 8 11 rings
6 10 14 15 20 21 22 rings
6 9 12 13 16 17 18 rings

> <PUBCHEM_HEAVY_ATOM_COUNT>
25

> <PUBCHEM_ATOM_DEF_STEREO_COUNT>
0

> <PUBCHEM_ATOM_UDEF_STEREO_COUNT>
0

> <PUBCHEM_BOND_DEF_STEREO_COUNT>
0

> <PUBCHEM_BOND_UDEF_STEREO_COUNT>
0

> <PUBCHEM_ISOTOPIC_ATOM_COUNT>
0

> <PUBCHEM_COMPONENT_COUNT>
1

> <PUBCHEM_CACTVS_TAUTO_COUNT>
1

> <PUBCHEM_CONFORMER_ID>
01096F1D00000002

> <PUBCHEM_MMFF94_ENERGY>
78.7707

> <PUBCHEM_FEATURE_SELFOVERLAP>
43.097

> <PUBCHEM_SHAPE_FINGERPRINT>
10162869 55 18334017182383119819
10688039 33 18131070484371528124
1100329 8 18337110059949727779
11582403 64 15580354948758056104
11640471 11 17898006829181664429
12035758 1 18269574770453872360
12236239 1 17967817124225879475
12516196 113 18410856572804552330
12553582 1 18339379529432857522
12741549 16 17561088024630338933
12788726 201 18199478825798717810
13134695 92 18412827962629866533
13140716 1 18266742372724246331
13590594 115 18410294735443203313
13899415 154 18411412908576656122
14068700 675 18040720259753477209
14170010 4 18410013204562839481
14347332 77 18192429895730056670
14849402 71 18338792291629495865
14955137 171 18410284800756345779
15439362 3 18123470484155270080
15527383 91 18410857650772498829
15849732 13 18113616798517262463
15927050 60 17832421995703528044
1601671 61 18335423482100490734
17492 89 17975985267091232439
17980427 23 17313678061558214661
17980427 26 17681851608778379780
1813 80 18335689585621338502
18336668 15 18261387875661767249
20600515 1 17987781012627902686
21033648 29 17632030671893022485
21049683 271 18272927198354832084
21133410 38 16671897845429236649
21267235 1 18409443704378343499
21285901 2 18041831935171760198
21304253 13 18187087256412424272
21641784 216 18129648829512942148
21792961 116 17987529263003958990
22182313 1 18125473910637231452
23558518 356 17979080375154114939
23559900 14 18189064096376793507
23622692 88 18040718065172686767
23845131 108 17326332632867069640
24771293 8 18042704810155028504
249057 3 18408886218541402375
283562 15 18269555116968303738
3178227 256 18341036459571061755
335352 9 18335422348482423311
350125 39 18409727374901084849
474 4 18194970643409534985
5171179 24 18189357726465198000
5895379 119 16227142921843186969
84936 182 17827364276333157201
9981440 41 17254010648983726368

> <PUBCHEM_SHAPE_MULTIPOLES>
484.38
12.92
3.3
1.2
4.46
3.97
0.28
-8.08
-2.8
-2.47
0.05
0.47
0.38
-0.26

> <PUBCHEM_SHAPE_SELFOVERLAP>
1029.408

> <PUBCHEM_SHAPE_VOLUME>
274.4

> <PUBCHEM_COORDINATE_TYPE>
2
5
10

$$$$

