17395665
  -OEChem-06241222513D

 50 52  0     1  0  0  0  0  0999 V2000
    7.4126   -3.4582    0.3203 Cl  0  0  0  0  0  0  0  0  0  0  0  0
   -7.7258   -1.7381    0.1903 O   0  0  0  0  0  0  0  0  0  0  0  0
    1.0582    0.6743    1.3313 O   0  0  0  0  0  0  0  0  0  0  0  0
   -5.2155   -0.5097   -0.1066 N   0  0  0  0  0  0  0  0  0  0  0  0
    3.3481    1.8683    0.3653 N   0  0  1  0  0  0  0  0  0  0  0  0
   -0.2196    1.9832   -0.1478 N   0  0  0  0  0  0  0  0  0  0  0  0
   -6.3779    0.2732    0.3349 C   0  0  0  0  0  0  0  0  0  0  0  0
   -5.3102   -1.9547    0.1279 C   0  0  0  0  0  0  0  0  0  0  0  0
   -7.6583   -0.3645   -0.1920 C   0  0  0  0  0  0  0  0  0  0  0  0
   -6.6479   -2.4737   -0.3876 C   0  0  0  0  0  0  0  0  0  0  0  0
   -3.9641    0.1148   -0.1163 C   0  0  0  0  0  0  0  0  0  0  0  0
   -3.7566    1.2483   -0.9025 C   0  0  0  0  0  0  0  0  0  0  0  0
   -2.9233   -0.3955    0.6596 C   0  0  0  0  0  0  0  0  0  0  0  0
   -1.4680    1.3605   -0.1370 C   0  0  0  0  0  0  0  0  0  0  0  0
   -2.5088    1.8711   -0.9129 C   0  0  0  0  0  0  0  0  0  0  0  0
   -1.6753    0.2272    0.6493 C   0  0  0  0  0  0  0  0  0  0  0  0
    2.0807    2.5763    0.2549 C   0  0  0  0  0  0  0  0  0  0  0  0
    3.5830    1.0395   -0.8194 C   0  0  0  0  0  0  0  0  0  0  0  0
    0.9400    1.6206    0.5594 C   0  0  0  0  0  0  0  0  0  0  0  0
    4.5413   -0.0864   -0.5351 C   0  0  0  0  0  0  0  0  0  0  0  0
    4.4534    2.8114    0.5500 C   0  0  0  0  0  0  0  0  0  0  0  0
    5.9118    0.1020   -0.7144 C   0  0  0  0  0  0  0  0  0  0  0  0
    4.0588   -1.3175   -0.0909 C   0  0  0  0  0  0  0  0  0  0  0  0
    6.7997   -0.9407   -0.4495 C   0  0  0  0  0  0  0  0  0  0  0  0
    4.9466   -2.3602    0.1739 C   0  0  0  0  0  0  0  0  0  0  0  0
    6.3171   -2.1717   -0.0053 C   0  0  0  0  0  0  0  0  0  0  0  0
   -6.3931    0.2845    1.4319 H   0  0  0  0  0  0  0  0  0  0  0  0
   -6.3344    1.3118   -0.0101 H   0  0  0  0  0  0  0  0  0  0  0  0
   -4.5043   -2.4948   -0.3830 H   0  0  0  0  0  0  0  0  0  0  0  0
   -5.2376   -2.1509    1.2048 H   0  0  0  0  0  0  0  0  0  0  0  0
   -8.5303    0.1451    0.2300 H   0  0  0  0  0  0  0  0  0  0  0  0
   -7.7239   -0.2861   -1.2840 H   0  0  0  0  0  0  0  0  0  0  0  0
   -6.7072   -2.4082   -1.4808 H   0  0  0  0  0  0  0  0  0  0  0  0
   -6.7719   -3.5256   -0.1116 H   0  0  0  0  0  0  0  0  0  0  0  0
   -4.5510    1.6531   -1.5243 H   0  0  0  0  0  0  0  0  0  0  0  0
   -3.0546   -1.2679    1.2937 H   0  0  0  0  0  0  0  0  0  0  0  0
   -2.3604    2.7518   -1.5326 H   0  0  0  0  0  0  0  0  0  0  0  0
   -0.9211   -0.2251    1.2777 H   0  0  0  0  0  0  0  0  0  0  0  0
    1.9653    3.0516   -0.7267 H   0  0  0  0  0  0  0  0  0  0  0  0
    2.0035    3.3660    1.0136 H   0  0  0  0  0  0  0  0  0  0  0  0
    2.6490    0.5794   -1.1709 H   0  0  0  0  0  0  0  0  0  0  0  0
    3.9344    1.6350   -1.6737 H   0  0  0  0  0  0  0  0  0  0  0  0
   -0.1567    2.8054   -0.7443 H   0  0  0  0  0  0  0  0  0  0  0  0
    5.3908    2.2996    0.7841 H   0  0  0  0  0  0  0  0  0  0  0  0
    4.6064    3.4523   -0.3260 H   0  0  0  0  0  0  0  0  0  0  0  0
    4.2584    3.4621    1.4109 H   0  0  0  0  0  0  0  0  0  0  0  0
    6.3028    1.0505   -1.0724 H   0  0  0  0  0  0  0  0  0  0  0  0
    2.9937   -1.4768    0.0552 H   0  0  0  0  0  0  0  0  0  0  0  0
    7.8648   -0.7805   -0.5965 H   0  0  0  0  0  0  0  0  0  0  0  0
    4.5564   -3.3139    0.5199 H   0  0  0  0  0  0  0  0  0  0  0  0
  1 26  1  0  0  0  0
  2  9  1  0  0  0  0
  2 10  1  0  0  0  0
  3 19  2  0  0  0  0
  4  7  1  0  0  0  0
  4  8  1  0  0  0  0
  4 11  1  0  0  0  0
  5 17  1  0  0  0  0
  5 18  1  0  0  0  0
  5 21  1  0  0  0  0
  6 14  1  0  0  0  0
  6 19  1  0  0  0  0
  6 43  1  0  0  0  0
  7  9  1  0  0  0  0
  7 27  1  0  0  0  0
  7 28  1  0  0  0  0
  8 10  1  0  0  0  0
  8 29  1  0  0  0  0
  8 30  1  0  0  0  0
  9 31  1  0  0  0  0
  9 32  1  0  0  0  0
 10 33  1  0  0  0  0
 10 34  1  0  0  0  0
 11 12  2  0  0  0  0
 11 13  1  0  0  0  0
 12 15  1  0  0  0  0
 12 35  1  0  0  0  0
 13 16  2  0  0  0  0
 13 36  1  0  0  0  0
 14 15  2  0  0  0  0
 14 16  1  0  0  0  0
 15 37  1  0  0  0  0
 16 38  1  0  0  0  0
 17 19  1  0  0  0  0
 17 39  1  0  0  0  0
 17 40  1  0  0  0  0
 18 20  1  0  0  0  0
 18 41  1  0  0  0  0
 18 42  1  0  0  0  0
 20 22  2  0  0  0  0
 20 23  1  0  0  0  0
 21 44  1  0  0  0  0
 21 45  1  0  0  0  0
 21 46  1  0  0  0  0
 22 24  1  0  0  0  0
 22 47  1  0  0  0  0
 23 25  2  0  0  0  0
 23 48  1  0  0  0  0
 24 26  2  0  0  0  0
 24 49  1  0  0  0  0
 25 26  1  0  0  0  0
 25 50  1  0  0  0  0
M  END
> <PUBCHEM_COMPOUND_CID>
17395665

> <PUBCHEM_CONFORMER_RMSD>
1

> <PUBCHEM_CONFORMER_DIVERSEORDER>
1
15
29
44
41
52
37
3
23
50
19
31
69
34
48
5
61
58
2
40
13
45
18
14
51
12
25
62
9
22
67
39
35
68
70
60
6
59
10
17
21
42
53
63
30
65
33
20
26
11
4
16
38
43
36
24
56
66
54
47
28
8
46
7
64
32
49
27
55
57

> <PUBCHEM_MMFF94_PARTIAL_CHARGES>
35
1 -0.18
10 0.28
11 0.1
12 -0.15
13 -0.15
14 0.12
15 -0.15
16 -0.15
17 0.33
18 0.41
19 0.57
2 -0.56
20 -0.14
21 0.27
22 -0.15
23 -0.15
24 -0.15
25 -0.15
26 0.18
3 -0.57
35 0.15
36 0.15
37 0.15
38 0.15
4 -0.84
43 0.37
47 0.15
48 0.15
49 0.15
5 -0.81
50 0.15
6 -0.55
7 0.37
8 0.37
9 0.28

> <PUBCHEM_EFFECTIVE_ROTOR_COUNT>
8.2

> <PUBCHEM_PHARMACOPHORE_FEATURES>
8
1 2 acceptor
1 3 acceptor
1 4 cation
1 5 cation
1 6 donor
6 11 12 13 14 15 16 rings
6 2 4 7 8 9 10 rings
6 20 22 23 24 25 26 rings

> <PUBCHEM_HEAVY_ATOM_COUNT>
26

> <PUBCHEM_ATOM_DEF_STEREO_COUNT>
0

> <PUBCHEM_ATOM_UDEF_STEREO_COUNT>
0

> <PUBCHEM_BOND_DEF_STEREO_COUNT>
0

> <PUBCHEM_BOND_UDEF_STEREO_COUNT>
0

> <PUBCHEM_ISOTOPIC_ATOM_COUNT>
0

> <PUBCHEM_COMPONENT_COUNT>
1

> <PUBCHEM_CACTVS_TAUTO_COUNT>
2

> <PUBCHEM_CONFORMER_ID>
01096FD100000001

> <PUBCHEM_MMFF94_ENERGY>
87.546

> <PUBCHEM_FEATURE_SELFOVERLAP>
40.594

> <PUBCHEM_SHAPE_FINGERPRINT>
10 15 6771862982893851279
10299344 5 18409443696320905491
10670039 82 16128379319383575500
10730089 47 18410575080368118117
11273773 46 18339646771061750039
11409948 8 18261689125854585194
11524674 6 17022902333664235919
11991303 11 14620788267780318057
12166972 35 18202558514923486206
12616971 3 17240208715717295756
12717326 25 18130209516403844115
13073987 5 18187364315751687761
13533116 47 18187928335278254480
1361 4 18338235947040305190
13668630 136 18113611305264478094
13685833 64 18334575745951059512
13690498 29 18201444713649632349
13782708 43 18412263930354976301
13955234 65 18042976380932607448
14216079 64 18410855456413534311
14251764 30 18410576175933386533
14347332 77 18341335565071939233
14919807 6 17845669161245929773
15019793 15 18120096074100324127
15152005 290 18265897038527890817
15183329 4 18412824685875528137
15198563 99 17060348456952932269
15352257 5 18410854343906416703
15510800 12 18041553762977570526
15519825 34 14924526143235204023
17134984 74 17846498149858234826
20028762 73 18266460005159924018
2026 5 18270965768754453834
20567600 247 18410573994047568434
20771845 171 18131346377315424436
21033650 10 16701461302515041092
21130935 74 18335420106920613753
21344244 181 18202560653089771467
21344244 78 16153705427711453808
21360443 89 18129106805463912130
21585483 132 18263099733683597327
21641784 216 15625955252484518069
21682296 61 18411695483344588915
221357 26 18343584049038892848
23522609 53 18121745474860066829
23559900 14 18343023250774571905
23569943 247 18340485668580599219
270888 7 9439392528682848846
3004659 81 18272934916579653560
328310 630 12175632797806132511
33532 11 18408604726210424391
34797466 226 17274821307389337948
4073 2 18123187905091532249
4107672 100 17917435388876592965
4169191 19 9367349228333615923
439807 62 18413387652634505935
46194498 28 17632293441892059684
465052 167 18259701203476119860
5104073 3 17822007618474912136
54039377 194 18335698382284449670
5718773 13 18411139173363498174
6438161 24 18413394245915668650
8863177 126 18336266751747541732

> <PUBCHEM_SHAPE_MULTIPOLES>
510.26
23.76
3.41
0.87
10.7
0.8
0
21.47
-1.65
-4.35
0.28
-0.13
-0.19
0.21

> <PUBCHEM_SHAPE_SELFOVERLAP>
1065.872

> <PUBCHEM_SHAPE_VOLUME>
289.9

> <PUBCHEM_COORDINATE_TYPE>
2
5
10

$$$$

