6545
  -OEChem-06261201232D

 54 53  0     0  0  0  0  0  0999 V2000
    4.5981   -0.7500    0.0000 O   0  0  0  0  0  0  0  0  0  0  0  0
    8.9282    0.7500    0.0000 O   0  0  0  0  0  0  0  0  0  0  0  0
    3.7320   -0.2500    0.0000 O   0  0  0  0  0  0  0  0  0  0  0  0
    9.7942    0.2500    0.0000 O   0  0  0  0  0  0  0  0  0  0  0  0
    7.1962   -0.2500    0.0000 C   0  0  0  0  0  0  0  0  0  0  0  0
    6.3301    0.2500    0.0000 C   0  0  0  0  0  0  0  0  0  0  0  0
    5.4641   -0.2500    0.0000 C   0  0  0  0  0  0  0  0  0  0  0  0
    8.0622    0.2500    0.0000 C   0  0  0  0  0  0  0  0  0  0  0  0
    4.9641    0.6160    0.0000 C   0  0  0  0  0  0  0  0  0  0  0  0
    5.9641   -1.1160    0.0000 C   0  0  0  0  0  0  0  0  0  0  0  0
    8.5622   -0.6160    0.0000 C   0  0  0  0  0  0  0  0  0  0  0  0
    7.5622    1.1160    0.0000 C   0  0  0  0  0  0  0  0  0  0  0  0
   10.6603    0.7500    0.0000 C   0  0  0  0  0  0  0  0  0  0  0  0
    2.8660   -0.7500    0.0000 C   0  0  0  0  0  0  0  0  0  0  0  0
   11.5263    1.2500    0.0000 C   0  0  0  0  0  0  0  0  0  0  0  0
   11.1603   -0.1160    0.0000 C   0  0  0  0  0  0  0  0  0  0  0  0
   10.1603    1.6160    0.0000 C   0  0  0  0  0  0  0  0  0  0  0  0
    2.0000   -1.2500    0.0000 C   0  0  0  0  0  0  0  0  0  0  0  0
    2.3660    0.1160    0.0000 C   0  0  0  0  0  0  0  0  0  0  0  0
    3.3660   -1.6160    0.0000 C   0  0  0  0  0  0  0  0  0  0  0  0
    6.7287    0.7249    0.0000 H   0  0  0  0  0  0  0  0  0  0  0  0
    5.9316    0.7249    0.0000 H   0  0  0  0  0  0  0  0  0  0  0  0
    6.7976   -0.7249    0.0000 H   0  0  0  0  0  0  0  0  0  0  0  0
    7.5947   -0.7249    0.0000 H   0  0  0  0  0  0  0  0  0  0  0  0
    8.0991    1.4260    0.0000 H   0  0  0  0  0  0  0  0  0  0  0  0
    7.2522    1.6530    0.0000 H   0  0  0  0  0  0  0  0  0  0  0  0
    7.0252    0.8060    0.0000 H   0  0  0  0  0  0  0  0  0  0  0  0
    8.0252   -0.9260    0.0000 H   0  0  0  0  0  0  0  0  0  0  0  0
    8.8722   -1.1530    0.0000 H   0  0  0  0  0  0  0  0  0  0  0  0
    9.0991   -0.3060    0.0000 H   0  0  0  0  0  0  0  0  0  0  0  0
    5.4272   -1.4260    0.0000 H   0  0  0  0  0  0  0  0  0  0  0  0
    6.2741   -1.6530    0.0000 H   0  0  0  0  0  0  0  0  0  0  0  0
    6.5010   -0.8060    0.0000 H   0  0  0  0  0  0  0  0  0  0  0  0
    5.5010    0.9260    0.0000 H   0  0  0  0  0  0  0  0  0  0  0  0
    4.6541    1.1530    0.0000 H   0  0  0  0  0  0  0  0  0  0  0  0
    4.4272    0.3060    0.0000 H   0  0  0  0  0  0  0  0  0  0  0  0
   11.8363    0.7131    0.0000 H   0  0  0  0  0  0  0  0  0  0  0  0
   12.0632    1.5600    0.0000 H   0  0  0  0  0  0  0  0  0  0  0  0
   11.2163    1.7869    0.0000 H   0  0  0  0  0  0  0  0  0  0  0  0
   10.6233   -0.4260    0.0000 H   0  0  0  0  0  0  0  0  0  0  0  0
   11.4703   -0.6530    0.0000 H   0  0  0  0  0  0  0  0  0  0  0  0
   11.6972    0.1940    0.0000 H   0  0  0  0  0  0  0  0  0  0  0  0
   10.6972    1.9260    0.0000 H   0  0  0  0  0  0  0  0  0  0  0  0
    9.8503    2.1530    0.0000 H   0  0  0  0  0  0  0  0  0  0  0  0
    9.6233    1.3060    0.0000 H   0  0  0  0  0  0  0  0  0  0  0  0
    1.6900   -0.7131    0.0000 H   0  0  0  0  0  0  0  0  0  0  0  0
    1.4631   -1.5600    0.0000 H   0  0  0  0  0  0  0  0  0  0  0  0
    2.3100   -1.7869    0.0000 H   0  0  0  0  0  0  0  0  0  0  0  0
    2.9030    0.4260    0.0000 H   0  0  0  0  0  0  0  0  0  0  0  0
    2.0560    0.6530    0.0000 H   0  0  0  0  0  0  0  0  0  0  0  0
    1.8291   -0.1940    0.0000 H   0  0  0  0  0  0  0  0  0  0  0  0
    2.8291   -1.9260    0.0000 H   0  0  0  0  0  0  0  0  0  0  0  0
    3.6760   -2.1530    0.0000 H   0  0  0  0  0  0  0  0  0  0  0  0
    3.9030   -1.3060    0.0000 H   0  0  0  0  0  0  0  0  0  0  0  0
  1  3  1  0  0  0  0
  1  7  1  0  0  0  0
  2  4  1  0  0  0  0
  2  8  1  0  0  0  0
  3 14  1  0  0  0  0
  4 13  1  0  0  0  0
  5  6  1  0  0  0  0
  5  8  1  0  0  0  0
  5 23  1  0  0  0  0
  5 24  1  0  0  0  0
  6  7  1  0  0  0  0
  6 21  1  0  0  0  0
  6 22  1  0  0  0  0
  7  9  1  0  0  0  0
  7 10  1  0  0  0  0
  8 11  1  0  0  0  0
  8 12  1  0  0  0  0
  9 34  1  0  0  0  0
  9 35  1  0  0  0  0
  9 36  1  0  0  0  0
 10 31  1  0  0  0  0
 10 32  1  0  0  0  0
 10 33  1  0  0  0  0
 11 28  1  0  0  0  0
 11 29  1  0  0  0  0
 11 30  1  0  0  0  0
 12 25  1  0  0  0  0
 12 26  1  0  0  0  0
 12 27  1  0  0  0  0
 13 15  1  0  0  0  0
 13 16  1  0  0  0  0
 13 17  1  0  0  0  0
 14 18  1  0  0  0  0
 14 19  1  0  0  0  0
 14 20  1  0  0  0  0
 15 37  1  0  0  0  0
 15 38  1  0  0  0  0
 15 39  1  0  0  0  0
 16 40  1  0  0  0  0
 16 41  1  0  0  0  0
 16 42  1  0  0  0  0
 17 43  1  0  0  0  0
 17 44  1  0  0  0  0
 17 45  1  0  0  0  0
 18 46  1  0  0  0  0
 18 47  1  0  0  0  0
 18 48  1  0  0  0  0
 19 49  1  0  0  0  0
 19 50  1  0  0  0  0
 19 51  1  0  0  0  0
 20 52  1  0  0  0  0
 20 53  1  0  0  0  0
 20 54  1  0  0  0  0
M  END
> <PUBCHEM_COMPOUND_CID>
6545

> <PUBCHEM_COMPOUND_CANONICALIZED>
1

> <PUBCHEM_CACTVS_COMPLEXITY>
252

> <PUBCHEM_CACTVS_HBOND_ACCEPTOR>
4

> <PUBCHEM_CACTVS_HBOND_DONOR>
0

> <PUBCHEM_CACTVS_ROTATABLE_BOND>
9

> <PUBCHEM_CACTVS_SUBSKEYS>
AAADcfB4OAAAAAAAAAAAAAAAAAAAAAAAAAAAAAAAAAAAAAAAAAAAGgAABAAADESAgAACAAAAAAAAAAAAAAAAAAAAAAAAAAAAAAAAAAIAAAAAAAAEAAAAAAHAAAAMAAAAAAAAAAAAAAAAAAAAAAAAAAAAAA==

> <PUBCHEM_IUPAC_OPENEYE_NAME>
2,5-bis(tert-butylperoxy)-2,5-dimethyl-hexane

> <PUBCHEM_IUPAC_CAS_NAME>
2,5-bis(tert-butyldioxy)-2,5-dimethylhexane

> <PUBCHEM_IUPAC_NAME>
2,5-bis(tert-butylperoxy)-2,5-dimethylhexane

> <PUBCHEM_IUPAC_SYSTEMATIC_NAME>
2,5-bis(tert-butylperoxy)-2,5-dimethyl-hexane

> <PUBCHEM_IUPAC_TRADITIONAL_NAME>
2,5-bis(tert-butylperoxy)-2,5-dimethyl-hexane

> <PUBCHEM_IUPAC_INCHI>
InChI=1S/C16H34O4/c1-13(2,3)17-19-15(7,8)11-12-16(9,10)20-18-14(4,5)6/h11-12H2,1-10H3

> <PUBCHEM_IUPAC_INCHIKEY>
DMWVYCCGCQPJEA-UHFFFAOYSA-N

> <PUBCHEM_XLOGP3_AA>
3.9

> <PUBCHEM_EXACT_MASS>
290.24571

> <PUBCHEM_MOLECULAR_FORMULA>
C16H34O4

> <PUBCHEM_MOLECULAR_WEIGHT>
290.43876

> <PUBCHEM_OPENEYE_CAN_SMILES>
CC(C)(C)OOC(C)(C)CCC(C)(C)OOC(C)(C)C

> <PUBCHEM_OPENEYE_ISO_SMILES>
CC(C)(C)OOC(C)(C)CCC(C)(C)OOC(C)(C)C

> <PUBCHEM_CACTVS_TPSA>
36.9

> <PUBCHEM_MONOISOTOPIC_WEIGHT>
290.24571

> <PUBCHEM_TOTAL_CHARGE>
0

> <PUBCHEM_HEAVY_ATOM_COUNT>
20

> <PUBCHEM_ATOM_DEF_STEREO_COUNT>
0

> <PUBCHEM_ATOM_UDEF_STEREO_COUNT>
0

> <PUBCHEM_BOND_DEF_STEREO_COUNT>
0

> <PUBCHEM_BOND_UDEF_STEREO_COUNT>
0

> <PUBCHEM_ISOTOPIC_ATOM_COUNT>
0

> <PUBCHEM_COMPONENT_COUNT>
1

> <PUBCHEM_CACTVS_TAUTO_COUNT>
1

> <PUBCHEM_COORDINATE_TYPE>
1
5
255

$$$$

