4338
  -OEChem-06261200032D

 81 82  0     1  0  0  0  0  0999 V2000
    8.0622    2.4400    0.0000 O   0  0  0  0  0  0  0  0  0  0  0  0
   10.6603   -0.0600    0.0000 O   0  0  0  0  0  0  0  0  0  0  0  0
    5.4641   -0.0600    0.0000 O   0  0  0  0  0  0  0  0  0  0  0  0
   11.5263   -0.5600    0.0000 O   0  0  0  0  0  0  0  0  0  0  0  0
    4.5981   -0.5600    0.0000 O   0  0  0  0  0  0  0  0  0  0  0  0
   14.9904    4.4400    0.0000 O   0  0  0  0  0  0  0  0  0  0  0  0
    2.0000    2.9400    0.0000 O   0  0  0  0  0  0  0  0  0  0  0  0
    3.7320    2.9400    0.0000 O   0  0  0  0  0  0  0  0  0  0  0  0
    2.0000   -5.0600    0.0000 O   0  5  0  0  0  0  0  0  0  0  0  0
    3.7320   -5.0600    0.0000 O   0  0  0  0  0  0  0  0  0  0  0  0
    9.7942    1.4400    0.0000 N   0  0  0  0  0  0  0  0  0  0  0  0
    7.1962    0.9400    0.0000 N   0  0  0  0  0  0  0  0  0  0  0  0
   12.3923    0.9400    0.0000 N   0  0  0  0  0  0  0  0  0  0  0  0
    4.5981    1.4400    0.0000 N   0  0  0  0  0  0  0  0  0  0  0  0
    2.8660   -0.5600    0.0000 N   0  0  0  0  0  0  0  0  0  0  0  0
    2.8660   -4.5600    0.0000 N   0  3  0  0  0  0  0  0  0  0  0  0
    8.9282    0.9400    0.0000 C   0  0  3  0  0  0  0  0  0  0  0  0
    8.9282   -0.0600    0.0000 C   0  0  0  0  0  0  0  0  0  0  0  0
    8.0622    1.4400    0.0000 C   0  0  0  0  0  0  0  0  0  0  0  0
   11.5263    1.4400    0.0000 C   0  0  3  0  0  0  0  0  0  0  0  0
    9.7942   -0.5600    0.0000 C   0  0  0  0  0  0  0  0  0  0  0  0
    8.0622   -0.5600    0.0000 C   0  0  0  0  0  0  0  0  0  0  0  0
   10.6603    0.9400    0.0000 C   0  0  0  0  0  0  0  0  0  0  0  0
    6.3301    1.4400    0.0000 C   0  0  3  0  0  0  0  0  0  0  0  0
   11.5263    2.4400    0.0000 C   0  0  0  0  0  0  0  0  0  0  0  0
   12.3923    2.9400    0.0000 C   0  0  0  0  0  0  0  0  0  0  0  0
    5.4641    0.9400    0.0000 C   0  0  0  0  0  0  0  0  0  0  0  0
    6.3301    2.4400    0.0000 C   0  0  0  0  0  0  0  0  0  0  0  0
    3.7320    0.9400    0.0000 C   0  0  3  0  0  0  0  0  0  0  0  0
    2.8660    1.4400    0.0000 C   0  0  0  0  0  0  0  0  0  0  0  0
   12.3923    3.9400    0.0000 C   0  0  0  0  0  0  0  0  0  0  0  0
   13.2583    2.4400    0.0000 C   0  0  0  0  0  0  0  0  0  0  0  0
   12.3923   -0.0600    0.0000 C   0  0  0  0  0  0  0  0  0  0  0  0
    3.7320   -0.0600    0.0000 C   0  0  0  0  0  0  0  0  0  0  0  0
   13.2583    4.4400    0.0000 C   0  0  0  0  0  0  0  0  0  0  0  0
   14.1244    2.9400    0.0000 C   0  0  0  0  0  0  0  0  0  0  0  0
   14.1244    3.9400    0.0000 C   0  0  0  0  0  0  0  0  0  0  0  0
   13.2583   -0.5600    0.0000 C   0  0  0  0  0  0  0  0  0  0  0  0
    2.8660    2.4400    0.0000 C   0  0  0  0  0  0  0  0  0  0  0  0
    2.8660   -1.5600    0.0000 C   0  0  0  0  0  0  0  0  0  0  0  0
    2.0000   -2.0600    0.0000 C   0  0  0  0  0  0  0  0  0  0  0  0
    3.7320   -2.0600    0.0000 C   0  0  0  0  0  0  0  0  0  0  0  0
    2.0000   -3.0600    0.0000 C   0  0  0  0  0  0  0  0  0  0  0  0
    3.7320   -3.0600    0.0000 C   0  0  0  0  0  0  0  0  0  0  0  0
    2.8660   -3.5600    0.0000 C   0  0  0  0  0  0  0  0  0  0  0  0
    9.4651    0.6300    0.0000 H   0  0  0  0  0  0  0  0  0  0  0  0
    9.4651    0.2500    0.0000 H   0  0  0  0  0  0  0  0  0  0  0  0
    9.7942    2.0600    0.0000 H   0  0  0  0  0  0  0  0  0  0  0  0
   12.0632    1.7500    0.0000 H   0  0  0  0  0  0  0  0  0  0  0  0
    9.4842   -1.0969    0.0000 H   0  0  0  0  0  0  0  0  0  0  0  0
   10.3312   -0.8700    0.0000 H   0  0  0  0  0  0  0  0  0  0  0  0
   10.1042   -0.0231    0.0000 H   0  0  0  0  0  0  0  0  0  0  0  0
    7.7522   -0.0231    0.0000 H   0  0  0  0  0  0  0  0  0  0  0  0
    7.5252   -0.8700    0.0000 H   0  0  0  0  0  0  0  0  0  0  0  0
    8.3722   -1.0969    0.0000 H   0  0  0  0  0  0  0  0  0  0  0  0
    6.8671    1.7500    0.0000 H   0  0  0  0  0  0  0  0  0  0  0  0
   11.3142    3.0226    0.0000 H   0  0  0  0  0  0  0  0  0  0  0  0
   10.9157    2.3323    0.0000 H   0  0  0  0  0  0  0  0  0  0  0  0
    7.1962    0.3200    0.0000 H   0  0  0  0  0  0  0  0  0  0  0  0
   12.9292    1.2500    0.0000 H   0  0  0  0  0  0  0  0  0  0  0  0
    6.9501    2.4400    0.0000 H   0  0  0  0  0  0  0  0  0  0  0  0
    6.3301    3.0600    0.0000 H   0  0  0  0  0  0  0  0  0  0  0  0
    5.7101    2.4400    0.0000 H   0  0  0  0  0  0  0  0  0  0  0  0
    4.2690    0.6300    0.0000 H   0  0  0  0  0  0  0  0  0  0  0  0
    4.5981    2.0600    0.0000 H   0  0  0  0  0  0  0  0  0  0  0  0
    2.2554    1.5477    0.0000 H   0  0  0  0  0  0  0  0  0  0  0  0
    2.6540    0.8574    0.0000 H   0  0  0  0  0  0  0  0  0  0  0  0
   11.8554    4.2500    0.0000 H   0  0  0  0  0  0  0  0  0  0  0  0
   13.2583    1.8200    0.0000 H   0  0  0  0  0  0  0  0  0  0  0  0
   13.2583    5.0600    0.0000 H   0  0  0  0  0  0  0  0  0  0  0  0
   14.6613    2.6300    0.0000 H   0  0  0  0  0  0  0  0  0  0  0  0
   12.9483   -1.0969    0.0000 H   0  0  0  0  0  0  0  0  0  0  0  0
   13.7953   -0.8700    0.0000 H   0  0  0  0  0  0  0  0  0  0  0  0
   13.5683   -0.0231    0.0000 H   0  0  0  0  0  0  0  0  0  0  0  0
    2.3291   -0.2500    0.0000 H   0  0  0  0  0  0  0  0  0  0  0  0
    1.4631   -1.7500    0.0000 H   0  0  0  0  0  0  0  0  0  0  0  0
    4.2690   -1.7500    0.0000 H   0  0  0  0  0  0  0  0  0  0  0  0
   14.9904    5.0600    0.0000 H   0  0  0  0  0  0  0  0  0  0  0  0
    2.0000    3.5600    0.0000 H   0  0  0  0  0  0  0  0  0  0  0  0
    1.4631   -3.3700    0.0000 H   0  0  0  0  0  0  0  0  0  0  0  0
    4.2690   -3.3700    0.0000 H   0  0  0  0  0  0  0  0  0  0  0  0
  1 19  2  0  0  0  0
  2 23  2  0  0  0  0
  3 27  2  0  0  0  0
  4 33  2  0  0  0  0
  5 34  2  0  0  0  0
  6 37  1  0  0  0  0
  6 78  1  0  0  0  0
  7 39  1  0  0  0  0
  7 79  1  0  0  0  0
  8 39  2  0  0  0  0
  9 16  1  0  0  0  0
 10 16  2  0  0  0  0
 11 17  1  0  0  0  0
 11 23  1  0  0  0  0
 11 48  1  0  0  0  0
 12 19  1  0  0  0  0
 12 24  1  0  0  0  0
 12 59  1  0  0  0  0
 13 20  1  0  0  0  0
 13 33  1  0  0  0  0
 13 60  1  0  0  0  0
 14 27  1  0  0  0  0
 14 29  1  0  0  0  0
 14 65  1  0  0  0  0
 15 34  1  0  0  0  0
 15 40  1  0  0  0  0
 15 75  1  0  0  0  0
 16 45  1  0  0  0  0
 17 18  1  0  0  0  0
 17 19  1  0  0  0  0
 17 46  1  0  0  0  0
 18 21  1  0  0  0  0
 18 22  1  0  0  0  0
 18 47  1  0  0  0  0
 20 23  1  0  0  0  0
 20 25  1  0  0  0  0
 20 49  1  0  0  0  0
 21 50  1  0  0  0  0
 21 51  1  0  0  0  0
 21 52  1  0  0  0  0
 22 53  1  0  0  0  0
 22 54  1  0  0  0  0
 22 55  1  0  0  0  0
 24 27  1  0  0  0  0
 24 28  1  0  0  0  0
 24 56  1  0  0  0  0
 25 26  1  0  0  0  0
 25 57  1  0  0  0  0
 25 58  1  0  0  0  0
 26 31  2  0  0  0  0
 26 32  1  0  0  0  0
 28 61  1  0  0  0  0
 28 62  1  0  0  0  0
 28 63  1  0  0  0  0
 29 30  1  0  0  0  0
 29 34  1  0  0  0  0
 29 64  1  0  0  0  0
 30 39  1  0  0  0  0
 30 66  1  0  0  0  0
 30 67  1  0  0  0  0
 31 35  1  0  0  0  0
 31 68  1  0  0  0  0
 32 36  2  0  0  0  0
 32 69  1  0  0  0  0
 33 38  1  0  0  0  0
 35 37  2  0  0  0  0
 35 70  1  0  0  0  0
 36 37  1  0  0  0  0
 36 71  1  0  0  0  0
 38 72  1  0  0  0  0
 38 73  1  0  0  0  0
 38 74  1  0  0  0  0
 40 41  2  0  0  0  0
 40 42  1  0  0  0  0
 41 43  1  0  0  0  0
 41 76  1  0  0  0  0
 42 44  2  0  0  0  0
 42 77  1  0  0  0  0
 43 45  2  0  0  0  0
 43 80  1  0  0  0  0
 44 45  1  0  0  0  0
 44 81  1  0  0  0  0
M  CHG  2   9  -1  16   1
M  END
> <PUBCHEM_COMPOUND_CID>
4338

> <PUBCHEM_COMPOUND_CANONICALIZED>
1

> <PUBCHEM_CACTVS_COMPLEXITY>
1080

> <PUBCHEM_CACTVS_HBOND_ACCEPTOR>
10

> <PUBCHEM_CACTVS_HBOND_DONOR>
7

> <PUBCHEM_CACTVS_ROTATABLE_BOND>
14

> <PUBCHEM_CACTVS_SUBSKEYS>
AAADcfB7vAAAAAAAAAAAAAAAAAAAAAAAAAAwYAAAAAAAAAABQAAAHgAUCAAADSzBmAQyzoLQQgCJAiXSWwCCAAAhIgAoiIGObIoIZjrCkbOUcAhm1hHI2Ae/yKCOIACAAAAAAABAAQAAAAAAAAAAAAAAAA==

> <PUBCHEM_IUPAC_OPENEYE_NAME>
3-[2-[[2-[[2-acetamido-3-(4-hydroxyphenyl)propanoyl]amino]-3-methyl-butanoyl]amino]propanoylamino]-4-(4-nitroanilino)-4-oxo-butanoic acid

> <PUBCHEM_IUPAC_CAS_NAME>
3-[[2-[[2-[[2-acetamido-3-(4-hydroxyphenyl)-1-oxopropyl]amino]-3-methyl-1-oxobutyl]amino]-1-oxopropyl]amino]-4-(4-nitroanilino)-4-oxobutanoic acid

> <PUBCHEM_IUPAC_NAME>
3-[2-[[2-[[2-acetamido-3-(4-hydroxyphenyl)propanoyl]amino]-3-methylbutanoyl]amino]propanoylamino]-4-(4-nitroanilino)-4-oxobutanoic acid

> <PUBCHEM_IUPAC_SYSTEMATIC_NAME>
3-[2-[[2-[[2-acetamido-3-(4-hydroxyphenyl)propanoyl]amino]-3-methyl-butanoyl]amino]propanoylamino]-4-[(4-nitrophenyl)amino]-4-oxidanylidene-butanoic acid

> <PUBCHEM_IUPAC_TRADITIONAL_NAME>
3-[2-[[2-[[2-acetamido-3-(4-hydroxyphenyl)propanoyl]amino]-3-methyl-butanoyl]amino]propanoylamino]-4-keto-4-(4-nitroanilino)butyric acid

> <PUBCHEM_IUPAC_INCHI>
InChI=1S/C29H36N6O10/c1-15(2)25(34-28(42)22(31-17(4)36)13-18-5-11-21(37)12-6-18)29(43)30-16(3)26(40)33-23(14-24(38)39)27(41)32-19-7-9-20(10-8-19)35(44)45/h5-12,15-16,22-23,25,37H,13-14H2,1-4H3,(H,30,43)(H,31,36)(H,32,41)(H,33,40)(H,34,42)(H,38,39)

> <PUBCHEM_IUPAC_INCHIKEY>
YDPNOCSPPGFBPX-UHFFFAOYSA-N

> <PUBCHEM_XLOGP3_AA>
1.2

> <PUBCHEM_EXACT_MASS>
628.249291

> <PUBCHEM_MOLECULAR_FORMULA>
C29H36N6O10

> <PUBCHEM_MOLECULAR_WEIGHT>
628.63034

> <PUBCHEM_OPENEYE_CAN_SMILES>
CC(C)C(C(=O)NC(C)C(=O)NC(CC(=O)O)C(=O)NC1=CC=C(C=C1)[N+](=O)[O-])NC(=O)C(CC2=CC=C(C=C2)O)NC(=O)C

> <PUBCHEM_OPENEYE_ISO_SMILES>
CC(C)C(C(=O)NC(C)C(=O)NC(CC(=O)O)C(=O)NC1=CC=C(C=C1)[N+](=O)[O-])NC(=O)C(CC2=CC=C(C=C2)O)NC(=O)C

> <PUBCHEM_CACTVS_TPSA>
249

> <PUBCHEM_MONOISOTOPIC_WEIGHT>
628.249291

> <PUBCHEM_TOTAL_CHARGE>
0

> <PUBCHEM_HEAVY_ATOM_COUNT>
45

> <PUBCHEM_ATOM_DEF_STEREO_COUNT>
0

> <PUBCHEM_ATOM_UDEF_STEREO_COUNT>
4

> <PUBCHEM_BOND_DEF_STEREO_COUNT>
0

> <PUBCHEM_BOND_UDEF_STEREO_COUNT>
0

> <PUBCHEM_ISOTOPIC_ATOM_COUNT>
0

> <PUBCHEM_COMPONENT_COUNT>
1

> <PUBCHEM_CACTVS_TAUTO_COUNT>
96

> <PUBCHEM_COORDINATE_TYPE>
1
5
255

> <PUBCHEM_BONDANNOTATIONS>
17  18  3
20  25  3
24  28  3
26  31  8
26  32  8
29  30  3
31  35  8
32  36  8
35  37  8
36  37  8
40  41  8
40  42  8
41  43  8
42  44  8
43  45  8
44  45  8

$$$$

