13863
  -OEChem-06241222403D

 16 16  0     0  0  0  0  0  0999 V2000
    1.2049   -0.6995   -0.0004 N   0  0  0  0  0  0  0  0  0  0  0  0
   -1.2049   -0.6997   -0.0001 N   0  0  0  0  0  0  0  0  0  0  0  0
    2.3896    1.3657    0.0000 N   0  0  0  0  0  0  0  0  0  0  0  0
   -2.3898    1.3655   -0.0003 N   0  0  0  0  0  0  0  0  0  0  0  0
    0.0003   -2.7130    0.0003 N   0  0  0  0  0  0  0  0  0  0  0  0
    1.1679    0.6492   -0.0001 C   0  0  0  0  0  0  0  0  0  0  0  0
   -1.1680    0.6489    0.0002 C   0  0  0  0  0  0  0  0  0  0  0  0
    0.0000    1.3840    0.0004 C   0  0  0  0  0  0  0  0  0  0  0  0
    0.0001   -1.3010   -0.0002 C   0  0  0  0  0  0  0  0  0  0  0  0
   -0.0015    2.4681    0.0000 H   0  0  0  0  0  0  0  0  0  0  0  0
    3.2425    0.8200    0.0059 H   0  0  0  0  0  0  0  0  0  0  0  0
    2.4077    2.2882    0.4173 H   0  0  0  0  0  0  0  0  0  0  0  0
   -2.5381    1.9203    0.8383 H   0  0  0  0  0  0  0  0  0  0  0  0
   -2.5380    1.9192   -0.8396 H   0  0  0  0  0  0  0  0  0  0  0  0
   -0.8797   -3.2101    0.0013 H   0  0  0  0  0  0  0  0  0  0  0  0
    0.8803   -3.2098    0.0011 H   0  0  0  0  0  0  0  0  0  0  0  0
  1  6  2  0  0  0  0
  1  9  1  0  0  0  0
  2  7  1  0  0  0  0
  2  9  2  0  0  0  0
  3  6  1  0  0  0  0
  3 11  1  0  0  0  0
  3 12  1  0  0  0  0
  4  7  1  0  0  0  0
  4 13  1  0  0  0  0
  4 14  1  0  0  0  0
  5  9  1  0  0  0  0
  5 15  1  0  0  0  0
  5 16  1  0  0  0  0
  6  8  1  0  0  0  0
  7  8  2  0  0  0  0
  8 10  1  0  0  0  0
M  END
> <PUBCHEM_COMPOUND_CID>
13863

> <PUBCHEM_CONFORMER_RMSD>
0.4

> <PUBCHEM_CONFORMER_DIVERSEORDER>
1

> <PUBCHEM_MMFF94_PARTIAL_CHARGES>
16
1 -0.62
10 0.15
11 0.4
12 0.4
13 0.4
14 0.4
15 0.4
16 0.4
2 -0.62
3 -0.9
4 -0.9
5 -0.9
6 0.41
7 0.41
8 -0.15
9 0.72

> <PUBCHEM_EFFECTIVE_ROTOR_COUNT>
0

> <PUBCHEM_PHARMACOPHORE_FEATURES>
6
1 3 donor
1 4 cation
1 4 donor
1 5 donor
4 1 2 5 9 cation
6 1 2 6 7 8 9 rings

> <PUBCHEM_HEAVY_ATOM_COUNT>
9

> <PUBCHEM_ATOM_DEF_STEREO_COUNT>
0

> <PUBCHEM_ATOM_UDEF_STEREO_COUNT>
0

> <PUBCHEM_BOND_DEF_STEREO_COUNT>
0

> <PUBCHEM_BOND_UDEF_STEREO_COUNT>
0

> <PUBCHEM_ISOTOPIC_ATOM_COUNT>
0

> <PUBCHEM_COMPONENT_COUNT>
1

> <PUBCHEM_CACTVS_TAUTO_COUNT>
10

> <PUBCHEM_CONFORMER_ID>
0000362700000001

> <PUBCHEM_MMFF94_ENERGY>
46.0963

> <PUBCHEM_FEATURE_SELFOVERLAP>
30.446

> <PUBCHEM_SHAPE_FINGERPRINT>
18185500 45 17401203868421815151
21040471 1 18410855425911114560
23552423 10 16613901930238895839
23552449 1 17761214310730872644
241688 4 16897647389786007328
2748010 2 18411695491312031341
29004967 10 17836360828110308913

> <PUBCHEM_SHAPE_MULTIPOLES>
160.31
2.31
2.31
0.57
0.3
1.53
0
-1.46
0
-0.3
0
0
-0.02
0

> <PUBCHEM_SHAPE_SELFOVERLAP>
331.629

> <PUBCHEM_SHAPE_VOLUME>
85.5

> <PUBCHEM_COORDINATE_TYPE>
2
5
10

$$$$

