582781
  -OEChem-06241222443D

 40 43  0     1  0  0  0  0  0999 V2000
   -2.0303   -0.6290    0.9330 P   0  0  1  0  0  0  0  0  0  0  0  0
    2.0303   -0.6289   -0.9330 P   0  0  1  0  0  0  0  0  0  0  0  0
   -2.0766    0.9720    1.2430 O   0  0  0  0  0  0  0  0  0  0  0  0
    2.0764    0.9720   -1.2429 O   0  0  0  0  0  0  0  0  0  0  0  0
   -3.3592   -0.6265   -0.1463 N   0  0  2  0  0  0  0  0  0  0  0  0
    3.3593   -0.6265    0.1463 N   0  0  2  0  0  0  0  0  0  0  0  0
   -3.7901    0.7661   -0.3655 C   0  0  1  0  0  0  0  0  0  0  0  0
    3.7902    0.7661    0.3655 C   0  0  1  0  0  0  0  0  0  0  0  0
   -5.2977    0.7357   -0.5884 C   0  0  0  0  0  0  0  0  0  0  0  0
    5.2978    0.7356    0.5883 C   0  0  0  0  0  0  0  0  0  0  0  0
   -4.5560   -1.3690    0.2582 C   0  0  0  0  0  0  0  0  0  0  0  0
    4.5560   -1.3689   -0.2583 C   0  0  0  0  0  0  0  0  0  0  0  0
   -5.6410   -0.7458   -0.6027 C   0  0  0  0  0  0  0  0  0  0  0  0
    5.6411   -0.7458    0.6025 C   0  0  0  0  0  0  0  0  0  0  0  0
   -3.3516    1.5152    0.8848 C   0  0  0  0  0  0  0  0  0  0  0  0
    3.3515    1.5153   -0.8848 C   0  0  0  0  0  0  0  0  0  0  0  0
   -0.6893   -0.6188   -0.3255 C   0  0  0  0  0  0  0  0  0  0  0  0
    0.6893   -0.6187    0.3256 C   0  0  0  0  0  0  0  0  0  0  0  0
   -3.2735    1.1672   -1.2468 H   0  0  0  0  0  0  0  0  0  0  0  0
    3.2735    1.1672    1.2469 H   0  0  0  0  0  0  0  0  0  0  0  0
   -5.5821    1.2088   -1.5338 H   0  0  0  0  0  0  0  0  0  0  0  0
   -5.8393    1.2421    0.2186 H   0  0  0  0  0  0  0  0  0  0  0  0
    5.5822    1.2087    1.5337 H   0  0  0  0  0  0  0  0  0  0  0  0
    5.8392    1.2421   -0.2188 H   0  0  0  0  0  0  0  0  0  0  0  0
   -4.8025   -1.2250    1.3189 H   0  0  0  0  0  0  0  0  0  0  0  0
   -4.4577   -2.4424    0.0649 H   0  0  0  0  0  0  0  0  0  0  0  0
    4.8024   -1.2248   -1.3190 H   0  0  0  0  0  0  0  0  0  0  0  0
    4.4578   -2.4422   -0.0651 H   0  0  0  0  0  0  0  0  0  0  0  0
   -6.6460   -0.9410   -0.2174 H   0  0  0  0  0  0  0  0  0  0  0  0
   -5.5863   -1.1339   -1.6274 H   0  0  0  0  0  0  0  0  0  0  0  0
    6.6460   -0.9410    0.2170 H   0  0  0  0  0  0  0  0  0  0  0  0
    5.5865   -1.1340    1.6272 H   0  0  0  0  0  0  0  0  0  0  0  0
   -3.2387    2.5864    0.6884 H   0  0  0  0  0  0  0  0  0  0  0  0
   -4.0400    1.3903    1.7308 H   0  0  0  0  0  0  0  0  0  0  0  0
    3.2387    2.5864   -0.6884 H   0  0  0  0  0  0  0  0  0  0  0  0
    4.0398    1.3903   -1.7308 H   0  0  0  0  0  0  0  0  0  0  0  0
   -0.7980   -1.5133   -0.9519 H   0  0  0  0  0  0  0  0  0  0  0  0
   -0.7998    0.2472   -0.9901 H   0  0  0  0  0  0  0  0  0  0  0  0
    0.7999    0.2472    0.9903 H   0  0  0  0  0  0  0  0  0  0  0  0
    0.7981   -1.5133    0.9521 H   0  0  0  0  0  0  0  0  0  0  0  0
  1  3  1  0  0  0  0
  1  5  1  0  0  0  0
  1 17  1  0  0  0  0
  2  4  1  0  0  0  0
  2  6  1  0  0  0  0
  2 18  1  0  0  0  0
  3 15  1  0  0  0  0
  4 16  1  0  0  0  0
  5  7  1  0  0  0  0
  5 11  1  0  0  0  0
  6  8  1  0  0  0  0
  6 12  1  0  0  0  0
  7  9  1  0  0  0  0
  7 15  1  0  0  0  0
  7 19  1  0  0  0  0
  8 10  1  0  0  0  0
  8 16  1  0  0  0  0
  8 20  1  0  0  0  0
  9 13  1  0  0  0  0
  9 21  1  0  0  0  0
  9 22  1  0  0  0  0
 10 14  1  0  0  0  0
 10 23  1  0  0  0  0
 10 24  1  0  0  0  0
 11 13  1  0  0  0  0
 11 25  1  0  0  0  0
 11 26  1  0  0  0  0
 12 14  1  0  0  0  0
 12 27  1  0  0  0  0
 12 28  1  0  0  0  0
 13 29  1  0  0  0  0
 13 30  1  0  0  0  0
 14 31  1  0  0  0  0
 14 32  1  0  0  0  0
 15 33  1  0  0  0  0
 15 34  1  0  0  0  0
 16 35  1  0  0  0  0
 16 36  1  0  0  0  0
 17 18  1  0  0  0  0
 17 37  1  0  0  0  0
 17 38  1  0  0  0  0
 18 39  1  0  0  0  0
 18 40  1  0  0  0  0
M  END
> <PUBCHEM_COMPOUND_CID>
582781

> <PUBCHEM_CONFORMER_RMSD>
0.8

> <PUBCHEM_CONFORMER_DIVERSEORDER>
1
42
14
15
29
5
35
37
2
31
16
3
41
43
6
36
30
18
4
39
22
19
27
28
12
40
20
32
21
17
9
10
34
11
33
24
25
7
23
8
26
13
38

> <PUBCHEM_MMFF94_PARTIAL_CHARGES>
14
1 0.05
11 0.27
12 0.27
15 0.28
16 0.28
17 0.17
18 0.17
2 0.05
3 -0.38
4 -0.38
5 -0.65
6 -0.65
7 0.27
8 0.27

> <PUBCHEM_EFFECTIVE_ROTOR_COUNT>
5.4

> <PUBCHEM_PHARMACOPHORE_FEATURES>
4
5 1 3 5 7 15 rings
5 2 4 6 8 16 rings
5 5 7 9 11 13 rings
5 6 8 10 12 14 rings

> <PUBCHEM_HEAVY_ATOM_COUNT>
18

> <PUBCHEM_ATOM_DEF_STEREO_COUNT>
0

> <PUBCHEM_ATOM_UDEF_STEREO_COUNT>
4

> <PUBCHEM_BOND_DEF_STEREO_COUNT>
0

> <PUBCHEM_BOND_UDEF_STEREO_COUNT>
0

> <PUBCHEM_ISOTOPIC_ATOM_COUNT>
0

> <PUBCHEM_COMPONENT_COUNT>
1

> <PUBCHEM_CACTVS_TAUTO_COUNT>
1

> <PUBCHEM_CONFORMER_ID>
0008E47D00000001

> <PUBCHEM_MMFF94_ENERGY>
26.2905

> <PUBCHEM_FEATURE_SELFOVERLAP>
20.83

> <PUBCHEM_SHAPE_FINGERPRINT>
10366900 7 15913330199403713909
11089746 13 17418098710664776984
11128504 68 4895549710362335634
11315181 36 18412260631698812672
11545043 162 15482377690844729761
12107183 9 17688589785262824650
12166972 35 18341892974264471156
12236239 1 18410578387498412171
12507557 5 18342175553210969373
12596602 18 18342462517329750242
12616971 3 18201708549311721965
12670546 56 18411703214027207066
12730499 353 6771867407174591540
128620 24 15430032175449537616
12916748 109 17748823016570347158
13167823 11 18410576188470219651
13533116 47 18260268577124997522
13911852 28 17984427614323498370
13914758 101 17632026333627913165
14123238 8 15719111353082047882
1420 363 16732980920664280870
14251731 8 12463571785437004115
14251764 18 18341618110143924482
14251764 38 18410569591416608561
14617045 38 8430317960968482173
14848160 23 18408608058419198339
15242433 33 9943808884865958264
15537594 2 8574712394748340629
15788980 27 18131628984822901849
17349148 13 18410569591399920322
17834072 33 18410576167090016966
17834072 8 15770058332493450028
192875 21 18341607109709819149
19489759 90 18343867723233726131
200 152 18334296465960931095
20197701 30 18410298007738959646
20300324 65 18186239541784840921
20645477 70 18188206602426143326
21150785 3 18187917366722525820
21618674 57 15698001842209642477
2215653 11 14333416644263792011
23402539 116 18334863801002264807
23557571 272 16443057322486328936
23559900 14 18411142407083138043
2838139 119 17417827175123566293
351380 180 18343865515214522909
3545911 37 18410291410721459806
4214541 1 18342457041056679655
4325135 7 15791734091822803885
5104073 3 18201148871627586609
542803 24 18409728465004691182
6328613 192 17774709884745256692
7495541 125 17240489061206940426
90127 26 16128653046265703308
9971528 1 18202561800499594884

> <PUBCHEM_SHAPE_MULTIPOLES>
356.43
14.84
1.49
1.06
0
0.19
0
-0.68
0
0
0
0
0.18
-0.32

> <PUBCHEM_SHAPE_SELFOVERLAP>
712.843

> <PUBCHEM_SHAPE_VOLUME>
213.2

> <PUBCHEM_COORDINATE_TYPE>
2
5
10

$$$$

