4071
  -OEChem-06251223513D

 14 15  0     0  0  0  0  0  0999 V2000
    2.2468   -1.9933    0.0000 S   0  0  0  0  0  0  0  0  0  0  0  0
   -1.0362   -1.5094    0.0000 N   0  0  0  0  0  0  0  0  0  0  0  0
   -2.1612    0.4149    0.0000 N   0  0  0  0  0  0  0  0  0  0  0  0
   -0.2197    1.8780   -0.0001 N   0  0  0  0  0  0  0  0  0  0  0  0
    1.9113    0.6902    0.0000 N   0  0  0  0  0  0  0  0  0  0  0  0
   -0.0884   -0.5259    0.0001 C   0  0  0  0  0  0  0  0  0  0  0  0
   -0.8116    0.6593    0.0001 C   0  0  0  0  0  0  0  0  0  0  0  0
    1.2925   -0.5119    0.0000 C   0  0  0  0  0  0  0  0  0  0  0  0
   -2.2617   -0.8972    0.0000 C   0  0  0  0  0  0  0  0  0  0  0  0
    1.1282    1.7953    0.0000 C   0  0  0  0  0  0  0  0  0  0  0  0
   -0.8721   -2.5072   -0.0002 H   0  0  0  0  0  0  0  0  0  0  0  0
   -3.1822   -1.4634   -0.0001 H   0  0  0  0  0  0  0  0  0  0  0  0
    1.6569    2.7425   -0.0001 H   0  0  0  0  0  0  0  0  0  0  0  0
    1.2367   -2.8741    0.0000 H   0  0  0  0  0  0  0  0  0  0  0  0
  1  8  1  0  0  0  0
  1 14  1  0  0  0  0
  2  6  1  0  0  0  0
  2  9  1  0  0  0  0
  2 11  1  0  0  0  0
  3  7  1  0  0  0  0
  3  9  2  0  0  0  0
  4  7  1  0  0  0  0
  4 10  2  0  0  0  0
  5  8  2  0  0  0  0
  5 10  1  0  0  0  0
  6  7  2  0  0  0  0
  6  8  1  0  0  0  0
  9 12  1  0  0  0  0
 10 13  1  0  0  0  0
M  END
> <PUBCHEM_COMPOUND_CID>
4071

> <PUBCHEM_CONFORMER_RMSD>
0.4

> <PUBCHEM_CONFORMER_DIVERSEORDER>
1

> <PUBCHEM_MMFF94_PARTIAL_CHARGES>
14
1 -0.28
10 0.47
11 0.27
12 0.15
13 0.15
14 0.18
2 0.03
3 -0.57
4 -0.57
5 -0.62
6 -0.15
7 0.48
8 0.41
9 0.04

> <PUBCHEM_EFFECTIVE_ROTOR_COUNT>
0

> <PUBCHEM_PHARMACOPHORE_FEATURES>
6
1 2 donor
1 5 acceptor
3 2 3 9 cation
3 4 5 10 cation
5 2 3 6 7 9 rings
6 4 5 6 7 8 10 rings

> <PUBCHEM_HEAVY_ATOM_COUNT>
10

> <PUBCHEM_ATOM_DEF_STEREO_COUNT>
0

> <PUBCHEM_ATOM_UDEF_STEREO_COUNT>
0

> <PUBCHEM_BOND_DEF_STEREO_COUNT>
0

> <PUBCHEM_BOND_UDEF_STEREO_COUNT>
0

> <PUBCHEM_ISOTOPIC_ATOM_COUNT>
0

> <PUBCHEM_COMPONENT_COUNT>
1

> <PUBCHEM_CACTVS_TAUTO_COUNT>
8

> <PUBCHEM_CONFORMER_ID>
00000FE700000001

> <PUBCHEM_MMFF94_ENERGY>
14.986

> <PUBCHEM_FEATURE_SELFOVERLAP>
30.578

> <PUBCHEM_SHAPE_FINGERPRINT>
12423570 1 15459046466261629073
12524768 44 18408604789933359318
16945 1 18338516309630561317
18185500 45 18337391534915440502
193761 8 18338797922152045284
20871998 184 17900268803388064038
21040471 1 17402049994127620640
23552423 10 18342733001163494070
241688 4 18267584800198900856
2748010 2 18339083794958586615
29004967 10 18341328877490906761
369184 2 14997716375461733118
5084963 1 18042975461012286491

> <PUBCHEM_SHAPE_MULTIPOLES>
189.72
2.98
2.15
0.59
0.3
0.47
0
-1.42
0
0.56
0
0.04
-0.03
0

> <PUBCHEM_SHAPE_SELFOVERLAP>
407.102

> <PUBCHEM_SHAPE_VOLUME>
107.3

> <PUBCHEM_COORDINATE_TYPE>
2
5
10

$$$$

