12368
  -OEChem-06261206523D

 20 19  0     0  0  0  0  0  0999 V2000
   -4.7913   -0.3698    0.1177 Br  0  0  0  0  0  0  0  0  0  0  0  0
    4.7905    0.3717    0.1245 Br  0  0  0  0  0  0  0  0  0  0  0  0
   -0.5939    0.4825   -0.0605 C   0  0  0  0  0  0  0  0  0  0  0  0
    0.5942   -0.4833   -0.0863 C   0  0  0  0  0  0  0  0  0  0  0  0
   -1.9249   -0.2765   -0.0363 C   0  0  0  0  0  0  0  0  0  0  0  0
    1.9256    0.2754   -0.0642 C   0  0  0  0  0  0  0  0  0  0  0  0
   -3.1345    0.6446   -0.0034 C   0  0  0  0  0  0  0  0  0  0  0  0
    3.1343   -0.6446    0.0084 C   0  0  0  0  0  0  0  0  0  0  0  0
   -0.5590    1.1348   -0.9414 H   0  0  0  0  0  0  0  0  0  0  0  0
   -0.5276    1.1274    0.8241 H   0  0  0  0  0  0  0  0  0  0  0  0
    0.5449   -1.1123   -0.9831 H   0  0  0  0  0  0  0  0  0  0  0  0
    0.5419   -1.1511    0.7822 H   0  0  0  0  0  0  0  0  0  0  0  0
   -1.9440   -0.9367    0.8404 H   0  0  0  0  0  0  0  0  0  0  0  0
   -1.9866   -0.9297   -0.9161 H   0  0  0  0  0  0  0  0  0  0  0  0
    1.9969    0.9091   -0.9574 H   0  0  0  0  0  0  0  0  0  0  0  0
    1.9358    0.9549    0.7978 H   0  0  0  0  0  0  0  0  0  0  0  0
   -3.1149    1.3040    0.8690 H   0  0  0  0  0  0  0  0  0  0  0  0
   -3.2048    1.2505   -0.9110 H   0  0  0  0  0  0  0  0  0  0  0  0
    3.1034   -1.2811    0.8972 H   0  0  0  0  0  0  0  0  0  0  0  0
    3.2157   -1.2738   -0.8822 H   0  0  0  0  0  0  0  0  0  0  0  0
  1  7  1  0  0  0  0
  2  8  1  0  0  0  0
  3  4  1  0  0  0  0
  3  5  1  0  0  0  0
  3  9  1  0  0  0  0
  3 10  1  0  0  0  0
  4  6  1  0  0  0  0
  4 11  1  0  0  0  0
  4 12  1  0  0  0  0
  5  7  1  0  0  0  0
  5 13  1  0  0  0  0
  5 14  1  0  0  0  0
  6  8  1  0  0  0  0
  6 15  1  0  0  0  0
  6 16  1  0  0  0  0
  7 17  1  0  0  0  0
  7 18  1  0  0  0  0
  8 19  1  0  0  0  0
  8 20  1  0  0  0  0
M  END
> <PUBCHEM_COMPOUND_CID>
12368

> <PUBCHEM_CONFORMER_RMSD>
0.6

> <PUBCHEM_CONFORMER_DIVERSEORDER>
1
32
38
47
17
14
44
30
33
28
3
24
4
11
19
13
22
18
45
15
6
25
46
27
16
21
35
7
8
2
34
39
37
12
26
23
10
41
20
43
42
31
40
9
29
36
5

> <PUBCHEM_MMFF94_PARTIAL_CHARGES>
4
1 -0.23
2 -0.23
7 0.23
8 0.23

> <PUBCHEM_EFFECTIVE_ROTOR_COUNT>
5

> <PUBCHEM_PHARMACOPHORE_FEATURES>
3
1 1 hydrophobe
1 2 hydrophobe
4 3 4 5 6 hydrophobe

> <PUBCHEM_HEAVY_ATOM_COUNT>
8

> <PUBCHEM_ATOM_DEF_STEREO_COUNT>
0

> <PUBCHEM_ATOM_UDEF_STEREO_COUNT>
0

> <PUBCHEM_BOND_DEF_STEREO_COUNT>
0

> <PUBCHEM_BOND_UDEF_STEREO_COUNT>
0

> <PUBCHEM_ISOTOPIC_ATOM_COUNT>
0

> <PUBCHEM_COMPONENT_COUNT>
1

> <PUBCHEM_CACTVS_TAUTO_COUNT>
1

> <PUBCHEM_CONFORMER_ID>
0000305000000001

> <PUBCHEM_MMFF94_ENERGY>
0.3914

> <PUBCHEM_FEATURE_SELFOVERLAP>
15.223

> <PUBCHEM_SHAPE_FINGERPRINT>
11062470 55 18334576849810181216
14123238 8 18410856555350097045
14325111 11 18410293644178079406
17834072 33 18339642239544159492
17834076 25 14851604379664114703
18342897 14 17530963587867075769
20645477 70 18261108642821599494
20719005 15 18410856559655620322
20767249 13 15841835542434136592
22485316 2 18060140950798792739
23402539 116 14548743885083124055
42788 4 18410292514485584009
449060 50 18187083944876152420

> <PUBCHEM_SHAPE_MULTIPOLES>
176.52
10.79
0.86
0.66
0.01
0
-0.01
0.01
-0.71
0
0
0
0
0.05

> <PUBCHEM_SHAPE_SELFOVERLAP>
282.518

> <PUBCHEM_SHAPE_VOLUME>
125.2

> <PUBCHEM_COORDINATE_TYPE>
2
5
10

$$$$

