3859
  -OEChem-06251223432D

 35 34  0     1  0  0  0  0  0999 V2000
    5.4641   -0.5670    0.0000 S   0  0  3  0  0  0  0  0  0  0  0  0
    5.9641   -1.4330    0.0000 O   0  0  0  0  0  0  0  0  0  0  0  0
    9.7942   -0.0670    0.0000 O   0  0  0  0  0  0  0  0  0  0  0  0
    8.9282    1.4330    0.0000 O   0  0  0  0  0  0  0  0  0  0  0  0
    7.5622    0.7990    0.0000 N   0  0  0  0  0  0  0  0  0  0  0  0
    4.9641    0.2990    0.0000 N   0  0  0  0  0  0  0  0  0  0  0  0
    6.3301   -0.0670    0.0000 C   0  0  0  0  0  0  0  0  0  0  0  0
    7.1962   -0.5670    0.0000 C   0  0  0  0  0  0  0  0  0  0  0  0
    8.0622   -0.0670    0.0000 C   0  0  3  0  0  0  0  0  0  0  0  0
    4.5981   -1.0670    0.0000 C   0  0  0  0  0  0  0  0  0  0  0  0
    3.7320   -0.5670    0.0000 C   0  0  0  0  0  0  0  0  0  0  0  0
    8.5622   -0.9330    0.0000 C   0  0  0  0  0  0  0  0  0  0  0  0
    2.8660   -1.0670    0.0000 C   0  0  0  0  0  0  0  0  0  0  0  0
    8.9282    0.4330    0.0000 C   0  0  0  0  0  0  0  0  0  0  0  0
    2.0000   -0.5670    0.0000 C   0  0  0  0  0  0  0  0  0  0  0  0
    6.7287    0.4080    0.0000 H   0  0  0  0  0  0  0  0  0  0  0  0
    5.9316    0.4080    0.0000 H   0  0  0  0  0  0  0  0  0  0  0  0
    6.7976   -1.0419    0.0000 H   0  0  0  0  0  0  0  0  0  0  0  0
    7.5947   -1.0419    0.0000 H   0  0  0  0  0  0  0  0  0  0  0  0
    4.1996   -1.5419    0.0000 H   0  0  0  0  0  0  0  0  0  0  0  0
    4.9966   -1.5419    0.0000 H   0  0  0  0  0  0  0  0  0  0  0  0
    4.1306   -0.0920    0.0000 H   0  0  0  0  0  0  0  0  0  0  0  0
    3.3335   -0.0920    0.0000 H   0  0  0  0  0  0  0  0  0  0  0  0
    8.0252   -1.2430    0.0000 H   0  0  0  0  0  0  0  0  0  0  0  0
    8.8722   -1.4700    0.0000 H   0  0  0  0  0  0  0  0  0  0  0  0
    9.0991   -0.6230    0.0000 H   0  0  0  0  0  0  0  0  0  0  0  0
    2.4675   -1.5419    0.0000 H   0  0  0  0  0  0  0  0  0  0  0  0
    3.2646   -1.5419    0.0000 H   0  0  0  0  0  0  0  0  0  0  0  0
    6.9422    0.7990    0.0000 H   0  0  0  0  0  0  0  0  0  0  0  0
    7.8722    1.3360    0.0000 H   0  0  0  0  0  0  0  0  0  0  0  0
    5.2741    0.8360    0.0000 H   0  0  0  0  0  0  0  0  0  0  0  0
    2.3100   -0.0301    0.0000 H   0  0  0  0  0  0  0  0  0  0  0  0
    1.4631   -0.2570    0.0000 H   0  0  0  0  0  0  0  0  0  0  0  0
    1.6900   -1.1039    0.0000 H   0  0  0  0  0  0  0  0  0  0  0  0
   10.3312    0.2430    0.0000 H   0  0  0  0  0  0  0  0  0  0  0  0
  1  2  2  0  0  0  0
  1  6  2  0  0  0  0
  1  7  1  0  0  0  0
  1 10  1  0  0  0  0
  3 14  1  0  0  0  0
  3 35  1  0  0  0  0
  4 14  2  0  0  0  0
  5  9  1  0  0  0  0
  5 29  1  0  0  0  0
  5 30  1  0  0  0  0
  6 31  1  0  0  0  0
  7  8  1  0  0  0  0
  7 16  1  0  0  0  0
  7 17  1  0  0  0  0
  8  9  1  0  0  0  0
  8 18  1  0  0  0  0
  8 19  1  0  0  0  0
  9 12  1  0  0  0  0
  9 14  1  0  0  0  0
 10 11  1  0  0  0  0
 10 20  1  0  0  0  0
 10 21  1  0  0  0  0
 11 13  1  0  0  0  0
 11 22  1  0  0  0  0
 11 23  1  0  0  0  0
 12 24  1  0  0  0  0
 12 25  1  0  0  0  0
 12 26  1  0  0  0  0
 13 15  1  0  0  0  0
 13 27  1  0  0  0  0
 13 28  1  0  0  0  0
 15 32  1  0  0  0  0
 15 33  1  0  0  0  0
 15 34  1  0  0  0  0
M  END
> <PUBCHEM_COMPOUND_CID>
3859

> <PUBCHEM_COMPOUND_CANONICALIZED>
1

> <PUBCHEM_CACTVS_COMPLEXITY>
323

> <PUBCHEM_CACTVS_HBOND_ACCEPTOR>
5

> <PUBCHEM_CACTVS_HBOND_DONOR>
3

> <PUBCHEM_CACTVS_ROTATABLE_BOND>
7

> <PUBCHEM_CACTVS_SUBSKEYS>
AAADceBzMABAAAAAAAAAAAAAAAAAAAAAAAAAAAAAAAAAAAAAAAAAHgQQSAAADIiFwACCCABAAgoIAACQCEBAAAAAABAAAAGAAAACABAgAAAAQAAEEAAgAAAAAAAIAAAAAAAAAAAAAAAAAAAAAAAAAAAAAA==

> <PUBCHEM_IUPAC_OPENEYE_NAME>
2-amino-4-(butylsulfonimidoyl)-2-methyl-butanoic acid

> <PUBCHEM_IUPAC_CAS_NAME>
2-amino-4-(butylsulfonimidoyl)-2-methylbutanoic acid

> <PUBCHEM_IUPAC_NAME>
2-amino-4-(butylsulfonimidoyl)-2-methylbutanoic acid

> <PUBCHEM_IUPAC_SYSTEMATIC_NAME>
2-azanyl-4-(butylsulfonimidoyl)-2-methyl-butanoic acid

> <PUBCHEM_IUPAC_TRADITIONAL_NAME>
2-amino-4-(butylsulfonimidoyl)-2-methyl-butyric acid

> <PUBCHEM_IUPAC_INCHI>
InChI=1S/C9H20N2O3S/c1-3-4-6-15(11,14)7-5-9(2,10)8(12)13/h11H,3-7,10H2,1-2H3,(H,12,13)

> <PUBCHEM_IUPAC_INCHIKEY>
ZLJCNJWPKQEKDD-UHFFFAOYSA-N

> <PUBCHEM_XLOGP3_AA>
-0.9

> <PUBCHEM_EXACT_MASS>
236.119464

> <PUBCHEM_MOLECULAR_FORMULA>
C9H20N2O3S

> <PUBCHEM_MOLECULAR_WEIGHT>
236.3317

> <PUBCHEM_OPENEYE_CAN_SMILES>
CCCCS(=N)(=O)CCC(C)(C(=O)O)N

> <PUBCHEM_OPENEYE_ISO_SMILES>
CCCCS(=N)(=O)CCC(C)(C(=O)O)N

> <PUBCHEM_CACTVS_TPSA>
113

> <PUBCHEM_MONOISOTOPIC_WEIGHT>
236.119464

> <PUBCHEM_TOTAL_CHARGE>
0

> <PUBCHEM_HEAVY_ATOM_COUNT>
15

> <PUBCHEM_ATOM_DEF_STEREO_COUNT>
0

> <PUBCHEM_ATOM_UDEF_STEREO_COUNT>
2

> <PUBCHEM_BOND_DEF_STEREO_COUNT>
0

> <PUBCHEM_BOND_UDEF_STEREO_COUNT>
0

> <PUBCHEM_ISOTOPIC_ATOM_COUNT>
0

> <PUBCHEM_COMPONENT_COUNT>
1

> <PUBCHEM_CACTVS_TAUTO_COUNT>
1

> <PUBCHEM_COORDINATE_TYPE>
1
5
255

> <PUBCHEM_BONDANNOTATIONS>
1  7  3
9  5  3

$$$$

