10992
  -OEChem-06261205123D

 20 19  0     0  0  0  0  0  0999 V2000
    3.1452   -1.1134    0.2487 Cl  0  0  0  0  0  0  0  0  0  0  0  0
    0.1627   -0.0608   -0.2736 C   0  0  0  0  0  0  0  0  0  0  0  0
   -1.2171    0.4055    0.1970 C   0  0  0  0  0  0  0  0  0  0  0  0
    1.2639    0.8836    0.2181 C   0  0  0  0  0  0  0  0  0  0  0  0
   -2.3156   -0.5502   -0.2685 C   0  0  0  0  0  0  0  0  0  0  0  0
    2.6519    0.5079   -0.2908 C   0  0  0  0  0  0  0  0  0  0  0  0
   -3.6910   -0.0726    0.1691 C   0  0  0  0  0  0  0  0  0  0  0  0
    0.1804   -0.1062   -1.3693 H   0  0  0  0  0  0  0  0  0  0  0  0
    0.3366   -1.0773    0.0964 H   0  0  0  0  0  0  0  0  0  0  0  0
   -1.2298    0.4729    1.2917 H   0  0  0  0  0  0  0  0  0  0  0  0
   -1.4157    1.4119   -0.1912 H   0  0  0  0  0  0  0  0  0  0  0  0
    1.2679    0.9026    1.3150 H   0  0  0  0  0  0  0  0  0  0  0  0
    1.0396    1.9047   -0.1138 H   0  0  0  0  0  0  0  0  0  0  0  0
   -2.1352   -1.5518    0.1387 H   0  0  0  0  0  0  0  0  0  0  0  0
   -2.2966   -0.6357   -1.3612 H   0  0  0  0  0  0  0  0  0  0  0  0
    2.6822    0.5180   -1.3846 H   0  0  0  0  0  0  0  0  0  0  0  0
    3.3965    1.2192    0.0789 H   0  0  0  0  0  0  0  0  0  0  0  0
   -3.7541   -0.0049    1.2598 H   0  0  0  0  0  0  0  0  0  0  0  0
   -4.4612   -0.7708   -0.1732 H   0  0  0  0  0  0  0  0  0  0  0  0
   -3.9159    0.9133   -0.2502 H   0  0  0  0  0  0  0  0  0  0  0  0
  1  6  1  0  0  0  0
  2  3  1  0  0  0  0
  2  4  1  0  0  0  0
  2  8  1  0  0  0  0
  2  9  1  0  0  0  0
  3  5  1  0  0  0  0
  3 10  1  0  0  0  0
  3 11  1  0  0  0  0
  4  6  1  0  0  0  0
  4 12  1  0  0  0  0
  4 13  1  0  0  0  0
  5  7  1  0  0  0  0
  5 14  1  0  0  0  0
  5 15  1  0  0  0  0
  6 16  1  0  0  0  0
  6 17  1  0  0  0  0
  7 18  1  0  0  0  0
  7 19  1  0  0  0  0
  7 20  1  0  0  0  0
M  END
> <PUBCHEM_COMPOUND_CID>
10992

> <PUBCHEM_CONFORMER_RMSD>
0.6

> <PUBCHEM_CONFORMER_DIVERSEORDER>
1
14
27
29
23
34
2
30
4
31
16
18
28
26
12
22
19
33
24
3
32
21
7
20
5
15
8
25
13
6
17
11
10
9

> <PUBCHEM_MMFF94_PARTIAL_CHARGES>
2
1 -0.29
6 0.29

> <PUBCHEM_EFFECTIVE_ROTOR_COUNT>
4

> <PUBCHEM_PHARMACOPHORE_FEATURES>
2
1 7 hydrophobe
4 2 3 4 5 hydrophobe

> <PUBCHEM_HEAVY_ATOM_COUNT>
7

> <PUBCHEM_ATOM_DEF_STEREO_COUNT>
0

> <PUBCHEM_ATOM_UDEF_STEREO_COUNT>
0

> <PUBCHEM_BOND_DEF_STEREO_COUNT>
0

> <PUBCHEM_BOND_UDEF_STEREO_COUNT>
0

> <PUBCHEM_ISOTOPIC_ATOM_COUNT>
0

> <PUBCHEM_COMPONENT_COUNT>
1

> <PUBCHEM_CACTVS_TAUTO_COUNT>
1

> <PUBCHEM_CONFORMER_ID>
00002AF000000001

> <PUBCHEM_MMFF94_ENERGY>
-2.8252

> <PUBCHEM_FEATURE_SELFOVERLAP>
10.149

> <PUBCHEM_SHAPE_FINGERPRINT>
11062470 55 6122505700732990307
12932741 1 16128362745147049120
12932764 1 18259989236382626957
14325111 11 18410855430269112575
14390081 3 9799690402539753806
177051 138 18186802486836912726
20651381 32 18342745125729420749
21293036 1 14476954593019411478
5460574 1 9943534002600814909

> <PUBCHEM_SHAPE_MULTIPOLES>
145.93
6.25
1.03
0.68
1.99
0.1
0
1.42
0.28
-0.69
0.05
-0.04
0.01
-0.2

> <PUBCHEM_SHAPE_SELFOVERLAP>
242.12

> <PUBCHEM_SHAPE_VOLUME>
99.9

> <PUBCHEM_COORDINATE_TYPE>
2
5
10

$$$$

