14069
  -OEChem-06241222413D

 29 28  0     0  0  0  0  0  0999 V2000
   -0.0200    0.0020   -0.1844 C   0  0  0  0  0  0  0  0  0  0  0  0
   -1.2920   -0.0317   -1.0375 C   0  0  0  0  0  0  0  0  0  0  0  0
    1.2720    0.0115   -1.0123 C   0  0  0  0  0  0  0  0  0  0  0  0
   -2.5889    0.0306   -0.2073 C   0  0  0  0  0  0  0  0  0  0  0  0
    2.5894   -0.0239   -0.2145 C   0  0  0  0  0  0  0  0  0  0  0  0
   -2.6568    1.2721    0.6836 C   0  0  0  0  0  0  0  0  0  0  0  0
   -2.7120   -1.2281    0.6556 C   0  0  0  0  0  0  0  0  0  0  0  0
    2.6148   -1.2644    0.6835 C   0  0  0  0  0  0  0  0  0  0  0  0
    2.7936    1.2318    0.6334 C   0  0  0  0  0  0  0  0  0  0  0  0
   -0.0166   -0.8705    0.4741 H   0  0  0  0  0  0  0  0  0  0  0  0
   -0.0226    0.8919    0.4517 H   0  0  0  0  0  0  0  0  0  0  0  0
   -1.2945   -0.9370   -1.6572 H   0  0  0  0  0  0  0  0  0  0  0  0
   -1.2782    0.8196   -1.7300 H   0  0  0  0  0  0  0  0  0  0  0  0
    1.2739    0.9010   -1.6555 H   0  0  0  0  0  0  0  0  0  0  0  0
    1.2559   -0.8520   -1.6904 H   0  0  0  0  0  0  0  0  0  0  0  0
   -3.4336    0.0565   -0.9069 H   0  0  0  0  0  0  0  0  0  0  0  0
    3.4164   -0.0943   -0.9320 H   0  0  0  0  0  0  0  0  0  0  0  0
   -1.9376    1.2361    1.5077 H   0  0  0  0  0  0  0  0  0  0  0  0
   -3.6536    1.3615    1.1296 H   0  0  0  0  0  0  0  0  0  0  0  0
   -2.4716    2.1805    0.1011 H   0  0  0  0  0  0  0  0  0  0  0  0
   -1.9697   -1.2593    1.4592 H   0  0  0  0  0  0  0  0  0  0  0  0
   -3.7003   -1.2647    1.1277 H   0  0  0  0  0  0  0  0  0  0  0  0
   -2.6037   -2.1336    0.0494 H   0  0  0  0  0  0  0  0  0  0  0  0
    1.9101   -1.1904    1.5178 H   0  0  0  0  0  0  0  0  0  0  0  0
    3.6130   -1.3923    1.1173 H   0  0  0  0  0  0  0  0  0  0  0  0
    2.3859   -2.1705    0.1128 H   0  0  0  0  0  0  0  0  0  0  0  0
    2.7438    2.1314    0.0112 H   0  0  0  0  0  0  0  0  0  0  0  0
    2.0409    1.3212    1.4230 H   0  0  0  0  0  0  0  0  0  0  0  0
    3.7774    1.2127    1.1146 H   0  0  0  0  0  0  0  0  0  0  0  0
  1  2  1  0  0  0  0
  1  3  1  0  0  0  0
  1 10  1  0  0  0  0
  1 11  1  0  0  0  0
  2  4  1  0  0  0  0
  2 12  1  0  0  0  0
  2 13  1  0  0  0  0
  3  5  1  0  0  0  0
  3 14  1  0  0  0  0
  3 15  1  0  0  0  0
  4  6  1  0  0  0  0
  4  7  1  0  0  0  0
  4 16  1  0  0  0  0
  5  8  1  0  0  0  0
  5  9  1  0  0  0  0
  5 17  1  0  0  0  0
  6 18  1  0  0  0  0
  6 19  1  0  0  0  0
  6 20  1  0  0  0  0
  7 21  1  0  0  0  0
  7 22  1  0  0  0  0
  7 23  1  0  0  0  0
  8 24  1  0  0  0  0
  8 25  1  0  0  0  0
  8 26  1  0  0  0  0
  9 27  1  0  0  0  0
  9 28  1  0  0  0  0
  9 29  1  0  0  0  0
M  END
> <PUBCHEM_COMPOUND_CID>
14069

> <PUBCHEM_CONFORMER_RMSD>
0.6

> <PUBCHEM_CONFORMER_DIVERSEORDER>
1

> <PUBCHEM_MMFF94_PARTIAL_CHARGES>
0

> <PUBCHEM_EFFECTIVE_ROTOR_COUNT>
4

> <PUBCHEM_PHARMACOPHORE_FEATURES>
3
3 4 6 7 hydrophobe
3 5 8 9 hydrophobe
5 1 2 3 4 5 hydrophobe

> <PUBCHEM_HEAVY_ATOM_COUNT>
9

> <PUBCHEM_ATOM_DEF_STEREO_COUNT>
0

> <PUBCHEM_ATOM_UDEF_STEREO_COUNT>
0

> <PUBCHEM_BOND_DEF_STEREO_COUNT>
0

> <PUBCHEM_BOND_UDEF_STEREO_COUNT>
0

> <PUBCHEM_ISOTOPIC_ATOM_COUNT>
0

> <PUBCHEM_COMPONENT_COUNT>
1

> <PUBCHEM_CACTVS_TAUTO_COUNT>
1

> <PUBCHEM_CONFORMER_ID>
000036F500000001

> <PUBCHEM_MMFF94_ENERGY>
7.6393

> <PUBCHEM_FEATURE_SELFOVERLAP>
15.23

> <PUBCHEM_SHAPE_FINGERPRINT>
10857977 72 18342456993764469293
12162725 195 17967818275007888169
12932764 1 18201438107641530862
14325111 11 18410855460133456094
14390081 3 5039947442482132263
177051 138 18201718435867631299
20279233 1 17417823845574260630
21028194 46 15791734113276411807
22169311 14 18411419556858956818
3248919 1 18412265038398574943
369184 2 18411140242562019349

> <PUBCHEM_SHAPE_MULTIPOLES>
185.22
5.7
1.31
1.06
0.1
0.01
-0.11
0.1
1.45
0
0.46
-0.02
-0.01
-0.03

> <PUBCHEM_SHAPE_SELFOVERLAP>
327.134

> <PUBCHEM_SHAPE_VOLUME>
123.8

> <PUBCHEM_COORDINATE_TYPE>
2
5
10

$$$$

