11406
  -OEChem-06261205383D

 22 22  0     0  0  0  0  0  0999 V2000
   -1.3636   -0.0145   -0.1572 O   0  0  0  0  0  0  0  0  0  0  0  0
   -0.5627    2.1347    0.0382 O   0  0  0  0  0  0  0  0  0  0  0  0
    0.9463    0.2892   -0.0069 C   0  0  0  0  0  0  0  0  0  0  0  0
    2.0915    1.0769    0.1114 C   0  0  0  0  0  0  0  0  0  0  0  0
    1.0605   -1.0981   -0.0967 C   0  0  0  0  0  0  0  0  0  0  0  0
   -0.3662    0.9144   -0.0360 C   0  0  0  0  0  0  0  0  0  0  0  0
    3.3506    0.4773    0.1396 C   0  0  0  0  0  0  0  0  0  0  0  0
    2.3197   -1.6976   -0.0683 C   0  0  0  0  0  0  0  0  0  0  0  0
    3.4647   -0.9098    0.0498 C   0  0  0  0  0  0  0  0  0  0  0  0
   -2.7066    0.4796   -0.1985 C   0  0  0  0  0  0  0  0  0  0  0  0
   -3.6397   -0.6778   -0.3321 C   0  0  0  0  0  0  0  0  0  0  0  0
   -4.5944   -0.9743    0.5567 C   0  0  0  0  0  0  0  0  0  0  0  0
    2.0251    2.1594    0.1829 H   0  0  0  0  0  0  0  0  0  0  0  0
    0.1973   -1.7512   -0.1898 H   0  0  0  0  0  0  0  0  0  0  0  0
    4.2424    1.0905    0.2316 H   0  0  0  0  0  0  0  0  0  0  0  0
    2.4093   -2.7778   -0.1382 H   0  0  0  0  0  0  0  0  0  0  0  0
    4.4451   -1.3766    0.0718 H   0  0  0  0  0  0  0  0  0  0  0  0
   -2.9086    1.0541    0.7129 H   0  0  0  0  0  0  0  0  0  0  0  0
   -2.8230    1.1368   -1.0677 H   0  0  0  0  0  0  0  0  0  0  0  0
   -3.5305   -1.3091   -1.2100 H   0  0  0  0  0  0  0  0  0  0  0  0
   -5.2429   -1.8297    0.4012 H   0  0  0  0  0  0  0  0  0  0  0  0
   -4.7461   -0.3757    1.4481 H   0  0  0  0  0  0  0  0  0  0  0  0
  1  6  1  0  0  0  0
  1 10  1  0  0  0  0
  2  6  2  0  0  0  0
  3  4  2  0  0  0  0
  3  5  1  0  0  0  0
  3  6  1  0  0  0  0
  4  7  1  0  0  0  0
  4 13  1  0  0  0  0
  5  8  2  0  0  0  0
  5 14  1  0  0  0  0
  7  9  2  0  0  0  0
  7 15  1  0  0  0  0
  8  9  1  0  0  0  0
  8 16  1  0  0  0  0
  9 17  1  0  0  0  0
 10 11  1  0  0  0  0
 10 18  1  0  0  0  0
 10 19  1  0  0  0  0
 11 12  2  0  0  0  0
 11 20  1  0  0  0  0
 12 21  1  0  0  0  0
 12 22  1  0  0  0  0
M  END
> <PUBCHEM_COMPOUND_CID>
11406

> <PUBCHEM_CONFORMER_RMSD>
0.6

> <PUBCHEM_CONFORMER_DIVERSEORDER>
1
16
5
14
17
2
4
12
13
19
10
18
7
15
9
8
11
6
3

> <PUBCHEM_MMFF94_PARTIAL_CHARGES>
20
1 -0.43
10 0.42
11 -0.29
12 -0.3
13 0.15
14 0.15
15 0.15
16 0.15
17 0.15
2 -0.57
20 0.15
21 0.15
22 0.15
3 0.09
4 -0.15
5 -0.15
6 0.63
7 -0.15
8 -0.15
9 -0.15

> <PUBCHEM_EFFECTIVE_ROTOR_COUNT>
4

> <PUBCHEM_PHARMACOPHORE_FEATURES>
3
1 12 hydrophobe
1 2 acceptor
6 3 4 5 7 8 9 rings

> <PUBCHEM_HEAVY_ATOM_COUNT>
12

> <PUBCHEM_ATOM_DEF_STEREO_COUNT>
0

> <PUBCHEM_ATOM_UDEF_STEREO_COUNT>
0

> <PUBCHEM_BOND_DEF_STEREO_COUNT>
0

> <PUBCHEM_BOND_UDEF_STEREO_COUNT>
0

> <PUBCHEM_ISOTOPIC_ATOM_COUNT>
0

> <PUBCHEM_COMPONENT_COUNT>
1

> <PUBCHEM_CACTVS_TAUTO_COUNT>
1

> <PUBCHEM_CONFORMER_ID>
00002C8E00000001

> <PUBCHEM_MMFF94_ENERGY>
27.4362

> <PUBCHEM_FEATURE_SELFOVERLAP>
15.223

> <PUBCHEM_SHAPE_FINGERPRINT>
10219947 1 18334857190857477591
11543360 7 15841541951502630311
12032990 46 18411979174044460783
12932764 1 17386019363750157581
13296908 3 18412548734195078877
13705890 14 17917713500044064382
14251717 144 18410295778866665215
14252887 29 18113607989222898575
14325111 11 18410295834511238548
14350558 41 18343577434693986783
15375462 189 18186805751275691283
15477762 27 18342457019344284556
15501101 241 18409451358068132629
18186145 218 17632582677494332589
20201158 50 18344144787031350867
20645477 70 18335711576154814783
20871998 22 18188481496884825759
21501502 16 18267298923139362768
21501925 9 18410864264848048490
22485316 2 18410296904469733223
23402539 116 16558760030578197686
23402655 69 18410016554489552821
23557571 272 17275113833717457741
25610 137 18410855460175926956
2748010 2 18118975934255204556
276578 36 14490469798485137252
2871803 45 18343588464354917903
5104073 3 18336833099194252768
581208 293 18410016507207937026
83771 10 18410575085090340321
8809292 202 18201716202685253683

> <PUBCHEM_SHAPE_MULTIPOLES>
235.22
7.46
1.66
0.65
6.6
0.2
-0.01
-2.8
-0.66
-0.46
-0.02
0.15
-0.04
0.22

> <PUBCHEM_SHAPE_SELFOVERLAP>
481.875

> <PUBCHEM_SHAPE_VOLUME>
135.8

> <PUBCHEM_COORDINATE_TYPE>
2
5
10

$$$$

