12707
  -OEChem-06261207162D

 19 18  0     0  0  0  0  0  0999 V2000
    8.9282    0.7500    0.0000 F   0  0  0  0  0  0  0  0  0  0  0  0
    8.5622   -0.6160    0.0000 F   0  0  0  0  0  0  0  0  0  0  0  0
    7.5622    1.1160    0.0000 F   0  0  0  0  0  0  0  0  0  0  0  0
    3.7320   -0.2500    0.0000 O   0  0  0  0  0  0  0  0  0  0  0  0
    7.1962   -1.2500    0.0000 O   0  0  0  0  0  0  0  0  0  0  0  0
    4.5981    1.2500    0.0000 O   0  0  0  0  0  0  0  0  0  0  0  0
    6.3301    0.2500    0.0000 N   0  0  0  0  0  0  0  0  0  0  0  0
    5.4641   -0.2500    0.0000 C   0  0  0  0  0  0  0  0  0  0  0  0
    7.1962   -0.2500    0.0000 C   0  0  0  0  0  0  0  0  0  0  0  0
    4.5981    0.2500    0.0000 C   0  0  0  0  0  0  0  0  0  0  0  0
    8.0622    0.2500    0.0000 C   0  0  0  0  0  0  0  0  0  0  0  0
    2.8660    0.2500    0.0000 C   0  0  0  0  0  0  0  0  0  0  0  0
    2.0000   -0.2500    0.0000 C   0  0  0  0  0  0  0  0  0  0  0  0
    5.0656   -0.7249    0.0000 H   0  0  0  0  0  0  0  0  0  0  0  0
    5.8626   -0.7249    0.0000 H   0  0  0  0  0  0  0  0  0  0  0  0
    6.3301    0.8700    0.0000 H   0  0  0  0  0  0  0  0  0  0  0  0
    2.8660    0.8700    0.0000 H   0  0  0  0  0  0  0  0  0  0  0  0
    1.4631    0.0600    0.0000 H   0  0  0  0  0  0  0  0  0  0  0  0
    2.0000   -0.8700    0.0000 H   0  0  0  0  0  0  0  0  0  0  0  0
  1 11  1  0  0  0  0
  2 11  1  0  0  0  0
  3 11  1  0  0  0  0
  4 10  1  0  0  0  0
  4 12  1  0  0  0  0
  5  9  2  0  0  0  0
  6 10  2  0  0  0  0
  7  8  1  0  0  0  0
  7  9  1  0  0  0  0
  7 16  1  0  0  0  0
  8 10  1  0  0  0  0
  8 14  1  0  0  0  0
  8 15  1  0  0  0  0
  9 11  1  0  0  0  0
 12 13  2  0  0  0  0
 12 17  1  0  0  0  0
 13 18  1  0  0  0  0
 13 19  1  0  0  0  0
M  END
> <PUBCHEM_COMPOUND_CID>
12707

> <PUBCHEM_COMPOUND_CANONICALIZED>
1

> <PUBCHEM_CACTVS_COMPLEXITY>
224

> <PUBCHEM_CACTVS_HBOND_ACCEPTOR>
6

> <PUBCHEM_CACTVS_HBOND_DONOR>
1

> <PUBCHEM_CACTVS_ROTATABLE_BOND>
4

> <PUBCHEM_CACTVS_SUBSKEYS>
AAADcYBiMYAAAAAAAAAAAAAAAAAAAAAAAAAAAAAAAAAAAAAAAAAAHwAQAAAAAADhgBYACALABACIAAGSGAAACAAAAAAIAICIAAACAAAAACABAAAABgCQAAAAAAAAAAAAAAAAAAAAAAAAAAAAAAAAAAAAAA==

> <PUBCHEM_IUPAC_OPENEYE_NAME>
vinyl 2-[(2,2,2-trifluoroacetyl)amino]acetate

> <PUBCHEM_IUPAC_CAS_NAME>
2-[(2,2,2-trifluoro-1-oxoethyl)amino]acetic acid ethenyl ester

> <PUBCHEM_IUPAC_NAME>
ethenyl 2-[(2,2,2-trifluoroacetyl)amino]acetate

> <PUBCHEM_IUPAC_SYSTEMATIC_NAME>
ethenyl 2-[2,2,2-tris(fluoranyl)ethanoylamino]ethanoate

> <PUBCHEM_IUPAC_TRADITIONAL_NAME>
2-[(2,2,2-trifluoroacetyl)amino]acetic acid vinyl ester

> <PUBCHEM_IUPAC_INCHI>
InChI=1S/C6H6F3NO3/c1-2-13-4(11)3-10-5(12)6(7,8)9/h2H,1,3H2,(H,10,12)

> <PUBCHEM_IUPAC_INCHIKEY>
YWUZNDFFHYVXOH-UHFFFAOYSA-N

> <PUBCHEM_XLOGP3_AA>
1.1

> <PUBCHEM_EXACT_MASS>
197.029978

> <PUBCHEM_MOLECULAR_FORMULA>
C6H6F3NO3

> <PUBCHEM_MOLECULAR_WEIGHT>
197.11195

> <PUBCHEM_OPENEYE_CAN_SMILES>
C=COC(=O)CNC(=O)C(F)(F)F

> <PUBCHEM_OPENEYE_ISO_SMILES>
C=COC(=O)CNC(=O)C(F)(F)F

> <PUBCHEM_CACTVS_TPSA>
55.4

> <PUBCHEM_MONOISOTOPIC_WEIGHT>
197.029978

> <PUBCHEM_TOTAL_CHARGE>
0

> <PUBCHEM_HEAVY_ATOM_COUNT>
13

> <PUBCHEM_ATOM_DEF_STEREO_COUNT>
0

> <PUBCHEM_ATOM_UDEF_STEREO_COUNT>
0

> <PUBCHEM_BOND_DEF_STEREO_COUNT>
0

> <PUBCHEM_BOND_UDEF_STEREO_COUNT>
0

> <PUBCHEM_ISOTOPIC_ATOM_COUNT>
0

> <PUBCHEM_COMPONENT_COUNT>
1

> <PUBCHEM_CACTVS_TAUTO_COUNT>
2

> <PUBCHEM_COORDINATE_TYPE>
1
5
255

$$$$

