11805
  -OEChem-06261206083D

 51 54  0     0  0  0  0  0  0999 V2000
    1.7663   -2.0075    1.6305 O   0  0  0  0  0  0  0  0  0  0  0  0
   -2.6201   -0.4897    1.7320 O   0  0  0  0  0  0  0  0  0  0  0  0
    0.8853    2.5517    1.6198 O   0  0  0  0  0  0  0  0  0  0  0  0
   -0.4400   -1.2744    1.6367 N   0  0  0  0  0  0  0  0  0  0  0  0
    1.3536    0.2742    1.6123 N   0  0  0  0  0  0  0  0  0  0  0  0
   -0.8842    1.0532    1.6301 N   0  0  0  0  0  0  0  0  0  0  0  0
    0.9533   -1.0776    1.6242 C   0  0  0  0  0  0  0  0  0  0  0  0
   -1.4098   -0.2517    1.6684 C   0  0  0  0  0  0  0  0  0  0  0  0
    0.4867    1.3828    1.6183 C   0  0  0  0  0  0  0  0  0  0  0  0
   -0.9216   -2.6530    1.6151 C   0  0  0  0  0  0  0  0  0  0  0  0
    2.7929    0.5227    1.6000 C   0  0  0  0  0  0  0  0  0  0  0  0
   -1.8384    2.1585    1.6000 C   0  0  0  0  0  0  0  0  0  0  0  0
   -1.1233   -3.1557    0.2148 C   0  0  0  0  0  0  0  0  0  0  0  0
    3.3363    0.6091    0.2030 C   0  0  0  0  0  0  0  0  0  0  0  0
   -2.2079    2.5438    0.1967 C   0  0  0  0  0  0  0  0  0  0  0  0
   -0.0752   -3.7840   -0.4477 C   0  0  0  0  0  0  0  0  0  0  0  0
    3.3795    1.8391   -0.4429 C   0  0  0  0  0  0  0  0  0  0  0  0
   -3.2917    1.9312   -0.4217 C   0  0  0  0  0  0  0  0  0  0  0  0
   -2.3561   -2.9885   -0.4050 C   0  0  0  0  0  0  0  0  0  0  0  0
    3.7911   -0.5416   -0.4303 C   0  0  0  0  0  0  0  0  0  0  0  0
   -1.4630    3.5095   -0.4701 C   0  0  0  0  0  0  0  0  0  0  0  0
   -0.2624   -4.2513   -1.7485 C   0  0  0  0  0  0  0  0  0  0  0  0
    3.8844    1.9197   -1.7407 C   0  0  0  0  0  0  0  0  0  0  0  0
   -3.6352    2.2892   -1.7253 C   0  0  0  0  0  0  0  0  0  0  0  0
   -2.5433   -3.4560   -1.7059 C   0  0  0  0  0  0  0  0  0  0  0  0
    4.2961   -0.4609   -1.7281 C   0  0  0  0  0  0  0  0  0  0  0  0
   -1.8067    3.8675   -1.7737 C   0  0  0  0  0  0  0  0  0  0  0  0
   -1.4965   -4.0874   -2.3775 C   0  0  0  0  0  0  0  0  0  0  0  0
    4.3428    0.7697   -2.3831 C   0  0  0  0  0  0  0  0  0  0  0  0
   -2.8928    3.2573   -2.4012 C   0  0  0  0  0  0  0  0  0  0  0  0
   -1.8612   -2.7300    2.1763 H   0  0  0  0  0  0  0  0  0  0  0  0
   -0.2131   -3.3030    2.1438 H   0  0  0  0  0  0  0  0  0  0  0  0
    3.3181   -0.2628    2.1578 H   0  0  0  0  0  0  0  0  0  0  0  0
    3.0083    1.4549    2.1376 H   0  0  0  0  0  0  0  0  0  0  0  0
   -1.4216    3.0266    2.1260 H   0  0  0  0  0  0  0  0  0  0  0  0
   -2.7421    1.8860    2.1595 H   0  0  0  0  0  0  0  0  0  0  0  0
    0.8891   -3.9278    0.0300 H   0  0  0  0  0  0  0  0  0  0  0  0
    3.0341    2.7452    0.0457 H   0  0  0  0  0  0  0  0  0  0  0  0
   -3.8851    1.1816    0.0930 H   0  0  0  0  0  0  0  0  0  0  0  0
   -3.1842   -2.5070    0.1062 H   0  0  0  0  0  0  0  0  0  0  0  0
    3.7739   -1.5060    0.0676 H   0  0  0  0  0  0  0  0  0  0  0  0
   -0.6203    4.0012    0.0063 H   0  0  0  0  0  0  0  0  0  0  0  0
    0.5520   -4.7447   -2.2710 H   0  0  0  0  0  0  0  0  0  0  0  0
    3.9224    2.8781   -2.2502 H   0  0  0  0  0  0  0  0  0  0  0  0
   -4.4819    1.8154   -2.2134 H   0  0  0  0  0  0  0  0  0  0  0  0
   -3.5048   -3.3301   -2.1952 H   0  0  0  0  0  0  0  0  0  0  0  0
    4.6557   -1.3558   -2.2276 H   0  0  0  0  0  0  0  0  0  0  0  0
   -1.2300    4.6228   -2.2994 H   0  0  0  0  0  0  0  0  0  0  0  0
   -1.6425   -4.4521   -3.3901 H   0  0  0  0  0  0  0  0  0  0  0  0
    4.7369    0.8325   -3.3932 H   0  0  0  0  0  0  0  0  0  0  0  0
   -3.1608    3.5367   -3.4160 H   0  0  0  0  0  0  0  0  0  0  0  0
  1  7  2  0  0  0  0
  2  8  2  0  0  0  0
  3  9  2  0  0  0  0
  4  7  1  0  0  0  0
  4  8  1  0  0  0  0
  4 10  1  0  0  0  0
  5  7  1  0  0  0  0
  5  9  1  0  0  0  0
  5 11  1  0  0  0  0
  6  8  1  0  0  0  0
  6  9  1  0  0  0  0
  6 12  1  0  0  0  0
 10 13  1  0  0  0  0
 10 31  1  0  0  0  0
 10 32  1  0  0  0  0
 11 14  1  0  0  0  0
 11 33  1  0  0  0  0
 11 34  1  0  0  0  0
 12 15  1  0  0  0  0
 12 35  1  0  0  0  0
 12 36  1  0  0  0  0
 13 16  2  0  0  0  0
 13 19  1  0  0  0  0
 14 17  2  0  0  0  0
 14 20  1  0  0  0  0
 15 18  2  0  0  0  0
 15 21  1  0  0  0  0
 16 22  1  0  0  0  0
 16 37  1  0  0  0  0
 17 23  1  0  0  0  0
 17 38  1  0  0  0  0
 18 24  1  0  0  0  0
 18 39  1  0  0  0  0
 19 25  2  0  0  0  0
 19 40  1  0  0  0  0
 20 26  2  0  0  0  0
 20 41  1  0  0  0  0
 21 27  2  0  0  0  0
 21 42  1  0  0  0  0
 22 28  2  0  0  0  0
 22 43  1  0  0  0  0
 23 29  2  0  0  0  0
 23 44  1  0  0  0  0
 24 30  2  0  0  0  0
 24 45  1  0  0  0  0
 25 28  1  0  0  0  0
 25 46  1  0  0  0  0
 26 29  1  0  0  0  0
 26 47  1  0  0  0  0
 27 30  1  0  0  0  0
 27 48  1  0  0  0  0
 28 49  1  0  0  0  0
 29 50  1  0  0  0  0
 30 51  1  0  0  0  0
M  END
> <PUBCHEM_COMPOUND_CID>
11805

> <PUBCHEM_CONFORMER_RMSD>
0.8

> <PUBCHEM_CONFORMER_DIVERSEORDER>
1
35
23
24
34
3
22
33
28
27
5
19
32
7
13
16
17
14
18
26
21
20
30
36
9
2
29
15
31
6
25
10
12
4
8
11

> <PUBCHEM_MMFF94_PARTIAL_CHARGES>
45
1 -0.57
10 0.44
11 0.44
12 0.44
13 -0.14
14 -0.14
15 -0.14
16 -0.15
17 -0.15
18 -0.15
19 -0.15
2 -0.57
20 -0.15
21 -0.15
22 -0.15
23 -0.15
24 -0.15
25 -0.15
26 -0.15
27 -0.15
28 -0.15
29 -0.15
3 -0.57
30 -0.15
37 0.15
38 0.15
39 0.15
4 -0.42
40 0.15
41 0.15
42 0.15
43 0.15
44 0.15
45 0.15
46 0.15
47 0.15
48 0.15
49 0.15
5 -0.42
50 0.15
51 0.15
6 -0.42
7 0.69
8 0.69
9 0.69

> <PUBCHEM_EFFECTIVE_ROTOR_COUNT>
6

> <PUBCHEM_PHARMACOPHORE_FEATURES>
7
1 1 acceptor
1 2 acceptor
1 3 acceptor
6 13 16 19 22 25 28 rings
6 14 17 20 23 26 29 rings
6 15 18 21 24 27 30 rings
6 4 5 6 7 8 9 rings

> <PUBCHEM_HEAVY_ATOM_COUNT>
30

> <PUBCHEM_ATOM_DEF_STEREO_COUNT>
0

> <PUBCHEM_ATOM_UDEF_STEREO_COUNT>
0

> <PUBCHEM_BOND_DEF_STEREO_COUNT>
0

> <PUBCHEM_BOND_UDEF_STEREO_COUNT>
0

> <PUBCHEM_ISOTOPIC_ATOM_COUNT>
0

> <PUBCHEM_COMPONENT_COUNT>
1

> <PUBCHEM_CACTVS_TAUTO_COUNT>
1

> <PUBCHEM_CONFORMER_ID>
00002E1D00000001

> <PUBCHEM_MMFF94_ENERGY>
70.7022

> <PUBCHEM_FEATURE_SELFOVERLAP>
35.52

> <PUBCHEM_SHAPE_FINGERPRINT>
11477941 20 17695030372887929172
12160290 23 18410856520990366200
12788726 201 18127984004992667830
12977781 61 17604732005620151474
13383661 66 17896335618979186223
13681431 1 17113821245646889553
14705955 166 9705806317358653221
14863182 85 17395895353337177323
14918310 93 18270379652142089251
15210252 30 17690564083181794590
15484559 13 17844260737705222549
16067690 210 14897399004791678615
1813 80 17760084016962255851
18603816 31 14782329800687033550
20511986 3 18201146768328273274
21285901 2 17683545947495538583
21304303 282 17915761798649652288
21344244 181 18040995176483697935
21421566 26 18122321515809664916
21857420 4 17331170076096120181
21860390 5 17266109060728867887
22907989 373 18272080587391899673
238 59 17980201108140564011
24893989 43 16165039073554111109
25222932 49 15730732160734093061
26353 1 17834395614068112758
3380486 77 16901350008146108472
3493558 16 15481528799670478871
35225 105 18410576188480237247
4066623 53 17975442138379766374
4280585 95 17610060067016447354
46194498 28 17478056415948113125
5080951 261 18334575707897429008
5081480 168 17620765981560912487

> <PUBCHEM_SHAPE_MULTIPOLES>
584.83
6.67
6.47
2.85
6.83
4.04
0.44
-4.11
4.51
-6.62
4.28
-0.04
-0.02
0.02

> <PUBCHEM_SHAPE_SELFOVERLAP>
1276.62

> <PUBCHEM_SHAPE_VOLUME>
314.4

> <PUBCHEM_COORDINATE_TYPE>
2
5
10

$$$$

