10816
  -OEChem-06261205003D

 18 18  0     0  0  0  0  0  0999 V2000
    4.1564   -0.2992   -0.0765 Cl  0  0  0  0  0  0  0  0  0  0  0  0
   -2.2871    1.4038    0.4042 O   0  0  0  0  0  0  0  0  0  0  0  0
   -2.5336   -0.8093   -0.2472 N   0  0  0  0  0  0  0  0  0  0  0  0
   -3.9132   -0.7343   -0.2480 N   0  0  0  0  0  0  0  0  0  0  0  0
   -0.3283    0.1642    0.0523 C   0  0  0  0  0  0  0  0  0  0  0  0
    0.4811    1.2755   -0.1833 C   0  0  0  0  0  0  0  0  0  0  0  0
    0.2492   -1.0903    0.2480 C   0  0  0  0  0  0  0  0  0  0  0  0
    1.8680    1.1322   -0.2234 C   0  0  0  0  0  0  0  0  0  0  0  0
    1.6362   -1.2335    0.2080 C   0  0  0  0  0  0  0  0  0  0  0  0
   -1.7744    0.3131    0.0936 C   0  0  0  0  0  0  0  0  0  0  0  0
    2.4455   -0.1223   -0.0277 C   0  0  0  0  0  0  0  0  0  0  0  0
    0.0508    2.2608   -0.3427 H   0  0  0  0  0  0  0  0  0  0  0  0
   -0.3422   -1.9754    0.4628 H   0  0  0  0  0  0  0  0  0  0  0  0
    2.4864    2.0067   -0.4090 H   0  0  0  0  0  0  0  0  0  0  0  0
    2.0731   -2.2158    0.3685 H   0  0  0  0  0  0  0  0  0  0  0  0
   -2.1233   -1.6839   -0.5571 H   0  0  0  0  0  0  0  0  0  0  0  0
   -4.2216   -0.9753   -1.1891 H   0  0  0  0  0  0  0  0  0  0  0  0
   -4.2496   -1.4813    0.3583 H   0  0  0  0  0  0  0  0  0  0  0  0
  1 11  1  0  0  0  0
  2 10  2  0  0  0  0
  3  4  1  0  0  0  0
  3 10  1  0  0  0  0
  3 16  1  0  0  0  0
  4 17  1  0  0  0  0
  4 18  1  0  0  0  0
  5  6  2  0  0  0  0
  5  7  1  0  0  0  0
  5 10  1  0  0  0  0
  6  8  1  0  0  0  0
  6 12  1  0  0  0  0
  7  9  2  0  0  0  0
  7 13  1  0  0  0  0
  8 11  2  0  0  0  0
  8 14  1  0  0  0  0
  9 11  1  0  0  0  0
  9 15  1  0  0  0  0
M  END
> <PUBCHEM_COMPOUND_CID>
10816

> <PUBCHEM_CONFORMER_RMSD>
0.4

> <PUBCHEM_CONFORMER_DIVERSEORDER>
1
3
2

> <PUBCHEM_MMFF94_PARTIAL_CHARGES>
18
1 -0.18
10 0.54
11 0.18
12 0.15
13 0.15
14 0.15
15 0.15
16 0.37
17 0.36
18 0.36
2 -0.57
3 -0.42
4 -0.73
5 0.09
6 -0.15
7 -0.15
8 -0.15
9 -0.15

> <PUBCHEM_EFFECTIVE_ROTOR_COUNT>
2

> <PUBCHEM_PHARMACOPHORE_FEATURES>
4
1 2 acceptor
1 3 donor
1 4 donor
6 5 6 7 8 9 11 rings

> <PUBCHEM_HEAVY_ATOM_COUNT>
11

> <PUBCHEM_ATOM_DEF_STEREO_COUNT>
0

> <PUBCHEM_ATOM_UDEF_STEREO_COUNT>
0

> <PUBCHEM_BOND_DEF_STEREO_COUNT>
0

> <PUBCHEM_BOND_UDEF_STEREO_COUNT>
0

> <PUBCHEM_ISOTOPIC_ATOM_COUNT>
0

> <PUBCHEM_COMPONENT_COUNT>
1

> <PUBCHEM_CACTVS_TAUTO_COUNT>
2

> <PUBCHEM_CONFORMER_ID>
00002A4000000001

> <PUBCHEM_MMFF94_ENERGY>
26.7493

> <PUBCHEM_FEATURE_SELFOVERLAP>
21.803

> <PUBCHEM_SHAPE_FINGERPRINT>
10219947 1 17561361786146023852
11062470 55 12823297896610772358
11806522 49 18410296865366725646
12032990 46 18410568500921566182
12897270 3 18413110533012920751
13690532 89 18343023298382910194
14128692 85 18335139773724773452
14325111 11 18410572898894126808
14993402 34 18273492360590580358
16945 1 18342449331553343234
19026448 4 16877943875708537368
20201158 50 18272369771597413035
21040471 1 18341045212439662008
21293036 1 18272931609597124014
21501925 9 18411991251724514946
23402539 116 18260557713885027487
23402655 69 18268163122431462805
23552423 10 18343298205853263951
2748010 2 16106989738083521738
5084963 1 18410856546807843152
528886 8 18411985801236962472
8809292 202 18058725793429627435

> <PUBCHEM_SHAPE_MULTIPOLES>
212.41
5.84
1.39
0.64
0.56
0.16
0
-1.08
0.42
0.1
-0.04
-0.02
0.01
-0.28

> <PUBCHEM_SHAPE_SELFOVERLAP>
433.116

> <PUBCHEM_SHAPE_VOLUME>
124.4

> <PUBCHEM_COORDINATE_TYPE>
2
5
10

$$$$

