7241
  -OEChem-06261201563D

 15 15  0     0  0  0  0  0  0999 V2000
    1.6630   -1.4956    0.0001 F   0  0  0  0  0  0  0  0  0  0  0  0
    0.6435    0.6484   -0.0006 C   0  0  0  0  0  0  0  0  0  0  0  0
    0.5535   -0.7435   -0.0003 C   0  0  0  0  0  0  0  0  0  0  0  0
   -0.5170    1.4224   -0.0003 C   0  0  0  0  0  0  0  0  0  0  0  0
    1.9789    1.3130    0.0006 C   0  0  0  0  0  0  0  0  0  0  0  0
   -0.6969   -1.3615    0.0000 C   0  0  0  0  0  0  0  0  0  0  0  0
   -1.7675    0.8044    0.0002 C   0  0  0  0  0  0  0  0  0  0  0  0
   -1.8574   -0.5875    0.0003 C   0  0  0  0  0  0  0  0  0  0  0  0
   -0.4627    2.5078    0.0011 H   0  0  0  0  0  0  0  0  0  0  0  0
    2.4577    1.1937    0.9778 H   0  0  0  0  0  0  0  0  0  0  0  0
    2.6252    0.8773   -0.7687 H   0  0  0  0  0  0  0  0  0  0  0  0
    1.8999    2.3847   -0.2111 H   0  0  0  0  0  0  0  0  0  0  0  0
   -0.7668   -2.4452    0.0003 H   0  0  0  0  0  0  0  0  0  0  0  0
   -2.6712    1.4068    0.0009 H   0  0  0  0  0  0  0  0  0  0  0  0
   -2.8310   -1.0688    0.0008 H   0  0  0  0  0  0  0  0  0  0  0  0
  1  3  1  0  0  0  0
  2  3  1  0  0  0  0
  2  4  2  0  0  0  0
  2  5  1  0  0  0  0
  3  6  2  0  0  0  0
  4  7  1  0  0  0  0
  4  9  1  0  0  0  0
  5 10  1  0  0  0  0
  5 11  1  0  0  0  0
  5 12  1  0  0  0  0
  6  8  1  0  0  0  0
  6 13  1  0  0  0  0
  7  8  2  0  0  0  0
  7 14  1  0  0  0  0
  8 15  1  0  0  0  0
M  END
> <PUBCHEM_COMPOUND_CID>
7241

> <PUBCHEM_CONFORMER_RMSD>
0.4

> <PUBCHEM_CONFORMER_DIVERSEORDER>
1

> <PUBCHEM_MMFF94_PARTIAL_CHARGES>
12
1 -0.19
13 0.15
14 0.15
15 0.15
2 -0.14
3 0.19
4 -0.15
5 0.14
6 -0.15
7 -0.15
8 -0.15
9 0.15

> <PUBCHEM_EFFECTIVE_ROTOR_COUNT>
0

> <PUBCHEM_PHARMACOPHORE_FEATURES>
1
6 2 3 4 6 7 8 rings

> <PUBCHEM_HEAVY_ATOM_COUNT>
8

> <PUBCHEM_ATOM_DEF_STEREO_COUNT>
0

> <PUBCHEM_ATOM_UDEF_STEREO_COUNT>
0

> <PUBCHEM_BOND_DEF_STEREO_COUNT>
0

> <PUBCHEM_BOND_UDEF_STEREO_COUNT>
0

> <PUBCHEM_ISOTOPIC_ATOM_COUNT>
0

> <PUBCHEM_COMPONENT_COUNT>
1

> <PUBCHEM_CACTVS_TAUTO_COUNT>
1

> <PUBCHEM_CONFORMER_ID>
00001C4900000001

> <PUBCHEM_MMFF94_ENERGY>
15.8892

> <PUBCHEM_FEATURE_SELFOVERLAP>
5.074

> <PUBCHEM_SHAPE_FINGERPRINT>
16714656 1 17978787917834628556
18185500 45 18193278494449852719
21040471 1 18410856525348850341
23552423 10 18343862204016192838
2748010 2 18411418431799116813
29004967 10 18200305499122430913

> <PUBCHEM_SHAPE_MULTIPOLES>
157.36
2.42
1.75
0.6
0.35
0.25
0
-0.32
0
0.2
0
-0.02
-0.02
0

> <PUBCHEM_SHAPE_SELFOVERLAP>
325.745

> <PUBCHEM_SHAPE_VOLUME>
91.1

> <PUBCHEM_COORDINATE_TYPE>
2
5
10

$$$$

