17395716
  -OEChem-06241222523D

 47 47  0     1  0  0  0  0  0999 V2000
    0.9787   -1.3278   -1.2292 S   0  0  0  0  0  0  0  0  0  0  0  0
    3.9021   -1.7429   -0.4105 S   0  0  0  0  0  0  0  0  0  0  0  0
   -5.4183   -1.6380    0.5326 O   0  0  0  0  0  0  0  0  0  0  0  0
   -3.2684   -1.9929    1.2890 O   0  0  0  0  0  0  0  0  0  0  0  0
   -1.8366   -1.0114   -1.8404 O   0  0  0  0  0  0  0  0  0  0  0  0
   -2.3919    0.1950    0.0678 N   0  0  0  0  0  0  0  0  0  0  0  0
    6.1117   -0.3948    0.2406 N   0  0  0  0  0  0  0  0  0  0  0  0
    4.1369    0.8059   -0.2948 N   0  0  0  0  0  0  0  0  0  0  0  0
    2.8261    0.5683   -0.6699 N   0  0  0  0  0  0  0  0  0  0  0  0
   -4.4335    2.5177    0.0253 C   0  0  0  0  0  0  0  0  0  0  0  0
   -4.5903    1.1359    0.6915 C   0  0  0  0  0  0  0  0  0  0  0  0
   -3.8177    0.0041    0.0092 C   0  0  2  0  0  0  0  0  0  0  0  0
   -4.9347    2.4541   -1.4202 C   0  0  0  0  0  0  0  0  0  0  0  0
   -5.1806    3.6173    0.7813 C   0  0  0  0  0  0  0  0  0  0  0  0
   -4.1023   -1.3128    0.7052 C   0  0  0  0  0  0  0  0  0  0  0  0
   -1.5122   -0.3319   -0.8680 C   0  0  0  0  0  0  0  0  0  0  0  0
   -0.0669   -0.0053   -0.5738 C   0  0  0  0  0  0  0  0  0  0  0  0
    6.9598    0.7503    0.5014 C   0  0  0  0  0  0  0  0  0  0  0  0
    6.6629    1.2970    1.8917 C   0  0  0  0  0  0  0  0  0  0  0  0
    8.4189    0.3348    0.3685 C   0  0  0  0  0  0  0  0  0  0  0  0
   -5.8233   -2.8895    1.0962 C   0  0  0  0  0  0  0  0  0  0  0  0
    4.8072   -0.3138   -0.1268 C   0  0  0  0  0  0  0  0  0  0  0  0
    2.5724   -0.7193   -0.7666 C   0  0  0  0  0  0  0  0  0  0  0  0
   -3.3711    2.7906    0.0106 H   0  0  0  0  0  0  0  0  0  0  0  0
   -4.2647    1.2144    1.7382 H   0  0  0  0  0  0  0  0  0  0  0  0
   -5.6589    0.8861    0.7322 H   0  0  0  0  0  0  0  0  0  0  0  0
   -4.1112   -0.1242   -1.0379 H   0  0  0  0  0  0  0  0  0  0  0  0
   -4.9275    3.4512   -1.8747 H   0  0  0  0  0  0  0  0  0  0  0  0
   -4.2955    1.8213   -2.0429 H   0  0  0  0  0  0  0  0  0  0  0  0
   -5.9592    2.0704   -1.4728 H   0  0  0  0  0  0  0  0  0  0  0  0
   -6.2569    3.4165    0.8117 H   0  0  0  0  0  0  0  0  0  0  0  0
   -5.0294    4.5919    0.3055 H   0  0  0  0  0  0  0  0  0  0  0  0
   -4.8205    3.6885    1.8129 H   0  0  0  0  0  0  0  0  0  0  0  0
   -2.0134    0.6953    0.8671 H   0  0  0  0  0  0  0  0  0  0  0  0
    0.0926    0.0859    0.5052 H   0  0  0  0  0  0  0  0  0  0  0  0
    0.1680    0.9490   -1.0557 H   0  0  0  0  0  0  0  0  0  0  0  0
    6.7662    1.5344   -0.2413 H   0  0  0  0  0  0  0  0  0  0  0  0
    6.5242   -1.3126    0.3878 H   0  0  0  0  0  0  0  0  0  0  0  0
    6.8242    0.5348    2.6625 H   0  0  0  0  0  0  0  0  0  0  0  0
    5.6246    1.6349    1.9757 H   0  0  0  0  0  0  0  0  0  0  0  0
    7.3097    2.1509    2.1194 H   0  0  0  0  0  0  0  0  0  0  0  0
    8.6807   -0.4473    1.0902 H   0  0  0  0  0  0  0  0  0  0  0  0
    8.6218   -0.0595   -0.6334 H   0  0  0  0  0  0  0  0  0  0  0  0
    9.0843    1.1879    0.5370 H   0  0  0  0  0  0  0  0  0  0  0  0
   -5.2664   -3.7105    0.6347 H   0  0  0  0  0  0  0  0  0  0  0  0
   -5.6750   -2.8822    2.1801 H   0  0  0  0  0  0  0  0  0  0  0  0
   -6.8878   -3.0272    0.8886 H   0  0  0  0  0  0  0  0  0  0  0  0
  1 17  1  0  0  0  0
  1 23  1  0  0  0  0
  2 22  1  0  0  0  0
  2 23  1  0  0  0  0
  3 15  1  0  0  0  0
  3 21  1  0  0  0  0
  4 15  2  0  0  0  0
  5 16  2  0  0  0  0
  6 12  1  0  0  0  0
  6 16  1  0  0  0  0
  6 34  1  0  0  0  0
  7 18  1  0  0  0  0
  7 22  1  0  0  0  0
  7 38  1  0  0  0  0
  8  9  1  0  0  0  0
  8 22  2  0  0  0  0
  9 23  2  0  0  0  0
 10 11  1  0  0  0  0
 10 13  1  0  0  0  0
 10 14  1  0  0  0  0
 10 24  1  0  0  0  0
 11 12  1  0  0  0  0
 11 25  1  0  0  0  0
 11 26  1  0  0  0  0
 12 15  1  0  0  0  0
 12 27  1  0  0  0  0
 13 28  1  0  0  0  0
 13 29  1  0  0  0  0
 13 30  1  0  0  0  0
 14 31  1  0  0  0  0
 14 32  1  0  0  0  0
 14 33  1  0  0  0  0
 16 17  1  0  0  0  0
 17 35  1  0  0  0  0
 17 36  1  0  0  0  0
 18 19  1  0  0  0  0
 18 20  1  0  0  0  0
 18 37  1  0  0  0  0
 19 39  1  0  0  0  0
 19 40  1  0  0  0  0
 19 41  1  0  0  0  0
 20 42  1  0  0  0  0
 20 43  1  0  0  0  0
 20 44  1  0  0  0  0
 21 45  1  0  0  0  0
 21 46  1  0  0  0  0
 21 47  1  0  0  0  0
M  END
> <PUBCHEM_COMPOUND_CID>
17395716

> <PUBCHEM_CONFORMER_RMSD>
1.2

> <PUBCHEM_CONFORMER_DIVERSEORDER>
1
56
8
87
72
108
110
85
80
4
107
20
67
79
96
89
19
73
77
58
3
42
32
52
104
66
102
90
106
43
71
45
92
36
99
78
47
86
62
18
10
6
30
82
75
53
34
83
88
13
41
94
29
35
50
61
55
9
40
74
69
70
16
7
95
27
101
76
81
98
65
33
49
103
37
23
5
93
60
91
2
26
64
15
38
63
48
14
68
31
100
84
54
12
57
22
39
105
17
109
51
97
21
25
24
46
11
44
59
28

> <PUBCHEM_MMFF94_PARTIAL_CHARGES>
19
1 -0.29
12 0.36
15 0.66
16 0.57
17 0.29
18 0.37
2 -0.08
21 0.28
22 0.46
23 0.43
3 -0.43
34 0.37
38 0.4
4 -0.57
5 -0.57
6 -0.73
7 -0.85
8 -0.34
9 -0.34

> <PUBCHEM_EFFECTIVE_ROTOR_COUNT>
11

> <PUBCHEM_PHARMACOPHORE_FEATURES>
9
1 4 acceptor
1 5 acceptor
1 6 donor
1 7 donor
1 9 acceptor
3 10 13 14 hydrophobe
3 18 19 20 hydrophobe
3 7 8 22 cation
5 2 8 9 22 23 rings

> <PUBCHEM_HEAVY_ATOM_COUNT>
23

> <PUBCHEM_ATOM_DEF_STEREO_COUNT>
0

> <PUBCHEM_ATOM_UDEF_STEREO_COUNT>
1

> <PUBCHEM_BOND_DEF_STEREO_COUNT>
0

> <PUBCHEM_BOND_UDEF_STEREO_COUNT>
0

> <PUBCHEM_ISOTOPIC_ATOM_COUNT>
0

> <PUBCHEM_COMPONENT_COUNT>
1

> <PUBCHEM_CACTVS_TAUTO_COUNT>
4

> <PUBCHEM_CONFORMER_ID>
0109700400000001

> <PUBCHEM_MMFF94_ENERGY>
32.4204

> <PUBCHEM_FEATURE_SELFOVERLAP>
45.669

> <PUBCHEM_SHAPE_FINGERPRINT>
10 15 18261111834045148898
10291535 26 18261107534999585889
10554248 39 15502090865722647492
106641 1 17313660443882519199
10835480 77 18334859475748820232
11315181 36 17989486295080195447
12403259 118 18412257324700835965
12596602 18 18412828006143964458
12616971 3 16271913935307902998
13073987 5 18412543236310503074
13403585 85 18409445899681365265
13668630 136 11240001170526424768
13911987 19 16660368125358423005
14123256 34 11959727209797395456
15021287 119 16343695547558530061
15183329 4 16128661825832730898
15188451 53 17846217700777437523
17093844 174 18272373083059357169
17844677 252 18341038645086701885
18927931 339 13902189309331923135
20281389 69 17821450141031810074
21130935 74 18343866645624969746
21150785 3 16732996326944327429
22956985 138 17473821728929581835
23081809 10 17060612296508944846
23522609 53 17059187359615226596
23559900 14 17975406125301009439
29717793 49 12607413191550927430
312425 54 17988923418257535930
3663271 9 18202004339509285234
4073 2 18341888623557441946
465052 167 12895064150891545314
5104073 3 18340487867181477842
5364581 5 18341047393988299120
5924683 9 18272081691810314063
5969126 39 18334861577005836119

> <PUBCHEM_SHAPE_MULTIPOLES>
443.5
21.71
3
1.37
30.76
1.24
0
6.86
8.21
-7.69
0.77
-0.34
-0.07
2.77

> <PUBCHEM_SHAPE_SELFOVERLAP>
850.086

> <PUBCHEM_SHAPE_VOLUME>
273.4

> <PUBCHEM_COORDINATE_TYPE>
2
5
10

$$$$

