17396598
  -OEChem-06241222572D

 38 40  0     0  0  0  0  0  0999 V2000
   10.5109    1.2500    0.0000 Br  0  0  0  0  0  0  0  0  0  0  0  0
    6.1808    1.7500    0.0000 O   0  0  0  0  0  0  0  0  0  0  0  0
    3.5827   -1.7500    0.0000 N   0  0  0  0  0  0  0  0  0  0  0  0
    7.0468    0.2500    0.0000 N   0  0  0  0  0  0  0  0  0  0  0  0
    2.6691   -1.3433    0.0000 N   0  0  0  0  0  0  0  0  0  0  0  0
    8.7788    3.2500    0.0000 N   0  0  0  0  0  0  0  0  0  0  0  0
    5.3147   -1.7500    0.0000 C   0  0  0  0  0  0  0  0  0  0  0  0
    6.1808   -1.2500    0.0000 C   0  0  0  0  0  0  0  0  0  0  0  0
    4.4487   -1.2500    0.0000 C   0  0  0  0  0  0  0  0  0  0  0  0
    6.1808   -0.2500    0.0000 C   0  0  0  0  0  0  0  0  0  0  0  0
    5.3147   -2.7500    0.0000 C   0  0  0  0  0  0  0  0  0  0  0  0
    7.0468   -1.7500    0.0000 C   0  0  0  0  0  0  0  0  0  0  0  0
    6.1808   -3.2500    0.0000 C   0  0  0  0  0  0  0  0  0  0  0  0
    7.0468   -2.7500    0.0000 C   0  0  0  0  0  0  0  0  0  0  0  0
    3.4782   -2.7445    0.0000 C   0  0  0  0  0  0  0  0  0  0  0  0
    7.0468    1.2500    0.0000 C   0  0  0  0  0  0  0  0  0  0  0  0
    2.5000   -2.9524    0.0000 C   0  0  0  0  0  0  0  0  0  0  0  0
    7.9128    1.7500    0.0000 C   0  0  0  0  0  0  0  0  0  0  0  0
    2.0000   -2.0864    0.0000 C   0  0  0  0  0  0  0  0  0  0  0  0
    8.7788    1.2500    0.0000 C   0  0  0  0  0  0  0  0  0  0  0  0
    7.9128    2.7500    0.0000 C   0  0  0  0  0  0  0  0  0  0  0  0
    9.6448    1.7500    0.0000 C   0  0  0  0  0  0  0  0  0  0  0  0
    9.6448    2.7500    0.0000 C   0  0  0  0  0  0  0  0  0  0  0  0
    4.8472   -0.7751    0.0000 H   0  0  0  0  0  0  0  0  0  0  0  0
    4.0502   -0.7751    0.0000 H   0  0  0  0  0  0  0  0  0  0  0  0
    5.9687    0.3326    0.0000 H   0  0  0  0  0  0  0  0  0  0  0  0
    5.5702   -0.3577    0.0000 H   0  0  0  0  0  0  0  0  0  0  0  0
    4.7778   -3.0600    0.0000 H   0  0  0  0  0  0  0  0  0  0  0  0
    7.5837   -1.4400    0.0000 H   0  0  0  0  0  0  0  0  0  0  0  0
    7.5837   -0.0600    0.0000 H   0  0  0  0  0  0  0  0  0  0  0  0
    6.1808   -3.8700    0.0000 H   0  0  0  0  0  0  0  0  0  0  0  0
    7.5837   -3.0600    0.0000 H   0  0  0  0  0  0  0  0  0  0  0  0
    3.9389   -3.1594    0.0000 H   0  0  0  0  0  0  0  0  0  0  0  0
    2.2478   -3.5188    0.0000 H   0  0  0  0  0  0  0  0  0  0  0  0
    1.3834   -2.0216    0.0000 H   0  0  0  0  0  0  0  0  0  0  0  0
    8.7788    0.6300    0.0000 H   0  0  0  0  0  0  0  0  0  0  0  0
    7.3759    3.0600    0.0000 H   0  0  0  0  0  0  0  0  0  0  0  0
   10.1818    3.0600    0.0000 H   0  0  0  0  0  0  0  0  0  0  0  0
  1 22  1  0  0  0  0
  2 16  2  0  0  0  0
  3  5  1  0  0  0  0
  3  9  1  0  0  0  0
  3 15  1  0  0  0  0
  4 10  1  0  0  0  0
  4 16  1  0  0  0  0
  4 30  1  0  0  0  0
  5 19  2  0  0  0  0
  6 21  2  0  0  0  0
  6 23  1  0  0  0  0
  7  8  1  0  0  0  0
  7  9  1  0  0  0  0
  7 11  2  0  0  0  0
  8 10  1  0  0  0  0
  8 12  2  0  0  0  0
  9 24  1  0  0  0  0
  9 25  1  0  0  0  0
 10 26  1  0  0  0  0
 10 27  1  0  0  0  0
 11 13  1  0  0  0  0
 11 28  1  0  0  0  0
 12 14  1  0  0  0  0
 12 29  1  0  0  0  0
 13 14  2  0  0  0  0
 13 31  1  0  0  0  0
 14 32  1  0  0  0  0
 15 17  2  0  0  0  0
 15 33  1  0  0  0  0
 16 18  1  0  0  0  0
 17 19  1  0  0  0  0
 17 34  1  0  0  0  0
 18 20  2  0  0  0  0
 18 21  1  0  0  0  0
 19 35  1  0  0  0  0
 20 22  1  0  0  0  0
 20 36  1  0  0  0  0
 21 37  1  0  0  0  0
 22 23  2  0  0  0  0
 23 38  1  0  0  0  0
M  END
> <PUBCHEM_COMPOUND_CID>
17396598

> <PUBCHEM_COMPOUND_CANONICALIZED>
1

> <PUBCHEM_CACTVS_COMPLEXITY>
395

> <PUBCHEM_CACTVS_HBOND_ACCEPTOR>
3

> <PUBCHEM_CACTVS_HBOND_DONOR>
1

> <PUBCHEM_CACTVS_ROTATABLE_BOND>
5

> <PUBCHEM_CACTVS_SUBSKEYS>
AAADccB7oAAAEAAAAAAAAAAAAAAAAWAAAAA8QAAAAAAAAAAB8AAAHgBYAAABrADBmgQ8gJLIEACqAjF3VACShCA1giQY2KE4ZPgIIPrA1dGEpYhgjgDIy9cYgYAOgAAAAAAQAAAAAAAAACAAAAAAAAAAAA==

> <PUBCHEM_IUPAC_OPENEYE_NAME>
5-bromo-N-[[2-(pyrazol-1-ylmethyl)phenyl]methyl]pyridine-3-carboxamide

> <PUBCHEM_IUPAC_CAS_NAME>
5-bromo-N-[[2-(1-pyrazolylmethyl)phenyl]methyl]-3-pyridinecarboxamide

> <PUBCHEM_IUPAC_NAME>
5-bromo-N-[[2-(pyrazol-1-ylmethyl)phenyl]methyl]pyridine-3-carboxamide

> <PUBCHEM_IUPAC_SYSTEMATIC_NAME>
5-bromanyl-N-[[2-(pyrazol-1-ylmethyl)phenyl]methyl]pyridine-3-carboxamide

> <PUBCHEM_IUPAC_TRADITIONAL_NAME>
5-bromo-N-[2-(pyrazol-1-ylmethyl)benzyl]nicotinamide

> <PUBCHEM_IUPAC_INCHI>
InChI=1S/C17H15BrN4O/c18-16-8-15(9-19-11-16)17(23)20-10-13-4-1-2-5-14(13)12-22-7-3-6-21-22/h1-9,11H,10,12H2,(H,20,23)

> <PUBCHEM_IUPAC_INCHIKEY>
LVCWGKLEZDEXRW-UHFFFAOYSA-N

> <PUBCHEM_XLOGP3_AA>
2.2

> <PUBCHEM_EXACT_MASS>
370.042923

> <PUBCHEM_MOLECULAR_FORMULA>
C17H15BrN4O

> <PUBCHEM_MOLECULAR_WEIGHT>
371.2312

> <PUBCHEM_OPENEYE_CAN_SMILES>
C1=CC=C(C(=C1)CNC(=O)C2=CC(=CN=C2)Br)CN3C=CC=N3

> <PUBCHEM_OPENEYE_ISO_SMILES>
C1=CC=C(C(=C1)CNC(=O)C2=CC(=CN=C2)Br)CN3C=CC=N3

> <PUBCHEM_CACTVS_TPSA>
59.8

> <PUBCHEM_MONOISOTOPIC_WEIGHT>
370.042923

> <PUBCHEM_TOTAL_CHARGE>
0

> <PUBCHEM_HEAVY_ATOM_COUNT>
23

> <PUBCHEM_ATOM_DEF_STEREO_COUNT>
0

> <PUBCHEM_ATOM_UDEF_STEREO_COUNT>
0

> <PUBCHEM_BOND_DEF_STEREO_COUNT>
0

> <PUBCHEM_BOND_UDEF_STEREO_COUNT>
0

> <PUBCHEM_ISOTOPIC_ATOM_COUNT>
0

> <PUBCHEM_COMPONENT_COUNT>
1

> <PUBCHEM_CACTVS_TAUTO_COUNT>
2

> <PUBCHEM_COORDINATE_TYPE>
1
5
255

> <PUBCHEM_BONDANNOTATIONS>
11  13  8
12  14  8
13  14  8
15  17  8
17  19  8
18  20  8
18  21  8
20  22  8
22  23  8
3  15  8
3  5  8
5  19  8
6  21  8
6  23  8
7  11  8
7  8  8
8  12  8

$$$$

