854089
  -OEChem-06241222473D

 27 28  0     1  0  0  0  0  0999 V2000
    3.2848    2.6282    0.0595 Cl  0  0  0  0  0  0  0  0  0  0  0  0
    0.2497   -2.3631   -0.0239 N   0  0  0  0  0  0  0  0  0  0  0  0
   -3.9256    1.7828   -0.1194 N   0  0  0  0  0  0  0  0  0  0  0  0
   -2.0561    0.3393   -0.8685 C   0  0  0  0  0  0  0  0  0  0  0  0
   -0.9309   -0.5466   -0.5074 C   0  0  0  0  0  0  0  0  0  0  0  0
   -2.8573    0.8901    0.3400 C   0  0  2  0  0  0  0  0  0  0  0  0
    0.4118   -0.1499   -0.2526 C   0  0  0  0  0  0  0  0  0  0  0  0
    1.1315   -1.3082    0.0479 C   0  0  0  0  0  0  0  0  0  0  0  0
   -0.9990   -1.9127   -0.3590 C   0  0  0  0  0  0  0  0  0  0  0  0
   -3.4886   -0.2238    1.1751 C   0  0  0  0  0  0  0  0  0  0  0  0
    1.0859    1.0875   -0.2490 C   0  0  0  0  0  0  0  0  0  0  0  0
    2.4972   -1.2911    0.3529 C   0  0  0  0  0  0  0  0  0  0  0  0
    2.4519    1.1199    0.0543 C   0  0  0  0  0  0  0  0  0  0  0  0
    3.1447   -0.0524    0.3503 C   0  0  0  0  0  0  0  0  0  0  0  0
   -1.6764    1.1831   -1.4603 H   0  0  0  0  0  0  0  0  0  0  0  0
   -2.7395   -0.2025   -1.5377 H   0  0  0  0  0  0  0  0  0  0  0  0
   -2.1820    1.4666    0.9844 H   0  0  0  0  0  0  0  0  0  0  0  0
   -1.8220   -2.6063   -0.4620 H   0  0  0  0  0  0  0  0  0  0  0  0
    0.4903   -3.3299    0.1460 H   0  0  0  0  0  0  0  0  0  0  0  0
   -2.7260   -0.8368    1.6652 H   0  0  0  0  0  0  0  0  0  0  0  0
   -4.1166   -0.8801    0.5621 H   0  0  0  0  0  0  0  0  0  0  0  0
   -4.1160    0.1914    1.9726 H   0  0  0  0  0  0  0  0  0  0  0  0
    0.5474    2.0033   -0.4784 H   0  0  0  0  0  0  0  0  0  0  0  0
    3.0372   -2.2033    0.5835 H   0  0  0  0  0  0  0  0  0  0  0  0
   -3.5204    2.5599   -0.6397 H   0  0  0  0  0  0  0  0  0  0  0  0
   -4.4008    2.1920    0.6840 H   0  0  0  0  0  0  0  0  0  0  0  0
    4.2066   -0.0201    0.5850 H   0  0  0  0  0  0  0  0  0  0  0  0
  1 13  1  0  0  0  0
  2  8  1  0  0  0  0
  2  9  1  0  0  0  0
  2 19  1  0  0  0  0
  3  6  1  0  0  0  0
  3 25  1  0  0  0  0
  3 26  1  0  0  0  0
  4  5  1  0  0  0  0
  4  6  1  0  0  0  0
  4 15  1  0  0  0  0
  4 16  1  0  0  0  0
  5  7  1  0  0  0  0
  5  9  2  0  0  0  0
  6 10  1  0  0  0  0
  6 17  1  0  0  0  0
  7  8  2  0  0  0  0
  7 11  1  0  0  0  0
  8 12  1  0  0  0  0
  9 18  1  0  0  0  0
 10 20  1  0  0  0  0
 10 21  1  0  0  0  0
 10 22  1  0  0  0  0
 11 13  2  0  0  0  0
 11 23  1  0  0  0  0
 12 14  2  0  0  0  0
 12 24  1  0  0  0  0
 13 14  1  0  0  0  0
 14 27  1  0  0  0  0
M  END
> <PUBCHEM_COMPOUND_CID>
854089

> <PUBCHEM_CONFORMER_RMSD>
0.6

> <PUBCHEM_CONFORMER_DIVERSEORDER>
1
6
10
9
8
5
7
3
4
2

> <PUBCHEM_MMFF94_PARTIAL_CHARGES>
19
1 -0.18
11 -0.15
12 -0.15
13 0.18
14 -0.15
18 0.15
19 0.27
2 0.03
23 0.15
24 0.15
25 0.36
26 0.36
27 0.15
3 -0.99
4 0.18
5 -0.18
6 0.27
8 -0.15
9 -0.3

> <PUBCHEM_EFFECTIVE_ROTOR_COUNT>
2

> <PUBCHEM_PHARMACOPHORE_FEATURES>
6
1 2 cation
1 2 donor
1 3 cation
1 3 donor
5 2 5 7 8 9 rings
6 7 8 11 12 13 14 rings

> <PUBCHEM_HEAVY_ATOM_COUNT>
14

> <PUBCHEM_ATOM_DEF_STEREO_COUNT>
1

> <PUBCHEM_ATOM_UDEF_STEREO_COUNT>
0

> <PUBCHEM_BOND_DEF_STEREO_COUNT>
0

> <PUBCHEM_BOND_UDEF_STEREO_COUNT>
0

> <PUBCHEM_ISOTOPIC_ATOM_COUNT>
0

> <PUBCHEM_COMPONENT_COUNT>
1

> <PUBCHEM_CACTVS_TAUTO_COUNT>
1

> <PUBCHEM_CONFORMER_ID>
000D084900000001

> <PUBCHEM_MMFF94_ENERGY>
13.7858

> <PUBCHEM_FEATURE_SELFOVERLAP>
30.538

> <PUBCHEM_SHAPE_FINGERPRINT>
10465860 228 18116989099305500649
10608611 8 18342458200882660837
10980938 120 18410572885766436992
11471102 20 18267028434366982197
11471102 22 18271795865361501523
11769659 78 10087655796568448132
12202030 40 14404087792983529018
12251169 10 18342739615360479851
12346645 44 18266741281654619524
12390115 104 17904746805279674344
12491281 212 18268431243990437048
13140716 1 18340776970267883042
13380535 21 18340199670876016502
13705890 14 8214131950101738204
13897977 13 18339636746745367321
13922767 16 18338240491062553977
14026960 21 18341887468327062945
14123255 52 18337953385484412728
15775835 57 18334010562556680513
16945 1 18340218487006641870
1741750 31 18189617133915155360
17844478 74 17846779641249540045
18186145 218 18114173151010409828
20510252 161 17975413508085325906
20671657 1 18410572890430766918
21501502 16 18266187136510885558
21524375 3 18260833674276717151
22094290 62 18409451409797338928
2748010 2 18342745113018683366
81228 2 17837218069086111130

> <PUBCHEM_SHAPE_MULTIPOLES>
280.02
6.1
2.43
0.83
2.16
0.14
-0.06
3.97
-1.26
-0.96
0.05
0.45
0
-0.1

> <PUBCHEM_SHAPE_SELFOVERLAP>
588.901

> <PUBCHEM_SHAPE_VOLUME>
160.3

> <PUBCHEM_COORDINATE_TYPE>
2
5
10

$$$$

