17395464
  -OEChem-06241222503D

 38 40  0     1  0  0  0  0  0999 V2000
   -5.3479    0.0491    0.5746 S   0  0  0  0  0  0  0  0  0  0  0  0
    6.5571    0.0577    0.8523 F   0  0  0  0  0  0  0  0  0  0  0  0
   -6.0901   -1.1322    0.1863 O   0  0  0  0  0  0  0  0  0  0  0  0
   -5.7956    0.9324    1.6311 O   0  0  0  0  0  0  0  0  0  0  0  0
    1.4000    0.7678   -0.7134 O   0  0  0  0  0  0  0  0  0  0  0  0
   -0.8602   -1.5383   -1.5957 O   0  0  0  0  0  0  0  0  0  0  0  0
   -1.4845    0.1190   -0.1042 N   0  0  0  0  0  0  0  0  0  0  0  0
   -2.8895   -0.0556   -0.3752 C   0  0  1  0  0  0  0  0  0  0  0  0
   -3.6521   -0.4151    0.8983 C   0  0  0  0  0  0  0  0  0  0  0  0
   -3.5096    1.2467   -0.8860 C   0  0  0  0  0  0  0  0  0  0  0  0
   -5.0172    1.0213   -0.8875 C   0  0  0  0  0  0  0  0  0  0  0  0
   -0.5281   -0.6815   -0.7740 C   0  0  0  0  0  0  0  0  0  0  0  0
   -1.1455    1.1315    0.9033 C   0  0  0  0  0  0  0  0  0  0  0  0
    0.8845   -0.4651   -0.4682 C   0  0  0  0  0  0  0  0  0  0  0  0
    1.8483   -1.3036    0.0425 C   0  0  0  0  0  0  0  0  0  0  0  0
    3.0431   -0.5402    0.1193 C   0  0  0  0  0  0  0  0  0  0  0  0
    2.7145    0.7250   -0.3566 C   0  0  0  0  0  0  0  0  0  0  0  0
    1.6756   -2.7169    0.4314 C   0  0  0  0  0  0  0  0  0  0  0  0
    4.3638   -0.7782    0.5381 C   0  0  0  0  0  0  0  0  0  0  0  0
    3.6161    1.7839   -0.4478 C   0  0  0  0  0  0  0  0  0  0  0  0
    5.2935    0.2676    0.4579 C   0  0  0  0  0  0  0  0  0  0  0  0
    4.9238    1.5249   -0.0266 C   0  0  0  0  0  0  0  0  0  0  0  0
   -3.0514   -0.8401   -1.1242 H   0  0  0  0  0  0  0  0  0  0  0  0
   -3.6115   -1.4904    1.0956 H   0  0  0  0  0  0  0  0  0  0  0  0
   -3.3486    0.1082    1.8060 H   0  0  0  0  0  0  0  0  0  0  0  0
   -3.1474    1.5022   -1.8877 H   0  0  0  0  0  0  0  0  0  0  0  0
   -3.2853    2.1024   -0.2399 H   0  0  0  0  0  0  0  0  0  0  0  0
   -5.5820    1.9549   -0.8477 H   0  0  0  0  0  0  0  0  0  0  0  0
   -5.3251    0.4336   -1.7573 H   0  0  0  0  0  0  0  0  0  0  0  0
   -0.6274    1.9518    0.3966 H   0  0  0  0  0  0  0  0  0  0  0  0
   -0.4616    0.6900    1.6345 H   0  0  0  0  0  0  0  0  0  0  0  0
   -2.0021    1.5521    1.4300 H   0  0  0  0  0  0  0  0  0  0  0  0
    0.6539   -2.9152    0.7717 H   0  0  0  0  0  0  0  0  0  0  0  0
    1.8857   -3.3733   -0.4192 H   0  0  0  0  0  0  0  0  0  0  0  0
    2.3508   -2.9900    1.2487 H   0  0  0  0  0  0  0  0  0  0  0  0
    4.6688   -1.7491    0.9166 H   0  0  0  0  0  0  0  0  0  0  0  0
    3.3218    2.7562   -0.8245 H   0  0  0  0  0  0  0  0  0  0  0  0
    5.6667    2.3170   -0.0772 H   0  0  0  0  0  0  0  0  0  0  0  0
  1  3  2  0  0  0  0
  1  4  2  0  0  0  0
  1  9  1  0  0  0  0
  1 11  1  0  0  0  0
  2 21  1  0  0  0  0
  5 14  1  0  0  0  0
  5 17  1  0  0  0  0
  6 12  2  0  0  0  0
  7  8  1  0  0  0  0
  7 12  1  0  0  0  0
  7 13  1  0  0  0  0
  8  9  1  0  0  0  0
  8 10  1  0  0  0  0
  8 23  1  0  0  0  0
  9 24  1  0  0  0  0
  9 25  1  0  0  0  0
 10 11  1  0  0  0  0
 10 26  1  0  0  0  0
 10 27  1  0  0  0  0
 11 28  1  0  0  0  0
 11 29  1  0  0  0  0
 12 14  1  0  0  0  0
 13 30  1  0  0  0  0
 13 31  1  0  0  0  0
 13 32  1  0  0  0  0
 14 15  2  0  0  0  0
 15 16  1  0  0  0  0
 15 18  1  0  0  0  0
 16 17  2  0  0  0  0
 16 19  1  0  0  0  0
 17 20  1  0  0  0  0
 18 33  1  0  0  0  0
 18 34  1  0  0  0  0
 18 35  1  0  0  0  0
 19 21  2  0  0  0  0
 19 36  1  0  0  0  0
 20 22  2  0  0  0  0
 20 37  1  0  0  0  0
 21 22  1  0  0  0  0
 22 38  1  0  0  0  0
M  END
> <PUBCHEM_COMPOUND_CID>
17395464

> <PUBCHEM_CONFORMER_RMSD>
0.6

> <PUBCHEM_CONFORMER_DIVERSEORDER>
3
74
63
94
83
55
51
69
54
88
32
4
16
50
30
70
13
95
15
86
75
91
19
10
29
22
77
23
79
61
89
62
25
44
31
7
90
81
58
47
48
64
59
68
24
46
72
80
92
21
39
20
71
17
87
66
6
18
82
84
35
9
37
52
76
65
73
34
85
41
5
26
2
93
38
11
53
40
45
8
28
12
14
27
67
1
56
43
36
42
49
78
60
33
57

> <PUBCHEM_MMFF94_PARTIAL_CHARGES>
23
1 1.09
11 0.11
12 0.71
13 0.3
14 0.05
15 -0.18
17 0.14
18 0.18
19 -0.15
2 -0.19
20 -0.15
21 0.19
22 -0.15
3 -0.65
36 0.15
37 0.15
38 0.15
4 -0.65
5 -0.28
6 -0.57
7 -0.66
8 0.3
9 0.11

> <PUBCHEM_EFFECTIVE_ROTOR_COUNT>
3.8

> <PUBCHEM_PHARMACOPHORE_FEATURES>
7
1 3 acceptor
1 4 acceptor
1 5 acceptor
1 6 acceptor
5 1 8 9 10 11 rings
5 5 14 15 16 17 rings
6 16 17 19 20 21 22 rings

> <PUBCHEM_HEAVY_ATOM_COUNT>
22

> <PUBCHEM_ATOM_DEF_STEREO_COUNT>
0

> <PUBCHEM_ATOM_UDEF_STEREO_COUNT>
1

> <PUBCHEM_BOND_DEF_STEREO_COUNT>
0

> <PUBCHEM_BOND_UDEF_STEREO_COUNT>
0

> <PUBCHEM_ISOTOPIC_ATOM_COUNT>
0

> <PUBCHEM_COMPONENT_COUNT>
1

> <PUBCHEM_CACTVS_TAUTO_COUNT>
1

> <PUBCHEM_CONFORMER_ID>
01096F0800000003

> <PUBCHEM_MMFF94_ENERGY>
48.7848

> <PUBCHEM_FEATURE_SELFOVERLAP>
35.639

> <PUBCHEM_SHAPE_FINGERPRINT>
10 15 18130514037837506000
10090160 65 18412830191797040279
10354089 29 18413389830826256176
11045977 3 17846494799081708000
11089746 13 17676214554295770768
11315181 36 15626219118074111221
11370993 70 17988924479003811667
11646440 116 17967249776199574016
12107183 9 17621606437524128977
12166972 35 18273210881161400460
12236239 1 18113900467910901298
12507560 40 18272652397873045143
12596602 18 18186516614240926811
12616971 3 18335144176119051740
12788726 201 17023458767772045305
12916748 109 16877935040533515744
13533116 47 17988646337116758866
13583140 156 18059586818682086935
13631057 29 18116442445102286967
14251764 18 17632580436038498624
14341114 176 18060415824421279844
14341114 328 18334855013430618187
14787075 74 18411139091658853971
15183329 4 8142094143495276523
15188451 53 16128366035872414825
15475509 35 15912787058942314832
17349148 13 13326850046051291673
18222031 100 13398630541420478654
19489759 90 16988847185607285805
19784866 9 18411141346421388010
200 152 18409171025858333501
21033648 29 18337128824709550665
21033650 10 14708302804882043192
21065199 12 18060137695492910407
21150785 3 15285646508473825393
21267235 1 18412543245812410982
21285901 2 5256136704860250016
22079108 93 18272091556727616354
221357 26 7493008436111121531
2215653 11 7925631077447950697
22224240 67 18272656718947917506
23402539 116 13758077402648050207
23557571 272 16486979539298412583
23559900 14 18054515969755155115
26918003 58 18060135431802545881
314173 85 14333129688945722015
335352 9 18412829076060143902
351380 3 12175904342090616640
3545911 37 18334858316481891502
42630746 31 18410009949194127598
4325135 7 18408888413153204599
4340502 62 18201996633868736963
465052 167 10735871798460475865
474 4 18412546496749258608
5104073 3 18198073482587403554
542803 24 17676486159711824761
7495541 125 18262798458911893697

> <PUBCHEM_SHAPE_MULTIPOLES>
420.87
14.51
1.79
1.09
4.85
0.59
0.02
-3.14
4.05
-1.07
-0.11
0.95
-0.03
-0.16

> <PUBCHEM_SHAPE_SELFOVERLAP>
899.062

> <PUBCHEM_SHAPE_VOLUME>
237.7

> <PUBCHEM_COORDINATE_TYPE>
2
5
10

$$$$

