47205114
  -OEChem-06241222583D

 35 37  0     1  0  0  0  0  0999 V2000
   -1.6163   -1.1630   -0.0166 O   0  0  0  0  0  0  0  0  0  0  0  0
   -1.9591    1.6947   -0.1230 O   0  0  0  0  0  0  0  0  0  0  0  0
    0.7600   -1.6797    0.8461 O   0  0  0  0  0  0  0  0  0  0  0  0
    1.6482   -0.7858   -1.1113 N   0  0  0  0  0  0  0  0  0  0  0  0
    4.4366    0.6641   -0.7352 N   0  0  0  0  0  0  0  0  0  0  0  0
    5.2434    1.3194    0.1167 N   0  0  0  0  0  0  0  0  0  0  0  0
   -0.6071   -0.2752   -0.5077 C   0  0  1  0  0  0  0  0  0  0  0  0
   -0.6980    1.0799    0.1857 C   0  0  1  0  0  0  0  0  0  0  0  0
    0.6548   -0.9994   -0.1711 C   0  0  0  0  0  0  0  0  0  0  0  0
    0.3881    2.0433   -0.2809 C   0  0  0  0  0  0  0  0  0  0  0  0
   -2.8428   -0.5592    0.0561 C   0  0  0  0  0  0  0  0  0  0  0  0
   -3.0093    0.8248   -0.0054 C   0  0  0  0  0  0  0  0  0  0  0  0
    2.9718   -1.3561   -1.0065 C   0  0  0  0  0  0  0  0  0  0  0  0
   -3.9527   -1.3908    0.2084 C   0  0  0  0  0  0  0  0  0  0  0  0
   -4.2897    1.3771    0.0413 C   0  0  0  0  0  0  0  0  0  0  0  0
    3.9010   -0.4789   -0.2182 C   0  0  0  0  0  0  0  0  0  0  0  0
   -5.2318   -0.8373    0.2688 C   0  0  0  0  0  0  0  0  0  0  0  0
   -5.4004    0.5447    0.1798 C   0  0  0  0  0  0  0  0  0  0  0  0
    4.3915   -0.5782    1.0608 C   0  0  0  0  0  0  0  0  0  0  0  0
    5.2118    0.5558    1.2122 C   0  0  0  0  0  0  0  0  0  0  0  0
   -0.7334   -0.1903   -1.5952 H   0  0  0  0  0  0  0  0  0  0  0  0
   -0.6347    0.9741    1.2775 H   0  0  0  0  0  0  0  0  0  0  0  0
    0.2117    3.0422    0.1336 H   0  0  0  0  0  0  0  0  0  0  0  0
    1.3841    1.7206    0.0335 H   0  0  0  0  0  0  0  0  0  0  0  0
    0.3763    2.1522   -1.3710 H   0  0  0  0  0  0  0  0  0  0  0  0
    1.4606   -0.1833   -1.9074 H   0  0  0  0  0  0  0  0  0  0  0  0
    2.9000   -2.3428   -0.5354 H   0  0  0  0  0  0  0  0  0  0  0  0
    3.3535   -1.4936   -2.0239 H   0  0  0  0  0  0  0  0  0  0  0  0
   -3.8306   -2.4688    0.2698 H   0  0  0  0  0  0  0  0  0  0  0  0
   -4.4293    2.4531   -0.0188 H   0  0  0  0  0  0  0  0  0  0  0  0
   -6.0977   -1.4833    0.3808 H   0  0  0  0  0  0  0  0  0  0  0  0
   -6.3975    0.9733    0.2228 H   0  0  0  0  0  0  0  0  0  0  0  0
    4.1851   -1.3569    1.7805 H   0  0  0  0  0  0  0  0  0  0  0  0
    4.2943    1.0566   -1.6576 H   0  0  0  0  0  0  0  0  0  0  0  0
    5.7875    0.8576    2.0753 H   0  0  0  0  0  0  0  0  0  0  0  0
  1  7  1  0  0  0  0
  1 11  1  0  0  0  0
  2  8  1  0  0  0  0
  2 12  1  0  0  0  0
  3  9  2  0  0  0  0
  4  9  1  0  0  0  0
  4 13  1  0  0  0  0
  4 26  1  0  0  0  0
  5  6  1  0  0  0  0
  5 16  1  0  0  0  0
  5 34  1  0  0  0  0
  6 20  2  0  0  0  0
  7  8  1  0  0  0  0
  7  9  1  0  0  0  0
  7 21  1  0  0  0  0
  8 10  1  0  0  0  0
  8 22  1  0  0  0  0
 10 23  1  0  0  0  0
 10 24  1  0  0  0  0
 10 25  1  0  0  0  0
 11 12  1  0  0  0  0
 11 14  2  0  0  0  0
 12 15  2  0  0  0  0
 13 16  1  0  0  0  0
 13 27  1  0  0  0  0
 13 28  1  0  0  0  0
 14 17  1  0  0  0  0
 14 29  1  0  0  0  0
 15 18  1  0  0  0  0
 15 30  1  0  0  0  0
 16 19  2  0  0  0  0
 17 18  2  0  0  0  0
 17 31  1  0  0  0  0
 18 32  1  0  0  0  0
 19 20  1  0  0  0  0
 19 33  1  0  0  0  0
 20 35  1  0  0  0  0
M  END
> <PUBCHEM_COMPOUND_CID>
47205114

> <PUBCHEM_CONFORMER_RMSD>
0.6

> <PUBCHEM_CONFORMER_DIVERSEORDER>
1
175
55
89
267
71
227
299
52
107
207
154
179
276
195
230
17
183
223
136
58
199
19
211
104
245
180
208
46
87
238
271
86
235
142
167
143
130
56
10
270
164
48
290
282
201
155
294
174
16
118
251
288
12
159
161
60
198
158
69
229
43
99
191
131
147
138
202
298
128
5
215
127
216
219
177
8
190
256
200
30
194
193
23
221
149
232
186
111
165
188
274
31
122
126
181
106
189
113
313
132
2
249
36
222
124
292
152
210
231
144
101
169
197
4
54
173
105
293
100
272
233
73
212
39
220
261
146
9
213
185
311
166
204
35
3
140
253
65
50
250
297
302
108
254
145
61
11
278
133
115
171
45
57
246
47
66
7
41
291
260
314
268
49
241
121
74
151
63
263
287
259
81
162
234
6
304
163
255
209
264
84
51
148
275
85
218
72
139
196
257
125
88
239
21
37
312
78
226
76
93
273
14
266
283
252
153
243
38
258
134
206
228
192
244
26
214
289
310
187
40
285
303
42
25
94
265
262
160
306
82
217
96
97
301
13
248
286
242
53
225
308
309
22
120
178
137
172
62
95
141
102
295
240
135
68
203
83
305
116
27
224
79
269
59
129
34
44
281
70
110
205
170
24
114
92
119
90
117
307
279
123
284
236
182
80
157
237
109
184
18
103
156
176
98
91
150
75
300
64
32
15
247
280
77
168
112
20
296
33
67
29
277
28

> <PUBCHEM_MMFF94_PARTIAL_CHARGES>
27
1 -0.36
11 0.08
12 0.08
13 0.48
14 -0.15
15 -0.15
16 -0.33
17 -0.15
18 -0.15
19 -0.15
2 -0.36
20 0.14
26 0.37
29 0.15
3 -0.57
30 0.15
31 0.15
32 0.15
33 0.15
34 0.27
35 0.15
4 -0.73
5 0.3
6 -0.71
7 0.34
8 0.28
9 0.57

> <PUBCHEM_EFFECTIVE_ROTOR_COUNT>
4.8

> <PUBCHEM_PHARMACOPHORE_FEATURES>
9
1 1 acceptor
1 2 acceptor
1 3 acceptor
1 4 donor
1 5 donor
1 6 acceptor
5 5 6 16 19 20 rings
6 1 2 7 8 11 12 rings
6 11 12 14 15 17 18 rings

> <PUBCHEM_HEAVY_ATOM_COUNT>
20

> <PUBCHEM_ATOM_DEF_STEREO_COUNT>
0

> <PUBCHEM_ATOM_UDEF_STEREO_COUNT>
2

> <PUBCHEM_BOND_DEF_STEREO_COUNT>
0

> <PUBCHEM_BOND_UDEF_STEREO_COUNT>
0

> <PUBCHEM_ISOTOPIC_ATOM_COUNT>
0

> <PUBCHEM_COMPONENT_COUNT>
1

> <PUBCHEM_CACTVS_TAUTO_COUNT>
4

> <PUBCHEM_CONFORMER_ID>
02D04AFA00000001

> <PUBCHEM_MMFF94_ENERGY>
42.5974

> <PUBCHEM_FEATURE_SELFOVERLAP>
45.724

> <PUBCHEM_SHAPE_FINGERPRINT>
11128504 68 13912325668442223826
11132069 177 18412257371903005087
12236239 1 17489588973798349690
12596602 18 17417812812140946176
12730499 353 17603299350332182270
13533116 47 17560525105269176754
14341114 328 18343867710454247906
14528608 73 17022907843436830132
14787075 74 18410856525364486328
15048467 5 17167860867915662691
15196674 1 18410290341253218348
15375358 24 18334853943873095735
15788980 27 16128658561051099271
17349148 13 16343695573312385326
1813 80 17561359586690550996
18785283 64 18266740173363867624
20369508 70 11959729357302110278
21150785 3 17531259357302127709
23227448 37 17968665891351662596
23402539 116 18410017615125273111
23557571 272 18188757448686360388
23559900 14 18119527893192662814
23622692 118 17970638377153883887
2916195 48 18334581230444721345
3009799 131 18341623616165313383
32948 21 9151176454440170178
34797466 226 16877938308919524285
34934 24 18410859906041974383
3545911 37 18333729135378322862
3680242 22 18272366524728549760
4325135 7 18333452023497508959
4340502 62 16845285077523294683
5104073 3 18337103596224245515
5374978 207 18413390955981178202
542803 24 14345792755799237435
6913067 236 17704080594259646551

> <PUBCHEM_SHAPE_MULTIPOLES>
379.04
12.66
1.79
0.92
3.2
0.34
0.05
1.24
2.4
-0.32
-0.06
0.98
-0.13
0.38

> <PUBCHEM_SHAPE_SELFOVERLAP>
820.66

> <PUBCHEM_SHAPE_VOLUME>
206.2

> <PUBCHEM_COORDINATE_TYPE>
2
5
10

$$$$

