7704
  -OEChem-06261202153D

 24 24  0     1  0  0  0  0  0999 V2000
   -0.8680   -0.6860    0.0951 O   0  0  0  0  0  0  0  0  0  0  0  0
   -2.9166   -1.6751   -0.2059 O   0  0  0  0  0  0  0  0  0  0  0  0
   -0.4143    0.6412    0.3943 C   0  0  1  0  0  0  0  0  0  0  0  0
    0.9366    0.8822   -0.2522 C   0  0  0  0  0  0  0  0  0  0  0  0
   -1.5040    1.5410   -0.1441 C   0  0  0  0  0  0  0  0  0  0  0  0
    1.9972   -0.0734    0.2938 C   0  0  0  0  0  0  0  0  0  0  0  0
   -2.7473    0.7215    0.1057 C   0  0  0  0  0  0  0  0  0  0  0  0
    3.3486    0.1498   -0.3844 C   0  0  0  0  0  0  0  0  0  0  0  0
   -2.2306   -0.6796   -0.0342 C   0  0  0  0  0  0  0  0  0  0  0  0
    4.3983   -0.8214    0.1318 C   0  0  0  0  0  0  0  0  0  0  0  0
   -0.3374    0.7305    1.4853 H   0  0  0  0  0  0  0  0  0  0  0  0
    1.2493    1.9195   -0.0841 H   0  0  0  0  0  0  0  0  0  0  0  0
    0.8602    0.7319   -1.3366 H   0  0  0  0  0  0  0  0  0  0  0  0
   -1.3848    1.6987   -1.2234 H   0  0  0  0  0  0  0  0  0  0  0  0
   -1.5286    2.5216    0.3394 H   0  0  0  0  0  0  0  0  0  0  0  0
    2.1007    0.0705    1.3762 H   0  0  0  0  0  0  0  0  0  0  0  0
    1.6845   -1.1125    0.1355 H   0  0  0  0  0  0  0  0  0  0  0  0
   -3.5225    0.9323   -0.6343 H   0  0  0  0  0  0  0  0  0  0  0  0
   -3.1307    0.8618    1.1204 H   0  0  0  0  0  0  0  0  0  0  0  0
    3.6888    1.1768   -0.2072 H   0  0  0  0  0  0  0  0  0  0  0  0
    3.2474    0.0239   -1.4687 H   0  0  0  0  0  0  0  0  0  0  0  0
    4.1035   -1.8577   -0.0621 H   0  0  0  0  0  0  0  0  0  0  0  0
    4.5467   -0.7020    1.2098 H   0  0  0  0  0  0  0  0  0  0  0  0
    5.3571   -0.6426   -0.3649 H   0  0  0  0  0  0  0  0  0  0  0  0
  1  3  1  0  0  0  0
  1  9  1  0  0  0  0
  2  9  2  0  0  0  0
  3  4  1  0  0  0  0
  3  5  1  0  0  0  0
  3 11  1  0  0  0  0
  4  6  1  0  0  0  0
  4 12  1  0  0  0  0
  4 13  1  0  0  0  0
  5  7  1  0  0  0  0
  5 14  1  0  0  0  0
  5 15  1  0  0  0  0
  6  8  1  0  0  0  0
  6 16  1  0  0  0  0
  6 17  1  0  0  0  0
  7  9  1  0  0  0  0
  7 18  1  0  0  0  0
  7 19  1  0  0  0  0
  8 10  1  0  0  0  0
  8 20  1  0  0  0  0
  8 21  1  0  0  0  0
 10 22  1  0  0  0  0
 10 23  1  0  0  0  0
 10 24  1  0  0  0  0
M  END
> <PUBCHEM_COMPOUND_CID>
7704

> <PUBCHEM_CONFORMER_RMSD>
0.6

> <PUBCHEM_CONFORMER_DIVERSEORDER>
1
24
11
21
3
23
5
7
18
2
15
8
22
17
19
12
13
16
9
14
10
20
6
4

> <PUBCHEM_MMFF94_PARTIAL_CHARGES>
5
1 -0.43
2 -0.57
3 0.28
7 0.06
9 0.66

> <PUBCHEM_EFFECTIVE_ROTOR_COUNT>
3.8

> <PUBCHEM_PHARMACOPHORE_FEATURES>
3
1 10 hydrophobe
1 2 acceptor
5 1 3 5 7 9 rings

> <PUBCHEM_HEAVY_ATOM_COUNT>
10

> <PUBCHEM_ATOM_DEF_STEREO_COUNT>
0

> <PUBCHEM_ATOM_UDEF_STEREO_COUNT>
1

> <PUBCHEM_BOND_DEF_STEREO_COUNT>
0

> <PUBCHEM_BOND_UDEF_STEREO_COUNT>
0

> <PUBCHEM_ISOTOPIC_ATOM_COUNT>
0

> <PUBCHEM_COMPONENT_COUNT>
1

> <PUBCHEM_CACTVS_TAUTO_COUNT>
2

> <PUBCHEM_CONFORMER_ID>
00001E1800000001

> <PUBCHEM_MMFF94_ENERGY>
3.3629

> <PUBCHEM_FEATURE_SELFOVERLAP>
15.223

> <PUBCHEM_SHAPE_FINGERPRINT>
12932764 1 17846506953981904952
13024252 1 16415473874649687625
14128692 85 18340484461145700821
14325111 11 18410855469214072480
177051 138 18407759227348447446
18186145 218 15410888557588047700
20201158 50 18186518843070340814
20279233 1 17458625648666115380
20281407 28 18333729117876557274
20645464 45 17676482878077242333
20871998 184 18186517687703078383
21061003 4 16950280689374820032
22485316 2 18411704313844822218
23402539 116 18114471153754940461
23552423 10 18200876162758163189
3248919 1 17530958120685106348
369184 2 14851605492229618317

> <PUBCHEM_SHAPE_MULTIPOLES>
194.06
6.64
1.39
0.65
6.52
0.14
-0.01
2.06
0.19
-1.08
0.08
0.09
-0.03
-0.19

> <PUBCHEM_SHAPE_SELFOVERLAP>
376.326

> <PUBCHEM_SHAPE_VOLUME>
119.7

> <PUBCHEM_COORDINATE_TYPE>
2
5
10

$$$$

