17395359
  -OEChem-06241222493D

 39 41  0     1  0  0  0  0  0999 V2000
   -4.3625   -1.6312    0.3274 S   0  0  0  0  0  0  0  0  0  0  0  0
    1.1641   -0.9247    1.2813 F   0  0  0  0  0  0  0  0  0  0  0  0
    6.1037   -1.4533   -1.0067 F   0  0  0  0  0  0  0  0  0  0  0  0
    0.6723    0.5841   -2.0281 O   0  0  0  0  0  0  0  0  0  0  0  0
   -0.3602    2.3393    2.1020 O   0  0  0  0  0  0  0  0  0  0  0  0
   -1.4930   -0.7909    0.5430 O   0  0  0  0  0  0  0  0  0  0  0  0
    1.6629    1.8048    1.0719 N   0  0  0  0  0  0  0  0  0  0  0  0
   -0.2258    1.4665   -0.0630 N   0  0  0  0  0  0  0  0  0  0  0  0
    2.1357    1.2955   -0.2053 C   0  0  2  0  0  0  0  0  0  0  0  0
    0.7874    1.0560   -0.9034 C   0  0  0  0  0  0  0  0  0  0  0  0
    2.9160    0.0006   -0.0267 C   0  0  0  0  0  0  0  0  0  0  0  0
    2.8490    2.4247   -0.9601 C   0  0  0  0  0  0  0  0  0  0  0  0
    0.2736    1.9208    1.1419 C   0  0  0  0  0  0  0  0  0  0  0  0
   -1.6395    1.4117   -0.3779 C   0  0  0  0  0  0  0  0  0  0  0  0
    2.3742   -1.0470    0.7179 C   0  0  0  0  0  0  0  0  0  0  0  0
    4.1759   -0.1366   -0.6095 C   0  0  0  0  0  0  0  0  0  0  0  0
   -2.2240    0.0741    0.0563 C   0  0  0  0  0  0  0  0  0  0  0  0
    4.8937   -1.3215   -0.4477 C   0  0  0  0  0  0  0  0  0  0  0  0
    3.0921   -2.2319    0.8796 C   0  0  0  0  0  0  0  0  0  0  0  0
   -3.6666   -0.1402   -0.1469 C   0  0  0  0  0  0  0  0  0  0  0  0
    4.3520   -2.3692    0.2968 C   0  0  0  0  0  0  0  0  0  0  0  0
   -4.5992    0.7161   -0.6892 C   0  0  0  0  0  0  0  0  0  0  0  0
   -5.9162   -1.1333   -0.1929 C   0  0  0  0  0  0  0  0  0  0  0  0
   -5.9025    0.1410   -0.7156 C   0  0  0  0  0  0  0  0  0  0  0  0
   -7.0630   -2.0554   -0.0451 C   0  0  0  0  0  0  0  0  0  0  0  0
    2.2793    2.0626    1.8366 H   0  0  0  0  0  0  0  0  0  0  0  0
    2.2105    3.3139   -1.0395 H   0  0  0  0  0  0  0  0  0  0  0  0
    3.7642    2.7371   -0.4436 H   0  0  0  0  0  0  0  0  0  0  0  0
    3.1065    2.1331   -1.9849 H   0  0  0  0  0  0  0  0  0  0  0  0
   -2.1536    2.2173    0.1556 H   0  0  0  0  0  0  0  0  0  0  0  0
   -1.7673    1.5205   -1.4595 H   0  0  0  0  0  0  0  0  0  0  0  0
    4.6376    0.6497   -1.1966 H   0  0  0  0  0  0  0  0  0  0  0  0
    2.6698   -3.0475    1.4592 H   0  0  0  0  0  0  0  0  0  0  0  0
    4.9112   -3.2916    0.4226 H   0  0  0  0  0  0  0  0  0  0  0  0
   -4.3734    1.7100   -1.0542 H   0  0  0  0  0  0  0  0  0  0  0  0
   -6.7821    0.6413   -1.1003 H   0  0  0  0  0  0  0  0  0  0  0  0
   -6.8980   -2.9799   -0.6085 H   0  0  0  0  0  0  0  0  0  0  0  0
   -7.2253   -2.3140    1.0067 H   0  0  0  0  0  0  0  0  0  0  0  0
   -7.9859   -1.6000   -0.4199 H   0  0  0  0  0  0  0  0  0  0  0  0
  1 20  1  0  0  0  0
  1 23  1  0  0  0  0
  2 15  1  0  0  0  0
  3 18  1  0  0  0  0
  4 10  2  0  0  0  0
  5 13  2  0  0  0  0
  6 17  2  0  0  0  0
  7  9  1  0  0  0  0
  7 13  1  0  0  0  0
  7 26  1  0  0  0  0
  8 10  1  0  0  0  0
  8 13  1  0  0  0  0
  8 14  1  0  0  0  0
  9 10  1  0  0  0  0
  9 11  1  0  0  0  0
  9 12  1  0  0  0  0
 11 15  2  0  0  0  0
 11 16  1  0  0  0  0
 12 27  1  0  0  0  0
 12 28  1  0  0  0  0
 12 29  1  0  0  0  0
 14 17  1  0  0  0  0
 14 30  1  0  0  0  0
 14 31  1  0  0  0  0
 15 19  1  0  0  0  0
 16 18  2  0  0  0  0
 16 32  1  0  0  0  0
 17 20  1  0  0  0  0
 18 21  1  0  0  0  0
 19 21  2  0  0  0  0
 19 33  1  0  0  0  0
 20 22  2  0  0  0  0
 21 34  1  0  0  0  0
 22 24  1  0  0  0  0
 22 35  1  0  0  0  0
 23 24  2  0  0  0  0
 23 25  1  0  0  0  0
 24 36  1  0  0  0  0
 25 37  1  0  0  0  0
 25 38  1  0  0  0  0
 25 39  1  0  0  0  0
M  END
> <PUBCHEM_COMPOUND_CID>
17395359

> <PUBCHEM_CONFORMER_RMSD>
0.8

> <PUBCHEM_CONFORMER_DIVERSEORDER>
2
104
233
265
259
327
222
74
298
347
165
228
62
110
411
153
396
76
442
382
475
413
479
310
338
126
44
438
398
476
433
231
68
11
67
362
383
379
364
52
10
94
466
99
275
292
209
464
80
278
409
180
309
272
128
149
369
92
287
346
375
440
271
140
461
39
335
100
377
182
473
141
191
389
8
36
198
251
17
247
399
194
147
437
187
152
210
295
365
142
268
460
54
456
447
125
186
354
283
204
449
290
88
154
306
86
20
135
326
457
47
200
237
106
392
178
199
397
424
159
146
216
314
429
366
445
193
478
419
179
166
9
274
49
171
430
124
267
462
79
57
328
225
240
95
431
307
221
213
349
455
262
169
381
45
286
361
81
414
69
284
201
144
108
60
109
443
319
72
208
46
323
50
340
428
300
78
98
24
87
450
138
301
235
232
120
333
356
172
468
150
348
423
371
339
477
254
56
37
270
425
229
148
134
253
202
219
384
400
244
102
279
336
160
163
243
89
370
434
342
75
391
471
119
97
418
116
459
117
175
63
227
453
118
320
303
121
16
224
26
96
337
73
402
408
255
38
114
177
318
421
388
252
111
167
441
416
260
170
410
91
256
304
417
316
214
131
463
218
34
412
420
406
242
289
33
266
145
422
452
263
155
325
101
285
246
436
55
308
451
427
41
151
277
90
137
472
294
112
3
168
385
291
157
311
373
27
59
176
407
358
162
330
245
173
107
250
189
249
426
205
122
32
236
192
374
238
439
357
230
15
215
395
93
329
83
61
293
405
317
282
241
281
185
324
273
393
113
139
297
257
380
84
4
29
288
353
341
105
355
133
7
14
223
280
234
359
352
197
48
196
248
432
161
387
51
103
181
206
474
376
386
23
264
239
415
40
115
132
129
220
296
58
188
315
299
211
143
305
174
276
469
77
401
435
13
368
350
64
65
351
195
43
261
321
378
458
184
226
158
71
332
130
28
322
70
42
444
343
19
212
164
331
66
446
344
313
367
190
136
448
404
312
123
334
403
217
22
207
372
345
269
5
465
183
82
156
467
394
390
30
363
6
35
25
21
360
53
258
203
127
302
85
31
1
454
12
470
18

> <PUBCHEM_MMFF94_PARTIAL_CHARGES>
30
1 -0.08
10 0.57
11 -0.14
13 0.69
14 0.36
15 0.19
16 -0.15
17 0.59
18 0.19
19 -0.15
2 -0.19
20 -0.05
21 -0.15
22 -0.15
23 -0.14
24 -0.15
25 0.18
26 0.37
3 -0.19
32 0.15
33 0.15
34 0.15
35 0.15
36 0.15
4 -0.57
5 -0.57
6 -0.57
7 -0.73
8 -0.42
9 0.5

> <PUBCHEM_EFFECTIVE_ROTOR_COUNT>
4.6

> <PUBCHEM_PHARMACOPHORE_FEATURES>
7
1 4 acceptor
1 5 acceptor
1 6 acceptor
1 7 donor
5 1 20 22 23 24 rings
5 7 8 9 10 13 rings
6 11 15 16 18 19 21 rings

> <PUBCHEM_HEAVY_ATOM_COUNT>
25

> <PUBCHEM_ATOM_DEF_STEREO_COUNT>
0

> <PUBCHEM_ATOM_UDEF_STEREO_COUNT>
1

> <PUBCHEM_BOND_DEF_STEREO_COUNT>
0

> <PUBCHEM_BOND_UDEF_STEREO_COUNT>
0

> <PUBCHEM_ISOTOPIC_ATOM_COUNT>
0

> <PUBCHEM_COMPONENT_COUNT>
1

> <PUBCHEM_CACTVS_TAUTO_COUNT>
4

> <PUBCHEM_CONFORMER_ID>
01096E9F00000002

> <PUBCHEM_MMFF94_ENERGY>
49.5113

> <PUBCHEM_FEATURE_SELFOVERLAP>
35.52

> <PUBCHEM_SHAPE_FINGERPRINT>
117089 54 17753317966556786006
11796584 16 18338234968124800439
11961588 58 15123498195250289098
12166972 35 18411415094963124501
12516196 113 18187369830483719274
12633257 1 14490771064840069278
12895836 83 11959432488550602910
13073987 5 18334574608454808337
13167823 11 18412830157969974135
13533116 47 18337110060592773259
13685833 64 18409448077050585683
13782708 43 18262521378298987799
13955234 65 18191590748370518545
14123256 34 18333725827821313127
14576447 43 18271242820077587042
14931854 50 18130785706802824278
15183329 4 18202005469138294837
15188451 53 15575296302549396901
17134984 74 17846499205660800803
17349148 13 16877943798583703597
17492 54 17560503080813967366
18222031 100 17603312561012982205
19784866 240 18334289898518170045
20028762 73 18334296487194129726
20369508 70 18187087209062139345
20388580 30 18411698798822120428
20554085 129 18045503015999124888
20645477 70 18271810098856707469
21033650 10 16630253605865194461
21150785 3 12463568453576493907
21250096 35 18334017207002761435
21267235 1 18412820283740089511
21641784 216 13901919946300489247
221357 26 18343305860049565795
2215653 11 18343030995264959343
23522609 53 18047157853865438297
23559900 14 18343587304571453173
239999 70 18411135810245499310
25222932 49 17825955810438019375
2838139 119 9799396807244708506
2871803 45 18060420231110369154
3004659 81 18272371970625709311
3411729 13 16662064525544698216
345986 75 18188781668075774459
3472631 163 12103546585921420074
4340502 62 18267029362497162624
439807 62 18272650135111458891
46194498 28 17275104981652502909
463206 1 18335144142044909767
465052 167 18113616780978625910
484989 97 18058436622103942995
5104073 3 17822007601980461969
7970288 3 18263083369594182286
8863177 126 18337953360316008811
960060 61 17775563143505283359
9709674 26 18059572430467824507
9841814 1 17313385569864146785

> <PUBCHEM_SHAPE_MULTIPOLES>
476.22
14.02
2.65
1.25
16.5
0.06
0.19
10.66
-3.49
-1.76
0.51
-0.57
-0.56
-0.02

> <PUBCHEM_SHAPE_SELFOVERLAP>
1026.939

> <PUBCHEM_SHAPE_VOLUME>
264.9

> <PUBCHEM_COORDINATE_TYPE>
2
5
10

$$$$

