4820
  -OEChem-06261200212D

 44 46  0     0  0  0  0  0  0999 V2000
    5.2709   -0.5955    0.0000 O   0  0  0  0  0  0  0  0  0  0  0  0
    3.5388   -2.5955    0.0000 N   0  0  0  0  0  0  0  0  0  0  0  0
    4.4049    0.9045    0.0000 N   0  0  0  0  0  0  0  0  0  0  0  0
    3.5388   -1.5955    0.0000 C   0  0  0  0  0  0  0  0  0  0  0  0
    2.5878   -1.2865    0.0000 C   0  0  0  0  0  0  0  0  0  0  0  0
    4.4851   -1.2908    0.0000 C   0  0  0  0  0  0  0  0  0  0  0  0
    2.5878   -2.9045    0.0000 C   0  0  0  0  0  0  0  0  0  0  0  0
    4.4851   -2.9002    0.0000 C   0  0  0  0  0  0  0  0  0  0  0  0
    5.0687   -2.0955    0.0000 C   0  0  0  0  0  0  0  0  0  0  0  0
    2.0000   -2.0955    0.0000 C   0  0  0  0  0  0  0  0  0  0  0  0
    3.5388   -0.5955    0.0000 C   0  0  0  0  0  0  0  0  0  0  0  0
    4.4049   -0.0955    0.0000 C   0  0  0  0  0  0  0  0  0  0  0  0
    5.2709    1.4045    0.0000 C   0  0  0  0  0  0  0  0  0  0  0  0
    6.1369    0.9045    0.0000 C   0  0  0  0  0  0  0  0  0  0  0  0
    5.2709    2.4045    0.0000 C   0  0  0  0  0  0  0  0  0  0  0  0
    7.0029    1.4045    0.0000 C   0  0  0  0  0  0  0  0  0  0  0  0
    6.1369    2.9045    0.0000 C   0  0  0  0  0  0  0  0  0  0  0  0
    6.1369   -0.0955    0.0000 C   0  0  0  0  0  0  0  0  0  0  0  0
    4.4049    2.9045    0.0000 C   0  0  0  0  0  0  0  0  0  0  0  0
    7.0029    2.4045    0.0000 C   0  0  0  0  0  0  0  0  0  0  0  0
    5.0224   -0.9815    0.0000 H   0  0  0  0  0  0  0  0  0  0  0  0
    4.2340   -0.7239    0.0000 H   0  0  0  0  0  0  0  0  0  0  0  0
    2.8400   -0.7201    0.0000 H   0  0  0  0  0  0  0  0  0  0  0  0
    2.0508   -0.9765    0.0000 H   0  0  0  0  0  0  0  0  0  0  0  0
    2.0508   -3.2145    0.0000 H   0  0  0  0  0  0  0  0  0  0  0  0
    2.8400   -3.4709    0.0000 H   0  0  0  0  0  0  0  0  0  0  0  0
    4.2340   -3.4671    0.0000 H   0  0  0  0  0  0  0  0  0  0  0  0
    5.0224   -3.2094    0.0000 H   0  0  0  0  0  0  0  0  0  0  0  0
    1.5392   -1.6806    0.0000 H   0  0  0  0  0  0  0  0  0  0  0  0
    1.5392   -2.5104    0.0000 H   0  0  0  0  0  0  0  0  0  0  0  0
    5.5295   -2.5102    0.0000 H   0  0  0  0  0  0  0  0  0  0  0  0
    5.5295   -1.6808    0.0000 H   0  0  0  0  0  0  0  0  0  0  0  0
    3.3268   -0.0129    0.0000 H   0  0  0  0  0  0  0  0  0  0  0  0
    2.9283   -0.7032    0.0000 H   0  0  0  0  0  0  0  0  0  0  0  0
    3.8679    1.2145    0.0000 H   0  0  0  0  0  0  0  0  0  0  0  0
    7.5399    1.0945    0.0000 H   0  0  0  0  0  0  0  0  0  0  0  0
    6.1369    3.5245    0.0000 H   0  0  0  0  0  0  0  0  0  0  0  0
    5.5169   -0.0955    0.0000 H   0  0  0  0  0  0  0  0  0  0  0  0
    6.1369   -0.7155    0.0000 H   0  0  0  0  0  0  0  0  0  0  0  0
    6.7569   -0.0955    0.0000 H   0  0  0  0  0  0  0  0  0  0  0  0
    4.7149    3.4414    0.0000 H   0  0  0  0  0  0  0  0  0  0  0  0
    3.8679    3.2145    0.0000 H   0  0  0  0  0  0  0  0  0  0  0  0
    4.0949    2.3676    0.0000 H   0  0  0  0  0  0  0  0  0  0  0  0
    7.5399    2.7145    0.0000 H   0  0  0  0  0  0  0  0  0  0  0  0
  1 12  2  0  0  0  0
  2  4  1  0  0  0  0
  2  7  1  0  0  0  0
  2  8  1  0  0  0  0
  3 12  1  0  0  0  0
  3 13  1  0  0  0  0
  3 35  1  0  0  0  0
  4  5  1  0  0  0  0
  4  6  1  0  0  0  0
  4 11  1  0  0  0  0
  5 10  1  0  0  0  0
  5 23  1  0  0  0  0
  5 24  1  0  0  0  0
  6  9  1  0  0  0  0
  6 21  1  0  0  0  0
  6 22  1  0  0  0  0
  7 10  1  0  0  0  0
  7 25  1  0  0  0  0
  7 26  1  0  0  0  0
  8  9  1  0  0  0  0
  8 27  1  0  0  0  0
  8 28  1  0  0  0  0
  9 31  1  0  0  0  0
  9 32  1  0  0  0  0
 10 29  1  0  0  0  0
 10 30  1  0  0  0  0
 11 12  1  0  0  0  0
 11 33  1  0  0  0  0
 11 34  1  0  0  0  0
 13 14  2  0  0  0  0
 13 15  1  0  0  0  0
 14 16  1  0  0  0  0
 14 18  1  0  0  0  0
 15 17  2  0  0  0  0
 15 19  1  0  0  0  0
 16 20  2  0  0  0  0
 16 36  1  0  0  0  0
 17 20  1  0  0  0  0
 17 37  1  0  0  0  0
 18 38  1  0  0  0  0
 18 39  1  0  0  0  0
 18 40  1  0  0  0  0
 19 41  1  0  0  0  0
 19 42  1  0  0  0  0
 19 43  1  0  0  0  0
 20 44  1  0  0  0  0
M  END
> <PUBCHEM_COMPOUND_CID>
4820

> <PUBCHEM_COMPOUND_CANONICALIZED>
1

> <PUBCHEM_CACTVS_COMPLEXITY>
348

> <PUBCHEM_CACTVS_HBOND_ACCEPTOR>
2

> <PUBCHEM_CACTVS_HBOND_DONOR>
1

> <PUBCHEM_CACTVS_ROTATABLE_BOND>
3

> <PUBCHEM_CACTVS_SUBSKEYS>
AAADceB7IAAAAAAAAAAAAAAAAAAAAWLAAAAwAAAAAAAWAAABAAAAHgAQAAAADIjBmAQywIPAAACIAiVSUACCAAAhAAAIiAEIRIgIIDrA0ZGEIAhglADIyAcYiEAOAAACAAACAAAAAAQAAAQAAAAAAAAAAA==

> <PUBCHEM_IUPAC_OPENEYE_NAME>
N-(2,6-dimethylphenyl)-2-(1,2,3,5,6,7-hexahydropyrrolizin-8-yl)acetamide

> <PUBCHEM_IUPAC_CAS_NAME>
N-(2,6-dimethylphenyl)-2-(1,2,3,5,6,7-hexahydropyrrolizin-8-yl)acetamide

> <PUBCHEM_IUPAC_NAME>
N-(2,6-dimethylphenyl)-2-(1,2,3,5,6,7-hexahydropyrrolizin-8-yl)acetamide

> <PUBCHEM_IUPAC_SYSTEMATIC_NAME>
N-(2,6-dimethylphenyl)-2-(1,2,3,5,6,7-hexahydropyrrolizin-8-yl)ethanamide

> <PUBCHEM_IUPAC_TRADITIONAL_NAME>
N-(2,6-dimethylphenyl)-2-pyrrolizidin-8-yl-acetamide

> <PUBCHEM_IUPAC_INCHI>
InChI=1S/C17H24N2O/c1-13-6-3-7-14(2)16(13)18-15(20)12-17-8-4-10-19(17)11-5-9-17/h3,6-7H,4-5,8-12H2,1-2H3,(H,18,20)

> <PUBCHEM_IUPAC_INCHIKEY>
BCQTVJKBTWGHCX-UHFFFAOYSA-N

> <PUBCHEM_XLOGP3_AA>
2.7

> <PUBCHEM_EXACT_MASS>
272.188863

> <PUBCHEM_MOLECULAR_FORMULA>
C17H24N2O

> <PUBCHEM_MOLECULAR_WEIGHT>
272.38526

> <PUBCHEM_OPENEYE_CAN_SMILES>
CC1=C(C(=CC=C1)C)NC(=O)CC23CCCN2CCC3

> <PUBCHEM_OPENEYE_ISO_SMILES>
CC1=C(C(=CC=C1)C)NC(=O)CC23CCCN2CCC3

> <PUBCHEM_CACTVS_TPSA>
32.3

> <PUBCHEM_MONOISOTOPIC_WEIGHT>
272.188863

> <PUBCHEM_TOTAL_CHARGE>
0

> <PUBCHEM_HEAVY_ATOM_COUNT>
20

> <PUBCHEM_ATOM_DEF_STEREO_COUNT>
0

> <PUBCHEM_ATOM_UDEF_STEREO_COUNT>
0

> <PUBCHEM_BOND_DEF_STEREO_COUNT>
0

> <PUBCHEM_BOND_UDEF_STEREO_COUNT>
0

> <PUBCHEM_ISOTOPIC_ATOM_COUNT>
0

> <PUBCHEM_COMPONENT_COUNT>
1

> <PUBCHEM_CACTVS_TAUTO_COUNT>
3

> <PUBCHEM_COORDINATE_TYPE>
1
5
255

> <PUBCHEM_BONDANNOTATIONS>
13  14  8
13  15  8
14  16  8
15  17  8
16  20  8
17  20  8

$$$$

