9203
  -OEChem-06261203302D

 27 30  0     0  0  0  0  0  0999 V2000
    4.5124    1.4266    0.0000 S   0  0  0  0  0  0  0  0  0  0  0  0
    5.0091   -0.1067    0.0000 C   0  0  0  0  0  0  0  0  0  0  0  0
    4.0150   -0.1041    0.0000 C   0  0  0  0  0  0  0  0  0  0  0  0
    5.3181    0.8444    0.0000 C   0  0  0  0  0  0  0  0  0  0  0  0
    6.6564   -0.6419    0.0000 C   0  0  0  0  0  0  0  0  0  0  0  0
    6.9654    0.3092    0.0000 C   0  0  0  0  0  0  0  0  0  0  0  0
    5.6782   -0.8498    0.0000 C   0  0  0  0  0  0  0  0  0  0  0  0
    3.7086    0.8416    0.0000 C   0  0  0  0  0  0  0  0  0  0  0  0
    6.2962    1.0523    0.0000 C   0  0  0  0  0  0  0  0  0  0  0  0
    3.3334   -0.8836    0.0000 C   0  0  0  0  0  0  0  0  0  0  0  0
    7.3413   -1.4266    0.0000 C   0  0  0  0  0  0  0  0  0  0  0  0
    2.6994    1.0734    0.0000 C   0  0  0  0  0  0  0  0  0  0  0  0
    7.9808    0.5414    0.0000 C   0  0  0  0  0  0  0  0  0  0  0  0
    2.3191   -0.6752    0.0000 C   0  0  0  0  0  0  0  0  0  0  0  0
    2.0000    0.3098    0.0000 C   0  0  0  0  0  0  0  0  0  0  0  0
    8.3618   -1.2179    0.0000 C   0  0  0  0  0  0  0  0  0  0  0  0
    8.6837   -0.2273    0.0000 C   0  0  0  0  0  0  0  0  0  0  0  0
    5.4866   -1.4394    0.0000 H   0  0  0  0  0  0  0  0  0  0  0  0
    6.4878    1.6420    0.0000 H   0  0  0  0  0  0  0  0  0  0  0  0
    3.5313   -1.4711    0.0000 H   0  0  0  0  0  0  0  0  0  0  0  0
    7.1429   -2.0140    0.0000 H   0  0  0  0  0  0  0  0  0  0  0  0
    2.5152    1.6654    0.0000 H   0  0  0  0  0  0  0  0  0  0  0  0
    8.1655    1.1332    0.0000 H   0  0  0  0  0  0  0  0  0  0  0  0
    1.9056   -1.1372    0.0000 H   0  0  0  0  0  0  0  0  0  0  0  0
    1.3942    0.4416    0.0000 H   0  0  0  0  0  0  0  0  0  0  0  0
    8.7749   -1.6803    0.0000 H   0  0  0  0  0  0  0  0  0  0  0  0
    9.2897   -0.0960    0.0000 H   0  0  0  0  0  0  0  0  0  0  0  0
  1  4  1  0  0  0  0
  1  8  1  0  0  0  0
  2  3  1  0  0  0  0
  2  4  1  0  0  0  0
  2  7  2  0  0  0  0
  3  8  1  0  0  0  0
  3 10  2  0  0  0  0
  4  9  2  0  0  0  0
  5  6  1  0  0  0  0
  5  7  1  0  0  0  0
  5 11  2  0  0  0  0
  6  9  1  0  0  0  0
  6 13  2  0  0  0  0
  7 18  1  0  0  0  0
  8 12  2  0  0  0  0
  9 19  1  0  0  0  0
 10 14  1  0  0  0  0
 10 20  1  0  0  0  0
 11 16  1  0  0  0  0
 11 21  1  0  0  0  0
 12 15  1  0  0  0  0
 12 22  1  0  0  0  0
 13 17  1  0  0  0  0
 13 23  1  0  0  0  0
 14 15  2  0  0  0  0
 14 24  1  0  0  0  0
 15 25  1  0  0  0  0
 16 17  2  0  0  0  0
 16 26  1  0  0  0  0
 17 27  1  0  0  0  0
M  END
> <PUBCHEM_COMPOUND_CID>
9203

> <PUBCHEM_COMPOUND_CANONICALIZED>
1

> <PUBCHEM_CACTVS_COMPLEXITY>
287

> <PUBCHEM_CACTVS_HBOND_ACCEPTOR>
1

> <PUBCHEM_CACTVS_HBOND_DONOR>
0

> <PUBCHEM_CACTVS_ROTATABLE_BOND>
0

> <PUBCHEM_CACTVS_SUBSKEYS>
AAADccB4AABAAAAAAAAAAAAAAAAAASAAAAAwYMAAAAAAAEjB/AAAGAQAAAAADACAWAAwAcAAAAiEAiBCAAADAIAgCBBIiBgAAIgIICKgERCAIAAggAAoiAcAgMAO0AACgAAUAACgAAUAACgAAAAAAAAAAA==

> <PUBCHEM_IUPAC_OPENEYE_NAME>
naphtho[2,3-b]benzothiophene

> <PUBCHEM_IUPAC_CAS_NAME>
naphtho[2,3-b][1]benzothiole

> <PUBCHEM_IUPAC_NAME>
naphtho[2,3-b][1]benzothiole

> <PUBCHEM_IUPAC_SYSTEMATIC_NAME>
naphtho[2,3-b][1]benzothiole

> <PUBCHEM_IUPAC_TRADITIONAL_NAME>
naphtho[2,3-b]benzothiophene

> <PUBCHEM_IUPAC_INCHI>
InChI=1S/C16H10S/c1-2-6-12-10-16-14(9-11(12)5-1)13-7-3-4-8-15(13)17-16/h1-10H

> <PUBCHEM_IUPAC_INCHIKEY>
UWMISBRPSJFHIR-UHFFFAOYSA-N

> <PUBCHEM_XLOGP3_AA>
5.2

> <PUBCHEM_EXACT_MASS>
234.050321

> <PUBCHEM_MOLECULAR_FORMULA>
C16H10S

> <PUBCHEM_MOLECULAR_WEIGHT>
234.3156

> <PUBCHEM_OPENEYE_CAN_SMILES>
C1=CC=C2C=C3C(=CC2=C1)C4=CC=CC=C4S3

> <PUBCHEM_OPENEYE_ISO_SMILES>
C1=CC=C2C=C3C(=CC2=C1)C4=CC=CC=C4S3

> <PUBCHEM_CACTVS_TPSA>
28.2

> <PUBCHEM_MONOISOTOPIC_WEIGHT>
234.050321

> <PUBCHEM_TOTAL_CHARGE>
0

> <PUBCHEM_HEAVY_ATOM_COUNT>
17

> <PUBCHEM_ATOM_DEF_STEREO_COUNT>
0

> <PUBCHEM_ATOM_UDEF_STEREO_COUNT>
0

> <PUBCHEM_BOND_DEF_STEREO_COUNT>
0

> <PUBCHEM_BOND_UDEF_STEREO_COUNT>
0

> <PUBCHEM_ISOTOPIC_ATOM_COUNT>
0

> <PUBCHEM_COMPONENT_COUNT>
1

> <PUBCHEM_CACTVS_TAUTO_COUNT>
1

> <PUBCHEM_COORDINATE_TYPE>
1
5
255

> <PUBCHEM_BONDANNOTATIONS>
1  4  8
1  8  8
10  14  8
11  16  8
12  15  8
13  17  8
14  15  8
16  17  8
2  3  8
2  4  8
2  7  8
3  10  8
3  8  8
4  9  8
5  11  8
5  6  8
5  7  8
6  13  8
6  9  8
8  12  8

$$$$

