5630
  -OEChem-06261200473D

 64 68  0     1  0  0  0  0  0999 V2000
    4.6343    1.1778    0.6115 S   0  0  0  0  0  0  0  0  0  0  0  0
   -2.0554   -0.0592    1.7268 O   0  0  0  0  0  0  0  0  0  0  0  0
   -0.5074   -1.6582    2.4718 O   0  0  0  0  0  0  0  0  0  0  0  0
   -1.7124   -1.3317   -2.0854 O   0  0  0  0  0  0  0  0  0  0  0  0
    5.1572    1.7625    1.8324 O   0  0  0  0  0  0  0  0  0  0  0  0
    5.4271    1.2158   -0.6024 O   0  0  0  0  0  0  0  0  0  0  0  0
    4.1276   -0.4367    0.9350 N   0  0  0  0  0  0  0  0  0  0  0  0
   -1.5710    4.4129   -0.7375 N   0  0  0  0  0  0  0  0  0  0  0  0
   -0.0057   -3.7710    0.8460 C   0  0  0  0  0  0  0  0  0  0  0  0
   -1.1098   -4.7591    0.9664 C   0  0  0  0  0  0  0  0  0  0  0  0
    0.2174   -5.1718    0.4006 C   0  0  0  0  0  0  0  0  0  0  0  0
   -0.1205   -2.6935   -0.2088 C   0  0  1  0  0  0  0  0  0  0  0  0
   -1.0331   -1.5666    0.1705 C   0  0  0  0  0  0  0  0  0  0  0  0
    1.2630   -2.2001   -0.6045 C   0  0  0  0  0  0  0  0  0  0  0  0
   -1.8089   -0.9289   -0.9298 C   0  0  0  0  0  0  0  0  0  0  0  0
   -1.2017   -1.0985    1.4176 C   0  0  0  0  0  0  0  0  0  0  0  0
    2.0378   -1.5570    0.3395 C   0  0  0  0  0  0  0  0  0  0  0  0
   -2.7072    0.2065   -0.5715 C   0  0  0  0  0  0  0  0  0  0  0  0
    1.7029   -2.4102   -1.8958 C   0  0  0  0  0  0  0  0  0  0  0  0
   -2.7758    0.5617    0.7242 C   0  0  0  0  0  0  0  0  0  0  0  0
   -3.4850    0.8671   -1.6811 C   0  0  0  0  0  0  0  0  0  0  0  0
   -3.6740    1.6537    1.2349 C   0  0  0  0  0  0  0  0  0  0  0  0
   -4.9217    0.3563   -1.8227 C   0  0  0  0  0  0  0  0  0  0  0  0
    3.3067   -1.1050   -0.0230 C   0  0  0  0  0  0  0  0  0  0  0  0
   -5.0517    1.1340    1.6468 C   0  0  0  0  0  0  0  0  0  0  0  0
   -5.9179    0.8791   -0.7773 C   0  0  0  0  0  0  0  0  0  0  0  0
    2.9716   -1.9579   -2.2584 C   0  0  0  0  0  0  0  0  0  0  0  0
   -5.7798    0.2602    0.6168 C   0  0  0  0  0  0  0  0  0  0  0  0
    3.7736   -1.3054   -1.3220 C   0  0  0  0  0  0  0  0  0  0  0  0
    3.0940    1.9825    0.2764 C   0  0  0  0  0  0  0  0  0  0  0  0
    2.3941    2.5593    1.3206 C   0  0  0  0  0  0  0  0  0  0  0  0
    2.6206    2.0167   -1.0228 C   0  0  0  0  0  0  0  0  0  0  0  0
    1.1793    3.1920    1.0566 C   0  0  0  0  0  0  0  0  0  0  0  0
    1.4059    2.6496   -1.2868 C   0  0  0  0  0  0  0  0  0  0  0  0
    0.6853    3.2372   -0.2471 C   0  0  0  0  0  0  0  0  0  0  0  0
   -0.5593    3.8857   -0.5175 C   0  0  0  0  0  0  0  0  0  0  0  0
    0.5644   -3.5075    1.7273 H   0  0  0  0  0  0  0  0  0  0  0  0
   -1.9499   -4.6994    0.2855 H   0  0  0  0  0  0  0  0  0  0  0  0
   -1.3670   -5.1084    1.9590 H   0  0  0  0  0  0  0  0  0  0  0  0
    0.2659   -5.3913   -0.6589 H   0  0  0  0  0  0  0  0  0  0  0  0
    0.8486   -5.8053    1.0123 H   0  0  0  0  0  0  0  0  0  0  0  0
   -0.5632   -3.1848   -1.0875 H   0  0  0  0  0  0  0  0  0  0  0  0
    1.6995   -1.3967    1.3563 H   0  0  0  0  0  0  0  0  0  0  0  0
    1.0891   -2.9181   -2.6334 H   0  0  0  0  0  0  0  0  0  0  0  0
   -2.9672    0.7014   -2.6344 H   0  0  0  0  0  0  0  0  0  0  0  0
   -3.4841    1.9568   -1.5655 H   0  0  0  0  0  0  0  0  0  0  0  0
   -3.7876    2.4566    0.4997 H   0  0  0  0  0  0  0  0  0  0  0  0
   -3.2012    2.1361    2.1003 H   0  0  0  0  0  0  0  0  0  0  0  0
   -5.2865    0.6814   -2.8060 H   0  0  0  0  0  0  0  0  0  0  0  0
   -4.9378   -0.7406   -1.8410 H   0  0  0  0  0  0  0  0  0  0  0  0
   -5.6846    1.9965    1.8914 H   0  0  0  0  0  0  0  0  0  0  0  0
   -4.9554    0.5567    2.5756 H   0  0  0  0  0  0  0  0  0  0  0  0
   -6.9192    0.6212   -1.1477 H   0  0  0  0  0  0  0  0  0  0  0  0
   -5.8887    1.9737   -0.7305 H   0  0  0  0  0  0  0  0  0  0  0  0
   -6.7894    0.0848    1.0116 H   0  0  0  0  0  0  0  0  0  0  0  0
   -5.3144   -0.7307    0.5576 H   0  0  0  0  0  0  0  0  0  0  0  0
    3.3375   -2.1196   -3.2682 H   0  0  0  0  0  0  0  0  0  0  0  0
    4.7675   -0.9897   -1.6232 H   0  0  0  0  0  0  0  0  0  0  0  0
   -0.7864   -1.1633    3.2617 H   0  0  0  0  0  0  0  0  0  0  0  0
    3.9085   -0.6498    1.9170 H   0  0  0  0  0  0  0  0  0  0  0  0
    2.7570    2.5268    2.3430 H   0  0  0  0  0  0  0  0  0  0  0  0
    3.1675    1.5730   -1.8482 H   0  0  0  0  0  0  0  0  0  0  0  0
    0.6273    3.6429    1.8779 H   0  0  0  0  0  0  0  0  0  0  0  0
    1.0338    2.6769   -2.3083 H   0  0  0  0  0  0  0  0  0  0  0  0
  1  5  2  0  0  0  0
  1  6  2  0  0  0  0
  1  7  1  0  0  0  0
  1 30  1  0  0  0  0
  2 16  1  0  0  0  0
  2 20  1  0  0  0  0
  3 16  1  0  0  0  0
  3 59  1  0  0  0  0
  4 15  2  0  0  0  0
  7 24  1  0  0  0  0
  7 60  1  0  0  0  0
  8 36  3  0  0  0  0
  9 10  1  0  0  0  0
  9 11  1  0  0  0  0
  9 12  1  0  0  0  0
  9 37  1  0  0  0  0
 10 11  1  0  0  0  0
 10 38  1  0  0  0  0
 10 39  1  0  0  0  0
 11 40  1  0  0  0  0
 11 41  1  0  0  0  0
 12 13  1  0  0  0  0
 12 14  1  0  0  0  0
 12 42  1  0  0  0  0
 13 15  1  0  0  0  0
 13 16  2  0  0  0  0
 14 17  2  0  0  0  0
 14 19  1  0  0  0  0
 15 18  1  0  0  0  0
 17 24  1  0  0  0  0
 17 43  1  0  0  0  0
 18 20  2  0  0  0  0
 18 21  1  0  0  0  0
 19 27  2  0  0  0  0
 19 44  1  0  0  0  0
 20 22  1  0  0  0  0
 21 23  1  0  0  0  0
 21 45  1  0  0  0  0
 21 46  1  0  0  0  0
 22 25  1  0  0  0  0
 22 47  1  0  0  0  0
 22 48  1  0  0  0  0
 23 26  1  0  0  0  0
 23 49  1  0  0  0  0
 23 50  1  0  0  0  0
 24 29  2  0  0  0  0
 25 28  1  0  0  0  0
 25 51  1  0  0  0  0
 25 52  1  0  0  0  0
 26 28  1  0  0  0  0
 26 53  1  0  0  0  0
 26 54  1  0  0  0  0
 27 29  1  0  0  0  0
 27 57  1  0  0  0  0
 28 55  1  0  0  0  0
 28 56  1  0  0  0  0
 29 58  1  0  0  0  0
 30 31  2  0  0  0  0
 30 32  1  0  0  0  0
 31 33  1  0  0  0  0
 31 61  1  0  0  0  0
 32 34  2  0  0  0  0
 32 62  1  0  0  0  0
 33 35  2  0  0  0  0
 33 63  1  0  0  0  0
 34 35  1  0  0  0  0
 34 64  1  0  0  0  0
 35 36  1  0  0  0  0
M  END
> <PUBCHEM_COMPOUND_CID>
5630

> <PUBCHEM_CONFORMER_RMSD>
1.2

> <PUBCHEM_CONFORMER_DIVERSEORDER>
1
206
153
266
172
255
165
126
284
45
152
197
212
116
175
204
173
166
241
57
49
199
274
96
232
267
89
144
65
296
155
270
190
83
81
235
128
223
244
272
279
252
74
208
259
46
129
137
78
123
188
92
39
229
69
76
260
22
70
256
294
60
275
276
99
195
160
79
91
288
139
97
211
186
297
105
278
67
178
25
53
222
262
185
214
146
238
154
68
106
243
157
228
169
224
174
216
187
280
66
122
257
225
290
299
177
113
125
132
192
205
107
217
72
14
282
203
230
179
221
218
162
226
119
258
133
240
253
104
234
227
130
4
31
29
114
95
64
101
202
200
181
285
54
295
149
237
300
77
82
85
250
265
10
58
287
71
124
182
75
189
161
37
242
150
103
23
41
220
7
94
121
298
170
44
151
50
159
112
52
63
261
43
210
135
277
110
86
28
16
26
138
18
281
142
55
13
12
198
176
251
291
143
286
8
231
207
283
201
273
134
183
168
34
2
140
117
21
59
193
246
51
171
233
93
245
73
56
118
11
102
209
219
145
3
120
289
36
213
111
263
147
141
17
268
248
264
158
5
247
167
292
191
131
148
15
269
184
80
88
180
20
164
194
33
239
62
156
27
271
47
236
35
38
87
109
196
163
215
6
40
136
249
115
9
24
61
84
48
19
293
100
30
98
254
90
127
42
108
32

> <PUBCHEM_MMFF94_PARTIAL_CHARGES>
47
1 1.45
10 -0.2
11 -0.2
12 0.38
13 -0.12
14 -0.14
15 0.54
16 0.15
17 -0.15
18 -0.12
19 -0.15
2 -0.15
20 -0.06
21 0.14
22 0.14
24 0.2
27 -0.15
29 -0.15
3 -0.53
30 -0.01
31 -0.15
32 -0.15
33 -0.15
34 -0.15
35 0.07
36 0.48
37 0.1
38 0.1
39 0.1
4 -0.57
40 0.1
41 0.1
43 0.15
44 0.15
5 -0.65
57 0.15
58 0.15
59 0.45
6 -0.65
60 0.42
61 0.15
62 0.15
63 0.15
64 0.15
7 -0.76
8 -0.56
9 -0.19

> <PUBCHEM_EFFECTIVE_ROTOR_COUNT>
7.8

> <PUBCHEM_PHARMACOPHORE_FEATURES>
10
1 2 acceptor
1 3 donor
1 4 acceptor
1 5 acceptor
1 6 acceptor
1 7 donor
1 8 acceptor
6 14 17 19 24 27 29 rings
6 2 13 15 16 18 20 rings
6 30 31 32 33 34 35 rings

> <PUBCHEM_HEAVY_ATOM_COUNT>
36

> <PUBCHEM_ATOM_DEF_STEREO_COUNT>
0

> <PUBCHEM_ATOM_UDEF_STEREO_COUNT>
1

> <PUBCHEM_BOND_DEF_STEREO_COUNT>
0

> <PUBCHEM_BOND_UDEF_STEREO_COUNT>
0

> <PUBCHEM_ISOTOPIC_ATOM_COUNT>
0

> <PUBCHEM_COMPONENT_COUNT>
1

> <PUBCHEM_CACTVS_TAUTO_COUNT>
8

> <PUBCHEM_CONFORMER_ID>
000015FE00000001

> <PUBCHEM_MMFF94_ENERGY>
79.7353

> <PUBCHEM_FEATURE_SELFOVERLAP>
50.762

> <PUBCHEM_SHAPE_FINGERPRINT>
11513181 2 17387957905776550700
12156800 1 16047644538930950256
12422481 6 17972856323887980417
12633257 1 18059303045929650844
13402501 40 18411984667476794828
1361 2 18410569596291084355
13911987 19 18128516306186371111
14725015 67 18266752448822803368
15840311 113 17677880414045705193
19930381 70 18341045332788449779
20511986 3 17531260482151522773
20764821 26 18270948064518529037
25265897 201 17024281103268779164
3493558 16 17478912493034809855
463206 1 18261117331213151093
469060 322 17768218543371218560
474 4 18408325501258623507
508706 21 18196650701076397694
513532 50 17531232981528349884

> <PUBCHEM_SHAPE_MULTIPOLES>
705.4
9.95
5.9
1.99
5.56
2.89
-0.17
-5.46
0.03
-1.91
0.69
0.35
0.31
1.34

> <PUBCHEM_SHAPE_SELFOVERLAP>
1515.864

> <PUBCHEM_SHAPE_VOLUME>
387.2

> <PUBCHEM_COORDINATE_TYPE>
2
5
10

$$$$

