10713
  -OEChem-06261204523D

 55 57  0     1  0  0  0  0  0999 V2000
   -1.0011   -0.2823   -0.8669 Cl  0  0  0  0  0  0  0  0  0  0  0  0
   -0.0214    4.8340    0.7649 Cl  0  0  0  0  0  0  0  0  0  0  0  0
    7.6390    0.9063   -0.3046 O   0  0  0  0  0  0  0  0  0  0  0  0
    4.3498    1.8671    1.4748 O   0  0  0  0  0  0  0  0  0  0  0  0
    6.1232    1.0870   -1.9839 O   0  0  0  0  0  0  0  0  0  0  0  0
    4.2318   -4.9413    0.9542 O   0  0  0  0  0  0  0  0  0  0  0  0
    5.7981   -4.6005   -0.6515 O   0  0  0  0  0  0  0  0  0  0  0  0
   -1.7537    2.5770   -0.2495 N   0  0  3  0  0  0  0  0  0  0  0  0
    4.2181    0.2155   -0.1482 N   0  0  0  0  0  0  0  0  0  0  0  0
   -3.5675    0.1243    0.6966 N   0  0  0  0  0  0  0  0  0  0  0  0
   -5.8726    0.9463   -0.5952 N   0  0  0  0  0  0  0  0  0  0  0  0
   -6.6252   -1.2420   -0.6764 N   0  0  0  0  0  0  0  0  0  0  0  0
   -5.3171   -3.0306    0.2401 N   0  0  0  0  0  0  0  0  0  0  0  0
   -3.2301   -2.5572    1.2411 N   0  0  0  0  0  0  0  0  0  0  0  0
   -7.3903   -3.4590   -0.7602 N   0  0  0  0  0  0  0  0  0  0  0  0
    5.5755   -0.2522   -0.0248 C   0  0  1  0  0  0  0  0  0  0  0  0
    5.7161   -1.7489   -0.3281 C   0  0  0  0  0  0  0  0  0  0  0  0
   -0.3935    2.2474   -0.0325 C   0  0  0  0  0  0  0  0  0  0  0  0
   -2.7219    2.4089    0.8119 C   0  0  0  0  0  0  0  0  0  0  0  0
    4.8621   -2.6883    0.5332 C   0  0  0  0  0  0  0  0  0  0  0  0
    2.2855    1.5980    0.3953 C   0  0  0  0  0  0  0  0  0  0  0  0
    3.7120    1.2519    0.6242 C   0  0  0  0  0  0  0  0  0  0  0  0
    0.0595    0.9528   -0.2865 C   0  0  0  0  0  0  0  0  0  0  0  0
    0.4930    3.2172    0.4357 C   0  0  0  0  0  0  0  0  0  0  0  0
    1.3990    0.6281   -0.0726 C   0  0  0  0  0  0  0  0  0  0  0  0
    1.8325    2.8925    0.6495 C   0  0  0  0  0  0  0  0  0  0  0  0
   -3.7787    1.4181    0.4094 C   0  0  0  0  0  0  0  0  0  0  0  0
    6.4458    0.6321   -0.8941 C   0  0  0  0  0  0  0  0  0  0  0  0
   -2.1865    3.0707   -1.5383 C   0  0  0  0  0  0  0  0  0  0  0  0
    5.0460   -4.1539    0.2035 C   0  0  0  0  0  0  0  0  0  0  0  0
   -4.9184    1.8238   -0.2292 C   0  0  0  0  0  0  0  0  0  0  0  0
   -4.5227   -0.7518    0.3300 C   0  0  0  0  0  0  0  0  0  0  0  0
   -5.6907   -0.3513   -0.3224 C   0  0  0  0  0  0  0  0  0  0  0  0
   -4.4016   -2.1053    0.5797 C   0  0  0  0  0  0  0  0  0  0  0  0
   -6.3941   -2.5344   -0.3792 C   0  0  0  0  0  0  0  0  0  0  0  0
    5.8782   -0.0832    1.0169 H   0  0  0  0  0  0  0  0  0  0  0  0
    6.7724   -2.0318   -0.2274 H   0  0  0  0  0  0  0  0  0  0  0  0
    5.4691   -1.9232   -1.3845 H   0  0  0  0  0  0  0  0  0  0  0  0
   -2.2447    2.0598    1.7373 H   0  0  0  0  0  0  0  0  0  0  0  0
   -3.1823    3.3741    1.0576 H   0  0  0  0  0  0  0  0  0  0  0  0
    3.6653   -0.1730   -0.9054 H   0  0  0  0  0  0  0  0  0  0  0  0
    3.8016   -2.4503    0.3952 H   0  0  0  0  0  0  0  0  0  0  0  0
    5.1207   -2.5462    1.5884 H   0  0  0  0  0  0  0  0  0  0  0  0
    1.7222   -0.3947   -0.2486 H   0  0  0  0  0  0  0  0  0  0  0  0
    2.5230    3.6518    1.0102 H   0  0  0  0  0  0  0  0  0  0  0  0
   -3.0113    3.7836   -1.4359 H   0  0  0  0  0  0  0  0  0  0  0  0
   -2.5123    2.2470   -2.1818 H   0  0  0  0  0  0  0  0  0  0  0  0
   -1.3767    3.5977   -2.0560 H   0  0  0  0  0  0  0  0  0  0  0  0
   -5.1222    2.8600   -0.4693 H   0  0  0  0  0  0  0  0  0  0  0  0
    8.1950    1.4929   -0.8606 H   0  0  0  0  0  0  0  0  0  0  0  0
    4.3348   -5.8910    0.7310 H   0  0  0  0  0  0  0  0  0  0  0  0
   -3.1513   -3.5525    1.4089 H   0  0  0  0  0  0  0  0  0  0  0  0
   -2.3802   -2.0175    1.1312 H   0  0  0  0  0  0  0  0  0  0  0  0
   -7.2607   -4.4407   -0.5584 H   0  0  0  0  0  0  0  0  0  0  0  0
   -8.2212   -3.1286   -1.2312 H   0  0  0  0  0  0  0  0  0  0  0  0
  1 23  1  0  0  0  0
  2 24  1  0  0  0  0
  3 28  1  0  0  0  0
  3 50  1  0  0  0  0
  4 22  2  0  0  0  0
  5 28  2  0  0  0  0
  6 30  1  0  0  0  0
  6 51  1  0  0  0  0
  7 30  2  0  0  0  0
  8 18  1  0  0  0  0
  8 19  1  0  0  0  0
  8 29  1  0  0  0  0
  9 16  1  0  0  0  0
  9 22  1  0  0  0  0
  9 41  1  0  0  0  0
 10 27  1  0  0  0  0
 10 32  2  0  0  0  0
 11 31  1  0  0  0  0
 11 33  2  0  0  0  0
 12 33  1  0  0  0  0
 12 35  2  0  0  0  0
 13 34  2  0  0  0  0
 13 35  1  0  0  0  0
 14 34  1  0  0  0  0
 14 52  1  0  0  0  0
 14 53  1  0  0  0  0
 15 35  1  0  0  0  0
 15 54  1  0  0  0  0
 15 55  1  0  0  0  0
 16 17  1  0  0  0  0
 16 28  1  0  0  0  0
 16 36  1  0  0  0  0
 17 20  1  0  0  0  0
 17 37  1  0  0  0  0
 17 38  1  0  0  0  0
 18 23  2  0  0  0  0
 18 24  1  0  0  0  0
 19 27  1  0  0  0  0
 19 39  1  0  0  0  0
 19 40  1  0  0  0  0
 20 30  1  0  0  0  0
 20 42  1  0  0  0  0
 20 43  1  0  0  0  0
 21 22  1  0  0  0  0
 21 25  2  0  0  0  0
 21 26  1  0  0  0  0
 23 25  1  0  0  0  0
 24 26  2  0  0  0  0
 25 44  1  0  0  0  0
 26 45  1  0  0  0  0
 27 31  2  0  0  0  0
 29 46  1  0  0  0  0
 29 47  1  0  0  0  0
 29 48  1  0  0  0  0
 31 49  1  0  0  0  0
 32 33  1  0  0  0  0
 32 34  1  0  0  0  0
M  END
> <PUBCHEM_COMPOUND_CID>
10713

> <PUBCHEM_CONFORMER_RMSD>
1

> <PUBCHEM_CONFORMER_DIVERSEORDER>
10
38
122
37
60
110
26
115
31
154
36
125
14
63
143
149
98
4
117
54
113
56
146
134
59
106
130
41
44
142
140
145
108
61
67
114
147
103
141
28
53
69
1
76
90
105
23
127
104
120
48
123
64
57
71
132
12
33
17
144
94
77
68
97
52
129
51
124
152
136
27
24
109
79
39
75
150
131
20
89
102
107
29
100
7
50
85
111
81
101
46
45
96
18
151
30
128
35
78
40
84
138
13
8
42
99
83
47
93
148
34
9
74
119
80
32
15
43
55
6
121
2
87
82
112
137
135
153
3
133
118
139
65
22
95
92
66
58
91
86
72
49
5
19
21
88
25
126
116
11
70
16
73
62

> <PUBCHEM_MMFF94_PARTIAL_CHARGES>
44
1 -0.18
10 -0.62
11 -0.62
12 -0.62
13 -0.62
14 -0.9
15 -0.9
16 0.36
18 0.1
19 0.51
2 -0.18
20 0.06
21 0.09
22 0.54
23 0.18
24 0.18
25 -0.15
26 -0.15
27 0.17
28 0.66
29 0.37
3 -0.65
30 0.66
31 0.16
32 0.31
33 0.62
34 0.41
35 0.72
4 -0.57
41 0.37
44 0.15
45 0.15
49 0.15
5 -0.57
50 0.5
51 0.5
52 0.4
53 0.4
54 0.4
55 0.4
6 -0.65
7 -0.57
8 -0.84
9 -0.73

> <PUBCHEM_EFFECTIVE_ROTOR_COUNT>
10

> <PUBCHEM_PHARMACOPHORE_FEATURES>
16
1 10 acceptor
1 14 donor
1 15 donor
1 3 acceptor
1 4 acceptor
1 5 acceptor
1 6 acceptor
1 7 acceptor
1 8 cation
1 9 donor
3 3 5 28 anion
3 6 7 30 anion
4 12 13 15 35 cation
6 10 11 27 31 32 33 rings
6 12 13 32 33 34 35 rings
6 18 21 23 24 25 26 rings

> <PUBCHEM_HEAVY_ATOM_COUNT>
35

> <PUBCHEM_ATOM_DEF_STEREO_COUNT>
1

> <PUBCHEM_ATOM_UDEF_STEREO_COUNT>
0

> <PUBCHEM_BOND_DEF_STEREO_COUNT>
0

> <PUBCHEM_BOND_UDEF_STEREO_COUNT>
0

> <PUBCHEM_ISOTOPIC_ATOM_COUNT>
0

> <PUBCHEM_COMPONENT_COUNT>
1

> <PUBCHEM_CACTVS_TAUTO_COUNT>
24

> <PUBCHEM_CONFORMER_ID>
000029D90000000A

> <PUBCHEM_MMFF94_ENERGY>
122.9474

> <PUBCHEM_FEATURE_SELFOVERLAP>
81.35

> <PUBCHEM_SHAPE_FINGERPRINT>
11227688 84 18336282213820004341
117089 54 18335697312537256574
11963148 33 18410299107720008150
12645989 146 18191304871711452639
1361 4 18337953501991543502
13782708 43 17749392571999015925
13947947 140 18335133156098483883
14931854 50 18059307457293807939
15001296 14 18202003282705120562
15019793 15 18410015437799023498
15351339 4 18272941530534345770
15352257 5 18411136944006127854
18608769 82 18410015412534822904
23522609 53 18121184749974128528
23559900 14 18337680724492665817
25222932 49 18335417963937960414
32027 91 18336837471703548681
4046055 25 18272085045700355180
444735 86 18201442506142333682
4756088 132 18265911304721392494
50009960 94 18127430053719373282
7970288 3 18410014368335589152
9831232 110 18411705369816511724

> <PUBCHEM_SHAPE_MULTIPOLES>
654.83
20.02
6.21
1.09
3.86
4
0.17
19.85
3.99
2.68
-1.07
0.48
-0.28
-0.3

> <PUBCHEM_SHAPE_SELFOVERLAP>
1387.588

> <PUBCHEM_SHAPE_VOLUME>
365.5

> <PUBCHEM_COORDINATE_TYPE>
2
5
10

$$$$

