17395978
  -OEChem-06241222532D

 31 32  0     0  0  0  0  0  0999 V2000
    5.5211    3.3184    0.0000 S   0  0  0  0  0  0  0  0  0  0  0  0
    3.7320    0.2306    0.0000 O   0  0  0  0  0  0  0  0  0  0  0  0
    2.8660   -4.2694    0.0000 O   0  5  0  0  0  0  0  0  0  0  0  0
    2.0000   -2.7694    0.0000 O   0  0  0  0  0  0  0  0  0  0  0  0
    5.4641    0.2306    0.0000 N   0  0  0  0  0  0  0  0  0  0  0  0
    2.8660   -3.2694    0.0000 N   0  3  0  0  0  0  0  0  0  0  0  0
    6.3301    1.7306    0.0000 C   0  0  0  0  0  0  0  0  0  0  0  0
    5.4641    1.2306    0.0000 C   0  0  0  0  0  0  0  0  0  0  0  0
    6.3301    2.7306    0.0000 C   0  0  0  0  0  0  0  0  0  0  0  0
    4.5981   -1.2694    0.0000 C   0  0  0  0  0  0  0  0  0  0  0  0
    4.5981   -0.2694    0.0000 C   0  0  0  0  0  0  0  0  0  0  0  0
    7.1391    3.3184    0.0000 C   0  0  0  0  0  0  0  0  0  0  0  0
    3.7320   -1.7694    0.0000 C   0  0  0  0  0  0  0  0  0  0  0  0
    5.4641   -1.7694    0.0000 C   0  0  0  0  0  0  0  0  0  0  0  0
    3.7320   -2.7694    0.0000 C   0  0  0  0  0  0  0  0  0  0  0  0
    6.8301    4.2694    0.0000 C   0  0  0  0  0  0  0  0  0  0  0  0
    5.4641   -2.7694    0.0000 C   0  0  0  0  0  0  0  0  0  0  0  0
    4.5981   -3.2694    0.0000 C   0  0  0  0  0  0  0  0  0  0  0  0
    5.8301    4.2694    0.0000 C   0  0  0  0  0  0  0  0  0  0  0  0
    6.5422    1.1480    0.0000 H   0  0  0  0  0  0  0  0  0  0  0  0
    6.9407    1.8382    0.0000 H   0  0  0  0  0  0  0  0  0  0  0  0
    5.2520    1.8132    0.0000 H   0  0  0  0  0  0  0  0  0  0  0  0
    4.8535    1.1229    0.0000 H   0  0  0  0  0  0  0  0  0  0  0  0
    6.0010   -0.0794    0.0000 H   0  0  0  0  0  0  0  0  0  0  0  0
    7.7288    3.1268    0.0000 H   0  0  0  0  0  0  0  0  0  0  0  0
    3.1951   -1.4594    0.0000 H   0  0  0  0  0  0  0  0  0  0  0  0
    6.0010   -1.4594    0.0000 H   0  0  0  0  0  0  0  0  0  0  0  0
    7.1946    4.7710    0.0000 H   0  0  0  0  0  0  0  0  0  0  0  0
    6.0010   -3.0794    0.0000 H   0  0  0  0  0  0  0  0  0  0  0  0
    4.5981   -3.8894    0.0000 H   0  0  0  0  0  0  0  0  0  0  0  0
    5.4657    4.7710    0.0000 H   0  0  0  0  0  0  0  0  0  0  0  0
  1  9  1  0  0  0  0
  1 19  1  0  0  0  0
  2 11  2  0  0  0  0
  3  6  1  0  0  0  0
  4  6  2  0  0  0  0
  5  8  1  0  0  0  0
  5 11  1  0  0  0  0
  5 24  1  0  0  0  0
  6 15  1  0  0  0  0
  7  8  1  0  0  0  0
  7  9  1  0  0  0  0
  7 20  1  0  0  0  0
  7 21  1  0  0  0  0
  8 22  1  0  0  0  0
  8 23  1  0  0  0  0
  9 12  2  0  0  0  0
 10 11  1  0  0  0  0
 10 13  2  0  0  0  0
 10 14  1  0  0  0  0
 12 16  1  0  0  0  0
 12 25  1  0  0  0  0
 13 15  1  0  0  0  0
 13 26  1  0  0  0  0
 14 17  2  0  0  0  0
 14 27  1  0  0  0  0
 15 18  2  0  0  0  0
 16 19  2  0  0  0  0
 16 28  1  0  0  0  0
 17 18  1  0  0  0  0
 17 29  1  0  0  0  0
 18 30  1  0  0  0  0
 19 31  1  0  0  0  0
M  CHG  2   3  -1   6   1
M  END
> <PUBCHEM_COMPOUND_CID>
17395978

> <PUBCHEM_COMPOUND_CANONICALIZED>
1

> <PUBCHEM_CACTVS_COMPLEXITY>
332

> <PUBCHEM_CACTVS_HBOND_ACCEPTOR>
4

> <PUBCHEM_CACTVS_HBOND_DONOR>
1

> <PUBCHEM_CACTVS_ROTATABLE_BOND>
4

> <PUBCHEM_CACTVS_SUBSKEYS>
AAADccBzMABAAAAAAAAAAAAAAAAAASAAAAAwAAAAAAAAAAABwAAAHgQUAAAADAjF2ASwwYLQQAiNAiVSUwCDAIAkChBoiJkIZMoIIDKglZGEIQhglgCoyYcciACOAAAAQAAAAAAAAACAAAAAAAAAAAAAAA==

> <PUBCHEM_IUPAC_OPENEYE_NAME>
3-nitro-N-[2-(2-thienyl)ethyl]benzamide

> <PUBCHEM_IUPAC_CAS_NAME>
3-nitro-N-(2-thiophen-2-ylethyl)benzamide

> <PUBCHEM_IUPAC_NAME>
3-nitro-N-(2-thiophen-2-ylethyl)benzamide

> <PUBCHEM_IUPAC_SYSTEMATIC_NAME>
3-nitro-N-(2-thiophen-2-ylethyl)benzamide

> <PUBCHEM_IUPAC_TRADITIONAL_NAME>
3-nitro-N-[2-(2-thienyl)ethyl]benzamide

> <PUBCHEM_IUPAC_INCHI>
InChI=1S/C13H12N2O3S/c16-13(14-7-6-12-5-2-8-19-12)10-3-1-4-11(9-10)15(17)18/h1-5,8-9H,6-7H2,(H,14,16)

> <PUBCHEM_IUPAC_INCHIKEY>
KZSNUNLWKDGHRI-UHFFFAOYSA-N

> <PUBCHEM_XLOGP3_AA>
2.7

> <PUBCHEM_EXACT_MASS>
276.056863

> <PUBCHEM_MOLECULAR_FORMULA>
C13H12N2O3S

> <PUBCHEM_MOLECULAR_WEIGHT>
276.31098

> <PUBCHEM_OPENEYE_CAN_SMILES>
C1=CC(=CC(=C1)[N+](=O)[O-])C(=O)NCCC2=CC=CS2

> <PUBCHEM_OPENEYE_ISO_SMILES>
C1=CC(=CC(=C1)[N+](=O)[O-])C(=O)NCCC2=CC=CS2

> <PUBCHEM_CACTVS_TPSA>
103

> <PUBCHEM_MONOISOTOPIC_WEIGHT>
276.056863

> <PUBCHEM_TOTAL_CHARGE>
0

> <PUBCHEM_HEAVY_ATOM_COUNT>
19

> <PUBCHEM_ATOM_DEF_STEREO_COUNT>
0

> <PUBCHEM_ATOM_UDEF_STEREO_COUNT>
0

> <PUBCHEM_BOND_DEF_STEREO_COUNT>
0

> <PUBCHEM_BOND_UDEF_STEREO_COUNT>
0

> <PUBCHEM_ISOTOPIC_ATOM_COUNT>
0

> <PUBCHEM_COMPONENT_COUNT>
1

> <PUBCHEM_CACTVS_TAUTO_COUNT>
2

> <PUBCHEM_COORDINATE_TYPE>
1
5
255

> <PUBCHEM_BONDANNOTATIONS>
1  19  8
1  9  8
10  13  8
10  14  8
12  16  8
13  15  8
14  17  8
15  18  8
16  19  8
17  18  8
9  12  8

$$$$

