13807
  -OEChem-06241222402D

 63 66  0     0  0  0  0  0  0999 V2000
    6.3904   -2.3958    0.0000 O   0  0  0  0  0  0  0  0  0  0  0  0
    4.1976    2.2176    0.0000 O   0  0  0  0  0  0  0  0  0  0  0  0
    3.8968    0.5118    0.0000 O   0  0  0  0  0  0  0  0  0  0  0  0
    9.9205   -2.4200    0.0000 N   0  0  0  0  0  0  0  0  0  0  0  0
    2.8602   -2.4200    0.0000 N   0  0  0  0  0  0  0  0  0  0  0  0
    6.3904   -0.3958    0.0000 C   0  0  0  0  0  0  0  0  0  0  0  0
    7.2564   -0.8958    0.0000 C   0  0  0  0  0  0  0  0  0  0  0  0
    5.5243   -0.8958    0.0000 C   0  0  0  0  0  0  0  0  0  0  0  0
    7.2564   -1.8958    0.0000 C   0  0  0  0  0  0  0  0  0  0  0  0
    5.5243   -1.8958    0.0000 C   0  0  0  0  0  0  0  0  0  0  0  0
    6.3904    0.6042    0.0000 C   0  0  0  0  0  0  0  0  0  0  0  0
    8.1503   -0.3611    0.0000 C   0  0  0  0  0  0  0  0  0  0  0  0
    9.0564   -0.8750    0.0000 C   0  0  0  0  0  0  0  0  0  0  0  0
    9.0564   -1.9166    0.0000 C   0  0  0  0  0  0  0  0  0  0  0  0
    4.6304   -0.3611    0.0000 C   0  0  0  0  0  0  0  0  0  0  0  0
    8.1503   -2.4305    0.0000 C   0  0  0  0  0  0  0  0  0  0  0  0
    3.7243   -0.8750    0.0000 C   0  0  0  0  0  0  0  0  0  0  0  0
    4.6304   -2.4305    0.0000 C   0  0  0  0  0  0  0  0  0  0  0  0
    3.7243   -1.9166    0.0000 C   0  0  0  0  0  0  0  0  0  0  0  0
    5.5243    1.1042    0.0000 C   0  0  0  0  0  0  0  0  0  0  0  0
    7.2564    1.1042    0.0000 C   0  0  0  0  0  0  0  0  0  0  0  0
    9.9205   -0.3717    0.0000 C   0  0  0  0  0  0  0  0  0  0  0  0
    2.8602   -0.3717    0.0000 C   0  0  0  0  0  0  0  0  0  0  0  0
    5.5243    2.1042    0.0000 C   0  0  0  0  0  0  0  0  0  0  0  0
    9.9166   -3.4199    0.0000 C   0  0  0  0  0  0  0  0  0  0  0  0
    7.2564    2.1042    0.0000 C   0  0  0  0  0  0  0  0  0  0  0  0
    6.3904    2.6042    0.0000 C   0  0  0  0  0  0  0  0  0  0  0  0
    4.5395    1.2779    0.0000 C   0  0  0  0  0  0  0  0  0  0  0  0
    2.8641   -3.4199    0.0000 C   0  0  0  0  0  0  0  0  0  0  0  0
   10.7807   -3.9233    0.0000 C   0  0  0  0  0  0  0  0  0  0  0  0
    2.0000   -3.9233    0.0000 C   0  0  0  0  0  0  0  0  0  0  0  0
    4.8403    2.9836    0.0000 C   0  0  0  0  0  0  0  0  0  0  0  0
    4.4983    3.9233    0.0000 C   0  0  0  0  0  0  0  0  0  0  0  0
    8.1432    0.2588    0.0000 H   0  0  0  0  0  0  0  0  0  0  0  0
    4.6376    0.2588    0.0000 H   0  0  0  0  0  0  0  0  0  0  0  0
    8.1432   -3.0504    0.0000 H   0  0  0  0  0  0  0  0  0  0  0  0
    4.6376   -3.0504    0.0000 H   0  0  0  0  0  0  0  0  0  0  0  0
    7.7933    0.7942    0.0000 H   0  0  0  0  0  0  0  0  0  0  0  0
   10.4586   -2.1120    0.0000 H   0  0  0  0  0  0  0  0  0  0  0  0
   10.2326   -0.9074    0.0000 H   0  0  0  0  0  0  0  0  0  0  0  0
   10.4562   -0.0596    0.0000 H   0  0  0  0  0  0  0  0  0  0  0  0
    9.6084    0.1641    0.0000 H   0  0  0  0  0  0  0  0  0  0  0  0
    3.1723    0.1641    0.0000 H   0  0  0  0  0  0  0  0  0  0  0  0
    2.3245   -0.0596    0.0000 H   0  0  0  0  0  0  0  0  0  0  0  0
    2.5482   -0.9074    0.0000 H   0  0  0  0  0  0  0  0  0  0  0  0
    4.9874    2.4142    0.0000 H   0  0  0  0  0  0  0  0  0  0  0  0
    9.3065   -3.3099    0.0000 H   0  0  0  0  0  0  0  0  0  0  0  0
    9.7023   -4.0017    0.0000 H   0  0  0  0  0  0  0  0  0  0  0  0
    7.7933    2.4142    0.0000 H   0  0  0  0  0  0  0  0  0  0  0  0
    6.3904    3.2242    0.0000 H   0  0  0  0  0  0  0  0  0  0  0  0
    3.0784   -4.0017    0.0000 H   0  0  0  0  0  0  0  0  0  0  0  0
    3.4742   -3.3099    0.0000 H   0  0  0  0  0  0  0  0  0  0  0  0
   10.4687   -4.4590    0.0000 H   0  0  0  0  0  0  0  0  0  0  0  0
   11.3165   -4.2353    0.0000 H   0  0  0  0  0  0  0  0  0  0  0  0
   11.0928   -3.3875    0.0000 H   0  0  0  0  0  0  0  0  0  0  0  0
    1.6879   -3.3875    0.0000 H   0  0  0  0  0  0  0  0  0  0  0  0
    1.4643   -4.2353    0.0000 H   0  0  0  0  0  0  0  0  0  0  0  0
    2.3121   -4.4590    0.0000 H   0  0  0  0  0  0  0  0  0  0  0  0
    5.2388    2.5086    0.0000 H   0  0  0  0  0  0  0  0  0  0  0  0
    5.3772    3.2936    0.0000 H   0  0  0  0  0  0  0  0  0  0  0  0
    5.0809    4.1353    0.0000 H   0  0  0  0  0  0  0  0  0  0  0  0
    4.2862    4.5059    0.0000 H   0  0  0  0  0  0  0  0  0  0  0  0
    3.9157    3.7112    0.0000 H   0  0  0  0  0  0  0  0  0  0  0  0
  1  9  1  0  0  0  0
  1 10  1  0  0  0  0
  2 28  1  0  0  0  0
  2 32  1  0  0  0  0
  3 28  2  0  0  0  0
  4 14  1  0  0  0  0
  4 25  1  0  0  0  0
  4 39  1  0  0  0  0
  5 19  2  0  0  0  0
  5 29  1  0  0  0  0
  6  7  1  0  0  0  0
  6  8  2  0  0  0  0
  6 11  1  0  0  0  0
  7  9  2  0  0  0  0
  7 12  1  0  0  0  0
  8 10  1  0  0  0  0
  8 15  1  0  0  0  0
  9 16  1  0  0  0  0
 10 18  2  0  0  0  0
 11 20  1  0  0  0  0
 11 21  2  0  0  0  0
 12 13  2  0  0  0  0
 12 34  1  0  0  0  0
 13 14  1  0  0  0  0
 13 22  1  0  0  0  0
 14 16  2  0  0  0  0
 15 17  2  0  0  0  0
 15 35  1  0  0  0  0
 16 36  1  0  0  0  0
 17 19  1  0  0  0  0
 17 23  1  0  0  0  0
 18 19  1  0  0  0  0
 18 37  1  0  0  0  0
 20 24  2  0  0  0  0
 20 28  1  0  0  0  0
 21 26  1  0  0  0  0
 21 38  1  0  0  0  0
 22 40  1  0  0  0  0
 22 41  1  0  0  0  0
 22 42  1  0  0  0  0
 23 43  1  0  0  0  0
 23 44  1  0  0  0  0
 23 45  1  0  0  0  0
 24 27  1  0  0  0  0
 24 46  1  0  0  0  0
 25 30  1  0  0  0  0
 25 47  1  0  0  0  0
 25 48  1  0  0  0  0
 26 27  2  0  0  0  0
 26 49  1  0  0  0  0
 27 50  1  0  0  0  0
 29 31  1  0  0  0  0
 29 51  1  0  0  0  0
 29 52  1  0  0  0  0
 30 53  1  0  0  0  0
 30 54  1  0  0  0  0
 30 55  1  0  0  0  0
 31 56  1  0  0  0  0
 31 57  1  0  0  0  0
 31 58  1  0  0  0  0
 32 33  1  0  0  0  0
 32 59  1  0  0  0  0
 32 60  1  0  0  0  0
 33 61  1  0  0  0  0
 33 62  1  0  0  0  0
 33 63  1  0  0  0  0
M  END
> <PUBCHEM_COMPOUND_CID>
13807

> <PUBCHEM_COMPOUND_CANONICALIZED>
1

> <PUBCHEM_CACTVS_COMPLEXITY>
868

> <PUBCHEM_CACTVS_HBOND_ACCEPTOR>
5

> <PUBCHEM_CACTVS_HBOND_DONOR>
1

> <PUBCHEM_CACTVS_ROTATABLE_BOND>
7

> <PUBCHEM_CACTVS_SUBSKEYS>
AAADceB7MAAAAAAAAAAAAAAAAAAAAAAAAAAwYIEAAAAAAACBQAAAHgAQAAAADAzhmAYyzoLABACoAyTyTACCCAAlIgAIiIE+bNgMJjLEtZuGOSjm0BnI6YeY2POOqAACAgAaAABQAAQEADQAAAAAAAAAAA==

> <PUBCHEM_IUPAC_OPENEYE_NAME>
ethyl 2-[3-(ethylamino)-6-ethylimino-2,7-dimethyl-xanthen-9-yl]benzoate

> <PUBCHEM_IUPAC_CAS_NAME>
2-[3-(ethylamino)-6-ethylimino-2,7-dimethyl-9-xanthenyl]benzoic acid ethyl ester

> <PUBCHEM_IUPAC_NAME>
ethyl 2-[3-(ethylamino)-6-ethylimino-2,7-dimethylxanthen-9-yl]benzoate

> <PUBCHEM_IUPAC_SYSTEMATIC_NAME>
ethyl 2-[3-(ethylamino)-6-ethylimino-2,7-dimethyl-xanthen-9-yl]benzoate

> <PUBCHEM_IUPAC_TRADITIONAL_NAME>
2-[3-(ethylamino)-6-ethylimino-2,7-dimethyl-xanthen-9-yl]benzoic acid ethyl ester

> <PUBCHEM_IUPAC_INCHI>
InChI=1S/C28H30N2O3/c1-6-29-23-15-25-21(13-17(23)4)27(19-11-9-10-12-20(19)28(31)32-8-3)22-14-18(5)24(30-7-2)16-26(22)33-25/h9-16,29H,6-8H2,1-5H3

> <PUBCHEM_IUPAC_INCHIKEY>
IWWWBRIIGAXLCJ-UHFFFAOYSA-N

> <PUBCHEM_XLOGP3_AA>
5.1

> <PUBCHEM_EXACT_MASS>
442.225643

> <PUBCHEM_MOLECULAR_FORMULA>
C28H30N2O3

> <PUBCHEM_MOLECULAR_WEIGHT>
442.5494

> <PUBCHEM_OPENEYE_CAN_SMILES>
CCNC1=C(C=C2C(=C1)OC3=CC(=NCC)C(=CC3=C2C4=CC=CC=C4C(=O)OCC)C)C

> <PUBCHEM_OPENEYE_ISO_SMILES>
CCNC1=C(C=C2C(=C1)OC3=CC(=NCC)C(=CC3=C2C4=CC=CC=C4C(=O)OCC)C)C

> <PUBCHEM_CACTVS_TPSA>
59.9

> <PUBCHEM_MONOISOTOPIC_WEIGHT>
442.225643

> <PUBCHEM_TOTAL_CHARGE>
0

> <PUBCHEM_HEAVY_ATOM_COUNT>
33

> <PUBCHEM_ATOM_DEF_STEREO_COUNT>
0

> <PUBCHEM_ATOM_UDEF_STEREO_COUNT>
0

> <PUBCHEM_BOND_DEF_STEREO_COUNT>
0

> <PUBCHEM_BOND_UDEF_STEREO_COUNT>
0

> <PUBCHEM_ISOTOPIC_ATOM_COUNT>
0

> <PUBCHEM_COMPONENT_COUNT>
1

> <PUBCHEM_CACTVS_TAUTO_COUNT>
2

> <PUBCHEM_COORDINATE_TYPE>
1
5
255

> <PUBCHEM_BONDANNOTATIONS>
1  10  8
1  9  8
10  18  8
11  20  8
11  21  8
12  13  8
13  14  8
14  16  8
15  17  8
17  19  8
18  19  8
20  24  8
21  26  8
24  27  8
26  27  8
6  7  8
6  8  8
7  12  8
7  9  8
8  15  8
9  16  8

$$$$

