17395498
  -OEChem-06241222502D

 40 43  0     0  0  0  0  0  0999 V2000
    2.0000   -4.1969    0.0000 F   0  0  0  0  0  0  0  0  0  0  0  0
    3.0181   -4.7847    0.0000 F   0  0  0  0  0  0  0  0  0  0  0  0
    3.9023   -3.6871    0.0000 O   0  0  0  0  0  0  0  0  0  0  0  0
    2.5084   -2.8824    0.0000 O   0  0  0  0  0  0  0  0  0  0  0  0
    6.7096    4.7847    0.0000 O   0  0  0  0  0  0  0  0  0  0  0  0
    4.9775    0.7847    0.0000 O   0  0  0  0  0  0  0  0  0  0  0  0
    5.8435    3.2847    0.0000 N   0  0  0  0  0  0  0  0  0  0  0  0
    5.8435    2.2847    0.0000 N   0  0  0  0  0  0  0  0  0  0  0  0
    5.8435   -0.7153    0.0000 N   0  0  0  0  0  0  0  0  0  0  0  0
    7.5756    2.2847    0.0000 C   0  0  0  0  0  0  0  0  0  0  0  0
    6.7096    1.7847    0.0000 C   0  0  0  0  0  0  0  0  0  0  0  0
    6.7096    0.7847    0.0000 C   0  0  0  0  0  0  0  0  0  0  0  0
    7.5756    3.2847    0.0000 C   0  0  0  0  0  0  0  0  0  0  0  0
    6.7096    3.7847    0.0000 C   0  0  0  0  0  0  0  0  0  0  0  0
    4.9775   -1.2153    0.0000 C   0  0  0  0  0  0  0  0  0  0  0  0
    5.8435    0.2847    0.0000 C   0  0  0  0  0  0  0  0  0  0  0  0
    8.4695    1.7500    0.0000 C   0  0  0  0  0  0  0  0  0  0  0  0
    4.1115   -2.7153    0.0000 C   0  0  0  0  0  0  0  0  0  0  0  0
    3.2454   -2.2153    0.0000 C   0  0  0  0  0  0  0  0  0  0  0  0
    8.4695    3.8194    0.0000 C   0  0  0  0  0  0  0  0  0  0  0  0
    4.9775   -2.2153    0.0000 C   0  0  0  0  0  0  0  0  0  0  0  0
    4.1115   -0.7153    0.0000 C   0  0  0  0  0  0  0  0  0  0  0  0
    3.2454   -1.2153    0.0000 C   0  0  0  0  0  0  0  0  0  0  0  0
    9.3756    2.2639    0.0000 C   0  0  0  0  0  0  0  0  0  0  0  0
    9.3756    3.3055    0.0000 C   0  0  0  0  0  0  0  0  0  0  0  0
    2.9136   -3.7902    0.0000 C   0  0  0  0  0  0  0  0  0  0  0  0
    4.9775    3.7847    0.0000 C   0  0  0  0  0  0  0  0  0  0  0  0
    6.9216    0.2021    0.0000 H   0  0  0  0  0  0  0  0  0  0  0  0
    7.3201    0.8924    0.0000 H   0  0  0  0  0  0  0  0  0  0  0  0
    8.4624    1.1301    0.0000 H   0  0  0  0  0  0  0  0  0  0  0  0
    6.3805   -1.0253    0.0000 H   0  0  0  0  0  0  0  0  0  0  0  0
    8.4624    4.4393    0.0000 H   0  0  0  0  0  0  0  0  0  0  0  0
    5.5144   -2.5253    0.0000 H   0  0  0  0  0  0  0  0  0  0  0  0
    4.1115   -0.0953    0.0000 H   0  0  0  0  0  0  0  0  0  0  0  0
    2.7085   -0.9053    0.0000 H   0  0  0  0  0  0  0  0  0  0  0  0
    9.9113    1.9518    0.0000 H   0  0  0  0  0  0  0  0  0  0  0  0
    9.9113    3.6176    0.0000 H   0  0  0  0  0  0  0  0  0  0  0  0
    5.2875    4.3216    0.0000 H   0  0  0  0  0  0  0  0  0  0  0  0
    4.4406    4.0947    0.0000 H   0  0  0  0  0  0  0  0  0  0  0  0
    4.6675    3.2478    0.0000 H   0  0  0  0  0  0  0  0  0  0  0  0
  1 26  1  0  0  0  0
  2 26  1  0  0  0  0
  3 18  1  0  0  0  0
  3 26  1  0  0  0  0
  4 19  1  0  0  0  0
  4 26  1  0  0  0  0
  5 14  2  0  0  0  0
  6 16  2  0  0  0  0
  7  8  1  0  0  0  0
  7 14  1  0  0  0  0
  7 27  1  0  0  0  0
  8 11  2  0  0  0  0
  9 15  1  0  0  0  0
  9 16  1  0  0  0  0
  9 31  1  0  0  0  0
 10 11  1  0  0  0  0
 10 13  1  0  0  0  0
 10 17  2  0  0  0  0
 11 12  1  0  0  0  0
 12 16  1  0  0  0  0
 12 28  1  0  0  0  0
 12 29  1  0  0  0  0
 13 14  1  0  0  0  0
 13 20  2  0  0  0  0
 15 21  2  0  0  0  0
 15 22  1  0  0  0  0
 17 24  1  0  0  0  0
 17 30  1  0  0  0  0
 18 19  2  0  0  0  0
 18 21  1  0  0  0  0
 19 23  1  0  0  0  0
 20 25  1  0  0  0  0
 20 32  1  0  0  0  0
 21 33  1  0  0  0  0
 22 23  2  0  0  0  0
 22 34  1  0  0  0  0
 23 35  1  0  0  0  0
 24 25  2  0  0  0  0
 24 36  1  0  0  0  0
 25 37  1  0  0  0  0
 27 38  1  0  0  0  0
 27 39  1  0  0  0  0
 27 40  1  0  0  0  0
M  END
> <PUBCHEM_COMPOUND_CID>
17395498

> <PUBCHEM_COMPOUND_CANONICALIZED>
1

> <PUBCHEM_CACTVS_COMPLEXITY>
657

> <PUBCHEM_CACTVS_HBOND_ACCEPTOR>
7

> <PUBCHEM_CACTVS_HBOND_DONOR>
1

> <PUBCHEM_CACTVS_ROTATABLE_BOND>
3

> <PUBCHEM_CACTVS_SUBSKEYS>
AAADccB7OYAAAAAAAAAAAAAAAAAAASAAAAAwYIAAAAAAAEiBQAAAHwAYAAAADAyBmBQyzoLABACoAyVyUACSCAAlIgAaiAE+7NgdJrLEtZukMSpm3hnO6Ye42IOOgEAAAgAQQAAAgAAEACCAAAAAAAAAAA==

> <PUBCHEM_IUPAC_OPENEYE_NAME>
N-(2,2-difluoro-1,3-benzodioxol-5-yl)-2-(3-methyl-4-oxo-phthalazin-1-yl)acetamide

> <PUBCHEM_IUPAC_CAS_NAME>
N-(2,2-difluoro-1,3-benzodioxol-5-yl)-2-(3-methyl-4-oxo-1-phthalazinyl)acetamide

> <PUBCHEM_IUPAC_NAME>
N-(2,2-difluoro-1,3-benzodioxol-5-yl)-2-(3-methyl-4-oxophthalazin-1-yl)acetamide

> <PUBCHEM_IUPAC_SYSTEMATIC_NAME>
N-[2,2-bis(fluoranyl)-1,3-benzodioxol-5-yl]-2-(3-methyl-4-oxidanylidene-phthalazin-1-yl)ethanamide

> <PUBCHEM_IUPAC_TRADITIONAL_NAME>
N-(2,2-difluoro-1,3-benzodioxol-5-yl)-2-(4-keto-3-methyl-phthalazin-1-yl)acetamide

> <PUBCHEM_IUPAC_INCHI>
InChI=1S/C18H13F2N3O4/c1-23-17(25)12-5-3-2-4-11(12)13(22-23)9-16(24)21-10-6-7-14-15(8-10)27-18(19,20)26-14/h2-8H,9H2,1H3,(H,21,24)

> <PUBCHEM_IUPAC_INCHIKEY>
JZISUWQLWQPXJB-UHFFFAOYSA-N

> <PUBCHEM_XLOGP3_AA>
2.8

> <PUBCHEM_EXACT_MASS>
373.087412

> <PUBCHEM_MOLECULAR_FORMULA>
C18H13F2N3O4

> <PUBCHEM_MOLECULAR_WEIGHT>
373.310326

> <PUBCHEM_OPENEYE_CAN_SMILES>
CN1C(=O)C2=CC=CC=C2C(=N1)CC(=O)NC3=CC4=C(C=C3)OC(O4)(F)F

> <PUBCHEM_OPENEYE_ISO_SMILES>
CN1C(=O)C2=CC=CC=C2C(=N1)CC(=O)NC3=CC4=C(C=C3)OC(O4)(F)F

> <PUBCHEM_CACTVS_TPSA>
80.2

> <PUBCHEM_MONOISOTOPIC_WEIGHT>
373.087412

> <PUBCHEM_TOTAL_CHARGE>
0

> <PUBCHEM_HEAVY_ATOM_COUNT>
27

> <PUBCHEM_ATOM_DEF_STEREO_COUNT>
0

> <PUBCHEM_ATOM_UDEF_STEREO_COUNT>
0

> <PUBCHEM_BOND_DEF_STEREO_COUNT>
0

> <PUBCHEM_BOND_UDEF_STEREO_COUNT>
0

> <PUBCHEM_ISOTOPIC_ATOM_COUNT>
0

> <PUBCHEM_COMPONENT_COUNT>
1

> <PUBCHEM_CACTVS_TAUTO_COUNT>
5

> <PUBCHEM_COORDINATE_TYPE>
1
5
255

> <PUBCHEM_BONDANNOTATIONS>
10  11  8
10  13  8
10  17  8
13  14  8
13  20  8
15  21  8
15  22  8
17  24  8
18  19  8
18  21  8
19  23  8
20  25  8
22  23  8
24  25  8
7  14  8
7  8  8
8  11  8

$$$$

