17396068
  -OEChem-06241222542D

 54 57  0     1  0  0  0  0  0999 V2000
    8.0524    1.2842    0.0000 S   0  0  0  0  0  0  0  0  0  0  0  0
    2.8660   -0.3546    0.0000 O   0  0  0  0  0  0  0  0  0  0  0  0
    6.5661   -0.0540    0.0000 O   0  0  0  0  0  0  0  0  0  0  0  0
    6.3301   -2.3546    0.0000 O   0  0  0  0  0  0  0  0  0  0  0  0
   11.4006   -1.9087    0.0000 O   0  0  0  0  0  0  0  0  0  0  0  0
    5.4071    1.2332    0.0000 N   0  0  0  0  0  0  0  0  0  0  0  0
    9.7736    1.7455    0.0000 N   0  0  0  0  0  0  0  0  0  0  0  0
    8.6910    2.9479    0.0000 N   0  0  0  0  0  0  0  0  0  0  0  0
   10.2736    2.6115    0.0000 N   0  0  0  0  0  0  0  0  0  0  0  0
    9.6045    3.3546    0.0000 N   0  0  0  0  0  0  0  0  0  0  0  0
    4.5981    0.6454    0.0000 C   0  0  3  0  0  0  0  0  0  0  0  0
    3.7891    1.2332    0.0000 C   0  0  0  0  0  0  0  0  0  0  0  0
    4.0981    2.1842    0.0000 C   0  0  0  0  0  0  0  0  0  0  0  0
    5.0981    2.1842    0.0000 C   0  0  0  0  0  0  0  0  0  0  0  0
    4.5981   -0.3546    0.0000 C   0  0  0  0  0  0  0  0  0  0  0  0
    6.3582    0.9241    0.0000 C   0  0  0  0  0  0  0  0  0  0  0  0
    3.7320   -0.8546    0.0000 C   0  0  0  0  0  0  0  0  0  0  0  0
    5.4641   -0.8546    0.0000 C   0  0  0  0  0  0  0  0  0  0  0  0
    7.1013    1.5933    0.0000 C   0  0  0  0  0  0  0  0  0  0  0  0
    5.4641   -1.8546    0.0000 C   0  0  0  0  0  0  0  0  0  0  0  0
    3.7320   -1.8546    0.0000 C   0  0  0  0  0  0  0  0  0  0  0  0
    4.5981   -2.3546    0.0000 C   0  0  0  0  0  0  0  0  0  0  0  0
    2.0000   -0.8546    0.0000 C   0  0  0  0  0  0  0  0  0  0  0  0
    8.7955    1.9534    0.0000 C   0  0  0  0  0  0  0  0  0  0  0  0
    6.3301   -3.3546    0.0000 C   0  0  0  0  0  0  0  0  0  0  0  0
   10.1804    0.8319    0.0000 C   0  0  0  0  0  0  0  0  0  0  0  0
   11.1749    0.7274    0.0000 C   0  0  0  0  0  0  0  0  0  0  0  0
    9.5926    0.0229    0.0000 C   0  0  0  0  0  0  0  0  0  0  0  0
   11.5816   -0.1862    0.0000 C   0  0  0  0  0  0  0  0  0  0  0  0
    9.9993   -0.8906    0.0000 C   0  0  0  0  0  0  0  0  0  0  0  0
   10.9939   -0.9952    0.0000 C   0  0  0  0  0  0  0  0  0  0  0  0
    5.1505    0.3639    0.0000 H   0  0  0  0  0  0  0  0  0  0  0  0
    3.2227    1.4853    0.0000 H   0  0  0  0  0  0  0  0  0  0  0  0
    3.4791    0.6962    0.0000 H   0  0  0  0  0  0  0  0  0  0  0  0
    4.1629    2.8008    0.0000 H   0  0  0  0  0  0  0  0  0  0  0  0
    3.4916    2.3131    0.0000 H   0  0  0  0  0  0  0  0  0  0  0  0
    5.7045    2.3131    0.0000 H   0  0  0  0  0  0  0  0  0  0  0  0
    5.0333    2.8008    0.0000 H   0  0  0  0  0  0  0  0  0  0  0  0
    6.0010   -0.5446    0.0000 H   0  0  0  0  0  0  0  0  0  0  0  0
    7.3924    2.1407    0.0000 H   0  0  0  0  0  0  0  0  0  0  0  0
    6.6127    1.9750    0.0000 H   0  0  0  0  0  0  0  0  0  0  0  0
    3.1951   -2.1646    0.0000 H   0  0  0  0  0  0  0  0  0  0  0  0
    4.5981   -2.9746    0.0000 H   0  0  0  0  0  0  0  0  0  0  0  0
    1.6900   -0.3177    0.0000 H   0  0  0  0  0  0  0  0  0  0  0  0
    1.4631   -1.1646    0.0000 H   0  0  0  0  0  0  0  0  0  0  0  0
    2.3100   -1.3916    0.0000 H   0  0  0  0  0  0  0  0  0  0  0  0
    5.7101   -3.3546    0.0000 H   0  0  0  0  0  0  0  0  0  0  0  0
    6.3301   -3.9746    0.0000 H   0  0  0  0  0  0  0  0  0  0  0  0
    6.9501   -3.3546    0.0000 H   0  0  0  0  0  0  0  0  0  0  0  0
   11.5393    1.2290    0.0000 H   0  0  0  0  0  0  0  0  0  0  0  0
    8.9760    0.0877    0.0000 H   0  0  0  0  0  0  0  0  0  0  0  0
   12.1982   -0.2510    0.0000 H   0  0  0  0  0  0  0  0  0  0  0  0
    9.6349   -1.3922    0.0000 H   0  0  0  0  0  0  0  0  0  0  0  0
   12.0172   -1.9735    0.0000 H   0  0  0  0  0  0  0  0  0  0  0  0
  1 19  1  0  0  0  0
  1 24  1  0  0  0  0
  2 17  1  0  0  0  0
  2 23  1  0  0  0  0
  3 16  2  0  0  0  0
  4 20  1  0  0  0  0
  4 25  1  0  0  0  0
  5 31  1  0  0  0  0
  5 54  1  0  0  0  0
  6 11  1  0  0  0  0
  6 14  1  0  0  0  0
  6 16  1  0  0  0  0
  7  9  1  0  0  0  0
  7 24  1  0  0  0  0
  7 26  1  0  0  0  0
  8 10  1  0  0  0  0
  8 24  2  0  0  0  0
  9 10  2  0  0  0  0
 11 12  1  0  0  0  0
 11 15  1  0  0  0  0
 11 32  1  0  0  0  0
 12 13  1  0  0  0  0
 12 33  1  0  0  0  0
 12 34  1  0  0  0  0
 13 14  1  0  0  0  0
 13 35  1  0  0  0  0
 13 36  1  0  0  0  0
 14 37  1  0  0  0  0
 14 38  1  0  0  0  0
 15 17  2  0  0  0  0
 15 18  1  0  0  0  0
 16 19  1  0  0  0  0
 17 21  1  0  0  0  0
 18 20  2  0  0  0  0
 18 39  1  0  0  0  0
 19 40  1  0  0  0  0
 19 41  1  0  0  0  0
 20 22  1  0  0  0  0
 21 22  2  0  0  0  0
 21 42  1  0  0  0  0
 22 43  1  0  0  0  0
 23 44  1  0  0  0  0
 23 45  1  0  0  0  0
 23 46  1  0  0  0  0
 25 47  1  0  0  0  0
 25 48  1  0  0  0  0
 25 49  1  0  0  0  0
 26 27  2  0  0  0  0
 26 28  1  0  0  0  0
 27 29  1  0  0  0  0
 27 50  1  0  0  0  0
 28 30  2  0  0  0  0
 28 51  1  0  0  0  0
 29 31  2  0  0  0  0
 29 52  1  0  0  0  0
 30 31  1  0  0  0  0
 30 53  1  0  0  0  0
M  END
> <PUBCHEM_COMPOUND_CID>
17396068

> <PUBCHEM_COMPOUND_CANONICALIZED>
1

> <PUBCHEM_CACTVS_COMPLEXITY>
594

> <PUBCHEM_CACTVS_HBOND_ACCEPTOR>
8

> <PUBCHEM_CACTVS_HBOND_DONOR>
1

> <PUBCHEM_CACTVS_ROTATABLE_BOND>
7

> <PUBCHEM_CACTVS_SUBSKEYS>
AAADceB7uABAAAAAAAAAAAAAAAAAAWLAAAAwYAAAAAAAAAAB0AAAHgQICAAADCzF2Aaz1ocIBgiqAiVSdACCHCNhIpAdiAAObIiMJiLGuZuEcChmxhPI+CfwwLAOAUABAAAIAAACgAIAABAAAAAAAAAAAA==

> <PUBCHEM_IUPAC_OPENEYE_NAME>
1-[2-(2,5-dimethoxyphenyl)pyrrolidin-1-yl]-2-[1-(4-hydroxyphenyl)tetrazol-5-yl]sulfanyl-ethanone

> <PUBCHEM_IUPAC_CAS_NAME>
1-[2-(2,5-dimethoxyphenyl)-1-pyrrolidinyl]-2-[[1-(4-hydroxyphenyl)-5-tetrazolyl]thio]ethanone

> <PUBCHEM_IUPAC_NAME>
1-[2-(2,5-dimethoxyphenyl)pyrrolidin-1-yl]-2-[1-(4-hydroxyphenyl)tetrazol-5-yl]sulfanylethanone

> <PUBCHEM_IUPAC_SYSTEMATIC_NAME>
1-[2-(2,5-dimethoxyphenyl)pyrrolidin-1-yl]-2-[[1-(4-hydroxyphenyl)-1,2,3,4-tetrazol-5-yl]sulfanyl]ethanone

> <PUBCHEM_IUPAC_TRADITIONAL_NAME>
1-[2-(2,5-dimethoxyphenyl)pyrrolidino]-2-[[1-(4-hydroxyphenyl)tetrazol-5-yl]thio]ethanone

> <PUBCHEM_IUPAC_INCHI>
InChI=1S/C21H23N5O4S/c1-29-16-9-10-19(30-2)17(12-16)18-4-3-11-25(18)20(28)13-31-21-22-23-24-26(21)14-5-7-15(27)8-6-14/h5-10,12,18,27H,3-4,11,13H2,1-2H3

> <PUBCHEM_IUPAC_INCHIKEY>
MXDONICLNSUVKV-UHFFFAOYSA-N

> <PUBCHEM_XLOGP3_AA>
3.2

> <PUBCHEM_EXACT_MASS>
441.147075

> <PUBCHEM_MOLECULAR_FORMULA>
C21H23N5O4S

> <PUBCHEM_MOLECULAR_WEIGHT>
441.50342

> <PUBCHEM_OPENEYE_CAN_SMILES>
COC1=CC(=C(C=C1)OC)C2CCCN2C(=O)CSC3=NN=NN3C4=CC=C(C=C4)O

> <PUBCHEM_OPENEYE_ISO_SMILES>
COC1=CC(=C(C=C1)OC)C2CCCN2C(=O)CSC3=NN=NN3C4=CC=C(C=C4)O

> <PUBCHEM_CACTVS_TPSA>
128

> <PUBCHEM_MONOISOTOPIC_WEIGHT>
441.147075

> <PUBCHEM_TOTAL_CHARGE>
0

> <PUBCHEM_HEAVY_ATOM_COUNT>
31

> <PUBCHEM_ATOM_DEF_STEREO_COUNT>
0

> <PUBCHEM_ATOM_UDEF_STEREO_COUNT>
1

> <PUBCHEM_BOND_DEF_STEREO_COUNT>
0

> <PUBCHEM_BOND_UDEF_STEREO_COUNT>
0

> <PUBCHEM_ISOTOPIC_ATOM_COUNT>
0

> <PUBCHEM_COMPONENT_COUNT>
1

> <PUBCHEM_CACTVS_TAUTO_COUNT>
2

> <PUBCHEM_COORDINATE_TYPE>
1
5
255

> <PUBCHEM_BONDANNOTATIONS>
11  15  3
15  17  8
15  18  8
17  21  8
18  20  8
20  22  8
21  22  8
26  27  8
26  28  8
27  29  8
28  30  8
29  31  8
30  31  8
7  24  8
7  9  8
8  10  8
8  24  8
9  10  8

$$$$

