10115
  -OEChem-06261204193D

 82 86  0     1  0  0  0  0  0999 V2000
    0.7086   -0.5604   -0.1850 C   0  0  1  0  0  0  0  0  0  0  0  0
   -0.7858   -0.5427    0.4899 C   0  0  1  0  0  0  0  0  0  0  0  0
    1.4110    0.8203    0.1614 C   0  0  1  0  0  0  0  0  0  0  0  0
   -1.5869    0.6920   -0.0987 C   0  0  1  0  0  0  0  0  0  0  0  0
    2.9393    0.8872   -0.1589 C   0  0  2  0  0  0  0  0  0  0  0  0
   -3.1507    0.7385    0.2180 C   0  0  2  0  0  0  0  0  0  0  0  0
    3.5960   -0.3147    0.5583 C   0  0  1  0  0  0  0  0  0  0  0  0
   -3.7524   -0.6517   -0.2153 C   0  0  1  0  0  0  0  0  0  0  0  0
    1.5793   -1.7611    0.3352 C   0  0  0  0  0  0  0  0  0  0  0  0
    0.6038    2.0226   -0.3534 C   0  0  0  0  0  0  0  0  0  0  0  0
   -0.8404    2.0250    0.1571 C   0  0  0  0  0  0  0  0  0  0  0  0
   -1.5617   -1.8582    0.1908 C   0  0  0  0  0  0  0  0  0  0  0  0
    3.0924   -1.6555    0.0514 C   0  0  0  0  0  0  0  0  0  0  0  0
    5.0969   -0.0095    0.6236 C   0  0  2  0  0  0  0  0  0  0  0  0
    3.6902    2.0279    0.5669 C   0  0  0  0  0  0  0  0  0  0  0  0
   -3.0587   -1.8159    0.5176 C   0  0  0  0  0  0  0  0  0  0  0  0
   -5.3192   -0.7463   -0.2580 C   0  0  0  0  0  0  0  0  0  0  0  0
    0.6065   -0.7640   -1.7300 C   0  0  0  0  0  0  0  0  0  0  0  0
   -0.6805   -0.4509    2.0449 C   0  0  0  0  0  0  0  0  0  0  0  0
   -3.8139    1.8378   -0.6713 C   0  0  0  0  0  0  0  0  0  0  0  0
    5.1504    1.5355    0.6523 C   0  0  0  0  0  0  0  0  0  0  0  0
    3.2637    1.0090   -1.6671 C   0  0  0  0  0  0  0  0  0  0  0  0
   -3.4317    1.1060    1.6954 C   0  0  0  0  0  0  0  0  0  0  0  0
   -5.8689    0.4236   -1.1105 C   0  0  0  0  0  0  0  0  0  0  0  0
   -5.3420    1.7915   -0.7028 C   0  0  0  0  0  0  0  0  0  0  0  0
    5.9543   -0.6218   -0.4766 C   0  0  0  0  0  0  0  0  0  0  0  0
   -5.9899   -0.7611    1.1274 C   0  0  0  0  0  0  0  0  0  0  0  0
   -5.7564   -2.0535   -0.9705 C   0  0  0  0  0  0  0  0  0  0  0  0
    7.4159   -0.2045   -0.3183 C   0  0  0  0  0  0  0  0  0  0  0  0
    5.8306   -2.1452   -0.4736 C   0  0  0  0  0  0  0  0  0  0  0  0
    1.3770    0.9095    1.2545 H   0  0  0  0  0  0  0  0  0  0  0  0
   -1.5643    0.5650   -1.1889 H   0  0  0  0  0  0  0  0  0  0  0  0
    3.2764   -0.2754    1.6150 H   0  0  0  0  0  0  0  0  0  0  0  0
   -3.4566   -0.7698   -1.2718 H   0  0  0  0  0  0  0  0  0  0  0  0
    1.2079   -2.7053   -0.0824 H   0  0  0  0  0  0  0  0  0  0  0  0
    1.4852   -1.8595    1.4190 H   0  0  0  0  0  0  0  0  0  0  0  0
    0.5829    2.0522   -1.4466 H   0  0  0  0  0  0  0  0  0  0  0  0
    1.0818    2.9563   -0.0339 H   0  0  0  0  0  0  0  0  0  0  0  0
   -0.8273    2.2731    1.2223 H   0  0  0  0  0  0  0  0  0  0  0  0
   -1.3550    2.8533   -0.3402 H   0  0  0  0  0  0  0  0  0  0  0  0
   -1.1081   -2.6963    0.7342 H   0  0  0  0  0  0  0  0  0  0  0  0
   -1.4962   -2.1180   -0.8680 H   0  0  0  0  0  0  0  0  0  0  0  0
    3.5596   -2.4855    0.5887 H   0  0  0  0  0  0  0  0  0  0  0  0
    3.2420   -1.7863   -1.0203 H   0  0  0  0  0  0  0  0  0  0  0  0
    5.4752   -0.3794    1.5877 H   0  0  0  0  0  0  0  0  0  0  0  0
    3.2996    2.1728    1.5822 H   0  0  0  0  0  0  0  0  0  0  0  0
    3.6176    2.9901    0.0491 H   0  0  0  0  0  0  0  0  0  0  0  0
   -3.4767   -2.7753    0.1964 H   0  0  0  0  0  0  0  0  0  0  0  0
   -3.2212   -1.7717    1.5973 H   0  0  0  0  0  0  0  0  0  0  0  0
    0.1357    0.0709   -2.2515 H   0  0  0  0  0  0  0  0  0  0  0  0
    1.5773   -0.9122   -2.1984 H   0  0  0  0  0  0  0  0  0  0  0  0
    0.0524   -1.6674   -1.9937 H   0  0  0  0  0  0  0  0  0  0  0  0
   -0.2684    0.4951    2.4000 H   0  0  0  0  0  0  0  0  0  0  0  0
   -1.6441   -0.5670    2.5381 H   0  0  0  0  0  0  0  0  0  0  0  0
   -0.0708   -1.2521    2.4677 H   0  0  0  0  0  0  0  0  0  0  0  0
   -3.4515    1.7415   -1.7035 H   0  0  0  0  0  0  0  0  0  0  0  0
   -3.5171    2.8367   -0.3304 H   0  0  0  0  0  0  0  0  0  0  0  0
    5.7130    1.9526   -0.1886 H   0  0  0  0  0  0  0  0  0  0  0  0
    5.6236    1.9010    1.5703 H   0  0  0  0  0  0  0  0  0  0  0  0
    2.5272    1.6157   -2.1990 H   0  0  0  0  0  0  0  0  0  0  0  0
    4.2230    1.5048   -1.8500 H   0  0  0  0  0  0  0  0  0  0  0  0
    3.3356    0.0461   -2.1724 H   0  0  0  0  0  0  0  0  0  0  0  0
   -2.6537    1.7424    2.1224 H   0  0  0  0  0  0  0  0  0  0  0  0
   -4.3548    1.6778    1.8190 H   0  0  0  0  0  0  0  0  0  0  0  0
   -3.5335    0.2332    2.3416 H   0  0  0  0  0  0  0  0  0  0  0  0
   -6.9658    0.4381   -1.0746 H   0  0  0  0  0  0  0  0  0  0  0  0
   -5.6027    0.2602   -2.1641 H   0  0  0  0  0  0  0  0  0  0  0  0
   -5.7628    2.0834    0.2643 H   0  0  0  0  0  0  0  0  0  0  0  0
   -5.7024    2.5391   -1.4201 H   0  0  0  0  0  0  0  0  0  0  0  0
    5.6345   -0.2692   -1.4622 H   0  0  0  0  0  0  0  0  0  0  0  0
   -7.0650   -0.9586    1.0344 H   0  0  0  0  0  0  0  0  0  0  0  0
   -5.9029    0.1879    1.6562 H   0  0  0  0  0  0  0  0  0  0  0  0
   -5.5749   -1.5461    1.7675 H   0  0  0  0  0  0  0  0  0  0  0  0
   -6.8342   -2.0490   -1.1729 H   0  0  0  0  0  0  0  0  0  0  0  0
   -5.5532   -2.9406   -0.3622 H   0  0  0  0  0  0  0  0  0  0  0  0
   -5.2434   -2.1755   -1.9310 H   0  0  0  0  0  0  0  0  0  0  0  0
    7.8113   -0.5119    0.6562 H   0  0  0  0  0  0  0  0  0  0  0  0
    8.0368   -0.6723   -1.0907 H   0  0  0  0  0  0  0  0  0  0  0  0
    7.5585    0.8750   -0.4156 H   0  0  0  0  0  0  0  0  0  0  0  0
    5.6979   -2.5587    0.5307 H   0  0  0  0  0  0  0  0  0  0  0  0
    6.7596   -2.5926   -0.8519 H   0  0  0  0  0  0  0  0  0  0  0  0
    5.0743   -2.5207   -1.1623 H   0  0  0  0  0  0  0  0  0  0  0  0
  1  2  1  0  0  0  0
  1  3  1  0  0  0  0
  1  9  1  0  0  0  0
  1 18  1  0  0  0  0
  2  4  1  0  0  0  0
  2 12  1  0  0  0  0
  2 19  1  0  0  0  0
  3  5  1  0  0  0  0
  3 10  1  0  0  0  0
  3 31  1  0  0  0  0
  4  6  1  0  0  0  0
  4 11  1  0  0  0  0
  4 32  1  0  0  0  0
  5  7  1  0  0  0  0
  5 15  1  0  0  0  0
  5 22  1  0  0  0  0
  6  8  1  0  0  0  0
  6 20  1  0  0  0  0
  6 23  1  0  0  0  0
  7 13  1  0  0  0  0
  7 14  1  0  0  0  0
  7 33  1  0  0  0  0
  8 16  1  0  0  0  0
  8 17  1  0  0  0  0
  8 34  1  0  0  0  0
  9 13  1  0  0  0  0
  9 35  1  0  0  0  0
  9 36  1  0  0  0  0
 10 11  1  0  0  0  0
 10 37  1  0  0  0  0
 10 38  1  0  0  0  0
 11 39  1  0  0  0  0
 11 40  1  0  0  0  0
 12 16  1  0  0  0  0
 12 41  1  0  0  0  0
 12 42  1  0  0  0  0
 13 43  1  0  0  0  0
 13 44  1  0  0  0  0
 14 21  1  0  0  0  0
 14 26  1  0  0  0  0
 14 45  1  0  0  0  0
 15 21  1  0  0  0  0
 15 46  1  0  0  0  0
 15 47  1  0  0  0  0
 16 48  1  0  0  0  0
 16 49  1  0  0  0  0
 17 24  1  0  0  0  0
 17 27  1  0  0  0  0
 17 28  1  0  0  0  0
 18 50  1  0  0  0  0
 18 51  1  0  0  0  0
 18 52  1  0  0  0  0
 19 53  1  0  0  0  0
 19 54  1  0  0  0  0
 19 55  1  0  0  0  0
 20 25  1  0  0  0  0
 20 56  1  0  0  0  0
 20 57  1  0  0  0  0
 21 58  1  0  0  0  0
 21 59  1  0  0  0  0
 22 60  1  0  0  0  0
 22 61  1  0  0  0  0
 22 62  1  0  0  0  0
 23 63  1  0  0  0  0
 23 64  1  0  0  0  0
 23 65  1  0  0  0  0
 24 25  1  0  0  0  0
 24 66  1  0  0  0  0
 24 67  1  0  0  0  0
 25 68  1  0  0  0  0
 25 69  1  0  0  0  0
 26 29  1  0  0  0  0
 26 30  1  0  0  0  0
 26 70  1  0  0  0  0
 27 71  1  0  0  0  0
 27 72  1  0  0  0  0
 27 73  1  0  0  0  0
 28 74  1  0  0  0  0
 28 75  1  0  0  0  0
 28 76  1  0  0  0  0
 29 77  1  0  0  0  0
 29 78  1  0  0  0  0
 29 79  1  0  0  0  0
 30 80  1  0  0  0  0
 30 81  1  0  0  0  0
 30 82  1  0  0  0  0
M  END
> <PUBCHEM_COMPOUND_CID>
10115

> <PUBCHEM_CONFORMER_RMSD>
0.8

> <PUBCHEM_CONFORMER_DIVERSEORDER>
1

> <PUBCHEM_MMFF94_PARTIAL_CHARGES>
0

> <PUBCHEM_EFFECTIVE_ROTOR_COUNT>
3.6

> <PUBCHEM_PHARMACOPHORE_FEATURES>
7
3 17 27 28 hydrophobe
3 26 29 30 hydrophobe
5 5 7 14 15 21 rings
6 1 2 3 4 10 11 rings
6 1 3 5 7 9 13 rings
6 2 4 6 8 12 16 rings
6 6 8 17 20 24 25 rings

> <PUBCHEM_HEAVY_ATOM_COUNT>
30

> <PUBCHEM_ATOM_DEF_STEREO_COUNT>
9

> <PUBCHEM_ATOM_UDEF_STEREO_COUNT>
0

> <PUBCHEM_BOND_DEF_STEREO_COUNT>
0

> <PUBCHEM_BOND_UDEF_STEREO_COUNT>
0

> <PUBCHEM_ISOTOPIC_ATOM_COUNT>
0

> <PUBCHEM_COMPONENT_COUNT>
1

> <PUBCHEM_CACTVS_TAUTO_COUNT>
1

> <PUBCHEM_CONFORMER_ID>
0000278300000001

> <PUBCHEM_MMFF94_ENERGY>
163.5958

> <PUBCHEM_FEATURE_SELFOVERLAP>
35.614

> <PUBCHEM_SHAPE_FINGERPRINT>
10 15 18271534096375714352
11045977 3 18410014316911954624
11315181 36 18186238424655766953
11488393 25 17242439754039043254
11578080 2 16808157700720849808
11963148 33 18410864239179777326
12011746 2 18342455967662820388
12166972 35 18411698759909419616
12236239 1 17894911810643071402
12403259 415 18410579474193924392
12516196 113 18335422357214776072
12616971 3 14924232598804499728
12788726 201 18337677532498184209
13224815 77 17894907429987387069
13402501 40 18411703192188392948
13533116 47 18186801375125893106
13782708 43 17458063776623209742
13811026 1 18411147921636880136
14251764 18 18272092686973655434
14341114 176 18411416189599347921
14856354 85 14836116654944629843
15082195 135 18200305499434401668
15183329 4 18413112774716940899
15196674 1 18411421712980193929
15788980 27 18202281407258770893
15849732 13 18260830397981379902
17349148 13 18113611283620881705
17980427 23 17603854607730281169
1813 80 16989126457138985204
18681886 176 18408892806625011096
19377110 9 4967616053190649278
200 152 18113057138123447041
20028762 73 18259988184622646102
20511986 3 18269854076202903707
21033648 29 17846227673522700597
21130935 74 18113899333939854163
21150785 3 14620790475161489403
21236236 1 18410857668443069361
21267235 1 18411975853918813443
21279426 13 18339928207061995044
21682296 61 17677603345478593382
22393880 68 18342748446298361661
23402539 116 18409454682778670509
23522609 53 18119215485740621816
23559900 14 18411423895082283680
23569943 247 17913774092218051938
3004659 81 18202848747048661308
335352 9 18412827992578541333
3383291 50 18131349657636581355
34797466 226 17604143731695339076
350125 39 18413108390056472148
3545911 37 18412262835112052410
3633792 109 18336272344354318773
404807 14 17251728552677190470
4073 2 18059572435011023818
4325135 7 18335423461311300695
5104073 3 18412265072795204737
5283173 99 18270687570742331061
6328613 192 17774994670893884684
6669772 16 17098080251122162208
7495541 125 17095810914640235803
77296 10 18408604734067324455

> <PUBCHEM_SHAPE_MULTIPOLES>
617.39
16.11
2.32
1.29
5.06
0.06
0.1
-2.46
-2.07
-0.31
-0.14
-0.6
0.04
0.46

> <PUBCHEM_SHAPE_SELFOVERLAP>
1295.145

> <PUBCHEM_SHAPE_VOLUME>
347.5

> <PUBCHEM_COORDINATE_TYPE>
2
5
10

$$$$

