17395280
  -OEChem-06241222493D

 48 52  0     1  0  0  0  0  0999 V2000
   -1.9499   -3.3298   -0.8984 S   0  0  0  0  0  0  0  0  0  0  0  0
   -0.0561    4.3569   -1.2493 O   0  0  0  0  0  0  0  0  0  0  0  0
   -1.2740    3.1865    1.7920 O   0  0  0  0  0  0  0  0  0  0  0  0
    0.4150    1.8042    1.0371 N   0  0  0  0  0  0  0  0  0  0  0  0
    1.0270    0.5866    1.1080 N   0  0  0  0  0  0  0  0  0  0  0  0
   -2.2138    0.1800    1.8280 N   0  0  0  0  0  0  0  0  0  0  0  0
   -1.8449   -0.8621    1.0699 N   0  0  0  0  0  0  0  0  0  0  0  0
   -3.5213    0.4750    1.8289 N   0  0  0  0  0  0  0  0  0  0  0  0
   -4.0664   -0.4259    1.0207 N   0  0  0  0  0  0  0  0  0  0  0  0
    1.1179    2.7469    0.1659 C   0  0  1  0  0  0  0  0  0  0  0  0
    2.4250    2.0338   -0.1476 C   0  0  0  0  0  0  0  0  0  0  0  0
    2.1327    0.6713    0.4323 C   0  0  0  0  0  0  0  0  0  0  0  0
    0.2943    3.0565   -1.0696 C   0  0  0  0  0  0  0  0  0  0  0  0
    3.0646   -0.4644    0.2588 C   0  0  0  0  0  0  0  0  0  0  0  0
   -0.7165    2.0882    1.7784 C   0  0  0  0  0  0  0  0  0  0  0  0
   -0.1974    2.2780   -2.0916 C   0  0  0  0  0  0  0  0  0  0  0  0
   -1.2555    0.9441    2.6017 C   0  0  0  0  0  0  0  0  0  0  0  0
    4.2495   -0.2910   -0.4563 C   0  0  0  0  0  0  0  0  0  0  0  0
    2.7584   -1.7086    0.8101 C   0  0  0  0  0  0  0  0  0  0  0  0
   -0.8948    3.1566   -2.9545 C   0  0  0  0  0  0  0  0  0  0  0  0
   -0.7794    4.4094   -2.3986 C   0  0  0  0  0  0  0  0  0  0  0  0
    5.1283   -1.3617   -0.6203 C   0  0  0  0  0  0  0  0  0  0  0  0
    3.6371   -2.7794    0.6461 C   0  0  0  0  0  0  0  0  0  0  0  0
    4.8220   -2.6060   -0.0692 C   0  0  0  0  0  0  0  0  0  0  0  0
    5.7623   -3.7500   -0.2437 C   0  0  0  0  0  0  0  0  0  0  0  0
   -3.0396   -1.2090    0.5841 C   0  0  0  0  0  0  0  0  0  0  0  0
   -3.2292   -2.3378   -0.3404 C   0  0  0  0  0  0  0  0  0  0  0  0
   -4.4460   -2.7227   -0.8592 C   0  0  0  0  0  0  0  0  0  0  0  0
   -4.3264   -3.8471   -1.7262 C   0  0  0  0  0  0  0  0  0  0  0  0
   -3.0229   -4.2785   -1.8370 C   0  0  0  0  0  0  0  0  0  0  0  0
    1.2933    3.6745    0.7240 H   0  0  0  0  0  0  0  0  0  0  0  0
    3.2591    2.4808    0.4035 H   0  0  0  0  0  0  0  0  0  0  0  0
    2.6603    1.9895   -1.2140 H   0  0  0  0  0  0  0  0  0  0  0  0
   -0.0717    1.2103   -2.2024 H   0  0  0  0  0  0  0  0  0  0  0  0
   -0.4805    0.2665    2.9692 H   0  0  0  0  0  0  0  0  0  0  0  0
   -1.7759    1.3470    3.4777 H   0  0  0  0  0  0  0  0  0  0  0  0
    4.5239    0.6636   -0.8945 H   0  0  0  0  0  0  0  0  0  0  0  0
    1.8415   -1.8700    1.3707 H   0  0  0  0  0  0  0  0  0  0  0  0
   -1.4165    2.9077   -3.8672 H   0  0  0  0  0  0  0  0  0  0  0  0
   -1.1357    5.3889   -2.6821 H   0  0  0  0  0  0  0  0  0  0  0  0
    6.0501   -1.2137   -1.1768 H   0  0  0  0  0  0  0  0  0  0  0  0
    3.3882   -3.7435    1.0816 H   0  0  0  0  0  0  0  0  0  0  0  0
    6.4871   -3.7690    0.5762 H   0  0  0  0  0  0  0  0  0  0  0  0
    5.2252   -4.7045   -0.2592 H   0  0  0  0  0  0  0  0  0  0  0  0
    6.3061   -3.6735   -1.1914 H   0  0  0  0  0  0  0  0  0  0  0  0
   -5.3856   -2.2316   -0.6373 H   0  0  0  0  0  0  0  0  0  0  0  0
   -5.1542   -4.3155   -2.2423 H   0  0  0  0  0  0  0  0  0  0  0  0
   -2.6493   -5.1055   -2.4243 H   0  0  0  0  0  0  0  0  0  0  0  0
  1 27  1  0  0  0  0
  1 30  1  0  0  0  0
  2 13  1  0  0  0  0
  2 21  1  0  0  0  0
  3 15  2  0  0  0  0
  4  5  1  0  0  0  0
  4 10  1  0  0  0  0
  4 15  1  0  0  0  0
  5 12  2  0  0  0  0
  6  7  1  0  0  0  0
  6  8  1  0  0  0  0
  6 17  1  0  0  0  0
  7 26  2  0  0  0  0
  8  9  2  0  0  0  0
  9 26  1  0  0  0  0
 10 11  1  0  0  0  0
 10 13  1  0  0  0  0
 10 31  1  0  0  0  0
 11 12  1  0  0  0  0
 11 32  1  0  0  0  0
 11 33  1  0  0  0  0
 12 14  1  0  0  0  0
 13 16  2  0  0  0  0
 14 18  2  0  0  0  0
 14 19  1  0  0  0  0
 15 17  1  0  0  0  0
 16 20  1  0  0  0  0
 16 34  1  0  0  0  0
 17 35  1  0  0  0  0
 17 36  1  0  0  0  0
 18 22  1  0  0  0  0
 18 37  1  0  0  0  0
 19 23  2  0  0  0  0
 19 38  1  0  0  0  0
 20 21  2  0  0  0  0
 20 39  1  0  0  0  0
 21 40  1  0  0  0  0
 22 24  2  0  0  0  0
 22 41  1  0  0  0  0
 23 24  1  0  0  0  0
 23 42  1  0  0  0  0
 24 25  1  0  0  0  0
 25 43  1  0  0  0  0
 25 44  1  0  0  0  0
 25 45  1  0  0  0  0
 26 27  1  0  0  0  0
 27 28  2  0  0  0  0
 28 29  1  0  0  0  0
 28 46  1  0  0  0  0
 29 30  2  0  0  0  0
 29 47  1  0  0  0  0
 30 48  1  0  0  0  0
M  END
> <PUBCHEM_COMPOUND_CID>
17395280

> <PUBCHEM_CONFORMER_RMSD>
1

> <PUBCHEM_CONFORMER_DIVERSEORDER>
4
93
111
134
169
107
184
46
159
32
183
88
64
193
152
148
178
85
31
185
119
105
50
139
165
199
194
182
29
11
57
154
179
191
27
81
63
94
208
163
206
162
116
59
24
117
96
211
135
83
160
174
55
150
112
176
212
113
56
137
51
6
38
130
103
158
132
167
171
140
71
26
129
181
155
114
89
80
147
180
125
84
207
202
215
153
157
115
138
204
67
187
131
200
53
198
60
109
102
192
99
214
209
97
126
16
39
197
170
62
164
106
33
82
203
205
121
42
161
78
17
47
14
52
136
92
15
8
68
87
133
77
91
149
12
19
69
44
95
168
98
118
190
34
177
90
145
104
189
49
74
13
41
66
5
58
100
10
73
196
65
101
128
144
120
173
45
156
142
43
213
37
18
122
20
61
79
7
25
124
76
110
175
151
86
141
3
40
146
188
21
210
75
172
22
28
23
35
70
123
186
2
1
36
108
48
201
72
54
30
127
195
143
9
166

> <PUBCHEM_MMFF94_PARTIAL_CHARGES>
40
1 -0.08
10 0.48
11 0.06
12 0.3
13 -0.04
14 0.09
15 0.57
16 -0.15
17 0.32
18 -0.15
19 -0.15
2 -0.28
20 -0.15
21 -0.01
22 -0.15
23 -0.15
24 -0.14
25 0.14
26 0.52
27 0.04
28 -0.15
29 -0.15
3 -0.57
30 -0.11
34 0.15
37 0.15
38 0.15
39 0.15
4 -0.3
40 0.15
41 0.15
42 0.15
46 0.15
47 0.15
48 0.15
5 -0.51
6 0.58
7 -0.71
8 -0.42
9 -0.23

> <PUBCHEM_EFFECTIVE_ROTOR_COUNT>
6.6

> <PUBCHEM_PHARMACOPHORE_FEATURES>
9
1 2 acceptor
1 3 acceptor
1 5 acceptor
3 7 9 26 cation
5 1 27 28 29 30 rings
5 2 13 16 20 21 rings
5 4 5 10 11 12 rings
5 6 7 8 9 26 rings
6 14 18 19 22 23 24 rings

> <PUBCHEM_HEAVY_ATOM_COUNT>
30

> <PUBCHEM_ATOM_DEF_STEREO_COUNT>
0

> <PUBCHEM_ATOM_UDEF_STEREO_COUNT>
1

> <PUBCHEM_BOND_DEF_STEREO_COUNT>
0

> <PUBCHEM_BOND_UDEF_STEREO_COUNT>
0

> <PUBCHEM_ISOTOPIC_ATOM_COUNT>
0

> <PUBCHEM_COMPONENT_COUNT>
1

> <PUBCHEM_CACTVS_TAUTO_COUNT>
1

> <PUBCHEM_CONFORMER_ID>
01096E5000000004

> <PUBCHEM_MMFF94_ENERGY>
50.3066

> <PUBCHEM_FEATURE_SELFOVERLAP>
45.669

> <PUBCHEM_SHAPE_FINGERPRINT>
10305334 12 12419584001601440374
10622 236 18260834769378177487
10928967 22 17104519962004335295
11069576 57 17901959538528013591
11070050 100 11619245583676501132
11315621 246 18190443039416111262
11477941 20 17558239238117356204
11552529 35 18115867584976992658
11578080 2 18336276725174281080
12166972 35 18265339409009983495
12660671 118 16116194596245645745
12969540 37 18116440241340263912
12977781 61 17904806389571156920
14114206 34 17846497075520415746
14289585 56 18059024977241593741
14674994 50 18266748067534350373
14856354 85 17024011844054744362
14863182 85 17469049860436955992
15444296 8 17127568242583457225
15803439 3 17335925837363737964
16989713 51 18265613363952691422
16993438 75 18054517077687821862
18603816 31 16374402872157344150
19319366 153 17253435600091821982
20602899 9 17760945325545971872
20775530 9 18261678051946936679
21304303 282 16127275427195625452
21344244 181 17834132109393344165
21987483 16 9294469286204593647
238 59 17409650952401628473
25222932 49 16016355268403887055
26353 1 18059858337555716860
340366 18 18411413991393763313
4017518 198 17538554813608689959
437795 70 17986979447687874471
4409770 3 18052264186968118110
46194498 28 17627245459312099575
463206 1 18045495318515228331
484985 159 18046351000596600534
5080951 261 18053956314267905954
5081480 168 17560245704777117357
6677587 24 16542194514012071327
7288768 16 11349704281172403707

> <PUBCHEM_SHAPE_MULTIPOLES>
579.61
9.42
6.97
2.44
5.83
1.23
-0.27
-16.07
-1.25
-1.69
-5.11
-2.39
2.42
-1.89

> <PUBCHEM_SHAPE_SELFOVERLAP>
1262.316

> <PUBCHEM_SHAPE_VOLUME>
319

> <PUBCHEM_COORDINATE_TYPE>
2
5
10

$$$$

