17395391
  -OEChem-06241222492D

 41 43  0     0  0  0  0  0  0999 V2000
    2.0000   -4.2330    0.0000 Cl  0  0  0  0  0  0  0  0  0  0  0  0
    3.7320   -1.2330    0.0000 S   0  0  0  0  0  0  0  0  0  0  0  0
    2.8660    3.2670    0.0000 O   0  0  0  0  0  0  0  0  0  0  0  0
    2.7320   -1.2330    0.0000 O   0  0  0  0  0  0  0  0  0  0  0  0
    4.7320   -1.2330    0.0000 O   0  0  0  0  0  0  0  0  0  0  0  0
    3.7320    1.7670    0.0000 N   0  0  0  0  0  0  0  0  0  0  0  0
    3.7320   -0.2330    0.0000 N   0  0  0  0  0  0  0  0  0  0  0  0
    4.5981    3.2670    0.0000 C   0  0  0  0  0  0  0  0  0  0  0  0
    5.5640    3.0082    0.0000 C   0  0  0  0  0  0  0  0  0  0  0  0
    4.8569    4.2330    0.0000 C   0  0  0  0  0  0  0  0  0  0  0  0
    5.8228    3.9741    0.0000 C   0  0  0  0  0  0  0  0  0  0  0  0
    3.7320    2.7670    0.0000 C   0  0  0  0  0  0  0  0  0  0  0  0
    4.5981    1.2670    0.0000 C   0  0  0  0  0  0  0  0  0  0  0  0
    2.8660    1.2670    0.0000 C   0  0  0  0  0  0  0  0  0  0  0  0
    4.5981    0.2670    0.0000 C   0  0  0  0  0  0  0  0  0  0  0  0
    2.8660    0.2670    0.0000 C   0  0  0  0  0  0  0  0  0  0  0  0
    3.7320   -2.2330    0.0000 C   0  0  0  0  0  0  0  0  0  0  0  0
    2.8660   -2.7330    0.0000 C   0  0  0  0  0  0  0  0  0  0  0  0
    4.5981   -2.7330    0.0000 C   0  0  0  0  0  0  0  0  0  0  0  0
    2.8660   -3.7330    0.0000 C   0  0  0  0  0  0  0  0  0  0  0  0
    4.5981   -3.7330    0.0000 C   0  0  0  0  0  0  0  0  0  0  0  0
    3.7320   -4.2330    0.0000 C   0  0  0  0  0  0  0  0  0  0  0  0
    4.1062    3.6445    0.0000 H   0  0  0  0  0  0  0  0  0  0  0  0
    5.4035    2.4093    0.0000 H   0  0  0  0  0  0  0  0  0  0  0  0
    6.1629    2.8478    0.0000 H   0  0  0  0  0  0  0  0  0  0  0  0
    5.0174    4.8318    0.0000 H   0  0  0  0  0  0  0  0  0  0  0  0
    4.2580    4.3934    0.0000 H   0  0  0  0  0  0  0  0  0  0  0  0
    6.4217    3.8137    0.0000 H   0  0  0  0  0  0  0  0  0  0  0  0
    5.9833    4.5730    0.0000 H   0  0  0  0  0  0  0  0  0  0  0  0
    5.2087    1.1594    0.0000 H   0  0  0  0  0  0  0  0  0  0  0  0
    4.8101    1.8496    0.0000 H   0  0  0  0  0  0  0  0  0  0  0  0
    2.6540    1.8496    0.0000 H   0  0  0  0  0  0  0  0  0  0  0  0
    2.2554    1.1594    0.0000 H   0  0  0  0  0  0  0  0  0  0  0  0
    2.2554    0.3747    0.0000 H   0  0  0  0  0  0  0  0  0  0  0  0
    4.8101   -0.3156    0.0000 H   0  0  0  0  0  0  0  0  0  0  0  0
    5.2087    0.3747    0.0000 H   0  0  0  0  0  0  0  0  0  0  0  0
    2.6540   -0.3156    0.0000 H   0  0  0  0  0  0  0  0  0  0  0  0
    2.3291   -2.4230    0.0000 H   0  0  0  0  0  0  0  0  0  0  0  0
    5.1350   -2.4230    0.0000 H   0  0  0  0  0  0  0  0  0  0  0  0
    5.1350   -4.0430    0.0000 H   0  0  0  0  0  0  0  0  0  0  0  0
    3.7320   -4.8530    0.0000 H   0  0  0  0  0  0  0  0  0  0  0  0
  1 20  1  0  0  0  0
  2  4  2  0  0  0  0
  2  5  2  0  0  0  0
  2  7  1  0  0  0  0
  2 17  1  0  0  0  0
  3 12  2  0  0  0  0
  6 12  1  0  0  0  0
  6 13  1  0  0  0  0
  6 14  1  0  0  0  0
  7 15  1  0  0  0  0
  7 16  1  0  0  0  0
  8  9  1  0  0  0  0
  8 10  1  0  0  0  0
  8 12  1  0  0  0  0
  8 23  1  0  0  0  0
  9 11  1  0  0  0  0
  9 24  1  0  0  0  0
  9 25  1  0  0  0  0
 10 11  1  0  0  0  0
 10 26  1  0  0  0  0
 10 27  1  0  0  0  0
 11 28  1  0  0  0  0
 11 29  1  0  0  0  0
 13 15  1  0  0  0  0
 13 30  1  0  0  0  0
 13 31  1  0  0  0  0
 14 16  1  0  0  0  0
 14 32  1  0  0  0  0
 14 33  1  0  0  0  0
 15 35  1  0  0  0  0
 15 36  1  0  0  0  0
 16 34  1  0  0  0  0
 16 37  1  0  0  0  0
 17 18  2  0  0  0  0
 17 19  1  0  0  0  0
 18 20  1  0  0  0  0
 18 38  1  0  0  0  0
 19 21  2  0  0  0  0
 19 39  1  0  0  0  0
 20 22  2  0  0  0  0
 21 22  1  0  0  0  0
 21 40  1  0  0  0  0
 22 41  1  0  0  0  0
M  END
> <PUBCHEM_COMPOUND_CID>
17395391

> <PUBCHEM_COMPOUND_CANONICALIZED>
1

> <PUBCHEM_CACTVS_COMPLEXITY>
507

> <PUBCHEM_CACTVS_HBOND_ACCEPTOR>
4

> <PUBCHEM_CACTVS_HBOND_DONOR>
0

> <PUBCHEM_CACTVS_ROTATABLE_BOND>
3

> <PUBCHEM_CACTVS_SUBSKEYS>
AAADceBzMABEAAAAAAAAAAAAAABgAAAAAAA8QAAAAAAAAAABAAAAHgYAQAAADQLB0CQwAYMAAAKIACFSEHBCABAgBQAIiBkIAogIYDKBkxCUIAAghgCIiAcYAAAIAAAAABAAAAAAAAAAIAAAAAAAAAAAAA==

> <PUBCHEM_IUPAC_OPENEYE_NAME>
[4-(3-chlorophenyl)sulfonylpiperazin-1-yl]-cyclobutyl-methanone

> <PUBCHEM_IUPAC_CAS_NAME>
[4-(3-chlorophenyl)sulfonyl-1-piperazinyl]-cyclobutylmethanone

> <PUBCHEM_IUPAC_NAME>
[4-(3-chlorophenyl)sulfonylpiperazin-1-yl]-cyclobutylmethanone

> <PUBCHEM_IUPAC_SYSTEMATIC_NAME>
[4-(3-chlorophenyl)sulfonylpiperazin-1-yl]-cyclobutyl-methanone

> <PUBCHEM_IUPAC_TRADITIONAL_NAME>
[4-(3-chlorophenyl)sulfonylpiperazino]-cyclobutyl-methanone

> <PUBCHEM_IUPAC_INCHI>
InChI=1S/C15H19ClN2O3S/c16-13-5-2-6-14(11-13)22(20,21)18-9-7-17(8-10-18)15(19)12-3-1-4-12/h2,5-6,11-12H,1,3-4,7-10H2

> <PUBCHEM_IUPAC_INCHIKEY>
KOTHNICCFPKWOY-UHFFFAOYSA-N

> <PUBCHEM_XLOGP3_AA>
2

> <PUBCHEM_EXACT_MASS>
342.080491

> <PUBCHEM_MOLECULAR_FORMULA>
C15H19ClN2O3S

> <PUBCHEM_MOLECULAR_WEIGHT>
342.84096

> <PUBCHEM_OPENEYE_CAN_SMILES>
C1CC(C1)C(=O)N2CCN(CC2)S(=O)(=O)C3=CC(=CC=C3)Cl

> <PUBCHEM_OPENEYE_ISO_SMILES>
C1CC(C1)C(=O)N2CCN(CC2)S(=O)(=O)C3=CC(=CC=C3)Cl

> <PUBCHEM_CACTVS_TPSA>
66.1

> <PUBCHEM_MONOISOTOPIC_WEIGHT>
342.080491

> <PUBCHEM_TOTAL_CHARGE>
0

> <PUBCHEM_HEAVY_ATOM_COUNT>
22

> <PUBCHEM_ATOM_DEF_STEREO_COUNT>
0

> <PUBCHEM_ATOM_UDEF_STEREO_COUNT>
0

> <PUBCHEM_BOND_DEF_STEREO_COUNT>
0

> <PUBCHEM_BOND_UDEF_STEREO_COUNT>
0

> <PUBCHEM_ISOTOPIC_ATOM_COUNT>
0

> <PUBCHEM_COMPONENT_COUNT>
1

> <PUBCHEM_CACTVS_TAUTO_COUNT>
1

> <PUBCHEM_COORDINATE_TYPE>
1
5
255

> <PUBCHEM_BONDANNOTATIONS>
17  18  8
17  19  8
18  20  8
19  21  8
20  22  8
21  22  8

$$$$

