11502
  -OEChem-06261205453D

 26 27  0     0  0  0  0  0  0999 V2000
   -1.9046    0.2274    0.0084 C   0  0  0  0  0  0  0  0  0  0  0  0
    1.8890   -0.2438    0.0082 C   0  0  0  0  0  0  0  0  0  0  0  0
   -0.4700    0.4677    0.0208 C   0  0  0  0  0  0  0  0  0  0  0  0
    0.4786   -0.4998    0.0210 C   0  0  0  0  0  0  0  0  0  0  0  0
   -2.4017   -1.0044   -0.4172 C   0  0  0  0  0  0  0  0  0  0  0  0
    2.3900    0.9982   -0.4187 C   0  0  0  0  0  0  0  0  0  0  0  0
   -2.7830    1.2284    0.4227 C   0  0  0  0  0  0  0  0  0  0  0  0
    2.8020   -1.2288    0.4225 C   0  0  0  0  0  0  0  0  0  0  0  0
   -3.7773   -1.2352   -0.4286 C   0  0  0  0  0  0  0  0  0  0  0  0
    3.7624    1.2476   -0.4308 C   0  0  0  0  0  0  0  0  0  0  0  0
   -4.1587    0.9977    0.4115 C   0  0  0  0  0  0  0  0  0  0  0  0
    4.1744   -0.9795    0.4105 C   0  0  0  0  0  0  0  0  0  0  0  0
   -4.6558   -0.2341   -0.0142 C   0  0  0  0  0  0  0  0  0  0  0  0
    4.6545    0.2588   -0.0162 C   0  0  0  0  0  0  0  0  0  0  0  0
   -0.1948    1.5184    0.0497 H   0  0  0  0  0  0  0  0  0  0  0  0
    0.2017   -1.5496    0.0477 H   0  0  0  0  0  0  0  0  0  0  0  0
   -1.7601   -1.8062   -0.7705 H   0  0  0  0  0  0  0  0  0  0  0  0
    1.7421    1.7939   -0.7756 H   0  0  0  0  0  0  0  0  0  0  0  0
   -2.4148    2.1946    0.7592 H   0  0  0  0  0  0  0  0  0  0  0  0
    2.4502   -2.2013    0.7606 H   0  0  0  0  0  0  0  0  0  0  0  0
   -4.1654   -2.1923   -0.7650 H   0  0  0  0  0  0  0  0  0  0  0  0
    4.1374    2.2094   -0.7684 H   0  0  0  0  0  0  0  0  0  0  0  0
   -4.8429    1.7770    0.7341 H   0  0  0  0  0  0  0  0  0  0  0  0
    4.8693   -1.7492    0.7332 H   0  0  0  0  0  0  0  0  0  0  0  0
   -5.7269   -0.4133   -0.0243 H   0  0  0  0  0  0  0  0  0  0  0  0
    5.7231    0.4524   -0.0269 H   0  0  0  0  0  0  0  0  0  0  0  0
  1  3  1  0  0  0  0
  1  5  2  0  0  0  0
  1  7  1  0  0  0  0
  2  4  1  0  0  0  0
  2  6  2  0  0  0  0
  2  8  1  0  0  0  0
  3  4  2  0  0  0  0
  3 15  1  0  0  0  0
  4 16  1  0  0  0  0
  5  9  1  0  0  0  0
  5 17  1  0  0  0  0
  6 10  1  0  0  0  0
  6 18  1  0  0  0  0
  7 11  2  0  0  0  0
  7 19  1  0  0  0  0
  8 12  2  0  0  0  0
  8 20  1  0  0  0  0
  9 13  2  0  0  0  0
  9 21  1  0  0  0  0
 10 14  2  0  0  0  0
 10 22  1  0  0  0  0
 11 13  1  0  0  0  0
 11 23  1  0  0  0  0
 12 14  1  0  0  0  0
 12 24  1  0  0  0  0
 13 25  1  0  0  0  0
 14 26  1  0  0  0  0
M  END
> <PUBCHEM_COMPOUND_CID>
11502

> <PUBCHEM_CONFORMER_RMSD>
0.6

> <PUBCHEM_CONFORMER_DIVERSEORDER>
2
1

> <PUBCHEM_MMFF94_PARTIAL_CHARGES>
26
1 0.03
10 -0.15
11 -0.15
12 -0.15
13 -0.15
14 -0.15
15 0.15
16 0.15
17 0.15
18 0.15
19 0.15
2 0.03
20 0.15
21 0.15
22 0.15
23 0.15
24 0.15
25 0.15
26 0.15
3 -0.18
4 -0.18
5 -0.15
6 -0.15
7 -0.15
8 -0.15
9 -0.15

> <PUBCHEM_EFFECTIVE_ROTOR_COUNT>
2

> <PUBCHEM_PHARMACOPHORE_FEATURES>
2
6 1 5 7 9 11 13 rings
6 2 6 8 10 12 14 rings

> <PUBCHEM_HEAVY_ATOM_COUNT>
14

> <PUBCHEM_ATOM_DEF_STEREO_COUNT>
0

> <PUBCHEM_ATOM_UDEF_STEREO_COUNT>
0

> <PUBCHEM_BOND_DEF_STEREO_COUNT>
0

> <PUBCHEM_BOND_UDEF_STEREO_COUNT>
1

> <PUBCHEM_ISOTOPIC_ATOM_COUNT>
0

> <PUBCHEM_COMPONENT_COUNT>
1

> <PUBCHEM_CACTVS_TAUTO_COUNT>
1

> <PUBCHEM_CONFORMER_ID>
00002CEE00000002

> <PUBCHEM_MMFF94_ENERGY>
43.5306

> <PUBCHEM_FEATURE_SELFOVERLAP>
10.149

> <PUBCHEM_SHAPE_FINGERPRINT>
10014705 185 18271811250393564413
10616163 171 18335138644328567447
10680689 15 16271928212090385295
10912923 1 18410856559639796346
11471102 20 18202563978011155364
12107183 9 17690280834008875744
12236239 1 18410573989446418439
13167823 11 18411139138455101130
13760787 19 18407759235400422294
13897977 58 18334853909708432021
14123238 8 18410575084663078926
15242433 33 18410292510370107767
17834072 33 18411138008851997318
18186145 218 17704075096569586506
18522853 276 18334577940505320072
19050596 39 18410575088979158346
19422 9 18410293614055350999
200 152 18410578370624335683
20279233 1 15770057232934304290
20281475 54 18409456881417122303
20300324 65 18260268521432275811
20645477 70 18272936063420694338
21267235 1 18410846668346216974
22485316 2 18410858763063559443
2255824 54 18059853965769366346
22646028 1 18411703187888183370
23402539 116 18408047316084144701
23402655 69 18412826901920578996
23557571 272 17458613557985608392
23559900 14 18261117352645581784
26918003 58 17775846808888830809
300161 21 18410300211077612397
3545911 37 18409445894832425580
42 15 18341894112461900838
4214541 1 18410012165027844133
474 4 17845087364411965116
4990 188 18040987454353935350
5104073 3 18410855455833195450
522135 26 18202282515929902558
542803 24 18410572885645150080
573450 72 18335145318796675611
69090 78 18202565064052663354
77779 3 18410009939981382343
9709674 26 18409722971758084503
9971528 1 18131351912826187708
9981440 41 17333370095484313320

> <PUBCHEM_SHAPE_MULTIPOLES>
288.11
10.7
1.39
0.72
0.01
0
0
0.03
0.23
0
-0.01
0
0
-0.88

> <PUBCHEM_SHAPE_SELFOVERLAP>
618.054

> <PUBCHEM_SHAPE_VOLUME>
148.2

> <PUBCHEM_COORDINATE_TYPE>
2
5
10

$$$$

