7846989
  -OEChem-06241222483D

 55 57  0     1  0  0  0  0  0999 V2000
    1.3088    2.2867   -1.5090 S   0  0  0  0  0  0  0  0  0  0  0  0
    3.3459   -0.9503   -0.0455 O   0  0  0  0  0  0  0  0  0  0  0  0
    1.4621   -1.8608   -2.4072 O   0  0  0  0  0  0  0  0  0  0  0  0
    2.0897   -0.8471    1.8867 O   0  0  0  0  0  0  0  0  0  0  0  0
    0.3517   -1.6935   -0.3406 N   0  0  0  0  0  0  0  0  0  0  0  0
    1.2034    2.5559    1.0539 N   0  0  0  0  0  0  0  0  0  0  0  0
   -1.7947   -2.5728    1.3993 C   0  0  1  0  0  0  0  0  0  0  0  0
   -2.0328   -1.8176    0.1029 C   0  0  0  0  0  0  0  0  0  0  0  0
   -2.3259   -1.8315    2.6431 C   0  0  0  0  0  0  0  0  0  0  0  0
   -2.4087   -3.9762    1.3257 C   0  0  0  0  0  0  0  0  0  0  0  0
   -0.9683   -1.4139   -0.7033 C   0  0  0  0  0  0  0  0  0  0  0  0
   -3.3436   -1.5289   -0.2767 C   0  0  0  0  0  0  0  0  0  0  0  0
   -1.6835   -0.4643    2.8444 C   0  0  0  0  0  0  0  0  0  0  0  0
   -1.2150   -0.7216   -1.8890 C   0  0  0  0  0  0  0  0  0  0  0  0
   -3.5900   -0.8365   -1.4623 C   0  0  0  0  0  0  0  0  0  0  0  0
    2.7315   -2.1818   -0.3904 C   0  0  1  0  0  0  0  0  0  0  0  0
    1.4554   -1.9016   -1.1802 C   0  0  0  0  0  0  0  0  0  0  0  0
   -2.5258   -0.4329   -2.2683 C   0  0  0  0  0  0  0  0  0  0  0  0
    3.4582    1.9043    0.2064 C   0  0  0  0  0  0  0  0  0  0  0  0
    3.6791    0.9145    1.3513 C   0  0  0  0  0  0  0  0  0  0  0  0
    3.7122   -3.0268   -1.1898 C   0  0  0  0  0  0  0  0  0  0  0  0
    2.0013    2.2592    0.0547 C   0  0  0  0  0  0  0  0  0  0  0  0
    2.9312   -0.3808    1.1312 C   0  0  0  0  0  0  0  0  0  0  0  0
   -0.2064    2.7355   -0.8194 C   0  0  0  0  0  0  0  0  0  0  0  0
   -0.0665    2.8316    0.5684 C   0  0  0  0  0  0  0  0  0  0  0  0
   -1.4307    2.9846   -1.4603 C   0  0  0  0  0  0  0  0  0  0  0  0
   -1.1934    3.1898    1.3397 C   0  0  0  0  0  0  0  0  0  0  0  0
   -2.5301    3.3374   -0.6737 C   0  0  0  0  0  0  0  0  0  0  0  0
   -2.4153    3.4393    0.7082 C   0  0  0  0  0  0  0  0  0  0  0  0
   -0.7349   -2.7514    1.5877 H   0  0  0  0  0  0  0  0  0  0  0  0
   -2.1256   -2.4395    3.5345 H   0  0  0  0  0  0  0  0  0  0  0  0
   -3.4144   -1.7083    2.5931 H   0  0  0  0  0  0  0  0  0  0  0  0
   -3.5011   -3.9475    1.2513 H   0  0  0  0  0  0  0  0  0  0  0  0
   -2.0277   -4.5256    0.4573 H   0  0  0  0  0  0  0  0  0  0  0  0
   -2.1562   -4.5546    2.2215 H   0  0  0  0  0  0  0  0  0  0  0  0
   -4.1895   -1.8311    0.3341 H   0  0  0  0  0  0  0  0  0  0  0  0
   -1.9403    0.2230    2.0336 H   0  0  0  0  0  0  0  0  0  0  0  0
   -2.0352   -0.0188    3.7804 H   0  0  0  0  0  0  0  0  0  0  0  0
   -0.5937   -0.5462    2.8980 H   0  0  0  0  0  0  0  0  0  0  0  0
    0.5246   -1.8778    0.6402 H   0  0  0  0  0  0  0  0  0  0  0  0
   -0.4159   -0.3677   -2.5319 H   0  0  0  0  0  0  0  0  0  0  0  0
    2.4821   -2.7631    0.5071 H   0  0  0  0  0  0  0  0  0  0  0  0
   -4.6104   -0.6094   -1.7567 H   0  0  0  0  0  0  0  0  0  0  0  0
   -2.7179    0.1121   -3.1879 H   0  0  0  0  0  0  0  0  0  0  0  0
    3.8637    1.4948   -0.7266 H   0  0  0  0  0  0  0  0  0  0  0  0
    4.0159    2.8245    0.4179 H   0  0  0  0  0  0  0  0  0  0  0  0
    4.7441    0.6832    1.4632 H   0  0  0  0  0  0  0  0  0  0  0  0
    3.3417    1.3425    2.3028 H   0  0  0  0  0  0  0  0  0  0  0  0
    4.6011   -3.2489   -0.5897 H   0  0  0  0  0  0  0  0  0  0  0  0
    3.2584   -3.9697   -1.5106 H   0  0  0  0  0  0  0  0  0  0  0  0
    4.0608   -2.4910   -2.0800 H   0  0  0  0  0  0  0  0  0  0  0  0
   -1.5277    2.9068   -2.5389 H   0  0  0  0  0  0  0  0  0  0  0  0
   -1.1153    3.2705    2.4202 H   0  0  0  0  0  0  0  0  0  0  0  0
   -3.4873    3.5330   -1.1500 H   0  0  0  0  0  0  0  0  0  0  0  0
   -3.2816    3.7134    1.3039 H   0  0  0  0  0  0  0  0  0  0  0  0
  1 22  1  0  0  0  0
  1 24  1  0  0  0  0
  2 16  1  0  0  0  0
  2 23  1  0  0  0  0
  3 17  2  0  0  0  0
  4 23  2  0  0  0  0
  5 11  1  0  0  0  0
  5 17  1  0  0  0  0
  5 40  1  0  0  0  0
  6 22  2  0  0  0  0
  6 25  1  0  0  0  0
  7  8  1  0  0  0  0
  7  9  1  0  0  0  0
  7 10  1  0  0  0  0
  7 30  1  0  0  0  0
  8 11  1  0  0  0  0
  8 12  2  0  0  0  0
  9 13  1  0  0  0  0
  9 31  1  0  0  0  0
  9 32  1  0  0  0  0
 10 33  1  0  0  0  0
 10 34  1  0  0  0  0
 10 35  1  0  0  0  0
 11 14  2  0  0  0  0
 12 15  1  0  0  0  0
 12 36  1  0  0  0  0
 13 37  1  0  0  0  0
 13 38  1  0  0  0  0
 13 39  1  0  0  0  0
 14 18  1  0  0  0  0
 14 41  1  0  0  0  0
 15 18  2  0  0  0  0
 15 43  1  0  0  0  0
 16 17  1  0  0  0  0
 16 21  1  0  0  0  0
 16 42  1  0  0  0  0
 18 44  1  0  0  0  0
 19 20  1  0  0  0  0
 19 22  1  0  0  0  0
 19 45  1  0  0  0  0
 19 46  1  0  0  0  0
 20 23  1  0  0  0  0
 20 47  1  0  0  0  0
 20 48  1  0  0  0  0
 21 49  1  0  0  0  0
 21 50  1  0  0  0  0
 21 51  1  0  0  0  0
 24 25  1  0  0  0  0
 24 26  2  0  0  0  0
 25 27  2  0  0  0  0
 26 28  1  0  0  0  0
 26 52  1  0  0  0  0
 27 29  1  0  0  0  0
 27 53  1  0  0  0  0
 28 29  2  0  0  0  0
 28 54  1  0  0  0  0
 29 55  1  0  0  0  0
M  END
> <PUBCHEM_COMPOUND_CID>
7846989

> <PUBCHEM_CONFORMER_RMSD>
1.2

> <PUBCHEM_CONFORMER_DIVERSEORDER>
1
187
86
94
41
69
60
80
125
102
67
196
221
177
192
17
97
199
134
81
198
129
152
209
15
96
185
73
172
95
83
111
132
215
23
100
88
18
84
42
29
140
2
135
136
145
190
169
144
188
143
160
6
224
56
48
22
38
180
87
33
79
27
120
14
37
206
61
175
146
7
11
13
158
98
89
104
40
184
202
65
159
43
93
90
148
149
197
54
74
163
183
28
127
124
109
178
167
85
200
189
68
186
63
82
55
155
44
205
131
5
50
26
141
123
112
137
118
92
216
204
113
225
181
116
165
62
25
211
78
222
212
150
191
117
166
108
30
142
174
161
39
47
34
32
164
36
128
35
53
91
58
72
217
218
219
138
8
21
207
168
223
66
156
71
126
105
99
154
106
194
173
133
57
210
170
9
182
151
77
46
203
3
121
122
119
114
101
59
139
214
51
31
24
171
19
16
201
176
115
45
179
162
213
52
220
208
153
157
130
76
10
12
147
64
110
195
193
103
20
49
107
75
4
70

> <PUBCHEM_MMFF94_PARTIAL_CHARGES>
34
1 -0.08
11 0.12
12 -0.15
14 -0.15
15 -0.15
16 0.34
17 0.57
18 -0.15
19 0.18
2 -0.43
20 0.06
22 0.2
23 0.66
24 0.04
25 0.23
26 -0.15
27 -0.15
28 -0.15
29 -0.15
3 -0.57
36 0.15
4 -0.57
40 0.37
41 0.15
43 0.15
44 0.15
5 -0.55
52 0.15
53 0.15
54 0.15
55 0.15
6 -0.57
7 0.14
8 -0.14

> <PUBCHEM_EFFECTIVE_ROTOR_COUNT>
10

> <PUBCHEM_PHARMACOPHORE_FEATURES>
9
1 10 hydrophobe
1 13 hydrophobe
1 3 acceptor
1 4 acceptor
1 5 donor
1 6 acceptor
5 1 6 22 24 25 rings
6 24 25 26 27 28 29 rings
6 8 11 12 14 15 18 rings

> <PUBCHEM_HEAVY_ATOM_COUNT>
29

> <PUBCHEM_ATOM_DEF_STEREO_COUNT>
2

> <PUBCHEM_ATOM_UDEF_STEREO_COUNT>
0

> <PUBCHEM_BOND_DEF_STEREO_COUNT>
0

> <PUBCHEM_BOND_UDEF_STEREO_COUNT>
0

> <PUBCHEM_ISOTOPIC_ATOM_COUNT>
0

> <PUBCHEM_COMPONENT_COUNT>
1

> <PUBCHEM_CACTVS_TAUTO_COUNT>
4

> <PUBCHEM_CONFORMER_ID>
0077BC4D00000001

> <PUBCHEM_MMFF94_ENERGY>
63.4987

> <PUBCHEM_FEATURE_SELFOVERLAP>
45.74

> <PUBCHEM_SHAPE_FINGERPRINT>
10119406 146 16531147183918471478
104564 63 18336554832627125020
1100329 8 17974856377860342924
11578080 2 17841687661858712255
12156800 1 17548640483514605893
12293681 4 18341909466991564162
12422481 6 18189318221803902609
12633257 1 17843695361047292971
12788726 201 18338818765538636393
13965767 371 17532624919755907563
14955137 171 17832979456593708370
19930381 70 17687485472267624351
20600515 1 17917447422620185910
20764821 26 18121215643461670826
23559900 14 16695005761069261951
238 59 17188434671775509439
3052486 1 18124881415408153854
3493558 16 17386836396143689195
35225 105 17768524241957749243
563151 40 15223969704313546454
81228 2 18268157628577005406

> <PUBCHEM_SHAPE_MULTIPOLES>
573.09
5.91
5.5
2.49
1.35
2.66
0.51
-3.27
0.8
-0.3
-0.14
-1.29
-0.71
1.6

> <PUBCHEM_SHAPE_SELFOVERLAP>
1200.543

> <PUBCHEM_SHAPE_VOLUME>
325.5

> <PUBCHEM_COORDINATE_TYPE>
2
5
10

$$$$

