9113
  -OEChem-06261203253D

 64 74  0     0  0  0  0  0  0999 V2000
    6.2067    0.2860   -0.0006 C   0  0  0  0  0  0  0  0  0  0  0  0
   -6.2068   -0.2859   -0.0016 C   0  0  0  0  0  0  0  0  0  0  0  0
    3.7786   -0.1713    0.0025 C   0  0  0  0  0  0  0  0  0  0  0  0
   -3.7787    0.1711    0.0025 C   0  0  0  0  0  0  0  0  0  0  0  0
    5.1367   -0.6483    0.0020 C   0  0  0  0  0  0  0  0  0  0  0  0
   -5.1367    0.6481    0.0014 C   0  0  0  0  0  0  0  0  0  0  0  0
    3.5385    1.2219    0.0014 C   0  0  0  0  0  0  0  0  0  0  0  0
   -3.5387   -1.2221    0.0017 C   0  0  0  0  0  0  0  0  0  0  0  0
    1.3172   -0.5156    0.0042 C   0  0  0  0  0  0  0  0  0  0  0  0
   -1.3172    0.5153    0.0042 C   0  0  0  0  0  0  0  0  0  0  0  0
    1.1101    0.8712    0.0037 C   0  0  0  0  0  0  0  0  0  0  0  0
   -1.1101   -0.8715    0.0040 C   0  0  0  0  0  0  0  0  0  0  0  0
    7.5621   -0.1497   -0.0014 C   0  0  0  0  0  0  0  0  0  0  0  0
   -7.5620    0.1499   -0.0023 C   0  0  0  0  0  0  0  0  0  0  0  0
    5.9377    1.6712   -0.0025 C   0  0  0  0  0  0  0  0  0  0  0  0
   -5.9380   -1.6712   -0.0029 C   0  0  0  0  0  0  0  0  0  0  0  0
    2.6353   -1.0123    0.0040 C   0  0  0  0  0  0  0  0  0  0  0  0
   -2.6352    1.0120    0.0039 C   0  0  0  0  0  0  0  0  0  0  0  0
    2.2242    1.7218    0.0024 C   0  0  0  0  0  0  0  0  0  0  0  0
   -2.2243   -1.7220    0.0028 C   0  0  0  0  0  0  0  0  0  0  0  0
    4.6136    2.1172   -0.0014 C   0  0  0  0  0  0  0  0  0  0  0  0
   -4.6137   -2.1174   -0.0007 C   0  0  0  0  0  0  0  0  0  0  0  0
    0.2033   -1.3733    0.0044 C   0  0  0  0  0  0  0  0  0  0  0  0
   -0.2033    1.3730    0.0042 C   0  0  0  0  0  0  0  0  0  0  0  0
    7.8647   -1.5283    0.0007 C   0  0  0  0  0  0  0  0  0  0  0  0
   -7.8645    1.5285    0.0001 C   0  0  0  0  0  0  0  0  0  0  0  0
    8.6203    0.7916   -0.0045 C   0  0  0  0  0  0  0  0  0  0  0  0
   -8.6203   -0.7913   -0.0051 C   0  0  0  0  0  0  0  0  0  0  0  0
    5.4889   -2.0177    0.0039 C   0  0  0  0  0  0  0  0  0  0  0  0
   -5.4887    2.0176    0.0032 C   0  0  0  0  0  0  0  0  0  0  0  0
    6.9964    2.5899   -0.0058 C   0  0  0  0  0  0  0  0  0  0  0  0
   -6.9965   -2.5898   -0.0060 C   0  0  0  0  0  0  0  0  0  0  0  0
    6.8180   -2.4494    0.0033 C   0  0  0  0  0  0  0  0  0  0  0  0
   -6.8177    2.4495    0.0028 C   0  0  0  0  0  0  0  0  0  0  0  0
    8.3206    2.1567   -0.0068 C   0  0  0  0  0  0  0  0  0  0  0  0
   -8.3208   -2.1564   -0.0073 C   0  0  0  0  0  0  0  0  0  0  0  0
    9.2030   -1.9494    0.0000 C   0  0  0  0  0  0  0  0  0  0  0  0
   -9.2029    1.9497    0.0010 C   0  0  0  0  0  0  0  0  0  0  0  0
    9.9496    0.3440   -0.0057 C   0  0  0  0  0  0  0  0  0  0  0  0
   -9.9496   -0.3437   -0.0049 C   0  0  0  0  0  0  0  0  0  0  0  0
   10.2381   -1.0181   -0.0035 C   0  0  0  0  0  0  0  0  0  0  0  0
  -10.2380    1.0185   -0.0015 C   0  0  0  0  0  0  0  0  0  0  0  0
    2.7582   -2.0939    0.0045 H   0  0  0  0  0  0  0  0  0  0  0  0
   -2.7581    2.0937    0.0042 H   0  0  0  0  0  0  0  0  0  0  0  0
    2.0634    2.8006    0.0017 H   0  0  0  0  0  0  0  0  0  0  0  0
   -2.0636   -2.8009    0.0023 H   0  0  0  0  0  0  0  0  0  0  0  0
    4.4152    3.1897   -0.0027 H   0  0  0  0  0  0  0  0  0  0  0  0
   -4.4154   -3.1899   -0.0015 H   0  0  0  0  0  0  0  0  0  0  0  0
    0.3612   -2.4519    0.0044 H   0  0  0  0  0  0  0  0  0  0  0  0
   -0.3612    2.4517    0.0040 H   0  0  0  0  0  0  0  0  0  0  0  0
    4.7287   -2.7947    0.0060 H   0  0  0  0  0  0  0  0  0  0  0  0
   -4.7284    2.7945    0.0056 H   0  0  0  0  0  0  0  0  0  0  0  0
    6.8002    3.6605   -0.0075 H   0  0  0  0  0  0  0  0  0  0  0  0
   -6.8006   -3.6605   -0.0071 H   0  0  0  0  0  0  0  0  0  0  0  0
    7.0191   -3.5188    0.0049 H   0  0  0  0  0  0  0  0  0  0  0  0
   -7.0186    3.5189    0.0048 H   0  0  0  0  0  0  0  0  0  0  0  0
    9.1147    2.9003   -0.0093 H   0  0  0  0  0  0  0  0  0  0  0  0
   -9.1151   -2.8999   -0.0094 H   0  0  0  0  0  0  0  0  0  0  0  0
    9.4508   -3.0088    0.0016 H   0  0  0  0  0  0  0  0  0  0  0  0
   -9.4507    3.0091    0.0034 H   0  0  0  0  0  0  0  0  0  0  0  0
   10.7739    1.0542   -0.0084 H   0  0  0  0  0  0  0  0  0  0  0  0
  -10.7738   -1.0538   -0.0068 H   0  0  0  0  0  0  0  0  0  0  0  0
   11.2709   -1.3543   -0.0043 H   0  0  0  0  0  0  0  0  0  0  0  0
  -11.2708    1.3547   -0.0011 H   0  0  0  0  0  0  0  0  0  0  0  0
  1  5  2  0  0  0  0
  1 13  1  0  0  0  0
  1 15  1  0  0  0  0
  2  6  2  0  0  0  0
  2 14  1  0  0  0  0
  2 16  1  0  0  0  0
  3  5  1  0  0  0  0
  3  7  1  0  0  0  0
  3 17  2  0  0  0  0
  4  6  1  0  0  0  0
  4  8  1  0  0  0  0
  4 18  2  0  0  0  0
  5 29  1  0  0  0  0
  6 30  1  0  0  0  0
  7 19  2  0  0  0  0
  7 21  1  0  0  0  0
  8 20  2  0  0  0  0
  8 22  1  0  0  0  0
  9 11  2  0  0  0  0
  9 17  1  0  0  0  0
  9 23  1  0  0  0  0
 10 12  1  0  0  0  0
 10 18  1  0  0  0  0
 10 24  2  0  0  0  0
 11 19  1  0  0  0  0
 11 24  1  0  0  0  0
 12 20  1  0  0  0  0
 12 23  2  0  0  0  0
 13 25  1  0  0  0  0
 13 27  2  0  0  0  0
 14 26  1  0  0  0  0
 14 28  2  0  0  0  0
 15 21  2  0  0  0  0
 15 31  1  0  0  0  0
 16 22  2  0  0  0  0
 16 32  1  0  0  0  0
 17 43  1  0  0  0  0
 18 44  1  0  0  0  0
 19 45  1  0  0  0  0
 20 46  1  0  0  0  0
 21 47  1  0  0  0  0
 22 48  1  0  0  0  0
 23 49  1  0  0  0  0
 24 50  1  0  0  0  0
 25 33  1  0  0  0  0
 25 37  2  0  0  0  0
 26 34  1  0  0  0  0
 26 38  2  0  0  0  0
 27 35  1  0  0  0  0
 27 39  1  0  0  0  0
 28 36  1  0  0  0  0
 28 40  1  0  0  0  0
 29 33  2  0  0  0  0
 29 51  1  0  0  0  0
 30 34  2  0  0  0  0
 30 52  1  0  0  0  0
 31 35  2  0  0  0  0
 31 53  1  0  0  0  0
 32 36  2  0  0  0  0
 32 54  1  0  0  0  0
 33 55  1  0  0  0  0
 34 56  1  0  0  0  0
 35 57  1  0  0  0  0
 36 58  1  0  0  0  0
 37 41  1  0  0  0  0
 37 59  1  0  0  0  0
 38 42  1  0  0  0  0
 38 60  1  0  0  0  0
 39 41  2  0  0  0  0
 39 61  1  0  0  0  0
 40 42  2  0  0  0  0
 40 62  1  0  0  0  0
 41 63  1  0  0  0  0
 42 64  1  0  0  0  0
M  END
> <PUBCHEM_COMPOUND_CID>
9113

> <PUBCHEM_CONFORMER_RMSD>
0.8

> <PUBCHEM_CONFORMER_DIVERSEORDER>
1

> <PUBCHEM_MMFF94_PARTIAL_CHARGES>
44
17 -0.15
18 -0.15
19 -0.15
20 -0.15
21 -0.15
22 -0.15
23 -0.15
24 -0.15
29 -0.15
30 -0.15
31 -0.15
32 -0.15
33 -0.15
34 -0.15
35 -0.15
36 -0.15
37 -0.15
38 -0.15
39 -0.15
40 -0.15
41 -0.15
42 -0.15
43 0.15
44 0.15
45 0.15
46 0.15
47 0.15
48 0.15
49 0.15
50 0.15
51 0.15
52 0.15
53 0.15
54 0.15
55 0.15
56 0.15
57 0.15
58 0.15
59 0.15
60 0.15
61 0.15
62 0.15
63 0.15
64 0.15

> <PUBCHEM_EFFECTIVE_ROTOR_COUNT>
0

> <PUBCHEM_PHARMACOPHORE_FEATURES>
11
6 1 13 15 27 31 35 rings
6 1 3 5 7 15 21 rings
6 1 5 13 25 29 33 rings
6 13 25 27 37 39 41 rings
6 14 26 28 38 40 42 rings
6 2 14 16 28 32 36 rings
6 2 4 6 8 16 22 rings
6 2 6 14 26 30 34 rings
6 3 7 9 11 17 19 rings
6 4 8 10 12 18 20 rings
6 9 10 11 12 23 24 rings

> <PUBCHEM_HEAVY_ATOM_COUNT>
42

> <PUBCHEM_ATOM_DEF_STEREO_COUNT>
0

> <PUBCHEM_ATOM_UDEF_STEREO_COUNT>
0

> <PUBCHEM_BOND_DEF_STEREO_COUNT>
0

> <PUBCHEM_BOND_UDEF_STEREO_COUNT>
0

> <PUBCHEM_ISOTOPIC_ATOM_COUNT>
0

> <PUBCHEM_COMPONENT_COUNT>
1

> <PUBCHEM_CACTVS_TAUTO_COUNT>
1

> <PUBCHEM_CONFORMER_ID>
0000239900000001

> <PUBCHEM_MMFF94_ENERGY>
166.3387

> <PUBCHEM_FEATURE_SELFOVERLAP>
56.171

> <PUBCHEM_SHAPE_FINGERPRINT>
100830 39 18410575115630566665
10580692 12 18410292497295113451
10674148 151 18201721742949920499
10677351 14 18411691072539776676
12013929 2 18410574006626287680
12013929 94 18336544919658132251
12082328 90 18409732855078381575
12089408 11 18410856538164953103
12522641 33 18113898277589130414
12664476 115 18410859866896866101
13811026 1 18334855026020017167
13947934 56 18409167727028441008
14118638 360 15719662259957902638
15064986 266 18271520905708156707
15064986 96 17967808366708007422
15065858 18 18408889511862868443
15289351 153 18335708264518751601
15347591 1 18126841590809886730
15510794 2 18410854360621828263
15840311 113 18272930497702241884
15890870 6 18333450945513997647
19841028 212 18341333409573811946
21792934 111 18187372022009141640
21792961 116 17894629266920955475
22082593 10 18410573977622034155
22164985 6 18202568388331041862
232437 2 18410855464423129094
335352 9 18410575093253013783
335507 130 18186803564863155007
3430473 40 18337110185627853658
395649 100 18271806792676642011
4073 2 18130784508475027802
42767 2 18408886213359718550
4353968 344 18186810154667209927
439807 62 18407759232028543272
44280117 145 18262801753890794815
44389302 135 18260553368529078450
45270241 37 18409162200486608702
4625314 4 18410855421473456182
6126387 218 18409166615058834851
6201320 215 18187363268734364953
6691757 9 15936687082854950503
67123 10 18410573998036353029
9663363 56 16588027918921009458
9831232 110 18188482597225213806
99344 41 18409729568827721310

> <PUBCHEM_SHAPE_MULTIPOLES>
864.34
40.61
2.79
0.62
0
0
0
0
-0.08
0
0
0
0
-0.02

> <PUBCHEM_SHAPE_SELFOVERLAP>
2091.12

> <PUBCHEM_SHAPE_VOLUME>
369.9

> <PUBCHEM_COORDINATE_TYPE>
2
5
10

$$$$

