6477
  -OEChem-06261201203D

 39 40  0     0  0  0  0  0  0999 V2000
   -0.0016    2.2902   -0.0017 S   0  0  0  0  0  0  0  0  0  0  0  0
    0.1565    3.0203   -1.2516 O   0  0  0  0  0  0  0  0  0  0  0  0
   -0.1190    3.0210    1.2535 O   0  0  0  0  0  0  0  0  0  0  0  0
   -5.5432   -1.4974    1.5200 O   0  0  0  0  0  0  0  0  0  0  0  0
    5.5366   -1.5039   -1.5192 O   0  0  0  0  0  0  0  0  0  0  0  0
   -4.7675   -1.1743   -0.6827 N   0  0  0  0  0  0  0  0  0  0  0  0
    4.7612   -1.1777    0.6832 N   0  0  0  0  0  0  0  0  0  0  0  0
   -1.4048    1.2702   -0.2020 C   0  0  0  0  0  0  0  0  0  0  0  0
    1.4218    1.2538    0.2028 C   0  0  0  0  0  0  0  0  0  0  0  0
   -2.1367    0.8636    0.9136 C   0  0  0  0  0  0  0  0  0  0  0  0
    2.1322    0.8606   -0.9152 C   0  0  0  0  0  0  0  0  0  0  0  0
   -1.7937    0.8623   -1.4779 C   0  0  0  0  0  0  0  0  0  0  0  0
    1.7892    0.8623    1.4762 C   0  0  0  0  0  0  0  0  0  0  0  0
   -3.6466   -0.3590   -0.5227 C   0  0  0  0  0  0  0  0  0  0  0  0
    3.6409   -0.3616    0.5223 C   0  0  0  0  0  0  0  0  0  0  0  0
   -3.2576    0.0489    0.7532 C   0  0  0  0  0  0  0  0  0  0  0  0
    3.2523    0.0452   -0.7540 C   0  0  0  0  0  0  0  0  0  0  0  0
   -2.9146    0.0476   -1.6382 C   0  0  0  0  0  0  0  0  0  0  0  0
    2.9093    0.0469    1.6374 C   0  0  0  0  0  0  0  0  0  0  0  0
   -5.6187   -1.6792    0.3092 C   0  0  0  0  0  0  0  0  0  0  0  0
    5.6119   -1.6845   -0.3082 C   0  0  0  0  0  0  0  0  0  0  0  0
   -6.7211   -2.5249   -0.2774 C   0  0  0  0  0  0  0  0  0  0  0  0
    6.7135   -2.5305    0.2793 C   0  0  0  0  0  0  0  0  0  0  0  0
   -1.8469    1.1652    1.9163 H   0  0  0  0  0  0  0  0  0  0  0  0
    1.8393    1.1622   -1.9161 H   0  0  0  0  0  0  0  0  0  0  0  0
   -1.2349    1.1591   -2.3610 H   0  0  0  0  0  0  0  0  0  0  0  0
    1.2282    1.1610    2.3562 H   0  0  0  0  0  0  0  0  0  0  0  0
   -3.7720   -0.2263    1.6633 H   0  0  0  0  0  0  0  0  0  0  0  0
    3.7663   -0.2316   -1.6639 H   0  0  0  0  0  0  0  0  0  0  0  0
   -3.2051   -0.2644   -2.6382 H   0  0  0  0  0  0  0  0  0  0  0  0
    3.1994   -0.2645    2.6377 H   0  0  0  0  0  0  0  0  0  0  0  0
   -4.9856   -1.4287   -1.6439 H   0  0  0  0  0  0  0  0  0  0  0  0
    4.9791   -1.4312    1.6447 H   0  0  0  0  0  0  0  0  0  0  0  0
   -7.3390   -1.9161   -0.9434 H   0  0  0  0  0  0  0  0  0  0  0  0
   -7.3487   -2.9240    0.5242 H   0  0  0  0  0  0  0  0  0  0  0  0
   -6.2905   -3.3589   -0.8387 H   0  0  0  0  0  0  0  0  0  0  0  0
    7.3332   -1.9208    0.9429 H   0  0  0  0  0  0  0  0  0  0  0  0
    7.3395   -2.9327   -0.5219 H   0  0  0  0  0  0  0  0  0  0  0  0
    6.2823   -3.3624    0.8433 H   0  0  0  0  0  0  0  0  0  0  0  0
  1  2  2  0  0  0  0
  1  3  2  0  0  0  0
  1  8  1  0  0  0  0
  1  9  1  0  0  0  0
  4 20  2  0  0  0  0
  5 21  2  0  0  0  0
  6 14  1  0  0  0  0
  6 20  1  0  0  0  0
  6 32  1  0  0  0  0
  7 15  1  0  0  0  0
  7 21  1  0  0  0  0
  7 33  1  0  0  0  0
  8 10  2  0  0  0  0
  8 12  1  0  0  0  0
  9 11  2  0  0  0  0
  9 13  1  0  0  0  0
 10 16  1  0  0  0  0
 10 24  1  0  0  0  0
 11 17  1  0  0  0  0
 11 25  1  0  0  0  0
 12 18  2  0  0  0  0
 12 26  1  0  0  0  0
 13 19  2  0  0  0  0
 13 27  1  0  0  0  0
 14 16  2  0  0  0  0
 14 18  1  0  0  0  0
 15 17  2  0  0  0  0
 15 19  1  0  0  0  0
 16 28  1  0  0  0  0
 17 29  1  0  0  0  0
 18 30  1  0  0  0  0
 19 31  1  0  0  0  0
 20 22  1  0  0  0  0
 21 23  1  0  0  0  0
 22 34  1  0  0  0  0
 22 35  1  0  0  0  0
 22 36  1  0  0  0  0
 23 37  1  0  0  0  0
 23 38  1  0  0  0  0
 23 39  1  0  0  0  0
M  END
> <PUBCHEM_COMPOUND_CID>
6477

> <PUBCHEM_CONFORMER_RMSD>
0.8

> <PUBCHEM_CONFORMER_DIVERSEORDER>
3
1
2

> <PUBCHEM_MMFF94_PARTIAL_CHARGES>
33
1 1.32
10 -0.15
11 -0.15
12 -0.15
13 -0.15
14 0.12
15 0.12
16 -0.15
17 -0.15
18 -0.15
19 -0.15
2 -0.65
20 0.57
21 0.57
22 0.06
23 0.06
24 0.15
25 0.15
26 0.15
27 0.15
28 0.15
29 0.15
3 -0.65
30 0.15
31 0.15
32 0.37
33 0.37
4 -0.57
5 -0.57
6 -0.55
7 -0.55
8 -0.01
9 -0.01

> <PUBCHEM_EFFECTIVE_ROTOR_COUNT>
6

> <PUBCHEM_PHARMACOPHORE_FEATURES>
8
1 2 acceptor
1 3 acceptor
1 4 acceptor
1 5 acceptor
1 6 donor
1 7 donor
6 8 10 12 14 16 18 rings
6 9 11 13 15 17 19 rings

> <PUBCHEM_HEAVY_ATOM_COUNT>
23

> <PUBCHEM_ATOM_DEF_STEREO_COUNT>
0

> <PUBCHEM_ATOM_UDEF_STEREO_COUNT>
0

> <PUBCHEM_BOND_DEF_STEREO_COUNT>
0

> <PUBCHEM_BOND_UDEF_STEREO_COUNT>
0

> <PUBCHEM_ISOTOPIC_ATOM_COUNT>
0

> <PUBCHEM_COMPONENT_COUNT>
1

> <PUBCHEM_CACTVS_TAUTO_COUNT>
3

> <PUBCHEM_CONFORMER_ID>
0000194D00000003

> <PUBCHEM_MMFF94_ENERGY>
53.9579

> <PUBCHEM_FEATURE_SELFOVERLAP>
40.612

> <PUBCHEM_SHAPE_FINGERPRINT>
10319926 262 16009012995935646783
10498660 4 11095887089892644237
10692045 39 6555145895559688796
10928967 22 18338812164042526951
11796584 16 18192997251865599718
11809386 21 18198349652820723226
11961588 58 12823290178670585952
12166972 35 18131628971911899566
12403259 118 6050149086713663609
12592606 108 18410856535004661667
12633257 1 15791739572222140188
12895836 83 10592040250377879151
12895837 130 9654992481891488450
13103583 49 16588031190462320414
13533116 47 18191588550016519737
13540713 4 18266764461319757829
13690498 29 17846501452249800431
13955234 65 18046348530769327200
14123256 34 18342452638689126371
14251740 57 18338240357881482344
14251764 30 18410573989446866663
14341114 328 15068629236007906961
14347424 109 17895192152497593745
14931854 50 13542470885844212262
15188451 53 17676770886437896363
15238133 3 5328738613057008554
16120349 189 8286192847054166770
17492 54 13830134987869040901
1813 80 18335693927680742045
193927 3 18410858762958200800
19784866 240 18413106148125631141
20775438 99 17768539282923398147
21033648 29 14996548634405389193
21054139 6 17917148433642983514
21307412 95 17846779564816562819
21344244 246 18059284367681721564
21401589 2 7060379219558539599
21637258 2 18410854360616547011
21682296 61 18410011001725105907
22765269 38 9223235143673685659
23559900 14 16845014477572543173
2838139 119 12607411004837392198
2916195 48 9871456634649351372
3004659 81 17846502525622436558
3472631 163 10519984859373539163
3737641 26 17897158233659473062
3862424 121 16986573275455812859
393628 194 9079110081479573075
4107672 100 17488749016383403069
437815 12 18412262822591141051
46194498 28 17274263820639345333
465052 167 18338793395704811055
474113 269 17822582612692901255
5104073 3 17821450188018170240
543368 44 10447937166163922347
56633871 153 17967818219500855359
636775 8 18262791987114272790
77188 2 18335703810416808105
7808743 9 9439394722873138350
7970288 3 18410856563935581859
960060 61 16917075400115088743

> <PUBCHEM_SHAPE_MULTIPOLES>
443.74
15.25
2.89
1.51
0.12
0.49
0
-20
0
-0.02
0
0
0.25
0.63

> <PUBCHEM_SHAPE_SELFOVERLAP>
928.943

> <PUBCHEM_SHAPE_VOLUME>
250.3

> <PUBCHEM_COORDINATE_TYPE>
2
5
10

$$$$

