47205609
  -OEChem-06241222593D

 30 31  0     0  0  0  0  0  0999 V2000
   -3.0690   -2.4170   -0.0646 F   0  0  0  0  0  0  0  0  0  0  0  0
   -5.6008    1.5729   -0.2891 F   0  0  0  0  0  0  0  0  0  0  0  0
    3.4682   -0.6690   -1.5962 O   0  0  0  0  0  0  0  0  0  0  0  0
    0.8001    0.8170    0.4611 O   0  0  0  0  0  0  0  0  0  0  0  0
    2.9118   -0.8374    0.6603 N   0  0  0  0  0  0  0  0  0  0  0  0
   -0.7227   -0.9647    0.2432 N   0  0  0  0  0  0  0  0  0  0  0  0
    5.0272    0.1249   -0.0234 C   0  0  0  0  0  0  0  0  0  0  0  0
    5.3931    1.4615   -0.5990 C   0  0  0  0  0  0  0  0  0  0  0  0
    5.0208    1.3452    0.8499 C   0  0  0  0  0  0  0  0  0  0  0  0
    3.7279   -0.4998   -0.4105 C   0  0  0  0  0  0  0  0  0  0  0  0
    1.6221   -1.4456    0.5121 C   0  0  0  0  0  0  0  0  0  0  0  0
    0.5447   -0.3815    0.4053 C   0  0  0  0  0  0  0  0  0  0  0  0
   -1.9559   -0.3258    0.1095 C   0  0  0  0  0  0  0  0  0  0  0  0
   -3.1208   -1.0776   -0.0445 C   0  0  0  0  0  0  0  0  0  0  0  0
   -2.0224    1.0673    0.1292 C   0  0  0  0  0  0  0  0  0  0  0  0
   -4.3520   -0.4362   -0.1788 C   0  0  0  0  0  0  0  0  0  0  0  0
   -3.2536    1.7088   -0.0054 C   0  0  0  0  0  0  0  0  0  0  0  0
   -4.4186    0.9570   -0.1593 C   0  0  0  0  0  0  0  0  0  0  0  0
    5.8418   -0.5794    0.1129 H   0  0  0  0  0  0  0  0  0  0  0  0
    4.6911    1.9562   -1.2591 H   0  0  0  0  0  0  0  0  0  0  0  0
    6.4342    1.6398   -0.8392 H   0  0  0  0  0  0  0  0  0  0  0  0
    5.8117    1.4435    1.5835 H   0  0  0  0  0  0  0  0  0  0  0  0
    4.0738    1.7730    1.1558 H   0  0  0  0  0  0  0  0  0  0  0  0
    3.2347   -0.6420    1.6036 H   0  0  0  0  0  0  0  0  0  0  0  0
    1.6064   -2.0706   -0.3865 H   0  0  0  0  0  0  0  0  0  0  0  0
    1.4353   -2.0654    1.3942 H   0  0  0  0  0  0  0  0  0  0  0  0
   -0.7596   -1.9818    0.2187 H   0  0  0  0  0  0  0  0  0  0  0  0
   -1.1670    1.7178    0.2440 H   0  0  0  0  0  0  0  0  0  0  0  0
   -5.2589   -1.0213   -0.2987 H   0  0  0  0  0  0  0  0  0  0  0  0
   -3.3072    2.7935    0.0094 H   0  0  0  0  0  0  0  0  0  0  0  0
  1 14  1  0  0  0  0
  2 18  1  0  0  0  0
  3 10  2  0  0  0  0
  4 12  2  0  0  0  0
  5 10  1  0  0  0  0
  5 11  1  0  0  0  0
  5 24  1  0  0  0  0
  6 12  1  0  0  0  0
  6 13  1  0  0  0  0
  6 27  1  0  0  0  0
  7  8  1  0  0  0  0
  7  9  1  0  0  0  0
  7 10  1  0  0  0  0
  7 19  1  0  0  0  0
  8  9  1  0  0  0  0
  8 20  1  0  0  0  0
  8 21  1  0  0  0  0
  9 22  1  0  0  0  0
  9 23  1  0  0  0  0
 11 12  1  0  0  0  0
 11 25  1  0  0  0  0
 11 26  1  0  0  0  0
 13 14  2  0  0  0  0
 13 15  1  0  0  0  0
 14 16  1  0  0  0  0
 15 17  2  0  0  0  0
 15 28  1  0  0  0  0
 16 18  2  0  0  0  0
 16 29  1  0  0  0  0
 17 18  1  0  0  0  0
 17 30  1  0  0  0  0
M  END
> <PUBCHEM_COMPOUND_CID>
47205609

> <PUBCHEM_CONFORMER_RMSD>
0.8

> <PUBCHEM_CONFORMER_DIVERSEORDER>
1
43
10
27
17
58
34
42
51
20
4
54
53
3
26
12
29
55
57
41
30
28
7
14
25
37
36
8
35
49
6
11
5
31
16
13
9
56
23
46
19
39
45
2
22
33
21
15
40
44
50
47
38
24
18
48
32
52

> <PUBCHEM_MMFF94_PARTIAL_CHARGES>
28
1 -0.19
10 0.63
11 0.36
12 0.57
13 0.12
14 0.19
15 -0.15
16 -0.15
17 -0.15
18 0.19
19 0.1
2 -0.19
20 0.1
21 0.1
22 0.1
23 0.1
24 0.37
27 0.37
28 0.15
29 0.15
3 -0.57
30 0.15
4 -0.57
5 -0.73
6 -0.55
7 -0.1
8 -0.2
9 -0.2

> <PUBCHEM_EFFECTIVE_ROTOR_COUNT>
6.6

> <PUBCHEM_PHARMACOPHORE_FEATURES>
5
1 3 acceptor
1 4 acceptor
1 5 donor
1 6 donor
6 13 14 15 16 17 18 rings

> <PUBCHEM_HEAVY_ATOM_COUNT>
18

> <PUBCHEM_ATOM_DEF_STEREO_COUNT>
0

> <PUBCHEM_ATOM_UDEF_STEREO_COUNT>
0

> <PUBCHEM_BOND_DEF_STEREO_COUNT>
0

> <PUBCHEM_BOND_UDEF_STEREO_COUNT>
0

> <PUBCHEM_ISOTOPIC_ATOM_COUNT>
0

> <PUBCHEM_COMPONENT_COUNT>
1

> <PUBCHEM_CACTVS_TAUTO_COUNT>
4

> <PUBCHEM_CONFORMER_ID>
02D04CE900000001

> <PUBCHEM_MMFF94_ENERGY>
39.9631

> <PUBCHEM_FEATURE_SELFOVERLAP>
25.371

> <PUBCHEM_SHAPE_FINGERPRINT>
10014705 185 18343022202992078921
10498660 4 18408885161425241376
11128504 68 14490473054671831488
11595378 159 16916801724393487876
12236239 1 17917713512839431970
12616971 3 16343702114642620406
12916748 109 18341888606261086521
12916754 54 7637394138375532491
13551218 46 9799693709765253369
14251718 22 18260831479601065951
14251764 18 9439401324876227748
14528608 73 18409450267589258812
14790565 3 17903632231312497761
15048467 5 18343584057428328397
15196674 1 18411419518410161290
15239154 128 18271805752408014540
17834072 33 18040439867002808748
17959699 21 18410855464914077504
18222031 100 5906042634527629842
20621476 66 18114737257165096233
20645477 56 18411699906923487913
20645477 70 17023177288574460470
20871999 31 18041288672815738495
21150785 3 16805333162612771597
22289505 5 18113618997909945448
22950370 63 7204502121516848498
23402539 116 18341618087962329782
23402655 69 18408325501078950666
23557571 272 18334570201058492654
23559900 14 18261110837665827942
245318 6 16841614710321378492
2916195 48 18337115558072057416
300161 21 18272940439849424351
3004659 81 18337672027141582698
3472631 163 18411980273519302189
34797466 226 17749944467097059524
351380 3 6266899060871479292
3545911 37 18411135852952526896
42 15 10015866483473088682
4214541 1 18410575080373399376
441001 317 18410293605396773304
465052 167 8142079884124979448
474 4 17489582347048738844
5104073 3 18271525385311327619
960060 61 15502091960448404652
9971528 1 17632574972824241790

> <PUBCHEM_SHAPE_MULTIPOLES>
334.18
13.22
1.83
0.84
5.33
0.06
0.13
-5.33
1.51
-0.99
-0.03
0.84
0.02
0.21

> <PUBCHEM_SHAPE_SELFOVERLAP>
698.934

> <PUBCHEM_SHAPE_VOLUME>
189.5

> <PUBCHEM_COORDINATE_TYPE>
2
5
10

$$$$

