17395731
  -OEChem-06241222522D

 40 42  0     0  0  0  0  0  0999 V2000
    4.4487    0.2500    0.0000 O   0  0  0  0  0  0  0  0  0  0  0  0
    3.5827   -1.2500    0.0000 N   0  0  0  0  0  0  0  0  0  0  0  0
    4.4487   -2.7500    0.0000 N   0  0  0  0  0  0  0  0  0  0  0  0
    6.1808    0.2500    0.0000 N   0  0  0  0  0  0  0  0  0  0  0  0
    2.0000   -0.9136    0.0000 C   0  0  0  0  0  0  0  0  0  0  0  0
    2.5000   -0.0476    0.0000 C   0  0  0  0  0  0  0  0  0  0  0  0
    2.6691   -1.6567    0.0000 C   0  0  0  0  0  0  0  0  0  0  0  0
    3.4782   -0.2555    0.0000 C   0  0  0  0  0  0  0  0  0  0  0  0
    4.4487   -1.7500    0.0000 C   0  0  0  0  0  0  0  0  0  0  0  0
    5.3147   -1.2500    0.0000 C   0  0  0  0  0  0  0  0  0  0  0  0
    6.1808   -1.7500    0.0000 C   0  0  0  0  0  0  0  0  0  0  0  0
    5.3147   -0.2500    0.0000 C   0  0  0  0  0  0  0  0  0  0  0  0
    5.3147   -3.2500    0.0000 C   0  0  0  0  0  0  0  0  0  0  0  0
    6.1808   -2.7500    0.0000 C   0  0  0  0  0  0  0  0  0  0  0  0
    6.1808    1.2500    0.0000 C   0  0  0  0  0  0  0  0  0  0  0  0
    7.0468    1.7500    0.0000 C   0  0  0  0  0  0  0  0  0  0  0  0
    7.0468    2.7500    0.0000 C   0  0  0  0  0  0  0  0  0  0  0  0
    5.3147    1.7500    0.0000 C   0  0  0  0  0  0  0  0  0  0  0  0
    6.1808    3.2500    0.0000 C   0  0  0  0  0  0  0  0  0  0  0  0
    5.3147    2.7500    0.0000 C   0  0  0  0  0  0  0  0  0  0  0  0
    7.9128    3.2500    0.0000 C   0  0  0  0  0  0  0  0  0  0  0  0
    1.4984   -0.5492    0.0000 H   0  0  0  0  0  0  0  0  0  0  0  0
    1.5851   -1.3743    0.0000 H   0  0  0  0  0  0  0  0  0  0  0  0
    2.6916    0.5421    0.0000 H   0  0  0  0  0  0  0  0  0  0  0  0
    1.9336    0.2046    0.0000 H   0  0  0  0  0  0  0  0  0  0  0  0
    2.1675   -2.0212    0.0000 H   0  0  0  0  0  0  0  0  0  0  0  0
    2.9791   -2.1937    0.0000 H   0  0  0  0  0  0  0  0  0  0  0  0
    4.0982   -0.2555    0.0000 H   0  0  0  0  0  0  0  0  0  0  0  0
    3.5430    0.3611    0.0000 H   0  0  0  0  0  0  0  0  0  0  0  0
    6.7177   -1.4400    0.0000 H   0  0  0  0  0  0  0  0  0  0  0  0
    5.3147   -3.8700    0.0000 H   0  0  0  0  0  0  0  0  0  0  0  0
    6.7177   -3.0600    0.0000 H   0  0  0  0  0  0  0  0  0  0  0  0
    6.7177   -0.0600    0.0000 H   0  0  0  0  0  0  0  0  0  0  0  0
    7.5837    1.4400    0.0000 H   0  0  0  0  0  0  0  0  0  0  0  0
    4.7778    1.4400    0.0000 H   0  0  0  0  0  0  0  0  0  0  0  0
    6.1808    3.8700    0.0000 H   0  0  0  0  0  0  0  0  0  0  0  0
    4.7778    3.0600    0.0000 H   0  0  0  0  0  0  0  0  0  0  0  0
    8.2228    2.7131    0.0000 H   0  0  0  0  0  0  0  0  0  0  0  0
    8.4497    3.5600    0.0000 H   0  0  0  0  0  0  0  0  0  0  0  0
    7.6028    3.7869    0.0000 H   0  0  0  0  0  0  0  0  0  0  0  0
  1 12  2  0  0  0  0
  2  7  1  0  0  0  0
  2  8  1  0  0  0  0
  2  9  1  0  0  0  0
  3  9  1  0  0  0  0
  3 13  2  0  0  0  0
  4 12  1  0  0  0  0
  4 15  1  0  0  0  0
  4 33  1  0  0  0  0
  5  6  1  0  0  0  0
  5  7  1  0  0  0  0
  5 22  1  0  0  0  0
  5 23  1  0  0  0  0
  6  8  1  0  0  0  0
  6 24  1  0  0  0  0
  6 25  1  0  0  0  0
  7 26  1  0  0  0  0
  7 27  1  0  0  0  0
  8 28  1  0  0  0  0
  8 29  1  0  0  0  0
  9 10  2  0  0  0  0
 10 11  1  0  0  0  0
 10 12  1  0  0  0  0
 11 14  2  0  0  0  0
 11 30  1  0  0  0  0
 13 14  1  0  0  0  0
 13 31  1  0  0  0  0
 14 32  1  0  0  0  0
 15 16  1  0  0  0  0
 15 18  2  0  0  0  0
 16 17  2  0  0  0  0
 16 34  1  0  0  0  0
 17 19  1  0  0  0  0
 17 21  1  0  0  0  0
 18 20  1  0  0  0  0
 18 35  1  0  0  0  0
 19 20  2  0  0  0  0
 19 36  1  0  0  0  0
 20 37  1  0  0  0  0
 21 38  1  0  0  0  0
 21 39  1  0  0  0  0
 21 40  1  0  0  0  0
M  END
> <PUBCHEM_COMPOUND_CID>
17395731

> <PUBCHEM_COMPOUND_CANONICALIZED>
1

> <PUBCHEM_CACTVS_COMPLEXITY>
354

> <PUBCHEM_CACTVS_HBOND_ACCEPTOR>
3

> <PUBCHEM_CACTVS_HBOND_DONOR>
1

> <PUBCHEM_CACTVS_ROTATABLE_BOND>
3

> <PUBCHEM_CACTVS_SUBSKEYS>
AAADceB7IAAAAAAAAAAAAAAAAAAAAWAAAAA8QAAAAAAAAAABwAAAHgAQAAAADAjBmgQ/8JPIEACoAjd3dACCgCk1AiAJ2CE4ZNiIIPrA3ZGEIYholALIyecYgQAOAAAAQAAAAAAAAACAAAAAAAAAAAAAAA==

> <PUBCHEM_IUPAC_OPENEYE_NAME>
N-(m-tolyl)-2-pyrrolidin-1-yl-pyridine-3-carboxamide

> <PUBCHEM_IUPAC_CAS_NAME>
N-(3-methylphenyl)-2-(1-pyrrolidinyl)-3-pyridinecarboxamide

> <PUBCHEM_IUPAC_NAME>
N-(3-methylphenyl)-2-pyrrolidin-1-ylpyridine-3-carboxamide

> <PUBCHEM_IUPAC_SYSTEMATIC_NAME>
N-(3-methylphenyl)-2-pyrrolidin-1-yl-pyridine-3-carboxamide

> <PUBCHEM_IUPAC_TRADITIONAL_NAME>
N-(m-tolyl)-2-pyrrolidino-nicotinamide

> <PUBCHEM_IUPAC_INCHI>
InChI=1S/C17H19N3O/c1-13-6-4-7-14(12-13)19-17(21)15-8-5-9-18-16(15)20-10-2-3-11-20/h4-9,12H,2-3,10-11H2,1H3,(H,19,21)

> <PUBCHEM_IUPAC_INCHIKEY>
YCAZDFJFYGTJRC-UHFFFAOYSA-N

> <PUBCHEM_XLOGP3_AA>
3

> <PUBCHEM_EXACT_MASS>
281.152812

> <PUBCHEM_MOLECULAR_FORMULA>
C17H19N3O

> <PUBCHEM_MOLECULAR_WEIGHT>
281.35226

> <PUBCHEM_OPENEYE_CAN_SMILES>
CC1=CC(=CC=C1)NC(=O)C2=C(N=CC=C2)N3CCCC3

> <PUBCHEM_OPENEYE_ISO_SMILES>
CC1=CC(=CC=C1)NC(=O)C2=C(N=CC=C2)N3CCCC3

> <PUBCHEM_CACTVS_TPSA>
45.2

> <PUBCHEM_MONOISOTOPIC_WEIGHT>
281.152812

> <PUBCHEM_TOTAL_CHARGE>
0

> <PUBCHEM_HEAVY_ATOM_COUNT>
21

> <PUBCHEM_ATOM_DEF_STEREO_COUNT>
0

> <PUBCHEM_ATOM_UDEF_STEREO_COUNT>
0

> <PUBCHEM_BOND_DEF_STEREO_COUNT>
0

> <PUBCHEM_BOND_UDEF_STEREO_COUNT>
0

> <PUBCHEM_ISOTOPIC_ATOM_COUNT>
0

> <PUBCHEM_COMPONENT_COUNT>
1

> <PUBCHEM_CACTVS_TAUTO_COUNT>
2

> <PUBCHEM_COORDINATE_TYPE>
1
5
255

> <PUBCHEM_BONDANNOTATIONS>
10  11  8
11  14  8
13  14  8
15  16  8
15  18  8
16  17  8
17  19  8
18  20  8
19  20  8
3  13  8
3  9  8
9  10  8

$$$$

