12863
  -OEChem-06261207283D

 32 33  0     0  0  0  0  0  0999 V2000
   -0.8352   -2.5689    0.1636 O   0  0  0  0  0  0  0  0  0  0  0  0
    3.3824   -0.8686   -0.0653 O   0  0  0  0  0  0  0  0  0  0  0  0
    0.7949    2.5361   -0.0009 O   0  0  0  0  0  0  0  0  0  0  0  0
    1.2697    0.2435    0.0036 N   0  0  0  0  0  0  0  0  0  0  0  0
    1.3877   -2.0080    0.0102 N   0  0  0  0  0  0  0  0  0  0  0  0
   -0.1567   -0.2060    0.0448 C   0  0  0  0  0  0  0  0  0  0  0  0
   -0.8637    0.2014   -1.2694 C   0  0  0  0  0  0  0  0  0  0  0  0
   -0.8122    0.2219    1.3747 C   0  0  0  0  0  0  0  0  0  0  0  0
   -2.3035   -0.2729   -1.4610 C   0  0  0  0  0  0  0  0  0  0  0  0
   -2.3322    0.0882    1.4812 C   0  0  0  0  0  0  0  0  0  0  0  0
   -3.3638    0.6066   -0.8085 C   0  0  0  0  0  0  0  0  0  0  0  0
   -3.0691    1.0937    0.6043 C   0  0  0  0  0  0  0  0  0  0  0  0
    0.0525   -1.7307    0.0774 C   0  0  0  0  0  0  0  0  0  0  0  0
    2.1587   -0.8720   -0.0244 C   0  0  0  0  0  0  0  0  0  0  0  0
    1.6091    1.6110   -0.0276 C   0  0  0  0  0  0  0  0  0  0  0  0
    3.0815    1.9247   -0.1027 C   0  0  0  0  0  0  0  0  0  0  0  0
   -0.2790   -0.2095   -2.1054 H   0  0  0  0  0  0  0  0  0  0  0  0
   -0.8350    1.2885   -1.4046 H   0  0  0  0  0  0  0  0  0  0  0  0
   -0.5564    1.2611    1.6114 H   0  0  0  0  0  0  0  0  0  0  0  0
   -0.3704   -0.3650    2.1928 H   0  0  0  0  0  0  0  0  0  0  0  0
   -2.4295   -1.3068   -1.1290 H   0  0  0  0  0  0  0  0  0  0  0  0
   -2.5173   -0.2919   -2.5379 H   0  0  0  0  0  0  0  0  0  0  0  0
   -2.5998    0.2987    2.5250 H   0  0  0  0  0  0  0  0  0  0  0  0
   -2.6633   -0.9370    1.2859 H   0  0  0  0  0  0  0  0  0  0  0  0
   -4.3079    0.0466   -0.8023 H   0  0  0  0  0  0  0  0  0  0  0  0
   -3.5455    1.4841   -1.4422 H   0  0  0  0  0  0  0  0  0  0  0  0
   -2.5079    2.0354    0.5580 H   0  0  0  0  0  0  0  0  0  0  0  0
   -4.0275    1.3433    1.0772 H   0  0  0  0  0  0  0  0  0  0  0  0
    1.7697   -2.9470    0.0116 H   0  0  0  0  0  0  0  0  0  0  0  0
    3.5117    1.5068   -1.0164 H   0  0  0  0  0  0  0  0  0  0  0  0
    3.5963    1.5373    0.7802 H   0  0  0  0  0  0  0  0  0  0  0  0
    3.2204    3.0101   -0.1277 H   0  0  0  0  0  0  0  0  0  0  0  0
  1 13  2  0  0  0  0
  2 14  2  0  0  0  0
  3 15  2  0  0  0  0
  4  6  1  0  0  0  0
  4 14  1  0  0  0  0
  4 15  1  0  0  0  0
  5 13  1  0  0  0  0
  5 14  1  0  0  0  0
  5 29  1  0  0  0  0
  6  7  1  0  0  0  0
  6  8  1  0  0  0  0
  6 13  1  0  0  0  0
  7  9  1  0  0  0  0
  7 17  1  0  0  0  0
  7 18  1  0  0  0  0
  8 10  1  0  0  0  0
  8 19  1  0  0  0  0
  8 20  1  0  0  0  0
  9 11  1  0  0  0  0
  9 21  1  0  0  0  0
  9 22  1  0  0  0  0
 10 12  1  0  0  0  0
 10 23  1  0  0  0  0
 10 24  1  0  0  0  0
 11 12  1  0  0  0  0
 11 25  1  0  0  0  0
 11 26  1  0  0  0  0
 12 27  1  0  0  0  0
 12 28  1  0  0  0  0
 15 16  1  0  0  0  0
 16 30  1  0  0  0  0
 16 31  1  0  0  0  0
 16 32  1  0  0  0  0
M  END
> <PUBCHEM_COMPOUND_CID>
12863

> <PUBCHEM_CONFORMER_RMSD>
0.6

> <PUBCHEM_CONFORMER_DIVERSEORDER>
1
2

> <PUBCHEM_MMFF94_PARTIAL_CHARGES>
11
1 -0.57
13 0.57
14 0.69
15 0.57
16 0.06
2 -0.57
29 0.37
3 -0.57
4 -0.42
5 -0.49
6 0.36

> <PUBCHEM_EFFECTIVE_ROTOR_COUNT>
2.6

> <PUBCHEM_PHARMACOPHORE_FEATURES>
6
1 1 acceptor
1 2 acceptor
1 3 acceptor
1 5 donor
5 4 5 6 13 14 rings
7 6 7 8 9 10 11 12 rings

> <PUBCHEM_HEAVY_ATOM_COUNT>
16

> <PUBCHEM_ATOM_DEF_STEREO_COUNT>
0

> <PUBCHEM_ATOM_UDEF_STEREO_COUNT>
0

> <PUBCHEM_BOND_DEF_STEREO_COUNT>
0

> <PUBCHEM_BOND_UDEF_STEREO_COUNT>
0

> <PUBCHEM_ISOTOPIC_ATOM_COUNT>
0

> <PUBCHEM_COMPONENT_COUNT>
1

> <PUBCHEM_CACTVS_TAUTO_COUNT>
3

> <PUBCHEM_CONFORMER_ID>
0000323F00000001

> <PUBCHEM_MMFF94_ENERGY>
40.5154

> <PUBCHEM_FEATURE_SELFOVERLAP>
30.447

> <PUBCHEM_SHAPE_FINGERPRINT>
12423570 1 5183190777929572745
13140716 1 18411984624843425386
13380535 21 18270110193987948596
13898156 1 17313387863402510397
14614273 12 17836650716706406172
14817 1 14166020689292364531
14993402 34 18335137652148261302
15219456 202 18060415802798782833
15775835 57 18040992930152920489
16945 1 18339077197904877962
18186145 218 18335703861865692413
18219364 16 18343302539485951528
20510252 161 17399517827586545368
21501502 16 18268998579026567182
21639500 275 18410863152530860957
22112679 90 17313104167896312785
2334 1 18194962942285298698
23388829 49 18189054376923980632
23402539 116 18118411867732014774
23598291 2 18041276677346496973
25 1 18412826901735891244
2748010 2 18266448820362633742
3286 77 18273209820367118979
5084963 1 18113911480370468117
528886 8 18338524152225104171
568465 68 17986652943641094059
77492 1 17749392602306250009
81228 2 17259056299353518218

> <PUBCHEM_SHAPE_MULTIPOLES>
301.7
4.77
2.28
1.19
0.04
0.23
-0.03
-1.55
0.33
1.34
-0.06
-1.08
-0.07
-0.15

> <PUBCHEM_SHAPE_SELFOVERLAP>
626.184

> <PUBCHEM_SHAPE_VOLUME>
169.8

> <PUBCHEM_COORDINATE_TYPE>
2
5
10

$$$$

