13517
  -OEChem-06241222392D

 14 13  0     0  0  0  0  0  0999 V2000
    3.9030   -1.0490    0.0000 Cl  0  0  0  0  0  0  0  0  0  0  0  0
    3.4030   -0.1830    0.0000 C   0  0  0  0  0  0  0  0  0  0  0  0
    4.3878   -0.0094    0.0000 C   0  0  0  0  0  0  0  0  0  0  0  0
    2.5369   -0.6830    0.0000 C   0  0  0  0  0  0  0  0  0  0  0  0
    2.9030    0.6830    0.0000 C   0  0  0  0  0  0  0  0  0  0  0  0
    4.9984    0.0983    0.0000 H   1  0  0  0  0  0  0  0  0  0  0  0
    4.2801    0.6012    0.0000 H   1  0  0  0  0  0  0  0  0  0  0  0
    4.4954   -0.6199    0.0000 H   1  0  0  0  0  0  0  0  0  0  0  0
    2.0000   -0.9930    0.0000 H   1  0  0  0  0  0  0  0  0  0  0  0
    2.2269   -0.1461    0.0000 H   1  0  0  0  0  0  0  0  0  0  0  0
    2.8469   -1.2200    0.0000 H   1  0  0  0  0  0  0  0  0  0  0  0
    2.5930    1.2200    0.0000 H   1  0  0  0  0  0  0  0  0  0  0  0
    2.2924    0.5754    0.0000 H   1  0  0  0  0  0  0  0  0  0  0  0
    3.4399    0.9930    0.0000 H   1  0  0  0  0  0  0  0  0  0  0  0
  1  2  1  0  0  0  0
  2  3  1  0  0  0  0
  2  4  1  0  0  0  0
  2  5  1  0  0  0  0
  3  6  1  0  0  0  0
  3  7  1  0  0  0  0
  3  8  1  0  0  0  0
  4  9  1  0  0  0  0
  4 10  1  0  0  0  0
  4 11  1  0  0  0  0
  5 12  1  0  0  0  0
  5 13  1  0  0  0  0
  5 14  1  0  0  0  0
M  ISO  8   6   2   7   2   8   2   9   2  10   2  11   2  12   2  13   2
M  ISO  1  14   2
M  END
> <PUBCHEM_COMPOUND_CID>
13517

> <PUBCHEM_COMPOUND_CANONICALIZED>
1

> <PUBCHEM_CACTVS_COMPLEXITY>
25.1

> <PUBCHEM_CACTVS_HBOND_ACCEPTOR>
0

> <PUBCHEM_CACTVS_HBOND_DONOR>
0

> <PUBCHEM_CACTVS_ROTATABLE_BOND>
0

> <PUBCHEM_CACTVS_SUBSKEYS>
AAADccBgAAAEAAAAAAAAAAAAAAAAAAAAAAAAAAAAAAAAAAAAAAAAGAIAAAAADAKAAAACAAAAAAAAAAAAAAAAAAAAAAAAAAAAAAAAAAAAAAAAAAAAAAAAAAAAAAAAAAAAAAAAAAAAAAAAAAAAAAAAAAAAAA==

> <PUBCHEM_IUPAC_OPENEYE_NAME>
2-chloro-1,1,1,3,3,3-hexadeuterio-2-(trideuteriomethyl)propane

> <PUBCHEM_IUPAC_CAS_NAME>
2-chloro-1,1,1,3,3,3-hexadeuterio-2-(trideuteriomethyl)propane

> <PUBCHEM_IUPAC_NAME>
2-chloro-1,1,1,3,3,3-hexadeuterio-2-(trideuteriomethyl)propane

> <PUBCHEM_IUPAC_SYSTEMATIC_NAME>
2-chloranyl-1,1,1,3,3,3-hexadeuterio-2-(trideuteriomethyl)propane

> <PUBCHEM_IUPAC_TRADITIONAL_NAME>
2-chloro-1,1,1,3,3,3-hexadeuterio-2-(trideuteriomethyl)propane

> <PUBCHEM_IUPAC_INCHI>
InChI=1S/C4H9Cl/c1-4(2,3)5/h1-3H3/i1D3,2D3,3D3

> <PUBCHEM_IUPAC_INCHIKEY>
NBRKLOOSMBRFMH-GQALSZNTSA-N

> <PUBCHEM_XLOGP3_AA>
1.8

> <PUBCHEM_EXACT_MASS>
101.095769

> <PUBCHEM_MOLECULAR_FORMULA>
C4H9Cl

> <PUBCHEM_MOLECULAR_WEIGHT>
101.622716

> <PUBCHEM_OPENEYE_CAN_SMILES>
CC(C)(C)Cl

> <PUBCHEM_OPENEYE_ISO_SMILES>
[2H]C([2H])([2H])C(C([2H])([2H])[2H])(C([2H])([2H])[2H])Cl

> <PUBCHEM_CACTVS_TPSA>
0

> <PUBCHEM_MONOISOTOPIC_WEIGHT>
101.095769

> <PUBCHEM_TOTAL_CHARGE>
0

> <PUBCHEM_HEAVY_ATOM_COUNT>
5

> <PUBCHEM_ATOM_DEF_STEREO_COUNT>
0

> <PUBCHEM_ATOM_UDEF_STEREO_COUNT>
0

> <PUBCHEM_BOND_DEF_STEREO_COUNT>
0

> <PUBCHEM_BOND_UDEF_STEREO_COUNT>
0

> <PUBCHEM_ISOTOPIC_ATOM_COUNT>
9

> <PUBCHEM_COMPONENT_COUNT>
1

> <PUBCHEM_CACTVS_TAUTO_COUNT>
1

> <PUBCHEM_COORDINATE_TYPE>
1
5
255

$$$$

