10072
  -OEChem-06261204173D

 50 51  0     1  0  0  0  0  0999 V2000
    1.2662    1.8480    1.8909 O   0  0  0  0  0  0  0  0  0  0  0  0
   -1.9988   -3.0451   -0.1547 N   0  0  0  0  0  0  0  0  0  0  0  0
    0.1380    0.2003    0.4378 C   0  0  0  0  0  0  0  0  0  0  0  0
   -0.6939   -1.1218    0.7812 C   0  0  1  0  0  0  0  0  0  0  0  0
   -1.1036   -1.9350   -0.4816 C   0  0  0  0  0  0  0  0  0  0  0  0
   -0.5881    1.2008   -0.5211 C   0  0  0  0  0  0  0  0  0  0  0  0
    1.5151   -0.2553   -0.1457 C   0  0  0  0  0  0  0  0  0  0  0  0
    0.3136    1.0763    1.7474 C   0  0  0  0  0  0  0  0  0  0  0  0
    0.0197   -2.0738    1.7697 C   0  0  0  0  0  0  0  0  0  0  0  0
   -0.8037    1.0383    2.7938 C   0  0  0  0  0  0  0  0  0  0  0  0
    0.1921    1.9987   -1.2981 C   0  0  0  0  0  0  0  0  0  0  0  0
    1.6361   -0.3016   -1.4999 C   0  0  0  0  0  0  0  0  0  0  0  0
   -1.9480    1.2012   -0.5100 C   0  0  0  0  0  0  0  0  0  0  0  0
    2.4961   -0.5733    0.7414 C   0  0  0  0  0  0  0  0  0  0  0  0
   -2.3184   -3.8140   -1.3567 C   0  0  0  0  0  0  0  0  0  0  0  0
   -3.2214   -2.5470    0.4740 C   0  0  0  0  0  0  0  0  0  0  0  0
   -0.5001    1.9158    3.9977 C   0  0  0  0  0  0  0  0  0  0  0  0
   -0.4552    2.8906   -2.1532 C   0  0  0  0  0  0  0  0  0  0  0  0
    2.8646   -0.7078   -2.0207 C   0  0  0  0  0  0  0  0  0  0  0  0
   -2.5952    2.0930   -1.3653 C   0  0  0  0  0  0  0  0  0  0  0  0
    3.7246   -0.9795    0.2206 C   0  0  0  0  0  0  0  0  0  0  0  0
   -1.8487    2.9378   -2.1869 C   0  0  0  0  0  0  0  0  0  0  0  0
    3.9089   -1.0467   -1.1604 C   0  0  0  0  0  0  0  0  0  0  0  0
   -1.6021   -0.7986    1.2906 H   0  0  0  0  0  0  0  0  0  0  0  0
   -1.5654   -1.2943   -1.2395 H   0  0  0  0  0  0  0  0  0  0  0  0
   -0.1985   -2.3537   -0.9379 H   0  0  0  0  0  0  0  0  0  0  0  0
    0.4733   -1.5479    2.6130 H   0  0  0  0  0  0  0  0  0  0  0  0
    0.7960   -2.6684    1.2772 H   0  0  0  0  0  0  0  0  0  0  0  0
   -0.6938   -2.7847    2.2014 H   0  0  0  0  0  0  0  0  0  0  0  0
   -1.7337    1.3831    2.3343 H   0  0  0  0  0  0  0  0  0  0  0  0
   -0.9442    0.0241    3.1685 H   0  0  0  0  0  0  0  0  0  0  0  0
    1.2701    2.0867   -1.2269 H   0  0  0  0  0  0  0  0  0  0  0  0
    0.8287   -0.1621   -2.2095 H   0  0  0  0  0  0  0  0  0  0  0  0
   -2.5661    0.5832    0.1257 H   0  0  0  0  0  0  0  0  0  0  0  0
    2.3832   -0.5310    1.8178 H   0  0  0  0  0  0  0  0  0  0  0  0
   -1.4058   -4.2111   -1.8152 H   0  0  0  0  0  0  0  0  0  0  0  0
   -2.8474   -3.2129   -2.1052 H   0  0  0  0  0  0  0  0  0  0  0  0
   -2.9422   -4.6794   -1.1062 H   0  0  0  0  0  0  0  0  0  0  0  0
   -3.9565   -3.3564    0.5650 H   0  0  0  0  0  0  0  0  0  0  0  0
   -3.6922   -1.7416   -0.1012 H   0  0  0  0  0  0  0  0  0  0  0  0
   -3.0553   -2.2111    1.5015 H   0  0  0  0  0  0  0  0  0  0  0  0
   -0.3828    2.9635    3.7016 H   0  0  0  0  0  0  0  0  0  0  0  0
   -1.3143    1.8576    4.7267 H   0  0  0  0  0  0  0  0  0  0  0  0
    0.4249    1.5997    4.4914 H   0  0  0  0  0  0  0  0  0  0  0  0
    0.1253    3.5676   -2.7733 H   0  0  0  0  0  0  0  0  0  0  0  0
    3.0006   -0.7859   -3.0955 H   0  0  0  0  0  0  0  0  0  0  0  0
   -3.6803    2.1351   -1.3870 H   0  0  0  0  0  0  0  0  0  0  0  0
    4.5376   -1.2450    0.8902 H   0  0  0  0  0  0  0  0  0  0  0  0
   -2.3525    3.6375   -2.8472 H   0  0  0  0  0  0  0  0  0  0  0  0
    4.8635   -1.3691   -1.5658 H   0  0  0  0  0  0  0  0  0  0  0  0
  1  8  2  0  0  0  0
  2  5  1  0  0  0  0
  2 15  1  0  0  0  0
  2 16  1  0  0  0  0
  3  4  1  0  0  0  0
  3  6  1  0  0  0  0
  3  7  1  0  0  0  0
  3  8  1  0  0  0  0
  4  5  1  0  0  0  0
  4  9  1  0  0  0  0
  4 24  1  0  0  0  0
  5 25  1  0  0  0  0
  5 26  1  0  0  0  0
  6 11  2  0  0  0  0
  6 13  1  0  0  0  0
  7 12  2  0  0  0  0
  7 14  1  0  0  0  0
  8 10  1  0  0  0  0
  9 27  1  0  0  0  0
  9 28  1  0  0  0  0
  9 29  1  0  0  0  0
 10 17  1  0  0  0  0
 10 30  1  0  0  0  0
 10 31  1  0  0  0  0
 11 18  1  0  0  0  0
 11 32  1  0  0  0  0
 12 19  1  0  0  0  0
 12 33  1  0  0  0  0
 13 20  2  0  0  0  0
 13 34  1  0  0  0  0
 14 21  2  0  0  0  0
 14 35  1  0  0  0  0
 15 36  1  0  0  0  0
 15 37  1  0  0  0  0
 15 38  1  0  0  0  0
 16 39  1  0  0  0  0
 16 40  1  0  0  0  0
 16 41  1  0  0  0  0
 17 42  1  0  0  0  0
 17 43  1  0  0  0  0
 17 44  1  0  0  0  0
 18 22  2  0  0  0  0
 18 45  1  0  0  0  0
 19 23  2  0  0  0  0
 19 46  1  0  0  0  0
 20 22  1  0  0  0  0
 20 47  1  0  0  0  0
 21 23  1  0  0  0  0
 21 48  1  0  0  0  0
 22 49  1  0  0  0  0
 23 50  1  0  0  0  0
M  END
> <PUBCHEM_COMPOUND_CID>
10072

> <PUBCHEM_CONFORMER_RMSD>
0.8

> <PUBCHEM_CONFORMER_DIVERSEORDER>
1
7
17
23
20
15
16
22
12
5
21
3
19
2
13
11
8
9
6
14
4
24
10
18

> <PUBCHEM_MMFF94_PARTIAL_CHARGES>
30
1 -0.57
10 0.06
11 -0.15
12 -0.15
13 -0.15
14 -0.15
15 0.27
16 0.27
18 -0.15
19 -0.15
2 -0.81
20 -0.15
21 -0.15
22 -0.15
23 -0.15
3 0.35
32 0.15
33 0.15
34 0.15
35 0.15
45 0.15
46 0.15
47 0.15
48 0.15
49 0.15
5 0.27
50 0.15
6 -0.14
7 -0.14
8 0.45

> <PUBCHEM_EFFECTIVE_ROTOR_COUNT>
7

> <PUBCHEM_PHARMACOPHORE_FEATURES>
6
1 1 acceptor
1 17 hydrophobe
1 2 cation
1 9 hydrophobe
6 6 11 13 18 20 22 rings
6 7 12 14 19 21 23 rings

> <PUBCHEM_HEAVY_ATOM_COUNT>
23

> <PUBCHEM_ATOM_DEF_STEREO_COUNT>
0

> <PUBCHEM_ATOM_UDEF_STEREO_COUNT>
1

> <PUBCHEM_BOND_DEF_STEREO_COUNT>
0

> <PUBCHEM_BOND_UDEF_STEREO_COUNT>
0

> <PUBCHEM_ISOTOPIC_ATOM_COUNT>
0

> <PUBCHEM_COMPONENT_COUNT>
1

> <PUBCHEM_CACTVS_TAUTO_COUNT>
2

> <PUBCHEM_CONFORMER_ID>
0000275800000001

> <PUBCHEM_MMFF94_ENERGY>
97.8328

> <PUBCHEM_FEATURE_SELFOVERLAP>
30.446

> <PUBCHEM_SHAPE_FINGERPRINT>
11578080 2 18336539426511089968
11833330 49 18130794425337820540
12617007 42 17982175522135181607
12788726 201 17989197144886533926
13149001 5 17898604017981301760
13681431 1 17765140679512144278
14004458 79 18272089387621458862
14181834 199 17683798809442438238
14817 1 13492421412921151545
14863182 85 16965530057123149519
16945 1 18335980981824718484
17980427 23 16033848446762078675
17980427 26 15021996959309610353
20600515 1 18115850928477081839
20602899 9 18047755094130317046
21524375 3 16986027092574030236
229495 10 17698689779127434522
23419403 2 17897469227639836872
23559900 14 18192444167964163146
23598288 3 16985991801011985230
25222932 49 15816598443620679311
266924 78 16967158498046816209
298252 57 17700981204019501684
3052486 1 17914926234247458367
5845 1 15170238868207329810
5895379 119 17834977278138554967
81228 2 18270952462512448338

> <PUBCHEM_SHAPE_MULTIPOLES>
462.48
4.45
4.02
3.16
4.4
4.14
-3.28
-0.08
2.31
-4.39
1.93
-1.1
-2.16
0.42

> <PUBCHEM_SHAPE_SELFOVERLAP>
971.992

> <PUBCHEM_SHAPE_VOLUME>
259.4

> <PUBCHEM_COORDINATE_TYPE>
2
5
10

$$$$

