7287
  -OEChem-06261201593D

 12 11  0     0  0  0  0  0  0999 V2000
   -2.8548   -0.1725   -0.3510 Br  0  0  0  0  0  0  0  0  0  0  0  0
    2.8435   -0.1683   -0.3331 Br  0  0  0  0  0  0  0  0  0  0  0  0
    0.0365   -1.2575    0.3946 O   0  0  0  0  0  0  0  0  0  0  0  0
   -0.0072    0.0372   -0.2078 C   0  0  0  0  0  0  0  0  0  0  0  0
   -1.2572    0.7620    0.2752 C   0  0  0  0  0  0  0  0  0  0  0  0
    1.2392    0.7992    0.2222 C   0  0  0  0  0  0  0  0  0  0  0  0
   -0.0240   -0.1028   -1.2946 H   0  0  0  0  0  0  0  0  0  0  0  0
   -1.3222    1.7803   -0.1168 H   0  0  0  0  0  0  0  0  0  0  0  0
   -1.3376    0.7739    1.3661 H   0  0  0  0  0  0  0  0  0  0  0  0
    1.3193    0.8821    1.3102 H   0  0  0  0  0  0  0  0  0  0  0  0
    1.2953    1.7919   -0.2320 H   0  0  0  0  0  0  0  0  0  0  0  0
    0.0525   -1.1407    1.3599 H   0  0  0  0  0  0  0  0  0  0  0  0
  1  5  1  0  0  0  0
  2  6  1  0  0  0  0
  3  4  1  0  0  0  0
  3 12  1  0  0  0  0
  4  5  1  0  0  0  0
  4  6  1  0  0  0  0
  4  7  1  0  0  0  0
  5  8  1  0  0  0  0
  5  9  1  0  0  0  0
  6 10  1  0  0  0  0
  6 11  1  0  0  0  0
M  END
> <PUBCHEM_COMPOUND_CID>
7287

> <PUBCHEM_CONFORMER_RMSD>
0.4

> <PUBCHEM_CONFORMER_DIVERSEORDER>
1
7
6
4
5
2
3

> <PUBCHEM_MMFF94_PARTIAL_CHARGES>
7
1 -0.23
12 0.4
2 -0.23
3 -0.68
4 0.28
5 0.23
6 0.23

> <PUBCHEM_EFFECTIVE_ROTOR_COUNT>
2

> <PUBCHEM_PHARMACOPHORE_FEATURES>
4
1 1 hydrophobe
1 2 hydrophobe
1 3 acceptor
1 3 donor

> <PUBCHEM_HEAVY_ATOM_COUNT>
6

> <PUBCHEM_ATOM_DEF_STEREO_COUNT>
0

> <PUBCHEM_ATOM_UDEF_STEREO_COUNT>
0

> <PUBCHEM_BOND_DEF_STEREO_COUNT>
0

> <PUBCHEM_BOND_UDEF_STEREO_COUNT>
0

> <PUBCHEM_ISOTOPIC_ATOM_COUNT>
0

> <PUBCHEM_COMPONENT_COUNT>
1

> <PUBCHEM_CACTVS_TAUTO_COUNT>
1

> <PUBCHEM_CONFORMER_ID>
00001C7700000001

> <PUBCHEM_MMFF94_ENERGY>
5.5745

> <PUBCHEM_FEATURE_SELFOVERLAP>
20.297

> <PUBCHEM_SHAPE_FINGERPRINT>
14325111 11 18411418410102857556
16714656 1 18202280299220427732
21040471 1 18342741779965734328
21293036 1 18201435852831257700
29004967 10 7276833506228469549
5460574 1 10303813181097888220

> <PUBCHEM_SHAPE_MULTIPOLES>
129.49
4.47
1.04
0.74
0.05
0.06
-0.05
0.41
-0.81
-0.01
0.12
0.01
0.04
-0.01

> <PUBCHEM_SHAPE_SELFOVERLAP>
202.647

> <PUBCHEM_SHAPE_VOLUME>
95.7

> <PUBCHEM_COORDINATE_TYPE>
2
5
10

$$$$

