4659
  -OEChem-06261200162D

 36 32  0     1  0  0  0  0  0999 V2000
    4.5981    1.7500    0.0000 P   0  0  3  0  0  0  0  0  0  0  0  0
    5.4641    3.2500    0.0000 P   0  0  3  0  0  0  0  0  0  0  0  0
    6.3301    5.7500    0.0000 F   0  5  0  0  0  0  0  0  0  0  0  0
    7.3301    4.7500    0.0000 F   0  5  0  0  0  0  0  0  0  0  0  0
    5.3301    4.7500    0.0000 F   0  5  0  0  0  0  0  0  0  0  0  0
    4.5981    0.7500    0.0000 O   0  0  0  0  0  0  0  0  0  0  0  0
    4.5981    2.7500    0.0000 O   0  0  0  0  0  0  0  0  0  0  0  0
    5.5981    1.7500    0.0000 O   0  0  0  0  0  0  0  0  0  0  0  0
    6.3301    3.7500    0.0000 O   0  5  0  0  0  0  0  0  0  0  0  0
    3.5981    1.7500    0.0000 O   0  0  0  0  0  0  0  0  0  0  0  0
    4.9641    4.1160    0.0000 O   0  0  0  0  0  0  0  0  0  0  0  0
    5.9641    2.3840    0.0000 O   0  0  0  0  0  0  0  0  0  0  0  0
    2.0000   -5.7500    0.0000 O   0  5  0  0  0  0  0  0  0  0  0  0
    3.7320   -5.7500    0.0000 O   0  0  0  0  0  0  0  0  0  0  0  0
    2.8660   -1.2500    0.0000 N   0  0  0  0  0  0  0  0  0  0  0  0
    2.8660   -5.2500    0.0000 N   0  3  0  0  0  0  0  0  0  0  0  0
    3.7320   -0.7500    0.0000 C   0  0  0  0  0  0  0  0  0  0  0  0
    3.7320    0.2500    0.0000 C   0  0  0  0  0  0  0  0  0  0  0  0
    2.8660   -2.2500    0.0000 C   0  0  0  0  0  0  0  0  0  0  0  0
    2.0000   -2.7500    0.0000 C   0  0  0  0  0  0  0  0  0  0  0  0
    3.7320   -2.7500    0.0000 C   0  0  0  0  0  0  0  0  0  0  0  0
    2.8660   -4.2500    0.0000 C   0  0  0  0  0  0  0  0  0  0  0  0
    2.0000   -3.7500    0.0000 C   0  0  0  0  0  0  0  0  0  0  0  0
    3.7320   -3.7500    0.0000 C   0  0  0  0  0  0  0  0  0  0  0  0
    6.3301    4.7500    0.0000 Be  0  2  0  0  0  0  0  0  0  0  0  0
    3.9441   -1.3326    0.0000 H   0  0  0  0  0  0  0  0  0  0  0  0
    4.3426   -0.6423    0.0000 H   0  0  0  0  0  0  0  0  0  0  0  0
    3.5200    0.8326    0.0000 H   0  0  0  0  0  0  0  0  0  0  0  0
    3.1215    0.1423    0.0000 H   0  0  0  0  0  0  0  0  0  0  0  0
    2.3291   -0.9400    0.0000 H   0  0  0  0  0  0  0  0  0  0  0  0
    1.4631   -2.4400    0.0000 H   0  0  0  0  0  0  0  0  0  0  0  0
    4.2690   -2.4400    0.0000 H   0  0  0  0  0  0  0  0  0  0  0  0
    1.4631   -4.0600    0.0000 H   0  0  0  0  0  0  0  0  0  0  0  0
    4.2690   -4.0600    0.0000 H   0  0  0  0  0  0  0  0  0  0  0  0
    5.9081    1.2131    0.0000 H   0  0  0  0  0  0  0  0  0  0  0  0
    4.3441    4.1160    0.0000 H   0  0  0  0  0  0  0  0  0  0  0  0
  1  6  1  0  0  0  0
  1  7  1  0  0  0  0
  1  8  1  0  0  0  0
  1 10  2  0  0  0  0
  2  7  1  0  0  0  0
  2  9  1  0  0  0  0
  2 11  1  0  0  0  0
  2 12  2  0  0  0  0
  6 18  1  0  0  0  0
  8 35  1  0  0  0  0
 11 36  1  0  0  0  0
 13 16  1  0  0  0  0
 14 16  2  0  0  0  0
 15 17  1  0  0  0  0
 15 19  1  0  0  0  0
 15 30  1  0  0  0  0
 16 22  1  0  0  0  0
 17 18  1  0  0  0  0
 17 26  1  0  0  0  0
 17 27  1  0  0  0  0
 18 28  1  0  0  0  0
 18 29  1  0  0  0  0
 19 20  2  0  0  0  0
 19 21  1  0  0  0  0
 20 23  1  0  0  0  0
 20 31  1  0  0  0  0
 21 24  2  0  0  0  0
 21 32  1  0  0  0  0
 22 23  2  0  0  0  0
 22 24  1  0  0  0  0
 23 33  1  0  0  0  0
 24 34  1  0  0  0  0
M  CHG  7   3  -1   4  -1   5  -1   9  -1  13  -1  16   1  25   2
M  END
> <PUBCHEM_COMPOUND_CID>
4659

> <PUBCHEM_COMPOUND_CANONICALIZED>
1

> <PUBCHEM_CACTVS_COMPLEXITY>
465

> <PUBCHEM_CACTVS_HBOND_ACCEPTOR>
13

> <PUBCHEM_CACTVS_HBOND_DONOR>
3

> <PUBCHEM_CACTVS_ROTATABLE_BOND>
8

> <PUBCHEM_CACTVS_SUBSKEYS>
AAADccBzPYMAAEAAAAAAAAAAAAAAAAAAAAAwAAAAAAAAAAABAAAAHgAUCCAACAjhkAYwwILQQRCBQCRCQ4CCAAAhAgAoiIAIZIoKICLAkZGEIAhgkADYyAcQAAAAAACAAAAAAAAAAQAAAAAAAAAAAAAAAA==

> <PUBCHEM_IUPAC_OPENEYE_NAME>
beryllium [hydroxy-[2-(4-nitroanilino)ethoxy]phosphoryl] hydrogen phosphate trifluoride

> <PUBCHEM_IUPAC_CAS_NAME>
beryllium [hydroxy-[2-(4-nitroanilino)ethoxy]phosphoryl] hydrogen phosphate trifluoride

> <PUBCHEM_IUPAC_NAME>
beryllium [hydroxy-[2-(4-nitroanilino)ethoxy]phosphoryl] hydrogen phosphate trifluoride

> <PUBCHEM_IUPAC_SYSTEMATIC_NAME>
beryllium [2-[(4-nitrophenyl)amino]ethoxy-oxidanyl-phosphoryl] hydrogen phosphate trifluoride

> <PUBCHEM_IUPAC_TRADITIONAL_NAME>
beryllium [hydroxy-[2-(4-nitroanilino)ethoxy]phosphoryl] hydrogen phosphate trifluoride

> <PUBCHEM_IUPAC_INCHI>
InChI=1S/C8H12N2O9P2.Be.3FH/c11-10(12)8-3-1-7(2-4-8)9-5-6-18-21(16,17)19-20(13,14)15;;;;/h1-4,9H,5-6H2,(H,16,17)(H2,13,14,15);;3*1H/q;+2;;;/p-4

> <PUBCHEM_IUPAC_INCHIKEY>
BRWWYZIUQVKJEM-UHFFFAOYSA-J

> <PUBCHEM_EXACT_MASS>
407.00137

> <PUBCHEM_MOLECULAR_FORMULA>
C8H11BeF3N2O9P2-2

> <PUBCHEM_MOLECULAR_WEIGHT>
407.135856

> <PUBCHEM_OPENEYE_CAN_SMILES>
[Be+2].C1=CC(=CC=C1NCCOP(=O)(O)OP(=O)(O)[O-])[N+](=O)[O-].[F-].[F-].[F-]

> <PUBCHEM_OPENEYE_ISO_SMILES>
[Be+2].C1=CC(=CC=C1NCCOP(=O)(O)OP(=O)(O)[O-])[N+](=O)[O-].[F-].[F-].[F-]

> <PUBCHEM_CACTVS_TPSA>
174

> <PUBCHEM_MONOISOTOPIC_WEIGHT>
407.00137

> <PUBCHEM_TOTAL_CHARGE>
-2

> <PUBCHEM_HEAVY_ATOM_COUNT>
25

> <PUBCHEM_ATOM_DEF_STEREO_COUNT>
0

> <PUBCHEM_ATOM_UDEF_STEREO_COUNT>
0

> <PUBCHEM_BOND_DEF_STEREO_COUNT>
0

> <PUBCHEM_BOND_UDEF_STEREO_COUNT>
0

> <PUBCHEM_ISOTOPIC_ATOM_COUNT>
0

> <PUBCHEM_COMPONENT_COUNT>
5

> <PUBCHEM_CACTVS_TAUTO_COUNT>
1

> <PUBCHEM_NONSTANDARDBOND>
3  25  7
4  25  7
5  25  7
9  25  7

> <PUBCHEM_COORDINATE_TYPE>
1
5
255

> <PUBCHEM_BONDANNOTATIONS>
19  20  8
19  21  8
20  23  8
21  24  8
22  23  8
22  24  8

$$$$

