17395838
  -OEChem-06241222523D

 31 32  0     0  0  0  0  0  0999 V2000
    0.2319    1.8961    0.3051 S   0  0  0  0  0  0  0  0  0  0  0  0
   -5.0547    0.2602   -1.0616 S   0  0  0  0  0  0  0  0  0  0  0  0
   -2.7049   -1.7138    0.3263 O   0  0  0  0  0  0  0  0  0  0  0  0
    0.0599   -0.6719    0.1372 N   0  0  0  0  0  0  0  0  0  0  0  0
   -2.0016    0.5369    0.4215 N   0  0  0  0  0  0  0  0  0  0  0  0
    1.4055   -0.3515    0.0307 C   0  0  0  0  0  0  0  0  0  0  0  0
    2.4684   -1.2654   -0.1373 C   0  0  0  0  0  0  0  0  0  0  0  0
    1.6990    1.0137    0.1005 C   0  0  0  0  0  0  0  0  0  0  0  0
    4.0484    0.5694   -0.1575 C   0  0  0  0  0  0  0  0  0  0  0  0
    3.7809   -0.7932   -0.2297 C   0  0  0  0  0  0  0  0  0  0  0  0
    3.0150    1.4950    0.0084 C   0  0  0  0  0  0  0  0  0  0  0  0
   -0.6434    0.4267    0.2837 C   0  0  0  0  0  0  0  0  0  0  0  0
    2.2383   -2.7411   -0.2210 C   0  0  0  0  0  0  0  0  0  0  0  0
    5.4570    1.0527   -0.2587 C   0  0  0  0  0  0  0  0  0  0  0  0
   -2.9369   -0.5127    0.4352 C   0  0  0  0  0  0  0  0  0  0  0  0
   -4.3612   -0.0215    0.5850 C   0  0  0  0  0  0  0  0  0  0  0  0
   -6.7017    0.8203   -0.5678 C   0  0  0  0  0  0  0  0  0  0  0  0
    4.5982   -1.4996   -0.3611 H   0  0  0  0  0  0  0  0  0  0  0  0
    3.2194    2.5604    0.0632 H   0  0  0  0  0  0  0  0  0  0  0  0
    2.7695   -3.2530    0.5883 H   0  0  0  0  0  0  0  0  0  0  0  0
    1.1775   -2.9962   -0.1368 H   0  0  0  0  0  0  0  0  0  0  0  0
    2.5985   -3.1258   -1.1809 H   0  0  0  0  0  0  0  0  0  0  0  0
    6.1536    0.3325    0.1839 H   0  0  0  0  0  0  0  0  0  0  0  0
    5.7273    1.2044   -1.3084 H   0  0  0  0  0  0  0  0  0  0  0  0
    5.5922    1.9983    0.2774 H   0  0  0  0  0  0  0  0  0  0  0  0
   -2.3461    1.4887    0.5168 H   0  0  0  0  0  0  0  0  0  0  0  0
   -4.9398   -0.7837    1.1163 H   0  0  0  0  0  0  0  0  0  0  0  0
   -4.3857    0.9031    1.1700 H   0  0  0  0  0  0  0  0  0  0  0  0
   -7.2892    1.0445   -1.4621 H   0  0  0  0  0  0  0  0  0  0  0  0
   -6.6297    1.7278    0.0372 H   0  0  0  0  0  0  0  0  0  0  0  0
   -7.2154    0.0393   -0.0013 H   0  0  0  0  0  0  0  0  0  0  0  0
  1  8  1  0  0  0  0
  1 12  1  0  0  0  0
  2 16  1  0  0  0  0
  2 17  1  0  0  0  0
  3 15  2  0  0  0  0
  4  6  1  0  0  0  0
  4 12  2  0  0  0  0
  5 12  1  0  0  0  0
  5 15  1  0  0  0  0
  5 26  1  0  0  0  0
  6  7  2  0  0  0  0
  6  8  1  0  0  0  0
  7 10  1  0  0  0  0
  7 13  1  0  0  0  0
  8 11  2  0  0  0  0
  9 10  2  0  0  0  0
  9 11  1  0  0  0  0
  9 14  1  0  0  0  0
 10 18  1  0  0  0  0
 11 19  1  0  0  0  0
 13 20  1  0  0  0  0
 13 21  1  0  0  0  0
 13 22  1  0  0  0  0
 14 23  1  0  0  0  0
 14 24  1  0  0  0  0
 14 25  1  0  0  0  0
 15 16  1  0  0  0  0
 16 27  1  0  0  0  0
 16 28  1  0  0  0  0
 17 29  1  0  0  0  0
 17 30  1  0  0  0  0
 17 31  1  0  0  0  0
M  END
> <PUBCHEM_COMPOUND_CID>
17395838

> <PUBCHEM_CONFORMER_RMSD>
0.6

> <PUBCHEM_CONFORMER_DIVERSEORDER>
1
19
7
18
20
6
17
12
9
16
10
15
11
14
13
8
2
5
3
4

> <PUBCHEM_MMFF94_PARTIAL_CHARGES>
20
1 -0.08
10 -0.15
11 -0.15
12 0.44
13 0.14
14 0.14
15 0.57
16 0.29
17 0.23
18 0.15
19 0.15
2 -0.46
26 0.37
3 -0.57
4 -0.57
5 -0.49
6 0.23
7 -0.14
8 0.04
9 -0.14

> <PUBCHEM_EFFECTIVE_ROTOR_COUNT>
4

> <PUBCHEM_PHARMACOPHORE_FEATURES>
5
1 17 hydrophobe
1 3 acceptor
1 5 donor
5 1 4 6 8 12 rings
6 6 7 8 9 10 11 rings

> <PUBCHEM_HEAVY_ATOM_COUNT>
17

> <PUBCHEM_ATOM_DEF_STEREO_COUNT>
0

> <PUBCHEM_ATOM_UDEF_STEREO_COUNT>
0

> <PUBCHEM_BOND_DEF_STEREO_COUNT>
0

> <PUBCHEM_BOND_UDEF_STEREO_COUNT>
0

> <PUBCHEM_ISOTOPIC_ATOM_COUNT>
0

> <PUBCHEM_COMPONENT_COUNT>
1

> <PUBCHEM_CACTVS_TAUTO_COUNT>
3

> <PUBCHEM_CONFORMER_ID>
0109707E00000001

> <PUBCHEM_MMFF94_ENERGY>
33.881

> <PUBCHEM_FEATURE_SELFOVERLAP>
25.443

> <PUBCHEM_SHAPE_FINGERPRINT>
10366900 7 17894348869353321371
10447042 23 18408610283375690734
11401426 45 18411138004678557200
11471102 20 18409448085566433348
12236239 1 17530964696353694717
12916748 109 16271927151465636973
13533116 47 18114184185266884891
13668630 136 17167861946421965845
13836976 161 18411132511847727244
14251717 144 18408318887214527626
14573314 32 18273216434780428461
14576447 43 18113910320813831015
15048467 5 17846216639682866124
15183329 4 18261117413582368797
15196674 1 18410289181728560690
15375358 24 18343299258210188835
15475509 35 13840543042737662758
17834072 33 18187088330306774071
18222031 100 14996289119485504497
200 152 17967814942429673681
20279233 1 18272081695450978347
20645477 56 18060703879831155093
20645477 70 18336546117985422671
21267235 1 18336251414720261346
21285901 2 18129947896232481413
21637258 2 15719662265017521260
21709351 56 18269838622868284180
221357 26 18339090371498379773
22289505 5 18412550941645167645
23402539 116 17346604032262762524
23402655 69 18408886230708294877
23557571 272 17489592298124357228
23559900 14 18335708191541224353
2871803 45 18410570721393044142
29717793 49 17603862333938271788
300161 21 18410578370487133787
3004659 81 18272370931476050594
3060560 45 18334571331225742142
33824 294 18411135853211353658
34934 24 18410578370371446459
3545911 37 18412260615035882041
4072396 5 18341344340032575074
42630746 31 18334294284339201302
5104073 3 18411133602242160163
5283173 99 18129388262031287733
542803 24 14979956960522869525
7495541 125 13110665139434923901
8272917 22 18335137635095213743

> <PUBCHEM_SHAPE_MULTIPOLES>
341.72
12.49
1.98
0.78
15.24
0.88
-0.08
-2.61
-2.97
-1.73
0
0.61
-0.04
0.36

> <PUBCHEM_SHAPE_SELFOVERLAP>
692.052

> <PUBCHEM_SHAPE_VOLUME>
203.7

> <PUBCHEM_COORDINATE_TYPE>
2
5
10

$$$$

