14288
  -OEChem-06241222432D

 15 15  0     0  0  0  0  0  0999 V2000
    6.0010   -0.6900    0.0000 O   0  0  0  0  0  0  0  0  0  0  0  0
    4.2690   -0.6900    0.0000 N   0  0  0  0  0  0  0  0  0  0  0  0
    5.1350    0.8100    0.0000 N   0  0  0  0  0  0  0  0  0  0  0  0
    3.4030    0.8100    0.0000 N   0  0  0  0  0  0  0  0  0  0  0  0
    2.5369   -0.6900    0.0000 N   0  0  0  0  0  0  0  0  0  0  0  0
    5.1350   -0.1900    0.0000 C   0  0  0  0  0  0  0  0  0  0  0  0
    3.4030   -0.1900    0.0000 C   0  0  0  0  0  0  0  0  0  0  0  0
    4.2690    1.3100    0.0000 C   0  0  0  0  0  0  0  0  0  0  0  0
    6.8671   -0.1900    0.0000 C   0  0  0  0  0  0  0  0  0  0  0  0
    4.2690    1.9300    0.0000 H   0  0  0  0  0  0  0  0  0  0  0  0
    7.1771   -0.7269    0.0000 H   0  0  0  0  0  0  0  0  0  0  0  0
    7.4040    0.1200    0.0000 H   0  0  0  0  0  0  0  0  0  0  0  0
    6.5571    0.3469    0.0000 H   0  0  0  0  0  0  0  0  0  0  0  0
    2.0000   -0.3800    0.0000 H   0  0  0  0  0  0  0  0  0  0  0  0
    2.5369   -1.3100    0.0000 H   0  0  0  0  0  0  0  0  0  0  0  0
  1  6  1  0  0  0  0
  1  9  1  0  0  0  0
  2  6  1  0  0  0  0
  2  7  2  0  0  0  0
  3  6  2  0  0  0  0
  3  8  1  0  0  0  0
  4  7  1  0  0  0  0
  4  8  2  0  0  0  0
  5  7  1  0  0  0  0
  5 14  1  0  0  0  0
  5 15  1  0  0  0  0
  8 10  1  0  0  0  0
  9 11  1  0  0  0  0
  9 12  1  0  0  0  0
  9 13  1  0  0  0  0
M  END
> <PUBCHEM_COMPOUND_CID>
14288

> <PUBCHEM_COMPOUND_CANONICALIZED>
1

> <PUBCHEM_CACTVS_COMPLEXITY>
88.6

> <PUBCHEM_CACTVS_HBOND_ACCEPTOR>
5

> <PUBCHEM_CACTVS_HBOND_DONOR>
1

> <PUBCHEM_CACTVS_ROTATABLE_BOND>
1

> <PUBCHEM_CACTVS_SUBSKEYS>
AAADcYBjoAAAAAAAAAAAAAAAAAAAAAAAAAAsAAAAAAAAAAABgAAAFgAQAAAAAAAAAAYHEAZIFAAgAAABJAAAAAkQAIABQAAIAACACAAAAAAAAAAIAAAAAAAAAAAAAAAAAAAAAAAAAAAAAAAAAAAAAAAAAA==

> <PUBCHEM_IUPAC_OPENEYE_NAME>
4-methoxy-1,3,5-triazin-2-amine

> <PUBCHEM_IUPAC_CAS_NAME>
4-methoxy-1,3,5-triazin-2-amine

> <PUBCHEM_IUPAC_NAME>
4-methoxy-1,3,5-triazin-2-amine

> <PUBCHEM_IUPAC_SYSTEMATIC_NAME>
4-methoxy-1,3,5-triazin-2-amine

> <PUBCHEM_IUPAC_TRADITIONAL_NAME>
(4-methoxy-s-triazin-2-yl)amine

> <PUBCHEM_IUPAC_INCHI>
InChI=1S/C4H6N4O/c1-9-4-7-2-6-3(5)8-4/h2H,1H3,(H2,5,6,7,8)

> <PUBCHEM_IUPAC_INCHIKEY>
NROXQTDIDGVYHK-UHFFFAOYSA-N

> <PUBCHEM_XLOGP3_AA>
-0.1

> <PUBCHEM_EXACT_MASS>
126.054161

> <PUBCHEM_MOLECULAR_FORMULA>
C4H6N4O

> <PUBCHEM_MOLECULAR_WEIGHT>
126.11664

> <PUBCHEM_OPENEYE_CAN_SMILES>
COC1=NC=NC(=N1)N

> <PUBCHEM_OPENEYE_ISO_SMILES>
COC1=NC=NC(=N1)N

> <PUBCHEM_CACTVS_TPSA>
73.9

> <PUBCHEM_MONOISOTOPIC_WEIGHT>
126.054161

> <PUBCHEM_TOTAL_CHARGE>
0

> <PUBCHEM_HEAVY_ATOM_COUNT>
9

> <PUBCHEM_ATOM_DEF_STEREO_COUNT>
0

> <PUBCHEM_ATOM_UDEF_STEREO_COUNT>
0

> <PUBCHEM_BOND_DEF_STEREO_COUNT>
0

> <PUBCHEM_BOND_UDEF_STEREO_COUNT>
0

> <PUBCHEM_ISOTOPIC_ATOM_COUNT>
0

> <PUBCHEM_COMPONENT_COUNT>
1

> <PUBCHEM_CACTVS_TAUTO_COUNT>
4

> <PUBCHEM_COORDINATE_TYPE>
1
5
255

> <PUBCHEM_BONDANNOTATIONS>
2  6  8
2  7  8
3  6  8
3  8  8
4  7  8
4  8  8

$$$$

