9427
  -OEChem-06261203423D

 29 30  0     1  0  0  0  0  0999 V2000
    2.6557   -2.3798   -0.4728 F   0  0  0  0  0  0  0  0  0  0  0  0
   -1.4675   -0.5015    1.0566 O   0  0  0  0  0  0  0  0  0  0  0  0
   -1.6482    2.2895   -1.1875 O   0  0  0  0  0  0  0  0  0  0  0  0
   -3.7318    1.2978    0.2663 O   0  0  0  0  0  0  0  0  0  0  0  0
   -2.1036   -3.1579    0.4191 O   0  0  0  0  0  0  0  0  0  0  0  0
    1.1336    2.6870    0.6479 O   0  0  0  0  0  0  0  0  0  0  0  0
    4.4700   -0.3643   -0.2788 O   0  0  0  0  0  0  0  0  0  0  0  0
    0.5210    0.4593    0.2901 N   0  0  0  0  0  0  0  0  0  0  0  0
    2.7937    1.1677    0.1875 N   0  0  0  0  0  0  0  0  0  0  0  0
   -1.6145    0.9228   -0.8315 C   0  0  2  0  0  0  0  0  0  0  0  0
   -2.9928    0.3728   -0.5309 C   0  0  1  0  0  0  0  0  0  0  0  0
   -0.8850    0.6778    0.4782 C   0  0  1  0  0  0  0  0  0  0  0  0
   -2.6713   -0.8389    0.3332 C   0  0  1  0  0  0  0  0  0  0  0  0
   -2.4007   -2.1004   -0.4758 C   0  0  0  0  0  0  0  0  0  0  0  0
    1.4514    1.5229    0.3947 C   0  0  0  0  0  0  0  0  0  0  0  0
    0.9609   -0.8273   -0.0004 C   0  0  0  0  0  0  0  0  0  0  0  0
    2.2431   -1.1304   -0.1917 C   0  0  0  0  0  0  0  0  0  0  0  0
    3.2860   -0.0971   -0.1041 C   0  0  0  0  0  0  0  0  0  0  0  0
   -1.1646    0.3607   -1.6587 H   0  0  0  0  0  0  0  0  0  0  0  0
   -3.5858    0.1534   -1.4225 H   0  0  0  0  0  0  0  0  0  0  0  0
   -1.0263    1.5105    1.1777 H   0  0  0  0  0  0  0  0  0  0  0  0
   -3.4461   -1.0345    1.0832 H   0  0  0  0  0  0  0  0  0  0  0  0
   -1.5674   -1.9881   -1.1734 H   0  0  0  0  0  0  0  0  0  0  0  0
   -3.2916   -2.3780   -1.0488 H   0  0  0  0  0  0  0  0  0  0  0  0
   -0.7281    2.5899   -1.2794 H   0  0  0  0  0  0  0  0  0  0  0  0
   -3.2720    1.4250    1.1128 H   0  0  0  0  0  0  0  0  0  0  0  0
    0.2341   -1.6206   -0.0722 H   0  0  0  0  0  0  0  0  0  0  0  0
    3.4763    1.9173    0.2584 H   0  0  0  0  0  0  0  0  0  0  0  0
   -1.9486   -3.9533   -0.1183 H   0  0  0  0  0  0  0  0  0  0  0  0
  1 17  1  0  0  0  0
  2 12  1  0  0  0  0
  2 13  1  0  0  0  0
  3 10  1  0  0  0  0
  3 25  1  0  0  0  0
  4 11  1  0  0  0  0
  4 26  1  0  0  0  0
  5 14  1  0  0  0  0
  5 29  1  0  0  0  0
  6 15  2  0  0  0  0
  7 18  2  0  0  0  0
  8 12  1  0  0  0  0
  8 15  1  0  0  0  0
  8 16  1  0  0  0  0
  9 15  1  0  0  0  0
  9 18  1  0  0  0  0
  9 28  1  0  0  0  0
 10 11  1  0  0  0  0
 10 12  1  0  0  0  0
 10 19  1  0  0  0  0
 11 13  1  0  0  0  0
 11 20  1  0  0  0  0
 12 21  1  0  0  0  0
 13 14  1  0  0  0  0
 13 22  1  0  0  0  0
 14 23  1  0  0  0  0
 14 24  1  0  0  0  0
 16 17  2  0  0  0  0
 16 27  1  0  0  0  0
 17 18  1  0  0  0  0
M  END
> <PUBCHEM_COMPOUND_CID>
9427

> <PUBCHEM_CONFORMER_RMSD>
0.6

> <PUBCHEM_CONFORMER_DIVERSEORDER>
1
9
15
8
13
12
7
3
10
4
14
5
11
6
2

> <PUBCHEM_MMFF94_PARTIAL_CHARGES>
23
1 -0.15
10 0.28
11 0.28
12 0.58
13 0.28
14 0.28
15 0.69
16 -0.04
17 0.16
18 0.62
2 -0.56
25 0.4
26 0.4
27 0.15
28 0.37
29 0.4
3 -0.68
4 -0.68
5 -0.68
6 -0.57
7 -0.57
8 -0.47
9 -0.49

> <PUBCHEM_EFFECTIVE_ROTOR_COUNT>
3

> <PUBCHEM_PHARMACOPHORE_FEATURES>
12
1 2 acceptor
1 3 acceptor
1 3 donor
1 4 acceptor
1 4 donor
1 5 acceptor
1 5 donor
1 6 acceptor
1 7 acceptor
1 9 donor
5 2 10 11 12 13 rings
6 8 9 15 16 17 18 rings

> <PUBCHEM_HEAVY_ATOM_COUNT>
18

> <PUBCHEM_ATOM_DEF_STEREO_COUNT>
4

> <PUBCHEM_ATOM_UDEF_STEREO_COUNT>
0

> <PUBCHEM_BOND_DEF_STEREO_COUNT>
0

> <PUBCHEM_BOND_UDEF_STEREO_COUNT>
0

> <PUBCHEM_ISOTOPIC_ATOM_COUNT>
0

> <PUBCHEM_COMPONENT_COUNT>
1

> <PUBCHEM_CACTVS_TAUTO_COUNT>
3

> <PUBCHEM_CONFORMER_ID>
000024D300000001

> <PUBCHEM_MMFF94_ENERGY>
46.7416

> <PUBCHEM_FEATURE_SELFOVERLAP>
60.909

> <PUBCHEM_SHAPE_FINGERPRINT>
10608611 8 18410862027144116193
10967382 1 18337390555684125962
11132069 177 18409170978676971018
12500047 106 18412267254728267655
12932764 1 17917723404217686489
12969540 114 17916046684210107005
13380535 21 18410569561556766797
14115302 16 18341884212435923780
15219456 202 18338519642440982033
15375462 6 18122909733007969076
16945 1 18340784705282423777
17834074 16 18410011005238864239
19107657 46 18408603656315174830
200 152 17822297885201476612
20201158 50 18410293635646141098
21501502 16 18340206280403501457
221490 88 18265891350766467634
22721475 48 18411415094377425576
22802520 49 18341615867469466977
2334 1 17978514135049146155
23402539 116 17418380186021289420
23559900 14 18263654973758381793
238 59 16189218802674097653
2748010 2 18051137994771098113
2871803 45 18195818370711088311
3312278 4 18334572447458159994
34934 24 18336833077872474234
5493415 88 18335422318522828938
69090 78 18411986892522613423
74978 22 18335421257507820137
81228 2 18058172726654266257
8809292 202 18412824668426906210
93112 12 18409451366757936709
9709674 26 18335419045505210919

> <PUBCHEM_SHAPE_MULTIPOLES>
317.98
6.17
2.71
0.84
2.68
0.73
0.05
1.07
0.52
-0.82
0.05
-0.31
-0.16
0.7

> <PUBCHEM_SHAPE_SELFOVERLAP>
673.652

> <PUBCHEM_SHAPE_VOLUME>
178.3

> <PUBCHEM_COORDINATE_TYPE>
2
5
10

$$$$

