12156
  -OEChem-06261206363D

 19 19  0     0  0  0  0  0  0999 V2000
    4.0652   -0.5493   -0.5934 Cl  0  0  0  0  0  0  0  0  0  0  0  0
    1.0450   -0.3222   -0.1932 O   0  0  0  0  0  0  0  0  0  0  0  0
   -0.3060   -0.1783   -0.1126 C   0  0  0  0  0  0  0  0  0  0  0  0
    1.8422    0.7789    0.2402 C   0  0  0  0  0  0  0  0  0  0  0  0
   -0.8818    1.0855   -0.2426 C   0  0  0  0  0  0  0  0  0  0  0  0
   -1.1148   -1.2944    0.1008 C   0  0  0  0  0  0  0  0  0  0  0  0
    3.1909    0.2766    0.7215 C   0  0  0  0  0  0  0  0  0  0  0  0
   -2.2664    1.2332   -0.1591 C   0  0  0  0  0  0  0  0  0  0  0  0
   -2.4993   -1.1469    0.1842 C   0  0  0  0  0  0  0  0  0  0  0  0
   -3.0751    0.1169    0.0542 C   0  0  0  0  0  0  0  0  0  0  0  0
    1.3726    1.3029    1.0827 H   0  0  0  0  0  0  0  0  0  0  0  0
    1.9747    1.4805   -0.5920 H   0  0  0  0  0  0  0  0  0  0  0  0
   -0.2915    1.9764   -0.4351 H   0  0  0  0  0  0  0  0  0  0  0  0
   -0.6719   -2.2814    0.2031 H   0  0  0  0  0  0  0  0  0  0  0  0
    3.8149    1.1017    1.0757 H   0  0  0  0  0  0  0  0  0  0  0  0
    3.0695   -0.4538    1.5267 H   0  0  0  0  0  0  0  0  0  0  0  0
   -2.7157    2.2162   -0.2661 H   0  0  0  0  0  0  0  0  0  0  0  0
   -3.1291   -2.0161    0.3500 H   0  0  0  0  0  0  0  0  0  0  0  0
   -4.1532    0.2316    0.1177 H   0  0  0  0  0  0  0  0  0  0  0  0
  1  7  1  0  0  0  0
  2  3  1  0  0  0  0
  2  4  1  0  0  0  0
  3  5  2  0  0  0  0
  3  6  1  0  0  0  0
  4  7  1  0  0  0  0
  4 11  1  0  0  0  0
  4 12  1  0  0  0  0
  5  8  1  0  0  0  0
  5 13  1  0  0  0  0
  6  9  2  0  0  0  0
  6 14  1  0  0  0  0
  7 15  1  0  0  0  0
  7 16  1  0  0  0  0
  8 10  2  0  0  0  0
  8 17  1  0  0  0  0
  9 10  1  0  0  0  0
  9 18  1  0  0  0  0
 10 19  1  0  0  0  0
M  END
> <PUBCHEM_COMPOUND_CID>
12156

> <PUBCHEM_CONFORMER_RMSD>
0.6

> <PUBCHEM_CONFORMER_DIVERSEORDER>
2
5
6
1
4
3
9
7
8

> <PUBCHEM_MMFF94_PARTIAL_CHARGES>
15
1 -0.29
10 -0.15
13 0.15
14 0.15
17 0.15
18 0.15
19 0.15
2 -0.36
3 0.08
4 0.28
5 -0.15
6 -0.15
7 0.29
8 -0.15
9 -0.15

> <PUBCHEM_EFFECTIVE_ROTOR_COUNT>
3

> <PUBCHEM_PHARMACOPHORE_FEATURES>
2
1 2 acceptor
6 3 5 6 8 9 10 rings

> <PUBCHEM_HEAVY_ATOM_COUNT>
10

> <PUBCHEM_ATOM_DEF_STEREO_COUNT>
0

> <PUBCHEM_ATOM_UDEF_STEREO_COUNT>
0

> <PUBCHEM_BOND_DEF_STEREO_COUNT>
0

> <PUBCHEM_BOND_UDEF_STEREO_COUNT>
0

> <PUBCHEM_ISOTOPIC_ATOM_COUNT>
0

> <PUBCHEM_COMPONENT_COUNT>
1

> <PUBCHEM_CACTVS_TAUTO_COUNT>
1

> <PUBCHEM_CONFORMER_ID>
00002F7C00000002

> <PUBCHEM_MMFF94_ENERGY>
27.1217

> <PUBCHEM_FEATURE_SELFOVERLAP>
10.148

> <PUBCHEM_SHAPE_FINGERPRINT>
10857977 72 18338806606607300225
11062470 55 12607406597963277052
12032990 46 18410288082100563483
12932764 1 17418104212729035652
13024252 1 15267345124106215881
14144814 61 18343589555270998738
14325111 11 18409732854767300784
190213 19 17131832071218308878
20201158 50 18186799205703366734
20279233 1 18113621183868626094
20645464 45 18113893879578684479
20871998 184 18261952921453694463
23402539 116 18187655699971434221
23552423 10 17987519204010735764
369184 2 18336271162847753265
6333449 129 18408326588022122767

> <PUBCHEM_SHAPE_MULTIPOLES>
201.8
6.25
1.31
0.73
5.45
0.04
-0.02
0.54
0.18
-0.7
0.01
0.32
0
0.39

> <PUBCHEM_SHAPE_SELFOVERLAP>
397.927

> <PUBCHEM_SHAPE_VOLUME>
121.7

> <PUBCHEM_COORDINATE_TYPE>
2
5
10

$$$$

