12433
  -OEChem-06261206563D

  8  7  0     0  0  0  0  0  0999 V2000
   -1.7677    1.3326   -0.2961 Br  0  0  0  0  0  0  0  0  0  0  0  0
   -1.1708   -1.7389    0.5217 Br  0  0  0  0  0  0  0  0  0  0  0  0
    1.7497   -0.5070   -0.6560 O   0  0  0  0  0  0  0  0  0  0  0  0
    1.0149    0.9450    0.9200 O   0  0  0  0  0  0  0  0  0  0  0  0
   -0.5972   -0.1989   -0.4963 C   0  0  0  0  0  0  0  0  0  0  0  0
    0.7710    0.1672    0.0067 C   0  0  0  0  0  0  0  0  0  0  0  0
   -0.5791   -0.4543   -1.5580 H   0  0  0  0  0  0  0  0  0  0  0  0
    2.6422   -0.2811   -0.3171 H   0  0  0  0  0  0  0  0  0  0  0  0
  1  5  1  0  0  0  0
  2  5  1  0  0  0  0
  3  6  1  0  0  0  0
  3  8  1  0  0  0  0
  4  6  2  0  0  0  0
  5  6  1  0  0  0  0
  5  7  1  0  0  0  0
M  END
> <PUBCHEM_COMPOUND_CID>
12433

> <PUBCHEM_CONFORMER_RMSD>
0.4

> <PUBCHEM_CONFORMER_DIVERSEORDER>
1
3
2

> <PUBCHEM_MMFF94_PARTIAL_CHARGES>
7
1 -0.23
2 -0.23
3 -0.65
4 -0.57
5 0.52
6 0.66
8 0.5

> <PUBCHEM_EFFECTIVE_ROTOR_COUNT>
1

> <PUBCHEM_PHARMACOPHORE_FEATURES>
6
1 1 hydrophobe
1 2 hydrophobe
1 3 acceptor
1 4 acceptor
3 1 2 5 hydrophobe
3 3 4 6 anion

> <PUBCHEM_HEAVY_ATOM_COUNT>
6

> <PUBCHEM_ATOM_DEF_STEREO_COUNT>
0

> <PUBCHEM_ATOM_UDEF_STEREO_COUNT>
0

> <PUBCHEM_BOND_DEF_STEREO_COUNT>
0

> <PUBCHEM_BOND_UDEF_STEREO_COUNT>
0

> <PUBCHEM_ISOTOPIC_ATOM_COUNT>
0

> <PUBCHEM_COMPONENT_COUNT>
1

> <PUBCHEM_CACTVS_TAUTO_COUNT>
1

> <PUBCHEM_CONFORMER_ID>
0000309100000001

> <PUBCHEM_MMFF94_ENERGY>
7.0579

> <PUBCHEM_FEATURE_SELFOVERLAP>
31.815

> <PUBCHEM_SHAPE_FINGERPRINT>
139733 1 7563417892151772155
16714656 1 18130210649293631077
20096714 4 18116448113830869669
21040471 1 18271251641486583013
24536 1 18269849626527088437
29004967 10 17749095686985563206
5943 1 10366863936478850007

> <PUBCHEM_SHAPE_MULTIPOLES>
123.62
2.17
1.82
0.89
0.1
0.83
-0.07
-0.58
0.2
-1.03
-0.29
0.14
-0.05
0.31

> <PUBCHEM_SHAPE_SELFOVERLAP>
201.597

> <PUBCHEM_SHAPE_VOLUME>
88.1

> <PUBCHEM_COORDINATE_TYPE>
2
5
10

$$$$

