17396289
  -OEChem-06241222552D

 42 43  0     0  0  0  0  0  0999 V2000
    5.5202    0.0567    0.0000 S   0  0  0  0  0  0  0  0  0  0  0  0
    7.4223   -0.5613    0.0000 O   0  0  0  0  0  0  0  0  0  0  0  0
    9.1165   -0.2012    0.0000 O   0  0  0  0  0  0  0  0  0  0  0  0
    3.7601   -0.2221    0.0000 N   0  0  0  0  0  0  0  0  0  0  0  0
    3.2601    1.3168    0.0000 N   0  0  0  0  0  0  0  0  0  0  0  0
    4.2601    1.3168    0.0000 N   0  0  0  0  0  0  0  0  0  0  0  0
    9.6517    1.4461    0.0000 N   0  0  0  0  0  0  0  0  0  0  0  0
    7.9575    1.0859    0.0000 N   0  0  0  0  0  0  0  0  0  0  0  0
    3.7601   -1.2221    0.0000 C   0  0  0  0  0  0  0  0  0  0  0  0
    3.2601   -2.0881    0.0000 C   0  0  0  0  0  0  0  0  0  0  0  0
    4.2601   -2.0881    0.0000 C   0  0  0  0  0  0  0  0  0  0  0  0
    2.9511    0.3657    0.0000 C   0  0  0  0  0  0  0  0  0  0  0  0
    4.5691    0.3657    0.0000 C   0  0  0  0  0  0  0  0  0  0  0  0
    2.0000    0.0567    0.0000 C   0  0  0  0  0  0  0  0  0  0  0  0
   10.6028    1.1370    0.0000 C   0  0  0  0  0  0  0  0  0  0  0  0
    6.2633    0.7258    0.0000 C   0  0  0  0  0  0  0  0  0  0  0  0
   11.5538    0.8280    0.0000 C   0  0  0  0  0  0  0  0  0  0  0  0
   10.9118    2.0881    0.0000 C   0  0  0  0  0  0  0  0  0  0  0  0
   10.2937    0.1860    0.0000 C   0  0  0  0  0  0  0  0  0  0  0  0
    7.2144    0.4168    0.0000 C   0  0  0  0  0  0  0  0  0  0  0  0
    8.9086    0.7769    0.0000 C   0  0  0  0  0  0  0  0  0  0  0  0
    3.1612   -1.0616    0.0000 H   0  0  0  0  0  0  0  0  0  0  0  0
    4.3677   -2.6987    0.0000 H   0  0  0  0  0  0  0  0  0  0  0  0
    4.8427   -1.8760    0.0000 H   0  0  0  0  0  0  0  0  0  0  0  0
    2.6775   -1.8760    0.0000 H   0  0  0  0  0  0  0  0  0  0  0  0
    3.1524   -2.6987    0.0000 H   0  0  0  0  0  0  0  0  0  0  0  0
    1.8084    0.6464    0.0000 H   0  0  0  0  0  0  0  0  0  0  0  0
    1.4103   -0.1349    0.0000 H   0  0  0  0  0  0  0  0  0  0  0  0
    2.1916   -0.5330    0.0000 H   0  0  0  0  0  0  0  0  0  0  0  0
    6.5544    1.2733    0.0000 H   0  0  0  0  0  0  0  0  0  0  0  0
    5.7747    1.1075    0.0000 H   0  0  0  0  0  0  0  0  0  0  0  0
    9.7041    0.3776    0.0000 H   0  0  0  0  0  0  0  0  0  0  0  0
   10.1021   -0.4037    0.0000 H   0  0  0  0  0  0  0  0  0  0  0  0
   10.8834   -0.0056    0.0000 H   0  0  0  0  0  0  0  0  0  0  0  0
   11.5014    1.8965    0.0000 H   0  0  0  0  0  0  0  0  0  0  0  0
   11.1034    2.6778    0.0000 H   0  0  0  0  0  0  0  0  0  0  0  0
   10.3221    2.2797    0.0000 H   0  0  0  0  0  0  0  0  0  0  0  0
   11.3622    0.2384    0.0000 H   0  0  0  0  0  0  0  0  0  0  0  0
   12.1435    0.6364    0.0000 H   0  0  0  0  0  0  0  0  0  0  0  0
   11.7454    1.4177    0.0000 H   0  0  0  0  0  0  0  0  0  0  0  0
    9.5228    2.0525    0.0000 H   0  0  0  0  0  0  0  0  0  0  0  0
    7.8286    1.6924    0.0000 H   0  0  0  0  0  0  0  0  0  0  0  0
  1 13  1  0  0  0  0
  1 16  1  0  0  0  0
  2 20  2  0  0  0  0
  3 21  2  0  0  0  0
  4  9  1  0  0  0  0
  4 12  1  0  0  0  0
  4 13  1  0  0  0  0
  5  6  1  0  0  0  0
  5 12  2  0  0  0  0
  6 13  2  0  0  0  0
  7 15  1  0  0  0  0
  7 21  1  0  0  0  0
  7 41  1  0  0  0  0
  8 20  1  0  0  0  0
  8 21  1  0  0  0  0
  8 42  1  0  0  0  0
  9 10  1  0  0  0  0
  9 11  1  0  0  0  0
  9 22  1  0  0  0  0
 10 11  1  0  0  0  0
 10 25  1  0  0  0  0
 10 26  1  0  0  0  0
 11 23  1  0  0  0  0
 11 24  1  0  0  0  0
 12 14  1  0  0  0  0
 14 27  1  0  0  0  0
 14 28  1  0  0  0  0
 14 29  1  0  0  0  0
 15 17  1  0  0  0  0
 15 18  1  0  0  0  0
 15 19  1  0  0  0  0
 16 20  1  0  0  0  0
 16 30  1  0  0  0  0
 16 31  1  0  0  0  0
 17 38  1  0  0  0  0
 17 39  1  0  0  0  0
 17 40  1  0  0  0  0
 18 35  1  0  0  0  0
 18 36  1  0  0  0  0
 18 37  1  0  0  0  0
 19 32  1  0  0  0  0
 19 33  1  0  0  0  0
 19 34  1  0  0  0  0
M  END
> <PUBCHEM_COMPOUND_CID>
17396289

> <PUBCHEM_COMPOUND_CANONICALIZED>
1

> <PUBCHEM_CACTVS_COMPLEXITY>
408

> <PUBCHEM_CACTVS_HBOND_ACCEPTOR>
5

> <PUBCHEM_CACTVS_HBOND_DONOR>
2

> <PUBCHEM_CACTVS_ROTATABLE_BOND>
5

> <PUBCHEM_CACTVS_SUBSKEYS>
AAADceBzsABAAAAAAAAAAAAAGAAAAWAAAAAAAAAAAAAAAAABgAAAHgQYAAAADKjFwwSDEAfMEAgqAAMwNAAQ0AtAALAVQAAYAACACAAACAAEAAAIHSKAAAAAAAAAAAAAAAAAAAAAAAAAAAAAAAAAAAAAAA==

> <PUBCHEM_IUPAC_OPENEYE_NAME>
N-(tert-butylcarbamoyl)-2-[(4-cyclopropyl-5-methyl-1,2,4-triazol-3-yl)sulfanyl]acetamide

> <PUBCHEM_IUPAC_CAS_NAME>
N-[(tert-butylamino)-oxomethyl]-2-[(4-cyclopropyl-5-methyl-1,2,4-triazol-3-yl)thio]acetamide

> <PUBCHEM_IUPAC_NAME>
N-(tert-butylcarbamoyl)-2-[(4-cyclopropyl-5-methyl-1,2,4-triazol-3-yl)sulfanyl]acetamide

> <PUBCHEM_IUPAC_SYSTEMATIC_NAME>
N-(tert-butylcarbamoyl)-2-[(4-cyclopropyl-5-methyl-1,2,4-triazol-3-yl)sulfanyl]ethanamide

> <PUBCHEM_IUPAC_TRADITIONAL_NAME>
N-(tert-butylcarbamoyl)-2-[(4-cyclopropyl-5-methyl-1,2,4-triazol-3-yl)thio]acetamide

> <PUBCHEM_IUPAC_INCHI>
InChI=1S/C13H21N5O2S/c1-8-16-17-12(18(8)9-5-6-9)21-7-10(19)14-11(20)15-13(2,3)4/h9H,5-7H2,1-4H3,(H2,14,15,19,20)

> <PUBCHEM_IUPAC_INCHIKEY>
MDARTEWSBCLXJL-UHFFFAOYSA-N

> <PUBCHEM_XLOGP3_AA>
1.6

> <PUBCHEM_EXACT_MASS>
311.141596

> <PUBCHEM_MOLECULAR_FORMULA>
C13H21N5O2S

> <PUBCHEM_MOLECULAR_WEIGHT>
311.40314

> <PUBCHEM_OPENEYE_CAN_SMILES>
CC1=NN=C(N1C2CC2)SCC(=O)NC(=O)NC(C)(C)C

> <PUBCHEM_OPENEYE_ISO_SMILES>
CC1=NN=C(N1C2CC2)SCC(=O)NC(=O)NC(C)(C)C

> <PUBCHEM_CACTVS_TPSA>
114

> <PUBCHEM_MONOISOTOPIC_WEIGHT>
311.141596

> <PUBCHEM_TOTAL_CHARGE>
0

> <PUBCHEM_HEAVY_ATOM_COUNT>
21

> <PUBCHEM_ATOM_DEF_STEREO_COUNT>
0

> <PUBCHEM_ATOM_UDEF_STEREO_COUNT>
0

> <PUBCHEM_BOND_DEF_STEREO_COUNT>
0

> <PUBCHEM_BOND_UDEF_STEREO_COUNT>
0

> <PUBCHEM_ISOTOPIC_ATOM_COUNT>
0

> <PUBCHEM_COMPONENT_COUNT>
1

> <PUBCHEM_CACTVS_TAUTO_COUNT>
5

> <PUBCHEM_COORDINATE_TYPE>
1
5
255

> <PUBCHEM_BONDANNOTATIONS>
4  12  8
4  13  8
5  12  8
5  6  8
6  13  8

$$$$

