11263
  -OEChem-06261205273D

 11 10  0     1  0  0  0  0  0999 V2000
    0.5516   -1.8503   -0.1932 Cl  0  0  0  0  0  0  0  0  0  0  0  0
    2.8756    0.4360   -0.0010 Cl  0  0  0  0  0  0  0  0  0  0  0  0
   -1.6250    1.4020   -0.2941 O   0  0  0  0  0  0  0  0  0  0  0  0
   -1.9799   -0.7126    0.4401 O   0  0  0  0  0  0  0  0  0  0  0  0
    0.2249   -0.1011   -0.4034 C   0  0  2  0  0  0  0  0  0  0  0  0
    1.1779    0.6946    0.4773 C   0  0  0  0  0  0  0  0  0  0  0  0
   -1.2252    0.1314   -0.0257 C   0  0  0  0  0  0  0  0  0  0  0  0
    0.3525    0.1237   -1.4671 H   0  0  0  0  0  0  0  0  0  0  0  0
    0.9810    1.7681    0.3943 H   0  0  0  0  0  0  0  0  0  0  0  0
    1.0793    0.4231    1.5340 H   0  0  0  0  0  0  0  0  0  0  0  0
   -2.5671    1.5455   -0.0615 H   0  0  0  0  0  0  0  0  0  0  0  0
  1  5  1  0  0  0  0
  2  6  1  0  0  0  0
  3  7  1  0  0  0  0
  3 11  1  0  0  0  0
  4  7  2  0  0  0  0
  5  6  1  0  0  0  0
  5  7  1  0  0  0  0
  5  8  1  0  0  0  0
  6  9  1  0  0  0  0
  6 10  1  0  0  0  0
M  END
> <PUBCHEM_COMPOUND_CID>
11263

> <PUBCHEM_CONFORMER_RMSD>
0.4

> <PUBCHEM_CONFORMER_DIVERSEORDER>
1
2
10
8
5
4
7
9
13
11
3
6
12

> <PUBCHEM_MMFF94_PARTIAL_CHARGES>
8
1 -0.29
11 0.5
2 -0.29
3 -0.65
4 -0.57
5 0.35
6 0.29
7 0.66

> <PUBCHEM_EFFECTIVE_ROTOR_COUNT>
2

> <PUBCHEM_PHARMACOPHORE_FEATURES>
3
1 3 acceptor
1 4 acceptor
3 3 4 7 anion

> <PUBCHEM_HEAVY_ATOM_COUNT>
7

> <PUBCHEM_ATOM_DEF_STEREO_COUNT>
0

> <PUBCHEM_ATOM_UDEF_STEREO_COUNT>
1

> <PUBCHEM_BOND_DEF_STEREO_COUNT>
0

> <PUBCHEM_BOND_UDEF_STEREO_COUNT>
0

> <PUBCHEM_ISOTOPIC_ATOM_COUNT>
0

> <PUBCHEM_COMPONENT_COUNT>
1

> <PUBCHEM_CACTVS_TAUTO_COUNT>
1

> <PUBCHEM_CONFORMER_ID>
00002BFF00000001

> <PUBCHEM_MMFF94_ENERGY>
7.4981

> <PUBCHEM_FEATURE_SELFOVERLAP>
15.282

> <PUBCHEM_SHAPE_FINGERPRINT>
14390081 3 18334582368759091880
16714656 1 18339641110136455052
20096714 4 18333456447377152912
21040471 1 18408890616059827534
24536 1 18270694180432787701
29004967 10 18334288777784790096
5084963 1 18041000579278197352
5460574 1 9295300438651116400

> <PUBCHEM_SHAPE_MULTIPOLES>
136.06
3.13
1.54
0.7
1.38
0.64
0
-0.82
-0.17
-0.14
0.09
0.02
0
0.22

> <PUBCHEM_SHAPE_SELFOVERLAP>
234.421

> <PUBCHEM_SHAPE_VOLUME>
92.1

> <PUBCHEM_COORDINATE_TYPE>
2
5
10

$$$$

