17395643
  -OEChem-06241222513D

 53 56  0     1  0  0  0  0  0999 V2000
   -3.2100   -2.2499   -1.1884 S   0  0  0  0  0  0  0  0  0  0  0  0
    2.0305   -1.8122    2.7305 S   0  0  0  0  0  0  0  0  0  0  0  0
   -2.1787   -3.1083   -0.6474 O   0  0  0  0  0  0  0  0  0  0  0  0
   -3.4488   -2.1533   -2.6121 O   0  0  0  0  0  0  0  0  0  0  0  0
   -0.5751    0.2831   -0.5242 O   0  0  0  0  0  0  0  0  0  0  0  0
   -3.0036   -0.6743   -0.5558 N   0  0  2  0  0  0  0  0  0  0  0  0
   -0.1030   -0.9669    1.4183 N   0  0  0  0  0  0  0  0  0  0  0  0
    2.1057   -0.4112    0.5593 N   0  0  0  0  0  0  0  0  0  0  0  0
   -2.3587   -0.5654    0.7848 C   0  0  2  0  0  0  0  0  0  0  0  0
   -2.8987    0.5625    1.6667 C   0  0  0  0  0  0  0  0  0  0  0  0
   -4.0798    0.3056   -0.8740 C   0  0  0  0  0  0  0  0  0  0  0  0
   -3.1925    1.8191    0.8941 C   0  0  0  0  0  0  0  0  0  0  0  0
   -3.7792    1.6902   -0.3726 C   0  0  0  0  0  0  0  0  0  0  0  0
   -0.9099   -0.3559    0.4676 C   0  0  0  0  0  0  0  0  0  0  0  0
   -4.7435   -2.6737   -0.4029 C   0  0  0  0  0  0  0  0  0  0  0  0
   -2.9459    3.0891    1.4226 C   0  0  0  0  0  0  0  0  0  0  0  0
   -4.1164    2.8329   -1.1032 C   0  0  0  0  0  0  0  0  0  0  0  0
   -3.2709    4.2261    0.6828 C   0  0  0  0  0  0  0  0  0  0  0  0
   -3.8550    4.0983   -0.5774 C   0  0  0  0  0  0  0  0  0  0  0  0
   -5.1969   -4.0647   -0.7859 C   0  0  0  0  0  0  0  0  0  0  0  0
    1.2939   -0.9717    1.4283 C   0  0  0  0  0  0  0  0  0  0  0  0
    3.4095   -0.6587    0.9424 C   0  0  0  0  0  0  0  0  0  0  0  0
    3.5688   -1.4015    2.0934 C   0  0  0  0  0  0  0  0  0  0  0  0
    4.5219   -0.1673    0.1816 C   0  0  0  0  0  0  0  0  0  0  0  0
    5.7238   -0.8754    0.1656 C   0  0  0  0  0  0  0  0  0  0  0  0
    4.4013    1.0182   -0.5435 C   0  0  0  0  0  0  0  0  0  0  0  0
    6.6840    0.7879   -1.3001 C   0  0  0  0  0  0  0  0  0  0  0  0
    6.8047   -0.3978   -0.5752 C   0  0  0  0  0  0  0  0  0  0  0  0
    5.4823    1.4958   -1.2842 C   0  0  0  0  0  0  0  0  0  0  0  0
    7.8401    1.2992   -2.0912 C   0  0  0  0  0  0  0  0  0  0  0  0
   -2.4901   -1.5036    1.3370 H   0  0  0  0  0  0  0  0  0  0  0  0
   -2.1943    0.7746    2.4805 H   0  0  0  0  0  0  0  0  0  0  0  0
   -3.8382    0.2393    2.1341 H   0  0  0  0  0  0  0  0  0  0  0  0
   -5.0262    0.0083   -0.4138 H   0  0  0  0  0  0  0  0  0  0  0  0
   -4.2109    0.3362   -1.9614 H   0  0  0  0  0  0  0  0  0  0  0  0
   -5.5148   -1.9737   -0.7276 H   0  0  0  0  0  0  0  0  0  0  0  0
   -4.6098   -2.6037    0.6799 H   0  0  0  0  0  0  0  0  0  0  0  0
   -2.5029    3.2010    2.4084 H   0  0  0  0  0  0  0  0  0  0  0  0
   -4.5841    2.7463   -2.0802 H   0  0  0  0  0  0  0  0  0  0  0  0
   -3.0752    5.2132    1.0918 H   0  0  0  0  0  0  0  0  0  0  0  0
   -4.1133    4.9860   -1.1474 H   0  0  0  0  0  0  0  0  0  0  0  0
   -0.5323   -1.4611    2.1961 H   0  0  0  0  0  0  0  0  0  0  0  0
   -6.1455   -4.3052   -0.2961 H   0  0  0  0  0  0  0  0  0  0  0  0
   -4.4597   -4.8168   -0.4868 H   0  0  0  0  0  0  0  0  0  0  0  0
   -5.3409   -4.1514   -1.8678 H   0  0  0  0  0  0  0  0  0  0  0  0
    4.4703   -1.7147    2.6016 H   0  0  0  0  0  0  0  0  0  0  0  0
    5.8507   -1.8120    0.7023 H   0  0  0  0  0  0  0  0  0  0  0  0
    3.4763    1.5899   -0.5434 H   0  0  0  0  0  0  0  0  0  0  0  0
    7.7343   -0.9609   -0.5846 H   0  0  0  0  0  0  0  0  0  0  0  0
    5.3759    2.4203   -1.8455 H   0  0  0  0  0  0  0  0  0  0  0  0
    8.7918    1.0115   -1.6316 H   0  0  0  0  0  0  0  0  0  0  0  0
    7.8289    2.3931   -2.1455 H   0  0  0  0  0  0  0  0  0  0  0  0
    7.8062    0.8971   -3.1086 H   0  0  0  0  0  0  0  0  0  0  0  0
  1  3  2  0  0  0  0
  1  4  2  0  0  0  0
  1  6  1  0  0  0  0
  1 15  1  0  0  0  0
  2 21  1  0  0  0  0
  2 23  1  0  0  0  0
  5 14  2  0  0  0  0
  6  9  1  0  0  0  0
  6 11  1  0  0  0  0
  7 14  1  0  0  0  0
  7 21  1  0  0  0  0
  7 42  1  0  0  0  0
  8 21  2  0  0  0  0
  8 22  1  0  0  0  0
  9 10  1  0  0  0  0
  9 14  1  0  0  0  0
  9 31  1  0  0  0  0
 10 12  1  0  0  0  0
 10 32  1  0  0  0  0
 10 33  1  0  0  0  0
 11 13  1  0  0  0  0
 11 34  1  0  0  0  0
 11 35  1  0  0  0  0
 12 13  1  0  0  0  0
 12 16  2  0  0  0  0
 13 17  2  0  0  0  0
 15 20  1  0  0  0  0
 15 36  1  0  0  0  0
 15 37  1  0  0  0  0
 16 18  1  0  0  0  0
 16 38  1  0  0  0  0
 17 19  1  0  0  0  0
 17 39  1  0  0  0  0
 18 19  2  0  0  0  0
 18 40  1  0  0  0  0
 19 41  1  0  0  0  0
 20 43  1  0  0  0  0
 20 44  1  0  0  0  0
 20 45  1  0  0  0  0
 22 23  2  0  0  0  0
 22 24  1  0  0  0  0
 23 46  1  0  0  0  0
 24 25  2  0  0  0  0
 24 26  1  0  0  0  0
 25 28  1  0  0  0  0
 25 47  1  0  0  0  0
 26 29  2  0  0  0  0
 26 48  1  0  0  0  0
 27 28  2  0  0  0  0
 27 29  1  0  0  0  0
 27 30  1  0  0  0  0
 28 49  1  0  0  0  0
 29 50  1  0  0  0  0
 30 51  1  0  0  0  0
 30 52  1  0  0  0  0
 30 53  1  0  0  0  0
M  END
> <PUBCHEM_COMPOUND_CID>
17395643

> <PUBCHEM_CONFORMER_RMSD>
0.8

> <PUBCHEM_CONFORMER_DIVERSEORDER>
2
131
80
74
157
159
104
120
72
57
110
158
59
101
15
107
155
28
129
106
116
73
133
128
95
151
12
35
90
137
92
149
141
134
18
93
99
130
127
65
25
97
144
47
109
29
112
66
23
55
26
64
67
98
32
135
115
156
75
14
118
78
56
83
85
123
150
117
105
38
4
13
30
6
50
160
119
89
54
10
77
5
152
100
121
49
96
81
132
153
84
86
140
20
69
91
68
147
45
7
94
102
111
37
3
82
34
88
108
53
42
22
148
16
138
19
62
71
79
113
17
103
76
143
31
139
61
21
43
36
146
24
44
154
41
136
9
70
48
51
63
33
52
8
124
58
39
142
46
60
125
122
27
40
126
145
87
1
11
114

> <PUBCHEM_MMFF94_PARTIAL_CHARGES>
39
1 1.33
10 0.14
11 0.5
12 -0.14
13 -0.14
14 0.57
15 0.11
16 -0.15
17 -0.15
18 -0.15
19 -0.15
2 -0.08
21 0.44
22 0.17
23 -0.11
24 0.05
25 -0.15
26 -0.15
27 -0.14
28 -0.15
29 -0.15
3 -0.65
30 0.14
38 0.15
39 0.15
4 -0.65
40 0.15
41 0.15
42 0.37
46 0.15
47 0.15
48 0.15
49 0.15
5 -0.57
50 0.15
6 -0.85
7 -0.49
8 -0.57
9 0.42

> <PUBCHEM_EFFECTIVE_ROTOR_COUNT>
6.8

> <PUBCHEM_PHARMACOPHORE_FEATURES>
8
1 3 acceptor
1 4 acceptor
1 5 acceptor
1 7 donor
5 2 8 21 22 23 rings
6 12 13 16 17 18 19 rings
6 24 25 26 27 28 29 rings
6 6 9 10 11 12 13 rings

> <PUBCHEM_HEAVY_ATOM_COUNT>
30

> <PUBCHEM_ATOM_DEF_STEREO_COUNT>
0

> <PUBCHEM_ATOM_UDEF_STEREO_COUNT>
1

> <PUBCHEM_BOND_DEF_STEREO_COUNT>
0

> <PUBCHEM_BOND_UDEF_STEREO_COUNT>
0

> <PUBCHEM_ISOTOPIC_ATOM_COUNT>
0

> <PUBCHEM_COMPONENT_COUNT>
1

> <PUBCHEM_CACTVS_TAUTO_COUNT>
3

> <PUBCHEM_CONFORMER_ID>
01096FBB00000002

> <PUBCHEM_MMFF94_ENERGY>
68.9502

> <PUBCHEM_FEATURE_SELFOVERLAP>
40.636

> <PUBCHEM_SHAPE_FINGERPRINT>
105312 117 18041278897412026845
10595046 47 18341895178131079742
10670039 82 18335139765551882318
11049842 53 17610350706652014963
11056379 131 18335706031230774331
11315621 246 18187925019669009871
11477941 20 18335704884079043100
12342043 65 16371579055060023702
12788726 201 18340498781152644259
13540713 5 18059027188543661594
13673619 4 17313661525771108011
13690498 29 18187646851621704430
13692115 27 17971765376741412247
13782708 43 16660368043596062046
14114211 68 17317607922791866081
14202776 33 18410005524844842244
14294032 229 18261668277397625113
14347332 77 18334859359673660743
14556957 393 18341892935867852413
14790565 3 17917698129079350644
15021287 119 17484536868583225154
15064981 113 17827657046810060700
15163728 17 17827076517945977289
15183329 4 18260540156918622708
15198563 99 18335711503546371029
15705408 1 17547597893853626999
15876981 60 18412257311768806021
16992828 155 17916024740453111197
16994733 274 15409798963514902527
20101258 96 18337955576576461171
21120745 212 18411699842894734297
21223535 225 18272925038956973292
21585481 151 9655311315744297636
21599406 157 17676752229115878652
21796203 349 17910086047061944195
22122407 14 17056683921636048417
22393880 68 18334583429921930536
23081809 10 18131070438097273226
249057 25 17988096551454325642
255183 451 17685225980621991927
268830 7 17274550947935156224
2748736 6 17703506602752701404
2838139 119 18272080571013617360
3552219 110 18059847317492392435
3610482 184 18270947016973724892
38570 142 17986938834308168088
4169191 19 17345741977499937284
4258327 124 18130509742659220029
46194498 28 17604715439804515248
497634 4 18201726132554566879
5104073 3 16630239299233913704
531348 171 18336261353248320918
5364581 5 11887370466655068886
6034566 193 18270118053846840865
6058803 2 18057624237292021395
633830 44 17916866953754023402
6608658 132 18342740744858212437
6700243 42 17679552641490899620
6898599 12 18339646740997329597

> <PUBCHEM_SHAPE_MULTIPOLES>
592.53
17.18
4.57
2.12
31.95
1.83
0.4
3.43
-9.64
-10.89
-0.73
0.97
-0.79
-4.65

> <PUBCHEM_SHAPE_SELFOVERLAP>
1256.466

> <PUBCHEM_SHAPE_VOLUME>
332.3

> <PUBCHEM_COORDINATE_TYPE>
2
5
10

$$$$

