13450
  -OEChem-06261214193D

 35 35  0     0  0  0  0  0  0999 V2000
   -3.9991    0.3115    0.2706 S   0  0  0  0  0  0  0  0  0  0  0  0
    0.7397    1.9326    0.0712 N   0  0  0  0  0  0  0  0  0  0  0  0
    0.4007   -0.3878    0.0208 N   0  0  0  0  0  0  0  0  0  0  0  0
   -1.4588    1.1224    0.1613 N   0  0  0  0  0  0  0  0  0  0  0  0
   -0.0015   -2.6979   -0.0245 N   0  0  0  0  0  0  0  0  0  0  0  0
   -1.8381   -1.2465    0.1124 N   0  0  0  0  0  0  0  0  0  0  0  0
    2.1829    1.7917   -0.0056 C   0  0  0  0  0  0  0  0  0  0  0  0
    2.8162    3.1858    0.0040 C   0  0  0  0  0  0  0  0  0  0  0  0
    2.6572    0.9848    1.2053 C   0  0  0  0  0  0  0  0  0  0  0  0
    2.5391    1.0616   -1.3036 C   0  0  0  0  0  0  0  0  0  0  0  0
   -0.1298    0.8595    0.0847 C   0  0  0  0  0  0  0  0  0  0  0  0
   -0.5040   -1.3800    0.0391 C   0  0  0  0  0  0  0  0  0  0  0  0
    1.3949   -2.9921   -0.1051 C   0  0  0  0  0  0  0  0  0  0  0  0
   -2.2431    0.0325    0.1706 C   0  0  0  0  0  0  0  0  0  0  0  0
    1.6114   -4.4929   -0.1368 C   0  0  0  0  0  0  0  0  0  0  0  0
   -4.1677    1.9147   -0.5643 C   0  0  0  0  0  0  0  0  0  0  0  0
    2.5543    3.7329    0.9173 H   0  0  0  0  0  0  0  0  0  0  0  0
    3.9089    3.1296   -0.0515 H   0  0  0  0  0  0  0  0  0  0  0  0
    2.4672    3.7849   -0.8453 H   0  0  0  0  0  0  0  0  0  0  0  0
    2.4264   -0.0817    1.1606 H   0  0  0  0  0  0  0  0  0  0  0  0
    2.2347    1.3787    2.1374 H   0  0  0  0  0  0  0  0  0  0  0  0
    3.7490    1.0457    1.2950 H   0  0  0  0  0  0  0  0  0  0  0  0
    2.3018   -0.0045   -1.3051 H   0  0  0  0  0  0  0  0  0  0  0  0
    2.0361    1.5154   -2.1660 H   0  0  0  0  0  0  0  0  0  0  0  0
    3.6186    1.1243   -1.4888 H   0  0  0  0  0  0  0  0  0  0  0  0
    0.3294    2.8581    0.1197 H   0  0  0  0  0  0  0  0  0  0  0  0
   -0.6874   -3.4441   -0.0121 H   0  0  0  0  0  0  0  0  0  0  0  0
    1.8272   -2.5510   -1.0104 H   0  0  0  0  0  0  0  0  0  0  0  0
    1.9247   -2.5770    0.7599 H   0  0  0  0  0  0  0  0  0  0  0  0
    1.2101   -4.9679    0.7649 H   0  0  0  0  0  0  0  0  0  0  0  0
    1.1143   -4.9443   -1.0021 H   0  0  0  0  0  0  0  0  0  0  0  0
    2.6795   -4.7236   -0.1980 H   0  0  0  0  0  0  0  0  0  0  0  0
   -3.7395    1.8699   -1.5694 H   0  0  0  0  0  0  0  0  0  0  0  0
   -3.6738    2.7028    0.0104 H   0  0  0  0  0  0  0  0  0  0  0  0
   -5.2290    2.1627   -0.6488 H   0  0  0  0  0  0  0  0  0  0  0  0
  1 14  1  0  0  0  0
  1 16  1  0  0  0  0
  2  7  1  0  0  0  0
  2 11  1  0  0  0  0
  2 26  1  0  0  0  0
  3 11  1  0  0  0  0
  3 12  2  0  0  0  0
  4 11  2  0  0  0  0
  4 14  1  0  0  0  0
  5 12  1  0  0  0  0
  5 13  1  0  0  0  0
  5 27  1  0  0  0  0
  6 12  1  0  0  0  0
  6 14  2  0  0  0  0
  7  8  1  0  0  0  0
  7  9  1  0  0  0  0
  7 10  1  0  0  0  0
  8 17  1  0  0  0  0
  8 18  1  0  0  0  0
  8 19  1  0  0  0  0
  9 20  1  0  0  0  0
  9 21  1  0  0  0  0
  9 22  1  0  0  0  0
 10 23  1  0  0  0  0
 10 24  1  0  0  0  0
 10 25  1  0  0  0  0
 13 15  1  0  0  0  0
 13 28  1  0  0  0  0
 13 29  1  0  0  0  0
 15 30  1  0  0  0  0
 15 31  1  0  0  0  0
 15 32  1  0  0  0  0
 16 33  1  0  0  0  0
 16 34  1  0  0  0  0
 16 35  1  0  0  0  0
M  END
> <PUBCHEM_COMPOUND_CID>
13450

> <PUBCHEM_CONFORMER_RMSD>
0.6

> <PUBCHEM_CONFORMER_DIVERSEORDER>
1
71
28
18
98
92
93
24
42
72
86
39
44
82
73
96
3
38
6
70
74
10
37
66
105
60
83
51
65
100
54
9
76
25
5
90
50
55
26
48
101
102
27
56
62
106
53
84
16
68
89
57
41
64
69
43
45
11
85
81
97
77
95
75
78
33
19
36
58
2
35
40
61
103
80
22
87
49
88
13
23
67
59
34
47
46
7
52
31
20
104
21
30
4
79
15
32
94
12
17
14
63
99
8
29
91

> <PUBCHEM_MMFF94_PARTIAL_CHARGES>
14
1 -0.33
11 0.72
12 0.72
13 0.37
14 0.72
16 0.23
2 -0.87
26 0.4
27 0.4
3 -0.62
4 -0.62
5 -0.87
6 -0.62
7 0.37

> <PUBCHEM_EFFECTIVE_ROTOR_COUNT>
5

> <PUBCHEM_PHARMACOPHORE_FEATURES>
7
1 16 hydrophobe
1 2 donor
1 5 donor
4 2 3 4 11 cation
4 3 5 6 12 cation
4 7 8 9 10 hydrophobe
6 3 4 6 11 12 14 rings

> <PUBCHEM_HEAVY_ATOM_COUNT>
16

> <PUBCHEM_ATOM_DEF_STEREO_COUNT>
0

> <PUBCHEM_ATOM_UDEF_STEREO_COUNT>
0

> <PUBCHEM_BOND_DEF_STEREO_COUNT>
0

> <PUBCHEM_BOND_UDEF_STEREO_COUNT>
0

> <PUBCHEM_ISOTOPIC_ATOM_COUNT>
0

> <PUBCHEM_COMPONENT_COUNT>
1

> <PUBCHEM_CACTVS_TAUTO_COUNT>
9

> <PUBCHEM_CONFORMER_ID>
0000348A00000001

> <PUBCHEM_MMFF94_ENERGY>
46.5088

> <PUBCHEM_FEATURE_SELFOVERLAP>
35.562

> <PUBCHEM_SHAPE_FINGERPRINT>
1 1 18410855464486445831
10411042 1 17762054741668980163
10989021 7 17976823412736479259
11680986 33 18194968667434292137
12173636 292 18195248815192755701
12500047 106 18120657929226864272
12532896 13 18191584146915360013
12592029 89 18410568470888327179
13380535 76 18341900662719550619
14508225 48 17402057089329321591
15042514 8 17474948731772588002
15279307 12 17912091551495004536
16945 1 18410007754133399969
17134986 127 18411981334339456677
18186145 218 18188197728670262097
19591789 44 18265884770602601283
20510252 161 17973433309377137313
20645476 183 17985818229684726804
20645477 56 18048870801784795705
20671657 1 18336826519578589573
20671657 53 17903358457037334679
21029758 11 17762902460632929599
21524375 3 18271534087342180457
21665056 4 18194680363301604558
23402539 116 17685217166852714911
23419403 2 17768549517750713494
23526113 38 17678725757207047568
23557571 272 17468177956617754788
2748010 2 18267288864056806759
3071541 12 18338232803466745993
3071541 158 17910392015613579309
3071541 250 18049713315665035767
3071541 37 18412538843006786965
3091708 16 9187905640149853811
43471831 8 18338797810614797027
458136 41 18339060645543979057
633830 44 18113886144596428573
6443956 14 18123474044587381328
68521 5 17257370176745239703
7364860 26 18337111297063494867
81228 2 17326329931273929123

> <PUBCHEM_SHAPE_MULTIPOLES>
308.22
5.75
4.71
0.84
6.48
5.1
-0.04
-3.74
-0.27
-5.19
-0.33
-0.41
-0.27
0.36

> <PUBCHEM_SHAPE_SELFOVERLAP>
598.606

> <PUBCHEM_SHAPE_VOLUME>
189

> <PUBCHEM_COORDINATE_TYPE>
2
5
10

$$$$

