11284
  -OEChem-06261205293D

 37 40  0     0  0  0  0  0  0999 V2000
   -0.1014    2.9602    1.0644 O   0  0  0  0  0  0  0  0  0  0  0  0
    0.4761   -0.0620   -0.0592 C   0  0  0  0  0  0  0  0  0  0  0  0
    0.0159   -1.3981    0.0389 C   0  0  0  0  0  0  0  0  0  0  0  0
   -0.5164    0.9485   -0.1346 C   0  0  0  0  0  0  0  0  0  0  0  0
   -1.3607   -1.6826    0.0586 C   0  0  0  0  0  0  0  0  0  0  0  0
   -1.8963    0.6691   -0.1152 C   0  0  0  0  0  0  0  0  0  0  0  0
   -2.3236   -0.6674   -0.0171 C   0  0  0  0  0  0  0  0  0  0  0  0
    1.8942    0.1932   -0.0767 C   0  0  0  0  0  0  0  0  0  0  0  0
    2.7960   -0.8998    0.0046 C   0  0  0  0  0  0  0  0  0  0  0  0
    0.9347   -2.4482    0.1170 C   0  0  0  0  0  0  0  0  0  0  0  0
   -0.1984    2.4124   -0.2410 C   0  0  0  0  0  0  0  0  0  0  0  0
    2.3036   -2.2032    0.1002 C   0  0  0  0  0  0  0  0  0  0  0  0
   -1.8243   -3.1125    0.1633 C   0  0  0  0  0  0  0  0  0  0  0  0
   -2.8575    1.6920   -0.1914 C   0  0  0  0  0  0  0  0  0  0  0  0
   -3.6996   -0.9533    0.0029 C   0  0  0  0  0  0  0  0  0  0  0  0
    2.4702    1.4852   -0.1714 C   0  0  0  0  0  0  0  0  0  0  0  0
    4.1848   -0.6853   -0.0099 C   0  0  0  0  0  0  0  0  0  0  0  0
   -4.2205    1.3948   -0.1707 C   0  0  0  0  0  0  0  0  0  0  0  0
   -4.6413    0.0727   -0.0736 C   0  0  0  0  0  0  0  0  0  0  0  0
    3.8535    1.6850   -0.1850 C   0  0  0  0  0  0  0  0  0  0  0  0
    4.7111    0.5992   -0.1042 C   0  0  0  0  0  0  0  0  0  0  0  0
    0.6519   -3.4946    0.1617 H   0  0  0  0  0  0  0  0  0  0  0  0
    0.5872    2.6598   -0.9544 H   0  0  0  0  0  0  0  0  0  0  0  0
   -0.9574    2.9892   -0.7717 H   0  0  0  0  0  0  0  0  0  0  0  0
    2.9842   -3.0509    0.1564 H   0  0  0  0  0  0  0  0  0  0  0  0
   -2.8073   -3.2414    0.6190 H   0  0  0  0  0  0  0  0  0  0  0  0
   -1.8298   -3.5823   -0.8254 H   0  0  0  0  0  0  0  0  0  0  0  0
   -1.1996   -3.7007    0.8428 H   0  0  0  0  0  0  0  0  0  0  0  0
   -2.6561    2.7554   -0.2074 H   0  0  0  0  0  0  0  0  0  0  0  0
   -4.1101   -1.9553    0.0447 H   0  0  0  0  0  0  0  0  0  0  0  0
    1.9942    2.4318   -0.0270 H   0  0  0  0  0  0  0  0  0  0  0  0
    4.8750   -1.5247    0.0552 H   0  0  0  0  0  0  0  0  0  0  0  0
   -4.9536    2.1950   -0.2182 H   0  0  0  0  0  0  0  0  0  0  0  0
   -5.7021   -0.1601   -0.0615 H   0  0  0  0  0  0  0  0  0  0  0  0
    4.2590    2.6928   -0.2130 H   0  0  0  0  0  0  0  0  0  0  0  0
    5.7863    0.7497   -0.1035 H   0  0  0  0  0  0  0  0  0  0  0  0
    0.0889    3.9084    0.9633 H   0  0  0  0  0  0  0  0  0  0  0  0
  1 11  1  0  0  0  0
  1 37  1  0  0  0  0
  2  3  1  0  0  0  0
  2  4  2  0  0  0  0
  2  8  1  0  0  0  0
  3  5  2  0  0  0  0
  3 10  1  0  0  0  0
  4  6  1  0  0  0  0
  4 11  1  0  0  0  0
  5  7  1  0  0  0  0
  5 13  1  0  0  0  0
  6  7  1  0  0  0  0
  6 14  2  0  0  0  0
  7 15  2  0  0  0  0
  8  9  1  0  0  0  0
  8 16  2  0  0  0  0
  9 12  1  0  0  0  0
  9 17  2  0  0  0  0
 10 12  2  0  0  0  0
 10 22  1  0  0  0  0
 11 23  1  0  0  0  0
 11 24  1  0  0  0  0
 12 25  1  0  0  0  0
 13 26  1  0  0  0  0
 13 27  1  0  0  0  0
 13 28  1  0  0  0  0
 14 18  1  0  0  0  0
 14 29  1  0  0  0  0
 15 19  1  0  0  0  0
 15 30  1  0  0  0  0
 16 20  1  0  0  0  0
 16 31  1  0  0  0  0
 17 21  1  0  0  0  0
 17 32  1  0  0  0  0
 18 19  2  0  0  0  0
 18 33  1  0  0  0  0
 19 34  1  0  0  0  0
 20 21  2  0  0  0  0
 20 35  1  0  0  0  0
 21 36  1  0  0  0  0
M  END
> <PUBCHEM_COMPOUND_CID>
11284

> <PUBCHEM_CONFORMER_RMSD>
0.6

> <PUBCHEM_CONFORMER_DIVERSEORDER>
1

> <PUBCHEM_MMFF94_PARTIAL_CHARGES>
26
1 -0.68
10 -0.15
11 0.42
12 -0.15
13 0.14
14 -0.15
15 -0.15
16 -0.15
17 -0.15
18 -0.15
19 -0.15
20 -0.15
21 -0.15
22 0.15
25 0.15
29 0.15
30 0.15
31 0.15
32 0.15
33 0.15
34 0.15
35 0.15
36 0.15
37 0.4
4 -0.14
5 -0.14

> <PUBCHEM_EFFECTIVE_ROTOR_COUNT>
1

> <PUBCHEM_PHARMACOPHORE_FEATURES>
6
1 1 acceptor
1 1 donor
6 2 3 4 5 6 7 rings
6 2 3 8 9 10 12 rings
6 6 7 14 15 18 19 rings
6 8 9 16 17 20 21 rings

> <PUBCHEM_HEAVY_ATOM_COUNT>
21

> <PUBCHEM_ATOM_DEF_STEREO_COUNT>
0

> <PUBCHEM_ATOM_UDEF_STEREO_COUNT>
0

> <PUBCHEM_BOND_DEF_STEREO_COUNT>
0

> <PUBCHEM_BOND_UDEF_STEREO_COUNT>
0

> <PUBCHEM_ISOTOPIC_ATOM_COUNT>
0

> <PUBCHEM_COMPONENT_COUNT>
1

> <PUBCHEM_CACTVS_TAUTO_COUNT>
1

> <PUBCHEM_CONFORMER_ID>
00002C1400000001

> <PUBCHEM_MMFF94_ENERGY>
112.4826

> <PUBCHEM_FEATURE_SELFOVERLAP>
30.519

> <PUBCHEM_SHAPE_FINGERPRINT>
10411042 1 16682320150170240411
10498660 4 18410853274327574324
10608611 8 18412546534797348406
10616163 171 18339358556970466078
10967382 1 18411138068992088878
1100329 8 18338232644178591681
11112241 14 16373842893935910192
11132069 177 18411423877822968328
11578080 2 16880486856866904523
12011746 2 18410859845732883013
12403814 3 17632582651703462685
12788726 201 17968651743661493600
12838862 33 18339100231856970276
12954195 1 17970890379901030660
13027679 85 18335702693977712937
13132413 78 18410291385109820957
13140716 1 18339369578304648434
138480 1 17619350243790769803
14223421 5 18195809793571181828
14787075 74 18411702067249872247
14790565 3 18264763436589061273
15196674 1 18411700997454946927
15442244 35 18122908900159087330
15536298 74 18336264634450146526
16945 1 18265892651814504110
19591789 44 18411138013363391739
200 152 18187087264585230781
20510252 161 18263081170485790121
20715895 44 17839757193981005077
20739085 24 17980733216298388489
21029758 11 18334862701580404929
21267235 1 18411409626894932118
21421861 104 17914901073870141866
23227448 37 18409730625436882807
2334 1 18266739082715811950
23402539 116 18333740116939681918
23557571 272 18261945272264321622
23559900 14 18336266859713035486
2748010 2 18337948979021676614
335352 9 18339924930439960638
34934 24 18410297994922122878
350125 39 18195807603396284556
3680242 22 18270121339343757634
474 4 17704066257832671254
5104073 3 18413388764988675915
537710 114 18410853256831421316
69090 78 18411984667318266335
7364860 26 18336827623364507950
9709674 26 18409443700247146998

> <PUBCHEM_SHAPE_MULTIPOLES>
426.3
8.05
3.1
0.66
0.68
0.51
-0.03
-1.65
0.44
-0.31
-0.32
-0.01
-0.13
0

> <PUBCHEM_SHAPE_SELFOVERLAP>
974.587

> <PUBCHEM_SHAPE_VOLUME>
223.2

> <PUBCHEM_COORDINATE_TYPE>
2
5
10

$$$$

