3972
  -OEChem-06251223472D

 60 63  0     1  0  0  0  0  0999 V2000
    3.7421    2.4054    0.0000 O   0  0  0  0  0  0  0  0  0  0  0  0
    2.8819    0.9021    0.0000 O   0  0  0  0  0  0  0  0  0  0  0  0
    2.0024    4.3987    0.0000 O   0  0  0  0  0  0  0  0  0  0  0  0
    6.4140    0.9018    0.0000 N   0  0  3  0  0  0  0  0  0  0  0  0
    7.4021   -3.2883    0.0000 N   0  0  0  0  0  0  0  0  0  0  0  0
    5.5320   -0.6397    0.0000 C   0  0  3  0  0  0  0  0  0  0  0  0
    6.3980   -0.1397    0.0000 C   0  0  3  0  0  0  0  0  0  0  0  0
    4.6220   -0.1328    0.0000 C   0  0  0  0  0  0  0  0  0  0  0  0
    7.2640   -0.6397    0.0000 C   0  0  0  0  0  0  0  0  0  0  0  0
    4.6139    0.9088    0.0000 C   0  0  3  0  0  0  0  0  0  0  0  0
    5.5320   -1.6397    0.0000 C   0  0  0  0  0  0  0  0  0  0  0  0
    5.5160    1.4296    0.0000 C   0  0  0  0  0  0  0  0  0  0  0  0
    6.3980   -2.1397    0.0000 C   0  0  0  0  0  0  0  0  0  0  0  0
    7.2640   -1.6397    0.0000 C   0  0  0  0  0  0  0  0  0  0  0  0
    6.4140   -3.1812    0.0000 C   0  0  0  0  0  0  0  0  0  0  0  0
    7.8819   -2.4180    0.0000 C   0  0  0  0  0  0  0  0  0  0  0  0
    7.2858    1.3918    0.0000 C   0  0  0  0  0  0  0  0  0  0  0  0
    4.6220   -2.1465    0.0000 C   0  0  0  0  0  0  0  0  0  0  0  0
    3.7460    1.4054    0.0000 C   0  0  0  0  0  0  0  0  0  0  0  0
    7.8634   -4.1756    0.0000 C   0  0  0  0  0  0  0  0  0  0  0  0
    5.5160   -3.7090    0.0000 C   0  0  0  0  0  0  0  0  0  0  0  0
    4.6139   -3.1881    0.0000 C   0  0  0  0  0  0  0  0  0  0  0  0
    8.8624   -4.2198    0.0000 C   0  0  0  0  0  0  0  0  0  0  0  0
    7.3256   -5.0187    0.0000 C   0  0  0  0  0  0  0  0  0  0  0  0
    2.8742    2.9021    0.0000 C   0  0  3  0  0  0  0  0  0  0  0  0
    2.8703    3.9020    0.0000 C   0  0  3  0  0  0  0  0  0  0  0  0
    2.0101    2.3987    0.0000 C   0  0  0  0  0  0  0  0  0  0  0  0
    3.7344    4.4054    0.0000 C   0  0  0  0  0  0  0  0  0  0  0  0
    4.9974   -0.9538    0.0000 H   0  0  0  0  0  0  0  0  0  0  0  0
    6.9373    0.1662    0.0000 H   0  0  0  0  0  0  0  0  0  0  0  0
    4.0103   -0.0315    0.0000 H   0  0  0  0  0  0  0  0  0  0  0  0
    4.4174   -0.7181    0.0000 H   0  0  0  0  0  0  0  0  0  0  0  0
    7.8746   -0.7474    0.0000 H   0  0  0  0  0  0  0  0  0  0  0  0
    7.4761   -0.0571    0.0000 H   0  0  0  0  0  0  0  0  0  0  0  0
    4.6127    1.5288    0.0000 H   0  0  0  0  0  0  0  0  0  0  0  0
    5.9170    1.9025    0.0000 H   0  0  0  0  0  0  0  0  0  0  0  0
    5.1187    1.9055    0.0000 H   0  0  0  0  0  0  0  0  0  0  0  0
    8.4998   -2.3663    0.0000 H   0  0  0  0  0  0  0  0  0  0  0  0
    7.5896    0.8513    0.0000 H   0  0  0  0  0  0  0  0  0  0  0  0
    7.8263    1.6955    0.0000 H   0  0  0  0  0  0  0  0  0  0  0  0
    6.9820    1.9322    0.0000 H   0  0  0  0  0  0  0  0  0  0  0  0
    4.0886   -1.8304    0.0000 H   0  0  0  0  0  0  0  0  0  0  0  0
    8.1494   -4.7257    0.0000 H   0  0  0  0  0  0  0  0  0  0  0  0
    5.5184   -4.3290    0.0000 H   0  0  0  0  0  0  0  0  0  0  0  0
    4.0758   -3.4961    0.0000 H   0  0  0  0  0  0  0  0  0  0  0  0
    6.8029   -4.6853    0.0000 H   0  0  0  0  0  0  0  0  0  0  0  0
    6.9922   -5.5414    0.0000 H   0  0  0  0  0  0  0  0  0  0  0  0
    7.8483   -5.3521    0.0000 H   0  0  0  0  0  0  0  0  0  0  0  0
    8.8350   -4.8391    0.0000 H   0  0  0  0  0  0  0  0  0  0  0  0
    9.4818   -4.2471    0.0000 H   0  0  0  0  0  0  0  0  0  0  0  0
    8.8898   -3.6004    0.0000 H   0  0  0  0  0  0  0  0  0  0  0  0
    3.4099    3.2141    0.0000 H   0  0  0  0  0  0  0  0  0  0  0  0
    2.8680    4.5220    0.0000 H   0  0  0  0  0  0  0  0  0  0  0  0
    1.6980    2.9345    0.0000 H   0  0  0  0  0  0  0  0  0  0  0  0
    1.4744    2.0867    0.0000 H   0  0  0  0  0  0  0  0  0  0  0  0
    2.3222    1.8630    0.0000 H   0  0  0  0  0  0  0  0  0  0  0  0
    4.0465    3.8696    0.0000 H   0  0  0  0  0  0  0  0  0  0  0  0
    4.2702    4.7175    0.0000 H   0  0  0  0  0  0  0  0  0  0  0  0
    3.4224    4.9411    0.0000 H   0  0  0  0  0  0  0  0  0  0  0  0
    2.0000    5.0187    0.0000 H   0  0  0  0  0  0  0  0  0  0  0  0
  1 19  1  0  0  0  0
  1 25  1  0  0  0  0
  2 19  2  0  0  0  0
  3 26  1  0  0  0  0
  3 60  1  0  0  0  0
  4  7  1  0  0  0  0
  4 12  1  0  0  0  0
  4 17  1  0  0  0  0
  5 15  1  0  0  0  0
  5 16  1  0  0  0  0
  5 20  1  0  0  0  0
  6  7  1  0  0  0  0
  6  8  1  0  0  0  0
  6 11  1  0  0  0  0
  6 29  1  0  0  0  0
  7  9  1  0  0  0  0
  7 30  1  0  0  0  0
  8 10  1  0  0  0  0
  8 31  1  0  0  0  0
  8 32  1  0  0  0  0
  9 14  1  0  0  0  0
  9 33  1  0  0  0  0
  9 34  1  0  0  0  0
 10 12  1  0  0  0  0
 10 19  1  0  0  0  0
 10 35  1  0  0  0  0
 11 13  2  0  0  0  0
 11 18  1  0  0  0  0
 12 36  1  0  0  0  0
 12 37  1  0  0  0  0
 13 14  1  0  0  0  0
 13 15  1  0  0  0  0
 14 16  2  0  0  0  0
 15 21  2  0  0  0  0
 16 38  1  0  0  0  0
 17 39  1  0  0  0  0
 17 40  1  0  0  0  0
 17 41  1  0  0  0  0
 18 22  2  0  0  0  0
 18 42  1  0  0  0  0
 20 23  1  0  0  0  0
 20 24  1  0  0  0  0
 20 43  1  0  0  0  0
 21 22  1  0  0  0  0
 21 44  1  0  0  0  0
 22 45  1  0  0  0  0
 23 49  1  0  0  0  0
 23 50  1  0  0  0  0
 23 51  1  0  0  0  0
 24 46  1  0  0  0  0
 24 47  1  0  0  0  0
 24 48  1  0  0  0  0
 25 26  1  0  0  0  0
 25 27  1  0  0  0  0
 25 52  1  0  0  0  0
 26 28  1  0  0  0  0
 26 53  1  0  0  0  0
 27 54  1  0  0  0  0
 27 55  1  0  0  0  0
 27 56  1  0  0  0  0
 28 57  1  0  0  0  0
 28 58  1  0  0  0  0
 28 59  1  0  0  0  0
M  END
> <PUBCHEM_COMPOUND_CID>
3972

> <PUBCHEM_COMPOUND_CANONICALIZED>
1

> <PUBCHEM_CACTVS_COMPLEXITY>
582

> <PUBCHEM_CACTVS_HBOND_ACCEPTOR>
4

> <PUBCHEM_CACTVS_HBOND_DONOR>
1

> <PUBCHEM_CACTVS_ROTATABLE_BOND>
5

> <PUBCHEM_CACTVS_SUBSKEYS>
AAADcfB7MAAAAAAAAAAAAAAAAAAAAWAAAAA8YIAAAAAAAFjx8AAAHgAACAAADTzhngY+yPMMFgCoAzT3TACCgCAxAiAI2CE4ZJgJMPrAkZGGYAhmgADLyAeY2fOegAAAQAASAACQAASAACQAAAAAAAAAAA==

> <PUBCHEM_IUPAC_OPENEYE_NAME>
(2-hydroxy-1-methyl-propyl) 4-isopropyl-7-methyl-6,6a,8,9,10,10a-hexahydroindolo[4,3-fg]quinoline-9-carboxylate

> <PUBCHEM_IUPAC_CAS_NAME>
7-methyl-4-propan-2-yl-6,6a,8,9,10,10a-hexahydroindolo[4,3-fg]quinoline-9-carboxylic acid 3-hydroxybutan-2-yl ester

> <PUBCHEM_IUPAC_NAME>
3-hydroxybutan-2-yl 7-methyl-4-propan-2-yl-6,6a,8,9,10,10a-hexahydroindolo[4,3-fg]quinoline-9-carboxylate

> <PUBCHEM_IUPAC_SYSTEMATIC_NAME>
3-oxidanylbutan-2-yl 7-methyl-4-propan-2-yl-6,6a,8,9,10,10a-hexahydroindolo[4,3-fg]quinoline-9-carboxylate

> <PUBCHEM_IUPAC_TRADITIONAL_NAME>
4-isopropyl-7-methyl-6,6a,8,9,10,10a-hexahydroindolo[4,3-fg]quinoline-9-carboxylic acid (2-hydroxy-1-methyl-propyl) ester

> <PUBCHEM_IUPAC_INCHI>
InChI=1S/C23H32N2O3/c1-13(2)25-12-16-10-21-19(18-7-6-8-20(25)22(16)18)9-17(11-24(21)5)23(27)28-15(4)14(3)26/h6-8,12-15,17,19,21,26H,9-11H2,1-5H3

> <PUBCHEM_IUPAC_INCHIKEY>
JQYLIGHHVGCTPR-UHFFFAOYSA-N

> <PUBCHEM_XLOGP3_AA>
3.1

> <PUBCHEM_EXACT_MASS>
384.241293

> <PUBCHEM_MOLECULAR_FORMULA>
C23H32N2O3

> <PUBCHEM_MOLECULAR_WEIGHT>
384.51178

> <PUBCHEM_OPENEYE_CAN_SMILES>
CC(C)N1C=C2CC3C(CC(CN3C)C(=O)OC(C)C(C)O)C4=C2C1=CC=C4

> <PUBCHEM_OPENEYE_ISO_SMILES>
CC(C)N1C=C2CC3C(CC(CN3C)C(=O)OC(C)C(C)O)C4=C2C1=CC=C4

> <PUBCHEM_CACTVS_TPSA>
54.7

> <PUBCHEM_MONOISOTOPIC_WEIGHT>
384.241293

> <PUBCHEM_TOTAL_CHARGE>
0

> <PUBCHEM_HEAVY_ATOM_COUNT>
28

> <PUBCHEM_ATOM_DEF_STEREO_COUNT>
0

> <PUBCHEM_ATOM_UDEF_STEREO_COUNT>
5

> <PUBCHEM_BOND_DEF_STEREO_COUNT>
0

> <PUBCHEM_BOND_UDEF_STEREO_COUNT>
0

> <PUBCHEM_ISOTOPIC_ATOM_COUNT>
0

> <PUBCHEM_COMPONENT_COUNT>
1

> <PUBCHEM_CACTVS_TAUTO_COUNT>
1

> <PUBCHEM_COORDINATE_TYPE>
1
5
255

> <PUBCHEM_BONDANNOTATIONS>
10  19  3
11  13  8
11  18  8
13  14  8
13  15  8
14  16  8
15  21  8
18  22  8
21  22  8
25  27  3
26  3  3
5  15  8
5  16  8
6  8  3
7  9  3

$$$$

