17396597
  -OEChem-06241222573D

 42 44  0     0  0  0  0  0  0999 V2000
    2.7344    2.3414   -0.3604 Cl  0  0  0  0  0  0  0  0  0  0  0  0
    3.6450   -2.4701    1.0647 F   0  0  0  0  0  0  0  0  0  0  0  0
    1.4417   -1.1673   -1.5381 O   0  0  0  0  0  0  0  0  0  0  0  0
   -2.3483    1.8871   -0.3588 N   0  0  0  0  0  0  0  0  0  0  0  0
   -0.3760   -0.9835   -0.1049 N   0  0  0  0  0  0  0  0  0  0  0  0
   -2.8851    2.1695    0.8405 N   0  0  0  0  0  0  0  0  0  0  0  0
   -2.7535   -1.3845   -0.4524 C   0  0  0  0  0  0  0  0  0  0  0  0
   -3.5454   -0.2415   -0.5643 C   0  0  0  0  0  0  0  0  0  0  0  0
   -1.3800   -1.4278   -1.0369 C   0  0  0  0  0  0  0  0  0  0  0  0
   -3.0439    0.9748   -1.2712 C   0  0  0  0  0  0  0  0  0  0  0  0
   -3.2420   -2.5089    0.2131 C   0  0  0  0  0  0  0  0  0  0  0  0
   -4.8256   -0.2232   -0.0106 C   0  0  0  0  0  0  0  0  0  0  0  0
    1.8019   -0.3907    0.7275 C   0  0  0  0  0  0  0  0  0  0  0  0
    0.9699   -0.8892   -0.4386 C   0  0  0  0  0  0  0  0  0  0  0  0
   -4.5222   -2.4906    0.7667 C   0  0  0  0  0  0  0  0  0  0  0  0
   -5.3139   -1.3477    0.6548 C   0  0  0  0  0  0  0  0  0  0  0  0
    3.2604   -0.2249    0.3921 C   0  0  0  0  0  0  0  0  0  0  0  0
   -1.1607    2.5159   -0.5929 C   0  0  0  0  0  0  0  0  0  0  0  0
    3.7619    0.9783   -0.1045 C   0  0  0  0  0  0  0  0  0  0  0  0
    4.1160   -1.3091    0.5882 C   0  0  0  0  0  0  0  0  0  0  0  0
   -0.9029    3.2617    0.5313 C   0  0  0  0  0  0  0  0  0  0  0  0
   -1.9977    3.0097    1.3796 C   0  0  0  0  0  0  0  0  0  0  0  0
    5.1189    1.0973   -0.4047 C   0  0  0  0  0  0  0  0  0  0  0  0
    5.4730   -1.1900    0.2881 C   0  0  0  0  0  0  0  0  0  0  0  0
    5.9743    0.0131   -0.2083 C   0  0  0  0  0  0  0  0  0  0  0  0
   -1.2738   -0.8818   -1.9775 H   0  0  0  0  0  0  0  0  0  0  0  0
   -1.1266   -2.4633   -1.3017 H   0  0  0  0  0  0  0  0  0  0  0  0
   -2.3964    0.7715   -2.1266 H   0  0  0  0  0  0  0  0  0  0  0  0
   -3.8844    1.5550   -1.6751 H   0  0  0  0  0  0  0  0  0  0  0  0
   -2.6359   -3.4059    0.3105 H   0  0  0  0  0  0  0  0  0  0  0  0
   -5.4558    0.6589   -0.0897 H   0  0  0  0  0  0  0  0  0  0  0  0
   -0.6633   -0.7385    0.8390 H   0  0  0  0  0  0  0  0  0  0  0  0
    1.3691    0.5380    1.1157 H   0  0  0  0  0  0  0  0  0  0  0  0
    1.6956   -1.1150    1.5464 H   0  0  0  0  0  0  0  0  0  0  0  0
   -4.9023   -3.3658    1.2854 H   0  0  0  0  0  0  0  0  0  0  0  0
   -6.3106   -1.3335    1.0859 H   0  0  0  0  0  0  0  0  0  0  0  0
   -0.6108    2.3846   -1.5145 H   0  0  0  0  0  0  0  0  0  0  0  0
   -0.0478    3.8964    0.7102 H   0  0  0  0  0  0  0  0  0  0  0  0
   -2.1858    3.4033    2.3681 H   0  0  0  0  0  0  0  0  0  0  0  0
    5.5256    2.0280   -0.7924 H   0  0  0  0  0  0  0  0  0  0  0  0
    6.1388   -2.0342    0.4409 H   0  0  0  0  0  0  0  0  0  0  0  0
    7.0310    0.1056   -0.4420 H   0  0  0  0  0  0  0  0  0  0  0  0
  1 19  1  0  0  0  0
  2 20  1  0  0  0  0
  3 14  2  0  0  0  0
  4  6  1  0  0  0  0
  4 10  1  0  0  0  0
  4 18  1  0  0  0  0
  5  9  1  0  0  0  0
  5 14  1  0  0  0  0
  5 32  1  0  0  0  0
  6 22  2  0  0  0  0
  7  8  1  0  0  0  0
  7  9  1  0  0  0  0
  7 11  2  0  0  0  0
  8 10  1  0  0  0  0
  8 12  2  0  0  0  0
  9 26  1  0  0  0  0
  9 27  1  0  0  0  0
 10 28  1  0  0  0  0
 10 29  1  0  0  0  0
 11 15  1  0  0  0  0
 11 30  1  0  0  0  0
 12 16  1  0  0  0  0
 12 31  1  0  0  0  0
 13 14  1  0  0  0  0
 13 17  1  0  0  0  0
 13 33  1  0  0  0  0
 13 34  1  0  0  0  0
 15 16  2  0  0  0  0
 15 35  1  0  0  0  0
 16 36  1  0  0  0  0
 17 19  1  0  0  0  0
 17 20  2  0  0  0  0
 18 21  2  0  0  0  0
 18 37  1  0  0  0  0
 19 23  2  0  0  0  0
 20 24  1  0  0  0  0
 21 22  1  0  0  0  0
 21 38  1  0  0  0  0
 22 39  1  0  0  0  0
 23 25  1  0  0  0  0
 23 40  1  0  0  0  0
 24 25  2  0  0  0  0
 24 41  1  0  0  0  0
 25 42  1  0  0  0  0
M  END
> <PUBCHEM_COMPOUND_CID>
17396597

> <PUBCHEM_CONFORMER_RMSD>
1.4

> <PUBCHEM_CONFORMER_DIVERSEORDER>
1
40
25
28
24
57
47
68
43
32
14
16
59
22
34
38
52
56
70
5
33
9
17
58
21
36
64
46
2
65
54
45
11
26
20
23
69
8
27
71
35
61
39
13
62
10
31
42
30
50
19
51
37
29
4
63
18
12
6
72
48
66
15
55
67
53
7
3
44
49
41
60

> <PUBCHEM_MMFF94_PARTIAL_CHARGES>
36
1 -0.18
10 0.4
11 -0.15
12 -0.15
13 0.2
14 0.57
15 -0.15
16 -0.15
17 -0.14
18 -0.3
19 0.18
2 -0.19
20 0.19
21 -0.15
22 0.14
23 -0.15
24 -0.15
25 -0.15
3 -0.57
30 0.15
31 0.15
32 0.37
35 0.15
36 0.15
37 0.15
38 0.15
39 0.15
4 0.31
40 0.15
41 0.15
42 0.15
5 -0.73
6 -0.71
7 -0.14
8 -0.14
9 0.44

> <PUBCHEM_EFFECTIVE_ROTOR_COUNT>
7

> <PUBCHEM_PHARMACOPHORE_FEATURES>
6
1 3 acceptor
1 5 donor
1 6 acceptor
5 4 6 18 21 22 rings
6 17 19 20 23 24 25 rings
6 7 8 11 12 15 16 rings

> <PUBCHEM_HEAVY_ATOM_COUNT>
25

> <PUBCHEM_ATOM_DEF_STEREO_COUNT>
0

> <PUBCHEM_ATOM_UDEF_STEREO_COUNT>
0

> <PUBCHEM_BOND_DEF_STEREO_COUNT>
0

> <PUBCHEM_BOND_UDEF_STEREO_COUNT>
0

> <PUBCHEM_ISOTOPIC_ATOM_COUNT>
0

> <PUBCHEM_COMPONENT_COUNT>
1

> <PUBCHEM_CACTVS_TAUTO_COUNT>
2

> <PUBCHEM_CONFORMER_ID>
0109737500000001

> <PUBCHEM_MMFF94_ENERGY>
49.9042

> <PUBCHEM_FEATURE_SELFOVERLAP>
30.446

> <PUBCHEM_SHAPE_FINGERPRINT>
10670039 82 18336816572735220876
12107183 9 17764878287486716738
12166972 35 17775000142117795364
12422481 6 18115569544042421793
12467345 10 18272653441576406644
12596602 18 17917713495976203930
12788726 201 18334568044958647032
14341114 176 18342174457994308974
14363568 33 17974567996481365905
14787075 74 18058450889763130043
17492 89 18339361971807368826
17844677 252 18411976979754392742
21033648 29 17386587854596565178
2297311 6 18409441475343097039
23557571 272 18334852826996638127
23559900 14 18342748394199513371
329604 57 18411698760035546000
350125 39 18408884019064232256
3680242 22 18339348696131586953
392239 28 18410564072878784643
4214541 1 18342461460514821246
469060 322 18337936948865533121
5104073 3 18337401534469750922

> <PUBCHEM_SHAPE_MULTIPOLES>
488.27
12.69
3.52
1.09
8.42
2.22
-0.05
-5.45
1.28
-2.29
0.9
-0.38
0.1
-0.5

> <PUBCHEM_SHAPE_SELFOVERLAP>
1043.758

> <PUBCHEM_SHAPE_VOLUME>
271.8

> <PUBCHEM_COORDINATE_TYPE>
2
5
10

$$$$

