13856
  -OEChem-06241222403D

 22 22  0     0  0  0  0  0  0999 V2000
    2.2131   -0.3895    0.0713 C   0  0  0  0  0  0  0  0  0  0  0  0
    1.7128    1.0146    0.4145 C   0  0  0  0  0  0  0  0  0  0  0  0
    1.1107   -1.4361    0.2415 C   0  0  0  0  0  0  0  0  0  0  0  0
    0.4635    1.3848   -0.3861 C   0  0  0  0  0  0  0  0  0  0  0  0
   -0.1420   -1.0782   -0.5596 C   0  0  0  0  0  0  0  0  0  0  0  0
   -0.5956    0.3232   -0.2437 C   0  0  0  0  0  0  0  0  0  0  0  0
   -1.8450    0.6023    0.1550 C   0  0  0  0  0  0  0  0  0  0  0  0
   -2.9174   -0.4210    0.3070 C   0  0  0  0  0  0  0  0  0  0  0  0
    2.5741   -0.4051   -0.9645 H   0  0  0  0  0  0  0  0  0  0  0  0
    3.0652   -0.6441    0.7116 H   0  0  0  0  0  0  0  0  0  0  0  0
    2.5056    1.7451    0.2172 H   0  0  0  0  0  0  0  0  0  0  0  0
    1.4903    1.0674    1.4879 H   0  0  0  0  0  0  0  0  0  0  0  0
    0.8543   -1.5234    1.3050 H   0  0  0  0  0  0  0  0  0  0  0  0
    1.4839   -2.4159   -0.0780 H   0  0  0  0  0  0  0  0  0  0  0  0
    0.7232    1.4857   -1.4473 H   0  0  0  0  0  0  0  0  0  0  0  0
    0.0993    2.3640   -0.0540 H   0  0  0  0  0  0  0  0  0  0  0  0
   -0.9015   -1.8389   -0.3579 H   0  0  0  0  0  0  0  0  0  0  0  0
    0.0817   -1.1390   -1.6322 H   0  0  0  0  0  0  0  0  0  0  0  0
   -2.1144    1.6284    0.3916 H   0  0  0  0  0  0  0  0  0  0  0  0
   -2.7763   -1.0003    1.2244 H   0  0  0  0  0  0  0  0  0  0  0  0
   -2.9762   -1.0932   -0.5541 H   0  0  0  0  0  0  0  0  0  0  0  0
   -3.8890    0.0801    0.3786 H   0  0  0  0  0  0  0  0  0  0  0  0
  1  2  1  0  0  0  0
  1  3  1  0  0  0  0
  1  9  1  0  0  0  0
  1 10  1  0  0  0  0
  2  4  1  0  0  0  0
  2 11  1  0  0  0  0
  2 12  1  0  0  0  0
  3  5  1  0  0  0  0
  3 13  1  0  0  0  0
  3 14  1  0  0  0  0
  4  6  1  0  0  0  0
  4 15  1  0  0  0  0
  4 16  1  0  0  0  0
  5  6  1  0  0  0  0
  5 17  1  0  0  0  0
  5 18  1  0  0  0  0
  6  7  2  0  0  0  0
  7  8  1  0  0  0  0
  7 19  1  0  0  0  0
  8 20  1  0  0  0  0
  8 21  1  0  0  0  0
  8 22  1  0  0  0  0
M  END
> <PUBCHEM_COMPOUND_CID>
13856

> <PUBCHEM_CONFORMER_RMSD>
0.4

> <PUBCHEM_CONFORMER_DIVERSEORDER>
1
2

> <PUBCHEM_MMFF94_PARTIAL_CHARGES>
6
19 0.15
4 0.14
5 0.14
6 -0.28
7 -0.29
8 0.14

> <PUBCHEM_EFFECTIVE_ROTOR_COUNT>
1

> <PUBCHEM_PHARMACOPHORE_FEATURES>
2
1 8 hydrophobe
6 1 2 3 4 5 6 rings

> <PUBCHEM_HEAVY_ATOM_COUNT>
8

> <PUBCHEM_ATOM_DEF_STEREO_COUNT>
0

> <PUBCHEM_ATOM_UDEF_STEREO_COUNT>
0

> <PUBCHEM_BOND_DEF_STEREO_COUNT>
0

> <PUBCHEM_BOND_UDEF_STEREO_COUNT>
0

> <PUBCHEM_ISOTOPIC_ATOM_COUNT>
0

> <PUBCHEM_COMPONENT_COUNT>
1

> <PUBCHEM_CACTVS_TAUTO_COUNT>
1

> <PUBCHEM_CONFORMER_ID>
0000362000000001

> <PUBCHEM_MMFF94_ENERGY>
2.5864

> <PUBCHEM_FEATURE_SELFOVERLAP>
10.148

> <PUBCHEM_SHAPE_FINGERPRINT>
10857977 72 18342746221009378339
18185500 45 18335994077158814070
21040471 1 18265332802880062172
23235685 24 18339365149919111280
23552423 10 17986383606183893774
29004967 10 18272931652103730745
5084963 1 18408038502821828673

> <PUBCHEM_SHAPE_MULTIPOLES>
164.64
3.31
1.49
0.73
1.75
0.05
-0.02
0.23
0.6
-0.48
-0.05
-0.01
0.01
0.02

> <PUBCHEM_SHAPE_SELFOVERLAP>
316.666

> <PUBCHEM_SHAPE_VOLUME>
99.2

> <PUBCHEM_COORDINATE_TYPE>
2
5
10

$$$$

