17396146
  -OEChem-06241222542D

 39 41  0     1  0  0  0  0  0999 V2000
    5.3147    0.3851    0.0000 O   0  0  0  0  0  0  0  0  0  0  0  0
   11.4571    0.6898    0.0000 O   0  0  0  0  0  0  0  0  0  0  0  0
   11.4571   -0.9197    0.0000 O   0  0  0  0  0  0  0  0  0  0  0  0
    2.5000   -0.8174    0.0000 O   0  0  0  0  0  0  0  0  0  0  0  0
    7.0468   -0.6149    0.0000 O   0  0  0  0  0  0  0  0  0  0  0  0
    4.4487    1.8850    0.0000 O   0  0  0  0  0  0  0  0  0  0  0  0
    7.9128    0.8851    0.0000 N   0  0  0  0  0  0  0  0  0  0  0  0
    2.0000    0.0486    0.0000 N   0  0  0  0  0  0  0  0  0  0  0  0
    4.2213   -1.2786    0.0000 N   0  0  0  0  0  0  0  0  0  0  0  0
    6.1808    0.8851    0.0000 C   0  0  3  0  0  0  0  0  0  0  0  0
    8.7788    0.3851    0.0000 C   0  0  0  0  0  0  0  0  0  0  0  0
   10.5109    0.3851    0.0000 C   0  0  0  0  0  0  0  0  0  0  0  0
   10.5109   -0.6149    0.0000 C   0  0  0  0  0  0  0  0  0  0  0  0
    9.6448    0.8851    0.0000 C   0  0  0  0  0  0  0  0  0  0  0  0
    7.0468    0.3851    0.0000 C   0  0  0  0  0  0  0  0  0  0  0  0
    8.7788   -0.6149    0.0000 C   0  0  0  0  0  0  0  0  0  0  0  0
    9.6448   -1.1150    0.0000 C   0  0  0  0  0  0  0  0  0  0  0  0
    6.1808    1.8850    0.0000 C   0  0  0  0  0  0  0  0  0  0  0  0
   12.0407   -0.1149    0.0000 C   0  0  0  0  0  0  0  0  0  0  0  0
    3.5827    0.3851    0.0000 C   0  0  0  0  0  0  0  0  0  0  0  0
    4.4487    0.8851    0.0000 C   0  0  0  0  0  0  0  0  0  0  0  0
    2.6691    0.7918    0.0000 C   0  0  0  0  0  0  0  0  0  0  0  0
    3.4782   -0.6095    0.0000 C   0  0  0  0  0  0  0  0  0  0  0  0
    2.4612    1.7699    0.0000 C   0  0  0  0  0  0  0  0  0  0  0  0
    6.1808    0.2651    0.0000 H   0  0  0  0  0  0  0  0  0  0  0  0
    9.6448    1.5050    0.0000 H   0  0  0  0  0  0  0  0  0  0  0  0
    7.9128    1.5050    0.0000 H   0  0  0  0  0  0  0  0  0  0  0  0
    8.2419   -0.9249    0.0000 H   0  0  0  0  0  0  0  0  0  0  0  0
    9.6448   -1.7350    0.0000 H   0  0  0  0  0  0  0  0  0  0  0  0
    6.8008    1.8850    0.0000 H   0  0  0  0  0  0  0  0  0  0  0  0
    6.1808    2.5051    0.0000 H   0  0  0  0  0  0  0  0  0  0  0  0
    5.5608    1.8850    0.0000 H   0  0  0  0  0  0  0  0  0  0  0  0
   12.5016   -0.5297    0.0000 H   0  0  0  0  0  0  0  0  0  0  0  0
   12.5016    0.2998    0.0000 H   0  0  0  0  0  0  0  0  0  0  0  0
    3.0677    1.8988    0.0000 H   0  0  0  0  0  0  0  0  0  0  0  0
    2.3323    2.3764    0.0000 H   0  0  0  0  0  0  0  0  0  0  0  0
    1.8548    1.6410    0.0000 H   0  0  0  0  0  0  0  0  0  0  0  0
    4.0924   -1.8850    0.0000 H   0  0  0  0  0  0  0  0  0  0  0  0
    4.8110   -1.0870    0.0000 H   0  0  0  0  0  0  0  0  0  0  0  0
  1 10  1  0  0  0  0
  1 21  1  0  0  0  0
  2 12  1  0  0  0  0
  2 19  1  0  0  0  0
  3 13  1  0  0  0  0
  3 19  1  0  0  0  0
  4  8  1  0  0  0  0
  4 23  1  0  0  0  0
  5 15  2  0  0  0  0
  6 21  2  0  0  0  0
  7 11  1  0  0  0  0
  7 15  1  0  0  0  0
  7 27  1  0  0  0  0
  8 22  2  0  0  0  0
  9 23  1  0  0  0  0
  9 38  1  0  0  0  0
  9 39  1  0  0  0  0
 10 15  1  0  0  0  0
 10 18  1  0  0  0  0
 10 25  1  0  0  0  0
 11 14  2  0  0  0  0
 11 16  1  0  0  0  0
 12 13  2  0  0  0  0
 12 14  1  0  0  0  0
 13 17  1  0  0  0  0
 14 26  1  0  0  0  0
 16 17  2  0  0  0  0
 16 28  1  0  0  0  0
 17 29  1  0  0  0  0
 18 30  1  0  0  0  0
 18 31  1  0  0  0  0
 18 32  1  0  0  0  0
 19 33  1  0  0  0  0
 19 34  1  0  0  0  0
 20 21  1  0  0  0  0
 20 22  1  0  0  0  0
 20 23  2  0  0  0  0
 22 24  1  0  0  0  0
 24 35  1  0  0  0  0
 24 36  1  0  0  0  0
 24 37  1  0  0  0  0
M  END
> <PUBCHEM_COMPOUND_CID>
17396146

> <PUBCHEM_COMPOUND_CANONICALIZED>
1

> <PUBCHEM_CACTVS_COMPLEXITY>
490

> <PUBCHEM_CACTVS_HBOND_ACCEPTOR>
8

> <PUBCHEM_CACTVS_HBOND_DONOR>
2

> <PUBCHEM_CACTVS_ROTATABLE_BOND>
5

> <PUBCHEM_CACTVS_SUBSKEYS>
AAADccBzOAAAAAAAAAAAAAAAAAAAAWJAAAAwAAAAAAAAAEgBwAAAHgAUAAAADByhngMyzpLQBACpAyXyWgKCCAAlIgAomCF27NsfJz7M8d+nNepn9Bne6UewUAMIAEAAAgAAQAAAgAAEAACAAAAAAAAAAA==

> <PUBCHEM_IUPAC_OPENEYE_NAME>
[2-(1,3-benzodioxol-5-ylamino)-1-methyl-2-oxo-ethyl] 5-amino-3-methyl-isoxazole-4-carboxylate

> <PUBCHEM_IUPAC_CAS_NAME>
5-amino-3-methyl-4-isoxazolecarboxylic acid [1-(1,3-benzodioxol-5-ylamino)-1-oxopropan-2-yl] ester

> <PUBCHEM_IUPAC_NAME>
[1-(1,3-benzodioxol-5-ylamino)-1-oxopropan-2-yl] 5-amino-3-methyl-1,2-oxazole-4-carboxylate

> <PUBCHEM_IUPAC_SYSTEMATIC_NAME>
[1-(1,3-benzodioxol-5-ylamino)-1-oxidanylidene-propan-2-yl] 5-azanyl-3-methyl-1,2-oxazole-4-carboxylate

> <PUBCHEM_IUPAC_TRADITIONAL_NAME>
5-amino-3-methyl-isoxazole-4-carboxylic acid [2-(1,3-benzodioxol-5-ylamino)-2-keto-1-methyl-ethyl] ester

> <PUBCHEM_IUPAC_INCHI>
InChI=1S/C15H15N3O6/c1-7-12(13(16)24-18-7)15(20)23-8(2)14(19)17-9-3-4-10-11(5-9)22-6-21-10/h3-5,8H,6,16H2,1-2H3,(H,17,19)

> <PUBCHEM_IUPAC_INCHIKEY>
YPNWJVHOBWPSLT-UHFFFAOYSA-N

> <PUBCHEM_XLOGP3_AA>
1.9

> <PUBCHEM_EXACT_MASS>
333.096085

> <PUBCHEM_MOLECULAR_FORMULA>
C15H15N3O6

> <PUBCHEM_MOLECULAR_WEIGHT>
333.2961

> <PUBCHEM_OPENEYE_CAN_SMILES>
CC1=NOC(=C1C(=O)OC(C)C(=O)NC2=CC3=C(C=C2)OCO3)N

> <PUBCHEM_OPENEYE_ISO_SMILES>
CC1=NOC(=C1C(=O)OC(C)C(=O)NC2=CC3=C(C=C2)OCO3)N

> <PUBCHEM_CACTVS_TPSA>
126

> <PUBCHEM_MONOISOTOPIC_WEIGHT>
333.096085

> <PUBCHEM_TOTAL_CHARGE>
0

> <PUBCHEM_HEAVY_ATOM_COUNT>
24

> <PUBCHEM_ATOM_DEF_STEREO_COUNT>
0

> <PUBCHEM_ATOM_UDEF_STEREO_COUNT>
1

> <PUBCHEM_BOND_DEF_STEREO_COUNT>
0

> <PUBCHEM_BOND_UDEF_STEREO_COUNT>
0

> <PUBCHEM_ISOTOPIC_ATOM_COUNT>
0

> <PUBCHEM_COMPONENT_COUNT>
1

> <PUBCHEM_CACTVS_TAUTO_COUNT>
21

> <PUBCHEM_COORDINATE_TYPE>
1
5
255

> <PUBCHEM_BONDANNOTATIONS>
10  18  3
11  14  8
11  16  8
12  13  8
12  14  8
13  17  8
16  17  8
20  22  8
20  23  8
4  23  8
4  8  8
8  22  8

$$$$

