582970
  -OEChem-06241222443D

 34 35  0     0  0  0  0  0  0999 V2000
    0.0113   -2.1676   -0.3763 O   0  0  0  0  0  0  0  0  0  0  0  0
    2.5080   -1.0439   -0.1941 C   0  0  0  0  0  0  0  0  0  0  0  0
    1.2735   -0.1591   -0.0251 C   0  0  0  0  0  0  0  0  0  0  0  0
    3.8024   -0.2812   -0.0500 C   0  0  0  0  0  0  0  0  0  0  0  0
   -0.0092   -0.9610   -0.1438 C   0  0  0  0  0  0  0  0  0  0  0  0
    4.3848    0.2876   -1.1720 C   0  0  0  0  0  0  0  0  0  0  0  0
    4.3861   -0.1631    1.2015 C   0  0  0  0  0  0  0  0  0  0  0  0
   -1.2850   -0.2018   -0.0036 C   0  0  0  0  0  0  0  0  0  0  0  0
    5.5813    0.9922   -1.0390 C   0  0  0  0  0  0  0  0  0  0  0  0
    5.5825    0.5415    1.3347 C   0  0  0  0  0  0  0  0  0  0  0  0
   -3.7684   -0.1547   -0.0253 C   0  0  0  0  0  0  0  0  0  0  0  0
   -2.4633   -0.8294   -0.1191 C   0  0  0  0  0  0  0  0  0  0  0  0
    6.1801    1.1191    0.2143 C   0  0  0  0  0  0  0  0  0  0  0  0
   -3.8413    1.2153   -0.2229 C   0  0  0  0  0  0  0  0  0  0  0  0
   -4.9011   -0.9017    0.2583 C   0  0  0  0  0  0  0  0  0  0  0  0
   -5.0779    1.8546   -0.1345 C   0  0  0  0  0  0  0  0  0  0  0  0
   -6.1378   -0.2625    0.3466 C   0  0  0  0  0  0  0  0  0  0  0  0
   -6.2261    1.1157    0.1502 C   0  0  0  0  0  0  0  0  0  0  0  0
    2.4890   -1.8622    0.5385 H   0  0  0  0  0  0  0  0  0  0  0  0
    2.4860   -1.5379   -1.1750 H   0  0  0  0  0  0  0  0  0  0  0  0
    1.2871    0.3219    0.9600 H   0  0  0  0  0  0  0  0  0  0  0  0
    1.2641    0.6240   -0.7923 H   0  0  0  0  0  0  0  0  0  0  0  0
    3.9248    0.1957   -2.1518 H   0  0  0  0  0  0  0  0  0  0  0  0
    3.9272   -0.6077    2.0800 H   0  0  0  0  0  0  0  0  0  0  0  0
   -1.1825    0.8576    0.1987 H   0  0  0  0  0  0  0  0  0  0  0  0
    6.0463    1.4425   -1.9111 H   0  0  0  0  0  0  0  0  0  0  0  0
    6.0486    0.6409    2.3106 H   0  0  0  0  0  0  0  0  0  0  0  0
   -2.5011   -1.9010   -0.2989 H   0  0  0  0  0  0  0  0  0  0  0  0
    7.1116    1.6680    0.3180 H   0  0  0  0  0  0  0  0  0  0  0  0
   -2.9797    1.8277   -0.4693 H   0  0  0  0  0  0  0  0  0  0  0  0
   -4.8485   -1.9759    0.4152 H   0  0  0  0  0  0  0  0  0  0  0  0
   -5.1482    2.9269   -0.2927 H   0  0  0  0  0  0  0  0  0  0  0  0
   -7.0321   -0.8377    0.5683 H   0  0  0  0  0  0  0  0  0  0  0  0
   -7.1892    1.6132    0.2177 H   0  0  0  0  0  0  0  0  0  0  0  0
  1  5  2  0  0  0  0
  2  3  1  0  0  0  0
  2  4  1  0  0  0  0
  2 19  1  0  0  0  0
  2 20  1  0  0  0  0
  3  5  1  0  0  0  0
  3 21  1  0  0  0  0
  3 22  1  0  0  0  0
  4  6  2  0  0  0  0
  4  7  1  0  0  0  0
  5  8  1  0  0  0  0
  6  9  1  0  0  0  0
  6 23  1  0  0  0  0
  7 10  2  0  0  0  0
  7 24  1  0  0  0  0
  8 12  2  0  0  0  0
  8 25  1  0  0  0  0
  9 13  2  0  0  0  0
  9 26  1  0  0  0  0
 10 13  1  0  0  0  0
 10 27  1  0  0  0  0
 11 12  1  0  0  0  0
 11 14  2  0  0  0  0
 11 15  1  0  0  0  0
 12 28  1  0  0  0  0
 13 29  1  0  0  0  0
 14 16  1  0  0  0  0
 14 30  1  0  0  0  0
 15 17  2  0  0  0  0
 15 31  1  0  0  0  0
 16 18  2  0  0  0  0
 16 32  1  0  0  0  0
 17 18  1  0  0  0  0
 17 33  1  0  0  0  0
 18 34  1  0  0  0  0
M  END
> <PUBCHEM_COMPOUND_CID>
582970

> <PUBCHEM_CONFORMER_RMSD>
0.6

> <PUBCHEM_CONFORMER_DIVERSEORDER>
1
67
81
27
2
83
85
77
55
13
69
6
57
86
4
66
73
87
7
71
40
78
63
65
17
51
46
8
3
91
21
89
47
82
31
61
29
64
18
42
15
88
28
84
14
25
23
16
19
58
76
79
52
34
26
44
36
45
22
90
49
72
12
10
33
50
75
9
80
11
5
54
41
56
32
24
74
53
68
35
60
70
38
20
43
30
59
62
48
37
39
92

> <PUBCHEM_MMFF94_PARTIAL_CHARGES>
30
1 -0.57
10 -0.15
11 0.03
12 -0.18
13 -0.15
14 -0.15
15 -0.15
16 -0.15
17 -0.15
18 -0.15
2 0.14
23 0.15
24 0.15
25 0.15
26 0.15
27 0.15
28 0.15
29 0.15
3 0.06
30 0.15
31 0.15
32 0.15
33 0.15
34 0.15
4 -0.14
5 0.49
6 -0.15
7 -0.15
8 -0.14
9 -0.15

> <PUBCHEM_EFFECTIVE_ROTOR_COUNT>
5

> <PUBCHEM_PHARMACOPHORE_FEATURES>
3
1 1 acceptor
6 11 14 15 16 17 18 rings
6 4 6 7 9 10 13 rings

> <PUBCHEM_HEAVY_ATOM_COUNT>
18

> <PUBCHEM_ATOM_DEF_STEREO_COUNT>
0

> <PUBCHEM_ATOM_UDEF_STEREO_COUNT>
0

> <PUBCHEM_BOND_DEF_STEREO_COUNT>
0

> <PUBCHEM_BOND_UDEF_STEREO_COUNT>
1

> <PUBCHEM_ISOTOPIC_ATOM_COUNT>
0

> <PUBCHEM_COMPONENT_COUNT>
1

> <PUBCHEM_CACTVS_TAUTO_COUNT>
2

> <PUBCHEM_CONFORMER_ID>
0008E53A00000001

> <PUBCHEM_MMFF94_ENERGY>
46.5493

> <PUBCHEM_FEATURE_SELFOVERLAP>
15.223

> <PUBCHEM_SHAPE_FINGERPRINT>
10 15 18131626786211226545
10354089 29 17561082493334511412
10670039 82 18041548248276556568
10688039 33 15698287715781270788
10912923 1 17632859702616068170
11128504 68 14706930635502549498
117890 112 18341894103761183512
12236239 1 18059858359230669002
12596602 18 17275386503726563113
12616971 3 13901900081744421835
12730499 353 17748819722626285366
12916748 109 18260545636653216776
13167372 99 18201721790500846588
13288520 33 9151170957361864891
13533116 47 18041277772774465790
13668630 136 8646773304770001112
13685833 64 10375865286325763597
13785724 45 17766287853036362154
14123256 34 10015580640272200684
14251764 18 17775283837481587452
14528608 73 14345798244830595808
14933364 13 18408318895429766428
15048467 5 18410575084663208876
15348495 7 14261338129408750517
16079462 125 17749398052619722992
17857418 61 7925915863459415708
18222031 100 9223230762965429166
20281389 69 18411702101272208553
20645477 56 18259988163010100591
20645477 70 15719660031745277710
21150785 3 17531258253368828125
21623969 137 13758358881835313120
221357 26 15719390646595044744
23035841 295 8286202751733839661
23081809 10 18408611374408465399
23198884 109 15213017150887311707
23272321 79 18342174453815126357
23559900 14 9150590385142278303
249999 5 18338236093380955738
2767999 5 18408889541964770557
2916195 48 18261117352444933257
293599 30 18260830397095487374
29717793 49 5617261429352916920
300161 21 18187369830536668111
312425 54 15338835387002821417
3472631 163 18336542708435342220
34797466 226 17894622626289891436
351380 3 8862939472349195364
3545911 37 18113052731481973358
3663271 9 17489870431595243601
4340502 62 16773797008691008786
465052 167 10663817494831317616
5104073 3 18270676605928000491
542803 24 18201720651949124894
5718773 13 11239410690002104097
7062679 6 18411979174081585533
960060 61 5039947460131389418

> <PUBCHEM_SHAPE_MULTIPOLES>
364.56
18.92
1.51
0.96
1.29
0.03
-0.09
7.9
-1.96
1.06
0.15
-1.54
0.1
-0.02

> <PUBCHEM_SHAPE_SELFOVERLAP>
769.988

> <PUBCHEM_SHAPE_VOLUME>
203.4

> <PUBCHEM_COORDINATE_TYPE>
2
5
10

$$$$

