4307
  -OEChem-06261200023D

 49 50  0     0  0  0  0  0  0999 V2000
   -2.5955    3.5927    0.6355 I   0  0  0  0  0  0  0  0  0  0  0  0
    3.4044   -0.1907   -0.6705 S   0  0  0  0  0  0  0  0  0  0  0  0
    3.4386    0.1475   -2.0805 O   0  0  0  0  0  0  0  0  0  0  0  0
    4.6208   -0.1539    0.1185 O   0  0  0  0  0  0  0  0  0  0  0  0
    2.6652   -1.7088   -0.4725 N   0  0  0  0  0  0  0  0  0  0  0  0
   -6.4849   -0.3417   -0.2319 N   0  0  0  0  0  0  0  0  0  0  0  0
   -0.6128   -2.5028    0.7163 C   0  0  0  0  0  0  0  0  0  0  0  0
    0.3482   -3.4897    0.0500 C   0  0  0  0  0  0  0  0  0  0  0  0
   -1.9285   -2.3984   -0.0569 C   0  0  0  0  0  0  0  0  0  0  0  0
    1.6757   -3.5696    0.8099 C   0  0  0  0  0  0  0  0  0  0  0  0
   -2.9015   -1.4365    0.6285 C   0  0  0  0  0  0  0  0  0  0  0  0
    2.3892   -2.2241    0.8862 C   0  0  0  0  0  0  0  0  0  0  0  0
   -4.2072   -1.3110   -0.1623 C   0  0  0  0  0  0  0  0  0  0  0  0
    2.2446    0.8838    0.1200 C   0  0  0  0  0  0  0  0  0  0  0  0
   -5.2392   -0.4131    0.5220 C   0  0  0  0  0  0  0  0  0  0  0  0
    0.9776    1.1635   -0.4174 C   0  0  0  0  0  0  0  0  0  0  0  0
    0.1076    2.0361    0.2791 C   0  0  0  0  0  0  0  0  0  0  0  0
    2.6481    1.4561    1.3267 C   0  0  0  0  0  0  0  0  0  0  0  0
    0.5550    0.5970   -1.6309 C   0  0  0  0  0  0  0  0  0  0  0  0
    0.5305    2.6030    1.4924 C   0  0  0  0  0  0  0  0  0  0  0  0
    1.7927    2.3139    2.0117 C   0  0  0  0  0  0  0  0  0  0  0  0
   -1.1592    2.3162   -0.2585 C   0  0  0  0  0  0  0  0  0  0  0  0
   -0.7071    0.8863   -2.1501 C   0  0  0  0  0  0  0  0  0  0  0  0
   -1.5626    1.7443   -1.4654 C   0  0  0  0  0  0  0  0  0  0  0  0
   -0.8120   -2.8216    1.7465 H   0  0  0  0  0  0  0  0  0  0  0  0
   -0.1783   -1.5008    0.7643 H   0  0  0  0  0  0  0  0  0  0  0  0
    0.4972   -3.2278   -1.0020 H   0  0  0  0  0  0  0  0  0  0  0  0
   -0.1078   -4.4877    0.0500 H   0  0  0  0  0  0  0  0  0  0  0  0
   -1.7279   -2.0546   -1.0787 H   0  0  0  0  0  0  0  0  0  0  0  0
   -2.3888   -3.3909   -0.1345 H   0  0  0  0  0  0  0  0  0  0  0  0
    2.3214   -4.3001    0.3072 H   0  0  0  0  0  0  0  0  0  0  0  0
    1.5004   -3.9437    1.8255 H   0  0  0  0  0  0  0  0  0  0  0  0
   -3.1204   -1.7983    1.6405 H   0  0  0  0  0  0  0  0  0  0  0  0
   -2.4399   -0.4484    0.7334 H   0  0  0  0  0  0  0  0  0  0  0  0
    3.3458   -2.3619    1.4029 H   0  0  0  0  0  0  0  0  0  0  0  0
    1.8099   -1.5055    1.4692 H   0  0  0  0  0  0  0  0  0  0  0  0
   -3.9857   -0.9168   -1.1624 H   0  0  0  0  0  0  0  0  0  0  0  0
   -4.6380   -2.3106   -0.3040 H   0  0  0  0  0  0  0  0  0  0  0  0
    2.1144   -2.0816   -1.2520 H   0  0  0  0  0  0  0  0  0  0  0  0
   -5.4567   -0.7976    1.5244 H   0  0  0  0  0  0  0  0  0  0  0  0
   -4.8315    0.5967    0.6396 H   0  0  0  0  0  0  0  0  0  0  0  0
    3.6189    1.2560    1.7695 H   0  0  0  0  0  0  0  0  0  0  0  0
    1.1436   -0.1058   -2.2064 H   0  0  0  0  0  0  0  0  0  0  0  0
   -0.0879    3.2782    2.0745 H   0  0  0  0  0  0  0  0  0  0  0  0
    2.1072    2.7580    2.9518 H   0  0  0  0  0  0  0  0  0  0  0  0
   -6.3022    0.0383   -1.1598 H   0  0  0  0  0  0  0  0  0  0  0  0
   -7.1201    0.3112    0.2250 H   0  0  0  0  0  0  0  0  0  0  0  0
   -1.0265    0.4338   -3.0846 H   0  0  0  0  0  0  0  0  0  0  0  0
   -2.5410    1.9460   -1.8944 H   0  0  0  0  0  0  0  0  0  0  0  0
  1 22  1  0  0  0  0
  2  3  2  0  0  0  0
  2  4  2  0  0  0  0
  2  5  1  0  0  0  0
  2 14  1  0  0  0  0
  5 12  1  0  0  0  0
  5 39  1  0  0  0  0
  6 15  1  0  0  0  0
  6 46  1  0  0  0  0
  6 47  1  0  0  0  0
  7  8  1  0  0  0  0
  7  9  1  0  0  0  0
  7 25  1  0  0  0  0
  7 26  1  0  0  0  0
  8 10  1  0  0  0  0
  8 27  1  0  0  0  0
  8 28  1  0  0  0  0
  9 11  1  0  0  0  0
  9 29  1  0  0  0  0
  9 30  1  0  0  0  0
 10 12  1  0  0  0  0
 10 31  1  0  0  0  0
 10 32  1  0  0  0  0
 11 13  1  0  0  0  0
 11 33  1  0  0  0  0
 11 34  1  0  0  0  0
 12 35  1  0  0  0  0
 12 36  1  0  0  0  0
 13 15  1  0  0  0  0
 13 37  1  0  0  0  0
 13 38  1  0  0  0  0
 14 16  1  0  0  0  0
 14 18  2  0  0  0  0
 15 40  1  0  0  0  0
 15 41  1  0  0  0  0
 16 17  2  0  0  0  0
 16 19  1  0  0  0  0
 17 20  1  0  0  0  0
 17 22  1  0  0  0  0
 18 21  1  0  0  0  0
 18 42  1  0  0  0  0
 19 23  2  0  0  0  0
 19 43  1  0  0  0  0
 20 21  2  0  0  0  0
 20 44  1  0  0  0  0
 21 45  1  0  0  0  0
 22 24  2  0  0  0  0
 23 24  1  0  0  0  0
 23 48  1  0  0  0  0
 24 49  1  0  0  0  0
M  END
> <PUBCHEM_COMPOUND_CID>
4307

> <PUBCHEM_CONFORMER_RMSD>
1

> <PUBCHEM_CONFORMER_DIVERSEORDER>
5
83
253
148
211
195
22
117
223
6
201
168
193
177
123
53
165
206
3
277
216
246
162
271
196
85
237
166
208
65
200
8
227
122
120
263
192
252
26
78
4
37
15
257
2
255
187
155
194
199
115
116
197
225
205
224
30
275
191
190
236
51
93
106
254
260
256
42
94
231
126
121
217
238
19
13
104
109
262
7
107
87
112
235
88
185
17
45
226
267
113
232
270
41
35
276
129
210
27
12
149
54
89
184
131
25
119
214
90
58
33
167
40
79
266
10
169
209
70
258
14
125
241
156
173
249
222
24
71
274
203
188
251
161
202
189
170
215
259
137
18
57
44
244
239
213
242
103
163
181
151
142
68
130
207
174
50
31
81
265
143
49
11
272
264
171
21
240
97
110
273
133
16
46
64
152
261
56
212
60
135
268
144
47
108
32
204
157
23
38
92
245
182
198
34
101
140
278
77
39
138
67
1
150
61
141
114
111
80
233
164
146
69
20
229
221
86
230
128
219
73
99
134
100
139
247
62
91
218
74
28
84
228
269
29
220
180
183
179
98
55
154
160
9
96
145
147
124
153
76
48
243
250
159
234
82
172
43
176
63
158
186
178
59
127
36
66
95
248
136
75
175
102
132
105
72
52
118

> <PUBCHEM_MMFF94_PARTIAL_CHARGES>
25
1 -0.08
12 0.36
14 -0.01
15 0.27
18 -0.15
19 -0.15
2 1.45
20 -0.15
21 -0.15
22 0.08
23 -0.15
24 -0.15
3 -0.65
39 0.42
4 -0.65
42 0.15
43 0.15
44 0.15
45 0.15
46 0.36
47 0.36
48 0.15
49 0.15
5 -0.91
6 -0.99

> <PUBCHEM_EFFECTIVE_ROTOR_COUNT>
10

> <PUBCHEM_PHARMACOPHORE_FEATURES>
10
1 1 hydrophobe
1 3 acceptor
1 4 acceptor
1 5 donor
1 6 cation
1 6 donor
3 7 8 10 hydrophobe
3 9 11 13 hydrophobe
6 14 16 17 18 20 21 rings
6 16 17 19 22 23 24 rings

> <PUBCHEM_HEAVY_ATOM_COUNT>
24

> <PUBCHEM_ATOM_DEF_STEREO_COUNT>
0

> <PUBCHEM_ATOM_UDEF_STEREO_COUNT>
0

> <PUBCHEM_BOND_DEF_STEREO_COUNT>
0

> <PUBCHEM_BOND_UDEF_STEREO_COUNT>
0

> <PUBCHEM_ISOTOPIC_ATOM_COUNT>
0

> <PUBCHEM_COMPONENT_COUNT>
1

> <PUBCHEM_CACTVS_TAUTO_COUNT>
1

> <PUBCHEM_CONFORMER_ID>
000010D300000005

> <PUBCHEM_MMFF94_ENERGY>
33.3772

> <PUBCHEM_FEATURE_SELFOVERLAP>
50.787

> <PUBCHEM_SHAPE_FINGERPRINT>
104564 63 18341319076370606630
11370993 70 17829620456775893331
12633257 1 18048901618285349664
12788726 201 18337933637219225500
13140716 1 18196096534199214738
13402501 40 18412265016945168611
13583140 156 18190190168352177901
14178342 30 18268440190523774992
15210252 30 17845364462326131285
17093844 170 18342177721931849728
19930381 70 15961458387969120065
20600515 1 17910957946290323492
20775438 99 8425588781543831651
20905425 154 18339358690204155663
21330990 113 18342177765198222041
23419403 2 18055660501467173727
3014063 31 18410576210435257451
513532 50 18187364290530120367
7097593 13 13436629062365955083

> <PUBCHEM_SHAPE_MULTIPOLES>
487.99
7.91
4.76
1.67
9.17
1.32
-0.48
2.64
0.06
0.99
1.97
-0.79
-0.93
0.2

> <PUBCHEM_SHAPE_SELFOVERLAP>
967.698

> <PUBCHEM_SHAPE_VOLUME>
292.7

> <PUBCHEM_COORDINATE_TYPE>
2
5
10

$$$$

