8317
  -OEChem-06261202442D

 52 60  0     0  0  0  0  0  0999 V2000
    5.6168    4.0060    0.0000 O   0  0  0  0  0  0  0  0  0  0  0  0
    5.6168   -4.0060    0.0000 O   0  0  0  0  0  0  0  0  0  0  0  0
    3.7862   -1.0000    0.0000 C   0  0  0  0  0  0  0  0  0  0  0  0
    3.7862    1.0000    0.0000 C   0  0  0  0  0  0  0  0  0  0  0  0
    2.9201   -0.5000    0.0000 C   0  0  0  0  0  0  0  0  0  0  0  0
    2.9201    0.5000    0.0000 C   0  0  0  0  0  0  0  0  0  0  0  0
    4.6522   -0.5000    0.0000 C   0  0  0  0  0  0  0  0  0  0  0  0
    4.6522    0.5000    0.0000 C   0  0  0  0  0  0  0  0  0  0  0  0
    3.8022   -2.0415    0.0000 C   0  0  0  0  0  0  0  0  0  0  0  0
    3.8022    2.0415    0.0000 C   0  0  0  0  0  0  0  0  0  0  0  0
    2.9042    2.5693    0.0000 C   0  0  0  0  0  0  0  0  0  0  0  0
    2.9042   -2.5693    0.0000 C   0  0  0  0  0  0  0  0  0  0  0  0
    4.6793    2.5043    0.0000 C   0  0  0  0  0  0  0  0  0  0  0  0
    4.6793   -2.5043    0.0000 C   0  0  0  0  0  0  0  0  0  0  0  0
    2.0101    1.0068    0.0000 C   0  0  0  0  0  0  0  0  0  0  0  0
    2.0101   -1.0068    0.0000 C   0  0  0  0  0  0  0  0  0  0  0  0
    5.5116    0.9948    0.0000 C   0  0  0  0  0  0  0  0  0  0  0  0
    5.5116   -0.9948    0.0000 C   0  0  0  0  0  0  0  0  0  0  0  0
    2.9302    3.6107    0.0000 C   0  0  0  0  0  0  0  0  0  0  0  0
    2.9302   -3.6107    0.0000 C   0  0  0  0  0  0  0  0  0  0  0  0
    2.0021   -2.0484    0.0000 C   0  0  0  0  0  0  0  0  0  0  0  0
    2.0021    2.0484    0.0000 C   0  0  0  0  0  0  0  0  0  0  0  0
    5.5251   -1.9864    0.0000 C   0  0  0  0  0  0  0  0  0  0  0  0
    5.5251    1.9864    0.0000 C   0  0  0  0  0  0  0  0  0  0  0  0
    4.7295    3.5449    0.0000 C   0  0  0  0  0  0  0  0  0  0  0  0
    4.7295   -3.5449    0.0000 C   0  0  0  0  0  0  0  0  0  0  0  0
    3.8491    4.1018    0.0000 C   0  0  0  0  0  0  0  0  0  0  0  0
    3.8491   -4.1018    0.0000 C   0  0  0  0  0  0  0  0  0  0  0  0
    2.0000    4.1695    0.0000 C   0  0  0  0  0  0  0  0  0  0  0  0
    2.0000   -4.1695    0.0000 C   0  0  0  0  0  0  0  0  0  0  0  0
    3.9013    5.1858    0.0000 C   0  0  0  0  0  0  0  0  0  0  0  0
    3.9013   -5.1858    0.0000 C   0  0  0  0  0  0  0  0  0  0  0  0
    2.0272    5.2544    0.0000 C   0  0  0  0  0  0  0  0  0  0  0  0
    2.0272   -5.2544    0.0000 C   0  0  0  0  0  0  0  0  0  0  0  0
    2.9842    5.7659    0.0000 C   0  0  0  0  0  0  0  0  0  0  0  0
    2.9842   -5.7659    0.0000 C   0  0  0  0  0  0  0  0  0  0  0  0
    1.4768   -0.6907    0.0000 H   0  0  0  0  0  0  0  0  0  0  0  0
    1.4768    0.6907    0.0000 H   0  0  0  0  0  0  0  0  0  0  0  0
    6.0463   -0.6808    0.0000 H   0  0  0  0  0  0  0  0  0  0  0  0
    6.0463    0.6808    0.0000 H   0  0  0  0  0  0  0  0  0  0  0  0
    1.4640   -2.3564    0.0000 H   0  0  0  0  0  0  0  0  0  0  0  0
    1.4640    2.3564    0.0000 H   0  0  0  0  0  0  0  0  0  0  0  0
    6.0680    2.2858    0.0000 H   0  0  0  0  0  0  0  0  0  0  0  0
    6.0680   -2.2858    0.0000 H   0  0  0  0  0  0  0  0  0  0  0  0
    1.4566   -3.8710    0.0000 H   0  0  0  0  0  0  0  0  0  0  0  0
    1.4566    3.8710    0.0000 H   0  0  0  0  0  0  0  0  0  0  0  0
    4.4514   -5.4717    0.0000 H   0  0  0  0  0  0  0  0  0  0  0  0
    4.4514    5.4717    0.0000 H   0  0  0  0  0  0  0  0  0  0  0  0
    1.4994    5.5798    0.0000 H   0  0  0  0  0  0  0  0  0  0  0  0
    1.4994   -5.5798    0.0000 H   0  0  0  0  0  0  0  0  0  0  0  0
    3.0069   -6.3855    0.0000 H   0  0  0  0  0  0  0  0  0  0  0  0
    3.0069    6.3855    0.0000 H   0  0  0  0  0  0  0  0  0  0  0  0
  1 25  2  0  0  0  0
  2 26  2  0  0  0  0
  3  5  2  0  0  0  0
  3  7  1  0  0  0  0
  3  9  1  0  0  0  0
  4  6  2  0  0  0  0
  4  8  1  0  0  0  0
  4 10  1  0  0  0  0
  5  6  1  0  0  0  0
  5 16  1  0  0  0  0
  6 15  1  0  0  0  0
  7  8  1  0  0  0  0
  7 18  2  0  0  0  0
  8 17  2  0  0  0  0
  9 12  2  0  0  0  0
  9 14  1  0  0  0  0
 10 11  2  0  0  0  0
 10 13  1  0  0  0  0
 11 19  1  0  0  0  0
 11 22  1  0  0  0  0
 12 20  1  0  0  0  0
 12 21  1  0  0  0  0
 13 24  2  0  0  0  0
 13 25  1  0  0  0  0
 14 23  2  0  0  0  0
 14 26  1  0  0  0  0
 15 22  2  0  0  0  0
 15 38  1  0  0  0  0
 16 21  2  0  0  0  0
 16 37  1  0  0  0  0
 17 24  1  0  0  0  0
 17 40  1  0  0  0  0
 18 23  1  0  0  0  0
 18 39  1  0  0  0  0
 19 27  1  0  0  0  0
 19 29  2  0  0  0  0
 20 28  1  0  0  0  0
 20 30  2  0  0  0  0
 21 41  1  0  0  0  0
 22 42  1  0  0  0  0
 23 44  1  0  0  0  0
 24 43  1  0  0  0  0
 25 27  1  0  0  0  0
 26 28  1  0  0  0  0
 27 31  2  0  0  0  0
 28 32  2  0  0  0  0
 29 33  1  0  0  0  0
 29 46  1  0  0  0  0
 30 34  1  0  0  0  0
 30 45  1  0  0  0  0
 31 35  1  0  0  0  0
 31 48  1  0  0  0  0
 32 36  1  0  0  0  0
 32 47  1  0  0  0  0
 33 35  2  0  0  0  0
 33 49  1  0  0  0  0
 34 36  2  0  0  0  0
 34 50  1  0  0  0  0
 35 52  1  0  0  0  0
 36 51  1  0  0  0  0
M  END
> <PUBCHEM_COMPOUND_CID>
8317

> <PUBCHEM_COMPOUND_CANONICALIZED>
1

> <PUBCHEM_CACTVS_COMPLEXITY>
877

> <PUBCHEM_CACTVS_HBOND_ACCEPTOR>
2

> <PUBCHEM_CACTVS_HBOND_DONOR>
0

> <PUBCHEM_CACTVS_ROTATABLE_BOND>
0

> <PUBCHEM_CACTVS_SUBSKEYS>
AAADceB8MAAAAAAAAAAAAAAAAAAAAAAAAAAwYMGDAAAAAADBVAAAGgAAAAAADASAmAAwAMAAAACIAqBSAAACAAAkAAAIiAEAAMgIIDKAFRCAIQAggAAIiYcIiMCOwAACAAAQAACAAAQAACAAAAAAAAAAAA==

> <PUBCHEM_IUPAC_TRADITIONAL_NAME>
violanthrone

> <PUBCHEM_IUPAC_INCHI>
InChI=1S/C34H16O2/c35-33-25-7-3-1-5-17(25)19-9-11-21-22-12-10-20-18-6-2-4-8-26(18)34(36)28-16-14-24(30(22)32(20)28)23-13-15-27(33)31(19)29(21)23/h1-16H

> <PUBCHEM_IUPAC_INCHIKEY>
YKSGNOMLAIJTLT-UHFFFAOYSA-N

> <PUBCHEM_XLOGP3_AA>
8

> <PUBCHEM_EXACT_MASS>
456.11503

> <PUBCHEM_MOLECULAR_FORMULA>
C34H16O2

> <PUBCHEM_MOLECULAR_WEIGHT>
456.48964

> <PUBCHEM_OPENEYE_CAN_SMILES>
C1=CC=C2C(=C1)C3=C4C(=CC=C5C4=C(C=C3)C6=C7C5=CC=C8C7=C(C=C6)C9=CC=CC=C9C8=O)C2=O

> <PUBCHEM_OPENEYE_ISO_SMILES>
C1=CC=C2C(=C1)C3=C4C(=CC=C5C4=C(C=C3)C6=C7C5=CC=C8C7=C(C=C6)C9=CC=CC=C9C8=O)C2=O

> <PUBCHEM_CACTVS_TPSA>
34.1

> <PUBCHEM_MONOISOTOPIC_WEIGHT>
456.11503

> <PUBCHEM_TOTAL_CHARGE>
0

> <PUBCHEM_HEAVY_ATOM_COUNT>
36

> <PUBCHEM_ATOM_DEF_STEREO_COUNT>
0

> <PUBCHEM_ATOM_UDEF_STEREO_COUNT>
0

> <PUBCHEM_BOND_DEF_STEREO_COUNT>
0

> <PUBCHEM_BOND_UDEF_STEREO_COUNT>
0

> <PUBCHEM_ISOTOPIC_ATOM_COUNT>
0

> <PUBCHEM_COMPONENT_COUNT>
1

> <PUBCHEM_CACTVS_TAUTO_COUNT>
1

> <PUBCHEM_COORDINATE_TYPE>
1
5
255

> <PUBCHEM_BONDANNOTATIONS>
10  11  8
10  13  8
11  22  8
12  21  8
13  24  8
14  23  8
15  22  8
16  21  8
17  24  8
18  23  8
19  27  8
19  29  8
20  28  8
20  30  8
27  31  8
28  32  8
29  33  8
3  5  8
3  7  8
3  9  8
30  34  8
31  35  8
32  36  8
33  35  8
34  36  8
4  10  8
4  6  8
4  8  8
5  16  8
5  6  8
6  15  8
7  18  8
7  8  8
8  17  8
9  12  8
9  14  8

$$$$

