11423
  -OEChem-06261205393D

 17 17  0     0  0  0  0  0  0999 V2000
    3.3750   -0.4196    0.0000 Br  0  0  0  0  0  0  0  0  0  0  0  0
   -2.5848    0.8421   -0.0001 N   0  0  0  0  0  0  0  0  0  0  0  0
   -0.7704   -0.7900   -0.0001 C   0  0  0  0  0  0  0  0  0  0  0  0
   -1.2064    0.5350    0.0000 C   0  0  0  0  0  0  0  0  0  0  0  0
    0.5951   -1.0749   -0.0001 C   0  0  0  0  0  0  0  0  0  0  0  0
   -0.2771    1.5751    0.0001 C   0  0  0  0  0  0  0  0  0  0  0  0
   -1.7442   -1.9232    0.0001 C   0  0  0  0  0  0  0  0  0  0  0  0
    1.5246   -0.0347    0.0000 C   0  0  0  0  0  0  0  0  0  0  0  0
    1.0883    1.2903    0.0000 C   0  0  0  0  0  0  0  0  0  0  0  0
    0.9363   -2.1077   -0.0001 H   0  0  0  0  0  0  0  0  0  0  0  0
   -0.6034    2.6121    0.0002 H   0  0  0  0  0  0  0  0  0  0  0  0
   -1.2384   -2.8951   -0.0006 H   0  0  0  0  0  0  0  0  0  0  0  0
   -2.3749   -1.8878    0.8947 H   0  0  0  0  0  0  0  0  0  0  0  0
   -2.3760   -1.8871   -0.8936 H   0  0  0  0  0  0  0  0  0  0  0  0
    1.7995    2.1124    0.0001 H   0  0  0  0  0  0  0  0  0  0  0  0
   -2.8816    1.8093   -0.0004 H   0  0  0  0  0  0  0  0  0  0  0  0
   -3.2815    0.1105   -0.0010 H   0  0  0  0  0  0  0  0  0  0  0  0
  1  8  1  0  0  0  0
  2  4  1  0  0  0  0
  2 16  1  0  0  0  0
  2 17  1  0  0  0  0
  3  4  2  0  0  0  0
  3  5  1  0  0  0  0
  3  7  1  0  0  0  0
  4  6  1  0  0  0  0
  5  8  2  0  0  0  0
  5 10  1  0  0  0  0
  6  9  2  0  0  0  0
  6 11  1  0  0  0  0
  7 12  1  0  0  0  0
  7 13  1  0  0  0  0
  7 14  1  0  0  0  0
  8  9  1  0  0  0  0
  9 15  1  0  0  0  0
M  END
> <PUBCHEM_COMPOUND_CID>
11423

> <PUBCHEM_CONFORMER_RMSD>
0.4

> <PUBCHEM_CONFORMER_DIVERSEORDER>
1

> <PUBCHEM_MMFF94_PARTIAL_CHARGES>
14
1 -0.11
10 0.15
11 0.15
15 0.15
16 0.4
17 0.4
2 -0.9
3 -0.14
4 0.1
5 -0.15
6 -0.15
7 0.14
8 0.11
9 -0.15

> <PUBCHEM_EFFECTIVE_ROTOR_COUNT>
0

> <PUBCHEM_PHARMACOPHORE_FEATURES>
4
1 1 hydrophobe
1 2 cation
1 2 donor
6 3 4 5 6 8 9 rings

> <PUBCHEM_HEAVY_ATOM_COUNT>
9

> <PUBCHEM_ATOM_DEF_STEREO_COUNT>
0

> <PUBCHEM_ATOM_UDEF_STEREO_COUNT>
0

> <PUBCHEM_BOND_DEF_STEREO_COUNT>
0

> <PUBCHEM_BOND_UDEF_STEREO_COUNT>
0

> <PUBCHEM_ISOTOPIC_ATOM_COUNT>
0

> <PUBCHEM_COMPONENT_COUNT>
1

> <PUBCHEM_CACTVS_TAUTO_COUNT>
1

> <PUBCHEM_CONFORMER_ID>
00002C9F00000001

> <PUBCHEM_MMFF94_ENERGY>
31.1296

> <PUBCHEM_FEATURE_SELFOVERLAP>
20.297

> <PUBCHEM_SHAPE_FINGERPRINT>
12423570 1 6903694560292647490
14128692 85 18340199675091810572
15310529 11 16630247021168177968
16945 1 18410855511831416580
18185500 45 18413673508535737722
193761 8 18122624955148790021
20871998 184 18187363203518207566
21040471 1 18338517555113126341
23235685 24 18336834207084908544
23402655 69 17977966888430771725
23552423 10 18200875050577671068
2748010 2 18266182733868603388
369184 2 18412548738563918658
5084963 1 18116147775204716834

> <PUBCHEM_SHAPE_MULTIPOLES>
186.18
3.77
1.8
0.62
2.29
0.14
0
0.64
0
-0.79
0
0.08
0.01
0

> <PUBCHEM_SHAPE_SELFOVERLAP>
370.391

> <PUBCHEM_SHAPE_VOLUME>
114.8

> <PUBCHEM_COORDINATE_TYPE>
2
5
10

$$$$

