11941
  -OEChem-06261206183D

 28 29  0     0  0  0  0  0  0999 V2000
    0.7235    0.0004    0.0003 C   0  0  0  0  0  0  0  0  0  0  0  0
   -0.7235    0.0004   -0.0002 C   0  0  0  0  0  0  0  0  0  0  0  0
    1.4210    1.1670    0.3131 C   0  0  0  0  0  0  0  0  0  0  0  0
   -1.4210    1.1670   -0.3131 C   0  0  0  0  0  0  0  0  0  0  0  0
    1.4207   -1.1666   -0.3128 C   0  0  0  0  0  0  0  0  0  0  0  0
   -1.4207   -1.1666    0.3128 C   0  0  0  0  0  0  0  0  0  0  0  0
    3.5132   -0.0001   -0.0002 C   0  0  0  0  0  0  0  0  0  0  0  0
   -3.5133    0.0000    0.0001 C   0  0  0  0  0  0  0  0  0  0  0  0
    2.8158    1.1668    0.3128 C   0  0  0  0  0  0  0  0  0  0  0  0
   -2.8158    1.1668   -0.3129 C   0  0  0  0  0  0  0  0  0  0  0  0
    2.8156   -1.1669   -0.3130 C   0  0  0  0  0  0  0  0  0  0  0  0
   -2.8156   -1.1668    0.3130 C   0  0  0  0  0  0  0  0  0  0  0  0
    5.0046   -0.0007    0.0000 C   0  0  0  0  0  0  0  0  0  0  0  0
   -5.0046   -0.0008    0.0000 C   0  0  0  0  0  0  0  0  0  0  0  0
    0.9217    2.0904    0.5932 H   0  0  0  0  0  0  0  0  0  0  0  0
   -0.9215    2.0906   -0.5924 H   0  0  0  0  0  0  0  0  0  0  0  0
    0.9211   -2.0900   -0.5923 H   0  0  0  0  0  0  0  0  0  0  0  0
   -0.9212   -2.0898    0.5931 H   0  0  0  0  0  0  0  0  0  0  0  0
    3.3487    2.0795    0.5665 H   0  0  0  0  0  0  0  0  0  0  0  0
   -3.3485    2.0806   -0.5630 H   0  0  0  0  0  0  0  0  0  0  0  0
    3.3481   -2.0807   -0.5632 H   0  0  0  0  0  0  0  0  0  0  0  0
   -3.3482   -2.0796    0.5667 H   0  0  0  0  0  0  0  0  0  0  0  0
    5.3993   -0.7107   -0.7347 H   0  0  0  0  0  0  0  0  0  0  0  0
    5.4005    0.9859   -0.2637 H   0  0  0  0  0  0  0  0  0  0  0  0
    5.3799   -0.2757    0.9907 H   0  0  0  0  0  0  0  0  0  0  0  0
   -5.4003    0.7184   -0.7254 H   0  0  0  0  0  0  0  0  0  0  0  0
   -5.3992   -0.9844   -0.2767 H   0  0  0  0  0  0  0  0  0  0  0  0
   -5.3804    0.2611    0.9941 H   0  0  0  0  0  0  0  0  0  0  0  0
  1  2  1  0  0  0  0
  1  3  2  0  0  0  0
  1  5  1  0  0  0  0
  2  4  2  0  0  0  0
  2  6  1  0  0  0  0
  3  9  1  0  0  0  0
  3 15  1  0  0  0  0
  4 10  1  0  0  0  0
  4 16  1  0  0  0  0
  5 11  2  0  0  0  0
  5 17  1  0  0  0  0
  6 12  2  0  0  0  0
  6 18  1  0  0  0  0
  7  9  2  0  0  0  0
  7 11  1  0  0  0  0
  7 13  1  0  0  0  0
  8 10  2  0  0  0  0
  8 12  1  0  0  0  0
  8 14  1  0  0  0  0
  9 19  1  0  0  0  0
 10 20  1  0  0  0  0
 11 21  1  0  0  0  0
 12 22  1  0  0  0  0
 13 23  1  0  0  0  0
 13 24  1  0  0  0  0
 13 25  1  0  0  0  0
 14 26  1  0  0  0  0
 14 27  1  0  0  0  0
 14 28  1  0  0  0  0
M  END
> <PUBCHEM_COMPOUND_CID>
11941

> <PUBCHEM_CONFORMER_RMSD>
0.4

> <PUBCHEM_CONFORMER_DIVERSEORDER>
1
2

> <PUBCHEM_MMFF94_PARTIAL_CHARGES>
20
10 -0.15
11 -0.15
12 -0.15
13 0.14
14 0.14
15 0.15
16 0.15
17 0.15
18 0.15
19 0.15
20 0.15
21 0.15
22 0.15
3 -0.15
4 -0.15
5 -0.15
6 -0.15
7 -0.14
8 -0.14
9 -0.15

> <PUBCHEM_EFFECTIVE_ROTOR_COUNT>
1

> <PUBCHEM_PHARMACOPHORE_FEATURES>
2
6 1 3 5 7 9 11 rings
6 2 4 6 8 10 12 rings

> <PUBCHEM_HEAVY_ATOM_COUNT>
14

> <PUBCHEM_ATOM_DEF_STEREO_COUNT>
0

> <PUBCHEM_ATOM_UDEF_STEREO_COUNT>
0

> <PUBCHEM_BOND_DEF_STEREO_COUNT>
0

> <PUBCHEM_BOND_UDEF_STEREO_COUNT>
0

> <PUBCHEM_ISOTOPIC_ATOM_COUNT>
0

> <PUBCHEM_COMPONENT_COUNT>
1

> <PUBCHEM_CACTVS_TAUTO_COUNT>
1

> <PUBCHEM_CONFORMER_ID>
00002EA500000001

> <PUBCHEM_MMFF94_ENERGY>
45.2133

> <PUBCHEM_FEATURE_SELFOVERLAP>
10.149

> <PUBCHEM_SHAPE_FINGERPRINT>
10608611 8 18410579482710064229
11132069 177 18340494374019825865
11401426 45 18260270733055596666
11471102 20 18333732416337606932
11615757 297 17603583010718901936
12032990 46 18410852165888278241
12251169 10 18410575076073144374
13380535 76 18410573985151925351
13581323 91 17989490727138239733
14144814 61 18410575123317784803
14252887 29 17603859031704390062
14325111 11 18410856572545933389
15196674 1 18410855464423129089
15219456 202 18409167722680251855
15309172 13 17530962479749845055
15375358 24 18410575084668600523
17802600 8 18410578387493228356
18175812 5 18410573942201778399
18186145 218 18337951311019963917
18522853 276 18333450949750630872
200 152 17749112188307754775
20201158 50 18408321098732359922
20279233 1 18410568491888545890
20510252 161 18336827606200456689
20528008 55 18410295796194006531
20645477 56 18272934964109377333
20645477 70 18187644768816053006
21267235 1 18410565193353604099
23402539 116 18410864252448430519
23402655 69 18261680367197663805
23557571 272 17988644141977033340
23559900 14 18338801238325681774
3545911 37 18410572885639836374
474 4 15912185505342542092
5104073 3 18338797921924809672
69090 78 18335143081345775455
77779 3 18410854364911546788
8809292 202 18271522005187980194
9709674 26 18410287012706954607

> <PUBCHEM_SHAPE_MULTIPOLES>
288.11
8.87
1.39
0.67
0
0
0
0
0
0
0
0
0
0.44

> <PUBCHEM_SHAPE_SELFOVERLAP>
621.977

> <PUBCHEM_SHAPE_VOLUME>
147.9

> <PUBCHEM_COORDINATE_TYPE>
2
5
10

$$$$

