10172
  -OEChem-06261204213D

 33 36  0     1  0  0  0  0  0999 V2000
    3.7245    0.5555   -0.1318 O   0  0  0  0  0  0  0  0  0  0  0  0
    4.1996   -1.4164   -1.0972 O   0  0  0  0  0  0  0  0  0  0  0  0
   -1.5871    1.4453   -0.2638 N   0  0  3  0  0  0  0  0  0  0  0  0
   -1.5054    0.0812   -0.0472 C   0  0  0  0  0  0  0  0  0  0  0  0
   -2.9175    1.7580   -0.7732 C   0  0  0  0  0  0  0  0  0  0  0  0
   -0.5059    2.3942   -0.3040 C   0  0  0  0  0  0  0  0  0  0  0  0
   -3.8131    0.5663   -0.4074 C   0  0  0  0  0  0  0  0  0  0  0  0
   -2.7936   -0.4913   -0.1237 C   0  0  0  0  0  0  0  0  0  0  0  0
   -0.3930   -0.7175    0.2402 C   0  0  0  0  0  0  0  0  0  0  0  0
    0.4487    2.1673    0.8603 C   0  0  0  0  0  0  0  0  0  0  0  0
    1.0235   -0.2325    0.2796 C   0  0  0  0  0  0  0  0  0  0  0  0
    1.3944    1.0291    0.5726 C   0  0  0  0  0  0  0  0  0  0  0  0
    2.1002   -1.2571    0.0296 C   0  0  0  0  0  0  0  0  0  0  0  0
    2.8506    1.3916    0.6464 C   0  0  0  0  0  0  0  0  0  0  0  0
   -3.0351   -1.8335    0.0992 C   0  0  0  0  0  0  0  0  0  0  0  0
   -0.6581   -2.0893    0.4755 C   0  0  0  0  0  0  0  0  0  0  0  0
   -1.9497   -2.6374    0.4060 C   0  0  0  0  0  0  0  0  0  0  0  0
    3.4170   -0.7136   -0.4609 C   0  0  0  0  0  0  0  0  0  0  0  0
   -2.8729    1.8758   -1.8634 H   0  0  0  0  0  0  0  0  0  0  0  0
   -3.3091    2.6895   -0.3501 H   0  0  0  0  0  0  0  0  0  0  0  0
   -0.9173    3.4077   -0.2223 H   0  0  0  0  0  0  0  0  0  0  0  0
    0.0126    2.3406   -1.2693 H   0  0  0  0  0  0  0  0  0  0  0  0
   -4.4818    0.2987   -1.2302 H   0  0  0  0  0  0  0  0  0  0  0  0
   -4.3966    0.7769    0.4949 H   0  0  0  0  0  0  0  0  0  0  0  0
   -0.0859    1.9837    1.8008 H   0  0  0  0  0  0  0  0  0  0  0  0
    1.0183    3.0921    1.0144 H   0  0  0  0  0  0  0  0  0  0  0  0
    2.2976   -1.8287    0.9437 H   0  0  0  0  0  0  0  0  0  0  0  0
    1.7684   -1.9458   -0.7584 H   0  0  0  0  0  0  0  0  0  0  0  0
    3.0026    2.4028    0.2534 H   0  0  0  0  0  0  0  0  0  0  0  0
    3.1988    1.3847    1.6849 H   0  0  0  0  0  0  0  0  0  0  0  0
   -4.0373   -2.2440    0.0502 H   0  0  0  0  0  0  0  0  0  0  0  0
    0.1444   -2.7786    0.7319 H   0  0  0  0  0  0  0  0  0  0  0  0
   -2.0950   -3.6970    0.5973 H   0  0  0  0  0  0  0  0  0  0  0  0
  1 14  1  0  0  0  0
  1 18  1  0  0  0  0
  2 18  2  0  0  0  0
  3  4  1  0  0  0  0
  3  5  1  0  0  0  0
  3  6  1  0  0  0  0
  4  8  2  0  0  0  0
  4  9  1  0  0  0  0
  5  7  1  0  0  0  0
  5 19  1  0  0  0  0
  5 20  1  0  0  0  0
  6 10  1  0  0  0  0
  6 21  1  0  0  0  0
  6 22  1  0  0  0  0
  7  8  1  0  0  0  0
  7 23  1  0  0  0  0
  7 24  1  0  0  0  0
  8 15  1  0  0  0  0
  9 11  1  0  0  0  0
  9 16  2  0  0  0  0
 10 12  1  0  0  0  0
 10 25  1  0  0  0  0
 10 26  1  0  0  0  0
 11 12  2  0  0  0  0
 11 13  1  0  0  0  0
 12 14  1  0  0  0  0
 13 18  1  0  0  0  0
 13 27  1  0  0  0  0
 13 28  1  0  0  0  0
 14 29  1  0  0  0  0
 14 30  1  0  0  0  0
 15 17  2  0  0  0  0
 15 31  1  0  0  0  0
 16 17  1  0  0  0  0
 16 32  1  0  0  0  0
 17 33  1  0  0  0  0
M  END
> <PUBCHEM_COMPOUND_CID>
10172

> <PUBCHEM_CONFORMER_RMSD>
0.6

> <PUBCHEM_CONFORMER_DIVERSEORDER>
1
2

> <PUBCHEM_MMFF94_PARTIAL_CHARGES>
21
1 -0.43
10 0.14
11 -0.17
12 -0.28
13 0.2
14 0.42
15 -0.15
16 -0.15
17 -0.15
18 0.66
2 -0.57
3 -0.84
31 0.15
32 0.15
33 0.15
4 0.1
5 0.37
6 0.37
7 0.14
8 -0.14
9 0.03

> <PUBCHEM_EFFECTIVE_ROTOR_COUNT>
1.4

> <PUBCHEM_PHARMACOPHORE_FEATURES>
6
1 2 acceptor
1 3 cation
5 3 4 5 7 8 rings
6 1 11 12 13 14 18 rings
6 4 8 9 15 16 17 rings
7 3 4 6 9 10 11 12 rings

> <PUBCHEM_HEAVY_ATOM_COUNT>
18

> <PUBCHEM_ATOM_DEF_STEREO_COUNT>
0

> <PUBCHEM_ATOM_UDEF_STEREO_COUNT>
0

> <PUBCHEM_BOND_DEF_STEREO_COUNT>
0

> <PUBCHEM_BOND_UDEF_STEREO_COUNT>
0

> <PUBCHEM_ISOTOPIC_ATOM_COUNT>
0

> <PUBCHEM_COMPONENT_COUNT>
1

> <PUBCHEM_CACTVS_TAUTO_COUNT>
1

> <PUBCHEM_CONFORMER_ID>
000027BC00000001

> <PUBCHEM_MMFF94_ENERGY>
65.042

> <PUBCHEM_FEATURE_SELFOVERLAP>
30.581

> <PUBCHEM_SHAPE_FINGERPRINT>
10608611 8 18337678503234548104
10693767 8 18043558159969640911
10759866 29 17845651585628044714
10922523 26 18335986354876233022
10967382 1 18339930419170508419
1100329 8 16968012822596743859
11132069 177 18410863130982126089
11458722 379 18339640173712551126
11578080 2 16663196988414510011
11680986 33 18265336105926158233
116883 192 18122914127202903847
12011746 2 18341615940953305597
12730499 353 17912378820910768117
13140716 1 18410581707623975715
13296908 3 18261392226289148246
13583140 156 14706919649087476211
14115302 16 18343011216297061076
14251745 187 18337118864674460448
14790565 3 18194391415240807833
15196674 1 18410576162699883225
15219456 202 18334578992909217250
16945 1 18267594678555083721
17357779 13 18195827171367726807
17804303 29 18411133615453894255
18186145 218 18410295855954290056
19049666 15 18335145262819721496
19591789 44 18194963178540064201
19868273 325 18271247106001046943
200 152 17312825995575203862
20510252 161 18409731738186554497
20588541 1 18409733941167264369
20645476 183 17632571686451638475
20645477 70 17748544849003382478
20871999 31 18341889679944914374
21249577 43 18410295782966206857
221490 88 18337666421945121042
22182313 1 18337399227207122993
22721475 48 18267021661171959801
22802520 49 18335138678687454586
2334 1 18339368469870620595
23402539 116 18338527416669261622
23493267 7 17489302048819442025
23557571 272 18337944602665987694
23559900 14 18336267938029070274
25 1 18267309918297585175
2748010 2 18337962185771538947
3084891 72 18192720152938551643
335352 9 18338519766968374238
474 4 15983682339828591228
5104073 3 18410577262332870266
598444 67 18411418410498366511
7364860 26 17832423103093200185
81228 2 18128259982775171483
8809292 202 18410571807782581554
9709674 26 18336549317825430022

> <PUBCHEM_SHAPE_MULTIPOLES>
353.71
6.34
2.79
0.83
2.89
0.05
0.02
1.07
1.56
-1.05
-0.19
0.25
-0.06
1.13

> <PUBCHEM_SHAPE_SELFOVERLAP>
786.596

> <PUBCHEM_SHAPE_VOLUME>
187.4

> <PUBCHEM_COORDINATE_TYPE>
2
5
10

$$$$

