4288
  -OEChem-06261200013D

 34 35  0     0  0  0  0  0  0999 V2000
   -5.3785    0.4407   -0.4581 S   0  0  0  0  0  0  0  0  0  0  0  0
    3.5891    2.4640    0.8988 F   0  0  0  0  0  0  0  0  0  0  0  0
    3.2749   -2.1588   -0.1352 F   0  0  0  0  0  0  0  0  0  0  0  0
    0.6990   -2.1140    0.7788 O   0  0  0  0  0  0  0  0  0  0  0  0
   -6.0544   -0.7709   -0.9004 O   0  0  0  0  0  0  0  0  0  0  0  0
   -5.9344    1.2195    0.6396 O   0  0  0  0  0  0  0  0  0  0  0  0
    1.1314    0.1115    1.2653 N   0  0  0  0  0  0  0  0  0  0  0  0
   -5.1559    1.4703   -1.8034 N   0  0  0  0  0  0  0  0  0  0  0  0
    2.5282   -0.0574    1.5954 C   0  0  0  0  0  0  0  0  0  0  0  0
   -1.0815   -0.6055    0.5498 C   0  0  0  0  0  0  0  0  0  0  0  0
   -3.7242    0.0381   -0.0702 C   0  0  0  0  0  0  0  0  0  0  0  0
    3.4163    0.1491    0.4026 C   0  0  0  0  0  0  0  0  0  0  0  0
    0.2961   -0.9411    0.8732 C   0  0  0  0  0  0  0  0  0  0  0  0
   -1.8008   -1.3980   -0.3446 C   0  0  0  0  0  0  0  0  0  0  0  0
   -1.6836    0.5088    1.1344 C   0  0  0  0  0  0  0  0  0  0  0  0
   -3.1221   -1.0761   -0.6546 C   0  0  0  0  0  0  0  0  0  0  0  0
   -3.0050    0.8305    0.8244 C   0  0  0  0  0  0  0  0  0  0  0  0
    3.9033    1.4199    0.1195 C   0  0  0  0  0  0  0  0  0  0  0  0
    3.7433   -0.9326   -0.4067 C   0  0  0  0  0  0  0  0  0  0  0  0
    4.7287    1.6116   -0.9885 C   0  0  0  0  0  0  0  0  0  0  0  0
    4.5687   -0.7409   -1.5146 C   0  0  0  0  0  0  0  0  0  0  0  0
    5.0615    0.5312   -1.8055 C   0  0  0  0  0  0  0  0  0  0  0  0
    2.6854   -1.0544    2.0236 H   0  0  0  0  0  0  0  0  0  0  0  0
    2.7678    0.6628    2.3858 H   0  0  0  0  0  0  0  0  0  0  0  0
    0.7853    1.0651    1.2568 H   0  0  0  0  0  0  0  0  0  0  0  0
   -1.3481   -2.2668   -0.8154 H   0  0  0  0  0  0  0  0  0  0  0  0
   -1.1703    1.1351    1.8580 H   0  0  0  0  0  0  0  0  0  0  0  0
   -3.6611   -1.7027   -1.3596 H   0  0  0  0  0  0  0  0  0  0  0  0
   -3.4544    1.7025    1.2914 H   0  0  0  0  0  0  0  0  0  0  0  0
    5.1121    2.6022   -1.2147 H   0  0  0  0  0  0  0  0  0  0  0  0
    4.8276   -1.5822   -2.1506 H   0  0  0  0  0  0  0  0  0  0  0  0
    5.7042    0.6805   -2.6682 H   0  0  0  0  0  0  0  0  0  0  0  0
   -5.4274    1.1128   -2.7274 H   0  0  0  0  0  0  0  0  0  0  0  0
   -5.3440    2.4719   -1.6735 H   0  0  0  0  0  0  0  0  0  0  0  0
  1  5  2  0  0  0  0
  1  6  2  0  0  0  0
  1  8  1  0  0  0  0
  1 11  1  0  0  0  0
  2 18  1  0  0  0  0
  3 19  1  0  0  0  0
  4 13  2  0  0  0  0
  7  9  1  0  0  0  0
  7 13  1  0  0  0  0
  7 25  1  0  0  0  0
  8 33  1  0  0  0  0
  8 34  1  0  0  0  0
  9 12  1  0  0  0  0
  9 23  1  0  0  0  0
  9 24  1  0  0  0  0
 10 13  1  0  0  0  0
 10 14  2  0  0  0  0
 10 15  1  0  0  0  0
 11 16  2  0  0  0  0
 11 17  1  0  0  0  0
 12 18  2  0  0  0  0
 12 19  1  0  0  0  0
 14 16  1  0  0  0  0
 14 26  1  0  0  0  0
 15 17  2  0  0  0  0
 15 27  1  0  0  0  0
 16 28  1  0  0  0  0
 17 29  1  0  0  0  0
 18 20  1  0  0  0  0
 19 21  2  0  0  0  0
 20 22  2  0  0  0  0
 20 30  1  0  0  0  0
 21 22  1  0  0  0  0
 21 31  1  0  0  0  0
 22 32  1  0  0  0  0
M  END
> <PUBCHEM_COMPOUND_CID>
4288

> <PUBCHEM_CONFORMER_RMSD>
0.8

> <PUBCHEM_CONFORMER_DIVERSEORDER>
1
8
12
26
13
24
2
27
23
18
21
19
4
20
7
22
11
16
17
15
9
25
14
3
10
6
5

> <PUBCHEM_MMFF94_PARTIAL_CHARGES>
32
1 1.45
10 0.09
11 -0.01
12 -0.14
13 0.54
14 -0.15
15 -0.15
16 -0.15
17 -0.15
18 0.19
19 0.19
2 -0.19
20 -0.15
21 -0.15
22 -0.15
25 0.37
26 0.15
27 0.15
28 0.15
29 0.15
3 -0.19
30 0.15
31 0.15
32 0.15
33 0.42
34 0.42
4 -0.57
5 -0.65
6 -0.65
7 -0.73
8 -0.98
9 0.44

> <PUBCHEM_EFFECTIVE_ROTOR_COUNT>
5

> <PUBCHEM_PHARMACOPHORE_FEATURES>
7
1 4 acceptor
1 5 acceptor
1 6 acceptor
1 7 donor
1 8 donor
6 10 11 14 15 16 17 rings
6 12 18 19 20 21 22 rings

> <PUBCHEM_HEAVY_ATOM_COUNT>
22

> <PUBCHEM_ATOM_DEF_STEREO_COUNT>
0

> <PUBCHEM_ATOM_UDEF_STEREO_COUNT>
0

> <PUBCHEM_BOND_DEF_STEREO_COUNT>
0

> <PUBCHEM_BOND_UDEF_STEREO_COUNT>
0

> <PUBCHEM_ISOTOPIC_ATOM_COUNT>
0

> <PUBCHEM_COMPONENT_COUNT>
1

> <PUBCHEM_CACTVS_TAUTO_COUNT>
2

> <PUBCHEM_CONFORMER_ID>
000010C000000001

> <PUBCHEM_MMFF94_ENERGY>
33.3968

> <PUBCHEM_FEATURE_SELFOVERLAP>
35.538

> <PUBCHEM_SHAPE_FINGERPRINT>
10378564 45 18334576888507228076
10498660 4 18343299241272919160
10670039 82 18270677679316779364
11128504 68 18259704488798962269
11796584 16 4967605071138699285
12363563 72 13840253802381030210
12596602 18 13326854426865770949
12616971 3 17917445232023587722
12633257 1 13254790205471135470
12670546 177 18186515510096552366
12730499 353 18271796926203086738
12892183 10 11887686060725033238
12954195 1 16661194979603708425
13782708 43 13984959381388930677
13955234 65 17059501871053201010
1420 369 6699811977246181924
14211702 104 6555107481683734981
14251740 57 9151179778745286280
14251751 18 14057010424905464557
14251764 75 15552448381766904972
14341114 328 13182732620250073228
14366163 111 18412263930391964576
14528608 73 18412829079569062327
14848178 5 5906044850815215629
15183329 4 17748821947392613225
15188451 53 7420950828876723781
15210252 30 17846210017561292476
15575132 122 18201720695632554141
15885798 251 7565347534879333682
16752209 62 16370997551032123434
17349148 13 5112013867157261733
17857418 61 6555412015970013997
17959699 21 18272374199988062069
1813 80 6194566606185819106
18222031 100 4751161826133218752
19377110 9 14404898051522693761
193927 3 4678829358504386878
19784866 240 4967617165312800435
1979834 28 11240004476939469552
20369508 70 15864075368946511802
20567600 234 14764341622689187295
20645477 70 15647055949952045426
21065199 12 11383848042988626762
22061861 79 16153428350649150661
221357 26 18186235147506276648
2215653 11 16732985336317851021
22289505 5 18342174479849070636
23503953 91 12319733640089787136
23559900 14 17749394724041252176
270888 7 16772376332942618964
2838139 119 17704077274123494964
29717793 49 16877657980772830656
3004659 81 17748824142178943222
3472631 163 17489018246139086726
34797466 226 18114461154712008869
463206 1 14996291313939428389
465052 167 14706924016894818340
474 4 18060414686223122520
5374978 207 11887955453795164506
53794403 172 17985258573739977141
542803 24 17917711314232790803
633830 44 18409454660845138267
7970288 3 5328477968545544604
8988823 20 8358247129672445514
960060 61 17167860846636050204
9841814 1 8718536259651149786

> <PUBCHEM_SHAPE_MULTIPOLES>
414.48
14.42
1.84
1.52
9.34
0.04
0.22
5.15
6.54
-1.14
0.02
-0.67
0.26
0.1

> <PUBCHEM_SHAPE_SELFOVERLAP>
877.989

> <PUBCHEM_SHAPE_VOLUME>
234.5

> <PUBCHEM_COORDINATE_TYPE>
2
5
10

$$$$

