8968
  -OEChem-06261203173D

 48 51  0     1  0  0  0  0  0999 V2000
   -0.3029   -1.7889   -2.4705 O   0  0  0  0  0  0  0  0  0  0  0  0
    2.8060    3.0500   -0.7071 O   0  0  0  0  0  0  0  0  0  0  0  0
   -1.6466   -0.5083    0.7767 N   0  0  1  0  0  0  0  0  0  0  0  0
    3.0855   -2.1728    1.0838 N   0  0  0  0  0  0  0  0  0  0  0  0
   -3.8640   -0.1538   -0.5354 C   0  0  2  0  0  0  0  0  0  0  0  0
   -1.6006   -1.2531   -0.5102 C   0  0  1  0  0  0  0  0  0  0  0  0
   -2.8371   -0.9342   -1.3795 C   0  0  0  0  0  0  0  0  0  0  0  0
   -3.2476    1.2043   -0.1244 C   0  0  2  0  0  0  0  0  0  0  0  0
   -4.1029   -0.9544    0.7584 C   0  0  0  0  0  0  0  0  0  0  0  0
   -1.8705    0.9373    0.5284 C   0  0  0  0  0  0  0  0  0  0  0  0
   -2.7933   -1.0238    1.5625 C   0  0  0  0  0  0  0  0  0  0  0  0
   -0.2942   -1.0195   -1.2721 C   0  0  1  0  0  0  0  0  0  0  0  0
   -4.1444    2.0046    0.7714 C   0  0  0  0  0  0  0  0  0  0  0  0
    0.9115   -1.3907   -0.4457 C   0  0  0  0  0  0  0  0  0  0  0  0
   -4.6294    3.2113    0.4600 C   0  0  0  0  0  0  0  0  0  0  0  0
    1.9103   -0.4643   -0.1438 C   0  0  0  0  0  0  0  0  0  0  0  0
    0.9887   -2.6943    0.0066 C   0  0  0  0  0  0  0  0  0  0  0  0
    2.9987   -0.9054    0.6377 C   0  0  0  0  0  0  0  0  0  0  0  0
    1.8518    0.8660   -0.5924 C   0  0  0  0  0  0  0  0  0  0  0  0
    2.0916   -3.0331    0.7640 C   0  0  0  0  0  0  0  0  0  0  0  0
    3.9996    0.0126    0.9439 C   0  0  0  0  0  0  0  0  0  0  0  0
    2.8665    1.7629   -0.2711 C   0  0  0  0  0  0  0  0  0  0  0  0
    3.9417    1.3353    0.4979 C   0  0  0  0  0  0  0  0  0  0  0  0
    3.8817    3.9125   -0.3388 C   0  0  0  0  0  0  0  0  0  0  0  0
   -4.7989   -0.0194   -1.0903 H   0  0  0  0  0  0  0  0  0  0  0  0
   -1.6717   -2.3252   -0.2778 H   0  0  0  0  0  0  0  0  0  0  0  0
   -3.2853   -1.8667   -1.7439 H   0  0  0  0  0  0  0  0  0  0  0  0
   -2.5734   -0.3364   -2.2605 H   0  0  0  0  0  0  0  0  0  0  0  0
   -3.0663    1.7736   -1.0472 H   0  0  0  0  0  0  0  0  0  0  0  0
   -4.4233   -1.9712    0.4970 H   0  0  0  0  0  0  0  0  0  0  0  0
   -4.9095   -0.5306    1.3654 H   0  0  0  0  0  0  0  0  0  0  0  0
   -1.0776    1.3518   -0.1013 H   0  0  0  0  0  0  0  0  0  0  0  0
   -1.7699    1.4744    1.4811 H   0  0  0  0  0  0  0  0  0  0  0  0
   -2.8894   -0.4534    2.4951 H   0  0  0  0  0  0  0  0  0  0  0  0
   -2.5993   -2.0581    1.8729 H   0  0  0  0  0  0  0  0  0  0  0  0
   -0.2837    0.0051   -1.6318 H   0  0  0  0  0  0  0  0  0  0  0  0
   -4.3873    1.6107    1.7546 H   0  0  0  0  0  0  0  0  0  0  0  0
   -0.6746   -2.6663   -2.2780 H   0  0  0  0  0  0  0  0  0  0  0  0
   -5.2565    3.7494    1.1625 H   0  0  0  0  0  0  0  0  0  0  0  0
   -4.4138    3.6820   -0.4927 H   0  0  0  0  0  0  0  0  0  0  0  0
    0.2429   -3.4470   -0.2192 H   0  0  0  0  0  0  0  0  0  0  0  0
    1.0494    1.2636   -1.2009 H   0  0  0  0  0  0  0  0  0  0  0  0
    2.2155   -4.0409    1.1466 H   0  0  0  0  0  0  0  0  0  0  0  0
    4.8520   -0.2987    1.5452 H   0  0  0  0  0  0  0  0  0  0  0  0
    4.7689    1.9738    0.7885 H   0  0  0  0  0  0  0  0  0  0  0  0
    4.8322    3.5742   -0.7650 H   0  0  0  0  0  0  0  0  0  0  0  0
    3.9376    4.0441    0.7471 H   0  0  0  0  0  0  0  0  0  0  0  0
    3.6696    4.8962   -0.7701 H   0  0  0  0  0  0  0  0  0  0  0  0
  1 12  1  0  0  0  0
  1 38  1  0  0  0  0
  2 22  1  0  0  0  0
  2 24  1  0  0  0  0
  3  6  1  0  0  0  0
  3 10  1  0  0  0  0
  3 11  1  0  0  0  0
  4 18  2  0  0  0  0
  4 20  1  0  0  0  0
  5  7  1  0  0  0  0
  5  8  1  0  0  0  0
  5  9  1  0  0  0  0
  5 25  1  0  0  0  0
  6  7  1  0  0  0  0
  6 12  1  0  0  0  0
  6 26  1  0  0  0  0
  7 27  1  0  0  0  0
  7 28  1  0  0  0  0
  8 10  1  0  0  0  0
  8 13  1  0  0  0  0
  8 29  1  0  0  0  0
  9 11  1  0  0  0  0
  9 30  1  0  0  0  0
  9 31  1  0  0  0  0
 10 32  1  0  0  0  0
 10 33  1  0  0  0  0
 11 34  1  0  0  0  0
 11 35  1  0  0  0  0
 12 14  1  0  0  0  0
 12 36  1  0  0  0  0
 13 15  2  0  0  0  0
 13 37  1  0  0  0  0
 14 16  2  0  0  0  0
 14 17  1  0  0  0  0
 15 39  1  0  0  0  0
 15 40  1  0  0  0  0
 16 18  1  0  0  0  0
 16 19  1  0  0  0  0
 17 20  2  0  0  0  0
 17 41  1  0  0  0  0
 18 21  1  0  0  0  0
 19 22  2  0  0  0  0
 19 42  1  0  0  0  0
 20 43  1  0  0  0  0
 21 23  2  0  0  0  0
 21 44  1  0  0  0  0
 22 23  1  0  0  0  0
 23 45  1  0  0  0  0
 24 46  1  0  0  0  0
 24 47  1  0  0  0  0
 24 48  1  0  0  0  0
M  END
> <PUBCHEM_COMPOUND_CID>
8968

> <PUBCHEM_CONFORMER_RMSD>
0.8

> <PUBCHEM_CONFORMER_DIVERSEORDER>
1
4
2
5
3

> <PUBCHEM_MMFF94_PARTIAL_CHARGES>
29
1 -0.68
10 0.27
11 0.27
12 0.42
13 -0.29
14 -0.14
15 -0.3
17 -0.15
18 0.31
19 -0.15
2 -0.36
20 0.16
21 -0.15
22 0.08
23 -0.15
24 0.28
3 -0.81
37 0.15
38 0.4
39 0.15
4 -0.62
40 0.15
41 0.15
42 0.15
43 0.15
44 0.15
45 0.15
6 0.27
8 0.14

> <PUBCHEM_EFFECTIVE_ROTOR_COUNT>
5.2

> <PUBCHEM_PHARMACOPHORE_FEATURES>
9
1 1 acceptor
1 1 donor
1 15 hydrophobe
1 2 acceptor
1 3 cation
1 4 acceptor
6 16 18 19 21 22 23 rings
6 4 14 16 17 18 20 rings
8 3 5 6 7 8 9 10 11 rings

> <PUBCHEM_HEAVY_ATOM_COUNT>
24

> <PUBCHEM_ATOM_DEF_STEREO_COUNT>
2

> <PUBCHEM_ATOM_UDEF_STEREO_COUNT>
0

> <PUBCHEM_BOND_DEF_STEREO_COUNT>
0

> <PUBCHEM_BOND_UDEF_STEREO_COUNT>
0

> <PUBCHEM_ISOTOPIC_ATOM_COUNT>
0

> <PUBCHEM_COMPONENT_COUNT>
1

> <PUBCHEM_CACTVS_TAUTO_COUNT>
1

> <PUBCHEM_CONFORMER_ID>
0000230800000001

> <PUBCHEM_MMFF94_ENERGY>
90.9453

> <PUBCHEM_FEATURE_SELFOVERLAP>
45.7

> <PUBCHEM_SHAPE_FINGERPRINT>
10366900 7 17917706915880584422
10498660 4 17095528413261312907
10871710 139 18118683206343222997
11370993 70 18130792217735589339
11640471 11 18259991435506096358
12390115 104 17624126106443959644
12403259 118 18409457993866088057
12403259 327 17843674702228459259
12403260 363 18338809935080503299
12422481 6 18048909517458291962
12633257 1 17846506975345614864
12788726 201 17467082847410858494
12892183 10 18272363136273516491
13140716 1 18413669114895405424
13224815 77 17967811656674268723
13583140 156 18201445821746088623
14251764 38 18410856603180929861
14251764 75 18263628615713723057
14289901 80 18411703166835840619
14787075 74 17978231560877994447
14790565 3 18271237215330532100
14955137 171 18341896329509330426
15238133 3 18055624264479781494
15295992 7 17986092231845487169
15475509 8 18335975446730167124
1601671 61 18340204202361938894
17492 89 18336829788039126631
17859628 37 18266458891607243108
17980427 23 18117296940864830367
1813 80 18044935921069856190
20715895 44 17684936091572070617
20739085 24 18340214106662323970
21033648 29 17823722904217189410
21475661 188 18053662761901888757
21503847 285 18336263552334879974
21524375 3 18188205378006665582
21756936 100 17977659819569383156
21860390 5 18190742140104570078
21864079 5 18335979783460531124
23557571 272 14707784878923287687
23559900 14 18341051938015939771
283562 15 16759168797490699570
345986 75 16695276712827764194
38570 142 18126830618007891804
392239 28 17765140675401969027
4409770 3 16173394725811462326
469060 322 17546720456992448387
474 4 18341338799129188906
49207404 50 18129935685318789602
5048184 11 18195528082677588620
5081480 168 17099428479530832716
5104073 3 18342176725795057843
633830 44 18408880711823051990
7097593 13 18199189679404144283
7288768 16 17628361472241266920
9709674 26 18341889723185205451
9981440 41 18269558230239377552

> <PUBCHEM_SHAPE_MULTIPOLES>
472.21
9.1
3.88
1.35
3.14
2.74
0.39
6.48
-2.26
-2.58
0
0.42
-0.66
-1.39

> <PUBCHEM_SHAPE_SELFOVERLAP>
1030.693

> <PUBCHEM_SHAPE_VOLUME>
252.9

> <PUBCHEM_COORDINATE_TYPE>
2
5
10

$$$$

