17395983
  -OEChem-06241222532D

 53 55  0     1  0  0  0  0  0999 V2000
    2.7743    1.1082    0.0000 O   0  0  0  0  0  0  0  0  0  0  0  0
    3.9499    2.7262    0.0000 N   0  0  3  0  0  0  0  0  0  0  0  0
    4.1756    0.0901    0.0000 N   0  0  0  0  0  0  0  0  0  0  0  0
    3.0878   -2.2578    0.0000 N   0  0  0  0  0  0  0  0  0  0  0  0
    2.2788   -1.6700    0.0000 N   0  0  0  0  0  0  0  0  0  0  0  0
    4.5377    3.5352    0.0000 C   0  0  0  0  0  0  0  0  0  0  0  0
    5.5322    3.4307    0.0000 C   0  0  0  0  0  0  0  0  0  0  0  0
    4.1309    4.4488    0.0000 C   0  0  0  0  0  0  0  0  0  0  0  0
    6.1200    4.2397    0.0000 C   0  0  0  0  0  0  0  0  0  0  0  0
    4.7187    5.2578    0.0000 C   0  0  0  0  0  0  0  0  0  0  0  0
    5.7132    5.1532    0.0000 C   0  0  0  0  0  0  0  0  0  0  0  0
    4.3566    1.8126    0.0000 C   0  0  0  0  0  0  0  0  0  0  0  0
    2.9554    2.8307    0.0000 C   0  0  0  0  0  0  0  0  0  0  0  0
    3.7688    1.0036    0.0000 C   0  0  0  0  0  0  0  0  0  0  0  0
    3.5878   -0.7189    0.0000 C   0  0  0  0  0  0  0  0  0  0  0  0
    3.8968   -1.6700    0.0000 C   0  0  0  0  0  0  0  0  0  0  0  0
    2.5878   -0.7189    0.0000 C   0  0  0  0  0  0  0  0  0  0  0  0
    4.8479   -1.9790    0.0000 C   0  0  0  0  0  0  0  0  0  0  0  0
    3.0878   -3.2578    0.0000 C   0  0  0  0  0  0  0  0  0  0  0  0
    2.0000    0.0901    0.0000 C   0  0  0  0  0  0  0  0  0  0  0  0
    2.2218   -3.7578    0.0000 C   0  0  0  0  0  0  0  0  0  0  0  0
    3.9538   -3.7578    0.0000 C   0  0  0  0  0  0  0  0  0  0  0  0
    2.2218   -4.7578    0.0000 C   0  0  0  0  0  0  0  0  0  0  0  0
    3.9538   -4.7578    0.0000 C   0  0  0  0  0  0  0  0  0  0  0  0
    3.0878   -5.2578    0.0000 C   0  0  0  0  0  0  0  0  0  0  0  0
    4.7898    2.9688    0.0000 H   0  0  0  0  0  0  0  0  0  0  0  0
    3.7002    4.8948    0.0000 H   0  0  0  0  0  0  0  0  0  0  0  0
    3.6169    4.1021    0.0000 H   0  0  0  0  0  0  0  0  0  0  0  0
    5.3613    2.8347    0.0000 H   0  0  0  0  0  0  0  0  0  0  0  0
    6.0894    3.1589    0.0000 H   0  0  0  0  0  0  0  0  0  0  0  0
    4.8896    5.8538    0.0000 H   0  0  0  0  0  0  0  0  0  0  0  0
    4.1615    5.5296    0.0000 H   0  0  0  0  0  0  0  0  0  0  0  0
    6.5507    3.7937    0.0000 H   0  0  0  0  0  0  0  0  0  0  0  0
    6.6340    4.5864    0.0000 H   0  0  0  0  0  0  0  0  0  0  0  0
    6.3148    5.3032    0.0000 H   0  0  0  0  0  0  0  0  0  0  0  0
    5.6700    5.7717    0.0000 H   0  0  0  0  0  0  0  0  0  0  0  0
    4.7873    1.3667    0.0000 H   0  0  0  0  0  0  0  0  0  0  0  0
    4.8706    2.1594    0.0000 H   0  0  0  0  0  0  0  0  0  0  0  0
    3.0202    3.4473    0.0000 H   0  0  0  0  0  0  0  0  0  0  0  0
    2.3388    2.8955    0.0000 H   0  0  0  0  0  0  0  0  0  0  0  0
    2.8906    2.2141    0.0000 H   0  0  0  0  0  0  0  0  0  0  0  0
    4.7922    0.0253    0.0000 H   0  0  0  0  0  0  0  0  0  0  0  0
    4.6563   -2.5687    0.0000 H   0  0  0  0  0  0  0  0  0  0  0  0
    5.4375   -2.1706    0.0000 H   0  0  0  0  0  0  0  0  0  0  0  0
    5.0395   -1.3894    0.0000 H   0  0  0  0  0  0  0  0  0  0  0  0
    2.5016    0.4545    0.0000 H   0  0  0  0  0  0  0  0  0  0  0  0
    1.6356    0.5917    0.0000 H   0  0  0  0  0  0  0  0  0  0  0  0
    1.4984   -0.2743    0.0000 H   0  0  0  0  0  0  0  0  0  0  0  0
    1.6848   -3.4478    0.0000 H   0  0  0  0  0  0  0  0  0  0  0  0
    4.4908   -3.4478    0.0000 H   0  0  0  0  0  0  0  0  0  0  0  0
    1.6848   -5.0678    0.0000 H   0  0  0  0  0  0  0  0  0  0  0  0
    4.4908   -5.0678    0.0000 H   0  0  0  0  0  0  0  0  0  0  0  0
    3.0878   -5.8778    0.0000 H   0  0  0  0  0  0  0  0  0  0  0  0
  1 14  2  0  0  0  0
  2  6  1  0  0  0  0
  2 12  1  0  0  0  0
  2 13  1  0  0  0  0
  3 14  1  0  0  0  0
  3 15  1  0  0  0  0
  3 42  1  0  0  0  0
  4  5  1  0  0  0  0
  4 16  1  0  0  0  0
  4 19  1  0  0  0  0
  5 17  2  0  0  0  0
  6  7  1  0  0  0  0
  6  8  1  0  0  0  0
  6 26  1  0  0  0  0
  7  9  1  0  0  0  0
  7 29  1  0  0  0  0
  7 30  1  0  0  0  0
  8 10  1  0  0  0  0
  8 27  1  0  0  0  0
  8 28  1  0  0  0  0
  9 11  1  0  0  0  0
  9 33  1  0  0  0  0
  9 34  1  0  0  0  0
 10 11  1  0  0  0  0
 10 31  1  0  0  0  0
 10 32  1  0  0  0  0
 11 35  1  0  0  0  0
 11 36  1  0  0  0  0
 12 14  1  0  0  0  0
 12 37  1  0  0  0  0
 12 38  1  0  0  0  0
 13 39  1  0  0  0  0
 13 40  1  0  0  0  0
 13 41  1  0  0  0  0
 15 16  2  0  0  0  0
 15 17  1  0  0  0  0
 16 18  1  0  0  0  0
 17 20  1  0  0  0  0
 18 43  1  0  0  0  0
 18 44  1  0  0  0  0
 18 45  1  0  0  0  0
 19 21  2  0  0  0  0
 19 22  1  0  0  0  0
 20 46  1  0  0  0  0
 20 47  1  0  0  0  0
 20 48  1  0  0  0  0
 21 23  1  0  0  0  0
 21 49  1  0  0  0  0
 22 24  2  0  0  0  0
 22 50  1  0  0  0  0
 23 25  2  0  0  0  0
 23 51  1  0  0  0  0
 24 25  1  0  0  0  0
 24 52  1  0  0  0  0
 25 53  1  0  0  0  0
M  END
> <PUBCHEM_COMPOUND_CID>
17395983

> <PUBCHEM_COMPOUND_CANONICALIZED>
1

> <PUBCHEM_CACTVS_COMPLEXITY>
431

> <PUBCHEM_CACTVS_HBOND_ACCEPTOR>
3

> <PUBCHEM_CACTVS_HBOND_DONOR>
1

> <PUBCHEM_CACTVS_ROTATABLE_BOND>
5

> <PUBCHEM_CACTVS_SUBSKEYS>
AAADceB7oAAAAAAAAAAAAAAAAAAAAWAAAAAwYAAAAAAAAAABwAAAHgAYAAAACCjBlgQywJPIAACqASVyVACSBCAhEgAYmCC4dJgIYGLA0fGUpAhgnADIyAcQAAAAAAAAAAAAAAAAAAAAAAAAAAAAAAAAAA==

> <PUBCHEM_IUPAC_OPENEYE_NAME>
2-[cyclohexyl(methyl)amino]-N-(3,5-dimethyl-1-phenyl-pyrazol-4-yl)acetamide

> <PUBCHEM_IUPAC_CAS_NAME>
2-[cyclohexyl(methyl)amino]-N-(3,5-dimethyl-1-phenyl-4-pyrazolyl)acetamide

> <PUBCHEM_IUPAC_NAME>
2-[cyclohexyl(methyl)amino]-N-(3,5-dimethyl-1-phenylpyrazol-4-yl)acetamide

> <PUBCHEM_IUPAC_SYSTEMATIC_NAME>
2-[cyclohexyl(methyl)amino]-N-(3,5-dimethyl-1-phenyl-pyrazol-4-yl)ethanamide

> <PUBCHEM_IUPAC_TRADITIONAL_NAME>
2-[cyclohexyl(methyl)amino]-N-(3,5-dimethyl-1-phenyl-pyrazol-4-yl)acetamide

> <PUBCHEM_IUPAC_INCHI>
InChI=1S/C20H28N4O/c1-15-20(16(2)24(22-15)18-12-8-5-9-13-18)21-19(25)14-23(3)17-10-6-4-7-11-17/h5,8-9,12-13,17H,4,6-7,10-11,14H2,1-3H3,(H,21,25)

> <PUBCHEM_IUPAC_INCHIKEY>
JUZJNFGVMYZCGQ-UHFFFAOYSA-N

> <PUBCHEM_XLOGP3_AA>
3.7

> <PUBCHEM_EXACT_MASS>
340.226312

> <PUBCHEM_MOLECULAR_FORMULA>
C20H28N4O

> <PUBCHEM_MOLECULAR_WEIGHT>
340.46252

> <PUBCHEM_OPENEYE_CAN_SMILES>
CC1=C(C(=NN1C2=CC=CC=C2)C)NC(=O)CN(C)C3CCCCC3

> <PUBCHEM_OPENEYE_ISO_SMILES>
CC1=C(C(=NN1C2=CC=CC=C2)C)NC(=O)CN(C)C3CCCCC3

> <PUBCHEM_CACTVS_TPSA>
50.2

> <PUBCHEM_MONOISOTOPIC_WEIGHT>
340.226312

> <PUBCHEM_TOTAL_CHARGE>
0

> <PUBCHEM_HEAVY_ATOM_COUNT>
25

> <PUBCHEM_ATOM_DEF_STEREO_COUNT>
0

> <PUBCHEM_ATOM_UDEF_STEREO_COUNT>
0

> <PUBCHEM_BOND_DEF_STEREO_COUNT>
0

> <PUBCHEM_BOND_UDEF_STEREO_COUNT>
0

> <PUBCHEM_ISOTOPIC_ATOM_COUNT>
0

> <PUBCHEM_COMPONENT_COUNT>
1

> <PUBCHEM_CACTVS_TAUTO_COUNT>
3

> <PUBCHEM_COORDINATE_TYPE>
1
5
255

> <PUBCHEM_BONDANNOTATIONS>
15  16  8
15  17  8
19  21  8
19  22  8
21  23  8
22  24  8
23  25  8
24  25  8
4  16  8
4  5  8
5  17  8

$$$$

