17395914
  -OEChem-06241222532D

 39 41  0     0  0  0  0  0  0999 V2000
    7.6279    1.5981    0.0000 O   0  0  0  0  0  0  0  0  0  0  0  0
    4.5981    1.2320    0.0000 N   0  0  0  0  0  0  0  0  0  0  0  0
    7.6279   -0.1340    0.0000 N   0  0  0  0  0  0  0  0  0  0  0  0
    5.5443    1.5368    0.0000 N   0  0  0  0  0  0  0  0  0  0  0  0
    5.5443   -0.0727    0.0000 N   0  0  0  0  0  0  0  0  0  0  0  0
    3.7320   -0.2679    0.0000 N   0  0  0  0  0  0  0  0  0  0  0  0
    9.1279   -1.0000    0.0000 C   0  0  0  0  0  0  0  0  0  0  0  0
    8.6279   -0.1340    0.0000 C   0  0  0  0  0  0  0  0  0  0  0  0
    3.7320    1.7320    0.0000 C   0  0  0  0  0  0  0  0  0  0  0  0
    4.5981    0.2321    0.0000 C   0  0  0  0  0  0  0  0  0  0  0  0
    8.6279   -1.8660    0.0000 C   0  0  0  0  0  0  0  0  0  0  0  0
    6.1279    0.7321    0.0000 C   0  0  0  0  0  0  0  0  0  0  0  0
    2.8660    1.2320    0.0000 C   0  0  0  0  0  0  0  0  0  0  0  0
    2.8660    0.2321    0.0000 C   0  0  0  0  0  0  0  0  0  0  0  0
    7.1279    0.7321    0.0000 C   0  0  0  0  0  0  0  0  0  0  0  0
   10.1279   -1.0000    0.0000 C   0  0  0  0  0  0  0  0  0  0  0  0
    3.7320    2.7320    0.0000 C   0  0  0  0  0  0  0  0  0  0  0  0
    9.1279   -2.7320    0.0000 C   0  0  0  0  0  0  0  0  0  0  0  0
    7.6279   -1.8660    0.0000 C   0  0  0  0  0  0  0  0  0  0  0  0
   10.6279   -1.8660    0.0000 C   0  0  0  0  0  0  0  0  0  0  0  0
   10.1279   -2.7320    0.0000 C   0  0  0  0  0  0  0  0  0  0  0  0
    2.0000   -0.2679    0.0000 C   0  0  0  0  0  0  0  0  0  0  0  0
    9.2105    0.0781    0.0000 H   0  0  0  0  0  0  0  0  0  0  0  0
    8.5202    0.4766    0.0000 H   0  0  0  0  0  0  0  0  0  0  0  0
    2.3291    1.5420    0.0000 H   0  0  0  0  0  0  0  0  0  0  0  0
    7.3179   -0.6709    0.0000 H   0  0  0  0  0  0  0  0  0  0  0  0
   10.4379   -0.4631    0.0000 H   0  0  0  0  0  0  0  0  0  0  0  0
    4.3520    2.7320    0.0000 H   0  0  0  0  0  0  0  0  0  0  0  0
    3.7320    3.3520    0.0000 H   0  0  0  0  0  0  0  0  0  0  0  0
    3.1120    2.7320    0.0000 H   0  0  0  0  0  0  0  0  0  0  0  0
    8.8179   -3.2690    0.0000 H   0  0  0  0  0  0  0  0  0  0  0  0
    7.6279   -1.2460    0.0000 H   0  0  0  0  0  0  0  0  0  0  0  0
    7.0079   -1.8660    0.0000 H   0  0  0  0  0  0  0  0  0  0  0  0
    7.6279   -2.4860    0.0000 H   0  0  0  0  0  0  0  0  0  0  0  0
   11.2479   -1.8660    0.0000 H   0  0  0  0  0  0  0  0  0  0  0  0
   10.4379   -3.2690    0.0000 H   0  0  0  0  0  0  0  0  0  0  0  0
    1.6900    0.2690    0.0000 H   0  0  0  0  0  0  0  0  0  0  0  0
    1.4631   -0.5779    0.0000 H   0  0  0  0  0  0  0  0  0  0  0  0
    2.3100   -0.8049    0.0000 H   0  0  0  0  0  0  0  0  0  0  0  0
  1 15  2  0  0  0  0
  2  4  1  0  0  0  0
  2  9  1  0  0  0  0
  2 10  1  0  0  0  0
  3  8  1  0  0  0  0
  3 15  1  0  0  0  0
  3 26  1  0  0  0  0
  4 12  2  0  0  0  0
  5 10  2  0  0  0  0
  5 12  1  0  0  0  0
  6 10  1  0  0  0  0
  6 14  2  0  0  0  0
  7  8  1  0  0  0  0
  7 11  1  0  0  0  0
  7 16  2  0  0  0  0
  8 23  1  0  0  0  0
  8 24  1  0  0  0  0
  9 13  2  0  0  0  0
  9 17  1  0  0  0  0
 11 18  2  0  0  0  0
 11 19  1  0  0  0  0
 12 15  1  0  0  0  0
 13 14  1  0  0  0  0
 13 25  1  0  0  0  0
 14 22  1  0  0  0  0
 16 20  1  0  0  0  0
 16 27  1  0  0  0  0
 17 28  1  0  0  0  0
 17 29  1  0  0  0  0
 17 30  1  0  0  0  0
 18 21  1  0  0  0  0
 18 31  1  0  0  0  0
 19 32  1  0  0  0  0
 19 33  1  0  0  0  0
 19 34  1  0  0  0  0
 20 21  2  0  0  0  0
 20 35  1  0  0  0  0
 21 36  1  0  0  0  0
 22 37  1  0  0  0  0
 22 38  1  0  0  0  0
 22 39  1  0  0  0  0
M  END
> <PUBCHEM_COMPOUND_CID>
17395914

> <PUBCHEM_COMPOUND_CANONICALIZED>
1

> <PUBCHEM_CACTVS_COMPLEXITY>
404

> <PUBCHEM_CACTVS_HBOND_ACCEPTOR>
4

> <PUBCHEM_CACTVS_HBOND_DONOR>
1

> <PUBCHEM_CACTVS_ROTATABLE_BOND>
3

> <PUBCHEM_CACTVS_SUBSKEYS>
AAADceB7oAAAAAAAAAAAAAAAAAAAAWAAAAA8QAAAAAAAAFgB8AAAHgAYAAAADAjBnwQzkJbIEACqAydydACShCsjAqAdmKC4ZJiIaCLA2fGUpAhojgLIyCcQgIAOgAAAAAAQAAAAAAAAACAAAAAAAAAAAA==

> <PUBCHEM_IUPAC_OPENEYE_NAME>
5,7-dimethyl-N-(o-tolylmethyl)-[1,2,4]triazolo[1,5-a]pyrimidine-2-carboxamide

> <PUBCHEM_IUPAC_CAS_NAME>
5,7-dimethyl-N-[(2-methylphenyl)methyl]-[1,2,4]triazolo[1,5-a]pyrimidine-2-carboxamide

> <PUBCHEM_IUPAC_NAME>
5,7-dimethyl-N-[(2-methylphenyl)methyl]-[1,2,4]triazolo[1,5-a]pyrimidine-2-carboxamide

> <PUBCHEM_IUPAC_SYSTEMATIC_NAME>
5,7-dimethyl-N-[(2-methylphenyl)methyl]-[1,2,4]triazolo[1,5-a]pyrimidine-2-carboxamide

> <PUBCHEM_IUPAC_TRADITIONAL_NAME>
5,7-dimethyl-N-(2-methylbenzyl)-[1,2,4]triazolo[1,5-a]pyrimidine-2-carboxamide

> <PUBCHEM_IUPAC_INCHI>
InChI=1S/C16H17N5O/c1-10-6-4-5-7-13(10)9-17-15(22)14-19-16-18-11(2)8-12(3)21(16)20-14/h4-8H,9H2,1-3H3,(H,17,22)

> <PUBCHEM_IUPAC_INCHIKEY>
LUWVVNHVGAGQCW-UHFFFAOYSA-N

> <PUBCHEM_XLOGP3_AA>
2.4

> <PUBCHEM_EXACT_MASS>
295.14331

> <PUBCHEM_MOLECULAR_FORMULA>
C16H17N5O

> <PUBCHEM_MOLECULAR_WEIGHT>
295.33908

> <PUBCHEM_OPENEYE_CAN_SMILES>
CC1=CC=CC=C1CNC(=O)C2=NN3C(=CC(=NC3=N2)C)C

> <PUBCHEM_OPENEYE_ISO_SMILES>
CC1=CC=CC=C1CNC(=O)C2=NN3C(=CC(=NC3=N2)C)C

> <PUBCHEM_CACTVS_TPSA>
72.2

> <PUBCHEM_MONOISOTOPIC_WEIGHT>
295.14331

> <PUBCHEM_TOTAL_CHARGE>
0

> <PUBCHEM_HEAVY_ATOM_COUNT>
22

> <PUBCHEM_ATOM_DEF_STEREO_COUNT>
0

> <PUBCHEM_ATOM_UDEF_STEREO_COUNT>
0

> <PUBCHEM_BOND_DEF_STEREO_COUNT>
0

> <PUBCHEM_BOND_UDEF_STEREO_COUNT>
0

> <PUBCHEM_ISOTOPIC_ATOM_COUNT>
0

> <PUBCHEM_COMPONENT_COUNT>
1

> <PUBCHEM_CACTVS_TAUTO_COUNT>
2

> <PUBCHEM_COORDINATE_TYPE>
1
5
255

> <PUBCHEM_BONDANNOTATIONS>
11  18  8
13  14  8
16  20  8
18  21  8
2  10  8
2  4  8
2  9  8
20  21  8
4  12  8
5  10  8
5  12  8
6  10  8
6  14  8
7  11  8
7  16  8
9  13  8

$$$$

