4335
  -OEChem-06261200032D

 32 32  0     1  0  0  0  0  0999 V2000
    2.0000    1.2500    0.0000 O   0  0  0  0  0  0  0  0  0  0  0  0
    5.4641    1.2500    0.0000 O   0  0  0  0  0  0  0  0  0  0  0  0
    5.4641    2.2500    0.0000 O   0  0  0  0  0  0  0  0  0  0  0  0
    2.0000   -3.7500    0.0000 O   0  5  0  0  0  0  0  0  0  0  0  0
    3.7320   -3.7500    0.0000 O   0  0  0  0  0  0  0  0  0  0  0  0
    3.7320    2.2500    0.0000 N   0  0  0  0  0  0  0  0  0  0  0  0
    2.8660   -3.2500    0.0000 N   0  3  0  0  0  0  0  0  0  0  0  0
    3.7320    1.2500    0.0000 C   0  0  3  0  0  0  0  0  0  0  0  0
    2.8660    0.7500    0.0000 C   0  0  3  0  0  0  0  0  0  0  0  0
    2.8660   -0.2500    0.0000 C   0  0  0  0  0  0  0  0  0  0  0  0
    4.5981    0.7500    0.0000 C   0  0  0  0  0  0  0  0  0  0  0  0
    2.0000   -0.7500    0.0000 C   0  0  0  0  0  0  0  0  0  0  0  0
    3.7320   -0.7500    0.0000 C   0  0  0  0  0  0  0  0  0  0  0  0
    4.5981    2.7500    0.0000 C   0  0  0  0  0  0  0  0  0  0  0  0
    2.0000   -1.7500    0.0000 C   0  0  0  0  0  0  0  0  0  0  0  0
    3.7320   -1.7500    0.0000 C   0  0  0  0  0  0  0  0  0  0  0  0
    2.8660   -2.2500    0.0000 C   0  0  0  0  0  0  0  0  0  0  0  0
    4.5981    3.7500    0.0000 C   0  0  0  0  0  0  0  0  0  0  0  0
    4.4682    1.6750    0.0000 H   0  0  0  0  0  0  0  0  0  0  0  0
    2.8660    1.6000    0.0000 H   0  0  0  0  0  0  0  0  0  0  0  0
    4.1996    0.2751    0.0000 H   0  0  0  0  0  0  0  0  0  0  0  0
    4.9966    0.2751    0.0000 H   0  0  0  0  0  0  0  0  0  0  0  0
    3.1951    2.5600    0.0000 H   0  0  0  0  0  0  0  0  0  0  0  0
    1.4631   -0.4400    0.0000 H   0  0  0  0  0  0  0  0  0  0  0  0
    4.2690   -0.4400    0.0000 H   0  0  0  0  0  0  0  0  0  0  0  0
    2.0000    1.8700    0.0000 H   0  0  0  0  0  0  0  0  0  0  0  0
    1.4631   -2.0600    0.0000 H   0  0  0  0  0  0  0  0  0  0  0  0
    4.2690   -2.0600    0.0000 H   0  0  0  0  0  0  0  0  0  0  0  0
    6.0010    0.9400    0.0000 H   0  0  0  0  0  0  0  0  0  0  0  0
    5.2181    3.7500    0.0000 H   0  0  0  0  0  0  0  0  0  0  0  0
    4.5981    4.3700    0.0000 H   0  0  0  0  0  0  0  0  0  0  0  0
    3.9781    3.7500    0.0000 H   0  0  0  0  0  0  0  0  0  0  0  0
  1  9  1  0  0  0  0
  1 26  1  0  0  0  0
  2 11  1  0  0  0  0
  2 29  1  0  0  0  0
  3 14  2  0  0  0  0
  4  7  1  0  0  0  0
  5  7  2  0  0  0  0
  6  8  1  0  0  0  0
  6 14  1  0  0  0  0
  6 23  1  0  0  0  0
  7 17  1  0  0  0  0
  8  9  1  0  0  0  0
  8 11  1  0  0  0  0
  8 19  1  0  0  0  0
  9 10  1  0  0  0  0
  9 20  1  0  0  0  0
 10 12  2  0  0  0  0
 10 13  1  0  0  0  0
 11 21  1  0  0  0  0
 11 22  1  0  0  0  0
 12 15  1  0  0  0  0
 12 24  1  0  0  0  0
 13 16  2  0  0  0  0
 13 25  1  0  0  0  0
 14 18  1  0  0  0  0
 15 17  2  0  0  0  0
 15 27  1  0  0  0  0
 16 17  1  0  0  0  0
 16 28  1  0  0  0  0
 18 30  1  0  0  0  0
 18 31  1  0  0  0  0
 18 32  1  0  0  0  0
M  CHG  2   4  -1   7   1
M  END
> <PUBCHEM_COMPOUND_CID>
4335

> <PUBCHEM_COMPOUND_CANONICALIZED>
1

> <PUBCHEM_CACTVS_COMPLEXITY>
296

> <PUBCHEM_CACTVS_HBOND_ACCEPTOR>
5

> <PUBCHEM_CACTVS_HBOND_DONOR>
3

> <PUBCHEM_CACTVS_ROTATABLE_BOND>
4

> <PUBCHEM_CACTVS_SUBSKEYS>
AAADccBzOAAAAAAAAAAAAAAAAAAAAAAAAAAwAAAAAAAAAAABAAAAHgAUCAAADDzhmAYywILQQgCJAiVSUwCCAAAgAgAoiIAIbIoKNiKAkZGEcABl1gGY2AeQ0KEOCAAAAAAAAAAQAAAAAAAAAAAAAAAAAA==

> <PUBCHEM_IUPAC_OPENEYE_NAME>
N-[2-hydroxy-1-(hydroxymethyl)-2-(4-nitrophenyl)ethyl]acetamide

> <PUBCHEM_IUPAC_CAS_NAME>
N-[1,3-dihydroxy-1-(4-nitrophenyl)propan-2-yl]acetamide

> <PUBCHEM_IUPAC_NAME>
N-[1,3-dihydroxy-1-(4-nitrophenyl)propan-2-yl]acetamide

> <PUBCHEM_IUPAC_SYSTEMATIC_NAME>
N-[1-(4-nitrophenyl)-1,3-bis(oxidanyl)propan-2-yl]ethanamide

> <PUBCHEM_IUPAC_TRADITIONAL_NAME>
N-[2-hydroxy-1-methylol-2-(4-nitrophenyl)ethyl]acetamide

> <PUBCHEM_IUPAC_INCHI>
InChI=1S/C11H14N2O5/c1-7(15)12-10(6-14)11(16)8-2-4-9(5-3-8)13(17)18/h2-5,10-11,14,16H,6H2,1H3,(H,12,15)

> <PUBCHEM_IUPAC_INCHIKEY>
PIVQDUYOEIAFDM-UHFFFAOYSA-N

> <PUBCHEM_XLOGP3>
0

> <PUBCHEM_EXACT_MASS>
254.090272

> <PUBCHEM_MOLECULAR_FORMULA>
C11H14N2O5

> <PUBCHEM_MOLECULAR_WEIGHT>
254.23926

> <PUBCHEM_OPENEYE_CAN_SMILES>
CC(=O)NC(CO)C(C1=CC=C(C=C1)[N+](=O)[O-])O

> <PUBCHEM_OPENEYE_ISO_SMILES>
CC(=O)NC(CO)C(C1=CC=C(C=C1)[N+](=O)[O-])O

> <PUBCHEM_CACTVS_TPSA>
115

> <PUBCHEM_MONOISOTOPIC_WEIGHT>
254.090272

> <PUBCHEM_TOTAL_CHARGE>
0

> <PUBCHEM_HEAVY_ATOM_COUNT>
18

> <PUBCHEM_ATOM_DEF_STEREO_COUNT>
0

> <PUBCHEM_ATOM_UDEF_STEREO_COUNT>
2

> <PUBCHEM_BOND_DEF_STEREO_COUNT>
0

> <PUBCHEM_BOND_UDEF_STEREO_COUNT>
0

> <PUBCHEM_ISOTOPIC_ATOM_COUNT>
0

> <PUBCHEM_COMPONENT_COUNT>
1

> <PUBCHEM_CACTVS_TAUTO_COUNT>
2

> <PUBCHEM_COORDINATE_TYPE>
1
5
255

> <PUBCHEM_BONDANNOTATIONS>
10  12  8
10  13  8
12  15  8
13  16  8
15  17  8
16  17  8
8  19  3
9  20  3

$$$$

