17395628
  -OEChem-06241222513D

 51 53  0     1  0  0  0  0  0999 V2000
    0.0103    0.0853    1.4144 O   0  0  0  0  0  0  0  0  0  0  0  0
    5.2966    1.2982    1.4951 O   0  0  0  0  0  0  0  0  0  0  0  0
    6.5685    1.5688   -0.5338 O   0  0  0  0  0  0  0  0  0  0  0  0
   -6.0479    1.1217   -1.0550 O   0  0  0  0  0  0  0  0  0  0  0  0
   -5.4635    2.1462    0.9109 O   0  0  0  0  0  0  0  0  0  0  0  0
    1.3817   -1.8915    0.2107 N   0  0  2  0  0  0  0  0  0  0  0  0
   -2.8404   -1.3993   -0.2475 N   0  0  0  0  0  0  0  0  0  0  0  0
   -0.0408   -2.1118    0.4666 C   0  0  2  0  0  0  0  0  0  0  0  0
    1.5617   -0.9106   -0.8607 C   0  0  0  0  0  0  0  0  0  0  0  0
   -0.6660   -0.7590    0.8200 C   0  0  0  0  0  0  0  0  0  0  0  0
   -2.0622   -0.4937    0.4252 C   0  0  0  0  0  0  0  0  0  0  0  0
   -2.8184    0.6381    0.6359 C   0  0  0  0  0  0  0  0  0  0  0  0
   -0.2038   -3.0884    1.6243 C   0  0  0  0  0  0  0  0  0  0  0  0
    2.9008   -0.2541   -0.8101 C   0  0  0  0  0  0  0  0  0  0  0  0
   -4.0962    0.4047    0.0703 C   0  0  0  0  0  0  0  0  0  0  0  0
   -4.0821   -0.8628   -0.4686 C   0  0  0  0  0  0  0  0  0  0  0  0
    2.0408   -3.1501   -0.1341 C   0  0  0  0  0  0  0  0  0  0  0  0
    3.4060    0.1976    0.4115 C   0  0  0  0  0  0  0  0  0  0  0  0
   -2.3789    1.8701    1.3246 C   0  0  0  0  0  0  0  0  0  0  0  0
    3.6430   -0.0961   -1.9938 C   0  0  0  0  0  0  0  0  0  0  0  0
    4.6483    0.7982    0.4079 C   0  0  0  0  0  0  0  0  0  0  0  0
   -5.1244   -1.6306   -1.1775 C   0  0  0  0  0  0  0  0  0  0  0  0
    5.3746    0.9528   -0.7506 C   0  0  0  0  0  0  0  0  0  0  0  0
    4.8987    0.5155   -1.9695 C   0  0  0  0  0  0  0  0  0  0  0  0
   -5.2248    1.2916    0.0403 C   0  0  0  0  0  0  0  0  0  0  0  0
    6.5127    1.7843    0.8910 C   0  0  0  0  0  0  0  0  0  0  0  0
   -7.1943    1.9750   -1.1476 C   0  0  0  0  0  0  0  0  0  0  0  0
   -0.5127   -2.5178   -0.4346 H   0  0  0  0  0  0  0  0  0  0  0  0
    0.8462   -0.0813   -0.8512 H   0  0  0  0  0  0  0  0  0  0  0  0
    1.4024   -1.3941   -1.8354 H   0  0  0  0  0  0  0  0  0  0  0  0
   -1.2410   -3.0895    1.9798 H   0  0  0  0  0  0  0  0  0  0  0  0
    0.0293   -4.1187    1.3376 H   0  0  0  0  0  0  0  0  0  0  0  0
    0.4202   -2.8121    2.4827 H   0  0  0  0  0  0  0  0  0  0  0  0
   -2.5624   -2.3284   -0.5303 H   0  0  0  0  0  0  0  0  0  0  0  0
    2.1074   -3.8225    0.7271 H   0  0  0  0  0  0  0  0  0  0  0  0
    3.0814   -2.9825   -0.4362 H   0  0  0  0  0  0  0  0  0  0  0  0
    1.5394   -3.6758   -0.9554 H   0  0  0  0  0  0  0  0  0  0  0  0
    2.8520    0.0972    1.3384 H   0  0  0  0  0  0  0  0  0  0  0  0
   -3.0493    2.7143    1.1437 H   0  0  0  0  0  0  0  0  0  0  0  0
   -1.3906    2.1851    0.9739 H   0  0  0  0  0  0  0  0  0  0  0  0
   -2.3266    1.7055    2.4056 H   0  0  0  0  0  0  0  0  0  0  0  0
    3.2471   -0.4475   -2.9434 H   0  0  0  0  0  0  0  0  0  0  0  0
   -5.2679   -1.2420   -2.1907 H   0  0  0  0  0  0  0  0  0  0  0  0
   -4.8571   -2.6894   -1.2630 H   0  0  0  0  0  0  0  0  0  0  0  0
   -6.0797   -1.5793   -0.6451 H   0  0  0  0  0  0  0  0  0  0  0  0
    5.4738    0.6397   -2.8800 H   0  0  0  0  0  0  0  0  0  0  0  0
    7.3640    1.2745    1.3567 H   0  0  0  0  0  0  0  0  0  0  0  0
    6.5963    2.8595    1.0869 H   0  0  0  0  0  0  0  0  0  0  0  0
   -7.8533    1.8146   -0.2893 H   0  0  0  0  0  0  0  0  0  0  0  0
   -6.8813    3.0215   -1.2058 H   0  0  0  0  0  0  0  0  0  0  0  0
   -7.7366    1.7178   -2.0612 H   0  0  0  0  0  0  0  0  0  0  0  0
  1 10  2  0  0  0  0
  2 21  1  0  0  0  0
  2 26  1  0  0  0  0
  3 23  1  0  0  0  0
  3 26  1  0  0  0  0
  4 25  1  0  0  0  0
  4 27  1  0  0  0  0
  5 25  2  0  0  0  0
  6  8  1  0  0  0  0
  6  9  1  0  0  0  0
  6 17  1  0  0  0  0
  7 11  1  0  0  0  0
  7 16  1  0  0  0  0
  7 34  1  0  0  0  0
  8 10  1  0  0  0  0
  8 13  1  0  0  0  0
  8 28  1  0  0  0  0
  9 14  1  0  0  0  0
  9 29  1  0  0  0  0
  9 30  1  0  0  0  0
 10 11  1  0  0  0  0
 11 12  2  0  0  0  0
 12 15  1  0  0  0  0
 12 19  1  0  0  0  0
 13 31  1  0  0  0  0
 13 32  1  0  0  0  0
 13 33  1  0  0  0  0
 14 18  2  0  0  0  0
 14 20  1  0  0  0  0
 15 16  2  0  0  0  0
 15 25  1  0  0  0  0
 16 22  1  0  0  0  0
 17 35  1  0  0  0  0
 17 36  1  0  0  0  0
 17 37  1  0  0  0  0
 18 21  1  0  0  0  0
 18 38  1  0  0  0  0
 19 39  1  0  0  0  0
 19 40  1  0  0  0  0
 19 41  1  0  0  0  0
 20 24  2  0  0  0  0
 20 42  1  0  0  0  0
 21 23  2  0  0  0  0
 22 43  1  0  0  0  0
 22 44  1  0  0  0  0
 22 45  1  0  0  0  0
 23 24  1  0  0  0  0
 24 46  1  0  0  0  0
 26 47  1  0  0  0  0
 26 48  1  0  0  0  0
 27 49  1  0  0  0  0
 27 50  1  0  0  0  0
 27 51  1  0  0  0  0
M  END
> <PUBCHEM_COMPOUND_CID>
17395628

> <PUBCHEM_CONFORMER_RMSD>
1.2

> <PUBCHEM_CONFORMER_DIVERSEORDER>
2
144
104
27
55
108
69
95
21
72
11
13
132
24
123
35
48
146
53
68
134
32
26
65
75
14
82
124
45
140
142
98
117
106
66
10
166
141
15
61
57
78
34
28
119
84
87
70
116
148
154
143
33
136
17
44
39
121
74
22
1
52
81
80
94
165
86
147
8
6
163
56
131
43
149
145
167
79
20
112
64
49
101
67
125
59
150
107
153
164
130
16
135
51
137
126
89
155
83
133
37
129
156
97
23
96
54
139
127
85
159
92
9
128
157
40
120
58
30
41
138
158
60
88
29
109
151
7
77
76
115
162
91
102
113
110
42
19
38
5
50
152
18
36
46
90
111
12
3
93
99
122
114
62
4
105
161
73
31
63
160
47
118
103
71
25
100

> <PUBCHEM_MMFF94_PARTIAL_CHARGES>
30
1 -0.57
10 0.59
11 -0.24
12 -0.18
14 -0.14
15 -0.09
16 -0.33
17 0.27
18 -0.15
19 0.18
2 -0.36
20 -0.15
21 0.08
22 0.18
23 0.08
24 -0.15
25 0.81
26 0.56
27 0.28
3 -0.36
34 0.27
38 0.15
4 -0.43
42 0.15
46 0.15
5 -0.57
6 -0.81
7 0.03
8 0.33
9 0.41

> <PUBCHEM_EFFECTIVE_ROTOR_COUNT>
7.6

> <PUBCHEM_PHARMACOPHORE_FEATURES>
10
1 1 acceptor
1 2 acceptor
1 3 acceptor
1 5 acceptor
1 6 cation
1 7 cation
1 7 donor
5 2 3 21 23 26 rings
5 7 11 12 15 16 rings
6 14 18 20 21 23 24 rings

> <PUBCHEM_HEAVY_ATOM_COUNT>
27

> <PUBCHEM_ATOM_DEF_STEREO_COUNT>
0

> <PUBCHEM_ATOM_UDEF_STEREO_COUNT>
1

> <PUBCHEM_BOND_DEF_STEREO_COUNT>
0

> <PUBCHEM_BOND_UDEF_STEREO_COUNT>
0

> <PUBCHEM_ISOTOPIC_ATOM_COUNT>
0

> <PUBCHEM_COMPONENT_COUNT>
1

> <PUBCHEM_CACTVS_TAUTO_COUNT>
18

> <PUBCHEM_CONFORMER_ID>
01096FAC00000002

> <PUBCHEM_MMFF94_ENERGY>
65.8874

> <PUBCHEM_FEATURE_SELFOVERLAP>
50.899

> <PUBCHEM_SHAPE_FINGERPRINT>
10319926 262 12175625113866968343
10622 236 4893616644657084300
10692045 39 15410620323505004648
11370993 144 13542188234568175334
11961588 58 18040158417743290895
12293681 160 18259983790522228523
12633257 1 16845570873158022390
13150687 139 18040991869565005014
13402501 40 18113901512184560488
13540713 4 18127950031855182546
13583140 156 16127799743732894888
13673619 4 6555407622165735779
13685833 64 8790880791700268453
13690498 29 17604723149471492839
13726171 33 17894621579003569755
14123256 34 8214142966708962676
14251764 30 8718834184547535684
14739800 52 18334586762821547906
14790565 3 17682104823487227713
14931854 50 18113613525483547144
15183329 4 17967814976647143289
15188451 53 11455881426570246457
15238133 3 17988357079959955396
15348495 7 13470398942309719364
18222031 100 7709454996271808259
18608769 82 18338511929603138123
19427546 20 18410017594726596687
20511986 3 18339654424973001063
20554085 129 18335998505734353130
20567600 254 18409730655976043472
20715895 44 18341894078408604836
21298829 104 18341611572882797917
21774942 28 17822288054686487984
21792934 111 11959729413669415733
22122407 14 16702009868717849444
22393880 68 17967251996365135222
22950370 63 8358265847498474490
23522609 53 7564227257248738242
23559900 14 17894919477450378449
23569917 315 18060419088750588906
23929065 36 18051702040015852066
2748736 6 18272933808193547292
2767999 5 18273216382787140084
2838139 119 18059858333329282420
312425 54 13758066381377399008
34797466 226 17240480308258737245
351380 3 7060383617478476132
465052 167 8934994888928206328
474 4 18059846307478849723
5104073 3 18201995577681374507
543368 44 18408323311574317421
5924683 9 14260772937788167985
7970288 3 7132437895406545900
8863177 126 6338653220050041501
9981440 41 18341888555001898946
999808 66 7997687636198735765

> <PUBCHEM_SHAPE_MULTIPOLES>
516.34
17.33
2.79
1.57
1.94
1.71
-0.25
-14.86
-4.52
0.87
0.72
-0.9
-0.13
0.26

> <PUBCHEM_SHAPE_SELFOVERLAP>
1111.094

> <PUBCHEM_SHAPE_VOLUME>
286.8

> <PUBCHEM_COORDINATE_TYPE>
2
5
10

$$$$

