5587
  -OEChem-06261200453D

 40 41  0     1  0  0  0  0  0999 V2000
    0.2815    0.1855    0.5368 N   0  0  3  0  0  0  0  0  0  0  0  0
    3.3499    2.2144    0.0257 N   0  0  0  0  0  0  0  0  0  0  0  0
    0.2748   -2.1329    1.0855 N   0  0  0  0  0  0  0  0  0  0  0  0
    1.0837    1.2790    0.0427 C   0  0  0  0  0  0  0  0  0  0  0  0
    2.5156    1.1288    0.5401 C   0  0  0  0  0  0  0  0  0  0  0  0
   -0.8485    0.4878    1.4171 C   0  0  0  0  0  0  0  0  0  0  0  0
    0.5722   -1.1444    0.2016 C   0  0  0  0  0  0  0  0  0  0  0  0
   -2.1097    0.6584    0.6164 C   0  0  0  0  0  0  0  0  0  0  0  0
    3.3314    2.2243   -1.4366 C   0  0  0  0  0  0  0  0  0  0  0  0
    4.7205    2.0834    0.5187 C   0  0  0  0  0  0  0  0  0  0  0  0
   -2.4550    1.9168    0.1410 C   0  0  0  0  0  0  0  0  0  0  0  0
   -2.9144   -0.4448    0.3619 C   0  0  0  0  0  0  0  0  0  0  0  0
    1.1593   -1.3875   -1.0373 C   0  0  0  0  0  0  0  0  0  0  0  0
   -3.6252    2.0749   -0.6016 C   0  0  0  0  0  0  0  0  0  0  0  0
   -4.0845   -0.2868   -0.3808 C   0  0  0  0  0  0  0  0  0  0  0  0
    1.4537   -2.7013   -1.3844 C   0  0  0  0  0  0  0  0  0  0  0  0
   -4.4399    0.9731   -0.8627 C   0  0  0  0  0  0  0  0  0  0  0  0
    0.5754   -3.3974    0.7136 C   0  0  0  0  0  0  0  0  0  0  0  0
    1.1592   -3.7313   -0.4978 C   0  0  0  0  0  0  0  0  0  0  0  0
    0.9844    1.3252   -1.0448 H   0  0  0  0  0  0  0  0  0  0  0  0
    0.6907    2.2393    0.4026 H   0  0  0  0  0  0  0  0  0  0  0  0
    2.5086    1.1633    1.6378 H   0  0  0  0  0  0  0  0  0  0  0  0
    2.9500    0.1610    0.2635 H   0  0  0  0  0  0  0  0  0  0  0  0
   -0.6498    1.4032    1.9907 H   0  0  0  0  0  0  0  0  0  0  0  0
   -0.9879   -0.2836    2.1855 H   0  0  0  0  0  0  0  0  0  0  0  0
    2.3873    2.6101   -1.8325 H   0  0  0  0  0  0  0  0  0  0  0  0
    3.5328    1.2368   -1.8677 H   0  0  0  0  0  0  0  0  0  0  0  0
    4.0940    2.9125   -1.8222 H   0  0  0  0  0  0  0  0  0  0  0  0
    5.3325    2.9292    0.1861 H   0  0  0  0  0  0  0  0  0  0  0  0
    5.1974    1.1573    0.1773 H   0  0  0  0  0  0  0  0  0  0  0  0
    4.7392    2.0975    1.6142 H   0  0  0  0  0  0  0  0  0  0  0  0
   -1.8297    2.7829    0.3384 H   0  0  0  0  0  0  0  0  0  0  0  0
   -2.6502   -1.4306    0.7336 H   0  0  0  0  0  0  0  0  0  0  0  0
    1.3833   -0.6110   -1.7592 H   0  0  0  0  0  0  0  0  0  0  0  0
   -3.9021    3.0559   -0.9766 H   0  0  0  0  0  0  0  0  0  0  0  0
   -4.7191   -1.1445   -0.5835 H   0  0  0  0  0  0  0  0  0  0  0  0
    1.9075   -2.9234   -2.3455 H   0  0  0  0  0  0  0  0  0  0  0  0
   -5.3510    1.0962   -1.4408 H   0  0  0  0  0  0  0  0  0  0  0  0
    0.3254   -4.1637    1.4397 H   0  0  0  0  0  0  0  0  0  0  0  0
    1.3786   -4.7630   -0.7477 H   0  0  0  0  0  0  0  0  0  0  0  0
  1  4  1  0  0  0  0
  1  6  1  0  0  0  0
  1  7  1  0  0  0  0
  2  5  1  0  0  0  0
  2  9  1  0  0  0  0
  2 10  1  0  0  0  0
  3  7  1  0  0  0  0
  3 18  2  0  0  0  0
  4  5  1  0  0  0  0
  4 20  1  0  0  0  0
  4 21  1  0  0  0  0
  5 22  1  0  0  0  0
  5 23  1  0  0  0  0
  6  8  1  0  0  0  0
  6 24  1  0  0  0  0
  6 25  1  0  0  0  0
  7 13  2  0  0  0  0
  8 11  2  0  0  0  0
  8 12  1  0  0  0  0
  9 26  1  0  0  0  0
  9 27  1  0  0  0  0
  9 28  1  0  0  0  0
 10 29  1  0  0  0  0
 10 30  1  0  0  0  0
 10 31  1  0  0  0  0
 11 14  1  0  0  0  0
 11 32  1  0  0  0  0
 12 15  2  0  0  0  0
 12 33  1  0  0  0  0
 13 16  1  0  0  0  0
 13 34  1  0  0  0  0
 14 17  2  0  0  0  0
 14 35  1  0  0  0  0
 15 17  1  0  0  0  0
 15 36  1  0  0  0  0
 16 19  2  0  0  0  0
 16 37  1  0  0  0  0
 17 38  1  0  0  0  0
 18 19  1  0  0  0  0
 18 39  1  0  0  0  0
 19 40  1  0  0  0  0
M  END
> <PUBCHEM_COMPOUND_CID>
5587

> <PUBCHEM_CONFORMER_RMSD>
0.8

> <PUBCHEM_CONFORMER_DIVERSEORDER>
1
95
19
102
59
84
30
79
2
86
91
100
89
53
51
55
49
27
94
37
26
25
21
66
76
9
97
40
64
87
56
57
46
99
93
22
74
80
32
29
75
83
61
72
73
67
28
65
85
45
24
58
44
63
17
69
7
34
78
81
62
36
68
18
90
70
88
54
12
10
48
42
82
43
14
50
98
6
31
92
77
13
20
5
4
101
60
11
41
39
33
52
16
8
71
3
35
96
38
15
47
23

> <PUBCHEM_MMFF94_PARTIAL_CHARGES>
28
1 -0.84
10 0.27
11 -0.15
12 -0.15
13 -0.15
14 -0.15
15 -0.15
16 -0.15
17 -0.15
18 0.16
19 -0.15
2 -0.81
3 -0.62
32 0.15
33 0.15
34 0.15
35 0.15
36 0.15
37 0.15
38 0.15
39 0.15
4 0.37
40 0.15
5 0.27
6 0.51
7 0.41
8 -0.14
9 0.27

> <PUBCHEM_EFFECTIVE_ROTOR_COUNT>
6

> <PUBCHEM_PHARMACOPHORE_FEATURES>
5
1 1 cation
1 2 cation
1 3 acceptor
6 3 7 13 16 18 19 rings
6 8 11 12 14 15 17 rings

> <PUBCHEM_HEAVY_ATOM_COUNT>
19

> <PUBCHEM_ATOM_DEF_STEREO_COUNT>
0

> <PUBCHEM_ATOM_UDEF_STEREO_COUNT>
0

> <PUBCHEM_BOND_DEF_STEREO_COUNT>
0

> <PUBCHEM_BOND_UDEF_STEREO_COUNT>
0

> <PUBCHEM_ISOTOPIC_ATOM_COUNT>
0

> <PUBCHEM_COMPONENT_COUNT>
1

> <PUBCHEM_CACTVS_TAUTO_COUNT>
1

> <PUBCHEM_CONFORMER_ID>
000015D300000001

> <PUBCHEM_MMFF94_ENERGY>
64.59

> <PUBCHEM_FEATURE_SELFOVERLAP>
25.371

> <PUBCHEM_SHAPE_FINGERPRINT>
105312 117 18270105800421463380
10764073 3 15764756629480157272
10871710 139 16470628336630914916
11370993 70 18410577245221851300
121448 382 18189056386957956581
12553582 1 17543901760451134955
12788726 201 17480294566302580954
13004483 165 17044304627434644139
13052359 8 18121503453578615402
13257819 37 18196920085656412044
133893 2 18191852634132507618
13681431 1 17974006451124304466
14178000 22 18265905665823906424
14251751 93 18262805047001192791
15163728 17 18129644366235170028
15502722 9 18336827588693188877
16752209 62 17975984163605896994
167882 2 18411696621679759798
20197701 30 18335994086170813232
20567600 347 18410857633434621039
20600515 1 17107356100259202160
20645477 70 18263089971569839039
20671657 53 17759807335432479619
21421566 26 16823301136894676100
21524375 3 18339644434515235736
2255824 54 18192993935850452595
22907989 373 17690821385898057700
23114952 82 18268430311988153093
23366157 5 18200311172616064235
23557571 272 17416945332105768577
23559900 14 18119821449853899987
23598288 3 17697309617288498240
2748010 2 18197188435055154522
298252 57 18270123400917783056
4280585 95 17830172772512245590
4409770 3 17979921505701698331
474229 33 18267304218818175571
5262128 65 17753319065819577135
532947 4 18336259159000035190
53777708 50 18189338051530712129
559249 180 18339928096389838424
6138700 20 18265329694173403814
633830 44 17604688020084801520
7364860 26 18263930006384089267
74978 22 18048877687270764803
81228 2 17254005147104070650
81539 233 18411705391206399844
9709674 26 18339365292164793555
9981440 41 18342461417612517833

> <PUBCHEM_SHAPE_MULTIPOLES>
376.07
7.4
4.17
1.22
2.82
3.68
-0.13
-7.22
-1.54
-4.03
-0.57
-0.32
0.15
0.48

> <PUBCHEM_SHAPE_SELFOVERLAP>
780.866

> <PUBCHEM_SHAPE_VOLUME>
212.4

> <PUBCHEM_COORDINATE_TYPE>
2
5
10

$$$$

