8459
  -OEChem-06261202512D

 30 29  0     0  0  0  0  0  0999 V2000
    3.7320    0.6550    0.0000 N   0  0  0  0  0  0  0  0  0  0  0  0
    2.8660   -1.8450    0.0000 N   0  0  0  0  0  0  0  0  0  0  0  0
    4.5981    1.1550    0.0000 C   0  0  0  0  0  0  0  0  0  0  0  0
    2.8660    1.1550    0.0000 C   0  0  0  0  0  0  0  0  0  0  0  0
    3.7320   -0.3450    0.0000 C   0  0  0  0  0  0  0  0  0  0  0  0
    5.4641    0.6550    0.0000 C   0  0  0  0  0  0  0  0  0  0  0  0
    4.5981    2.1550    0.0000 C   0  0  0  0  0  0  0  0  0  0  0  0
    2.0000    0.6550    0.0000 C   0  0  0  0  0  0  0  0  0  0  0  0
    2.8660    2.1550    0.0000 C   0  0  0  0  0  0  0  0  0  0  0  0
    2.8660   -0.8450    0.0000 C   0  0  0  0  0  0  0  0  0  0  0  0
    4.5981    0.5350    0.0000 H   0  0  0  0  0  0  0  0  0  0  0  0
    2.8660    0.5350    0.0000 H   0  0  0  0  0  0  0  0  0  0  0  0
    3.9441   -0.9276    0.0000 H   0  0  0  0  0  0  0  0  0  0  0  0
    4.3426   -0.2373    0.0000 H   0  0  0  0  0  0  0  0  0  0  0  0
    5.1541    0.1181    0.0000 H   0  0  0  0  0  0  0  0  0  0  0  0
    6.0010    0.3450    0.0000 H   0  0  0  0  0  0  0  0  0  0  0  0
    5.7741    1.1919    0.0000 H   0  0  0  0  0  0  0  0  0  0  0  0
    5.2181    2.1550    0.0000 H   0  0  0  0  0  0  0  0  0  0  0  0
    4.5981    2.7750    0.0000 H   0  0  0  0  0  0  0  0  0  0  0  0
    3.9781    2.1550    0.0000 H   0  0  0  0  0  0  0  0  0  0  0  0
    1.6900    1.1919    0.0000 H   0  0  0  0  0  0  0  0  0  0  0  0
    1.4631    0.3450    0.0000 H   0  0  0  0  0  0  0  0  0  0  0  0
    2.3100    0.1181    0.0000 H   0  0  0  0  0  0  0  0  0  0  0  0
    3.4860    2.1550    0.0000 H   0  0  0  0  0  0  0  0  0  0  0  0
    2.8660    2.7750    0.0000 H   0  0  0  0  0  0  0  0  0  0  0  0
    2.2460    2.1550    0.0000 H   0  0  0  0  0  0  0  0  0  0  0  0
    2.6540   -0.2624    0.0000 H   0  0  0  0  0  0  0  0  0  0  0  0
    2.2554   -0.9527    0.0000 H   0  0  0  0  0  0  0  0  0  0  0  0
    2.3291   -2.1550    0.0000 H   0  0  0  0  0  0  0  0  0  0  0  0
    3.4030   -2.1550    0.0000 H   0  0  0  0  0  0  0  0  0  0  0  0
  1  3  1  0  0  0  0
  1  4  1  0  0  0  0
  1  5  1  0  0  0  0
  2 10  1  0  0  0  0
  2 29  1  0  0  0  0
  2 30  1  0  0  0  0
  3  6  1  0  0  0  0
  3  7  1  0  0  0  0
  3 11  1  0  0  0  0
  4  8  1  0  0  0  0
  4  9  1  0  0  0  0
  4 12  1  0  0  0  0
  5 10  1  0  0  0  0
  5 13  1  0  0  0  0
  5 14  1  0  0  0  0
  6 15  1  0  0  0  0
  6 16  1  0  0  0  0
  6 17  1  0  0  0  0
  7 18  1  0  0  0  0
  7 19  1  0  0  0  0
  7 20  1  0  0  0  0
  8 21  1  0  0  0  0
  8 22  1  0  0  0  0
  8 23  1  0  0  0  0
  9 24  1  0  0  0  0
  9 25  1  0  0  0  0
  9 26  1  0  0  0  0
 10 27  1  0  0  0  0
 10 28  1  0  0  0  0
M  END
> <PUBCHEM_COMPOUND_CID>
8459

> <PUBCHEM_COMPOUND_CANONICALIZED>
1

> <PUBCHEM_CACTVS_COMPLEXITY>
71.3

> <PUBCHEM_CACTVS_HBOND_ACCEPTOR>
2

> <PUBCHEM_CACTVS_HBOND_DONOR>
1

> <PUBCHEM_CACTVS_ROTATABLE_BOND>
4

> <PUBCHEM_CACTVS_SUBSKEYS>
AAADceBzAAAAAAAAAAAAAAAAAAAAAAAAAAAAAAAAAAAAAAAAAAAAHAAQAAAACCjBAAQCAANAAAAAAAAAAAAAAAAAAAAAAIAIAAAAQAAAAAAQAAAAEACAAAAAAAAAAAAAAAAAAAAAAAAAAAAAAAAAAAAAAA==

> <PUBCHEM_IUPAC_OPENEYE_NAME>
N',N'-diisopropylethane-1,2-diamine

> <PUBCHEM_IUPAC_CAS_NAME>
N',N'-di(propan-2-yl)ethane-1,2-diamine

> <PUBCHEM_IUPAC_NAME>
N',N'-di(propan-2-yl)ethane-1,2-diamine

> <PUBCHEM_IUPAC_SYSTEMATIC_NAME>
N',N'-di(propan-2-yl)ethane-1,2-diamine

> <PUBCHEM_IUPAC_TRADITIONAL_NAME>
2-aminoethyl(diisopropyl)amine

> <PUBCHEM_IUPAC_INCHI>
InChI=1S/C8H20N2/c1-7(2)10(6-5-9)8(3)4/h7-8H,5-6,9H2,1-4H3

> <PUBCHEM_IUPAC_INCHIKEY>
CURJNMSGPBXOGK-UHFFFAOYSA-N

> <PUBCHEM_XLOGP3_AA>
0.9

> <PUBCHEM_EXACT_MASS>
144.162649

> <PUBCHEM_MOLECULAR_FORMULA>
C8H20N2

> <PUBCHEM_MOLECULAR_WEIGHT>
144.2578

> <PUBCHEM_OPENEYE_CAN_SMILES>
CC(C)N(CCN)C(C)C

> <PUBCHEM_OPENEYE_ISO_SMILES>
CC(C)N(CCN)C(C)C

> <PUBCHEM_CACTVS_TPSA>
29.3

> <PUBCHEM_MONOISOTOPIC_WEIGHT>
144.162649

> <PUBCHEM_TOTAL_CHARGE>
0

> <PUBCHEM_HEAVY_ATOM_COUNT>
10

> <PUBCHEM_ATOM_DEF_STEREO_COUNT>
0

> <PUBCHEM_ATOM_UDEF_STEREO_COUNT>
0

> <PUBCHEM_BOND_DEF_STEREO_COUNT>
0

> <PUBCHEM_BOND_UDEF_STEREO_COUNT>
0

> <PUBCHEM_ISOTOPIC_ATOM_COUNT>
0

> <PUBCHEM_COMPONENT_COUNT>
1

> <PUBCHEM_CACTVS_TAUTO_COUNT>
1

> <PUBCHEM_COORDINATE_TYPE>
1
5
255

$$$$

