17395388
  -OEChem-06241222503D

 37 38  0     1  0  0  0  0  0999 V2000
    1.2630   -0.3719    0.1040 O   0  0  0  0  0  0  0  0  0  0  0  0
   -0.9841    1.0309    0.2823 O   0  0  0  0  0  0  0  0  0  0  0  0
   -5.7637   -0.0810   -0.4241 O   0  0  0  0  0  0  0  0  0  0  0  0
    2.3807   -1.7897   -1.3242 O   0  0  0  0  0  0  0  0  0  0  0  0
   -2.3295   -0.8233   -0.2353 N   0  0  0  0  0  0  0  0  0  0  0  0
   -4.7146   -0.9886   -0.5072 N   0  0  0  0  0  0  0  0  0  0  0  0
    0.0623   -1.1034   -0.0808 C   0  0  1  0  0  0  0  0  0  0  0  0
    0.0006   -2.2404    0.9441 C   0  0  0  0  0  0  0  0  0  0  0  0
   -1.1355   -0.1591    0.0210 C   0  0  0  0  0  0  0  0  0  0  0  0
   -0.0220   -1.7601    2.3910 C   0  0  0  0  0  0  0  0  0  0  0  0
   -3.6167   -0.2722   -0.2496 C   0  0  0  0  0  0  0  0  0  0  0  0
    2.3534   -0.8229   -0.5787 C   0  0  0  0  0  0  0  0  0  0  0  0
    3.5405    0.0241   -0.2997 C   0  0  0  0  0  0  0  0  0  0  0  0
   -3.9081    1.0798    0.0010 C   0  0  0  0  0  0  0  0  0  0  0  0
   -5.2708    1.1471   -0.1210 C   0  0  0  0  0  0  0  0  0  0  0  0
    4.7640   -0.2697   -0.9019 C   0  0  0  0  0  0  0  0  0  0  0  0
    3.4322    1.1141    0.5640 C   0  0  0  0  0  0  0  0  0  0  0  0
   -6.2497    2.2338    0.0061 C   0  0  0  0  0  0  0  0  0  0  0  0
    5.8792    0.5262   -0.6401 C   0  0  0  0  0  0  0  0  0  0  0  0
    4.5476    1.9101    0.8257 C   0  0  0  0  0  0  0  0  0  0  0  0
    5.7710    1.6160    0.2235 C   0  0  0  0  0  0  0  0  0  0  0  0
    0.0240   -1.5266   -1.0942 H   0  0  0  0  0  0  0  0  0  0  0  0
   -0.8763   -2.8739    0.7717 H   0  0  0  0  0  0  0  0  0  0  0  0
    0.8802   -2.8841    0.8218 H   0  0  0  0  0  0  0  0  0  0  0  0
    0.8603   -1.1557    2.6238 H   0  0  0  0  0  0  0  0  0  0  0  0
   -0.9148   -1.1634    2.6011 H   0  0  0  0  0  0  0  0  0  0  0  0
   -0.0281   -2.6190    3.0700 H   0  0  0  0  0  0  0  0  0  0  0  0
   -2.3060   -1.8143   -0.4593 H   0  0  0  0  0  0  0  0  0  0  0  0
   -3.2551    1.9060    0.2370 H   0  0  0  0  0  0  0  0  0  0  0  0
    4.8693   -1.1142   -1.5778 H   0  0  0  0  0  0  0  0  0  0  0  0
    2.4996    1.3788    1.0540 H   0  0  0  0  0  0  0  0  0  0  0  0
   -6.7986    2.3690   -0.9310 H   0  0  0  0  0  0  0  0  0  0  0  0
   -6.9711    2.0113    0.7984 H   0  0  0  0  0  0  0  0  0  0  0  0
   -5.7591    3.1811    0.2510 H   0  0  0  0  0  0  0  0  0  0  0  0
    6.8320    0.2974   -1.1088 H   0  0  0  0  0  0  0  0  0  0  0  0
    4.4640    2.7589    1.4981 H   0  0  0  0  0  0  0  0  0  0  0  0
    6.6393    2.2358    0.4273 H   0  0  0  0  0  0  0  0  0  0  0  0
  1  7  1  0  0  0  0
  1 12  1  0  0  0  0
  2  9  2  0  0  0  0
  3  6  1  0  0  0  0
  3 15  1  0  0  0  0
  4 12  2  0  0  0  0
  5  9  1  0  0  0  0
  5 11  1  0  0  0  0
  5 28  1  0  0  0  0
  6 11  2  0  0  0  0
  7  8  1  0  0  0  0
  7  9  1  0  0  0  0
  7 22  1  0  0  0  0
  8 10  1  0  0  0  0
  8 23  1  0  0  0  0
  8 24  1  0  0  0  0
 10 25  1  0  0  0  0
 10 26  1  0  0  0  0
 10 27  1  0  0  0  0
 11 14  1  0  0  0  0
 12 13  1  0  0  0  0
 13 16  2  0  0  0  0
 13 17  1  0  0  0  0
 14 15  2  0  0  0  0
 14 29  1  0  0  0  0
 15 18  1  0  0  0  0
 16 19  1  0  0  0  0
 16 30  1  0  0  0  0
 17 20  2  0  0  0  0
 17 31  1  0  0  0  0
 18 32  1  0  0  0  0
 18 33  1  0  0  0  0
 18 34  1  0  0  0  0
 19 21  2  0  0  0  0
 19 35  1  0  0  0  0
 20 21  1  0  0  0  0
 20 36  1  0  0  0  0
 21 37  1  0  0  0  0
M  END
> <PUBCHEM_COMPOUND_CID>
17395388

> <PUBCHEM_CONFORMER_RMSD>
0.8

> <PUBCHEM_CONFORMER_DIVERSEORDER>
1
64
56
105
83
60
74
82
8
49
67
3
44
45
18
42
107
75
94
36
103
98
84
28
38
27
65
59
86
96
85
102
30
91
99
43
80
72
104
62
11
29
7
2
58
54
68
55
50
12
25
76
87
14
4
19
79
57
61
77
106
37
47
23
26
52
17
95
101
16
70
34
100
81
108
9
48
41
46
78
71
53
51
22
63
90
20
24
40
33
6
92
10
66
93
5
89
39
88
73
13
21
31
97
69
32
35
15

> <PUBCHEM_MMFF94_PARTIAL_CHARGES>
26
1 -0.43
11 0.35
12 0.63
13 0.09
14 -0.15
15 -0.04
16 -0.15
17 -0.15
18 0.18
19 -0.15
2 -0.57
20 -0.15
21 -0.15
28 0.37
29 0.15
3 -0.02
30 0.15
31 0.15
35 0.15
36 0.15
37 0.15
4 -0.57
5 -0.49
6 -0.41
7 0.34
9 0.57

> <PUBCHEM_EFFECTIVE_ROTOR_COUNT>
7

> <PUBCHEM_PHARMACOPHORE_FEATURES>
6
1 10 hydrophobe
1 2 acceptor
1 4 acceptor
1 5 donor
5 3 6 11 14 15 rings
6 13 16 17 19 20 21 rings

> <PUBCHEM_HEAVY_ATOM_COUNT>
21

> <PUBCHEM_ATOM_DEF_STEREO_COUNT>
0

> <PUBCHEM_ATOM_UDEF_STEREO_COUNT>
1

> <PUBCHEM_BOND_DEF_STEREO_COUNT>
0

> <PUBCHEM_BOND_UDEF_STEREO_COUNT>
0

> <PUBCHEM_ISOTOPIC_ATOM_COUNT>
0

> <PUBCHEM_COMPONENT_COUNT>
1

> <PUBCHEM_CACTVS_TAUTO_COUNT>
3

> <PUBCHEM_CONFORMER_ID>
01096EBC00000001

> <PUBCHEM_MMFF94_ENERGY>
39.7755

> <PUBCHEM_FEATURE_SELFOVERLAP>
30.446

> <PUBCHEM_SHAPE_FINGERPRINT>
10692045 39 17774455983205496106
10906281 52 18200014184592319348
12596602 18 15267336301996009468
12633257 1 17346043256021709788
12730499 353 18334568045164654470
12788726 201 15357966914964077987
12892183 10 13254807840733693838
13402501 40 18408887317520358048
13533116 47 17988086698783738570
13631057 29 18058448717396343603
13955234 65 18056760068814077891
14178000 29 7637397445194258923
14366163 111 18334295409219569787
14528608 73 18040719147219621772
14556957 393 15141507044831311760
14933364 13 18333165068443397029
15183329 4 17749384896982167776
15188451 53 10735865163516614705
1813 80 6339238134154867618
18222031 100 6194835960653848643
19784866 34 18272655675223411179
200 152 16081360856716893170
20281389 69 18343303703907664909
20567600 254 18130794459729155094
21033648 29 18337114458349498240
21150785 3 17603876598463671877
21637258 2 6555413089622089196
21641784 216 15647318745762825080
221357 26 17821723958061252640
22224240 67 17489867129493172043
22289505 5 18040152933597684768
23352939 185 16732979812647076280
23402539 116 18341616975550086382
23402655 69 18040998448969137454
23559900 14 18113901571669900170
23622692 88 15267342903603180410
25122255 55 7853274476588371949
2767999 5 18060143128178361477
2838139 119 18334300829537181004
2916195 48 18412265008391890857
293599 30 18411699898338821589
29717793 49 16225756446217572500
34797466 226 17530960268158153357
34934 24 18410015459563068511
351380 3 7348889962026457964
4073 2 18342452608524219538
4340502 62 17418091039969510755
465052 167 11815896777741956864
474 4 18272646835711061548
5104073 3 18130786806725344291
5283173 99 18336265630740355218
5385378 56 17703230723284772114
5718773 13 8502114928492447148

> <PUBCHEM_SHAPE_MULTIPOLES>
398.73
15.45
2.13
1.16
6.81
0.06
0.51
-10.75
-2.44
0.39
0.67
-0.68
0.64
0.68

> <PUBCHEM_SHAPE_SELFOVERLAP>
838.172

> <PUBCHEM_SHAPE_VOLUME>
223.6

> <PUBCHEM_COORDINATE_TYPE>
2
5
10

$$$$

