6005
  -OEChem-06261201023D

 37 40  0     1  0  0  0  0  0999 V2000
    2.7577   -1.8892    0.5407 O   0  0  0  0  0  0  0  0  0  0  0  0
    4.8778   -0.2391    0.4097 O   0  0  0  0  0  0  0  0  0  0  0  0
   -2.7275    1.6804   -0.0774 N   0  0  1  0  0  0  0  0  0  0  0  0
   -1.3737    1.1473    0.2256 C   0  0  1  0  0  0  0  0  0  0  0  0
   -1.2651   -0.3657    0.0082 C   0  0  0  0  0  0  0  0  0  0  0  0
   -0.2863    1.8505   -0.6184 C   0  0  0  0  0  0  0  0  0  0  0  0
   -2.4274   -1.1613   -0.0121 C   0  0  0  0  0  0  0  0  0  0  0  0
   -3.7467    0.8881    0.6293 C   0  0  0  0  0  0  0  0  0  0  0  0
   -3.7897   -0.5308    0.0701 C   0  0  0  0  0  0  0  0  0  0  0  0
    0.0162   -0.9626   -0.1079 C   0  0  0  0  0  0  0  0  0  0  0  0
    1.0853    1.2772   -0.3404 C   0  0  0  0  0  0  0  0  0  0  0  0
    1.2238   -0.1054   -0.0907 C   0  0  0  0  0  0  0  0  0  0  0  0
   -2.8681    3.0896    0.3047 C   0  0  0  0  0  0  0  0  0  0  0  0
   -2.3218   -2.5455   -0.1778 C   0  0  0  0  0  0  0  0  0  0  0  0
    0.0823   -2.3582   -0.2706 C   0  0  0  0  0  0  0  0  0  0  0  0
    2.2101    2.1156   -0.3745 C   0  0  0  0  0  0  0  0  0  0  0  0
    2.5161   -0.5971    0.1660 C   0  0  0  0  0  0  0  0  0  0  0  0
   -1.0726   -3.1405   -0.3032 C   0  0  0  0  0  0  0  0  0  0  0  0
    3.6308    0.2464    0.1472 C   0  0  0  0  0  0  0  0  0  0  0  0
    3.4789    1.6002   -0.1286 C   0  0  0  0  0  0  0  0  0  0  0  0
   -1.1566    1.3143    1.2922 H   0  0  0  0  0  0  0  0  0  0  0  0
   -0.2640    2.9214   -0.3895 H   0  0  0  0  0  0  0  0  0  0  0  0
   -0.4935    1.7434   -1.6915 H   0  0  0  0  0  0  0  0  0  0  0  0
   -4.7423    1.3293    0.4944 H   0  0  0  0  0  0  0  0  0  0  0  0
   -3.5463    0.8686    1.7093 H   0  0  0  0  0  0  0  0  0  0  0  0
   -4.2218   -0.5161   -0.9388 H   0  0  0  0  0  0  0  0  0  0  0  0
   -4.4451   -1.1396    0.7044 H   0  0  0  0  0  0  0  0  0  0  0  0
   -2.2373    3.7366   -0.3115 H   0  0  0  0  0  0  0  0  0  0  0  0
   -2.6239    3.2585    1.3596 H   0  0  0  0  0  0  0  0  0  0  0  0
   -3.8945    3.4349    0.1331 H   0  0  0  0  0  0  0  0  0  0  0  0
   -3.2141   -3.1649   -0.2185 H   0  0  0  0  0  0  0  0  0  0  0  0
    1.0097   -2.8871   -0.4590 H   0  0  0  0  0  0  0  0  0  0  0  0
    2.1002    3.1759   -0.5875 H   0  0  0  0  0  0  0  0  0  0  0  0
   -0.9959   -4.2141   -0.4498 H   0  0  0  0  0  0  0  0  0  0  0  0
    4.3417    2.2600   -0.1480 H   0  0  0  0  0  0  0  0  0  0  0  0
    2.0940   -2.1318    1.2093 H   0  0  0  0  0  0  0  0  0  0  0  0
    4.8035   -1.1937    0.5825 H   0  0  0  0  0  0  0  0  0  0  0  0
  1 17  1  0  0  0  0
  1 36  1  0  0  0  0
  2 19  1  0  0  0  0
  2 37  1  0  0  0  0
  3  4  1  0  0  0  0
  3  8  1  0  0  0  0
  3 13  1  0  0  0  0
  4  5  1  0  0  0  0
  4  6  1  0  0  0  0
  4 21  1  0  0  0  0
  5  7  2  0  0  0  0
  5 10  1  0  0  0  0
  6 11  1  0  0  0  0
  6 22  1  0  0  0  0
  6 23  1  0  0  0  0
  7  9  1  0  0  0  0
  7 14  1  0  0  0  0
  8  9  1  0  0  0  0
  8 24  1  0  0  0  0
  8 25  1  0  0  0  0
  9 26  1  0  0  0  0
  9 27  1  0  0  0  0
 10 12  1  0  0  0  0
 10 15  2  0  0  0  0
 11 12  2  0  0  0  0
 11 16  1  0  0  0  0
 12 17  1  0  0  0  0
 13 28  1  0  0  0  0
 13 29  1  0  0  0  0
 13 30  1  0  0  0  0
 14 18  2  0  0  0  0
 14 31  1  0  0  0  0
 15 18  1  0  0  0  0
 15 32  1  0  0  0  0
 16 20  2  0  0  0  0
 16 33  1  0  0  0  0
 17 19  2  0  0  0  0
 18 34  1  0  0  0  0
 19 20  1  0  0  0  0
 20 35  1  0  0  0  0
M  END
> <PUBCHEM_COMPOUND_CID>
6005

> <PUBCHEM_CONFORMER_RMSD>
0.6

> <PUBCHEM_CONFORMER_DIVERSEORDER>
1

> <PUBCHEM_MMFF94_PARTIAL_CHARGES>
25
1 -0.53
11 -0.14
13 0.27
14 -0.15
15 -0.15
16 -0.15
17 0.08
18 -0.15
19 0.08
2 -0.53
20 -0.15
3 -0.81
31 0.15
32 0.15
33 0.15
34 0.15
35 0.15
36 0.45
37 0.45
4 0.41
5 -0.14
6 0.14
7 -0.14
8 0.27
9 0.14

> <PUBCHEM_EFFECTIVE_ROTOR_COUNT>
0.8

> <PUBCHEM_PHARMACOPHORE_FEATURES>
7
1 1 donor
1 2 donor
1 3 cation
6 11 12 16 17 19 20 rings
6 3 4 5 7 8 9 rings
6 4 5 6 10 11 12 rings
6 5 7 10 14 15 18 rings

> <PUBCHEM_HEAVY_ATOM_COUNT>
20

> <PUBCHEM_ATOM_DEF_STEREO_COUNT>
1

> <PUBCHEM_ATOM_UDEF_STEREO_COUNT>
0

> <PUBCHEM_BOND_DEF_STEREO_COUNT>
0

> <PUBCHEM_BOND_UDEF_STEREO_COUNT>
0

> <PUBCHEM_ISOTOPIC_ATOM_COUNT>
0

> <PUBCHEM_COMPONENT_COUNT>
1

> <PUBCHEM_CACTVS_TAUTO_COUNT>
18

> <PUBCHEM_CONFORMER_ID>
0000177500000001

> <PUBCHEM_MMFF94_ENERGY>
65.2339

> <PUBCHEM_FEATURE_SELFOVERLAP>
35.616

> <PUBCHEM_SHAPE_FINGERPRINT>
10319926 262 18189639184999875488
10411042 1 17689154509143883198
10493431 412 18335979882545478841
10616163 171 18338231544883261206
10967382 1 18411136952316429199
11132069 177 18410015429171230240
11370993 70 18337396062127884361
11578080 2 17170122421600103803
12173636 292 18408326579316384181
12251169 10 18412262843712555904
12390115 104 18188192312447496256
12403260 363 18338245967536188007
12553582 1 17833546795550311399
13140716 1 18195523688609352027
13544592 145 18042956757068139630
13583140 156 17275109457098361753
138480 1 17185311487886049743
14081887 123 18045233647584967432
14178342 30 18267319663747165762
14223421 5 18263643953114815240
14790565 3 17761197114288909836
15042514 8 18267017267832418251
15196674 1 18339360747387507982
15256400 18 18409447028962248058
15309172 13 18411131476423186857
15442244 35 18411984646128253442
15536298 74 18336263440781560468
16110190 28 18196952174080494786
16752209 62 18408892814777206031
16945 1 18338517409036603199
17492 89 18339923697637289954
17804303 29 18335978679917517564
1813 80 17203327862502481382
19591789 44 18050564346328832462
20261772 1 18338784620706544483
20510252 161 18260261958464057889
20739085 24 17764283429989430144
20775438 99 16023150228852679519
21267235 1 18340197497285370242
21501502 16 18268147565695613980
21524375 3 18342454880666887929
21731228 192 18337380656127205435
23184049 29 18193272983917154340
23184049 59 18342172318836604523
2334 1 18411134740508641509
23402539 116 18188496770511333887
23463225 33 18413670218559133980
23559900 14 18187927232204713192
238 59 17122585367402513325
25147074 1 18130509614184662756
2748010 2 17331119902071798663
3091708 16 9487105856975973593
335352 9 18411138047796925126
34934 24 18269562654007978490
350125 39 18411133645403017081
352729 6 18409441462784891831
5104073 3 18339362946838025848
54173680 148 18194962937689774479
6438718 38 17822848667987588303
69090 78 18410294700919323825
6992083 37 18272646835774644605
7064713 232 18334861661813308368
7097593 13 18200045048301239442
7364860 26 17903915909300644343
7471813 234 17466804679300048031
7832392 63 18410856542871403040
90525 40 18409449193620685471
9709674 26 18334571313645238550
9862522 239 18198075852745121325

> <PUBCHEM_SHAPE_MULTIPOLES>
394.87
6.85
3.38
0.7
3.62
0.4
0.01
-1.4
-1.07
-2.04
0.21
0
-0.04
-0.64

> <PUBCHEM_SHAPE_SELFOVERLAP>
883.324

> <PUBCHEM_SHAPE_VOLUME>
208.2

> <PUBCHEM_COORDINATE_TYPE>
2
5
10

$$$$

