51090892
  -OEChem-06241223003D

 53 54  0     1  0  0  0  0  0999 V2000
    4.3775    0.5832   -0.0527 O   0  0  0  0  0  0  0  0  0  0  0  0
   -4.4548   -2.1971   -1.0658 O   0  0  0  0  0  0  0  0  0  0  0  0
    2.3126    0.4736    1.7472 O   0  0  0  0  0  0  0  0  0  0  0  0
    7.1139    0.0734   -0.3449 O   0  0  0  0  0  0  0  0  0  0  0  0
   -2.6072   -0.8929   -0.4707 N   0  0  0  0  0  0  0  0  0  0  0  0
    0.9706   -0.4366    0.0857 N   0  0  0  0  0  0  0  0  0  0  0  0
   -0.0756   -0.9276    0.9528 C   0  0  0  0  0  0  0  0  0  0  0  0
   -1.1349    0.1536    1.2028 C   0  0  0  0  0  0  0  0  0  0  0  0
   -0.7114   -2.2064    0.3911 C   0  0  0  0  0  0  0  0  0  0  0  0
   -1.6294   -1.9290   -0.8003 C   0  0  0  0  0  0  0  0  0  0  0  0
   -2.0261    0.3774   -0.0184 C   0  0  0  0  0  0  0  0  0  0  0  0
   -3.9694   -1.1479   -0.6456 C   0  0  0  0  0  0  0  0  0  0  0  0
    2.0874    0.2294    0.5638 C   0  0  0  0  0  0  0  0  0  0  0  0
    3.0498    0.6213   -0.5488 C   0  0  1  0  0  0  0  0  0  0  0  0
   -4.9227   -0.0886   -0.2923 C   0  0  0  0  0  0  0  0  0  0  0  0
    2.7683    2.0301   -1.0460 C   0  0  0  0  0  0  0  0  0  0  0  0
   -5.3123    0.8475   -1.2502 C   0  0  0  0  0  0  0  0  0  0  0  0
   -5.4400   -0.0196    1.0011 C   0  0  0  0  0  0  0  0  0  0  0  0
    4.8876   -0.7443   -0.0190 C   0  0  0  0  0  0  0  0  0  0  0  0
   -6.2192    1.8529   -0.9145 C   0  0  0  0  0  0  0  0  0  0  0  0
   -6.3470    0.9856    1.3368 C   0  0  0  0  0  0  0  0  0  0  0  0
    6.3053   -0.7160    0.5190 C   0  0  0  0  0  0  0  0  0  0  0  0
   -6.7365    1.9219    0.3790 C   0  0  0  0  0  0  0  0  0  0  0  0
    8.4527    0.1532    0.1238 C   0  0  0  0  0  0  0  0  0  0  0  0
    9.2607    1.0029   -0.8337 C   0  0  0  0  0  0  0  0  0  0  0  0
    0.3916   -1.1747    1.9144 H   0  0  0  0  0  0  0  0  0  0  0  0
   -1.7663   -0.1636    2.0430 H   0  0  0  0  0  0  0  0  0  0  0  0
    0.0625   -2.9263    0.1000 H   0  0  0  0  0  0  0  0  0  0  0  0
   -1.3062   -2.6758    1.1856 H   0  0  0  0  0  0  0  0  0  0  0  0
   -0.6650    1.1005    1.4934 H   0  0  0  0  0  0  0  0  0  0  0  0
   -2.1316   -2.8549   -1.0990 H   0  0  0  0  0  0  0  0  0  0  0  0
   -1.0556   -1.5780   -1.6655 H   0  0  0  0  0  0  0  0  0  0  0  0
   -1.4460    0.7870   -0.8537 H   0  0  0  0  0  0  0  0  0  0  0  0
   -2.7958    1.1119    0.2272 H   0  0  0  0  0  0  0  0  0  0  0  0
    0.8472   -0.5327   -0.9179 H   0  0  0  0  0  0  0  0  0  0  0  0
    2.9483   -0.0661   -1.3985 H   0  0  0  0  0  0  0  0  0  0  0  0
    2.8795    2.7600   -0.2361 H   0  0  0  0  0  0  0  0  0  0  0  0
    1.7522    2.1165   -1.4437 H   0  0  0  0  0  0  0  0  0  0  0  0
    3.4802    2.3119   -1.8290 H   0  0  0  0  0  0  0  0  0  0  0  0
   -4.9150    0.8029   -2.2610 H   0  0  0  0  0  0  0  0  0  0  0  0
   -5.1425   -0.7437    1.7552 H   0  0  0  0  0  0  0  0  0  0  0  0
    4.2646   -1.3794    0.6197 H   0  0  0  0  0  0  0  0  0  0  0  0
    4.8937   -1.1496   -1.0378 H   0  0  0  0  0  0  0  0  0  0  0  0
   -6.5223    2.5820   -1.6602 H   0  0  0  0  0  0  0  0  0  0  0  0
   -6.7496    1.0395    2.3441 H   0  0  0  0  0  0  0  0  0  0  0  0
    6.7045   -1.7347    0.5738 H   0  0  0  0  0  0  0  0  0  0  0  0
    6.3114   -0.2685    1.5197 H   0  0  0  0  0  0  0  0  0  0  0  0
   -7.4425    2.7047    0.6404 H   0  0  0  0  0  0  0  0  0  0  0  0
    8.4702    0.6053    1.1218 H   0  0  0  0  0  0  0  0  0  0  0  0
    8.8860   -0.8517    0.1809 H   0  0  0  0  0  0  0  0  0  0  0  0
    9.2444    0.5714   -1.8400 H   0  0  0  0  0  0  0  0  0  0  0  0
    8.8335    2.0081   -0.9117 H   0  0  0  0  0  0  0  0  0  0  0  0
   10.2995    1.0856   -0.5020 H   0  0  0  0  0  0  0  0  0  0  0  0
  1 14  1  0  0  0  0
  1 19  1  0  0  0  0
  2 12  2  0  0  0  0
  3 13  2  0  0  0  0
  4 22  1  0  0  0  0
  4 24  1  0  0  0  0
  5 10  1  0  0  0  0
  5 11  1  0  0  0  0
  5 12  1  0  0  0  0
  6  7  1  0  0  0  0
  6 13  1  0  0  0  0
  6 35  1  0  0  0  0
  7  8  1  0  0  0  0
  7  9  1  0  0  0  0
  7 26  1  0  0  0  0
  8 11  1  0  0  0  0
  8 27  1  0  0  0  0
  8 30  1  0  0  0  0
  9 10  1  0  0  0  0
  9 28  1  0  0  0  0
  9 29  1  0  0  0  0
 10 31  1  0  0  0  0
 10 32  1  0  0  0  0
 11 33  1  0  0  0  0
 11 34  1  0  0  0  0
 12 15  1  0  0  0  0
 13 14  1  0  0  0  0
 14 16  1  0  0  0  0
 14 36  1  0  0  0  0
 15 17  2  0  0  0  0
 15 18  1  0  0  0  0
 16 37  1  0  0  0  0
 16 38  1  0  0  0  0
 16 39  1  0  0  0  0
 17 20  1  0  0  0  0
 17 40  1  0  0  0  0
 18 21  2  0  0  0  0
 18 41  1  0  0  0  0
 19 22  1  0  0  0  0
 19 42  1  0  0  0  0
 19 43  1  0  0  0  0
 20 23  2  0  0  0  0
 20 44  1  0  0  0  0
 21 23  1  0  0  0  0
 21 45  1  0  0  0  0
 22 46  1  0  0  0  0
 22 47  1  0  0  0  0
 23 48  1  0  0  0  0
 24 25  1  0  0  0  0
 24 49  1  0  0  0  0
 24 50  1  0  0  0  0
 25 51  1  0  0  0  0
 25 52  1  0  0  0  0
 25 53  1  0  0  0  0
M  END
> <PUBCHEM_COMPOUND_CID>
51090892

> <PUBCHEM_CONFORMER_RMSD>
1

> <PUBCHEM_CONFORMER_DIVERSEORDER>
1
30
89
38
83
119
72
52
32
19
21
86
118
92
66
116
55
71
70
47
84
11
50
46
106
37
40
10
13
94
36
99
45
33
67
62
117
80
111
26
22
88
115
69
79
76
102
43
17
28
16
97
103
41
31
59
104
112
56
93
57
95
65
49
54
58
27
51
87
114
60
39
107
61
110
100
81
9
73
96
85
90
75
2
34
15
20
4
48
64
74
24
44
108
42
18
53
77
12
35
25
7
14
98
120
8
91
109
78
29
101
3
23
63
105
113
82
5
68
6

> <PUBCHEM_MMFF94_PARTIAL_CHARGES>
27
1 -0.56
10 0.3
11 0.3
12 0.54
13 0.57
14 0.34
15 0.09
17 -0.15
18 -0.15
19 0.28
2 -0.57
20 -0.15
21 -0.15
22 0.28
23 -0.15
24 0.28
3 -0.57
35 0.37
4 -0.56
40 0.15
41 0.15
44 0.15
45 0.15
48 0.15
5 -0.66
6 -0.73
7 0.3

> <PUBCHEM_EFFECTIVE_ROTOR_COUNT>
11.2

> <PUBCHEM_PHARMACOPHORE_FEATURES>
7
1 1 acceptor
1 2 acceptor
1 3 acceptor
1 4 acceptor
1 6 donor
6 15 17 18 20 21 23 rings
6 5 7 8 9 10 11 rings

> <PUBCHEM_HEAVY_ATOM_COUNT>
25

> <PUBCHEM_ATOM_DEF_STEREO_COUNT>
0

> <PUBCHEM_ATOM_UDEF_STEREO_COUNT>
1

> <PUBCHEM_BOND_DEF_STEREO_COUNT>
0

> <PUBCHEM_BOND_UDEF_STEREO_COUNT>
0

> <PUBCHEM_ISOTOPIC_ATOM_COUNT>
0

> <PUBCHEM_COMPONENT_COUNT>
1

> <PUBCHEM_CACTVS_TAUTO_COUNT>
2

> <PUBCHEM_CONFORMER_ID>
030B95CC00000001

> <PUBCHEM_MMFF94_ENERGY>
52.4543

> <PUBCHEM_FEATURE_SELFOVERLAP>
35.53

> <PUBCHEM_SHAPE_FINGERPRINT>
10165383 225 18260829333088108777
106641 1 12175615179164500956
10670039 82 18113340847264347953
11315181 36 17603580799311982482
11796584 16 17967251979670965734
12596602 18 10015589414800482229
13533116 47 17459189737192746942
13964095 4 18186521007707419130
14251752 14 18408044026086467880
14251764 18 17989489615517092108
14251764 46 15195566801373413001
15183329 4 18409454699768680886
15461852 350 16660650630747542037
1577012 14 18342745117688560546
17093844 174 18187087234958524267
18335252 98 12535629388418528648
18608769 82 15195278707836424816
195137 175 18335415760477468112
21298829 104 18410292527956080990
21315759 40 8142088672102508886
21756936 100 17989207040886744931
22224240 67 11600002142253376408
23402539 116 18259990357490300103
23559900 14 17676777487116744138
3009799 131 17385443224384596178
335352 9 18187368727157184925
5969126 39 5184350681224835235
7226269 152 18113337522632229905

> <PUBCHEM_SHAPE_MULTIPOLES>
481.05
23.97
1.92
1.23
39.23
0.22
-0.18
-10.42
1.98
-2.08
0.54
-1.06
-0.09
-1.16

> <PUBCHEM_SHAPE_SELFOVERLAP>
976.572

> <PUBCHEM_SHAPE_VOLUME>
277.9

> <PUBCHEM_COORDINATE_TYPE>
2
5
10

$$$$

