13424
  -OEChem-06261214052D

 25 26  0     0  0  0  0  0  0999 V2000
    2.0000   -0.8333    0.0000 O   0  0  0  0  0  0  0  0  0  0  0  0
    4.8479    1.2358    0.0000 O   0  0  0  0  0  0  0  0  0  0  0  0
    3.0790    2.1493    0.0000 O   0  0  0  0  0  0  0  0  0  0  0  0
    4.5691   -0.5243    0.0000 N   0  0  0  0  0  0  0  0  0  0  0  0
    3.2601    0.4268    0.0000 N   0  0  0  0  0  0  0  0  0  0  0  0
    3.7601   -1.1121    0.0000 C   0  0  0  0  0  0  0  0  0  0  0  0
    4.5691   -1.6999    0.0000 C   0  0  0  0  0  0  0  0  0  0  0  0
    2.9511   -1.6999    0.0000 C   0  0  0  0  0  0  0  0  0  0  0  0
    3.2601   -2.6509    0.0000 C   0  0  0  0  0  0  0  0  0  0  0  0
    4.2601   -2.6509    0.0000 C   0  0  0  0  0  0  0  0  0  0  0  0
    2.9511   -0.5243    0.0000 C   0  0  0  0  0  0  0  0  0  0  0  0
    4.2601    0.4268    0.0000 C   0  0  0  0  0  0  0  0  0  0  0  0
    2.6723    1.2358    0.0000 C   0  0  0  0  0  0  0  0  0  0  0  0
    5.1355   -1.9520    0.0000 H   0  0  0  0  0  0  0  0  0  0  0  0
    4.8791   -1.1629    0.0000 H   0  0  0  0  0  0  0  0  0  0  0  0
    2.6411   -1.1629    0.0000 H   0  0  0  0  0  0  0  0  0  0  0  0
    2.3847   -1.9520    0.0000 H   0  0  0  0  0  0  0  0  0  0  0  0
    4.1953   -3.2675    0.0000 H   0  0  0  0  0  0  0  0  0  0  0  0
    4.8665   -2.7798    0.0000 H   0  0  0  0  0  0  0  0  0  0  0  0
    2.6536   -2.7798    0.0000 H   0  0  0  0  0  0  0  0  0  0  0  0
    3.3249   -3.2675    0.0000 H   0  0  0  0  0  0  0  0  0  0  0  0
    5.1588   -0.7159    0.0000 H   0  0  0  0  0  0  0  0  0  0  0  0
    2.1583    1.5825    0.0000 H   0  0  0  0  0  0  0  0  0  0  0  0
    2.2416    0.7898    0.0000 H   0  0  0  0  0  0  0  0  0  0  0  0
    2.7146    2.6509    0.0000 H   0  0  0  0  0  0  0  0  0  0  0  0
  1 11  2  0  0  0  0
  2 12  2  0  0  0  0
  3 13  1  0  0  0  0
  3 25  1  0  0  0  0
  4  6  1  0  0  0  0
  4 12  1  0  0  0  0
  4 22  1  0  0  0  0
  5 11  1  0  0  0  0
  5 12  1  0  0  0  0
  5 13  1  0  0  0  0
  6  7  1  0  0  0  0
  6  8  1  0  0  0  0
  6 11  1  0  0  0  0
  7 10  1  0  0  0  0
  7 14  1  0  0  0  0
  7 15  1  0  0  0  0
  8  9  1  0  0  0  0
  8 16  1  0  0  0  0
  8 17  1  0  0  0  0
  9 10  1  0  0  0  0
  9 20  1  0  0  0  0
  9 21  1  0  0  0  0
 10 18  1  0  0  0  0
 10 19  1  0  0  0  0
 13 23  1  0  0  0  0
 13 24  1  0  0  0  0
M  END
> <PUBCHEM_COMPOUND_CID>
13424

> <PUBCHEM_COMPOUND_CANONICALIZED>
1

> <PUBCHEM_CACTVS_COMPLEXITY>
258

> <PUBCHEM_CACTVS_HBOND_ACCEPTOR>
3

> <PUBCHEM_CACTVS_HBOND_DONOR>
2

> <PUBCHEM_CACTVS_ROTATABLE_BOND>
1

> <PUBCHEM_CACTVS_SUBSKEYS>
AAADccBzMAAAAAAAAAAAAAAAAAAAAeIAAAAAAAAAAAAAAAAAAAAAHgAQCAAADIiBgAYBAAPAAgAIAAEQEAAAAAAAAAAAAAGIAACAUBIAgCAUAAAIFyIAAAEYCAAOAAAAAAAAAAAAAAAAAAAAAAAAAAAAAA==

> <PUBCHEM_IUPAC_OPENEYE_NAME>
3-(hydroxymethyl)-1,3-diazaspiro[4.4]nonane-2,4-dione

> <PUBCHEM_IUPAC_CAS_NAME>
3-(hydroxymethyl)-1,3-diazaspiro[4.4]nonane-2,4-dione

> <PUBCHEM_IUPAC_NAME>
3-(hydroxymethyl)-1,3-diazaspiro[4.4]nonane-2,4-dione

> <PUBCHEM_IUPAC_SYSTEMATIC_NAME>
3-(hydroxymethyl)-1,3-diazaspiro[4.4]nonane-2,4-dione

> <PUBCHEM_IUPAC_TRADITIONAL_NAME>
3-methylol-1,3-diazaspiro[4.4]nonane-2,4-quinone

> <PUBCHEM_IUPAC_INCHI>
InChI=1S/C8H12N2O3/c11-5-10-6(12)8(9-7(10)13)3-1-2-4-8/h11H,1-5H2,(H,9,13)

> <PUBCHEM_IUPAC_INCHIKEY>
DAYLEOSRTXSJFG-UHFFFAOYSA-N

> <PUBCHEM_XLOGP3_AA>
0.2

> <PUBCHEM_EXACT_MASS>
184.084792

> <PUBCHEM_MOLECULAR_FORMULA>
C8H12N2O3

> <PUBCHEM_MOLECULAR_WEIGHT>
184.19248

> <PUBCHEM_OPENEYE_CAN_SMILES>
C1CCC2(C1)C(=O)N(C(=O)N2)CO

> <PUBCHEM_OPENEYE_ISO_SMILES>
C1CCC2(C1)C(=O)N(C(=O)N2)CO

> <PUBCHEM_CACTVS_TPSA>
69.6

> <PUBCHEM_MONOISOTOPIC_WEIGHT>
184.084792

> <PUBCHEM_TOTAL_CHARGE>
0

> <PUBCHEM_HEAVY_ATOM_COUNT>
13

> <PUBCHEM_ATOM_DEF_STEREO_COUNT>
0

> <PUBCHEM_ATOM_UDEF_STEREO_COUNT>
0

> <PUBCHEM_BOND_DEF_STEREO_COUNT>
0

> <PUBCHEM_BOND_UDEF_STEREO_COUNT>
0

> <PUBCHEM_ISOTOPIC_ATOM_COUNT>
0

> <PUBCHEM_COMPONENT_COUNT>
1

> <PUBCHEM_CACTVS_TAUTO_COUNT>
2

> <PUBCHEM_COORDINATE_TYPE>
1
5
255

$$$$

