14091
  -OEChem-06241222422D

 24 24  0     0  0  0  0  0  0999 V2000
    3.7320    0.7500    0.0000 C   0  0  0  0  0  0  0  0  0  0  0  0
    3.7320   -0.2500    0.0000 C   0  0  0  0  0  0  0  0  0  0  0  0
    4.5981    1.2500    0.0000 C   0  0  0  0  0  0  0  0  0  0  0  0
    2.8660   -0.7500    0.0000 C   0  0  0  0  0  0  0  0  0  0  0  0
    4.5981   -0.7500    0.0000 C   0  0  0  0  0  0  0  0  0  0  0  0
    4.5981    2.2500    0.0000 C   0  0  0  0  0  0  0  0  0  0  0  0
    2.8660   -1.7500    0.0000 C   0  0  0  0  0  0  0  0  0  0  0  0
    2.0000   -0.2500    0.0000 C   0  0  0  0  0  0  0  0  0  0  0  0
    4.5981   -1.7500    0.0000 C   0  0  0  0  0  0  0  0  0  0  0  0
    3.7320   -2.2500    0.0000 C   0  0  0  0  0  0  0  0  0  0  0  0
    3.5200    1.3326    0.0000 H   0  0  0  0  0  0  0  0  0  0  0  0
    3.1215    0.6423    0.0000 H   0  0  0  0  0  0  0  0  0  0  0  0
    4.8101    0.6674    0.0000 H   0  0  0  0  0  0  0  0  0  0  0  0
    5.2087    1.3577    0.0000 H   0  0  0  0  0  0  0  0  0  0  0  0
    5.1350   -0.4400    0.0000 H   0  0  0  0  0  0  0  0  0  0  0  0
    5.2181    2.2500    0.0000 H   0  0  0  0  0  0  0  0  0  0  0  0
    4.5981    2.8700    0.0000 H   0  0  0  0  0  0  0  0  0  0  0  0
    3.9781    2.2500    0.0000 H   0  0  0  0  0  0  0  0  0  0  0  0
    2.3291   -2.0600    0.0000 H   0  0  0  0  0  0  0  0  0  0  0  0
    2.3100    0.2869    0.0000 H   0  0  0  0  0  0  0  0  0  0  0  0
    1.4631    0.0600    0.0000 H   0  0  0  0  0  0  0  0  0  0  0  0
    1.6900   -0.7869    0.0000 H   0  0  0  0  0  0  0  0  0  0  0  0
    5.1350   -2.0600    0.0000 H   0  0  0  0  0  0  0  0  0  0  0  0
    3.7320   -2.8700    0.0000 H   0  0  0  0  0  0  0  0  0  0  0  0
  1  2  1  0  0  0  0
  1  3  1  0  0  0  0
  1 11  1  0  0  0  0
  1 12  1  0  0  0  0
  2  4  1  0  0  0  0
  2  5  2  0  0  0  0
  3  6  1  0  0  0  0
  3 13  1  0  0  0  0
  3 14  1  0  0  0  0
  4  7  2  0  0  0  0
  4  8  1  0  0  0  0
  5  9  1  0  0  0  0
  5 15  1  0  0  0  0
  6 16  1  0  0  0  0
  6 17  1  0  0  0  0
  6 18  1  0  0  0  0
  7 10  1  0  0  0  0
  7 19  1  0  0  0  0
  8 20  1  0  0  0  0
  8 21  1  0  0  0  0
  8 22  1  0  0  0  0
  9 10  2  0  0  0  0
  9 23  1  0  0  0  0
 10 24  1  0  0  0  0
M  END
> <PUBCHEM_COMPOUND_CID>
14091

> <PUBCHEM_COMPOUND_CANONICALIZED>
1

> <PUBCHEM_CACTVS_COMPLEXITY>
86

> <PUBCHEM_CACTVS_HBOND_ACCEPTOR>
0

> <PUBCHEM_CACTVS_HBOND_DONOR>
0

> <PUBCHEM_CACTVS_ROTATABLE_BOND>
2

> <PUBCHEM_CACTVS_SUBSKEYS>
AAADccBwAAAAAAAAAAAAAAAAAAAAAAAAAAAwAAAAAAAAAAABAAAAGAAAAAAADACAGAAyAIAAAACAAiBCAAACAAAgAAAIiAAAAIgIICKAERCAIAAggAAIiAcAgIAOgAAAAAAQAAAAAAAAACAAAAAAAAAAAA==

> <PUBCHEM_IUPAC_OPENEYE_NAME>
1-methyl-2-propyl-benzene

> <PUBCHEM_IUPAC_CAS_NAME>
1-methyl-2-propylbenzene

> <PUBCHEM_IUPAC_NAME>
1-methyl-2-propylbenzene

> <PUBCHEM_IUPAC_SYSTEMATIC_NAME>
1-methyl-2-propyl-benzene

> <PUBCHEM_IUPAC_TRADITIONAL_NAME>
1-methyl-2-propyl-benzene

> <PUBCHEM_IUPAC_INCHI>
InChI=1S/C10H14/c1-3-6-10-8-5-4-7-9(10)2/h4-5,7-8H,3,6H2,1-2H3

> <PUBCHEM_IUPAC_INCHIKEY>
YQZBFMJOASEONC-UHFFFAOYSA-N

> <PUBCHEM_XLOGP3>
4.1

> <PUBCHEM_EXACT_MASS>
134.10955

> <PUBCHEM_MOLECULAR_FORMULA>
C10H14

> <PUBCHEM_MOLECULAR_WEIGHT>
134.21816

> <PUBCHEM_OPENEYE_CAN_SMILES>
CCCC1=CC=CC=C1C

> <PUBCHEM_OPENEYE_ISO_SMILES>
CCCC1=CC=CC=C1C

> <PUBCHEM_CACTVS_TPSA>
0

> <PUBCHEM_MONOISOTOPIC_WEIGHT>
134.10955

> <PUBCHEM_TOTAL_CHARGE>
0

> <PUBCHEM_HEAVY_ATOM_COUNT>
10

> <PUBCHEM_ATOM_DEF_STEREO_COUNT>
0

> <PUBCHEM_ATOM_UDEF_STEREO_COUNT>
0

> <PUBCHEM_BOND_DEF_STEREO_COUNT>
0

> <PUBCHEM_BOND_UDEF_STEREO_COUNT>
0

> <PUBCHEM_ISOTOPIC_ATOM_COUNT>
0

> <PUBCHEM_COMPONENT_COUNT>
1

> <PUBCHEM_CACTVS_TAUTO_COUNT>
1

> <PUBCHEM_COORDINATE_TYPE>
1
5
255

> <PUBCHEM_BONDANNOTATIONS>
2  4  8
2  5  8
4  7  8
5  9  8
7  10  8
9  10  8

$$$$

