9759
  -OEChem-06261204023D

 20 19  0     0  0  0  0  0  0999 V2000
   -1.4278    0.9211    0.2883 S   0  0  0  0  0  0  0  0  0  0  0  0
    3.8979    0.7488   -0.7169 F   0  0  0  0  0  0  0  0  0  0  0  0
   -2.7977   -1.2472   -0.3540 O   0  0  0  0  0  0  0  0  0  0  0  0
    1.2787    0.2288    0.3347 C   0  0  0  0  0  0  0  0  0  0  0  0
    2.3893   -0.8084    0.1625 C   0  0  0  0  0  0  0  0  0  0  0  0
   -0.1266   -0.3378    0.1336 C   0  0  0  0  0  0  0  0  0  0  0  0
    3.7656   -0.1752    0.2723 C   0  0  0  0  0  0  0  0  0  0  0  0
   -2.8472   -0.0536   -0.0831 C   0  0  0  0  0  0  0  0  0  0  0  0
   -4.1321    0.7236   -0.0374 C   0  0  0  0  0  0  0  0  0  0  0  0
    1.3565    0.6682    1.3375 H   0  0  0  0  0  0  0  0  0  0  0  0
    1.4406    1.0442   -0.3822 H   0  0  0  0  0  0  0  0  0  0  0  0
    2.2915   -1.2751   -0.8245 H   0  0  0  0  0  0  0  0  0  0  0  0
    2.2838   -1.5966    0.9161 H   0  0  0  0  0  0  0  0  0  0  0  0
   -0.3126   -1.1268    0.8704 H   0  0  0  0  0  0  0  0  0  0  0  0
   -0.1947   -0.7867   -0.8635 H   0  0  0  0  0  0  0  0  0  0  0  0
    4.5529   -0.9230    0.1435 H   0  0  0  0  0  0  0  0  0  0  0  0
    3.9061    0.3291    1.2326 H   0  0  0  0  0  0  0  0  0  0  0  0
   -4.1150    1.5288   -0.7770 H   0  0  0  0  0  0  0  0  0  0  0  0
   -4.2935    1.1318    0.9642 H   0  0  0  0  0  0  0  0  0  0  0  0
   -4.9660    0.0560   -0.2750 H   0  0  0  0  0  0  0  0  0  0  0  0
  1  6  1  0  0  0  0
  1  8  1  0  0  0  0
  2  7  1  0  0  0  0
  3  8  2  0  0  0  0
  4  5  1  0  0  0  0
  4  6  1  0  0  0  0
  4 10  1  0  0  0  0
  4 11  1  0  0  0  0
  5  7  1  0  0  0  0
  5 12  1  0  0  0  0
  5 13  1  0  0  0  0
  6 14  1  0  0  0  0
  6 15  1  0  0  0  0
  7 16  1  0  0  0  0
  7 17  1  0  0  0  0
  8  9  1  0  0  0  0
  9 18  1  0  0  0  0
  9 19  1  0  0  0  0
  9 20  1  0  0  0  0
M  END
> <PUBCHEM_COMPOUND_CID>
9759

> <PUBCHEM_CONFORMER_RMSD>
0.6

> <PUBCHEM_CONFORMER_DIVERSEORDER>
3
50
97
134
6
63
80
2
136
58
23
32
62
131
86
71
17
104
135
111
13
26
82
137
22
18
115
47
49
41
19
125
25
42
100
84
122
27
127
107
72
124
4
113
33
103
70
77
130
133
109
54
101
16
96
46
5
29
8
68
98
121
45
11
12
85
129
38
43
28
61
40
1
92
36
102
108
95
51
65
139
69
138
75
48
123
10
7
89
87
73
30
39
79
105
67
110
132
94
81
93
106
119
76
21
60
52
74
31
83
117
114
88
15
20
24
14
66
126
99
53
90
37
120
35
64
34
128
56
55
91
59
44
57
78
118
9
112
116

> <PUBCHEM_MMFF94_PARTIAL_CHARGES>
7
1 -0.37
2 -0.34
3 -0.57
6 0.23
7 0.34
8 0.65
9 0.06

> <PUBCHEM_EFFECTIVE_ROTOR_COUNT>
5

> <PUBCHEM_PHARMACOPHORE_FEATURES>
1
4 1 4 5 6 hydrophobe

> <PUBCHEM_HEAVY_ATOM_COUNT>
9

> <PUBCHEM_ATOM_DEF_STEREO_COUNT>
0

> <PUBCHEM_ATOM_UDEF_STEREO_COUNT>
0

> <PUBCHEM_BOND_DEF_STEREO_COUNT>
0

> <PUBCHEM_BOND_UDEF_STEREO_COUNT>
0

> <PUBCHEM_ISOTOPIC_ATOM_COUNT>
0

> <PUBCHEM_COMPONENT_COUNT>
1

> <PUBCHEM_CACTVS_TAUTO_COUNT>
1

> <PUBCHEM_CONFORMER_ID>
0000261F00000003

> <PUBCHEM_MMFF94_ENERGY>
4.9854

> <PUBCHEM_FEATURE_SELFOVERLAP>
5.074

> <PUBCHEM_SHAPE_FINGERPRINT>
11062470 55 17988924487350684945
12932764 1 17917446331809216553
14325111 11 18410857685074318946
17834076 25 18113054961012975185
18342897 55 17131836455995036970
190213 19 5472853761924107954
20211469 26 7060373721884193809
20645477 70 18262519328539427438
20719005 15 18409450293358939139
21119208 17 18410856581156915069
21293036 1 18273495671598947744
22485316 2 17749115495163670846
23402655 69 18341331171214725188
42 15 8214145157231824388
528716 315 18335416855171557819

> <PUBCHEM_SHAPE_MULTIPOLES>
175.92
8.16
1.05
0.69
1.42
0.09
0
-0.68
0.85
-0.37
0.05
0.17
-0.05
-0.35

> <PUBCHEM_SHAPE_SELFOVERLAP>
305.258

> <PUBCHEM_SHAPE_VOLUME>
116.3

> <PUBCHEM_COORDINATE_TYPE>
2
5
10

$$$$

