47205181
  -OEChem-06241222582D

 40 41  0     1  0  0  0  0  0999 V2000
    4.9399    4.1227    0.0000 S   0  0  0  0  0  0  0  0  0  0  0  0
    5.5277    4.9317    0.0000 O   0  0  0  0  0  0  0  0  0  0  0  0
    4.3522    4.9317    0.0000 O   0  0  0  0  0  0  0  0  0  0  0  0
    5.2534    0.7568    0.0000 O   0  0  0  0  0  0  0  0  0  0  0  0
    2.4955   -1.5658    0.0000 O   0  0  0  0  0  0  0  0  0  0  0  0
    3.8522    1.7748    0.0000 N   0  0  0  0  0  0  0  0  0  0  0  0
    4.0778   -0.8613    0.0000 N   0  0  0  0  0  0  0  0  0  0  0  0
    4.4399    2.5838    0.0000 C   0  0  3  0  0  0  0  0  0  0  0  0
    4.1309    3.5349    0.0000 C   0  0  0  0  0  0  0  0  0  0  0  0
    5.4399    2.5838    0.0000 C   0  0  0  0  0  0  0  0  0  0  0  0
    5.7490    3.5349    0.0000 C   0  0  0  0  0  0  0  0  0  0  0  0
    3.3090   -3.3929    0.0000 C   0  0  3  0  0  0  0  0  0  0  0  0
    2.3090   -3.3929    0.0000 C   0  0  0  0  0  0  0  0  0  0  0  0
    3.8968   -2.5838    0.0000 C   0  0  0  0  0  0  0  0  0  0  0  0
    2.0000   -4.3439    0.0000 C   0  0  0  0  0  0  0  0  0  0  0  0
    4.2589    0.8613    0.0000 C   0  0  0  0  0  0  0  0  0  0  0  0
    3.6180   -4.3439    0.0000 C   0  0  0  0  0  0  0  0  0  0  0  0
    2.8090   -4.9317    0.0000 C   0  0  0  0  0  0  0  0  0  0  0  0
    3.6711    0.0523    0.0000 C   0  0  0  0  0  0  0  0  0  0  0  0
    3.4901   -1.6703    0.0000 C   0  0  0  0  0  0  0  0  0  0  0  0
    4.7214    2.0314    0.0000 H   0  0  0  0  0  0  0  0  0  0  0  0
    3.8209    4.0718    0.0000 H   0  0  0  0  0  0  0  0  0  0  0  0
    3.5645    3.2827    0.0000 H   0  0  0  0  0  0  0  0  0  0  0  0
    5.3751    1.9672    0.0000 H   0  0  0  0  0  0  0  0  0  0  0  0
    6.0464    2.4549    0.0000 H   0  0  0  0  0  0  0  0  0  0  0  0
    6.3154    3.2827    0.0000 H   0  0  0  0  0  0  0  0  0  0  0  0
    6.0590    4.0718    0.0000 H   0  0  0  0  0  0  0  0  0  0  0  0
    3.2356    1.8396    0.0000 H   0  0  0  0  0  0  0  0  0  0  0  0
    3.9214   -3.4898    0.0000 H   0  0  0  0  0  0  0  0  0  0  0  0
    2.3738   -2.7763    0.0000 H   0  0  0  0  0  0  0  0  0  0  0  0
    1.7026   -3.2640    0.0000 H   0  0  0  0  0  0  0  0  0  0  0  0
    4.3275   -3.0298    0.0000 H   0  0  0  0  0  0  0  0  0  0  0  0
    4.4108   -2.2371    0.0000 H   0  0  0  0  0  0  0  0  0  0  0  0
    1.4336   -4.0917    0.0000 H   0  0  0  0  0  0  0  0  0  0  0  0
    1.6900   -4.8808    0.0000 H   0  0  0  0  0  0  0  0  0  0  0  0
    4.2077   -4.5355    0.0000 H   0  0  0  0  0  0  0  0  0  0  0  0
    2.8090   -5.5517    0.0000 H   0  0  0  0  0  0  0  0  0  0  0  0
    3.2404    0.4983    0.0000 H   0  0  0  0  0  0  0  0  0  0  0  0
    3.1571   -0.2944    0.0000 H   0  0  0  0  0  0  0  0  0  0  0  0
    4.6944   -0.9261    0.0000 H   0  0  0  0  0  0  0  0  0  0  0  0
  1  2  2  0  0  0  0
  1  3  2  0  0  0  0
  1  9  1  0  0  0  0
  1 11  1  0  0  0  0
  4 16  2  0  0  0  0
  5 20  2  0  0  0  0
  6  8  1  0  0  0  0
  6 16  1  0  0  0  0
  6 28  1  0  0  0  0
  7 19  1  0  0  0  0
  7 20  1  0  0  0  0
  7 40  1  0  0  0  0
  8  9  1  0  0  0  0
  8 10  1  0  0  0  0
  8 21  1  0  0  0  0
  9 22  1  0  0  0  0
  9 23  1  0  0  0  0
 10 11  1  0  0  0  0
 10 24  1  0  0  0  0
 10 25  1  0  0  0  0
 11 26  1  0  0  0  0
 11 27  1  0  0  0  0
 12 13  1  0  0  0  0
 12 14  1  0  0  0  0
 12 17  1  0  0  0  0
 12 29  1  0  0  0  0
 13 15  1  0  0  0  0
 13 30  1  0  0  0  0
 13 31  1  0  0  0  0
 14 20  1  0  0  0  0
 14 32  1  0  0  0  0
 14 33  1  0  0  0  0
 15 18  1  0  0  0  0
 15 34  1  0  0  0  0
 15 35  1  0  0  0  0
 16 19  1  0  0  0  0
 17 18  2  0  0  0  0
 17 36  1  0  0  0  0
 18 37  1  0  0  0  0
 19 38  1  0  0  0  0
 19 39  1  0  0  0  0
M  END
> <PUBCHEM_COMPOUND_CID>
47205181

> <PUBCHEM_COMPOUND_CANONICALIZED>
1

> <PUBCHEM_CACTVS_COMPLEXITY>
507

> <PUBCHEM_CACTVS_HBOND_ACCEPTOR>
4

> <PUBCHEM_CACTVS_HBOND_DONOR>
2

> <PUBCHEM_CACTVS_ROTATABLE_BOND>
5

> <PUBCHEM_CACTVS_SUBSKEYS>
AAADceBzOABAAAAAAAAAAAAAAAAAASIAAAAAAAAAAAAAAAAAAAAAHgQQAAAADSjFwASAAALAAAqIACFSEHBAAAAgABAICIGIAAgAQBIggSAUAAAAlgCoAAMYCAAOAAAAAAAAAAAAAAAAAAAAAAAAAAAAAA==

> <PUBCHEM_IUPAC_OPENEYE_NAME>
2-cyclopent-2-en-1-yl-N-[2-[(1,1-dioxothiolan-3-yl)amino]-2-oxo-ethyl]acetamide

> <PUBCHEM_IUPAC_CAS_NAME>
2-(1-cyclopent-2-enyl)-N-[2-[(1,1-dioxo-3-thiolanyl)amino]-2-oxoethyl]acetamide

> <PUBCHEM_IUPAC_NAME>
2-cyclopent-2-en-1-yl-N-[2-[(1,1-dioxothiolan-3-yl)amino]-2-oxoethyl]acetamide

> <PUBCHEM_IUPAC_SYSTEMATIC_NAME>
N-[2-[[1,1-bis(oxidanylidene)thiolan-3-yl]amino]-2-oxidanylidene-ethyl]-2-cyclopent-2-en-1-yl-ethanamide

> <PUBCHEM_IUPAC_TRADITIONAL_NAME>
2-cyclopent-2-en-1-yl-N-[2-[(1,1-diketothiolan-3-yl)amino]-2-keto-ethyl]acetamide

> <PUBCHEM_IUPAC_INCHI>
InChI=1S/C13H20N2O4S/c16-12(7-10-3-1-2-4-10)14-8-13(17)15-11-5-6-20(18,19)9-11/h1,3,10-11H,2,4-9H2,(H,14,16)(H,15,17)

> <PUBCHEM_IUPAC_INCHIKEY>
TYHDQVSXQXATQN-UHFFFAOYSA-N

> <PUBCHEM_XLOGP3_AA>
-0.1

> <PUBCHEM_EXACT_MASS>
300.114378

> <PUBCHEM_MOLECULAR_FORMULA>
C13H20N2O4S

> <PUBCHEM_MOLECULAR_WEIGHT>
300.3739

> <PUBCHEM_OPENEYE_CAN_SMILES>
C1CC(C=C1)CC(=O)NCC(=O)NC2CCS(=O)(=O)C2

> <PUBCHEM_OPENEYE_ISO_SMILES>
C1CC(C=C1)CC(=O)NCC(=O)NC2CCS(=O)(=O)C2

> <PUBCHEM_CACTVS_TPSA>
101

> <PUBCHEM_MONOISOTOPIC_WEIGHT>
300.114378

> <PUBCHEM_TOTAL_CHARGE>
0

> <PUBCHEM_HEAVY_ATOM_COUNT>
20

> <PUBCHEM_ATOM_DEF_STEREO_COUNT>
0

> <PUBCHEM_ATOM_UDEF_STEREO_COUNT>
2

> <PUBCHEM_BOND_DEF_STEREO_COUNT>
0

> <PUBCHEM_BOND_UDEF_STEREO_COUNT>
0

> <PUBCHEM_ISOTOPIC_ATOM_COUNT>
0

> <PUBCHEM_COMPONENT_COUNT>
1

> <PUBCHEM_CACTVS_TAUTO_COUNT>
4

> <PUBCHEM_COORDINATE_TYPE>
1
5
255

> <PUBCHEM_BONDANNOTATIONS>
12  14  3
8  6  3

$$$$

