854327
  -OEChem-06241222473D

 42 44  0     1  0  0  0  0  0999 V2000
    0.6679   -1.2890    0.3091 O   0  0  0  0  0  0  0  0  0  0  0  0
    1.6307    3.3626    0.4881 O   0  0  0  0  0  0  0  0  0  0  0  0
    0.1716   -3.5904    0.2211 O   0  0  0  0  0  0  0  0  0  0  0  0
    6.0654   -0.8809    0.9140 O   0  0  0  0  0  0  0  0  0  0  0  0
    4.1907   -1.8585    0.0817 O   0  0  0  0  0  0  0  0  0  0  0  0
    3.3587    0.6834   -0.7393 N   0  0  0  0  0  0  0  0  0  0  0  0
    1.2232    1.0135    0.4056 C   0  0  0  0  0  0  0  0  0  0  0  0
    0.2866    0.0518    0.2936 C   0  0  0  0  0  0  0  0  0  0  0  0
   -1.1467    0.3770    0.1534 C   0  0  0  0  0  0  0  0  0  0  0  0
    2.6943    0.7535    0.5510 C   0  0  0  0  0  0  0  0  0  0  0  0
   -2.0534   -0.6305    0.0449 C   0  0  0  0  0  0  0  0  0  0  0  0
    4.7839    0.4199   -0.5819 C   0  0  2  0  0  0  0  0  0  0  0  0
    0.8119    2.4535    0.3889 C   0  0  0  0  0  0  0  0  0  0  0  0
   -1.5338    1.7861    0.1370 C   0  0  0  0  0  0  0  0  0  0  0  0
   -3.4842   -0.3576   -0.0963 C   0  0  0  0  0  0  0  0  0  0  0  0
   -0.6298    2.7651    0.2460 C   0  0  0  0  0  0  0  0  0  0  0  0
   -1.5845   -2.0068    0.0696 C   0  0  0  0  0  0  0  0  0  0  0  0
   -0.2828   -2.2854    0.1963 C   0  0  0  0  0  0  0  0  0  0  0  0
    5.4497    0.3600   -1.9499 C   0  0  0  0  0  0  0  0  0  0  0  0
   -4.2798   -0.2492    1.0389 C   0  0  0  0  0  0  0  0  0  0  0  0
   -4.0351   -0.2085   -1.3643 C   0  0  0  0  0  0  0  0  0  0  0  0
    4.9409   -0.8956    0.1508 C   0  0  0  0  0  0  0  0  0  0  0  0
   -5.6436    0.0115    0.9045 C   0  0  0  0  0  0  0  0  0  0  0  0
   -5.3988    0.0523   -1.4987 C   0  0  0  0  0  0  0  0  0  0  0  0
   -6.2030    0.1622   -0.3643 C   0  0  0  0  0  0  0  0  0  0  0  0
    2.8045   -0.1657    1.1362 H   0  0  0  0  0  0  0  0  0  0  0  0
    3.1500    1.5356    1.1725 H   0  0  0  0  0  0  0  0  0  0  0  0
    3.2347    1.5653   -1.2369 H   0  0  0  0  0  0  0  0  0  0  0  0
    5.2410    1.2226    0.0102 H   0  0  0  0  0  0  0  0  0  0  0  0
   -2.5758    2.0690    0.0347 H   0  0  0  0  0  0  0  0  0  0  0  0
   -0.9247    3.8081    0.2330 H   0  0  0  0  0  0  0  0  0  0  0  0
   -2.3144   -2.8060   -0.0172 H   0  0  0  0  0  0  0  0  0  0  0  0
    5.3400    1.3084   -2.4869 H   0  0  0  0  0  0  0  0  0  0  0  0
    6.5207    0.1525   -1.8480 H   0  0  0  0  0  0  0  0  0  0  0  0
    5.0232   -0.4367   -2.5706 H   0  0  0  0  0  0  0  0  0  0  0  0
   -3.8581   -0.3642    2.0343 H   0  0  0  0  0  0  0  0  0  0  0  0
   -3.4211   -0.2913   -2.2575 H   0  0  0  0  0  0  0  0  0  0  0  0
   -6.2699    0.0973    1.7877 H   0  0  0  0  0  0  0  0  0  0  0  0
   -5.8346    0.1698   -2.4865 H   0  0  0  0  0  0  0  0  0  0  0  0
   -7.2648    0.3653   -0.4690 H   0  0  0  0  0  0  0  0  0  0  0  0
    1.1378   -3.5291    0.3197 H   0  0  0  0  0  0  0  0  0  0  0  0
    6.1912   -1.7265    1.3950 H   0  0  0  0  0  0  0  0  0  0  0  0
  1  8  1  0  0  0  0
  1 18  1  0  0  0  0
  2 13  2  0  0  0  0
  3 18  1  0  0  0  0
  3 41  1  0  0  0  0
  4 22  1  0  0  0  0
  4 42  1  0  0  0  0
  5 22  2  0  0  0  0
  6 10  1  0  0  0  0
  6 12  1  0  0  0  0
  6 28  1  0  0  0  0
  7  8  2  0  0  0  0
  7 10  1  0  0  0  0
  7 13  1  0  0  0  0
  8  9  1  0  0  0  0
  9 11  2  0  0  0  0
  9 14  1  0  0  0  0
 10 26  1  0  0  0  0
 10 27  1  0  0  0  0
 11 15  1  0  0  0  0
 11 17  1  0  0  0  0
 12 19  1  0  0  0  0
 12 22  1  0  0  0  0
 12 29  1  0  0  0  0
 13 16  1  0  0  0  0
 14 16  2  0  0  0  0
 14 30  1  0  0  0  0
 15 20  2  0  0  0  0
 15 21  1  0  0  0  0
 16 31  1  0  0  0  0
 17 18  2  0  0  0  0
 17 32  1  0  0  0  0
 19 33  1  0  0  0  0
 19 34  1  0  0  0  0
 19 35  1  0  0  0  0
 20 23  1  0  0  0  0
 20 36  1  0  0  0  0
 21 24  2  0  0  0  0
 21 37  1  0  0  0  0
 23 25  2  0  0  0  0
 23 38  1  0  0  0  0
 24 25  1  0  0  0  0
 24 39  1  0  0  0  0
 25 40  1  0  0  0  0
M  END
> <PUBCHEM_COMPOUND_CID>
854327

> <PUBCHEM_CONFORMER_RMSD>
0.8

> <PUBCHEM_CONFORMER_DIVERSEORDER>
1
5
9
3
6
2
10
8
7
4

> <PUBCHEM_MMFF94_PARTIAL_CHARGES>
34
1 -0.15
10 0.41
11 -0.03
12 0.33
13 0.54
14 -0.15
15 0.03
16 -0.14
17 -0.15
18 0.15
2 -0.57
20 -0.15
21 -0.15
22 0.66
23 -0.15
24 -0.15
25 -0.15
28 0.36
3 -0.53
30 0.15
31 0.15
32 0.15
36 0.15
37 0.15
38 0.15
39 0.15
4 -0.65
40 0.15
41 0.45
42 0.5
5 -0.57
6 -0.9
7 -0.12
8 0.08

> <PUBCHEM_EFFECTIVE_ROTOR_COUNT>
5

> <PUBCHEM_PHARMACOPHORE_FEATURES>
11
1 1 acceptor
1 2 acceptor
1 3 donor
1 4 acceptor
1 5 acceptor
1 6 cation
1 6 donor
3 4 5 22 anion
6 1 8 9 11 17 18 rings
6 15 20 21 23 24 25 rings
6 7 8 9 13 14 16 rings

> <PUBCHEM_HEAVY_ATOM_COUNT>
25

> <PUBCHEM_ATOM_DEF_STEREO_COUNT>
1

> <PUBCHEM_ATOM_UDEF_STEREO_COUNT>
0

> <PUBCHEM_BOND_DEF_STEREO_COUNT>
0

> <PUBCHEM_BOND_UDEF_STEREO_COUNT>
0

> <PUBCHEM_ISOTOPIC_ATOM_COUNT>
0

> <PUBCHEM_COMPONENT_COUNT>
1

> <PUBCHEM_CACTVS_TAUTO_COUNT>
1

> <PUBCHEM_CONFORMER_ID>
000D093700000001

> <PUBCHEM_MMFF94_ENERGY>
66.8852

> <PUBCHEM_FEATURE_SELFOVERLAP>
55.903

> <PUBCHEM_SHAPE_FINGERPRINT>
10693767 8 18114478828545273799
10906281 52 18188752977841851596
1100329 8 18338237063689363939
12011746 2 18411417310971011965
12236239 1 17561080297994319324
12553582 1 18336253575410291816
12760667 363 18335139829775678080
12788726 201 18335972151836480344
12838862 33 18339379504290398506
13140716 1 18265896856803576795
13533116 47 18336828684537934574
13862211 1 18408608067056547275
13911987 19 18342164562125895815
14790565 3 18338227271301254441
14931854 50 18340758321925780396
15099037 51 18410576162947861567
15183329 4 18408602560860916805
15420108 30 17246368373630883097
15475509 8 17969479649878119516
16752209 62 18411423951032675800
17349148 13 17749663017794960089
18222031 100 17894625951011433164
19141452 34 17749111058399131375
19319366 153 17918000477454858322
19591789 44 18337670939797023032
20028762 73 18041002821431000623
20642791 105 18126859419958286448
20832881 197 18335422365599112393
21033648 29 17916883343554888013
21236236 1 18336827606142648649
21279426 13 18267869565257814309
21285901 2 18115295791369417388
21307412 95 18042103436918028710
21521239 73 18042984086076900127
21641784 216 18129084770894040748
22182313 1 18198085645091851301
23402539 116 18259988179957685805
23536379 177 16487257681338205412
23559900 14 18263082115953887400
23569914 2 15406435397581953485
23569943 247 17678723755689920151
266924 87 18267586995180623949
3004659 81 18202282520494031686
3178227 256 18340193129846456123
335352 9 18410013217479292365
34797466 226 16128364965534163623
350125 39 18411697716469763105
404807 14 14929241050283415318
4058900 60 17916869153088151099
6138700 20 18409730698562167670
9971528 1 17968382251385056200

> <PUBCHEM_SHAPE_MULTIPOLES>
480.16
13.13
2.8
1.13
1.73
0.15
-0.46
-1.98
-3.02
1.41
0.61
-0.03
0.06
-0.27

> <PUBCHEM_SHAPE_SELFOVERLAP>
1042.748

> <PUBCHEM_SHAPE_VOLUME>
260.3

> <PUBCHEM_COORDINATE_TYPE>
2
5
10

$$$$

