17396129
  -OEChem-06241222542D

 50 52  0     1  0  0  0  0  0999 V2000
    8.0622    0.7306    0.0000 S   0  0  0  0  0  0  0  0  0  0  0  0
    9.0622    0.7306    0.0000 O   0  0  0  0  0  0  0  0  0  0  0  0
    7.0622    0.7306    0.0000 O   0  0  0  0  0  0  0  0  0  0  0  0
    6.3301   -3.2694    0.0000 O   0  0  0  0  0  0  0  0  0  0  0  0
    8.0622    1.7306    0.0000 N   0  0  0  0  0  0  0  0  0  0  0  0
    5.4641   -1.7694    0.0000 N   0  0  0  0  0  0  0  0  0  0  0  0
    8.8712    2.3184    0.0000 C   0  0  0  0  0  0  0  0  0  0  0  0
    7.2532    2.3184    0.0000 C   0  0  0  0  0  0  0  0  0  0  0  0
    8.5622    3.2694    0.0000 C   0  0  0  0  0  0  0  0  0  0  0  0
    7.5622    3.2694    0.0000 C   0  0  0  0  0  0  0  0  0  0  0  0
    8.0622   -0.2694    0.0000 C   0  0  0  0  0  0  0  0  0  0  0  0
    7.1962   -0.7694    0.0000 C   0  0  0  0  0  0  0  0  0  0  0  0
    8.9282   -0.7694    0.0000 C   0  0  0  0  0  0  0  0  0  0  0  0
    7.1962   -1.7694    0.0000 C   0  0  0  0  0  0  0  0  0  0  0  0
    8.0622   -2.2694    0.0000 C   0  0  0  0  0  0  0  0  0  0  0  0
    8.9282   -1.7694    0.0000 C   0  0  0  0  0  0  0  0  0  0  0  0
    4.5981   -2.2694    0.0000 C   0  0  3  0  0  0  0  0  0  0  0  0
    6.3301   -2.2694    0.0000 C   0  0  0  0  0  0  0  0  0  0  0  0
    8.0622   -3.2694    0.0000 C   0  0  0  0  0  0  0  0  0  0  0  0
    3.7320   -1.7694    0.0000 C   0  0  0  0  0  0  0  0  0  0  0  0
    4.5981   -3.2694    0.0000 C   0  0  0  0  0  0  0  0  0  0  0  0
    3.7320   -0.7694    0.0000 C   0  0  0  0  0  0  0  0  0  0  0  0
    2.8660   -2.2694    0.0000 C   0  0  0  0  0  0  0  0  0  0  0  0
    2.8660   -0.2694    0.0000 C   0  0  0  0  0  0  0  0  0  0  0  0
    2.0000   -1.7694    0.0000 C   0  0  0  0  0  0  0  0  0  0  0  0
    2.0000   -0.7694    0.0000 C   0  0  0  0  0  0  0  0  0  0  0  0
    6.6868    2.5705    0.0000 H   0  0  0  0  0  0  0  0  0  0  0  0
    6.9432    1.7814    0.0000 H   0  0  0  0  0  0  0  0  0  0  0  0
    9.1812    1.7814    0.0000 H   0  0  0  0  0  0  0  0  0  0  0  0
    9.4376    2.5705    0.0000 H   0  0  0  0  0  0  0  0  0  0  0  0
    7.6270    3.8860    0.0000 H   0  0  0  0  0  0  0  0  0  0  0  0
    6.9557    3.3983    0.0000 H   0  0  0  0  0  0  0  0  0  0  0  0
    9.1686    3.3983    0.0000 H   0  0  0  0  0  0  0  0  0  0  0  0
    8.4974    3.8860    0.0000 H   0  0  0  0  0  0  0  0  0  0  0  0
    6.6592   -0.4594    0.0000 H   0  0  0  0  0  0  0  0  0  0  0  0
    9.4651   -0.4594    0.0000 H   0  0  0  0  0  0  0  0  0  0  0  0
    9.4651   -2.0794    0.0000 H   0  0  0  0  0  0  0  0  0  0  0  0
    4.5981   -1.6494    0.0000 H   0  0  0  0  0  0  0  0  0  0  0  0
    5.4641   -1.1494    0.0000 H   0  0  0  0  0  0  0  0  0  0  0  0
    7.4422   -3.2694    0.0000 H   0  0  0  0  0  0  0  0  0  0  0  0
    8.0622   -3.8894    0.0000 H   0  0  0  0  0  0  0  0  0  0  0  0
    8.6822   -3.2694    0.0000 H   0  0  0  0  0  0  0  0  0  0  0  0
    3.9781   -3.2694    0.0000 H   0  0  0  0  0  0  0  0  0  0  0  0
    4.5981   -3.8894    0.0000 H   0  0  0  0  0  0  0  0  0  0  0  0
    5.2181   -3.2694    0.0000 H   0  0  0  0  0  0  0  0  0  0  0  0
    4.2690   -0.4594    0.0000 H   0  0  0  0  0  0  0  0  0  0  0  0
    2.8660   -2.8894    0.0000 H   0  0  0  0  0  0  0  0  0  0  0  0
    2.8660    0.3506    0.0000 H   0  0  0  0  0  0  0  0  0  0  0  0
    1.4631   -2.0794    0.0000 H   0  0  0  0  0  0  0  0  0  0  0  0
    1.4631   -0.4594    0.0000 H   0  0  0  0  0  0  0  0  0  0  0  0
  1  2  2  0  0  0  0
  1  3  2  0  0  0  0
  1  5  1  0  0  0  0
  1 11  1  0  0  0  0
  4 18  2  0  0  0  0
  5  7  1  0  0  0  0
  5  8  1  0  0  0  0
  6 17  1  0  0  0  0
  6 18  1  0  0  0  0
  6 39  1  0  0  0  0
  7  9  1  0  0  0  0
  7 29  1  0  0  0  0
  7 30  1  0  0  0  0
  8 10  1  0  0  0  0
  8 27  1  0  0  0  0
  8 28  1  0  0  0  0
  9 10  1  0  0  0  0
  9 33  1  0  0  0  0
  9 34  1  0  0  0  0
 10 31  1  0  0  0  0
 10 32  1  0  0  0  0
 11 12  2  0  0  0  0
 11 13  1  0  0  0  0
 12 14  1  0  0  0  0
 12 35  1  0  0  0  0
 13 16  2  0  0  0  0
 13 36  1  0  0  0  0
 14 15  2  0  0  0  0
 14 18  1  0  0  0  0
 15 16  1  0  0  0  0
 15 19  1  0  0  0  0
 16 37  1  0  0  0  0
 17 20  1  0  0  0  0
 17 21  1  0  0  0  0
 17 38  1  0  0  0  0
 19 40  1  0  0  0  0
 19 41  1  0  0  0  0
 19 42  1  0  0  0  0
 20 22  2  0  0  0  0
 20 23  1  0  0  0  0
 21 43  1  0  0  0  0
 21 44  1  0  0  0  0
 21 45  1  0  0  0  0
 22 24  1  0  0  0  0
 22 46  1  0  0  0  0
 23 25  2  0  0  0  0
 23 47  1  0  0  0  0
 24 26  2  0  0  0  0
 24 48  1  0  0  0  0
 25 26  1  0  0  0  0
 25 49  1  0  0  0  0
 26 50  1  0  0  0  0
M  END
> <PUBCHEM_COMPOUND_CID>
17396129

> <PUBCHEM_COMPOUND_CANONICALIZED>
1

> <PUBCHEM_CACTVS_COMPLEXITY>
574

> <PUBCHEM_CACTVS_HBOND_ACCEPTOR>
4

> <PUBCHEM_CACTVS_HBOND_DONOR>
1

> <PUBCHEM_CACTVS_ROTATABLE_BOND>
5

> <PUBCHEM_CACTVS_SUBSKEYS>
AAADceB7MABAAAAAAAAAAAAAAAAAAWAAAAAwYAAAAAAAAAABQAAAHgQQQAAADCjB2AQyAYLAAAKIAiFSEHDCABAkAAAIiJkIBMgIIDKAlRGEIQhglgCIiYcYiICOkAAAgAAQAAAgAAEAACAAAAAAAAAAAA==

> <PUBCHEM_IUPAC_OPENEYE_NAME>
2-methyl-N-(1-phenylethyl)-5-pyrrolidin-1-ylsulfonyl-benzamide

> <PUBCHEM_IUPAC_CAS_NAME>
2-methyl-N-(1-phenylethyl)-5-(1-pyrrolidinylsulfonyl)benzamide

> <PUBCHEM_IUPAC_NAME>
2-methyl-N-(1-phenylethyl)-5-pyrrolidin-1-ylsulfonylbenzamide

> <PUBCHEM_IUPAC_SYSTEMATIC_NAME>
2-methyl-N-(1-phenylethyl)-5-pyrrolidin-1-ylsulfonyl-benzamide

> <PUBCHEM_IUPAC_TRADITIONAL_NAME>
2-methyl-N-(1-phenylethyl)-5-pyrrolidinosulfonyl-benzamide

> <PUBCHEM_IUPAC_INCHI>
InChI=1S/C20H24N2O3S/c1-15-10-11-18(26(24,25)22-12-6-7-13-22)14-19(15)20(23)21-16(2)17-8-4-3-5-9-17/h3-5,8-11,14,16H,6-7,12-13H2,1-2H3,(H,21,23)

> <PUBCHEM_IUPAC_INCHIKEY>
CKUZLTHVMNMNJH-UHFFFAOYSA-N

> <PUBCHEM_XLOGP3_AA>
3.1

> <PUBCHEM_EXACT_MASS>
372.150764

> <PUBCHEM_MOLECULAR_FORMULA>
C20H24N2O3S

> <PUBCHEM_MOLECULAR_WEIGHT>
372.48116

> <PUBCHEM_OPENEYE_CAN_SMILES>
CC1=C(C=C(C=C1)S(=O)(=O)N2CCCC2)C(=O)NC(C)C3=CC=CC=C3

> <PUBCHEM_OPENEYE_ISO_SMILES>
CC1=C(C=C(C=C1)S(=O)(=O)N2CCCC2)C(=O)NC(C)C3=CC=CC=C3

> <PUBCHEM_CACTVS_TPSA>
74.9

> <PUBCHEM_MONOISOTOPIC_WEIGHT>
372.150764

> <PUBCHEM_TOTAL_CHARGE>
0

> <PUBCHEM_HEAVY_ATOM_COUNT>
26

> <PUBCHEM_ATOM_DEF_STEREO_COUNT>
0

> <PUBCHEM_ATOM_UDEF_STEREO_COUNT>
1

> <PUBCHEM_BOND_DEF_STEREO_COUNT>
0

> <PUBCHEM_BOND_UDEF_STEREO_COUNT>
0

> <PUBCHEM_ISOTOPIC_ATOM_COUNT>
0

> <PUBCHEM_COMPONENT_COUNT>
1

> <PUBCHEM_CACTVS_TAUTO_COUNT>
2

> <PUBCHEM_COORDINATE_TYPE>
1
5
255

> <PUBCHEM_BONDANNOTATIONS>
11  12  8
11  13  8
12  14  8
13  16  8
14  15  8
15  16  8
17  21  3
20  22  8
20  23  8
22  24  8
23  25  8
24  26  8
25  26  8

$$$$

