3781
  -OEChem-06251223403D

 39 41  0     1  0  0  0  0  0999 V2000
    2.6620   -1.0413    0.9034 S   0  0  0  0  0  0  0  0  0  0  0  0
    0.0269    0.0462   -0.3589 N   0  0  0  0  0  0  0  0  0  0  0  0
   -3.4493    1.3752    0.0176 N   0  0  0  0  0  0  0  0  0  0  0  0
    0.9393    2.2469   -0.7315 N   0  0  0  0  0  0  0  0  0  0  0  0
   -2.1866    0.7748    0.4519 C   0  0  1  0  0  0  0  0  0  0  0  0
   -1.2624    0.6248   -0.7608 C   0  0  0  0  0  0  0  0  0  0  0  0
    0.1140   -1.3607   -0.2241 C   0  0  0  0  0  0  0  0  0  0  0  0
   -1.5733    1.6549    1.5410 C   0  0  0  0  0  0  0  0  0  0  0  0
    1.1056    0.9699   -0.2791 C   0  0  0  0  0  0  0  0  0  0  0  0
    1.2602   -1.9711    0.3216 C   0  0  0  0  0  0  0  0  0  0  0  0
    2.3413    0.5758    0.2488 C   0  0  0  0  0  0  0  0  0  0  0  0
   -4.3789    1.4753    1.1414 C   0  0  0  0  0  0  0  0  0  0  0  0
   -4.0391    0.5929   -1.0673 C   0  0  0  0  0  0  0  0  0  0  0  0
   -0.9244   -2.2210   -0.6461 C   0  0  0  0  0  0  0  0  0  0  0  0
    1.3402   -3.3700    0.4521 C   0  0  0  0  0  0  0  0  0  0  0  0
    3.3894    1.5071    0.3031 C   0  0  0  0  0  0  0  0  0  0  0  0
   -0.8384   -3.6105   -0.5178 C   0  0  0  0  0  0  0  0  0  0  0  0
    0.2944   -4.1859    0.0347 C   0  0  0  0  0  0  0  0  0  0  0  0
    1.9702    3.1178   -0.6672 C   0  0  0  0  0  0  0  0  0  0  0  0
    3.2089    2.7990   -0.1627 C   0  0  0  0  0  0  0  0  0  0  0  0
   -2.3696   -0.2160    0.8895 H   0  0  0  0  0  0  0  0  0  0  0  0
   -1.6750    0.0351   -1.5820 H   0  0  0  0  0  0  0  0  0  0  0  0
   -1.1526    1.6113   -1.2310 H   0  0  0  0  0  0  0  0  0  0  0  0
   -1.4410    2.6886    1.2016 H   0  0  0  0  0  0  0  0  0  0  0  0
   -2.1680    1.6665    2.4598 H   0  0  0  0  0  0  0  0  0  0  0  0
   -0.5945    1.2804    1.8562 H   0  0  0  0  0  0  0  0  0  0  0  0
   -4.0812    2.2483    1.8563 H   0  0  0  0  0  0  0  0  0  0  0  0
   -4.5067    0.5227    1.6685 H   0  0  0  0  0  0  0  0  0  0  0  0
   -5.3692    1.7935    0.7924 H   0  0  0  0  0  0  0  0  0  0  0  0
   -3.5280    0.7573   -2.0208 H   0  0  0  0  0  0  0  0  0  0  0  0
   -5.0690    0.9198   -1.2588 H   0  0  0  0  0  0  0  0  0  0  0  0
   -4.0768   -0.4798   -0.8449 H   0  0  0  0  0  0  0  0  0  0  0  0
   -1.8493   -1.8545   -1.0788 H   0  0  0  0  0  0  0  0  0  0  0  0
    2.2228   -3.8405    0.8815 H   0  0  0  0  0  0  0  0  0  0  0  0
    4.3593    1.2331    0.7130 H   0  0  0  0  0  0  0  0  0  0  0  0
   -1.6614   -4.2373   -0.8487 H   0  0  0  0  0  0  0  0  0  0  0  0
    0.3665   -5.2640    0.1392 H   0  0  0  0  0  0  0  0  0  0  0  0
    1.7591    4.1117   -1.0466 H   0  0  0  0  0  0  0  0  0  0  0  0
    4.0100    3.5275   -0.1272 H   0  0  0  0  0  0  0  0  0  0  0  0
  1 10  1  0  0  0  0
  1 11  1  0  0  0  0
  2  6  1  0  0  0  0
  2  7  1  0  0  0  0
  2  9  1  0  0  0  0
  3  5  1  0  0  0  0
  3 12  1  0  0  0  0
  3 13  1  0  0  0  0
  4  9  1  0  0  0  0
  4 19  2  0  0  0  0
  5  6  1  0  0  0  0
  5  8  1  0  0  0  0
  5 21  1  0  0  0  0
  6 22  1  0  0  0  0
  6 23  1  0  0  0  0
  7 10  1  0  0  0  0
  7 14  2  0  0  0  0
  8 24  1  0  0  0  0
  8 25  1  0  0  0  0
  8 26  1  0  0  0  0
  9 11  2  0  0  0  0
 10 15  2  0  0  0  0
 11 16  1  0  0  0  0
 12 27  1  0  0  0  0
 12 28  1  0  0  0  0
 12 29  1  0  0  0  0
 13 30  1  0  0  0  0
 13 31  1  0  0  0  0
 13 32  1  0  0  0  0
 14 17  1  0  0  0  0
 14 33  1  0  0  0  0
 15 18  1  0  0  0  0
 15 34  1  0  0  0  0
 16 20  2  0  0  0  0
 16 35  1  0  0  0  0
 17 18  2  0  0  0  0
 17 36  1  0  0  0  0
 18 37  1  0  0  0  0
 19 20  1  0  0  0  0
 19 38  1  0  0  0  0
 20 39  1  0  0  0  0
M  END
> <PUBCHEM_COMPOUND_CID>
3781

> <PUBCHEM_CONFORMER_RMSD>
0.6

> <PUBCHEM_CONFORMER_DIVERSEORDER>
1
10
4
7
5
8
3
9
6
2

> <PUBCHEM_MMFF94_PARTIAL_CHARGES>
26
1 -0.2
10 0.1
11 0.1
12 0.27
13 0.27
14 -0.15
15 -0.15
16 -0.15
17 -0.15
18 -0.15
19 0.16
2 -0.57
20 -0.15
3 -0.81
33 0.15
34 0.15
35 0.15
36 0.15
37 0.15
38 0.15
39 0.15
4 -0.62
5 0.27
6 0.37
7 0.1
9 0.41

> <PUBCHEM_EFFECTIVE_ROTOR_COUNT>
3.4

> <PUBCHEM_PHARMACOPHORE_FEATURES>
6
1 2 cation
1 3 cation
1 4 acceptor
6 1 2 7 9 10 11 rings
6 4 9 11 16 19 20 rings
6 7 10 14 15 17 18 rings

> <PUBCHEM_HEAVY_ATOM_COUNT>
20

> <PUBCHEM_ATOM_DEF_STEREO_COUNT>
0

> <PUBCHEM_ATOM_UDEF_STEREO_COUNT>
1

> <PUBCHEM_BOND_DEF_STEREO_COUNT>
0

> <PUBCHEM_BOND_UDEF_STEREO_COUNT>
0

> <PUBCHEM_ISOTOPIC_ATOM_COUNT>
0

> <PUBCHEM_COMPONENT_COUNT>
1

> <PUBCHEM_CACTVS_TAUTO_COUNT>
1

> <PUBCHEM_CONFORMER_ID>
00000EC500000001

> <PUBCHEM_MMFF94_ENERGY>
72.7334

> <PUBCHEM_FEATURE_SELFOVERLAP>
30.478

> <PUBCHEM_SHAPE_FINGERPRINT>
10411042 1 17546451536558895887
104564 63 17834110845078521030
10493431 412 18409454678541803536
10967382 1 18267312112910147206
1100329 8 18409735062512561234
11578080 2 4803337097356366417
11582403 64 16410188505006528245
116883 192 16970274518041524357
11725454 13 16914853368646042277
12553582 1 17761769972262313119
12788726 201 17761778364591239346
12954195 1 17619891874217500972
13140716 1 18340217336176972378
13149001 5 17901624342479796270
13681431 1 17767662207550946892
138480 1 17978792642187637463
14178342 30 17979090288402591744
14790565 3 18266731562729717412
14866123 147 18267304236314705330
14955137 171 18268140041103166394
15906896 17 17972879163753082598
16752209 62 17977956687154682830
16945 1 18267877266118338446
17138139 8 17681585566098588471
19591789 44 18194401324051275126
20510252 161 17617096906589152592
20642791 105 17979660951452027659
20645477 70 18199478834341146693
20739085 24 18049717718069558026
21197605 99 18269822135465456787
21524375 3 18260268516694567381
2255824 54 18264764531435715927
2334 1 18268723722863530358
23419403 2 16259182733583787262
23557571 272 17683795515651084084
23558518 356 17910672064961886220
25147074 1 17627241057356314132
283562 15 17404021427546127696
3060560 45 18339357569412356996
3091708 16 9406330217750343091
3380486 145 17474665534376815680
350125 39 18268144266970852514
352729 6 18336265635014119506
474 4 18336827593193988561
5312544 6 18410863131478030703
5845 1 10893890285289017325
633830 44 18114452431607433933
6438718 38 17391894977895800703
6443956 14 17764586912473049773
7097593 13 17756982673060156905
7164475 11 17762336921025212644
7364860 26 18266454498040237313
81228 2 17473804148609911752
8272917 22 18265891535555679713

> <PUBCHEM_SHAPE_MULTIPOLES>
400.5
5.74
5.05
1.06
4.54
4.81
0.19
-5.54
0.75
-2.06
-0.36
0.56
-0.33
-1.24

> <PUBCHEM_SHAPE_SELFOVERLAP>
843.107

> <PUBCHEM_SHAPE_VOLUME>
227.2

> <PUBCHEM_COORDINATE_TYPE>
2
5
10

$$$$

