17395390
  -OEChem-06241222503D

 49 51  0     0  0  0  0  0  0999 V2000
    0.5952   -2.6047    0.8218 Cl  0  0  0  0  0  0  0  0  0  0  0  0
   -5.4537   -1.3740   -0.9320 O   0  0  0  0  0  0  0  0  0  0  0  0
    3.4029   -1.9511    1.0112 O   0  0  0  0  0  0  0  0  0  0  0  0
   -3.5035   -0.5345    0.0089 N   0  0  0  0  0  0  0  0  0  0  0  0
   -0.7518   -0.0782   -0.3928 N   0  0  0  0  0  0  0  0  0  0  0  0
    3.4029    0.1585   -0.0092 N   0  0  0  0  0  0  0  0  0  0  0  0
    2.6557    1.1973   -0.4994 N   0  0  0  0  0  0  0  0  0  0  0  0
   -2.6618   -1.6020   -0.5356 C   0  0  0  0  0  0  0  0  0  0  0  0
   -2.7925    0.4201    0.8688 C   0  0  0  0  0  0  0  0  0  0  0  0
   -1.4525   -1.0228   -1.2659 C   0  0  0  0  0  0  0  0  0  0  0  0
   -1.5809    1.0038    0.1435 C   0  0  0  0  0  0  0  0  0  0  0  0
   -4.8723   -0.5240   -0.2528 C   0  0  0  0  0  0  0  0  0  0  0  0
    0.5971   -0.1298   -0.1958 C   0  0  0  0  0  0  0  0  0  0  0  0
   -5.6641    0.6126    0.3430 C   0  0  0  0  0  0  0  0  0  0  0  0
   -7.1332    0.4888   -0.0270 C   0  0  0  0  0  0  0  0  0  0  0  0
    1.3307   -1.1243    0.3078 C   0  0  0  0  0  0  0  0  0  0  0  0
    1.3777    1.0543   -0.5752 C   0  0  0  0  0  0  0  0  0  0  0  0
   -7.9968    1.5807    0.6091 C   0  0  0  0  0  0  0  0  0  0  0  0
    2.8126   -1.0192    0.4653 C   0  0  0  0  0  0  0  0  0  0  0  0
   -9.4695    1.3835    0.2846 C   0  0  0  0  0  0  0  0  0  0  0  0
    4.8215    0.4225   -0.0193 C   0  0  0  0  0  0  0  0  0  0  0  0
    5.7261   -0.6314   -0.1492 C   0  0  0  0  0  0  0  0  0  0  0  0
    5.2885    1.7316    0.1001 C   0  0  0  0  0  0  0  0  0  0  0  0
    7.0974   -0.3765   -0.1594 C   0  0  0  0  0  0  0  0  0  0  0  0
    6.6599    1.9864    0.0897 C   0  0  0  0  0  0  0  0  0  0  0  0
    7.5642    0.9323   -0.0400 C   0  0  0  0  0  0  0  0  0  0  0  0
   -3.2338   -2.2399   -1.2167 H   0  0  0  0  0  0  0  0  0  0  0  0
   -2.3500   -2.2235    0.3111 H   0  0  0  0  0  0  0  0  0  0  0  0
   -3.4379    1.2316    1.2089 H   0  0  0  0  0  0  0  0  0  0  0  0
   -2.4708   -0.1356    1.7582 H   0  0  0  0  0  0  0  0  0  0  0  0
   -0.8006   -1.8323   -1.6130 H   0  0  0  0  0  0  0  0  0  0  0  0
   -1.7859   -0.4850   -2.1626 H   0  0  0  0  0  0  0  0  0  0  0  0
   -1.9094    1.6460   -0.6829 H   0  0  0  0  0  0  0  0  0  0  0  0
   -1.0170    1.6311    0.8444 H   0  0  0  0  0  0  0  0  0  0  0  0
   -5.2687    1.5622   -0.0337 H   0  0  0  0  0  0  0  0  0  0  0  0
   -5.5583    0.5845    1.4331 H   0  0  0  0  0  0  0  0  0  0  0  0
   -7.5132   -0.4906    0.2922 H   0  0  0  0  0  0  0  0  0  0  0  0
   -7.2482    0.5291   -1.1180 H   0  0  0  0  0  0  0  0  0  0  0  0
    0.8003    1.9014   -0.9819 H   0  0  0  0  0  0  0  0  0  0  0  0
   -7.6733    2.5647    0.2509 H   0  0  0  0  0  0  0  0  0  0  0  0
   -7.8659    1.5715    1.6974 H   0  0  0  0  0  0  0  0  0  0  0  0
  -10.0682    2.1756    0.7452 H   0  0  0  0  0  0  0  0  0  0  0  0
   -9.8299    0.4217    0.6633 H   0  0  0  0  0  0  0  0  0  0  0  0
   -9.6402    1.4134   -0.7963 H   0  0  0  0  0  0  0  0  0  0  0  0
    5.4017   -1.6585   -0.2824 H   0  0  0  0  0  0  0  0  0  0  0  0
    4.6119    2.5738    0.2176 H   0  0  0  0  0  0  0  0  0  0  0  0
    7.8018   -1.1959   -0.2691 H   0  0  0  0  0  0  0  0  0  0  0  0
    7.0241    3.0052    0.1856 H   0  0  0  0  0  0  0  0  0  0  0  0
    8.6320    1.1310   -0.0494 H   0  0  0  0  0  0  0  0  0  0  0  0
  1 16  1  0  0  0  0
  2 12  2  0  0  0  0
  3 19  2  0  0  0  0
  4  8  1  0  0  0  0
  4  9  1  0  0  0  0
  4 12  1  0  0  0  0
  5 10  1  0  0  0  0
  5 11  1  0  0  0  0
  5 13  1  0  0  0  0
  6  7  1  0  0  0  0
  6 19  1  0  0  0  0
  6 21  1  0  0  0  0
  7 17  2  0  0  0  0
  8 10  1  0  0  0  0
  8 27  1  0  0  0  0
  8 28  1  0  0  0  0
  9 11  1  0  0  0  0
  9 29  1  0  0  0  0
  9 30  1  0  0  0  0
 10 31  1  0  0  0  0
 10 32  1  0  0  0  0
 11 33  1  0  0  0  0
 11 34  1  0  0  0  0
 12 14  1  0  0  0  0
 13 16  2  0  0  0  0
 13 17  1  0  0  0  0
 14 15  1  0  0  0  0
 14 35  1  0  0  0  0
 14 36  1  0  0  0  0
 15 18  1  0  0  0  0
 15 37  1  0  0  0  0
 15 38  1  0  0  0  0
 16 19  1  0  0  0  0
 17 39  1  0  0  0  0
 18 20  1  0  0  0  0
 18 40  1  0  0  0  0
 18 41  1  0  0  0  0
 20 42  1  0  0  0  0
 20 43  1  0  0  0  0
 20 44  1  0  0  0  0
 21 22  2  0  0  0  0
 21 23  1  0  0  0  0
 22 24  1  0  0  0  0
 22 45  1  0  0  0  0
 23 25  2  0  0  0  0
 23 46  1  0  0  0  0
 24 26  2  0  0  0  0
 24 47  1  0  0  0  0
 25 26  1  0  0  0  0
 25 48  1  0  0  0  0
 26 49  1  0  0  0  0
M  END
> <PUBCHEM_COMPOUND_CID>
17395390

> <PUBCHEM_CONFORMER_RMSD>
0.8

> <PUBCHEM_CONFORMER_DIVERSEORDER>
1
7
15
51
43
24
35
45
20
30
42
14
52
37
38
5
46
21
40
48
49
4
23
13
3
25
36
26
47
22
9
19
39
16
18
28
50
11
32
2
10
33
6
34
8
44
17
31
41
27
12
29

> <PUBCHEM_MMFF94_PARTIAL_CHARGES>
29
1 -0.14
10 0.37
11 0.37
12 0.57
13 0.11
14 0.06
16 0.15
17 0.38
19 0.62
2 -0.57
21 0.12
22 -0.15
23 -0.15
24 -0.15
25 -0.15
26 -0.15
3 -0.57
39 0.06
4 -0.66
45 0.15
46 0.15
47 0.15
48 0.15
49 0.15
5 -0.84
6 -0.11
7 -0.51
8 0.3
9 0.3

> <PUBCHEM_EFFECTIVE_ROTOR_COUNT>
7.2

> <PUBCHEM_PHARMACOPHORE_FEATURES>
8
1 2 acceptor
1 20 hydrophobe
1 3 acceptor
1 5 cation
1 7 acceptor
6 21 22 23 24 25 26 rings
6 4 5 8 9 10 11 rings
6 6 7 13 16 17 19 rings

> <PUBCHEM_HEAVY_ATOM_COUNT>
26

> <PUBCHEM_ATOM_DEF_STEREO_COUNT>
0

> <PUBCHEM_ATOM_UDEF_STEREO_COUNT>
0

> <PUBCHEM_BOND_DEF_STEREO_COUNT>
0

> <PUBCHEM_BOND_UDEF_STEREO_COUNT>
0

> <PUBCHEM_ISOTOPIC_ATOM_COUNT>
0

> <PUBCHEM_COMPONENT_COUNT>
1

> <PUBCHEM_CACTVS_TAUTO_COUNT>
1

> <PUBCHEM_CONFORMER_ID>
01096EBE00000001

> <PUBCHEM_MMFF94_ENERGY>
77.7686

> <PUBCHEM_FEATURE_SELFOVERLAP>
40.594

> <PUBCHEM_SHAPE_FINGERPRINT>
10 15 17989207062435213409
10162869 55 18131354073595482375
106641 1 11815895640034435846
11135609 127 16877954785305830256
11315181 36 17312818248034379443
11524674 6 16200430247927510177
11638347 137 15841556297152290048
12236239 1 18334014969103325662
12838862 33 18340503204409432233
13073987 5 15912779391618250485
13685833 64 8142088667306290688
14251764 18 18410014330339980567
14251764 46 18113618997208071981
14394314 77 18411418415110410161
15461852 350 17240208708266149037
1577012 14 18408329891237511055
15840311 113 18411978053243061532
16120349 18 18412266116578291101
20505436 4 18334863827068227791
21150785 3 14490192722251594169
21792934 111 18041006154874131688
22224240 67 17847061069150642987
23536379 177 17749105574522427126
23559900 14 18263370191614577384
249057 3 6122493610780256437
3178227 256 17060618889067576364
335352 9 18410292484436715629
34797466 226 16733257947046857452
350125 39 18411140229408553316
3633792 109 17895185653668761879
4073 2 18130501938044318787
4093350 32 18410574019960284442
4340502 62 15985108509536536834
5104073 3 17416981692624013928
5385378 56 17846222189260920642
54039377 194 10015572906017633553
5758199 1 18272369763023179323
6328613 192 18333449842118495473
67123 10 18409729561397712353

> <PUBCHEM_SHAPE_MULTIPOLES>
505.27
24.28
2.02
0.86
24.52
0.48
-0.03
-14
1.6
-0.64
0.29
0.31
0.22
-1.2

> <PUBCHEM_SHAPE_SELFOVERLAP>
1051.938

> <PUBCHEM_SHAPE_VOLUME>
286

> <PUBCHEM_COORDINATE_TYPE>
2
5
10

$$$$

