8634
  -OEChem-06261202582D

 46 46  0     1  0  0  0  0  0999 V2000
    3.0929    2.3479    0.0000 O   0  0  0  0  0  0  0  0  0  0  0  0
    0.5897    1.4000    0.0000 O   0  0  0  0  0  0  0  0  0  0  0  0
    0.1738    3.3563    0.0000 O   0  0  0  0  0  0  0  0  0  0  0  0
    1.6249   10.7727    0.0000 O   0  0  0  0  0  0  0  0  0  0  0  0
    2.0051    0.0000    0.0000 O   0  0  0  0  0  0  0  0  0  0  0  0
    4.1807    0.0000    0.0000 O   0  0  0  0  0  0  0  0  0  0  0  0
    4.8530    2.0691    0.0000 O   0  0  0  0  0  0  0  0  0  0  0  0
    0.7589    7.2727    0.0000 O   0  0  0  0  0  0  0  0  0  0  0  0
    2.4909    6.2727    0.0000 O   0  0  0  0  0  0  0  0  0  0  0  0
    3.3570   11.7727    0.0000 N   0  0  0  0  0  0  0  0  0  0  0  0
    2.2839    1.7601    0.0000 C   0  0  3  0  0  0  0  0  0  0  0  0
    1.3328    2.0691    0.0000 C   0  0  3  0  0  0  0  0  0  0  0  0
    2.5929    0.8090    0.0000 C   0  0  0  0  0  0  0  0  0  0  0  0
    1.1249    3.0472    0.0000 C   0  0  0  0  0  0  0  0  0  0  0  0
    2.4909   10.2727    0.0000 C   0  0  3  0  0  0  0  0  0  0  0  0
    3.5929    0.8090    0.0000 C   0  0  0  0  0  0  0  0  0  0  0  0
    2.4909    9.2727    0.0000 C   0  0  0  0  0  0  0  0  0  0  0  0
    3.3570   10.7727    0.0000 C   0  0  0  0  0  0  0  0  0  0  0  0
    3.9019    1.7601    0.0000 C   0  0  0  0  0  0  0  0  0  0  0  0
    1.6249    8.7727    0.0000 C   0  0  0  0  0  0  0  0  0  0  0  0
    3.3570    8.7727    0.0000 C   0  0  0  0  0  0  0  0  0  0  0  0
    1.6249    7.7727    0.0000 C   0  0  0  0  0  0  0  0  0  0  0  0
    3.3570    7.7727    0.0000 C   0  0  0  0  0  0  0  0  0  0  0  0
    2.4909    7.2727    0.0000 C   0  0  0  0  0  0  0  0  0  0  0  0
    4.2230   12.2727    0.0000 C   0  0  0  0  0  0  0  0  0  0  0  0
    2.1869    2.3724    0.0000 H   0  0  0  0  0  0  0  0  0  0  0  0
    1.4617    1.4626    0.0000 H   0  0  0  0  0  0  0  0  0  0  0  0
    1.7445    3.0689    0.0000 H   0  0  0  0  0  0  0  0  0  0  0  0
    1.2112    3.6612    0.0000 H   0  0  0  0  0  0  0  0  0  0  0  0
    1.9540    9.9627    0.0000 H   0  0  0  0  0  0  0  0  0  0  0  0
    3.5690   10.1901    0.0000 H   0  0  0  0  0  0  0  0  0  0  0  0
    3.9675   10.8804    0.0000 H   0  0  0  0  0  0  0  0  0  0  0  0
    0.0000    1.5916    0.0000 H   0  0  0  0  0  0  0  0  0  0  0  0
    1.0880    9.0827    0.0000 H   0  0  0  0  0  0  0  0  0  0  0  0
    3.8939    9.0827    0.0000 H   0  0  0  0  0  0  0  0  0  0  0  0
    2.8200   12.0827    0.0000 H   0  0  0  0  0  0  0  0  0  0  0  0
    3.8939    7.4627    0.0000 H   0  0  0  0  0  0  0  0  0  0  0  0
    0.0449    3.9627    0.0000 H   0  0  0  0  0  0  0  0  0  0  0  0
    1.6249   11.3927    0.0000 H   0  0  0  0  0  0  0  0  0  0  0  0
    4.7973    0.0648    0.0000 H   0  0  0  0  0  0  0  0  0  0  0  0
    4.5330   11.7358    0.0000 H   0  0  0  0  0  0  0  0  0  0  0  0
    4.7599   12.5827    0.0000 H   0  0  0  0  0  0  0  0  0  0  0  0
    3.9130   12.8096    0.0000 H   0  0  0  0  0  0  0  0  0  0  0  0
    4.9818    2.6755    0.0000 H   0  0  0  0  0  0  0  0  0  0  0  0
    0.2219    7.5827    0.0000 H   0  0  0  0  0  0  0  0  0  0  0  0
    3.0279    5.9627    0.0000 H   0  0  0  0  0  0  0  0  0  0  0  0
  1 11  1  0  0  0  0
  1 19  1  0  0  0  0
  2 12  1  0  0  0  0
  2 33  1  0  0  0  0
  3 14  1  0  0  0  0
  3 38  1  0  0  0  0
  4 15  1  0  0  0  0
  4 39  1  0  0  0  0
  5 13  2  0  0  0  0
  6 16  1  0  0  0  0
  6 40  1  0  0  0  0
  7 19  1  0  0  0  0
  7 44  1  0  0  0  0
  8 22  1  0  0  0  0
  8 45  1  0  0  0  0
  9 24  1  0  0  0  0
  9 46  1  0  0  0  0
 10 18  1  0  0  0  0
 10 25  1  0  0  0  0
 10 36  1  0  0  0  0
 11 12  1  0  0  0  0
 11 13  1  0  0  0  0
 11 26  1  0  0  0  0
 12 14  1  0  0  0  0
 12 27  1  0  0  0  0
 13 16  1  0  0  0  0
 14 28  1  0  0  0  0
 14 29  1  0  0  0  0
 15 17  1  0  0  0  0
 15 18  1  0  0  0  0
 15 30  1  0  0  0  0
 16 19  2  0  0  0  0
 17 20  2  0  0  0  0
 17 21  1  0  0  0  0
 18 31  1  0  0  0  0
 18 32  1  0  0  0  0
 20 22  1  0  0  0  0
 20 34  1  0  0  0  0
 21 23  2  0  0  0  0
 21 35  1  0  0  0  0
 22 24  2  0  0  0  0
 23 24  1  0  0  0  0
 23 37  1  0  0  0  0
 25 41  1  0  0  0  0
 25 42  1  0  0  0  0
 25 43  1  0  0  0  0
M  END
> <PUBCHEM_COMPOUND_CID>
8634

> <PUBCHEM_COMPOUND_CANONICALIZED>
1

> <PUBCHEM_CACTVS_COMPLEXITY>
386

> <PUBCHEM_CACTVS_HBOND_ACCEPTOR>
10

> <PUBCHEM_CACTVS_HBOND_DONOR>
8

> <PUBCHEM_CACTVS_ROTATABLE_BOND>
5

> <PUBCHEM_CACTVS_SUBSKEYS>
AAADceByPAAAAAAAAAAAAAAAAAAAAQAAAAAwAAAAAAAAAAABAAAAHgAQCAAADBThmAYyDoLABgCIAqBSAAICCAAgIAAIiIFOiMgbNjaCkReEcAEl8BEfmAfS8LYOIAABAAAAQABAAAIAAACAAAAAAAAAAA==

> <PUBCHEM_IUPAC_OPENEYE_NAME>
2-(1,2-dihydroxyethyl)-4,5-dihydroxy-furan-3-one; 4-[1-hydroxy-2-(methylamino)ethyl]benzene-1,2-diol

> <PUBCHEM_IUPAC_CAS_NAME>
2-(1,2-dihydroxyethyl)-4,5-dihydroxy-3-furanone; 4-[1-hydroxy-2-(methylamino)ethyl]benzene-1,2-diol

> <PUBCHEM_IUPAC_NAME>
2-(1,2-dihydroxyethyl)-4,5-dihydroxyfuran-3-one; 4-[1-hydroxy-2-(methylamino)ethyl]benzene-1,2-diol

> <PUBCHEM_IUPAC_SYSTEMATIC_NAME>
2-[1,2-bis(oxidanyl)ethyl]-4,5-bis(oxidanyl)furan-3-one; 4-[2-(methylamino)-1-oxidanyl-ethyl]benzene-1,2-diol

> <PUBCHEM_IUPAC_TRADITIONAL_NAME>
2-(1,2-dihydroxyethyl)-4,5-dihydroxy-furan-3-one; 4-[1-hydroxy-2-(methylamino)ethyl]pyrocatechol

> <PUBCHEM_IUPAC_INCHI>
InChI=1S/C9H13NO3.C6H8O6/c1-10-5-9(13)6-2-3-7(11)8(12)4-6;7-1-2(8)5-3(9)4(10)6(11)12-5/h2-4,9-13H,5H2,1H3;2,5,7-8,10-11H,1H2

> <PUBCHEM_IUPAC_INCHIKEY>
HNXCWPWKTGMFNY-UHFFFAOYSA-N

> <PUBCHEM_EXACT_MASS>
359.121631

> <PUBCHEM_MOLECULAR_FORMULA>
C15H21NO9

> <PUBCHEM_MOLECULAR_WEIGHT>
359.32854

> <PUBCHEM_OPENEYE_CAN_SMILES>
CNCC(C1=CC(=C(C=C1)O)O)O.C(C(C1C(=O)C(=C(O1)O)O)O)O

> <PUBCHEM_OPENEYE_ISO_SMILES>
CNCC(C1=CC(=C(C=C1)O)O)O.C(C(C1C(=O)C(=C(O1)O)O)O)O

> <PUBCHEM_CACTVS_TPSA>
180

> <PUBCHEM_MONOISOTOPIC_WEIGHT>
359.121631

> <PUBCHEM_TOTAL_CHARGE>
0

> <PUBCHEM_HEAVY_ATOM_COUNT>
25

> <PUBCHEM_ATOM_DEF_STEREO_COUNT>
0

> <PUBCHEM_ATOM_UDEF_STEREO_COUNT>
3

> <PUBCHEM_BOND_DEF_STEREO_COUNT>
0

> <PUBCHEM_BOND_UDEF_STEREO_COUNT>
0

> <PUBCHEM_ISOTOPIC_ATOM_COUNT>
0

> <PUBCHEM_COMPONENT_COUNT>
2

> <PUBCHEM_CACTVS_TAUTO_COUNT>
80

> <PUBCHEM_COORDINATE_TYPE>
1
5
255

> <PUBCHEM_BONDANNOTATIONS>
11  13  3
17  20  8
17  21  8
12  2  3
20  22  8
21  23  8
22  24  8
23  24  8
15  4  3

$$$$

