17395932
  -OEChem-06241222533D

 32 35  0     0  0  0  0  0  0999 V2000
   -1.9025    2.0688   -0.6719 S   0  0  0  0  0  0  0  0  0  0  0  0
   -6.7902    1.0981    0.5935 F   0  0  0  0  0  0  0  0  0  0  0  0
    7.1966    0.3076    0.6262 O   0  0  0  0  0  0  0  0  0  0  0  0
    4.9577    1.0729    0.4822 N   0  0  0  0  0  0  0  0  0  0  0  0
    5.3929   -1.1124    0.0356 N   0  0  0  0  0  0  0  0  0  0  0  0
   -0.9708   -0.2658   -0.0684 N   0  0  0  0  0  0  0  0  0  0  0  0
    3.7560    0.4408    0.1628 C   0  0  0  0  0  0  0  0  0  0  0  0
    4.0225   -0.8975   -0.1107 C   0  0  0  0  0  0  0  0  0  0  0  0
    1.4580    0.0784   -0.2510 C   0  0  0  0  0  0  0  0  0  0  0  0
    2.4833    0.9616    0.1017 C   0  0  0  0  0  0  0  0  0  0  0  0
    0.1057    0.5585   -0.3315 C   0  0  0  0  0  0  0  0  0  0  0  0
    3.0304   -1.7856   -0.4597 C   0  0  0  0  0  0  0  0  0  0  0  0
    1.7285   -1.2798   -0.5285 C   0  0  0  0  0  0  0  0  0  0  0  0
    6.0087    0.1154    0.4098 C   0  0  0  0  0  0  0  0  0  0  0  0
   -2.0802    0.4237   -0.2170 C   0  0  0  0  0  0  0  0  0  0  0  0
   -0.2004    1.8586   -0.6751 C   0  0  0  0  0  0  0  0  0  0  0  0
   -3.4123   -0.1008   -0.0300 C   0  0  0  0  0  0  0  0  0  0  0  0
   -4.4790    0.7694    0.1958 C   0  0  0  0  0  0  0  0  0  0  0  0
   -3.6327   -1.4774   -0.0755 C   0  0  0  0  0  0  0  0  0  0  0  0
   -5.7660    0.2629    0.3761 C   0  0  0  0  0  0  0  0  0  0  0  0
   -4.9198   -1.9838    0.1048 C   0  0  0  0  0  0  0  0  0  0  0  0
   -5.9865   -1.1137    0.3307 C   0  0  0  0  0  0  0  0  0  0  0  0
    2.3135    2.0062    0.3377 H   0  0  0  0  0  0  0  0  0  0  0  0
    3.2391   -2.8269   -0.6736 H   0  0  0  0  0  0  0  0  0  0  0  0
    0.9264   -1.9605   -0.8073 H   0  0  0  0  0  0  0  0  0  0  0  0
    5.0523    2.0516    0.7241 H   0  0  0  0  0  0  0  0  0  0  0  0
    5.8593   -2.0002   -0.1040 H   0  0  0  0  0  0  0  0  0  0  0  0
    0.4498    2.6821   -0.9360 H   0  0  0  0  0  0  0  0  0  0  0  0
   -4.3730    1.8472    0.2686 H   0  0  0  0  0  0  0  0  0  0  0  0
   -2.8181   -2.1753   -0.2532 H   0  0  0  0  0  0  0  0  0  0  0  0
   -5.0919   -3.0556    0.0688 H   0  0  0  0  0  0  0  0  0  0  0  0
   -6.9886   -1.5078    0.4711 H   0  0  0  0  0  0  0  0  0  0  0  0
  1 15  1  0  0  0  0
  1 16  1  0  0  0  0
  2 20  1  0  0  0  0
  3 14  2  0  0  0  0
  4  7  1  0  0  0  0
  4 14  1  0  0  0  0
  4 26  1  0  0  0  0
  5  8  1  0  0  0  0
  5 14  1  0  0  0  0
  5 27  1  0  0  0  0
  6 11  1  0  0  0  0
  6 15  2  0  0  0  0
  7  8  2  0  0  0  0
  7 10  1  0  0  0  0
  8 12  1  0  0  0  0
  9 10  2  0  0  0  0
  9 11  1  0  0  0  0
  9 13  1  0  0  0  0
 10 23  1  0  0  0  0
 11 16  2  0  0  0  0
 12 13  2  0  0  0  0
 12 24  1  0  0  0  0
 13 25  1  0  0  0  0
 15 17  1  0  0  0  0
 16 28  1  0  0  0  0
 17 18  2  0  0  0  0
 17 19  1  0  0  0  0
 18 20  1  0  0  0  0
 18 29  1  0  0  0  0
 19 21  2  0  0  0  0
 19 30  1  0  0  0  0
 20 22  2  0  0  0  0
 21 22  1  0  0  0  0
 21 31  1  0  0  0  0
 22 32  1  0  0  0  0
M  END
> <PUBCHEM_COMPOUND_CID>
17395932

> <PUBCHEM_CONFORMER_RMSD>
0.6

> <PUBCHEM_CONFORMER_DIVERSEORDER>
1
4
12
2
8
10
7
3
6
9
5
11

> <PUBCHEM_MMFF94_PARTIAL_CHARGES>
32
1 -0.08
10 -0.15
11 0.17
12 -0.15
13 -0.15
14 0.69
15 0.33
16 -0.11
17 0.05
18 -0.15
19 -0.15
2 -0.19
20 0.19
21 -0.15
22 -0.15
23 0.15
24 0.15
25 0.15
26 0.37
27 0.37
28 0.15
29 0.15
3 -0.57
30 0.15
31 0.15
32 0.15
4 -0.55
5 -0.55
6 -0.57
7 0.12
8 0.12
9 0.05

> <PUBCHEM_EFFECTIVE_ROTOR_COUNT>
2

> <PUBCHEM_PHARMACOPHORE_FEATURES>
8
1 3 acceptor
1 4 donor
1 5 donor
1 6 acceptor
5 1 6 11 15 16 rings
5 4 5 7 8 14 rings
6 17 18 19 20 21 22 rings
6 7 8 9 10 12 13 rings

> <PUBCHEM_HEAVY_ATOM_COUNT>
22

> <PUBCHEM_ATOM_DEF_STEREO_COUNT>
0

> <PUBCHEM_ATOM_UDEF_STEREO_COUNT>
0

> <PUBCHEM_BOND_DEF_STEREO_COUNT>
0

> <PUBCHEM_BOND_UDEF_STEREO_COUNT>
0

> <PUBCHEM_ISOTOPIC_ATOM_COUNT>
0

> <PUBCHEM_COMPONENT_COUNT>
1

> <PUBCHEM_CACTVS_TAUTO_COUNT>
3

> <PUBCHEM_CONFORMER_ID>
010970DC00000001

> <PUBCHEM_MMFF94_ENERGY>
66.5238

> <PUBCHEM_FEATURE_SELFOVERLAP>
40.756

> <PUBCHEM_SHAPE_FINGERPRINT>
10 15 18338527348709498928
10906281 52 18200573839862270974
11045977 3 17967536731269321203
11089746 13 17022908938949149577
11315181 36 18333731295873434313
11524674 6 17167864153576616591
11578080 2 16735534962597713986
11963148 33 18342745087619300866
12107183 9 17540524047792652939
12166972 35 16702301248215594700
12236239 1 17749108893936028543
12516196 113 18260266343609719161
12596602 18 17385721378977352659
12616971 3 17346590855640682951
12670543 26 10015590514602272944
12838862 33 18341911696648867439
13288520 33 18272370854625159493
13402501 40 18410573980904404930
13533116 47 5039682421973428868
13668630 136 14333407874009048168
13685833 64 18272083869290025107
1420 363 18412261740101146246
14341114 176 18334572473143691004
14849402 71 18115871789830025776
15048467 5 17676488358413255721
15196674 1 18410572873208894567
15461852 350 17240487992709597701
15475509 35 17416989351726694160
15716309 27 18273216400167209338
15927050 60 17541661613189984300
17093844 174 18343586244458030809
17349148 13 16988840600957976486
17492 89 18196941195848692906
1813 80 17561359591375609645
19141452 34 18409165502952527143
19489759 90 16774083989810368261
21130935 74 18333730238621188562
21150785 3 13614515264826373930
21267235 1 18341606018898441134
21623969 137 18186799184133753798
22122407 14 16443338746255748699
22224240 67 17894918408003170438
23035841 295 18131353007283043418
23402539 116 18201725045774476439
23522609 53 18056167319997962964
23559900 14 18335426733987034457
239999 70 18259977198206774006
26918003 58 18260265252846047665
29717793 49 13686301305325439538
3004659 81 17917709089070473076
335352 9 18341894096284488397
3383291 50 17988354859531131043
350125 39 18408886213877091948
3545911 37 18335420183623564652
4073 2 18272646801320103834
4214541 1 18410009953568034133
4325135 7 18201716245961545620
5104073 3 18263652934271071056
54446538 1 9007055760168878659
559249 180 18342176657761349891

> <PUBCHEM_SHAPE_MULTIPOLES>
428.51
17.01
1.88
0.74
2.38
0.02
0.03
2.64
-4.53
-1.11
0.29
0.04
-0.07
0.42

> <PUBCHEM_SHAPE_SELFOVERLAP>
955.588

> <PUBCHEM_SHAPE_VOLUME>
231.1

> <PUBCHEM_COORDINATE_TYPE>
2
5
10

$$$$

