5088
  -OEChem-06261200302D

 63 64  0     1  0  0  0  0  0999 V2000
    7.1962   -2.0000    0.0000 S   0  0  0  0  0  0  0  0  0  0  0  0
    2.8660   -6.5000    0.0000 O   0  0  0  0  0  0  0  0  0  0  0  0
    2.0000   -5.0000    0.0000 O   0  0  0  0  0  0  0  0  0  0  0  0
    5.4641   -4.0000    0.0000 O   0  0  0  0  0  0  0  0  0  0  0  0
    4.5981   -0.5000    0.0000 O   0  0  0  0  0  0  0  0  0  0  0  0
    3.7320   -4.0000    0.0000 N   0  0  0  0  0  0  0  0  0  0  0  0
    6.3301    0.5000    0.0000 N   0  0  0  0  0  0  0  0  0  0  0  0
    5.4641   -2.0000    0.0000 N   0  0  0  0  0  0  0  0  0  0  0  0
    4.5981   -5.5000    0.0000 C   0  0  0  0  0  0  0  0  0  0  0  0
    3.7320   -5.0000    0.0000 C   0  0  3  0  0  0  0  0  0  0  0  0
    4.5981   -6.5000    0.0000 C   0  0  0  0  0  0  0  0  0  0  0  0
    5.4641   -5.0000    0.0000 C   0  0  0  0  0  0  0  0  0  0  0  0
    6.3301   -0.5000    0.0000 C   0  0  3  0  0  0  0  0  0  0  0  0
    2.8660   -5.5000    0.0000 C   0  0  0  0  0  0  0  0  0  0  0  0
    4.5981   -3.5000    0.0000 C   0  0  0  0  0  0  0  0  0  0  0  0
    7.1962    1.0000    0.0000 C   0  0  0  0  0  0  0  0  0  0  0  0
    4.5981   -2.5000    0.0000 C   0  0  0  0  0  0  0  0  0  0  0  0
    5.4641   -1.0000    0.0000 C   0  0  0  0  0  0  0  0  0  0  0  0
    7.1962   -1.0000    0.0000 C   0  0  0  0  0  0  0  0  0  0  0  0
    7.1962    2.0000    0.0000 C   0  0  0  0  0  0  0  0  0  0  0  0
    8.0622    2.5000    0.0000 C   0  0  0  0  0  0  0  0  0  0  0  0
    6.3301    2.5000    0.0000 C   0  0  0  0  0  0  0  0  0  0  0  0
    7.1962    4.0000    0.0000 C   0  0  0  0  0  0  0  0  0  0  0  0
    8.0622    3.5000    0.0000 C   0  0  0  0  0  0  0  0  0  0  0  0
    6.3301    3.5000    0.0000 C   0  0  0  0  0  0  0  0  0  0  0  0
    7.1962    5.0000    0.0000 C   0  0  0  0  0  0  0  0  0  0  0  0
    2.0000   -7.0000    0.0000 C   0  0  0  0  0  0  0  0  0  0  0  0
    8.0622    5.5000    0.0000 C   0  0  0  0  0  0  0  0  0  0  0  0
    6.3301    5.5000    0.0000 C   0  0  0  0  0  0  0  0  0  0  0  0
    8.0622    6.5000    0.0000 C   0  0  0  0  0  0  0  0  0  0  0  0
    6.3301    6.5000    0.0000 C   0  0  0  0  0  0  0  0  0  0  0  0
    7.1962    7.0000    0.0000 C   0  0  0  0  0  0  0  0  0  0  0  0
    4.5981   -4.8800    0.0000 H   0  0  0  0  0  0  0  0  0  0  0  0
    4.2690   -4.6900    0.0000 H   0  0  0  0  0  0  0  0  0  0  0  0
    3.9781   -6.5000    0.0000 H   0  0  0  0  0  0  0  0  0  0  0  0
    5.7741   -5.5369    0.0000 H   0  0  0  0  0  0  0  0  0  0  0  0
    6.0010   -4.6900    0.0000 H   0  0  0  0  0  0  0  0  0  0  0  0
    5.1541   -4.4631    0.0000 H   0  0  0  0  0  0  0  0  0  0  0  0
    4.5981   -7.1200    0.0000 H   0  0  0  0  0  0  0  0  0  0  0  0
    5.2181   -6.5000    0.0000 H   0  0  0  0  0  0  0  0  0  0  0  0
    3.1951   -3.6900    0.0000 H   0  0  0  0  0  0  0  0  0  0  0  0
    6.8671   -0.1900    0.0000 H   0  0  0  0  0  0  0  0  0  0  0  0
    5.7932    0.8100    0.0000 H   0  0  0  0  0  0  0  0  0  0  0  0
    7.4082    0.4174    0.0000 H   0  0  0  0  0  0  0  0  0  0  0  0
    7.8067    1.1077    0.0000 H   0  0  0  0  0  0  0  0  0  0  0  0
    4.3860   -1.9174    0.0000 H   0  0  0  0  0  0  0  0  0  0  0  0
    3.9875   -2.6077    0.0000 H   0  0  0  0  0  0  0  0  0  0  0  0
    7.8067   -1.1077    0.0000 H   0  0  0  0  0  0  0  0  0  0  0  0
    7.4082   -0.4174    0.0000 H   0  0  0  0  0  0  0  0  0  0  0  0
    6.0010   -2.3100    0.0000 H   0  0  0  0  0  0  0  0  0  0  0  0
    8.5991    2.1900    0.0000 H   0  0  0  0  0  0  0  0  0  0  0  0
    5.7932    2.1900    0.0000 H   0  0  0  0  0  0  0  0  0  0  0  0
    8.5991    3.8100    0.0000 H   0  0  0  0  0  0  0  0  0  0  0  0
    5.7932    3.8100    0.0000 H   0  0  0  0  0  0  0  0  0  0  0  0
    7.7331   -2.3100    0.0000 H   0  0  0  0  0  0  0  0  0  0  0  0
    1.6900   -6.4631    0.0000 H   0  0  0  0  0  0  0  0  0  0  0  0
    1.4631   -7.3100    0.0000 H   0  0  0  0  0  0  0  0  0  0  0  0
    2.3100   -7.5369    0.0000 H   0  0  0  0  0  0  0  0  0  0  0  0
    8.5991    5.1900    0.0000 H   0  0  0  0  0  0  0  0  0  0  0  0
    5.7932    5.1900    0.0000 H   0  0  0  0  0  0  0  0  0  0  0  0
    8.5991    6.8100    0.0000 H   0  0  0  0  0  0  0  0  0  0  0  0
    5.7932    6.8100    0.0000 H   0  0  0  0  0  0  0  0  0  0  0  0
    7.1962    7.6200    0.0000 H   0  0  0  0  0  0  0  0  0  0  0  0
  1 19  1  0  0  0  0
  1 55  1  0  0  0  0
  2 14  1  0  0  0  0
  2 27  1  0  0  0  0
  3 14  2  0  0  0  0
  4 15  2  0  0  0  0
  5 18  2  0  0  0  0
  6 10  1  0  0  0  0
  6 15  1  0  0  0  0
  6 41  1  0  0  0  0
  7 13  1  0  0  0  0
  7 16  1  0  0  0  0
  7 43  1  0  0  0  0
  8 17  1  0  0  0  0
  8 18  1  0  0  0  0
  8 50  1  0  0  0  0
  9 10  1  0  0  0  0
  9 11  1  0  0  0  0
  9 12  1  0  0  0  0
  9 33  1  0  0  0  0
 10 14  1  0  0  0  0
 10 34  1  0  0  0  0
 11 35  1  0  0  0  0
 11 39  1  0  0  0  0
 11 40  1  0  0  0  0
 12 36  1  0  0  0  0
 12 37  1  0  0  0  0
 12 38  1  0  0  0  0
 13 18  1  0  0  0  0
 13 19  1  0  0  0  0
 13 42  1  0  0  0  0
 15 17  1  0  0  0  0
 16 20  1  0  0  0  0
 16 44  1  0  0  0  0
 16 45  1  0  0  0  0
 17 46  1  0  0  0  0
 17 47  1  0  0  0  0
 19 48  1  0  0  0  0
 19 49  1  0  0  0  0
 20 21  2  0  0  0  0
 20 22  1  0  0  0  0
 21 24  1  0  0  0  0
 21 51  1  0  0  0  0
 22 25  2  0  0  0  0
 22 52  1  0  0  0  0
 23 24  2  0  0  0  0
 23 25  1  0  0  0  0
 23 26  1  0  0  0  0
 24 53  1  0  0  0  0
 25 54  1  0  0  0  0
 26 28  2  0  0  0  0
 26 29  1  0  0  0  0
 27 56  1  0  0  0  0
 27 57  1  0  0  0  0
 27 58  1  0  0  0  0
 28 30  1  0  0  0  0
 28 59  1  0  0  0  0
 29 31  2  0  0  0  0
 29 60  1  0  0  0  0
 30 32  2  0  0  0  0
 30 61  1  0  0  0  0
 31 32  1  0  0  0  0
 31 62  1  0  0  0  0
 32 63  1  0  0  0  0
M  END
> <PUBCHEM_COMPOUND_CID>
5088

> <PUBCHEM_COMPOUND_CANONICALIZED>
1

> <PUBCHEM_CACTVS_COMPLEXITY>
602

> <PUBCHEM_CACTVS_HBOND_ACCEPTOR>
6

> <PUBCHEM_CACTVS_HBOND_DONOR>
4

> <PUBCHEM_CACTVS_ROTATABLE_BOND>
12

> <PUBCHEM_CACTVS_SUBSKEYS>
AAADceB7OABAAAAAAAAAAAAAAAAAAAAAAAAwYAAAAAAAAAABQAAAHgQQAAAADSjF2AayCILABASIAiHSGACCAAAgAAAIiIGIBIgKYDKAkTGVIAhklgCYiAcQgMAOwAAAAAAAAACAAAAAAAAAAAAAAAAAAA==

> <PUBCHEM_IUPAC_OPENEYE_NAME>
methyl 3-methyl-2-[[2-[[2-[(4-phenylphenyl)methylamino]-3-sulfanyl-propanoyl]amino]acetyl]amino]butanoate

> <PUBCHEM_IUPAC_CAS_NAME>
2-[[2-[[3-mercapto-1-oxo-2-[(4-phenylphenyl)methylamino]propyl]amino]-1-oxoethyl]amino]-3-methylbutanoic acid methyl ester

> <PUBCHEM_IUPAC_NAME>
methyl 3-methyl-2-[[2-[[2-[(4-phenylphenyl)methylamino]-3-sulfanylpropanoyl]amino]acetyl]amino]butanoate

> <PUBCHEM_IUPAC_SYSTEMATIC_NAME>
methyl 3-methyl-2-[2-[[2-[(4-phenylphenyl)methylamino]-3-sulfanyl-propanoyl]amino]ethanoylamino]butanoate

> <PUBCHEM_IUPAC_TRADITIONAL_NAME>
2-[[2-[[3-mercapto-2-[(4-phenylbenzyl)amino]propanoyl]amino]acetyl]amino]-3-methyl-butyric acid methyl ester

> <PUBCHEM_IUPAC_INCHI>
InChI=1S/C24H31N3O4S/c1-16(2)22(24(30)31-3)27-21(28)14-26-23(29)20(15-32)25-13-17-9-11-19(12-10-17)18-7-5-4-6-8-18/h4-12,16,20,22,25,32H,13-15H2,1-3H3,(H,26,29)(H,27,28)

> <PUBCHEM_IUPAC_INCHIKEY>
QFAWBPLETHINFK-UHFFFAOYSA-N

> <PUBCHEM_XLOGP3_AA>
3.2

> <PUBCHEM_EXACT_MASS>
457.203527

> <PUBCHEM_MOLECULAR_FORMULA>
C24H31N3O4S

> <PUBCHEM_MOLECULAR_WEIGHT>
457.58564

> <PUBCHEM_OPENEYE_CAN_SMILES>
CC(C)C(C(=O)OC)NC(=O)CNC(=O)C(CS)NCC1=CC=C(C=C1)C2=CC=CC=C2

> <PUBCHEM_OPENEYE_ISO_SMILES>
CC(C)C(C(=O)OC)NC(=O)CNC(=O)C(CS)NCC1=CC=C(C=C1)C2=CC=CC=C2

> <PUBCHEM_CACTVS_TPSA>
97.5

> <PUBCHEM_MONOISOTOPIC_WEIGHT>
457.203527

> <PUBCHEM_TOTAL_CHARGE>
0

> <PUBCHEM_HEAVY_ATOM_COUNT>
32

> <PUBCHEM_ATOM_DEF_STEREO_COUNT>
0

> <PUBCHEM_ATOM_UDEF_STEREO_COUNT>
2

> <PUBCHEM_BOND_DEF_STEREO_COUNT>
0

> <PUBCHEM_BOND_UDEF_STEREO_COUNT>
0

> <PUBCHEM_ISOTOPIC_ATOM_COUNT>
0

> <PUBCHEM_COMPONENT_COUNT>
1

> <PUBCHEM_CACTVS_TAUTO_COUNT>
4

> <PUBCHEM_COORDINATE_TYPE>
1
5
255

> <PUBCHEM_BONDANNOTATIONS>
13  19  3
20  21  8
20  22  8
21  24  8
22  25  8
23  24  8
23  25  8
26  28  8
26  29  8
28  30  8
29  31  8
30  32  8
31  32  8
10  9  3

$$$$

