8144
  -OEChem-06261202373D

 27 26  0     0  0  0  0  0  0999 V2000
   -5.2637   -0.4921    0.0369 S   0  0  0  0  0  0  0  0  0  0  0  0
    0.0086   -0.3438   -0.0726 C   0  0  0  0  0  0  0  0  0  0  0  0
    1.3083    0.4660   -0.0586 C   0  0  0  0  0  0  0  0  0  0  0  0
   -1.2499    0.5244   -0.0041 C   0  0  0  0  0  0  0  0  0  0  0  0
    2.5673   -0.4036   -0.0526 C   0  0  0  0  0  0  0  0  0  0  0  0
   -2.5176   -0.3358    0.0020 C   0  0  0  0  0  0  0  0  0  0  0  0
    3.8310    0.4534    0.0347 C   0  0  0  0  0  0  0  0  0  0  0  0
   -3.7686    0.5372    0.0347 C   0  0  0  0  0  0  0  0  0  0  0  0
    5.0846   -0.4058    0.0795 C   0  0  0  0  0  0  0  0  0  0  0  0
   -0.0205   -0.9575   -0.9815 H   0  0  0  0  0  0  0  0  0  0  0  0
    0.0117   -1.0376    0.7774 H   0  0  0  0  0  0  0  0  0  0  0  0
    1.3283    1.1298   -0.9317 H   0  0  0  0  0  0  0  0  0  0  0  0
    1.3134    1.1110    0.8291 H   0  0  0  0  0  0  0  0  0  0  0  0
   -1.2689    1.2061   -0.8629 H   0  0  0  0  0  0  0  0  0  0  0  0
   -1.2208    1.1433    0.9008 H   0  0  0  0  0  0  0  0  0  0  0  0
    2.5948   -1.0163   -0.9616 H   0  0  0  0  0  0  0  0  0  0  0  0
    2.5315   -1.0917    0.8006 H   0  0  0  0  0  0  0  0  0  0  0  0
   -2.4966   -1.0003    0.8749 H   0  0  0  0  0  0  0  0  0  0  0  0
   -2.5260   -0.9705   -0.8932 H   0  0  0  0  0  0  0  0  0  0  0  0
    3.8847    1.1260   -0.8292 H   0  0  0  0  0  0  0  0  0  0  0  0
    3.7953    1.0808    0.9330 H   0  0  0  0  0  0  0  0  0  0  0  0
   -3.7782    1.1655    0.9310 H   0  0  0  0  0  0  0  0  0  0  0  0
   -3.8031    1.1937   -0.8406 H   0  0  0  0  0  0  0  0  0  0  0  0
    5.1678   -1.0251   -0.8193 H   0  0  0  0  0  0  0  0  0  0  0  0
    5.0769   -1.0660    0.9526 H   0  0  0  0  0  0  0  0  0  0  0  0
    5.9757    0.2268    0.1400 H   0  0  0  0  0  0  0  0  0  0  0  0
   -5.0241   -1.1122    1.2018 H   0  0  0  0  0  0  0  0  0  0  0  0
  1  8  1  0  0  0  0
  1 27  1  0  0  0  0
  2  3  1  0  0  0  0
  2  4  1  0  0  0  0
  2 10  1  0  0  0  0
  2 11  1  0  0  0  0
  3  5  1  0  0  0  0
  3 12  1  0  0  0  0
  3 13  1  0  0  0  0
  4  6  1  0  0  0  0
  4 14  1  0  0  0  0
  4 15  1  0  0  0  0
  5  7  1  0  0  0  0
  5 16  1  0  0  0  0
  5 17  1  0  0  0  0
  6  8  1  0  0  0  0
  6 18  1  0  0  0  0
  6 19  1  0  0  0  0
  7  9  1  0  0  0  0
  7 20  1  0  0  0  0
  7 21  1  0  0  0  0
  8 22  1  0  0  0  0
  8 23  1  0  0  0  0
  9 24  1  0  0  0  0
  9 25  1  0  0  0  0
  9 26  1  0  0  0  0
M  END
> <PUBCHEM_COMPOUND_CID>
8144

> <PUBCHEM_CONFORMER_RMSD>
0.6

> <PUBCHEM_CONFORMER_DIVERSEORDER>
1
45
44
84
167
145
26
48
149
18
62
5
10
153
101
170
123
13
8
125
35
77
42
162
29
160
6
61
87
94
105
74
136
11
38
3
172
113
7
144
155
96
34
75
129
19
32
110
16
107
166
119
131
148
130
14
73
28
72
54
36
140
111
171
30
134
33
37
91
95
85
43
22
114
93
109
60
106
90
141
53
92
71
17
142
67
82
116
68
15
124
89
128
146
69
46
83
59
2
97
78
104
79
98
56
122
50
63
151
52
88
168
41
27
165
169
39
115
135
20
161
49
156
57
157
164
24
147
4
127
132
150
40
143
152
51
9
137
31
99
81
86
103
66
154
12
76
138
47
23
133
55
126
25
80
102
112
64
139
100
159
163
120
118
21
117
121
70
158
108
58
65

> <PUBCHEM_MMFF94_PARTIAL_CHARGES>
3
1 -0.41
27 0.18
8 0.23

> <PUBCHEM_EFFECTIVE_ROTOR_COUNT>
6

> <PUBCHEM_PHARMACOPHORE_FEATURES>
3
1 9 hydrophobe
3 2 4 6 hydrophobe
3 3 5 7 hydrophobe

> <PUBCHEM_HEAVY_ATOM_COUNT>
9

> <PUBCHEM_ATOM_DEF_STEREO_COUNT>
0

> <PUBCHEM_ATOM_UDEF_STEREO_COUNT>
0

> <PUBCHEM_BOND_DEF_STEREO_COUNT>
0

> <PUBCHEM_BOND_UDEF_STEREO_COUNT>
0

> <PUBCHEM_ISOTOPIC_ATOM_COUNT>
0

> <PUBCHEM_COMPONENT_COUNT>
1

> <PUBCHEM_CACTVS_TAUTO_COUNT>
1

> <PUBCHEM_CONFORMER_ID>
00001FD000000001

> <PUBCHEM_MMFF94_ENERGY>
-1.8305

> <PUBCHEM_FEATURE_SELFOVERLAP>
15.236

> <PUBCHEM_SHAPE_FINGERPRINT>
11062470 55 18410573989451719172
14123238 8 18343301461575617911
15501527 16 8574447421890705451
17834072 33 18339360768862409621
17834076 25 18410573985188400406
18342897 14 8935001468886746871
187816 3 15626223520336546077
20645477 70 18335700610961136430
20719005 15 18410855460128161794
20767249 13 18201721751566208731
22485316 2 18343586243656255387
23402539 116 18408610262375595037
366044 4 18411982455289107978
42788 4 18410575088973941921

> <PUBCHEM_SHAPE_MULTIPOLES>
189.07
11.92
0.83
0.63
0.65
0.01
0
-1.57
-0.41
0.11
0
0.05
0
-0.01

> <PUBCHEM_SHAPE_SELFOVERLAP>
319.449

> <PUBCHEM_SHAPE_VOLUME>
127.9

> <PUBCHEM_COORDINATE_TYPE>
2
5
10

$$$$

