17395569
  -OEChem-06241222513D

 52 53  0     1  0  0  0  0  0999 V2000
   -4.2056   -0.2264   -2.5773 Cl  0  0  0  0  0  0  0  0  0  0  0  0
    2.0931   -0.8157    1.6137 O   0  0  0  0  0  0  0  0  0  0  0  0
    3.9347    0.3210   -1.7494 O   0  0  0  0  0  0  0  0  0  0  0  0
   -0.3522   -1.5066    0.5508 N   0  0  0  0  0  0  0  0  0  0  0  0
   -2.9467   -0.3694    0.1840 N   0  0  0  0  0  0  0  0  0  0  0  0
    3.1513   -1.8129   -0.1972 N   0  0  0  0  0  0  0  0  0  0  0  0
    5.3475    0.9969   -0.0371 N   0  0  0  0  0  0  0  0  0  0  0  0
   -0.5521   -0.4042   -0.3980 C   0  0  0  0  0  0  0  0  0  0  0  0
   -1.5483   -2.3567    0.5876 C   0  0  0  0  0  0  0  0  0  0  0  0
   -1.7478    0.4600    0.0084 C   0  0  0  0  0  0  0  0  0  0  0  0
   -2.7781   -1.5577    1.0260 C   0  0  0  0  0  0  0  0  0  0  0  0
    0.8250   -2.2926    0.1832 C   0  0  0  0  0  0  0  0  0  0  0  0
   -4.1960    0.2565    0.1090 C   0  0  0  0  0  0  0  0  0  0  0  0
    2.0667   -1.5459    0.6254 C   0  0  0  0  0  0  0  0  0  0  0  0
   -4.8725    0.3819   -1.1045 C   0  0  0  0  0  0  0  0  0  0  0  0
   -4.7643    0.7592    1.2794 C   0  0  0  0  0  0  0  0  0  0  0  0
    4.4660   -1.2515    0.0168 C   0  0  2  0  0  0  0  0  0  0  0  0
   -6.1173    1.0102   -1.1472 C   0  0  0  0  0  0  0  0  0  0  0  0
   -6.0090    1.3875    1.2364 C   0  0  0  0  0  0  0  0  0  0  0  0
    4.5246    0.0937   -0.6950 C   0  0  0  0  0  0  0  0  0  0  0  0
    5.5552   -2.1832   -0.4915 C   0  0  0  0  0  0  0  0  0  0  0  0
   -6.6854    1.5130    0.0232 C   0  0  0  0  0  0  0  0  0  0  0  0
    5.6008    2.3282   -0.5368 C   0  0  0  0  0  0  0  0  0  0  0  0
    4.5941    3.3457   -0.0135 C   0  0  0  0  0  0  0  0  0  0  0  0
    4.6167    3.4691    1.5034 C   0  0  0  0  0  0  0  0  0  0  0  0
    0.3324    0.2428   -0.4347 H   0  0  0  0  0  0  0  0  0  0  0  0
   -0.7127   -0.7911   -1.4137 H   0  0  0  0  0  0  0  0  0  0  0  0
   -1.7331   -2.8063   -0.3974 H   0  0  0  0  0  0  0  0  0  0  0  0
   -1.4063   -3.1783    1.3003 H   0  0  0  0  0  0  0  0  0  0  0  0
   -1.9116    1.2188   -0.7667 H   0  0  0  0  0  0  0  0  0  0  0  0
   -1.5309    0.9900    0.9447 H   0  0  0  0  0  0  0  0  0  0  0  0
   -2.6733   -1.2573    2.0763 H   0  0  0  0  0  0  0  0  0  0  0  0
   -3.6612   -2.2042    0.9519 H   0  0  0  0  0  0  0  0  0  0  0  0
    0.8466   -3.2440    0.7301 H   0  0  0  0  0  0  0  0  0  0  0  0
    0.8472   -2.5261   -0.8878 H   0  0  0  0  0  0  0  0  0  0  0  0
   -4.2500    0.6771    2.2336 H   0  0  0  0  0  0  0  0  0  0  0  0
    3.0136   -2.3882   -1.0233 H   0  0  0  0  0  0  0  0  0  0  0  0
    4.5957   -1.0973    1.0948 H   0  0  0  0  0  0  0  0  0  0  0  0
   -6.6577    1.1162   -2.0846 H   0  0  0  0  0  0  0  0  0  0  0  0
   -6.4509    1.7804    2.1474 H   0  0  0  0  0  0  0  0  0  0  0  0
    5.4597   -2.3555   -1.5697 H   0  0  0  0  0  0  0  0  0  0  0  0
    6.5489   -1.7600   -0.3114 H   0  0  0  0  0  0  0  0  0  0  0  0
    5.5002   -3.1566    0.0074 H   0  0  0  0  0  0  0  0  0  0  0  0
   -7.6543    2.0026   -0.0101 H   0  0  0  0  0  0  0  0  0  0  0  0
    5.8049    0.7212    0.8269 H   0  0  0  0  0  0  0  0  0  0  0  0
    6.6163    2.6016   -0.2312 H   0  0  0  0  0  0  0  0  0  0  0  0
    5.5724    2.3107   -1.6317 H   0  0  0  0  0  0  0  0  0  0  0  0
    3.5821    3.0693   -0.3325 H   0  0  0  0  0  0  0  0  0  0  0  0
    4.8154    4.3246   -0.4540 H   0  0  0  0  0  0  0  0  0  0  0  0
    3.9214    4.2502    1.8272 H   0  0  0  0  0  0  0  0  0  0  0  0
    5.6163    3.7364    1.8604 H   0  0  0  0  0  0  0  0  0  0  0  0
    4.3160    2.5340    1.9863 H   0  0  0  0  0  0  0  0  0  0  0  0
  1 15  1  0  0  0  0
  2 14  2  0  0  0  0
  3 20  2  0  0  0  0
  4  8  1  0  0  0  0
  4  9  1  0  0  0  0
  4 12  1  0  0  0  0
  5 10  1  0  0  0  0
  5 11  1  0  0  0  0
  5 13  1  0  0  0  0
  6 14  1  0  0  0  0
  6 17  1  0  0  0  0
  6 37  1  0  0  0  0
  7 20  1  0  0  0  0
  7 23  1  0  0  0  0
  7 45  1  0  0  0  0
  8 10  1  0  0  0  0
  8 26  1  0  0  0  0
  8 27  1  0  0  0  0
  9 11  1  0  0  0  0
  9 28  1  0  0  0  0
  9 29  1  0  0  0  0
 10 30  1  0  0  0  0
 10 31  1  0  0  0  0
 11 32  1  0  0  0  0
 11 33  1  0  0  0  0
 12 14  1  0  0  0  0
 12 34  1  0  0  0  0
 12 35  1  0  0  0  0
 13 15  1  0  0  0  0
 13 16  2  0  0  0  0
 15 18  2  0  0  0  0
 16 19  1  0  0  0  0
 16 36  1  0  0  0  0
 17 20  1  0  0  0  0
 17 21  1  0  0  0  0
 17 38  1  0  0  0  0
 18 22  1  0  0  0  0
 18 39  1  0  0  0  0
 19 22  2  0  0  0  0
 19 40  1  0  0  0  0
 21 41  1  0  0  0  0
 21 42  1  0  0  0  0
 21 43  1  0  0  0  0
 22 44  1  0  0  0  0
 23 24  1  0  0  0  0
 23 46  1  0  0  0  0
 23 47  1  0  0  0  0
 24 25  1  0  0  0  0
 24 48  1  0  0  0  0
 24 49  1  0  0  0  0
 25 50  1  0  0  0  0
 25 51  1  0  0  0  0
 25 52  1  0  0  0  0
M  END
> <PUBCHEM_COMPOUND_CID>
17395569

> <PUBCHEM_CONFORMER_RMSD>
1.2

> <PUBCHEM_CONFORMER_DIVERSEORDER>
1
36
57
37
52
53
61
49
54
17
59
15
32
43
19
39
45
29
6
48
30
42
64
35
21
58
41
34
11
16
23
31
33
10
2
20
40
62
50
28
25
8
22
4
47
18
44
60
63
12
24
55
13
38
3
26
51
7
27
9
14
5
56
46

> <PUBCHEM_MMFF94_PARTIAL_CHARGES>
28
1 -0.18
10 0.37
11 0.37
12 0.33
13 0.1
14 0.57
15 0.18
16 -0.15
17 0.36
18 -0.15
19 -0.15
2 -0.57
20 0.57
22 -0.15
23 0.3
3 -0.57
36 0.15
37 0.37
39 0.15
4 -0.81
40 0.15
44 0.15
45 0.37
5 -0.84
6 -0.73
7 -0.73
8 0.27
9 0.27

> <PUBCHEM_EFFECTIVE_ROTOR_COUNT>
10.2

> <PUBCHEM_PHARMACOPHORE_FEATURES>
9
1 2 acceptor
1 25 hydrophobe
1 3 acceptor
1 4 cation
1 5 cation
1 6 donor
1 7 donor
6 13 15 16 18 19 22 rings
6 4 5 8 9 10 11 rings

> <PUBCHEM_HEAVY_ATOM_COUNT>
25

> <PUBCHEM_ATOM_DEF_STEREO_COUNT>
0

> <PUBCHEM_ATOM_UDEF_STEREO_COUNT>
1

> <PUBCHEM_BOND_DEF_STEREO_COUNT>
0

> <PUBCHEM_BOND_UDEF_STEREO_COUNT>
0

> <PUBCHEM_ISOTOPIC_ATOM_COUNT>
0

> <PUBCHEM_COMPONENT_COUNT>
1

> <PUBCHEM_CACTVS_TAUTO_COUNT>
4

> <PUBCHEM_CONFORMER_ID>
01096F7100000001

> <PUBCHEM_MMFF94_ENERGY>
61.2773

> <PUBCHEM_FEATURE_SELFOVERLAP>
45.671

> <PUBCHEM_SHAPE_FINGERPRINT>
10 15 16558741304510172663
10319926 262 14979689847864179055
10638233 991 18260829319538939041
11112241 14 18118130173200483360
11796584 16 14057014840142504863
12422481 6 17131844139828640964
12623949 98 9943535128615411664
13878862 14 18341628018232699604
13911852 28 9439413414565470850
13955234 65 17987239004993533226
14211702 104 7997388565020860925
14347332 77 9007070053645817147
14528608 73 18334298664667779559
14790565 3 18265889336500776009
14931854 50 18114728358061670556
15183329 4 15791449352892442867
17870717 6 14923950059493382055
18335252 114 18336265730289163014
20691028 202 18412823595144336465
20715895 44 18336265657343381792
21033648 144 18342463612219408639
21033648 29 17346607395654769949
21049683 118 17775015552650520498
22122407 14 18265038297342205121
23559900 14 18339641239350399962
249057 3 18340201986270317934
25122255 55 6338957780317458717
27425 322 18335701676329362623
2748736 6 18339088077447792680
2838139 119 18340209682202248927
33382 64 9943807785660441670
3472631 163 18334290946738104038
34797466 226 17895182282114205519
4371632 12 17099477674318713680
44317340 157 18259703376239012779
50009960 94 6987219829261145292
5104073 3 18059572460438046962
5312510 48 18408602548287757928
6898599 12 18189897517595919175

> <PUBCHEM_SHAPE_MULTIPOLES>
484.7
18.2
3.26
1.55
3.28
1.85
0.56
11.75
2.49
-6.28
-0.97
1.44
0.23
0.44

> <PUBCHEM_SHAPE_SELFOVERLAP>
976.479

> <PUBCHEM_SHAPE_VOLUME>
284.4

> <PUBCHEM_COORDINATE_TYPE>
2
5
10

$$$$

