12666
  -OEChem-06261207133D

 17 16  0     0  0  0  0  0  0999 V2000
    2.5129    1.7918   -0.7703 Cl  0  0  0  0  0  0  0  0  0  0  0  0
    3.3174   -1.3588   -0.8537 Cl  0  0  0  0  0  0  0  0  0  0  0  0
    2.0921   -0.0171    0.0737 Si  0  0  0  0  0  0  0  0  0  0  0  0
   -3.0670    0.8397    0.5182 F   0  0  0  0  0  0  0  0  0  0  0  0
   -2.3845   -1.2353    0.4866 F   0  0  0  0  0  0  0  0  0  0  0  0
   -2.3381   -0.0422   -1.3381 F   0  0  0  0  0  0  0  0  0  0  0  0
    0.3150   -0.4607   -0.3065 C   0  0  0  0  0  0  0  0  0  0  0  0
   -0.7386    0.4587    0.3185 C   0  0  0  0  0  0  0  0  0  0  0  0
    2.4370    0.0233    1.8727 C   0  0  0  0  0  0  0  0  0  0  0  0
   -2.1462    0.0005   -0.0012 C   0  0  0  0  0  0  0  0  0  0  0  0
    0.1832   -0.4719   -1.3952 H   0  0  0  0  0  0  0  0  0  0  0  0
    0.1410   -1.4874    0.0377 H   0  0  0  0  0  0  0  0  0  0  0  0
   -0.6196    0.4910    1.4083 H   0  0  0  0  0  0  0  0  0  0  0  0
   -0.6101    1.4854   -0.0450 H   0  0  0  0  0  0  0  0  0  0  0  0
    3.4868    0.2571    2.0774 H   0  0  0  0  0  0  0  0  0  0  0  0
    1.8308    0.7787    2.3828 H   0  0  0  0  0  0  0  0  0  0  0  0
    2.2196   -0.9406    2.3437 H   0  0  0  0  0  0  0  0  0  0  0  0
  1  3  1  0  0  0  0
  2  3  1  0  0  0  0
  3  7  1  0  0  0  0
  3  9  1  0  0  0  0
  4 10  1  0  0  0  0
  5 10  1  0  0  0  0
  6 10  1  0  0  0  0
  7  8  1  0  0  0  0
  7 11  1  0  0  0  0
  7 12  1  0  0  0  0
  8 10  1  0  0  0  0
  8 13  1  0  0  0  0
  8 14  1  0  0  0  0
  9 15  1  0  0  0  0
  9 16  1  0  0  0  0
  9 17  1  0  0  0  0
M  END
> <PUBCHEM_COMPOUND_CID>
12666

> <PUBCHEM_CONFORMER_RMSD>
0.6

> <PUBCHEM_CONFORMER_DIVERSEORDER>
2
4
1
3

> <PUBCHEM_MMFF94_PARTIAL_CHARGES>
9
1 -0.37
10 1.02
2 -0.37
3 0.9
4 -0.34
5 -0.34
6 -0.34
7 -0.08
9 -0.08

> <PUBCHEM_EFFECTIVE_ROTOR_COUNT>
3

> <PUBCHEM_PHARMACOPHORE_FEATURES>
0

> <PUBCHEM_HEAVY_ATOM_COUNT>
10

> <PUBCHEM_ATOM_DEF_STEREO_COUNT>
0

> <PUBCHEM_ATOM_UDEF_STEREO_COUNT>
0

> <PUBCHEM_BOND_DEF_STEREO_COUNT>
0

> <PUBCHEM_BOND_UDEF_STEREO_COUNT>
0

> <PUBCHEM_ISOTOPIC_ATOM_COUNT>
0

> <PUBCHEM_COMPONENT_COUNT>
1

> <PUBCHEM_CACTVS_TAUTO_COUNT>
1

> <PUBCHEM_CONFORMER_ID>
0000317A00000002

> <PUBCHEM_MMFF94_ENERGY>
5.6864

> <PUBCHEM_FEATURE_SELFOVERLAP>
0

> <PUBCHEM_SHAPE_FINGERPRINT>
12932741 1 17917707985432669870
12932764 1 17274823557946412510
14325111 11 18410285887461777196
14390081 3 17203612553555030852
15775835 57 17203607090530580146
17041 50 18201156654477448948
170605 34 17986668178322771756
18186145 218 18060700593421557245
20339313 130 18335408106687101388
20671657 53 18191846007594166326
20711985 344 17984143944290892900
21524375 3 17483108246744592244
23552423 10 18409445899275313342
3248919 1 18409456864163042794
369184 2 17418100901288015017
5084963 1 18260264187583381866
8030462 33 17822008696537452796

> <PUBCHEM_SHAPE_MULTIPOLES>
205.93
5.55
1.39
1.32
2.73
0.24
-0.42
-0.43
0.36
-0.99
0.36
-0.77
0.03
0.03

> <PUBCHEM_SHAPE_SELFOVERLAP>
357.617

> <PUBCHEM_SHAPE_VOLUME>
139.1

> <PUBCHEM_COORDINATE_TYPE>
2
5
10

$$$$

