10597
  -OEChem-06261204443D

 38 41  0     1  0  0  0  0  0999 V2000
   -5.0315   -0.9591    0.1871 O   0  0  0  0  0  0  0  0  0  0  0  0
    5.8498   -0.1684    0.1363 O   0  0  0  0  0  0  0  0  0  0  0  0
   -2.6981   -0.5398   -0.3680 C   0  0  1  0  0  0  0  0  0  0  0  0
   -2.0010    0.8384   -0.3254 C   0  0  1  0  0  0  0  0  0  0  0  0
   -1.9989   -1.5376    0.5558 C   0  0  0  0  0  0  0  0  0  0  0  0
   -2.6417    1.5511    0.8761 C   0  0  0  0  0  0  0  0  0  0  0  0
   -4.0678   -0.2025    0.2081 C   0  0  0  0  0  0  0  0  0  0  0  0
   -0.4919    0.7961   -0.2265 C   0  0  0  0  0  0  0  0  0  0  0  0
   -4.1158    1.1802    0.8029 C   0  0  0  0  0  0  0  0  0  0  0  0
   -0.5223   -1.7012    0.2091 C   0  0  0  0  0  0  0  0  0  0  0  0
    0.2252   -0.3944    0.0251 C   0  0  0  0  0  0  0  0  0  0  0  0
   -2.8397   -1.0629   -1.7988 C   0  0  0  0  0  0  0  0  0  0  0  0
    0.2093    1.9966   -0.4008 C   0  0  0  0  0  0  0  0  0  0  0  0
    1.6559   -0.3748    0.0533 C   0  0  0  0  0  0  0  0  0  0  0  0
    2.3317    0.8593   -0.1246 C   0  0  0  0  0  0  0  0  0  0  0  0
    1.5985    2.0291   -0.3427 C   0  0  0  0  0  0  0  0  0  0  0  0
    2.4579   -1.5259    0.2433 C   0  0  0  0  0  0  0  0  0  0  0  0
    3.7355    0.9130   -0.0905 C   0  0  0  0  0  0  0  0  0  0  0  0
    3.8532   -1.4587    0.2721 C   0  0  0  0  0  0  0  0  0  0  0  0
    4.4917   -0.2386    0.1082 C   0  0  0  0  0  0  0  0  0  0  0  0
   -2.2660    1.3953   -1.2369 H   0  0  0  0  0  0  0  0  0  0  0  0
   -2.4950   -2.5157    0.5146 H   0  0  0  0  0  0  0  0  0  0  0  0
   -2.0846   -1.2101    1.6011 H   0  0  0  0  0  0  0  0  0  0  0  0
   -2.5013    2.6367    0.8415 H   0  0  0  0  0  0  0  0  0  0  0  0
   -2.2104    1.1984    1.8219 H   0  0  0  0  0  0  0  0  0  0  0  0
   -4.6601    1.8403    0.1216 H   0  0  0  0  0  0  0  0  0  0  0  0
   -4.5819    1.1714    1.7904 H   0  0  0  0  0  0  0  0  0  0  0  0
   -0.4197   -2.2900   -0.7103 H   0  0  0  0  0  0  0  0  0  0  0  0
   -0.0715   -2.2774    1.0253 H   0  0  0  0  0  0  0  0  0  0  0  0
   -1.8697   -1.1529   -2.2981 H   0  0  0  0  0  0  0  0  0  0  0  0
   -3.3197   -2.0480   -1.8115 H   0  0  0  0  0  0  0  0  0  0  0  0
   -3.4644   -0.3956   -2.4039 H   0  0  0  0  0  0  0  0  0  0  0  0
   -0.3287    2.9228   -0.5904 H   0  0  0  0  0  0  0  0  0  0  0  0
    2.1024    2.9834   -0.4833 H   0  0  0  0  0  0  0  0  0  0  0  0
    2.0077   -2.5078    0.3681 H   0  0  0  0  0  0  0  0  0  0  0  0
    4.2440    1.8667   -0.2251 H   0  0  0  0  0  0  0  0  0  0  0  0
    4.4309   -2.3668    0.4219 H   0  0  0  0  0  0  0  0  0  0  0  0
    6.1215    0.7562    0.0050 H   0  0  0  0  0  0  0  0  0  0  0  0
  1  7  2  0  0  0  0
  2 20  1  0  0  0  0
  2 38  1  0  0  0  0
  3  4  1  0  0  0  0
  3  5  1  0  0  0  0
  3  7  1  0  0  0  0
  3 12  1  0  0  0  0
  4  6  1  0  0  0  0
  4  8  1  0  0  0  0
  4 21  1  0  0  0  0
  5 10  1  0  0  0  0
  5 22  1  0  0  0  0
  5 23  1  0  0  0  0
  6  9  1  0  0  0  0
  6 24  1  0  0  0  0
  6 25  1  0  0  0  0
  7  9  1  0  0  0  0
  8 11  2  0  0  0  0
  8 13  1  0  0  0  0
  9 26  1  0  0  0  0
  9 27  1  0  0  0  0
 10 11  1  0  0  0  0
 10 28  1  0  0  0  0
 10 29  1  0  0  0  0
 11 14  1  0  0  0  0
 12 30  1  0  0  0  0
 12 31  1  0  0  0  0
 12 32  1  0  0  0  0
 13 16  2  0  0  0  0
 13 33  1  0  0  0  0
 14 15  2  0  0  0  0
 14 17  1  0  0  0  0
 15 16  1  0  0  0  0
 15 18  1  0  0  0  0
 16 34  1  0  0  0  0
 17 19  2  0  0  0  0
 17 35  1  0  0  0  0
 18 20  2  0  0  0  0
 18 36  1  0  0  0  0
 19 20  1  0  0  0  0
 19 37  1  0  0  0  0
M  END
> <PUBCHEM_COMPOUND_CID>
10597

> <PUBCHEM_CONFORMER_RMSD>
0.6

> <PUBCHEM_CONFORMER_DIVERSEORDER>
3
2
1
4

> <PUBCHEM_MMFF94_PARTIAL_CHARGES>
21
1 -0.57
10 0.14
11 -0.14
13 -0.15
16 -0.15
17 -0.15
18 -0.15
19 -0.15
2 -0.53
20 0.08
3 0.06
33 0.15
34 0.15
35 0.15
36 0.15
37 0.15
38 0.45
4 0.14
7 0.45
8 -0.14
9 0.06

> <PUBCHEM_EFFECTIVE_ROTOR_COUNT>
0.8

> <PUBCHEM_PHARMACOPHORE_FEATURES>
6
1 1 acceptor
1 2 donor
5 3 4 6 7 9 rings
6 14 15 17 18 19 20 rings
6 3 4 5 8 10 11 rings
6 8 11 13 14 15 16 rings

> <PUBCHEM_HEAVY_ATOM_COUNT>
20

> <PUBCHEM_ATOM_DEF_STEREO_COUNT>
0

> <PUBCHEM_ATOM_UDEF_STEREO_COUNT>
2

> <PUBCHEM_BOND_DEF_STEREO_COUNT>
0

> <PUBCHEM_BOND_UDEF_STEREO_COUNT>
0

> <PUBCHEM_ISOTOPIC_ATOM_COUNT>
0

> <PUBCHEM_COMPONENT_COUNT>
1

> <PUBCHEM_CACTVS_TAUTO_COUNT>
6

> <PUBCHEM_CONFORMER_ID>
0000296500000003

> <PUBCHEM_MMFF94_ENERGY>
59.3533

> <PUBCHEM_FEATURE_SELFOVERLAP>
30.603

> <PUBCHEM_SHAPE_FINGERPRINT>
10062212 137 18260834786842012911
10366900 7 15339124515848331081
10616163 171 18335137553306465550
10906281 52 18270099272281766530
10967382 1 18413388735256310762
11132069 177 18337396031952012208
11578080 2 17971506002917528697
12107183 9 17686896532981759682
12236239 1 18260266347661885377
12251169 10 18410008840496193281
12403814 3 17560799952557253517
12553582 1 18342747333801650592
13140716 1 18269835320481707376
13221675 6 18413670227085713043
13288520 33 18411417327992515204
13583140 156 15769782342422091480
13862211 1 18342742927186459938
14004511 7 18334572451621264929
14790565 3 18340758253112033116
15196674 1 18412262873708644816
15209289 33 18412261735700632011
15209294 21 18114459067067921865
15375462 189 18131072683695119954
15442244 35 18410572911504741664
15536298 74 18407759222816103280
15848702 151 18187924035999945950
16945 1 18268996396945738989
17349148 13 18340496594502035162
17357779 13 17917167047107753949
17804303 29 18408318886824345400
1813 80 17774431785127401164
18186145 218 17703795799315316210
18522853 276 18408885135322946281
200 152 18333454231005184147
20028762 73 18261673654359855527
21033648 29 17346333573840529237
21267235 1 18411973668128645290
21421861 104 17772194360727790666
221490 88 18128529362754867330
23402539 116 18335708251332746926
23463225 33 18412542128234859660
23557571 272 16877940529649484435
23559900 14 18264214625308996544
2748010 2 17113823449038933102
296302 2 14779267518231128188
335352 9 18413107268531795044
34797466 226 16660918873394412104
34934 24 18197220454363361145
350125 39 18411697695184687697
4214541 1 18409729581844082665
474 4 17916580917574745940
5104073 3 18411136948037345536
69090 78 18410857654925307763
7364860 26 18337674084077541560
8809292 202 18059572434441246426
9709674 26 18409160021883635086
9981440 41 17329436047164444960

> <PUBCHEM_SHAPE_MULTIPOLES>
399.85
9.5
2
0.91
4.14
0.3
-0.24
-1.32
1.01
-0.05
0.03
-0.75
-0.09
-0.75

> <PUBCHEM_SHAPE_SELFOVERLAP>
896.238

> <PUBCHEM_SHAPE_VOLUME>
212.5

> <PUBCHEM_COORDINATE_TYPE>
2
5
10

$$$$

