9879
  -OEChem-06261204103D

 29 30  0     0  0  0  0  0  0999 V2000
   -5.1783    0.9488    0.0333 Cl  0  0  0  0  0  0  0  0  0  0  0  0
    0.9577   -0.5545   -2.4213 O   0  0  0  0  0  0  0  0  0  0  0  0
    0.9555   -0.7374    2.3689 O   0  0  0  0  0  0  0  0  0  0  0  0
    3.4503    2.3558    0.0894 O   0  0  0  0  0  0  0  0  0  0  0  0
    2.1620    0.9073   -1.1387 N   0  0  0  0  0  0  0  0  0  0  0  0
    2.1587    0.8198    1.2027 N   0  0  0  0  0  0  0  0  0  0  0  0
    0.6040   -0.6604   -0.0269 C   0  0  0  0  0  0  0  0  0  0  0  0
    0.6896   -2.1920   -0.0849 C   0  0  0  0  0  0  0  0  0  0  0  0
   -0.8439   -0.2574   -0.0127 C   0  0  0  0  0  0  0  0  0  0  0  0
    1.2522   -0.1214   -1.3053 C   0  0  0  0  0  0  0  0  0  0  0  0
    1.2504   -0.2198    1.2895 C   0  0  0  0  0  0  0  0  0  0  0  0
    2.1295   -2.6585   -0.0683 C   0  0  0  0  0  0  0  0  0  0  0  0
   -1.1812    1.0899   -0.0369 C   0  0  0  0  0  0  0  0  0  0  0  0
   -1.8283   -1.2370    0.0252 C   0  0  0  0  0  0  0  0  0  0  0  0
    2.6392    1.4287    0.0537 C   0  0  0  0  0  0  0  0  0  0  0  0
   -2.5249    1.4638   -0.0226 C   0  0  0  0  0  0  0  0  0  0  0  0
   -3.1720   -0.8631    0.0395 C   0  0  0  0  0  0  0  0  0  0  0  0
   -3.5204    0.4875    0.0154 C   0  0  0  0  0  0  0  0  0  0  0  0
    0.2290   -2.6022   -0.9940 H   0  0  0  0  0  0  0  0  0  0  0  0
    0.2186   -2.6698    0.7850 H   0  0  0  0  0  0  0  0  0  0  0  0
    2.7004   -2.2845   -0.9235 H   0  0  0  0  0  0  0  0  0  0  0  0
    2.6558   -2.3720    0.8472 H   0  0  0  0  0  0  0  0  0  0  0  0
    2.1601   -3.7528   -0.1207 H   0  0  0  0  0  0  0  0  0  0  0  0
    2.5478    1.3078   -1.9893 H   0  0  0  0  0  0  0  0  0  0  0  0
    2.5424    1.1553    2.0819 H   0  0  0  0  0  0  0  0  0  0  0  0
   -0.4241    1.8677   -0.0631 H   0  0  0  0  0  0  0  0  0  0  0  0
   -1.6555   -2.3053    0.0430 H   0  0  0  0  0  0  0  0  0  0  0  0
   -2.7817    2.5199   -0.0407 H   0  0  0  0  0  0  0  0  0  0  0  0
   -3.9383   -1.6338    0.0686 H   0  0  0  0  0  0  0  0  0  0  0  0
  1 18  1  0  0  0  0
  2 10  2  0  0  0  0
  3 11  2  0  0  0  0
  4 15  2  0  0  0  0
  5 10  1  0  0  0  0
  5 15  1  0  0  0  0
  5 24  1  0  0  0  0
  6 11  1  0  0  0  0
  6 15  1  0  0  0  0
  6 25  1  0  0  0  0
  7  8  1  0  0  0  0
  7  9  1  0  0  0  0
  7 10  1  0  0  0  0
  7 11  1  0  0  0  0
  8 12  1  0  0  0  0
  8 19  1  0  0  0  0
  8 20  1  0  0  0  0
  9 13  2  0  0  0  0
  9 14  1  0  0  0  0
 12 21  1  0  0  0  0
 12 22  1  0  0  0  0
 12 23  1  0  0  0  0
 13 16  1  0  0  0  0
 13 26  1  0  0  0  0
 14 17  2  0  0  0  0
 14 27  1  0  0  0  0
 16 18  2  0  0  0  0
 16 28  1  0  0  0  0
 17 18  1  0  0  0  0
 17 29  1  0  0  0  0
M  END
> <PUBCHEM_COMPOUND_CID>
9879

> <PUBCHEM_CONFORMER_RMSD>
0.6

> <PUBCHEM_CONFORMER_DIVERSEORDER>
1
4
3
2

> <PUBCHEM_MMFF94_PARTIAL_CHARGES>
22
1 -0.18
10 0.57
11 0.57
13 -0.15
14 -0.15
15 0.69
16 -0.15
17 -0.15
18 0.18
2 -0.57
24 0.37
25 0.37
26 0.15
27 0.15
28 0.15
29 0.15
3 -0.57
4 -0.57
5 -0.49
6 -0.49
7 0.27
9 -0.14

> <PUBCHEM_EFFECTIVE_ROTOR_COUNT>
2.6

> <PUBCHEM_PHARMACOPHORE_FEATURES>
8
1 12 hydrophobe
1 2 acceptor
1 3 acceptor
1 4 acceptor
1 5 donor
1 6 donor
6 5 6 7 10 11 15 rings
6 9 13 14 16 17 18 rings

> <PUBCHEM_HEAVY_ATOM_COUNT>
18

> <PUBCHEM_ATOM_DEF_STEREO_COUNT>
0

> <PUBCHEM_ATOM_UDEF_STEREO_COUNT>
0

> <PUBCHEM_BOND_DEF_STEREO_COUNT>
0

> <PUBCHEM_BOND_UDEF_STEREO_COUNT>
0

> <PUBCHEM_ISOTOPIC_ATOM_COUNT>
0

> <PUBCHEM_COMPONENT_COUNT>
1

> <PUBCHEM_CACTVS_TAUTO_COUNT>
5

> <PUBCHEM_CONFORMER_ID>
0000269700000001

> <PUBCHEM_MMFF94_ENERGY>
54.6741

> <PUBCHEM_FEATURE_SELFOVERLAP>
40.636

> <PUBCHEM_SHAPE_FINGERPRINT>
10498660 4 18408039589997511965
107287 299 17603583011024850373
10863032 1 18409165472375987958
10922049 32 18337950078717738760
10948715 1 18266178331806693232
12326174 3 16950569929652726262
13132413 78 17830172763942688454
13134695 92 17171265084737817874
14787075 74 16837691570489862459
15775835 57 18201722808044209345
16945 1 18123467176881830110
18186145 218 17896297165519357532
20511035 2 17752227194590330910
20559304 39 18269272542152787387
21452121 103 18341055211002467729
21501502 16 18260554445852881695
21524375 3 18129946650713284808
23402539 116 18188778227954838188
23419403 2 17176056821247573354
23557571 272 18189324676749136935
23559900 14 18337394962637277623
305870 269 18412263909101796246
4340502 62 17203605965971816097
474 4 17703220728801038765
5104073 3 18270390707519954017
7364860 26 18338234976377384382
81228 2 16888662722236143146
9999458 23 18413110588874129286

> <PUBCHEM_SHAPE_MULTIPOLES>
344.73
6.3
2.19
1.41
7.87
0.42
-0.02
-2.74
0.11
-1.91
0.01
-1.08
0.17
0.06

> <PUBCHEM_SHAPE_SELFOVERLAP>
736.199

> <PUBCHEM_SHAPE_VOLUME>
191.6

> <PUBCHEM_COORDINATE_TYPE>
2
5
10

$$$$

