586343
  -OEChem-06241222463D

 50 51  0     0  0  0  0  0  0999 V2000
    1.7084   -0.1715   -0.7029 O   0  0  0  0  0  0  0  0  0  0  0  0
   -4.5068   -1.7539    0.4596 O   0  0  0  0  0  0  0  0  0  0  0  0
   -3.0165    1.8492    1.2527 O   0  0  0  0  0  0  0  0  0  0  0  0
   -8.4254    0.1450   -1.4745 O   0  0  0  0  0  0  0  0  0  0  0  0
    3.3588   -0.6590    0.8959 N   0  0  0  0  0  0  0  0  0  0  0  0
   -1.1674   -0.1598    0.9972 N   0  0  0  0  0  0  0  0  0  0  0  0
   -2.4172   -0.2566    0.4917 N   0  0  0  0  0  0  0  0  0  0  0  0
    4.5410   -0.1651    0.2950 C   0  0  0  0  0  0  0  0  0  0  0  0
    5.2837   -0.9959   -0.5308 C   0  0  0  0  0  0  0  0  0  0  0  0
    4.9367    1.1410    0.5415 C   0  0  0  0  0  0  0  0  0  0  0  0
    6.8579    0.8023   -0.8837 C   0  0  0  0  0  0  0  0  0  0  0  0
    6.4489   -0.5094   -1.1234 C   0  0  0  0  0  0  0  0  0  0  0  0
    6.1017    1.6277   -0.0514 C   0  0  0  0  0  0  0  0  0  0  0  0
    4.8714   -2.4056   -0.8065 C   0  0  0  0  0  0  0  0  0  0  0  0
    4.1481    2.0489    1.4292 C   0  0  0  0  0  0  0  0  0  0  0  0
    2.0700   -0.6260    0.3789 C   0  0  0  0  0  0  0  0  0  0  0  0
    1.0654   -1.2581    1.3251 C   0  0  0  0  0  0  0  0  0  0  0  0
    8.1030    1.3238   -1.5181 C   0  0  0  0  0  0  0  0  0  0  0  0
   -0.3642   -1.1662    0.8239 C   0  0  0  0  0  0  0  0  0  0  0  0
   -0.8980   -2.3608    0.0704 C   0  0  0  0  0  0  0  0  0  0  0  0
   -4.6446    0.6132    0.1011 C   0  0  0  0  0  0  0  0  0  0  0  0
   -3.2853    0.8043    0.6664 C   0  0  0  0  0  0  0  0  0  0  0  0
   -5.1867   -0.6545    0.0281 C   0  0  0  0  0  0  0  0  0  0  0  0
   -5.3302    1.7295   -0.3372 C   0  0  0  0  0  0  0  0  0  0  0  0
   -6.4661   -0.8130   -0.5047 C   0  0  0  0  0  0  0  0  0  0  0  0
   -6.6094    1.5709   -0.8699 C   0  0  0  0  0  0  0  0  0  0  0  0
   -7.1774    0.2996   -0.9537 C   0  0  0  0  0  0  0  0  0  0  0  0
    7.0403   -1.1478   -1.7756 H   0  0  0  0  0  0  0  0  0  0  0  0
    6.4237    2.6505    0.1301 H   0  0  0  0  0  0  0  0  0  0  0  0
    3.4630   -0.9182    1.8746 H   0  0  0  0  0  0  0  0  0  0  0  0
    5.6233   -2.9432   -1.3944 H   0  0  0  0  0  0  0  0  0  0  0  0
    4.7399   -2.9593    0.1293 H   0  0  0  0  0  0  0  0  0  0  0  0
    3.9347   -2.4250   -1.3731 H   0  0  0  0  0  0  0  0  0  0  0  0
    4.6451    3.0148    1.5702 H   0  0  0  0  0  0  0  0  0  0  0  0
    3.1630    2.2470    0.9941 H   0  0  0  0  0  0  0  0  0  0  0  0
    4.0226    1.6035    2.4217 H   0  0  0  0  0  0  0  0  0  0  0  0
    1.3376   -2.3039    1.4989 H   0  0  0  0  0  0  0  0  0  0  0  0
    1.1161   -0.7302    2.2847 H   0  0  0  0  0  0  0  0  0  0  0  0
    8.5875    2.0716   -0.8812 H   0  0  0  0  0  0  0  0  0  0  0  0
    8.8309    0.5215   -1.6794 H   0  0  0  0  0  0  0  0  0  0  0  0
    7.8685    1.7835   -2.4833 H   0  0  0  0  0  0  0  0  0  0  0  0
   -0.1166   -3.1220   -0.0216 H   0  0  0  0  0  0  0  0  0  0  0  0
   -1.1869   -2.0839   -0.9478 H   0  0  0  0  0  0  0  0  0  0  0  0
   -1.7316   -2.8197    0.6099 H   0  0  0  0  0  0  0  0  0  0  0  0
   -2.6953   -1.0808   -0.0226 H   0  0  0  0  0  0  0  0  0  0  0  0
   -4.9005    2.7255   -0.2841 H   0  0  0  0  0  0  0  0  0  0  0  0
   -6.9098   -1.8035   -0.5711 H   0  0  0  0  0  0  0  0  0  0  0  0
   -7.1583    2.4412   -1.2194 H   0  0  0  0  0  0  0  0  0  0  0  0
   -5.0562   -2.5439    0.3189 H   0  0  0  0  0  0  0  0  0  0  0  0
   -8.6604   -0.7986   -1.4562 H   0  0  0  0  0  0  0  0  0  0  0  0
  1 16  2  0  0  0  0
  2 23  1  0  0  0  0
  2 49  1  0  0  0  0
  3 22  2  0  0  0  0
  4 27  1  0  0  0  0
  4 50  1  0  0  0  0
  5  8  1  0  0  0  0
  5 16  1  0  0  0  0
  5 30  1  0  0  0  0
  6  7  1  0  0  0  0
  6 19  2  0  0  0  0
  7 22  1  0  0  0  0
  7 45  1  0  0  0  0
  8  9  2  0  0  0  0
  8 10  1  0  0  0  0
  9 12  1  0  0  0  0
  9 14  1  0  0  0  0
 10 13  2  0  0  0  0
 10 15  1  0  0  0  0
 11 12  2  0  0  0  0
 11 13  1  0  0  0  0
 11 18  1  0  0  0  0
 12 28  1  0  0  0  0
 13 29  1  0  0  0  0
 14 31  1  0  0  0  0
 14 32  1  0  0  0  0
 14 33  1  0  0  0  0
 15 34  1  0  0  0  0
 15 35  1  0  0  0  0
 15 36  1  0  0  0  0
 16 17  1  0  0  0  0
 17 19  1  0  0  0  0
 17 37  1  0  0  0  0
 17 38  1  0  0  0  0
 18 39  1  0  0  0  0
 18 40  1  0  0  0  0
 18 41  1  0  0  0  0
 19 20  1  0  0  0  0
 20 42  1  0  0  0  0
 20 43  1  0  0  0  0
 20 44  1  0  0  0  0
 21 22  1  0  0  0  0
 21 23  2  0  0  0  0
 21 24  1  0  0  0  0
 23 25  1  0  0  0  0
 24 26  2  0  0  0  0
 24 46  1  0  0  0  0
 25 27  2  0  0  0  0
 25 47  1  0  0  0  0
 26 27  1  0  0  0  0
 26 48  1  0  0  0  0
M  END
> <PUBCHEM_COMPOUND_CID>
586343

> <PUBCHEM_CONFORMER_RMSD>
0.8

> <PUBCHEM_CONFORMER_DIVERSEORDER>
42
57
34
23
94
43
89
114
62
1
35
120
40
44
73
80
109
48
101
53
75
68
84
104
118
77
88
108
6
87
113
18
83
3
102
86
95
93
11
2
70
100
4
85
106
47
99
72
98
117
22
78
63
29
103
10
41
13
38
69
82
66
46
20
55
39
28
91
54
92
36
21
81
90
51
115
49
96
74
97
50
61
112
60
56
5
111
52
16
12
32
116
8
58
27
33
9
65
24
79
59
25
107
7
71
31
119
105
45
15
67
76
26
17
19
64
110
30
14
37

> <PUBCHEM_MMFF94_PARTIAL_CHARGES>
36
1 -0.57
10 -0.14
11 -0.14
12 -0.15
13 -0.15
14 0.14
15 0.14
16 0.57
17 0.12
18 0.14
19 0.33
2 -0.53
20 0.06
21 0.09
22 0.54
23 0.08
24 -0.15
25 -0.15
26 -0.15
27 0.08
28 0.15
29 0.15
3 -0.57
30 0.37
4 -0.53
45 0.37
46 0.15
47 0.15
48 0.15
49 0.45
5 -0.55
50 0.45
6 -0.51
7 -0.37
8 0.12
9 -0.14

> <PUBCHEM_EFFECTIVE_ROTOR_COUNT>
7

> <PUBCHEM_PHARMACOPHORE_FEATURES>
9
1 1 acceptor
1 2 donor
1 3 acceptor
1 4 donor
1 5 donor
1 6 acceptor
1 7 donor
6 21 23 24 25 26 27 rings
6 8 9 10 11 12 13 rings

> <PUBCHEM_HEAVY_ATOM_COUNT>
27

> <PUBCHEM_ATOM_DEF_STEREO_COUNT>
0

> <PUBCHEM_ATOM_UDEF_STEREO_COUNT>
0

> <PUBCHEM_BOND_DEF_STEREO_COUNT>
0

> <PUBCHEM_BOND_UDEF_STEREO_COUNT>
1

> <PUBCHEM_ISOTOPIC_ATOM_COUNT>
0

> <PUBCHEM_COMPONENT_COUNT>
1

> <PUBCHEM_CACTVS_TAUTO_COUNT>
42

> <PUBCHEM_CONFORMER_ID>
0008F2670000002A

> <PUBCHEM_MMFF94_ENERGY>
104.1537

> <PUBCHEM_FEATURE_SELFOVERLAP>
45.688

> <PUBCHEM_SHAPE_FINGERPRINT>
10 15 11167934766793258154
10299344 5 5978387231017400625
10595046 47 18187643660418584594
10669705 176 18413102862381016030
10670039 82 18261388988032026928
11315181 36 18343862217713432421
11387372 6 5400217855885287973
11991303 11 17385733452294063431
12166972 35 14851602181368892690
13668630 136 15140958469985229236
13673619 4 14345799353159174667
13685833 64 7276829091012528195
13782708 43 14201412560004562551
14251757 52 17131832054218177980
14251764 18 13398625048653036323
14344974 204 6049005621135504037
14347424 109 11455888066257422166
14931854 50 18334005112860419056
14933364 13 18410290311151484935
150020 25 18335141973365259581
15003188 100 18335703819306825344
15064981 194 18266441127749159169
15183329 4 18113896083007768202
15352257 5 5400802765003887861
1577012 14 18040990795379861248
16994733 274 17131561634703818149
18681886 176 18409737227370926113
20157964 124 18261110781746499794
2026 5 14563630259544173828
21150785 3 18260545623879136662
21267235 1 5978390512794375482
21298829 104 17917429878153996573
21344244 246 16226594295805865942
21365058 113 16153716397031391961
21781051 124 15502660355919113935
221357 26 18113900468364913832
23035841 295 6266900173394570421
23081809 10 17167857603645702379
23522609 53 15792555371485376515
23559900 14 18260270711338161185
23576562 1 18198340659085411269
27425 322 17845928534205448222
4073 2 17703785903447527122
5758199 1 17489870444875725547
999808 66 5472852688878727237

> <PUBCHEM_SHAPE_MULTIPOLES>
517.23
25.4
2.15
1.29
9.53
0.25
-0.02
-8.74
-12.83
-1.03
0.13
-0.59
-0.23
0.63

> <PUBCHEM_SHAPE_SELFOVERLAP>
1095.96

> <PUBCHEM_SHAPE_VOLUME>
289.4

> <PUBCHEM_COORDINATE_TYPE>
2
5
10

$$$$

