7846927
  -OEChem-06241222463D

 46 48  0     1  0  0  0  0  0999 V2000
   -0.5044   -3.1331   -1.3353 S   0  0  0  0  0  0  0  0  0  0  0  0
   -3.3737    0.7671   -0.6844 O   0  0  0  0  0  0  0  0  0  0  0  0
   -3.0328   -0.1697    1.3960 O   0  0  0  0  0  0  0  0  0  0  0  0
   -1.5172    2.2897    1.6371 O   0  0  0  0  0  0  0  0  0  0  0  0
   -0.6676   -2.0439    0.9969 N   0  0  0  0  0  0  0  0  0  0  0  0
   -0.7453    1.9093   -0.5473 N   0  0  0  0  0  0  0  0  0  0  0  0
   -2.8413   -2.7661    0.0728 C   0  0  0  0  0  0  0  0  0  0  0  0
   -3.5926   -1.5594   -0.5200 C   0  0  0  0  0  0  0  0  0  0  0  0
   -1.3728   -2.5931    0.0358 C   0  0  0  0  0  0  0  0  0  0  0  0
   -3.1184    2.0670   -0.1429 C   0  0  1  0  0  0  0  0  0  0  0  0
    0.9623   -2.5950   -0.6058 C   0  0  0  0  0  0  0  0  0  0  0  0
    0.6739   -2.0378    0.6436 C   0  0  0  0  0  0  0  0  0  0  0  0
   -3.2963   -0.2666    0.2054 C   0  0  0  0  0  0  0  0  0  0  0  0
   -1.7074    2.0994    0.4393 C   0  0  0  0  0  0  0  0  0  0  0  0
   -3.2992    3.1112   -1.2347 C   0  0  0  0  0  0  0  0  0  0  0  0
    0.6605    1.8771   -0.3870 C   0  0  0  0  0  0  0  0  0  0  0  0
    2.2736   -2.6612   -1.1034 C   0  0  0  0  0  0  0  0  0  0  0  0
    1.7375   -1.5296    1.4206 C   0  0  0  0  0  0  0  0  0  0  0  0
    1.4644    1.6826   -1.4977 C   0  0  0  0  0  0  0  0  0  0  0  0
    1.2020    2.0407    0.8770 C   0  0  0  0  0  0  0  0  0  0  0  0
    3.4116    1.8142   -0.0736 C   0  0  0  0  0  0  0  0  0  0  0  0
    3.3077   -2.1511   -0.3145 C   0  0  0  0  0  0  0  0  0  0  0  0
    3.0454   -1.5922    0.9313 C   0  0  0  0  0  0  0  0  0  0  0  0
    2.8499    1.6510   -1.3399 C   0  0  0  0  0  0  0  0  0  0  0  0
    2.5876    2.0090    1.0349 C   0  0  0  0  0  0  0  0  0  0  0  0
    4.8926    1.7808    0.0958 C   0  0  0  0  0  0  0  0  0  0  0  0
   -3.1531   -2.9068    1.1156 H   0  0  0  0  0  0  0  0  0  0  0  0
   -3.1461   -3.6748   -0.4607 H   0  0  0  0  0  0  0  0  0  0  0  0
   -4.6731   -1.7315   -0.4700 H   0  0  0  0  0  0  0  0  0  0  0  0
   -3.3150   -1.4481   -1.5754 H   0  0  0  0  0  0  0  0  0  0  0  0
   -3.8368    2.2693    0.6616 H   0  0  0  0  0  0  0  0  0  0  0  0
   -4.3550    3.1672   -1.5225 H   0  0  0  0  0  0  0  0  0  0  0  0
   -2.9792    4.1022   -0.8980 H   0  0  0  0  0  0  0  0  0  0  0  0
   -2.7520    2.8578   -2.1485 H   0  0  0  0  0  0  0  0  0  0  0  0
   -1.0678    1.7467   -1.4979 H   0  0  0  0  0  0  0  0  0  0  0  0
    2.4859   -3.0953   -2.0756 H   0  0  0  0  0  0  0  0  0  0  0  0
    1.5438   -1.0914    2.3955 H   0  0  0  0  0  0  0  0  0  0  0  0
    1.0371    1.5533   -2.4882 H   0  0  0  0  0  0  0  0  0  0  0  0
    0.6332    2.1914    1.7823 H   0  0  0  0  0  0  0  0  0  0  0  0
    4.3300   -2.1910   -0.6813 H   0  0  0  0  0  0  0  0  0  0  0  0
    3.8627   -1.2019    1.5315 H   0  0  0  0  0  0  0  0  0  0  0  0
    3.4818    1.4988   -2.2110 H   0  0  0  0  0  0  0  0  0  0  0  0
    3.0141    2.1370    2.0265 H   0  0  0  0  0  0  0  0  0  0  0  0
    5.3121    2.7786   -0.0661 H   0  0  0  0  0  0  0  0  0  0  0  0
    5.3532    1.0851   -0.6138 H   0  0  0  0  0  0  0  0  0  0  0  0
    5.1702    1.4432    1.1002 H   0  0  0  0  0  0  0  0  0  0  0  0
  1  9  1  0  0  0  0
  1 11  1  0  0  0  0
  2 10  1  0  0  0  0
  2 13  1  0  0  0  0
  3 13  2  0  0  0  0
  4 14  2  0  0  0  0
  5  9  2  0  0  0  0
  5 12  1  0  0  0  0
  6 14  1  0  0  0  0
  6 16  1  0  0  0  0
  6 35  1  0  0  0  0
  7  8  1  0  0  0  0
  7  9  1  0  0  0  0
  7 27  1  0  0  0  0
  7 28  1  0  0  0  0
  8 13  1  0  0  0  0
  8 29  1  0  0  0  0
  8 30  1  0  0  0  0
 10 14  1  0  0  0  0
 10 15  1  0  0  0  0
 10 31  1  0  0  0  0
 11 12  1  0  0  0  0
 11 17  2  0  0  0  0
 12 18  2  0  0  0  0
 15 32  1  0  0  0  0
 15 33  1  0  0  0  0
 15 34  1  0  0  0  0
 16 19  2  0  0  0  0
 16 20  1  0  0  0  0
 17 22  1  0  0  0  0
 17 36  1  0  0  0  0
 18 23  1  0  0  0  0
 18 37  1  0  0  0  0
 19 24  1  0  0  0  0
 19 38  1  0  0  0  0
 20 25  2  0  0  0  0
 20 39  1  0  0  0  0
 21 24  2  0  0  0  0
 21 25  1  0  0  0  0
 21 26  1  0  0  0  0
 22 23  2  0  0  0  0
 22 40  1  0  0  0  0
 23 41  1  0  0  0  0
 24 42  1  0  0  0  0
 25 43  1  0  0  0  0
 26 44  1  0  0  0  0
 26 45  1  0  0  0  0
 26 46  1  0  0  0  0
M  END
> <PUBCHEM_COMPOUND_CID>
7846927

> <PUBCHEM_CONFORMER_RMSD>
1

> <PUBCHEM_CONFORMER_DIVERSEORDER>
1
259
160
116
153
324
242
147
300
61
8
284
281
272
283
215
319
45
205
118
65
149
92
218
290
163
164
254
48
87
56
158
135
326
282
108
72
63
260
213
230
295
136
76
312
198
258
43
317
278
241
332
105
257
84
302
54
200
214
28
194
180
314
184
80
142
91
120
225
96
239
171
144
219
235
128
329
139
293
161
17
122
77
327
103
145
262
99
62
325
269
336
78
97
172
117
251
267
334
2
30
209
67
296
100
237
247
280
44
261
266
233
255
232
311
191
166
245
331
197
25
210
321
68
253
150
82
157
346
165
333
6
268
36
11
7
310
315
95
335
338
342
119
104
286
244
249
42
206
59
323
9
208
270
33
277
34
112
256
49
308
344
85
130
127
176
347
292
66
15
126
83
229
138
113
297
238
217
57
301
32
35
250
3
29
12
189
186
181
52
223
221
129
110
248
81
226
279
195
228
58
318
86
190
98
151
175
109
132
75
204
178
154
51
93
156
73
211
240
264
38
20
216
183
179
349
55
276
273
102
303
188
274
340
313
22
60
101
234
133
328
252
40
106
148
174
134
53
141
125
94
307
23
124
289
350
21
131
182
69
162
316
41
71
107
322
298
320
207
70
203
140
79
121
341
263
227
74
193
64
305
271
89
199
339
16
222
265
285
143
275
24
288
177
19
287
4
309
243
114
343
90
146
196
10
220
168
169
167
345
330
47
294
137
37
201
115
152
187
348
123
159
18
14
13
185
299
306
246
46
27
304
155
39
5
291
31
170
50
173
224
26
192
337
111
231
88
212
236
202

> <PUBCHEM_MMFF94_PARTIAL_CHARGES>
34
1 -0.08
10 0.34
11 0.04
12 0.23
13 0.66
14 0.57
16 0.12
17 -0.15
18 -0.15
19 -0.15
2 -0.43
20 -0.15
21 -0.14
22 -0.15
23 -0.15
24 -0.15
25 -0.15
26 0.14
3 -0.57
35 0.37
36 0.15
37 0.15
38 0.15
39 0.15
4 -0.57
40 0.15
41 0.15
42 0.15
43 0.15
5 -0.57
6 -0.55
7 0.18
8 0.06
9 0.2

> <PUBCHEM_EFFECTIVE_ROTOR_COUNT>
8

> <PUBCHEM_PHARMACOPHORE_FEATURES>
7
1 3 acceptor
1 4 acceptor
1 5 acceptor
1 6 donor
5 1 5 9 11 12 rings
6 11 12 17 18 22 23 rings
6 16 19 20 21 24 25 rings

> <PUBCHEM_HEAVY_ATOM_COUNT>
26

> <PUBCHEM_ATOM_DEF_STEREO_COUNT>
1

> <PUBCHEM_ATOM_UDEF_STEREO_COUNT>
0

> <PUBCHEM_BOND_DEF_STEREO_COUNT>
0

> <PUBCHEM_BOND_UDEF_STEREO_COUNT>
0

> <PUBCHEM_ISOTOPIC_ATOM_COUNT>
0

> <PUBCHEM_COMPONENT_COUNT>
1

> <PUBCHEM_CACTVS_TAUTO_COUNT>
4

> <PUBCHEM_CONFORMER_ID>
0077BC0F00000001

> <PUBCHEM_MMFF94_ENERGY>
55.3142

> <PUBCHEM_FEATURE_SELFOVERLAP>
35.595

> <PUBCHEM_SHAPE_FINGERPRINT>
104564 63 18196378022392701264
10616163 171 18340487751048360516
1100329 8 18193838373353899330
11370993 70 18412552019539689908
11513181 2 18186805785562129822
11578080 2 17130453313354235783
12156800 1 16525035659554507479
12422481 6 18269298853734217344
12788726 201 17908409269953373940
13122387 1 18122060081071041255
13140716 1 18268423719118362689
13642711 20 16589169125400478434
14117953 113 17331977516688254342
14251751 93 18340771425306815756
14251757 17 17897699081821160310
14955137 171 17181060741584028761
15210252 30 17262145342864777772
17492 54 17984119729391599606
19930381 70 15816224244627487038
20691752 17 17274822488578709545
20905425 154 18337948987374286567
23566358 2 18408882944984532094
27425 322 16988559126050584853
338550 245 18272647939481006404
35225 105 18116730529215481780
463206 1 18338517409474563619
469060 322 17766822954120318035
5265222 85 18051118208875585668
6287921 2 18115581694109542126
6443956 14 17617382126640676060
9862522 239 18267318555345052640

> <PUBCHEM_SHAPE_MULTIPOLES>
511.35
6.99
4.95
1.4
0.7
0.95
-0.01
-2.5
0.27
-0.69
0.86
0.19
-0.12
0.18

> <PUBCHEM_SHAPE_SELFOVERLAP>
1084.625

> <PUBCHEM_SHAPE_VOLUME>
286.7

> <PUBCHEM_COORDINATE_TYPE>
2
5
10

$$$$

