17395852
  -OEChem-06241222522D

 47 49  0     1  0  0  0  0  0999 V2000
    7.1962   -0.9998    0.0000 S   0  0  0  0  0  0  0  0  0  0  0  0
    6.6962   -0.1338    0.0000 O   0  0  0  0  0  0  0  0  0  0  0  0
    7.6962   -1.8658    0.0000 O   0  0  0  0  0  0  0  0  0  0  0  0
   10.3833    2.4998    0.0000 O   0  0  0  0  0  0  0  0  0  0  0  0
   10.7404    0.8050    0.0000 N   0  0  0  0  0  0  0  0  0  0  0  0
    6.3301   -1.4998    0.0000 N   0  0  0  0  0  0  0  0  0  0  0  0
    9.7942   -0.4998    0.0000 C   0  0  0  0  0  0  0  0  0  0  0  0
   10.7404   -0.8045    0.0000 C   0  0  0  0  0  0  0  0  0  0  0  0
   11.3241    0.0002    0.0000 C   0  0  0  0  0  0  0  0  0  0  0  0
    9.7942    0.5002    0.0000 C   0  0  0  0  0  0  0  0  0  0  0  0
    8.0622   -0.4998    0.0000 C   0  0  0  0  0  0  0  0  0  0  0  0
    8.9282   -0.9998    0.0000 C   0  0  0  0  0  0  0  0  0  0  0  0
    4.5981   -1.4998    0.0000 C   0  0  3  0  0  0  0  0  0  0  0  0
    5.4641   -0.9998    0.0000 C   0  0  0  0  0  0  0  0  0  0  0  0
    8.9282    1.0002    0.0000 C   0  0  0  0  0  0  0  0  0  0  0  0
    8.0622    0.5002    0.0000 C   0  0  0  0  0  0  0  0  0  0  0  0
   11.0511    1.7555    0.0000 C   0  0  0  0  0  0  0  0  0  0  0  0
    3.7320   -0.9998    0.0000 C   0  0  0  0  0  0  0  0  0  0  0  0
    4.5981   -2.4998    0.0000 C   0  0  0  0  0  0  0  0  0  0  0  0
   12.0296    1.9617    0.0000 C   0  0  0  0  0  0  0  0  0  0  0  0
    3.7320    0.0002    0.0000 C   0  0  0  0  0  0  0  0  0  0  0  0
    2.8660   -1.4998    0.0000 C   0  0  0  0  0  0  0  0  0  0  0  0
    2.8660    0.5002    0.0000 C   0  0  0  0  0  0  0  0  0  0  0  0
    2.0000   -0.9998    0.0000 C   0  0  0  0  0  0  0  0  0  0  0  0
    2.0000    0.0002    0.0000 C   0  0  0  0  0  0  0  0  0  0  0  0
   10.4894   -1.3714    0.0000 H   0  0  0  0  0  0  0  0  0  0  0  0
   11.2778   -1.1137    0.0000 H   0  0  0  0  0  0  0  0  0  0  0  0
   11.7849   -0.4145    0.0000 H   0  0  0  0  0  0  0  0  0  0  0  0
   11.7849    0.4150    0.0000 H   0  0  0  0  0  0  0  0  0  0  0  0
    8.9282   -1.6198    0.0000 H   0  0  0  0  0  0  0  0  0  0  0  0
    5.1350   -1.8098    0.0000 H   0  0  0  0  0  0  0  0  0  0  0  0
    5.8626   -0.5248    0.0000 H   0  0  0  0  0  0  0  0  0  0  0  0
    5.0656   -0.5248    0.0000 H   0  0  0  0  0  0  0  0  0  0  0  0
    8.9282    1.6202    0.0000 H   0  0  0  0  0  0  0  0  0  0  0  0
    7.5252    0.8102    0.0000 H   0  0  0  0  0  0  0  0  0  0  0  0
    6.3301   -2.1198    0.0000 H   0  0  0  0  0  0  0  0  0  0  0  0
    3.9781   -2.4998    0.0000 H   0  0  0  0  0  0  0  0  0  0  0  0
    4.5981   -3.1198    0.0000 H   0  0  0  0  0  0  0  0  0  0  0  0
    5.2181   -2.4998    0.0000 H   0  0  0  0  0  0  0  0  0  0  0  0
   12.1575    1.3550    0.0000 H   0  0  0  0  0  0  0  0  0  0  0  0
   12.6363    2.0896    0.0000 H   0  0  0  0  0  0  0  0  0  0  0  0
   11.9018    2.5684    0.0000 H   0  0  0  0  0  0  0  0  0  0  0  0
    4.2690    0.3102    0.0000 H   0  0  0  0  0  0  0  0  0  0  0  0
    2.8660   -2.1198    0.0000 H   0  0  0  0  0  0  0  0  0  0  0  0
    2.8660    1.1202    0.0000 H   0  0  0  0  0  0  0  0  0  0  0  0
    1.4631   -1.3098    0.0000 H   0  0  0  0  0  0  0  0  0  0  0  0
    1.4631    0.3102    0.0000 H   0  0  0  0  0  0  0  0  0  0  0  0
  1  2  2  0  0  0  0
  1  3  2  0  0  0  0
  1  6  1  0  0  0  0
  1 11  1  0  0  0  0
  4 17  2  0  0  0  0
  5  9  1  0  0  0  0
  5 10  1  0  0  0  0
  5 17  1  0  0  0  0
  6 14  1  0  0  0  0
  6 36  1  0  0  0  0
  7  8  1  0  0  0  0
  7 10  2  0  0  0  0
  7 12  1  0  0  0  0
  8  9  1  0  0  0  0
  8 26  1  0  0  0  0
  8 27  1  0  0  0  0
  9 28  1  0  0  0  0
  9 29  1  0  0  0  0
 10 15  1  0  0  0  0
 11 12  2  0  0  0  0
 11 16  1  0  0  0  0
 12 30  1  0  0  0  0
 13 14  1  0  0  0  0
 13 18  1  0  0  0  0
 13 19  1  0  0  0  0
 13 31  1  0  0  0  0
 14 32  1  0  0  0  0
 14 33  1  0  0  0  0
 15 16  2  0  0  0  0
 15 34  1  0  0  0  0
 16 35  1  0  0  0  0
 17 20  1  0  0  0  0
 18 21  2  0  0  0  0
 18 22  1  0  0  0  0
 19 37  1  0  0  0  0
 19 38  1  0  0  0  0
 19 39  1  0  0  0  0
 20 40  1  0  0  0  0
 20 41  1  0  0  0  0
 20 42  1  0  0  0  0
 21 23  1  0  0  0  0
 21 43  1  0  0  0  0
 22 24  2  0  0  0  0
 22 44  1  0  0  0  0
 23 25  2  0  0  0  0
 23 45  1  0  0  0  0
 24 25  1  0  0  0  0
 24 46  1  0  0  0  0
 25 47  1  0  0  0  0
M  END
> <PUBCHEM_COMPOUND_CID>
17395852

> <PUBCHEM_COMPOUND_CANONICALIZED>
1

> <PUBCHEM_CACTVS_COMPLEXITY>
566

> <PUBCHEM_CACTVS_HBOND_ACCEPTOR>
4

> <PUBCHEM_CACTVS_HBOND_DONOR>
1

> <PUBCHEM_CACTVS_ROTATABLE_BOND>
5

> <PUBCHEM_CACTVS_SUBSKEYS>
AAADceB7MABAAAAAAAAAAAAAAAAAAWAAAAAwYAAAAAAAAFgBQAAAHgQQQAAADQjB2AQywYNAAAKIAiVSUHDCABAhAgAIiJgIZIgIICLAkZGEIAhglgDIyAcQgMAOgAQAgAACAAAACAEAAAQAAAAAAAAAAA==

> <PUBCHEM_IUPAC_OPENEYE_NAME>
1-acetyl-N-(2-phenylpropyl)indoline-5-sulfonamide

> <PUBCHEM_IUPAC_CAS_NAME>
1-acetyl-N-(2-phenylpropyl)-2,3-dihydroindole-5-sulfonamide

> <PUBCHEM_IUPAC_NAME>
1-acetyl-N-(2-phenylpropyl)-2,3-dihydroindole-5-sulfonamide

> <PUBCHEM_IUPAC_SYSTEMATIC_NAME>
1-ethanoyl-N-(2-phenylpropyl)-2,3-dihydroindole-5-sulfonamide

> <PUBCHEM_IUPAC_TRADITIONAL_NAME>
1-acetyl-N-(2-phenylpropyl)indoline-5-sulfonamide

> <PUBCHEM_IUPAC_INCHI>
InChI=1S/C19H22N2O3S/c1-14(16-6-4-3-5-7-16)13-20-25(23,24)18-8-9-19-17(12-18)10-11-21(19)15(2)22/h3-9,12,14,20H,10-11,13H2,1-2H3

> <PUBCHEM_IUPAC_INCHIKEY>
PVLMPXOJAOQYAC-UHFFFAOYSA-N

> <PUBCHEM_XLOGP3_AA>
2.6

> <PUBCHEM_EXACT_MASS>
358.135114

> <PUBCHEM_MOLECULAR_FORMULA>
C19H22N2O3S

> <PUBCHEM_MOLECULAR_WEIGHT>
358.45458

> <PUBCHEM_OPENEYE_CAN_SMILES>
CC(CNS(=O)(=O)C1=CC2=C(C=C1)N(CC2)C(=O)C)C3=CC=CC=C3

> <PUBCHEM_OPENEYE_ISO_SMILES>
CC(CNS(=O)(=O)C1=CC2=C(C=C1)N(CC2)C(=O)C)C3=CC=CC=C3

> <PUBCHEM_CACTVS_TPSA>
74.9

> <PUBCHEM_MONOISOTOPIC_WEIGHT>
358.135114

> <PUBCHEM_TOTAL_CHARGE>
0

> <PUBCHEM_HEAVY_ATOM_COUNT>
25

> <PUBCHEM_ATOM_DEF_STEREO_COUNT>
0

> <PUBCHEM_ATOM_UDEF_STEREO_COUNT>
1

> <PUBCHEM_BOND_DEF_STEREO_COUNT>
0

> <PUBCHEM_BOND_UDEF_STEREO_COUNT>
0

> <PUBCHEM_ISOTOPIC_ATOM_COUNT>
0

> <PUBCHEM_COMPONENT_COUNT>
1

> <PUBCHEM_CACTVS_TAUTO_COUNT>
1

> <PUBCHEM_COORDINATE_TYPE>
1
5
255

> <PUBCHEM_BONDANNOTATIONS>
10  15  8
11  12  8
11  16  8
13  19  3
15  16  8
18  21  8
18  22  8
21  23  8
22  24  8
23  25  8
24  25  8
7  10  8
7  12  8

$$$$

