4834
  -OEChem-06261200223D

 62 65  0     1  0  0  0  0  0999 V2000
    4.2918    2.6201   -0.4988 S   0  0  0  0  0  0  0  0  0  0  0  0
    4.3812   -1.6973   -1.2388 O   0  0  0  0  0  0  0  0  0  0  0  0
    6.0228    1.7347    2.1751 O   0  5  0  0  0  0  0  0  0  0  0  0
    7.6101    0.1309    1.7968 O   0  0  0  0  0  0  0  0  0  0  0  0
    0.1060   -0.0040   -1.6742 O   0  0  0  0  0  0  0  0  0  0  0  0
   -2.6546   -0.6015    2.3226 O   0  0  0  0  0  0  0  0  0  0  0  0
   -3.6095    0.9278   -1.4944 O   0  0  0  0  0  0  0  0  0  0  0  0
   -5.4770    2.7613   -1.5920 O   0  0  0  0  0  0  0  0  0  0  0  0
    4.6792    0.1312    0.2211 N   0  0  0  0  0  0  0  0  0  0  0  0
    1.6106   -0.4179    0.0404 N   0  0  0  0  0  0  0  0  0  0  0  0
   -1.9288   -0.3663    0.1525 N   0  0  0  0  0  0  0  0  0  0  0  0
   -3.9931    0.5930    0.8122 N   0  0  0  0  0  0  0  0  0  0  0  0
   -6.4833    1.8546    0.3082 N   0  0  0  0  0  0  0  0  0  0  0  0
    3.6046    1.1194    0.2961 C   0  0  2  0  0  0  0  0  0  0  0  0
    5.9751    1.8730   -0.7732 C   0  0  0  0  0  0  0  0  0  0  0  0
    6.0445    0.6029    0.1104 C   0  0  1  0  0  0  0  0  0  0  0  0
    2.7811    0.1914   -0.6129 C   0  0  1  0  0  0  0  0  0  0  0  0
    4.0306   -0.7113   -0.6316 C   0  0  0  0  0  0  0  0  0  0  0  0
    7.0407    2.9244   -0.4427 C   0  0  0  0  0  0  0  0  0  0  0  0
    6.0812    1.5134   -2.2653 C   0  0  0  0  0  0  0  0  0  0  0  0
    6.6144    0.8484    1.4985 C   0  0  0  0  0  0  0  0  0  0  0  0
    0.3581   -0.4605   -0.5607 C   0  0  0  0  0  0  0  0  0  0  0  0
   -0.6956   -1.0959    0.3373 C   0  0  2  0  0  0  0  0  0  0  0  0
   -0.8599   -2.5709    0.0547 C   0  0  0  0  0  0  0  0  0  0  0  0
   -2.8420   -0.1665    1.1826 C   0  0  0  0  0  0  0  0  0  0  0  0
   -1.7860   -3.0000   -0.8962 C   0  0  0  0  0  0  0  0  0  0  0  0
   -0.0852   -3.5038    0.7442 C   0  0  0  0  0  0  0  0  0  0  0  0
   -4.9030    0.9573    1.8963 C   0  0  0  0  0  0  0  0  0  0  0  0
   -6.3361    0.9282    1.4130 C   0  0  0  0  0  0  0  0  0  0  0  0
   -4.2603    1.1146   -0.4714 C   0  0  0  0  0  0  0  0  0  0  0  0
   -5.4749    2.0004   -0.6309 C   0  0  0  0  0  0  0  0  0  0  0  0
   -1.9377   -4.3618   -1.1572 C   0  0  0  0  0  0  0  0  0  0  0  0
   -0.2369   -4.8656    0.4829 C   0  0  0  0  0  0  0  0  0  0  0  0
   -7.7495    2.5550    0.1725 C   0  0  0  0  0  0  0  0  0  0  0  0
   -1.1631   -5.2945   -0.4678 C   0  0  0  0  0  0  0  0  0  0  0  0
   -8.7557    1.7358   -0.6093 C   0  0  0  0  0  0  0  0  0  0  0  0
    3.2311    1.2641    1.3144 H   0  0  0  0  0  0  0  0  0  0  0  0
    6.6378   -0.1725   -0.3912 H   0  0  0  0  0  0  0  0  0  0  0  0
    2.5511    0.5939   -1.6063 H   0  0  0  0  0  0  0  0  0  0  0  0
    7.0178    3.7510   -1.1637 H   0  0  0  0  0  0  0  0  0  0  0  0
    8.0438    2.4851   -0.4936 H   0  0  0  0  0  0  0  0  0  0  0  0
    6.9217    3.3734    0.5479 H   0  0  0  0  0  0  0  0  0  0  0  0
    5.9921    2.4012   -2.9029 H   0  0  0  0  0  0  0  0  0  0  0  0
    7.0551    1.0580   -2.4806 H   0  0  0  0  0  0  0  0  0  0  0  0
    5.3135    0.8008   -2.5835 H   0  0  0  0  0  0  0  0  0  0  0  0
    1.7154   -0.8289    0.9651 H   0  0  0  0  0  0  0  0  0  0  0  0
   -0.3999   -0.9666    1.3863 H   0  0  0  0  0  0  0  0  0  0  0  0
   -2.1336   -0.0071   -0.7734 H   0  0  0  0  0  0  0  0  0  0  0  0
   -2.3934   -2.2983   -1.4608 H   0  0  0  0  0  0  0  0  0  0  0  0
    0.6405   -3.1829    1.4868 H   0  0  0  0  0  0  0  0  0  0  0  0
   -4.7888    0.2819    2.7499 H   0  0  0  0  0  0  0  0  0  0  0  0
   -4.6229    1.9653    2.2270 H   0  0  0  0  0  0  0  0  0  0  0  0
   -6.6183   -0.0687    1.0556 H   0  0  0  0  0  0  0  0  0  0  0  0
   -7.0072    1.2122    2.2300 H   0  0  0  0  0  0  0  0  0  0  0  0
   -2.6563   -4.6958   -1.8999 H   0  0  0  0  0  0  0  0  0  0  0  0
    0.3665   -5.5920    1.0193 H   0  0  0  0  0  0  0  0  0  0  0  0
   -7.5742    3.4968   -0.3599 H   0  0  0  0  0  0  0  0  0  0  0  0
   -8.1349    2.8096    1.1654 H   0  0  0  0  0  0  0  0  0  0  0  0
   -1.2805   -6.3548   -0.6718 H   0  0  0  0  0  0  0  0  0  0  0  0
   -9.6953    2.2863   -0.7165 H   0  0  0  0  0  0  0  0  0  0  0  0
   -8.9710    0.7888   -0.1036 H   0  0  0  0  0  0  0  0  0  0  0  0
   -8.3812    1.5005   -1.6111 H   0  0  0  0  0  0  0  0  0  0  0  0
  1 14  1  0  0  0  0
  1 15  1  0  0  0  0
  2 18  2  0  0  0  0
  3 21  1  0  0  0  0
  4 21  2  0  0  0  0
  5 22  2  0  0  0  0
  6 25  2  0  0  0  0
  7 30  2  0  0  0  0
  8 31  2  0  0  0  0
  9 14  1  0  0  0  0
  9 16  1  0  0  0  0
  9 18  1  0  0  0  0
 10 17  1  0  0  0  0
 10 22  1  0  0  0  0
 10 46  1  0  0  0  0
 11 23  1  0  0  0  0
 11 25  1  0  0  0  0
 11 48  1  0  0  0  0
 12 25  1  0  0  0  0
 12 28  1  0  0  0  0
 12 30  1  0  0  0  0
 13 29  1  0  0  0  0
 13 31  1  0  0  0  0
 13 34  1  0  0  0  0
 14 17  1  0  0  0  0
 14 37  1  0  0  0  0
 15 16  1  0  0  0  0
 15 19  1  0  0  0  0
 15 20  1  0  0  0  0
 16 21  1  0  0  0  0
 16 38  1  0  0  0  0
 17 18  1  0  0  0  0
 17 39  1  0  0  0  0
 19 40  1  0  0  0  0
 19 41  1  0  0  0  0
 19 42  1  0  0  0  0
 20 43  1  0  0  0  0
 20 44  1  0  0  0  0
 20 45  1  0  0  0  0
 22 23  1  0  0  0  0
 23 24  1  0  0  0  0
 23 47  1  0  0  0  0
 24 26  2  0  0  0  0
 24 27  1  0  0  0  0
 26 32  1  0  0  0  0
 26 49  1  0  0  0  0
 27 33  2  0  0  0  0
 27 50  1  0  0  0  0
 28 29  1  0  0  0  0
 28 51  1  0  0  0  0
 28 52  1  0  0  0  0
 29 53  1  0  0  0  0
 29 54  1  0  0  0  0
 30 31  1  0  0  0  0
 32 35  2  0  0  0  0
 32 55  1  0  0  0  0
 33 35  1  0  0  0  0
 33 56  1  0  0  0  0
 34 36  1  0  0  0  0
 34 57  1  0  0  0  0
 34 58  1  0  0  0  0
 35 59  1  0  0  0  0
 36 60  1  0  0  0  0
 36 61  1  0  0  0  0
 36 62  1  0  0  0  0
M  CHG  1   3  -1
M  END
> <PUBCHEM_COMPOUND_CID>
4834

> <PUBCHEM_CONFORMER_RMSD>
1.6

> <PUBCHEM_CONFORMER_DIVERSEORDER>
1
78
54
28
90
67
93
50
4
83
86
13
2
11
10
49
40
33
3
52
59
44
74
25
81
65
27
41
53
94
68
58
48
20
34
71
76
14
56
26
38
79
84
29
24
30
16
73
55
8
88
7
77
47
80
75
57
19
61
35
64
87
9
22
5
51
39
12
37
18
72
82
23
21
62
46
92
42
31
17
70
43
85
66
32
89
60
91
6
63
15
45
69
36

> <PUBCHEM_MMFF94_PARTIAL_CHARGES>
40
1 -0.45
10 -0.65
11 -0.73
12 -0.42
13 -0.66
14 0.44
15 0.23
16 0.19
17 0.28
18 0.58
2 -0.57
21 0.91
22 0.57
23 0.5
24 -0.14
25 0.69
26 -0.15
27 -0.15
28 0.3
29 0.3
3 -0.9
30 0.63
31 0.63
32 -0.15
33 -0.15
34 0.3
35 -0.15
4 -0.9
46 0.37
48 0.37
49 0.15
5 -0.57
50 0.15
55 0.15
56 0.15
59 0.15
6 -0.57
7 -0.57
8 -0.57
9 -0.59

> <PUBCHEM_EFFECTIVE_ROTOR_COUNT>
10.6

> <PUBCHEM_PHARMACOPHORE_FEATURES>
15
1 10 donor
1 11 donor
1 2 acceptor
1 3 acceptor
1 4 acceptor
1 5 acceptor
1 6 acceptor
1 7 acceptor
1 8 acceptor
3 15 19 20 hydrophobe
3 3 4 21 anion
4 9 14 17 18 rings
6 12 13 28 29 30 31 rings
6 24 26 27 32 33 35 rings
7 1 9 14 15 16 17 18 rings

> <PUBCHEM_HEAVY_ATOM_COUNT>
36

> <PUBCHEM_ATOM_DEF_STEREO_COUNT>
0

> <PUBCHEM_ATOM_UDEF_STEREO_COUNT>
4

> <PUBCHEM_BOND_DEF_STEREO_COUNT>
0

> <PUBCHEM_BOND_UDEF_STEREO_COUNT>
0

> <PUBCHEM_ISOTOPIC_ATOM_COUNT>
0

> <PUBCHEM_COMPONENT_COUNT>
1

> <PUBCHEM_CACTVS_TAUTO_COUNT>
4

> <PUBCHEM_CONFORMER_ID>
000012E200000001

> <PUBCHEM_MMFF94_ENERGY>
91.4432

> <PUBCHEM_FEATURE_SELFOVERLAP>
80.152

> <PUBCHEM_SHAPE_FINGERPRINT>
10 15 17774999089845889781
10190206 1 18263940864890187063
10369192 42 18342170082034603197
11007060 377 18261674775298119127
11297750 10 17464541901813841323
11443803 9 18341907281454441499
11823591 26 18408888455818086275
11991303 11 18337103463164687447
12107183 9 18342466963190919130
12166972 35 5978386114679384170
12988421 55 18336255825783472097
13673619 4 12175622871588078486
13911987 19 18334288791213381545
14294032 229 18339912711321488539
15183329 4 15574715824418169441
15392192 104 14764045879272191209
16120349 189 18341888580697082663
17913733 40 18339350981338992803
18393751 57 18342734131256760213
19301679 30 10231766603862383209
19304144 158 18129949005125808517
20554085 129 18114195158444246154
21033648 29 18411703170782609128
23522609 53 17773865403949155028
24180151 214 17749386010212479171
255183 313 18272658938923633935
3627633 1 17762052138840151807
4403749 210 18340483370972977107
504843 32 18411978027816453963
5104073 3 18198349451584982080
513202 73 11167951250993596715
5219985 13 18341891909275865431
6009941 240 18114185182205408032
6669772 16 18188204407381513263

> <PUBCHEM_SHAPE_MULTIPOLES>
678.72
22.13
5.3
1.73
1.83
9.27
0.38
-28.89
2.02
4.1
-1.28
-0.79
-0.46
0.01

> <PUBCHEM_SHAPE_SELFOVERLAP>
1431.542

> <PUBCHEM_SHAPE_VOLUME>
382.3

> <PUBCHEM_COORDINATE_TYPE>
2
5
10

$$$$

