47205518
  -OEChem-06241222592D

 38 38  0     1  0  0  0  0  0999 V2000
    3.0000   -3.5600    0.0000 S   0  0  0  0  0  0  0  0  0  0  0  0
    2.0000   -3.5600    0.0000 O   0  0  0  0  0  0  0  0  0  0  0  0
    4.0000   -3.5600    0.0000 O   0  0  0  0  0  0  0  0  0  0  0  0
    4.7320   -2.5600    0.0000 O   0  0  0  0  0  0  0  0  0  0  0  0
    3.8660    3.9400    0.0000 O   0  0  0  0  0  0  0  0  0  0  0  0
    3.8660   -1.0600    0.0000 N   0  0  0  0  0  0  0  0  0  0  0  0
    5.5981    3.9400    0.0000 N   0  0  0  0  0  0  0  0  0  0  0  0
    3.0000   -2.5600    0.0000 C   0  0  3  0  0  0  0  0  0  0  0  0
    3.8660   -2.0600    0.0000 C   0  0  0  0  0  0  0  0  0  0  0  0
    4.7320   -0.5600    0.0000 C   0  0  0  0  0  0  0  0  0  0  0  0
    2.1340   -2.0600    0.0000 C   0  0  0  0  0  0  0  0  0  0  0  0
    4.7320    0.4400    0.0000 C   0  0  0  0  0  0  0  0  0  0  0  0
    3.0000   -4.5600    0.0000 C   0  0  0  0  0  0  0  0  0  0  0  0
    3.0000   -0.5600    0.0000 C   0  0  0  0  0  0  0  0  0  0  0  0
    5.5981    0.9400    0.0000 C   0  0  0  0  0  0  0  0  0  0  0  0
    3.8660    0.9400    0.0000 C   0  0  0  0  0  0  0  0  0  0  0  0
    5.5981    1.9400    0.0000 C   0  0  0  0  0  0  0  0  0  0  0  0
    3.8660    1.9400    0.0000 C   0  0  0  0  0  0  0  0  0  0  0  0
    4.7320    2.4400    0.0000 C   0  0  0  0  0  0  0  0  0  0  0  0
    4.7320    3.4400    0.0000 C   0  0  0  0  0  0  0  0  0  0  0  0
    2.4631   -2.8700    0.0000 H   0  0  0  0  0  0  0  0  0  0  0  0
    4.9441   -1.1426    0.0000 H   0  0  0  0  0  0  0  0  0  0  0  0
    5.3426   -0.4523    0.0000 H   0  0  0  0  0  0  0  0  0  0  0  0
    2.4440   -1.5231    0.0000 H   0  0  0  0  0  0  0  0  0  0  0  0
    1.5970   -1.7500    0.0000 H   0  0  0  0  0  0  0  0  0  0  0  0
    1.8240   -2.5969    0.0000 H   0  0  0  0  0  0  0  0  0  0  0  0
    2.3800   -4.5600    0.0000 H   0  0  0  0  0  0  0  0  0  0  0  0
    3.0000   -5.1800    0.0000 H   0  0  0  0  0  0  0  0  0  0  0  0
    3.6200   -4.5600    0.0000 H   0  0  0  0  0  0  0  0  0  0  0  0
    3.3100   -0.0231    0.0000 H   0  0  0  0  0  0  0  0  0  0  0  0
    2.4631   -0.2500    0.0000 H   0  0  0  0  0  0  0  0  0  0  0  0
    2.6900   -1.0969    0.0000 H   0  0  0  0  0  0  0  0  0  0  0  0
    6.1350    0.6300    0.0000 H   0  0  0  0  0  0  0  0  0  0  0  0
    3.3291    0.6300    0.0000 H   0  0  0  0  0  0  0  0  0  0  0  0
    6.1350    2.2500    0.0000 H   0  0  0  0  0  0  0  0  0  0  0  0
    3.3291    2.2500    0.0000 H   0  0  0  0  0  0  0  0  0  0  0  0
    5.5981    4.5600    0.0000 H   0  0  0  0  0  0  0  0  0  0  0  0
    6.1350    3.6300    0.0000 H   0  0  0  0  0  0  0  0  0  0  0  0
  1  2  2  0  0  0  0
  1  3  2  0  0  0  0
  1  8  1  0  0  0  0
  1 13  1  0  0  0  0
  4  9  2  0  0  0  0
  5 20  2  0  0  0  0
  6  9  1  0  0  0  0
  6 10  1  0  0  0  0
  6 14  1  0  0  0  0
  7 20  1  0  0  0  0
  7 37  1  0  0  0  0
  7 38  1  0  0  0  0
  8  9  1  0  0  0  0
  8 11  1  0  0  0  0
  8 21  1  0  0  0  0
 10 12  1  0  0  0  0
 10 22  1  0  0  0  0
 10 23  1  0  0  0  0
 11 24  1  0  0  0  0
 11 25  1  0  0  0  0
 11 26  1  0  0  0  0
 12 15  2  0  0  0  0
 12 16  1  0  0  0  0
 13 27  1  0  0  0  0
 13 28  1  0  0  0  0
 13 29  1  0  0  0  0
 14 30  1  0  0  0  0
 14 31  1  0  0  0  0
 14 32  1  0  0  0  0
 15 17  1  0  0  0  0
 15 33  1  0  0  0  0
 16 18  2  0  0  0  0
 16 34  1  0  0  0  0
 17 19  2  0  0  0  0
 17 35  1  0  0  0  0
 18 19  1  0  0  0  0
 18 36  1  0  0  0  0
 19 20  1  0  0  0  0
M  END
> <PUBCHEM_COMPOUND_CID>
47205518

> <PUBCHEM_COMPOUND_CANONICALIZED>
1

> <PUBCHEM_CACTVS_COMPLEXITY>
461

> <PUBCHEM_CACTVS_HBOND_ACCEPTOR>
4

> <PUBCHEM_CACTVS_HBOND_DONOR>
1

> <PUBCHEM_CACTVS_ROTATABLE_BOND>
5

> <PUBCHEM_CACTVS_SUBSKEYS>
AAADceBzOABAAAAAAAAAAAAAAAAAAAAAAAAwAAAAAAAAAAABAAAAHgQQAAAADADF2ASyAINAAAqIAiFSEHDCAAAkABAIiAEIBMgIIDKAlRGEIQhghgCIiYcYiACOQAAAAAAAAACAAAAAAAAAAAAAAAAAAA==

> <PUBCHEM_IUPAC_OPENEYE_NAME>
4-[[methyl(2-methylsulfonylpropanoyl)amino]methyl]benzamide

> <PUBCHEM_IUPAC_CAS_NAME>
4-[[methyl-(2-methylsulfonyl-1-oxopropyl)amino]methyl]benzamide

> <PUBCHEM_IUPAC_NAME>
4-[[methyl(2-methylsulfonylpropanoyl)amino]methyl]benzamide

> <PUBCHEM_IUPAC_SYSTEMATIC_NAME>
4-[[methyl(2-methylsulfonylpropanoyl)amino]methyl]benzamide

> <PUBCHEM_IUPAC_TRADITIONAL_NAME>
4-[[2-mesylpropanoyl(methyl)amino]methyl]benzamide

> <PUBCHEM_IUPAC_INCHI>
InChI=1S/C13H18N2O4S/c1-9(20(3,18)19)13(17)15(2)8-10-4-6-11(7-5-10)12(14)16/h4-7,9H,8H2,1-3H3,(H2,14,16)

> <PUBCHEM_IUPAC_INCHIKEY>
NNIOPUWPZSAWON-UHFFFAOYSA-N

> <PUBCHEM_XLOGP3_AA>
-0.1

> <PUBCHEM_EXACT_MASS>
298.098728

> <PUBCHEM_MOLECULAR_FORMULA>
C13H18N2O4S

> <PUBCHEM_MOLECULAR_WEIGHT>
298.35802

> <PUBCHEM_OPENEYE_CAN_SMILES>
CC(C(=O)N(C)CC1=CC=C(C=C1)C(=O)N)S(=O)(=O)C

> <PUBCHEM_OPENEYE_ISO_SMILES>
CC(C(=O)N(C)CC1=CC=C(C=C1)C(=O)N)S(=O)(=O)C

> <PUBCHEM_CACTVS_TPSA>
106

> <PUBCHEM_MONOISOTOPIC_WEIGHT>
298.098728

> <PUBCHEM_TOTAL_CHARGE>
0

> <PUBCHEM_HEAVY_ATOM_COUNT>
20

> <PUBCHEM_ATOM_DEF_STEREO_COUNT>
0

> <PUBCHEM_ATOM_UDEF_STEREO_COUNT>
1

> <PUBCHEM_BOND_DEF_STEREO_COUNT>
0

> <PUBCHEM_BOND_UDEF_STEREO_COUNT>
0

> <PUBCHEM_ISOTOPIC_ATOM_COUNT>
0

> <PUBCHEM_COMPONENT_COUNT>
1

> <PUBCHEM_CACTVS_TAUTO_COUNT>
2

> <PUBCHEM_COORDINATE_TYPE>
1
5
255

> <PUBCHEM_BONDANNOTATIONS>
12  15  8
12  16  8
15  17  8
16  18  8
17  19  8
18  19  8
8  11  3

$$$$

