7194
  -OEChem-06261201533D

 31 32  0     0  0  0  0  0  0999 V2000
   -0.1750    1.1321   -0.3615 O   0  0  0  0  0  0  0  0  0  0  0  0
   -1.5862    2.4480    0.8939 O   0  0  0  0  0  0  0  0  0  0  0  0
    2.0745    1.6799   -1.0616 C   0  0  0  0  0  0  0  0  0  0  0  0
    2.6798    0.4313   -0.4674 C   0  0  0  0  0  0  0  0  0  0  0  0
    0.8371    2.1428   -0.3004 C   0  0  0  0  0  0  0  0  0  0  0  0
    3.6480    0.5476    0.5176 C   0  0  0  0  0  0  0  0  0  0  0  0
    2.2570   -0.8095   -0.9177 C   0  0  0  0  0  0  0  0  0  0  0  0
   -2.2964    0.2987    0.1444 C   0  0  0  0  0  0  0  0  0  0  0  0
    4.2077   -0.6062    1.0663 C   0  0  0  0  0  0  0  0  0  0  0  0
    2.8167   -1.9634   -0.3691 C   0  0  0  0  0  0  0  0  0  0  0  0
   -1.3548    1.3988    0.2781 C   0  0  0  0  0  0  0  0  0  0  0  0
    3.7920   -1.8616    0.6229 C   0  0  0  0  0  0  0  0  0  0  0  0
   -3.6682    0.5513    0.1398 C   0  0  0  0  0  0  0  0  0  0  0  0
   -1.8276   -1.0092    0.0211 C   0  0  0  0  0  0  0  0  0  0  0  0
   -4.5713   -0.5041    0.0119 C   0  0  0  0  0  0  0  0  0  0  0  0
   -2.7306   -2.0645   -0.1069 C   0  0  0  0  0  0  0  0  0  0  0  0
   -4.1025   -1.8119   -0.1115 C   0  0  0  0  0  0  0  0  0  0  0  0
    1.8111    1.4821   -2.1087 H   0  0  0  0  0  0  0  0  0  0  0  0
    2.8218    2.4826   -1.0789 H   0  0  0  0  0  0  0  0  0  0  0  0
    0.4523    3.0616   -0.7577 H   0  0  0  0  0  0  0  0  0  0  0  0
    1.0838    2.3425    0.7492 H   0  0  0  0  0  0  0  0  0  0  0  0
    3.9767    1.5209    0.8705 H   0  0  0  0  0  0  0  0  0  0  0  0
    1.4988   -0.9005   -1.6903 H   0  0  0  0  0  0  0  0  0  0  0  0
    4.9667   -0.5272    1.8391 H   0  0  0  0  0  0  0  0  0  0  0  0
    2.4927   -2.9409   -0.7140 H   0  0  0  0  0  0  0  0  0  0  0  0
    4.2276   -2.7601    1.0504 H   0  0  0  0  0  0  0  0  0  0  0  0
   -4.0503    1.5646    0.2321 H   0  0  0  0  0  0  0  0  0  0  0  0
   -0.7659   -1.2388    0.0362 H   0  0  0  0  0  0  0  0  0  0  0  0
   -5.6394   -0.3077    0.0078 H   0  0  0  0  0  0  0  0  0  0  0  0
   -2.3660   -3.0834   -0.1997 H   0  0  0  0  0  0  0  0  0  0  0  0
   -4.8056   -2.6338   -0.2104 H   0  0  0  0  0  0  0  0  0  0  0  0
  1  5  1  0  0  0  0
  1 11  1  0  0  0  0
  2 11  2  0  0  0  0
  3  4  1  0  0  0  0
  3  5  1  0  0  0  0
  3 18  1  0  0  0  0
  3 19  1  0  0  0  0
  4  6  2  0  0  0  0
  4  7  1  0  0  0  0
  5 20  1  0  0  0  0
  5 21  1  0  0  0  0
  6  9  1  0  0  0  0
  6 22  1  0  0  0  0
  7 10  2  0  0  0  0
  7 23  1  0  0  0  0
  8 11  1  0  0  0  0
  8 13  2  0  0  0  0
  8 14  1  0  0  0  0
  9 12  2  0  0  0  0
  9 24  1  0  0  0  0
 10 12  1  0  0  0  0
 10 25  1  0  0  0  0
 12 26  1  0  0  0  0
 13 15  1  0  0  0  0
 13 27  1  0  0  0  0
 14 16  2  0  0  0  0
 14 28  1  0  0  0  0
 15 17  2  0  0  0  0
 15 29  1  0  0  0  0
 16 17  1  0  0  0  0
 16 30  1  0  0  0  0
 17 31  1  0  0  0  0
M  END
> <PUBCHEM_COMPOUND_CID>
7194

> <PUBCHEM_CONFORMER_RMSD>
0.6

> <PUBCHEM_CONFORMER_DIVERSEORDER>
1
108
94
98
103
7
26
11
17
75
45
34
33
71
72
13
82
96
88
24
120
118
37
73
31
100
84
95
54
15
109
52
65
5
59
97
119
121
8
22
64
39
30
47
36
27
62
40
60
16
125
9
38
67
49
23
6
89
74
70
43
99
42
93
32
110
50
83
123
56
80
117
104
10
77
12
21
35
76
81
53
107
66
25
68
91
122
48
51
86
46
85
41
116
3
44
90
4
105
2
69
78
55
18
101
114
63
14
124
111
106
58
61
87
115
57
20
79
92
28
29
112
19
113
102

> <PUBCHEM_MMFF94_PARTIAL_CHARGES>
27
1 -0.43
10 -0.15
11 0.63
12 -0.15
13 -0.15
14 -0.15
15 -0.15
16 -0.15
17 -0.15
2 -0.57
22 0.15
23 0.15
24 0.15
25 0.15
26 0.15
27 0.15
28 0.15
29 0.15
3 0.14
30 0.15
31 0.15
4 -0.14
5 0.28
6 -0.15
7 -0.15
8 0.09
9 -0.15

> <PUBCHEM_EFFECTIVE_ROTOR_COUNT>
5

> <PUBCHEM_PHARMACOPHORE_FEATURES>
3
1 2 acceptor
6 4 6 7 9 10 12 rings
6 8 13 14 15 16 17 rings

> <PUBCHEM_HEAVY_ATOM_COUNT>
17

> <PUBCHEM_ATOM_DEF_STEREO_COUNT>
0

> <PUBCHEM_ATOM_UDEF_STEREO_COUNT>
0

> <PUBCHEM_BOND_DEF_STEREO_COUNT>
0

> <PUBCHEM_BOND_UDEF_STEREO_COUNT>
0

> <PUBCHEM_ISOTOPIC_ATOM_COUNT>
0

> <PUBCHEM_COMPONENT_COUNT>
1

> <PUBCHEM_CACTVS_TAUTO_COUNT>
1

> <PUBCHEM_CONFORMER_ID>
00001C1A00000001

> <PUBCHEM_MMFF94_ENERGY>
44.6431

> <PUBCHEM_FEATURE_SELFOVERLAP>
15.223

> <PUBCHEM_SHAPE_FINGERPRINT>
10062212 137 18335985290267935519
10366900 7 17748834011760556120
10447042 23 18337122163146124919
10616163 171 18266452101253710263
10618630 7 18410291410668393996
12400797 245 18409171034648826134
12553582 1 18337373977226356045
12670545 2 18059585723259808099
14178342 30 18264489666672318656
14251705 54 18410571777733771190
15196674 1 18411136939431722143
15342168 16 5617242754275938648
15352361 1 18411983576417808554
15415430 10 18343305903104610442
17492 89 18411416211064557266
17834072 14 18408892849216052837
18186145 218 12679463079741799845
20261772 1 17894917299996651390
20291156 8 18413107277290579762
20442098 301 18333448746574644486
20626108 58 18271257005721387817
20645477 70 18130788897725394789
21250096 35 18408325462619365363
21501925 9 18411421708912041028
21673915 165 18409733975917457962
2255824 54 18055063268705403276
22646028 28 18343301474434256546
23184049 29 18410006663048111612
23463225 33 18410288082343039925
23557571 272 18040713709991342186
23559900 14 18261391186933481988
3004659 81 18272368659242782663
339767 52 18341345438885047010
4921388 177 15769486522518460963
5104073 3 18337947905517061353
5161694 15 13686293599795200026
5309563 4 16900728724285528083
8988823 20 17458638769891710665
9709674 26 18341043034538133395

> <PUBCHEM_SHAPE_MULTIPOLES>
338.11
9.22
2.59
0.91
1.97
0.23
0
-4.48
-1.29
-0.04
0
-0.65
0.09
-0.73

> <PUBCHEM_SHAPE_SELFOVERLAP>
718.474

> <PUBCHEM_SHAPE_VOLUME>
187.8

> <PUBCHEM_COORDINATE_TYPE>
2
5
10

$$$$

