12758
  -OEChem-06261207203D

 11 11  0     0  0  0  0  0  0999 V2000
    2.7565    1.2096    0.0003 Cl  0  0  0  0  0  0  0  0  0  0  0  0
   -2.7562    1.2097    0.0008 Cl  0  0  0  0  0  0  0  0  0  0  0  0
    1.6836   -2.0266    0.0006 Cl  0  0  0  0  0  0  0  0  0  0  0  0
   -1.6837   -2.0264   -0.0001 Cl  0  0  0  0  0  0  0  0  0  0  0  0
    0.0001    1.5964   -0.0003 C   0  0  0  0  0  0  0  0  0  0  0  0
    1.1583    0.6424   -0.0003 C   0  0  0  0  0  0  0  0  0  0  0  0
   -1.1583    0.6425   -0.0002 C   0  0  0  0  0  0  0  0  0  0  0  0
    0.7229   -0.6238   -0.0003 C   0  0  0  0  0  0  0  0  0  0  0  0
   -0.7231   -0.6238   -0.0004 C   0  0  0  0  0  0  0  0  0  0  0  0
    0.0001    2.2242    0.8966 H   0  0  0  0  0  0  0  0  0  0  0  0
    0.0000    2.2242   -0.8973 H   0  0  0  0  0  0  0  0  0  0  0  0
  1  6  1  0  0  0  0
  2  7  1  0  0  0  0
  3  8  1  0  0  0  0
  4  9  1  0  0  0  0
  5  6  1  0  0  0  0
  5  7  1  0  0  0  0
  5 10  1  0  0  0  0
  5 11  1  0  0  0  0
  6  8  2  0  0  0  0
  7  9  2  0  0  0  0
  8  9  1  0  0  0  0
M  END
> <PUBCHEM_COMPOUND_CID>
12758

> <PUBCHEM_CONFORMER_RMSD>
0.4

> <PUBCHEM_CONFORMER_DIVERSEORDER>
1

> <PUBCHEM_MMFF94_PARTIAL_CHARGES>
7
1 -0.14
2 -0.14
3 -0.14
4 -0.14
5 0.28
8 0.14
9 0.14

> <PUBCHEM_EFFECTIVE_ROTOR_COUNT>
0.2

> <PUBCHEM_PHARMACOPHORE_FEATURES>
1
5 5 6 7 8 9 rings

> <PUBCHEM_HEAVY_ATOM_COUNT>
9

> <PUBCHEM_ATOM_DEF_STEREO_COUNT>
0

> <PUBCHEM_ATOM_UDEF_STEREO_COUNT>
0

> <PUBCHEM_BOND_DEF_STEREO_COUNT>
0

> <PUBCHEM_BOND_UDEF_STEREO_COUNT>
0

> <PUBCHEM_ISOTOPIC_ATOM_COUNT>
0

> <PUBCHEM_COMPONENT_COUNT>
1

> <PUBCHEM_CACTVS_TAUTO_COUNT>
1

> <PUBCHEM_CONFORMER_ID>
000031D600000001

> <PUBCHEM_MMFF94_ENERGY>
18.3753

> <PUBCHEM_FEATURE_SELFOVERLAP>
5.074

> <PUBCHEM_SHAPE_FINGERPRINT>
12423570 1 8240444174008797802
13380535 21 18338503196974061350
13380535 76 18410582781244642246
14325111 11 18338517551256197313
16945 1 18410855460128486596
193761 8 18410573989446795206
21040471 1 18410574006742624485
21501502 16 18410860957691854755
23552423 10 18343016683953867910
241688 4 16895107517936660466
2748010 2 18410569591421292327
5084963 1 17753882823020816344

> <PUBCHEM_SHAPE_MULTIPOLES>
192.69
3.46
2.37
0.63
0
1.02
0
-0.96
0
0
0
0
0.01
0

> <PUBCHEM_SHAPE_SELFOVERLAP>
364.524

> <PUBCHEM_SHAPE_VOLUME>
120.4

> <PUBCHEM_COORDINATE_TYPE>
2
5
10

$$$$

