13909
  -OEChem-06241222403D

 26 26  0     0  0  0  0  0  0999 V2000
   -2.7140   -0.0124   -0.3766 O   0  0  0  0  0  0  0  0  0  0  0  0
   -1.2670   -0.3022    1.3968 O   0  0  0  0  0  0  0  0  0  0  0  0
    2.3874    2.7003    0.2362 O   0  5  0  0  0  0  0  0  0  0  0  0
    0.3863    2.2548   -0.5489 O   0  0  0  0  0  0  0  0  0  0  0  0
    0.8969   -0.4843   -0.3637 N   0  0  0  0  0  0  0  0  0  0  0  0
    2.6999   -1.5470    0.3355 N   0  0  0  0  0  0  0  0  0  0  0  0
    1.5067    1.8616   -0.1123 N   0  3  0  0  0  0  0  0  0  0  0  0
   -0.4501   -0.2798   -0.8919 C   0  0  0  0  0  0  0  0  0  0  0  0
    1.4831   -1.6891   -0.1413 C   0  0  0  0  0  0  0  0  0  0  0  0
    1.7734    0.4917   -0.0147 C   0  0  0  0  0  0  0  0  0  0  0  0
    2.8869   -0.1898    0.4174 C   0  0  0  0  0  0  0  0  0  0  0  0
   -1.4892   -0.2054    0.1975 C   0  0  0  0  0  0  0  0  0  0  0  0
    0.8029   -2.9711   -0.4169 C   0  0  0  0  0  0  0  0  0  0  0  0
   -3.8138    0.0804    0.5348 C   0  0  0  0  0  0  0  0  0  0  0  0
   -5.0896    0.2921   -0.2521 C   0  0  0  0  0  0  0  0  0  0  0  0
   -0.4839    0.5628   -1.5804 H   0  0  0  0  0  0  0  0  0  0  0  0
   -0.6864   -1.1571   -1.5055 H   0  0  0  0  0  0  0  0  0  0  0  0
    3.8169    0.2215    0.7837 H   0  0  0  0  0  0  0  0  0  0  0  0
    1.4135   -3.8083   -0.0630 H   0  0  0  0  0  0  0  0  0  0  0  0
   -0.1626   -3.0294    0.0950 H   0  0  0  0  0  0  0  0  0  0  0  0
    0.6458   -3.1083   -1.4912 H   0  0  0  0  0  0  0  0  0  0  0  0
   -3.8861   -0.8462    1.1151 H   0  0  0  0  0  0  0  0  0  0  0  0
   -3.6539    0.9245    1.2150 H   0  0  0  0  0  0  0  0  0  0  0  0
   -5.9527    0.3677    0.4152 H   0  0  0  0  0  0  0  0  0  0  0  0
   -5.0251    1.2060   -0.8520 H   0  0  0  0  0  0  0  0  0  0  0  0
   -5.2536   -0.5354   -0.9502 H   0  0  0  0  0  0  0  0  0  0  0  0
  1 12  1  0  0  0  0
  1 14  1  0  0  0  0
  2 12  2  0  0  0  0
  3  7  1  0  0  0  0
  4  7  2  0  0  0  0
  5  8  1  0  0  0  0
  5  9  1  0  0  0  0
  5 10  1  0  0  0  0
  6  9  2  0  0  0  0
  6 11  1  0  0  0  0
  7 10  1  0  0  0  0
  8 12  1  0  0  0  0
  8 16  1  0  0  0  0
  8 17  1  0  0  0  0
  9 13  1  0  0  0  0
 10 11  2  0  0  0  0
 11 18  1  0  0  0  0
 13 19  1  0  0  0  0
 13 20  1  0  0  0  0
 13 21  1  0  0  0  0
 14 15  1  0  0  0  0
 14 22  1  0  0  0  0
 14 23  1  0  0  0  0
 15 24  1  0  0  0  0
 15 25  1  0  0  0  0
 15 26  1  0  0  0  0
M  CHG  2   3  -1   7   1
M  END
> <PUBCHEM_COMPOUND_CID>
13909

> <PUBCHEM_CONFORMER_RMSD>
0.6

> <PUBCHEM_CONFORMER_DIVERSEORDER>
1
30
14
35
29
13
34
26
32
25
12
31
11
33
10
37
36
8
9
22
38
7
19
21
24
28
20
23
27
2
5
4
6
3
17
18
16
15

> <PUBCHEM_MMFF94_PARTIAL_CHARGES>
15
1 -0.43
10 -0.07
11 0.08
12 0.66
13 0.18
14 0.28
18 0.15
2 -0.57
3 -0.52
4 -0.52
5 0.05
6 -0.57
7 0.96
8 0.32
9 0.01

> <PUBCHEM_EFFECTIVE_ROTOR_COUNT>
5

> <PUBCHEM_PHARMACOPHORE_FEATURES>
6
1 2 acceptor
1 3 acceptor
1 3 anion
1 4 acceptor
3 5 6 9 cation
5 5 6 9 10 11 rings

> <PUBCHEM_HEAVY_ATOM_COUNT>
15

> <PUBCHEM_ATOM_DEF_STEREO_COUNT>
0

> <PUBCHEM_ATOM_UDEF_STEREO_COUNT>
0

> <PUBCHEM_BOND_DEF_STEREO_COUNT>
0

> <PUBCHEM_BOND_UDEF_STEREO_COUNT>
0

> <PUBCHEM_ISOTOPIC_ATOM_COUNT>
0

> <PUBCHEM_COMPONENT_COUNT>
1

> <PUBCHEM_CACTVS_TAUTO_COUNT>
1

> <PUBCHEM_CONFORMER_ID>
0000365500000001

> <PUBCHEM_MMFF94_ENERGY>
24.2058

> <PUBCHEM_FEATURE_SELFOVERLAP>
30.527

> <PUBCHEM_SHAPE_FINGERPRINT>
10219947 1 18410011069689942314
10980938 120 18411417285016689357
11471102 20 18411420630827588621
12346645 6 18410575067483365788
13380536 305 18408598137366472166
13922767 16 18342177786736173657
14251717 144 18409731772493726943
15501101 241 18201718470274453061
15775835 57 18042403530303594933
16945 1 18409164441378167102
18186145 218 18334848451079201443
20201158 50 18271804661491648203
20511035 2 17915446208394365518
20559304 39 18335415807088826245
20606313 2 18412826914789572043
20645477 70 18412547617767624847
20871998 22 18119245318677853094
21639500 275 18338246981127358157
22096605 113 18337108969581532713
23558518 356 17910115703235563610
23598291 2 18113625568898211293
2748010 2 18196360429916707870
3060560 45 18333726931585626006
54173680 148 17113820146447050310
7364860 26 18408601465596763845
81228 2 17622150687247854880
8272917 22 18335414703667301231
84936 182 18041562421178146793

> <PUBCHEM_SHAPE_MULTIPOLES>
270.27
6.33
2.51
0.84
10.05
0.24
-0.09
0.54
-0.53
-2.73
0.32
0.21
-0.06
0.07

> <PUBCHEM_SHAPE_SELFOVERLAP>
551.78

> <PUBCHEM_SHAPE_VOLUME>
157.2

> <PUBCHEM_COORDINATE_TYPE>
2
5
10

$$$$

