10309
  -OEChem-06261204273D

 32 34  0     0  0  0  0  0  0999 V2000
    0.4201    2.9518   -1.0958 O   0  0  0  0  0  0  0  0  0  0  0  0
   -3.9508   -1.8461   -0.9365 O   0  0  0  0  0  0  0  0  0  0  0  0
    4.1010   -1.4302   -0.9726 O   0  0  0  0  0  0  0  0  0  0  0  0
   -1.3794    0.3792    0.1691 N   0  0  0  0  0  0  0  0  0  0  0  0
    0.9773   -0.1663    0.2197 N   0  0  0  0  0  0  0  0  0  0  0  0
   -0.0485    0.7081   -0.3743 C   0  0  0  0  0  0  0  0  0  0  0  0
    0.2589    2.1557   -0.0331 C   0  0  0  0  0  0  0  0  0  0  0  0
    0.3989    2.7831    1.1452 C   0  0  0  0  0  0  0  0  0  0  0  0
    0.6803    4.1271    0.8023 C   0  0  0  0  0  0  0  0  0  0  0  0
   -2.0354   -0.4892   -0.5232 C   0  0  0  0  0  0  0  0  0  0  0  0
    1.9930   -0.4072   -0.5366 C   0  0  0  0  0  0  0  0  0  0  0  0
    0.6823    4.1781   -0.5722 C   0  0  0  0  0  0  0  0  0  0  0  0
   -3.3632   -0.9353   -0.1396 C   0  0  0  0  0  0  0  0  0  0  0  0
    3.0914   -1.2523   -0.1017 C   0  0  0  0  0  0  0  0  0  0  0  0
   -4.1421   -0.5855    0.9142 C   0  0  0  0  0  0  0  0  0  0  0  0
    3.2865   -1.9157    1.0650 C   0  0  0  0  0  0  0  0  0  0  0  0
   -5.3275   -1.3447    0.7679 C   0  0  0  0  0  0  0  0  0  0  0  0
    4.5320   -2.5709    0.9155 C   0  0  0  0  0  0  0  0  0  0  0  0
   -5.1618   -2.0955   -0.3726 C   0  0  0  0  0  0  0  0  0  0  0  0
    4.9871   -2.2441   -0.3407 C   0  0  0  0  0  0  0  0  0  0  0  0
   -0.0587    0.6134   -1.4707 H   0  0  0  0  0  0  0  0  0  0  0  0
    0.3161    2.3606    2.1360 H   0  0  0  0  0  0  0  0  0  0  0  0
    0.8594    4.9550    1.4730 H   0  0  0  0  0  0  0  0  0  0  0  0
   -1.6150   -0.9425   -1.4393 H   0  0  0  0  0  0  0  0  0  0  0  0
    2.0788    0.0215   -1.5515 H   0  0  0  0  0  0  0  0  0  0  0  0
    0.8445    4.9682   -1.2908 H   0  0  0  0  0  0  0  0  0  0  0  0
   -3.9100    0.1208    1.6985 H   0  0  0  0  0  0  0  0  0  0  0  0
    2.6332   -1.9404    1.9255 H   0  0  0  0  0  0  0  0  0  0  0  0
   -6.1942   -1.3448    1.4130 H   0  0  0  0  0  0  0  0  0  0  0  0
    5.0352   -3.2023    1.6335 H   0  0  0  0  0  0  0  0  0  0  0  0
   -5.7786   -2.8160   -0.8896 H   0  0  0  0  0  0  0  0  0  0  0  0
    5.8741   -2.4957   -0.9035 H   0  0  0  0  0  0  0  0  0  0  0  0
  1  7  1  0  0  0  0
  1 12  1  0  0  0  0
  2 13  1  0  0  0  0
  2 19  1  0  0  0  0
  3 14  1  0  0  0  0
  3 20  1  0  0  0  0
  4  6  1  0  0  0  0
  4 10  2  0  0  0  0
  5  6  1  0  0  0  0
  5 11  2  0  0  0  0
  6  7  1  0  0  0  0
  6 21  1  0  0  0  0
  7  8  2  0  0  0  0
  8  9  1  0  0  0  0
  8 22  1  0  0  0  0
  9 12  2  0  0  0  0
  9 23  1  0  0  0  0
 10 13  1  0  0  0  0
 10 24  1  0  0  0  0
 11 14  1  0  0  0  0
 11 25  1  0  0  0  0
 12 26  1  0  0  0  0
 13 15  2  0  0  0  0
 14 16  2  0  0  0  0
 15 17  1  0  0  0  0
 15 27  1  0  0  0  0
 16 18  1  0  0  0  0
 16 28  1  0  0  0  0
 17 19  2  0  0  0  0
 17 29  1  0  0  0  0
 18 20  2  0  0  0  0
 18 30  1  0  0  0  0
 19 31  1  0  0  0  0
 20 32  1  0  0  0  0
M  END
> <PUBCHEM_COMPOUND_CID>
10309

> <PUBCHEM_CONFORMER_RMSD>
0.8

> <PUBCHEM_CONFORMER_DIVERSEORDER>
1
47
42
52
56
8
55
62
20
43
34
22
23
64
14
9
51
49
32
61
40
45
25
26
48
59
36
19
12
54
5
6
41
58
16
28
15
21
63
29
38
46
50
39
11
7
33
37
30
17
35
31
4
44
24
10
2
57
53
3
60
13
18
27

> <PUBCHEM_MMFF94_PARTIAL_CHARGES>
31
1 -0.28
10 0.47
11 0.47
12 -0.01
13 0.05
14 0.05
15 -0.15
16 -0.15
17 -0.15
18 -0.15
19 -0.01
2 -0.28
20 -0.01
22 0.15
23 0.15
24 0.06
25 0.06
26 0.15
27 0.15
28 0.15
29 0.15
3 -0.28
30 0.15
31 0.15
32 0.15
4 -0.7
5 -0.7
6 0.67
7 -0.04
8 -0.15
9 -0.15

> <PUBCHEM_EFFECTIVE_ROTOR_COUNT>
5

> <PUBCHEM_PHARMACOPHORE_FEATURES>
8
1 1 acceptor
1 2 acceptor
1 3 acceptor
1 4 acceptor
1 5 acceptor
5 1 7 8 9 12 rings
5 2 13 15 17 19 rings
5 3 14 16 18 20 rings

> <PUBCHEM_HEAVY_ATOM_COUNT>
20

> <PUBCHEM_ATOM_DEF_STEREO_COUNT>
0

> <PUBCHEM_ATOM_UDEF_STEREO_COUNT>
0

> <PUBCHEM_BOND_DEF_STEREO_COUNT>
0

> <PUBCHEM_BOND_UDEF_STEREO_COUNT>
2

> <PUBCHEM_ISOTOPIC_ATOM_COUNT>
0

> <PUBCHEM_COMPONENT_COUNT>
1

> <PUBCHEM_CACTVS_TAUTO_COUNT>
1

> <PUBCHEM_CONFORMER_ID>
0000284500000001

> <PUBCHEM_MMFF94_ENERGY>
19.5593

> <PUBCHEM_FEATURE_SELFOVERLAP>
40.624

> <PUBCHEM_SHAPE_FINGERPRINT>
10074138 170 17904776813772703297
11045515 52 18272931665120819948
11056379 131 18121491621339503470
11265709 11 18410287042750022458
11809386 21 17909830169858117466
12107183 9 18335127735944182801
12516196 113 18410855460276413650
12553582 1 18409737278315188126
12788726 201 18198903789549278226
13004483 165 18337960090022891666
13009979 54 17968361395482159969
13052359 8 17908145730380289565
13140716 1 18336267967329294824
13533116 47 18194680368314275907
13955234 65 18049718525713456825
14251757 5 18055363684682931757
14739800 52 17024592184009104897
15042514 8 18121776390054742617
15163728 17 8790601580181983035
15878777 1 8857832030511931924
17492 89 18265896848762794219
17539 30 18196097865465068229
17980427 26 17683251265410556052
1813 80 18334286578534973735
18222031 100 18333172768982389207
20739085 24 18260264123016590638
20832881 197 18343582958539141179
21049683 271 18200020734201070644
21120745 212 18264752424377160828
21304303 172 18115301319219557041
21304303 282 17189853522986043628
21426921 1 18122625226448953094
2255824 54 18192989327308034343
22849341 161 18263624265190251313
22950370 63 18410849988377282650
23366157 5 18196652882935328789
23559900 14 18338806602876932779
283562 15 18198903802476215682
3091708 16 9139175289149196480
314173 41 18411131411793494710
314173 85 18261677068320025374
314194 84 18340762659205172699
3421961 26 18338238163269258041
351380 3 18412824707029520299
4409770 3 17910680087813680605
458136 41 17908697328961753941
621550 5 17989488524210440189
633830 44 10447934974680504051
6442390 28 17114654117426517473
7164475 11 18197493142116708550
7364860 26 18191867821058043189
77188 2 18410293614219329604
7970288 3 18411421738703622787
8863177 126 17986939762148634131
9841814 1 18335690603433576847
9981440 41 8862939481297567015

> <PUBCHEM_SHAPE_MULTIPOLES>
384.02
10.45
5.01
1.07
5.6
7.36
-0.11
-15.75
-0.75
-3.1
-0.33
-0.14
0.09
-0.51

> <PUBCHEM_SHAPE_SELFOVERLAP>
836.697

> <PUBCHEM_SHAPE_VOLUME>
211.4

> <PUBCHEM_COORDINATE_TYPE>
2
5
10

$$$$

