51090850
  -OEChem-06241223002D

 38 41  0     0  0  0  0  0  0999 V2000
    9.7250   -1.4453    0.0000 O   0  0  0  0  0  0  0  0  0  0  0  0
    9.7250   -3.0547    0.0000 O   0  0  0  0  0  0  0  0  0  0  0  0
    7.9128    1.7500    0.0000 O   0  0  0  0  0  0  0  0  0  0  0  0
    7.0468    0.2500    0.0000 N   0  0  0  0  0  0  0  0  0  0  0  0
    3.5827    1.2500    0.0000 N   0  0  0  0  0  0  0  0  0  0  0  0
    4.4487    2.7500    0.0000 N   0  0  0  0  0  0  0  0  0  0  0  0
    2.5000    0.0476    0.0000 N   0  0  0  0  0  0  0  0  0  0  0  0
    7.9128   -1.2500    0.0000 C   0  0  0  0  0  0  0  0  0  0  0  0
    8.7788   -1.7500    0.0000 C   0  0  0  0  0  0  0  0  0  0  0  0
    7.9128   -0.2500    0.0000 C   0  0  0  0  0  0  0  0  0  0  0  0
    8.7788   -2.7500    0.0000 C   0  0  0  0  0  0  0  0  0  0  0  0
    7.0468   -1.7500    0.0000 C   0  0  0  0  0  0  0  0  0  0  0  0
    7.9128   -3.2500    0.0000 C   0  0  0  0  0  0  0  0  0  0  0  0
   10.3087   -2.2500    0.0000 C   0  0  0  0  0  0  0  0  0  0  0  0
    7.0468   -2.7500    0.0000 C   0  0  0  0  0  0  0  0  0  0  0  0
    6.1808    1.7500    0.0000 C   0  0  0  0  0  0  0  0  0  0  0  0
    7.0468    1.2500    0.0000 C   0  0  0  0  0  0  0  0  0  0  0  0
    4.4487    1.7500    0.0000 C   0  0  0  0  0  0  0  0  0  0  0  0
    5.3147    1.2500    0.0000 C   0  0  0  0  0  0  0  0  0  0  0  0
    6.1808    2.7500    0.0000 C   0  0  0  0  0  0  0  0  0  0  0  0
    5.3147    3.2500    0.0000 C   0  0  0  0  0  0  0  0  0  0  0  0
    2.6691    1.6567    0.0000 C   0  0  0  0  0  0  0  0  0  0  0  0
    3.4782    0.2555    0.0000 C   0  0  0  0  0  0  0  0  0  0  0  0
    2.0000    0.9136    0.0000 C   0  0  0  0  0  0  0  0  0  0  0  0
    8.5234   -0.3577    0.0000 H   0  0  0  0  0  0  0  0  0  0  0  0
    8.1249    0.3326    0.0000 H   0  0  0  0  0  0  0  0  0  0  0  0
    6.5098   -1.4400    0.0000 H   0  0  0  0  0  0  0  0  0  0  0  0
    6.5098   -0.0600    0.0000 H   0  0  0  0  0  0  0  0  0  0  0  0
    7.9128   -3.8700    0.0000 H   0  0  0  0  0  0  0  0  0  0  0  0
   10.7695   -2.6647    0.0000 H   0  0  0  0  0  0  0  0  0  0  0  0
   10.7695   -1.8353    0.0000 H   0  0  0  0  0  0  0  0  0  0  0  0
    6.5098   -3.0600    0.0000 H   0  0  0  0  0  0  0  0  0  0  0  0
    5.3147    0.6300    0.0000 H   0  0  0  0  0  0  0  0  0  0  0  0
    6.7177    3.0600    0.0000 H   0  0  0  0  0  0  0  0  0  0  0  0
    5.3147    3.8700    0.0000 H   0  0  0  0  0  0  0  0  0  0  0  0
    2.5402    2.2632    0.0000 H   0  0  0  0  0  0  0  0  0  0  0  0
    3.9389   -0.1594    0.0000 H   0  0  0  0  0  0  0  0  0  0  0  0
    1.3834    0.9784    0.0000 H   0  0  0  0  0  0  0  0  0  0  0  0
  1  9  1  0  0  0  0
  1 14  1  0  0  0  0
  2 11  1  0  0  0  0
  2 14  1  0  0  0  0
  3 17  2  0  0  0  0
  4 10  1  0  0  0  0
  4 17  1  0  0  0  0
  4 28  1  0  0  0  0
  5 18  1  0  0  0  0
  5 22  1  0  0  0  0
  5 23  1  0  0  0  0
  6 18  2  0  0  0  0
  6 21  1  0  0  0  0
  7 23  2  0  0  0  0
  7 24  1  0  0  0  0
  8  9  2  0  0  0  0
  8 10  1  0  0  0  0
  8 12  1  0  0  0  0
  9 11  1  0  0  0  0
 10 25  1  0  0  0  0
 10 26  1  0  0  0  0
 11 13  2  0  0  0  0
 12 15  2  0  0  0  0
 12 27  1  0  0  0  0
 13 15  1  0  0  0  0
 13 29  1  0  0  0  0
 14 30  1  0  0  0  0
 14 31  1  0  0  0  0
 15 32  1  0  0  0  0
 16 17  1  0  0  0  0
 16 19  2  0  0  0  0
 16 20  1  0  0  0  0
 18 19  1  0  0  0  0
 19 33  1  0  0  0  0
 20 21  2  0  0  0  0
 20 34  1  0  0  0  0
 21 35  1  0  0  0  0
 22 24  2  0  0  0  0
 22 36  1  0  0  0  0
 23 37  1  0  0  0  0
 24 38  1  0  0  0  0
M  END
> <PUBCHEM_COMPOUND_CID>
51090850

> <PUBCHEM_COMPOUND_CANONICALIZED>
1

> <PUBCHEM_CACTVS_COMPLEXITY>
450

> <PUBCHEM_CACTVS_HBOND_ACCEPTOR>
5

> <PUBCHEM_CACTVS_HBOND_DONOR>
1

> <PUBCHEM_CACTVS_ROTATABLE_BOND>
4

> <PUBCHEM_CACTVS_SUBSKEYS>
AAADccB7sAAAAAAAAAAAAAAAAAAAAWJAAAA8QAAAAAAAAEgB8AAAHgAQAAAADATBmgc9vpfMFACoAjN3dACCiC01MqAJ2KE+/NidbnLEvZu0MSpuxhPO6ae0wDAOAAABAAAIQAAAAAIAABCAAAAAAAAAAA==

> <PUBCHEM_IUPAC_OPENEYE_NAME>
N-(1,3-benzodioxol-4-ylmethyl)-2-imidazol-1-yl-pyridine-4-carboxamide

> <PUBCHEM_IUPAC_CAS_NAME>
N-(1,3-benzodioxol-4-ylmethyl)-2-(1-imidazolyl)-4-pyridinecarboxamide

> <PUBCHEM_IUPAC_NAME>
N-(1,3-benzodioxol-4-ylmethyl)-2-imidazol-1-ylpyridine-4-carboxamide

> <PUBCHEM_IUPAC_SYSTEMATIC_NAME>
N-(1,3-benzodioxol-4-ylmethyl)-2-imidazol-1-yl-pyridine-4-carboxamide

> <PUBCHEM_IUPAC_TRADITIONAL_NAME>
N-(1,3-benzodioxol-4-ylmethyl)-2-imidazol-1-yl-isonicotinamide

> <PUBCHEM_IUPAC_INCHI>
InChI=1S/C17H14N4O3/c22-17(12-4-5-19-15(8-12)21-7-6-18-10-21)20-9-13-2-1-3-14-16(13)24-11-23-14/h1-8,10H,9,11H2,(H,20,22)

> <PUBCHEM_IUPAC_INCHIKEY>
FMGIIUFESKBZCV-UHFFFAOYSA-N

> <PUBCHEM_XLOGP3_AA>
1.5

> <PUBCHEM_EXACT_MASS>
322.10659

> <PUBCHEM_MOLECULAR_FORMULA>
C17H14N4O3

> <PUBCHEM_MOLECULAR_WEIGHT>
322.31806

> <PUBCHEM_OPENEYE_CAN_SMILES>
C1OC2=CC=CC(=C2O1)CNC(=O)C3=CC(=NC=C3)N4C=CN=C4

> <PUBCHEM_OPENEYE_ISO_SMILES>
C1OC2=CC=CC(=C2O1)CNC(=O)C3=CC(=NC=C3)N4C=CN=C4

> <PUBCHEM_CACTVS_TPSA>
78.3

> <PUBCHEM_MONOISOTOPIC_WEIGHT>
322.10659

> <PUBCHEM_TOTAL_CHARGE>
0

> <PUBCHEM_HEAVY_ATOM_COUNT>
24

> <PUBCHEM_ATOM_DEF_STEREO_COUNT>
0

> <PUBCHEM_ATOM_UDEF_STEREO_COUNT>
0

> <PUBCHEM_BOND_DEF_STEREO_COUNT>
0

> <PUBCHEM_BOND_UDEF_STEREO_COUNT>
0

> <PUBCHEM_ISOTOPIC_ATOM_COUNT>
0

> <PUBCHEM_COMPONENT_COUNT>
1

> <PUBCHEM_CACTVS_TAUTO_COUNT>
2

> <PUBCHEM_COORDINATE_TYPE>
1
5
255

> <PUBCHEM_BONDANNOTATIONS>
11  13  8
12  15  8
13  15  8
16  19  8
16  20  8
18  19  8
20  21  8
22  24  8
5  22  8
5  23  8
6  18  8
6  21  8
7  23  8
7  24  8
8  12  8
8  9  8
9  11  8

$$$$

