17396460
  -OEChem-06241222562D

 49 52  0     0  0  0  0  0  0999 V2000
    6.4383   -0.2423    0.0000 S   0  0  0  0  0  0  0  0  0  0  0  0
    7.2473    3.3455    0.0000 O   0  0  0  0  0  0  0  0  0  0  0  0
    6.5662   -2.9159    0.0000 O   0  0  0  0  0  0  0  0  0  0  0  0
    2.9136   -3.3455    0.0000 O   0  0  0  0  0  0  0  0  0  0  0  0
    7.2473    1.3455    0.0000 N   0  0  0  0  0  0  0  0  0  0  0  0
    5.1650   -1.8978    0.0000 N   0  0  0  0  0  0  0  0  0  0  0  0
    8.1133    1.8455    0.0000 C   0  0  0  0  0  0  0  0  0  0  0  0
    6.3813    1.8455    0.0000 C   0  0  0  0  0  0  0  0  0  0  0  0
    7.2473    0.3455    0.0000 C   0  0  0  0  0  0  0  0  0  0  0  0
    8.1133    2.8455    0.0000 C   0  0  0  0  0  0  0  0  0  0  0  0
    6.3813    2.8455    0.0000 C   0  0  0  0  0  0  0  0  0  0  0  0
    8.0563   -0.2423    0.0000 C   0  0  0  0  0  0  0  0  0  0  0  0
    6.7473   -1.1934    0.0000 C   0  0  0  0  0  0  0  0  0  0  0  0
    7.7473   -1.1934    0.0000 C   0  0  0  0  0  0  0  0  0  0  0  0
    9.0074    0.0667    0.0000 C   0  0  0  0  0  0  0  0  0  0  0  0
    6.1595   -2.0024    0.0000 C   0  0  0  0  0  0  0  0  0  0  0  0
    4.5772   -2.7069    0.0000 C   0  0  0  0  0  0  0  0  0  0  0  0
    9.7505   -0.6024    0.0000 C   0  0  0  0  0  0  0  0  0  0  0  0
    9.2153    1.0449    0.0000 C   0  0  0  0  0  0  0  0  0  0  0  0
    4.7582   -0.9843    0.0000 C   0  0  0  0  0  0  0  0  0  0  0  0
    3.5827   -2.6023    0.0000 C   0  0  0  0  0  0  0  0  0  0  0  0
   10.7016   -0.2934    0.0000 C   0  0  0  0  0  0  0  0  0  0  0  0
   10.1663    1.3539    0.0000 C   0  0  0  0  0  0  0  0  0  0  0  0
   10.9095    0.6847    0.0000 C   0  0  0  0  0  0  0  0  0  0  0  0
    3.0827   -1.7363    0.0000 C   0  0  0  0  0  0  0  0  0  0  0  0
    2.1045   -1.9442    0.0000 C   0  0  0  0  0  0  0  0  0  0  0  0
    2.0000   -2.9388    0.0000 C   0  0  0  0  0  0  0  0  0  0  0  0
    5.7707    1.9531    0.0000 H   0  0  0  0  0  0  0  0  0  0  0  0
    6.1692    1.2629    0.0000 H   0  0  0  0  0  0  0  0  0  0  0  0
    8.3254    1.2629    0.0000 H   0  0  0  0  0  0  0  0  0  0  0  0
    8.7239    1.9531    0.0000 H   0  0  0  0  0  0  0  0  0  0  0  0
    6.1692    3.4281    0.0000 H   0  0  0  0  0  0  0  0  0  0  0  0
    5.7707    2.7378    0.0000 H   0  0  0  0  0  0  0  0  0  0  0  0
    8.7239    2.7378    0.0000 H   0  0  0  0  0  0  0  0  0  0  0  0
    8.3254    3.4281    0.0000 H   0  0  0  0  0  0  0  0  0  0  0  0
    8.1117   -1.6950    0.0000 H   0  0  0  0  0  0  0  0  0  0  0  0
    4.4063   -3.3028    0.0000 H   0  0  0  0  0  0  0  0  0  0  0  0
    5.1344   -2.9787    0.0000 H   0  0  0  0  0  0  0  0  0  0  0  0
    9.6216   -1.2089    0.0000 H   0  0  0  0  0  0  0  0  0  0  0  0
    8.7545    1.4597    0.0000 H   0  0  0  0  0  0  0  0  0  0  0  0
    5.3246   -0.7321    0.0000 H   0  0  0  0  0  0  0  0  0  0  0  0
    4.5061   -0.4179    0.0000 H   0  0  0  0  0  0  0  0  0  0  0  0
    4.1918   -1.2365    0.0000 H   0  0  0  0  0  0  0  0  0  0  0  0
   11.1623   -0.7083    0.0000 H   0  0  0  0  0  0  0  0  0  0  0  0
   10.2952    1.9603    0.0000 H   0  0  0  0  0  0  0  0  0  0  0  0
   11.4991    0.8763    0.0000 H   0  0  0  0  0  0  0  0  0  0  0  0
    3.3348   -1.1699    0.0000 H   0  0  0  0  0  0  0  0  0  0  0  0
    1.6438   -1.5294    0.0000 H   0  0  0  0  0  0  0  0  0  0  0  0
    1.4631   -3.2487    0.0000 H   0  0  0  0  0  0  0  0  0  0  0  0
  1  9  1  0  0  0  0
  1 13  1  0  0  0  0
  2 10  1  0  0  0  0
  2 11  1  0  0  0  0
  3 16  2  0  0  0  0
  4 21  1  0  0  0  0
  4 27  1  0  0  0  0
  5  7  1  0  0  0  0
  5  8  1  0  0  0  0
  5  9  1  0  0  0  0
  6 16  1  0  0  0  0
  6 17  1  0  0  0  0
  6 20  1  0  0  0  0
  7 10  1  0  0  0  0
  7 30  1  0  0  0  0
  7 31  1  0  0  0  0
  8 11  1  0  0  0  0
  8 28  1  0  0  0  0
  8 29  1  0  0  0  0
  9 12  2  0  0  0  0
 10 34  1  0  0  0  0
 10 35  1  0  0  0  0
 11 32  1  0  0  0  0
 11 33  1  0  0  0  0
 12 14  1  0  0  0  0
 12 15  1  0  0  0  0
 13 14  2  0  0  0  0
 13 16  1  0  0  0  0
 14 36  1  0  0  0  0
 15 18  2  0  0  0  0
 15 19  1  0  0  0  0
 17 21  1  0  0  0  0
 17 37  1  0  0  0  0
 17 38  1  0  0  0  0
 18 22  1  0  0  0  0
 18 39  1  0  0  0  0
 19 23  2  0  0  0  0
 19 40  1  0  0  0  0
 20 41  1  0  0  0  0
 20 42  1  0  0  0  0
 20 43  1  0  0  0  0
 21 25  2  0  0  0  0
 22 24  2  0  0  0  0
 22 44  1  0  0  0  0
 23 24  1  0  0  0  0
 23 45  1  0  0  0  0
 24 46  1  0  0  0  0
 25 26  1  0  0  0  0
 25 47  1  0  0  0  0
 26 27  2  0  0  0  0
 26 48  1  0  0  0  0
 27 49  1  0  0  0  0
M  END
> <PUBCHEM_COMPOUND_CID>
17396460

> <PUBCHEM_COMPOUND_CANONICALIZED>
1

> <PUBCHEM_CACTVS_COMPLEXITY>
494

> <PUBCHEM_CACTVS_HBOND_ACCEPTOR>
5

> <PUBCHEM_CACTVS_HBOND_DONOR>
0

> <PUBCHEM_CACTVS_ROTATABLE_BOND>
5

> <PUBCHEM_CACTVS_SUBSKEYS>
AAADceB7MABAAAAAAAAAAAAAAAAAASJAAAA8QAAAAAAAAAAB8AAAHgQAAAAADATh2AYyhYMABEiMAqlS0ACDCIBlKBhIiBmOTMgOJjLktbuHOSjkxhH46YeYmcKOgAAAAAAAAAAAAAAAAAAAAAAAAAAAAA==

> <PUBCHEM_IUPAC_OPENEYE_NAME>
N-(2-furylmethyl)-N-methyl-5-morpholino-4-phenyl-thiophene-2-carboxamide

> <PUBCHEM_IUPAC_CAS_NAME>
N-(2-furanylmethyl)-N-methyl-5-(4-morpholinyl)-4-phenyl-2-thiophenecarboxamide

> <PUBCHEM_IUPAC_NAME>
N-(furan-2-ylmethyl)-N-methyl-5-morpholin-4-yl-4-phenylthiophene-2-carboxamide

> <PUBCHEM_IUPAC_SYSTEMATIC_NAME>
N-(furan-2-ylmethyl)-N-methyl-5-morpholin-4-yl-4-phenyl-thiophene-2-carboxamide

> <PUBCHEM_IUPAC_TRADITIONAL_NAME>
N-(2-furfuryl)-N-methyl-5-morpholino-4-phenyl-thiophene-2-carboxamide

> <PUBCHEM_IUPAC_INCHI>
InChI=1S/C21H22N2O3S/c1-22(15-17-8-5-11-26-17)20(24)19-14-18(16-6-3-2-4-7-16)21(27-19)23-9-12-25-13-10-23/h2-8,11,14H,9-10,12-13,15H2,1H3

> <PUBCHEM_IUPAC_INCHIKEY>
VRCJSCOUMHBVMZ-UHFFFAOYSA-N

> <PUBCHEM_XLOGP3_AA>
3.7

> <PUBCHEM_EXACT_MASS>
382.135114

> <PUBCHEM_MOLECULAR_FORMULA>
C21H22N2O3S

> <PUBCHEM_MOLECULAR_WEIGHT>
382.47598

> <PUBCHEM_OPENEYE_CAN_SMILES>
CN(CC1=CC=CO1)C(=O)C2=CC(=C(S2)N3CCOCC3)C4=CC=CC=C4

> <PUBCHEM_OPENEYE_ISO_SMILES>
CN(CC1=CC=CO1)C(=O)C2=CC(=C(S2)N3CCOCC3)C4=CC=CC=C4

> <PUBCHEM_CACTVS_TPSA>
74.2

> <PUBCHEM_MONOISOTOPIC_WEIGHT>
382.135114

> <PUBCHEM_TOTAL_CHARGE>
0

> <PUBCHEM_HEAVY_ATOM_COUNT>
27

> <PUBCHEM_ATOM_DEF_STEREO_COUNT>
0

> <PUBCHEM_ATOM_UDEF_STEREO_COUNT>
0

> <PUBCHEM_BOND_DEF_STEREO_COUNT>
0

> <PUBCHEM_BOND_UDEF_STEREO_COUNT>
0

> <PUBCHEM_ISOTOPIC_ATOM_COUNT>
0

> <PUBCHEM_COMPONENT_COUNT>
1

> <PUBCHEM_CACTVS_TAUTO_COUNT>
1

> <PUBCHEM_COORDINATE_TYPE>
1
5
255

> <PUBCHEM_BONDANNOTATIONS>
1  13  8
1  9  8
12  14  8
13  14  8
15  18  8
15  19  8
18  22  8
19  23  8
21  25  8
22  24  8
23  24  8
25  26  8
26  27  8
4  21  8
4  27  8
9  12  8

$$$$

