4877
  -OEChem-06261200233D

 43 46  0     0  0  0  0  0  0999 V2000
    2.1284    0.8353   -0.1243 N   0  0  0  0  0  0  0  0  0  0  0  0
    0.8929    1.2316   -0.4825 N   0  0  0  0  0  0  0  0  0  0  0  0
    3.3216   -1.1818    0.4840 N   0  0  0  0  0  0  0  0  0  0  0  0
    1.8635   -3.1371    0.4508 N   0  0  0  0  0  0  0  0  0  0  0  0
   -0.4502   -3.0111   -0.1219 N   0  0  0  0  0  0  0  0  0  0  0  0
    3.1889    1.8102   -0.0285 C   0  0  0  0  0  0  0  0  0  0  0  0
    2.2238   -0.5037    0.1136 C   0  0  0  0  0  0  0  0  0  0  0  0
    4.3245    1.4433   -1.0095 C   0  0  0  0  0  0  0  0  0  0  0  0
    3.7391    1.8428    1.4148 C   0  0  0  0  0  0  0  0  0  0  0  0
    2.7480    3.2546   -0.3722 C   0  0  0  0  0  0  0  0  0  0  0  0
    0.9591   -1.0214   -0.1046 C   0  0  0  0  0  0  0  0  0  0  0  0
    0.1870    0.0964   -0.4681 C   0  0  0  0  0  0  0  0  0  0  0  0
   -1.2154    0.1213   -0.8060 C   0  0  0  0  0  0  0  0  0  0  0  0
   -2.2186    0.3168    0.1572 C   0  0  0  0  0  0  0  0  0  0  0  0
    0.7966   -2.3909    0.0767 C   0  0  0  0  0  0  0  0  0  0  0  0
   -3.5744    0.3287   -0.2485 C   0  0  0  0  0  0  0  0  0  0  0  0
   -1.5441   -0.0601   -2.1497 C   0  0  0  0  0  0  0  0  0  0  0  0
   -1.9062    0.5008    1.5140 C   0  0  0  0  0  0  0  0  0  0  0  0
   -3.8870    0.1449   -1.6053 C   0  0  0  0  0  0  0  0  0  0  0  0
   -2.8774   -0.0481   -2.5487 C   0  0  0  0  0  0  0  0  0  0  0  0
    3.0429   -2.4953    0.6287 C   0  0  0  0  0  0  0  0  0  0  0  0
   -4.5778    0.5242    0.7145 C   0  0  0  0  0  0  0  0  0  0  0  0
   -2.9160    0.6935    2.4572 C   0  0  0  0  0  0  0  0  0  0  0  0
   -4.2492    0.7051    2.0583 C   0  0  0  0  0  0  0  0  0  0  0  0
    5.1110    2.2071   -1.0045 H   0  0  0  0  0  0  0  0  0  0  0  0
    4.8069    0.4936   -0.7584 H   0  0  0  0  0  0  0  0  0  0  0  0
    3.9467    1.3603   -2.0356 H   0  0  0  0  0  0  0  0  0  0  0  0
    4.2075    0.8978    1.7071 H   0  0  0  0  0  0  0  0  0  0  0  0
    4.5024    2.6217    1.5278 H   0  0  0  0  0  0  0  0  0  0  0  0
    2.9399    2.0514    2.1360 H   0  0  0  0  0  0  0  0  0  0  0  0
    3.5837    3.9589   -0.2866 H   0  0  0  0  0  0  0  0  0  0  0  0
    2.3659    3.3220   -1.3978 H   0  0  0  0  0  0  0  0  0  0  0  0
    1.9560    3.6016    0.3020 H   0  0  0  0  0  0  0  0  0  0  0  0
   -0.7728   -0.2128   -2.9016 H   0  0  0  0  0  0  0  0  0  0  0  0
   -0.8812    0.5008    1.8762 H   0  0  0  0  0  0  0  0  0  0  0  0
   -4.9224    0.1504   -1.9398 H   0  0  0  0  0  0  0  0  0  0  0  0
   -3.1328   -0.1894   -3.5948 H   0  0  0  0  0  0  0  0  0  0  0  0
    3.8761   -3.1222    0.9278 H   0  0  0  0  0  0  0  0  0  0  0  0
   -5.6266    0.5372    0.4253 H   0  0  0  0  0  0  0  0  0  0  0  0
   -1.2632   -2.4807   -0.3986 H   0  0  0  0  0  0  0  0  0  0  0  0
   -0.5248   -4.0094    0.0209 H   0  0  0  0  0  0  0  0  0  0  0  0
   -2.6612    0.8347    3.5037 H   0  0  0  0  0  0  0  0  0  0  0  0
   -5.0348    0.8553    2.7932 H   0  0  0  0  0  0  0  0  0  0  0  0
  1  2  1  0  0  0  0
  1  6  1  0  0  0  0
  1  7  1  0  0  0  0
  2 12  2  0  0  0  0
  3  7  2  0  0  0  0
  3 21  1  0  0  0  0
  4 15  1  0  0  0  0
  4 21  2  0  0  0  0
  5 15  1  0  0  0  0
  5 40  1  0  0  0  0
  5 41  1  0  0  0  0
  6  8  1  0  0  0  0
  6  9  1  0  0  0  0
  6 10  1  0  0  0  0
  7 11  1  0  0  0  0
  8 25  1  0  0  0  0
  8 26  1  0  0  0  0
  8 27  1  0  0  0  0
  9 28  1  0  0  0  0
  9 29  1  0  0  0  0
  9 30  1  0  0  0  0
 10 31  1  0  0  0  0
 10 32  1  0  0  0  0
 10 33  1  0  0  0  0
 11 12  1  0  0  0  0
 11 15  2  0  0  0  0
 12 13  1  0  0  0  0
 13 14  1  0  0  0  0
 13 17  2  0  0  0  0
 14 16  1  0  0  0  0
 14 18  2  0  0  0  0
 16 19  1  0  0  0  0
 16 22  2  0  0  0  0
 17 20  1  0  0  0  0
 17 34  1  0  0  0  0
 18 23  1  0  0  0  0
 18 35  1  0  0  0  0
 19 20  2  0  0  0  0
 19 36  1  0  0  0  0
 20 37  1  0  0  0  0
 21 38  1  0  0  0  0
 22 24  1  0  0  0  0
 22 39  1  0  0  0  0
 23 24  2  0  0  0  0
 23 42  1  0  0  0  0
 24 43  1  0  0  0  0
M  END
> <PUBCHEM_COMPOUND_CID>
4877

> <PUBCHEM_CONFORMER_RMSD>
0.6

> <PUBCHEM_CONFORMER_DIVERSEORDER>
2
1

> <PUBCHEM_MMFF94_PARTIAL_CHARGES>
28
1 0.31
12 0.23
13 0.05
15 0.41
17 -0.15
18 -0.15
19 -0.15
2 -0.71
20 -0.15
21 0.47
22 -0.15
23 -0.15
24 -0.15
3 -0.57
34 0.15
35 0.15
36 0.15
37 0.15
38 0.15
39 0.15
4 -0.62
40 0.4
41 0.4
42 0.15
43 0.15
5 -0.9
6 0.26
7 0.11

> <PUBCHEM_EFFECTIVE_ROTOR_COUNT>
2

> <PUBCHEM_PHARMACOPHORE_FEATURES>
10
1 2 acceptor
1 5 cation
1 5 donor
3 1 3 7 cation
3 3 4 21 cation
4 6 8 9 10 hydrophobe
5 1 2 7 11 12 rings
6 13 14 16 17 19 20 rings
6 14 16 18 22 23 24 rings
6 3 4 7 11 15 21 rings

> <PUBCHEM_HEAVY_ATOM_COUNT>
24

> <PUBCHEM_ATOM_DEF_STEREO_COUNT>
0

> <PUBCHEM_ATOM_UDEF_STEREO_COUNT>
0

> <PUBCHEM_BOND_DEF_STEREO_COUNT>
0

> <PUBCHEM_BOND_UDEF_STEREO_COUNT>
0

> <PUBCHEM_ISOTOPIC_ATOM_COUNT>
0

> <PUBCHEM_COMPONENT_COUNT>
1

> <PUBCHEM_CACTVS_TAUTO_COUNT>
5

> <PUBCHEM_CONFORMER_ID>
0000130D00000002

> <PUBCHEM_MMFF94_ENERGY>
74.0304

> <PUBCHEM_FEATURE_SELFOVERLAP>
51.049

> <PUBCHEM_SHAPE_FINGERPRINT>
10165383 225 18057017169777088644
11640471 11 17967526865940756889
11725454 13 16914015493229748285
12160290 23 17692255140945606526
12236239 1 17894918450999978303
12390115 104 17979343163213255148
12553582 1 18194684997777395926
12644460 14 18342172293520488114
12788726 201 17459763527617146367
13009979 54 17677343825583479950
13134695 92 18128262387893878202
13140716 1 18341059523571710802
13583140 156 18335974312458225257
13911987 19 18128256688119291148
14341114 328 17967798458846488443
14739800 52 16589459435145840714
14787075 74 17754739325852834175
14955137 171 17970614419399038286
15309172 13 18270960141961472396
15534591 1 17822562811885525653
15842332 3 17895204323986491439
16752209 62 16443355290691311733
17138139 8 17610935320921657151
1813 80 17827630667453497590
18186145 218 18408605833916322212
18219364 16 18200597986253246916
18915476 22 18202285831043404903
19049666 15 17344919730931127149
204376 136 18269834224948581044
20510252 161 17616817626477665906
20600515 1 14353344429355549669
20645477 70 18201450210785725791
20715895 44 17176575821176189185
20739085 24 18340757252015231932
21033648 29 17917440821192550924
21120745 212 10821543373865031026
21618674 53 17676757687496811649
21756936 100 17969487235101561752
22079108 93 18189890925263698497
22112679 90 17531540865868371413
23419403 2 17846210132860055875
23557571 272 16630239303190965037
23559900 14 16128095675643792374
23598291 2 17968655037647707893
283562 15 17619070525893162898
350125 39 18126000460684355094
38570 142 17970883644986647964
392239 28 17899972729970320187
4340502 62 18337660933240778091
458136 41 18343292657219819366
469060 322 17700414676696192871
474 4 18335701598560702864
48014 12 15819341377431331521
602551 16 15626221325138779184
6034566 193 17840581501089156836
6049 1 17489021677480391397
633830 44 18188481372658172596
7097593 13 17680707322226857611
7615 1 17894925056564857341
77492 1 17894921753840443495
81228 2 17264125061269735050
8272917 22 18337379560926459937
9981440 41 16305728062864827840

> <PUBCHEM_SHAPE_MULTIPOLES>
469
8.38
2.85
2
1.63
1.45
-0.14
-3.78
1.34
-4.23
0.46
2.67
-0.49
-1.2

> <PUBCHEM_SHAPE_SELFOVERLAP>
1050.338

> <PUBCHEM_SHAPE_VOLUME>
246.8

> <PUBCHEM_COORDINATE_TYPE>
2
5
10

$$$$

