583040
  -OEChem-06241222442D

 40 40  0     0  0  0  0  0  0999 V2000
    5.0000    0.1340    0.0000 S   0  0  0  0  0  0  0  0  0  0  0  0
    4.0000    0.1340    0.0000 P   0  0  0  0  0  0  0  0  0  0  0  0
    4.0000    1.1340    0.0000 O   0  0  0  0  0  0  0  0  0  0  0  0
    4.0000   -0.8660    0.0000 C   0  0  0  0  0  0  0  0  0  0  0  0
    3.0000    0.1340    0.0000 C   0  0  0  0  0  0  0  0  0  0  0  0
    3.0000   -0.8660    0.0000 C   0  0  0  0  0  0  0  0  0  0  0  0
    4.0000   -1.8660    0.0000 C   0  0  0  0  0  0  0  0  0  0  0  0
    5.0000   -0.8660    0.0000 C   0  0  0  0  0  0  0  0  0  0  0  0
    2.0000    0.1340    0.0000 C   0  0  0  0  0  0  0  0  0  0  0  0
    3.0000    1.1340    0.0000 C   0  0  0  0  0  0  0  0  0  0  0  0
    2.2929   -1.5731    0.0000 C   0  0  0  0  0  0  0  0  0  0  0  0
    5.5000    1.0000    0.0000 C   0  0  0  0  0  0  0  0  0  0  0  0
    6.5000    1.0000    0.0000 C   0  0  0  0  0  0  0  0  0  0  0  0
    7.0000    1.8660    0.0000 C   0  0  0  0  0  0  0  0  0  0  0  0
    8.0000    1.8660    0.0000 C   0  0  0  0  0  0  0  0  0  0  0  0
    3.2373   -1.4388    0.0000 H   0  0  0  0  0  0  0  0  0  0  0  0
    2.0000    0.7540    0.0000 H   0  0  0  0  0  0  0  0  0  0  0  0
    3.6200    1.1340    0.0000 H   0  0  0  0  0  0  0  0  0  0  0  0
    3.0000    1.7540    0.0000 H   0  0  0  0  0  0  0  0  0  0  0  0
    2.3800    1.1340    0.0000 H   0  0  0  0  0  0  0  0  0  0  0  0
    1.3800    0.1340    0.0000 H   0  0  0  0  0  0  0  0  0  0  0  0
    2.0000   -0.4860    0.0000 H   0  0  0  0  0  0  0  0  0  0  0  0
    5.0000   -1.4860    0.0000 H   0  0  0  0  0  0  0  0  0  0  0  0
    5.6200   -0.8660    0.0000 H   0  0  0  0  0  0  0  0  0  0  0  0
    5.0000   -0.2460    0.0000 H   0  0  0  0  0  0  0  0  0  0  0  0
    3.3800   -1.8660    0.0000 H   0  0  0  0  0  0  0  0  0  0  0  0
    4.0000   -2.4860    0.0000 H   0  0  0  0  0  0  0  0  0  0  0  0
    4.6200   -1.8660    0.0000 H   0  0  0  0  0  0  0  0  0  0  0  0
    1.8545   -1.1347    0.0000 H   0  0  0  0  0  0  0  0  0  0  0  0
    1.8545   -2.0115    0.0000 H   0  0  0  0  0  0  0  0  0  0  0  0
    2.7313   -2.0115    0.0000 H   0  0  0  0  0  0  0  0  0  0  0  0
    5.6077    1.6106    0.0000 H   0  0  0  0  0  0  0  0  0  0  0  0
    4.9174    1.2120    0.0000 H   0  0  0  0  0  0  0  0  0  0  0  0
    6.3923    0.3894    0.0000 H   0  0  0  0  0  0  0  0  0  0  0  0
    7.0826    0.7879    0.0000 H   0  0  0  0  0  0  0  0  0  0  0  0
    7.1077    2.4766    0.0000 H   0  0  0  0  0  0  0  0  0  0  0  0
    6.4174    2.0781    0.0000 H   0  0  0  0  0  0  0  0  0  0  0  0
    8.0000    1.2460    0.0000 H   0  0  0  0  0  0  0  0  0  0  0  0
    8.6200    1.8660    0.0000 H   0  0  0  0  0  0  0  0  0  0  0  0
    8.0000    2.4860    0.0000 H   0  0  0  0  0  0  0  0  0  0  0  0
  1  2  1  0  0  0  0
  1 12  1  0  0  0  0
  2  3  2  0  0  0  0
  2  4  1  0  0  0  0
  2  5  1  0  0  0  0
  4  6  1  0  0  0  0
  4  7  1  0  0  0  0
  4  8  1  0  0  0  0
  5  6  1  0  0  0  0
  5  9  1  0  0  0  0
  5 10  1  0  0  0  0
  6 11  1  0  0  0  0
  6 16  1  0  0  0  0
  7 26  1  0  0  0  0
  7 27  1  0  0  0  0
  7 28  1  0  0  0  0
  8 23  1  0  0  0  0
  8 24  1  0  0  0  0
  8 25  1  0  0  0  0
  9 17  1  0  0  0  0
  9 21  1  0  0  0  0
  9 22  1  0  0  0  0
 10 18  1  0  0  0  0
 10 19  1  0  0  0  0
 10 20  1  0  0  0  0
 11 29  1  0  0  0  0
 11 30  1  0  0  0  0
 11 31  1  0  0  0  0
 12 13  1  0  0  0  0
 12 32  1  0  0  0  0
 12 33  1  0  0  0  0
 13 14  1  0  0  0  0
 13 34  1  0  0  0  0
 13 35  1  0  0  0  0
 14 15  1  0  0  0  0
 14 36  1  0  0  0  0
 14 37  1  0  0  0  0
 15 38  1  0  0  0  0
 15 39  1  0  0  0  0
 15 40  1  0  0  0  0
M  END
> <PUBCHEM_COMPOUND_CID>
583040

> <PUBCHEM_COMPOUND_CANONICALIZED>
1

> <PUBCHEM_CACTVS_COMPLEXITY>
263

> <PUBCHEM_CACTVS_HBOND_ACCEPTOR>
2

> <PUBCHEM_CACTVS_HBOND_DONOR>
0

> <PUBCHEM_CACTVS_ROTATABLE_BOND>
4

> <PUBCHEM_CACTVS_SUBSKEYS>
AAADceBwIAJAAAAAAAAAAAAAAABIAAAAAAAAAAAAAAAAAAAAAAAAGAwAACAADQCEQACCAAAAACAAQAAAAAAAAAAAAAAAAAAAAAAAAAIAAAAAAAAAAAAAAAAAAAAOgAAAAAAAAAAAAAAAAAAAAAAAAAAAAA==

> <PUBCHEM_IUPAC_OPENEYE_NAME>
1-butylsulfanyl-2,2,3,4,4-pentamethyl-1$l^{5}-phosphetane 1-oxide

> <PUBCHEM_IUPAC_CAS_NAME>
1-(butylthio)-2,2,3,4,4-pentamethyl-1$l^{5}-phosphetane 1-oxide

> <PUBCHEM_IUPAC_NAME>
1-butylsulfanyl-2,2,3,4,4-pentamethyl-1$l^{5}-phosphetane 1-oxide

> <PUBCHEM_IUPAC_SYSTEMATIC_NAME>
1-butylsulfanyl-2,2,3,4,4-pentamethyl-1$l^{5}-phosphetane 1-oxide

> <PUBCHEM_IUPAC_TRADITIONAL_NAME>
1-(butylthio)-2,2,3,4,4-pentamethyl-1$l^{5}-phosphetane 1-oxide

> <PUBCHEM_IUPAC_INCHI>
InChI=1S/C12H25OPS/c1-7-8-9-15-14(13)11(3,4)10(2)12(14,5)6/h10H,7-9H2,1-6H3

> <PUBCHEM_IUPAC_INCHIKEY>
XSVNXHLTISFDHD-UHFFFAOYSA-N

> <PUBCHEM_XLOGP3_AA>
2.9

> <PUBCHEM_EXACT_MASS>
248.136373

> <PUBCHEM_MOLECULAR_FORMULA>
C12H25OPS

> <PUBCHEM_MOLECULAR_WEIGHT>
248.365062

> <PUBCHEM_OPENEYE_CAN_SMILES>
CCCCSP1(=O)C(C(C1(C)C)C)(C)C

> <PUBCHEM_OPENEYE_ISO_SMILES>
CCCCSP1(=O)C(C(C1(C)C)C)(C)C

> <PUBCHEM_CACTVS_TPSA>
42.4

> <PUBCHEM_MONOISOTOPIC_WEIGHT>
248.136373

> <PUBCHEM_TOTAL_CHARGE>
0

> <PUBCHEM_HEAVY_ATOM_COUNT>
15

> <PUBCHEM_ATOM_DEF_STEREO_COUNT>
0

> <PUBCHEM_ATOM_UDEF_STEREO_COUNT>
0

> <PUBCHEM_BOND_DEF_STEREO_COUNT>
0

> <PUBCHEM_BOND_UDEF_STEREO_COUNT>
0

> <PUBCHEM_ISOTOPIC_ATOM_COUNT>
0

> <PUBCHEM_COMPONENT_COUNT>
1

> <PUBCHEM_CACTVS_TAUTO_COUNT>
1

> <PUBCHEM_COORDINATE_TYPE>
1
5
255

$$$$

