17396618
  -OEChem-06241222572D

 42 44  0     0  0  0  0  0  0999 V2000
    5.4641    0.2327    0.0000 S   0  0  0  0  0  0  0  0  0  0  0  0
    2.0000   -1.7673    0.0000 F   0  0  0  0  0  0  0  0  0  0  0  0
   13.2862   -0.3020    0.0000 O   0  0  0  0  0  0  0  0  0  0  0  0
   13.2862    1.7673    0.0000 O   0  0  0  0  0  0  0  0  0  0  0  0
    7.1962    1.2327    0.0000 O   0  0  0  0  0  0  0  0  0  0  0  0
    8.0622   -0.2673    0.0000 N   0  0  0  0  0  0  0  0  0  0  0  0
    9.7942   -0.2673    0.0000 C   0  0  0  0  0  0  0  0  0  0  0  0
   10.6603    0.2327    0.0000 C   0  0  0  0  0  0  0  0  0  0  0  0
    8.9282    0.2327    0.0000 C   0  0  0  0  0  0  0  0  0  0  0  0
   12.3923    0.2327    0.0000 C   0  0  0  0  0  0  0  0  0  0  0  0
   11.5263   -0.2673    0.0000 C   0  0  0  0  0  0  0  0  0  0  0  0
   12.3923    1.2327    0.0000 C   0  0  0  0  0  0  0  0  0  0  0  0
   10.6603    1.2327    0.0000 C   0  0  0  0  0  0  0  0  0  0  0  0
   11.5263    1.7327    0.0000 C   0  0  0  0  0  0  0  0  0  0  0  0
   14.1923    0.2119    0.0000 C   0  0  0  0  0  0  0  0  0  0  0  0
   14.1923    1.2535    0.0000 C   0  0  0  0  0  0  0  0  0  0  0  0
    7.1962    0.2327    0.0000 C   0  0  0  0  0  0  0  0  0  0  0  0
    6.3301   -0.2673    0.0000 C   0  0  0  0  0  0  0  0  0  0  0  0
    4.5981   -0.2673    0.0000 C   0  0  0  0  0  0  0  0  0  0  0  0
    3.7320    0.2327    0.0000 C   0  0  0  0  0  0  0  0  0  0  0  0
    4.5981   -1.2673    0.0000 C   0  0  0  0  0  0  0  0  0  0  0  0
    2.8660   -0.2673    0.0000 C   0  0  0  0  0  0  0  0  0  0  0  0
    3.7320   -1.7673    0.0000 C   0  0  0  0  0  0  0  0  0  0  0  0
    2.8660   -1.2673    0.0000 C   0  0  0  0  0  0  0  0  0  0  0  0
    9.3957   -0.7423    0.0000 H   0  0  0  0  0  0  0  0  0  0  0  0
   10.1928   -0.7423    0.0000 H   0  0  0  0  0  0  0  0  0  0  0  0
    9.3267    0.7076    0.0000 H   0  0  0  0  0  0  0  0  0  0  0  0
    8.5297    0.7076    0.0000 H   0  0  0  0  0  0  0  0  0  0  0  0
   11.5263   -0.8873    0.0000 H   0  0  0  0  0  0  0  0  0  0  0  0
   10.1233    1.5427    0.0000 H   0  0  0  0  0  0  0  0  0  0  0  0
   11.5263    2.3527    0.0000 H   0  0  0  0  0  0  0  0  0  0  0  0
   14.4014   -0.3718    0.0000 H   0  0  0  0  0  0  0  0  0  0  0  0
   14.8032    0.3179    0.0000 H   0  0  0  0  0  0  0  0  0  0  0  0
   14.8032    1.1474    0.0000 H   0  0  0  0  0  0  0  0  0  0  0  0
   14.4014    1.8372    0.0000 H   0  0  0  0  0  0  0  0  0  0  0  0
    8.0622   -0.8873    0.0000 H   0  0  0  0  0  0  0  0  0  0  0  0
    5.9316   -0.7423    0.0000 H   0  0  0  0  0  0  0  0  0  0  0  0
    6.7287   -0.7423    0.0000 H   0  0  0  0  0  0  0  0  0  0  0  0
    3.7320    0.8527    0.0000 H   0  0  0  0  0  0  0  0  0  0  0  0
    5.1350   -1.5773    0.0000 H   0  0  0  0  0  0  0  0  0  0  0  0
    2.3291    0.0427    0.0000 H   0  0  0  0  0  0  0  0  0  0  0  0
    3.7320   -2.3873    0.0000 H   0  0  0  0  0  0  0  0  0  0  0  0
  1 18  1  0  0  0  0
  1 19  1  0  0  0  0
  2 24  1  0  0  0  0
  3 10  1  0  0  0  0
  3 15  1  0  0  0  0
  4 12  1  0  0  0  0
  4 16  1  0  0  0  0
  5 17  2  0  0  0  0
  6  9  1  0  0  0  0
  6 17  1  0  0  0  0
  6 36  1  0  0  0  0
  7  8  1  0  0  0  0
  7  9  1  0  0  0  0
  7 25  1  0  0  0  0
  7 26  1  0  0  0  0
  8 11  2  0  0  0  0
  8 13  1  0  0  0  0
  9 27  1  0  0  0  0
  9 28  1  0  0  0  0
 10 11  1  0  0  0  0
 10 12  2  0  0  0  0
 11 29  1  0  0  0  0
 12 14  1  0  0  0  0
 13 14  2  0  0  0  0
 13 30  1  0  0  0  0
 14 31  1  0  0  0  0
 15 16  1  0  0  0  0
 15 32  1  0  0  0  0
 15 33  1  0  0  0  0
 16 34  1  0  0  0  0
 16 35  1  0  0  0  0
 17 18  1  0  0  0  0
 18 37  1  0  0  0  0
 18 38  1  0  0  0  0
 19 20  2  0  0  0  0
 19 21  1  0  0  0  0
 20 22  1  0  0  0  0
 20 39  1  0  0  0  0
 21 23  2  0  0  0  0
 21 40  1  0  0  0  0
 22 24  2  0  0  0  0
 22 41  1  0  0  0  0
 23 24  1  0  0  0  0
 23 42  1  0  0  0  0
M  END
> <PUBCHEM_COMPOUND_CID>
17396618

> <PUBCHEM_COMPOUND_CANONICALIZED>
1

> <PUBCHEM_CACTVS_COMPLEXITY>
404

> <PUBCHEM_CACTVS_HBOND_ACCEPTOR>
5

> <PUBCHEM_CACTVS_HBOND_DONOR>
1

> <PUBCHEM_CACTVS_ROTATABLE_BOND>
6

> <PUBCHEM_CACTVS_SUBSKEYS>
AAADceB6MQBAAAAAAAAAAAAAAAAAAAAAAAA0YIAAAAAAAACRQAAAHwQQAAAADATl2A6wB4LABAiIAiFSEAACCAAgKBAIiJgOiIgNJiKksRuGOCKk1hGqqAeQ0LIOIAABAAAAQABAAAIAAACAAAAAAAAAAA==

> <PUBCHEM_IUPAC_OPENEYE_NAME>
N-[2-(2,3-dihydro-1,4-benzodioxin-6-yl)ethyl]-2-(4-fluorophenyl)sulfanyl-acetamide

> <PUBCHEM_IUPAC_CAS_NAME>
N-[2-(2,3-dihydro-1,4-benzodioxin-6-yl)ethyl]-2-[(4-fluorophenyl)thio]acetamide

> <PUBCHEM_IUPAC_NAME>
N-[2-(2,3-dihydro-1,4-benzodioxin-6-yl)ethyl]-2-(4-fluorophenyl)sulfanylacetamide

> <PUBCHEM_IUPAC_SYSTEMATIC_NAME>
N-[2-(2,3-dihydro-1,4-benzodioxin-6-yl)ethyl]-2-(4-fluorophenyl)sulfanyl-ethanamide

> <PUBCHEM_IUPAC_TRADITIONAL_NAME>
N-[2-(2,3-dihydro-1,4-benzodioxin-6-yl)ethyl]-2-[(4-fluorophenyl)thio]acetamide

> <PUBCHEM_IUPAC_INCHI>
InChI=1S/C18H18FNO3S/c19-14-2-4-15(5-3-14)24-12-18(21)20-8-7-13-1-6-16-17(11-13)23-10-9-22-16/h1-6,11H,7-10,12H2,(H,20,21)

> <PUBCHEM_IUPAC_INCHIKEY>
OOCNXJIRSSJXHO-UHFFFAOYSA-N

> <PUBCHEM_XLOGP3_AA>
3.6

> <PUBCHEM_EXACT_MASS>
347.099143

> <PUBCHEM_MOLECULAR_FORMULA>
C18H18FNO3S

> <PUBCHEM_MOLECULAR_WEIGHT>
347.403823

> <PUBCHEM_OPENEYE_CAN_SMILES>
C1COC2=C(O1)C=CC(=C2)CCNC(=O)CSC3=CC=C(C=C3)F

> <PUBCHEM_OPENEYE_ISO_SMILES>
C1COC2=C(O1)C=CC(=C2)CCNC(=O)CSC3=CC=C(C=C3)F

> <PUBCHEM_CACTVS_TPSA>
72.9

> <PUBCHEM_MONOISOTOPIC_WEIGHT>
347.099143

> <PUBCHEM_TOTAL_CHARGE>
0

> <PUBCHEM_HEAVY_ATOM_COUNT>
24

> <PUBCHEM_ATOM_DEF_STEREO_COUNT>
0

> <PUBCHEM_ATOM_UDEF_STEREO_COUNT>
0

> <PUBCHEM_BOND_DEF_STEREO_COUNT>
0

> <PUBCHEM_BOND_UDEF_STEREO_COUNT>
0

> <PUBCHEM_ISOTOPIC_ATOM_COUNT>
0

> <PUBCHEM_COMPONENT_COUNT>
1

> <PUBCHEM_CACTVS_TAUTO_COUNT>
2

> <PUBCHEM_COORDINATE_TYPE>
1
5
255

> <PUBCHEM_BONDANNOTATIONS>
10  11  8
10  12  8
12  14  8
13  14  8
19  20  8
19  21  8
20  22  8
21  23  8
22  24  8
23  24  8
8  11  8
8  13  8

$$$$

