8707
  -OEChem-06261203012D

 47 46  0     0  0  0  0  0  0999 V2000
    5.0160    0.0000    0.0000 Cl  0  0  0  0  0  0  0  0  0  0  0  0
    5.0160    2.4972    0.0000 Cl  0  0  0  0  0  0  0  0  0  0  0  0
    8.4114    7.4191    0.0000 S   0  0  0  0  0  0  0  0  0  0  0  0
    4.8671    7.6144    0.0000 O   0  0  0  0  0  0  0  0  0  0  0  0
    2.2690    7.1144    0.0000 N   0  0  0  0  0  0  0  0  0  0  0  0
    8.4114    5.8096    0.0000 N   0  0  0  0  0  0  0  0  0  0  0  0
    9.9950    6.6144    0.0000 N   0  0  0  0  0  0  0  0  0  0  0  0
    3.1350    7.6144    0.0000 C   0  0  0  0  0  0  0  0  0  0  0  0
    1.4030    7.6144    0.0000 C   0  0  0  0  0  0  0  0  0  0  0  0
    2.2690    6.1144    0.0000 C   0  0  0  0  0  0  0  0  0  0  0  0
    4.0010    7.1144    0.0000 C   0  0  0  0  0  0  0  0  0  0  0  0
    0.5369    7.1144    0.0000 C   0  0  0  0  0  0  0  0  0  0  0  0
    1.4030    5.6144    0.0000 C   0  0  0  0  0  0  0  0  0  0  0  0
    5.7331    7.1144    0.0000 C   0  0  0  0  0  0  0  0  0  0  0  0
    7.4651    7.1144    0.0000 C   0  0  0  0  0  0  0  0  0  0  0  0
    7.4651    6.1144    0.0000 C   0  0  0  0  0  0  0  0  0  0  0  0
    6.5991    7.6144    0.0000 C   0  0  0  0  0  0  0  0  0  0  0  0
    5.7331    6.1144    0.0000 C   0  0  0  0  0  0  0  0  0  0  0  0
    6.5991    5.6144    0.0000 C   0  0  0  0  0  0  0  0  0  0  0  0
    8.9950    6.6144    0.0000 C   0  0  0  0  0  0  0  0  0  0  0  0
   10.4950    5.7483    0.0000 C   0  0  0  0  0  0  0  0  0  0  0  0
   10.4950    7.4804    0.0000 C   0  0  0  0  0  0  0  0  0  0  0  0
    3.5335    8.0893    0.0000 H   0  0  0  0  0  0  0  0  0  0  0  0
    2.7365    8.0893    0.0000 H   0  0  0  0  0  0  0  0  0  0  0  0
    1.8015    8.0893    0.0000 H   0  0  0  0  0  0  0  0  0  0  0  0
    1.0044    8.0893    0.0000 H   0  0  0  0  0  0  0  0  0  0  0  0
    2.4810    5.5318    0.0000 H   0  0  0  0  0  0  0  0  0  0  0  0
    2.8796    6.2220    0.0000 H   0  0  0  0  0  0  0  0  0  0  0  0
    3.6025    6.6394    0.0000 H   0  0  0  0  0  0  0  0  0  0  0  0
    4.3996    6.6394    0.0000 H   0  0  0  0  0  0  0  0  0  0  0  0
    0.2269    7.6513    0.0000 H   0  0  0  0  0  0  0  0  0  0  0  0
    0.0000    6.8044    0.0000 H   0  0  0  0  0  0  0  0  0  0  0  0
    0.8469    6.5774    0.0000 H   0  0  0  0  0  0  0  0  0  0  0  0
    1.0930    6.1513    0.0000 H   0  0  0  0  0  0  0  0  0  0  0  0
    0.8660    5.3044    0.0000 H   0  0  0  0  0  0  0  0  0  0  0  0
    1.7130    5.0774    0.0000 H   0  0  0  0  0  0  0  0  0  0  0  0
    6.5991    8.2344    0.0000 H   0  0  0  0  0  0  0  0  0  0  0  0
    5.1962    5.8044    0.0000 H   0  0  0  0  0  0  0  0  0  0  0  0
    6.5991    4.9944    0.0000 H   0  0  0  0  0  0  0  0  0  0  0  0
    9.9580    5.4383    0.0000 H   0  0  0  0  0  0  0  0  0  0  0  0
   10.8050    5.2114    0.0000 H   0  0  0  0  0  0  0  0  0  0  0  0
   11.0319    6.0583    0.0000 H   0  0  0  0  0  0  0  0  0  0  0  0
   11.0319    7.1704    0.0000 H   0  0  0  0  0  0  0  0  0  0  0  0
   10.8050    8.0173    0.0000 H   0  0  0  0  0  0  0  0  0  0  0  0
    9.9580    7.7904    0.0000 H   0  0  0  0  0  0  0  0  0  0  0  0
    6.0160    0.0000    0.0000 H   0  0  0  0  0  0  0  0  0  0  0  0
    6.0160    2.4972    0.0000 H   0  0  0  0  0  0  0  0  0  0  0  0
  1 46  1  0  0  0  0
  2 47  1  0  0  0  0
  3 15  1  0  0  0  0
  3 20  1  0  0  0  0
  4 11  1  0  0  0  0
  4 14  1  0  0  0  0
  5  8  1  0  0  0  0
  5  9  1  0  0  0  0
  5 10  1  0  0  0  0
  6 16  1  0  0  0  0
  6 20  2  0  0  0  0
  7 20  1  0  0  0  0
  7 21  1  0  0  0  0
  7 22  1  0  0  0  0
  8 11  1  0  0  0  0
  8 23  1  0  0  0  0
  8 24  1  0  0  0  0
  9 12  1  0  0  0  0
  9 25  1  0  0  0  0
  9 26  1  0  0  0  0
 10 13  1  0  0  0  0
 10 27  1  0  0  0  0
 10 28  1  0  0  0  0
 11 29  1  0  0  0  0
 11 30  1  0  0  0  0
 12 31  1  0  0  0  0
 12 32  1  0  0  0  0
 12 33  1  0  0  0  0
 13 34  1  0  0  0  0
 13 35  1  0  0  0  0
 13 36  1  0  0  0  0
 14 17  2  0  0  0  0
 14 18  1  0  0  0  0
 15 16  2  0  0  0  0
 15 17  1  0  0  0  0
 16 19  1  0  0  0  0
 17 37  1  0  0  0  0
 18 19  2  0  0  0  0
 18 38  1  0  0  0  0
 19 39  1  0  0  0  0
 21 40  1  0  0  0  0
 21 41  1  0  0  0  0
 21 42  1  0  0  0  0
 22 43  1  0  0  0  0
 22 44  1  0  0  0  0
 22 45  1  0  0  0  0
M  END
> <PUBCHEM_COMPOUND_CID>
8707

> <PUBCHEM_COMPOUND_CANONICALIZED>
1

> <PUBCHEM_CACTVS_COMPLEXITY>
286

> <PUBCHEM_CACTVS_HBOND_ACCEPTOR>
5

> <PUBCHEM_CACTVS_HBOND_DONOR>
2

> <PUBCHEM_CACTVS_ROTATABLE_BOND>
7

> <PUBCHEM_CACTVS_SUBSKEYS>
AAADceBzIABGAAAAAAAAAAAAAAAAAWAAAAAwAAAAAAAAAFgB8AAAHgQAAAAACAzh1gYz17MIFAikASRiZACD+KlhKjhJmDw+bJiOJqLksZuHOCjswBPY6CewQAAAAEAABAAAAQAAgAAIAAACAAAAAAAAAA==

> <PUBCHEM_IUPAC_OPENEYE_NAME>
6-[2-(diethylamino)ethoxy]-N,N-dimethyl-1,3-benzothiazol-2-amine dihydrochloride

> <PUBCHEM_IUPAC_CAS_NAME>
6-[2-(diethylamino)ethoxy]-N,N-dimethyl-1,3-benzothiazol-2-amine dihydrochloride

> <PUBCHEM_IUPAC_NAME>
6-[2-(diethylamino)ethoxy]-N,N-dimethyl-1,3-benzothiazol-2-amine dihydrochloride

> <PUBCHEM_IUPAC_SYSTEMATIC_NAME>
6-[2-(diethylamino)ethoxy]-N,N-dimethyl-1,3-benzothiazol-2-amine dihydrochloride

> <PUBCHEM_IUPAC_TRADITIONAL_NAME>
[6-[2-(diethylamino)ethoxy]-1,3-benzothiazol-2-yl]-dimethyl-amine dihydrochloride

> <PUBCHEM_IUPAC_INCHI>
InChI=1S/C15H23N3OS.2ClH/c1-5-18(6-2)9-10-19-12-7-8-13-14(11-12)20-15(16-13)17(3)4;;/h7-8,11H,5-6,9-10H2,1-4H3;2*1H

> <PUBCHEM_IUPAC_INCHIKEY>
FZNXAQMQVKBXDR-UHFFFAOYSA-N

> <PUBCHEM_EXACT_MASS>
365.109539

> <PUBCHEM_MOLECULAR_FORMULA>
C15H25Cl2N3OS

> <PUBCHEM_MOLECULAR_WEIGHT>
366.3495

> <PUBCHEM_OPENEYE_CAN_SMILES>
CCN(CC)CCOC1=CC2=C(C=C1)N=C(S2)N(C)C.Cl.Cl

> <PUBCHEM_OPENEYE_ISO_SMILES>
CCN(CC)CCOC1=CC2=C(C=C1)N=C(S2)N(C)C.Cl.Cl

> <PUBCHEM_CACTVS_TPSA>
56.8

> <PUBCHEM_MONOISOTOPIC_WEIGHT>
365.109539

> <PUBCHEM_TOTAL_CHARGE>
0

> <PUBCHEM_HEAVY_ATOM_COUNT>
22

> <PUBCHEM_ATOM_DEF_STEREO_COUNT>
0

> <PUBCHEM_ATOM_UDEF_STEREO_COUNT>
0

> <PUBCHEM_BOND_DEF_STEREO_COUNT>
0

> <PUBCHEM_BOND_UDEF_STEREO_COUNT>
0

> <PUBCHEM_ISOTOPIC_ATOM_COUNT>
0

> <PUBCHEM_COMPONENT_COUNT>
3

> <PUBCHEM_CACTVS_TAUTO_COUNT>
1

> <PUBCHEM_COORDINATE_TYPE>
1
5
255

> <PUBCHEM_BONDANNOTATIONS>
14  17  8
14  18  8
15  16  8
15  17  8
16  19  8
18  19  8
3  15  8
3  20  8
6  16  8
6  20  8

$$$$

