12331
  -OEChem-06261206493D

 24 23  0     0  0  0  0  0  0999 V2000
    4.0420    0.1941    0.2451 O   0  0  0  0  0  0  0  0  0  0  0  0
   -0.8764    0.6180    0.0764 C   0  0  0  0  0  0  0  0  0  0  0  0
   -2.2278   -0.0080   -0.3154 C   0  0  0  0  0  0  0  0  0  0  0  0
    0.3316   -0.2296   -0.3349 C   0  0  0  0  0  0  0  0  0  0  0  0
    1.6417    0.4058    0.1438 C   0  0  0  0  0  0  0  0  0  0  0  0
   -2.3525   -1.4022    0.3040 C   0  0  0  0  0  0  0  0  0  0  0  0
   -3.4175    0.8533    0.1108 C   0  0  0  0  0  0  0  0  0  0  0  0
    2.8589   -0.4315   -0.2299 C   0  0  0  0  0  0  0  0  0  0  0  0
   -0.7947    1.6089   -0.3881 H   0  0  0  0  0  0  0  0  0  0  0  0
   -0.8530    0.7797    1.1620 H   0  0  0  0  0  0  0  0  0  0  0  0
   -2.2632   -0.1125   -1.4072 H   0  0  0  0  0  0  0  0  0  0  0  0
    0.3487   -0.3453   -1.4250 H   0  0  0  0  0  0  0  0  0  0  0  0
    0.2716   -1.2315    0.1014 H   0  0  0  0  0  0  0  0  0  0  0  0
    1.7474    1.4116   -0.2817 H   0  0  0  0  0  0  0  0  0  0  0  0
    1.6204    0.5426    1.2323 H   0  0  0  0  0  0  0  0  0  0  0  0
   -1.6679   -2.1171   -0.1619 H   0  0  0  0  0  0  0  0  0  0  0  0
   -2.1582   -1.3828    1.3818 H   0  0  0  0  0  0  0  0  0  0  0  0
   -3.3626   -1.8007    0.1551 H   0  0  0  0  0  0  0  0  0  0  0  0
   -4.3623    0.4043   -0.2128 H   0  0  0  0  0  0  0  0  0  0  0  0
   -3.3501    1.8507   -0.3360 H   0  0  0  0  0  0  0  0  0  0  0  0
   -3.4513    0.9717    1.1991 H   0  0  0  0  0  0  0  0  0  0  0  0
    2.9406   -0.5512   -1.3150 H   0  0  0  0  0  0  0  0  0  0  0  0
    2.7992   -1.4269    0.2211 H   0  0  0  0  0  0  0  0  0  0  0  0
    4.0970    1.0715   -0.1707 H   0  0  0  0  0  0  0  0  0  0  0  0
  1  8  1  0  0  0  0
  1 24  1  0  0  0  0
  2  3  1  0  0  0  0
  2  4  1  0  0  0  0
  2  9  1  0  0  0  0
  2 10  1  0  0  0  0
  3  6  1  0  0  0  0
  3  7  1  0  0  0  0
  3 11  1  0  0  0  0
  4  5  1  0  0  0  0
  4 12  1  0  0  0  0
  4 13  1  0  0  0  0
  5  8  1  0  0  0  0
  5 14  1  0  0  0  0
  5 15  1  0  0  0  0
  6 16  1  0  0  0  0
  6 17  1  0  0  0  0
  6 18  1  0  0  0  0
  7 19  1  0  0  0  0
  7 20  1  0  0  0  0
  7 21  1  0  0  0  0
  8 22  1  0  0  0  0
  8 23  1  0  0  0  0
M  END
> <PUBCHEM_COMPOUND_CID>
12331

> <PUBCHEM_CONFORMER_RMSD>
0.6

> <PUBCHEM_CONFORMER_DIVERSEORDER>
1
12
4
2
14
11
8
5
10
6
3
13
7
9

> <PUBCHEM_MMFF94_PARTIAL_CHARGES>
3
1 -0.68
24 0.4
8 0.28

> <PUBCHEM_EFFECTIVE_ROTOR_COUNT>
4

> <PUBCHEM_PHARMACOPHORE_FEATURES>
4
1 1 acceptor
1 1 donor
3 3 6 7 hydrophobe
4 2 3 4 5 hydrophobe

> <PUBCHEM_HEAVY_ATOM_COUNT>
8

> <PUBCHEM_ATOM_DEF_STEREO_COUNT>
0

> <PUBCHEM_ATOM_UDEF_STEREO_COUNT>
0

> <PUBCHEM_BOND_DEF_STEREO_COUNT>
0

> <PUBCHEM_BOND_UDEF_STEREO_COUNT>
0

> <PUBCHEM_ISOTOPIC_ATOM_COUNT>
0

> <PUBCHEM_COMPONENT_COUNT>
1

> <PUBCHEM_CACTVS_TAUTO_COUNT>
1

> <PUBCHEM_CONFORMER_ID>
0000302B00000001

> <PUBCHEM_MMFF94_ENERGY>
4.193

> <PUBCHEM_FEATURE_SELFOVERLAP>
20.326

> <PUBCHEM_SHAPE_FINGERPRINT>
11062470 55 18113338630301255621
12932764 1 17132126726990890516
14325111 11 18409729556184892734
20645464 45 18261104188855532535
20645477 70 17241323711092129022
23402539 116 18334585655084170509
3248919 1 18407758135962433268
5460574 1 10231755591470868220

> <PUBCHEM_SHAPE_MULTIPOLES>
158.77
6.49
1.06
0.66
3.83
0.26
0.01
-0.37
-0.43
-0.82
-0.08
-0.04
0.02
0.15

> <PUBCHEM_SHAPE_SELFOVERLAP>
277.078

> <PUBCHEM_SHAPE_VOLUME>
105.9

> <PUBCHEM_COORDINATE_TYPE>
2
5
10

$$$$

