17396023
  -OEChem-06241222533D

 59 61  0     0  0  0  0  0  0999 V2000
   -4.4478   -2.2103    0.2778 O   0  0  0  0  0  0  0  0  0  0  0  0
   -1.8872   -1.8684   -0.4792 O   0  0  0  0  0  0  0  0  0  0  0  0
    3.8045    0.4798   -1.6648 O   0  0  0  0  0  0  0  0  0  0  0  0
   -5.0692   -0.1290   -0.5529 N   0  0  0  0  0  0  0  0  0  0  0  0
    3.4299   -0.5331    0.4453 N   0  0  0  0  0  0  0  0  0  0  0  0
   -6.4735   -0.1955   -0.2032 C   0  0  0  0  0  0  0  0  0  0  0  0
   -6.6628    0.2787    1.2413 C   0  0  0  0  0  0  0  0  0  0  0  0
   -7.3176    0.5086   -1.2703 C   0  0  0  0  0  0  0  0  0  0  0  0
   -8.0985    0.6233    1.6280 C   0  0  0  0  0  0  0  0  0  0  0  0
   -7.4781    2.0162   -1.0811 C   0  0  0  0  0  0  0  0  0  0  0  0
   -8.4649    2.0702    1.3016 C   0  0  0  0  0  0  0  0  0  0  0  0
   -8.6587    2.3753   -0.1799 C   0  0  0  0  0  0  0  0  0  0  0  0
   -4.1759   -1.1500   -0.2789 C   0  0  0  0  0  0  0  0  0  0  0  0
   -2.7799   -0.8102   -0.7554 C   0  0  0  0  0  0  0  0  0  0  0  0
   -0.5728   -1.5371   -0.2490 C   0  0  0  0  0  0  0  0  0  0  0  0
    2.0953   -0.8673    0.2145 C   0  0  0  0  0  0  0  0  0  0  0  0
   -0.0192   -0.4133   -0.8625 C   0  0  0  0  0  0  0  0  0  0  0  0
    0.2076   -2.3260    0.5961 C   0  0  0  0  0  0  0  0  0  0  0  0
    1.3148   -0.0784   -0.6307 C   0  0  0  0  0  0  0  0  0  0  0  0
    1.5416   -1.9911    0.8278 C   0  0  0  0  0  0  0  0  0  0  0  0
    4.2157    0.1439   -0.5550 C   0  0  0  0  0  0  0  0  0  0  0  0
    5.6209    0.4954   -0.2742 C   0  0  0  0  0  0  0  0  0  0  0  0
    4.1017   -0.8640    1.7428 C   0  0  0  0  0  0  0  0  0  0  0  0
    6.6401   -0.4051   -0.5841 C   0  0  0  0  0  0  0  0  0  0  0  0
    5.9302    1.7278    0.3013 C   0  0  0  0  0  0  0  0  0  0  0  0
    8.2779    1.1592    0.2569 C   0  0  0  0  0  0  0  0  0  0  0  0
    7.9687   -0.0732   -0.3186 C   0  0  0  0  0  0  0  0  0  0  0  0
    7.2587    2.0597    0.5669 C   0  0  0  0  0  0  0  0  0  0  0  0
    9.6984    1.5140    0.5395 C   0  0  0  0  0  0  0  0  0  0  0  0
   -6.7545   -1.2569   -0.2386 H   0  0  0  0  0  0  0  0  0  0  0  0
   -6.0085    1.1351    1.4524 H   0  0  0  0  0  0  0  0  0  0  0  0
   -6.3087   -0.5218    1.9053 H   0  0  0  0  0  0  0  0  0  0  0  0
   -8.3103    0.0420   -1.3096 H   0  0  0  0  0  0  0  0  0  0  0  0
   -6.8688    0.3266   -2.2561 H   0  0  0  0  0  0  0  0  0  0  0  0
   -8.1892    0.5028    2.7152 H   0  0  0  0  0  0  0  0  0  0  0  0
   -8.8119   -0.0764    1.1782 H   0  0  0  0  0  0  0  0  0  0  0  0
   -7.6771    2.4566   -2.0666 H   0  0  0  0  0  0  0  0  0  0  0  0
   -6.5523    2.4762   -0.7176 H   0  0  0  0  0  0  0  0  0  0  0  0
   -9.4002    2.3146    1.8208 H   0  0  0  0  0  0  0  0  0  0  0  0
   -7.7043    2.7449    1.7144 H   0  0  0  0  0  0  0  0  0  0  0  0
   -8.8544    3.4504   -0.2800 H   0  0  0  0  0  0  0  0  0  0  0  0
   -9.5632    1.8686   -0.5390 H   0  0  0  0  0  0  0  0  0  0  0  0
   -4.7213    0.7327   -0.9641 H   0  0  0  0  0  0  0  0  0  0  0  0
   -2.4960    0.1134   -0.2332 H   0  0  0  0  0  0  0  0  0  0  0  0
   -2.8138   -0.6335   -1.8366 H   0  0  0  0  0  0  0  0  0  0  0  0
   -0.5901    0.2194   -1.5357 H   0  0  0  0  0  0  0  0  0  0  0  0
   -0.2177   -3.2050    1.0728 H   0  0  0  0  0  0  0  0  0  0  0  0
    1.6691    0.8424   -1.0808 H   0  0  0  0  0  0  0  0  0  0  0  0
    2.1279   -2.6370    1.4757 H   0  0  0  0  0  0  0  0  0  0  0  0
    4.8059   -0.0850    2.0386 H   0  0  0  0  0  0  0  0  0  0  0  0
    3.3577   -0.9482    2.5406 H   0  0  0  0  0  0  0  0  0  0  0  0
    4.6336   -1.8118    1.6189 H   0  0  0  0  0  0  0  0  0  0  0  0
    6.4095   -1.3679   -1.0326 H   0  0  0  0  0  0  0  0  0  0  0  0
    5.1434    2.4366    0.5463 H   0  0  0  0  0  0  0  0  0  0  0  0
    8.7540   -0.7825   -0.5663 H   0  0  0  0  0  0  0  0  0  0  0  0
    7.4871    3.0236    1.0137 H   0  0  0  0  0  0  0  0  0  0  0  0
   10.2901    0.6215    0.7703 H   0  0  0  0  0  0  0  0  0  0  0  0
    9.7748    2.1811    1.4049 H   0  0  0  0  0  0  0  0  0  0  0  0
   10.1406    2.0134   -0.3283 H   0  0  0  0  0  0  0  0  0  0  0  0
  1 13  2  0  0  0  0
  2 14  1  0  0  0  0
  2 15  1  0  0  0  0
  3 21  2  0  0  0  0
  4  6  1  0  0  0  0
  4 13  1  0  0  0  0
  4 43  1  0  0  0  0
  5 16  1  0  0  0  0
  5 21  1  0  0  0  0
  5 23  1  0  0  0  0
  6  7  1  0  0  0  0
  6  8  1  0  0  0  0
  6 30  1  0  0  0  0
  7  9  1  0  0  0  0
  7 31  1  0  0  0  0
  7 32  1  0  0  0  0
  8 10  1  0  0  0  0
  8 33  1  0  0  0  0
  8 34  1  0  0  0  0
  9 11  1  0  0  0  0
  9 35  1  0  0  0  0
  9 36  1  0  0  0  0
 10 12  1  0  0  0  0
 10 37  1  0  0  0  0
 10 38  1  0  0  0  0
 11 12  1  0  0  0  0
 11 39  1  0  0  0  0
 11 40  1  0  0  0  0
 12 41  1  0  0  0  0
 12 42  1  0  0  0  0
 13 14  1  0  0  0  0
 14 44  1  0  0  0  0
 14 45  1  0  0  0  0
 15 17  2  0  0  0  0
 15 18  1  0  0  0  0
 16 19  2  0  0  0  0
 16 20  1  0  0  0  0
 17 19  1  0  0  0  0
 17 46  1  0  0  0  0
 18 20  2  0  0  0  0
 18 47  1  0  0  0  0
 19 48  1  0  0  0  0
 20 49  1  0  0  0  0
 21 22  1  0  0  0  0
 22 24  2  0  0  0  0
 22 25  1  0  0  0  0
 23 50  1  0  0  0  0
 23 51  1  0  0  0  0
 23 52  1  0  0  0  0
 24 27  1  0  0  0  0
 24 53  1  0  0  0  0
 25 28  2  0  0  0  0
 25 54  1  0  0  0  0
 26 27  2  0  0  0  0
 26 28  1  0  0  0  0
 26 29  1  0  0  0  0
 27 55  1  0  0  0  0
 28 56  1  0  0  0  0
 29 57  1  0  0  0  0
 29 58  1  0  0  0  0
 29 59  1  0  0  0  0
M  END
> <PUBCHEM_COMPOUND_CID>
17396023

> <PUBCHEM_CONFORMER_RMSD>
1.2

> <PUBCHEM_CONFORMER_DIVERSEORDER>
1
25
57
27
22
42
2
53
26
70
16
73
66
72
23
74
51
59
19
18
55
28
54
71
21
62
76
8
11
40
24
65
52
38
9
33
36
63
14
31
20
61
41
50
15
34
67
64
37
13
58
30
10
32
39
6
35
56
44
4
7
45
48
29
46
3
69
47
49
60
17
5
68
75
43
12

> <PUBCHEM_MMFF94_PARTIAL_CHARGES>
32
1 -0.57
13 0.57
14 0.34
15 0.08
16 0.12
17 -0.15
18 -0.15
19 -0.15
2 -0.36
20 -0.15
21 0.54
22 0.09
23 0.3
24 -0.15
25 -0.15
26 -0.14
27 -0.15
28 -0.15
29 0.14
3 -0.57
4 -0.73
43 0.37
46 0.15
47 0.15
48 0.15
49 0.15
5 -0.48
53 0.15
54 0.15
55 0.15
56 0.15
6 0.3

> <PUBCHEM_EFFECTIVE_ROTOR_COUNT>
9.4

> <PUBCHEM_PHARMACOPHORE_FEATURES>
7
1 1 acceptor
1 2 acceptor
1 3 acceptor
1 4 donor
6 15 16 17 18 19 20 rings
6 22 24 25 26 27 28 rings
7 6 7 8 9 10 11 12 rings

> <PUBCHEM_HEAVY_ATOM_COUNT>
29

> <PUBCHEM_ATOM_DEF_STEREO_COUNT>
0

> <PUBCHEM_ATOM_UDEF_STEREO_COUNT>
0

> <PUBCHEM_BOND_DEF_STEREO_COUNT>
0

> <PUBCHEM_BOND_UDEF_STEREO_COUNT>
0

> <PUBCHEM_ISOTOPIC_ATOM_COUNT>
0

> <PUBCHEM_COMPONENT_COUNT>
1

> <PUBCHEM_CACTVS_TAUTO_COUNT>
2

> <PUBCHEM_CONFORMER_ID>
0109713700000001

> <PUBCHEM_MMFF94_ENERGY>
98.7003

> <PUBCHEM_FEATURE_SELFOVERLAP>
35.527

> <PUBCHEM_SHAPE_FINGERPRINT>
10 15 17989488546091483859
10533779 47 17346321557065185578
11135609 99 10015571814167090361
11135926 11 17989495117080749879
11181472 205 17895748616686387786
11386260 185 14418144984757494938
11456790 92 16486976189493356316
11497681 19 9295023357673934404
11578821 258 18190182274650979808
11607047 141 18341620365434791938
12539765 74 18336257977747165342
13553643 46 18412267229239259964
15183329 4 15213013851798988666
15198563 99 14635132535194513922
15347590 135 15913332415754876113
15461852 350 17749679506828706663
15690457 1 10231755582902084568
1577012 14 18412270536215767579
15979999 66 4967608373441653778
16728433 281 16444175590896014849
1754908 1 14476960073329479989
1768 4 18335976537641434409
1818759 1 10087640416338267725
20105231 36 13038917651285228280
2026 5 9079124362335067413
20505436 4 18409454691200852231
21585482 111 18269559493683137237
21781055 127 18130773578521185798
23389318 12 7348884508219741602
23569943 247 8716347111306497236
23576562 1 15503237582586789825
24771293 8 18271810098809358775
3178227 256 16773794784324898572
3633792 109 18040428911237984766
3711267 37 18410846659762213229
4093350 32 18201440315635263618
437795 150 4822632307428876309
44389302 135 10807675384692690948
474113 269 15502646170713241254
4760202 170 16443633377619919392
5385378 56 17846506946046403922
54039377 194 9439400233885956561
5758199 1 18201720652107783411
5937810 71 17603860157498122705
636775 72 18334856130660744017
636775 8 7276825810401852197
6691757 9 16343705388062296051
9689198 14 18412260640552718699
9953998 17 17418091006195230723
9962374 69 10231744570500475218

> <PUBCHEM_SHAPE_MULTIPOLES>
569.24
33.92
2.33
1.28
9.77
0.16
-0.21
27.87
-4.53
1.69
-0.38
1.38
0.14
-0.04

> <PUBCHEM_SHAPE_SELFOVERLAP>
1192.93

> <PUBCHEM_SHAPE_VOLUME>
317.7

> <PUBCHEM_COORDINATE_TYPE>
2
5
10

$$$$

