13161
  -OEChem-06261207503D

 20 19  0     0  0  0  0  0  0999 V2000
   -0.0479   -2.4433   -0.1065 S   0  0  0  0  0  0  0  0  0  0  0  0
   -1.8720   -0.3734   -0.0578 O   0  0  0  0  0  0  0  0  0  0  0  0
    0.3832    0.1112    0.1197 N   0  0  0  0  0  0  0  0  0  0  0  0
   -2.2685    1.0048    0.0310 C   0  0  0  0  0  0  0  0  0  0  0  0
   -3.7766    1.0914   -0.0692 C   0  0  0  0  0  0  0  0  0  0  0  0
    1.7476   -0.4017    0.1611 C   0  0  0  0  0  0  0  0  0  0  0  0
   -0.5615   -0.7594   -0.0094 C   0  0  0  0  0  0  0  0  0  0  0  0
    2.7007    0.7275    0.3843 C   0  0  0  0  0  0  0  0  0  0  0  0
    3.6950    1.0428   -0.4533 C   0  0  0  0  0  0  0  0  0  0  0  0
   -1.9308    1.4132    0.9893 H   0  0  0  0  0  0  0  0  0  0  0  0
   -1.8046    1.5649   -0.7877 H   0  0  0  0  0  0  0  0  0  0  0  0
   -4.1138    2.1296   -0.0048 H   0  0  0  0  0  0  0  0  0  0  0  0
   -4.1248    0.6640   -1.0152 H   0  0  0  0  0  0  0  0  0  0  0  0
   -4.2495    0.5152    0.7329 H   0  0  0  0  0  0  0  0  0  0  0  0
    2.0209   -0.8999   -0.7783 H   0  0  0  0  0  0  0  0  0  0  0  0
    1.9073   -1.0775    1.0115 H   0  0  0  0  0  0  0  0  0  0  0  0
    2.5784    1.3159    1.2903 H   0  0  0  0  0  0  0  0  0  0  0  0
    4.3573    1.8723   -0.2306 H   0  0  0  0  0  0  0  0  0  0  0  0
    3.8670    0.4869   -1.3683 H   0  0  0  0  0  0  0  0  0  0  0  0
   -1.2727   -2.9764   -0.2235 H   0  0  0  0  0  0  0  0  0  0  0  0
  1  7  1  0  0  0  0
  1 20  1  0  0  0  0
  2  4  1  0  0  0  0
  2  7  1  0  0  0  0
  3  6  1  0  0  0  0
  3  7  2  0  0  0  0
  4  5  1  0  0  0  0
  4 10  1  0  0  0  0
  4 11  1  0  0  0  0
  5 12  1  0  0  0  0
  5 13  1  0  0  0  0
  5 14  1  0  0  0  0
  6  8  1  0  0  0  0
  6 15  1  0  0  0  0
  6 16  1  0  0  0  0
  8  9  2  0  0  0  0
  8 17  1  0  0  0  0
  9 18  1  0  0  0  0
  9 19  1  0  0  0  0
M  END
> <PUBCHEM_COMPOUND_CID>
13161

> <PUBCHEM_CONFORMER_RMSD>
0.6

> <PUBCHEM_CONFORMER_DIVERSEORDER>
1
26
17
23
32
12
2
30
31
11
28
15
29
5
19
21
7
20
10
9
13
4
6
33
25
18
16
24
8
14
22
3
27

> <PUBCHEM_MMFF94_PARTIAL_CHARGES>
12
1 -0.32
17 0.15
18 0.15
19 0.15
2 -0.43
20 0.18
3 -0.7
4 0.28
6 0.38
7 0.74
8 -0.29
9 -0.3

> <PUBCHEM_EFFECTIVE_ROTOR_COUNT>
4

> <PUBCHEM_PHARMACOPHORE_FEATURES>
1
1 9 hydrophobe

> <PUBCHEM_HEAVY_ATOM_COUNT>
9

> <PUBCHEM_ATOM_DEF_STEREO_COUNT>
0

> <PUBCHEM_ATOM_UDEF_STEREO_COUNT>
0

> <PUBCHEM_BOND_DEF_STEREO_COUNT>
0

> <PUBCHEM_BOND_UDEF_STEREO_COUNT>
0

> <PUBCHEM_ISOTOPIC_ATOM_COUNT>
0

> <PUBCHEM_COMPONENT_COUNT>
1

> <PUBCHEM_CACTVS_TAUTO_COUNT>
2

> <PUBCHEM_CONFORMER_ID>
0000336900000001

> <PUBCHEM_MMFF94_ENERGY>
22.8073

> <PUBCHEM_FEATURE_SELFOVERLAP>
5.074

> <PUBCHEM_SHAPE_FINGERPRINT>
10149128 111 18412821391282632156
12932741 1 17387129772121147570
14325111 11 18410576188517244235
14390081 3 18335141989938642641
15775835 57 18342176665454544160
170605 34 18270682081715656307
177051 138 9223238446651346216
20645477 56 18337389323519258888
20653085 51 18340759352253869528
20871998 22 10951776321280269736
21040471 1 18409172086625805778
21499 59 18411426124222655189
21524375 3 18411144653203509347
23235685 24 18410299120235131433
449060 62 18263644120871922769
81539 233 18270966859538158743

> <PUBCHEM_SHAPE_MULTIPOLES>
178.21
5.96
1.96
0.65
0.23
1.51
-0.01
-4.59
-0.44
0.22
-0.12
-0.15
-0.01
-0.1

> <PUBCHEM_SHAPE_SELFOVERLAP>
315.874

> <PUBCHEM_SHAPE_VOLUME>
117.6

> <PUBCHEM_COORDINATE_TYPE>
2
5
10

$$$$

