12908
  -OEChem-06261207313D

 35 35  0     1  0  0  0  0  0999 V2000
   -5.6741    1.8211    0.5789 Cl  0  0  0  0  0  0  0  0  0  0  0  0
   -6.1376   -0.7539   -0.7195 Cl  0  0  0  0  0  0  0  0  0  0  0  0
   -0.6668    0.9872    1.8319 O   0  0  0  0  0  0  0  0  0  0  0  0
   -1.2478   -2.6965   -0.3139 O   0  0  0  0  0  0  0  0  0  0  0  0
   -3.5969    0.8366   -1.4979 O   0  0  0  0  0  0  0  0  0  0  0  0
    5.5538    1.2570   -1.2232 O   0  0  0  0  0  0  0  0  0  0  0  0
   -2.6818   -0.2524    0.3326 N   0  0  0  0  0  0  0  0  0  0  0  0
   -1.3142   -0.2577   -0.1509 C   0  0  1  0  0  0  0  0  0  0  0  0
   -0.3418   -0.1632    1.0446 C   0  0  1  0  0  0  0  0  0  0  0  0
    1.1103   -0.0305    0.6449 C   0  0  0  0  0  0  0  0  0  0  0  0
   -1.0948   -1.4854   -1.0429 C   0  0  0  0  0  0  0  0  0  0  0  0
    2.0303   -0.9498    1.1208 C   0  0  0  0  0  0  0  0  0  0  0  0
    1.4908    1.0070   -0.1898 C   0  0  0  0  0  0  0  0  0  0  0  0
    3.3698   -0.8278    0.7516 C   0  0  0  0  0  0  0  0  0  0  0  0
    2.8304    1.1287   -0.5591 C   0  0  0  0  0  0  0  0  0  0  0  0
    3.7699    0.2113   -0.0883 C   0  0  0  0  0  0  0  0  0  0  0  0
   -3.7176    0.3033   -0.3960 C   0  0  0  0  0  0  0  0  0  0  0  0
   -5.0472    0.1863    0.3117 C   0  0  0  0  0  0  0  0  0  0  0  0
    5.1665    0.3388   -0.4733 C   0  0  0  0  0  0  0  0  0  0  0  0
    6.1989   -0.6603    0.0378 C   0  0  0  0  0  0  0  0  0  0  0  0
   -1.2073    0.6355   -0.7784 H   0  0  0  0  0  0  0  0  0  0  0  0
   -0.4761   -1.0327    1.7004 H   0  0  0  0  0  0  0  0  0  0  0  0
   -0.0926   -1.4745   -1.4830 H   0  0  0  0  0  0  0  0  0  0  0  0
   -1.8201   -1.4968   -1.8641 H   0  0  0  0  0  0  0  0  0  0  0  0
   -2.8827   -0.7402    1.2008 H   0  0  0  0  0  0  0  0  0  0  0  0
    1.7302   -1.7636    1.7745 H   0  0  0  0  0  0  0  0  0  0  0  0
    0.7769    1.7385   -0.5557 H   0  0  0  0  0  0  0  0  0  0  0  0
   -1.6020    0.9117    2.0868 H   0  0  0  0  0  0  0  0  0  0  0  0
    4.0674   -1.5632    1.1401 H   0  0  0  0  0  0  0  0  0  0  0  0
    3.1182    1.9484   -1.2123 H   0  0  0  0  0  0  0  0  0  0  0  0
   -1.0942   -3.4265   -0.9376 H   0  0  0  0  0  0  0  0  0  0  0  0
   -4.9683   -0.3152    1.2795 H   0  0  0  0  0  0  0  0  0  0  0  0
    5.9551   -1.6674   -0.3101 H   0  0  0  0  0  0  0  0  0  0  0  0
    6.2555   -0.6209    1.1287 H   0  0  0  0  0  0  0  0  0  0  0  0
    7.1829   -0.3939   -0.3614 H   0  0  0  0  0  0  0  0  0  0  0  0
  1 18  1  0  0  0  0
  2 18  1  0  0  0  0
  3  9  1  0  0  0  0
  3 28  1  0  0  0  0
  4 11  1  0  0  0  0
  4 31  1  0  0  0  0
  5 17  2  0  0  0  0
  6 19  2  0  0  0  0
  7  8  1  0  0  0  0
  7 17  1  0  0  0  0
  7 25  1  0  0  0  0
  8  9  1  0  0  0  0
  8 11  1  0  0  0  0
  8 21  1  0  0  0  0
  9 10  1  0  0  0  0
  9 22  1  0  0  0  0
 10 12  2  0  0  0  0
 10 13  1  0  0  0  0
 11 23  1  0  0  0  0
 11 24  1  0  0  0  0
 12 14  1  0  0  0  0
 12 26  1  0  0  0  0
 13 15  2  0  0  0  0
 13 27  1  0  0  0  0
 14 16  2  0  0  0  0
 14 29  1  0  0  0  0
 15 16  1  0  0  0  0
 15 30  1  0  0  0  0
 16 19  1  0  0  0  0
 17 18  1  0  0  0  0
 18 32  1  0  0  0  0
 19 20  1  0  0  0  0
 20 33  1  0  0  0  0
 20 34  1  0  0  0  0
 20 35  1  0  0  0  0
M  END
> <PUBCHEM_COMPOUND_CID>
12908

> <PUBCHEM_CONFORMER_RMSD>
0.8

> <PUBCHEM_CONFORMER_DIVERSEORDER>
1
86
72
16
66
41
23
30
44
34
43
58
70
42
74
81
31
87
29
37
59
32
57
17
15
54
21
53
5
18
56
35
82
26
79
7
48
63
84
78
38
24
51
88
80
83
10
76
73
47
11
85
36
28
64
45
50
69
3
61
55
75
6
77
13
27
49
14
9
46
67
65
39
33
22
40
2
4
71
52
19
25
60
8
62
68
12
20

> <PUBCHEM_MMFF94_PARTIAL_CHARGES>
27
1 -0.29
10 -0.14
11 0.28
12 -0.15
13 -0.15
14 -0.15
15 -0.15
16 0.09
17 0.57
18 0.64
19 0.42
2 -0.29
20 0.06
25 0.37
26 0.15
27 0.15
28 0.4
29 0.15
3 -0.68
30 0.15
31 0.4
4 -0.68
5 -0.57
6 -0.57
7 -0.73
8 0.3
9 0.42

> <PUBCHEM_EFFECTIVE_ROTOR_COUNT>
7

> <PUBCHEM_PHARMACOPHORE_FEATURES>
8
1 3 acceptor
1 3 donor
1 4 acceptor
1 4 donor
1 5 acceptor
1 6 acceptor
1 7 donor
6 10 12 13 14 15 16 rings

> <PUBCHEM_HEAVY_ATOM_COUNT>
20

> <PUBCHEM_ATOM_DEF_STEREO_COUNT>
1

> <PUBCHEM_ATOM_UDEF_STEREO_COUNT>
1

> <PUBCHEM_BOND_DEF_STEREO_COUNT>
0

> <PUBCHEM_BOND_UDEF_STEREO_COUNT>
0

> <PUBCHEM_ISOTOPIC_ATOM_COUNT>
0

> <PUBCHEM_COMPONENT_COUNT>
1

> <PUBCHEM_CACTVS_TAUTO_COUNT>
4

> <PUBCHEM_CONFORMER_ID>
0000326C00000001

> <PUBCHEM_MMFF94_ENERGY>
43.7097

> <PUBCHEM_FEATURE_SELFOVERLAP>
40.601

> <PUBCHEM_SHAPE_FINGERPRINT>
11045977 3 14836114430172656277
11796584 16 17022904545287400542
12236239 1 18409446998807871320
12730499 353 16988558026649025730
12788726 201 17749666410581819256
12815109 37 14996002146713290932
12916748 109 15985101937614217508
13533116 47 17604147138258786078
14115302 16 18187083914811322858
14251752 14 17749669687699894065
14341114 176 17274819199024228913
14911166 2 17894631439472865010
15048467 5 17917991680828494133
15099037 51 18334856112646638934
15183329 4 18410853287228131684
18186145 218 17895209783058697065
18222031 100 5545204943564192488
187816 3 17676204671639157379
200 152 18259703410941681640
20374829 77 16008752415605598492
20645477 70 18130791221883451146
20681677 155 18335986385162810194
20871999 31 18263368005555604567
22079108 93 16128655228156406144
221357 26 17988649600822613093
22224240 67 14908178638729219593
23402539 116 17749110006211492169
23402655 69 18343863299496486928
23536379 177 18410574002415820360
23559900 14 17749677286277607056
26918003 58 6916260754137650941
29717793 49 18187920716770636060
3004659 81 18334856165014980262
347723 3 18187364345815646600
3545911 37 17703789219119444249
3759504 43 18341331115391089539
542803 24 18409730672950333705
69474 34 13183017397888219783
8272917 22 18200592626039168114

> <PUBCHEM_SHAPE_MULTIPOLES>
386.87
14.59
1.59
1.21
2.3
0.46
0.1
-2.82
-2.91
0.92
-0.15
0.06
-0.13
-1.26

> <PUBCHEM_SHAPE_SELFOVERLAP>
774.095

> <PUBCHEM_SHAPE_VOLUME>
228.4

> <PUBCHEM_COORDINATE_TYPE>
2
5
10

$$$$

