7113
  -OEChem-06261201473D

 27 28  0     0  0  0  0  0  0999 V2000
    4.5186   -1.1274    0.0006 O   0  0  0  0  0  0  0  0  0  0  0  0
   -0.3648   -0.0126   -0.0007 C   0  0  0  0  0  0  0  0  0  0  0  0
   -1.8117    0.0015   -0.0004 C   0  0  0  0  0  0  0  0  0  0  0  0
    2.4249   -0.0411   -0.0003 C   0  0  0  0  0  0  0  0  0  0  0  0
    0.3449    1.1881   -0.0002 C   0  0  0  0  0  0  0  0  0  0  0  0
    0.3203   -1.2276   -0.0009 C   0  0  0  0  0  0  0  0  0  0  0  0
    1.7396    1.1740   -0.0001 C   0  0  0  0  0  0  0  0  0  0  0  0
    1.7151   -1.2420   -0.0006 C   0  0  0  0  0  0  0  0  0  0  0  0
   -2.5088    0.0083    1.2079 C   0  0  0  0  0  0  0  0  0  0  0  0
   -2.5096    0.0089   -1.2081 C   0  0  0  0  0  0  0  0  0  0  0  0
    3.8790   -0.0566    0.0002 C   0  0  0  0  0  0  0  0  0  0  0  0
   -3.9036    0.0221    1.2085 C   0  0  0  0  0  0  0  0  0  0  0  0
   -3.9045    0.0229   -1.2075 C   0  0  0  0  0  0  0  0  0  0  0  0
   -4.6013    0.0294    0.0008 C   0  0  0  0  0  0  0  0  0  0  0  0
    4.6618    1.2521    0.0007 C   0  0  0  0  0  0  0  0  0  0  0  0
   -0.1742    2.1439    0.0001 H   0  0  0  0  0  0  0  0  0  0  0  0
   -0.2178   -2.1727   -0.0011 H   0  0  0  0  0  0  0  0  0  0  0  0
    2.2524    2.1308    0.0002 H   0  0  0  0  0  0  0  0  0  0  0  0
    2.2260   -2.2012   -0.0007 H   0  0  0  0  0  0  0  0  0  0  0  0
   -1.9804    0.0028    2.1584 H   0  0  0  0  0  0  0  0  0  0  0  0
   -1.9820    0.0041   -2.1590 H   0  0  0  0  0  0  0  0  0  0  0  0
   -4.4463    0.0272    2.1492 H   0  0  0  0  0  0  0  0  0  0  0  0
   -4.4480    0.0286   -2.1477 H   0  0  0  0  0  0  0  0  0  0  0  0
   -5.6873    0.0403    0.0012 H   0  0  0  0  0  0  0  0  0  0  0  0
    4.4372    1.8266    0.9030 H   0  0  0  0  0  0  0  0  0  0  0  0
    4.4374    1.8273   -0.9013 H   0  0  0  0  0  0  0  0  0  0  0  0
    5.7334    1.0281    0.0007 H   0  0  0  0  0  0  0  0  0  0  0  0
  1 11  2  0  0  0  0
  2  3  1  0  0  0  0
  2  5  2  0  0  0  0
  2  6  1  0  0  0  0
  3  9  2  0  0  0  0
  3 10  1  0  0  0  0
  4  7  2  0  0  0  0
  4  8  1  0  0  0  0
  4 11  1  0  0  0  0
  5  7  1  0  0  0  0
  5 16  1  0  0  0  0
  6  8  2  0  0  0  0
  6 17  1  0  0  0  0
  7 18  1  0  0  0  0
  8 19  1  0  0  0  0
  9 12  1  0  0  0  0
  9 20  1  0  0  0  0
 10 13  2  0  0  0  0
 10 21  1  0  0  0  0
 11 15  1  0  0  0  0
 12 14  2  0  0  0  0
 12 22  1  0  0  0  0
 13 14  1  0  0  0  0
 13 23  1  0  0  0  0
 14 24  1  0  0  0  0
 15 25  1  0  0  0  0
 15 26  1  0  0  0  0
 15 27  1  0  0  0  0
M  END
> <PUBCHEM_COMPOUND_CID>
7113

> <PUBCHEM_CONFORMER_RMSD>
0.6

> <PUBCHEM_CONFORMER_DIVERSEORDER>
1
2

> <PUBCHEM_MMFF94_PARTIAL_CHARGES>
22
1 -0.57
10 -0.15
11 0.42
12 -0.15
13 -0.15
14 -0.15
15 0.06
16 0.15
17 0.15
18 0.15
19 0.15
20 0.15
21 0.15
22 0.15
23 0.15
24 0.15
4 0.09
5 -0.15
6 -0.15
7 -0.15
8 -0.15
9 -0.15

> <PUBCHEM_EFFECTIVE_ROTOR_COUNT>
2

> <PUBCHEM_PHARMACOPHORE_FEATURES>
3
1 1 acceptor
6 2 4 5 6 7 8 rings
6 3 9 10 12 13 14 rings

> <PUBCHEM_HEAVY_ATOM_COUNT>
15

> <PUBCHEM_ATOM_DEF_STEREO_COUNT>
0

> <PUBCHEM_ATOM_UDEF_STEREO_COUNT>
0

> <PUBCHEM_BOND_DEF_STEREO_COUNT>
0

> <PUBCHEM_BOND_UDEF_STEREO_COUNT>
0

> <PUBCHEM_ISOTOPIC_ATOM_COUNT>
0

> <PUBCHEM_COMPONENT_COUNT>
1

> <PUBCHEM_CACTVS_TAUTO_COUNT>
2

> <PUBCHEM_CONFORMER_ID>
00001BC900000001

> <PUBCHEM_MMFF94_ENERGY>
48.2358

> <PUBCHEM_FEATURE_SELFOVERLAP>
15.223

> <PUBCHEM_SHAPE_FINGERPRINT>
10219947 1 18411135840199441868
10465860 250 16845578607956421844
10912923 1 17603586318065356738
11401426 45 18334300859301070212
11471102 20 18411420605253041516
11543360 7 15864352389963014752
12236239 1 17821446863802893161
124424 183 17775568641163428017
12500047 106 16415484843879954971
13581323 91 15482672372750559499
13675066 3 17846778486166990338
13760787 19 15647050473620881844
13760787 5 18408603669331724668
14993402 34 17967536756996868324
15219456 202 17846781831872751803
15309172 13 18409728465274041359
15375358 24 17989489623347495027
15653759 3 17060619984157558329
16945 1 18410855468939687942
17834072 33 17531251621116480821
18175812 5 17632574920688411639
18186145 218 18334574625217653532
19026448 4 17060339626062092778
19026448 5 17022902354647954254
200 152 18261116262129842885
20279233 1 17703787029134600667
204376 136 18341047432774477082
20645477 70 18342181110988626478
22094290 60 16343703244340169581
22485316 2 17489590051850900506
22854114 59 18343301452991023072
23175994 123 18202559592512313013
23402539 116 15430040980660255585
23402655 69 18261679254848593829
23557571 272 16845291704230635911
23559900 14 16773521083133901506
265663 24 17167864162102675110
474 4 17751937821559537016
542803 24 17676485047014575873
573450 72 16732986465593738399
77492 1 17676488350208325795

> <PUBCHEM_SHAPE_MULTIPOLES>
302.82
9.51
1.17
1.01
2.02
0.03
0
-0.58
0
1.19
0
-1.26
-0.02
0

> <PUBCHEM_SHAPE_SELFOVERLAP>
655.441

> <PUBCHEM_SHAPE_VOLUME>
166.8

> <PUBCHEM_COORDINATE_TYPE>
2
5
10

$$$$

