17396617
  -OEChem-06241222573D

 38 39  0     0  0  0  0  0  0999 V2000
    4.8013   -2.0692    0.5453 Cl  0  0  0  0  0  0  0  0  0  0  0  0
   -1.5984   -0.0414   -2.0598 F   0  0  0  0  0  0  0  0  0  0  0  0
   -3.0325    0.0987    2.4663 F   0  0  0  0  0  0  0  0  0  0  0  0
   -0.8049    1.1261    1.6455 O   0  0  0  0  0  0  0  0  0  0  0  0
    0.1071   -0.0424   -0.1733 N   0  0  0  0  0  0  0  0  0  0  0  0
    1.5000    0.1546   -0.0071 C   0  0  0  0  0  0  0  0  0  0  0  0
    2.3472   -0.9402    0.1637 C   0  0  0  0  0  0  0  0  0  0  0  0
    2.0238    1.4474   -0.0128 C   0  0  0  0  0  0  0  0  0  0  0  0
    1.7755   -2.3252    0.1690 C   0  0  0  0  0  0  0  0  0  0  0  0
    1.1418    2.6407   -0.1922 C   0  0  0  0  0  0  0  0  0  0  0  0
    3.7180   -0.7422    0.3288 C   0  0  0  0  0  0  0  0  0  0  0  0
    3.3946    1.6456    0.1522 C   0  0  0  0  0  0  0  0  0  0  0  0
    4.2417    0.5506    0.3230 C   0  0  0  0  0  0  0  0  0  0  0  0
    1.7358   -2.9348   -1.2270 C   0  0  0  0  0  0  0  0  0  0  0  0
    0.9806    3.0243   -1.6596 C   0  0  0  0  0  0  0  0  0  0  0  0
   -0.9423    0.4314    0.6259 C   0  0  0  0  0  0  0  0  0  0  0  0
   -2.2811    0.0387    0.2138 C   0  0  0  0  0  0  0  0  0  0  0  0
   -2.5584   -0.1848   -1.1348 C   0  0  0  0  0  0  0  0  0  0  0  0
   -3.2877   -0.1136    1.1673 C   0  0  0  0  0  0  0  0  0  0  0  0
   -3.8420   -0.5610   -1.5299 C   0  0  0  0  0  0  0  0  0  0  0  0
   -4.5714   -0.4897    0.7721 C   0  0  0  0  0  0  0  0  0  0  0  0
   -4.8487   -0.7135   -0.5765 C   0  0  0  0  0  0  0  0  0  0  0  0
    2.3319   -2.9865    0.8427 H   0  0  0  0  0  0  0  0  0  0  0  0
    0.7654   -2.3314    0.5966 H   0  0  0  0  0  0  0  0  0  0  0  0
    0.1591    2.5728    0.2598 H   0  0  0  0  0  0  0  0  0  0  0  0
    1.6008    3.4927    0.3288 H   0  0  0  0  0  0  0  0  0  0  0  0
    3.8183    2.6464    0.1478 H   0  0  0  0  0  0  0  0  0  0  0  0
   -0.1295   -0.8366   -0.7634 H   0  0  0  0  0  0  0  0  0  0  0  0
    5.3077    0.7220    0.4500 H   0  0  0  0  0  0  0  0  0  0  0  0
    1.1298   -2.3354   -1.9140 H   0  0  0  0  0  0  0  0  0  0  0  0
    1.3030   -3.9395   -1.1859 H   0  0  0  0  0  0  0  0  0  0  0  0
    2.7396   -3.0186   -1.6562 H   0  0  0  0  0  0  0  0  0  0  0  0
    1.9502    3.2220   -2.1293 H   0  0  0  0  0  0  0  0  0  0  0  0
    0.4881    2.2264   -2.2255 H   0  0  0  0  0  0  0  0  0  0  0  0
    0.3710    3.9292   -1.7494 H   0  0  0  0  0  0  0  0  0  0  0  0
   -4.0574   -0.7352   -2.5799 H   0  0  0  0  0  0  0  0  0  0  0  0
   -5.3550   -0.6084    1.5147 H   0  0  0  0  0  0  0  0  0  0  0  0
   -5.8482   -1.0065   -0.8841 H   0  0  0  0  0  0  0  0  0  0  0  0
  1 11  1  0  0  0  0
  2 18  1  0  0  0  0
  3 19  1  0  0  0  0
  4 16  2  0  0  0  0
  5  6  1  0  0  0  0
  5 16  1  0  0  0  0
  5 28  1  0  0  0  0
  6  7  1  0  0  0  0
  6  8  2  0  0  0  0
  7  9  1  0  0  0  0
  7 11  2  0  0  0  0
  8 10  1  0  0  0  0
  8 12  1  0  0  0  0
  9 14  1  0  0  0  0
  9 23  1  0  0  0  0
  9 24  1  0  0  0  0
 10 15  1  0  0  0  0
 10 25  1  0  0  0  0
 10 26  1  0  0  0  0
 11 13  1  0  0  0  0
 12 13  2  0  0  0  0
 12 27  1  0  0  0  0
 13 29  1  0  0  0  0
 14 30  1  0  0  0  0
 14 31  1  0  0  0  0
 14 32  1  0  0  0  0
 15 33  1  0  0  0  0
 15 34  1  0  0  0  0
 15 35  1  0  0  0  0
 16 17  1  0  0  0  0
 17 18  2  0  0  0  0
 17 19  1  0  0  0  0
 18 20  1  0  0  0  0
 19 21  2  0  0  0  0
 20 22  2  0  0  0  0
 20 36  1  0  0  0  0
 21 22  1  0  0  0  0
 21 37  1  0  0  0  0
 22 38  1  0  0  0  0
M  END
> <PUBCHEM_COMPOUND_CID>
17396617

> <PUBCHEM_CONFORMER_RMSD>
0.8

> <PUBCHEM_CONFORMER_DIVERSEORDER>
4
1
8
9
2
3
6
7
5

> <PUBCHEM_MMFF94_PARTIAL_CHARGES>
26
1 -0.18
10 0.14
11 0.18
12 -0.15
13 -0.15
16 0.54
17 0.09
18 0.19
19 0.19
2 -0.19
20 -0.15
21 -0.15
22 -0.15
27 0.15
28 0.37
29 0.15
3 -0.19
36 0.15
37 0.15
38 0.15
4 -0.57
5 -0.55
6 0.12
7 -0.14
8 -0.14
9 0.14

> <PUBCHEM_EFFECTIVE_ROTOR_COUNT>
5

> <PUBCHEM_PHARMACOPHORE_FEATURES>
6
1 14 hydrophobe
1 15 hydrophobe
1 4 acceptor
1 5 donor
6 17 18 19 20 21 22 rings
6 6 7 8 11 12 13 rings

> <PUBCHEM_HEAVY_ATOM_COUNT>
22

> <PUBCHEM_ATOM_DEF_STEREO_COUNT>
0

> <PUBCHEM_ATOM_UDEF_STEREO_COUNT>
0

> <PUBCHEM_BOND_DEF_STEREO_COUNT>
0

> <PUBCHEM_BOND_UDEF_STEREO_COUNT>
0

> <PUBCHEM_ISOTOPIC_ATOM_COUNT>
0

> <PUBCHEM_COMPONENT_COUNT>
1

> <PUBCHEM_CACTVS_TAUTO_COUNT>
2

> <PUBCHEM_CONFORMER_ID>
0109738900000004

> <PUBCHEM_MMFF94_ENERGY>
73.7623

> <PUBCHEM_FEATURE_SELFOVERLAP>
30.446

> <PUBCHEM_SHAPE_FINGERPRINT>
10366900 7 17346606278673239035
12236239 1 17894630331418827224
12363563 72 18059289971806498490
12553582 1 18337943601764884990
13134695 92 18273501152283530124
13583140 156 17418099767147805986
13911987 19 17988345032408060534
13965767 371 16881847218895933241
14386348 63 17632577149766025115
14844126 61 16467554759408255978
15375462 189 17821732732156867923
15848702 151 18272090479044142501
17138139 8 17391101156460553975
17349148 13 18335140886148008530
17357779 13 18130516313584558644
17818456 19 17534326023643508505
1813 80 18335690698233951198
18222031 100 18337678619895263754
200 152 18334863818050057147
20028762 73 17967822652039311398
20511986 3 17749685064030999713
20645477 70 18342742901063104834
20739085 24 18410848876518543900
2255824 54 18335979753606711020
23175994 123 17988923387823512373
23402539 116 18340771562888207194
23419403 2 15045048130876593122
23557571 272 16845291691382760935
23559900 14 16200431360239779358
23598291 2 18040984185250975821
3060560 45 18338518543477707844
4409770 3 16171694863486259630
46194498 28 17917157083163363749
474 4 18335702672370812808
77492 1 17894909603045789944
81228 2 17840865501633049228
8272917 22 18408879638170930879

> <PUBCHEM_SHAPE_MULTIPOLES>
429.22
9.19
2.69
1.55
3.9
0.53
-0.04
-3.63
-1.07
-3.48
1.05
1.63
0.13
-0.31

> <PUBCHEM_SHAPE_SELFOVERLAP>
910.509

> <PUBCHEM_SHAPE_VOLUME>
240.3

> <PUBCHEM_COORDINATE_TYPE>
2
5
10

$$$$

