4390
  -OEChem-06261200053D

 28 28  0     0  0  0  0  0  0999 V2000
   -1.0733   -1.4200   -0.6078 O   0  5  0  0  0  0  0  0  0  0  0  0
   -1.3008   -0.2659   -0.1128 N   0  3  0  0  0  0  0  0  0  0  0  0
   -2.7036    0.1442    0.0430 C   0  0  0  0  0  0  0  0  0  0  0  0
   -3.5619   -1.0064   -0.4671 C   0  0  0  0  0  0  0  0  0  0  0  0
   -2.9109    0.4019    1.5293 C   0  0  0  0  0  0  0  0  0  0  0  0
   -2.8829    1.4050   -0.7925 C   0  0  0  0  0  0  0  0  0  0  0  0
   -0.3336    0.5634    0.2204 C   0  0  0  0  0  0  0  0  0  0  0  0
    1.1063    0.2886    0.1231 C   0  0  0  0  0  0  0  0  0  0  0  0
    1.9828    1.3283   -0.1518 C   0  0  0  0  0  0  0  0  0  0  0  0
    1.5675   -1.0069    0.3073 C   0  0  0  0  0  0  0  0  0  0  0  0
    3.3499    1.0671   -0.2445 C   0  0  0  0  0  0  0  0  0  0  0  0
    2.9346   -1.2682    0.2147 C   0  0  0  0  0  0  0  0  0  0  0  0
    3.8258   -0.2311   -0.0612 C   0  0  0  0  0  0  0  0  0  0  0  0
   -3.4055   -1.9293    0.1043 H   0  0  0  0  0  0  0  0  0  0  0  0
   -4.6251   -0.7547   -0.3722 H   0  0  0  0  0  0  0  0  0  0  0  0
   -3.3830   -1.2224   -1.5274 H   0  0  0  0  0  0  0  0  0  0  0  0
   -2.3399    1.2574    1.9047 H   0  0  0  0  0  0  0  0  0  0  0  0
   -2.6284   -0.4705    2.1305 H   0  0  0  0  0  0  0  0  0  0  0  0
   -3.9665    0.6143    1.7351 H   0  0  0  0  0  0  0  0  0  0  0  0
   -2.5435    1.2554   -1.8245 H   0  0  0  0  0  0  0  0  0  0  0  0
   -3.9426    1.6834   -0.8345 H   0  0  0  0  0  0  0  0  0  0  0  0
   -2.3526    2.2751   -0.3928 H   0  0  0  0  0  0  0  0  0  0  0  0
   -0.6076    1.5657    0.5839 H   0  0  0  0  0  0  0  0  0  0  0  0
    1.6223    2.3428   -0.2977 H   0  0  0  0  0  0  0  0  0  0  0  0
    0.9166   -1.8323    0.5748 H   0  0  0  0  0  0  0  0  0  0  0  0
    4.0439    1.8746   -0.4589 H   0  0  0  0  0  0  0  0  0  0  0  0
    3.3071   -2.2767    0.3693 H   0  0  0  0  0  0  0  0  0  0  0  0
    4.8904   -0.4341   -0.1305 H   0  0  0  0  0  0  0  0  0  0  0  0
  1  2  1  0  0  0  0
  2  3  1  0  0  0  0
  2  7  2  0  0  0  0
  3  4  1  0  0  0  0
  3  5  1  0  0  0  0
  3  6  1  0  0  0  0
  4 14  1  0  0  0  0
  4 15  1  0  0  0  0
  4 16  1  0  0  0  0
  5 17  1  0  0  0  0
  5 18  1  0  0  0  0
  5 19  1  0  0  0  0
  6 20  1  0  0  0  0
  6 21  1  0  0  0  0
  6 22  1  0  0  0  0
  7  8  1  0  0  0  0
  7 23  1  0  0  0  0
  8  9  2  0  0  0  0
  8 10  1  0  0  0  0
  9 11  1  0  0  0  0
  9 24  1  0  0  0  0
 10 12  2  0  0  0  0
 10 25  1  0  0  0  0
 11 13  2  0  0  0  0
 11 26  1  0  0  0  0
 12 13  1  0  0  0  0
 12 27  1  0  0  0  0
 13 28  1  0  0  0  0
M  CHG  2   1  -1   2   1
M  END
> <PUBCHEM_COMPOUND_CID>
4390

> <PUBCHEM_CONFORMER_RMSD>
0.6

> <PUBCHEM_CONFORMER_DIVERSEORDER>
1
2

> <PUBCHEM_MMFF94_PARTIAL_CHARGES>
16
1 -0.63
10 -0.15
11 -0.15
12 -0.15
13 -0.15
2 0.53
23 0.06
24 0.15
25 0.15
26 0.15
27 0.15
28 0.15
3 0.1
7 -0.14
8 0.09
9 -0.15

> <PUBCHEM_EFFECTIVE_ROTOR_COUNT>
2

> <PUBCHEM_PHARMACOPHORE_FEATURES>
3
1 1 anion
4 3 4 5 6 hydrophobe
6 8 9 10 11 12 13 rings

> <PUBCHEM_HEAVY_ATOM_COUNT>
13

> <PUBCHEM_ATOM_DEF_STEREO_COUNT>
0

> <PUBCHEM_ATOM_UDEF_STEREO_COUNT>
0

> <PUBCHEM_BOND_DEF_STEREO_COUNT>
0

> <PUBCHEM_BOND_UDEF_STEREO_COUNT>
1

> <PUBCHEM_ISOTOPIC_ATOM_COUNT>
0

> <PUBCHEM_COMPONENT_COUNT>
1

> <PUBCHEM_CACTVS_TAUTO_COUNT>
1

> <PUBCHEM_CONFORMER_ID>
0000112600000001

> <PUBCHEM_MMFF94_ENERGY>
46.4639

> <PUBCHEM_FEATURE_SELFOVERLAP>
15.223

> <PUBCHEM_SHAPE_FINGERPRINT>
10608611 8 18272375273540319924
10922523 26 18272934967982111228
10980938 120 18412263935024470274
11471102 20 18342178869125941628
12916754 54 18409166589141337959
12932764 1 18410853252589013068
13296908 3 18202564003258726192
13571099 22 18335989777875432308
13581323 91 17313107431870887175
14144814 61 18333732424711263816
14325111 11 18411702088376614101
15309172 13 18335414690576768379
15442244 35 18195249051410214176
15775835 57 18409163311954658057
16945 1 18334575788979619922
17844478 74 17846773022720897317
18186145 218 18334288786411712744
190213 19 18040718073572561144
19422 9 18260824899568925474
200 152 18113909234508760967
20279233 1 17060621083568888187
20645477 70 18270407203508493118
2306618 200 18261674869808544417
23402539 116 16877664586422053872
23402655 69 18411985783877979220
23463225 33 18408323319425650334
3248919 1 17530963609215246493
581208 293 18342179938599197992
74978 22 17967537835028540656
77492 1 18186516613855622720
93112 12 18413113874286578061

> <PUBCHEM_SHAPE_MULTIPOLES>
256.68
7.1
1.46
0.9
0.34
0
0.23
0
-0.2
0.19
-0.22
-0.75
0.07
-0.24

> <PUBCHEM_SHAPE_SELFOVERLAP>
527.18

> <PUBCHEM_SHAPE_VOLUME>
149.8

> <PUBCHEM_COORDINATE_TYPE>
2
5
10

$$$$

