583423
  -OEChem-06241222452D

 30 31  0     0  0  0  0  0  0999 V2000
    4.6783    0.9737    0.0000 N   0  0  0  0  0  0  0  0  0  0  0  0
    4.6783   -0.6357    0.0000 N   0  0  0  0  0  0  0  0  0  0  0  0
    6.7619   -0.6970    0.0000 C   0  0  0  0  0  0  0  0  0  0  0  0
    6.2619    0.1690    0.0000 C   0  0  0  0  0  0  0  0  0  0  0  0
    7.2619   -1.5630    0.0000 C   0  0  0  0  0  0  0  0  0  0  0  0
    7.6279   -0.1970    0.0000 C   0  0  0  0  0  0  0  0  0  0  0  0
    5.8958   -1.1970    0.0000 C   0  0  0  0  0  0  0  0  0  0  0  0
    5.2619    0.1690    0.0000 C   0  0  0  0  0  0  0  0  0  0  0  0
    3.7320    0.6690    0.0000 C   0  0  0  0  0  0  0  0  0  0  0  0
    3.7320   -0.3310    0.0000 C   0  0  0  0  0  0  0  0  0  0  0  0
    2.8660    1.1690    0.0000 C   0  0  0  0  0  0  0  0  0  0  0  0
    2.8660   -0.8310    0.0000 C   0  0  0  0  0  0  0  0  0  0  0  0
    2.0000    0.6690    0.0000 C   0  0  0  0  0  0  0  0  0  0  0  0
    2.0000   -0.3310    0.0000 C   0  0  0  0  0  0  0  0  0  0  0  0
    6.8445    0.3810    0.0000 H   0  0  0  0  0  0  0  0  0  0  0  0
    6.1542    0.7796    0.0000 H   0  0  0  0  0  0  0  0  0  0  0  0
    6.7249   -1.8730    0.0000 H   0  0  0  0  0  0  0  0  0  0  0  0
    7.5719   -2.1000    0.0000 H   0  0  0  0  0  0  0  0  0  0  0  0
    7.9379   -0.7340    0.0000 H   0  0  0  0  0  0  0  0  0  0  0  0
    8.1648    0.1130    0.0000 H   0  0  0  0  0  0  0  0  0  0  0  0
    7.3179    0.3399    0.0000 H   0  0  0  0  0  0  0  0  0  0  0  0
    5.5858   -0.6601    0.0000 H   0  0  0  0  0  0  0  0  0  0  0  0
    5.3589   -1.5070    0.0000 H   0  0  0  0  0  0  0  0  0  0  0  0
    6.2058   -1.7340    0.0000 H   0  0  0  0  0  0  0  0  0  0  0  0
    7.7988   -1.2530    0.0000 H   0  0  0  0  0  0  0  0  0  0  0  0
    4.8709    1.5630    0.0000 H   0  0  0  0  0  0  0  0  0  0  0  0
    2.8660    1.7890    0.0000 H   0  0  0  0  0  0  0  0  0  0  0  0
    2.8660   -1.4510    0.0000 H   0  0  0  0  0  0  0  0  0  0  0  0
    1.4631    0.9790    0.0000 H   0  0  0  0  0  0  0  0  0  0  0  0
    1.4631   -0.6410    0.0000 H   0  0  0  0  0  0  0  0  0  0  0  0
  1  8  1  0  0  0  0
  1  9  1  0  0  0  0
  1 26  1  0  0  0  0
  2  8  2  0  0  0  0
  2 10  1  0  0  0  0
  3  4  1  0  0  0  0
  3  5  1  0  0  0  0
  3  6  1  0  0  0  0
  3  7  1  0  0  0  0
  4  8  1  0  0  0  0
  4 15  1  0  0  0  0
  4 16  1  0  0  0  0
  5 17  1  0  0  0  0
  5 18  1  0  0  0  0
  5 25  1  0  0  0  0
  6 19  1  0  0  0  0
  6 20  1  0  0  0  0
  6 21  1  0  0  0  0
  7 22  1  0  0  0  0
  7 23  1  0  0  0  0
  7 24  1  0  0  0  0
  9 10  1  0  0  0  0
  9 11  2  0  0  0  0
 10 12  2  0  0  0  0
 11 13  1  0  0  0  0
 11 27  1  0  0  0  0
 12 14  1  0  0  0  0
 12 28  1  0  0  0  0
 13 14  2  0  0  0  0
 13 29  1  0  0  0  0
 14 30  1  0  0  0  0
M  END
> <PUBCHEM_COMPOUND_CID>
583423

> <PUBCHEM_COMPOUND_CANONICALIZED>
1

> <PUBCHEM_CACTVS_COMPLEXITY>
195

> <PUBCHEM_CACTVS_HBOND_ACCEPTOR>
1

> <PUBCHEM_CACTVS_HBOND_DONOR>
1

> <PUBCHEM_CACTVS_ROTATABLE_BOND>
2

> <PUBCHEM_CACTVS_SUBSKEYS>
AAADceBzAAAAAAAAAAAAAAAAAAAAAWAAAAAwAAAAAAAAAFgB8AAAHAAQAAAADgiBFwAz0LbJkACgASZiZACCgC2hEqAJmSAwdJiIaKLAmZGUIAhokALIyCcQAAAJAAAAAAAAACAAAAAAAAAAQAAAAAAAAA==

> <PUBCHEM_IUPAC_OPENEYE_NAME>
2-(2,2-dimethylpropyl)-1H-benzimidazole

> <PUBCHEM_IUPAC_CAS_NAME>
2-(2,2-dimethylpropyl)-1H-benzimidazole

> <PUBCHEM_IUPAC_NAME>
2-(2,2-dimethylpropyl)-1H-benzimidazole

> <PUBCHEM_IUPAC_SYSTEMATIC_NAME>
2-(2,2-dimethylpropyl)-1H-benzimidazole

> <PUBCHEM_IUPAC_TRADITIONAL_NAME>
2-neopentyl-1H-benzimidazole

> <PUBCHEM_IUPAC_INCHI>
InChI=1S/C12H16N2/c1-12(2,3)8-11-13-9-6-4-5-7-10(9)14-11/h4-7H,8H2,1-3H3,(H,13,14)

> <PUBCHEM_IUPAC_INCHIKEY>
CVJIEBDNQRFHOR-UHFFFAOYSA-N

> <PUBCHEM_XLOGP3>
3.3

> <PUBCHEM_EXACT_MASS>
188.131349

> <PUBCHEM_MOLECULAR_FORMULA>
C12H16N2

> <PUBCHEM_MOLECULAR_WEIGHT>
188.26884

> <PUBCHEM_OPENEYE_CAN_SMILES>
CC(C)(C)CC1=NC2=CC=CC=C2N1

> <PUBCHEM_OPENEYE_ISO_SMILES>
CC(C)(C)CC1=NC2=CC=CC=C2N1

> <PUBCHEM_CACTVS_TPSA>
28.7

> <PUBCHEM_MONOISOTOPIC_WEIGHT>
188.131349

> <PUBCHEM_TOTAL_CHARGE>
0

> <PUBCHEM_HEAVY_ATOM_COUNT>
14

> <PUBCHEM_ATOM_DEF_STEREO_COUNT>
0

> <PUBCHEM_ATOM_UDEF_STEREO_COUNT>
0

> <PUBCHEM_BOND_DEF_STEREO_COUNT>
0

> <PUBCHEM_BOND_UDEF_STEREO_COUNT>
0

> <PUBCHEM_ISOTOPIC_ATOM_COUNT>
0

> <PUBCHEM_COMPONENT_COUNT>
1

> <PUBCHEM_CACTVS_TAUTO_COUNT>
2

> <PUBCHEM_COORDINATE_TYPE>
1
5
255

> <PUBCHEM_BONDANNOTATIONS>
1  8  8
1  9  8
10  12  8
11  13  8
12  14  8
13  14  8
2  10  8
2  8  8
9  10  8
9  11  8

$$$$

