9966
  -OEChem-06261204132D

 18 18  0     0  0  0  0  0  0999 V2000
    3.0000    3.0600    0.0000 F   0  0  0  0  0  0  0  0  0  0  0  0
    4.0000    2.0600    0.0000 F   0  0  0  0  0  0  0  0  0  0  0  0
    2.0000    2.0600    0.0000 F   0  0  0  0  0  0  0  0  0  0  0  0
    2.1340   -2.4400    0.0000 O   0  0  0  0  0  0  0  0  0  0  0  0
    3.8660   -2.4400    0.0000 O   0  0  0  0  0  0  0  0  0  0  0  0
    3.0000    1.0600    0.0000 C   0  0  0  0  0  0  0  0  0  0  0  0
    2.1340    0.5600    0.0000 C   0  0  0  0  0  0  0  0  0  0  0  0
    3.8660    0.5600    0.0000 C   0  0  0  0  0  0  0  0  0  0  0  0
    3.0000   -0.9400    0.0000 C   0  0  0  0  0  0  0  0  0  0  0  0
    2.1340   -0.4400    0.0000 C   0  0  0  0  0  0  0  0  0  0  0  0
    3.8660   -0.4400    0.0000 C   0  0  0  0  0  0  0  0  0  0  0  0
    3.0000    2.0600    0.0000 C   0  0  0  0  0  0  0  0  0  0  0  0
    3.0000   -1.9400    0.0000 C   0  0  0  0  0  0  0  0  0  0  0  0
    1.5970    0.8700    0.0000 H   0  0  0  0  0  0  0  0  0  0  0  0
    4.4030    0.8700    0.0000 H   0  0  0  0  0  0  0  0  0  0  0  0
    1.5970   -0.7500    0.0000 H   0  0  0  0  0  0  0  0  0  0  0  0
    4.4030   -0.7500    0.0000 H   0  0  0  0  0  0  0  0  0  0  0  0
    2.1340   -3.0600    0.0000 H   0  0  0  0  0  0  0  0  0  0  0  0
  1 12  1  0  0  0  0
  2 12  1  0  0  0  0
  3 12  1  0  0  0  0
  4 13  1  0  0  0  0
  4 18  1  0  0  0  0
  5 13  2  0  0  0  0
  6  7  2  0  0  0  0
  6  8  1  0  0  0  0
  6 12  1  0  0  0  0
  7 10  1  0  0  0  0
  7 14  1  0  0  0  0
  8 11  2  0  0  0  0
  8 15  1  0  0  0  0
  9 10  2  0  0  0  0
  9 11  1  0  0  0  0
  9 13  1  0  0  0  0
 10 16  1  0  0  0  0
 11 17  1  0  0  0  0
M  END
> <PUBCHEM_COMPOUND_CID>
9966

> <PUBCHEM_COMPOUND_CANONICALIZED>
1

> <PUBCHEM_CACTVS_COMPLEXITY>
192

> <PUBCHEM_CACTVS_HBOND_ACCEPTOR>
5

> <PUBCHEM_CACTVS_HBOND_DONOR>
1

> <PUBCHEM_CACTVS_ROTATABLE_BOND>
1

> <PUBCHEM_CACTVS_SUBSKEYS>
AAADcYBwMYAAAAAAAAAAAAAAAAAAAAAAAAAwAAAAAAAAAAABAAAAGwAACAAADACAmBAwCIAAAgCIAiDSCAACAAAkAAAIiAEACMgIJjKAFRCAcQAkwAEImYeIyDCOQAAAAAAAAACAAAAAAAAAAAAAAAAAAA==

> <PUBCHEM_IUPAC_OPENEYE_NAME>
4-(trifluoromethyl)benzoic acid

> <PUBCHEM_IUPAC_CAS_NAME>
4-(trifluoromethyl)benzoic acid

> <PUBCHEM_IUPAC_NAME>
4-(trifluoromethyl)benzoic acid

> <PUBCHEM_IUPAC_SYSTEMATIC_NAME>
4-(trifluoromethyl)benzoic acid

> <PUBCHEM_IUPAC_TRADITIONAL_NAME>
4-(trifluoromethyl)benzoic acid

> <PUBCHEM_IUPAC_INCHI>
InChI=1S/C8H5F3O2/c9-8(10,11)6-3-1-5(2-4-6)7(12)13/h1-4H,(H,12,13)

> <PUBCHEM_IUPAC_INCHIKEY>
SWKPKONEIZGROQ-UHFFFAOYSA-N

> <PUBCHEM_XLOGP3>
3.1

> <PUBCHEM_EXACT_MASS>
190.024164

> <PUBCHEM_MOLECULAR_FORMULA>
C8H5F3O2

> <PUBCHEM_MOLECULAR_WEIGHT>
190.11931

> <PUBCHEM_OPENEYE_CAN_SMILES>
C1=CC(=CC=C1C(=O)O)C(F)(F)F

> <PUBCHEM_OPENEYE_ISO_SMILES>
C1=CC(=CC=C1C(=O)O)C(F)(F)F

> <PUBCHEM_CACTVS_TPSA>
37.3

> <PUBCHEM_MONOISOTOPIC_WEIGHT>
190.024164

> <PUBCHEM_TOTAL_CHARGE>
0

> <PUBCHEM_HEAVY_ATOM_COUNT>
13

> <PUBCHEM_ATOM_DEF_STEREO_COUNT>
0

> <PUBCHEM_ATOM_UDEF_STEREO_COUNT>
0

> <PUBCHEM_BOND_DEF_STEREO_COUNT>
0

> <PUBCHEM_BOND_UDEF_STEREO_COUNT>
0

> <PUBCHEM_ISOTOPIC_ATOM_COUNT>
0

> <PUBCHEM_COMPONENT_COUNT>
1

> <PUBCHEM_CACTVS_TAUTO_COUNT>
1

> <PUBCHEM_COORDINATE_TYPE>
1
5
255

> <PUBCHEM_BONDANNOTATIONS>
6  7  8
6  8  8
7  10  8
8  11  8
9  10  8
9  11  8

$$$$

