9565
  -OEChem-06261203492D

 36 37  0     0  0  0  0  0  0999 V2000
    4.5981    2.7500    0.0000 S   0  0  0  0  0  0  0  0  0  0  0  0
    3.7320   -1.7500    0.0000 O   0  0  0  0  0  0  0  0  0  0  0  0
    4.0981    3.6160    0.0000 O   0  0  0  0  0  0  0  0  0  0  0  0
    5.0981    1.8840    0.0000 O   0  0  0  0  0  0  0  0  0  0  0  0
    2.0000   -3.7500    0.0000 O   0  0  0  0  0  0  0  0  0  0  0  0
    3.7320    2.2500    0.0000 N   0  0  0  0  0  0  0  0  0  0  0  0
    4.5981    0.7500    0.0000 N   0  0  0  0  0  0  0  0  0  0  0  0
    2.8660    0.7500    0.0000 N   0  0  0  0  0  0  0  0  0  0  0  0
    5.4641    3.2500    0.0000 C   0  0  0  0  0  0  0  0  0  0  0  0
    6.3301    2.7500    0.0000 C   0  0  0  0  0  0  0  0  0  0  0  0
    5.4641    4.2500    0.0000 C   0  0  0  0  0  0  0  0  0  0  0  0
    3.7320    1.2500    0.0000 C   0  0  0  0  0  0  0  0  0  0  0  0
    2.8660   -2.2500    0.0000 C   0  0  0  0  0  0  0  0  0  0  0  0
    7.1962    3.2500    0.0000 C   0  0  0  0  0  0  0  0  0  0  0  0
    6.3301    4.7500    0.0000 C   0  0  0  0  0  0  0  0  0  0  0  0
    3.7320   -0.7500    0.0000 C   0  0  0  0  0  0  0  0  0  0  0  0
    7.1962    4.2500    0.0000 C   0  0  0  0  0  0  0  0  0  0  0  0
    2.8660   -3.2500    0.0000 C   0  0  0  0  0  0  0  0  0  0  0  0
    4.5981   -0.2500    0.0000 C   0  0  0  0  0  0  0  0  0  0  0  0
    2.8660   -0.2500    0.0000 C   0  0  0  0  0  0  0  0  0  0  0  0
    2.0000   -4.7500    0.0000 C   0  0  0  0  0  0  0  0  0  0  0  0
    3.1951    2.5600    0.0000 H   0  0  0  0  0  0  0  0  0  0  0  0
    6.3301    2.1300    0.0000 H   0  0  0  0  0  0  0  0  0  0  0  0
    4.9272    4.5600    0.0000 H   0  0  0  0  0  0  0  0  0  0  0  0
    2.6540   -1.6674    0.0000 H   0  0  0  0  0  0  0  0  0  0  0  0
    2.2554   -2.3577    0.0000 H   0  0  0  0  0  0  0  0  0  0  0  0
    7.7331    2.9400    0.0000 H   0  0  0  0  0  0  0  0  0  0  0  0
    6.3301    5.3700    0.0000 H   0  0  0  0  0  0  0  0  0  0  0  0
    3.0781   -3.8326    0.0000 H   0  0  0  0  0  0  0  0  0  0  0  0
    3.4766   -3.1423    0.0000 H   0  0  0  0  0  0  0  0  0  0  0  0
    7.7331    4.5600    0.0000 H   0  0  0  0  0  0  0  0  0  0  0  0
    5.1350   -0.5600    0.0000 H   0  0  0  0  0  0  0  0  0  0  0  0
    2.3291   -0.5600    0.0000 H   0  0  0  0  0  0  0  0  0  0  0  0
    1.3800   -4.7500    0.0000 H   0  0  0  0  0  0  0  0  0  0  0  0
    2.0000   -5.3700    0.0000 H   0  0  0  0  0  0  0  0  0  0  0  0
    2.6200   -4.7500    0.0000 H   0  0  0  0  0  0  0  0  0  0  0  0
  1  3  2  0  0  0  0
  1  4  2  0  0  0  0
  1  6  1  0  0  0  0
  1  9  1  0  0  0  0
  2 13  1  0  0  0  0
  2 16  1  0  0  0  0
  5 18  1  0  0  0  0
  5 21  1  0  0  0  0
  6 12  1  0  0  0  0
  6 22  1  0  0  0  0
  7 12  1  0  0  0  0
  7 19  2  0  0  0  0
  8 12  2  0  0  0  0
  8 20  1  0  0  0  0
  9 10  2  0  0  0  0
  9 11  1  0  0  0  0
 10 14  1  0  0  0  0
 10 23  1  0  0  0  0
 11 15  2  0  0  0  0
 11 24  1  0  0  0  0
 13 18  1  0  0  0  0
 13 25  1  0  0  0  0
 13 26  1  0  0  0  0
 14 17  2  0  0  0  0
 14 27  1  0  0  0  0
 15 17  1  0  0  0  0
 15 28  1  0  0  0  0
 16 19  1  0  0  0  0
 16 20  2  0  0  0  0
 17 31  1  0  0  0  0
 18 29  1  0  0  0  0
 18 30  1  0  0  0  0
 19 32  1  0  0  0  0
 20 33  1  0  0  0  0
 21 34  1  0  0  0  0
 21 35  1  0  0  0  0
 21 36  1  0  0  0  0
M  END
> <PUBCHEM_COMPOUND_CID>
9565

> <PUBCHEM_COMPOUND_CANONICALIZED>
1

> <PUBCHEM_CACTVS_COMPLEXITY>
385

> <PUBCHEM_CACTVS_HBOND_ACCEPTOR>
7

> <PUBCHEM_CACTVS_HBOND_DONOR>
1

> <PUBCHEM_CACTVS_ROTATABLE_BOND>
7

> <PUBCHEM_CACTVS_SUBSKEYS>
AAADccBzOABAAAAAAAAAAAAAAAAAAAAAAAA8QAAAAAAAAAABwAAAHgQQQAAACATh0gY/l5ZIFAKgADBnZHTCiDkxQKAJ2DgrRJiPKKLAWVCHLAiogAJaiCcAAAAAAAAAAAAAAAAAAAAAAAAAAAAAAAAAAA==

> <PUBCHEM_IUPAC_OPENEYE_NAME>
N-[5-(2-methoxyethoxy)pyrimidin-2-yl]benzenesulfonamide

> <PUBCHEM_IUPAC_CAS_NAME>
N-[5-(2-methoxyethoxy)-2-pyrimidinyl]benzenesulfonamide

> <PUBCHEM_IUPAC_NAME>
N-[5-(2-methoxyethoxy)pyrimidin-2-yl]benzenesulfonamide

> <PUBCHEM_IUPAC_SYSTEMATIC_NAME>
N-[5-(2-methoxyethoxy)pyrimidin-2-yl]benzenesulfonamide

> <PUBCHEM_IUPAC_TRADITIONAL_NAME>
N-[5-(2-methoxyethoxy)pyrimidin-2-yl]benzenesulfonamide

> <PUBCHEM_IUPAC_INCHI>
InChI=1S/C13H15N3O4S/c1-19-7-8-20-11-9-14-13(15-10-11)16-21(17,18)12-5-3-2-4-6-12/h2-6,9-10H,7-8H2,1H3,(H,14,15,16)

> <PUBCHEM_IUPAC_INCHIKEY>
QFWPJPIVLCBXFJ-UHFFFAOYSA-N

> <PUBCHEM_XLOGP3>
0.9

> <PUBCHEM_EXACT_MASS>
309.078327

> <PUBCHEM_MOLECULAR_FORMULA>
C13H15N3O4S

> <PUBCHEM_MOLECULAR_WEIGHT>
309.3409

> <PUBCHEM_OPENEYE_CAN_SMILES>
COCCOC1=CN=C(N=C1)NS(=O)(=O)C2=CC=CC=C2

> <PUBCHEM_OPENEYE_ISO_SMILES>
COCCOC1=CN=C(N=C1)NS(=O)(=O)C2=CC=CC=C2

> <PUBCHEM_CACTVS_TPSA>
98.8

> <PUBCHEM_MONOISOTOPIC_WEIGHT>
309.078327

> <PUBCHEM_TOTAL_CHARGE>
0

> <PUBCHEM_HEAVY_ATOM_COUNT>
21

> <PUBCHEM_ATOM_DEF_STEREO_COUNT>
0

> <PUBCHEM_ATOM_UDEF_STEREO_COUNT>
0

> <PUBCHEM_BOND_DEF_STEREO_COUNT>
0

> <PUBCHEM_BOND_UDEF_STEREO_COUNT>
0

> <PUBCHEM_ISOTOPIC_ATOM_COUNT>
0

> <PUBCHEM_COMPONENT_COUNT>
1

> <PUBCHEM_CACTVS_TAUTO_COUNT>
2

> <PUBCHEM_COORDINATE_TYPE>
1
5
255

> <PUBCHEM_BONDANNOTATIONS>
10  14  8
11  15  8
14  17  8
15  17  8
16  19  8
16  20  8
7  12  8
7  19  8
8  12  8
8  20  8
9  10  8
9  11  8

$$$$

