10957
  -OEChem-06261205102D

 17 16  0     0  0  0  0  0  0999 V2000
    4.5981   -0.0600    0.0000 O   0  0  0  0  0  0  0  0  0  0  0  0
    6.3301   -0.0600    0.0000 O   0  0  0  0  0  0  0  0  0  0  0  0
    2.8660   -0.0600    0.0000 C   0  0  0  0  0  0  0  0  0  0  0  0
    3.7320    0.4400    0.0000 C   0  0  0  0  0  0  0  0  0  0  0  0
    2.0000    0.4400    0.0000 C   0  0  0  0  0  0  0  0  0  0  0  0
    2.8660   -1.0600    0.0000 C   0  0  0  0  0  0  0  0  0  0  0  0
    5.4641    0.4400    0.0000 C   0  0  0  0  0  0  0  0  0  0  0  0
    2.8660    0.5600    0.0000 H   0  0  0  0  0  0  0  0  0  0  0  0
    4.1306    0.9149    0.0000 H   0  0  0  0  0  0  0  0  0  0  0  0
    3.3335    0.9149    0.0000 H   0  0  0  0  0  0  0  0  0  0  0  0
    2.3100    0.9769    0.0000 H   0  0  0  0  0  0  0  0  0  0  0  0
    1.4631    0.7500    0.0000 H   0  0  0  0  0  0  0  0  0  0  0  0
    1.6900   -0.0969    0.0000 H   0  0  0  0  0  0  0  0  0  0  0  0
    2.2460   -1.0600    0.0000 H   0  0  0  0  0  0  0  0  0  0  0  0
    2.8660   -1.6800    0.0000 H   0  0  0  0  0  0  0  0  0  0  0  0
    3.4860   -1.0600    0.0000 H   0  0  0  0  0  0  0  0  0  0  0  0
    5.4641    1.0600    0.0000 H   0  0  0  0  0  0  0  0  0  0  0  0
  1  4  1  0  0  0  0
  1  7  1  0  0  0  0
  2  7  2  0  0  0  0
  3  4  1  0  0  0  0
  3  5  1  0  0  0  0
  3  6  1  0  0  0  0
  3  8  1  0  0  0  0
  4  9  1  0  0  0  0
  4 10  1  0  0  0  0
  5 11  1  0  0  0  0
  5 12  1  0  0  0  0
  5 13  1  0  0  0  0
  6 14  1  0  0  0  0
  6 15  1  0  0  0  0
  6 16  1  0  0  0  0
  7 17  1  0  0  0  0
M  END
> <PUBCHEM_COMPOUND_CID>
10957

> <PUBCHEM_COMPOUND_CANONICALIZED>
1

> <PUBCHEM_CACTVS_COMPLEXITY>
50

> <PUBCHEM_CACTVS_HBOND_ACCEPTOR>
2

> <PUBCHEM_CACTVS_HBOND_DONOR>
0

> <PUBCHEM_CACTVS_ROTATABLE_BOND>
3

> <PUBCHEM_CACTVS_SUBSKEYS>
AAADccBgMAAAAAAAAAAAAAAAAAAAAAAAAAAAAAAAAAAAAAAAAAAAGgAAAAAADQCggAMCCAAABAAIAAAAiAAAAAAAAAAAAAAAAAAAAAAAAAAAAAAAAAAAAAAAAAAAAAAAAAAAAAAAAAAAAAAAAAAAAAAAAA==

> <PUBCHEM_IUPAC_OPENEYE_NAME>
isobutyl formate

> <PUBCHEM_IUPAC_CAS_NAME>
formic acid 2-methylpropyl ester

> <PUBCHEM_IUPAC_NAME>
2-methylpropyl formate

> <PUBCHEM_IUPAC_SYSTEMATIC_NAME>
2-methylpropyl methanoate

> <PUBCHEM_IUPAC_TRADITIONAL_NAME>
formic acid isobutyl ester

> <PUBCHEM_IUPAC_INCHI>
InChI=1S/C5H10O2/c1-5(2)3-7-4-6/h4-5H,3H2,1-2H3

> <PUBCHEM_IUPAC_INCHIKEY>
AVMSWPWPYJVYKY-UHFFFAOYSA-N

> <PUBCHEM_XLOGP3_AA>
1.5

> <PUBCHEM_EXACT_MASS>
102.06808

> <PUBCHEM_MOLECULAR_FORMULA>
C5H10O2

> <PUBCHEM_MOLECULAR_WEIGHT>
102.1317

> <PUBCHEM_OPENEYE_CAN_SMILES>
CC(C)COC=O

> <PUBCHEM_OPENEYE_ISO_SMILES>
CC(C)COC=O

> <PUBCHEM_CACTVS_TPSA>
26.3

> <PUBCHEM_MONOISOTOPIC_WEIGHT>
102.06808

> <PUBCHEM_TOTAL_CHARGE>
0

> <PUBCHEM_HEAVY_ATOM_COUNT>
7

> <PUBCHEM_ATOM_DEF_STEREO_COUNT>
0

> <PUBCHEM_ATOM_UDEF_STEREO_COUNT>
0

> <PUBCHEM_BOND_DEF_STEREO_COUNT>
0

> <PUBCHEM_BOND_UDEF_STEREO_COUNT>
0

> <PUBCHEM_ISOTOPIC_ATOM_COUNT>
0

> <PUBCHEM_COMPONENT_COUNT>
1

> <PUBCHEM_CACTVS_TAUTO_COUNT>
1

> <PUBCHEM_COORDINATE_TYPE>
1
5
255

$$$$

