12897
  -OEChem-06261207303D

 35 36  0     0  0  0  0  0  0999 V2000
   -0.8815   -1.9522    1.7095 O   0  0  0  0  0  0  0  0  0  0  0  0
   -0.8378   -0.4861   -2.5537 O   0  0  0  0  0  0  0  0  0  0  0  0
   -2.2189    2.4112    0.7921 O   0  0  0  0  0  0  0  0  0  0  0  0
   -1.5961    0.2245    1.2879 N   0  0  0  0  0  0  0  0  0  0  0  0
   -1.3989    1.0772   -0.9231 N   0  0  0  0  0  0  0  0  0  0  0  0
   -0.0513   -0.8716   -0.2904 C   0  0  0  0  0  0  0  0  0  0  0  0
    0.2101   -2.3152   -0.7796 C   0  0  0  0  0  0  0  0  0  0  0  0
    1.3227   -0.2110   -0.0392 C   0  0  0  0  0  0  0  0  0  0  0  0
   -0.8933   -0.9542    0.9862 C   0  0  0  0  0  0  0  0  0  0  0  0
   -0.8058   -0.1054   -1.3830 C   0  0  0  0  0  0  0  0  0  0  0  0
   -1.0884   -3.0301   -1.0829 C   0  0  0  0  0  0  0  0  0  0  0  0
   -1.7587    1.3274    0.4191 C   0  0  0  0  0  0  0  0  0  0  0  0
    1.9268   -0.3389    1.2044 C   0  0  0  0  0  0  0  0  0  0  0  0
    1.9360    0.5028   -1.0601 C   0  0  0  0  0  0  0  0  0  0  0  0
   -2.1987    0.3163    2.6138 C   0  0  0  0  0  0  0  0  0  0  0  0
   -1.8014    2.0709   -1.9115 C   0  0  0  0  0  0  0  0  0  0  0  0
    3.1670    0.2578    1.4314 C   0  0  0  0  0  0  0  0  0  0  0  0
    3.1763    1.0994   -0.8333 C   0  0  0  0  0  0  0  0  0  0  0  0
    3.7917    0.9770    0.4125 C   0  0  0  0  0  0  0  0  0  0  0  0
    0.7680   -2.8907   -0.0290 H   0  0  0  0  0  0  0  0  0  0  0  0
    0.8326   -2.3148   -1.6844 H   0  0  0  0  0  0  0  0  0  0  0  0
   -1.7527   -3.1223   -0.2203 H   0  0  0  0  0  0  0  0  0  0  0  0
   -1.6624   -2.5845   -1.8978 H   0  0  0  0  0  0  0  0  0  0  0  0
   -0.8592   -4.0544   -1.4007 H   0  0  0  0  0  0  0  0  0  0  0  0
    1.4778   -0.9035    2.0145 H   0  0  0  0  0  0  0  0  0  0  0  0
    1.5026    0.6052   -2.0493 H   0  0  0  0  0  0  0  0  0  0  0  0
   -2.6906   -0.6286    2.8643 H   0  0  0  0  0  0  0  0  0  0  0  0
   -2.9294    1.1265    2.6778 H   0  0  0  0  0  0  0  0  0  0  0  0
   -1.3978    0.4921    3.3389 H   0  0  0  0  0  0  0  0  0  0  0  0
   -1.5390    3.0721   -1.5561 H   0  0  0  0  0  0  0  0  0  0  0  0
   -2.8881    2.0172   -2.0302 H   0  0  0  0  0  0  0  0  0  0  0  0
   -1.3208    1.8949   -2.8775 H   0  0  0  0  0  0  0  0  0  0  0  0
    3.6484    0.1595    2.4000 H   0  0  0  0  0  0  0  0  0  0  0  0
    3.6656    1.6554   -1.6279 H   0  0  0  0  0  0  0  0  0  0  0  0
    4.7582    1.4400    0.5885 H   0  0  0  0  0  0  0  0  0  0  0  0
  1  9  2  0  0  0  0
  2 10  2  0  0  0  0
  3 12  2  0  0  0  0
  4  9  1  0  0  0  0
  4 12  1  0  0  0  0
  4 15  1  0  0  0  0
  5 10  1  0  0  0  0
  5 12  1  0  0  0  0
  5 16  1  0  0  0  0
  6  7  1  0  0  0  0
  6  8  1  0  0  0  0
  6  9  1  0  0  0  0
  6 10  1  0  0  0  0
  7 11  1  0  0  0  0
  7 20  1  0  0  0  0
  7 21  1  0  0  0  0
  8 13  2  0  0  0  0
  8 14  1  0  0  0  0
 11 22  1  0  0  0  0
 11 23  1  0  0  0  0
 11 24  1  0  0  0  0
 13 17  1  0  0  0  0
 13 25  1  0  0  0  0
 14 18  2  0  0  0  0
 14 26  1  0  0  0  0
 15 27  1  0  0  0  0
 15 28  1  0  0  0  0
 15 29  1  0  0  0  0
 16 30  1  0  0  0  0
 16 31  1  0  0  0  0
 16 32  1  0  0  0  0
 17 19  2  0  0  0  0
 17 33  1  0  0  0  0
 18 19  1  0  0  0  0
 18 34  1  0  0  0  0
 19 35  1  0  0  0  0
M  END
> <PUBCHEM_COMPOUND_CID>
12897

> <PUBCHEM_CONFORMER_RMSD>
0.6

> <PUBCHEM_CONFORMER_DIVERSEORDER>
1
4
2
5
3

> <PUBCHEM_MMFF94_PARTIAL_CHARGES>
22
1 -0.57
10 0.57
12 0.69
13 -0.15
14 -0.15
15 0.3
16 0.3
17 -0.15
18 -0.15
19 -0.15
2 -0.57
25 0.15
26 0.15
3 -0.57
33 0.15
34 0.15
35 0.15
4 -0.42
5 -0.42
6 0.27
8 -0.14
9 0.57

> <PUBCHEM_EFFECTIVE_ROTOR_COUNT>
2.6

> <PUBCHEM_PHARMACOPHORE_FEATURES>
6
1 1 acceptor
1 11 hydrophobe
1 2 acceptor
1 3 acceptor
6 4 5 6 9 10 12 rings
6 8 13 14 17 18 19 rings

> <PUBCHEM_HEAVY_ATOM_COUNT>
19

> <PUBCHEM_ATOM_DEF_STEREO_COUNT>
0

> <PUBCHEM_ATOM_UDEF_STEREO_COUNT>
0

> <PUBCHEM_BOND_DEF_STEREO_COUNT>
0

> <PUBCHEM_BOND_UDEF_STEREO_COUNT>
0

> <PUBCHEM_ISOTOPIC_ATOM_COUNT>
0

> <PUBCHEM_COMPONENT_COUNT>
1

> <PUBCHEM_CACTVS_TAUTO_COUNT>
1

> <PUBCHEM_CONFORMER_ID>
0000326100000001

> <PUBCHEM_MMFF94_ENERGY>
56.221

> <PUBCHEM_FEATURE_SELFOVERLAP>
30.446

> <PUBCHEM_SHAPE_FINGERPRINT>
10165383 225 17683197578561266352
11640471 11 17902545835955226052
12423570 1 5818851731891275567
13024252 1 16199606704738181607
13134695 92 16891452728432673005
13299463 15 4677950878657434092
13583140 156 17025750013145749122
14817 1 8303762884015371327
15848702 105 17697923320643714111
15906896 17 18130521767976635983
16945 1 17535437380368917578
17492 54 14353465014905129752
18981168 100 18334848429398539436
19765921 60 17314527004656746633
20511035 2 17773603912911491782
20600515 1 17320711456920959886
21296965 12 18270967950164446261
21524375 3 18270131234727055748
22112679 90 17617068353393387239
22802520 49 5255821144574600401
2306618 200 18191039914840871272
23419403 2 17765688597117115022
23557571 272 17682690523665585192
25 1 16445843545191334328
430814 3 18189618417672494549
81228 2 17898001326780256834

> <PUBCHEM_SHAPE_MULTIPOLES>
363.44
4.3
2.46
2.29
4.79
1.12
-0.23
-2.31
-0.99
-1.89
0.68
-1.32
-0.26
-0.15

> <PUBCHEM_SHAPE_SELFOVERLAP>
777.428

> <PUBCHEM_SHAPE_VOLUME>
199.9

> <PUBCHEM_COORDINATE_TYPE>
2
5
10

$$$$

