12739
  -OEChem-06261207183D

 23 22  0     0  0  0  0  0  0999 V2000
   -3.8878   -0.9525   -0.6241 F   0  0  0  0  0  0  0  0  0  0  0  0
    3.9351   -0.8938    0.6497 F   0  0  0  0  0  0  0  0  0  0  0  0
   -0.0164    0.7684   -0.0076 C   0  0  0  0  0  0  0  0  0  0  0  0
   -1.2663   -0.0980    0.1647 C   0  0  0  0  0  0  0  0  0  0  0  0
    1.2438   -0.0929   -0.1151 C   0  0  0  0  0  0  0  0  0  0  0  0
   -2.5312    0.7588    0.2399 C   0  0  0  0  0  0  0  0  0  0  0  0
    2.5245    0.7257   -0.2743 C   0  0  0  0  0  0  0  0  0  0  0  0
   -3.7737   -0.0955    0.4250 C   0  0  0  0  0  0  0  0  0  0  0  0
    3.7722   -0.1201   -0.4582 C   0  0  0  0  0  0  0  0  0  0  0  0
    0.0783    1.4527    0.8442 H   0  0  0  0  0  0  0  0  0  0  0  0
   -0.1153    1.3849   -0.9092 H   0  0  0  0  0  0  0  0  0  0  0  0
   -1.1738   -0.6981    1.0781 H   0  0  0  0  0  0  0  0  0  0  0  0
   -1.3453   -0.7986   -0.6755 H   0  0  0  0  0  0  0  0  0  0  0  0
    1.1432   -0.7702   -0.9725 H   0  0  0  0  0  0  0  0  0  0  0  0
    1.3296   -0.7248    0.7777 H   0  0  0  0  0  0  0  0  0  0  0  0
   -2.6294    1.3332   -0.6886 H   0  0  0  0  0  0  0  0  0  0  0  0
   -2.4540    1.4731    1.0672 H   0  0  0  0  0  0  0  0  0  0  0  0
    2.6516    1.3526    0.6164 H   0  0  0  0  0  0  0  0  0  0  0  0
    2.4235    1.3980   -1.1342 H   0  0  0  0  0  0  0  0  0  0  0  0
   -3.7232   -0.6876    1.3434 H   0  0  0  0  0  0  0  0  0  0  0  0
   -4.6738    0.5251    0.4534 H   0  0  0  0  0  0  0  0  0  0  0  0
    4.6614    0.5072   -0.5662 H   0  0  0  0  0  0  0  0  0  0  0  0
    3.6912   -0.7798   -1.3267 H   0  0  0  0  0  0  0  0  0  0  0  0
  1  8  1  0  0  0  0
  2  9  1  0  0  0  0
  3  4  1  0  0  0  0
  3  5  1  0  0  0  0
  3 10  1  0  0  0  0
  3 11  1  0  0  0  0
  4  6  1  0  0  0  0
  4 12  1  0  0  0  0
  4 13  1  0  0  0  0
  5  7  1  0  0  0  0
  5 14  1  0  0  0  0
  5 15  1  0  0  0  0
  6  8  1  0  0  0  0
  6 16  1  0  0  0  0
  6 17  1  0  0  0  0
  7  9  1  0  0  0  0
  7 18  1  0  0  0  0
  7 19  1  0  0  0  0
  8 20  1  0  0  0  0
  8 21  1  0  0  0  0
  9 22  1  0  0  0  0
  9 23  1  0  0  0  0
M  END
> <PUBCHEM_COMPOUND_CID>
12739

> <PUBCHEM_CONFORMER_RMSD>
0.6

> <PUBCHEM_CONFORMER_DIVERSEORDER>
2
65
81
80
4
69
77
33
3
43
78
22
35
1
82
76
20
89
93
31
45
41
68
71
87
60
83
46
52
56
92
25
42
79
29
14
44
40
75
32
36
72
57
27
90
47
50
74
62
5
63
70
85
53
91
84
51
6
49
61
67
88
64
86
12
48
21
13
58
16
24
28
66
73
8
26
19
37
59
10
55
9
38
17
7
54
30
18
39
11
23
34
15

> <PUBCHEM_MMFF94_PARTIAL_CHARGES>
4
1 -0.34
2 -0.34
8 0.34
9 0.34

> <PUBCHEM_EFFECTIVE_ROTOR_COUNT>
6

> <PUBCHEM_PHARMACOPHORE_FEATURES>
1
5 3 4 5 6 7 hydrophobe

> <PUBCHEM_HEAVY_ATOM_COUNT>
9

> <PUBCHEM_ATOM_DEF_STEREO_COUNT>
0

> <PUBCHEM_ATOM_UDEF_STEREO_COUNT>
0

> <PUBCHEM_BOND_DEF_STEREO_COUNT>
0

> <PUBCHEM_BOND_UDEF_STEREO_COUNT>
0

> <PUBCHEM_ISOTOPIC_ATOM_COUNT>
0

> <PUBCHEM_COMPONENT_COUNT>
1

> <PUBCHEM_CACTVS_TAUTO_COUNT>
1

> <PUBCHEM_CONFORMER_ID>
000031C300000002

> <PUBCHEM_MMFF94_ENERGY>
-1.0613

> <PUBCHEM_FEATURE_SELFOVERLAP>
5.074

> <PUBCHEM_SHAPE_FINGERPRINT>
11062470 55 9727633895001853716
11987891 27 18411422812507626542
11987891 38 18412541020080777098
14251717 144 18131355253836347682
14325111 11 18410570690932841996
177051 138 18335136518587981982
190213 19 16877939455686185761
20211469 26 18272933825547118997
20645477 70 16917068893123870730
20828058 44 17458061568951756663
22485316 2 18410295813009917828
23402539 116 18410579504269056645

> <PUBCHEM_SHAPE_MULTIPOLES>
170.67
8.34
0.93
0.72
0.19
0.02
0
-2.02
-0.02
-0.04
-0.01
0.02
-0.06
-0.47

> <PUBCHEM_SHAPE_SELFOVERLAP>
301.893

> <PUBCHEM_SHAPE_VOLUME>
111.3

> <PUBCHEM_COORDINATE_TYPE>
2
5
10

$$$$

