47205202
  -OEChem-06241222583D

 33 34  0     0  0  0  0  0  0999 V2000
   -3.5768    1.9103    0.2467 F   0  0  0  0  0  0  0  0  0  0  0  0
    0.9122    0.5374   -1.2976 O   0  0  0  0  0  0  0  0  0  0  0  0
   -0.9846   -0.8546    1.4387 O   0  0  0  0  0  0  0  0  0  0  0  0
    2.4898    1.6700   -0.0207 N   0  0  0  0  0  0  0  0  0  0  0  0
   -1.0973    1.1961    0.3588 N   0  0  0  0  0  0  0  0  0  0  0  0
    5.0465   -0.0476    0.7090 N   0  0  0  0  0  0  0  0  0  0  0  0
    5.5356   -1.2829    0.9119 N   0  0  0  0  0  0  0  0  0  0  0  0
    3.6491    1.3623   -0.8272 C   0  0  0  0  0  0  0  0  0  0  0  0
    4.2892    0.0668   -0.4197 C   0  0  0  0  0  0  0  0  0  0  0  0
    0.2092    1.6572    0.7245 C   0  0  0  0  0  0  0  0  0  0  0  0
    1.2107    1.2283   -0.3267 C   0  0  0  0  0  0  0  0  0  0  0  0
   -2.9607   -0.3839    0.2674 C   0  0  0  0  0  0  0  0  0  0  0  0
   -1.5981   -0.0426    0.7511 C   0  0  0  0  0  0  0  0  0  0  0  0
    4.2827   -1.1803   -0.9953 C   0  0  0  0  0  0  0  0  0  0  0  0
   -3.8955    0.6251    0.0362 C   0  0  0  0  0  0  0  0  0  0  0  0
   -3.3040   -1.7173    0.0444 C   0  0  0  0  0  0  0  0  0  0  0  0
    5.0656   -1.9704   -0.1323 C   0  0  0  0  0  0  0  0  0  0  0  0
   -5.1738    0.3007   -0.4180 C   0  0  0  0  0  0  0  0  0  0  0  0
   -4.5824   -2.0417   -0.4098 C   0  0  0  0  0  0  0  0  0  0  0  0
   -5.5174   -1.0328   -0.6410 C   0  0  0  0  0  0  0  0  0  0  0  0
    3.3504    1.3166   -1.8804 H   0  0  0  0  0  0  0  0  0  0  0  0
    4.3595    2.1879   -0.7123 H   0  0  0  0  0  0  0  0  0  0  0  0
    0.1814    2.7495    0.7807 H   0  0  0  0  0  0  0  0  0  0  0  0
    0.4984    1.2449    1.6964 H   0  0  0  0  0  0  0  0  0  0  0  0
    2.6347    2.2169    0.8233 H   0  0  0  0  0  0  0  0  0  0  0  0
   -1.6498    1.7952   -0.2469 H   0  0  0  0  0  0  0  0  0  0  0  0
    3.7831   -1.4762   -1.9063 H   0  0  0  0  0  0  0  0  0  0  0  0
    5.2696    0.6725    1.3848 H   0  0  0  0  0  0  0  0  0  0  0  0
   -2.5879   -2.5170    0.2142 H   0  0  0  0  0  0  0  0  0  0  0  0
    5.3129   -3.0185   -0.2210 H   0  0  0  0  0  0  0  0  0  0  0  0
   -5.9015    1.0865   -0.5981 H   0  0  0  0  0  0  0  0  0  0  0  0
   -4.8496   -3.0799   -0.5845 H   0  0  0  0  0  0  0  0  0  0  0  0
   -6.5126   -1.2853   -0.9949 H   0  0  0  0  0  0  0  0  0  0  0  0
  1 15  1  0  0  0  0
  2 11  2  0  0  0  0
  3 13  2  0  0  0  0
  4  8  1  0  0  0  0
  4 11  1  0  0  0  0
  4 25  1  0  0  0  0
  5 10  1  0  0  0  0
  5 13  1  0  0  0  0
  5 26  1  0  0  0  0
  6  7  1  0  0  0  0
  6  9  1  0  0  0  0
  6 28  1  0  0  0  0
  7 17  2  0  0  0  0
  8  9  1  0  0  0  0
  8 21  1  0  0  0  0
  8 22  1  0  0  0  0
  9 14  2  0  0  0  0
 10 11  1  0  0  0  0
 10 23  1  0  0  0  0
 10 24  1  0  0  0  0
 12 13  1  0  0  0  0
 12 15  1  0  0  0  0
 12 16  2  0  0  0  0
 14 17  1  0  0  0  0
 14 27  1  0  0  0  0
 15 18  2  0  0  0  0
 16 19  1  0  0  0  0
 16 29  1  0  0  0  0
 17 30  1  0  0  0  0
 18 20  1  0  0  0  0
 18 31  1  0  0  0  0
 19 20  2  0  0  0  0
 19 32  1  0  0  0  0
 20 33  1  0  0  0  0
M  END
> <PUBCHEM_COMPOUND_CID>
47205202

> <PUBCHEM_CONFORMER_RMSD>
1.2

> <PUBCHEM_CONFORMER_DIVERSEORDER>
1
11
10
46
29
39
2
8
34
5
24
6
26
12
32
23
22
13
41
3
44
30
9
33
36
42
14
31
21
45
16
35
49
37
43
28
40
48
7
4
25
17
19
15
20
47
27
18
38

> <PUBCHEM_MMFF94_PARTIAL_CHARGES>
29
1 -0.19
10 0.36
11 0.57
12 0.09
13 0.54
14 -0.15
15 0.19
16 -0.15
17 0.14
18 -0.15
19 -0.15
2 -0.57
20 -0.15
25 0.37
26 0.37
27 0.15
28 0.27
29 0.15
3 -0.57
30 0.15
31 0.15
32 0.15
33 0.15
4 -0.73
5 -0.73
6 0.3
7 -0.71
8 0.48
9 -0.33

> <PUBCHEM_EFFECTIVE_ROTOR_COUNT>
7

> <PUBCHEM_PHARMACOPHORE_FEATURES>
8
1 2 acceptor
1 3 acceptor
1 4 donor
1 5 donor
1 6 donor
1 7 acceptor
5 6 7 9 14 17 rings
6 12 15 16 18 19 20 rings

> <PUBCHEM_HEAVY_ATOM_COUNT>
20

> <PUBCHEM_ATOM_DEF_STEREO_COUNT>
0

> <PUBCHEM_ATOM_UDEF_STEREO_COUNT>
0

> <PUBCHEM_BOND_DEF_STEREO_COUNT>
0

> <PUBCHEM_BOND_UDEF_STEREO_COUNT>
0

> <PUBCHEM_ISOTOPIC_ATOM_COUNT>
0

> <PUBCHEM_COMPONENT_COUNT>
1

> <PUBCHEM_CACTVS_TAUTO_COUNT>
8

> <PUBCHEM_CONFORMER_ID>
02D04B5200000001

> <PUBCHEM_MMFF94_ENERGY>
32.9411

> <PUBCHEM_FEATURE_SELFOVERLAP>
40.595

> <PUBCHEM_SHAPE_FINGERPRINT>
10447042 23 18335424543574370756
10670039 82 13398363411956680150
11796584 16 18409448089592583174
12390115 104 11383838207655775087
12555020 224 18131633382959506219
12596602 18 16950562182032865138
12895836 83 12607105310982996578
13167823 11 18410855438663959415
13533116 47 18408885118612634032
1420 369 18260261954253336950
14251751 18 18041285378512557499
14347332 77 18408888404478724351
14848160 23 17967254212779191534
14848178 5 18334295383529173118
14849402 71 6699809770714316222
15183329 4 18202284714446775559
15239154 128 10087642585159258006
15788980 27 18413384328477310337
17349148 13 18334001800728282276
17834072 8 17489870435890034913
17857418 61 18408887325787902734
18222031 100 17313374617924284516
200 152 18186800275076324781
20374829 77 18412265042698862217
20621476 91 15502670264778086423
20645477 70 18342173345977431532
21250096 35 18260545623799969888
21304303 282 16881872568247017249
22079108 93 6194839280484246708
23402539 116 18409731772715539485
23403322 49 18335135367542027877
23559900 14 18339361842910773376
25122255 55 17895744184095743342
3004659 81 18343580738082948116
5104073 3 17968088682228437177
5207 123 18343018921848009638
559249 180 18410858806345606723
76465 3 18335138674297697588
8988823 20 17749396931950042768
960060 61 17846770798492048518
9709674 26 18199462177766798424
9971528 1 17846218808910642556

> <PUBCHEM_SHAPE_MULTIPOLES>
372.65
14.41
2.11
1.01
4.27
0.23
-0.03
6.87
1.44
0.26
0.03
0.44
0.07
-0.58

> <PUBCHEM_SHAPE_SELFOVERLAP>
789.802

> <PUBCHEM_SHAPE_VOLUME>
207.2

> <PUBCHEM_COORDINATE_TYPE>
2
5
10

$$$$

