6643
  -OEChem-06261201253D

 28 28  0     0  0  0  0  0  0999 V2000
    3.8741    0.1649   -0.1615 O   0  0  0  0  0  0  0  0  0  0  0  0
   -1.7313   -0.2973    0.2823 C   0  0  0  0  0  0  0  0  0  0  0  0
   -2.4422    1.0312   -0.1215 C   0  0  0  0  0  0  0  0  0  0  0  0
   -0.2014   -0.1714    0.1613 C   0  0  0  0  0  0  0  0  0  0  0  0
   -2.0808   -0.5986    1.7615 C   0  0  0  0  0  0  0  0  0  0  0  0
   -2.3306   -1.4560   -0.5506 C   0  0  0  0  0  0  0  0  0  0  0  0
   -2.1538    1.5193   -1.5383 C   0  0  0  0  0  0  0  0  0  0  0  0
    0.4295    0.8001    0.8947 C   0  0  0  0  0  0  0  0  0  0  0  0
    0.4567   -1.0368   -0.6743 C   0  0  0  0  0  0  0  0  0  0  0  0
    1.8154    0.9144    0.7849 C   0  0  0  0  0  0  0  0  0  0  0  0
    1.8425   -0.9228   -0.7841 C   0  0  0  0  0  0  0  0  0  0  0  0
    2.5220    0.0528   -0.0544 C   0  0  0  0  0  0  0  0  0  0  0  0
   -3.5284    0.9064   -0.0177 H   0  0  0  0  0  0  0  0  0  0  0  0
   -2.1718    1.8362    0.5734 H   0  0  0  0  0  0  0  0  0  0  0  0
   -1.8021    0.2193    2.4349 H   0  0  0  0  0  0  0  0  0  0  0  0
   -1.5700   -1.5031    2.1132 H   0  0  0  0  0  0  0  0  0  0  0  0
   -3.1586   -0.7574    1.8861 H   0  0  0  0  0  0  0  0  0  0  0  0
   -3.4202   -1.4966   -0.4289 H   0  0  0  0  0  0  0  0  0  0  0  0
   -1.9435   -2.4307   -0.2293 H   0  0  0  0  0  0  0  0  0  0  0  0
   -2.1396   -1.3493   -1.6236 H   0  0  0  0  0  0  0  0  0  0  0  0
   -2.6930    2.4546   -1.7228 H   0  0  0  0  0  0  0  0  0  0  0  0
   -2.4851    0.7976   -2.2898 H   0  0  0  0  0  0  0  0  0  0  0  0
   -1.0895    1.7186   -1.6922 H   0  0  0  0  0  0  0  0  0  0  0  0
   -0.0989    1.4830    1.5507 H   0  0  0  0  0  0  0  0  0  0  0  0
   -0.0189   -1.8108   -1.2624 H   0  0  0  0  0  0  0  0  0  0  0  0
    2.3329    1.6794    1.3578 H   0  0  0  0  0  0  0  0  0  0  0  0
    2.3882   -1.5963   -1.4395 H   0  0  0  0  0  0  0  0  0  0  0  0
    4.1765    0.8905    0.4114 H   0  0  0  0  0  0  0  0  0  0  0  0
  1 12  1  0  0  0  0
  1 28  1  0  0  0  0
  2  3  1  0  0  0  0
  2  4  1  0  0  0  0
  2  5  1  0  0  0  0
  2  6  1  0  0  0  0
  3  7  1  0  0  0  0
  3 13  1  0  0  0  0
  3 14  1  0  0  0  0
  4  8  2  0  0  0  0
  4  9  1  0  0  0  0
  5 15  1  0  0  0  0
  5 16  1  0  0  0  0
  5 17  1  0  0  0  0
  6 18  1  0  0  0  0
  6 19  1  0  0  0  0
  6 20  1  0  0  0  0
  7 21  1  0  0  0  0
  7 22  1  0  0  0  0
  7 23  1  0  0  0  0
  8 10  1  0  0  0  0
  8 24  1  0  0  0  0
  9 11  2  0  0  0  0
  9 25  1  0  0  0  0
 10 12  2  0  0  0  0
 10 26  1  0  0  0  0
 11 12  1  0  0  0  0
 11 27  1  0  0  0  0
M  END
> <PUBCHEM_COMPOUND_CID>
6643

> <PUBCHEM_CONFORMER_RMSD>
0.6

> <PUBCHEM_CONFORMER_DIVERSEORDER>
1
3
2
4

> <PUBCHEM_MMFF94_PARTIAL_CHARGES>
13
1 -0.53
10 -0.15
11 -0.15
12 0.08
2 0.14
24 0.15
25 0.15
26 0.15
27 0.15
28 0.45
4 -0.14
8 -0.15
9 -0.15

> <PUBCHEM_EFFECTIVE_ROTOR_COUNT>
2

> <PUBCHEM_PHARMACOPHORE_FEATURES>
4
1 1 donor
1 7 hydrophobe
3 2 5 6 hydrophobe
6 4 8 9 10 11 12 rings

> <PUBCHEM_HEAVY_ATOM_COUNT>
12

> <PUBCHEM_ATOM_DEF_STEREO_COUNT>
0

> <PUBCHEM_ATOM_UDEF_STEREO_COUNT>
0

> <PUBCHEM_BOND_DEF_STEREO_COUNT>
0

> <PUBCHEM_BOND_UDEF_STEREO_COUNT>
0

> <PUBCHEM_ISOTOPIC_ATOM_COUNT>
0

> <PUBCHEM_COMPONENT_COUNT>
1

> <PUBCHEM_CACTVS_TAUTO_COUNT>
2

> <PUBCHEM_CONFORMER_ID>
000019F300000001

> <PUBCHEM_MMFF94_ENERGY>
38.1439

> <PUBCHEM_FEATURE_SELFOVERLAP>
20.298

> <PUBCHEM_SHAPE_FINGERPRINT>
12138202 97 18269850837966237967
12423570 1 15434802063307846495
124424 183 18269847548184819266
12716758 59 17774155845973157395
12932764 1 18411416207021998658
13024252 1 17060339613319706683
13839132 238 17844536706332853821
15775835 57 18408321098811487767
16945 1 17967246533430244970
17844478 74 18341034247235090363
18534176 82 18273498974597609941
19837323 101 17632012061098160377
200 152 16877952602976705079
20201158 50 18187085082762943494
21524375 3 17627810926090177309
22802520 49 18057033833854259223
23402539 116 17846787282481825087
23402655 69 17822864215969945389
25 1 18044941422500312749
2748010 2 17751089015683076072
305870 269 16700344241723901809
3248919 1 17203897348773504898
369184 2 18410291419385130627
5084963 1 18188776024245932802
528886 8 17676485072652595418
8030462 33 17560815311275784411

> <PUBCHEM_SHAPE_MULTIPOLES>
241.09
4.66
1.41
1.33
2.63
0.04
0.18
0.35
-0.43
-0.75
-0.36
-0.79
0.12
0.77

> <PUBCHEM_SHAPE_SELFOVERLAP>
492.899

> <PUBCHEM_SHAPE_VOLUME>
141.6

> <PUBCHEM_COORDINATE_TYPE>
2
5
10

$$$$

