47205573
  -OEChem-06241222592D

 39 40  0     0  0  0  0  0  0999 V2000
    2.8660   -3.8750    0.0000 S   0  0  0  0  0  0  0  0  0  0  0  0
    7.0468    2.9614    0.0000 S   0  0  0  0  0  0  0  0  0  0  0  0
    2.3660   -4.7410    0.0000 O   0  0  0  0  0  0  0  0  0  0  0  0
    3.3660   -4.7410    0.0000 O   0  0  0  0  0  0  0  0  0  0  0  0
    4.5981   -0.8750    0.0000 O   0  0  0  0  0  0  0  0  0  0  0  0
    2.8660   -1.8750    0.0000 N   0  0  0  0  0  0  0  0  0  0  0  0
    3.7320    0.6250    0.0000 N   0  0  0  0  0  0  0  0  0  0  0  0
    5.5686    3.6195    0.0000 N   0  0  0  0  0  0  0  0  0  0  0  0
    2.0000   -2.3750    0.0000 C   0  0  0  0  0  0  0  0  0  0  0  0
    3.7320   -2.3750    0.0000 C   0  0  0  0  0  0  0  0  0  0  0  0
    2.0000   -3.3750    0.0000 C   0  0  0  0  0  0  0  0  0  0  0  0
    3.7320   -3.3750    0.0000 C   0  0  0  0  0  0  0  0  0  0  0  0
    2.8660   -0.8750    0.0000 C   0  0  0  0  0  0  0  0  0  0  0  0
    3.7320   -0.3750    0.0000 C   0  0  0  0  0  0  0  0  0  0  0  0
    4.5981    1.1250    0.0000 C   0  0  0  0  0  0  0  0  0  0  0  0
    4.5981    2.1250    0.0000 C   0  0  0  0  0  0  0  0  0  0  0  0
    5.4641    2.6250    0.0000 C   0  0  0  0  0  0  0  0  0  0  0  0
    6.3776    2.2183    0.0000 C   0  0  0  0  0  0  0  0  0  0  0  0
    6.5468    3.8275    0.0000 C   0  0  0  0  0  0  0  0  0  0  0  0
    6.9535    4.7410    0.0000 C   0  0  0  0  0  0  0  0  0  0  0  0
    1.7880   -1.7924    0.0000 H   0  0  0  0  0  0  0  0  0  0  0  0
    1.3894   -2.4826    0.0000 H   0  0  0  0  0  0  0  0  0  0  0  0
    4.3426   -2.4826    0.0000 H   0  0  0  0  0  0  0  0  0  0  0  0
    3.9441   -1.7924    0.0000 H   0  0  0  0  0  0  0  0  0  0  0  0
    3.9441   -3.9576    0.0000 H   0  0  0  0  0  0  0  0  0  0  0  0
    4.3426   -3.2673    0.0000 H   0  0  0  0  0  0  0  0  0  0  0  0
    1.3894   -3.2673    0.0000 H   0  0  0  0  0  0  0  0  0  0  0  0
    1.7880   -3.9576    0.0000 H   0  0  0  0  0  0  0  0  0  0  0  0
    2.6540   -0.2924    0.0000 H   0  0  0  0  0  0  0  0  0  0  0  0
    2.2554   -0.9826    0.0000 H   0  0  0  0  0  0  0  0  0  0  0  0
    3.1951    0.9350    0.0000 H   0  0  0  0  0  0  0  0  0  0  0  0
    4.8101    0.5424    0.0000 H   0  0  0  0  0  0  0  0  0  0  0  0
    5.2087    1.2327    0.0000 H   0  0  0  0  0  0  0  0  0  0  0  0
    4.3860    2.7076    0.0000 H   0  0  0  0  0  0  0  0  0  0  0  0
    3.9875    2.0174    0.0000 H   0  0  0  0  0  0  0  0  0  0  0  0
    6.5066    1.6118    0.0000 H   0  0  0  0  0  0  0  0  0  0  0  0
    7.5199    4.4888    0.0000 H   0  0  0  0  0  0  0  0  0  0  0  0
    7.2057    5.3074    0.0000 H   0  0  0  0  0  0  0  0  0  0  0  0
    6.3871    4.9932    0.0000 H   0  0  0  0  0  0  0  0  0  0  0  0
  1  3  2  0  0  0  0
  1  4  2  0  0  0  0
  1 11  1  0  0  0  0
  1 12  1  0  0  0  0
  2 18  1  0  0  0  0
  2 19  1  0  0  0  0
  5 14  2  0  0  0  0
  6  9  1  0  0  0  0
  6 10  1  0  0  0  0
  6 13  1  0  0  0  0
  7 14  1  0  0  0  0
  7 15  1  0  0  0  0
  7 31  1  0  0  0  0
  8 17  1  0  0  0  0
  8 19  2  0  0  0  0
  9 11  1  0  0  0  0
  9 21  1  0  0  0  0
  9 22  1  0  0  0  0
 10 12  1  0  0  0  0
 10 23  1  0  0  0  0
 10 24  1  0  0  0  0
 11 27  1  0  0  0  0
 11 28  1  0  0  0  0
 12 25  1  0  0  0  0
 12 26  1  0  0  0  0
 13 14  1  0  0  0  0
 13 29  1  0  0  0  0
 13 30  1  0  0  0  0
 15 16  1  0  0  0  0
 15 32  1  0  0  0  0
 15 33  1  0  0  0  0
 16 17  1  0  0  0  0
 16 34  1  0  0  0  0
 16 35  1  0  0  0  0
 17 18  2  0  0  0  0
 18 36  1  0  0  0  0
 19 20  1  0  0  0  0
 20 37  1  0  0  0  0
 20 38  1  0  0  0  0
 20 39  1  0  0  0  0
M  END
> <PUBCHEM_COMPOUND_CID>
47205573

> <PUBCHEM_COMPOUND_CANONICALIZED>
1

> <PUBCHEM_CACTVS_COMPLEXITY>
422

> <PUBCHEM_CACTVS_HBOND_ACCEPTOR>
6

> <PUBCHEM_CACTVS_HBOND_DONOR>
1

> <PUBCHEM_CACTVS_ROTATABLE_BOND>
5

> <PUBCHEM_CACTVS_SUBSKEYS>
AAADceBzMABgAAAAAAAAAAAAAAAAAWAAAAAsAAAAAAAAAAABgAAAHgQQAAAACAjF1gSigRPIEAqsAQVyVHBA8KBhCjgAAJS4IAgAYAAgwSEUAAAAFgCgAAAAAAAAAAAAAAAAAAAAAAAAAAAAAAAAAAAAAA==

> <PUBCHEM_IUPAC_OPENEYE_NAME>
2-(1,1-dioxo-1,4-thiazinan-4-yl)-N-[2-(2-methylthiazol-4-yl)ethyl]acetamide

> <PUBCHEM_IUPAC_CAS_NAME>
2-(1,1-dioxo-1,4-thiazinan-4-yl)-N-[2-(2-methyl-4-thiazolyl)ethyl]acetamide

> <PUBCHEM_IUPAC_NAME>
2-(1,1-dioxo-1,4-thiazinan-4-yl)-N-[2-(2-methyl-1,3-thiazol-4-yl)ethyl]acetamide

> <PUBCHEM_IUPAC_SYSTEMATIC_NAME>
2-[1,1-bis(oxidanylidene)-1,4-thiazinan-4-yl]-N-[2-(2-methyl-1,3-thiazol-4-yl)ethyl]ethanamide

> <PUBCHEM_IUPAC_TRADITIONAL_NAME>
2-(1,1-diketo-1,4-thiazinan-4-yl)-N-[2-(2-methylthiazol-4-yl)ethyl]acetamide

> <PUBCHEM_IUPAC_INCHI>
InChI=1S/C12H19N3O3S2/c1-10-14-11(9-19-10)2-3-13-12(16)8-15-4-6-20(17,18)7-5-15/h9H,2-8H2,1H3,(H,13,16)

> <PUBCHEM_IUPAC_INCHIKEY>
BQYMPTUJJTWBKR-UHFFFAOYSA-N

> <PUBCHEM_XLOGP3_AA>
0.2

> <PUBCHEM_EXACT_MASS>
317.086783

> <PUBCHEM_MOLECULAR_FORMULA>
C12H19N3O3S2

> <PUBCHEM_MOLECULAR_WEIGHT>
317.42756

> <PUBCHEM_OPENEYE_CAN_SMILES>
CC1=NC(=CS1)CCNC(=O)CN2CCS(=O)(=O)CC2

> <PUBCHEM_OPENEYE_ISO_SMILES>
CC1=NC(=CS1)CCNC(=O)CN2CCS(=O)(=O)CC2

> <PUBCHEM_CACTVS_TPSA>
116

> <PUBCHEM_MONOISOTOPIC_WEIGHT>
317.086783

> <PUBCHEM_TOTAL_CHARGE>
0

> <PUBCHEM_HEAVY_ATOM_COUNT>
20

> <PUBCHEM_ATOM_DEF_STEREO_COUNT>
0

> <PUBCHEM_ATOM_UDEF_STEREO_COUNT>
0

> <PUBCHEM_BOND_DEF_STEREO_COUNT>
0

> <PUBCHEM_BOND_UDEF_STEREO_COUNT>
0

> <PUBCHEM_ISOTOPIC_ATOM_COUNT>
0

> <PUBCHEM_COMPONENT_COUNT>
1

> <PUBCHEM_CACTVS_TAUTO_COUNT>
2

> <PUBCHEM_COORDINATE_TYPE>
1
5
255

> <PUBCHEM_BONDANNOTATIONS>
17  18  8
2  18  8
2  19  8
8  17  8
8  19  8

$$$$

