47205768
  -OEChem-06241223003D

 37 37  0     0  0  0  0  0  0999 V2000
    1.6019    1.3272    0.1708 S   0  0  0  0  0  0  0  0  0  0  0  0
   -0.9622    1.0801   -2.0581 O   0  0  0  0  0  0  0  0  0  0  0  0
   -1.2034   -2.8961   -0.5945 O   0  0  0  0  0  0  0  0  0  0  0  0
    4.2372    2.0234    1.3507 O   0  0  0  0  0  0  0  0  0  0  0  0
   -1.5604   -0.2334   -0.1923 N   0  0  0  0  0  0  0  0  0  0  0  0
   -0.4664   -3.2698    1.5510 N   0  0  0  0  0  0  0  0  0  0  0  0
   -2.9837   -0.1248   -0.3557 C   0  0  0  0  0  0  0  0  0  0  0  0
   -3.5652    1.0727    0.3886 C   0  0  0  0  0  0  0  0  0  0  0  0
   -5.0847    1.1763    0.2396 C   0  0  0  0  0  0  0  0  0  0  0  0
   -1.0907   -1.0309    0.9458 C   0  0  0  0  0  0  0  0  0  0  0  0
   -0.6600    0.3953   -1.0815 C   0  0  0  0  0  0  0  0  0  0  0  0
   -5.6427    2.3427    1.0402 C   0  0  0  0  0  0  0  0  0  0  0  0
    0.7791    0.2119   -0.8349 C   0  0  0  0  0  0  0  0  0  0  0  0
   -0.9224   -2.4723    0.5232 C   0  0  0  0  0  0  0  0  0  0  0  0
    1.6188   -0.7700   -1.3131 C   0  0  0  0  0  0  0  0  0  0  0  0
    3.0860    0.4974   -0.0314 C   0  0  0  0  0  0  0  0  0  0  0  0
    2.9551   -0.6046   -0.8476 C   0  0  0  0  0  0  0  0  0  0  0  0
    4.2530    0.9921    0.6241 C   0  0  0  0  0  0  0  0  0  0  0  0
    5.6106    0.2828    0.4752 C   0  0  0  0  0  0  0  0  0  0  0  0
   -3.2016   -0.0136   -1.4247 H   0  0  0  0  0  0  0  0  0  0  0  0
   -3.4594   -1.0570   -0.0294 H   0  0  0  0  0  0  0  0  0  0  0  0
   -3.0974    1.9955    0.0225 H   0  0  0  0  0  0  0  0  0  0  0  0
   -3.3100    1.0000    1.4533 H   0  0  0  0  0  0  0  0  0  0  0  0
   -5.3460    1.3026   -0.8173 H   0  0  0  0  0  0  0  0  0  0  0  0
   -5.5556    0.2478    0.5827 H   0  0  0  0  0  0  0  0  0  0  0  0
   -0.1440   -0.6608    1.3424 H   0  0  0  0  0  0  0  0  0  0  0  0
   -1.8289   -0.9748    1.7538 H   0  0  0  0  0  0  0  0  0  0  0  0
   -5.2119    3.2910    0.7035 H   0  0  0  0  0  0  0  0  0  0  0  0
   -6.7289    2.4005    0.9184 H   0  0  0  0  0  0  0  0  0  0  0  0
   -5.4263    2.2260    2.1069 H   0  0  0  0  0  0  0  0  0  0  0  0
    1.2943   -1.5701   -1.9663 H   0  0  0  0  0  0  0  0  0  0  0  0
    3.7700   -1.2687   -1.1065 H   0  0  0  0  0  0  0  0  0  0  0  0
   -0.3206   -4.2645    1.4143 H   0  0  0  0  0  0  0  0  0  0  0  0
   -0.2543   -2.8996    2.4720 H   0  0  0  0  0  0  0  0  0  0  0  0
    5.9073    0.2779   -0.5768 H   0  0  0  0  0  0  0  0  0  0  0  0
    5.5328   -0.7395    0.8542 H   0  0  0  0  0  0  0  0  0  0  0  0
    6.3697    0.8171    1.0538 H   0  0  0  0  0  0  0  0  0  0  0  0
  1 13  1  0  0  0  0
  1 16  1  0  0  0  0
  2 11  2  0  0  0  0
  3 14  2  0  0  0  0
  4 18  2  0  0  0  0
  5  7  1  0  0  0  0
  5 10  1  0  0  0  0
  5 11  1  0  0  0  0
  6 14  1  0  0  0  0
  6 33  1  0  0  0  0
  6 34  1  0  0  0  0
  7  8  1  0  0  0  0
  7 20  1  0  0  0  0
  7 21  1  0  0  0  0
  8  9  1  0  0  0  0
  8 22  1  0  0  0  0
  8 23  1  0  0  0  0
  9 12  1  0  0  0  0
  9 24  1  0  0  0  0
  9 25  1  0  0  0  0
 10 14  1  0  0  0  0
 10 26  1  0  0  0  0
 10 27  1  0  0  0  0
 11 13  1  0  0  0  0
 12 28  1  0  0  0  0
 12 29  1  0  0  0  0
 12 30  1  0  0  0  0
 13 15  2  0  0  0  0
 15 17  1  0  0  0  0
 15 31  1  0  0  0  0
 16 17  2  0  0  0  0
 16 18  1  0  0  0  0
 17 32  1  0  0  0  0
 18 19  1  0  0  0  0
 19 35  1  0  0  0  0
 19 36  1  0  0  0  0
 19 37  1  0  0  0  0
M  END
> <PUBCHEM_COMPOUND_CID>
47205768

> <PUBCHEM_CONFORMER_RMSD>
1

> <PUBCHEM_CONFORMER_DIVERSEORDER>
2
101
39
63
82
36
117
102
40
84
74
90
47
65
22
67
120
116
108
72
41
58
95
77
51
97
15
33
99
8
105
86
42
112
88
78
37
60
115
69
103
100
66
62
87
81
59
111
64
28
57
107
106
30
110
114
91
52
11
23
18
104
19
34
45
25
3
85
14
54
32
92
83
17
79
109
53
46
26
4
75
89
76
31
38
70
119
80
73
20
7
49
9
16
50
94
5
27
48
56
24
93
96
61
13
71
29
98
43
55
113
68
12
44
1
21
118
35
10
6

> <PUBCHEM_MMFF94_PARTIAL_CHARGES>
20
1 -0.08
10 0.36
11 0.71
13 -0.05
14 0.57
15 -0.15
16 -0.05
17 -0.15
18 0.59
19 0.06
2 -0.57
3 -0.57
31 0.15
32 0.15
33 0.37
34 0.37
4 -0.57
5 -0.66
6 -0.8
7 0.3

> <PUBCHEM_EFFECTIVE_ROTOR_COUNT>
8

> <PUBCHEM_PHARMACOPHORE_FEATURES>
6
1 12 hydrophobe
1 2 acceptor
1 3 acceptor
1 4 acceptor
1 6 donor
5 1 13 15 16 17 rings

> <PUBCHEM_HEAVY_ATOM_COUNT>
19

> <PUBCHEM_ATOM_DEF_STEREO_COUNT>
0

> <PUBCHEM_ATOM_UDEF_STEREO_COUNT>
0

> <PUBCHEM_BOND_DEF_STEREO_COUNT>
0

> <PUBCHEM_BOND_UDEF_STEREO_COUNT>
0

> <PUBCHEM_ISOTOPIC_ATOM_COUNT>
0

> <PUBCHEM_COMPONENT_COUNT>
1

> <PUBCHEM_CACTVS_TAUTO_COUNT>
4

> <PUBCHEM_CONFORMER_ID>
02D04D8800000002

> <PUBCHEM_MMFF94_ENERGY>
37.5681

> <PUBCHEM_FEATURE_SELFOVERLAP>
30.446

> <PUBCHEM_SHAPE_MULTIPOLES>
367.29
10.26
2.7
1.38
2.08
2.27
-0.22
-8.88
3.78
1.63
1.24
-0.13
0.09
0.39

> <PUBCHEM_SHAPE_SELFOVERLAP>
728.757

> <PUBCHEM_SHAPE_VOLUME>
219

> <PUBCHEM_COORDINATE_TYPE>
2
5
10

$$$$

