17395764
  -OEChem-06241222522D

 56 59  0     1  0  0  0  0  0999 V2000
   10.6933   -0.0854    0.0000 O   0  0  0  0  0  0  0  0  0  0  0  0
    6.5708   -2.0866    0.0000 O   0  0  0  0  0  0  0  0  0  0  0  0
    9.0203    0.3628    0.0000 N   0  0  0  0  0  0  0  0  0  0  0  0
    7.0884   -0.1548    0.0000 N   0  0  0  0  0  0  0  0  0  0  0  0
    4.8978   -1.6384    0.0000 N   0  0  0  0  0  0  0  0  0  0  0  0
   11.9771    2.5876    0.0000 C   0  0  3  0  0  0  0  0  0  0  0  0
   10.2450    1.5876    0.0000 C   0  0  3  0  0  0  0  0  0  0  0  0
   12.2359    3.5535    0.0000 C   0  0  3  0  0  0  0  0  0  0  0  0
   11.4993    4.5361    0.0000 C   0  0  0  0  0  0  0  0  0  0  0  0
    9.7450    2.4536    0.0000 C   0  0  0  0  0  0  0  0  0  0  0  0
   13.8090    1.8288    0.0000 C   0  0  0  0  0  0  0  0  0  0  0  0
   14.0679    2.7947    0.0000 C   0  0  0  0  0  0  0  0  0  0  0  0
    9.9862    0.6217    0.0000 C   0  0  0  0  0  0  0  0  0  0  0  0
    8.7615   -0.6031    0.0000 C   0  0  0  0  0  0  0  0  0  0  0  0
    8.3132    1.0700    0.0000 C   0  0  0  0  0  0  0  0  0  0  0  0
    7.3473    0.8111    0.0000 C   0  0  0  0  0  0  0  0  0  0  0  0
    7.7956   -0.8619    0.0000 C   0  0  0  0  0  0  0  0  0  0  0  0
    6.1225   -0.4136    0.0000 C   0  0  0  0  0  0  0  0  0  0  0  0
    5.8637   -1.3795    0.0000 C   0  0  0  0  0  0  0  0  0  0  0  0
    4.6390   -2.6043    0.0000 C   0  0  0  0  0  0  0  0  0  0  0  0
    3.6730   -2.8631    0.0000 C   0  0  0  0  0  0  0  0  0  0  0  0
    5.3461   -3.3114    0.0000 C   0  0  0  0  0  0  0  0  0  0  0  0
    2.9659   -2.1560    0.0000 C   0  0  0  0  0  0  0  0  0  0  0  0
    3.4142   -3.8290    0.0000 C   0  0  0  0  0  0  0  0  0  0  0  0
    5.0872   -4.2773    0.0000 C   0  0  0  0  0  0  0  0  0  0  0  0
    4.1213   -4.5361    0.0000 C   0  0  0  0  0  0  0  0  0  0  0  0
    2.0000   -2.4148    0.0000 C   0  0  0  0  0  0  0  0  0  0  0  0
   12.0176    1.9689    0.0000 H   0  0  0  0  0  0  0  0  0  0  0  0
    9.6304    1.5067    0.0000 H   0  0  0  0  0  0  0  0  0  0  0  0
   12.2431    2.9336    0.0000 H   0  0  0  0  0  0  0  0  0  0  0  0
   11.8171    5.0685    0.0000 H   0  0  0  0  0  0  0  0  0  0  0  0
   10.8862    4.6281    0.0000 H   0  0  0  0  0  0  0  0  0  0  0  0
    9.4744    3.0114    0.0000 H   0  0  0  0  0  0  0  0  0  0  0  0
    9.1973    2.1631    0.0000 H   0  0  0  0  0  0  0  0  0  0  0  0
   14.0833    1.2727    0.0000 H   0  0  0  0  0  0  0  0  0  0  0  0
   14.6239    3.0689    0.0000 H   0  0  0  0  0  0  0  0  0  0  0  0
    8.8211    1.4256    0.0000 H   0  0  0  0  0  0  0  0  0  0  0  0
    8.0512    1.6319    0.0000 H   0  0  0  0  0  0  0  0  0  0  0  0
    8.8155   -1.2207    0.0000 H   0  0  0  0  0  0  0  0  0  0  0  0
    9.3791   -0.6571    0.0000 H   0  0  0  0  0  0  0  0  0  0  0  0
    7.2932    1.4288    0.0000 H   0  0  0  0  0  0  0  0  0  0  0  0
    6.7296    0.8652    0.0000 H   0  0  0  0  0  0  0  0  0  0  0  0
    7.2877   -1.2175    0.0000 H   0  0  0  0  0  0  0  0  0  0  0  0
    8.0576   -1.4238    0.0000 H   0  0  0  0  0  0  0  0  0  0  0  0
    6.0685    0.2040    0.0000 H   0  0  0  0  0  0  0  0  0  0  0  0
    5.5049   -0.3596    0.0000 H   0  0  0  0  0  0  0  0  0  0  0  0
    4.4594   -1.2000    0.0000 H   0  0  0  0  0  0  0  0  0  0  0  0
    5.9449   -3.1509    0.0000 H   0  0  0  0  0  0  0  0  0  0  0  0
    3.4738   -1.8004    0.0000 H   0  0  0  0  0  0  0  0  0  0  0  0
    2.7039   -1.5941    0.0000 H   0  0  0  0  0  0  0  0  0  0  0  0
    2.8153   -3.9895    0.0000 H   0  0  0  0  0  0  0  0  0  0  0  0
    5.5256   -4.7157    0.0000 H   0  0  0  0  0  0  0  0  0  0  0  0
    3.9608   -5.1350    0.0000 H   0  0  0  0  0  0  0  0  0  0  0  0
    1.8395   -1.8159    0.0000 H   0  0  0  0  0  0  0  0  0  0  0  0
    1.4011   -2.5753    0.0000 H   0  0  0  0  0  0  0  0  0  0  0  0
    2.1605   -3.0137    0.0000 H   0  0  0  0  0  0  0  0  0  0  0  0
  1 13  2  0  0  0  0
  2 19  2  0  0  0  0
  3 13  1  0  0  0  0
  3 14  1  0  0  0  0
  3 15  1  0  0  0  0
  4 16  1  0  0  0  0
  4 17  1  0  0  0  0
  4 18  1  0  0  0  0
  5 19  1  0  0  0  0
  5 20  1  0  0  0  0
  5 47  1  0  0  0  0
  6  7  1  0  0  0  0
  6  9  1  0  0  0  0
  6 11  1  0  0  0  0
  6 28  1  0  0  0  0
  7 10  1  0  0  0  0
  7 13  1  0  0  0  0
  7 29  1  0  0  0  0
  8  9  1  0  0  0  0
  8 10  1  0  0  0  0
  8 12  1  0  0  0  0
  8 30  1  0  0  0  0
  9 31  1  0  0  0  0
  9 32  1  0  0  0  0
 10 33  1  0  0  0  0
 10 34  1  0  0  0  0
 11 12  2  0  0  0  0
 11 35  1  0  0  0  0
 12 36  1  0  0  0  0
 14 17  1  0  0  0  0
 14 39  1  0  0  0  0
 14 40  1  0  0  0  0
 15 16  1  0  0  0  0
 15 37  1  0  0  0  0
 15 38  1  0  0  0  0
 16 41  1  0  0  0  0
 16 42  1  0  0  0  0
 17 43  1  0  0  0  0
 17 44  1  0  0  0  0
 18 19  1  0  0  0  0
 18 45  1  0  0  0  0
 18 46  1  0  0  0  0
 20 21  1  0  0  0  0
 20 22  2  0  0  0  0
 21 23  1  0  0  0  0
 21 24  2  0  0  0  0
 22 25  1  0  0  0  0
 22 48  1  0  0  0  0
 23 27  1  0  0  0  0
 23 49  1  0  0  0  0
 23 50  1  0  0  0  0
 24 26  1  0  0  0  0
 24 51  1  0  0  0  0
 25 26  2  0  0  0  0
 25 52  1  0  0  0  0
 26 53  1  0  0  0  0
 27 54  1  0  0  0  0
 27 55  1  0  0  0  0
 27 56  1  0  0  0  0
M  END
> <PUBCHEM_COMPOUND_CID>
17395764

> <PUBCHEM_COMPOUND_CANONICALIZED>
1

> <PUBCHEM_CACTVS_COMPLEXITY>
582

> <PUBCHEM_CACTVS_HBOND_ACCEPTOR>
3

> <PUBCHEM_CACTVS_HBOND_DONOR>
1

> <PUBCHEM_CACTVS_ROTATABLE_BOND>
5

> <PUBCHEM_CACTVS_SUBSKEYS>
AAADceB7MAAAAAAAAAAAAAAAAAAAAYIAAAA8QIAAAAAAAAABAAAAHgAQAAAADQjBmAQywIPAAACIAiVSUACCAAAhAgAIiAGIZIgIYDLAkbGUIAhglgDIyAcYiICOgAAAAAACAAAAAAAAAAQAAQAACAAAAA==

> <PUBCHEM_IUPAC_OPENEYE_NAME>
2-[4-(bicyclo[2.2.1]hept-2-ene-5-carbonyl)piperazin-1-yl]-N-(2-ethylphenyl)acetamide

> <PUBCHEM_IUPAC_CAS_NAME>
2-[4-[5-bicyclo[2.2.1]hept-2-enyl(oxo)methyl]-1-piperazinyl]-N-(2-ethylphenyl)acetamide

> <PUBCHEM_IUPAC_NAME>
2-[4-(bicyclo[2.2.1]hept-2-ene-5-carbonyl)piperazin-1-yl]-N-(2-ethylphenyl)acetamide

> <PUBCHEM_IUPAC_SYSTEMATIC_NAME>
2-[4-(5-bicyclo[2.2.1]hept-2-enylcarbonyl)piperazin-1-yl]-N-(2-ethylphenyl)ethanamide

> <PUBCHEM_IUPAC_TRADITIONAL_NAME>
2-[4-(bicyclo[2.2.1]hept-2-ene-5-carbonyl)piperazino]-N-(2-ethylphenyl)acetamide

> <PUBCHEM_IUPAC_INCHI>
InChI=1S/C22H29N3O2/c1-2-17-5-3-4-6-20(17)23-21(26)15-24-9-11-25(12-10-24)22(27)19-14-16-7-8-18(19)13-16/h3-8,16,18-19H,2,9-15H2,1H3,(H,23,26)

> <PUBCHEM_IUPAC_INCHIKEY>
ZTBTUXJEIISJIJ-UHFFFAOYSA-N

> <PUBCHEM_XLOGP3_AA>
2.6

> <PUBCHEM_EXACT_MASS>
367.225977

> <PUBCHEM_MOLECULAR_FORMULA>
C22H29N3O2

> <PUBCHEM_MOLECULAR_WEIGHT>
367.48456

> <PUBCHEM_OPENEYE_CAN_SMILES>
CCC1=CC=CC=C1NC(=O)CN2CCN(CC2)C(=O)C3CC4CC3C=C4

> <PUBCHEM_OPENEYE_ISO_SMILES>
CCC1=CC=CC=C1NC(=O)CN2CCN(CC2)C(=O)C3CC4CC3C=C4

> <PUBCHEM_CACTVS_TPSA>
52.6

> <PUBCHEM_MONOISOTOPIC_WEIGHT>
367.225977

> <PUBCHEM_TOTAL_CHARGE>
0

> <PUBCHEM_HEAVY_ATOM_COUNT>
27

> <PUBCHEM_ATOM_DEF_STEREO_COUNT>
0

> <PUBCHEM_ATOM_UDEF_STEREO_COUNT>
3

> <PUBCHEM_BOND_DEF_STEREO_COUNT>
0

> <PUBCHEM_BOND_UDEF_STEREO_COUNT>
0

> <PUBCHEM_ISOTOPIC_ATOM_COUNT>
0

> <PUBCHEM_COMPONENT_COUNT>
1

> <PUBCHEM_CACTVS_TAUTO_COUNT>
3

> <PUBCHEM_COORDINATE_TYPE>
1
5
255

> <PUBCHEM_BONDANNOTATIONS>
20  21  8
20  22  8
21  24  8
22  25  8
24  26  8
25  26  8
6  9  3
7  13  3
8  9  3

$$$$

