17396525
  -OEChem-06241222573D

 34 35  0     0  0  0  0  0  0999 V2000
   -5.0665   -1.7688   -0.8688 F   0  0  0  0  0  0  0  0  0  0  0  0
   -3.0358   -2.5306   -0.8713 F   0  0  0  0  0  0  0  0  0  0  0  0
   -4.0953   -2.2734    1.0102 F   0  0  0  0  0  0  0  0  0  0  0  0
    0.9483    2.2003   -0.5002 O   0  0  0  0  0  0  0  0  0  0  0  0
    1.7199    0.4482    0.8669 N   0  0  0  0  0  0  0  0  0  0  0  0
    3.6692   -0.8839    0.7760 N   0  0  0  0  0  0  0  0  0  0  0  0
   -1.6584    1.2432    0.6895 C   0  0  0  0  0  0  0  0  0  0  0  0
   -0.3684    1.4970    1.3934 C   0  0  0  0  0  0  0  0  0  0  0  0
   -2.1467   -0.0585    0.5757 C   0  0  0  0  0  0  0  0  0  0  0  0
   -3.3541   -0.2954   -0.0815 C   0  0  0  0  0  0  0  0  0  0  0  0
   -2.3774    2.3077    0.1462 C   0  0  0  0  0  0  0  0  0  0  0  0
    0.8362    1.4442    0.4591 C   0  0  0  0  0  0  0  0  0  0  0  0
   -4.0730    0.7693   -0.6248 C   0  0  0  0  0  0  0  0  0  0  0  0
   -3.5847    2.0709   -0.5110 C   0  0  0  0  0  0  0  0  0  0  0  0
    2.9271    0.1149    0.2475 C   0  0  0  0  0  0  0  0  0  0  0  0
   -3.8766   -1.6868   -0.2027 C   0  0  0  0  0  0  0  0  0  0  0  0
    3.2879    0.8372   -0.8785 C   0  0  0  0  0  0  0  0  0  0  0  0
    4.8289   -1.1700    0.1426 C   0  0  0  0  0  0  0  0  0  0  0  0
    5.2789   -0.5078   -0.9883 C   0  0  0  0  0  0  0  0  0  0  0  0
    4.4879    0.5137   -1.5023 C   0  0  0  0  0  0  0  0  0  0  0  0
    5.6527   -2.2713    0.7221 C   0  0  0  0  0  0  0  0  0  0  0  0
   -0.3750    2.4939    1.8536 H   0  0  0  0  0  0  0  0  0  0  0  0
   -0.2631    0.7985    2.2323 H   0  0  0  0  0  0  0  0  0  0  0  0
   -1.5872   -0.8905    0.9969 H   0  0  0  0  0  0  0  0  0  0  0  0
   -2.0075    3.3265    0.2266 H   0  0  0  0  0  0  0  0  0  0  0  0
   -5.0152    0.6049   -1.1403 H   0  0  0  0  0  0  0  0  0  0  0  0
   -4.1443    2.8999   -0.9344 H   0  0  0  0  0  0  0  0  0  0  0  0
    1.4968   -0.1098    1.6866 H   0  0  0  0  0  0  0  0  0  0  0  0
    2.7448    1.6393   -1.3469 H   0  0  0  0  0  0  0  0  0  0  0  0
    6.2170   -0.7693   -1.4661 H   0  0  0  0  0  0  0  0  0  0  0  0
    4.8078    1.0554   -2.3876 H   0  0  0  0  0  0  0  0  0  0  0  0
    5.7841   -3.0742   -0.0102 H   0  0  0  0  0  0  0  0  0  0  0  0
    5.1714   -2.6982    1.6082 H   0  0  0  0  0  0  0  0  0  0  0  0
    6.6360   -1.8945    1.0207 H   0  0  0  0  0  0  0  0  0  0  0  0
  1 16  1  0  0  0  0
  2 16  1  0  0  0  0
  3 16  1  0  0  0  0
  4 12  2  0  0  0  0
  5 12  1  0  0  0  0
  5 15  1  0  0  0  0
  5 28  1  0  0  0  0
  6 15  1  0  0  0  0
  6 18  2  0  0  0  0
  7  8  1  0  0  0  0
  7  9  2  0  0  0  0
  7 11  1  0  0  0  0
  8 12  1  0  0  0  0
  8 22  1  0  0  0  0
  8 23  1  0  0  0  0
  9 10  1  0  0  0  0
  9 24  1  0  0  0  0
 10 13  2  0  0  0  0
 10 16  1  0  0  0  0
 11 14  2  0  0  0  0
 11 25  1  0  0  0  0
 13 14  1  0  0  0  0
 13 26  1  0  0  0  0
 14 27  1  0  0  0  0
 15 17  2  0  0  0  0
 17 20  1  0  0  0  0
 17 29  1  0  0  0  0
 18 19  1  0  0  0  0
 18 21  1  0  0  0  0
 19 20  2  0  0  0  0
 19 30  1  0  0  0  0
 20 31  1  0  0  0  0
 21 32  1  0  0  0  0
 21 33  1  0  0  0  0
 21 34  1  0  0  0  0
M  END
> <PUBCHEM_COMPOUND_CID>
17396525

> <PUBCHEM_CONFORMER_RMSD>
0.8

> <PUBCHEM_CONFORMER_DIVERSEORDER>
3
9
5
16
19
8
15
14
2
20
10
13
4
7
12
11
6
18
17
1

> <PUBCHEM_MMFF94_PARTIAL_CHARGES>
29
1 -0.34
10 -0.14
11 -0.15
12 0.57
13 -0.15
14 -0.15
15 0.43
16 1.16
17 -0.15
18 0.17
19 -0.15
2 -0.34
20 -0.15
21 0.14
24 0.15
25 0.15
26 0.15
27 0.15
28 0.37
29 0.15
3 -0.34
30 0.15
31 0.15
4 -0.57
5 -0.55
6 -0.62
7 -0.14
8 0.2
9 -0.15

> <PUBCHEM_EFFECTIVE_ROTOR_COUNT>
5

> <PUBCHEM_PHARMACOPHORE_FEATURES>
5
1 4 acceptor
1 5 donor
1 6 acceptor
6 6 15 17 18 19 20 rings
6 7 9 10 11 13 14 rings

> <PUBCHEM_HEAVY_ATOM_COUNT>
21

> <PUBCHEM_ATOM_DEF_STEREO_COUNT>
0

> <PUBCHEM_ATOM_UDEF_STEREO_COUNT>
0

> <PUBCHEM_BOND_DEF_STEREO_COUNT>
0

> <PUBCHEM_BOND_UDEF_STEREO_COUNT>
0

> <PUBCHEM_ISOTOPIC_ATOM_COUNT>
0

> <PUBCHEM_COMPONENT_COUNT>
1

> <PUBCHEM_CACTVS_TAUTO_COUNT>
3

> <PUBCHEM_CONFORMER_ID>
0109732D00000003

> <PUBCHEM_MMFF94_ENERGY>
51.9272

> <PUBCHEM_FEATURE_SELFOVERLAP>
25.371

> <PUBCHEM_SHAPE_FINGERPRINT>
10803635 8 18269279121963817117
10928967 22 18188482463263692374
11046707 91 18333449863166102944
11370993 144 6050456885582296692
11796584 16 18262798609399155654
11809386 21 18342461469162804451
12616971 3 18058718230297907712
12633257 1 17387116603746487559
12670546 177 18060418023433992604
12892183 10 6844199857075219676
12969540 114 14979953670741581248
13167823 11 18343299288570144422
13994607 96 11095884844015281787
14123255 352 9799694783332503778
14251751 18 18335426781157574786
14251757 5 18338508621866591670
14251758 9 10447663378819936560
14251764 30 17985534560592138763
14576447 43 18341607097578804100
14848178 5 18260832648212225470
15209294 21 8070028860949093080
15537594 2 18342163501458812674
15880784 105 14418425424504486172
17870717 6 18261666077535540917
18186145 218 15410602701692291968
18915474 69 18342736330153460516
193927 3 17894904127199870900
200 152 18059005207338785984
20403669 9 18186517674918578615
20626108 58 18413113874851119456
20693207 138 18335711511472049977
20739085 24 5978393820262013736
20775530 9 17681837298063244719
20871999 31 18273210889407884872
21054139 6 18342453747523820726
21401589 2 10303544935242818663
221490 88 18338515231662686408
22393880 68 18342739637162448388
23379529 103 18193267503597536819
23403322 49 18334576841236174897
23559900 14 18334307469467417992
25122255 55 17968368074272817430
3004659 81 18201159940280417378
3117164 225 7636585950089764764
329604 57 18341608187999636126
339767 52 18335148634748908726
439807 62 18272366443515015675
44062 13 18411701010661569821
5104073 3 18040715865943956944
559249 180 18268997659723945027
633830 44 16630236004719897920
7062679 13 18336265626693411603
7970288 3 18194683662064042715
960060 61 17917708002987137580
9709674 26 18268712714403460705

> <PUBCHEM_SHAPE_MULTIPOLES>
394.52
13.04
2.67
1.17
9.04
0.94
0.04
7.71
2.64
-2.63
0
0.54
-0.06
-1.08

> <PUBCHEM_SHAPE_SELFOVERLAP>
844.256

> <PUBCHEM_SHAPE_VOLUME>
219.2

> <PUBCHEM_COORDINATE_TYPE>
2
5
10

$$$$

