17396185
  -OEChem-06241222552D

 42 43  0     1  0  0  0  0  0999 V2000
    7.0014   -0.6113    0.0000 O   0  0  0  0  0  0  0  0  0  0  0  0
    6.5855    1.3450    0.0000 O   0  0  0  0  0  0  0  0  0  0  0  0
    3.4013    3.6585    0.0000 O   0  0  0  0  0  0  0  0  0  0  0  0
    9.4693   -2.8495    0.0000 O   0  0  0  0  0  0  0  0  0  0  0  0
    6.4661   -2.2586    0.0000 O   0  0  0  0  0  0  0  0  0  0  0  0
    4.0823    0.3971    0.0000 N   0  0  0  0  0  0  0  0  0  0  0  0
    4.8913    0.9849    0.0000 C   0  0  0  0  0  0  0  0  0  0  0  0
    4.5823    1.9360    0.0000 C   0  0  0  0  0  0  0  0  0  0  0  0
    3.5823    1.9360    0.0000 C   0  0  0  0  0  0  0  0  0  0  0  0
    3.2733    0.9849    0.0000 C   0  0  0  0  0  0  0  0  0  0  0  0
    5.8424    0.6759    0.0000 C   0  0  0  0  0  0  0  0  0  0  0  0
    6.0503   -0.3023    0.0000 C   0  0  3  0  0  0  0  0  0  0  0  0
    5.1701    2.7450    0.0000 C   0  0  0  0  0  0  0  0  0  0  0  0
    2.3222    0.6759    0.0000 C   0  0  0  0  0  0  0  0  0  0  0  0
    2.9945    2.7450    0.0000 C   0  0  0  0  0  0  0  0  0  0  0  0
    5.3072   -0.9714    0.0000 C   0  0  0  0  0  0  0  0  0  0  0  0
    2.0000    2.6404    0.0000 C   0  0  0  0  0  0  0  0  0  0  0  0
    7.2093   -1.5894    0.0000 C   0  0  0  0  0  0  0  0  0  0  0  0
    8.1603   -1.8984    0.0000 C   0  0  0  0  0  0  0  0  0  0  0  0
    8.4693   -2.8495    0.0000 C   0  0  0  0  0  0  0  0  0  0  0  0
    8.9693   -1.3107    0.0000 C   0  0  0  0  0  0  0  0  0  0  0  0
    7.8816   -3.6585    0.0000 C   0  0  0  0  0  0  0  0  0  0  0  0
    9.7784   -1.8984    0.0000 C   0  0  0  0  0  0  0  0  0  0  0  0
    4.0823   -0.2229    0.0000 H   0  0  0  0  0  0  0  0  0  0  0  0
    6.5110    0.1126    0.0000 H   0  0  0  0  0  0  0  0  0  0  0  0
    5.6717    2.3806    0.0000 H   0  0  0  0  0  0  0  0  0  0  0  0
    5.5345    3.2466    0.0000 H   0  0  0  0  0  0  0  0  0  0  0  0
    4.6685    3.1094    0.0000 H   0  0  0  0  0  0  0  0  0  0  0  0
    2.1306    1.2655    0.0000 H   0  0  0  0  0  0  0  0  0  0  0  0
    1.7326    0.4843    0.0000 H   0  0  0  0  0  0  0  0  0  0  0  0
    2.5138    0.0862    0.0000 H   0  0  0  0  0  0  0  0  0  0  0  0
    4.8923   -0.5106    0.0000 H   0  0  0  0  0  0  0  0  0  0  0  0
    4.8464   -1.3863    0.0000 H   0  0  0  0  0  0  0  0  0  0  0  0
    5.7220   -1.4321    0.0000 H   0  0  0  0  0  0  0  0  0  0  0  0
    1.9352    3.2570    0.0000 H   0  0  0  0  0  0  0  0  0  0  0  0
    1.3834    2.5756    0.0000 H   0  0  0  0  0  0  0  0  0  0  0  0
    2.0648    2.0238    0.0000 H   0  0  0  0  0  0  0  0  0  0  0  0
    8.9693   -0.6907    0.0000 H   0  0  0  0  0  0  0  0  0  0  0  0
    7.3800   -3.2941    0.0000 H   0  0  0  0  0  0  0  0  0  0  0  0
    7.5171   -4.1601    0.0000 H   0  0  0  0  0  0  0  0  0  0  0  0
    8.3831   -4.0230    0.0000 H   0  0  0  0  0  0  0  0  0  0  0  0
   10.3680   -1.7069    0.0000 H   0  0  0  0  0  0  0  0  0  0  0  0
  1 12  1  0  0  0  0
  1 18  1  0  0  0  0
  2 11  2  0  0  0  0
  3 15  2  0  0  0  0
  4 20  1  0  0  0  0
  4 23  1  0  0  0  0
  5 18  2  0  0  0  0
  6  7  1  0  0  0  0
  6 10  1  0  0  0  0
  6 24  1  0  0  0  0
  7  8  2  0  0  0  0
  7 11  1  0  0  0  0
  8  9  1  0  0  0  0
  8 13  1  0  0  0  0
  9 10  2  0  0  0  0
  9 15  1  0  0  0  0
 10 14  1  0  0  0  0
 11 12  1  0  0  0  0
 12 16  1  0  0  0  0
 12 25  1  0  0  0  0
 13 26  1  0  0  0  0
 13 27  1  0  0  0  0
 13 28  1  0  0  0  0
 14 29  1  0  0  0  0
 14 30  1  0  0  0  0
 14 31  1  0  0  0  0
 15 17  1  0  0  0  0
 16 32  1  0  0  0  0
 16 33  1  0  0  0  0
 16 34  1  0  0  0  0
 17 35  1  0  0  0  0
 17 36  1  0  0  0  0
 17 37  1  0  0  0  0
 18 19  1  0  0  0  0
 19 20  2  0  0  0  0
 19 21  1  0  0  0  0
 20 22  1  0  0  0  0
 21 23  2  0  0  0  0
 21 38  1  0  0  0  0
 22 39  1  0  0  0  0
 22 40  1  0  0  0  0
 22 41  1  0  0  0  0
 23 42  1  0  0  0  0
M  END
> <PUBCHEM_COMPOUND_CID>
17396185

> <PUBCHEM_COMPOUND_CANONICALIZED>
1

> <PUBCHEM_CACTVS_COMPLEXITY>
491

> <PUBCHEM_CACTVS_HBOND_ACCEPTOR>
5

> <PUBCHEM_CACTVS_HBOND_DONOR>
1

> <PUBCHEM_CACTVS_ROTATABLE_BOND>
6

> <PUBCHEM_CACTVS_SUBSKEYS>
AAADceB6OAAAAAAAAAAAAAAAAAAAAWJAAAAAAAAAAAAAAAAB4AAAHgAQAAAADByhngIyjJLJlECoA6zyzAKCiCAnICAImSH2TNgMJ37MtL+GGejn8BHI6cffy/C+gAAAAAAAAAAAAAAAAAAAAAAAAAAAAA==

> <PUBCHEM_IUPAC_OPENEYE_NAME>
[2-(4-acetyl-3,5-dimethyl-1H-pyrrol-2-yl)-1-methyl-2-oxo-ethyl] 2-methylfuran-3-carboxylate

> <PUBCHEM_IUPAC_CAS_NAME>
2-methyl-3-furancarboxylic acid [1-(4-acetyl-3,5-dimethyl-1H-pyrrol-2-yl)-1-oxopropan-2-yl] ester

> <PUBCHEM_IUPAC_NAME>
[1-(4-acetyl-3,5-dimethyl-1H-pyrrol-2-yl)-1-oxopropan-2-yl] 2-methylfuran-3-carboxylate

> <PUBCHEM_IUPAC_SYSTEMATIC_NAME>
[1-(4-ethanoyl-3,5-dimethyl-1H-pyrrol-2-yl)-1-oxidanylidene-propan-2-yl] 2-methylfuran-3-carboxylate

> <PUBCHEM_IUPAC_TRADITIONAL_NAME>
2-methylfuran-3-carboxylic acid [2-(4-acetyl-3,5-dimethyl-1H-pyrrol-2-yl)-2-keto-1-methyl-ethyl] ester

> <PUBCHEM_IUPAC_INCHI>
InChI=1S/C17H19NO5/c1-8-14(10(3)19)9(2)18-15(8)16(20)12(5)23-17(21)13-6-7-22-11(13)4/h6-7,12,18H,1-5H3

> <PUBCHEM_IUPAC_INCHIKEY>
ZWJIMVMGGDLFBA-UHFFFAOYSA-N

> <PUBCHEM_XLOGP3_AA>
2.6

> <PUBCHEM_EXACT_MASS>
317.126323

> <PUBCHEM_MOLECULAR_FORMULA>
C17H19NO5

> <PUBCHEM_MOLECULAR_WEIGHT>
317.33646

> <PUBCHEM_OPENEYE_CAN_SMILES>
CC1=C(NC(=C1C(=O)C)C)C(=O)C(C)OC(=O)C2=C(OC=C2)C

> <PUBCHEM_OPENEYE_ISO_SMILES>
CC1=C(NC(=C1C(=O)C)C)C(=O)C(C)OC(=O)C2=C(OC=C2)C

> <PUBCHEM_CACTVS_TPSA>
89.4

> <PUBCHEM_MONOISOTOPIC_WEIGHT>
317.126323

> <PUBCHEM_TOTAL_CHARGE>
0

> <PUBCHEM_HEAVY_ATOM_COUNT>
23

> <PUBCHEM_ATOM_DEF_STEREO_COUNT>
0

> <PUBCHEM_ATOM_UDEF_STEREO_COUNT>
1

> <PUBCHEM_BOND_DEF_STEREO_COUNT>
0

> <PUBCHEM_BOND_UDEF_STEREO_COUNT>
0

> <PUBCHEM_ISOTOPIC_ATOM_COUNT>
0

> <PUBCHEM_COMPONENT_COUNT>
1

> <PUBCHEM_CACTVS_TAUTO_COUNT>
62

> <PUBCHEM_COORDINATE_TYPE>
1
5
255

> <PUBCHEM_BONDANNOTATIONS>
12  16  3
19  20  8
19  21  8
21  23  8
4  20  8
4  23  8
6  10  8
6  7  8
7  8  8
8  9  8
9  10  8

$$$$

