5623
  -OEChem-06261200472D

 63 63  0     1  0  0  0  0  0999 V2000
    6.3301    1.1550    0.0000 O   0  0  0  0  0  0  0  0  0  0  0  0
   12.3923   -1.3450    0.0000 O   0  0  0  0  0  0  0  0  0  0  0  0
    8.9282   -0.3450    0.0000 N   0  0  0  0  0  0  0  0  0  0  0  0
    5.4641   -0.3450    0.0000 C   0  0  0  0  0  0  0  0  0  0  0  0
    6.3301    0.1550    0.0000 C   0  0  3  0  0  0  0  0  0  0  0  0
    4.5981    0.1550    0.0000 C   0  0  0  0  0  0  0  0  0  0  0  0
    3.7320   -0.3450    0.0000 C   0  0  0  0  0  0  0  0  0  0  0  0
    7.1962   -0.3450    0.0000 C   0  0  0  0  0  0  0  0  0  0  0  0
    2.8660    0.1550    0.0000 C   0  0  0  0  0  0  0  0  0  0  0  0
    8.0622    0.1550    0.0000 C   0  0  0  0  0  0  0  0  0  0  0  0
    2.0000   -0.3450    0.0000 C   0  0  0  0  0  0  0  0  0  0  0  0
   16.7224    0.1550    0.0000 C   0  0  0  0  0  0  0  0  0  0  0  0
   17.5885   -0.3450    0.0000 C   0  0  0  0  0  0  0  0  0  0  0  0
   15.8564   -0.3450    0.0000 C   0  0  0  0  0  0  0  0  0  0  0  0
    8.0622    1.1550    0.0000 C   0  0  0  0  0  0  0  0  0  0  0  0
   18.4545    0.1550    0.0000 C   0  0  0  0  0  0  0  0  0  0  0  0
    9.7942    0.1550    0.0000 C   0  0  0  0  0  0  0  0  0  0  0  0
   13.2583    0.1550    0.0000 C   0  0  0  0  0  0  0  0  0  0  0  0
   12.3923   -0.3450    0.0000 C   0  0  3  0  0  0  0  0  0  0  0  0
   14.9904    0.1550    0.0000 C   0  0  0  0  0  0  0  0  0  0  0  0
    8.9282    1.6550    0.0000 C   0  0  0  0  0  0  0  0  0  0  0  0
   14.1244   -0.3450    0.0000 C   0  0  0  0  0  0  0  0  0  0  0  0
    9.7942    1.1550    0.0000 C   0  0  0  0  0  0  0  0  0  0  0  0
   10.6603   -0.3450    0.0000 C   0  0  0  0  0  0  0  0  0  0  0  0
   11.5263    0.1550    0.0000 C   0  0  0  0  0  0  0  0  0  0  0  0
   19.3205   -0.3450    0.0000 C   0  0  0  0  0  0  0  0  0  0  0  0
    5.0656   -0.8199    0.0000 H   0  0  0  0  0  0  0  0  0  0  0  0
    5.8626   -0.8199    0.0000 H   0  0  0  0  0  0  0  0  0  0  0  0
    7.0662    0.5800    0.0000 H   0  0  0  0  0  0  0  0  0  0  0  0
    4.9966    0.6299    0.0000 H   0  0  0  0  0  0  0  0  0  0  0  0
    4.1996    0.6299    0.0000 H   0  0  0  0  0  0  0  0  0  0  0  0
    3.3335   -0.8199    0.0000 H   0  0  0  0  0  0  0  0  0  0  0  0
    4.1306   -0.8199    0.0000 H   0  0  0  0  0  0  0  0  0  0  0  0
    6.7976   -0.8199    0.0000 H   0  0  0  0  0  0  0  0  0  0  0  0
    7.5947   -0.8199    0.0000 H   0  0  0  0  0  0  0  0  0  0  0  0
    3.2646    0.6299    0.0000 H   0  0  0  0  0  0  0  0  0  0  0  0
    2.4675    0.6299    0.0000 H   0  0  0  0  0  0  0  0  0  0  0  0
   17.1210    0.6299    0.0000 H   0  0  0  0  0  0  0  0  0  0  0  0
   16.3239    0.6299    0.0000 H   0  0  0  0  0  0  0  0  0  0  0  0
    1.6900    0.1919    0.0000 H   0  0  0  0  0  0  0  0  0  0  0  0
    1.4631   -0.6550    0.0000 H   0  0  0  0  0  0  0  0  0  0  0  0
    2.3100   -0.8819    0.0000 H   0  0  0  0  0  0  0  0  0  0  0  0
    5.7932    1.4650    0.0000 H   0  0  0  0  0  0  0  0  0  0  0  0
   17.1899   -0.8199    0.0000 H   0  0  0  0  0  0  0  0  0  0  0  0
   17.9870   -0.8199    0.0000 H   0  0  0  0  0  0  0  0  0  0  0  0
   15.4579   -0.8199    0.0000 H   0  0  0  0  0  0  0  0  0  0  0  0
   16.2549   -0.8199    0.0000 H   0  0  0  0  0  0  0  0  0  0  0  0
    7.5252    1.4650    0.0000 H   0  0  0  0  0  0  0  0  0  0  0  0
   18.8530    0.6299    0.0000 H   0  0  0  0  0  0  0  0  0  0  0  0
   18.0560    0.6299    0.0000 H   0  0  0  0  0  0  0  0  0  0  0  0
   13.6569    0.6299    0.0000 H   0  0  0  0  0  0  0  0  0  0  0  0
   12.8598    0.6299    0.0000 H   0  0  0  0  0  0  0  0  0  0  0  0
   11.6562   -0.7700    0.0000 H   0  0  0  0  0  0  0  0  0  0  0  0
   14.9904    0.7750    0.0000 H   0  0  0  0  0  0  0  0  0  0  0  0
    8.9282    2.2750    0.0000 H   0  0  0  0  0  0  0  0  0  0  0  0
   14.1244   -0.9650    0.0000 H   0  0  0  0  0  0  0  0  0  0  0  0
   10.3312    1.4650    0.0000 H   0  0  0  0  0  0  0  0  0  0  0  0
   10.6603   -0.9650    0.0000 H   0  0  0  0  0  0  0  0  0  0  0  0
   11.5263    0.7750    0.0000 H   0  0  0  0  0  0  0  0  0  0  0  0
   19.0105   -0.8819    0.0000 H   0  0  0  0  0  0  0  0  0  0  0  0
   19.8574   -0.6550    0.0000 H   0  0  0  0  0  0  0  0  0  0  0  0
   19.6305    0.1919    0.0000 H   0  0  0  0  0  0  0  0  0  0  0  0
   12.9292   -1.6550    0.0000 H   0  0  0  0  0  0  0  0  0  0  0  0
  1  5  1  0  0  0  0
  1 43  1  0  0  0  0
  2 19  1  0  0  0  0
  2 63  1  0  0  0  0
  3 10  1  0  0  0  0
  3 17  2  0  0  0  0
  4  5  1  0  0  0  0
  4  6  1  0  0  0  0
  4 27  1  0  0  0  0
  4 28  1  0  0  0  0
  5  8  1  0  0  0  0
  5 29  1  0  0  0  0
  6  7  1  0  0  0  0
  6 30  1  0  0  0  0
  6 31  1  0  0  0  0
  7  9  1  0  0  0  0
  7 32  1  0  0  0  0
  7 33  1  0  0  0  0
  8 10  1  0  0  0  0
  8 34  1  0  0  0  0
  8 35  1  0  0  0  0
  9 11  1  0  0  0  0
  9 36  1  0  0  0  0
  9 37  1  0  0  0  0
 10 15  2  0  0  0  0
 11 40  1  0  0  0  0
 11 41  1  0  0  0  0
 11 42  1  0  0  0  0
 12 13  1  0  0  0  0
 12 14  1  0  0  0  0
 12 38  1  0  0  0  0
 12 39  1  0  0  0  0
 13 16  1  0  0  0  0
 13 44  1  0  0  0  0
 13 45  1  0  0  0  0
 14 20  1  0  0  0  0
 14 46  1  0  0  0  0
 14 47  1  0  0  0  0
 15 21  1  0  0  0  0
 15 48  1  0  0  0  0
 16 26  1  0  0  0  0
 16 49  1  0  0  0  0
 16 50  1  0  0  0  0
 17 23  1  0  0  0  0
 17 24  1  0  0  0  0
 18 19  1  0  0  0  0
 18 22  1  0  0  0  0
 18 51  1  0  0  0  0
 18 52  1  0  0  0  0
 19 25  1  0  0  0  0
 19 53  1  0  0  0  0
 20 22  2  3  0  0  0
 20 54  1  0  0  0  0
 21 23  2  0  0  0  0
 21 55  1  0  0  0  0
 22 56  1  0  0  0  0
 23 57  1  0  0  0  0
 24 25  2  3  0  0  0
 24 58  1  0  0  0  0
 25 59  1  0  0  0  0
 26 60  1  0  0  0  0
 26 61  1  0  0  0  0
 26 62  1  0  0  0  0
M  END
> <PUBCHEM_COMPOUND_CID>
5623

> <PUBCHEM_COMPOUND_CANONICALIZED>
1

> <PUBCHEM_CACTVS_COMPLEXITY>
380

> <PUBCHEM_CACTVS_HBOND_ACCEPTOR>
3

> <PUBCHEM_CACTVS_HBOND_DONOR>
2

> <PUBCHEM_CACTVS_ROTATABLE_BOND>
14

> <PUBCHEM_CACTVS_SUBSKEYS>
AAADcfB6MAAAAAAAAAAAAAAAAAAAAAAAAAAsAAAAAAAAAAABgAAAHgAACAAACByhlgIygJIIEgCgASRiRACCgCAhAiAImCAwZJgINOLAkZGEcAhmwAHI2AeQwKAAAAAAAAAAAAAAAAAAAAAAAAAAAAAAAA==

> <PUBCHEM_IUPAC_OPENEYE_NAME>
1-[6-(2-hydroxyheptyl)-2-pyridyl]undeca-1,5-dien-3-ol

> <PUBCHEM_IUPAC_CAS_NAME>
1-[6-(2-hydroxyheptyl)-2-pyridinyl]-3-undeca-1,5-dienol

> <PUBCHEM_IUPAC_NAME>
1-[6-(2-hydroxyheptyl)pyridin-2-yl]undeca-1,5-dien-3-ol

> <PUBCHEM_IUPAC_SYSTEMATIC_NAME>
1-[6-(2-oxidanylheptyl)pyridin-2-yl]undeca-1,5-dien-3-ol

> <PUBCHEM_IUPAC_TRADITIONAL_NAME>
1-[6-(2-hydroxyheptyl)-2-pyridyl]undeca-1,5-dien-3-ol

> <PUBCHEM_IUPAC_INCHI>
InChI=1S/C23H37NO2/c1-3-5-7-8-9-11-15-22(25)18-17-20-13-12-14-21(24-20)19-23(26)16-10-6-4-2/h9,11-14,17-18,22-23,25-26H,3-8,10,15-16,19H2,1-2H3

> <PUBCHEM_IUPAC_INCHIKEY>
VWEKJBKQJXCPGC-UHFFFAOYSA-N

> <PUBCHEM_XLOGP3_AA>
6.1

> <PUBCHEM_EXACT_MASS>
359.282429

> <PUBCHEM_MOLECULAR_FORMULA>
C23H37NO2

> <PUBCHEM_MOLECULAR_WEIGHT>
359.54538

> <PUBCHEM_OPENEYE_CAN_SMILES>
CCCCCC=CCC(C=CC1=NC(=CC=C1)CC(CCCCC)O)O

> <PUBCHEM_OPENEYE_ISO_SMILES>
CCCCCC=CCC(C=CC1=NC(=CC=C1)CC(CCCCC)O)O

> <PUBCHEM_CACTVS_TPSA>
53.4

> <PUBCHEM_MONOISOTOPIC_WEIGHT>
359.282429

> <PUBCHEM_TOTAL_CHARGE>
0

> <PUBCHEM_HEAVY_ATOM_COUNT>
26

> <PUBCHEM_ATOM_DEF_STEREO_COUNT>
0

> <PUBCHEM_ATOM_UDEF_STEREO_COUNT>
2

> <PUBCHEM_BOND_DEF_STEREO_COUNT>
0

> <PUBCHEM_BOND_UDEF_STEREO_COUNT>
2

> <PUBCHEM_ISOTOPIC_ATOM_COUNT>
0

> <PUBCHEM_COMPONENT_COUNT>
1

> <PUBCHEM_CACTVS_TAUTO_COUNT>
2

> <PUBCHEM_COORDINATE_TYPE>
1
5
255

> <PUBCHEM_BONDANNOTATIONS>
10  15  8
15  21  8
17  23  8
19  53  3
20  22  1
21  23  8
24  25  1
3  10  8
3  17  8
5  29  3

$$$$

