47205620
  -OEChem-06241222592D

 31 32  0     0  0  0  0  0  0999 V2000
    3.7320   -0.3512    0.0000 O   0  0  0  0  0  0  0  0  0  0  0  0
    6.5468    3.8512    0.0000 O   0  0  0  0  0  0  0  0  0  0  0  0
    5.4641    0.6488    0.0000 O   0  0  0  0  0  0  0  0  0  0  0  0
    2.8660    1.1488    0.0000 O   0  0  0  0  0  0  0  0  0  0  0  0
    4.5981    2.1488    0.0000 N   0  0  0  0  0  0  0  0  0  0  0  0
    5.5686    3.6433    0.0000 N   0  0  0  0  0  0  0  0  0  0  0  0
    2.8660   -1.8512    0.0000 C   0  0  0  0  0  0  0  0  0  0  0  0
    2.8660   -0.8512    0.0000 C   0  0  0  0  0  0  0  0  0  0  0  0
    2.0000   -2.3512    0.0000 C   0  0  0  0  0  0  0  0  0  0  0  0
    3.7320   -2.3512    0.0000 C   0  0  0  0  0  0  0  0  0  0  0  0
    5.4641    2.6488    0.0000 C   0  0  0  0  0  0  0  0  0  0  0  0
    7.0468    2.9852    0.0000 C   0  0  0  0  0  0  0  0  0  0  0  0
    6.3776    2.2420    0.0000 C   0  0  0  0  0  0  0  0  0  0  0  0
    2.0000   -3.3512    0.0000 C   0  0  0  0  0  0  0  0  0  0  0  0
    3.7320   -3.3512    0.0000 C   0  0  0  0  0  0  0  0  0  0  0  0
    2.8660   -3.8512    0.0000 C   0  0  0  0  0  0  0  0  0  0  0  0
    4.5981    1.1488    0.0000 C   0  0  0  0  0  0  0  0  0  0  0  0
    3.7320    0.6488    0.0000 C   0  0  0  0  0  0  0  0  0  0  0  0
    8.0413    2.8807    0.0000 C   0  0  0  0  0  0  0  0  0  0  0  0
    2.6540   -0.2686    0.0000 H   0  0  0  0  0  0  0  0  0  0  0  0
    2.2554   -0.9589    0.0000 H   0  0  0  0  0  0  0  0  0  0  0  0
    1.4631   -2.0412    0.0000 H   0  0  0  0  0  0  0  0  0  0  0  0
    4.2690   -2.0412    0.0000 H   0  0  0  0  0  0  0  0  0  0  0  0
    6.5066    1.6356    0.0000 H   0  0  0  0  0  0  0  0  0  0  0  0
    1.4631   -3.6612    0.0000 H   0  0  0  0  0  0  0  0  0  0  0  0
    4.2690   -3.6612    0.0000 H   0  0  0  0  0  0  0  0  0  0  0  0
    4.0611    2.4588    0.0000 H   0  0  0  0  0  0  0  0  0  0  0  0
    2.8660   -4.4712    0.0000 H   0  0  0  0  0  0  0  0  0  0  0  0
    7.9765    2.2641    0.0000 H   0  0  0  0  0  0  0  0  0  0  0  0
    8.6579    2.8159    0.0000 H   0  0  0  0  0  0  0  0  0  0  0  0
    8.1061    3.4973    0.0000 H   0  0  0  0  0  0  0  0  0  0  0  0
  1  8  1  0  0  0  0
  1 18  1  0  0  0  0
  2  6  1  0  0  0  0
  2 12  1  0  0  0  0
  3 17  2  0  0  0  0
  4 18  2  0  0  0  0
  5 11  1  0  0  0  0
  5 17  1  0  0  0  0
  5 27  1  0  0  0  0
  6 11  2  0  0  0  0
  7  8  1  0  0  0  0
  7  9  2  0  0  0  0
  7 10  1  0  0  0  0
  8 20  1  0  0  0  0
  8 21  1  0  0  0  0
  9 14  1  0  0  0  0
  9 22  1  0  0  0  0
 10 15  2  0  0  0  0
 10 23  1  0  0  0  0
 11 13  1  0  0  0  0
 12 13  2  0  0  0  0
 12 19  1  0  0  0  0
 13 24  1  0  0  0  0
 14 16  2  0  0  0  0
 14 25  1  0  0  0  0
 15 16  1  0  0  0  0
 15 26  1  0  0  0  0
 16 28  1  0  0  0  0
 17 18  1  0  0  0  0
 19 29  1  0  0  0  0
 19 30  1  0  0  0  0
 19 31  1  0  0  0  0
M  END
> <PUBCHEM_COMPOUND_CID>
47205620

> <PUBCHEM_COMPOUND_CANONICALIZED>
1

> <PUBCHEM_CACTVS_COMPLEXITY>
329

> <PUBCHEM_CACTVS_HBOND_ACCEPTOR>
5

> <PUBCHEM_CACTVS_HBOND_DONOR>
1

> <PUBCHEM_CACTVS_ROTATABLE_BOND>
5

> <PUBCHEM_CACTVS_SUBSKEYS>
AAADccBzOAAAAAAAAAAAAAAAAAAAAWAAAAAwAAAAAAAAAAABwAAAHgAUAAAADAShmgIzvJLQBACpAqPyegKCAAAlIgApmCH2bNqKJirAubyHMIhm1QvY6EeAwCAOAAAAAAAAAAAAAAAAAAAAAAAAAAAAAA==

> <PUBCHEM_IUPAC_OPENEYE_NAME>
benzyl 2-[(5-methylisoxazol-3-yl)amino]-2-oxo-acetate

> <PUBCHEM_IUPAC_CAS_NAME>
2-[(5-methyl-3-isoxazolyl)amino]-2-oxoacetic acid (phenylmethyl) ester

> <PUBCHEM_IUPAC_NAME>
benzyl 2-[(5-methyl-1,2-oxazol-3-yl)amino]-2-oxoacetate

> <PUBCHEM_IUPAC_SYSTEMATIC_NAME>
(phenylmethyl) 2-[(5-methyl-1,2-oxazol-3-yl)amino]-2-oxidanylidene-ethanoate

> <PUBCHEM_IUPAC_TRADITIONAL_NAME>
2-keto-2-[(5-methylisoxazol-3-yl)amino]acetic acid benzyl ester

> <PUBCHEM_IUPAC_INCHI>
InChI=1S/C13H12N2O4/c1-9-7-11(15-19-9)14-12(16)13(17)18-8-10-5-3-2-4-6-10/h2-7H,8H2,1H3,(H,14,15,16)

> <PUBCHEM_IUPAC_INCHIKEY>
XBXHIBWOGUUFPN-UHFFFAOYSA-N

> <PUBCHEM_XLOGP3_AA>
2.1

> <PUBCHEM_EXACT_MASS>
260.079707

> <PUBCHEM_MOLECULAR_FORMULA>
C13H12N2O4

> <PUBCHEM_MOLECULAR_WEIGHT>
260.24538

> <PUBCHEM_OPENEYE_CAN_SMILES>
CC1=CC(=NO1)NC(=O)C(=O)OCC2=CC=CC=C2

> <PUBCHEM_OPENEYE_ISO_SMILES>
CC1=CC(=NO1)NC(=O)C(=O)OCC2=CC=CC=C2

> <PUBCHEM_CACTVS_TPSA>
81.4

> <PUBCHEM_MONOISOTOPIC_WEIGHT>
260.079707

> <PUBCHEM_TOTAL_CHARGE>
0

> <PUBCHEM_HEAVY_ATOM_COUNT>
19

> <PUBCHEM_ATOM_DEF_STEREO_COUNT>
0

> <PUBCHEM_ATOM_UDEF_STEREO_COUNT>
0

> <PUBCHEM_BOND_DEF_STEREO_COUNT>
0

> <PUBCHEM_BOND_UDEF_STEREO_COUNT>
0

> <PUBCHEM_ISOTOPIC_ATOM_COUNT>
0

> <PUBCHEM_COMPONENT_COUNT>
1

> <PUBCHEM_CACTVS_TAUTO_COUNT>
8

> <PUBCHEM_COORDINATE_TYPE>
1
5
255

> <PUBCHEM_BONDANNOTATIONS>
10  15  8
11  13  8
12  13  8
14  16  8
15  16  8
2  12  8
2  6  8
6  11  8
7  10  8
7  9  8
9  14  8

$$$$

