4335
  -OEChem-06261200033D

 32 32  0     1  0  0  0  0  0999 V2000
   -1.2707    0.5227    2.0516 O   0  0  0  0  0  0  0  0  0  0  0  0
   -1.9914   -2.3516   -1.0678 O   0  0  0  0  0  0  0  0  0  0  0  0
   -4.2261    1.4725   -1.1518 O   0  0  0  0  0  0  0  0  0  0  0  0
    5.3044   -0.6547   -0.1863 O   0  5  0  0  0  0  0  0  0  0  0  0
    4.9034    1.4120   -0.8085 O   0  0  0  0  0  0  0  0  0  0  0  0
   -3.3235   -0.1383    0.2644 N   0  0  0  0  0  0  0  0  0  0  0  0
    4.5168    0.3074   -0.3561 N   0  3  0  0  0  0  0  0  0  0  0  0
   -1.9528   -0.0642   -0.2047 C   0  0  1  0  0  0  0  0  0  0  0  0
   -0.9887   -0.3636    0.9635 C   0  0  1  0  0  0  0  0  0  0  0  0
    0.4715   -0.1856    0.6144 C   0  0  0  0  0  0  0  0  0  0  0  0
   -1.7787   -0.9893   -1.4150 C   0  0  0  0  0  0  0  0  0  0  0  0
    1.3457   -1.2430    0.8001 C   0  0  0  0  0  0  0  0  0  0  0  0
    0.9043    1.0314    0.1152 C   0  0  0  0  0  0  0  0  0  0  0  0
   -4.3388    0.6408   -0.2552 C   0  0  0  0  0  0  0  0  0  0  0  0
    2.6928   -1.0788    0.4775 C   0  0  0  0  0  0  0  0  0  0  0  0
    2.2514    1.1957   -0.2076 C   0  0  0  0  0  0  0  0  0  0  0  0
    3.1457    0.1405   -0.0266 C   0  0  0  0  0  0  0  0  0  0  0  0
   -5.6652    0.3460    0.3926 C   0  0  0  0  0  0  0  0  0  0  0  0
   -1.8047    0.9671   -0.5473 H   0  0  0  0  0  0  0  0  0  0  0  0
   -1.1671   -1.3789    1.3396 H   0  0  0  0  0  0  0  0  0  0  0  0
   -0.7728   -0.8960   -1.8366 H   0  0  0  0  0  0  0  0  0  0  0  0
   -2.4962   -0.7297   -2.2014 H   0  0  0  0  0  0  0  0  0  0  0  0
   -3.5533   -0.8506    0.9519 H   0  0  0  0  0  0  0  0  0  0  0  0
    1.0045   -2.1973    1.1908 H   0  0  0  0  0  0  0  0  0  0  0  0
    0.2260    1.8681   -0.0204 H   0  0  0  0  0  0  0  0  0  0  0  0
   -2.2109    0.4187    2.2766 H   0  0  0  0  0  0  0  0  0  0  0  0
    3.3605   -1.9227    0.6313 H   0  0  0  0  0  0  0  0  0  0  0  0
    2.5690    2.1604   -0.5952 H   0  0  0  0  0  0  0  0  0  0  0  0
   -1.8642   -2.8757   -1.8770 H   0  0  0  0  0  0  0  0  0  0  0  0
   -6.3836    1.1283    0.1323 H   0  0  0  0  0  0  0  0  0  0  0  0
   -6.0378   -0.6184    0.0367 H   0  0  0  0  0  0  0  0  0  0  0  0
   -5.5599    0.3173    1.4810 H   0  0  0  0  0  0  0  0  0  0  0  0
  1  9  1  0  0  0  0
  1 26  1  0  0  0  0
  2 11  1  0  0  0  0
  2 29  1  0  0  0  0
  3 14  2  0  0  0  0
  4  7  1  0  0  0  0
  5  7  2  0  0  0  0
  6  8  1  0  0  0  0
  6 14  1  0  0  0  0
  6 23  1  0  0  0  0
  7 17  1  0  0  0  0
  8  9  1  0  0  0  0
  8 11  1  0  0  0  0
  8 19  1  0  0  0  0
  9 10  1  0  0  0  0
  9 20  1  0  0  0  0
 10 12  2  0  0  0  0
 10 13  1  0  0  0  0
 11 21  1  0  0  0  0
 11 22  1  0  0  0  0
 12 15  1  0  0  0  0
 12 24  1  0  0  0  0
 13 16  2  0  0  0  0
 13 25  1  0  0  0  0
 14 18  1  0  0  0  0
 15 17  2  0  0  0  0
 15 27  1  0  0  0  0
 16 17  1  0  0  0  0
 16 28  1  0  0  0  0
 18 30  1  0  0  0  0
 18 31  1  0  0  0  0
 18 32  1  0  0  0  0
M  CHG  2   4  -1   7   1
M  END
> <PUBCHEM_COMPOUND_CID>
4335

> <PUBCHEM_CONFORMER_RMSD>
0.8

> <PUBCHEM_CONFORMER_DIVERSEORDER>
1
5
13
15
12
6
11
7
10
20
4
8
14
19
18
9
17
16
22
21
2
3

> <PUBCHEM_MMFF94_PARTIAL_CHARGES>
25
1 -0.68
10 -0.14
11 0.28
12 -0.15
13 -0.15
14 0.57
15 -0.15
16 -0.15
17 0.13
18 0.06
2 -0.68
23 0.37
24 0.15
25 0.15
26 0.4
27 0.15
28 0.15
29 0.4
3 -0.57
4 -0.52
5 -0.52
6 -0.73
7 0.91
8 0.3
9 0.42

> <PUBCHEM_EFFECTIVE_ROTOR_COUNT>
6

> <PUBCHEM_PHARMACOPHORE_FEATURES>
10
1 1 acceptor
1 1 donor
1 2 acceptor
1 2 donor
1 3 acceptor
1 4 acceptor
1 4 anion
1 5 acceptor
1 6 donor
6 10 12 13 15 16 17 rings

> <PUBCHEM_HEAVY_ATOM_COUNT>
18

> <PUBCHEM_ATOM_DEF_STEREO_COUNT>
0

> <PUBCHEM_ATOM_UDEF_STEREO_COUNT>
2

> <PUBCHEM_BOND_DEF_STEREO_COUNT>
0

> <PUBCHEM_BOND_UDEF_STEREO_COUNT>
0

> <PUBCHEM_ISOTOPIC_ATOM_COUNT>
0

> <PUBCHEM_COMPONENT_COUNT>
1

> <PUBCHEM_CACTVS_TAUTO_COUNT>
2

> <PUBCHEM_CONFORMER_ID>
000010EF00000001

> <PUBCHEM_MMFF94_ENERGY>
43.6683

> <PUBCHEM_FEATURE_SELFOVERLAP>
50.831

> <PUBCHEM_SHAPE_FINGERPRINT>
10366900 7 11887951055711925461
11401426 45 18409452471107844408
11471102 20 18201719574302658896
12236239 1 18260264161576220945
12251169 10 9583515421439598912
12730499 353 17846490448142849739
12788726 201 17313943146834053865
12815109 37 13767926831872480765
13214271 11 17703789202409060335
13533116 47 16878502457612102142
13760787 19 18409170995862530455
14115302 16 17821730502957869913
14911166 2 17385726893883723795
14943859 89 18201720656523582707
14993402 34 18040716978155479673
16752209 62 17458630081093444555
17862501 102 9367348132546723644
18186145 218 17531544126218034809
18522853 276 9943806690127230966
187816 3 17095241432416044939
19862831 5 18113338595967780664
200 152 17967532393363083512
20374829 77 14851608795159630813
20645476 183 18334019371819675375
20645477 70 18270962470113627098
20681677 155 18114185211294622123
20871999 31 18042130877427100463
21119208 17 18260267447205122648
22224240 67 15697995237510063497
23402539 116 12175621755102238411
23402655 69 18412829100748642612
23557571 272 14979960314992879510
23559900 14 17313110709648196690
25 1 17989213658914194938
2916195 48 17132116827212878573
347723 3 17676204693382947809
3545911 37 18201998833081532585
4047638 21 16989124258073544168
4072396 5 18131362920953740824
633830 44 17774724173790122606

> <PUBCHEM_SHAPE_MULTIPOLES>
331.12
10.63
1.48
1.19
0.66
0.31
0.15
-2.97
-1.87
-0.08
-0.43
0.68
0.14
-0.53

> <PUBCHEM_SHAPE_SELFOVERLAP>
680.114

> <PUBCHEM_SHAPE_VOLUME>
190.5

> <PUBCHEM_COORDINATE_TYPE>
2
5
10

$$$$

