47205555
  -OEChem-06241222593D

 29 29  0     1  0  0  0  0  0999 V2000
   -3.2669    0.1924    0.5496 S   0  0  0  0  0  0  0  0  0  0  0  0
   -4.4028    1.0316    0.2148 O   0  0  0  0  0  0  0  0  0  0  0  0
   -3.4534   -1.1981    0.9213 O   0  0  0  0  0  0  0  0  0  0  0  0
   -0.8213   -1.6963   -0.2468 O   0  0  0  0  0  0  0  0  0  0  0  0
    2.2472    2.3691   -0.3970 O   0  0  0  0  0  0  0  0  0  0  0  0
    0.2456    0.3859   -0.4204 N   0  0  0  0  0  0  0  0  0  0  0  0
   -2.1258    0.2496   -0.8032 C   0  0  1  0  0  0  0  0  0  0  0  0
   -0.8371   -0.4881   -0.4624 C   0  0  0  0  0  0  0  0  0  0  0  0
   -2.7597   -0.3355   -2.0553 C   0  0  0  0  0  0  0  0  0  0  0  0
   -2.3760    0.9884    1.8651 C   0  0  0  0  0  0  0  0  0  0  0  0
    1.5970    0.0738   -0.1386 C   0  0  0  0  0  0  0  0  0  0  0  0
    2.5714    1.0717   -0.1333 C   0  0  0  0  0  0  0  0  0  0  0  0
    1.9505   -1.2477    0.1339 C   0  0  0  0  0  0  0  0  0  0  0  0
    3.8995    0.7481    0.1443 C   0  0  0  0  0  0  0  0  0  0  0  0
    3.2786   -1.5714    0.4115 C   0  0  0  0  0  0  0  0  0  0  0  0
    4.2532   -0.5735    0.4166 C   0  0  0  0  0  0  0  0  0  0  0  0
   -1.9338    1.3130   -0.9861 H   0  0  0  0  0  0  0  0  0  0  0  0
   -3.0466   -1.3831   -1.9112 H   0  0  0  0  0  0  0  0  0  0  0  0
   -3.6601    0.2184   -2.3405 H   0  0  0  0  0  0  0  0  0  0  0  0
   -2.0594   -0.2990   -2.8968 H   0  0  0  0  0  0  0  0  0  0  0  0
   -3.0439    1.0632    2.7262 H   0  0  0  0  0  0  0  0  0  0  0  0
   -1.5036    0.3890    2.1290 H   0  0  0  0  0  0  0  0  0  0  0  0
   -2.0803    1.9870    1.5384 H   0  0  0  0  0  0  0  0  0  0  0  0
    0.0736    1.3705   -0.6103 H   0  0  0  0  0  0  0  0  0  0  0  0
    1.2601   -2.0783    0.1482 H   0  0  0  0  0  0  0  0  0  0  0  0
    4.6694    1.5150    0.1518 H   0  0  0  0  0  0  0  0  0  0  0  0
    3.5555   -2.6001    0.6234 H   0  0  0  0  0  0  0  0  0  0  0  0
    5.2873   -0.8256    0.6327 H   0  0  0  0  0  0  0  0  0  0  0  0
    3.0513    2.9141   -0.3479 H   0  0  0  0  0  0  0  0  0  0  0  0
  1  2  2  0  0  0  0
  1  3  2  0  0  0  0
  1  7  1  0  0  0  0
  1 10  1  0  0  0  0
  4  8  2  0  0  0  0
  5 12  1  0  0  0  0
  5 29  1  0  0  0  0
  6  8  1  0  0  0  0
  6 11  1  0  0  0  0
  6 24  1  0  0  0  0
  7  8  1  0  0  0  0
  7  9  1  0  0  0  0
  7 17  1  0  0  0  0
  9 18  1  0  0  0  0
  9 19  1  0  0  0  0
  9 20  1  0  0  0  0
 10 21  1  0  0  0  0
 10 22  1  0  0  0  0
 10 23  1  0  0  0  0
 11 12  1  0  0  0  0
 11 13  2  0  0  0  0
 12 14  2  0  0  0  0
 13 15  1  0  0  0  0
 13 25  1  0  0  0  0
 14 16  1  0  0  0  0
 14 26  1  0  0  0  0
 15 16  2  0  0  0  0
 15 27  1  0  0  0  0
 16 28  1  0  0  0  0
M  END
> <PUBCHEM_COMPOUND_CID>
47205555

> <PUBCHEM_CONFORMER_RMSD>
0.6

> <PUBCHEM_CONFORMER_DIVERSEORDER>
1
70
21
56
94
69
57
96
9
12
27
32
86
63
91
51
67
29
11
72
25
90
35
8
23
65
92
26
83
42
66
43
97
81
2
71
85
73
49
20
38
60
6
87
30
41
15
13
62
14
31
28
95
80
37
88
36
98
40
50
75
64
7
19
79
61
24
5
33
52
17
3
68
48
4
84
34
89
54
44
39
53
55
22
93
76
82
46
58
45
47
18
16
74
59
78
10
77

> <PUBCHEM_MMFF94_PARTIAL_CHARGES>
21
1 1.09
10 0.11
11 0.12
12 0.08
13 -0.15
14 -0.15
15 -0.15
16 -0.15
2 -0.65
24 0.37
25 0.15
26 0.15
27 0.15
28 0.15
29 0.45
3 -0.65
4 -0.57
5 -0.53
6 -0.55
7 0.17
8 0.57

> <PUBCHEM_EFFECTIVE_ROTOR_COUNT>
4

> <PUBCHEM_PHARMACOPHORE_FEATURES>
6
1 2 acceptor
1 3 acceptor
1 4 acceptor
1 5 donor
1 6 donor
6 11 12 13 14 15 16 rings

> <PUBCHEM_HEAVY_ATOM_COUNT>
16

> <PUBCHEM_ATOM_DEF_STEREO_COUNT>
0

> <PUBCHEM_ATOM_UDEF_STEREO_COUNT>
1

> <PUBCHEM_BOND_DEF_STEREO_COUNT>
0

> <PUBCHEM_BOND_UDEF_STEREO_COUNT>
0

> <PUBCHEM_ISOTOPIC_ATOM_COUNT>
0

> <PUBCHEM_COMPONENT_COUNT>
1

> <PUBCHEM_CACTVS_TAUTO_COUNT>
8

> <PUBCHEM_CONFORMER_ID>
02D04CB300000001

> <PUBCHEM_MMFF94_ENERGY>
37.6229

> <PUBCHEM_FEATURE_SELFOVERLAP>
30.468

> <PUBCHEM_SHAPE_FINGERPRINT>
10366900 7 16988560190906373682
11471102 20 18341619221986546750
11615757 297 18410853248336074978
12236239 1 18040438806013868304
12251169 10 18410572877234687006
12500047 106 15625958580672558935
12507557 5 18412265025566595968
12932764 1 17275113833327060395
13296908 3 17418099823156245878
13675066 3 18113336435594079498
14004511 7 18113619005776764630
14144814 61 18410014346960706426
15309172 13 18410575097664447743
15653759 3 17203892980506830836
17844478 74 17632860845151053308
18186145 218 18341617027137140558
18219364 16 18130797762527454838
19049666 15 17273429476002510150
200 152 18262247633798991479
20233049 118 17385442141931505672
20279233 1 17489314100218118903
20645477 56 15647050465152259699
20645477 70 18199767975418184686
20715346 28 17560809817975689703
22854114 111 18341894056843694828
23048698 100 18408320007805242801
23402539 116 17458637717176174380
23557571 272 14779555551997309815
26918003 58 18343586260735735640
3268164 11 15213592242650404289
4028521 119 13840539726880458875
5104073 3 18341616992766645544
602551 16 15625934322802786136
6049 1 17561370586138576252
74978 22 18336550417368654438
7615 1 17895486833754888692
77492 1 18040439888546080572

> <PUBCHEM_SHAPE_MULTIPOLES>
304.66
8.34
1.64
1.28
0.36
0.25
-0.11
0.52
1.29
0.83
0.07
-1.49
0.05
-0.86

> <PUBCHEM_SHAPE_SELFOVERLAP>
614.406

> <PUBCHEM_SHAPE_VOLUME>
179.1

> <PUBCHEM_COORDINATE_TYPE>
2
5
10

$$$$

