4832
  -OEChem-06261200213D

 54 56  0     1  0  0  0  0  0999 V2000
    1.0094   -0.2796   -0.4093 O   0  0  0  0  0  0  0  0  0  0  0  0
   -0.7019   -0.4546    1.6289 O   0  0  0  0  0  0  0  0  0  0  0  0
   -0.4716   -1.8091   -1.2782 O   0  0  0  0  0  0  0  0  0  0  0  0
    4.0360   -0.3257    0.3271 N   0  3  1  0  0  0  0  0  0  0  0  0
    3.3390   -0.0451   -1.0155 C   0  0  0  0  0  0  0  0  0  0  0  0
    4.1958   -1.8295    0.5660 C   0  0  0  0  0  0  0  0  0  0  0  0
    2.0483   -0.8396   -1.2049 C   0  0  1  0  0  0  0  0  0  0  0  0
    2.8682   -2.5646    0.4489 C   0  0  0  0  0  0  0  0  0  0  0  0
    2.2157   -2.3248   -0.9055 C   0  0  0  0  0  0  0  0  0  0  0  0
    5.4416    0.2937    0.2610 C   0  0  0  0  0  0  0  0  0  0  0  0
    3.3134    0.3440    1.4960 C   0  0  0  0  0  0  0  0  0  0  0  0
    5.3198    1.7785   -0.0028 C   0  0  0  0  0  0  0  0  0  0  0  0
   -0.2258   -0.8636   -0.5388 C   0  0  0  0  0  0  0  0  0  0  0  0
   -1.2569   -0.1439    0.3345 C   0  0  0  0  0  0  0  0  0  0  0  0
   -2.6747   -0.7086    0.2169 C   0  0  0  0  0  0  0  0  0  0  0  0
   -1.2540    1.3718    0.1239 C   0  0  0  0  0  0  0  0  0  0  0  0
   -3.3549   -0.5391   -0.9670 C   0  0  0  0  0  0  0  0  0  0  0  0
   -1.4167    2.1892    1.2187 C   0  0  0  0  0  0  0  0  0  0  0  0
   -3.2144   -1.3635    1.2996 C   0  0  0  0  0  0  0  0  0  0  0  0
   -1.0891    1.8593   -1.1521 C   0  0  0  0  0  0  0  0  0  0  0  0
   -4.6471   -1.0532   -1.0740 C   0  0  0  0  0  0  0  0  0  0  0  0
   -1.4145    3.5709    1.0268 C   0  0  0  0  0  0  0  0  0  0  0  0
   -4.5066   -1.8778    1.1926 C   0  0  0  0  0  0  0  0  0  0  0  0
   -1.0868    3.2408   -1.3440 C   0  0  0  0  0  0  0  0  0  0  0  0
   -5.2229   -1.7226    0.0057 C   0  0  0  0  0  0  0  0  0  0  0  0
   -1.2495    4.0967   -0.2546 C   0  0  0  0  0  0  0  0  0  0  0  0
    4.0528   -0.3093   -1.8046 H   0  0  0  0  0  0  0  0  0  0  0  0
    3.1043    1.0225   -1.0629 H   0  0  0  0  0  0  0  0  0  0  0  0
    4.6345   -1.9623    1.5615 H   0  0  0  0  0  0  0  0  0  0  0  0
    4.9035   -2.2039   -0.1835 H   0  0  0  0  0  0  0  0  0  0  0  0
    1.7474   -0.7202   -2.2544 H   0  0  0  0  0  0  0  0  0  0  0  0
    2.1819   -2.2855    1.2547 H   0  0  0  0  0  0  0  0  0  0  0  0
    3.0526   -3.6390    0.5696 H   0  0  0  0  0  0  0  0  0  0  0  0
    2.8777   -2.7461   -1.6750 H   0  0  0  0  0  0  0  0  0  0  0  0
    1.3138   -2.9333   -0.9484 H   0  0  0  0  0  0  0  0  0  0  0  0
    5.9442    0.0940    1.2142 H   0  0  0  0  0  0  0  0  0  0  0  0
    5.9949   -0.2046   -0.5432 H   0  0  0  0  0  0  0  0  0  0  0  0
    2.4284   -0.2389    1.7536 H   0  0  0  0  0  0  0  0  0  0  0  0
    3.9840    0.3717    2.3601 H   0  0  0  0  0  0  0  0  0  0  0  0
    2.9892    1.3471    1.2086 H   0  0  0  0  0  0  0  0  0  0  0  0
    6.3307    2.2056    0.0024 H   0  0  0  0  0  0  0  0  0  0  0  0
    4.9145    2.0185   -0.9889 H   0  0  0  0  0  0  0  0  0  0  0  0
    4.7690    2.3294    0.7623 H   0  0  0  0  0  0  0  0  0  0  0  0
    0.0973    0.0835    1.7633 H   0  0  0  0  0  0  0  0  0  0  0  0
   -2.9251   -0.0455   -1.8304 H   0  0  0  0  0  0  0  0  0  0  0  0
   -1.5615    1.8013    2.2219 H   0  0  0  0  0  0  0  0  0  0  0  0
   -2.6894   -1.5022    2.2382 H   0  0  0  0  0  0  0  0  0  0  0  0
   -0.9571    1.2156   -2.0156 H   0  0  0  0  0  0  0  0  0  0  0  0
   -5.2030   -0.9375   -1.9999 H   0  0  0  0  0  0  0  0  0  0  0  0
   -1.5446    4.2373    1.8744 H   0  0  0  0  0  0  0  0  0  0  0  0
   -4.9556   -2.3991    2.0330 H   0  0  0  0  0  0  0  0  0  0  0  0
   -0.9575    3.6505   -2.3416 H   0  0  0  0  0  0  0  0  0  0  0  0
   -6.2285   -2.1242   -0.0781 H   0  0  0  0  0  0  0  0  0  0  0  0
   -1.2483    5.1724   -0.4043 H   0  0  0  0  0  0  0  0  0  0  0  0
  1  7  1  0  0  0  0
  1 13  1  0  0  0  0
  2 14  1  0  0  0  0
  2 44  1  0  0  0  0
  3 13  2  0  0  0  0
  4  5  1  0  0  0  0
  4  6  1  0  0  0  0
  4 10  1  0  0  0  0
  4 11  1  0  0  0  0
  5  7  1  0  0  0  0
  5 27  1  0  0  0  0
  5 28  1  0  0  0  0
  6  8  1  0  0  0  0
  6 29  1  0  0  0  0
  6 30  1  0  0  0  0
  7  9  1  0  0  0  0
  7 31  1  0  0  0  0
  8  9  1  0  0  0  0
  8 32  1  0  0  0  0
  8 33  1  0  0  0  0
  9 34  1  0  0  0  0
  9 35  1  0  0  0  0
 10 12  1  0  0  0  0
 10 36  1  0  0  0  0
 10 37  1  0  0  0  0
 11 38  1  0  0  0  0
 11 39  1  0  0  0  0
 11 40  1  0  0  0  0
 12 41  1  0  0  0  0
 12 42  1  0  0  0  0
 12 43  1  0  0  0  0
 13 14  1  0  0  0  0
 14 15  1  0  0  0  0
 14 16  1  0  0  0  0
 15 17  2  0  0  0  0
 15 19  1  0  0  0  0
 16 18  2  0  0  0  0
 16 20  1  0  0  0  0
 17 21  1  0  0  0  0
 17 45  1  0  0  0  0
 18 22  1  0  0  0  0
 18 46  1  0  0  0  0
 19 23  2  0  0  0  0
 19 47  1  0  0  0  0
 20 24  2  0  0  0  0
 20 48  1  0  0  0  0
 21 25  2  0  0  0  0
 21 49  1  0  0  0  0
 22 26  2  0  0  0  0
 22 50  1  0  0  0  0
 23 25  1  0  0  0  0
 23 51  1  0  0  0  0
 24 26  1  0  0  0  0
 24 52  1  0  0  0  0
 25 53  1  0  0  0  0
 26 54  1  0  0  0  0
M  CHG  1   4   1
M  END
> <PUBCHEM_COMPOUND_CID>
4832

> <PUBCHEM_CONFORMER_RMSD>
0.8

> <PUBCHEM_CONFORMER_DIVERSEORDER>
2
125
336
421
166
301
130
63
163
498
478
360
337
416
394
473
410
279
65
261
151
316
334
122
328
41
93
408
321
118
388
395
218
369
272
359
387
190
482
220
84
355
274
303
142
127
487
101
126
458
486
52
178
24
222
250
260
145
352
401
12
324
445
56
136
293
358
23
226
174
45
161
89
214
51
449
397
318
211
364
203
488
414
431
379
212
236
181
15
36
32
43
248
224
225
382
257
323
140
349
429
459
46
179
277
306
322
430
391
238
483
393
149
76
302
406
217
39
426
425
165
373
180
113
420
305
171
390
168
207
234
98
427
366
315
50
30
398
494
489
259
183
135
462
172
287
5
177
108
404
150
210
227
422
9
249
244
490
103
94
407
484
85
197
62
403
455
120
81
267
201
264
38
139
49
208
417
466
40
368
107
219
77
92
418
115
480
82
263
215
370
213
367
485
144
457
192
191
347
265
21
152
297
28
493
78
14
280
6
433
463
1
434
156
11
255
365
338
16
194
381
8
361
124
64
320
253
413
173
442
309
186
311
345
454
423
450
27
444
335
61
436
184
229
164
216
114
158
102
332
148
308
129
69
363
439
377
343
60
500
223
47
245
48
481
392
80
460
491
495
384
235
317
110
341
221
128
492
58
419
374
29
83
3
296
456
87
262
91
289
182
300
465
170
26
167
451
86
310
298
54
281
123
435
200
378
232
331
333
79
380
252
96
53
273
59
104
385
295
66
464
282
71
278
121
35
294
90
75
105
189
134
138
99
461
268
477
344
33
475
70
441
476
353
474
299
269
73
20
196
176
57
175
202
42
479
256
237
470
254
258
147
157
4
402
162
330
169
499
31
141
275
116
131
204
312
288
452
228
497
233
44
187
67
185
440
468
412
292
155
448
137
396
307
17
100
117
284
276
362
106
159
243
496
428
55
314
327
326
286
153
339
19
143
193
13
88
342
346
424
325
432
247
266
383
386
290
270
209
251
376
25
319
231
246
350
198
453
304
195
37
188
132
329
467
242
199
160
438
97
240
68
133
437
357
405
356
469
472
34
283
271
415
372
10
7
400
313
239
112
409
119
22
146
446
411
95
72
285
371
154
375
291
443
205
74
206
471
111
230
351
348
399
18
340
354
447
109
241
389

> <PUBCHEM_MMFF94_PARTIAL_CHARGES>
34
1 -0.43
10 0.5
11 0.5
13 0.66
14 0.63
15 -0.14
16 -0.14
17 -0.15
18 -0.15
19 -0.15
2 -0.68
20 -0.15
21 -0.15
22 -0.15
23 -0.15
24 -0.15
25 -0.15
26 -0.15
3 -0.57
4 -1.01
44 0.4
45 0.15
46 0.15
47 0.15
48 0.15
49 0.15
5 0.5
50 0.15
51 0.15
52 0.15
53 0.15
54 0.15
6 0.5
7 0.28

> <PUBCHEM_EFFECTIVE_ROTOR_COUNT>
7.2

> <PUBCHEM_PHARMACOPHORE_FEATURES>
7
1 2 acceptor
1 2 donor
1 3 acceptor
1 4 cation
6 15 17 19 21 23 25 rings
6 16 18 20 22 24 26 rings
6 4 5 6 7 8 9 rings

> <PUBCHEM_HEAVY_ATOM_COUNT>
26

> <PUBCHEM_ATOM_DEF_STEREO_COUNT>
0

> <PUBCHEM_ATOM_UDEF_STEREO_COUNT>
2

> <PUBCHEM_BOND_DEF_STEREO_COUNT>
0

> <PUBCHEM_BOND_UDEF_STEREO_COUNT>
0

> <PUBCHEM_ISOTOPIC_ATOM_COUNT>
0

> <PUBCHEM_COMPONENT_COUNT>
1

> <PUBCHEM_CACTVS_TAUTO_COUNT>
1

> <PUBCHEM_CONFORMER_ID>
000012E000000002

> <PUBCHEM_MMFF94_ENERGY>
86.0158

> <PUBCHEM_FEATURE_SELFOVERLAP>
35.52

> <PUBCHEM_SHAPE_FINGERPRINT>
10366900 7 18412257325180903218
10670039 82 18339344324451148172
10930396 42 18050882973004587664
1100329 8 17977097964346870940
11045515 52 18343022173180535277
11101153 10 18340757179486039636
11578080 2 16880164927772522057
11595378 159 18408602582689395406
12403814 3 18187651318567040159
12422481 6 18045757217558102361
12516196 113 18339922624095438723
12553582 1 18267279007365611119
12596602 18 17417540125142096240
12788726 201 18271535263783398891
13004483 165 18410296943108919951
13134695 92 18338233740107207445
13140716 1 18120372047666033166
13224815 77 18261671566614527790
13544653 18 18409445869537531391
13681431 1 18267860584855848237
13911987 19 18127676150300607702
14223421 5 18337388361235562094
14787075 74 18200033923956095522
14840074 17 18114178575564544199
14955137 171 18047183060410423635
17349148 13 17632290198674603782
17492 89 18338800147161791698
17809404 112 13183015233799559512
1813 80 18262506019036527055
18769570 83 18272933864893103141
18785283 64 17908694035032613027
20600515 1 17987783147363636575
21033650 10 13972569147521539086
21049683 271 18126563419275236157
21304303 282 17625009366172911725
21524375 3 17405414989625095809
21703447 108 18340213010987221354
22907989 373 18190477123385041117
23419403 2 18196674929119023733
23557571 272 18411986900706366141
23558518 356 18128527356925862682
23559900 14 18060420244032733502
283562 15 18341614858094253691
312423 11 18268980042179975814
3187 122 18412272739264932792
3493558 16 17918278649295575221
350125 39 18335136557406451982
3886686 26 17405737124967937218
469060 322 18340194237479137120
5104073 3 18265622164092150658
5283173 99 18129393742572646221
6004065 56 18266466404217667615
6913067 236 18114478802337294510
7097593 13 17624132002927830242
7164475 11 18340766064960796646
7399639 24 18187363251037135014
81228 2 18197200646069007541
9981440 41 17392228469005077402

> <PUBCHEM_SHAPE_MULTIPOLES>
512.48
10.14
3.94
1.44
5.59
4.39
0.09
-5.04
1.12
-1.7
-0.03
-0.43
0.07
0.35

> <PUBCHEM_SHAPE_SELFOVERLAP>
1090.009

> <PUBCHEM_SHAPE_VOLUME>
283.7

> <PUBCHEM_COORDINATE_TYPE>
2
5
10

$$$$

