13313
  -OEChem-06261208513D

 44 47  0     1  0  0  0  0  0999 V2000
    4.7646    0.5380    0.5848 O   0  0  0  0  0  0  0  0  0  0  0  0
   -5.9261    0.5845   -0.7734 O   0  0  0  0  0  0  0  0  0  0  0  0
    1.4632   -0.7662   -0.2966 C   0  0  2  0  0  0  0  0  0  0  0  0
    2.3352    0.0588    0.6843 C   0  0  1  0  0  0  0  0  0  0  0  0
    0.1128   -1.1357    0.3205 C   0  0  1  0  0  0  0  0  0  0  0  0
    3.6081    0.2495   -0.1902 C   0  0  2  0  0  0  0  0  0  0  0  0
    2.4113   -1.8525   -0.7853 C   0  0  0  0  0  0  0  0  0  0  0  0
    3.7808   -1.1422   -0.8612 C   0  0  0  0  0  0  0  0  0  0  0  0
   -0.6498    0.1651    0.6511 C   0  0  0  0  0  0  0  0  0  0  0  0
   -0.6902   -2.0769   -0.5833 C   0  0  0  0  0  0  0  0  0  0  0  0
    1.5396    1.2718    1.0996 C   0  0  0  0  0  0  0  0  0  0  0  0
    2.6940   -0.6829    2.0016 C   0  0  0  0  0  0  0  0  0  0  0  0
    0.1934    1.2880    1.0928 C   0  0  0  0  0  0  0  0  0  0  0  0
   -1.9984    0.2481    0.5103 C   0  0  0  0  0  0  0  0  0  0  0  0
   -2.0973   -2.2395   -0.0233 C   0  0  0  0  0  0  0  0  0  0  0  0
   -2.7885   -0.9005    0.0325 C   0  0  0  0  0  0  0  0  0  0  0  0
    3.4591    1.3007   -1.2166 C   0  0  0  0  0  0  0  0  0  0  0  0
   -2.8360    1.4709    0.8392 C   0  0  0  0  0  0  0  0  0  0  0  0
   -4.0645   -0.7983   -0.3768 C   0  0  0  0  0  0  0  0  0  0  0  0
   -3.9067    1.7465   -0.2082 C   0  0  0  0  0  0  0  0  0  0  0  0
   -4.7424    0.5171   -0.4511 C   0  0  0  0  0  0  0  0  0  0  0  0
    3.3378    2.1556   -2.0506 C   0  0  0  0  0  0  0  0  0  0  0  0
    1.2323   -0.1531   -1.1851 H   0  0  0  0  0  0  0  0  0  0  0  0
    0.2737   -1.6690    1.2664 H   0  0  0  0  0  0  0  0  0  0  0  0
    2.1138   -2.2461   -1.7627 H   0  0  0  0  0  0  0  0  0  0  0  0
    2.4539   -2.6963   -0.0881 H   0  0  0  0  0  0  0  0  0  0  0  0
    4.5354   -1.7482   -0.3452 H   0  0  0  0  0  0  0  0  0  0  0  0
    4.1076   -1.0585   -1.9048 H   0  0  0  0  0  0  0  0  0  0  0  0
   -0.2023   -3.0574   -0.6343 H   0  0  0  0  0  0  0  0  0  0  0  0
   -0.7353   -1.6865   -1.6088 H   0  0  0  0  0  0  0  0  0  0  0  0
    2.0797    2.1415    1.4638 H   0  0  0  0  0  0  0  0  0  0  0  0
    3.2191   -1.6265    1.8244 H   0  0  0  0  0  0  0  0  0  0  0  0
    3.3456   -0.0648    2.6318 H   0  0  0  0  0  0  0  0  0  0  0  0
    1.8099   -0.9124    2.6063 H   0  0  0  0  0  0  0  0  0  0  0  0
   -0.2824    2.1995    1.4358 H   0  0  0  0  0  0  0  0  0  0  0  0
   -2.0552   -2.6699    0.9855 H   0  0  0  0  0  0  0  0  0  0  0  0
   -2.6499   -2.9493   -0.6507 H   0  0  0  0  0  0  0  0  0  0  0  0
    5.5414    0.4825    0.0019 H   0  0  0  0  0  0  0  0  0  0  0  0
   -3.3168    1.3001    1.8122 H   0  0  0  0  0  0  0  0  0  0  0  0
   -2.2429    2.3823    0.9406 H   0  0  0  0  0  0  0  0  0  0  0  0
   -4.6307   -1.6604   -0.7133 H   0  0  0  0  0  0  0  0  0  0  0  0
   -3.4605    2.0550   -1.1604 H   0  0  0  0  0  0  0  0  0  0  0  0
   -4.5610    2.5511    0.1449 H   0  0  0  0  0  0  0  0  0  0  0  0
    3.2294    2.9138   -2.7904 H   0  0  0  0  0  0  0  0  0  0  0  0
  1  6  1  0  0  0  0
  1 38  1  0  0  0  0
  2 21  2  0  0  0  0
  3  4  1  0  0  0  0
  3  5  1  0  0  0  0
  3  7  1  0  0  0  0
  3 23  1  0  0  0  0
  4  6  1  0  0  0  0
  4 11  1  0  0  0  0
  4 12  1  0  0  0  0
  5  9  1  0  0  0  0
  5 10  1  0  0  0  0
  5 24  1  0  0  0  0
  6  8  1  0  0  0  0
  6 17  1  0  0  0  0
  7  8  1  0  0  0  0
  7 25  1  0  0  0  0
  7 26  1  0  0  0  0
  8 27  1  0  0  0  0
  8 28  1  0  0  0  0
  9 13  1  0  0  0  0
  9 14  2  0  0  0  0
 10 15  1  0  0  0  0
 10 29  1  0  0  0  0
 10 30  1  0  0  0  0
 11 13  2  0  0  0  0
 11 31  1  0  0  0  0
 12 32  1  0  0  0  0
 12 33  1  0  0  0  0
 12 34  1  0  0  0  0
 13 35  1  0  0  0  0
 14 16  1  0  0  0  0
 14 18  1  0  0  0  0
 15 16  1  0  0  0  0
 15 36  1  0  0  0  0
 15 37  1  0  0  0  0
 16 19  2  0  0  0  0
 17 22  3  0  0  0  0
 18 20  1  0  0  0  0
 18 39  1  0  0  0  0
 18 40  1  0  0  0  0
 19 21  1  0  0  0  0
 19 41  1  0  0  0  0
 20 21  1  0  0  0  0
 20 42  1  0  0  0  0
 20 43  1  0  0  0  0
 22 44  1  0  0  0  0
M  END
> <PUBCHEM_COMPOUND_CID>
13313

> <PUBCHEM_CONFORMER_RMSD>
0.6

> <PUBCHEM_CONFORMER_DIVERSEORDER>
1

> <PUBCHEM_MMFF94_PARTIAL_CHARGES>
22
1 -0.68
11 -0.29
13 -0.15
14 -0.14
15 0.14
16 -0.14
17 -0.2
18 0.14
19 -0.14
2 -0.57
20 0.06
21 0.49
22 -0.18
31 0.15
35 0.15
38 0.4
4 0.14
41 0.15
44 0.18
5 0.14
6 0.48
9 -0.14

> <PUBCHEM_EFFECTIVE_ROTOR_COUNT>
1.4

> <PUBCHEM_PHARMACOPHORE_FEATURES>
8
1 1 acceptor
1 1 donor
1 2 acceptor
1 22 hydrophobe
5 3 4 6 7 8 rings
6 14 16 18 19 20 21 rings
6 3 4 5 9 11 13 rings
6 5 9 10 14 15 16 rings

> <PUBCHEM_HEAVY_ATOM_COUNT>
22

> <PUBCHEM_ATOM_DEF_STEREO_COUNT>
4

> <PUBCHEM_ATOM_UDEF_STEREO_COUNT>
0

> <PUBCHEM_BOND_DEF_STEREO_COUNT>
0

> <PUBCHEM_BOND_UDEF_STEREO_COUNT>
0

> <PUBCHEM_ISOTOPIC_ATOM_COUNT>
0

> <PUBCHEM_COMPONENT_COUNT>
1

> <PUBCHEM_CACTVS_TAUTO_COUNT>
5

> <PUBCHEM_CONFORMER_ID>
0000340100000001

> <PUBCHEM_MMFF94_ENERGY>
60.5334

> <PUBCHEM_FEATURE_SELFOVERLAP>
40.704

> <PUBCHEM_SHAPE_FINGERPRINT>
10498660 4 18335414621582874605
10759866 29 18272650129956356354
11089746 13 17060627693623861365
11640471 11 17988348266080168708
12011746 2 18040152920269353094
12236239 1 18202570553532310770
12553582 1 17968922133068734632
12670546 177 18412259532435351733
13224815 77 18187081767201243331
14115302 16 18408317787755452492
14790565 3 18116699902500455345
15163728 17 16699742581789489588
15196674 1 18187646950664246035
15375358 24 17894356553303073178
1601671 61 18335421270187110496
16752209 62 18186801413342820505
16945 1 18114462249580581354
17349148 13 18187937217233276875
17959699 21 18201996603624513845
17980427 23 18195552315236383688
1813 80 17485663863960319130
18186145 218 18341045332303191951
19862831 5 18334011700754454651
200 152 16443069404656548291
20233049 118 18335423448189190888
20645477 70 15936412225799862896
20715895 44 18198630015359148037
21069387 34 14345787219538842255
21503847 285 17775560940677502164
221357 26 17968103053505571833
22854114 59 13038906646739933249
23227448 37 18058723607401439391
23366157 5 18053940929616702915
23559900 14 18334293206060174206
2748010 2 17466231833504359139
2838139 119 16915405375487069357
3004659 81 18337109072502732526
3060560 45 16877661262412714486
34934 24 18187092728158463554
3759504 43 18059855048122633547
4280585 95 16886369634643879942
4340502 62 16917064477981750195
474 4 17130980954634548540
495365 180 16950862335490004210
633830 44 18131350821451001943
9709674 26 18114752525335749307
9981440 41 17478886087987524992

> <PUBCHEM_SHAPE_MULTIPOLES>
441.01
9.67
2.17
1.4
6.57
0.24
0.04
-2.77
-2.8
-0.05
-0.58
-1.41
-0.46
-0.64

> <PUBCHEM_SHAPE_SELFOVERLAP>
965.122

> <PUBCHEM_SHAPE_VOLUME>
237.5

> <PUBCHEM_COORDINATE_TYPE>
2
5
10

$$$$

