582807
  -OEChem-06241222442D

 27 27  0     1  0  0  0  0  0999 V2000
    2.3100    0.7500    0.0000 O   0  0  0  0  0  0  0  0  0  0  0  0
    3.3100    1.7500    0.0000 C   0  0  0  0  0  0  0  0  0  0  0  0
    3.3100    0.7500    0.0000 C   0  0  3  0  0  0  0  0  0  0  0  0
    3.3100   -0.2500    0.0000 C   0  0  0  0  0  0  0  0  0  0  0  0
    4.1760    2.2500    0.0000 C   0  0  0  0  0  0  0  0  0  0  0  0
    2.4440    2.2500    0.0000 C   0  0  0  0  0  0  0  0  0  0  0  0
    2.4440   -0.7500    0.0000 C   0  0  0  0  0  0  0  0  0  0  0  0
    4.1760   -0.7500    0.0000 C   0  0  0  0  0  0  0  0  0  0  0  0
    4.3100    0.7500    0.0000 C   0  0  0  0  0  0  0  0  0  0  0  0
    2.4440   -1.7500    0.0000 C   0  0  0  0  0  0  0  0  0  0  0  0
    4.1760   -1.7500    0.0000 C   0  0  0  0  0  0  0  0  0  0  0  0
    3.3100   -2.2500    0.0000 C   0  0  0  0  0  0  0  0  0  0  0  0
    5.3100    0.7500    0.0000 C   0  0  0  0  0  0  0  0  0  0  0  0
    3.3100    2.3700    0.0000 H   0  0  0  0  0  0  0  0  0  0  0  0
    4.4860    1.7131    0.0000 H   0  0  0  0  0  0  0  0  0  0  0  0
    4.7130    2.5600    0.0000 H   0  0  0  0  0  0  0  0  0  0  0  0
    3.8660    2.7869    0.0000 H   0  0  0  0  0  0  0  0  0  0  0  0
    2.7540    2.7869    0.0000 H   0  0  0  0  0  0  0  0  0  0  0  0
    1.9070    2.5600    0.0000 H   0  0  0  0  0  0  0  0  0  0  0  0
    2.1340    1.7131    0.0000 H   0  0  0  0  0  0  0  0  0  0  0  0
    1.9070   -0.4400    0.0000 H   0  0  0  0  0  0  0  0  0  0  0  0
    4.7130   -0.4400    0.0000 H   0  0  0  0  0  0  0  0  0  0  0  0
    2.0000    1.2869    0.0000 H   0  0  0  0  0  0  0  0  0  0  0  0
    1.9070   -2.0600    0.0000 H   0  0  0  0  0  0  0  0  0  0  0  0
    4.7130   -2.0600    0.0000 H   0  0  0  0  0  0  0  0  0  0  0  0
    3.3100   -2.8700    0.0000 H   0  0  0  0  0  0  0  0  0  0  0  0
    5.9300    0.7500    0.0000 H   0  0  0  0  0  0  0  0  0  0  0  0
  1  3  1  0  0  0  0
  1 23  1  0  0  0  0
  2  3  1  0  0  0  0
  2  5  1  0  0  0  0
  2  6  1  0  0  0  0
  2 14  1  0  0  0  0
  3  4  1  0  0  0  0
  3  9  1  0  0  0  0
  4  7  2  0  0  0  0
  4  8  1  0  0  0  0
  5 15  1  0  0  0  0
  5 16  1  0  0  0  0
  5 17  1  0  0  0  0
  6 18  1  0  0  0  0
  6 19  1  0  0  0  0
  6 20  1  0  0  0  0
  7 10  1  0  0  0  0
  7 21  1  0  0  0  0
  8 11  2  0  0  0  0
  8 22  1  0  0  0  0
  9 13  3  0  0  0  0
 10 12  2  0  0  0  0
 10 24  1  0  0  0  0
 11 12  1  0  0  0  0
 11 25  1  0  0  0  0
 12 26  1  0  0  0  0
 13 27  1  0  0  0  0
M  END
> <PUBCHEM_COMPOUND_CID>
582807

> <PUBCHEM_COMPOUND_CANONICALIZED>
1

> <PUBCHEM_CACTVS_COMPLEXITY>
204

> <PUBCHEM_CACTVS_HBOND_ACCEPTOR>
1

> <PUBCHEM_CACTVS_HBOND_DONOR>
1

> <PUBCHEM_CACTVS_ROTATABLE_BOND>
3

> <PUBCHEM_CACTVS_SUBSKEYS>
AAADccBwIAAAAAAAAAAAAAAAAAAAAAAAAAAwAAAAAAAAAAABAAAAGgAACAAADUSAmAAyAIAAAgDAGiBCAAgCAAAgAAAIiAAACIgIJiKAERCAcAAkwAEImAeAwOAOgAAAAAAAAAAAAAAAAAAAAAAAAAAAAA==

> <PUBCHEM_IUPAC_OPENEYE_NAME>
4-methyl-3-phenyl-pent-1-yn-3-ol

> <PUBCHEM_IUPAC_CAS_NAME>
4-methyl-3-phenyl-1-pentyn-3-ol

> <PUBCHEM_IUPAC_NAME>
4-methyl-3-phenylpent-1-yn-3-ol

> <PUBCHEM_IUPAC_SYSTEMATIC_NAME>
4-methyl-3-phenyl-pent-1-yn-3-ol

> <PUBCHEM_IUPAC_TRADITIONAL_NAME>
4-methyl-3-phenyl-pent-1-yn-3-ol

> <PUBCHEM_IUPAC_INCHI>
InChI=1S/C12H14O/c1-4-12(13,10(2)3)11-8-6-5-7-9-11/h1,5-10,13H,2-3H3

> <PUBCHEM_IUPAC_INCHIKEY>
IAMZOCORKMFBSY-UHFFFAOYSA-N

> <PUBCHEM_XLOGP3_AA>
2.5

> <PUBCHEM_EXACT_MASS>
174.104465

> <PUBCHEM_MOLECULAR_FORMULA>
C12H14O

> <PUBCHEM_MOLECULAR_WEIGHT>
174.23896

> <PUBCHEM_OPENEYE_CAN_SMILES>
CC(C)C(C#C)(C1=CC=CC=C1)O

> <PUBCHEM_OPENEYE_ISO_SMILES>
CC(C)C(C#C)(C1=CC=CC=C1)O

> <PUBCHEM_CACTVS_TPSA>
20.2

> <PUBCHEM_MONOISOTOPIC_WEIGHT>
174.104465

> <PUBCHEM_TOTAL_CHARGE>
0

> <PUBCHEM_HEAVY_ATOM_COUNT>
13

> <PUBCHEM_ATOM_DEF_STEREO_COUNT>
0

> <PUBCHEM_ATOM_UDEF_STEREO_COUNT>
1

> <PUBCHEM_BOND_DEF_STEREO_COUNT>
0

> <PUBCHEM_BOND_UDEF_STEREO_COUNT>
0

> <PUBCHEM_ISOTOPIC_ATOM_COUNT>
0

> <PUBCHEM_COMPONENT_COUNT>
1

> <PUBCHEM_CACTVS_TAUTO_COUNT>
1

> <PUBCHEM_COORDINATE_TYPE>
1
5
255

> <PUBCHEM_BONDANNOTATIONS>
10  12  8
11  12  8
3  9  3
4  7  8
4  8  8
7  10  8
8  11  8

$$$$

