17396266
  -OEChem-06241222552D

 37 39  0     0  0  0  0  0  0999 V2000
    6.3301    2.4330    0.0000 F   0  0  0  0  0  0  0  0  0  0  0  0
    4.5981    5.4330    0.0000 F   0  0  0  0  0  0  0  0  0  0  0  0
    2.0000   -3.0670    0.0000 O   0  0  0  0  0  0  0  0  0  0  0  0
    2.8660    1.4330    0.0000 O   0  0  0  0  0  0  0  0  0  0  0  0
    3.7320   -3.0670    0.0000 N   0  0  0  0  0  0  0  0  0  0  0  0
    4.5981    1.4330    0.0000 N   0  0  0  0  0  0  0  0  0  0  0  0
    2.8660   -4.5670    0.0000 C   0  0  0  0  0  0  0  0  0  0  0  0
    2.3660   -5.4330    0.0000 C   0  0  0  0  0  0  0  0  0  0  0  0
    3.3660   -5.4330    0.0000 C   0  0  0  0  0  0  0  0  0  0  0  0
    2.8660   -3.5670    0.0000 C   0  0  0  0  0  0  0  0  0  0  0  0
    3.7320   -2.0670    0.0000 C   0  0  0  0  0  0  0  0  0  0  0  0
    4.5981   -1.5670    0.0000 C   0  0  0  0  0  0  0  0  0  0  0  0
    2.8660   -1.5670    0.0000 C   0  0  0  0  0  0  0  0  0  0  0  0
    3.7320   -0.0670    0.0000 C   0  0  0  0  0  0  0  0  0  0  0  0
    4.5981   -0.5670    0.0000 C   0  0  0  0  0  0  0  0  0  0  0  0
    2.8660   -0.5670    0.0000 C   0  0  0  0  0  0  0  0  0  0  0  0
    3.7320    0.9330    0.0000 C   0  0  0  0  0  0  0  0  0  0  0  0
    4.5981    2.4330    0.0000 C   0  0  0  0  0  0  0  0  0  0  0  0
    5.4641    2.9330    0.0000 C   0  0  0  0  0  0  0  0  0  0  0  0
    3.7320    2.9330    0.0000 C   0  0  0  0  0  0  0  0  0  0  0  0
    5.4641    3.9330    0.0000 C   0  0  0  0  0  0  0  0  0  0  0  0
    3.7320    3.9330    0.0000 C   0  0  0  0  0  0  0  0  0  0  0  0
    4.5981    4.4330    0.0000 C   0  0  0  0  0  0  0  0  0  0  0  0
    3.4649   -4.4065    0.0000 H   0  0  0  0  0  0  0  0  0  0  0  0
    1.7834   -5.2210    0.0000 H   0  0  0  0  0  0  0  0  0  0  0  0
    2.2584   -6.0436    0.0000 H   0  0  0  0  0  0  0  0  0  0  0  0
    3.4737   -6.0436    0.0000 H   0  0  0  0  0  0  0  0  0  0  0  0
    3.9486   -5.2210    0.0000 H   0  0  0  0  0  0  0  0  0  0  0  0
    4.2690   -3.3770    0.0000 H   0  0  0  0  0  0  0  0  0  0  0  0
    5.1350   -1.8770    0.0000 H   0  0  0  0  0  0  0  0  0  0  0  0
    2.3291   -1.8770    0.0000 H   0  0  0  0  0  0  0  0  0  0  0  0
    5.1350   -0.2570    0.0000 H   0  0  0  0  0  0  0  0  0  0  0  0
    2.3291   -0.2570    0.0000 H   0  0  0  0  0  0  0  0  0  0  0  0
    5.1350    1.1230    0.0000 H   0  0  0  0  0  0  0  0  0  0  0  0
    3.1951    2.6230    0.0000 H   0  0  0  0  0  0  0  0  0  0  0  0
    6.0010    4.2430    0.0000 H   0  0  0  0  0  0  0  0  0  0  0  0
    3.1951    4.2430    0.0000 H   0  0  0  0  0  0  0  0  0  0  0  0
  1 19  1  0  0  0  0
  2 23  1  0  0  0  0
  3 10  2  0  0  0  0
  4 17  2  0  0  0  0
  5 10  1  0  0  0  0
  5 11  1  0  0  0  0
  5 29  1  0  0  0  0
  6 17  1  0  0  0  0
  6 18  1  0  0  0  0
  6 34  1  0  0  0  0
  7  8  1  0  0  0  0
  7  9  1  0  0  0  0
  7 10  1  0  0  0  0
  7 24  1  0  0  0  0
  8  9  1  0  0  0  0
  8 25  1  0  0  0  0
  8 26  1  0  0  0  0
  9 27  1  0  0  0  0
  9 28  1  0  0  0  0
 11 12  2  0  0  0  0
 11 13  1  0  0  0  0
 12 15  1  0  0  0  0
 12 30  1  0  0  0  0
 13 16  2  0  0  0  0
 13 31  1  0  0  0  0
 14 15  2  0  0  0  0
 14 16  1  0  0  0  0
 14 17  1  0  0  0  0
 15 32  1  0  0  0  0
 16 33  1  0  0  0  0
 18 19  2  0  0  0  0
 18 20  1  0  0  0  0
 19 21  1  0  0  0  0
 20 22  2  0  0  0  0
 20 35  1  0  0  0  0
 21 23  2  0  0  0  0
 21 36  1  0  0  0  0
 22 23  1  0  0  0  0
 22 37  1  0  0  0  0
M  END
> <PUBCHEM_COMPOUND_CID>
17396266

> <PUBCHEM_COMPOUND_CANONICALIZED>
1

> <PUBCHEM_CACTVS_COMPLEXITY>
448

> <PUBCHEM_CACTVS_HBOND_ACCEPTOR>
4

> <PUBCHEM_CACTVS_HBOND_DONOR>
2

> <PUBCHEM_CACTVS_ROTATABLE_BOND>
4

> <PUBCHEM_CACTVS_SUBSKEYS>
AAADccB7MYAAAAAAAAAAAAAAGAAAAAAAAAAwYAAAAAAAAAABQAAAHwAQAAAADQiBmAgwwILAAACIAiVSUACCAAAlAgAIiAEAZMgIIDLAlZGEIQhglADIyYcYiQCeCAAAAAAAAAAQAAAAAAAAAAAAAAAAAA==

> <PUBCHEM_IUPAC_OPENEYE_NAME>
4-(cyclopropanecarbonylamino)-N-(2,4-difluorophenyl)benzamide

> <PUBCHEM_IUPAC_CAS_NAME>
4-[[cyclopropyl(oxo)methyl]amino]-N-(2,4-difluorophenyl)benzamide

> <PUBCHEM_IUPAC_NAME>
4-(cyclopropanecarbonylamino)-N-(2,4-difluorophenyl)benzamide

> <PUBCHEM_IUPAC_SYSTEMATIC_NAME>
N-[2,4-bis(fluoranyl)phenyl]-4-(cyclopropylcarbonylamino)benzamide

> <PUBCHEM_IUPAC_TRADITIONAL_NAME>
4-(cyclopropanecarbonylamino)-N-(2,4-difluorophenyl)benzamide

> <PUBCHEM_IUPAC_INCHI>
InChI=1S/C17H14F2N2O2/c18-12-5-8-15(14(19)9-12)21-17(23)11-3-6-13(7-4-11)20-16(22)10-1-2-10/h3-10H,1-2H2,(H,20,22)(H,21,23)

> <PUBCHEM_IUPAC_INCHIKEY>
BDTQMFHHDSGXDR-UHFFFAOYSA-N

> <PUBCHEM_XLOGP3_AA>
2.6

> <PUBCHEM_EXACT_MASS>
316.102334

> <PUBCHEM_MOLECULAR_FORMULA>
C17H14F2N2O2

> <PUBCHEM_MOLECULAR_WEIGHT>
316.302066

> <PUBCHEM_OPENEYE_CAN_SMILES>
C1CC1C(=O)NC2=CC=C(C=C2)C(=O)NC3=C(C=C(C=C3)F)F

> <PUBCHEM_OPENEYE_ISO_SMILES>
C1CC1C(=O)NC2=CC=C(C=C2)C(=O)NC3=C(C=C(C=C3)F)F

> <PUBCHEM_CACTVS_TPSA>
58.2

> <PUBCHEM_MONOISOTOPIC_WEIGHT>
316.102334

> <PUBCHEM_TOTAL_CHARGE>
0

> <PUBCHEM_HEAVY_ATOM_COUNT>
23

> <PUBCHEM_ATOM_DEF_STEREO_COUNT>
0

> <PUBCHEM_ATOM_UDEF_STEREO_COUNT>
0

> <PUBCHEM_BOND_DEF_STEREO_COUNT>
0

> <PUBCHEM_BOND_UDEF_STEREO_COUNT>
0

> <PUBCHEM_ISOTOPIC_ATOM_COUNT>
0

> <PUBCHEM_COMPONENT_COUNT>
1

> <PUBCHEM_CACTVS_TAUTO_COUNT>
12

> <PUBCHEM_COORDINATE_TYPE>
1
5
255

> <PUBCHEM_BONDANNOTATIONS>
11  12  8
11  13  8
12  15  8
13  16  8
14  15  8
14  16  8
18  19  8
18  20  8
19  21  8
20  22  8
21  23  8
22  23  8

$$$$

