5728
  -OEChem-06261200502D

 83 83  0     1  0  0  0  0  0999 V2000
    9.7942   -2.5000    0.0000 S   0  0  0  0  0  0  0  0  0  0  0  0
    8.9282    2.0000    0.0000 O   0  0  0  0  0  0  0  0  0  0  0  0
    5.4641    3.0000    0.0000 O   0  0  0  0  0  0  0  0  0  0  0  0
    3.7320   -1.0000    0.0000 O   0  0  0  0  0  0  0  0  0  0  0  0
    2.8660    0.5000    0.0000 O   0  0  0  0  0  0  0  0  0  0  0  0
   10.7942   -2.5000    0.0000 O   0  0  0  0  0  0  0  0  0  0  0  0
    8.7942   -2.5000    0.0000 O   0  0  0  0  0  0  0  0  0  0  0  0
    6.3301    1.5000    0.0000 N   0  0  0  0  0  0  0  0  0  0  0  0
    8.0622    0.5000    0.0000 N   0  0  0  0  0  0  0  0  0  0  0  0
    4.5981    0.5000    0.0000 N   0  0  0  0  0  0  0  0  0  0  0  0
    7.1962    2.0000    0.0000 C   0  0  3  0  0  0  0  0  0  0  0  0
    7.1962    3.0000    0.0000 C   0  0  0  0  0  0  0  0  0  0  0  0
    8.0622    3.5000    0.0000 C   0  0  0  0  0  0  0  0  0  0  0  0
    8.9282    0.0000    0.0000 C   0  0  3  0  0  0  0  0  0  0  0  0
    9.7942    0.5000    0.0000 C   0  0  0  0  0  0  0  0  0  0  0  0
    4.5981    1.5000    0.0000 C   0  0  3  0  0  0  0  0  0  0  0  0
    3.7320    2.0000    0.0000 C   0  0  0  0  0  0  0  0  0  0  0  0
   10.6603    0.0000    0.0000 C   0  0  0  0  0  0  0  0  0  0  0  0
    8.0622    1.5000    0.0000 C   0  0  0  0  0  0  0  0  0  0  0  0
    3.7320    3.0000    0.0000 C   0  0  0  0  0  0  0  0  0  0  0  0
    5.4641    2.0000    0.0000 C   0  0  0  0  0  0  0  0  0  0  0  0
    8.0622    4.5000    0.0000 C   0  0  0  0  0  0  0  0  0  0  0  0
    8.9282    3.0000    0.0000 C   0  0  0  0  0  0  0  0  0  0  0  0
    8.9282   -1.0000    0.0000 C   0  0  0  0  0  0  0  0  0  0  0  0
   11.5263    0.5000    0.0000 C   0  0  0  0  0  0  0  0  0  0  0  0
   10.6603   -1.0000    0.0000 C   0  0  0  0  0  0  0  0  0  0  0  0
    2.8660    3.5000    0.0000 C   0  0  0  0  0  0  0  0  0  0  0  0
    4.5981    3.5000    0.0000 C   0  0  0  0  0  0  0  0  0  0  0  0
    9.7942   -1.5000    0.0000 C   0  0  0  0  0  0  0  0  0  0  0  0
    3.7320    0.0000    0.0000 C   0  0  0  0  0  0  0  0  0  0  0  0
    9.7942   -3.5000    0.0000 C   0  0  0  0  0  0  0  0  0  0  0  0
    2.8660   -1.5000    0.0000 C   0  0  0  0  0  0  0  0  0  0  0  0
    2.8660   -2.5000    0.0000 C   0  0  0  0  0  0  0  0  0  0  0  0
    3.7320   -3.0000    0.0000 C   0  0  0  0  0  0  0  0  0  0  0  0
    2.0000   -3.0000    0.0000 C   0  0  0  0  0  0  0  0  0  0  0  0
    3.7320   -4.0000    0.0000 C   0  0  0  0  0  0  0  0  0  0  0  0
    2.0000   -4.0000    0.0000 C   0  0  0  0  0  0  0  0  0  0  0  0
    2.8660   -4.5000    0.0000 C   0  0  0  0  0  0  0  0  0  0  0  0
    6.6592    2.3100    0.0000 H   0  0  0  0  0  0  0  0  0  0  0  0
    6.9841    3.5826    0.0000 H   0  0  0  0  0  0  0  0  0  0  0  0
    6.5856    2.8923    0.0000 H   0  0  0  0  0  0  0  0  0  0  0  0
    8.0622    2.8800    0.0000 H   0  0  0  0  0  0  0  0  0  0  0  0
    8.9282    0.6200    0.0000 H   0  0  0  0  0  0  0  0  0  0  0  0
   10.1928    0.9749    0.0000 H   0  0  0  0  0  0  0  0  0  0  0  0
    9.3957    0.9749    0.0000 H   0  0  0  0  0  0  0  0  0  0  0  0
    5.1350    1.1900    0.0000 H   0  0  0  0  0  0  0  0  0  0  0  0
    3.1215    2.1077    0.0000 H   0  0  0  0  0  0  0  0  0  0  0  0
    3.5200    1.4174    0.0000 H   0  0  0  0  0  0  0  0  0  0  0  0
   11.1972   -0.3100    0.0000 H   0  0  0  0  0  0  0  0  0  0  0  0
    6.3301    0.8800    0.0000 H   0  0  0  0  0  0  0  0  0  0  0  0
    3.7320    3.6200    0.0000 H   0  0  0  0  0  0  0  0  0  0  0  0
    7.5252    0.1900    0.0000 H   0  0  0  0  0  0  0  0  0  0  0  0
    8.6822    4.5000    0.0000 H   0  0  0  0  0  0  0  0  0  0  0  0
    8.0622    5.1200    0.0000 H   0  0  0  0  0  0  0  0  0  0  0  0
    7.4422    4.5000    0.0000 H   0  0  0  0  0  0  0  0  0  0  0  0
    8.6182    2.4631    0.0000 H   0  0  0  0  0  0  0  0  0  0  0  0
    9.4651    2.6900    0.0000 H   0  0  0  0  0  0  0  0  0  0  0  0
    9.2382    3.5369    0.0000 H   0  0  0  0  0  0  0  0  0  0  0  0
    8.3913   -1.3100    0.0000 H   0  0  0  0  0  0  0  0  0  0  0  0
   10.0403   -1.0000    0.0000 H   0  0  0  0  0  0  0  0  0  0  0  0
   11.8363   -0.0369    0.0000 H   0  0  0  0  0  0  0  0  0  0  0  0
   12.0632    0.8100    0.0000 H   0  0  0  0  0  0  0  0  0  0  0  0
   11.2163    1.0369    0.0000 H   0  0  0  0  0  0  0  0  0  0  0  0
   10.6603   -1.6200    0.0000 H   0  0  0  0  0  0  0  0  0  0  0  0
   11.2803   -1.0000    0.0000 H   0  0  0  0  0  0  0  0  0  0  0  0
    5.1350    0.1900    0.0000 H   0  0  0  0  0  0  0  0  0  0  0  0
    3.1760    4.0369    0.0000 H   0  0  0  0  0  0  0  0  0  0  0  0
    2.3291    3.8100    0.0000 H   0  0  0  0  0  0  0  0  0  0  0  0
    2.5560    2.9631    0.0000 H   0  0  0  0  0  0  0  0  0  0  0  0
    4.9081    2.9631    0.0000 H   0  0  0  0  0  0  0  0  0  0  0  0
    5.1350    3.8100    0.0000 H   0  0  0  0  0  0  0  0  0  0  0  0
    4.2881    4.0369    0.0000 H   0  0  0  0  0  0  0  0  0  0  0  0
   10.3312   -1.1900    0.0000 H   0  0  0  0  0  0  0  0  0  0  0  0
    9.1742   -3.5000    0.0000 H   0  0  0  0  0  0  0  0  0  0  0  0
    9.7942   -4.1200    0.0000 H   0  0  0  0  0  0  0  0  0  0  0  0
   10.4142   -3.5000    0.0000 H   0  0  0  0  0  0  0  0  0  0  0  0
    2.6540   -0.9174    0.0000 H   0  0  0  0  0  0  0  0  0  0  0  0
    2.2554   -1.6077    0.0000 H   0  0  0  0  0  0  0  0  0  0  0  0
    4.2690   -2.6900    0.0000 H   0  0  0  0  0  0  0  0  0  0  0  0
    1.4631   -2.6900    0.0000 H   0  0  0  0  0  0  0  0  0  0  0  0
    4.2690   -4.3100    0.0000 H   0  0  0  0  0  0  0  0  0  0  0  0
    1.4631   -4.3100    0.0000 H   0  0  0  0  0  0  0  0  0  0  0  0
    2.8660   -5.1200    0.0000 H   0  0  0  0  0  0  0  0  0  0  0  0
  1  6  2  0  0  0  0
  1  7  2  0  0  0  0
  1 29  1  0  0  0  0
  1 31  1  0  0  0  0
  2 19  2  0  0  0  0
  3 21  2  0  0  0  0
  4 30  1  0  0  0  0
  4 32  1  0  0  0  0
  5 30  2  0  0  0  0
  8 11  1  0  0  0  0
  8 21  1  0  0  0  0
  8 50  1  0  0  0  0
  9 14  1  0  0  0  0
  9 19  1  0  0  0  0
  9 52  1  0  0  0  0
 10 16  1  0  0  0  0
 10 30  1  0  0  0  0
 10 66  1  0  0  0  0
 11 12  1  0  0  0  0
 11 19  1  0  0  0  0
 11 39  1  0  0  0  0
 12 13  1  0  0  0  0
 12 40  1  0  0  0  0
 12 41  1  0  0  0  0
 13 22  1  0  0  0  0
 13 23  1  0  0  0  0
 13 42  1  0  0  0  0
 14 15  1  0  0  0  0
 14 24  1  0  0  0  0
 14 43  1  0  0  0  0
 15 18  1  0  0  0  0
 15 44  1  0  0  0  0
 15 45  1  0  0  0  0
 16 17  1  0  0  0  0
 16 21  1  0  0  0  0
 16 46  1  0  0  0  0
 17 20  1  0  0  0  0
 17 47  1  0  0  0  0
 17 48  1  0  0  0  0
 18 25  1  0  0  0  0
 18 26  1  0  0  0  0
 18 49  1  0  0  0  0
 20 27  1  0  0  0  0
 20 28  1  0  0  0  0
 20 51  1  0  0  0  0
 22 53  1  0  0  0  0
 22 54  1  0  0  0  0
 22 55  1  0  0  0  0
 23 56  1  0  0  0  0
 23 57  1  0  0  0  0
 23 58  1  0  0  0  0
 24 29  2  3  0  0  0
 24 59  1  0  0  0  0
 25 61  1  0  0  0  0
 25 62  1  0  0  0  0
 25 63  1  0  0  0  0
 26 60  1  0  0  0  0
 26 64  1  0  0  0  0
 26 65  1  0  0  0  0
 27 67  1  0  0  0  0
 27 68  1  0  0  0  0
 27 69  1  0  0  0  0
 28 70  1  0  0  0  0
 28 71  1  0  0  0  0
 28 72  1  0  0  0  0
 29 73  1  0  0  0  0
 31 74  1  0  0  0  0
 31 75  1  0  0  0  0
 31 76  1  0  0  0  0
 32 33  1  0  0  0  0
 32 77  1  0  0  0  0
 32 78  1  0  0  0  0
 33 34  2  0  0  0  0
 33 35  1  0  0  0  0
 34 36  1  0  0  0  0
 34 79  1  0  0  0  0
 35 37  2  0  0  0  0
 35 80  1  0  0  0  0
 36 38  2  0  0  0  0
 36 81  1  0  0  0  0
 37 38  1  0  0  0  0
 37 82  1  0  0  0  0
 38 83  1  0  0  0  0
M  END
> <PUBCHEM_COMPOUND_CID>
5728

> <PUBCHEM_COMPOUND_CANONICALIZED>
1

> <PUBCHEM_CACTVS_COMPLEXITY>
874

> <PUBCHEM_CACTVS_HBOND_ACCEPTOR>
6

> <PUBCHEM_CACTVS_HBOND_DONOR>
3

> <PUBCHEM_CACTVS_ROTATABLE_BOND>
16

> <PUBCHEM_CACTVS_SUBSKEYS>
AAADcfB7OABAAAAAAAAAAAAAAAAAAAAAAAAwAAAAAAAAAAABAAAAHgQQAAAADSjl2AayCILABAqIAiFSGHCCAAAgAAAIiIGICIkIZjKAsTicMAAk1gGIqAeYwCAOAAAAAAAAAAAAAAAAAAAAAAAAAAAAAA==

> <PUBCHEM_IUPAC_OPENEYE_NAME>
benzyl N-[3-methyl-1-[[3-methyl-1-[[3-methyl-1-(2-methylsulfonylvinyl)butyl]carbamoyl]butyl]carbamoyl]butyl]carbamate

> <PUBCHEM_IUPAC_CAS_NAME>
N-[4-methyl-1-[[4-methyl-1-[(5-methyl-1-methylsulfonylhex-1-en-3-yl)amino]-1-oxopentan-2-yl]amino]-1-oxopentan-2-yl]carbamic acid (phenylmethyl) ester

> <PUBCHEM_IUPAC_NAME>
benzyl N-[4-methyl-1-[[4-methyl-1-[(5-methyl-1-methylsulfonylhex-1-en-3-yl)amino]-1-oxopentan-2-yl]amino]-1-oxopentan-2-yl]carbamate

> <PUBCHEM_IUPAC_SYSTEMATIC_NAME>
(phenylmethyl) N-[4-methyl-1-[[4-methyl-1-[(5-methyl-1-methylsulfonyl-hex-1-en-3-yl)amino]-1-oxidanylidene-pentan-2-yl]amino]-1-oxidanylidene-pentan-2-yl]carbamate

> <PUBCHEM_IUPAC_TRADITIONAL_NAME>
N-[1-[[1-[(1-isobutyl-3-mesyl-allyl)carbamoyl]-3-methyl-butyl]carbamoyl]-3-methyl-butyl]carbamic acid benzyl ester

> <PUBCHEM_IUPAC_INCHI>
InChI=1S/C28H45N3O6S/c1-19(2)15-23(13-14-38(7,35)36)29-26(32)24(16-20(3)4)30-27(33)25(17-21(5)6)31-28(34)37-18-22-11-9-8-10-12-22/h8-14,19-21,23-25H,15-18H2,1-7H3,(H,29,32)(H,30,33)(H,31,34)

> <PUBCHEM_IUPAC_INCHIKEY>
DHLFJZAIZCMWEO-UHFFFAOYSA-N

> <PUBCHEM_XLOGP3_AA>
4.8

> <PUBCHEM_EXACT_MASS>
551.302907

> <PUBCHEM_MOLECULAR_FORMULA>
C28H45N3O6S

> <PUBCHEM_MOLECULAR_WEIGHT>
551.7384

> <PUBCHEM_OPENEYE_CAN_SMILES>
CC(C)CC(C=CS(=O)(=O)C)NC(=O)C(CC(C)C)NC(=O)C(CC(C)C)NC(=O)OCC1=CC=CC=C1

> <PUBCHEM_OPENEYE_ISO_SMILES>
CC(C)CC(C=CS(=O)(=O)C)NC(=O)C(CC(C)C)NC(=O)C(CC(C)C)NC(=O)OCC1=CC=CC=C1

> <PUBCHEM_CACTVS_TPSA>
139

> <PUBCHEM_MONOISOTOPIC_WEIGHT>
551.302907

> <PUBCHEM_TOTAL_CHARGE>
0

> <PUBCHEM_HEAVY_ATOM_COUNT>
38

> <PUBCHEM_ATOM_DEF_STEREO_COUNT>
0

> <PUBCHEM_ATOM_UDEF_STEREO_COUNT>
3

> <PUBCHEM_BOND_DEF_STEREO_COUNT>
0

> <PUBCHEM_BOND_UDEF_STEREO_COUNT>
1

> <PUBCHEM_ISOTOPIC_ATOM_COUNT>
0

> <PUBCHEM_COMPONENT_COUNT>
1

> <PUBCHEM_CACTVS_TAUTO_COUNT>
8

> <PUBCHEM_COORDINATE_TYPE>
1
5
255

> <PUBCHEM_BONDANNOTATIONS>
11  12  3
14  15  3
16  17  3
24  29  1
33  34  8
33  35  8
34  36  8
35  37  8
36  38  8
37  38  8

$$$$

