11889
  -OEChem-06261206143D

 21 21  0     0  0  0  0  0  0999 V2000
    1.4136    0.5574    0.5360 O   0  0  0  0  0  0  0  0  0  0  0  0
   -0.7297   -2.8409   -0.1738 O   0  5  0  0  0  0  0  0  0  0  0  0
    1.1951   -1.8910    0.2867 O   0  0  0  0  0  0  0  0  0  0  0  0
   -0.0340   -1.8218    0.0490 N   0  3  0  0  0  0  0  0  0  0  0  0
    0.0768    0.6142    0.2739 C   0  0  0  0  0  0  0  0  0  0  0  0
   -0.6598   -0.5451    0.0310 C   0  0  0  0  0  0  0  0  0  0  0  0
    2.2784    1.2533   -0.3587 C   0  0  0  0  0  0  0  0  0  0  0  0
   -0.5535    1.8583    0.2527 C   0  0  0  0  0  0  0  0  0  0  0  0
   -2.0268   -0.4603   -0.2332 C   0  0  0  0  0  0  0  0  0  0  0  0
   -1.9206    1.9432   -0.0113 C   0  0  0  0  0  0  0  0  0  0  0  0
   -2.6572    0.7839   -0.2544 C   0  0  0  0  0  0  0  0  0  0  0  0
    3.6177    0.5488   -0.3979 C   0  0  0  0  0  0  0  0  0  0  0  0
    1.8571    1.2836   -1.3713 H   0  0  0  0  0  0  0  0  0  0  0  0
    2.4097    2.2798    0.0005 H   0  0  0  0  0  0  0  0  0  0  0  0
    0.0043    2.7698    0.4491 H   0  0  0  0  0  0  0  0  0  0  0  0
   -2.6350   -1.3401   -0.4273 H   0  0  0  0  0  0  0  0  0  0  0  0
   -2.4120    2.9116   -0.0257 H   0  0  0  0  0  0  0  0  0  0  0  0
   -3.7216    0.8506   -0.4595 H   0  0  0  0  0  0  0  0  0  0  0  0
    4.3170    1.0764   -1.0527 H   0  0  0  0  0  0  0  0  0  0  0  0
    4.0514    0.4868    0.6057 H   0  0  0  0  0  0  0  0  0  0  0  0
    3.5047   -0.4779   -0.7604 H   0  0  0  0  0  0  0  0  0  0  0  0
  1  5  1  0  0  0  0
  1  7  1  0  0  0  0
  2  4  1  0  0  0  0
  3  4  2  0  0  0  0
  4  6  1  0  0  0  0
  5  6  1  0  0  0  0
  5  8  2  0  0  0  0
  6  9  2  0  0  0  0
  7 12  1  0  0  0  0
  7 13  1  0  0  0  0
  7 14  1  0  0  0  0
  8 10  1  0  0  0  0
  8 15  1  0  0  0  0
  9 11  1  0  0  0  0
  9 16  1  0  0  0  0
 10 11  2  0  0  0  0
 10 17  1  0  0  0  0
 11 18  1  0  0  0  0
 12 19  1  0  0  0  0
 12 20  1  0  0  0  0
 12 21  1  0  0  0  0
M  CHG  2   2  -1   4   1
M  END
> <PUBCHEM_COMPOUND_CID>
11889

> <PUBCHEM_CONFORMER_RMSD>
0.6

> <PUBCHEM_CONFORMER_DIVERSEORDER>
1
2
3
4

> <PUBCHEM_MMFF94_PARTIAL_CHARGES>
15
1 -0.36
10 -0.15
11 -0.15
15 0.15
16 0.15
17 0.15
18 0.15
2 -0.52
3 -0.52
4 0.91
5 0.08
6 0.13
7 0.28
8 -0.15
9 -0.15

> <PUBCHEM_EFFECTIVE_ROTOR_COUNT>
3

> <PUBCHEM_PHARMACOPHORE_FEATURES>
5
1 1 acceptor
1 2 acceptor
1 2 anion
1 3 acceptor
6 5 6 8 9 10 11 rings

> <PUBCHEM_HEAVY_ATOM_COUNT>
12

> <PUBCHEM_ATOM_DEF_STEREO_COUNT>
0

> <PUBCHEM_ATOM_UDEF_STEREO_COUNT>
0

> <PUBCHEM_BOND_DEF_STEREO_COUNT>
0

> <PUBCHEM_BOND_UDEF_STEREO_COUNT>
0

> <PUBCHEM_ISOTOPIC_ATOM_COUNT>
0

> <PUBCHEM_COMPONENT_COUNT>
1

> <PUBCHEM_CACTVS_TAUTO_COUNT>
1

> <PUBCHEM_CONFORMER_ID>
00002E7100000001

> <PUBCHEM_MMFF94_ENERGY>
41.3728

> <PUBCHEM_FEATURE_SELFOVERLAP>
25.476

> <PUBCHEM_SHAPE_FINGERPRINT>
12423570 1 11959729399761452057
12524768 44 16537929434824075899
12716758 59 18336548201218472056
16945 1 18338526235342342897
19021347 11 18340487880008006308
193761 8 17905890627810327233
20645476 183 17845640470284071446
20871998 184 17972591096165089710
20871998 22 17329427246775824722
21040471 1 18410022013166223497
21501502 16 18193842776180999209
22802520 49 18116424839503014076
23402539 116 18334867069087372268
23463225 33 18199192969723002848
23526114 1 18122907791819946836
23552423 10 18050573138184597685
23559900 14 13071569207798064191
241688 4 16464458534684322683
2748010 2 18339079401391711013
528862 383 18199754824011403200
7364860 26 17975413834407738860
81228 2 17979078180245692969

> <PUBCHEM_SHAPE_MULTIPOLES>
224.37
3.95
2.55
0.66
2.95
1.6
0.01
-1.66
0.72
-0.58
-0.02
0.05
-0.07
-0.18

> <PUBCHEM_SHAPE_SELFOVERLAP>
463.017

> <PUBCHEM_SHAPE_VOLUME>
129.4

> <PUBCHEM_COORDINATE_TYPE>
2
5
10

$$$$

