17396052
  -OEChem-06241222542D

 54 56  0     0  0  0  0  0  0999 V2000
    4.6783   -3.4958    0.0000 S   0  0  0  0  0  0  0  0  0  0  0  0
    8.5458    1.5838    0.0000 O   0  0  0  0  0  0  0  0  0  0  0  0
    5.9674   -0.7296    0.0000 N   0  0  0  0  0  0  0  0  0  0  0  0
    7.9244   -0.3172    0.0000 N   0  0  0  0  0  0  0  0  0  0  0  0
   10.1921    1.0458    0.0000 N   0  0  0  0  0  0  0  0  0  0  0  0
    6.2781    0.2209    0.0000 C   0  0  0  0  0  0  0  0  0  0  0  0
    6.6353   -1.4739    0.0000 C   0  0  0  0  0  0  0  0  0  0  0  0
    7.2566    0.4271    0.0000 C   0  0  0  0  0  0  0  0  0  0  0  0
    7.6138   -1.2677    0.0000 C   0  0  0  0  0  0  0  0  0  0  0  0
    4.9889   -0.9359    0.0000 C   0  0  0  0  0  0  0  0  0  0  0  0
    8.9030   -0.1110    0.0000 C   0  0  0  0  0  0  0  0  0  0  0  0
    4.6783   -1.8864    0.0000 C   0  0  0  0  0  0  0  0  0  0  0  0
   10.5028    1.9963    0.0000 C   0  0  0  0  0  0  0  0  0  0  0  0
    9.2136    0.8395    0.0000 C   0  0  0  0  0  0  0  0  0  0  0  0
    3.7320   -2.1911    0.0000 C   0  0  0  0  0  0  0  0  0  0  0  0
   11.4813    2.2025    0.0000 C   0  0  0  0  0  0  0  0  0  0  0  0
    9.8349    2.7406    0.0000 C   0  0  0  0  0  0  0  0  0  0  0  0
    5.2619   -2.6911    0.0000 C   0  0  0  0  0  0  0  0  0  0  0  0
    3.7320   -3.1911    0.0000 C   0  0  0  0  0  0  0  0  0  0  0  0
    2.8660   -1.6911    0.0000 C   0  0  0  0  0  0  0  0  0  0  0  0
   11.7920    3.1530    0.0000 C   0  0  0  0  0  0  0  0  0  0  0  0
   10.1456    3.6911    0.0000 C   0  0  0  0  0  0  0  0  0  0  0  0
    2.8660   -3.6911    0.0000 C   0  0  0  0  0  0  0  0  0  0  0  0
    2.0000   -2.1911    0.0000 C   0  0  0  0  0  0  0  0  0  0  0  0
    2.0000   -3.1911    0.0000 C   0  0  0  0  0  0  0  0  0  0  0  0
    6.2575    0.8405    0.0000 H   0  0  0  0  0  0  0  0  0  0  0  0
    5.6643    0.3082    0.0000 H   0  0  0  0  0  0  0  0  0  0  0  0
    6.1089   -1.8016    0.0000 H   0  0  0  0  0  0  0  0  0  0  0  0
    6.8665   -2.0492    0.0000 H   0  0  0  0  0  0  0  0  0  0  0  0
    7.6344   -1.8874    0.0000 H   0  0  0  0  0  0  0  0  0  0  0  0
    8.2276   -1.3551    0.0000 H   0  0  0  0  0  0  0  0  0  0  0  0
    7.7830    0.7547    0.0000 H   0  0  0  0  0  0  0  0  0  0  0  0
    7.0254    1.0024    0.0000 H   0  0  0  0  0  0  0  0  0  0  0  0
    4.9684   -0.3162    0.0000 H   0  0  0  0  0  0  0  0  0  0  0  0
    4.3751   -0.8485    0.0000 H   0  0  0  0  0  0  0  0  0  0  0  0
    8.9235   -0.7306    0.0000 H   0  0  0  0  0  0  0  0  0  0  0  0
    9.5168   -0.1983    0.0000 H   0  0  0  0  0  0  0  0  0  0  0  0
   10.9169    1.5348    0.0000 H   0  0  0  0  0  0  0  0  0  0  0  0
   10.6062    0.5843    0.0000 H   0  0  0  0  0  0  0  0  0  0  0  0
   11.5019    1.5828    0.0000 H   0  0  0  0  0  0  0  0  0  0  0  0
   12.0951    2.1152    0.0000 H   0  0  0  0  0  0  0  0  0  0  0  0
    9.2880    3.0326    0.0000 H   0  0  0  0  0  0  0  0  0  0  0  0
    9.4524    2.2527    0.0000 H   0  0  0  0  0  0  0  0  0  0  0  0
    5.8819   -2.6911    0.0000 H   0  0  0  0  0  0  0  0  0  0  0  0
    2.8660   -1.0711    0.0000 H   0  0  0  0  0  0  0  0  0  0  0  0
   10.7349    3.4985    0.0000 H   0  0  0  0  0  0  0  0  0  0  0  0
   10.3382    4.2804    0.0000 H   0  0  0  0  0  0  0  0  0  0  0  0
    9.5563    3.8837    0.0000 H   0  0  0  0  0  0  0  0  0  0  0  0
   12.3813    2.9604    0.0000 H   0  0  0  0  0  0  0  0  0  0  0  0
   11.9846    3.7423    0.0000 H   0  0  0  0  0  0  0  0  0  0  0  0
   11.2026    3.3456    0.0000 H   0  0  0  0  0  0  0  0  0  0  0  0
    2.8660   -4.3111    0.0000 H   0  0  0  0  0  0  0  0  0  0  0  0
    1.4631   -1.8811    0.0000 H   0  0  0  0  0  0  0  0  0  0  0  0
    1.4631   -3.5011    0.0000 H   0  0  0  0  0  0  0  0  0  0  0  0
  1 18  1  0  0  0  0
  1 19  1  0  0  0  0
  2 14  2  0  0  0  0
  3  6  1  0  0  0  0
  3  7  1  0  0  0  0
  3 10  1  0  0  0  0
  4  8  1  0  0  0  0
  4  9  1  0  0  0  0
  4 11  1  0  0  0  0
  5 13  1  0  0  0  0
  5 14  1  0  0  0  0
  5 39  1  0  0  0  0
  6  8  1  0  0  0  0
  6 26  1  0  0  0  0
  6 27  1  0  0  0  0
  7  9  1  0  0  0  0
  7 28  1  0  0  0  0
  7 29  1  0  0  0  0
  8 32  1  0  0  0  0
  8 33  1  0  0  0  0
  9 30  1  0  0  0  0
  9 31  1  0  0  0  0
 10 12  1  0  0  0  0
 10 34  1  0  0  0  0
 10 35  1  0  0  0  0
 11 14  1  0  0  0  0
 11 36  1  0  0  0  0
 11 37  1  0  0  0  0
 12 15  1  0  0  0  0
 12 18  2  0  0  0  0
 13 16  1  0  0  0  0
 13 17  1  0  0  0  0
 13 38  1  0  0  0  0
 15 19  1  0  0  0  0
 15 20  2  0  0  0  0
 16 21  1  0  0  0  0
 16 40  1  0  0  0  0
 16 41  1  0  0  0  0
 17 22  1  0  0  0  0
 17 42  1  0  0  0  0
 17 43  1  0  0  0  0
 18 44  1  0  0  0  0
 19 23  2  0  0  0  0
 20 24  1  0  0  0  0
 20 45  1  0  0  0  0
 21 49  1  0  0  0  0
 21 50  1  0  0  0  0
 21 51  1  0  0  0  0
 22 46  1  0  0  0  0
 22 47  1  0  0  0  0
 22 48  1  0  0  0  0
 23 25  1  0  0  0  0
 23 52  1  0  0  0  0
 24 25  2  0  0  0  0
 24 53  1  0  0  0  0
 25 54  1  0  0  0  0
M  END
> <PUBCHEM_COMPOUND_CID>
17396052

> <PUBCHEM_COMPOUND_CANONICALIZED>
1

> <PUBCHEM_CACTVS_COMPLEXITY>
421

> <PUBCHEM_CACTVS_HBOND_ACCEPTOR>
4

> <PUBCHEM_CACTVS_HBOND_DONOR>
1

> <PUBCHEM_CACTVS_ROTATABLE_BOND>
7

> <PUBCHEM_CACTVS_SUBSKEYS>
AAADceB7IABAAAAAAAAAAAAAAAAAASAAAAA8QAAAAAAAAEgB8AAAHgQQAAAADCjF2ASyAcPAAAiMAiFSEACDAIAgCBBIiJiIBIgIYCKgkTGUIAhglgCoiAcQgMAOgAAAAAAEAAAAAAAAAAgAAAAAAAAAAA==

> <PUBCHEM_IUPAC_OPENEYE_NAME>
2-[4-(benzothiophen-3-ylmethyl)piperazin-1-yl]-N-(1-ethylpropyl)acetamide

> <PUBCHEM_IUPAC_CAS_NAME>
2-[4-(1-benzothiophen-3-ylmethyl)-1-piperazinyl]-N-pentan-3-ylacetamide

> <PUBCHEM_IUPAC_NAME>
2-[4-(1-benzothiophen-3-ylmethyl)piperazin-1-yl]-N-pentan-3-ylacetamide

> <PUBCHEM_IUPAC_SYSTEMATIC_NAME>
2-[4-(1-benzothiophen-3-ylmethyl)piperazin-1-yl]-N-pentan-3-yl-ethanamide

> <PUBCHEM_IUPAC_TRADITIONAL_NAME>
2-[4-(benzothiophen-3-ylmethyl)piperazino]-N-(1-ethylpropyl)acetamide

> <PUBCHEM_IUPAC_INCHI>
InChI=1S/C20H29N3OS/c1-3-17(4-2)21-20(24)14-23-11-9-22(10-12-23)13-16-15-25-19-8-6-5-7-18(16)19/h5-8,15,17H,3-4,9-14H2,1-2H3,(H,21,24)

> <PUBCHEM_IUPAC_INCHIKEY>
ADVOTLZEKRFNCA-UHFFFAOYSA-N

> <PUBCHEM_XLOGP3_AA>
3.8

> <PUBCHEM_EXACT_MASS>
359.203134

> <PUBCHEM_MOLECULAR_FORMULA>
C20H29N3OS

> <PUBCHEM_MOLECULAR_WEIGHT>
359.52876

> <PUBCHEM_OPENEYE_CAN_SMILES>
CCC(CC)NC(=O)CN1CCN(CC1)CC2=CSC3=CC=CC=C32

> <PUBCHEM_OPENEYE_ISO_SMILES>
CCC(CC)NC(=O)CN1CCN(CC1)CC2=CSC3=CC=CC=C32

> <PUBCHEM_CACTVS_TPSA>
63.8

> <PUBCHEM_MONOISOTOPIC_WEIGHT>
359.203134

> <PUBCHEM_TOTAL_CHARGE>
0

> <PUBCHEM_HEAVY_ATOM_COUNT>
25

> <PUBCHEM_ATOM_DEF_STEREO_COUNT>
0

> <PUBCHEM_ATOM_UDEF_STEREO_COUNT>
0

> <PUBCHEM_BOND_DEF_STEREO_COUNT>
0

> <PUBCHEM_BOND_UDEF_STEREO_COUNT>
0

> <PUBCHEM_ISOTOPIC_ATOM_COUNT>
0

> <PUBCHEM_COMPONENT_COUNT>
1

> <PUBCHEM_CACTVS_TAUTO_COUNT>
2

> <PUBCHEM_COORDINATE_TYPE>
1
5
255

> <PUBCHEM_BONDANNOTATIONS>
1  18  8
1  19  8
12  15  8
12  18  8
15  19  8
15  20  8
19  23  8
20  24  8
23  25  8
24  25  8

$$$$

