17395459
  -OEChem-06241222502D

 50 52  0     0  0  0  0  0  0999 V2000
    8.9562    4.0094    0.0000 O   0  0  0  0  0  0  0  0  0  0  0  0
    5.4641   -3.2694    0.0000 O   0  0  0  0  0  0  0  0  0  0  0  0
    8.0622   -0.7694    0.0000 O   0  0  0  0  0  0  0  0  0  0  0  0
    7.1962    3.7306    0.0000 N   0  0  0  0  0  0  0  0  0  0  0  0
    6.3301   -0.7694    0.0000 N   0  0  0  0  0  0  0  0  0  0  0  0
    6.3871    4.3184    0.0000 C   0  0  0  0  0  0  0  0  0  0  0  0
    6.6962    5.2694    0.0000 C   0  0  0  0  0  0  0  0  0  0  0  0
    7.6962    5.2694    0.0000 C   0  0  0  0  0  0  0  0  0  0  0  0
    8.0052    4.3184    0.0000 C   0  0  0  0  0  0  0  0  0  0  0  0
    7.1962    2.7306    0.0000 C   0  0  0  0  0  0  0  0  0  0  0  0
    6.3301    2.2306    0.0000 C   0  0  0  0  0  0  0  0  0  0  0  0
    8.0622    2.2306    0.0000 C   0  0  0  0  0  0  0  0  0  0  0  0
    7.1962    0.7306    0.0000 C   0  0  0  0  0  0  0  0  0  0  0  0
    6.3301    1.2306    0.0000 C   0  0  0  0  0  0  0  0  0  0  0  0
    8.0622    1.2306    0.0000 C   0  0  0  0  0  0  0  0  0  0  0  0
    7.1962   -0.2694    0.0000 C   0  0  0  0  0  0  0  0  0  0  0  0
    6.3301   -1.7694    0.0000 C   0  0  0  0  0  0  0  0  0  0  0  0
    5.4641   -2.2694    0.0000 C   0  0  0  0  0  0  0  0  0  0  0  0
    5.4641   -0.2694    0.0000 C   0  0  0  0  0  0  0  0  0  0  0  0
    4.5981   -3.7694    0.0000 C   0  0  0  0  0  0  0  0  0  0  0  0
    3.7320   -3.2694    0.0000 C   0  0  0  0  0  0  0  0  0  0  0  0
    4.5981   -4.7694    0.0000 C   0  0  0  0  0  0  0  0  0  0  0  0
    2.8660   -4.7694    0.0000 C   0  0  0  0  0  0  0  0  0  0  0  0
    2.8660   -3.7694    0.0000 C   0  0  0  0  0  0  0  0  0  0  0  0
    3.7320   -5.2694    0.0000 C   0  0  0  0  0  0  0  0  0  0  0  0
    2.0000   -5.2694    0.0000 C   0  0  0  0  0  0  0  0  0  0  0  0
    5.8207    4.5705    0.0000 H   0  0  0  0  0  0  0  0  0  0  0  0
    6.0771    3.7814    0.0000 H   0  0  0  0  0  0  0  0  0  0  0  0
    6.7610    5.8860    0.0000 H   0  0  0  0  0  0  0  0  0  0  0  0
    6.0897    5.3983    0.0000 H   0  0  0  0  0  0  0  0  0  0  0  0
    8.3026    5.3983    0.0000 H   0  0  0  0  0  0  0  0  0  0  0  0
    7.6313    5.8860    0.0000 H   0  0  0  0  0  0  0  0  0  0  0  0
    5.7932    2.5406    0.0000 H   0  0  0  0  0  0  0  0  0  0  0  0
    8.5991    2.5406    0.0000 H   0  0  0  0  0  0  0  0  0  0  0  0
    5.7932    0.9206    0.0000 H   0  0  0  0  0  0  0  0  0  0  0  0
    8.5991    0.9206    0.0000 H   0  0  0  0  0  0  0  0  0  0  0  0
    6.5422   -2.3520    0.0000 H   0  0  0  0  0  0  0  0  0  0  0  0
    6.9407   -1.6618    0.0000 H   0  0  0  0  0  0  0  0  0  0  0  0
    5.2520   -1.6868    0.0000 H   0  0  0  0  0  0  0  0  0  0  0  0
    4.8535   -2.3771    0.0000 H   0  0  0  0  0  0  0  0  0  0  0  0
    5.7741    0.2675    0.0000 H   0  0  0  0  0  0  0  0  0  0  0  0
    4.9272    0.0406    0.0000 H   0  0  0  0  0  0  0  0  0  0  0  0
    5.1541   -0.8064    0.0000 H   0  0  0  0  0  0  0  0  0  0  0  0
    3.7320   -2.6494    0.0000 H   0  0  0  0  0  0  0  0  0  0  0  0
    5.1350   -5.0794    0.0000 H   0  0  0  0  0  0  0  0  0  0  0  0
    2.3291   -3.4594    0.0000 H   0  0  0  0  0  0  0  0  0  0  0  0
    3.7320   -5.8894    0.0000 H   0  0  0  0  0  0  0  0  0  0  0  0
    1.6900   -4.7325    0.0000 H   0  0  0  0  0  0  0  0  0  0  0  0
    1.4631   -5.5794    0.0000 H   0  0  0  0  0  0  0  0  0  0  0  0
    2.3100   -5.8064    0.0000 H   0  0  0  0  0  0  0  0  0  0  0  0
  1  9  2  0  0  0  0
  2 18  1  0  0  0  0
  2 20  1  0  0  0  0
  3 16  2  0  0  0  0
  4  6  1  0  0  0  0
  4  9  1  0  0  0  0
  4 10  1  0  0  0  0
  5 16  1  0  0  0  0
  5 17  1  0  0  0  0
  5 19  1  0  0  0  0
  6  7  1  0  0  0  0
  6 27  1  0  0  0  0
  6 28  1  0  0  0  0
  7  8  1  0  0  0  0
  7 29  1  0  0  0  0
  7 30  1  0  0  0  0
  8  9  1  0  0  0  0
  8 31  1  0  0  0  0
  8 32  1  0  0  0  0
 10 11  2  0  0  0  0
 10 12  1  0  0  0  0
 11 14  1  0  0  0  0
 11 33  1  0  0  0  0
 12 15  2  0  0  0  0
 12 34  1  0  0  0  0
 13 14  2  0  0  0  0
 13 15  1  0  0  0  0
 13 16  1  0  0  0  0
 14 35  1  0  0  0  0
 15 36  1  0  0  0  0
 17 18  1  0  0  0  0
 17 37  1  0  0  0  0
 17 38  1  0  0  0  0
 18 39  1  0  0  0  0
 18 40  1  0  0  0  0
 19 41  1  0  0  0  0
 19 42  1  0  0  0  0
 19 43  1  0  0  0  0
 20 21  2  0  0  0  0
 20 22  1  0  0  0  0
 21 24  1  0  0  0  0
 21 44  1  0  0  0  0
 22 25  2  0  0  0  0
 22 45  1  0  0  0  0
 23 24  2  0  0  0  0
 23 25  1  0  0  0  0
 23 26  1  0  0  0  0
 24 46  1  0  0  0  0
 25 47  1  0  0  0  0
 26 48  1  0  0  0  0
 26 49  1  0  0  0  0
 26 50  1  0  0  0  0
M  END
> <PUBCHEM_COMPOUND_CID>
17395459

> <PUBCHEM_COMPOUND_CANONICALIZED>
1

> <PUBCHEM_CACTVS_COMPLEXITY>
480

> <PUBCHEM_CACTVS_HBOND_ACCEPTOR>
3

> <PUBCHEM_CACTVS_HBOND_DONOR>
0

> <PUBCHEM_CACTVS_ROTATABLE_BOND>
6

> <PUBCHEM_CACTVS_SUBSKEYS>
AAADceB7MAAAAAAAAAAAAAAAAAAAAWAAAAAwYAAAAAAAAAABQAAAHgAAAAAADAzhmAYyxoMABACIAiVSUACCCAAlIgAIiAEObMgOJjLEtZuHOSjkxhHY6YecyQCeKAAAAAAAAABQAAAAAAAAAAAAAAAAAA==

> <PUBCHEM_IUPAC_OPENEYE_NAME>
N-methyl-N-[2-(4-methylphenoxy)ethyl]-4-(2-oxopyrrolidin-1-yl)benzamide

> <PUBCHEM_IUPAC_CAS_NAME>
N-methyl-N-[2-(4-methylphenoxy)ethyl]-4-(2-oxo-1-pyrrolidinyl)benzamide

> <PUBCHEM_IUPAC_NAME>
N-methyl-N-[2-(4-methylphenoxy)ethyl]-4-(2-oxopyrrolidin-1-yl)benzamide

> <PUBCHEM_IUPAC_SYSTEMATIC_NAME>
N-methyl-N-[2-(4-methylphenoxy)ethyl]-4-(2-oxidanylidenepyrrolidin-1-yl)benzamide

> <PUBCHEM_IUPAC_TRADITIONAL_NAME>
4-(2-ketopyrrolidino)-N-methyl-N-[2-(4-methylphenoxy)ethyl]benzamide

> <PUBCHEM_IUPAC_INCHI>
InChI=1S/C21H24N2O3/c1-16-5-11-19(12-6-16)26-15-14-22(2)21(25)17-7-9-18(10-8-17)23-13-3-4-20(23)24/h5-12H,3-4,13-15H2,1-2H3

> <PUBCHEM_IUPAC_INCHIKEY>
LDFLSBAIJJPDJA-UHFFFAOYSA-N

> <PUBCHEM_XLOGP3_AA>
2.8

> <PUBCHEM_EXACT_MASS>
352.178693

> <PUBCHEM_MOLECULAR_FORMULA>
C21H24N2O3

> <PUBCHEM_MOLECULAR_WEIGHT>
352.42686

> <PUBCHEM_OPENEYE_CAN_SMILES>
CC1=CC=C(C=C1)OCCN(C)C(=O)C2=CC=C(C=C2)N3CCCC3=O

> <PUBCHEM_OPENEYE_ISO_SMILES>
CC1=CC=C(C=C1)OCCN(C)C(=O)C2=CC=C(C=C2)N3CCCC3=O

> <PUBCHEM_CACTVS_TPSA>
49.8

> <PUBCHEM_MONOISOTOPIC_WEIGHT>
352.178693

> <PUBCHEM_TOTAL_CHARGE>
0

> <PUBCHEM_HEAVY_ATOM_COUNT>
26

> <PUBCHEM_ATOM_DEF_STEREO_COUNT>
0

> <PUBCHEM_ATOM_UDEF_STEREO_COUNT>
0

> <PUBCHEM_BOND_DEF_STEREO_COUNT>
0

> <PUBCHEM_BOND_UDEF_STEREO_COUNT>
0

> <PUBCHEM_ISOTOPIC_ATOM_COUNT>
0

> <PUBCHEM_COMPONENT_COUNT>
1

> <PUBCHEM_CACTVS_TAUTO_COUNT>
2

> <PUBCHEM_COORDINATE_TYPE>
1
5
255

> <PUBCHEM_BONDANNOTATIONS>
10  11  8
10  12  8
11  14  8
12  15  8
13  14  8
13  15  8
20  21  8
20  22  8
21  24  8
22  25  8
23  24  8
23  25  8

$$$$

