47205619
  -OEChem-06241222592D

 27 27  0     0  0  0  0  0  0999 V2000
    6.2147   -1.3691    0.0000 O   0  0  0  0  0  0  0  0  0  0  0  0
    2.2788    1.2052    0.0000 O   0  0  0  0  0  0  0  0  0  0  0  0
    4.3126   -0.7511    0.0000 O   0  0  0  0  0  0  0  0  0  0  0  0
    6.7500    0.2782    0.0000 O   0  0  0  0  0  0  0  0  0  0  0  0
    4.8479    0.8962    0.0000 N   0  0  0  0  0  0  0  0  0  0  0  0
    3.0878    0.6174    0.0000 N   0  0  0  0  0  0  0  0  0  0  0  0
    7.3737   -2.6563    0.0000 C   0  0  0  0  0  0  0  0  0  0  0  0
    7.1658   -1.6781    0.0000 C   0  0  0  0  0  0  0  0  0  0  0  0
    8.3248   -2.9653    0.0000 C   0  0  0  0  0  0  0  0  0  0  0  0
    3.8968    1.2052    0.0000 C   0  0  0  0  0  0  0  0  0  0  0  0
    2.5878    2.1563    0.0000 C   0  0  0  0  0  0  0  0  0  0  0  0
    3.5878    2.1563    0.0000 C   0  0  0  0  0  0  0  0  0  0  0  0
    5.0558   -0.0819    0.0000 C   0  0  0  0  0  0  0  0  0  0  0  0
    6.0068   -0.3910    0.0000 C   0  0  0  0  0  0  0  0  0  0  0  0
    2.0000    2.9653    0.0000 C   0  0  0  0  0  0  0  0  0  0  0  0
    6.7541   -2.6779    0.0000 H   0  0  0  0  0  0  0  0  0  0  0  0
    7.2874   -3.2702    0.0000 H   0  0  0  0  0  0  0  0  0  0  0  0
    7.7854   -1.6565    0.0000 H   0  0  0  0  0  0  0  0  0  0  0  0
    7.2521   -1.0642    0.0000 H   0  0  0  0  0  0  0  0  0  0  0  0
    8.1332   -3.5550    0.0000 H   0  0  0  0  0  0  0  0  0  0  0  0
    8.9144   -3.1569    0.0000 H   0  0  0  0  0  0  0  0  0  0  0  0
    8.5163   -2.3756    0.0000 H   0  0  0  0  0  0  0  0  0  0  0  0
    3.9522    2.6579    0.0000 H   0  0  0  0  0  0  0  0  0  0  0  0
    5.3086    1.3111    0.0000 H   0  0  0  0  0  0  0  0  0  0  0  0
    2.5016    3.3297    0.0000 H   0  0  0  0  0  0  0  0  0  0  0  0
    1.6356    3.4669    0.0000 H   0  0  0  0  0  0  0  0  0  0  0  0
    1.4984    2.6009    0.0000 H   0  0  0  0  0  0  0  0  0  0  0  0
  1  8  1  0  0  0  0
  1 14  1  0  0  0  0
  2  6  1  0  0  0  0
  2 11  1  0  0  0  0
  3 13  2  0  0  0  0
  4 14  2  0  0  0  0
  5 10  1  0  0  0  0
  5 13  1  0  0  0  0
  5 24  1  0  0  0  0
  6 10  2  0  0  0  0
  7  8  1  0  0  0  0
  7  9  1  0  0  0  0
  7 16  1  0  0  0  0
  7 17  1  0  0  0  0
  8 18  1  0  0  0  0
  8 19  1  0  0  0  0
  9 20  1  0  0  0  0
  9 21  1  0  0  0  0
  9 22  1  0  0  0  0
 10 12  1  0  0  0  0
 11 12  2  0  0  0  0
 11 15  1  0  0  0  0
 12 23  1  0  0  0  0
 13 14  1  0  0  0  0
 15 25  1  0  0  0  0
 15 26  1  0  0  0  0
 15 27  1  0  0  0  0
M  END
> <PUBCHEM_COMPOUND_CID>
47205619

> <PUBCHEM_COMPOUND_CANONICALIZED>
1

> <PUBCHEM_CACTVS_COMPLEXITY>
244

> <PUBCHEM_CACTVS_HBOND_ACCEPTOR>
5

> <PUBCHEM_CACTVS_HBOND_DONOR>
1

> <PUBCHEM_CACTVS_ROTATABLE_BOND>
5

> <PUBCHEM_CACTVS_SUBSKEYS>
AAADccBzOAAAAAAAAAAAAAAAAAAAAWAAAAAAAAAAAAAAAAABgAAAHgAUAAAACAShkgIzvJLQBACpAKPyegKAAAAlIgAhGCH2bFqCJAhAiaQHAIhCFQrQQEAAAAAAAAAAAAAAAAAAAAAAAAAAAAAAAAAAAA==

> <PUBCHEM_IUPAC_OPENEYE_NAME>
propyl 2-[(5-methylisoxazol-3-yl)amino]-2-oxo-acetate

> <PUBCHEM_IUPAC_CAS_NAME>
2-[(5-methyl-3-isoxazolyl)amino]-2-oxoacetic acid propyl ester

> <PUBCHEM_IUPAC_NAME>
propyl 2-[(5-methyl-1,2-oxazol-3-yl)amino]-2-oxoacetate

> <PUBCHEM_IUPAC_SYSTEMATIC_NAME>
propyl 2-[(5-methyl-1,2-oxazol-3-yl)amino]-2-oxidanylidene-ethanoate

> <PUBCHEM_IUPAC_TRADITIONAL_NAME>
2-keto-2-[(5-methylisoxazol-3-yl)amino]acetic acid propyl ester

> <PUBCHEM_IUPAC_INCHI>
InChI=1S/C9H12N2O4/c1-3-4-14-9(13)8(12)10-7-5-6(2)15-11-7/h5H,3-4H2,1-2H3,(H,10,11,12)

> <PUBCHEM_IUPAC_INCHIKEY>
RBBMHAQSWWDYIO-UHFFFAOYSA-N

> <PUBCHEM_XLOGP3_AA>
1.5

> <PUBCHEM_EXACT_MASS>
212.079707

> <PUBCHEM_MOLECULAR_FORMULA>
C9H12N2O4

> <PUBCHEM_MOLECULAR_WEIGHT>
212.20258

> <PUBCHEM_OPENEYE_CAN_SMILES>
CCCOC(=O)C(=O)NC1=NOC(=C1)C

> <PUBCHEM_OPENEYE_ISO_SMILES>
CCCOC(=O)C(=O)NC1=NOC(=C1)C

> <PUBCHEM_CACTVS_TPSA>
81.4

> <PUBCHEM_MONOISOTOPIC_WEIGHT>
212.079707

> <PUBCHEM_TOTAL_CHARGE>
0

> <PUBCHEM_HEAVY_ATOM_COUNT>
15

> <PUBCHEM_ATOM_DEF_STEREO_COUNT>
0

> <PUBCHEM_ATOM_UDEF_STEREO_COUNT>
0

> <PUBCHEM_BOND_DEF_STEREO_COUNT>
0

> <PUBCHEM_BOND_UDEF_STEREO_COUNT>
0

> <PUBCHEM_ISOTOPIC_ATOM_COUNT>
0

> <PUBCHEM_COMPONENT_COUNT>
1

> <PUBCHEM_CACTVS_TAUTO_COUNT>
8

> <PUBCHEM_COORDINATE_TYPE>
1
5
255

> <PUBCHEM_BONDANNOTATIONS>
10  12  8
11  12  8
2  11  8
2  6  8
6  10  8

$$$$

