51091019
  -OEChem-06241223013D

 48 50  0     0  0  0  0  0  0999 V2000
   -0.7433   -2.7778    0.9411 S   0  0  0  0  0  0  0  0  0  0  0  0
    4.4655    1.8779    0.1449 O   0  0  0  0  0  0  0  0  0  0  0  0
   -2.4253   -0.7237    0.1030 N   0  0  0  0  0  0  0  0  0  0  0  0
   -2.0727    0.8596    1.5713 N   0  0  0  0  0  0  0  0  0  0  0  0
   -1.2779   -0.2213    1.8969 N   0  0  0  0  0  0  0  0  0  0  0  0
    2.2300    2.4688   -0.1980 N   0  0  0  0  0  0  0  0  0  0  0  0
   -2.9596   -1.4339   -1.0390 C   0  0  0  0  0  0  0  0  0  0  0  0
   -2.0557   -2.0263   -2.0801 C   0  0  0  0  0  0  0  0  0  0  0  0
   -2.9115   -0.8403   -2.4163 C   0  0  0  0  0  0  0  0  0  0  0  0
   -2.7527    0.5391    0.4938 C   0  0  0  0  0  0  0  0  0  0  0  0
   -1.5034   -1.1599    1.0056 C   0  0  0  0  0  0  0  0  0  0  0  0
   -3.7296    1.3802   -0.2207 C   0  0  0  0  0  0  0  0  0  0  0  0
   -3.1080    2.6740   -0.7982 C   0  0  0  0  0  0  0  0  0  0  0  0
   -4.9582    1.7504    0.6438 C   0  0  0  0  0  0  0  0  0  0  0  0
    0.8821   -2.4385    1.6832 C   0  0  0  0  0  0  0  0  0  0  0  0
    1.8332   -1.8178    0.7167 C   0  0  0  0  0  0  0  0  0  0  0  0
    2.1081   -0.4521    0.7874 C   0  0  0  0  0  0  0  0  0  0  0  0
    2.4490   -2.6035   -0.2576 C   0  0  0  0  0  0  0  0  0  0  0  0
    2.9986    0.1280   -0.1161 C   0  0  0  0  0  0  0  0  0  0  0  0
    3.3398   -2.0236   -1.1609 C   0  0  0  0  0  0  0  0  0  0  0  0
    3.6144   -0.6578   -1.0904 C   0  0  0  0  0  0  0  0  0  0  0  0
    3.2856    1.5518   -0.0421 C   0  0  0  0  0  0  0  0  0  0  0  0
    2.4407    3.9089   -0.1515 C   0  0  0  0  0  0  0  0  0  0  0  0
    0.8509    2.0379   -0.4171 C   0  0  0  0  0  0  0  0  0  0  0  0
   -3.8501   -2.0050   -0.7920 H   0  0  0  0  0  0  0  0  0  0  0  0
   -0.9875   -1.8532   -2.0308 H   0  0  0  0  0  0  0  0  0  0  0  0
   -2.3331   -2.9842   -2.5032 H   0  0  0  0  0  0  0  0  0  0  0  0
   -3.7635   -1.0017   -3.0656 H   0  0  0  0  0  0  0  0  0  0  0  0
   -2.3940    0.0961   -2.5842 H   0  0  0  0  0  0  0  0  0  0  0  0
   -4.1564    0.8462   -1.0733 H   0  0  0  0  0  0  0  0  0  0  0  0
   -2.2812    2.4358   -1.4758 H   0  0  0  0  0  0  0  0  0  0  0  0
   -5.4561    0.8469    1.0126 H   0  0  0  0  0  0  0  0  0  0  0  0
   -5.6855    2.3272    0.0629 H   0  0  0  0  0  0  0  0  0  0  0  0
   -3.8526    3.2481   -1.3594 H   0  0  0  0  0  0  0  0  0  0  0  0
   -2.7129    3.3119    0.0003 H   0  0  0  0  0  0  0  0  0  0  0  0
   -4.6622    2.3480    1.5132 H   0  0  0  0  0  0  0  0  0  0  0  0
    0.7657   -1.8270    2.5852 H   0  0  0  0  0  0  0  0  0  0  0  0
    1.2954   -3.3935    2.0292 H   0  0  0  0  0  0  0  0  0  0  0  0
    1.6446    0.1519    1.5639 H   0  0  0  0  0  0  0  0  0  0  0  0
    2.2459   -3.6692   -0.3229 H   0  0  0  0  0  0  0  0  0  0  0  0
    3.8191   -2.6355   -1.9195 H   0  0  0  0  0  0  0  0  0  0  0  0
    4.3084   -0.2179   -1.8020 H   0  0  0  0  0  0  0  0  0  0  0  0
    0.3463    2.7663   -1.0600 H   0  0  0  0  0  0  0  0  0  0  0  0
    1.8093    4.3332    0.6343 H   0  0  0  0  0  0  0  0  0  0  0  0
    3.4863    4.1457    0.0609 H   0  0  0  0  0  0  0  0  0  0  0  0
    2.1672    4.3384   -1.1195 H   0  0  0  0  0  0  0  0  0  0  0  0
    0.7837    1.0676   -0.9121 H   0  0  0  0  0  0  0  0  0  0  0  0
    0.3416    2.0092    0.5494 H   0  0  0  0  0  0  0  0  0  0  0  0
  1 11  1  0  0  0  0
  1 15  1  0  0  0  0
  2 22  2  0  0  0  0
  3  7  1  0  0  0  0
  3 10  1  0  0  0  0
  3 11  1  0  0  0  0
  4  5  1  0  0  0  0
  4 10  2  0  0  0  0
  5 11  2  0  0  0  0
  6 22  1  0  0  0  0
  6 23  1  0  0  0  0
  6 24  1  0  0  0  0
  7  8  1  0  0  0  0
  7  9  1  0  0  0  0
  7 25  1  0  0  0  0
  8  9  1  0  0  0  0
  8 26  1  0  0  0  0
  8 27  1  0  0  0  0
  9 28  1  0  0  0  0
  9 29  1  0  0  0  0
 10 12  1  0  0  0  0
 12 13  1  0  0  0  0
 12 14  1  0  0  0  0
 12 30  1  0  0  0  0
 13 31  1  0  0  0  0
 13 34  1  0  0  0  0
 13 35  1  0  0  0  0
 14 32  1  0  0  0  0
 14 33  1  0  0  0  0
 14 36  1  0  0  0  0
 15 16  1  0  0  0  0
 15 37  1  0  0  0  0
 15 38  1  0  0  0  0
 16 17  2  0  0  0  0
 16 18  1  0  0  0  0
 17 19  1  0  0  0  0
 17 39  1  0  0  0  0
 18 20  2  0  0  0  0
 18 40  1  0  0  0  0
 19 21  2  0  0  0  0
 19 22  1  0  0  0  0
 20 21  1  0  0  0  0
 20 41  1  0  0  0  0
 21 42  1  0  0  0  0
 23 44  1  0  0  0  0
 23 45  1  0  0  0  0
 23 46  1  0  0  0  0
 24 43  1  0  0  0  0
 24 47  1  0  0  0  0
 24 48  1  0  0  0  0
M  END
> <PUBCHEM_COMPOUND_CID>
51091019

> <PUBCHEM_CONFORMER_RMSD>
1

> <PUBCHEM_CONFORMER_DIVERSEORDER>
1
146
189
131
132
152
172
167
180
81
15
67
57
72
100
91
77
156
166
22
92
26
94
54
2
127
21
36
178
170
12
17
188
173
20
84
64
121
104
70
107
49
65
106
116
175
190
192
25
52
151
35
174
53
171
71
144
23
135
176
29
4
83
40
78
38
85
181
129
30
183
139
46
62
50
88
44
5
159
14
45
126
61
105
112
51
185
186
187
134
87
128
102
119
195
58
141
39
28
109
138
164
113
7
42
137
149
191
69
158
182
154
125
165
59
56
133
9
97
11
8
110
74
3
75
169
41
90
155
82
103
123
76
194
66
161
153
111
147
118
179
73
99
6
160
43
130
136
60
34
122
68
93
150
142
19
47
63
120
79
86
18
157
101
33
48
89
162
13
108
145
95
148
37
80
96
163
32
177
117
193
31
55
16
168
24
115
184
124
114
27
143
98
10
140

> <PUBCHEM_MMFF94_PARTIAL_CHARGES>
31
1 -0.29
10 0.01
11 0.24
12 0.18
15 0.37
16 -0.14
17 -0.15
18 -0.15
19 0.09
2 -0.57
20 -0.15
21 -0.15
22 0.54
23 0.3
24 0.3
25 0.1
26 0.1
27 0.1
28 0.1
29 0.1
3 0.29
39 0.15
4 -0.34
40 0.15
41 0.15
42 0.15
5 -0.34
6 -0.66
7 -0.09
8 -0.2
9 -0.2

> <PUBCHEM_EFFECTIVE_ROTOR_COUNT>
7.6

> <PUBCHEM_PHARMACOPHORE_FEATURES>
6
1 2 acceptor
3 12 13 14 hydrophobe
3 3 4 10 cation
3 3 5 11 cation
5 3 4 5 10 11 rings
6 16 17 18 19 20 21 rings

> <PUBCHEM_HEAVY_ATOM_COUNT>
24

> <PUBCHEM_ATOM_DEF_STEREO_COUNT>
0

> <PUBCHEM_ATOM_UDEF_STEREO_COUNT>
0

> <PUBCHEM_BOND_DEF_STEREO_COUNT>
0

> <PUBCHEM_BOND_UDEF_STEREO_COUNT>
0

> <PUBCHEM_ISOTOPIC_ATOM_COUNT>
0

> <PUBCHEM_COMPONENT_COUNT>
1

> <PUBCHEM_CACTVS_TAUTO_COUNT>
1

> <PUBCHEM_CONFORMER_ID>
030B964B00000001

> <PUBCHEM_MMFF94_ENERGY>
55.8185

> <PUBCHEM_FEATURE_SELFOVERLAP>
32.948

> <PUBCHEM_SHAPE_FINGERPRINT>
10165383 225 17058625560138338354
11370993 70 18195530298717124824
12156800 1 15234470490465301000
12173636 292 18272647952798619651
12467345 10 18333734602681708815
12539773 59 17969205764530497137
12596599 1 18040704896787113510
13583140 156 18199737206757383051
14251764 38 18195531381317785160
15210252 30 17559091384940289164
15238133 3 17556859440512213754
15664445 248 16598201471878504663
17921350 177 18120098531073714932
17980427 23 18119280374438073114
18219364 16 17916866811703344098
192875 21 18194988282523695778
19930381 70 18271807951747787801
20429585 67 17907867206447278263
21864079 5 18342742944065505995
22749437 52 18195808466658545272
22907989 373 17191777191592898460
23227448 37 18411417328377786347
23559900 14 16661509422464994506
238 59 18193849132521288934
25265897 201 17751609200494092845
340366 18 18114744965850573383
35225 105 16685395960269128428
474 4 18340772546092624970
7832392 63 18336828683788627438
9709674 26 18339636746312623272

> <PUBCHEM_SHAPE_MULTIPOLES>
471.96
8.12
4.1
1.74
1.79
2.19
0.44
3.82
1.52
-2.07
0.11
1.22
-1.16
-0.59

> <PUBCHEM_SHAPE_SELFOVERLAP>
972.272

> <PUBCHEM_SHAPE_VOLUME>
275.2

> <PUBCHEM_COORDINATE_TYPE>
2
5
10

$$$$

