13833
  -OEChem-06241222403D

 22 21  0     0  0  0  0  0  0999 V2000
   -2.9679   -0.4338    0.0012 O   0  0  0  0  0  0  0  0  0  0  0  0
   -1.8692    1.5947   -0.0016 O   0  0  0  0  0  0  0  0  0  0  0  0
    2.0495   -1.4807   -0.0011 O   0  0  0  0  0  0  0  0  0  0  0  0
    0.5473    0.3351    0.0047 N   0  0  0  0  0  0  0  0  0  0  0  0
    4.2667    0.2039   -0.0023 N   0  3  0  0  0  0  0  0  0  0  0  0
    5.2775   -0.1841   -0.0044 N   0  0  0  0  0  0  0  0  0  0  0  0
   -0.6315   -0.4952    0.0071 C   0  0  0  0  0  0  0  0  0  0  0  0
   -4.2271    0.2469   -0.0038 C   0  0  0  0  0  0  0  0  0  0  0  0
   -1.8637    0.3713    0.0018 C   0  0  0  0  0  0  0  0  0  0  0  0
   -5.3414   -0.7778   -0.0038 C   0  0  0  0  0  0  0  0  0  0  0  0
    1.8531   -0.1068    0.0015 C   0  0  0  0  0  0  0  0  0  0  0  0
    2.9065    0.7266    0.0007 C   0  0  0  0  0  0  0  0  0  0  0  0
   -0.6466   -1.1267   -0.8875 H   0  0  0  0  0  0  0  0  0  0  0  0
   -0.6484   -1.1189    0.9069 H   0  0  0  0  0  0  0  0  0  0  0  0
   -4.3044    0.8780    0.8885 H   0  0  0  0  0  0  0  0  0  0  0  0
   -4.2999    0.8731   -0.9000 H   0  0  0  0  0  0  0  0  0  0  0  0
    0.4212    1.3435    0.0072 H   0  0  0  0  0  0  0  0  0  0  0  0
   -6.3206   -0.2908   -0.0075 H   0  0  0  0  0  0  0  0  0  0  0  0
   -5.2666   -1.4285   -0.8813 H   0  0  0  0  0  0  0  0  0  0  0  0
   -5.2710   -1.4237    0.8776 H   0  0  0  0  0  0  0  0  0  0  0  0
    2.7729    1.8032    0.0026 H   0  0  0  0  0  0  0  0  0  0  0  0
    3.0082   -1.6469   -0.0032 H   0  0  0  0  0  0  0  0  0  0  0  0
  1  8  1  0  0  0  0
  1  9  1  0  0  0  0
  2  9  2  0  0  0  0
  3 11  1  0  0  0  0
  3 22  1  0  0  0  0
  4  7  1  0  0  0  0
  4 11  1  0  0  0  0
  4 17  1  0  0  0  0
  5  6  3  0  0  0  0
  5 12  1  0  0  0  0
  7  9  1  0  0  0  0
  7 13  1  0  0  0  0
  7 14  1  0  0  0  0
  8 10  1  0  0  0  0
  8 15  1  0  0  0  0
  8 16  1  0  0  0  0
 10 18  1  0  0  0  0
 10 19  1  0  0  0  0
 10 20  1  0  0  0  0
 11 12  2  0  0  0  0
 12 21  1  0  0  0  0
M  CHG  1   5   1
M  END
> <PUBCHEM_COMPOUND_CID>
13833

> <PUBCHEM_CONFORMER_RMSD>
0.6

> <PUBCHEM_CONFORMER_DIVERSEORDER>
1
92
7
12
11
139
86
9
88
5
103
45
73
51
20
41
4
90
71
17
89
43
83
33
44
133
119
116
126
25
84
101
2
109
112
53
78
138
115
125
70
57
131
26
114
69
38
117
68
124
85
35
99
16
136
32
6
106
52
132
55
77
18
39
105
141
95
14
59
135
21
22
3
49
82
87
137
8
97
107
29
134
72
130
60
23
10
61
36
74
108
54
110
42
27
47
127
66
63
58
81
48
94
120
65
121
15
30
34
96
93
79
123
104
80
118
19
100
76
98
56
140
102
24
91
50
128
46
28
40
62
122
13
37
113
129
64
111
31
67
75

> <PUBCHEM_MMFF94_PARTIAL_CHARGES>
14
1 -0.43
11 0.18
12 -0.02
17 0.4
2 -0.57
21 0.15
22 0.45
3 -0.53
4 -0.87
5 1.36
6 -0.49
7 0.43
8 0.28
9 0.66

> <PUBCHEM_EFFECTIVE_ROTOR_COUNT>
5

> <PUBCHEM_PHARMACOPHORE_FEATURES>
4
1 2 acceptor
1 3 donor
1 4 cation
1 4 donor

> <PUBCHEM_HEAVY_ATOM_COUNT>
12

> <PUBCHEM_ATOM_DEF_STEREO_COUNT>
0

> <PUBCHEM_ATOM_UDEF_STEREO_COUNT>
0

> <PUBCHEM_BOND_DEF_STEREO_COUNT>
0

> <PUBCHEM_BOND_UDEF_STEREO_COUNT>
1

> <PUBCHEM_ISOTOPIC_ATOM_COUNT>
0

> <PUBCHEM_COMPONENT_COUNT>
1

> <PUBCHEM_CACTVS_TAUTO_COUNT>
1

> <PUBCHEM_CONFORMER_ID>
0000360900000001

> <PUBCHEM_MMFF94_ENERGY>
9.1308

> <PUBCHEM_FEATURE_SELFOVERLAP>
20.336

> <PUBCHEM_SHAPE_FINGERPRINT>
11062470 55 12463572876237345420
12932764 1 17096104569991249153
14123238 8 18411136935104898443
1420 363 18341607105762725763
14325111 11 18410856611474861185
17834072 33 18410855421499862629
17834076 25 16343986905534328961
187816 3 17203610376586834513
200 152 18334577940800478745
20279233 1 17774995800000784851
20645477 70 18339645658291277799
20719005 15 18410856559808588128
22485316 2 18409451388797301599
23402539 116 18412832378151379711
23402655 69 18337115660940178389
23557571 272 18335134332059706189
366044 4 18342458127435797714
42788 4 18410573980877647812

> <PUBCHEM_SHAPE_MULTIPOLES>
214.4
11.02
1.07
0.57
0.13
0.05
0
-1.42
0.03
0.19
0
0.06
0
0

> <PUBCHEM_SHAPE_SELFOVERLAP>
405.834

> <PUBCHEM_SHAPE_VOLUME>
130.2

> <PUBCHEM_COORDINATE_TYPE>
2
5
10

$$$$

