5952
  -OEChem-06261201003D

 59 62  0     1  0  0  0  0  0999 V2000
    4.2530    1.5411   -0.8165 O   0  0  0  0  0  0  0  0  0  0  0  0
    5.6264   -0.6560   -0.1055 O   0  0  0  0  0  0  0  0  0  0  0  0
   -6.9050   -1.5453    1.0149 O   0  0  0  0  0  0  0  0  0  0  0  0
    5.9419   -2.6141    1.0792 O   0  0  0  0  0  0  0  0  0  0  0  0
    0.0788    1.5060    0.4650 C   0  0  2  0  0  0  0  0  0  0  0  0
    1.1863    0.6301   -0.1586 C   0  0  1  0  0  0  0  0  0  0  0  0
   -1.2994    1.2587   -0.1573 C   0  0  1  0  0  0  0  0  0  0  0  0
   -1.6840   -0.2397    0.0514 C   0  0  1  0  0  0  0  0  0  0  0  0
   -3.1120   -0.5905   -0.5199 C   0  0  2  0  0  0  0  0  0  0  0  0
    2.4017    1.1631    0.6319 C   0  0  2  0  0  0  0  0  0  0  0  0
    0.8325   -0.8374    0.1175 C   0  0  0  0  0  0  0  0  0  0  0  0
   -0.5602   -1.1984   -0.4298 C   0  0  0  0  0  0  0  0  0  0  0  0
    0.6716    2.9103    0.4196 C   0  0  0  0  0  0  0  0  0  0  0  0
    2.1669    2.6862    0.7088 C   0  0  0  0  0  0  0  0  0  0  0  0
   -2.3666    2.1674    0.4658 C   0  0  0  0  0  0  0  0  0  0  0  0
    1.3751    0.8466   -1.6828 C   0  0  0  0  0  0  0  0  0  0  0  0
   -4.1319    0.4398   -0.0176 C   0  0  0  0  0  0  0  0  0  0  0  0
   -3.7402    1.8941   -0.1333 C   0  0  0  0  0  0  0  0  0  0  0  0
   -3.5024   -2.0122   -0.0207 C   0  0  0  0  0  0  0  0  0  0  0  0
   -3.1354   -0.5785   -2.0651 C   0  0  0  0  0  0  0  0  0  0  0  0
    3.7295    0.8199    0.0315 C   0  0  0  0  0  0  0  0  0  0  0  0
   -4.9817   -2.3282   -0.1759 C   0  0  0  0  0  0  0  0  0  0  0  0
   -5.3359    0.1210    0.4862 C   0  0  0  0  0  0  0  0  0  0  0  0
   -5.8166   -1.2794    0.5088 C   0  0  0  0  0  0  0  0  0  0  0  0
    4.3799   -0.4545    0.5263 C   0  0  0  0  0  0  0  0  0  0  0  0
    6.3156   -1.7838    0.2618 C   0  0  0  0  0  0  0  0  0  0  0  0
    7.6118   -1.8664   -0.4857 C   0  0  0  0  0  0  0  0  0  0  0  0
   -0.0074    1.2473    1.5340 H   0  0  0  0  0  0  0  0  0  0  0  0
   -1.2576    1.4853   -1.2281 H   0  0  0  0  0  0  0  0  0  0  0  0
   -1.7433   -0.3836    1.1429 H   0  0  0  0  0  0  0  0  0  0  0  0
    2.3866    0.7767    1.6604 H   0  0  0  0  0  0  0  0  0  0  0  0
    0.8479   -1.0347    1.1970 H   0  0  0  0  0  0  0  0  0  0  0  0
    1.5717   -1.5083   -0.3335 H   0  0  0  0  0  0  0  0  0  0  0  0
   -0.5190   -1.2163   -1.5234 H   0  0  0  0  0  0  0  0  0  0  0  0
   -0.7830   -2.2236   -0.1142 H   0  0  0  0  0  0  0  0  0  0  0  0
    0.2191    3.5737    1.1636 H   0  0  0  0  0  0  0  0  0  0  0  0
    0.5348    3.3726   -0.5642 H   0  0  0  0  0  0  0  0  0  0  0  0
    2.7715    3.2697    0.0067 H   0  0  0  0  0  0  0  0  0  0  0  0
    2.4172    3.0476    1.7133 H   0  0  0  0  0  0  0  0  0  0  0  0
   -2.1127    3.2201    0.2959 H   0  0  0  0  0  0  0  0  0  0  0  0
   -2.4014    2.0200    1.5530 H   0  0  0  0  0  0  0  0  0  0  0  0
    1.6878    1.8669   -1.9262 H   0  0  0  0  0  0  0  0  0  0  0  0
    2.1395    0.1681   -2.0791 H   0  0  0  0  0  0  0  0  0  0  0  0
    0.4634    0.6524   -2.2538 H   0  0  0  0  0  0  0  0  0  0  0  0
   -3.7416    2.1794   -1.1926 H   0  0  0  0  0  0  0  0  0  0  0  0
   -4.4730    2.5445    0.3600 H   0  0  0  0  0  0  0  0  0  0  0  0
   -3.2455   -2.1093    1.0435 H   0  0  0  0  0  0  0  0  0  0  0  0
   -2.9266   -2.7809   -0.5499 H   0  0  0  0  0  0  0  0  0  0  0  0
   -2.7368    0.3527   -2.4792 H   0  0  0  0  0  0  0  0  0  0  0  0
   -2.5475   -1.4020   -2.4839 H   0  0  0  0  0  0  0  0  0  0  0  0
   -4.1552   -0.6865   -2.4529 H   0  0  0  0  0  0  0  0  0  0  0  0
   -5.1920   -3.2980    0.2888 H   0  0  0  0  0  0  0  0  0  0  0  0
   -5.2786   -2.3834   -1.2279 H   0  0  0  0  0  0  0  0  0  0  0  0
   -6.0261    0.8777    0.8437 H   0  0  0  0  0  0  0  0  0  0  0  0
    3.7202   -1.2970    0.3043 H   0  0  0  0  0  0  0  0  0  0  0  0
    4.5287   -0.3626    1.6077 H   0  0  0  0  0  0  0  0  0  0  0  0
    8.2301   -0.9963   -0.2512 H   0  0  0  0  0  0  0  0  0  0  0  0
    7.4166   -1.9220   -1.5596 H   0  0  0  0  0  0  0  0  0  0  0  0
    8.1497   -2.7688   -0.1815 H   0  0  0  0  0  0  0  0  0  0  0  0
  1 21  2  0  0  0  0
  2 25  1  0  0  0  0
  2 26  1  0  0  0  0
  3 24  2  0  0  0  0
  4 26  2  0  0  0  0
  5  6  1  0  0  0  0
  5  7  1  0  0  0  0
  5 13  1  0  0  0  0
  5 28  1  0  0  0  0
  6 10  1  0  0  0  0
  6 11  1  0  0  0  0
  6 16  1  0  0  0  0
  7  8  1  0  0  0  0
  7 15  1  0  0  0  0
  7 29  1  0  0  0  0
  8  9  1  0  0  0  0
  8 12  1  0  0  0  0
  8 30  1  0  0  0  0
  9 17  1  0  0  0  0
  9 19  1  0  0  0  0
  9 20  1  0  0  0  0
 10 14  1  0  0  0  0
 10 21  1  0  0  0  0
 10 31  1  0  0  0  0
 11 12  1  0  0  0  0
 11 32  1  0  0  0  0
 11 33  1  0  0  0  0
 12 34  1  0  0  0  0
 12 35  1  0  0  0  0
 13 14  1  0  0  0  0
 13 36  1  0  0  0  0
 13 37  1  0  0  0  0
 14 38  1  0  0  0  0
 14 39  1  0  0  0  0
 15 18  1  0  0  0  0
 15 40  1  0  0  0  0
 15 41  1  0  0  0  0
 16 42  1  0  0  0  0
 16 43  1  0  0  0  0
 16 44  1  0  0  0  0
 17 18  1  0  0  0  0
 17 23  2  0  0  0  0
 18 45  1  0  0  0  0
 18 46  1  0  0  0  0
 19 22  1  0  0  0  0
 19 47  1  0  0  0  0
 19 48  1  0  0  0  0
 20 49  1  0  0  0  0
 20 50  1  0  0  0  0
 20 51  1  0  0  0  0
 21 25  1  0  0  0  0
 22 24  1  0  0  0  0
 22 52  1  0  0  0  0
 22 53  1  0  0  0  0
 23 24  1  0  0  0  0
 23 54  1  0  0  0  0
 25 55  1  0  0  0  0
 25 56  1  0  0  0  0
 26 27  1  0  0  0  0
 27 57  1  0  0  0  0
 27 58  1  0  0  0  0
 27 59  1  0  0  0  0
M  END
> <PUBCHEM_COMPOUND_CID>
5952

> <PUBCHEM_CONFORMER_RMSD>
0.8

> <PUBCHEM_CONFORMER_DIVERSEORDER>
1
18
4
7
16
14
11
13
15
10
8
5
3
12
17
6
9
19
2

> <PUBCHEM_MMFF94_PARTIAL_CHARGES>
16
1 -0.57
10 0.06
17 -0.28
18 0.14
2 -0.43
21 0.45
22 0.06
23 -0.14
24 0.49
25 0.34
26 0.66
27 0.06
3 -0.57
4 -0.57
54 0.15
9 0.14

> <PUBCHEM_EFFECTIVE_ROTOR_COUNT>
5.8

> <PUBCHEM_PHARMACOPHORE_FEATURES>
7
1 1 acceptor
1 3 acceptor
1 4 acceptor
5 5 6 10 13 14 rings
6 5 6 7 8 11 12 rings
6 7 8 9 15 17 18 rings
6 9 17 19 22 23 24 rings

> <PUBCHEM_HEAVY_ATOM_COUNT>
27

> <PUBCHEM_ATOM_DEF_STEREO_COUNT>
6

> <PUBCHEM_ATOM_UDEF_STEREO_COUNT>
0

> <PUBCHEM_BOND_DEF_STEREO_COUNT>
0

> <PUBCHEM_BOND_UDEF_STEREO_COUNT>
0

> <PUBCHEM_ISOTOPIC_ATOM_COUNT>
0

> <PUBCHEM_COMPONENT_COUNT>
1

> <PUBCHEM_CACTVS_TAUTO_COUNT>
15

> <PUBCHEM_CONFORMER_ID>
0000174000000001

> <PUBCHEM_MMFF94_ENERGY>
73.5969

> <PUBCHEM_FEATURE_SELFOVERLAP>
35.617

> <PUBCHEM_SHAPE_FINGERPRINT>
10319926 262 18261121802126166840
10366900 7 13901914388554629221
10622 236 17245569780381312351
11456790 92 17895180096898895355
11524674 6 16732985323148581175
11578080 2 5255857351201621402
117089 54 17913478052817511627
12107183 9 18262510515772834697
12166972 35 18131909347640739460
12236239 1 18201997728927089708
12403259 226 18337398145155731745
12422481 6 17095528426504878830
12516196 113 18407481064049874600
12616971 3 17676211229838044653
12633257 1 16515962550106246857
12760667 363 18334861614658208511
13009979 54 18343295972529013749
13073987 5 18408605842627920232
13140716 1 18045782291439830859
13288520 33 18410293639867411261
13533116 47 18340486669275654264
13685833 64 18411981360636599170
13690498 29 18202286934876367540
13782708 43 18060143102662116035
13862211 1 18334016064699742279
13911987 19 13542460977385827704
14251764 18 18333448725416195476
14251764 30 18272934925132619318
14341114 176 18339642244118857409
14347332 77 18341613737049708604
14420673 8 18409447007371821827
15042514 8 18335983172358727544
15183329 4 18272091634469745690
15196674 1 18409169874485702129
16120349 21 18261383490325538713
16728300 4 18267313203790168662
17349148 13 18201718444367615757
17492 89 18265056821129729699
1813 80 17703798028873133908
18393751 57 16382017647151206529
1979834 28 17095515210838027822
20028762 73 18114185181399195871
21130935 74 18187646838911213715
21150785 3 16415474944217961126
21267235 1 18410569600332863314
21279426 13 18412553132125779340
21365058 113 17417807318514005685
21682296 61 18407755945598054219
22223350 30 17460890492080025947
23522609 53 18121746548654573577
23559900 14 18337400339699144033
3004659 81 18272652355572062448
335352 9 18336831987009102349
3383291 50 18413394224299219866
3472631 163 9655570829829770938
350125 39 18409444752846339737
3680242 22 18335129861204076649
46194498 28 16988283062816505164
465052 167 18333729113850641388
474113 269 18188784855759653351
5104073 3 18113337505194301016
54039377 194 18410004464695022502
559249 180 18337112374920944553
6138700 20 18410574028534134562
636775 8 18262789783890800550
7970288 3 18337959969695813651
999808 66 18201990032762381771

> <PUBCHEM_SHAPE_MULTIPOLES>
532.17
16.1
2.95
1.08
13.52
0.55
-0.43
-14.19
2.44
1.09
0.54
-0.23
-0.09
-0.19

> <PUBCHEM_SHAPE_SELFOVERLAP>
1131.466

> <PUBCHEM_SHAPE_VOLUME>
294.2

> <PUBCHEM_COORDINATE_TYPE>
2
5
10

$$$$

