4349
  -OEChem-06261200043D

 67 69  0     1  0  0  0  0  0999 V2000
   -2.6709    0.4642   -1.2549 O   0  0  0  0  0  0  0  0  0  0  0  0
    0.7710   -0.3734   -0.6970 O   0  0  0  0  0  0  0  0  0  0  0  0
   -3.0070   -4.1094    0.6346 O   0  0  0  0  0  0  0  0  0  0  0  0
    4.7776    0.5789   -0.1561 O   0  0  0  0  0  0  0  0  0  0  0  0
    3.3418    1.9712    0.9731 O   0  0  0  0  0  0  0  0  0  0  0  0
   -0.5027    1.4417   -0.0338 N   0  0  0  0  0  0  0  0  0  0  0  0
   -2.8838   -1.1815    0.3777 N   0  0  0  0  0  0  0  0  0  0  0  0
    2.8328    1.1597   -1.1419 N   0  0  0  0  0  0  0  0  0  0  0  0
   -1.4483    0.6921    0.7828 C   0  0  1  0  0  0  0  0  0  0  0  0
   -2.1623    1.7492    1.6173 C   0  0  0  0  0  0  0  0  0  0  0  0
   -2.1142    2.9921    0.7321 C   0  0  0  0  0  0  0  0  0  0  0  0
   -0.7643    2.8768    0.0406 C   0  0  0  0  0  0  0  0  0  0  0  0
   -2.3874   -0.0043   -0.1555 C   0  0  0  0  0  0  0  0  0  0  0  0
    0.5831    0.8435   -0.6543 C   0  0  0  0  0  0  0  0  0  0  0  0
   -3.8256   -2.0288   -0.3174 C   0  0  1  0  0  0  0  0  0  0  0  0
    1.5573    1.7883   -1.3115 C   0  0  2  0  0  0  0  0  0  0  0  0
   -3.2174   -3.4190   -0.5950 C   0  0  1  0  0  0  0  0  0  0  0  0
   -5.1357   -2.0855    0.4928 C   0  0  0  0  0  0  0  0  0  0  0  0
    1.2061    1.9921   -2.7668 C   0  0  0  0  0  0  0  0  0  0  0  0
   -5.9690   -0.8316    0.3973 C   0  0  0  0  0  0  0  0  0  0  0  0
   -1.9005   -3.3531   -1.3624 C   0  0  0  0  0  0  0  0  0  0  0  0
   -6.9287   -0.7067   -0.6074 C   0  0  0  0  0  0  0  0  0  0  0  0
   -5.7796    0.2032    1.3133 C   0  0  0  0  0  0  0  0  0  0  0  0
    3.6256    1.2999   -0.0136 C   0  0  0  0  0  0  0  0  0  0  0  0
   -7.6989    0.4530   -0.6957 C   0  0  0  0  0  0  0  0  0  0  0  0
   -6.5499    1.3627    1.2250 C   0  0  0  0  0  0  0  0  0  0  0  0
   -7.5094    1.4876    0.2205 C   0  0  0  0  0  0  0  0  0  0  0  0
    5.6909    0.6372    0.9453 C   0  0  0  0  0  0  0  0  0  0  0  0
    6.8936   -0.2025    0.6293 C   0  0  0  0  0  0  0  0  0  0  0  0
    7.9919    0.3667   -0.0155 C   0  0  0  0  0  0  0  0  0  0  0  0
    6.9134   -1.5526    0.9798 C   0  0  0  0  0  0  0  0  0  0  0  0
    9.1098   -0.4142   -0.3095 C   0  0  0  0  0  0  0  0  0  0  0  0
    8.0312   -2.3332    0.6858 C   0  0  0  0  0  0  0  0  0  0  0  0
    9.1294   -1.7642    0.0412 C   0  0  0  0  0  0  0  0  0  0  0  0
   -0.9092   -0.0343    1.4006 H   0  0  0  0  0  0  0  0  0  0  0  0
   -3.1819    1.4839    1.9007 H   0  0  0  0  0  0  0  0  0  0  0  0
   -1.5930    1.9402    2.5353 H   0  0  0  0  0  0  0  0  0  0  0  0
   -2.2177    3.9217    1.2987 H   0  0  0  0  0  0  0  0  0  0  0  0
   -2.9226    2.9553   -0.0078 H   0  0  0  0  0  0  0  0  0  0  0  0
    0.0209    3.3342    0.6525 H   0  0  0  0  0  0  0  0  0  0  0  0
   -0.7621    3.3334   -0.9519 H   0  0  0  0  0  0  0  0  0  0  0  0
   -4.0408   -1.5762   -1.2943 H   0  0  0  0  0  0  0  0  0  0  0  0
   -2.5849   -1.4722    1.3042 H   0  0  0  0  0  0  0  0  0  0  0  0
    1.6003    2.7511   -0.7971 H   0  0  0  0  0  0  0  0  0  0  0  0
   -3.9382   -4.0061   -1.1765 H   0  0  0  0  0  0  0  0  0  0  0  0
   -4.9303   -2.3057    1.5492 H   0  0  0  0  0  0  0  0  0  0  0  0
   -5.7471   -2.9252    0.1354 H   0  0  0  0  0  0  0  0  0  0  0  0
    1.1841    1.0405   -3.3109 H   0  0  0  0  0  0  0  0  0  0  0  0
    0.2216    2.4553   -2.8838 H   0  0  0  0  0  0  0  0  0  0  0  0
    1.9452    2.6334   -3.2591 H   0  0  0  0  0  0  0  0  0  0  0  0
   -2.0104   -2.7908   -2.2945 H   0  0  0  0  0  0  0  0  0  0  0  0
   -1.5562   -4.3638   -1.6077 H   0  0  0  0  0  0  0  0  0  0  0  0
   -1.1068   -2.8968   -0.7613 H   0  0  0  0  0  0  0  0  0  0  0  0
    3.1666    0.5365   -1.8716 H   0  0  0  0  0  0  0  0  0  0  0  0
   -2.6538   -4.9897    0.4206 H   0  0  0  0  0  0  0  0  0  0  0  0
   -7.0840   -1.5045   -1.3287 H   0  0  0  0  0  0  0  0  0  0  0  0
   -5.0475    0.1095    2.1100 H   0  0  0  0  0  0  0  0  0  0  0  0
   -8.4457    0.5506   -1.4782 H   0  0  0  0  0  0  0  0  0  0  0  0
   -6.4043    2.1668    1.9403 H   0  0  0  0  0  0  0  0  0  0  0  0
   -8.1094    2.3903    0.1519 H   0  0  0  0  0  0  0  0  0  0  0  0
    5.1993    0.2673    1.8538 H   0  0  0  0  0  0  0  0  0  0  0  0
    5.9915    1.6774    1.1223 H   0  0  0  0  0  0  0  0  0  0  0  0
    7.9877    1.4167   -0.2956 H   0  0  0  0  0  0  0  0  0  0  0  0
    6.0631   -2.0080    1.4804 H   0  0  0  0  0  0  0  0  0  0  0  0
    9.9648    0.0287   -0.8121 H   0  0  0  0  0  0  0  0  0  0  0  0
    8.0464   -3.3845    0.9582 H   0  0  0  0  0  0  0  0  0  0  0  0
    9.9997   -2.3722   -0.1880 H   0  0  0  0  0  0  0  0  0  0  0  0
  1 13  2  0  0  0  0
  2 14  2  0  0  0  0
  3 17  1  0  0  0  0
  3 55  1  0  0  0  0
  4 24  1  0  0  0  0
  4 28  1  0  0  0  0
  5 24  2  0  0  0  0
  6  9  1  0  0  0  0
  6 12  1  0  0  0  0
  6 14  1  0  0  0  0
  7 13  1  0  0  0  0
  7 15  1  0  0  0  0
  7 43  1  0  0  0  0
  8 16  1  0  0  0  0
  8 24  1  0  0  0  0
  8 54  1  0  0  0  0
  9 10  1  0  0  0  0
  9 13  1  0  0  0  0
  9 35  1  0  0  0  0
 10 11  1  0  0  0  0
 10 36  1  0  0  0  0
 10 37  1  0  0  0  0
 11 12  1  0  0  0  0
 11 38  1  0  0  0  0
 11 39  1  0  0  0  0
 12 40  1  0  0  0  0
 12 41  1  0  0  0  0
 14 16  1  0  0  0  0
 15 17  1  0  0  0  0
 15 18  1  0  0  0  0
 15 42  1  0  0  0  0
 16 19  1  0  0  0  0
 16 44  1  0  0  0  0
 17 21  1  0  0  0  0
 17 45  1  0  0  0  0
 18 20  1  0  0  0  0
 18 46  1  0  0  0  0
 18 47  1  0  0  0  0
 19 48  1  0  0  0  0
 19 49  1  0  0  0  0
 19 50  1  0  0  0  0
 20 22  2  0  0  0  0
 20 23  1  0  0  0  0
 21 51  1  0  0  0  0
 21 52  1  0  0  0  0
 21 53  1  0  0  0  0
 22 25  1  0  0  0  0
 22 56  1  0  0  0  0
 23 26  2  0  0  0  0
 23 57  1  0  0  0  0
 25 27  2  0  0  0  0
 25 58  1  0  0  0  0
 26 27  1  0  0  0  0
 26 59  1  0  0  0  0
 27 60  1  0  0  0  0
 28 29  1  0  0  0  0
 28 61  1  0  0  0  0
 28 62  1  0  0  0  0
 29 30  2  0  0  0  0
 29 31  1  0  0  0  0
 30 32  1  0  0  0  0
 30 63  1  0  0  0  0
 31 33  2  0  0  0  0
 31 64  1  0  0  0  0
 32 34  2  0  0  0  0
 32 65  1  0  0  0  0
 33 34  1  0  0  0  0
 33 66  1  0  0  0  0
 34 67  1  0  0  0  0
M  END
> <PUBCHEM_COMPOUND_CID>
4349

> <PUBCHEM_CONFORMER_RMSD>
1.6

> <PUBCHEM_CONFORMER_DIVERSEORDER>
1
66
41
91
93
23
30
55
113
110
141
87
71
65
64
84
94
142
136
116
90
137
13
104
70
57
15
56
140
98
12
59
35
150
130
99
107
118
126
24
45
129
149
7
76
27
103
86
49
114
21
153
134
152
95
105
67
58
17
22
148
53
68
156
120
127
32
146
20
147
102
155
143
151
61
60
38
78
34
119
79
19
85
3
111
50
112
108
37
16
10
31
88
26
74
124
96
122
121
81
54
101
83
29
133
6
138
46
92
40
73
132
109
139
115
48
47
43
75
89
33
4
8
69
2
131
5
97
100
82
42
14
36
145
52
135
80
28
62
25
106
144
154
39
117
72
128
18
9
77
123
11
51
125
63
44

> <PUBCHEM_MMFF94_PARTIAL_CHARGES>
43
1 -0.57
12 0.3
13 0.57
14 0.57
15 0.3
16 0.36
17 0.28
18 0.14
2 -0.57
20 -0.14
22 -0.15
23 -0.15
24 0.78
25 -0.15
26 -0.15
27 -0.15
28 0.42
29 -0.14
3 -0.68
30 -0.15
31 -0.15
32 -0.15
33 -0.15
34 -0.15
4 -0.43
43 0.37
5 -0.57
54 0.37
55 0.4
56 0.15
57 0.15
58 0.15
59 0.15
6 -0.66
60 0.15
63 0.15
64 0.15
65 0.15
66 0.15
67 0.15
7 -0.73
8 -0.73
9 0.36

> <PUBCHEM_EFFECTIVE_ROTOR_COUNT>
14

> <PUBCHEM_PHARMACOPHORE_FEATURES>
10
1 1 acceptor
1 2 acceptor
1 3 acceptor
1 3 donor
1 5 acceptor
1 7 donor
1 8 donor
5 6 9 10 11 12 rings
6 20 22 23 25 26 27 rings
6 29 30 31 32 33 34 rings

> <PUBCHEM_HEAVY_ATOM_COUNT>
34

> <PUBCHEM_ATOM_DEF_STEREO_COUNT>
0

> <PUBCHEM_ATOM_UDEF_STEREO_COUNT>
4

> <PUBCHEM_BOND_DEF_STEREO_COUNT>
0

> <PUBCHEM_BOND_UDEF_STEREO_COUNT>
0

> <PUBCHEM_ISOTOPIC_ATOM_COUNT>
0

> <PUBCHEM_COMPONENT_COUNT>
1

> <PUBCHEM_CACTVS_TAUTO_COUNT>
4

> <PUBCHEM_CONFORMER_ID>
000010FD00000001

> <PUBCHEM_MMFF94_ENERGY>
78.9251

> <PUBCHEM_FEATURE_SELFOVERLAP>
50.745

> <PUBCHEM_SHAPE_FINGERPRINT>
10 15 16877663444678314672
10076449 9 13614232690164286981
10305334 12 18412261710148223187
11135609 201 6266894645972133676
11331351 85 18131633378828537644
117089 54 17913202062545692842
12144603 126 18272925004296450524
12592606 108 18271810086241194731
12838863 1 18041566837274666207
14394314 77 18411136956980895739
14856354 85 16128655220436786475
15021287 119 17632010867493346221
15064986 96 17096646690403487694
15320294 125 18341046342137796351
15684393 108 16486976228601664282
15911013 46 18413107269181076786
16120349 21 18341894091050322549
21150785 3 10735877274580486860
22224240 67 14273455877286784324
23569917 315 18270960129963722803
4098825 35 10880003453910709584
444769 64 18272086089708905099
5085150 59 18187081754448600271
6691757 9 18040708165479148795

> <PUBCHEM_SHAPE_MULTIPOLES>
655.41
26.87
3.67
1.44
44.44
2.64
0.58
10.25
-5.53
-2.81
0.23
-0.24
-0.59
-1.78

> <PUBCHEM_SHAPE_SELFOVERLAP>
1371.605

> <PUBCHEM_SHAPE_VOLUME>
370

> <PUBCHEM_COORDINATE_TYPE>
2
5
10

$$$$

