47205539
  -OEChem-06241222593D

 26 27  0     0  0  0  0  0  0999 V2000
   -0.6723    1.3456    0.1990 O   0  0  0  0  0  0  0  0  0  0  0  0
    2.6159   -1.7198    0.4453 O   0  0  0  0  0  0  0  0  0  0  0  0
    0.7074    1.2623    0.3421 N   0  0  0  0  0  0  0  0  0  0  0  0
    3.3387    0.4781    0.5996 N   0  0  0  0  0  0  0  0  0  0  0  0
   -4.6024   -1.3418   -0.2889 N   0  0  0  0  0  0  0  0  0  0  0  0
   -1.1901    0.0938    0.1100 C   0  0  0  0  0  0  0  0  0  0  0  0
   -2.6200    0.0199   -0.0424 C   0  0  0  0  0  0  0  0  0  0  0  0
   -0.1812   -0.8292    0.1909 C   0  0  0  0  0  0  0  0  0  0  0  0
    0.9772   -0.0462    0.3345 C   0  0  0  0  0  0  0  0  0  0  0  0
   -3.3963    1.1724   -0.0926 C   0  0  0  0  0  0  0  0  0  0  0  0
    2.3318   -0.4985    0.4671 C   0  0  0  0  0  0  0  0  0  0  0  0
   -3.2655   -1.2019   -0.1440 C   0  0  0  0  0  0  0  0  0  0  0  0
   -4.7750    1.0692   -0.2408 C   0  0  0  0  0  0  0  0  0  0  0  0
    4.7485    0.1830    0.7194 C   0  0  0  0  0  0  0  0  0  0  0  0
   -5.3242   -0.1996   -0.3337 C   0  0  0  0  0  0  0  0  0  0  0  0
    5.3891    0.1291   -0.5943 C   0  0  0  0  0  0  0  0  0  0  0  0
    5.9186    0.0836   -1.6710 C   0  0  0  0  0  0  0  0  0  0  0  0
   -0.2643   -1.9058    0.1530 H   0  0  0  0  0  0  0  0  0  0  0  0
   -2.9609    2.1654   -0.0194 H   0  0  0  0  0  0  0  0  0  0  0  0
   -2.7271   -2.1444   -0.1131 H   0  0  0  0  0  0  0  0  0  0  0  0
    3.0640    1.4565    0.5924 H   0  0  0  0  0  0  0  0  0  0  0  0
   -5.4004    1.9537   -0.2824 H   0  0  0  0  0  0  0  0  0  0  0  0
    5.1935    0.9722    1.3332 H   0  0  0  0  0  0  0  0  0  0  0  0
    4.8718   -0.7686    1.2464 H   0  0  0  0  0  0  0  0  0  0  0  0
   -6.3946   -0.3341   -0.4504 H   0  0  0  0  0  0  0  0  0  0  0  0
    6.3879    0.0432   -2.6261 H   0  0  0  0  0  0  0  0  0  0  0  0
  1  3  1  0  0  0  0
  1  6  1  0  0  0  0
  2 11  2  0  0  0  0
  3  9  2  0  0  0  0
  4 11  1  0  0  0  0
  4 14  1  0  0  0  0
  4 21  1  0  0  0  0
  5 12  1  0  0  0  0
  5 15  2  0  0  0  0
  6  7  1  0  0  0  0
  6  8  2  0  0  0  0
  7 10  1  0  0  0  0
  7 12  2  0  0  0  0
  8  9  1  0  0  0  0
  8 18  1  0  0  0  0
  9 11  1  0  0  0  0
 10 13  2  0  0  0  0
 10 19  1  0  0  0  0
 12 20  1  0  0  0  0
 13 15  1  0  0  0  0
 13 22  1  0  0  0  0
 14 16  1  0  0  0  0
 14 23  1  0  0  0  0
 14 24  1  0  0  0  0
 15 25  1  0  0  0  0
 16 17  3  0  0  0  0
 17 26  1  0  0  0  0
M  END
> <PUBCHEM_COMPOUND_CID>
47205539

> <PUBCHEM_CONFORMER_RMSD>
0.6

> <PUBCHEM_CONFORMER_DIVERSEORDER>
2
26
32
44
31
7
21
51
3
20
50
37
33
8
25
30
43
46
27
34
15
38
18
19
17
6
49
52
4
29
1
23
10
48
22
11
28
24
39
12
42
9
36
45
40
13
35
47
41
16
5
14

> <PUBCHEM_MMFF94_PARTIAL_CHARGES>
24
1 -0.02
10 -0.15
11 0.72
12 0.16
13 -0.15
14 0.5
15 0.16
16 -0.2
17 -0.18
18 0.15
19 0.15
2 -0.57
20 0.15
21 0.37
22 0.15
25 0.15
26 0.18
3 -0.41
4 -0.73
5 -0.62
6 0.09
7 0.05
8 -0.15
9 0.2

> <PUBCHEM_EFFECTIVE_ROTOR_COUNT>
4

> <PUBCHEM_PHARMACOPHORE_FEATURES>
7
1 17 hydrophobe
1 2 acceptor
1 3 acceptor
1 4 donor
1 5 acceptor
5 1 3 6 8 9 rings
6 5 7 10 12 13 15 rings

> <PUBCHEM_HEAVY_ATOM_COUNT>
17

> <PUBCHEM_ATOM_DEF_STEREO_COUNT>
0

> <PUBCHEM_ATOM_UDEF_STEREO_COUNT>
0

> <PUBCHEM_BOND_DEF_STEREO_COUNT>
0

> <PUBCHEM_BOND_UDEF_STEREO_COUNT>
0

> <PUBCHEM_ISOTOPIC_ATOM_COUNT>
0

> <PUBCHEM_COMPONENT_COUNT>
1

> <PUBCHEM_CACTVS_TAUTO_COUNT>
2

> <PUBCHEM_CONFORMER_ID>
02D04CA300000002

> <PUBCHEM_MMFF94_ENERGY>
25.047

> <PUBCHEM_FEATURE_SELFOVERLAP>
35.52

> <PUBCHEM_SHAPE_MULTIPOLES>
323.17
13.63
1.3
0.9
7.35
0.12
0.24
-0.28
4.25
-0.91
-0.06
1.31
-0.02
-0.21

> <PUBCHEM_SHAPE_SELFOVERLAP>
689.032

> <PUBCHEM_SHAPE_VOLUME>
178.2

> <PUBCHEM_COORDINATE_TYPE>
2
5
10

$$$$

