3663
  -OEChem-06251223343D

 54 61  0     0  0  0  0  0  0999 V2000
   -4.8804    0.0371   -0.0675 O   0  0  0  0  0  0  0  0  0  0  0  0
    4.8803    0.0337    0.0668 O   0  0  0  0  0  0  0  0  0  0  0  0
   -1.0769   -4.9318   -0.2532 O   0  0  0  0  0  0  0  0  0  0  0  0
    1.0730   -4.9326    0.2526 O   0  0  0  0  0  0  0  0  0  0  0  0
   -4.9165   -2.4757   -0.1493 O   0  0  0  0  0  0  0  0  0  0  0  0
    4.9145   -2.4791    0.1517 O   0  0  0  0  0  0  0  0  0  0  0  0
   -4.7529    2.5267   -0.2424 O   0  0  0  0  0  0  0  0  0  0  0  0
    4.7548    2.5231    0.2422 O   0  0  0  0  0  0  0  0  0  0  0  0
   -0.7035    0.0010   -0.0022 C   0  0  0  0  0  0  0  0  0  0  0  0
    0.7035    0.0005    0.0015 C   0  0  0  0  0  0  0  0  0  0  0  0
   -1.4007    1.2339    0.0538 C   0  0  0  0  0  0  0  0  0  0  0  0
    1.4016    1.2329   -0.0542 C   0  0  0  0  0  0  0  0  0  0  0  0
   -1.4113   -1.2310   -0.0314 C   0  0  0  0  0  0  0  0  0  0  0  0
    1.4104   -1.2321    0.0309 C   0  0  0  0  0  0  0  0  0  0  0  0
   -0.6948    2.4632    0.1239 C   0  0  0  0  0  0  0  0  0  0  0  0
    0.6967    2.4626   -0.1242 C   0  0  0  0  0  0  0  0  0  0  0  0
   -0.7160   -2.4687   -0.0246 C   0  0  0  0  0  0  0  0  0  0  0  0
    0.7142   -2.4692    0.0242 C   0  0  0  0  0  0  0  0  0  0  0  0
   -2.8050    1.2000    0.0194 C   0  0  0  0  0  0  0  0  0  0  0  0
    2.8059    1.1980   -0.0196 C   0  0  0  0  0  0  0  0  0  0  0  0
   -2.8311   -1.2138   -0.0630 C   0  0  0  0  0  0  0  0  0  0  0  0
    2.8302   -1.2160    0.0628 C   0  0  0  0  0  0  0  0  0  0  0  0
   -3.5134    0.0013   -0.0501 C   0  0  0  0  0  0  0  0  0  0  0  0
    3.5134   -0.0013    0.0500 C   0  0  0  0  0  0  0  0  0  0  0  0
   -1.4821    3.6507    0.5780 C   0  0  0  0  0  0  0  0  0  0  0  0
    1.4849    3.6499   -0.5777 C   0  0  0  0  0  0  0  0  0  0  0  0
   -1.4968   -3.6509   -0.0627 C   0  0  0  0  0  0  0  0  0  0  0  0
    1.4941   -3.6520    0.0627 C   0  0  0  0  0  0  0  0  0  0  0  0
   -3.5630    2.4670    0.0358 C   0  0  0  0  0  0  0  0  0  0  0  0
    3.5648    2.4644   -0.0357 C   0  0  0  0  0  0  0  0  0  0  0  0
   -3.5534   -2.4092   -0.1033 C   0  0  0  0  0  0  0  0  0  0  0  0
    3.5515   -2.4119    0.1036 C   0  0  0  0  0  0  0  0  0  0  0  0
   -2.8213    3.6601    0.4808 C   0  0  0  0  0  0  0  0  0  0  0  0
    2.8240    3.6582   -0.4801 C   0  0  0  0  0  0  0  0  0  0  0  0
   -2.8889   -3.6238   -0.1042 C   0  0  0  0  0  0  0  0  0  0  0  0
    2.8861   -3.6259    0.1045 C   0  0  0  0  0  0  0  0  0  0  0  0
   -0.8346    4.7804    1.3309 C   0  0  0  0  0  0  0  0  0  0  0  0
    0.8383    4.7802   -1.3304 C   0  0  0  0  0  0  0  0  0  0  0  0
   -3.4135    4.5084    0.8087 H   0  0  0  0  0  0  0  0  0  0  0  0
    3.4168    4.5063   -0.8076 H   0  0  0  0  0  0  0  0  0  0  0  0
   -3.4487   -4.5555   -0.1624 H   0  0  0  0  0  0  0  0  0  0  0  0
    3.4642   -4.5464    0.1637 H   0  0  0  0  0  0  0  0  0  0  0  0
   -1.4233    5.0289    2.2232 H   0  0  0  0  0  0  0  0  0  0  0  0
   -0.7854    5.6856    0.7213 H   0  0  0  0  0  0  0  0  0  0  0  0
    0.1644    4.5296    1.6983 H   0  0  0  0  0  0  0  0  0  0  0  0
   -0.1614    4.5309   -1.6968 H   0  0  0  0  0  0  0  0  0  0  0  0
    1.4266    5.0276   -2.2233 H   0  0  0  0  0  0  0  0  0  0  0  0
    0.7910    5.6857   -0.7208 H   0  0  0  0  0  0  0  0  0  0  0  0
   -5.2359   -0.7588   -0.4921 H   0  0  0  0  0  0  0  0  0  0  0  0
    5.2499   -0.7928   -0.2795 H   0  0  0  0  0  0  0  0  0  0  0  0
   -0.3698   -4.9142   -0.9197 H   0  0  0  0  0  0  0  0  0  0  0  0
    1.7898   -5.5804    0.1498 H   0  0  0  0  0  0  0  0  0  0  0  0
   -5.2052   -3.4039   -0.1695 H   0  0  0  0  0  0  0  0  0  0  0  0
    5.2045   -3.4068    0.1709 H   0  0  0  0  0  0  0  0  0  0  0  0
  1 23  1  0  0  0  0
  1 49  1  0  0  0  0
  2 24  1  0  0  0  0
  2 50  1  0  0  0  0
  3 27  1  0  0  0  0
  3 51  1  0  0  0  0
  4 28  1  0  0  0  0
  4 52  1  0  0  0  0
  5 31  1  0  0  0  0
  5 53  1  0  0  0  0
  6 32  1  0  0  0  0
  6 54  1  0  0  0  0
  7 29  2  0  0  0  0
  8 30  2  0  0  0  0
  9 10  1  0  0  0  0
  9 11  2  0  0  0  0
  9 13  1  0  0  0  0
 10 12  2  0  0  0  0
 10 14  1  0  0  0  0
 11 15  1  0  0  0  0
 11 19  1  0  0  0  0
 12 16  1  0  0  0  0
 12 20  1  0  0  0  0
 13 17  2  0  0  0  0
 13 21  1  0  0  0  0
 14 18  2  0  0  0  0
 14 22  1  0  0  0  0
 15 16  2  0  0  0  0
 15 25  1  0  0  0  0
 16 26  1  0  0  0  0
 17 18  1  0  0  0  0
 17 27  1  0  0  0  0
 18 28  1  0  0  0  0
 19 23  2  0  0  0  0
 19 29  1  0  0  0  0
 20 24  2  0  0  0  0
 20 30  1  0  0  0  0
 21 23  1  0  0  0  0
 21 31  2  0  0  0  0
 22 24  1  0  0  0  0
 22 32  2  0  0  0  0
 25 33  2  0  0  0  0
 25 37  1  0  0  0  0
 26 34  2  0  0  0  0
 26 38  1  0  0  0  0
 27 35  2  0  0  0  0
 28 36  2  0  0  0  0
 29 33  1  0  0  0  0
 30 34  1  0  0  0  0
 31 35  1  0  0  0  0
 32 36  1  0  0  0  0
 33 39  1  0  0  0  0
 34 40  1  0  0  0  0
 35 41  1  0  0  0  0
 36 42  1  0  0  0  0
 37 43  1  0  0  0  0
 37 44  1  0  0  0  0
 37 45  1  0  0  0  0
 38 46  1  0  0  0  0
 38 47  1  0  0  0  0
 38 48  1  0  0  0  0
M  END
> <PUBCHEM_COMPOUND_CID>
3663

> <PUBCHEM_CONFORMER_RMSD>
0.6

> <PUBCHEM_CONFORMER_DIVERSEORDER>
2
1

> <PUBCHEM_MMFF94_PARTIAL_CHARGES>
38
1 -0.53
15 0.03
16 0.03
19 0.09
2 -0.53
20 0.09
23 0.08
24 0.08
25 -0.17
26 -0.17
27 0.08
28 0.08
29 0.47
3 -0.53
30 0.47
31 0.08
32 0.08
33 -0.14
34 -0.14
35 -0.15
36 -0.15
37 0.14
38 0.14
39 0.15
4 -0.53
40 0.15
41 0.15
42 0.15
49 0.45
5 -0.53
50 0.45
51 0.45
52 0.45
53 0.45
54 0.45
6 -0.53
7 -0.57
8 -0.57

> <PUBCHEM_EFFECTIVE_ROTOR_COUNT>
0

> <PUBCHEM_PHARMACOPHORE_FEATURES>
16
1 1 donor
1 2 donor
1 3 donor
1 4 donor
1 5 donor
1 6 donor
1 7 acceptor
1 8 acceptor
6 10 12 14 20 22 24 rings
6 11 15 19 25 29 33 rings
6 12 16 20 26 30 34 rings
6 13 17 21 27 31 35 rings
6 14 18 22 28 32 36 rings
6 9 10 11 12 15 16 rings
6 9 10 13 14 17 18 rings
6 9 11 13 19 21 23 rings

> <PUBCHEM_HEAVY_ATOM_COUNT>
38

> <PUBCHEM_ATOM_DEF_STEREO_COUNT>
0

> <PUBCHEM_ATOM_UDEF_STEREO_COUNT>
0

> <PUBCHEM_BOND_DEF_STEREO_COUNT>
0

> <PUBCHEM_BOND_UDEF_STEREO_COUNT>
0

> <PUBCHEM_ISOTOPIC_ATOM_COUNT>
0

> <PUBCHEM_COMPONENT_COUNT>
1

> <PUBCHEM_CACTVS_TAUTO_COUNT>
991

> <PUBCHEM_CONFORMER_ID>
00000E4F00000002

> <PUBCHEM_MMFF94_ENERGY>
199.63

> <PUBCHEM_FEATURE_SELFOVERLAP>
81.628

> <PUBCHEM_SHAPE_FINGERPRINT>
10675989 125 18051983523961447597
10967382 1 18410856568235024910
1100329 8 18338517572287571449
11513181 2 18186522128630970654
12788726 201 17910115712057405976
13140716 1 18409450314337936040
1361 2 17834115629830539537
138480 1 17618222144754293096
14117953 113 17978235189829311236
14295345 954 17474651224321785193
14790565 3 18410569587105147909
15320467 1 18194402177995282503
19591789 44 18410855460128480099
19930381 70 18339644421414036371
20028762 73 18044666531861090821
20764821 26 18339641238769202765
20775438 99 17397315609545180695
23559900 14 18337679731573978912
350125 39 18266175217602040832
3882209 13 17978272405685001223
463206 1 17690558589554482868

> <PUBCHEM_SHAPE_MULTIPOLES>
735.07
8
7.97
0.74
0.18
0.01
0
-0.01
-0.01
0.69
0.01
-0.58
0
0.95

> <PUBCHEM_SHAPE_SELFOVERLAP>
1773.472

> <PUBCHEM_SHAPE_VOLUME>
357.3

> <PUBCHEM_COORDINATE_TYPE>
2
5
10

$$$$

