5542
  -OEChem-06261200443D

 32 31  0     0  0  0  0  0  0999 V2000
    7.7281    0.3840   -0.6627 O   0  0  0  0  0  0  0  0  0  0  0  0
    4.7625    0.1757    0.5659 N   0  0  0  0  0  0  0  0  0  0  0  0
    5.7681    0.7728   -0.0986 N   0  0  0  0  0  0  0  0  0  0  0  0
    6.9277    0.3208    0.2762 N   0  0  0  0  0  0  0  0  0  0  0  0
   -5.6932    0.7761   -0.3425 C   0  0  0  0  0  0  0  0  0  0  0  0
   -7.0347    0.2210    0.1432 C   0  0  0  0  0  0  0  0  0  0  0  0
   -4.6399   -0.2844   -0.4846 C   0  0  0  0  0  0  0  0  0  0  0  0
   -8.1043    1.2923    0.3061 C   0  0  0  0  0  0  0  0  0  0  0  0
   -3.4825   -0.2810    0.1936 C   0  0  0  0  0  0  0  0  0  0  0  0
   -2.4292   -1.3401    0.0497 C   0  0  0  0  0  0  0  0  0  0  0  0
   -1.1284   -0.7617   -0.4283 C   0  0  0  0  0  0  0  0  0  0  0  0
    0.0183   -0.8430    0.2634 C   0  0  0  0  0  0  0  0  0  0  0  0
    1.2671   -0.2862   -0.2068 C   0  0  0  0  0  0  0  0  0  0  0  0
    2.4055   -0.3734    0.4922 C   0  0  0  0  0  0  0  0  0  0  0  0
    3.6349    0.2270   -0.0669 C   0  0  0  0  0  0  0  0  0  0  0  0
   -5.3575    1.5620    0.3455 H   0  0  0  0  0  0  0  0  0  0  0  0
   -5.8314    1.2549   -1.3196 H   0  0  0  0  0  0  0  0  0  0  0  0
   -6.8954   -0.2862    1.1060 H   0  0  0  0  0  0  0  0  0  0  0  0
   -7.3977   -0.5361   -0.5628 H   0  0  0  0  0  0  0  0  0  0  0  0
   -4.8427   -1.0830   -1.1938 H   0  0  0  0  0  0  0  0  0  0  0  0
   -7.7941    2.0450    1.0379 H   0  0  0  0  0  0  0  0  0  0  0  0
   -8.2984    1.7971   -0.6455 H   0  0  0  0  0  0  0  0  0  0  0  0
   -9.0409    0.8447    0.6527 H   0  0  0  0  0  0  0  0  0  0  0  0
   -3.2844    0.5176    0.9050 H   0  0  0  0  0  0  0  0  0  0  0  0
   -2.7451   -2.1132   -0.6612 H   0  0  0  0  0  0  0  0  0  0  0  0
   -2.3051   -1.8378    1.0191 H   0  0  0  0  0  0  0  0  0  0  0  0
   -1.1404   -0.2687   -1.3985 H   0  0  0  0  0  0  0  0  0  0  0  0
    0.0279   -1.3444    1.2280 H   0  0  0  0  0  0  0  0  0  0  0  0
    1.2511    0.2182   -1.1699 H   0  0  0  0  0  0  0  0  0  0  0  0
    2.4693   -0.8662    1.4559 H   0  0  0  0  0  0  0  0  0  0  0  0
    3.5276    0.7223   -1.0511 H   0  0  0  0  0  0  0  0  0  0  0  0
    5.6732    0.7317   -1.1122 H   0  0  0  0  0  0  0  0  0  0  0  0
  1  4  2  0  0  0  0
  2  3  1  0  0  0  0
  2 15  2  0  0  0  0
  3  4  1  0  0  0  0
  3 32  1  0  0  0  0
  5  6  1  0  0  0  0
  5  7  1  0  0  0  0
  5 16  1  0  0  0  0
  5 17  1  0  0  0  0
  6  8  1  0  0  0  0
  6 18  1  0  0  0  0
  6 19  1  0  0  0  0
  7  9  2  0  0  0  0
  7 20  1  0  0  0  0
  8 21  1  0  0  0  0
  8 22  1  0  0  0  0
  8 23  1  0  0  0  0
  9 10  1  0  0  0  0
  9 24  1  0  0  0  0
 10 11  1  0  0  0  0
 10 25  1  0  0  0  0
 10 26  1  0  0  0  0
 11 12  2  0  0  0  0
 11 27  1  0  0  0  0
 12 13  1  0  0  0  0
 12 28  1  0  0  0  0
 13 14  2  0  0  0  0
 13 29  1  0  0  0  0
 14 15  1  0  0  0  0
 14 30  1  0  0  0  0
 15 31  1  0  0  0  0
M  END
> <PUBCHEM_COMPOUND_CID>
5542

> <PUBCHEM_CONFORMER_RMSD>
0.8

> <PUBCHEM_CONFORMER_DIVERSEORDER>
2
46
42
6
30
35
19
49
36
25
21
38
39
32
7
47
9
40
41
43
17
23
22
18
37
45
44
14
15
31
26
29
48
3
16
12
10
28
34
13
4
27
24
33
20
1
5
8
11

> <PUBCHEM_MMFF94_PARTIAL_CHARGES>
21
1 -0.16
10 0.28
11 -0.29
12 -0.15
13 -0.15
14 -0.14
15 0.38
2 -0.5
20 0.15
24 0.15
27 0.15
28 0.15
29 0.15
3 -0.13
30 0.15
31 0.06
32 0.36
4 -0.01
5 0.14
7 -0.29
9 -0.29

> <PUBCHEM_EFFECTIVE_ROTOR_COUNT>
8

> <PUBCHEM_PHARMACOPHORE_FEATURES>
2
1 2 acceptor
1 8 hydrophobe

> <PUBCHEM_HEAVY_ATOM_COUNT>
15

> <PUBCHEM_ATOM_DEF_STEREO_COUNT>
0

> <PUBCHEM_ATOM_UDEF_STEREO_COUNT>
0

> <PUBCHEM_BOND_DEF_STEREO_COUNT>
0

> <PUBCHEM_BOND_UDEF_STEREO_COUNT>
4

> <PUBCHEM_ISOTOPIC_ATOM_COUNT>
0

> <PUBCHEM_COMPONENT_COUNT>
1

> <PUBCHEM_CACTVS_TAUTO_COUNT>
2

> <PUBCHEM_CONFORMER_ID>
000015A600000002

> <PUBCHEM_MMFF94_ENERGY>
9.4551

> <PUBCHEM_FEATURE_SELFOVERLAP>
10.148

> <PUBCHEM_SHAPE_FINGERPRINT>
10354089 29 17418094325418771727
106641 1 15123504796520168425
12091667 2 18334295341059645479
12714333 28 17603587430810045883
13177829 20 15195279816064444237
13288520 33 8646770002472763843
13533116 47 18338243768618960738
13964095 4 5256407185269048947
13968360 50 15357690916244445204
14123256 10 6050445907814420173
1420 363 11600009860098292322
14251764 18 18060142033309938411
14251764 46 18410855464423168074
14729087 3 18408044022472118913
15048467 5 18412546509154138587
155225 1 18335420210696868961
15716309 27 12607404386155333595
15778101 99 18410573964294228395
17834072 8 17458345225655724746
17834076 25 18411420600562493767
18006028 8 10231754492133671015
20281389 69 18272938231988600160
20526848 3 18410290324664433153
20621476 66 18201999889843973334
20621476 8 18410574007101106494
20735858 18 13614522960975167537
20767249 213 18412827984542273435
21130983 4 18202001023198368301
21150785 3 14418135118811010577
220451 1 17131841941248724170
22224240 67 15482671264775520241
22896161 15 9583517620863741878
23402539 116 18261398802026588022
23521765 1 18335421265881340263
23559900 14 6194256552713238351
246663 6 10159695811595429289
28498 318 18040712598322981766
33532 11 10951779581472132096
33684 2 16588023519571614694
8209 1 18410293609686368262

> <PUBCHEM_SHAPE_MULTIPOLES>
287.88
24.01
1.06
0.71
6.61
0.06
0.01
-11.56
0.22
-1.06
-0.02
0.02
0
-0.28

> <PUBCHEM_SHAPE_SELFOVERLAP>
540.996

> <PUBCHEM_SHAPE_VOLUME>
177.9

> <PUBCHEM_COORDINATE_TYPE>
2
5
10

$$$$

