47205097
  -OEChem-06241222582D

 32 34  0     1  0  0  0  0  0999 V2000
    7.9128   -0.5173    0.0000 O   0  0  0  0  0  0  0  0  0  0  0  0
    7.9128    1.4827    0.0000 O   0  0  0  0  0  0  0  0  0  0  0  0
    6.1808   -1.5173    0.0000 O   0  0  0  0  0  0  0  0  0  0  0  0
    5.3147   -0.0173    0.0000 N   0  0  0  0  0  0  0  0  0  0  0  0
    2.6691   -0.4241    0.0000 N   0  0  0  0  0  0  0  0  0  0  0  0
    2.0000    0.3191    0.0000 N   0  0  0  0  0  0  0  0  0  0  0  0
    7.0468   -0.0173    0.0000 C   0  0  3  0  0  0  0  0  0  0  0  0
    7.0468    0.9827    0.0000 C   0  0  0  0  0  0  0  0  0  0  0  0
    6.1808   -0.5173    0.0000 C   0  0  0  0  0  0  0  0  0  0  0  0
    8.7788   -0.0173    0.0000 C   0  0  0  0  0  0  0  0  0  0  0  0
    8.7788    0.9827    0.0000 C   0  0  0  0  0  0  0  0  0  0  0  0
    4.4487   -0.5173    0.0000 C   0  0  0  0  0  0  0  0  0  0  0  0
    3.5827   -0.0173    0.0000 C   0  0  0  0  0  0  0  0  0  0  0  0
    9.6728   -0.5520    0.0000 C   0  0  0  0  0  0  0  0  0  0  0  0
    9.6728    1.5173    0.0000 C   0  0  0  0  0  0  0  0  0  0  0  0
   10.5788   -0.0381    0.0000 C   0  0  0  0  0  0  0  0  0  0  0  0
   10.5788    1.0035    0.0000 C   0  0  0  0  0  0  0  0  0  0  0  0
    3.4782    0.9772    0.0000 C   0  0  0  0  0  0  0  0  0  0  0  0
    2.5000    1.1851    0.0000 C   0  0  0  0  0  0  0  0  0  0  0  0
    7.0468   -0.6373    0.0000 H   0  0  0  0  0  0  0  0  0  0  0  0
    6.8347    1.5653    0.0000 H   0  0  0  0  0  0  0  0  0  0  0  0
    6.4362    0.8750    0.0000 H   0  0  0  0  0  0  0  0  0  0  0  0
    4.0502   -0.9923    0.0000 H   0  0  0  0  0  0  0  0  0  0  0  0
    4.8472   -0.9923    0.0000 H   0  0  0  0  0  0  0  0  0  0  0  0
    5.3147    0.6027    0.0000 H   0  0  0  0  0  0  0  0  0  0  0  0
    9.6656   -1.1720    0.0000 H   0  0  0  0  0  0  0  0  0  0  0  0
    9.6656    2.1373    0.0000 H   0  0  0  0  0  0  0  0  0  0  0  0
   11.1146   -0.3502    0.0000 H   0  0  0  0  0  0  0  0  0  0  0  0
   11.1146    1.3156    0.0000 H   0  0  0  0  0  0  0  0  0  0  0  0
    3.9389    1.3920    0.0000 H   0  0  0  0  0  0  0  0  0  0  0  0
    2.5402   -1.0305    0.0000 H   0  0  0  0  0  0  0  0  0  0  0  0
    2.2478    1.7515    0.0000 H   0  0  0  0  0  0  0  0  0  0  0  0
  1  7  1  0  0  0  0
  1 10  1  0  0  0  0
  2  8  1  0  0  0  0
  2 11  1  0  0  0  0
  3  9  2  0  0  0  0
  4  9  1  0  0  0  0
  4 12  1  0  0  0  0
  4 25  1  0  0  0  0
  5  6  1  0  0  0  0
  5 13  1  0  0  0  0
  5 31  1  0  0  0  0
  6 19  2  0  0  0  0
  7  8  1  0  0  0  0
  7  9  1  0  0  0  0
  7 20  1  0  0  0  0
  8 21  1  0  0  0  0
  8 22  1  0  0  0  0
 10 11  1  0  0  0  0
 10 14  2  0  0  0  0
 11 15  2  0  0  0  0
 12 13  1  0  0  0  0
 12 23  1  0  0  0  0
 12 24  1  0  0  0  0
 13 18  2  0  0  0  0
 14 16  1  0  0  0  0
 14 26  1  0  0  0  0
 15 17  1  0  0  0  0
 15 27  1  0  0  0  0
 16 17  2  0  0  0  0
 16 28  1  0  0  0  0
 17 29  1  0  0  0  0
 18 19  1  0  0  0  0
 18 30  1  0  0  0  0
 19 32  1  0  0  0  0
M  END
> <PUBCHEM_COMPOUND_CID>
47205097

> <PUBCHEM_COMPOUND_CANONICALIZED>
1

> <PUBCHEM_CACTVS_COMPLEXITY>
326

> <PUBCHEM_CACTVS_HBOND_ACCEPTOR>
4

> <PUBCHEM_CACTVS_HBOND_DONOR>
2

> <PUBCHEM_CACTVS_ROTATABLE_BOND>
3

> <PUBCHEM_CACTVS_SUBSKEYS>
AAADccBzMAAAAAAAAAAAAAAAAAAAAWAAAAA0QAAAAAAAAACRwAAAHgAYAAAACBzhlgY8hpLjBACqATV3UAKSDAAgogAYuaF+7JgPZqaE8d+XvCrm/hGa6AeAQAAAAAAAAAAAQAAAAAAAAACAAAAAAAAAAA==

> <PUBCHEM_IUPAC_OPENEYE_NAME>
N-(1H-pyrazol-5-ylmethyl)-2,3-dihydro-1,4-benzodioxine-3-carboxamide

> <PUBCHEM_IUPAC_CAS_NAME>
N-(1H-pyrazol-5-ylmethyl)-2,3-dihydro-1,4-benzodioxin-3-carboxamide

> <PUBCHEM_IUPAC_NAME>
N-(1H-pyrazol-5-ylmethyl)-2,3-dihydro-1,4-benzodioxine-3-carboxamide

> <PUBCHEM_IUPAC_SYSTEMATIC_NAME>
N-(1H-pyrazol-5-ylmethyl)-2,3-dihydro-1,4-benzodioxine-3-carboxamide

> <PUBCHEM_IUPAC_TRADITIONAL_NAME>
N-(1H-pyrazol-5-ylmethyl)-2,3-dihydro-1,4-benzodioxin-3-carboxamide

> <PUBCHEM_IUPAC_INCHI>
InChI=1S/C13H13N3O3/c17-13(14-7-9-5-6-15-16-9)12-8-18-10-3-1-2-4-11(10)19-12/h1-6,12H,7-8H2,(H,14,17)(H,15,16)

> <PUBCHEM_IUPAC_INCHIKEY>
HHHNMPOMSZFDSX-UHFFFAOYSA-N

> <PUBCHEM_XLOGP3>
1

> <PUBCHEM_EXACT_MASS>
259.095691

> <PUBCHEM_MOLECULAR_FORMULA>
C13H13N3O3

> <PUBCHEM_MOLECULAR_WEIGHT>
259.26062

> <PUBCHEM_OPENEYE_CAN_SMILES>
C1C(OC2=CC=CC=C2O1)C(=O)NCC3=CC=NN3

> <PUBCHEM_OPENEYE_ISO_SMILES>
C1C(OC2=CC=CC=C2O1)C(=O)NCC3=CC=NN3

> <PUBCHEM_CACTVS_TPSA>
76.2

> <PUBCHEM_MONOISOTOPIC_WEIGHT>
259.095691

> <PUBCHEM_TOTAL_CHARGE>
0

> <PUBCHEM_HEAVY_ATOM_COUNT>
19

> <PUBCHEM_ATOM_DEF_STEREO_COUNT>
0

> <PUBCHEM_ATOM_UDEF_STEREO_COUNT>
1

> <PUBCHEM_BOND_DEF_STEREO_COUNT>
0

> <PUBCHEM_BOND_UDEF_STEREO_COUNT>
0

> <PUBCHEM_ISOTOPIC_ATOM_COUNT>
0

> <PUBCHEM_COMPONENT_COUNT>
1

> <PUBCHEM_CACTVS_TAUTO_COUNT>
4

> <PUBCHEM_COORDINATE_TYPE>
1
5
255

> <PUBCHEM_BONDANNOTATIONS>
10  11  8
10  14  8
11  15  8
13  18  8
14  16  8
15  17  8
16  17  8
18  19  8
5  13  8
5  6  8
6  19  8
7  9  3

$$$$

