17395886
  -OEChem-06241222532D

 40 42  0     1  0  0  0  0  0999 V2000
    2.6691   -1.9920    0.0000 S   0  0  0  0  0  0  0  0  0  0  0  0
    6.1808   -0.8988    0.0000 O   0  0  0  0  0  0  0  0  0  0  0  0
    5.3147    3.6012    0.0000 O   0  0  0  0  0  0  0  0  0  0  0  0
    4.4487    2.1012    0.0000 N   0  0  0  0  0  0  0  0  0  0  0  0
    4.4487   -0.8988    0.0000 N   0  0  0  0  0  0  0  0  0  0  0  0
    4.4487    1.1012    0.0000 N   0  0  0  0  0  0  0  0  0  0  0  0
    4.4487   -1.8988    0.0000 C   0  0  3  0  0  0  0  0  0  0  0  0
    6.1808    1.1012    0.0000 C   0  0  0  0  0  0  0  0  0  0  0  0
    5.3147    0.6012    0.0000 C   0  0  0  0  0  0  0  0  0  0  0  0
    6.1808    2.1012    0.0000 C   0  0  0  0  0  0  0  0  0  0  0  0
    5.3147   -0.3988    0.0000 C   0  0  0  0  0  0  0  0  0  0  0  0
    5.3147    2.6012    0.0000 C   0  0  0  0  0  0  0  0  0  0  0  0
    3.5827   -2.3988    0.0000 C   0  0  0  0  0  0  0  0  0  0  0  0
    3.5827    2.6012    0.0000 C   0  0  0  0  0  0  0  0  0  0  0  0
    5.3147   -2.3988    0.0000 C   0  0  0  0  0  0  0  0  0  0  0  0
    7.0747    0.5666    0.0000 C   0  0  0  0  0  0  0  0  0  0  0  0
    7.0747    2.6359    0.0000 C   0  0  0  0  0  0  0  0  0  0  0  0
    3.4782   -3.3933    0.0000 C   0  0  0  0  0  0  0  0  0  0  0  0
    7.9808    1.0804    0.0000 C   0  0  0  0  0  0  0  0  0  0  0  0
    7.9808    2.1220    0.0000 C   0  0  0  0  0  0  0  0  0  0  0  0
    2.7166    2.1012    0.0000 C   0  0  0  0  0  0  0  0  0  0  0  0
    2.5000   -3.6012    0.0000 C   0  0  0  0  0  0  0  0  0  0  0  0
    2.0000   -2.7352    0.0000 C   0  0  0  0  0  0  0  0  0  0  0  0
    3.9118   -1.5888    0.0000 H   0  0  0  0  0  0  0  0  0  0  0  0
    3.9118   -0.5888    0.0000 H   0  0  0  0  0  0  0  0  0  0  0  0
    3.9812    3.0762    0.0000 H   0  0  0  0  0  0  0  0  0  0  0  0
    3.1841    3.0762    0.0000 H   0  0  0  0  0  0  0  0  0  0  0  0
    5.0047   -2.9357    0.0000 H   0  0  0  0  0  0  0  0  0  0  0  0
    5.8517   -2.7088    0.0000 H   0  0  0  0  0  0  0  0  0  0  0  0
    5.6247   -1.8618    0.0000 H   0  0  0  0  0  0  0  0  0  0  0  0
    7.0675   -0.0534    0.0000 H   0  0  0  0  0  0  0  0  0  0  0  0
    7.0675    3.2558    0.0000 H   0  0  0  0  0  0  0  0  0  0  0  0
    3.9389   -3.8082    0.0000 H   0  0  0  0  0  0  0  0  0  0  0  0
    8.5165    0.7683    0.0000 H   0  0  0  0  0  0  0  0  0  0  0  0
    8.5165    2.4341    0.0000 H   0  0  0  0  0  0  0  0  0  0  0  0
    2.4066    2.6382    0.0000 H   0  0  0  0  0  0  0  0  0  0  0  0
    2.1797    1.7912    0.0000 H   0  0  0  0  0  0  0  0  0  0  0  0
    3.0266    1.5643    0.0000 H   0  0  0  0  0  0  0  0  0  0  0  0
    2.2478   -4.1676    0.0000 H   0  0  0  0  0  0  0  0  0  0  0  0
    1.3834   -2.6704    0.0000 H   0  0  0  0  0  0  0  0  0  0  0  0
  1 13  1  0  0  0  0
  1 23  1  0  0  0  0
  2 11  2  0  0  0  0
  3 12  2  0  0  0  0
  4  6  1  0  0  0  0
  4 12  1  0  0  0  0
  4 14  1  0  0  0  0
  5  7  1  0  0  0  0
  5 11  1  0  0  0  0
  5 25  1  0  0  0  0
  6  9  2  0  0  0  0
  7 13  1  0  0  0  0
  7 15  1  0  0  0  0
  7 24  1  0  0  0  0
  8  9  1  0  0  0  0
  8 10  1  0  0  0  0
  8 16  2  0  0  0  0
  9 11  1  0  0  0  0
 10 12  1  0  0  0  0
 10 17  2  0  0  0  0
 13 18  2  0  0  0  0
 14 21  1  0  0  0  0
 14 26  1  0  0  0  0
 14 27  1  0  0  0  0
 15 28  1  0  0  0  0
 15 29  1  0  0  0  0
 15 30  1  0  0  0  0
 16 19  1  0  0  0  0
 16 31  1  0  0  0  0
 17 20  1  0  0  0  0
 17 32  1  0  0  0  0
 18 22  1  0  0  0  0
 18 33  1  0  0  0  0
 19 20  2  0  0  0  0
 19 34  1  0  0  0  0
 20 35  1  0  0  0  0
 21 36  1  0  0  0  0
 21 37  1  0  0  0  0
 21 38  1  0  0  0  0
 22 23  2  0  0  0  0
 22 39  1  0  0  0  0
 23 40  1  0  0  0  0
M  END
> <PUBCHEM_COMPOUND_CID>
17395886

> <PUBCHEM_COMPOUND_CANONICALIZED>
1

> <PUBCHEM_CACTVS_COMPLEXITY>
508

> <PUBCHEM_CACTVS_HBOND_ACCEPTOR>
4

> <PUBCHEM_CACTVS_HBOND_DONOR>
1

> <PUBCHEM_CACTVS_ROTATABLE_BOND>
4

> <PUBCHEM_CACTVS_SUBSKEYS>
AAADceB7MABAAAAAAAAAAAAAAAAAASAAAAAwQAAAAAAAAACBwAAAHgQYAAAADCjF2ASyAYLAAAisAyFyEACTAIAkCBBaiJkoBNgIILKglRGEIQhgngCoiYcYi4COgAAAAAAQAAAAAAAAACAAAAAAAAAAAA==

> <PUBCHEM_IUPAC_OPENEYE_NAME>
3-ethyl-4-oxo-N-[1-(2-thienyl)ethyl]phthalazine-1-carboxamide

> <PUBCHEM_IUPAC_CAS_NAME>
3-ethyl-4-oxo-N-(1-thiophen-2-ylethyl)-1-phthalazinecarboxamide

> <PUBCHEM_IUPAC_NAME>
3-ethyl-4-oxo-N-(1-thiophen-2-ylethyl)phthalazine-1-carboxamide

> <PUBCHEM_IUPAC_SYSTEMATIC_NAME>
3-ethyl-4-oxidanylidene-N-(1-thiophen-2-ylethyl)phthalazine-1-carboxamide

> <PUBCHEM_IUPAC_TRADITIONAL_NAME>
3-ethyl-4-keto-N-[1-(2-thienyl)ethyl]phthalazine-1-carboxamide

> <PUBCHEM_IUPAC_INCHI>
InChI=1S/C17H17N3O2S/c1-3-20-17(22)13-8-5-4-7-12(13)15(19-20)16(21)18-11(2)14-9-6-10-23-14/h4-11H,3H2,1-2H3,(H,18,21)

> <PUBCHEM_IUPAC_INCHIKEY>
LVLZBLVOMJYSTC-UHFFFAOYSA-N

> <PUBCHEM_XLOGP3_AA>
2.6

> <PUBCHEM_EXACT_MASS>
327.104148

> <PUBCHEM_MOLECULAR_FORMULA>
C17H17N3O2S

> <PUBCHEM_MOLECULAR_WEIGHT>
327.40078

> <PUBCHEM_OPENEYE_CAN_SMILES>
CCN1C(=O)C2=CC=CC=C2C(=N1)C(=O)NC(C)C3=CC=CS3

> <PUBCHEM_OPENEYE_ISO_SMILES>
CCN1C(=O)C2=CC=CC=C2C(=N1)C(=O)NC(C)C3=CC=CS3

> <PUBCHEM_CACTVS_TPSA>
90

> <PUBCHEM_MONOISOTOPIC_WEIGHT>
327.104148

> <PUBCHEM_TOTAL_CHARGE>
0

> <PUBCHEM_HEAVY_ATOM_COUNT>
23

> <PUBCHEM_ATOM_DEF_STEREO_COUNT>
0

> <PUBCHEM_ATOM_UDEF_STEREO_COUNT>
1

> <PUBCHEM_BOND_DEF_STEREO_COUNT>
0

> <PUBCHEM_BOND_UDEF_STEREO_COUNT>
0

> <PUBCHEM_ISOTOPIC_ATOM_COUNT>
0

> <PUBCHEM_COMPONENT_COUNT>
1

> <PUBCHEM_CACTVS_TAUTO_COUNT>
2

> <PUBCHEM_COORDINATE_TYPE>
1
5
255

> <PUBCHEM_BONDANNOTATIONS>
1  13  8
1  23  8
10  12  8
10  17  8
13  18  8
16  19  8
17  20  8
18  22  8
19  20  8
22  23  8
4  12  8
4  6  8
6  9  8
7  15  3
8  10  8
8  16  8
8  9  8

$$$$

