5501
  -OEChem-06261200433D

 29 30  0     0  0  0  0  0  0999 V2000
    3.9038   -0.0430    0.2172 O   0  0  0  0  0  0  0  0  0  0  0  0
    2.4128    1.3556   -0.8297 O   0  0  0  0  0  0  0  0  0  0  0  0
    0.5250    0.5146    0.9766 N   0  0  0  0  0  0  0  0  0  0  0  0
   -0.2048   -1.6432    0.3640 N   0  0  0  0  0  0  0  0  0  0  0  0
    1.8009    0.0540    0.9879 N   0  0  0  0  0  0  0  0  0  0  0  0
   -1.1580   -2.5000   -0.0881 N   0  0  0  0  0  0  0  0  0  0  0  0
   -1.7529    0.1998    0.2014 C   0  0  0  0  0  0  0  0  0  0  0  0
   -2.7365   -0.6845   -0.2658 C   0  0  0  0  0  0  0  0  0  0  0  0
   -0.5042   -0.3333    0.5013 C   0  0  0  0  0  0  0  0  0  0  0  0
   -2.0573    1.5637    0.3469 C   0  0  0  0  0  0  0  0  0  0  0  0
   -4.0151   -0.1967   -0.5838 C   0  0  0  0  0  0  0  0  0  0  0  0
   -3.3301    2.0383    0.0284 C   0  0  0  0  0  0  0  0  0  0  0  0
   -2.3849   -2.0240   -0.3916 C   0  0  0  0  0  0  0  0  0  0  0  0
   -4.3071    1.1598   -0.4360 C   0  0  0  0  0  0  0  0  0  0  0  0
    4.9231    0.3669   -0.7015 C   0  0  0  0  0  0  0  0  0  0  0  0
    2.6774    0.5338    0.0424 C   0  0  0  0  0  0  0  0  0  0  0  0
    6.2079   -0.3617   -0.3696 C   0  0  0  0  0  0  0  0  0  0  0  0
   -1.3246    2.2848    0.6987 H   0  0  0  0  0  0  0  0  0  0  0  0
   -4.7894   -0.8683   -0.9474 H   0  0  0  0  0  0  0  0  0  0  0  0
   -3.5594    3.0940    0.1411 H   0  0  0  0  0  0  0  0  0  0  0  0
   -3.0880   -2.7708   -0.7457 H   0  0  0  0  0  0  0  0  0  0  0  0
   -5.2973    1.5312   -0.6838 H   0  0  0  0  0  0  0  0  0  0  0  0
    0.2988    1.2425    1.6425 H   0  0  0  0  0  0  0  0  0  0  0  0
    2.0435   -0.6187    1.7062 H   0  0  0  0  0  0  0  0  0  0  0  0
    4.6126    0.1229   -1.7236 H   0  0  0  0  0  0  0  0  0  0  0  0
    5.0779    1.4482   -0.6160 H   0  0  0  0  0  0  0  0  0  0  0  0
    7.0100   -0.0715   -1.0538 H   0  0  0  0  0  0  0  0  0  0  0  0
    6.5214   -0.1421    0.6564 H   0  0  0  0  0  0  0  0  0  0  0  0
    6.0638   -1.4453   -0.4328 H   0  0  0  0  0  0  0  0  0  0  0  0
  1 15  1  0  0  0  0
  1 16  1  0  0  0  0
  2 16  2  0  0  0  0
  3  5  1  0  0  0  0
  3  9  1  0  0  0  0
  3 23  1  0  0  0  0
  4  6  1  0  0  0  0
  4  9  2  0  0  0  0
  5 16  1  0  0  0  0
  5 24  1  0  0  0  0
  6 13  2  0  0  0  0
  7  8  1  0  0  0  0
  7  9  1  0  0  0  0
  7 10  2  0  0  0  0
  8 11  2  0  0  0  0
  8 13  1  0  0  0  0
 10 12  1  0  0  0  0
 10 18  1  0  0  0  0
 11 14  1  0  0  0  0
 11 19  1  0  0  0  0
 12 14  2  0  0  0  0
 12 20  1  0  0  0  0
 13 21  1  0  0  0  0
 14 22  1  0  0  0  0
 15 17  1  0  0  0  0
 15 25  1  0  0  0  0
 15 26  1  0  0  0  0
 17 27  1  0  0  0  0
 17 28  1  0  0  0  0
 17 29  1  0  0  0  0
M  END
> <PUBCHEM_COMPOUND_CID>
5501

> <PUBCHEM_CONFORMER_RMSD>
0.6

> <PUBCHEM_CONFORMER_DIVERSEORDER>
2
47
24
46
20
5
49
6
9
38
51
28
8
26
32
48
12
30
23
22
36
19
1
50
45
37
52
10
3
11
18
33
31
41
34
4
7
17
27
15
13
44
42
14
21
25
16
35
29
43
53
40
39

> <PUBCHEM_MMFF94_PARTIAL_CHARGES>
21
1 -0.43
10 -0.15
11 -0.15
12 -0.15
13 0.16
14 -0.15
15 0.28
16 0.78
18 0.15
19 0.15
2 -0.57
20 0.15
21 0.15
22 0.15
23 0.4
24 0.37
3 -0.52
4 -0.31
5 -0.41
6 -0.31
9 0.41

> <PUBCHEM_EFFECTIVE_ROTOR_COUNT>
5

> <PUBCHEM_PHARMACOPHORE_FEATURES>
7
1 2 acceptor
1 3 donor
1 5 donor
1 6 acceptor
3 3 4 9 cation
6 4 6 7 8 9 13 rings
6 7 8 10 11 12 14 rings

> <PUBCHEM_HEAVY_ATOM_COUNT>
17

> <PUBCHEM_ATOM_DEF_STEREO_COUNT>
0

> <PUBCHEM_ATOM_UDEF_STEREO_COUNT>
0

> <PUBCHEM_BOND_DEF_STEREO_COUNT>
0

> <PUBCHEM_BOND_UDEF_STEREO_COUNT>
0

> <PUBCHEM_ISOTOPIC_ATOM_COUNT>
0

> <PUBCHEM_COMPONENT_COUNT>
1

> <PUBCHEM_CACTVS_TAUTO_COUNT>
5

> <PUBCHEM_CONFORMER_ID>
0000157D00000002

> <PUBCHEM_MMFF94_ENERGY>
49.8352

> <PUBCHEM_FEATURE_SELFOVERLAP>
37.159

> <PUBCHEM_SHAPE_FINGERPRINT>
10726558 24 18336546113837836403
11315181 36 17531242855990147528
12236239 1 17917994983900911944
15042514 8 18194679277092123131
15183329 4 18341893043722107974
16945 1 18263383438105841523
17870717 6 18041546001791830998
18186145 218 17894639144945024233
19489759 90 18040998466581659512
19784866 170 11240003368895682528
200 152 15068620495997346946
20325693 3 18409728452473191247
20645476 183 18273219681501527299
20645477 56 18410011043835697177
20645477 70 16515682239382113348
20871999 31 18407760317858709912
21637258 2 14779844698313119597
23175994 123 16950561060518737416
23366157 5 17912366729907896987
23402539 116 18334017206834255348
23402655 69 18201716241777432268
23559900 14 18186807946536924824
26918003 58 5761647092382406173
3004659 81 18340766057478981926
4214541 1 18409728452652740668
5283173 99 18259988189022998088
559249 180 18411420648530203866
9709674 26 18117285744106687840

> <PUBCHEM_SHAPE_MULTIPOLES>
318.19
10.61
1.98
0.84
16.95
0.7
-0.02
-2.03
2.92
-2.16
0.1
0.18
-0.07
-0.26

> <PUBCHEM_SHAPE_SELFOVERLAP>
674.382

> <PUBCHEM_SHAPE_VOLUME>
177.2

> <PUBCHEM_COORDINATE_TYPE>
2
5
10

$$$$

