8665
  -OEChem-06261202593D

 16 16  0     0  0  0  0  0  0999 V2000
    1.8941   -1.4945    0.0027 O   0  0  0  0  0  0  0  0  0  0  0  0
    3.3864    0.5224   -0.0005 O   0  0  0  0  0  0  0  0  0  0  0  0
    1.3264   -0.2085   -0.0011 N   0  0  0  0  0  0  0  0  0  0  0  0
    2.1913    0.8394   -0.0002 N   0  0  0  0  0  0  0  0  0  0  0  0
   -0.0777   -0.0750   -0.0009 C   0  0  0  0  0  0  0  0  0  0  0  0
   -0.6580    1.1935    0.0002 C   0  0  0  0  0  0  0  0  0  0  0  0
   -0.8862   -1.2117   -0.0013 C   0  0  0  0  0  0  0  0  0  0  0  0
   -2.0466    1.3255    0.0011 C   0  0  0  0  0  0  0  0  0  0  0  0
   -2.2749   -1.0798   -0.0006 C   0  0  0  0  0  0  0  0  0  0  0  0
   -2.8550    0.1888    0.0006 C   0  0  0  0  0  0  0  0  0  0  0  0
   -0.0622    2.1023    0.0007 H   0  0  0  0  0  0  0  0  0  0  0  0
   -0.4649   -2.2133   -0.0021 H   0  0  0  0  0  0  0  0  0  0  0  0
   -2.4988    2.3129    0.0020 H   0  0  0  0  0  0  0  0  0  0  0  0
   -2.9049   -1.9645   -0.0009 H   0  0  0  0  0  0  0  0  0  0  0  0
   -3.9361    0.2914    0.0012 H   0  0  0  0  0  0  0  0  0  0  0  0
    1.9824   -1.6747   -0.9494 H   0  0  0  0  0  0  0  0  0  0  0  0
  1  3  1  0  0  0  0
  1 16  1  0  0  0  0
  2  4  2  0  0  0  0
  3  4  1  0  0  0  0
  3  5  1  0  0  0  0
  5  6  2  0  0  0  0
  5  7  1  0  0  0  0
  6  8  1  0  0  0  0
  6 11  1  0  0  0  0
  7  9  2  0  0  0  0
  7 12  1  0  0  0  0
  8 10  2  0  0  0  0
  8 13  1  0  0  0  0
  9 10  1  0  0  0  0
  9 14  1  0  0  0  0
 10 15  1  0  0  0  0
M  END
> <PUBCHEM_COMPOUND_CID>
8665

> <PUBCHEM_CONFORMER_RMSD>
0.4

> <PUBCHEM_CONFORMER_DIVERSEORDER>
1
8
7
6
4
9
2
5
3

> <PUBCHEM_MMFF94_PARTIAL_CHARGES>
15
1 -0.38
10 -0.15
11 0.15
12 0.15
13 0.15
14 0.15
15 0.15
16 0.4
2 -0.16
3 0.04
5 0.1
6 -0.15
7 -0.15
8 -0.15
9 -0.15

> <PUBCHEM_EFFECTIVE_ROTOR_COUNT>
2

> <PUBCHEM_PHARMACOPHORE_FEATURES>
2
1 1 anion
6 5 6 7 8 9 10 rings

> <PUBCHEM_HEAVY_ATOM_COUNT>
10

> <PUBCHEM_ATOM_DEF_STEREO_COUNT>
0

> <PUBCHEM_ATOM_UDEF_STEREO_COUNT>
0

> <PUBCHEM_BOND_DEF_STEREO_COUNT>
0

> <PUBCHEM_BOND_UDEF_STEREO_COUNT>
0

> <PUBCHEM_ISOTOPIC_ATOM_COUNT>
0

> <PUBCHEM_COMPONENT_COUNT>
1

> <PUBCHEM_CACTVS_TAUTO_COUNT>
1

> <PUBCHEM_CONFORMER_ID>
000021D900000001

> <PUBCHEM_MMFF94_ENERGY>
24.9407

> <PUBCHEM_FEATURE_SELFOVERLAP>
10.148

> <PUBCHEM_SHAPE_FINGERPRINT>
10857977 72 18337962173018609969
12897270 3 18409449159102568076
12932764 1 17458352926468886707
13024252 1 16128659639383198601
14325111 11 18410856602689838721
14390081 3 18335140886184775568
16945 1 18338797819119971653
19973954 147 18337669823037064468
20871998 184 18115864118659179911
21040471 1 18338799047543921825
23552423 10 18271805760818704931
2748010 2 18339077211021654751
29004967 10 18270956852116536123
369184 2 18412265060094898795
5084963 1 18116721909347714547
6333449 129 18335704918617538061

> <PUBCHEM_SHAPE_MULTIPOLES>
184.09
4.36
1.5
0.58
2.48
0.12
0
-0.43
0
-0.26
0
-0.09
0
0

> <PUBCHEM_SHAPE_SELFOVERLAP>
378.053

> <PUBCHEM_SHAPE_VOLUME>
105.8

> <PUBCHEM_COORDINATE_TYPE>
2
5
10

$$$$

