47205115
  -OEChem-06241222582D

 27 28  0     0  0  0  0  0  0999 V2000
    2.0000   -1.0194    0.0000 Br  0  0  0  0  0  0  0  0  0  0  0  0
    3.7320   -0.0194    0.0000 S   0  0  0  0  0  0  0  0  0  0  0  0
    3.7320   -4.0194    0.0000 F   0  0  0  0  0  0  0  0  0  0  0  0
    3.7891    3.0684    0.0000 O   0  0  0  0  0  0  0  0  0  0  0  0
    4.7320   -0.0194    0.0000 O   0  0  0  0  0  0  0  0  0  0  0  0
    2.7320   -0.0194    0.0000 O   0  0  0  0  0  0  0  0  0  0  0  0
    3.7320    0.9806    0.0000 N   0  0  0  0  0  0  0  0  0  0  0  0
    3.7320   -1.0194    0.0000 C   0  0  0  0  0  0  0  0  0  0  0  0
    4.5981    1.4806    0.0000 C   0  0  0  0  0  0  0  0  0  0  0  0
    4.5981    2.4806    0.0000 C   0  0  0  0  0  0  0  0  0  0  0  0
    2.8660   -1.5194    0.0000 C   0  0  0  0  0  0  0  0  0  0  0  0
    4.5981   -1.5194    0.0000 C   0  0  0  0  0  0  0  0  0  0  0  0
    5.4071    3.0684    0.0000 C   0  0  0  0  0  0  0  0  0  0  0  0
    2.8660   -2.5194    0.0000 C   0  0  0  0  0  0  0  0  0  0  0  0
    4.5981   -2.5194    0.0000 C   0  0  0  0  0  0  0  0  0  0  0  0
    3.7320   -3.0194    0.0000 C   0  0  0  0  0  0  0  0  0  0  0  0
    5.0981    4.0194    0.0000 C   0  0  0  0  0  0  0  0  0  0  0  0
    4.0981    4.0194    0.0000 C   0  0  0  0  0  0  0  0  0  0  0  0
    4.8101    0.8980    0.0000 H   0  0  0  0  0  0  0  0  0  0  0  0
    5.2087    1.5882    0.0000 H   0  0  0  0  0  0  0  0  0  0  0  0
    3.1951    1.2906    0.0000 H   0  0  0  0  0  0  0  0  0  0  0  0
    5.1350   -1.2094    0.0000 H   0  0  0  0  0  0  0  0  0  0  0  0
    5.9967    2.8768    0.0000 H   0  0  0  0  0  0  0  0  0  0  0  0
    2.3291   -2.8294    0.0000 H   0  0  0  0  0  0  0  0  0  0  0  0
    5.1350   -2.8294    0.0000 H   0  0  0  0  0  0  0  0  0  0  0  0
    5.4625    4.5210    0.0000 H   0  0  0  0  0  0  0  0  0  0  0  0
    3.7336    4.5210    0.0000 H   0  0  0  0  0  0  0  0  0  0  0  0
  1 11  1  0  0  0  0
  2  5  2  0  0  0  0
  2  6  2  0  0  0  0
  2  7  1  0  0  0  0
  2  8  1  0  0  0  0
  3 16  1  0  0  0  0
  4 10  1  0  0  0  0
  4 18  1  0  0  0  0
  7  9  1  0  0  0  0
  7 21  1  0  0  0  0
  8 11  2  0  0  0  0
  8 12  1  0  0  0  0
  9 10  1  0  0  0  0
  9 19  1  0  0  0  0
  9 20  1  0  0  0  0
 10 13  2  0  0  0  0
 11 14  1  0  0  0  0
 12 15  2  0  0  0  0
 12 22  1  0  0  0  0
 13 17  1  0  0  0  0
 13 23  1  0  0  0  0
 14 16  2  0  0  0  0
 14 24  1  0  0  0  0
 15 16  1  0  0  0  0
 15 25  1  0  0  0  0
 17 18  2  0  0  0  0
 17 26  1  0  0  0  0
 18 27  1  0  0  0  0
M  END
> <PUBCHEM_COMPOUND_CID>
47205115

> <PUBCHEM_COMPOUND_CANONICALIZED>
1

> <PUBCHEM_CACTVS_COMPLEXITY>
373

> <PUBCHEM_CACTVS_HBOND_ACCEPTOR>
5

> <PUBCHEM_CACTVS_HBOND_DONOR>
1

> <PUBCHEM_CACTVS_ROTATABLE_BOND>
4

> <PUBCHEM_CACTVS_SUBSKEYS>
AAADccByMQBAEAAAAAAAAAAAAAAAASAAAAAwAAAAAAAAAAABwAAAHwRQQAABqATh0A4wBYBABEKIAKhSgHDCCBAkIAQIiJmGDOgOJjKEtRuDOSDkwBEIq5eYEQAAAAAAAAAAAEAAAAAAAAAAgAAAAAAAAA==

> <PUBCHEM_IUPAC_OPENEYE_NAME>
2-bromo-4-fluoro-N-(2-furylmethyl)benzenesulfonamide

> <PUBCHEM_IUPAC_CAS_NAME>
2-bromo-4-fluoro-N-(2-furanylmethyl)benzenesulfonamide

> <PUBCHEM_IUPAC_NAME>
2-bromo-4-fluoro-N-(furan-2-ylmethyl)benzenesulfonamide

> <PUBCHEM_IUPAC_SYSTEMATIC_NAME>
2-bromanyl-4-fluoranyl-N-(furan-2-ylmethyl)benzenesulfonamide

> <PUBCHEM_IUPAC_TRADITIONAL_NAME>
2-bromo-4-fluoro-N-(2-furfuryl)benzenesulfonamide

> <PUBCHEM_IUPAC_INCHI>
InChI=1S/C11H9BrFNO3S/c12-10-6-8(13)3-4-11(10)18(15,16)14-7-9-2-1-5-17-9/h1-6,14H,7H2

> <PUBCHEM_IUPAC_INCHIKEY>
JFCLSQYWENLHPZ-UHFFFAOYSA-N

> <PUBCHEM_XLOGP3_AA>
2.3

> <PUBCHEM_EXACT_MASS>
332.947054

> <PUBCHEM_MOLECULAR_FORMULA>
C11H9BrFNO3S

> <PUBCHEM_MOLECULAR_WEIGHT>
334.161463

> <PUBCHEM_OPENEYE_CAN_SMILES>
C1=COC(=C1)CNS(=O)(=O)C2=C(C=C(C=C2)F)Br

> <PUBCHEM_OPENEYE_ISO_SMILES>
C1=COC(=C1)CNS(=O)(=O)C2=C(C=C(C=C2)F)Br

> <PUBCHEM_CACTVS_TPSA>
67.7

> <PUBCHEM_MONOISOTOPIC_WEIGHT>
332.947054

> <PUBCHEM_TOTAL_CHARGE>
0

> <PUBCHEM_HEAVY_ATOM_COUNT>
18

> <PUBCHEM_ATOM_DEF_STEREO_COUNT>
0

> <PUBCHEM_ATOM_UDEF_STEREO_COUNT>
0

> <PUBCHEM_BOND_DEF_STEREO_COUNT>
0

> <PUBCHEM_BOND_UDEF_STEREO_COUNT>
0

> <PUBCHEM_ISOTOPIC_ATOM_COUNT>
0

> <PUBCHEM_COMPONENT_COUNT>
1

> <PUBCHEM_CACTVS_TAUTO_COUNT>
1

> <PUBCHEM_COORDINATE_TYPE>
1
5
255

> <PUBCHEM_BONDANNOTATIONS>
10  13  8
11  14  8
12  15  8
13  17  8
14  16  8
15  16  8
17  18  8
4  10  8
4  18  8
8  11  8
8  12  8

$$$$

