854321
  -OEChem-06241222472D

 41 42  0     0  0  0  0  0  0999 V2000
    5.4641    1.5085    0.0000 O   0  0  0  0  0  0  0  0  0  0  0  0
    7.2125   -1.5261    0.0000 O   0  0  0  0  0  0  0  0  0  0  0  0
    8.9942    1.5327    0.0000 O   0  0  0  0  0  0  0  0  0  0  0  0
    3.7320    1.5085    0.0000 O   0  0  0  0  0  0  0  0  0  0  0  0
    8.9444   -1.5461    0.0000 O   0  0  0  0  0  0  0  0  0  0  0  0
    8.1224    3.0293    0.0000 O   0  0  0  0  0  0  0  0  0  0  0  0
    4.5981    0.0085    0.0000 C   0  0  0  0  0  0  0  0  0  0  0  0
    5.4641   -0.4915    0.0000 C   0  0  0  0  0  0  0  0  0  0  0  0
    3.7320   -0.4915    0.0000 C   0  0  0  0  0  0  0  0  0  0  0  0
    6.3301    0.0085    0.0000 C   0  0  0  0  0  0  0  0  0  0  0  0
    6.3301    1.0085    0.0000 C   0  0  0  0  0  0  0  0  0  0  0  0
    2.8660    0.0085    0.0000 C   0  0  0  0  0  0  0  0  0  0  0  0
    7.2241   -0.5261    0.0000 C   0  0  0  0  0  0  0  0  0  0  0  0
    4.5981    1.0085    0.0000 C   0  0  0  0  0  0  0  0  0  0  0  0
    5.4641   -1.4915    0.0000 C   0  0  0  0  0  0  0  0  0  0  0  0
    7.2241    1.5432    0.0000 C   0  0  0  0  0  0  0  0  0  0  0  0
    8.1301   -0.0123    0.0000 C   0  0  0  0  0  0  0  0  0  0  0  0
    8.1301    1.0293    0.0000 C   0  0  0  0  0  0  0  0  0  0  0  0
    2.0000   -0.4915    0.0000 C   0  0  0  0  0  0  0  0  0  0  0  0
    8.0727   -2.0361    0.0000 C   0  0  0  0  0  0  0  0  0  0  0  0
    8.9904    2.5327    0.0000 C   0  0  0  0  0  0  0  0  0  0  0  0
    8.0611   -3.0360    0.0000 C   0  0  0  0  0  0  0  0  0  0  0  0
    9.8545    3.0360    0.0000 C   0  0  0  0  0  0  0  0  0  0  0  0
    3.3335   -0.9664    0.0000 H   0  0  0  0  0  0  0  0  0  0  0  0
    4.1306   -0.9664    0.0000 H   0  0  0  0  0  0  0  0  0  0  0  0
    3.2646    0.4835    0.0000 H   0  0  0  0  0  0  0  0  0  0  0  0
    2.4675    0.4835    0.0000 H   0  0  0  0  0  0  0  0  0  0  0  0
    4.8441   -1.4915    0.0000 H   0  0  0  0  0  0  0  0  0  0  0  0
    5.4641   -2.1115    0.0000 H   0  0  0  0  0  0  0  0  0  0  0  0
    6.0841   -1.4915    0.0000 H   0  0  0  0  0  0  0  0  0  0  0  0
    7.2169    2.1631    0.0000 H   0  0  0  0  0  0  0  0  0  0  0  0
    8.6659   -0.3244    0.0000 H   0  0  0  0  0  0  0  0  0  0  0  0
    1.6900    0.0455    0.0000 H   0  0  0  0  0  0  0  0  0  0  0  0
    1.4631   -0.8015    0.0000 H   0  0  0  0  0  0  0  0  0  0  0  0
    2.3100   -1.0284    0.0000 H   0  0  0  0  0  0  0  0  0  0  0  0
    7.4412   -3.0288    0.0000 H   0  0  0  0  0  0  0  0  0  0  0  0
    8.0540   -3.6560    0.0000 H   0  0  0  0  0  0  0  0  0  0  0  0
    8.6811   -3.0432    0.0000 H   0  0  0  0  0  0  0  0  0  0  0  0
   10.1665    2.5003    0.0000 H   0  0  0  0  0  0  0  0  0  0  0  0
   10.3902    3.3481    0.0000 H   0  0  0  0  0  0  0  0  0  0  0  0
    9.5424    3.5717    0.0000 H   0  0  0  0  0  0  0  0  0  0  0  0
  1 11  1  0  0  0  0
  1 14  1  0  0  0  0
  2 13  1  0  0  0  0
  2 20  1  0  0  0  0
  3 18  1  0  0  0  0
  3 21  1  0  0  0  0
  4 14  2  0  0  0  0
  5 20  2  0  0  0  0
  6 21  2  0  0  0  0
  7  8  2  0  0  0  0
  7  9  1  0  0  0  0
  7 14  1  0  0  0  0
  8 10  1  0  0  0  0
  8 15  1  0  0  0  0
  9 12  1  0  0  0  0
  9 24  1  0  0  0  0
  9 25  1  0  0  0  0
 10 11  2  0  0  0  0
 10 13  1  0  0  0  0
 11 16  1  0  0  0  0
 12 19  1  0  0  0  0
 12 26  1  0  0  0  0
 12 27  1  0  0  0  0
 13 17  2  0  0  0  0
 15 28  1  0  0  0  0
 15 29  1  0  0  0  0
 15 30  1  0  0  0  0
 16 18  2  0  0  0  0
 16 31  1  0  0  0  0
 17 18  1  0  0  0  0
 17 32  1  0  0  0  0
 19 33  1  0  0  0  0
 19 34  1  0  0  0  0
 19 35  1  0  0  0  0
 20 22  1  0  0  0  0
 21 23  1  0  0  0  0
 22 36  1  0  0  0  0
 22 37  1  0  0  0  0
 22 38  1  0  0  0  0
 23 39  1  0  0  0  0
 23 40  1  0  0  0  0
 23 41  1  0  0  0  0
M  END
> <PUBCHEM_COMPOUND_CID>
854321

> <PUBCHEM_COMPOUND_CANONICALIZED>
1

> <PUBCHEM_CACTVS_COMPLEXITY>
535

> <PUBCHEM_CACTVS_HBOND_ACCEPTOR>
6

> <PUBCHEM_CACTVS_HBOND_DONOR>
0

> <PUBCHEM_CACTVS_ROTATABLE_BOND>
6

> <PUBCHEM_CACTVS_SUBSKEYS>
AAADceB4OAAAAAAAAAAAAAAAAAAAAAAAAAAwQAAAAAAAAACBAAAAGgAAAAAADASAmAAyDoAABACIAiDSCAACCAAgIAAAiAEGCMgMJzKEMRqCOiClwBUIqQeI4KwOIAAACAAIAABAAAAQABAAAAAAAAAAAA==

> <PUBCHEM_IUPAC_OPENEYE_NAME>
(5-acetoxy-4-methyl-2-oxo-3-propyl-chromen-7-yl) acetate

> <PUBCHEM_IUPAC_CAS_NAME>
acetic acid (5-acetyloxy-4-methyl-2-oxo-3-propyl-1-benzopyran-7-yl) ester

> <PUBCHEM_IUPAC_NAME>
(5-acetyloxy-4-methyl-2-oxo-3-propylchromen-7-yl) acetate

> <PUBCHEM_IUPAC_SYSTEMATIC_NAME>
(5-acetyloxy-4-methyl-2-oxidanylidene-3-propyl-chromen-7-yl) ethanoate

> <PUBCHEM_IUPAC_TRADITIONAL_NAME>
acetic acid (5-acetoxy-2-keto-4-methyl-3-propyl-chromen-7-yl) ester

> <PUBCHEM_IUPAC_INCHI>
InChI=1S/C17H18O6/c1-5-6-13-9(2)16-14(22-11(4)19)7-12(21-10(3)18)8-15(16)23-17(13)20/h7-8H,5-6H2,1-4H3

> <PUBCHEM_IUPAC_INCHIKEY>
LUSXBSCYNPTVKL-UHFFFAOYSA-N

> <PUBCHEM_XLOGP3_AA>
2.7

> <PUBCHEM_EXACT_MASS>
318.110338

> <PUBCHEM_MOLECULAR_FORMULA>
C17H18O6

> <PUBCHEM_MOLECULAR_WEIGHT>
318.32122

> <PUBCHEM_OPENEYE_CAN_SMILES>
CCCC1=C(C2=C(C=C(C=C2OC1=O)OC(=O)C)OC(=O)C)C

> <PUBCHEM_OPENEYE_ISO_SMILES>
CCCC1=C(C2=C(C=C(C=C2OC1=O)OC(=O)C)OC(=O)C)C

> <PUBCHEM_CACTVS_TPSA>
78.9

> <PUBCHEM_MONOISOTOPIC_WEIGHT>
318.110338

> <PUBCHEM_TOTAL_CHARGE>
0

> <PUBCHEM_HEAVY_ATOM_COUNT>
23

> <PUBCHEM_ATOM_DEF_STEREO_COUNT>
0

> <PUBCHEM_ATOM_UDEF_STEREO_COUNT>
0

> <PUBCHEM_BOND_DEF_STEREO_COUNT>
0

> <PUBCHEM_BOND_UDEF_STEREO_COUNT>
0

> <PUBCHEM_ISOTOPIC_ATOM_COUNT>
0

> <PUBCHEM_COMPONENT_COUNT>
1

> <PUBCHEM_CACTVS_TAUTO_COUNT>
1

> <PUBCHEM_COORDINATE_TYPE>
1
5
255

> <PUBCHEM_BONDANNOTATIONS>
1  11  8
1  14  8
10  11  8
10  13  8
11  16  8
13  17  8
16  18  8
17  18  8
7  14  8
7  8  8
8  10  8

$$$$

