5602
  -OEChem-06261200463D

 54 56  0     0  0  0  0  0  0999 V2000
    7.6710    0.4620    1.0212 O   0  0  0  0  0  0  0  0  0  0  0  0
    7.7796   -0.7256   -0.9031 O   0  0  0  0  0  0  0  0  0  0  0  0
   -3.6320   -1.8525    0.0984 C   0  0  0  0  0  0  0  0  0  0  0  0
   -5.2113    0.7687    0.0578 C   0  0  0  0  0  0  0  0  0  0  0  0
   -5.1077   -1.7239    0.5373 C   0  0  0  0  0  0  0  0  0  0  0  0
   -5.8309   -0.6198   -0.2152 C   0  0  0  0  0  0  0  0  0  0  0  0
   -2.9483   -0.4825    0.0045 C   0  0  0  0  0  0  0  0  0  0  0  0
   -3.6798    0.7306   -0.0225 C   0  0  0  0  0  0  0  0  0  0  0  0
   -3.5525   -2.5410   -1.2822 C   0  0  0  0  0  0  0  0  0  0  0  0
   -2.9456   -2.7695    1.1388 C   0  0  0  0  0  0  0  0  0  0  0  0
   -5.8199    1.7321   -0.9892 C   0  0  0  0  0  0  0  0  0  0  0  0
   -5.6211    1.2594    1.4642 C   0  0  0  0  0  0  0  0  0  0  0  0
   -1.5401   -0.4226   -0.0968 C   0  0  0  0  0  0  0  0  0  0  0  0
   -2.9646    1.9475   -0.0880 C   0  0  0  0  0  0  0  0  0  0  0  0
   -0.8609    0.7912   -0.1802 C   0  0  0  0  0  0  0  0  0  0  0  0
   -1.5737    1.9785   -0.1674 C   0  0  0  0  0  0  0  0  0  0  0  0
    0.5902    0.8122   -0.2762 C   0  0  0  0  0  0  0  0  0  0  0  0
    1.1935    1.9756   -1.0368 C   0  0  0  0  0  0  0  0  0  0  0  0
    1.4093   -0.1337    0.2605 C   0  0  0  0  0  0  0  0  0  0  0  0
    2.8770   -0.1494    0.1861 C   0  0  0  0  0  0  0  0  0  0  0  0
    3.4996   -0.7922   -0.8739 C   0  0  0  0  0  0  0  0  0  0  0  0
    3.6171    0.4780    1.1778 C   0  0  0  0  0  0  0  0  0  0  0  0
    4.8926   -0.8081   -0.9439 C   0  0  0  0  0  0  0  0  0  0  0  0
    5.0102    0.4624    1.1079 C   0  0  0  0  0  0  0  0  0  0  0  0
    5.6480   -0.1807    0.0469 C   0  0  0  0  0  0  0  0  0  0  0  0
    7.1003   -0.1971   -0.0263 C   0  0  0  0  0  0  0  0  0  0  0  0
   -5.1690   -1.5274    1.6151 H   0  0  0  0  0  0  0  0  0  0  0  0
   -5.6339   -2.6740    0.3774 H   0  0  0  0  0  0  0  0  0  0  0  0
   -5.8111   -0.8414   -1.2898 H   0  0  0  0  0  0  0  0  0  0  0  0
   -6.8910   -0.6236    0.0698 H   0  0  0  0  0  0  0  0  0  0  0  0
   -4.0898   -3.4963   -1.2789 H   0  0  0  0  0  0  0  0  0  0  0  0
   -3.9792   -1.9186   -2.0763 H   0  0  0  0  0  0  0  0  0  0  0  0
   -2.5154   -2.7535   -1.5677 H   0  0  0  0  0  0  0  0  0  0  0  0
   -1.9314   -3.0571    0.8428 H   0  0  0  0  0  0  0  0  0  0  0  0
   -2.8775   -2.2775    2.1163 H   0  0  0  0  0  0  0  0  0  0  0  0
   -3.5092   -3.7007    1.2719 H   0  0  0  0  0  0  0  0  0  0  0  0
   -5.5654    2.7791   -0.7942 H   0  0  0  0  0  0  0  0  0  0  0  0
   -5.4712    1.4898   -2.0000 H   0  0  0  0  0  0  0  0  0  0  0  0
   -6.9147    1.6694   -0.9892 H   0  0  0  0  0  0  0  0  0  0  0  0
   -5.1804    0.6458    2.2575 H   0  0  0  0  0  0  0  0  0  0  0  0
   -5.2945    2.2909    1.6418 H   0  0  0  0  0  0  0  0  0  0  0  0
   -6.7098    1.2381    1.5888 H   0  0  0  0  0  0  0  0  0  0  0  0
   -0.9831   -1.3552   -0.1408 H   0  0  0  0  0  0  0  0  0  0  0  0
   -3.4887    2.8998   -0.0682 H   0  0  0  0  0  0  0  0  0  0  0  0
   -1.0906    2.9506   -0.2038 H   0  0  0  0  0  0  0  0  0  0  0  0
    1.2076    2.8776   -0.4152 H   0  0  0  0  0  0  0  0  0  0  0  0
    0.6215    2.1844   -1.9487 H   0  0  0  0  0  0  0  0  0  0  0  0
    2.2195    1.7972   -1.3708 H   0  0  0  0  0  0  0  0  0  0  0  0
    1.0019   -0.9662    0.8296 H   0  0  0  0  0  0  0  0  0  0  0  0
    2.9223   -1.2849   -1.6520 H   0  0  0  0  0  0  0  0  0  0  0  0
    3.1315    0.9821    2.0095 H   0  0  0  0  0  0  0  0  0  0  0  0
    5.3710   -1.3143   -1.7782 H   0  0  0  0  0  0  0  0  0  0  0  0
    5.5579    0.9635    1.9011 H   0  0  0  0  0  0  0  0  0  0  0  0
    8.6506    0.4495    0.9695 H   0  0  0  0  0  0  0  0  0  0  0  0
  1 26  1  0  0  0  0
  1 54  1  0  0  0  0
  2 26  2  0  0  0  0
  3  5  1  0  0  0  0
  3  7  1  0  0  0  0
  3  9  1  0  0  0  0
  3 10  1  0  0  0  0
  4  6  1  0  0  0  0
  4  8  1  0  0  0  0
  4 11  1  0  0  0  0
  4 12  1  0  0  0  0
  5  6  1  0  0  0  0
  5 27  1  0  0  0  0
  5 28  1  0  0  0  0
  6 29  1  0  0  0  0
  6 30  1  0  0  0  0
  7  8  2  0  0  0  0
  7 13  1  0  0  0  0
  8 14  1  0  0  0  0
  9 31  1  0  0  0  0
  9 32  1  0  0  0  0
  9 33  1  0  0  0  0
 10 34  1  0  0  0  0
 10 35  1  0  0  0  0
 10 36  1  0  0  0  0
 11 37  1  0  0  0  0
 11 38  1  0  0  0  0
 11 39  1  0  0  0  0
 12 40  1  0  0  0  0
 12 41  1  0  0  0  0
 12 42  1  0  0  0  0
 13 15  2  0  0  0  0
 13 43  1  0  0  0  0
 14 16  2  0  0  0  0
 14 44  1  0  0  0  0
 15 16  1  0  0  0  0
 15 17  1  0  0  0  0
 16 45  1  0  0  0  0
 17 18  1  0  0  0  0
 17 19  2  0  0  0  0
 18 46  1  0  0  0  0
 18 47  1  0  0  0  0
 18 48  1  0  0  0  0
 19 20  1  0  0  0  0
 19 49  1  0  0  0  0
 20 21  2  0  0  0  0
 20 22  1  0  0  0  0
 21 23  1  0  0  0  0
 21 50  1  0  0  0  0
 22 24  2  0  0  0  0
 22 51  1  0  0  0  0
 23 25  2  0  0  0  0
 23 52  1  0  0  0  0
 24 25  1  0  0  0  0
 24 53  1  0  0  0  0
 25 26  1  0  0  0  0
M  END
> <PUBCHEM_COMPOUND_CID>
5602

> <PUBCHEM_CONFORMER_RMSD>
0.8

> <PUBCHEM_CONFORMER_DIVERSEORDER>
1
3
4
2

> <PUBCHEM_MMFF94_PARTIAL_CHARGES>
29
1 -0.65
13 -0.15
14 -0.15
15 0.03
16 -0.15
17 -0.17
18 0.14
19 -0.18
2 -0.57
20 0.03
21 -0.15
22 -0.15
23 -0.15
24 -0.15
25 0.09
26 0.63
3 0.14
4 0.14
43 0.15
44 0.15
45 0.15
49 0.15
50 0.15
51 0.15
52 0.15
53 0.15
54 0.5
7 -0.14
8 -0.14

> <PUBCHEM_EFFECTIVE_ROTOR_COUNT>
3.8

> <PUBCHEM_PHARMACOPHORE_FEATURES>
9
1 1 acceptor
1 18 hydrophobe
1 2 acceptor
3 1 2 26 anion
3 3 9 10 hydrophobe
3 4 11 12 hydrophobe
6 20 21 22 23 24 25 rings
6 3 4 5 6 7 8 rings
6 7 8 13 14 15 16 rings

> <PUBCHEM_HEAVY_ATOM_COUNT>
26

> <PUBCHEM_ATOM_DEF_STEREO_COUNT>
0

> <PUBCHEM_ATOM_UDEF_STEREO_COUNT>
0

> <PUBCHEM_BOND_DEF_STEREO_COUNT>
0

> <PUBCHEM_BOND_UDEF_STEREO_COUNT>
1

> <PUBCHEM_ISOTOPIC_ATOM_COUNT>
0

> <PUBCHEM_COMPONENT_COUNT>
1

> <PUBCHEM_CACTVS_TAUTO_COUNT>
1

> <PUBCHEM_CONFORMER_ID>
000015E200000001

> <PUBCHEM_MMFF94_ENERGY>
98.9362

> <PUBCHEM_FEATURE_SELFOVERLAP>
45.748

> <PUBCHEM_SHAPE_FINGERPRINT>
10 15 18114755854657726984
10411042 1 18124594181693189355
10673678 19 18116148858671261800
11045977 3 18187090528792316952
11135926 11 17417823858902781418
11315181 36 18040716957187266385
11524674 6 16950566575225337711
12091667 2 17632857542600965569
12166972 35 16917066647156694436
12236239 1 17418094334362140664
12516196 113 18260550030621376152
12616971 3 17346873438581760478
12788726 201 18269840968179436489
12838862 33 18270978920022707645
13288520 33 18413388722598106317
13402501 40 18260264153155539614
13583140 156 16660651704631640831
13668630 136 15195282053948166904
13947920 75 18059859458800306650
14341114 176 18040435473504745656
14394314 77 18271806864931541137
14856354 85 18059850641164427719
14933364 13 18259984873297273520
15021287 119 17275096237257785333
15183329 4 16845297124537411182
15348495 7 17822860775405183882
15352257 5 18334855056871258998
15361156 5 18337950099860396100
15461852 350 17530689788535181973
15510794 2 18113898287317884822
15537594 2 17917995000732693434
17093844 174 18408326575079211819
17492 89 17982165613830167691
17844677 252 18040994016816440024
18681886 176 18342460305432362808
18927931 339 18410012113472529535
19489759 90 17894631465970747033
21033648 29 17458639920499614000
21236236 1 18410856551187297451
21267235 1 18271803481029691579
21315763 178 17704078408305870154
21623969 137 17240478118284307110
21781055 127 17970318573715008497
21792961 116 17676765475090008468
220451 1 17846501443839350002
23035841 295 18343865528605606250
23402539 116 18202285792362240974
23522609 53 17986925571080900324
23559900 14 18335426746291746001
24771293 8 17988084362717564700
249057 3 18272934925586703093
3004659 81 18060138713168362828
335352 9 18342461452747884781
3383291 50 18340764837460805395
3545911 37 18334577970944526944
397830 11 17823148826261680896
4015057 19 17676785167046140801
4073 2 18411134715335190226
4325135 7 18201717367079839620
437815 12 17967253095903429521
4625314 4 18411980257368132860
5104073 3 18339636729365292017
5364581 5 18117570530582935744
559249 180 18342459240422729215
7226269 152 18334858355316380697
9953998 17 18334581239493793384
999808 66 17489293175733494107

> <PUBCHEM_SHAPE_MULTIPOLES>
523.33
19.37
2.27
1.13
28.59
0.72
-0.09
1.57
-1.15
-4.05
0.19
0.08
0.08
0.62

> <PUBCHEM_SHAPE_SELFOVERLAP>
1127.302

> <PUBCHEM_SHAPE_VOLUME>
289.4

> <PUBCHEM_COORDINATE_TYPE>
2
5
10

$$$$

