9552
  -OEChem-06261203483D

 24 24  0     0  0  0  0  0  0999 V2000
   -0.5296    0.2609   -1.6151 F   0  0  0  0  0  0  0  0  0  0  0  0
    0.5311    1.5363    1.4970 F   0  0  0  0  0  0  0  0  0  0  0  0
    0.2022    2.5791   -0.3844 F   0  0  0  0  0  0  0  0  0  0  0  0
   -0.1129   -1.0700    1.6241 F   0  0  0  0  0  0  0  0  0  0  0  0
   -0.9307   -2.0084   -0.1608 F   0  0  0  0  0  0  0  0  0  0  0  0
    2.8260    1.9412    0.1256 F   0  0  0  0  0  0  0  0  0  0  0  0
    1.9974    1.0039   -1.6547 F   0  0  0  0  0  0  0  0  0  0  0  0
    1.6998   -2.6181    0.3486 F   0  0  0  0  0  0  0  0  0  0  0  0
    1.3614   -1.5718   -1.5287 F   0  0  0  0  0  0  0  0  0  0  0  0
    3.5781   -0.6867   -0.2443 F   0  0  0  0  0  0  0  0  0  0  0  0
    2.4422   -0.3173    1.5747 F   0  0  0  0  0  0  0  0  0  0  0  0
   -2.2216    1.8873   -0.3030 F   0  0  0  0  0  0  0  0  0  0  0  0
   -1.8623    0.8355    1.5693 F   0  0  0  0  0  0  0  0  0  0  0  0
   -2.9789   -0.4750   -1.4906 F   0  0  0  0  0  0  0  0  0  0  0  0
   -4.1568    0.0304    0.2746 F   0  0  0  0  0  0  0  0  0  0  0  0
   -2.6469   -1.5415    0.3833 F   0  0  0  0  0  0  0  0  0  0  0  0
   -0.4930    0.3183   -0.2501 C   0  0  0  0  0  0  0  0  0  0  0  0
    0.5396    1.3787    0.1474 C   0  0  0  0  0  0  0  0  0  0  0  0
   -0.0625   -1.0589    0.2663 C   0  0  0  0  0  0  0  0  0  0  0  0
    1.9435    1.0056   -0.2981 C   0  0  0  0  0  0  0  0  0  0  0  0
    1.3437   -1.4232   -0.1794 C   0  0  0  0  0  0  0  0  0  0  0  0
    2.3497   -0.3607    0.2211 C   0  0  0  0  0  0  0  0  0  0  0  0
   -1.8924    0.6871    0.2257 C   0  0  0  0  0  0  0  0  0  0  0  0
   -2.9273   -0.3329   -0.1486 C   0  0  0  0  0  0  0  0  0  0  0  0
  1 17  1  0  0  0  0
  2 18  1  0  0  0  0
  3 18  1  0  0  0  0
  4 19  1  0  0  0  0
  5 19  1  0  0  0  0
  6 20  1  0  0  0  0
  7 20  1  0  0  0  0
  8 21  1  0  0  0  0
  9 21  1  0  0  0  0
 10 22  1  0  0  0  0
 11 22  1  0  0  0  0
 12 23  1  0  0  0  0
 13 23  1  0  0  0  0
 14 24  1  0  0  0  0
 15 24  1  0  0  0  0
 16 24  1  0  0  0  0
 17 18  1  0  0  0  0
 17 19  1  0  0  0  0
 17 23  1  0  0  0  0
 18 20  1  0  0  0  0
 19 21  1  0  0  0  0
 20 22  1  0  0  0  0
 21 22  1  0  0  0  0
 23 24  1  0  0  0  0
M  END
> <PUBCHEM_COMPOUND_CID>
9552

> <PUBCHEM_CONFORMER_RMSD>
0.6

> <PUBCHEM_CONFORMER_DIVERSEORDER>
1
3
5
4
2

> <PUBCHEM_MMFF94_PARTIAL_CHARGES>
24
1 -0.34
10 -0.34
11 -0.34
12 -0.34
13 -0.34
14 -0.34
15 -0.34
16 -0.34
17 0.34
18 0.68
19 0.68
2 -0.34
20 0.68
21 0.68
22 0.68
23 0.68
24 1.02
3 -0.34
4 -0.34
5 -0.34
6 -0.34
7 -0.34
8 -0.34
9 -0.34

> <PUBCHEM_EFFECTIVE_ROTOR_COUNT>
3.2

> <PUBCHEM_PHARMACOPHORE_FEATURES>
1
6 17 18 19 20 21 22 rings

> <PUBCHEM_HEAVY_ATOM_COUNT>
24

> <PUBCHEM_ATOM_DEF_STEREO_COUNT>
0

> <PUBCHEM_ATOM_UDEF_STEREO_COUNT>
0

> <PUBCHEM_BOND_DEF_STEREO_COUNT>
0

> <PUBCHEM_BOND_UDEF_STEREO_COUNT>
0

> <PUBCHEM_ISOTOPIC_ATOM_COUNT>
0

> <PUBCHEM_COMPONENT_COUNT>
1

> <PUBCHEM_CACTVS_TAUTO_COUNT>
1

> <PUBCHEM_CONFORMER_ID>
0000255000000001

> <PUBCHEM_MMFF94_ENERGY>
34.1336

> <PUBCHEM_FEATURE_SELFOVERLAP>
5.074

> <PUBCHEM_SHAPE_FINGERPRINT>
10863032 1 18265050237060649650
10948715 1 18193276287016296432
10967382 1 18411699867888980579
11132069 177 18335710420328180650
12491281 212 18336809949167519873
13140716 1 18266746770359093123
13172582 1 18408042900794395762
13299463 15 18408604760116501521
14181834 199 18343864429009576038
144361 1 18200593579558337178
14817 1 12095893813251072918
15001771 113 18044645640697128928
15775835 57 18339921506960557229
15881359 60 18053419636297098540
16945 1 18412548712345858326
20691752 17 17346322544633440419
21501502 16 18268994185174835447
2334 1 18195806267603407218
23419403 2 17327517764624796608
23559900 14 18261954154916033550
2748010 2 18050011283120782902
296302 2 18260832561795745905
528886 8 18408887304518736098
7364860 26 18334292076419952078
7832392 63 18048031058558485145

> <PUBCHEM_SHAPE_MULTIPOLES>
377.53
4.59
2.16
1.27
1.96
0.02
0.01
-0.24
0.15
-0.66
0
-0.09
0.02
-0.11

> <PUBCHEM_SHAPE_SELFOVERLAP>
854.912

> <PUBCHEM_SHAPE_VOLUME>
194

> <PUBCHEM_COORDINATE_TYPE>
2
5
10

$$$$

