17395835
  -OEChem-06241222523D

 43 43  0     0  0  0  0  0  0999 V2000
    3.5802    0.2028   -0.8964 S   0  0  0  0  0  0  0  0  0  0  0  0
   -3.6160    2.0393   -0.2272 O   0  0  0  0  0  0  0  0  0  0  0  0
   -5.0037   -0.3671   -0.3227 O   0  0  0  0  0  0  0  0  0  0  0  0
    1.0146    1.9660    0.3928 O   0  0  0  0  0  0  0  0  0  0  0  0
    0.5124   -0.3286    0.4300 N   0  0  0  0  0  0  0  0  0  0  0  0
    5.2560   -0.2393   -0.2938 C   0  0  0  0  0  0  0  0  0  0  0  0
    5.1543   -1.5145    0.5480 C   0  0  0  0  0  0  0  0  0  0  0  0
    6.1591   -0.4748   -1.5080 C   0  0  0  0  0  0  0  0  0  0  0  0
    5.7946    0.9176    0.5526 C   0  0  0  0  0  0  0  0  0  0  0  0
    2.7887    0.4049    0.7128 C   0  0  0  0  0  0  0  0  0  0  0  0
   -0.8900   -0.3508    0.2389 C   0  0  0  0  0  0  0  0  0  0  0  0
   -1.5864   -1.5584    0.1912 C   0  0  0  0  0  0  0  0  0  0  0  0
    1.3395    0.7861    0.4995 C   0  0  0  0  0  0  0  0  0  0  0  0
   -1.5756    0.8557    0.0978 C   0  0  0  0  0  0  0  0  0  0  0  0
   -2.9684   -1.5596    0.0022 C   0  0  0  0  0  0  0  0  0  0  0  0
   -2.9576    0.8546   -0.0913 C   0  0  0  0  0  0  0  0  0  0  0  0
   -3.6539   -0.3531   -0.1391 C   0  0  0  0  0  0  0  0  0  0  0  0
   -0.8779   -2.8657    0.3390 C   0  0  0  0  0  0  0  0  0  0  0  0
   -2.8305    3.2282   -0.1666 C   0  0  0  0  0  0  0  0  0  0  0  0
   -5.6395   -1.6433   -0.3595 C   0  0  0  0  0  0  0  0  0  0  0  0
    4.7010   -1.3550    1.5305 H   0  0  0  0  0  0  0  0  0  0  0  0
    4.6049   -2.3096    0.0307 H   0  0  0  0  0  0  0  0  0  0  0  0
    6.1586   -1.9077    0.7519 H   0  0  0  0  0  0  0  0  0  0  0  0
    6.2402    0.4225   -2.1330 H   0  0  0  0  0  0  0  0  0  0  0  0
    5.7891   -1.2944   -2.1354 H   0  0  0  0  0  0  0  0  0  0  0  0
    7.1747   -0.7419   -1.1932 H   0  0  0  0  0  0  0  0  0  0  0  0
    5.7212    1.8796    0.0322 H   0  0  0  0  0  0  0  0  0  0  0  0
    5.3081    1.0080    1.5281 H   0  0  0  0  0  0  0  0  0  0  0  0
    6.8584    0.7575    0.7700 H   0  0  0  0  0  0  0  0  0  0  0  0
    3.2365    1.2190    1.2879 H   0  0  0  0  0  0  0  0  0  0  0  0
    2.8198   -0.5081    1.3110 H   0  0  0  0  0  0  0  0  0  0  0  0
    0.9597   -1.2364    0.5218 H   0  0  0  0  0  0  0  0  0  0  0  0
   -1.0488    1.7897    0.1353 H   0  0  0  0  0  0  0  0  0  0  0  0
   -3.4604   -2.5258   -0.0272 H   0  0  0  0  0  0  0  0  0  0  0  0
   -0.1391   -2.9948   -0.4590 H   0  0  0  0  0  0  0  0  0  0  0  0
   -0.3794   -2.9247    1.3124 H   0  0  0  0  0  0  0  0  0  0  0  0
   -1.5673   -3.7151    0.2792 H   0  0  0  0  0  0  0  0  0  0  0  0
   -2.3593    3.3542    0.8144 H   0  0  0  0  0  0  0  0  0  0  0  0
   -2.1117    3.2828   -0.9915 H   0  0  0  0  0  0  0  0  0  0  0  0
   -3.5176    4.0716   -0.2940 H   0  0  0  0  0  0  0  0  0  0  0  0
   -5.2936   -2.2429   -1.2085 H   0  0  0  0  0  0  0  0  0  0  0  0
   -5.5399   -2.1722    0.5945 H   0  0  0  0  0  0  0  0  0  0  0  0
   -6.7091   -1.4653   -0.5127 H   0  0  0  0  0  0  0  0  0  0  0  0
  1  6  1  0  0  0  0
  1 10  1  0  0  0  0
  2 16  1  0  0  0  0
  2 19  1  0  0  0  0
  3 17  1  0  0  0  0
  3 20  1  0  0  0  0
  4 13  2  0  0  0  0
  5 11  1  0  0  0  0
  5 13  1  0  0  0  0
  5 32  1  0  0  0  0
  6  7  1  0  0  0  0
  6  8  1  0  0  0  0
  6  9  1  0  0  0  0
  7 21  1  0  0  0  0
  7 22  1  0  0  0  0
  7 23  1  0  0  0  0
  8 24  1  0  0  0  0
  8 25  1  0  0  0  0
  8 26  1  0  0  0  0
  9 27  1  0  0  0  0
  9 28  1  0  0  0  0
  9 29  1  0  0  0  0
 10 13  1  0  0  0  0
 10 30  1  0  0  0  0
 10 31  1  0  0  0  0
 11 12  1  0  0  0  0
 11 14  2  0  0  0  0
 12 15  2  0  0  0  0
 12 18  1  0  0  0  0
 14 16  1  0  0  0  0
 14 33  1  0  0  0  0
 15 17  1  0  0  0  0
 15 34  1  0  0  0  0
 16 17  2  0  0  0  0
 18 35  1  0  0  0  0
 18 36  1  0  0  0  0
 18 37  1  0  0  0  0
 19 38  1  0  0  0  0
 19 39  1  0  0  0  0
 19 40  1  0  0  0  0
 20 41  1  0  0  0  0
 20 42  1  0  0  0  0
 20 43  1  0  0  0  0
M  END
> <PUBCHEM_COMPOUND_CID>
17395835

> <PUBCHEM_CONFORMER_RMSD>
0.8

> <PUBCHEM_CONFORMER_DIVERSEORDER>
1
23
30
21
17
18
29
10
19
9
5
11
15
8
22
28
27
4
31
14
6
24
12
13
26
16
25
7
3
2
20

> <PUBCHEM_MMFF94_PARTIAL_CHARGES>
20
1 -0.46
10 0.29
11 0.12
12 -0.14
13 0.57
14 -0.15
15 -0.15
16 0.08
17 0.08
18 0.14
19 0.28
2 -0.36
20 0.28
3 -0.36
32 0.37
33 0.15
34 0.15
4 -0.57
5 -0.55
6 0.23

> <PUBCHEM_EFFECTIVE_ROTOR_COUNT>
7

> <PUBCHEM_PHARMACOPHORE_FEATURES>
6
1 2 acceptor
1 3 acceptor
1 4 acceptor
1 5 donor
4 6 7 8 9 hydrophobe
6 11 12 14 15 16 17 rings

> <PUBCHEM_HEAVY_ATOM_COUNT>
20

> <PUBCHEM_ATOM_DEF_STEREO_COUNT>
0

> <PUBCHEM_ATOM_UDEF_STEREO_COUNT>
0

> <PUBCHEM_BOND_DEF_STEREO_COUNT>
0

> <PUBCHEM_BOND_UDEF_STEREO_COUNT>
0

> <PUBCHEM_ISOTOPIC_ATOM_COUNT>
0

> <PUBCHEM_COMPONENT_COUNT>
1

> <PUBCHEM_CACTVS_TAUTO_COUNT>
2

> <PUBCHEM_CONFORMER_ID>
0109707B00000001

> <PUBCHEM_MMFF94_ENERGY>
80.8839

> <PUBCHEM_FEATURE_SELFOVERLAP>
30.45

> <PUBCHEM_SHAPE_FINGERPRINT>
10595046 47 18343299254527034268
11578080 2 17129880558718354503
12107183 9 17695074683737629218
12236239 1 17561085804094978414
12390115 104 18262511632553943633
12516196 113 17749108868630435640
12916748 109 18413108342569024496
12954195 1 18334293210470880597
13073987 5 18412268358951555344
13288520 33 18334856108731486261
13668630 136 17167854258404203590
14251757 5 18411973663965449432
14347332 77 18409173207649050455
14573314 32 18408886252536663260
14790565 3 17325760873998754617
15042514 8 18268146449352919843
15048467 5 12535357796267080671
15099037 51 18410293579627242235
15183329 4 18411981390495570294
15196674 1 18338800117080650818
17349148 13 4751153030309377520
17804303 29 18409449150454656777
17844677 252 18409444783090524024
17870717 6 18261662740577878686
19489759 90 18408882949537942606
200 152 16732699441371503842
20645477 70 17167854288785277774
20871999 31 18413103970455905696
21236236 1 18409449215269686161
21267235 1 18339358562177952427
21279426 13 18191303982473581910
22122407 14 15339113563359876677
221357 26 18335423447751334313
2215653 11 18259706683622365166
22849339 104 18268973320583148582
2297311 6 18409726244923363061
23175994 123 17385722478341073240
23366157 5 17771067386879105323
23402539 116 18335989696824896389
23557571 272 18334849537653381532
23559900 14 18263370191762315888
239999 70 18113894949996173630
3004659 81 18272089444432206626
3298306 158 18187082910011197742
335352 9 18410295796863945917
34797466 226 18040989597817383684
350125 39 18411138060956243777
4214541 1 18410856581526427032
5283173 99 18335984259449722576
559249 180 18340772662626857010
9709674 26 18119815707292695194

> <PUBCHEM_SHAPE_MULTIPOLES>
392.85
13.99
2.59
0.89
13.01
0.74
-0.17
-2.34
-2.97
-3.1
0.14
1.1
-0.06
0.24

> <PUBCHEM_SHAPE_SELFOVERLAP>
782.104

> <PUBCHEM_SHAPE_VOLUME>
237

> <PUBCHEM_COORDINATE_TYPE>
2
5
10

$$$$

