7525
  -OEChem-06261202073D

 21 21  0     0  0  0  0  0  0999 V2000
    2.1734    0.3041   -0.2148 O   0  0  0  0  0  0  0  0  0  0  0  0
   -0.5816   -0.2665    0.2167 N   0  0  0  0  0  0  0  0  0  0  0  0
   -0.1385    1.0345   -0.3036 C   0  0  0  0  0  0  0  0  0  0  0  0
    0.3682   -1.3162   -0.1776 C   0  0  0  0  0  0  0  0  0  0  0  0
    1.2735    1.3364    0.1902 C   0  0  0  0  0  0  0  0  0  0  0  0
    1.7680   -0.9589    0.3142 C   0  0  0  0  0  0  0  0  0  0  0  0
   -1.9285   -0.5822   -0.2540 C   0  0  0  0  0  0  0  0  0  0  0  0
   -2.9345    0.4489    0.2288 C   0  0  0  0  0  0  0  0  0  0  0  0
   -0.7775    1.8514    0.0450 H   0  0  0  0  0  0  0  0  0  0  0  0
   -0.1497    1.0318   -1.4013 H   0  0  0  0  0  0  0  0  0  0  0  0
    0.3825   -1.4257   -1.2699 H   0  0  0  0  0  0  0  0  0  0  0  0
    0.0745   -2.2786    0.2567 H   0  0  0  0  0  0  0  0  0  0  0  0
    1.6284    2.2759   -0.2458 H   0  0  0  0  0  0  0  0  0  0  0  0
    1.3069    1.4438    1.2813 H   0  0  0  0  0  0  0  0  0  0  0  0
    1.8172   -0.9301    1.4096 H   0  0  0  0  0  0  0  0  0  0  0  0
    2.4867   -1.7097   -0.0296 H   0  0  0  0  0  0  0  0  0  0  0  0
   -1.9720   -0.6575   -1.3479 H   0  0  0  0  0  0  0  0  0  0  0  0
   -2.2299   -1.5568    0.1496 H   0  0  0  0  0  0  0  0  0  0  0  0
   -2.8342    0.6408    1.3026 H   0  0  0  0  0  0  0  0  0  0  0  0
   -2.8525    1.3977   -0.3100 H   0  0  0  0  0  0  0  0  0  0  0  0
   -3.9509    0.0770    0.0570 H   0  0  0  0  0  0  0  0  0  0  0  0
  1  5  1  0  0  0  0
  1  6  1  0  0  0  0
  2  3  1  0  0  0  0
  2  4  1  0  0  0  0
  2  7  1  0  0  0  0
  3  5  1  0  0  0  0
  3  9  1  0  0  0  0
  3 10  1  0  0  0  0
  4  6  1  0  0  0  0
  4 11  1  0  0  0  0
  4 12  1  0  0  0  0
  5 13  1  0  0  0  0
  5 14  1  0  0  0  0
  6 15  1  0  0  0  0
  6 16  1  0  0  0  0
  7  8  1  0  0  0  0
  7 17  1  0  0  0  0
  7 18  1  0  0  0  0
  8 19  1  0  0  0  0
  8 20  1  0  0  0  0
  8 21  1  0  0  0  0
M  END
> <PUBCHEM_COMPOUND_CID>
7525

> <PUBCHEM_CONFORMER_RMSD>
0.4

> <PUBCHEM_CONFORMER_DIVERSEORDER>
1
5
3
2
4

> <PUBCHEM_MMFF94_PARTIAL_CHARGES>
7
1 -0.56
2 -0.81
3 0.27
4 0.27
5 0.28
6 0.28
7 0.27

> <PUBCHEM_EFFECTIVE_ROTOR_COUNT>
2.2

> <PUBCHEM_PHARMACOPHORE_FEATURES>
3
1 1 acceptor
1 2 cation
6 1 2 3 4 5 6 rings

> <PUBCHEM_HEAVY_ATOM_COUNT>
8

> <PUBCHEM_ATOM_DEF_STEREO_COUNT>
0

> <PUBCHEM_ATOM_UDEF_STEREO_COUNT>
0

> <PUBCHEM_BOND_DEF_STEREO_COUNT>
0

> <PUBCHEM_BOND_UDEF_STEREO_COUNT>
0

> <PUBCHEM_ISOTOPIC_ATOM_COUNT>
0

> <PUBCHEM_COMPONENT_COUNT>
1

> <PUBCHEM_CACTVS_TAUTO_COUNT>
1

> <PUBCHEM_CONFORMER_ID>
00001D6500000001

> <PUBCHEM_MMFF94_ENERGY>
7.6183

> <PUBCHEM_FEATURE_SELFOVERLAP>
15.223

> <PUBCHEM_SHAPE_FINGERPRINT>
14390081 3 18260551082772104817
18185500 45 18407763629157123847
20096714 4 18337954467762858626
21040471 1 18194683661741295316
23552333 60 18410574036849360168
23552423 10 18343301427142130527
29004967 10 18131064943921446169
5084963 1 18059862697063157423

> <PUBCHEM_SHAPE_MULTIPOLES>
153.79
3.38
1.42
0.65
1.89
0.06
0
0.18
-0.23
-0.47
0.01
0.02
0
-0.1

> <PUBCHEM_SHAPE_SELFOVERLAP>
290.671

> <PUBCHEM_SHAPE_VOLUME>
96.1

> <PUBCHEM_COORDINATE_TYPE>
2
5
10

$$$$

