8784
  -OEChem-06261203063D

 19 19  0     0  0  0  0  0  0999 V2000
    3.8088    1.0740   -0.2815 O   0  0  0  0  0  0  0  0  0  0  0  0
    3.4673   -1.1211    0.2372 O   0  0  0  0  0  0  0  0  0  0  0  0
   -0.7376   -0.2436    0.0645 C   0  0  0  0  0  0  0  0  0  0  0  0
   -1.1901    1.0701    0.1869 C   0  0  0  0  0  0  0  0  0  0  0  0
   -1.6510   -1.2816   -0.1192 C   0  0  0  0  0  0  0  0  0  0  0  0
    0.6870   -0.5309    0.1278 C   0  0  0  0  0  0  0  0  0  0  0  0
   -2.5561    1.3459    0.1258 C   0  0  0  0  0  0  0  0  0  0  0  0
   -3.0170   -1.0059   -0.1805 C   0  0  0  0  0  0  0  0  0  0  0  0
   -3.4695    0.3079   -0.0580 C   0  0  0  0  0  0  0  0  0  0  0  0
    1.6189    0.3929   -0.0868 C   0  0  0  0  0  0  0  0  0  0  0  0
    3.0395   -0.0076   -0.0161 C   0  0  0  0  0  0  0  0  0  0  0  0
   -0.5251    1.9113    0.3575 H   0  0  0  0  0  0  0  0  0  0  0  0
   -1.3170   -2.3116   -0.2179 H   0  0  0  0  0  0  0  0  0  0  0  0
    0.9591   -1.5593    0.3510 H   0  0  0  0  0  0  0  0  0  0  0  0
   -2.9098    2.3678    0.2272 H   0  0  0  0  0  0  0  0  0  0  0  0
   -3.7285   -1.8140   -0.3235 H   0  0  0  0  0  0  0  0  0  0  0  0
   -4.5332    0.5224   -0.1042 H   0  0  0  0  0  0  0  0  0  0  0  0
    1.4147    1.4252   -0.3434 H   0  0  0  0  0  0  0  0  0  0  0  0
    4.7659    0.8613   -0.2472 H   0  0  0  0  0  0  0  0  0  0  0  0
  1 11  1  0  0  0  0
  1 19  1  0  0  0  0
  2 11  2  0  0  0  0
  3  4  2  0  0  0  0
  3  5  1  0  0  0  0
  3  6  1  0  0  0  0
  4  7  1  0  0  0  0
  4 12  1  0  0  0  0
  5  8  2  0  0  0  0
  5 13  1  0  0  0  0
  6 10  2  0  0  0  0
  6 14  1  0  0  0  0
  7  9  2  0  0  0  0
  7 15  1  0  0  0  0
  8  9  1  0  0  0  0
  8 16  1  0  0  0  0
  9 17  1  0  0  0  0
 10 11  1  0  0  0  0
 10 18  1  0  0  0  0
M  END
> <PUBCHEM_COMPOUND_CID>
8784

> <PUBCHEM_CONFORMER_RMSD>
0.4

> <PUBCHEM_CONFORMER_DIVERSEORDER>
1
2

> <PUBCHEM_MMFF94_PARTIAL_CHARGES>
19
1 -0.65
10 -0.14
11 0.71
12 0.15
13 0.15
14 0.15
15 0.15
16 0.15
17 0.15
18 0.15
19 0.5
2 -0.57
3 0.03
4 -0.15
5 -0.15
6 -0.18
7 -0.15
8 -0.15
9 -0.15

> <PUBCHEM_EFFECTIVE_ROTOR_COUNT>
2

> <PUBCHEM_PHARMACOPHORE_FEATURES>
4
1 1 acceptor
1 2 acceptor
3 1 2 11 anion
6 3 4 5 7 8 9 rings

> <PUBCHEM_HEAVY_ATOM_COUNT>
11

> <PUBCHEM_ATOM_DEF_STEREO_COUNT>
0

> <PUBCHEM_ATOM_UDEF_STEREO_COUNT>
0

> <PUBCHEM_BOND_DEF_STEREO_COUNT>
0

> <PUBCHEM_BOND_UDEF_STEREO_COUNT>
1

> <PUBCHEM_ISOTOPIC_ATOM_COUNT>
0

> <PUBCHEM_COMPONENT_COUNT>
1

> <PUBCHEM_CACTVS_TAUTO_COUNT>
1

> <PUBCHEM_CONFORMER_ID>
0000225000000001

> <PUBCHEM_MMFF94_ENERGY>
28.3481

> <PUBCHEM_FEATURE_SELFOVERLAP>
20.353

> <PUBCHEM_SHAPE_FINGERPRINT>
10608611 8 18408045121461676120
11062470 55 18412545396620432966
12932764 1 17530972349748091278
13024252 1 15913326897285805417
14144814 61 18412825798034693698
14325111 11 18410855473197693008
15669948 3 18261398801678597190
15775835 57 18341609338813293304
18186145 218 17917994992427594918
190213 19 17703790314383525398
20201158 50 17967531289561665591
20279233 1 16660648466231542046
20871998 184 18114739326948864727
23402539 116 18187656816636589957
23463225 33 18340207500438107010
23559900 14 18260552242856178536
3248919 1 17385717032443652674
6333449 129 18333452045315158453

> <PUBCHEM_SHAPE_MULTIPOLES>
214.64
6.66
1.36
0.62
4.33
0.03
0
0.32
-0.28
-0.45
0.01
-0.03
0
-0.27

> <PUBCHEM_SHAPE_SELFOVERLAP>
446.375

> <PUBCHEM_SHAPE_VOLUME>
122.1

> <PUBCHEM_COORDINATE_TYPE>
2
5
10

$$$$

