17395874
  -OEChem-06241222522D

 51 53  0     1  0  0  0  0  0999 V2000
    5.2820   -2.5389    0.0000 O   0  0  0  0  0  0  0  0  0  0  0  0
    4.1942    0.8089    0.0000 O   0  0  0  0  0  0  0  0  0  0  0  0
    5.0032   -0.7789    0.0000 N   0  0  0  0  0  0  0  0  0  0  0  0
    3.3852   -0.7789    0.0000 N   0  0  0  0  0  0  0  0  0  0  0  0
    6.1622    0.5083    0.0000 N   0  0  3  0  0  0  0  0  0  0  0  0
    3.6942   -1.7299    0.0000 C   0  0  3  0  0  0  0  0  0  0  0  0
    2.7431   -2.0389    0.0000 C   0  0  0  0  0  0  0  0  0  0  0  0
    4.6942   -1.7299    0.0000 C   0  0  0  0  0  0  0  0  0  0  0  0
    3.6942   -2.7299    0.0000 C   0  0  0  0  0  0  0  0  0  0  0  0
    4.1942   -0.1911    0.0000 C   0  0  0  0  0  0  0  0  0  0  0  0
    5.9543   -0.4698    0.0000 C   0  0  0  0  0  0  0  0  0  0  0  0
    2.0000   -1.3698    0.0000 C   0  0  0  0  0  0  0  0  0  0  0  0
    2.8282   -3.2299    0.0000 C   0  0  0  0  0  0  0  0  0  0  0  0
    4.5602   -3.2299    0.0000 C   0  0  0  0  0  0  0  0  0  0  0  0
    7.1132    0.8173    0.0000 C   0  0  0  0  0  0  0  0  0  0  0  0
    5.4190    1.1774    0.0000 C   0  0  0  0  0  0  0  0  0  0  0  0
    2.8282   -4.2299    0.0000 C   0  0  0  0  0  0  0  0  0  0  0  0
    4.5602   -4.2299    0.0000 C   0  0  0  0  0  0  0  0  0  0  0  0
    7.3212    1.7955    0.0000 C   0  0  0  0  0  0  0  0  0  0  0  0
    3.6942   -4.7299    0.0000 C   0  0  0  0  0  0  0  0  0  0  0  0
    8.2722    2.1045    0.0000 C   0  0  0  0  0  0  0  0  0  0  0  0
    6.5780    2.4646    0.0000 C   0  0  0  0  0  0  0  0  0  0  0  0
    8.4801    3.0826    0.0000 C   0  0  0  0  0  0  0  0  0  0  0  0
    6.7859    3.4428    0.0000 C   0  0  0  0  0  0  0  0  0  0  0  0
    7.7370    3.7518    0.0000 C   0  0  0  0  0  0  0  0  0  0  0  0
    7.9449    4.7299    0.0000 C   0  0  0  0  0  0  0  0  0  0  0  0
    2.2546   -2.4206    0.0000 H   0  0  0  0  0  0  0  0  0  0  0  0
    3.0342   -2.5864    0.0000 H   0  0  0  0  0  0  0  0  0  0  0  0
    2.7955   -0.5873    0.0000 H   0  0  0  0  0  0  0  0  0  0  0  0
    6.0406   -1.0838    0.0000 H   0  0  0  0  0  0  0  0  0  0  0  0
    6.5739   -0.4915    0.0000 H   0  0  0  0  0  0  0  0  0  0  0  0
    2.4149   -0.9091    0.0000 H   0  0  0  0  0  0  0  0  0  0  0  0
    1.5392   -0.9549    0.0000 H   0  0  0  0  0  0  0  0  0  0  0  0
    1.5851   -1.8306    0.0000 H   0  0  0  0  0  0  0  0  0  0  0  0
    2.2912   -2.9199    0.0000 H   0  0  0  0  0  0  0  0  0  0  0  0
    5.0972   -2.9199    0.0000 H   0  0  0  0  0  0  0  0  0  0  0  0
    7.1995    0.2034    0.0000 H   0  0  0  0  0  0  0  0  0  0  0  0
    7.7329    0.7957    0.0000 H   0  0  0  0  0  0  0  0  0  0  0  0
    5.8339    1.6382    0.0000 H   0  0  0  0  0  0  0  0  0  0  0  0
    4.9583    1.5923    0.0000 H   0  0  0  0  0  0  0  0  0  0  0  0
    5.0042    0.7167    0.0000 H   0  0  0  0  0  0  0  0  0  0  0  0
    2.2912   -4.5399    0.0000 H   0  0  0  0  0  0  0  0  0  0  0  0
    5.0972   -4.5399    0.0000 H   0  0  0  0  0  0  0  0  0  0  0  0
    3.6942   -5.3499    0.0000 H   0  0  0  0  0  0  0  0  0  0  0  0
    8.7330    1.6896    0.0000 H   0  0  0  0  0  0  0  0  0  0  0  0
    5.9884    2.2730    0.0000 H   0  0  0  0  0  0  0  0  0  0  0  0
    9.0698    3.2742    0.0000 H   0  0  0  0  0  0  0  0  0  0  0  0
    6.3252    3.8576    0.0000 H   0  0  0  0  0  0  0  0  0  0  0  0
    8.5513    4.6010    0.0000 H   0  0  0  0  0  0  0  0  0  0  0  0
    8.0738    5.3364    0.0000 H   0  0  0  0  0  0  0  0  0  0  0  0
    7.3384    4.8588    0.0000 H   0  0  0  0  0  0  0  0  0  0  0  0
  1  8  2  0  0  0  0
  2 10  2  0  0  0  0
  3  8  1  0  0  0  0
  3 10  1  0  0  0  0
  3 11  1  0  0  0  0
  4  6  1  0  0  0  0
  4 10  1  0  0  0  0
  4 29  1  0  0  0  0
  5 11  1  0  0  0  0
  5 15  1  0  0  0  0
  5 16  1  0  0  0  0
  6  7  1  0  0  0  0
  6  8  1  0  0  0  0
  6  9  1  0  0  0  0
  7 12  1  0  0  0  0
  7 27  1  0  0  0  0
  7 28  1  0  0  0  0
  9 13  2  0  0  0  0
  9 14  1  0  0  0  0
 11 30  1  0  0  0  0
 11 31  1  0  0  0  0
 12 32  1  0  0  0  0
 12 33  1  0  0  0  0
 12 34  1  0  0  0  0
 13 17  1  0  0  0  0
 13 35  1  0  0  0  0
 14 18  2  0  0  0  0
 14 36  1  0  0  0  0
 15 19  1  0  0  0  0
 15 37  1  0  0  0  0
 15 38  1  0  0  0  0
 16 39  1  0  0  0  0
 16 40  1  0  0  0  0
 16 41  1  0  0  0  0
 17 20  2  0  0  0  0
 17 42  1  0  0  0  0
 18 20  1  0  0  0  0
 18 43  1  0  0  0  0
 19 21  2  0  0  0  0
 19 22  1  0  0  0  0
 20 44  1  0  0  0  0
 21 23  1  0  0  0  0
 21 45  1  0  0  0  0
 22 24  2  0  0  0  0
 22 46  1  0  0  0  0
 23 25  2  0  0  0  0
 23 47  1  0  0  0  0
 24 25  1  0  0  0  0
 24 48  1  0  0  0  0
 25 26  1  0  0  0  0
 26 49  1  0  0  0  0
 26 50  1  0  0  0  0
 26 51  1  0  0  0  0
M  END
> <PUBCHEM_COMPOUND_CID>
17395874

> <PUBCHEM_COMPOUND_CANONICALIZED>
1

> <PUBCHEM_CACTVS_COMPLEXITY>
509

> <PUBCHEM_CACTVS_HBOND_ACCEPTOR>
3

> <PUBCHEM_CACTVS_HBOND_DONOR>
1

> <PUBCHEM_CACTVS_ROTATABLE_BOND>
6

> <PUBCHEM_CACTVS_SUBSKEYS>
AAADceB7MAAAAAAAAAAAAAAAAAAAAWAAAAAwYAAAAAAAAAABQAAAHgAQAAAADIjBmAQzAIPAAACIAiFSEACCAAAgAAAIiAGIBIiIYDKAlTGUIAholyIIiAcYiMCOwAAAAAAAAACAAAAAAAAAAAAAAAAAAA==

> <PUBCHEM_IUPAC_OPENEYE_NAME>
5-ethyl-3-[[methyl(p-tolylmethyl)amino]methyl]-5-phenyl-imidazolidine-2,4-dione

> <PUBCHEM_IUPAC_CAS_NAME>
5-ethyl-3-[[methyl-[(4-methylphenyl)methyl]amino]methyl]-5-phenylimidazolidine-2,4-dione

> <PUBCHEM_IUPAC_NAME>
5-ethyl-3-[[methyl-[(4-methylphenyl)methyl]amino]methyl]-5-phenylimidazolidine-2,4-dione

> <PUBCHEM_IUPAC_SYSTEMATIC_NAME>
5-ethyl-3-[[methyl-[(4-methylphenyl)methyl]amino]methyl]-5-phenyl-imidazolidine-2,4-dione

> <PUBCHEM_IUPAC_TRADITIONAL_NAME>
5-ethyl-3-[[methyl-(4-methylbenzyl)amino]methyl]-5-phenyl-hydantoin

> <PUBCHEM_IUPAC_INCHI>
InChI=1S/C21H25N3O2/c1-4-21(18-8-6-5-7-9-18)19(25)24(20(26)22-21)15-23(3)14-17-12-10-16(2)11-13-17/h5-13H,4,14-15H2,1-3H3,(H,22,26)

> <PUBCHEM_IUPAC_INCHIKEY>
CQRUESFWSGDHSU-UHFFFAOYSA-N

> <PUBCHEM_XLOGP3_AA>
3.5

> <PUBCHEM_EXACT_MASS>
351.194677

> <PUBCHEM_MOLECULAR_FORMULA>
C21H25N3O2

> <PUBCHEM_MOLECULAR_WEIGHT>
351.4421

> <PUBCHEM_OPENEYE_CAN_SMILES>
CCC1(C(=O)N(C(=O)N1)CN(C)CC2=CC=C(C=C2)C)C3=CC=CC=C3

> <PUBCHEM_OPENEYE_ISO_SMILES>
CCC1(C(=O)N(C(=O)N1)CN(C)CC2=CC=C(C=C2)C)C3=CC=CC=C3

> <PUBCHEM_CACTVS_TPSA>
52.6

> <PUBCHEM_MONOISOTOPIC_WEIGHT>
351.194677

> <PUBCHEM_TOTAL_CHARGE>
0

> <PUBCHEM_HEAVY_ATOM_COUNT>
26

> <PUBCHEM_ATOM_DEF_STEREO_COUNT>
0

> <PUBCHEM_ATOM_UDEF_STEREO_COUNT>
1

> <PUBCHEM_BOND_DEF_STEREO_COUNT>
0

> <PUBCHEM_BOND_UDEF_STEREO_COUNT>
0

> <PUBCHEM_ISOTOPIC_ATOM_COUNT>
0

> <PUBCHEM_COMPONENT_COUNT>
1

> <PUBCHEM_CACTVS_TAUTO_COUNT>
2

> <PUBCHEM_COORDINATE_TYPE>
1
5
255

> <PUBCHEM_BONDANNOTATIONS>
13  17  8
14  18  8
17  20  8
18  20  8
19  21  8
19  22  8
21  23  8
22  24  8
23  25  8
24  25  8
6  7  3
9  13  8
9  14  8

$$$$

