582858
  -OEChem-06241222442D

 51 50  0     1  0  0  0  0  0999 V2000
    2.8660   -0.2500    0.0000 Si  0  0  0  0  0  0  0  0  0  0  0  0
    3.7320    0.2500    0.0000 O   0  0  0  0  0  0  0  0  0  0  0  0
    7.1962    0.2500    0.0000 C   0  0  3  0  0  0  0  0  0  0  0  0
    6.3301   -0.2500    0.0000 C   0  0  0  0  0  0  0  0  0  0  0  0
    5.4641    0.2500    0.0000 C   0  0  0  0  0  0  0  0  0  0  0  0
    4.5981   -0.2500    0.0000 C   0  0  3  0  0  0  0  0  0  0  0  0
    8.0622   -0.2500    0.0000 C   0  0  0  0  0  0  0  0  0  0  0  0
    7.1962    1.2500    0.0000 C   0  0  0  0  0  0  0  0  0  0  0  0
    8.9282    0.2500    0.0000 C   0  0  0  0  0  0  0  0  0  0  0  0
    4.5981   -1.2500    0.0000 C   0  0  0  0  0  0  0  0  0  0  0  0
    8.0622    1.7500    0.0000 C   0  0  0  0  0  0  0  0  0  0  0  0
    9.7942   -0.2500    0.0000 C   0  0  0  0  0  0  0  0  0  0  0  0
    5.4641   -1.7500    0.0000 C   0  0  0  0  0  0  0  0  0  0  0  0
    2.0000   -0.7500    0.0000 C   0  0  0  0  0  0  0  0  0  0  0  0
    2.3660    0.6160    0.0000 C   0  0  0  0  0  0  0  0  0  0  0  0
    3.3660   -1.1160    0.0000 C   0  0  0  0  0  0  0  0  0  0  0  0
   10.6603    0.2500    0.0000 C   0  0  0  0  0  0  0  0  0  0  0  0
    6.6592    0.5600    0.0000 H   0  0  0  0  0  0  0  0  0  0  0  0
    5.9316   -0.7249    0.0000 H   0  0  0  0  0  0  0  0  0  0  0  0
    6.7287   -0.7249    0.0000 H   0  0  0  0  0  0  0  0  0  0  0  0
    5.8626    0.7249    0.0000 H   0  0  0  0  0  0  0  0  0  0  0  0
    5.0656    0.7249    0.0000 H   0  0  0  0  0  0  0  0  0  0  0  0
    4.5981    0.3700    0.0000 H   0  0  0  0  0  0  0  0  0  0  0  0
    7.6636   -0.7249    0.0000 H   0  0  0  0  0  0  0  0  0  0  0  0
    8.4607   -0.7249    0.0000 H   0  0  0  0  0  0  0  0  0  0  0  0
    6.9841    1.8326    0.0000 H   0  0  0  0  0  0  0  0  0  0  0  0
    6.5856    1.1423    0.0000 H   0  0  0  0  0  0  0  0  0  0  0  0
    9.3267    0.7249    0.0000 H   0  0  0  0  0  0  0  0  0  0  0  0
    8.5297    0.7249    0.0000 H   0  0  0  0  0  0  0  0  0  0  0  0
    3.9875   -1.1423    0.0000 H   0  0  0  0  0  0  0  0  0  0  0  0
    4.3860   -1.8326    0.0000 H   0  0  0  0  0  0  0  0  0  0  0  0
    8.3722    1.2131    0.0000 H   0  0  0  0  0  0  0  0  0  0  0  0
    8.5991    2.0600    0.0000 H   0  0  0  0  0  0  0  0  0  0  0  0
    7.7522    2.2869    0.0000 H   0  0  0  0  0  0  0  0  0  0  0  0
    9.3957   -0.7249    0.0000 H   0  0  0  0  0  0  0  0  0  0  0  0
   10.1928   -0.7249    0.0000 H   0  0  0  0  0  0  0  0  0  0  0  0
    5.1541   -2.2869    0.0000 H   0  0  0  0  0  0  0  0  0  0  0  0
    6.0010   -2.0600    0.0000 H   0  0  0  0  0  0  0  0  0  0  0  0
    5.7741   -1.2131    0.0000 H   0  0  0  0  0  0  0  0  0  0  0  0
    1.6900   -0.2131    0.0000 H   0  0  0  0  0  0  0  0  0  0  0  0
    1.4631   -1.0600    0.0000 H   0  0  0  0  0  0  0  0  0  0  0  0
    2.3100   -1.2869    0.0000 H   0  0  0  0  0  0  0  0  0  0  0  0
    2.9030    0.9260    0.0000 H   0  0  0  0  0  0  0  0  0  0  0  0
    2.0560    1.1530    0.0000 H   0  0  0  0  0  0  0  0  0  0  0  0
    1.8291    0.3060    0.0000 H   0  0  0  0  0  0  0  0  0  0  0  0
    2.8291   -1.4260    0.0000 H   0  0  0  0  0  0  0  0  0  0  0  0
    3.6760   -1.6530    0.0000 H   0  0  0  0  0  0  0  0  0  0  0  0
    3.9030   -0.8060    0.0000 H   0  0  0  0  0  0  0  0  0  0  0  0
   10.9703   -0.2869    0.0000 H   0  0  0  0  0  0  0  0  0  0  0  0
   11.1972    0.5600    0.0000 H   0  0  0  0  0  0  0  0  0  0  0  0
   10.3503    0.7869    0.0000 H   0  0  0  0  0  0  0  0  0  0  0  0
  1  2  1  0  0  0  0
  1 14  1  0  0  0  0
  1 15  1  0  0  0  0
  1 16  1  0  0  0  0
  2  6  1  0  0  0  0
  3  4  1  0  0  0  0
  3  7  1  0  0  0  0
  3  8  1  0  0  0  0
  3 18  1  0  0  0  0
  4  5  1  0  0  0  0
  4 19  1  0  0  0  0
  4 20  1  0  0  0  0
  5  6  1  0  0  0  0
  5 21  1  0  0  0  0
  5 22  1  0  0  0  0
  6 10  1  0  0  0  0
  6 23  1  0  0  0  0
  7  9  1  0  0  0  0
  7 24  1  0  0  0  0
  7 25  1  0  0  0  0
  8 11  1  0  0  0  0
  8 26  1  0  0  0  0
  8 27  1  0  0  0  0
  9 12  1  0  0  0  0
  9 28  1  0  0  0  0
  9 29  1  0  0  0  0
 10 13  1  0  0  0  0
 10 30  1  0  0  0  0
 10 31  1  0  0  0  0
 11 32  1  0  0  0  0
 11 33  1  0  0  0  0
 11 34  1  0  0  0  0
 12 17  1  0  0  0  0
 12 35  1  0  0  0  0
 12 36  1  0  0  0  0
 13 37  1  0  0  0  0
 13 38  1  0  0  0  0
 13 39  1  0  0  0  0
 14 40  1  0  0  0  0
 14 41  1  0  0  0  0
 14 42  1  0  0  0  0
 15 43  1  0  0  0  0
 15 44  1  0  0  0  0
 15 45  1  0  0  0  0
 16 46  1  0  0  0  0
 16 47  1  0  0  0  0
 16 48  1  0  0  0  0
 17 49  1  0  0  0  0
 17 50  1  0  0  0  0
 17 51  1  0  0  0  0
M  END
> <PUBCHEM_COMPOUND_CID>
582858

> <PUBCHEM_COMPOUND_CANONICALIZED>
1

> <PUBCHEM_CACTVS_COMPLEXITY>
174

> <PUBCHEM_CACTVS_HBOND_ACCEPTOR>
1

> <PUBCHEM_CACTVS_HBOND_DONOR>
0

> <PUBCHEM_CACTVS_ROTATABLE_BOND>
10

> <PUBCHEM_CACTVS_SUBSKEYS>
AAADcfBwIAgAAAAAAAAAAAAAAAAAAAAAAAAAAAAAAAAAAAAAAAAAGhAAAEAADRSggAJCAAAAAAEAAAAAAAAAAAAAAAAAAAAAAAAAAAIAAAAAAAAEAAAAAAGAwOAOAAAAAAAAAAAAAAAAAAAAAAAAAAAAAA==

> <PUBCHEM_IUPAC_OPENEYE_NAME>
1,4-diethyloctoxy(trimethyl)silane

> <PUBCHEM_IUPAC_CAS_NAME>
6-ethyldecan-3-yloxy(trimethyl)silane

> <PUBCHEM_IUPAC_NAME>
6-ethyldecan-3-yloxy(trimethyl)silane

> <PUBCHEM_IUPAC_SYSTEMATIC_NAME>
6-ethyldecan-3-yloxy(trimethyl)silane

> <PUBCHEM_IUPAC_TRADITIONAL_NAME>
1,4-diethyloctoxy(trimethyl)silane

> <PUBCHEM_IUPAC_INCHI>
InChI=1S/C15H34OSi/c1-7-10-11-14(8-2)12-13-15(9-3)16-17(4,5)6/h14-15H,7-13H2,1-6H3

> <PUBCHEM_IUPAC_INCHIKEY>
UPRFVWKDYGUSGA-UHFFFAOYSA-N

> <PUBCHEM_EXACT_MASS>
258.237892

> <PUBCHEM_MOLECULAR_FORMULA>
C15H34OSi

> <PUBCHEM_MOLECULAR_WEIGHT>
258.51536

> <PUBCHEM_OPENEYE_CAN_SMILES>
CCCCC(CC)CCC(CC)O[Si](C)(C)C

> <PUBCHEM_OPENEYE_ISO_SMILES>
CCCCC(CC)CCC(CC)O[Si](C)(C)C

> <PUBCHEM_CACTVS_TPSA>
9.2

> <PUBCHEM_MONOISOTOPIC_WEIGHT>
258.237892

> <PUBCHEM_TOTAL_CHARGE>
0

> <PUBCHEM_HEAVY_ATOM_COUNT>
17

> <PUBCHEM_ATOM_DEF_STEREO_COUNT>
0

> <PUBCHEM_ATOM_UDEF_STEREO_COUNT>
2

> <PUBCHEM_BOND_DEF_STEREO_COUNT>
0

> <PUBCHEM_BOND_UDEF_STEREO_COUNT>
0

> <PUBCHEM_ISOTOPIC_ATOM_COUNT>
0

> <PUBCHEM_COMPONENT_COUNT>
1

> <PUBCHEM_CACTVS_TAUTO_COUNT>
1

> <PUBCHEM_COORDINATE_TYPE>
1
5
255

> <PUBCHEM_BONDANNOTATIONS>
3  4  3
6  5  3

$$$$

