11050
  -OEChem-06261205162D

 22 24  0     0  0  0  0  0  0999 V2000
    2.0069    1.7846    0.0000 O   0  0  0  0  0  0  0  0  0  0  0  0
    3.7389   -0.2154    0.0000 C   0  0  0  0  0  0  0  0  0  0  0  0
    2.8729    0.2846    0.0000 C   0  0  0  0  0  0  0  0  0  0  0  0
    3.7229   -1.2569    0.0000 C   0  0  0  0  0  0  0  0  0  0  0  0
    4.6050    0.2846    0.0000 C   0  0  0  0  0  0  0  0  0  0  0  0
    2.0134   -0.2101    0.0000 C   0  0  0  0  0  0  0  0  0  0  0  0
    2.8457   -1.7196    0.0000 C   0  0  0  0  0  0  0  0  0  0  0  0
    2.8729    1.2846    0.0000 C   0  0  0  0  0  0  0  0  0  0  0  0
    4.6209   -1.7846    0.0000 C   0  0  0  0  0  0  0  0  0  0  0  0
    4.6050    1.2846    0.0000 C   0  0  0  0  0  0  0  0  0  0  0  0
    5.5150   -0.2222    0.0000 C   0  0  0  0  0  0  0  0  0  0  0  0
    2.0000   -1.2018    0.0000 C   0  0  0  0  0  0  0  0  0  0  0  0
    3.7389    1.7846    0.0000 C   0  0  0  0  0  0  0  0  0  0  0  0
    5.5230   -1.2638    0.0000 C   0  0  0  0  0  0  0  0  0  0  0  0
    1.4788    0.1038    0.0000 H   0  0  0  0  0  0  0  0  0  0  0  0
    2.8259   -2.3393    0.0000 H   0  0  0  0  0  0  0  0  0  0  0  0
    4.6185   -2.4046    0.0000 H   0  0  0  0  0  0  0  0  0  0  0  0
    5.1419    1.5946    0.0000 H   0  0  0  0  0  0  0  0  0  0  0  0
    6.0483    0.0940    0.0000 H   0  0  0  0  0  0  0  0  0  0  0  0
    1.4571   -1.5011    0.0000 H   0  0  0  0  0  0  0  0  0  0  0  0
    3.7389    2.4046    0.0000 H   0  0  0  0  0  0  0  0  0  0  0  0
    6.0611   -1.5717    0.0000 H   0  0  0  0  0  0  0  0  0  0  0  0
  1  8  2  0  0  0  0
  2  3  1  0  0  0  0
  2  4  2  0  0  0  0
  2  5  1  0  0  0  0
  3  6  2  0  0  0  0
  3  8  1  0  0  0  0
  4  7  1  0  0  0  0
  4  9  1  0  0  0  0
  5 10  1  0  0  0  0
  5 11  2  0  0  0  0
  6 12  1  0  0  0  0
  6 15  1  0  0  0  0
  7 12  2  0  0  0  0
  7 16  1  0  0  0  0
  8 13  1  0  0  0  0
  9 14  2  0  0  0  0
  9 17  1  0  0  0  0
 10 13  2  0  0  0  0
 10 18  1  0  0  0  0
 11 14  1  0  0  0  0
 11 19  1  0  0  0  0
 12 20  1  0  0  0  0
 13 21  1  0  0  0  0
 14 22  1  0  0  0  0
M  END
> <PUBCHEM_COMPOUND_CID>
11050

> <PUBCHEM_COMPOUND_CANONICALIZED>
1

> <PUBCHEM_CACTVS_COMPLEXITY>
279

> <PUBCHEM_CACTVS_HBOND_ACCEPTOR>
1

> <PUBCHEM_CACTVS_HBOND_DONOR>
0

> <PUBCHEM_CACTVS_ROTATABLE_BOND>
0

> <PUBCHEM_CACTVS_SUBSKEYS>
AAADccBwIAAAAAAAAAAAAAAAAAAAAAAAAAAwYIAAAAAAAADBUAAAGgAAAAAADASAmAAwAMAAAACIAqBSAAACAAAkAAAIiAEAAMgIIDKAFRCAIQAggAAIiYcIiMCOgAACAAAQAAAAAAQAACAAAAAAAAAAAA==

> <PUBCHEM_IUPAC_OPENEYE_NAME>
phenalen-1-one

> <PUBCHEM_IUPAC_CAS_NAME>
1-phenalenone

> <PUBCHEM_IUPAC_NAME>
phenalen-1-one

> <PUBCHEM_IUPAC_SYSTEMATIC_NAME>
phenalen-1-one

> <PUBCHEM_IUPAC_TRADITIONAL_NAME>
phenalen-1-one

> <PUBCHEM_IUPAC_INCHI>
InChI=1S/C13H8O/c14-12-8-7-10-4-1-3-9-5-2-6-11(12)13(9)10/h1-8H

> <PUBCHEM_IUPAC_INCHIKEY>
WWBGWPHHLRSTFI-UHFFFAOYSA-N

> <PUBCHEM_XLOGP3_AA>
3.2

> <PUBCHEM_EXACT_MASS>
180.057515

> <PUBCHEM_MOLECULAR_FORMULA>
C13H8O

> <PUBCHEM_MOLECULAR_WEIGHT>
180.20202

> <PUBCHEM_OPENEYE_CAN_SMILES>
C1=CC2=C3C(=C1)C=CC(=O)C3=CC=C2

> <PUBCHEM_OPENEYE_ISO_SMILES>
C1=CC2=C3C(=C1)C=CC(=O)C3=CC=C2

> <PUBCHEM_CACTVS_TPSA>
17.1

> <PUBCHEM_MONOISOTOPIC_WEIGHT>
180.057515

> <PUBCHEM_TOTAL_CHARGE>
0

> <PUBCHEM_HEAVY_ATOM_COUNT>
14

> <PUBCHEM_ATOM_DEF_STEREO_COUNT>
0

> <PUBCHEM_ATOM_UDEF_STEREO_COUNT>
0

> <PUBCHEM_BOND_DEF_STEREO_COUNT>
0

> <PUBCHEM_BOND_UDEF_STEREO_COUNT>
0

> <PUBCHEM_ISOTOPIC_ATOM_COUNT>
0

> <PUBCHEM_COMPONENT_COUNT>
1

> <PUBCHEM_CACTVS_TAUTO_COUNT>
1

> <PUBCHEM_COORDINATE_TYPE>
1
5
255

> <PUBCHEM_BONDANNOTATIONS>
11  14  8
2  3  8
2  4  8
2  5  8
3  6  8
4  7  8
4  9  8
5  11  8
6  12  8
7  12  8
9  14  8

$$$$

