17395744
  -OEChem-06241222522D

 41 43  0     0  0  0  0  0  0999 V2000
   10.2114   -3.8727    0.0000 Cl  0  0  0  0  0  0  0  0  0  0  0  0
    5.8338    1.7206    0.0000 S   0  0  0  0  0  0  0  0  0  0  0  0
    4.1701    2.3592    0.0000 S   0  0  0  0  0  0  0  0  0  0  0  0
   10.2114    3.1273    0.0000 O   0  0  0  0  0  0  0  0  0  0  0  0
    8.4793    3.1273    0.0000 O   0  0  0  0  0  0  0  0  0  0  0  0
   10.2114    0.1273    0.0000 N   0  0  0  0  0  0  0  0  0  0  0  0
    9.3454    0.6273    0.0000 N   0  0  0  0  0  0  0  0  0  0  0  0
    7.6133    1.6273    0.0000 N   0  0  0  0  0  0  0  0  0  0  0  0
    6.6428    3.1218    0.0000 N   0  0  0  0  0  0  0  0  0  0  0  0
    5.6646    3.3297    0.0000 N   0  0  0  0  0  0  0  0  0  0  0  0
   11.0774    0.6273    0.0000 C   0  0  0  0  0  0  0  0  0  0  0  0
   10.2114   -0.8727    0.0000 C   0  0  0  0  0  0  0  0  0  0  0  0
   11.0774    1.6273    0.0000 C   0  0  0  0  0  0  0  0  0  0  0  0
    9.3454    1.6273    0.0000 C   0  0  0  0  0  0  0  0  0  0  0  0
   10.2114    2.1273    0.0000 C   0  0  0  0  0  0  0  0  0  0  0  0
   11.9434    0.1273    0.0000 C   0  0  0  0  0  0  0  0  0  0  0  0
    9.3454   -1.3727    0.0000 C   0  0  0  0  0  0  0  0  0  0  0  0
   11.0774   -1.3727    0.0000 C   0  0  0  0  0  0  0  0  0  0  0  0
    8.4793    2.1273    0.0000 C   0  0  0  0  0  0  0  0  0  0  0  0
    9.3454   -2.3727    0.0000 C   0  0  0  0  0  0  0  0  0  0  0  0
   11.0774   -2.3727    0.0000 C   0  0  0  0  0  0  0  0  0  0  0  0
   10.2114   -2.8727    0.0000 C   0  0  0  0  0  0  0  0  0  0  0  0
    6.7473    2.1273    0.0000 C   0  0  0  0  0  0  0  0  0  0  0  0
    5.1646    2.4637    0.0000 C   0  0  0  0  0  0  0  0  0  0  0  0
    3.5823    3.1682    0.0000 C   0  0  0  0  0  0  0  0  0  0  0  0
    2.5878    3.0637    0.0000 C   0  0  0  0  0  0  0  0  0  0  0  0
    2.0000    3.8727    0.0000 C   0  0  0  0  0  0  0  0  0  0  0  0
   11.6144    1.9373    0.0000 H   0  0  0  0  0  0  0  0  0  0  0  0
   11.6334   -0.4096    0.0000 H   0  0  0  0  0  0  0  0  0  0  0  0
   12.4804   -0.1827    0.0000 H   0  0  0  0  0  0  0  0  0  0  0  0
   12.2534    0.6642    0.0000 H   0  0  0  0  0  0  0  0  0  0  0  0
    8.8084   -1.0627    0.0000 H   0  0  0  0  0  0  0  0  0  0  0  0
   11.6144   -1.0627    0.0000 H   0  0  0  0  0  0  0  0  0  0  0  0
    8.8084   -2.6827    0.0000 H   0  0  0  0  0  0  0  0  0  0  0  0
   11.6144   -2.6827    0.0000 H   0  0  0  0  0  0  0  0  0  0  0  0
    7.6133    1.0073    0.0000 H   0  0  0  0  0  0  0  0  0  0  0  0
    4.1396    3.4400    0.0000 H   0  0  0  0  0  0  0  0  0  0  0  0
    3.4114    3.7642    0.0000 H   0  0  0  0  0  0  0  0  0  0  0  0
    2.3356    2.4973    0.0000 H   0  0  0  0  0  0  0  0  0  0  0  0
    2.2522    4.4391    0.0000 H   0  0  0  0  0  0  0  0  0  0  0  0
    1.3834    3.8079    0.0000 H   0  0  0  0  0  0  0  0  0  0  0  0
  1 22  1  0  0  0  0
  2 23  1  0  0  0  0
  2 24  1  0  0  0  0
  3 24  1  0  0  0  0
  3 25  1  0  0  0  0
  4 15  2  0  0  0  0
  5 19  2  0  0  0  0
  6  7  1  0  0  0  0
  6 11  1  0  0  0  0
  6 12  1  0  0  0  0
  7 14  2  0  0  0  0
  8 19  1  0  0  0  0
  8 23  1  0  0  0  0
  8 36  1  0  0  0  0
  9 10  1  0  0  0  0
  9 23  2  0  0  0  0
 10 24  2  0  0  0  0
 11 13  2  0  0  0  0
 11 16  1  0  0  0  0
 12 17  2  0  0  0  0
 12 18  1  0  0  0  0
 13 15  1  0  0  0  0
 13 28  1  0  0  0  0
 14 15  1  0  0  0  0
 14 19  1  0  0  0  0
 16 29  1  0  0  0  0
 16 30  1  0  0  0  0
 16 31  1  0  0  0  0
 17 20  1  0  0  0  0
 17 32  1  0  0  0  0
 18 21  2  0  0  0  0
 18 33  1  0  0  0  0
 20 22  2  0  0  0  0
 20 34  1  0  0  0  0
 21 22  1  0  0  0  0
 21 35  1  0  0  0  0
 25 26  1  0  0  0  0
 25 37  1  0  0  0  0
 25 38  1  0  0  0  0
 26 27  2  0  0  0  0
 26 39  1  0  0  0  0
 27 40  1  0  0  0  0
 27 41  1  0  0  0  0
M  END
> <PUBCHEM_COMPOUND_CID>
17395744

> <PUBCHEM_COMPOUND_CANONICALIZED>
1

> <PUBCHEM_CACTVS_COMPLEXITY>
664

> <PUBCHEM_CACTVS_HBOND_ACCEPTOR>
8

> <PUBCHEM_CACTVS_HBOND_DONOR>
1

> <PUBCHEM_CACTVS_ROTATABLE_BOND>
6

> <PUBCHEM_CACTVS_SUBSKEYS>
AAADccB7sABkAAAAAAAAAAAAAAAAAWAAAAAwQAAAAAAAAAABwAAAHgYYAAAACA6F0CCz0ILAAAiuAaVycACSBQJhBxkdiAEgZsiIIDrJm5GEIAhwiQLIyUcQAAAAAABAAAAAAAAAAIAAAAAAAAAAAAAAAA==

> <PUBCHEM_IUPAC_OPENEYE_NAME>
N-(5-allylsulfanyl-1,3,4-thiadiazol-2-yl)-1-(4-chlorophenyl)-6-methyl-4-oxo-pyridazine-3-carboxamide

> <PUBCHEM_IUPAC_CAS_NAME>
1-(4-chlorophenyl)-6-methyl-4-oxo-N-[5-(prop-2-enylthio)-1,3,4-thiadiazol-2-yl]-3-pyridazinecarboxamide

> <PUBCHEM_IUPAC_NAME>
1-(4-chlorophenyl)-6-methyl-4-oxo-N-(5-prop-2-enylsulfanyl-1,3,4-thiadiazol-2-yl)pyridazine-3-carboxamide

> <PUBCHEM_IUPAC_SYSTEMATIC_NAME>
1-(4-chlorophenyl)-6-methyl-4-oxidanylidene-N-(5-prop-2-enylsulfanyl-1,3,4-thiadiazol-2-yl)pyridazine-3-carboxamide

> <PUBCHEM_IUPAC_TRADITIONAL_NAME>
N-[5-(allylthio)-1,3,4-thiadiazol-2-yl]-1-(4-chlorophenyl)-4-keto-6-methyl-pyridazine-3-carboxamide

> <PUBCHEM_IUPAC_INCHI>
InChI=1S/C17H14ClN5O2S2/c1-3-8-26-17-21-20-16(27-17)19-15(25)14-13(24)9-10(2)23(22-14)12-6-4-11(18)5-7-12/h3-7,9H,1,8H2,2H3,(H,19,20,25)

> <PUBCHEM_IUPAC_INCHIKEY>
DAVIEIJRIWUJJO-UHFFFAOYSA-N

> <PUBCHEM_XLOGP3_AA>
4.1

> <PUBCHEM_EXACT_MASS>
419.027744

> <PUBCHEM_MOLECULAR_FORMULA>
C17H14ClN5O2S2

> <PUBCHEM_MOLECULAR_WEIGHT>
419.90836

> <PUBCHEM_OPENEYE_CAN_SMILES>
CC1=CC(=O)C(=NN1C2=CC=C(C=C2)Cl)C(=O)NC3=NN=C(S3)SCC=C

> <PUBCHEM_OPENEYE_ISO_SMILES>
CC1=CC(=O)C(=NN1C2=CC=C(C=C2)Cl)C(=O)NC3=NN=C(S3)SCC=C

> <PUBCHEM_CACTVS_TPSA>
141

> <PUBCHEM_MONOISOTOPIC_WEIGHT>
419.027744

> <PUBCHEM_TOTAL_CHARGE>
0

> <PUBCHEM_HEAVY_ATOM_COUNT>
27

> <PUBCHEM_ATOM_DEF_STEREO_COUNT>
0

> <PUBCHEM_ATOM_UDEF_STEREO_COUNT>
0

> <PUBCHEM_BOND_DEF_STEREO_COUNT>
0

> <PUBCHEM_BOND_UDEF_STEREO_COUNT>
0

> <PUBCHEM_ISOTOPIC_ATOM_COUNT>
0

> <PUBCHEM_COMPONENT_COUNT>
1

> <PUBCHEM_CACTVS_TAUTO_COUNT>
9

> <PUBCHEM_COORDINATE_TYPE>
1
5
255

> <PUBCHEM_BONDANNOTATIONS>
10  24  8
11  13  8
12  17  8
12  18  8
13  15  8
14  15  8
17  20  8
18  21  8
2  23  8
2  24  8
20  22  8
21  22  8
6  11  8
6  7  8
7  14  8
9  10  8
9  23  8

$$$$

