5820
  -OEChem-06261200543D

 36 37  0     0  0  0  0  0  0999 V2000
    2.0041    4.3703   -0.3180 Cl  0  0  0  0  0  0  0  0  0  0  0  0
    0.0111    0.8888    0.0425 N   0  0  0  0  0  0  0  0  0  0  0  0
   -1.2863    1.4092    0.4723 C   0  0  0  0  0  0  0  0  0  0  0  0
    0.3347   -0.3394    0.7674 C   0  0  0  0  0  0  0  0  0  0  0  0
    1.0563    1.8917    0.2439 C   0  0  0  0  0  0  0  0  0  0  0  0
   -2.3715    0.4023    0.2099 C   0  0  0  0  0  0  0  0  0  0  0  0
    1.6683   -0.8759    0.3266 C   0  0  0  0  0  0  0  0  0  0  0  0
    0.7269    3.1513   -0.5422 C   0  0  0  0  0  0  0  0  0  0  0  0
   -3.0403    0.4167   -1.0073 C   0  0  0  0  0  0  0  0  0  0  0  0
    1.7307   -1.7716   -0.7332 C   0  0  0  0  0  0  0  0  0  0  0  0
   -2.6925   -0.5303    1.1879 C   0  0  0  0  0  0  0  0  0  0  0  0
    2.8222   -0.4696    0.9846 C   0  0  0  0  0  0  0  0  0  0  0  0
   -4.0473   -0.5173   -1.2506 C   0  0  0  0  0  0  0  0  0  0  0  0
    2.9679   -2.2694   -1.1418 C   0  0  0  0  0  0  0  0  0  0  0  0
   -3.6993   -1.4645    0.9445 C   0  0  0  0  0  0  0  0  0  0  0  0
    4.0594   -0.9673    0.5757 C   0  0  0  0  0  0  0  0  0  0  0  0
   -4.3768   -1.4580   -0.2747 C   0  0  0  0  0  0  0  0  0  0  0  0
    4.1324   -1.8671   -0.4875 C   0  0  0  0  0  0  0  0  0  0  0  0
   -1.5874    2.3067   -0.0757 H   0  0  0  0  0  0  0  0  0  0  0  0
   -1.2814    1.6879    1.5354 H   0  0  0  0  0  0  0  0  0  0  0  0
   -0.3750   -1.1466    0.5648 H   0  0  0  0  0  0  0  0  0  0  0  0
    0.3405   -0.1856    1.8555 H   0  0  0  0  0  0  0  0  0  0  0  0
    2.0163    1.5619   -0.1613 H   0  0  0  0  0  0  0  0  0  0  0  0
    1.1871    2.1314    1.3074 H   0  0  0  0  0  0  0  0  0  0  0  0
    0.6408    2.9513   -1.6150 H   0  0  0  0  0  0  0  0  0  0  0  0
   -0.1761    3.6588   -0.2019 H   0  0  0  0  0  0  0  0  0  0  0  0
   -2.7908    1.1424   -1.7764 H   0  0  0  0  0  0  0  0  0  0  0  0
    0.8314   -2.0902   -1.2529 H   0  0  0  0  0  0  0  0  0  0  0  0
   -2.1881   -0.5374    2.1502 H   0  0  0  0  0  0  0  0  0  0  0  0
    2.7819    0.2162    1.8262 H   0  0  0  0  0  0  0  0  0  0  0  0
   -4.5745   -0.5127   -2.2001 H   0  0  0  0  0  0  0  0  0  0  0  0
    3.0249   -2.9696   -1.9701 H   0  0  0  0  0  0  0  0  0  0  0  0
   -3.9587   -2.1943    1.7059 H   0  0  0  0  0  0  0  0  0  0  0  0
    4.9656   -0.6573    1.0878 H   0  0  0  0  0  0  0  0  0  0  0  0
   -5.1613   -2.1848   -0.4639 H   0  0  0  0  0  0  0  0  0  0  0  0
    5.0957   -2.2553   -0.8054 H   0  0  0  0  0  0  0  0  0  0  0  0
  1  8  1  0  0  0  0
  2  3  1  0  0  0  0
  2  4  1  0  0  0  0
  2  5  1  0  0  0  0
  3  6  1  0  0  0  0
  3 19  1  0  0  0  0
  3 20  1  0  0  0  0
  4  7  1  0  0  0  0
  4 21  1  0  0  0  0
  4 22  1  0  0  0  0
  5  8  1  0  0  0  0
  5 23  1  0  0  0  0
  5 24  1  0  0  0  0
  6  9  2  0  0  0  0
  6 11  1  0  0  0  0
  7 10  2  0  0  0  0
  7 12  1  0  0  0  0
  8 25  1  0  0  0  0
  8 26  1  0  0  0  0
  9 13  1  0  0  0  0
  9 27  1  0  0  0  0
 10 14  1  0  0  0  0
 10 28  1  0  0  0  0
 11 15  2  0  0  0  0
 11 29  1  0  0  0  0
 12 16  2  0  0  0  0
 12 30  1  0  0  0  0
 13 17  2  0  0  0  0
 13 31  1  0  0  0  0
 14 18  2  0  0  0  0
 14 32  1  0  0  0  0
 15 17  1  0  0  0  0
 15 33  1  0  0  0  0
 16 18  1  0  0  0  0
 16 34  1  0  0  0  0
 17 35  1  0  0  0  0
 18 36  1  0  0  0  0
M  END
> <PUBCHEM_COMPOUND_CID>
5820

> <PUBCHEM_CONFORMER_RMSD>
0.8

> <PUBCHEM_CONFORMER_DIVERSEORDER>
1
7
8
9
11
4
10
2
3
6
5

> <PUBCHEM_MMFF94_PARTIAL_CHARGES>
28
1 -0.29
10 -0.15
11 -0.15
12 -0.15
13 -0.15
14 -0.15
15 -0.15
16 -0.15
17 -0.15
18 -0.15
2 -0.81
27 0.15
28 0.15
29 0.15
3 0.41
30 0.15
31 0.15
32 0.15
33 0.15
34 0.15
35 0.15
36 0.15
4 0.41
5 0.27
6 -0.14
7 -0.14
8 0.29
9 -0.15

> <PUBCHEM_EFFECTIVE_ROTOR_COUNT>
6

> <PUBCHEM_PHARMACOPHORE_FEATURES>
3
1 2 cation
6 6 9 11 13 15 17 rings
6 7 10 12 14 16 18 rings

> <PUBCHEM_HEAVY_ATOM_COUNT>
18

> <PUBCHEM_ATOM_DEF_STEREO_COUNT>
0

> <PUBCHEM_ATOM_UDEF_STEREO_COUNT>
0

> <PUBCHEM_BOND_DEF_STEREO_COUNT>
0

> <PUBCHEM_BOND_UDEF_STEREO_COUNT>
0

> <PUBCHEM_ISOTOPIC_ATOM_COUNT>
0

> <PUBCHEM_COMPONENT_COUNT>
1

> <PUBCHEM_CACTVS_TAUTO_COUNT>
1

> <PUBCHEM_CONFORMER_ID>
000016BC00000001

> <PUBCHEM_MMFF94_ENERGY>
55.2017

> <PUBCHEM_FEATURE_SELFOVERLAP>
15.223

> <PUBCHEM_SHAPE_FINGERPRINT>
12363563 72 18340482356564331018
12553582 1 18270397325289122707
12707595 3 18343581845630927899
12788726 201 17839184360985815624
133893 2 18057018268988386600
13544653 18 18040720298191787683
13681431 1 18410573976715075672
14181834 199 18271244911236121468
14790565 3 17546444943483935868
15502722 9 18268710502600823901
15842332 3 17822836586471314505
167882 2 18198342845408952276
17357779 13 18263659492100601693
1813 80 18187913023650791694
19591789 44 17329422844460648616
19784866 34 10159694690055116238
200 152 17676500457874432359
20388580 30 18335422348450547285
20645477 70 18268158565359969207
20671657 53 18341618135101312643
20693207 138 17774436075942453051
20871999 31 18199190774873570853
212916 134 10303234769578725982
21304303 282 16833794274722604100
221490 88 18270960120629028331
23114952 82 18200316515935474677
23402539 116 18340487897631377018
23419403 2 17772782444671747876
23557571 272 18193562405047709596
23559900 14 18340217305901217529
27216 239 8646473129811671263
3057174 1 17764297345741368772
314173 41 18412825819567675891
458136 41 17907281170764617921
46194498 28 18197240099881033327
5262128 65 18411134736413939553
6669772 16 17903624195555138484
6913067 236 18044400390049898122
7364860 26 18266739086736771576
81228 2 18050005794174165088
81539 233 17984141448519410804
9709674 26 18270686346913762219

> <PUBCHEM_SHAPE_MULTIPOLES>
367.32
8.19
3.75
1.16
3.62
5.44
0.05
-6.02
0.85
-4.13
0.97
0.37
-0.34
0.48

> <PUBCHEM_SHAPE_SELFOVERLAP>
760.024

> <PUBCHEM_SHAPE_VOLUME>
210

> <PUBCHEM_COORDINATE_TYPE>
2
5
10

$$$$

