6848
  -OEChem-06261201323D

 26 27  0     0  0  0  0  0  0999 V2000
   -2.1883   -0.6145    0.0002 N   0  0  0  0  0  0  0  0  0  0  0  0
    0.2371   -0.1902   -0.0002 C   0  0  0  0  0  0  0  0  0  0  0  0
   -1.0874    0.2769    0.0005 C   0  0  0  0  0  0  0  0  0  0  0  0
    1.3002    0.7440    0.0002 C   0  0  0  0  0  0  0  0  0  0  0  0
   -1.3599    1.6453    0.0017 C   0  0  0  0  0  0  0  0  0  0  0  0
    0.5300   -1.5637   -0.0012 C   0  0  0  0  0  0  0  0  0  0  0  0
    1.0075    2.1177    0.0010 C   0  0  0  0  0  0  0  0  0  0  0  0
    2.6247    0.2773   -0.0007 C   0  0  0  0  0  0  0  0  0  0  0  0
   -0.3144    2.5640    0.0017 C   0  0  0  0  0  0  0  0  0  0  0  0
   -2.7544   -1.0715   -1.2498 C   0  0  0  0  0  0  0  0  0  0  0  0
   -2.7444   -1.0846    1.2498 C   0  0  0  0  0  0  0  0  0  0  0  0
    1.8519   -2.0097   -0.0018 C   0  0  0  0  0  0  0  0  0  0  0  0
    2.8973   -1.0910   -0.0014 C   0  0  0  0  0  0  0  0  0  0  0  0
   -2.3851    2.0074    0.0024 H   0  0  0  0  0  0  0  0  0  0  0  0
   -0.2536   -2.3173    0.0003 H   0  0  0  0  0  0  0  0  0  0  0  0
    1.8089    2.8536    0.0011 H   0  0  0  0  0  0  0  0  0  0  0  0
    3.4576    0.9774   -0.0005 H   0  0  0  0  0  0  0  0  0  0  0  0
   -0.5270    3.6291    0.0024 H   0  0  0  0  0  0  0  0  0  0  0  0
   -2.0738   -1.7669   -1.7517 H   0  0  0  0  0  0  0  0  0  0  0  0
   -2.9440   -0.2285   -1.9234 H   0  0  0  0  0  0  0  0  0  0  0  0
   -3.7091   -1.5866   -1.0993 H   0  0  0  0  0  0  0  0  0  0  0  0
   -1.9547   -1.3690    1.9539 H   0  0  0  0  0  0  0  0  0  0  0  0
   -3.3818   -1.9633    1.1055 H   0  0  0  0  0  0  0  0  0  0  0  0
   -3.3512   -0.2997    1.7132 H   0  0  0  0  0  0  0  0  0  0  0  0
    2.0651   -3.0747   -0.0020 H   0  0  0  0  0  0  0  0  0  0  0  0
    3.9262   -1.4389   -0.0018 H   0  0  0  0  0  0  0  0  0  0  0  0
  1  3  1  0  0  0  0
  1 10  1  0  0  0  0
  1 11  1  0  0  0  0
  2  3  1  0  0  0  0
  2  4  1  0  0  0  0
  2  6  2  0  0  0  0
  3  5  2  0  0  0  0
  4  7  1  0  0  0  0
  4  8  2  0  0  0  0
  5  9  1  0  0  0  0
  5 14  1  0  0  0  0
  6 12  1  0  0  0  0
  6 15  1  0  0  0  0
  7  9  2  0  0  0  0
  7 16  1  0  0  0  0
  8 13  1  0  0  0  0
  8 17  1  0  0  0  0
  9 18  1  0  0  0  0
 10 19  1  0  0  0  0
 10 20  1  0  0  0  0
 10 21  1  0  0  0  0
 11 22  1  0  0  0  0
 11 23  1  0  0  0  0
 11 24  1  0  0  0  0
 12 13  2  0  0  0  0
 12 25  1  0  0  0  0
 13 26  1  0  0  0  0
M  END
> <PUBCHEM_COMPOUND_CID>
6848

> <PUBCHEM_CONFORMER_RMSD>
0.4

> <PUBCHEM_CONFORMER_DIVERSEORDER>
1

> <PUBCHEM_MMFF94_PARTIAL_CHARGES>
18
1 -0.84
10 0.37
11 0.37
12 -0.15
13 -0.15
14 0.15
15 0.15
16 0.15
17 0.15
18 0.15
25 0.15
26 0.15
3 0.1
5 -0.15
6 -0.15
7 -0.15
8 -0.15
9 -0.15

> <PUBCHEM_EFFECTIVE_ROTOR_COUNT>
1

> <PUBCHEM_PHARMACOPHORE_FEATURES>
3
1 1 cation
6 2 3 4 5 7 9 rings
6 2 4 6 8 12 13 rings

> <PUBCHEM_HEAVY_ATOM_COUNT>
13

> <PUBCHEM_ATOM_DEF_STEREO_COUNT>
0

> <PUBCHEM_ATOM_UDEF_STEREO_COUNT>
0

> <PUBCHEM_BOND_DEF_STEREO_COUNT>
0

> <PUBCHEM_BOND_UDEF_STEREO_COUNT>
0

> <PUBCHEM_ISOTOPIC_ATOM_COUNT>
0

> <PUBCHEM_COMPONENT_COUNT>
1

> <PUBCHEM_CACTVS_TAUTO_COUNT>
1

> <PUBCHEM_CONFORMER_ID>
00001AC000000001

> <PUBCHEM_MMFF94_ENERGY>
61.4754

> <PUBCHEM_FEATURE_SELFOVERLAP>
15.249

> <PUBCHEM_SHAPE_FINGERPRINT>
10967382 1 18194401091394904390
11206711 2 18340766030801401588
11578080 2 17242484679776403321
12423570 1 17968646211505745287
13140716 1 18266458900550534184
13380535 76 17689160423159927054
16945 1 18338517417779537984
193761 8 18338797926415500484
20201158 50 18343588416999481867
20645476 183 16834559538741062742
20645477 70 18124044429699398207
20871998 184 18045498874610388407
21501502 16 18267024049521844898
22802520 49 17756131642291105382
2334 1 18410855490488364456
23388829 49 18335427824396803500
23419403 2 16831292692268856104
23552423 10 18199742708230453444
23559900 14 17253148035896588022
241688 4 18339081604667957000
2748010 2 18337677515608334836
6338986 31 18264232320516077823
81228 2 18196377145692294049
8809292 202 18053657259600071506

> <PUBCHEM_SHAPE_MULTIPOLES>
262.55
4.03
2.55
0.86
0.37
1.16
0
-2.1
0.01
-0.22
0
0.66
-0.27
0

> <PUBCHEM_SHAPE_SELFOVERLAP>
565.45

> <PUBCHEM_SHAPE_VOLUME>
145.4

> <PUBCHEM_COORDINATE_TYPE>
2
5
10

$$$$

