13547
  -OEChem-06241222392D

 28 26  0     0  0  0  0  0  0999 V2000
    2.2020    0.0000    0.0000 Cl  0  0  0  0  0  0  0  0  0  0  0  0
    3.1350    5.0369    0.0000 N   0  0  0  0  0  0  0  0  0  0  0  0
    2.2690    6.5369    0.0000 N   0  0  0  0  0  0  0  0  0  0  0  0
    4.0010    6.5369    0.0000 N   0  0  0  0  0  0  0  0  0  0  0  0
    0.5369    6.5369    0.0000 N   0  0  0  0  0  0  0  0  0  0  0  0
    1.4030    5.0369    0.0000 N   0  0  0  0  0  0  0  0  0  0  0  0
    4.0010    3.5369    0.0000 C   0  0  0  0  0  0  0  0  0  0  0  0
    4.0010    4.5369    0.0000 C   0  0  0  0  0  0  0  0  0  0  0  0
    4.8671    3.0369    0.0000 C   0  0  0  0  0  0  0  0  0  0  0  0
    3.1350    3.0369    0.0000 C   0  0  0  0  0  0  0  0  0  0  0  0
    3.1350    6.0369    0.0000 C   0  0  0  0  0  0  0  0  0  0  0  0
    1.4030    6.0369    0.0000 C   0  0  0  0  0  0  0  0  0  0  0  0
    4.5380    3.8469    0.0000 H   0  0  0  0  0  0  0  0  0  0  0  0
    4.6116    4.4293    0.0000 H   0  0  0  0  0  0  0  0  0  0  0  0
    4.2131    5.1195    0.0000 H   0  0  0  0  0  0  0  0  0  0  0  0
    4.5571    2.5000    0.0000 H   0  0  0  0  0  0  0  0  0  0  0  0
    5.4040    2.7269    0.0000 H   0  0  0  0  0  0  0  0  0  0  0  0
    5.1771    3.5739    0.0000 H   0  0  0  0  0  0  0  0  0  0  0  0
    2.8250    3.5739    0.0000 H   0  0  0  0  0  0  0  0  0  0  0  0
    2.5981    2.7269    0.0000 H   0  0  0  0  0  0  0  0  0  0  0  0
    3.4450    2.5000    0.0000 H   0  0  0  0  0  0  0  0  0  0  0  0
    4.5380    6.2269    0.0000 H   0  0  0  0  0  0  0  0  0  0  0  0
    4.0010    7.1569    0.0000 H   0  0  0  0  0  0  0  0  0  0  0  0
    0.8660    4.7269    0.0000 H   0  0  0  0  0  0  0  0  0  0  0  0
    1.9399    4.7269    0.0000 H   0  0  0  0  0  0  0  0  0  0  0  0
    0.0000    6.2269    0.0000 H   0  0  0  0  0  0  0  0  0  0  0  0
    0.5369    7.1569    0.0000 H   0  0  0  0  0  0  0  0  0  0  0  0
    3.2020    0.0000    0.0000 H   0  0  0  0  0  0  0  0  0  0  0  0
  1 28  1  0  0  0  0
  2  8  1  0  0  0  0
  2 11  2  0  0  0  0
  3 11  1  0  0  0  0
  3 12  2  0  0  0  0
  4 11  1  0  0  0  0
  4 22  1  0  0  0  0
  4 23  1  0  0  0  0
  5 12  1  0  0  0  0
  5 26  1  0  0  0  0
  5 27  1  0  0  0  0
  6 12  1  0  0  0  0
  6 24  1  0  0  0  0
  6 25  1  0  0  0  0
  7  8  1  0  0  0  0
  7  9  1  0  0  0  0
  7 10  1  0  0  0  0
  7 13  1  0  0  0  0
  8 14  1  0  0  0  0
  8 15  1  0  0  0  0
  9 16  1  0  0  0  0
  9 17  1  0  0  0  0
  9 18  1  0  0  0  0
 10 19  1  0  0  0  0
 10 20  1  0  0  0  0
 10 21  1  0  0  0  0
M  END
> <PUBCHEM_COMPOUND_CID>
13547

> <PUBCHEM_COMPOUND_CANONICALIZED>
1

> <PUBCHEM_CACTVS_COMPLEXITY>
166

> <PUBCHEM_CACTVS_HBOND_ACCEPTOR>
1

> <PUBCHEM_CACTVS_HBOND_DONOR>
4

> <PUBCHEM_CACTVS_ROTATABLE_BOND>
3

> <PUBCHEM_CACTVS_SUBSKEYS>
AAADceBjgAAEAAAAAAAAAAAAAAAAAAAAAAAAAAAAAAAAAAAAAAAAHAAQAAAADQDBAAQDAAJAAAAgAAAAJAAAAAEAAAAAAAAAAAAAAAAAAAAAAAAAAAAAAAAAAAAAAAAAAAAAAAAAAAAAAAAAAAAAAAAAAA==

> <PUBCHEM_IUPAC_OPENEYE_NAME>
1-(diaminomethylene)-2-isobutyl-guanidine hydrochloride

> <PUBCHEM_IUPAC_CAS_NAME>
1-(diaminomethylidene)-2-(2-methylpropyl)guanidine hydrochloride

> <PUBCHEM_IUPAC_NAME>
1-(diaminomethylidene)-2-(2-methylpropyl)guanidine hydrochloride

> <PUBCHEM_IUPAC_SYSTEMATIC_NAME>
1-[bis(azanyl)methylidene]-2-(2-methylpropyl)guanidine hydrochloride

> <PUBCHEM_IUPAC_TRADITIONAL_NAME>
1-(diaminomethylene)-2-isobutyl-guanidine hydrochloride

> <PUBCHEM_IUPAC_INCHI>
InChI=1S/C6H15N5.ClH/c1-4(2)3-10-6(9)11-5(7)8;/h4H,3H2,1-2H3,(H6,7,8,9,10,11);1H

> <PUBCHEM_IUPAC_INCHIKEY>
BWWLZUBMTAKUKN-UHFFFAOYSA-N

> <PUBCHEM_EXACT_MASS>
193.109423

> <PUBCHEM_MOLECULAR_FORMULA>
C6H16ClN5

> <PUBCHEM_MOLECULAR_WEIGHT>
193.67774

> <PUBCHEM_OPENEYE_CAN_SMILES>
CC(C)CN=C(N)N=C(N)N.Cl

> <PUBCHEM_OPENEYE_ISO_SMILES>
CC(C)CN=C(N)N=C(N)N.Cl

> <PUBCHEM_CACTVS_TPSA>
103

> <PUBCHEM_MONOISOTOPIC_WEIGHT>
193.109423

> <PUBCHEM_TOTAL_CHARGE>
0

> <PUBCHEM_HEAVY_ATOM_COUNT>
12

> <PUBCHEM_ATOM_DEF_STEREO_COUNT>
0

> <PUBCHEM_ATOM_UDEF_STEREO_COUNT>
0

> <PUBCHEM_BOND_DEF_STEREO_COUNT>
0

> <PUBCHEM_BOND_UDEF_STEREO_COUNT>
0

> <PUBCHEM_ISOTOPIC_ATOM_COUNT>
0

> <PUBCHEM_COMPONENT_COUNT>
2

> <PUBCHEM_CACTVS_TAUTO_COUNT>
5

> <PUBCHEM_COORDINATE_TYPE>
1
5
255

$$$$

