586216
  -OEChem-06241222453D

 43 44  0     1  0  0  0  0  0999 V2000
   -1.3047    0.0265    1.1830 S   0  0  2  0  0  0  0  0  0  0  0  0
   -0.4852    1.6105   -1.2899 S   0  0  0  0  0  0  0  0  0  0  0  0
   -1.4745    1.3557    1.8586 O   0  0  0  0  0  0  0  0  0  0  0  0
   -0.0038    0.2159   -0.1565 C   0  0  1  0  0  0  0  0  0  0  0  0
    1.3723    0.5096    0.5913 C   0  0  1  0  0  0  0  0  0  0  0  0
    0.1363   -1.0891   -0.9762 C   0  0  0  0  0  0  0  0  0  0  0  0
    2.2697   -0.7458    0.7249 C   0  0  0  0  0  0  0  0  0  0  0  0
    0.5038   -2.3324   -0.1385 C   0  0  2  0  0  0  0  0  0  0  0  0
    1.4759   -2.0111    1.0027 C   0  0  0  0  0  0  0  0  0  0  0  0
    2.2526    1.6317    0.0138 C   0  0  0  0  0  0  0  0  0  0  0  0
   -2.7838   -0.2938    0.1657 C   0  0  2  0  0  0  0  0  0  0  0  0
   -3.1200    0.8763   -0.7566 C   0  0  0  0  0  0  0  0  0  0  0  0
   -2.1153    1.0805   -1.8802 C   0  0  0  0  0  0  0  0  0  0  0  0
    1.0660   -3.4261   -1.0515 C   0  0  0  0  0  0  0  0  0  0  0  0
    3.4009    1.9345    0.9650 C   0  0  0  0  0  0  0  0  0  0  0  0
    2.7676    1.2342   -1.3615 C   0  0  0  0  0  0  0  0  0  0  0  0
   -3.9579   -0.5773    1.1059 C   0  0  0  0  0  0  0  0  0  0  0  0
    1.1321    0.8200    1.6183 H   0  0  0  0  0  0  0  0  0  0  0  0
    0.8987   -0.9562   -1.7531 H   0  0  0  0  0  0  0  0  0  0  0  0
   -0.7769   -1.3337   -1.5272 H   0  0  0  0  0  0  0  0  0  0  0  0
    2.9696   -0.6136    1.5585 H   0  0  0  0  0  0  0  0  0  0  0  0
    2.8756   -0.9449   -0.1620 H   0  0  0  0  0  0  0  0  0  0  0  0
   -0.4122   -2.7402    0.3089 H   0  0  0  0  0  0  0  0  0  0  0  0
    2.1592   -2.8494    1.1842 H   0  0  0  0  0  0  0  0  0  0  0  0
    0.9143   -1.8804    1.9361 H   0  0  0  0  0  0  0  0  0  0  0  0
    1.6766    2.5605   -0.0586 H   0  0  0  0  0  0  0  0  0  0  0  0
   -2.6082   -1.2033   -0.4156 H   0  0  0  0  0  0  0  0  0  0  0  0
   -3.2402    1.8060   -0.1849 H   0  0  0  0  0  0  0  0  0  0  0  0
   -4.0946    0.6839   -1.2243 H   0  0  0  0  0  0  0  0  0  0  0  0
   -2.0211    0.1844   -2.5005 H   0  0  0  0  0  0  0  0  0  0  0  0
   -2.4842    1.8725   -2.5413 H   0  0  0  0  0  0  0  0  0  0  0  0
    2.0108   -3.1159   -1.5105 H   0  0  0  0  0  0  0  0  0  0  0  0
    1.2503   -4.3463   -0.4868 H   0  0  0  0  0  0  0  0  0  0  0  0
    0.3592   -3.6636   -1.8536 H   0  0  0  0  0  0  0  0  0  0  0  0
    4.1565    1.1433    0.9941 H   0  0  0  0  0  0  0  0  0  0  0  0
    3.9194    2.8448    0.6413 H   0  0  0  0  0  0  0  0  0  0  0  0
    3.0437    2.1125    1.9848 H   0  0  0  0  0  0  0  0  0  0  0  0
    3.6231    0.5524   -1.3189 H   0  0  0  0  0  0  0  0  0  0  0  0
    3.1509    2.1340   -1.8605 H   0  0  0  0  0  0  0  0  0  0  0  0
    2.0312    0.8098   -2.0405 H   0  0  0  0  0  0  0  0  0  0  0  0
   -4.8579   -0.8319    0.5358 H   0  0  0  0  0  0  0  0  0  0  0  0
   -3.7368   -1.4205    1.7699 H   0  0  0  0  0  0  0  0  0  0  0  0
   -4.1914    0.2896    1.7346 H   0  0  0  0  0  0  0  0  0  0  0  0
  1  3  2  0  0  0  0
  1  4  1  0  0  0  0
  1 11  1  0  0  0  0
  2  4  1  0  0  0  0
  2 13  1  0  0  0  0
  4  5  1  0  0  0  0
  4  6  1  0  0  0  0
  5  7  1  0  0  0  0
  5 10  1  0  0  0  0
  5 18  1  0  0  0  0
  6  8  1  0  0  0  0
  6 19  1  0  0  0  0
  6 20  1  0  0  0  0
  7  9  1  0  0  0  0
  7 21  1  0  0  0  0
  7 22  1  0  0  0  0
  8  9  1  0  0  0  0
  8 14  1  0  0  0  0
  8 23  1  0  0  0  0
  9 24  1  0  0  0  0
  9 25  1  0  0  0  0
 10 15  1  0  0  0  0
 10 16  1  0  0  0  0
 10 26  1  0  0  0  0
 11 12  1  0  0  0  0
 11 17  1  0  0  0  0
 11 27  1  0  0  0  0
 12 13  1  0  0  0  0
 12 28  1  0  0  0  0
 12 29  1  0  0  0  0
 13 30  1  0  0  0  0
 13 31  1  0  0  0  0
 14 32  1  0  0  0  0
 14 33  1  0  0  0  0
 14 34  1  0  0  0  0
 15 35  1  0  0  0  0
 15 36  1  0  0  0  0
 15 37  1  0  0  0  0
 16 38  1  0  0  0  0
 16 39  1  0  0  0  0
 16 40  1  0  0  0  0
 17 41  1  0  0  0  0
 17 42  1  0  0  0  0
 17 43  1  0  0  0  0
M  END
> <PUBCHEM_COMPOUND_CID>
586216

> <PUBCHEM_CONFORMER_RMSD>
0.6

> <PUBCHEM_CONFORMER_DIVERSEORDER>
2
7
32
44
43
36
42
6
13
45
1
41
39
22
11
40
4
30
3
21
37
38
5
24
25
15
12
16
9
35
31
8
18
33
29
34
14
23
28
26
20
10
27
19
17

> <PUBCHEM_MMFF94_PARTIAL_CHARGES>
6
1 0.11
11 0.19
13 0.23
2 -0.46
3 -0.5
4 0.42

> <PUBCHEM_EFFECTIVE_ROTOR_COUNT>
2.8

> <PUBCHEM_PHARMACOPHORE_FEATURES>
4
1 3 acceptor
3 10 15 16 hydrophobe
6 1 2 4 11 12 13 rings
6 4 5 6 7 8 9 rings

> <PUBCHEM_HEAVY_ATOM_COUNT>
17

> <PUBCHEM_ATOM_DEF_STEREO_COUNT>
0

> <PUBCHEM_ATOM_UDEF_STEREO_COUNT>
5

> <PUBCHEM_BOND_DEF_STEREO_COUNT>
0

> <PUBCHEM_BOND_UDEF_STEREO_COUNT>
0

> <PUBCHEM_ISOTOPIC_ATOM_COUNT>
0

> <PUBCHEM_COMPONENT_COUNT>
1

> <PUBCHEM_CACTVS_TAUTO_COUNT>
1

> <PUBCHEM_CONFORMER_ID>
0008F1E800000002

> <PUBCHEM_MMFF94_ENERGY>
52.3709

> <PUBCHEM_FEATURE_SELFOVERLAP>
20.298

> <PUBCHEM_SHAPE_FINGERPRINT>
107287 299 18342735230130084533
11132069 177 18201160927743022169
12423570 1 14184227471950299742
13681431 1 18051128395899220870
13898156 1 17096378408590057989
14181834 199 18194706936248460310
14648413 74 18054809526094847053
14787075 74 17462850870072786497
14817 1 17322373914032616479
15219456 202 18130516313542139269
15309172 13 18338519633856322085
15375462 6 17989489610594481295
15775835 57 18339085878255348712
15881359 60 17915761793848295240
16945 1 18261117425533431487
18186145 218 18114741538577310516
18380122 1 18202284706073092805
18981168 100 13912896409334529417
20511035 2 17987540224044938588
20645477 70 18339654429225919511
21501502 16 18129662044473228885
21524375 3 18268991999273676954
21947302 44 18059025006636646325
22802520 49 18057330693752120085
23402539 116 17458347390773409904
23419403 2 16692222210049776734
23526113 38 17767137762164275263
23557571 272 17775275084950102785
23558518 356 17842014461087702165
23559900 14 17417822802139774898
2748010 2 18201448003167202612
276578 36 18336823091952022960
3250762 1 18054790847387604253
430814 3 18261674775060398082
458136 41 18336809931945660303
495365 180 18192179133283523885
576247 118 17614548667853356743
5845 1 9767080507200035902
633830 44 17677036976087567185
7364860 26 18336551637112992662
81228 2 17547299899878579482
84936 31 18261962949922470046
9925002 15 17333930855161681957

> <PUBCHEM_SHAPE_MULTIPOLES>
351.68
5.09
2.85
1.68
2.18
2.28
-0.07
-1.97
1.11
-1.96
-0.85
0.43
-0.34
0.67

> <PUBCHEM_SHAPE_SELFOVERLAP>
673.087

> <PUBCHEM_SHAPE_VOLUME>
215.3

> <PUBCHEM_COORDINATE_TYPE>
2
5
10

$$$$

