3564
  -OEChem-06251223303D

 30 32  0     0  0  0  0  0  0999 V2000
    4.3256    0.1130   -0.0513 O   0  0  0  0  0  0  0  0  0  0  0  0
   -0.4135    1.3265   -0.0320 N   0  0  0  0  0  0  0  0  0  0  0  0
   -3.8634    0.0614   -0.1345 N   0  0  0  0  0  0  0  0  0  0  0  0
   -1.1506   -0.7622    0.1002 C   0  0  0  0  0  0  0  0  0  0  0  0
   -1.5397    0.5554    0.0198 C   0  0  0  0  0  0  0  0  0  0  0  0
   -2.1851   -1.8171    0.2152 C   0  0  0  0  0  0  0  0  0  0  0  0
    0.2665   -0.8069    0.0771 C   0  0  0  0  0  0  0  0  0  0  0  0
    0.7058    0.5192   -0.0096 C   0  0  0  0  0  0  0  0  0  0  0  0
   -3.4854   -1.3378   -0.4526 C   0  0  0  0  0  0  0  0  0  0  0  0
   -2.9255    0.9392    0.0235 C   0  0  0  0  0  0  0  0  0  0  0  0
    1.2259   -1.8375    0.1271 C   0  0  0  0  0  0  0  0  0  0  0  0
    2.0622    0.8611   -0.0544 C   0  0  0  0  0  0  0  0  0  0  0  0
    2.9947   -0.1790   -0.0070 C   0  0  0  0  0  0  0  0  0  0  0  0
   -3.2860    2.3825    0.2388 C   0  0  0  0  0  0  0  0  0  0  0  0
    2.5853   -1.5078    0.0826 C   0  0  0  0  0  0  0  0  0  0  0  0
    4.6832    1.4901   -0.1428 C   0  0  0  0  0  0  0  0  0  0  0  0
   -1.8533   -2.7540   -0.2445 H   0  0  0  0  0  0  0  0  0  0  0  0
   -2.3712   -2.0148    1.2779 H   0  0  0  0  0  0  0  0  0  0  0  0
   -0.3957    2.3356   -0.0884 H   0  0  0  0  0  0  0  0  0  0  0  0
   -3.3994   -1.4234   -1.5432 H   0  0  0  0  0  0  0  0  0  0  0  0
   -4.3063   -1.9960   -0.1474 H   0  0  0  0  0  0  0  0  0  0  0  0
    0.9220   -2.8779    0.1976 H   0  0  0  0  0  0  0  0  0  0  0  0
    2.3182    1.9110   -0.1218 H   0  0  0  0  0  0  0  0  0  0  0  0
   -2.8654    2.7317    1.1862 H   0  0  0  0  0  0  0  0  0  0  0  0
   -4.3724    2.5062    0.2668 H   0  0  0  0  0  0  0  0  0  0  0  0
   -2.8827    2.9883   -0.5778 H   0  0  0  0  0  0  0  0  0  0  0  0
    3.3249   -2.3041    0.1190 H   0  0  0  0  0  0  0  0  0  0  0  0
    4.3597    2.0508    0.7407 H   0  0  0  0  0  0  0  0  0  0  0  0
    4.3244    1.9391   -1.0753 H   0  0  0  0  0  0  0  0  0  0  0  0
    5.7769    1.5386   -0.1670 H   0  0  0  0  0  0  0  0  0  0  0  0
  1 13  1  0  0  0  0
  1 16  1  0  0  0  0
  2  5  1  0  0  0  0
  2  8  1  0  0  0  0
  2 19  1  0  0  0  0
  3  9  1  0  0  0  0
  3 10  2  0  0  0  0
  4  5  2  0  0  0  0
  4  6  1  0  0  0  0
  4  7  1  0  0  0  0
  5 10  1  0  0  0  0
  6  9  1  0  0  0  0
  6 17  1  0  0  0  0
  6 18  1  0  0  0  0
  7  8  2  0  0  0  0
  7 11  1  0  0  0  0
  8 12  1  0  0  0  0
  9 20  1  0  0  0  0
  9 21  1  0  0  0  0
 10 14  1  0  0  0  0
 11 15  2  0  0  0  0
 11 22  1  0  0  0  0
 12 13  2  0  0  0  0
 12 23  1  0  0  0  0
 13 15  1  0  0  0  0
 14 24  1  0  0  0  0
 14 25  1  0  0  0  0
 14 26  1  0  0  0  0
 15 27  1  0  0  0  0
 16 28  1  0  0  0  0
 16 29  1  0  0  0  0
 16 30  1  0  0  0  0
M  END
> <PUBCHEM_COMPOUND_CID>
3564

> <PUBCHEM_CONFORMER_RMSD>
0.6

> <PUBCHEM_CONFORMER_DIVERSEORDER>
1
2

> <PUBCHEM_MMFF94_PARTIAL_CHARGES>
19
1 -0.36
10 0.47
11 -0.15
12 -0.15
13 0.08
14 0.06
15 -0.15
16 0.28
19 0.27
2 0.03
22 0.15
23 0.15
27 0.15
3 -0.7
4 -0.18
5 -0.24
6 0.18
8 -0.15
9 0.25

> <PUBCHEM_EFFECTIVE_ROTOR_COUNT>
1.4

> <PUBCHEM_PHARMACOPHORE_FEATURES>
7
1 1 acceptor
1 2 cation
1 2 donor
1 3 acceptor
5 2 4 5 7 8 rings
6 3 4 5 6 9 10 rings
6 7 8 11 12 13 15 rings

> <PUBCHEM_HEAVY_ATOM_COUNT>
16

> <PUBCHEM_ATOM_DEF_STEREO_COUNT>
0

> <PUBCHEM_ATOM_UDEF_STEREO_COUNT>
0

> <PUBCHEM_BOND_DEF_STEREO_COUNT>
0

> <PUBCHEM_BOND_UDEF_STEREO_COUNT>
0

> <PUBCHEM_ISOTOPIC_ATOM_COUNT>
0

> <PUBCHEM_COMPONENT_COUNT>
1

> <PUBCHEM_CACTVS_TAUTO_COUNT>
2

> <PUBCHEM_CONFORMER_ID>
00000DEC00000001

> <PUBCHEM_MMFF94_ENERGY>
47.6212

> <PUBCHEM_FEATURE_SELFOVERLAP>
35.702

> <PUBCHEM_SHAPE_FINGERPRINT>
10014705 185 18201442493051495205
10411042 1 17258214069706543090
10608611 8 18409732884552646424
10616163 171 18409165489376925007
10967382 1 18411419556859002139
11132069 177 18413110558766926240
11806522 49 18339646620484875207
12346645 44 18412263939034672498
12491281 212 18339072795853296865
12500047 106 18336552706501969977
13140716 1 17908133279333044955
13380535 76 18413107264332227698
14144814 61 18411982502712648099
14325111 11 18410856594004835184
14897335 6 18411702118462419190
15196674 1 18411138060455083654
15219456 202 18335978761263530854
15442244 35 18194966468100072962
15536298 74 18335701680502522646
16945 1 18339357457648469483
18186145 218 18197777902083589007
19591789 44 15604814542700232235
200 152 18187653462066833935
20510252 161 18261388979478489233
20645477 56 18340484560352149613
20645477 70 18262520410960791934
21267235 1 18411129247124436331
21501502 16 18339366365194435043
23366157 5 18059571468680532314
23402539 116 18335991891669378647
23402655 69 18336273426585759805
23463225 33 18341614845093248494
23557571 272 18187917378964011508
23559900 14 18189338051515043662
2748010 2 18411136892213377711
296302 2 18342175565858325502
3312278 4 18407757040714085313
335352 9 18050568739927213838
34934 24 18412550928754587967
4214541 1 18410011069805902412
474 4 17632007547256597476
4990 188 18040987467354842836
5104073 3 18412262873777288946
53812653 166 18335706026935397984
69090 78 18337113462117317727
7364860 26 18264488571619558622
77779 3 18409447003218889526
8809292 202 18129096723893286091
9709674 26 18409442596424688598

> <PUBCHEM_SHAPE_MULTIPOLES>
313.44
7.74
2.14
0.63
3.78
0.18
0
2.37
-0.44
-0.9
0.1
-0.06
-0.02
-0.31

> <PUBCHEM_SHAPE_SELFOVERLAP>
691.47

> <PUBCHEM_SHAPE_VOLUME>
170.3

> <PUBCHEM_COORDINATE_TYPE>
2
5
10

$$$$

