6048
  -OEChem-06261201042D

 26 26  0     0  0  0  0  0  0999 V2000
    6.3532    2.7060    0.0000 Cl  0  0  0  0  0  0  0  0  0  0  0  0
    2.3735    5.1145    0.0000 N   0  0  0  0  0  0  0  0  0  0  0  0
    3.1825    3.7133    0.0000 N   0  0  0  0  0  0  0  0  0  0  0  0
    2.2690    4.1200    0.0000 C   0  0  0  0  0  0  0  0  0  0  0  0
    3.3517    5.3224    0.0000 C   0  0  0  0  0  0  0  0  0  0  0  0
    1.4030    3.6200    0.0000 C   0  0  0  0  0  0  0  0  0  0  0  0
    3.8517    4.4564    0.0000 C   0  0  0  0  0  0  0  0  0  0  0  0
    1.4030    2.6200    0.0000 C   0  0  0  0  0  0  0  0  0  0  0  0
    0.5369    2.1200    0.0000 C   0  0  0  0  0  0  0  0  0  0  0  0
    2.2690    2.1200    0.0000 C   0  0  0  0  0  0  0  0  0  0  0  0
    0.5369    1.1200    0.0000 C   0  0  0  0  0  0  0  0  0  0  0  0
    2.2690    1.1200    0.0000 C   0  0  0  0  0  0  0  0  0  0  0  0
    1.4030    0.6200    0.0000 C   0  0  0  0  0  0  0  0  0  0  0  0
    3.9181    5.5746    0.0000 H   0  0  0  0  0  0  0  0  0  0  0  0
    3.1601    5.9121    0.0000 H   0  0  0  0  0  0  0  0  0  0  0  0
    1.1909    4.2026    0.0000 H   0  0  0  0  0  0  0  0  0  0  0  0
    0.7924    3.5123    0.0000 H   0  0  0  0  0  0  0  0  0  0  0  0
    4.2665    3.9957    0.0000 H   0  0  0  0  0  0  0  0  0  0  0  0
    4.3532    4.8208    0.0000 H   0  0  0  0  0  0  0  0  0  0  0  0
    1.9128    5.5294    0.0000 H   0  0  0  0  0  0  0  0  0  0  0  0
    0.0000    2.4300    0.0000 H   0  0  0  0  0  0  0  0  0  0  0  0
    2.8059    2.4300    0.0000 H   0  0  0  0  0  0  0  0  0  0  0  0
    0.0000    0.8100    0.0000 H   0  0  0  0  0  0  0  0  0  0  0  0
    2.8059    0.8100    0.0000 H   0  0  0  0  0  0  0  0  0  0  0  0
    1.4030    0.0000    0.0000 H   0  0  0  0  0  0  0  0  0  0  0  0
    7.3532    2.7060    0.0000 H   0  0  0  0  0  0  0  0  0  0  0  0
  1 26  1  0  0  0  0
  2  4  1  0  0  0  0
  2  5  1  0  0  0  0
  2 20  1  0  0  0  0
  3  4  2  0  0  0  0
  3  7  1  0  0  0  0
  4  6  1  0  0  0  0
  5  7  1  0  0  0  0
  5 14  1  0  0  0  0
  5 15  1  0  0  0  0
  6  8  1  0  0  0  0
  6 16  1  0  0  0  0
  6 17  1  0  0  0  0
  7 18  1  0  0  0  0
  7 19  1  0  0  0  0
  8  9  2  0  0  0  0
  8 10  1  0  0  0  0
  9 11  1  0  0  0  0
  9 21  1  0  0  0  0
 10 12  2  0  0  0  0
 10 22  1  0  0  0  0
 11 13  2  0  0  0  0
 11 23  1  0  0  0  0
 12 13  1  0  0  0  0
 12 24  1  0  0  0  0
 13 25  1  0  0  0  0
M  END
> <PUBCHEM_COMPOUND_CID>
6048

> <PUBCHEM_COMPOUND_CANONICALIZED>
1

> <PUBCHEM_CACTVS_COMPLEXITY>
169

> <PUBCHEM_CACTVS_HBOND_ACCEPTOR>
1

> <PUBCHEM_CACTVS_HBOND_DONOR>
2

> <PUBCHEM_CACTVS_ROTATABLE_BOND>
2

> <PUBCHEM_CACTVS_SUBSKEYS>
AAADccBzAAAEAAAAAAAAAAAAAAAAAQAAAAAwAAAAAAAAAAABAAAAHAAQAAAADADBGAQxAILAAACgAiJiJAACAAEgAAAJiIA4AIgIYCKAmRGUIAAgkACIiAcQgIAOAAAAAAAAAAAAAAAAAAAAAAAAAAAAAA==

> <PUBCHEM_IUPAC_OPENEYE_NAME>
2-benzyl-4,5-dihydro-1H-imidazole hydrochloride

> <PUBCHEM_IUPAC_CAS_NAME>
2-(phenylmethyl)-4,5-dihydro-1H-imidazole hydrochloride

> <PUBCHEM_IUPAC_NAME>
2-benzyl-4,5-dihydro-1H-imidazole hydrochloride

> <PUBCHEM_IUPAC_SYSTEMATIC_NAME>
2-(phenylmethyl)-4,5-dihydro-1H-imidazole hydrochloride

> <PUBCHEM_IUPAC_TRADITIONAL_NAME>
2-benzyl-2-imidazoline hydrochloride

> <PUBCHEM_IUPAC_INCHI>
InChI=1S/C10H12N2.ClH/c1-2-4-9(5-3-1)8-10-11-6-7-12-10;/h1-5H,6-8H2,(H,11,12);1H

> <PUBCHEM_IUPAC_INCHIKEY>
RHTNTTODYGNRSP-UHFFFAOYSA-N

> <PUBCHEM_EXACT_MASS>
196.076726

> <PUBCHEM_MOLECULAR_FORMULA>
C10H13ClN2

> <PUBCHEM_MOLECULAR_WEIGHT>
196.67662

> <PUBCHEM_OPENEYE_CAN_SMILES>
C1CN=C(N1)CC2=CC=CC=C2.Cl

> <PUBCHEM_OPENEYE_ISO_SMILES>
C1CN=C(N1)CC2=CC=CC=C2.Cl

> <PUBCHEM_CACTVS_TPSA>
24.4

> <PUBCHEM_MONOISOTOPIC_WEIGHT>
196.076726

> <PUBCHEM_TOTAL_CHARGE>
0

> <PUBCHEM_HEAVY_ATOM_COUNT>
13

> <PUBCHEM_ATOM_DEF_STEREO_COUNT>
0

> <PUBCHEM_ATOM_UDEF_STEREO_COUNT>
0

> <PUBCHEM_BOND_DEF_STEREO_COUNT>
0

> <PUBCHEM_BOND_UDEF_STEREO_COUNT>
0

> <PUBCHEM_ISOTOPIC_ATOM_COUNT>
0

> <PUBCHEM_COMPONENT_COUNT>
2

> <PUBCHEM_CACTVS_TAUTO_COUNT>
1

> <PUBCHEM_COORDINATE_TYPE>
1
5
255

> <PUBCHEM_BONDANNOTATIONS>
10  12  8
11  13  8
12  13  8
8  10  8
8  9  8
9  11  8

$$$$

