9827
  -OEChem-06261204062D

 21 21  0     1  0  0  0  0  0999 V2000
    2.8660   -2.9050    0.0000 F   0  0  0  0  0  0  0  0  0  0  0  0
    2.0000    1.5950    0.0000 O   0  0  0  0  0  0  0  0  0  0  0  0
    3.7320    2.5950    0.0000 N   0  0  0  0  0  0  0  0  0  0  0  0
    2.8660    1.0950    0.0000 C   0  0  3  0  0  0  0  0  0  0  0  0
    2.8660    0.0950    0.0000 C   0  0  0  0  0  0  0  0  0  0  0  0
    3.7320    1.5950    0.0000 C   0  0  0  0  0  0  0  0  0  0  0  0
    2.0000   -0.4050    0.0000 C   0  0  0  0  0  0  0  0  0  0  0  0
    3.7320   -0.4050    0.0000 C   0  0  0  0  0  0  0  0  0  0  0  0
    2.0000   -1.4050    0.0000 C   0  0  0  0  0  0  0  0  0  0  0  0
    3.7320   -1.4050    0.0000 C   0  0  0  0  0  0  0  0  0  0  0  0
    2.8660   -1.9050    0.0000 C   0  0  0  0  0  0  0  0  0  0  0  0
    2.8660    1.9450    0.0000 H   0  0  0  0  0  0  0  0  0  0  0  0
    3.9441    1.0124    0.0000 H   0  0  0  0  0  0  0  0  0  0  0  0
    4.3426    1.7027    0.0000 H   0  0  0  0  0  0  0  0  0  0  0  0
    1.4631   -0.0950    0.0000 H   0  0  0  0  0  0  0  0  0  0  0  0
    4.2690   -0.0950    0.0000 H   0  0  0  0  0  0  0  0  0  0  0  0
    1.4631   -1.7150    0.0000 H   0  0  0  0  0  0  0  0  0  0  0  0
    4.2690   -1.7150    0.0000 H   0  0  0  0  0  0  0  0  0  0  0  0
    2.0000    2.2150    0.0000 H   0  0  0  0  0  0  0  0  0  0  0  0
    4.2690    2.9050    0.0000 H   0  0  0  0  0  0  0  0  0  0  0  0
    3.1951    2.9050    0.0000 H   0  0  0  0  0  0  0  0  0  0  0  0
  1 11  1  0  0  0  0
  2  4  1  0  0  0  0
  2 19  1  0  0  0  0
  3  6  1  0  0  0  0
  3 20  1  0  0  0  0
  3 21  1  0  0  0  0
  4  5  1  0  0  0  0
  4  6  1  0  0  0  0
  4 12  1  0  0  0  0
  5  7  2  0  0  0  0
  5  8  1  0  0  0  0
  6 13  1  0  0  0  0
  6 14  1  0  0  0  0
  7  9  1  0  0  0  0
  7 15  1  0  0  0  0
  8 10  2  0  0  0  0
  8 16  1  0  0  0  0
  9 11  2  0  0  0  0
  9 17  1  0  0  0  0
 10 11  1  0  0  0  0
 10 18  1  0  0  0  0
M  END
> <PUBCHEM_COMPOUND_CID>
9827

> <PUBCHEM_COMPOUND_CANONICALIZED>
1

> <PUBCHEM_CACTVS_COMPLEXITY>
113

> <PUBCHEM_CACTVS_HBOND_ACCEPTOR>
3

> <PUBCHEM_CACTVS_HBOND_DONOR>
2

> <PUBCHEM_CACTVS_ROTATABLE_BOND>
2

> <PUBCHEM_CACTVS_SUBSKEYS>
AAADccByIQAAAAAAAAAAAAAAAAAAAAAAAAAwAAAAAAAAAAABAAAAHwAQCAAADBThmA4wAIBAAgCAAiBCAAACAAAgAAAIiIAACIgKNiKAkRGAcAAk0AEImAeQwKAOAAAAAAAAAAAAAAAAAAAAAAAAAAAAAA==

> <PUBCHEM_IUPAC_OPENEYE_NAME>
2-amino-1-(4-fluorophenyl)ethanol

> <PUBCHEM_IUPAC_CAS_NAME>
2-amino-1-(4-fluorophenyl)ethanol

> <PUBCHEM_IUPAC_NAME>
2-amino-1-(4-fluorophenyl)ethanol

> <PUBCHEM_IUPAC_SYSTEMATIC_NAME>
2-azanyl-1-(4-fluorophenyl)ethanol

> <PUBCHEM_IUPAC_TRADITIONAL_NAME>
2-amino-1-(4-fluorophenyl)ethanol

> <PUBCHEM_IUPAC_INCHI>
InChI=1S/C8H10FNO/c9-7-3-1-6(2-4-7)8(11)5-10/h1-4,8,11H,5,10H2

> <PUBCHEM_IUPAC_INCHIKEY>
LPKXWVNNGWDLMT-UHFFFAOYSA-N

> <PUBCHEM_XLOGP3_AA>
0.2

> <PUBCHEM_EXACT_MASS>
155.074642

> <PUBCHEM_MOLECULAR_FORMULA>
C8H10FNO

> <PUBCHEM_MOLECULAR_WEIGHT>
155.169503

> <PUBCHEM_OPENEYE_CAN_SMILES>
C1=CC(=CC=C1C(CN)O)F

> <PUBCHEM_OPENEYE_ISO_SMILES>
C1=CC(=CC=C1C(CN)O)F

> <PUBCHEM_CACTVS_TPSA>
46.2

> <PUBCHEM_MONOISOTOPIC_WEIGHT>
155.074642

> <PUBCHEM_TOTAL_CHARGE>
0

> <PUBCHEM_HEAVY_ATOM_COUNT>
11

> <PUBCHEM_ATOM_DEF_STEREO_COUNT>
0

> <PUBCHEM_ATOM_UDEF_STEREO_COUNT>
1

> <PUBCHEM_BOND_DEF_STEREO_COUNT>
0

> <PUBCHEM_BOND_UDEF_STEREO_COUNT>
0

> <PUBCHEM_ISOTOPIC_ATOM_COUNT>
0

> <PUBCHEM_COMPONENT_COUNT>
1

> <PUBCHEM_CACTVS_TAUTO_COUNT>
1

> <PUBCHEM_COORDINATE_TYPE>
1
5
255

> <PUBCHEM_BONDANNOTATIONS>
10  11  8
4  12  3
5  7  8
5  8  8
7  9  8
8  10  8
9  11  8

$$$$

