12837
  -OEChem-06261207263D

 30 31  0     0  0  0  0  0  0999 V2000
   -0.1036    1.8713   -0.9412 O   0  0  0  0  0  0  0  0  0  0  0  0
   -1.1642   -0.0233    0.0269 C   0  0  0  0  0  0  0  0  0  0  0  0
   -1.9794    0.7569    1.0606 C   0  0  0  0  0  0  0  0  0  0  0  0
   -2.0090   -0.3813   -1.1979 C   0  0  0  0  0  0  0  0  0  0  0  0
   -3.2568    0.0163    1.4474 C   0  0  0  0  0  0  0  0  0  0  0  0
   -3.2865   -1.1190   -0.8060 C   0  0  0  0  0  0  0  0  0  0  0  0
   -4.0962   -0.3355    0.2228 C   0  0  0  0  0  0  0  0  0  0  0  0
    0.0309    0.7795   -0.3933 C   0  0  0  0  0  0  0  0  0  0  0  0
    1.3948    0.2364   -0.1377 C   0  0  0  0  0  0  0  0  0  0  0  0
    1.5722   -1.1292   -0.1282 C   0  0  0  0  0  0  0  0  0  0  0  0
    2.4284    1.1203    0.0801 C   0  0  0  0  0  0  0  0  0  0  0  0
    2.8489   -1.6374    0.1114 C   0  0  0  0  0  0  0  0  0  0  0  0
    3.7051    0.6121    0.3197 C   0  0  0  0  0  0  0  0  0  0  0  0
    3.9153   -0.7668    0.3354 C   0  0  0  0  0  0  0  0  0  0  0  0
   -0.8678   -0.9516    0.5237 H   0  0  0  0  0  0  0  0  0  0  0  0
   -2.2454    1.7466    0.6668 H   0  0  0  0  0  0  0  0  0  0  0  0
   -1.3740    0.9363    1.9577 H   0  0  0  0  0  0  0  0  0  0  0  0
   -1.4249   -1.0033   -1.8873 H   0  0  0  0  0  0  0  0  0  0  0  0
   -2.2768    0.5266   -1.7540 H   0  0  0  0  0  0  0  0  0  0  0  0
   -3.8471    0.6338    2.1338 H   0  0  0  0  0  0  0  0  0  0  0  0
   -2.9968   -0.9022    1.9879 H   0  0  0  0  0  0  0  0  0  0  0  0
   -3.0279   -2.1026   -0.3947 H   0  0  0  0  0  0  0  0  0  0  0  0
   -3.8976   -1.2972   -1.6981 H   0  0  0  0  0  0  0  0  0  0  0  0
   -4.9690   -0.9225    0.5301 H   0  0  0  0  0  0  0  0  0  0  0  0
   -4.4756    0.5856   -0.2363 H   0  0  0  0  0  0  0  0  0  0  0  0
    0.7794   -1.8373   -0.3418 H   0  0  0  0  0  0  0  0  0  0  0  0
    2.2775    2.1954    0.0754 H   0  0  0  0  0  0  0  0  0  0  0  0
    3.0153   -2.7108    0.1135 H   0  0  0  0  0  0  0  0  0  0  0  0
    4.5356    1.2899    0.4947 H   0  0  0  0  0  0  0  0  0  0  0  0
    4.9099   -1.1623    0.5199 H   0  0  0  0  0  0  0  0  0  0  0  0
  1  8  2  0  0  0  0
  2  3  1  0  0  0  0
  2  4  1  0  0  0  0
  2  8  1  0  0  0  0
  2 15  1  0  0  0  0
  3  5  1  0  0  0  0
  3 16  1  0  0  0  0
  3 17  1  0  0  0  0
  4  6  1  0  0  0  0
  4 18  1  0  0  0  0
  4 19  1  0  0  0  0
  5  7  1  0  0  0  0
  5 20  1  0  0  0  0
  5 21  1  0  0  0  0
  6  7  1  0  0  0  0
  6 22  1  0  0  0  0
  6 23  1  0  0  0  0
  7 24  1  0  0  0  0
  7 25  1  0  0  0  0
  8  9  1  0  0  0  0
  9 10  2  0  0  0  0
  9 11  1  0  0  0  0
 10 12  1  0  0  0  0
 10 26  1  0  0  0  0
 11 13  2  0  0  0  0
 11 27  1  0  0  0  0
 12 14  2  0  0  0  0
 12 28  1  0  0  0  0
 13 14  1  0  0  0  0
 13 29  1  0  0  0  0
 14 30  1  0  0  0  0
M  END
> <PUBCHEM_COMPOUND_CID>
12837

> <PUBCHEM_CONFORMER_RMSD>
0.6

> <PUBCHEM_CONFORMER_DIVERSEORDER>
3
15
8
4
16
5
13
11
1
9
6
14
18
10
17
12
2
7

> <PUBCHEM_MMFF94_PARTIAL_CHARGES>
14
1 -0.57
10 -0.15
11 -0.15
12 -0.15
13 -0.15
14 -0.15
2 0.06
26 0.15
27 0.15
28 0.15
29 0.15
30 0.15
8 0.42
9 0.09

> <PUBCHEM_EFFECTIVE_ROTOR_COUNT>
3.2

> <PUBCHEM_PHARMACOPHORE_FEATURES>
3
1 1 acceptor
6 2 3 4 5 6 7 rings
6 9 10 11 12 13 14 rings

> <PUBCHEM_HEAVY_ATOM_COUNT>
14

> <PUBCHEM_ATOM_DEF_STEREO_COUNT>
0

> <PUBCHEM_ATOM_UDEF_STEREO_COUNT>
0

> <PUBCHEM_BOND_DEF_STEREO_COUNT>
0

> <PUBCHEM_BOND_UDEF_STEREO_COUNT>
0

> <PUBCHEM_ISOTOPIC_ATOM_COUNT>
0

> <PUBCHEM_COMPONENT_COUNT>
1

> <PUBCHEM_CACTVS_TAUTO_COUNT>
2

> <PUBCHEM_CONFORMER_ID>
0000322500000003

> <PUBCHEM_MMFF94_ENERGY>
29.5916

> <PUBCHEM_FEATURE_SELFOVERLAP>
15.223

> <PUBCHEM_SHAPE_FINGERPRINT>
10219947 1 18343301435874489884
10618630 7 18201437008172113916
11132069 177 18260275156877290242
11543360 7 13973672928124598082
11578080 2 17825421572441815417
12032990 46 18060698398730146826
12119455 92 5473140700210099485
12236239 1 18113617867974486503
12251169 10 18040997357973545522
12932764 1 18260546736101774772
13296908 3 18060142058683856391
13581323 91 17168144541957709735
13693222 15 18412548729778831194
13705890 14 16200151023698433922
13764800 53 15068612812385458651
14144814 61 18040434399366938099
14251717 144 18411422786827577918
14252887 29 18343857823123209906
14386348 63 17561360677685973379
14445660 50 17967810556914519707
15375358 24 17846787290570359315
15375462 189 18259985967891331474
15501101 241 18411420596600089308
15775835 57 17821441357058889907
16945 1 18343021082211245644
17844478 74 18201437016909903996
19050596 39 18040998436031585538
19422 9 18040434390993430830
200 152 18334304153952365111
20201158 50 17632295678878540555
20279233 1 17346600767945277387
20281407 28 18201718474506155390
20281475 54 18409168826856378494
20361792 2 18202281407332500821
20645477 70 18341344378023142599
20671657 53 16415759738861305652
20711985 344 17273430575525103532
20871998 22 18265608956571751806
20871999 31 13686294643867995899
22445834 79 18259702324003712723
22485316 2 18343023298071595899
2255824 54 18336825274054229284
23402539 116 17918000498681020492
23557571 272 15985110703863755596
23559900 14 16370988746317420860
26918003 58 18343021086242514619
2748010 2 18124045773907500276
474 4 17972890163613311720
581208 293 18412829062484099722
77492 1 18113896027041226933
81228 2 17631455742184549565
83771 10 18343020012268497268
90316 7 17676198109077258009

> <PUBCHEM_SHAPE_MULTIPOLES>
282.24
7.54
1.45
1.07
0.14
0.04
0.07
1.68
1.51
-0.65
-0.18
0.88
-0.11
-0.57

> <PUBCHEM_SHAPE_SELFOVERLAP>
591.613

> <PUBCHEM_SHAPE_VOLUME>
158

> <PUBCHEM_COORDINATE_TYPE>
2
5
10

$$$$

