9660
  -OEChem-06261203553D

 23 22  0     0  0  0  0  0  0999 V2000
    0.0122    0.3117   -0.1090 Si  0  0  0  0  0  0  0  0  0  0  0  0
    0.0293    1.3300   -1.3458 F   0  0  0  0  0  0  0  0  0  0  0  0
   -0.0144   -1.4107   -0.8018 C   0  0  0  0  0  0  0  0  0  0  0  0
   -1.5163    0.6631    0.8849 C   0  0  0  0  0  0  0  0  0  0  0  0
    1.5495    0.6149    0.8873 C   0  0  0  0  0  0  0  0  0  0  0  0
   -0.0907   -2.5324    0.2257 C   0  0  0  0  0  0  0  0  0  0  0  0
   -2.8332    0.5566    0.1271 C   0  0  0  0  0  0  0  0  0  0  0  0
    2.8635    0.4669    0.1315 C   0  0  0  0  0  0  0  0  0  0  0  0
   -0.8694   -1.5054   -1.4812 H   0  0  0  0  0  0  0  0  0  0  0  0
    0.8806   -1.5617   -1.4161 H   0  0  0  0  0  0  0  0  0  0  0  0
   -1.5512   -0.0178    1.7430 H   0  0  0  0  0  0  0  0  0  0  0  0
   -1.4393    1.6752    1.2989 H   0  0  0  0  0  0  0  0  0  0  0  0
    1.5037    1.6287    1.3017 H   0  0  0  0  0  0  0  0  0  0  0  0
    1.5614   -0.0675    1.7450 H   0  0  0  0  0  0  0  0  0  0  0  0
   -0.0983   -3.5041   -0.2793 H   0  0  0  0  0  0  0  0  0  0  0  0
    0.7691   -2.5153    0.9045 H   0  0  0  0  0  0  0  0  0  0  0  0
   -1.0014   -2.4636    0.8304 H   0  0  0  0  0  0  0  0  0  0  0  0
   -3.6697    0.7984    0.7913 H   0  0  0  0  0  0  0  0  0  0  0  0
   -2.8660    1.2503   -0.7202 H   0  0  0  0  0  0  0  0  0  0  0  0
   -2.9944   -0.4562   -0.2579 H   0  0  0  0  0  0  0  0  0  0  0  0
    3.7061    0.6841    0.7965 H   0  0  0  0  0  0  0  0  0  0  0  0
    2.9946   -0.5511   -0.2513 H   0  0  0  0  0  0  0  0  0  0  0  0
    2.9187    1.1578   -0.7169 H   0  0  0  0  0  0  0  0  0  0  0  0
  1  2  1  0  0  0  0
  1  3  1  0  0  0  0
  1  4  1  0  0  0  0
  1  5  1  0  0  0  0
  3  6  1  0  0  0  0
  3  9  1  0  0  0  0
  3 10  1  0  0  0  0
  4  7  1  0  0  0  0
  4 11  1  0  0  0  0
  4 12  1  0  0  0  0
  5  8  1  0  0  0  0
  5 13  1  0  0  0  0
  5 14  1  0  0  0  0
  6 15  1  0  0  0  0
  6 16  1  0  0  0  0
  6 17  1  0  0  0  0
  7 18  1  0  0  0  0
  7 19  1  0  0  0  0
  7 20  1  0  0  0  0
  8 21  1  0  0  0  0
  8 22  1  0  0  0  0
  8 23  1  0  0  0  0
M  END
> <PUBCHEM_COMPOUND_CID>
9660

> <PUBCHEM_CONFORMER_RMSD>
0.6

> <PUBCHEM_CONFORMER_DIVERSEORDER>
1
11
4
5
8
6
10
7
9
2
3

> <PUBCHEM_MMFF94_PARTIAL_CHARGES>
5
1 0.65
2 -0.41
3 -0.08
4 -0.08
5 -0.08

> <PUBCHEM_EFFECTIVE_ROTOR_COUNT>
3

> <PUBCHEM_PHARMACOPHORE_FEATURES>
0

> <PUBCHEM_HEAVY_ATOM_COUNT>
8

> <PUBCHEM_ATOM_DEF_STEREO_COUNT>
0

> <PUBCHEM_ATOM_UDEF_STEREO_COUNT>
0

> <PUBCHEM_BOND_DEF_STEREO_COUNT>
0

> <PUBCHEM_BOND_UDEF_STEREO_COUNT>
0

> <PUBCHEM_ISOTOPIC_ATOM_COUNT>
0

> <PUBCHEM_COMPONENT_COUNT>
1

> <PUBCHEM_CACTVS_TAUTO_COUNT>
1

> <PUBCHEM_CONFORMER_ID>
000025BC00000001

> <PUBCHEM_MMFF94_ENERGY>
-4.1386

> <PUBCHEM_FEATURE_SELFOVERLAP>
0

> <PUBCHEM_SHAPE_FINGERPRINT>
10219947 1 18272085019808516777
12423570 1 10877707544297019151
14993402 34 18271807873900273988
20653085 51 15285629959199612040
20711978 78 17829058949883750533
21040471 1 18334572408613589144
23235685 24 18333734615049840681
23552449 11 17902792195600720763
3250762 1 17550958421413813044
5084963 1 17385443223783508520
528862 383 18268156542130056442
5943 1 7161068521031648452

> <PUBCHEM_SHAPE_MULTIPOLES>
175.58
3.13
1.98
1.08
0.11
1.86
0.17
-1.43
-0.52
-0.1
-0.02
0.01
-0.19
0

> <PUBCHEM_SHAPE_SELFOVERLAP>
298.813

> <PUBCHEM_SHAPE_VOLUME>
118

> <PUBCHEM_COORDINATE_TYPE>
2
5
10

$$$$

