4373
  -OEChem-06261200042D

 69 69  0     1  0  0  0  0  0999 V2000
   13.0878    5.0250    0.0000 Cl  0  0  0  0  0  0  0  0  0  0  0  0
    9.1641    2.6575    0.0000 O   0  0  0  0  0  0  0  0  0  0  0  0
    8.0622    1.8569    0.0000 O   0  0  0  0  0  0  0  0  0  0  0  0
   11.1857    5.6431    0.0000 O   0  0  0  0  0  0  0  0  0  0  0  0
    4.5981    0.8569    0.0000 O   0  0  0  0  0  0  0  0  0  0  0  0
    5.4641   -2.6431    0.0000 O   0  0  0  0  0  0  0  0  0  0  0  0
    2.8660   -5.1431    0.0000 O   0  0  0  0  0  0  0  0  0  0  0  0
    2.0000   -3.6431    0.0000 O   0  0  0  0  0  0  0  0  0  0  0  0
    7.1962    3.3569    0.0000 N   0  0  0  0  0  0  0  0  0  0  0  0
    9.6994    4.3048    0.0000 N   0  0  0  0  0  0  0  0  0  0  0  0
    6.3301    0.8569    0.0000 N   0  0  0  0  0  0  0  0  0  0  0  0
    4.5981   -1.1431    0.0000 N   0  0  0  0  0  0  0  0  0  0  0  0
    8.0052    3.9447    0.0000 C   0  0  3  0  0  0  0  0  0  0  0  0
    7.6962    4.8958    0.0000 C   0  0  0  0  0  0  0  0  0  0  0  0
    6.6962    4.8958    0.0000 C   0  0  0  0  0  0  0  0  0  0  0  0
    6.3871    3.9447    0.0000 C   0  0  0  0  0  0  0  0  0  0  0  0
    8.9562    3.6357    0.0000 C   0  0  0  0  0  0  0  0  0  0  0  0
    7.1962    2.3569    0.0000 C   0  0  0  0  0  0  0  0  0  0  0  0
    6.3301    1.8569    0.0000 C   0  0  3  0  0  0  0  0  0  0  0  0
   10.6504    3.9958    0.0000 C   0  0  3  0  0  0  0  0  0  0  0  0
   10.8583    3.0176    0.0000 C   0  0  0  0  0  0  0  0  0  0  0  0
    5.4641    2.3569    0.0000 C   0  0  0  0  0  0  0  0  0  0  0  0
   11.3936    4.6649    0.0000 C   0  0  0  0  0  0  0  0  0  0  0  0
   11.8094    2.7086    0.0000 C   0  0  0  0  0  0  0  0  0  0  0  0
   10.1152    2.3485    0.0000 C   0  0  0  0  0  0  0  0  0  0  0  0
    5.4641    0.3569    0.0000 C   0  0  0  0  0  0  0  0  0  0  0  0
   12.3446    4.3559    0.0000 C   0  0  0  0  0  0  0  0  0  0  0  0
    5.4641   -0.6431    0.0000 C   0  0  3  0  0  0  0  0  0  0  0  0
    6.3301   -1.1431    0.0000 C   0  0  0  0  0  0  0  0  0  0  0  0
    4.5981   -2.1431    0.0000 C   0  0  0  0  0  0  0  0  0  0  0  0
    3.7320   -2.6431    0.0000 C   0  0  0  0  0  0  0  0  0  0  0  0
    3.7320   -3.6431    0.0000 C   0  0  0  0  0  0  0  0  0  0  0  0
    2.8660   -4.1431    0.0000 C   0  0  0  0  0  0  0  0  0  0  0  0
    2.0000   -5.6431    0.0000 C   0  0  0  0  0  0  0  0  0  0  0  0
    8.1022    3.3323    0.0000 H   0  0  0  0  0  0  0  0  0  0  0  0
    8.3026    5.0247    0.0000 H   0  0  0  0  0  0  0  0  0  0  0  0
    7.6313    5.5124    0.0000 H   0  0  0  0  0  0  0  0  0  0  0  0
    6.7610    5.5124    0.0000 H   0  0  0  0  0  0  0  0  0  0  0  0
    6.0897    5.0247    0.0000 H   0  0  0  0  0  0  0  0  0  0  0  0
    5.8207    4.1969    0.0000 H   0  0  0  0  0  0  0  0  0  0  0  0
    6.0771    3.4078    0.0000 H   0  0  0  0  0  0  0  0  0  0  0  0
    6.8671    1.5469    0.0000 H   0  0  0  0  0  0  0  0  0  0  0  0
   10.5215    4.6022    0.0000 H   0  0  0  0  0  0  0  0  0  0  0  0
    9.5705    4.9113    0.0000 H   0  0  0  0  0  0  0  0  0  0  0  0
   11.3191    3.4325    0.0000 H   0  0  0  0  0  0  0  0  0  0  0  0
    5.7741    2.8939    0.0000 H   0  0  0  0  0  0  0  0  0  0  0  0
    4.9272    2.6669    0.0000 H   0  0  0  0  0  0  0  0  0  0  0  0
    5.1541    1.8200    0.0000 H   0  0  0  0  0  0  0  0  0  0  0  0
    6.8671    0.5469    0.0000 H   0  0  0  0  0  0  0  0  0  0  0  0
   11.6178    2.1190    0.0000 H   0  0  0  0  0  0  0  0  0  0  0  0
   12.3991    2.5170    0.0000 H   0  0  0  0  0  0  0  0  0  0  0  0
   12.0010    3.2983    0.0000 H   0  0  0  0  0  0  0  0  0  0  0  0
    9.7003    2.8093    0.0000 H   0  0  0  0  0  0  0  0  0  0  0  0
    9.6544    1.9337    0.0000 H   0  0  0  0  0  0  0  0  0  0  0  0
   10.5301    1.8878    0.0000 H   0  0  0  0  0  0  0  0  0  0  0  0
   12.0536    3.8085    0.0000 H   0  0  0  0  0  0  0  0  0  0  0  0
   12.8332    3.9742    0.0000 H   0  0  0  0  0  0  0  0  0  0  0  0
    5.4641   -1.2631    0.0000 H   0  0  0  0  0  0  0  0  0  0  0  0
    6.0201   -1.6800    0.0000 H   0  0  0  0  0  0  0  0  0  0  0  0
    6.8671   -1.4531    0.0000 H   0  0  0  0  0  0  0  0  0  0  0  0
    6.6401   -0.6061    0.0000 H   0  0  0  0  0  0  0  0  0  0  0  0
    4.0611   -0.8331    0.0000 H   0  0  0  0  0  0  0  0  0  0  0  0
    3.5200   -2.0605    0.0000 H   0  0  0  0  0  0  0  0  0  0  0  0
    3.1215   -2.7507    0.0000 H   0  0  0  0  0  0  0  0  0  0  0  0
    3.9441   -4.2257    0.0000 H   0  0  0  0  0  0  0  0  0  0  0  0
    4.3426   -3.5354    0.0000 H   0  0  0  0  0  0  0  0  0  0  0  0
    1.6900   -5.1061    0.0000 H   0  0  0  0  0  0  0  0  0  0  0  0
    1.4631   -5.9531    0.0000 H   0  0  0  0  0  0  0  0  0  0  0  0
    2.3100   -6.1800    0.0000 H   0  0  0  0  0  0  0  0  0  0  0  0
  1 27  1  0  0  0  0
  2 17  2  0  0  0  0
  3 18  2  0  0  0  0
  4 23  2  0  0  0  0
  5 26  2  0  0  0  0
  6 30  2  0  0  0  0
  7 33  1  0  0  0  0
  7 34  1  0  0  0  0
  8 33  2  0  0  0  0
  9 13  1  0  0  0  0
  9 16  1  0  0  0  0
  9 18  1  0  0  0  0
 10 17  1  0  0  0  0
 10 20  1  0  0  0  0
 10 44  1  0  0  0  0
 11 19  1  0  0  0  0
 11 26  1  0  0  0  0
 11 49  1  0  0  0  0
 12 28  1  0  0  0  0
 12 30  1  0  0  0  0
 12 62  1  0  0  0  0
 13 14  1  0  0  0  0
 13 17  1  0  0  0  0
 13 35  1  0  0  0  0
 14 15  1  0  0  0  0
 14 36  1  0  0  0  0
 14 37  1  0  0  0  0
 15 16  1  0  0  0  0
 15 38  1  0  0  0  0
 15 39  1  0  0  0  0
 16 40  1  0  0  0  0
 16 41  1  0  0  0  0
 18 19  1  0  0  0  0
 19 22  1  0  0  0  0
 19 42  1  0  0  0  0
 20 21  1  0  0  0  0
 20 23  1  0  0  0  0
 20 43  1  0  0  0  0
 21 24  1  0  0  0  0
 21 25  1  0  0  0  0
 21 45  1  0  0  0  0
 22 46  1  0  0  0  0
 22 47  1  0  0  0  0
 22 48  1  0  0  0  0
 23 27  1  0  0  0  0
 24 50  1  0  0  0  0
 24 51  1  0  0  0  0
 24 52  1  0  0  0  0
 25 53  1  0  0  0  0
 25 54  1  0  0  0  0
 25 55  1  0  0  0  0
 26 28  1  0  0  0  0
 27 56  1  0  0  0  0
 27 57  1  0  0  0  0
 28 29  1  0  0  0  0
 28 58  1  0  0  0  0
 29 59  1  0  0  0  0
 29 60  1  0  0  0  0
 29 61  1  0  0  0  0
 30 31  1  0  0  0  0
 31 32  1  0  0  0  0
 31 63  1  0  0  0  0
 31 64  1  0  0  0  0
 32 33  1  0  0  0  0
 32 65  1  0  0  0  0
 32 66  1  0  0  0  0
 34 67  1  0  0  0  0
 34 68  1  0  0  0  0
 34 69  1  0  0  0  0
M  END
> <PUBCHEM_COMPOUND_CID>
4373

> <PUBCHEM_COMPOUND_CANONICALIZED>
1

> <PUBCHEM_CACTVS_COMPLEXITY>
789

> <PUBCHEM_CACTVS_HBOND_ACCEPTOR>
7

> <PUBCHEM_CACTVS_HBOND_DONOR>
3

> <PUBCHEM_CACTVS_ROTATABLE_BOND>
13

> <PUBCHEM_CACTVS_SUBSKEYS>
AAADcfB7uAAEAAAAAAAAAAAAAAAAAWAAAAAAAAAAAAAAAAAAAAAAHgIQAAAADS/BgEYCCAPABAAIAIGQGAAAAAAAAAAAAIGIAgBAQBIBgCAUAAAEFgCAAAA/AQAMAAAAAAAAAAAAAAAAAAAAAAAAAAAAAA==

> <PUBCHEM_IUPAC_OPENEYE_NAME>
methyl 4-[[2-[[2-[2-[(3-chloro-1-isopropyl-2-oxo-propyl)carbamoyl]pyrrolidin-1-yl]-1-methyl-2-oxo-ethyl]amino]-1-methyl-2-oxo-ethyl]amino]-4-oxo-butanoate

> <PUBCHEM_IUPAC_CAS_NAME>
4-[[1-[[1-[2-[[(1-chloro-4-methyl-2-oxopentan-3-yl)amino]-oxomethyl]-1-pyrrolidinyl]-1-oxopropan-2-yl]amino]-1-oxopropan-2-yl]amino]-4-oxobutanoic acid methyl ester

> <PUBCHEM_IUPAC_NAME>
methyl 4-[[1-[[1-[2-[(1-chloro-4-methyl-2-oxopentan-3-yl)carbamoyl]pyrrolidin-1-yl]-1-oxopropan-2-yl]amino]-1-oxopropan-2-yl]amino]-4-oxobutanoate

> <PUBCHEM_IUPAC_SYSTEMATIC_NAME>
methyl 4-[[1-[[1-[2-[(1-chloranyl-4-methyl-2-oxidanylidene-pentan-3-yl)carbamoyl]pyrrolidin-1-yl]-1-oxidanylidene-propan-2-yl]amino]-1-oxidanylidene-propan-2-yl]amino]-4-oxidanylidene-butanoate

> <PUBCHEM_IUPAC_TRADITIONAL_NAME>
4-[[2-[[2-[2-[(3-chloro-1-isopropyl-2-keto-propyl)carbamoyl]pyrrolidino]-2-keto-1-methyl-ethyl]amino]-2-keto-1-methyl-ethyl]amino]-4-keto-butyric acid methyl ester

> <PUBCHEM_IUPAC_INCHI>
InChI=1S/C22H35ClN4O7/c1-12(2)19(16(28)11-23)26-21(32)15-7-6-10-27(15)22(33)14(4)25-20(31)13(3)24-17(29)8-9-18(30)34-5/h12-15,19H,6-11H2,1-5H3,(H,24,29)(H,25,31)(H,26,32)

> <PUBCHEM_IUPAC_INCHIKEY>
PJGDFLJMBAYGGC-UHFFFAOYSA-N

> <PUBCHEM_XLOGP3>
0.1

> <PUBCHEM_EXACT_MASS>
502.219427

> <PUBCHEM_MOLECULAR_FORMULA>
C22H35ClN4O7

> <PUBCHEM_MOLECULAR_WEIGHT>
502.9889

> <PUBCHEM_OPENEYE_CAN_SMILES>
CC(C)C(C(=O)CCl)NC(=O)C1CCCN1C(=O)C(C)NC(=O)C(C)NC(=O)CCC(=O)OC

> <PUBCHEM_OPENEYE_ISO_SMILES>
CC(C)C(C(=O)CCl)NC(=O)C1CCCN1C(=O)C(C)NC(=O)C(C)NC(=O)CCC(=O)OC

> <PUBCHEM_CACTVS_TPSA>
151

> <PUBCHEM_MONOISOTOPIC_WEIGHT>
502.219427

> <PUBCHEM_TOTAL_CHARGE>
0

> <PUBCHEM_HEAVY_ATOM_COUNT>
34

> <PUBCHEM_ATOM_DEF_STEREO_COUNT>
0

> <PUBCHEM_ATOM_UDEF_STEREO_COUNT>
4

> <PUBCHEM_BOND_DEF_STEREO_COUNT>
0

> <PUBCHEM_BOND_UDEF_STEREO_COUNT>
0

> <PUBCHEM_ISOTOPIC_ATOM_COUNT>
0

> <PUBCHEM_COMPONENT_COUNT>
1

> <PUBCHEM_CACTVS_TAUTO_COUNT>
24

> <PUBCHEM_COORDINATE_TYPE>
1
5
255

> <PUBCHEM_BONDANNOTATIONS>
13  17  3
19  22  3
20  23  3
28  29  3

$$$$

