3865
  -OEChem-06251223442D

 66 65  0     1  0  0  0  0  0999 V2000
    3.4030   -1.3450    0.0000 P   0  0  0  0  0  0  0  0  0  0  0  0
    6.0010    0.1550    0.0000 O   0  0  0  0  0  0  0  0  0  0  0  0
    3.4030   -0.3450    0.0000 O   0  0  0  0  0  0  0  0  0  0  0  0
    2.5369    1.1550    0.0000 O   0  0  0  0  0  0  0  0  0  0  0  0
    3.4030    2.6550    0.0000 O   0  0  0  0  0  0  0  0  0  0  0  0
    3.4030   -2.3450    0.0000 O   0  0  0  0  0  0  0  0  0  0  0  0
    2.4030   -1.3450    0.0000 O   0  0  0  0  0  0  0  0  0  0  0  0
    4.4030   -1.3450    0.0000 O   0  0  0  0  0  0  0  0  0  0  0  0
    5.1350    1.6550    0.0000 N   0  0  0  0  0  0  0  0  0  0  0  0
   12.0632    1.6550    0.0000 C   0  0  0  0  0  0  0  0  0  0  0  0
   12.9292    1.1550    0.0000 C   0  0  0  0  0  0  0  0  0  0  0  0
   11.1972    1.1550    0.0000 C   0  0  0  0  0  0  0  0  0  0  0  0
   13.7953    1.6550    0.0000 C   0  0  0  0  0  0  0  0  0  0  0  0
   10.3312    1.6550    0.0000 C   0  0  0  0  0  0  0  0  0  0  0  0
   14.6613    1.1550    0.0000 C   0  0  0  0  0  0  0  0  0  0  0  0
    9.4651    1.1550    0.0000 C   0  0  0  0  0  0  0  0  0  0  0  0
   15.5273    1.6550    0.0000 C   0  0  0  0  0  0  0  0  0  0  0  0
    8.5991    1.6550    0.0000 C   0  0  0  0  0  0  0  0  0  0  0  0
   16.3933    1.1550    0.0000 C   0  0  0  0  0  0  0  0  0  0  0  0
    7.7331    1.1550    0.0000 C   0  0  0  0  0  0  0  0  0  0  0  0
   17.2594    1.6550    0.0000 C   0  0  0  0  0  0  0  0  0  0  0  0
    6.8671    1.6550    0.0000 C   0  0  0  0  0  0  0  0  0  0  0  0
   18.1254    1.1550    0.0000 C   0  0  0  0  0  0  0  0  0  0  0  0
    6.0010    1.1550    0.0000 C   0  0  0  0  0  0  0  0  0  0  0  0
   18.9914    1.6550    0.0000 C   0  0  0  0  0  0  0  0  0  0  0  0
    4.2690    1.1550    0.0000 C   0  0  3  0  0  0  0  0  0  0  0  0
    4.2690    0.1550    0.0000 C   0  0  0  0  0  0  0  0  0  0  0  0
    3.4030    1.6550    0.0000 C   0  0  0  0  0  0  0  0  0  0  0  0
   12.4617    2.1300    0.0000 H   0  0  0  0  0  0  0  0  0  0  0  0
   11.6647    2.1300    0.0000 H   0  0  0  0  0  0  0  0  0  0  0  0
   12.5307    0.6801    0.0000 H   0  0  0  0  0  0  0  0  0  0  0  0
   13.3278    0.6801    0.0000 H   0  0  0  0  0  0  0  0  0  0  0  0
   10.7987    0.6801    0.0000 H   0  0  0  0  0  0  0  0  0  0  0  0
   11.5957    0.6801    0.0000 H   0  0  0  0  0  0  0  0  0  0  0  0
   14.1938    2.1300    0.0000 H   0  0  0  0  0  0  0  0  0  0  0  0
   13.3967    2.1300    0.0000 H   0  0  0  0  0  0  0  0  0  0  0  0
   10.7297    2.1300    0.0000 H   0  0  0  0  0  0  0  0  0  0  0  0
    9.9326    2.1300    0.0000 H   0  0  0  0  0  0  0  0  0  0  0  0
   14.2628    0.6801    0.0000 H   0  0  0  0  0  0  0  0  0  0  0  0
   15.0598    0.6801    0.0000 H   0  0  0  0  0  0  0  0  0  0  0  0
    9.0666    0.6801    0.0000 H   0  0  0  0  0  0  0  0  0  0  0  0
    9.8637    0.6801    0.0000 H   0  0  0  0  0  0  0  0  0  0  0  0
   15.9258    2.1300    0.0000 H   0  0  0  0  0  0  0  0  0  0  0  0
   15.1288    2.1300    0.0000 H   0  0  0  0  0  0  0  0  0  0  0  0
    8.9976    2.1300    0.0000 H   0  0  0  0  0  0  0  0  0  0  0  0
    8.2006    2.1300    0.0000 H   0  0  0  0  0  0  0  0  0  0  0  0
   15.9948    0.6801    0.0000 H   0  0  0  0  0  0  0  0  0  0  0  0
   16.7919    0.6801    0.0000 H   0  0  0  0  0  0  0  0  0  0  0  0
    7.3346    0.6801    0.0000 H   0  0  0  0  0  0  0  0  0  0  0  0
    8.1316    0.6801    0.0000 H   0  0  0  0  0  0  0  0  0  0  0  0
   17.6579    2.1300    0.0000 H   0  0  0  0  0  0  0  0  0  0  0  0
   16.8608    2.1300    0.0000 H   0  0  0  0  0  0  0  0  0  0  0  0
    7.2656    2.1300    0.0000 H   0  0  0  0  0  0  0  0  0  0  0  0
    6.4685    2.1300    0.0000 H   0  0  0  0  0  0  0  0  0  0  0  0
   17.7269    0.6801    0.0000 H   0  0  0  0  0  0  0  0  0  0  0  0
   18.5239    0.6801    0.0000 H   0  0  0  0  0  0  0  0  0  0  0  0
   19.3014    1.1181    0.0000 H   0  0  0  0  0  0  0  0  0  0  0  0
   19.5284    1.9650    0.0000 H   0  0  0  0  0  0  0  0  0  0  0  0
   18.6814    2.1919    0.0000 H   0  0  0  0  0  0  0  0  0  0  0  0
    5.1350    2.2750    0.0000 H   0  0  0  0  0  0  0  0  0  0  0  0
    4.2690    1.7750    0.0000 H   0  0  0  0  0  0  0  0  0  0  0  0
    4.4810   -0.4276    0.0000 H   0  0  0  0  0  0  0  0  0  0  0  0
    4.8796    0.2627    0.0000 H   0  0  0  0  0  0  0  0  0  0  0  0
    2.0000    1.4650    0.0000 H   0  0  0  0  0  0  0  0  0  0  0  0
    2.8660   -2.6550    0.0000 H   0  0  0  0  0  0  0  0  0  0  0  0
    2.0930   -1.8819    0.0000 H   0  0  0  0  0  0  0  0  0  0  0  0
  1  3  1  0  0  0  0
  1  6  1  0  0  0  0
  1  7  1  0  0  0  0
  1  8  2  0  0  0  0
  2 24  2  0  0  0  0
  3 27  1  0  0  0  0
  4 28  1  0  0  0  0
  4 64  1  0  0  0  0
  5 28  2  0  0  0  0
  6 65  1  0  0  0  0
  7 66  1  0  0  0  0
  9 24  1  0  0  0  0
  9 26  1  0  0  0  0
  9 60  1  0  0  0  0
 10 11  1  0  0  0  0
 10 12  1  0  0  0  0
 10 29  1  0  0  0  0
 10 30  1  0  0  0  0
 11 13  1  0  0  0  0
 11 31  1  0  0  0  0
 11 32  1  0  0  0  0
 12 14  1  0  0  0  0
 12 33  1  0  0  0  0
 12 34  1  0  0  0  0
 13 15  1  0  0  0  0
 13 35  1  0  0  0  0
 13 36  1  0  0  0  0
 14 16  1  0  0  0  0
 14 37  1  0  0  0  0
 14 38  1  0  0  0  0
 15 17  1  0  0  0  0
 15 39  1  0  0  0  0
 15 40  1  0  0  0  0
 16 18  1  0  0  0  0
 16 41  1  0  0  0  0
 16 42  1  0  0  0  0
 17 19  1  0  0  0  0
 17 43  1  0  0  0  0
 17 44  1  0  0  0  0
 18 20  1  0  0  0  0
 18 45  1  0  0  0  0
 18 46  1  0  0  0  0
 19 21  1  0  0  0  0
 19 47  1  0  0  0  0
 19 48  1  0  0  0  0
 20 22  1  0  0  0  0
 20 49  1  0  0  0  0
 20 50  1  0  0  0  0
 21 23  1  0  0  0  0
 21 51  1  0  0  0  0
 21 52  1  0  0  0  0
 22 24  1  0  0  0  0
 22 53  1  0  0  0  0
 22 54  1  0  0  0  0
 23 25  1  0  0  0  0
 23 55  1  0  0  0  0
 23 56  1  0  0  0  0
 25 57  1  0  0  0  0
 25 58  1  0  0  0  0
 25 59  1  0  0  0  0
 26 27  1  0  0  0  0
 26 28  1  0  0  0  0
 26 61  1  0  0  0  0
 27 62  1  0  0  0  0
 27 63  1  0  0  0  0
M  END
> <PUBCHEM_COMPOUND_CID>
3865

> <PUBCHEM_COMPOUND_CANONICALIZED>
1

> <PUBCHEM_CACTVS_COMPLEXITY>
467

> <PUBCHEM_CACTVS_HBOND_ACCEPTOR>
7

> <PUBCHEM_CACTVS_HBOND_DONOR>
4

> <PUBCHEM_CACTVS_ROTATABLE_BOND>
19

> <PUBCHEM_CACTVS_SUBSKEYS>
AAADcfB6OAIAAAAAAAAAAAAAAAAAAAAAAAAAAAAAAAAAAAAAAAAAHgAQCCAACCjhgAYCCALAAxAIQAGQGIAAAAAAAAAAAIGIAAACABYAgCAEQAABNgCQAAEYiICAAAAAAAAAAAAAAAAAAAAAAAAAAAAAAA==

> <PUBCHEM_IUPAC_OPENEYE_NAME>
2-(hexadecanoylamino)-3-phosphonooxy-propanoic acid

> <PUBCHEM_IUPAC_CAS_NAME>
2-(1-oxohexadecylamino)-3-phosphonooxypropanoic acid

> <PUBCHEM_IUPAC_NAME>
2-(hexadecanoylamino)-3-phosphonooxypropanoic acid

> <PUBCHEM_IUPAC_SYSTEMATIC_NAME>
2-(hexadecanoylamino)-3-phosphonooxy-propanoic acid

> <PUBCHEM_IUPAC_TRADITIONAL_NAME>
2-palmitamido-3-phosphonooxy-propionic acid

> <PUBCHEM_IUPAC_INCHI>
InChI=1S/C19H38NO7P/c1-2-3-4-5-6-7-8-9-10-11-12-13-14-15-18(21)20-17(19(22)23)16-27-28(24,25)26/h17H,2-16H2,1H3,(H,20,21)(H,22,23)(H2,24,25,26)

> <PUBCHEM_IUPAC_INCHIKEY>
HSMUPNYJCMYKJH-UHFFFAOYSA-N

> <PUBCHEM_XLOGP3_AA>
4.7

> <PUBCHEM_EXACT_MASS>
423.238589

> <PUBCHEM_MOLECULAR_FORMULA>
C19H38NO7P

> <PUBCHEM_MOLECULAR_WEIGHT>
423.481282

> <PUBCHEM_OPENEYE_CAN_SMILES>
CCCCCCCCCCCCCCCC(=O)NC(COP(=O)(O)O)C(=O)O

> <PUBCHEM_OPENEYE_ISO_SMILES>
CCCCCCCCCCCCCCCC(=O)NC(COP(=O)(O)O)C(=O)O

> <PUBCHEM_CACTVS_TPSA>
133

> <PUBCHEM_MONOISOTOPIC_WEIGHT>
423.238589

> <PUBCHEM_TOTAL_CHARGE>
0

> <PUBCHEM_HEAVY_ATOM_COUNT>
28

> <PUBCHEM_ATOM_DEF_STEREO_COUNT>
0

> <PUBCHEM_ATOM_UDEF_STEREO_COUNT>
1

> <PUBCHEM_BOND_DEF_STEREO_COUNT>
0

> <PUBCHEM_BOND_UDEF_STEREO_COUNT>
0

> <PUBCHEM_ISOTOPIC_ATOM_COUNT>
0

> <PUBCHEM_COMPONENT_COUNT>
1

> <PUBCHEM_CACTVS_TAUTO_COUNT>
2

> <PUBCHEM_COORDINATE_TYPE>
1
5
255

> <PUBCHEM_BONDANNOTATIONS>
26  27  3

$$$$

