17396136
  -OEChem-06241222543D

 35 37  0     1  0  0  0  0  0999 V2000
    0.1704   -2.4985   -1.5979 S   0  0  0  0  0  0  0  0  0  0  0  0
    1.9819    3.3216    0.4881 S   0  0  0  0  0  0  0  0  0  0  0  0
   -2.9168    0.5608    1.6484 S   0  0  0  0  0  0  0  0  0  0  0  0
   -0.4252    1.9937    0.6212 O   0  0  0  0  0  0  0  0  0  0  0  0
    3.7598    0.9832   -0.6188 O   0  0  0  0  0  0  0  0  0  0  0  0
    2.2946   -0.3554    0.5908 N   0  0  0  0  0  0  0  0  0  0  0  0
    0.2481    2.5069   -1.4495 N   0  0  0  0  0  0  0  0  0  0  0  0
   -0.9653    1.8515   -1.5450 N   0  0  0  0  0  0  0  0  0  0  0  0
    2.4020   -1.5427   -0.2263 C   0  0  2  0  0  0  0  0  0  0  0  0
    1.1017   -2.3157   -0.1726 C   0  0  0  0  0  0  0  0  0  0  0  0
    3.6051   -2.3815    0.1915 C   0  0  0  0  0  0  0  0  0  0  0  0
    0.5149   -2.9319    0.9108 C   0  0  0  0  0  0  0  0  0  0  0  0
    2.9872    0.8139    0.3231 C   0  0  0  0  0  0  0  0  0  0  0  0
    2.7180    1.9028    1.3349 C   0  0  0  0  0  0  0  0  0  0  0  0
   -0.7152   -3.5626    0.5661 C   0  0  0  0  0  0  0  0  0  0  0  0
   -1.0220   -3.4044   -0.7674 C   0  0  0  0  0  0  0  0  0  0  0  0
    0.5240    2.5676   -0.1677 C   0  0  0  0  0  0  0  0  0  0  0  0
   -2.5203    0.8944    0.0163 C   0  0  0  0  0  0  0  0  0  0  0  0
   -1.3202    1.5708   -0.3130 C   0  0  0  0  0  0  0  0  0  0  0  0
   -3.4828    0.4324   -0.8542 C   0  0  0  0  0  0  0  0  0  0  0  0
   -4.5601   -0.2036   -0.1723 C   0  0  0  0  0  0  0  0  0  0  0  0
   -4.3799   -0.2036    1.1934 C   0  0  0  0  0  0  0  0  0  0  0  0
    2.5859   -1.2098   -1.2564 H   0  0  0  0  0  0  0  0  0  0  0  0
    1.7149   -0.4012    1.4242 H   0  0  0  0  0  0  0  0  0  0  0  0
    3.5309   -2.6986    1.2381 H   0  0  0  0  0  0  0  0  0  0  0  0
    4.5352   -1.8118    0.0893 H   0  0  0  0  0  0  0  0  0  0  0  0
    3.6898   -3.2822   -0.4262 H   0  0  0  0  0  0  0  0  0  0  0  0
    0.9416   -2.9328    1.9058 H   0  0  0  0  0  0  0  0  0  0  0  0
    2.0573    1.5668    2.1394 H   0  0  0  0  0  0  0  0  0  0  0  0
    3.6706    2.1988    1.7850 H   0  0  0  0  0  0  0  0  0  0  0  0
   -1.3440   -4.1036    1.2612 H   0  0  0  0  0  0  0  0  0  0  0  0
   -1.8900   -3.7762   -1.2934 H   0  0  0  0  0  0  0  0  0  0  0  0
   -3.4292    0.5379   -1.9309 H   0  0  0  0  0  0  0  0  0  0  0  0
   -5.4230   -0.6394   -0.6587 H   0  0  0  0  0  0  0  0  0  0  0  0
   -5.0372   -0.6163    1.9456 H   0  0  0  0  0  0  0  0  0  0  0  0
  1 10  1  0  0  0  0
  1 16  1  0  0  0  0
  2 14  1  0  0  0  0
  2 17  1  0  0  0  0
  3 18  1  0  0  0  0
  3 22  1  0  0  0  0
  4 17  1  0  0  0  0
  4 19  1  0  0  0  0
  5 13  2  0  0  0  0
  6  9  1  0  0  0  0
  6 13  1  0  0  0  0
  6 24  1  0  0  0  0
  7  8  1  0  0  0  0
  7 17  2  0  0  0  0
  8 19  2  0  0  0  0
  9 10  1  0  0  0  0
  9 11  1  0  0  0  0
  9 23  1  0  0  0  0
 10 12  2  0  0  0  0
 11 25  1  0  0  0  0
 11 26  1  0  0  0  0
 11 27  1  0  0  0  0
 12 15  1  0  0  0  0
 12 28  1  0  0  0  0
 13 14  1  0  0  0  0
 14 29  1  0  0  0  0
 14 30  1  0  0  0  0
 15 16  2  0  0  0  0
 15 31  1  0  0  0  0
 16 32  1  0  0  0  0
 18 19  1  0  0  0  0
 18 20  2  0  0  0  0
 20 21  1  0  0  0  0
 20 33  1  0  0  0  0
 21 22  2  0  0  0  0
 21 34  1  0  0  0  0
 22 35  1  0  0  0  0
M  END
> <PUBCHEM_COMPOUND_CID>
17396136

> <PUBCHEM_CONFORMER_RMSD>
1.2

> <PUBCHEM_CONFORMER_DIVERSEORDER>
2
101
52
129
11
55
109
1
90
84
102
83
51
8
65
20
44
17
108
26
97
54
106
121
113
3
116
15
104
69
132
117
33
32
80
89
74
103
4
94
66
133
5
62
67
100
18
21
73
120
70
122
143
92
81
98
131
88
76
134
49
126
31
105
6
14
135
79
87
107
127
16
95
86
68
27
23
142
141
28
46
22
75
47
85
37
35
115
96
7
144
36
137
59
112
71
63
82
136
57
60
125
50
114
119
58
39
77
42
38
19
45
24
130
30
139
10
64
56
40
78
140
124
61
99
29
110
41
48
53
123
34
138
25
128
91
118
12
72
93
9
13
111
43

> <PUBCHEM_MMFF94_PARTIAL_CHARGES>
28
1 -0.08
10 -0.14
12 -0.15
13 0.57
14 0.29
15 -0.15
16 -0.11
17 0.53
18 0.04
19 0.48
2 -0.29
20 -0.15
21 -0.15
22 -0.11
24 0.37
28 0.15
3 -0.08
31 0.15
32 0.15
33 0.15
34 0.15
35 0.15
4 -0.28
5 -0.57
6 -0.73
7 -0.34
8 -0.34
9 0.48

> <PUBCHEM_EFFECTIVE_ROTOR_COUNT>
7

> <PUBCHEM_PHARMACOPHORE_FEATURES>
5
1 5 acceptor
1 6 donor
5 1 10 12 15 16 rings
5 3 18 20 21 22 rings
5 4 7 8 17 19 rings

> <PUBCHEM_HEAVY_ATOM_COUNT>
22

> <PUBCHEM_ATOM_DEF_STEREO_COUNT>
0

> <PUBCHEM_ATOM_UDEF_STEREO_COUNT>
1

> <PUBCHEM_BOND_DEF_STEREO_COUNT>
0

> <PUBCHEM_BOND_UDEF_STEREO_COUNT>
0

> <PUBCHEM_ISOTOPIC_ATOM_COUNT>
0

> <PUBCHEM_COMPONENT_COUNT>
1

> <PUBCHEM_CACTVS_TAUTO_COUNT>
2

> <PUBCHEM_CONFORMER_ID>
010971A800000002

> <PUBCHEM_MMFF94_ENERGY>
18.0571

> <PUBCHEM_FEATURE_SELFOVERLAP>
25.371

> <PUBCHEM_SHAPE_FINGERPRINT>
10064457 181 18190170205106335465
104564 63 17401205573582061852
10675989 125 15962886645095157356
10708813 3 18263645074164531047
1100329 8 18265333906919058152
11112662 9 17749391434159620319
11370993 70 18263088712654233337
11578080 2 12676692198850555828
12553582 1 17616818076995642313
12596599 1 17677046962023524751
13122387 1 18410295774508355427
13140716 1 18121227472107897120
13402501 40 18342173414095684035
14117953 113 18046354299384548887
17138139 8 17246989254345357199
17492 54 18342448240452412646
19591789 44 18338518654957258438
21197605 99 18049434843493568011
21236236 1 17688876333245374944
23419403 2 14759344419507984745
238 59 18050882040574443957
3052486 1 17981885251175880516
338550 245 17981605962490569231
35225 105 17393024159299575763
5282274 181 18194959651981550057
6287921 2 17823124774292420367
6438718 38 17899136010042679302
6443956 14 18338230595838166865
7226269 152 15459028079539361788

> <PUBCHEM_SHAPE_MULTIPOLES>
437.62
6.64
4.96
1.39
3.77
2.16
-0.08
-1.04
1.46
-2.66
-0.28
0.54
-0.11
0.24

> <PUBCHEM_SHAPE_SELFOVERLAP>
893.112

> <PUBCHEM_SHAPE_VOLUME>
256.7

> <PUBCHEM_COORDINATE_TYPE>
2
5
10

$$$$

