586314
  -OEChem-06241222462D

 28 29  0     0  0  0  0  0  0999 V2000
    5.1920    3.4734    0.0000 O   0  0  0  0  0  0  0  0  0  0  0  0
    2.5369   -1.1144    0.0000 O   0  0  0  0  0  0  0  0  0  0  0  0
    4.2690   -4.1144    0.0000 O   0  0  0  0  0  0  0  0  0  0  0  0
    3.4030    0.3856    0.0000 O   0  0  0  0  0  0  0  0  0  0  0  0
    5.1350    0.3856    0.0000 N   0  0  0  0  0  0  0  0  0  0  0  0
    5.1350    1.3856    0.0000 N   0  0  0  0  0  0  0  0  0  0  0  0
    4.2690   -1.1144    0.0000 C   0  0  0  0  0  0  0  0  0  0  0  0
    3.4030   -1.6144    0.0000 C   0  0  0  0  0  0  0  0  0  0  0  0
    5.1350   -1.6144    0.0000 C   0  0  0  0  0  0  0  0  0  0  0  0
    3.4030   -2.6144    0.0000 C   0  0  0  0  0  0  0  0  0  0  0  0
    4.2690   -3.1144    0.0000 C   0  0  0  0  0  0  0  0  0  0  0  0
    5.1350   -2.6144    0.0000 C   0  0  0  0  0  0  0  0  0  0  0  0
    4.2690   -0.1144    0.0000 C   0  0  0  0  0  0  0  0  0  0  0  0
    6.0010    2.8856    0.0000 C   0  0  0  0  0  0  0  0  0  0  0  0
    6.8100    3.4734    0.0000 C   0  0  0  0  0  0  0  0  0  0  0  0
    6.0010    1.8856    0.0000 C   0  0  0  0  0  0  0  0  0  0  0  0
    6.5010    4.4244    0.0000 C   0  0  0  0  0  0  0  0  0  0  0  0
    5.5010    4.4244    0.0000 C   0  0  0  0  0  0  0  0  0  0  0  0
    5.6720   -1.3044    0.0000 H   0  0  0  0  0  0  0  0  0  0  0  0
    2.8660   -2.9244    0.0000 H   0  0  0  0  0  0  0  0  0  0  0  0
    5.6720   -2.9244    0.0000 H   0  0  0  0  0  0  0  0  0  0  0  0
    5.6720    0.0756    0.0000 H   0  0  0  0  0  0  0  0  0  0  0  0
    7.3997    3.2818    0.0000 H   0  0  0  0  0  0  0  0  0  0  0  0
    6.5380    1.5756    0.0000 H   0  0  0  0  0  0  0  0  0  0  0  0
    6.8655    4.9260    0.0000 H   0  0  0  0  0  0  0  0  0  0  0  0
    5.1366    4.9260    0.0000 H   0  0  0  0  0  0  0  0  0  0  0  0
    2.0000   -1.4244    0.0000 H   0  0  0  0  0  0  0  0  0  0  0  0
    4.8059   -4.4244    0.0000 H   0  0  0  0  0  0  0  0  0  0  0  0
  1 14  1  0  0  0  0
  1 18  1  0  0  0  0
  2  8  1  0  0  0  0
  2 27  1  0  0  0  0
  3 11  1  0  0  0  0
  3 28  1  0  0  0  0
  4 13  2  0  0  0  0
  5  6  1  0  0  0  0
  5 13  1  0  0  0  0
  5 22  1  0  0  0  0
  6 16  2  3  0  0  0
  7  8  2  0  0  0  0
  7  9  1  0  0  0  0
  7 13  1  0  0  0  0
  8 10  1  0  0  0  0
  9 12  2  0  0  0  0
  9 19  1  0  0  0  0
 10 11  2  0  0  0  0
 10 20  1  0  0  0  0
 11 12  1  0  0  0  0
 12 21  1  0  0  0  0
 14 15  2  0  0  0  0
 14 16  1  0  0  0  0
 15 17  1  0  0  0  0
 15 23  1  0  0  0  0
 16 24  1  0  0  0  0
 17 18  2  0  0  0  0
 17 25  1  0  0  0  0
 18 26  1  0  0  0  0
M  END
> <PUBCHEM_COMPOUND_CID>
586314

> <PUBCHEM_COMPOUND_CANONICALIZED>
1

> <PUBCHEM_CACTVS_COMPLEXITY>
321

> <PUBCHEM_CACTVS_HBOND_ACCEPTOR>
5

> <PUBCHEM_CACTVS_HBOND_DONOR>
3

> <PUBCHEM_CACTVS_ROTATABLE_BOND>
3

> <PUBCHEM_CACTVS_SUBSKEYS>
AAADccBzOAAAAAAAAAAAAAAAAAAAASAAAAAwAAAAAAAAAAABwAAAHgAYCAAADAThmAYwBoBiBkCoArlzkASSCAAkIAAaiAEmDNgMJ7aGtRuCeWDn6BUIuYeY/CTOIAAACAAIAABAAAAQABAAAAAAAAAAAA==

> <PUBCHEM_IUPAC_OPENEYE_NAME>
N-(2-furylmethyleneamino)-2,4-dihydroxy-benzamide

> <PUBCHEM_IUPAC_CAS_NAME>
N-(2-furanylmethylideneamino)-2,4-dihydroxybenzamide

> <PUBCHEM_IUPAC_NAME>
N-(furan-2-ylmethylideneamino)-2,4-dihydroxybenzamide

> <PUBCHEM_IUPAC_SYSTEMATIC_NAME>
N-(furan-2-ylmethylideneamino)-2,4-bis(oxidanyl)benzamide

> <PUBCHEM_IUPAC_TRADITIONAL_NAME>
N-(2-furfurylideneamino)-2,4-dihydroxy-benzamide

> <PUBCHEM_IUPAC_INCHI>
InChI=1S/C12H10N2O4/c15-8-3-4-10(11(16)6-8)12(17)14-13-7-9-2-1-5-18-9/h1-7,15-16H,(H,14,17)

> <PUBCHEM_IUPAC_INCHIKEY>
CNYPTRYJFGXEOD-UHFFFAOYSA-N

> <PUBCHEM_XLOGP3_AA>
2.1

> <PUBCHEM_EXACT_MASS>
246.064057

> <PUBCHEM_MOLECULAR_FORMULA>
C12H10N2O4

> <PUBCHEM_MOLECULAR_WEIGHT>
246.2188

> <PUBCHEM_OPENEYE_CAN_SMILES>
C1=COC(=C1)C=NNC(=O)C2=C(C=C(C=C2)O)O

> <PUBCHEM_OPENEYE_ISO_SMILES>
C1=COC(=C1)C=NNC(=O)C2=C(C=C(C=C2)O)O

> <PUBCHEM_CACTVS_TPSA>
95.1

> <PUBCHEM_MONOISOTOPIC_WEIGHT>
246.064057

> <PUBCHEM_TOTAL_CHARGE>
0

> <PUBCHEM_HEAVY_ATOM_COUNT>
18

> <PUBCHEM_ATOM_DEF_STEREO_COUNT>
0

> <PUBCHEM_ATOM_UDEF_STEREO_COUNT>
0

> <PUBCHEM_BOND_DEF_STEREO_COUNT>
0

> <PUBCHEM_BOND_UDEF_STEREO_COUNT>
1

> <PUBCHEM_ISOTOPIC_ATOM_COUNT>
0

> <PUBCHEM_COMPONENT_COUNT>
1

> <PUBCHEM_CACTVS_TAUTO_COUNT>
21

> <PUBCHEM_COORDINATE_TYPE>
1
5
255

> <PUBCHEM_BONDANNOTATIONS>
1  14  8
1  18  8
10  11  8
11  12  8
14  15  8
15  17  8
17  18  8
6  16  1
7  8  8
7  9  8
8  10  8
9  12  8

$$$$

