9828
  -OEChem-06261204063D

 17 17  0     0  0  0  0  0  0999 V2000
    3.4573   -0.0644   -0.0012 F   0  0  0  0  0  0  0  0  0  0  0  0
   -2.7810    1.1405    0.0003 O   0  0  0  0  0  0  0  0  0  0  0  0
   -0.6703    0.0475    0.0004 C   0  0  0  0  0  0  0  0  0  0  0  0
   -0.0058   -1.1790    0.0007 C   0  0  0  0  0  0  0  0  0  0  0  0
    0.0597    1.2361    0.0001 C   0  0  0  0  0  0  0  0  0  0  0  0
   -2.1241    0.0868   -0.0003 C   0  0  0  0  0  0  0  0  0  0  0  0
    1.3886   -1.2168    0.0007 C   0  0  0  0  0  0  0  0  0  0  0  0
    1.4541    1.1983    0.0000 C   0  0  0  0  0  0  0  0  0  0  0  0
    2.1185   -0.0281    0.0004 C   0  0  0  0  0  0  0  0  0  0  0  0
   -2.8971   -1.2208   -0.0010 C   0  0  0  0  0  0  0  0  0  0  0  0
   -0.5302   -2.1292    0.0007 H   0  0  0  0  0  0  0  0  0  0  0  0
   -0.4371    2.2027   -0.0005 H   0  0  0  0  0  0  0  0  0  0  0  0
    1.9069   -2.1711    0.0005 H   0  0  0  0  0  0  0  0  0  0  0  0
    2.0229    2.1234   -0.0006 H   0  0  0  0  0  0  0  0  0  0  0  0
   -2.6739   -1.7958   -0.9036 H   0  0  0  0  0  0  0  0  0  0  0  0
   -3.9703   -1.0032   -0.0020 H   0  0  0  0  0  0  0  0  0  0  0  0
   -2.6756   -1.7957    0.9021 H   0  0  0  0  0  0  0  0  0  0  0  0
  1  9  1  0  0  0  0
  2  6  2  0  0  0  0
  3  4  2  0  0  0  0
  3  5  1  0  0  0  0
  3  6  1  0  0  0  0
  4  7  1  0  0  0  0
  4 11  1  0  0  0  0
  5  8  2  0  0  0  0
  5 12  1  0  0  0  0
  6 10  1  0  0  0  0
  7  9  2  0  0  0  0
  7 13  1  0  0  0  0
  8  9  1  0  0  0  0
  8 14  1  0  0  0  0
 10 15  1  0  0  0  0
 10 16  1  0  0  0  0
 10 17  1  0  0  0  0
M  END
> <PUBCHEM_COMPOUND_CID>
9828

> <PUBCHEM_CONFORMER_RMSD>
0.4

> <PUBCHEM_CONFORMER_DIVERSEORDER>
1
2

> <PUBCHEM_MMFF94_PARTIAL_CHARGES>
14
1 -0.19
10 0.06
11 0.15
12 0.15
13 0.15
14 0.15
2 -0.57
3 0.09
4 -0.15
5 -0.15
6 0.42
7 -0.15
8 -0.15
9 0.19

> <PUBCHEM_EFFECTIVE_ROTOR_COUNT>
1

> <PUBCHEM_PHARMACOPHORE_FEATURES>
2
1 2 acceptor
6 3 4 5 7 8 9 rings

> <PUBCHEM_HEAVY_ATOM_COUNT>
10

> <PUBCHEM_ATOM_DEF_STEREO_COUNT>
0

> <PUBCHEM_ATOM_UDEF_STEREO_COUNT>
0

> <PUBCHEM_BOND_DEF_STEREO_COUNT>
0

> <PUBCHEM_BOND_UDEF_STEREO_COUNT>
0

> <PUBCHEM_ISOTOPIC_ATOM_COUNT>
0

> <PUBCHEM_COMPONENT_COUNT>
1

> <PUBCHEM_CACTVS_TAUTO_COUNT>
2

> <PUBCHEM_CONFORMER_ID>
0000266400000001

> <PUBCHEM_MMFF94_ENERGY>
23.526

> <PUBCHEM_FEATURE_SELFOVERLAP>
10.148

> <PUBCHEM_SHAPE_FINGERPRINT>
10857977 72 18410022013171413923
12032990 46 18409158914035000918
12897270 3 18411422791259487479
12932764 1 17489875959328747349
14128692 85 18334575685768601031
14325111 11 18410856538270604032
16945 1 18410855503093704484
193761 8 17474108077970869570
20201158 50 18412827988536839707
21040471 1 18338798888482412832
23235685 24 18411142445811741768
23402655 69 18264505047404140085
23552423 10 18343862212484756127
2748010 2 18338518512832824165
29004967 10 18411978082996076234
5084963 1 18262234422030877561
528886 8 18410299141730872209

> <PUBCHEM_SHAPE_MULTIPOLES>
192.65
4.35
1.47
0.6
0.36
0.02
0
-0.31
0
0.23
0
0.01
-0.01
0

> <PUBCHEM_SHAPE_SELFOVERLAP>
402.069

> <PUBCHEM_SHAPE_VOLUME>
110.6

> <PUBCHEM_COORDINATE_TYPE>
2
5
10

$$$$

