14269
  -OEChem-06241222423D

 17 17  0     1  0  0  0  0  0999 V2000
    0.3693   -1.1536    0.1645 O   0  0  0  0  0  0  0  0  0  0  0  0
   -1.7623   -0.1091    0.2992 O   0  0  0  0  0  0  0  0  0  0  0  0
    0.9908    0.0319   -0.3424 C   0  0  1  0  0  0  0  0  0  0  0  0
    0.2247    1.2602    0.1543 C   0  0  0  0  0  0  0  0  0  0  0  0
   -1.2529    1.1290   -0.1954 C   0  0  0  0  0  0  0  0  0  0  0  0
    2.4370    0.0486    0.1294 C   0  0  0  0  0  0  0  0  0  0  0  0
   -1.0067   -1.2070   -0.2097 C   0  0  0  0  0  0  0  0  0  0  0  0
    0.9761   -0.0068   -1.4390 H   0  0  0  0  0  0  0  0  0  0  0  0
    0.6406    2.1818   -0.2659 H   0  0  0  0  0  0  0  0  0  0  0  0
    0.3111    1.3146    1.2472 H   0  0  0  0  0  0  0  0  0  0  0  0
   -1.8260    1.9402    0.2643 H   0  0  0  0  0  0  0  0  0  0  0  0
   -1.4114    1.1787   -1.2790 H   0  0  0  0  0  0  0  0  0  0  0  0
    2.4944    0.0303    1.2233 H   0  0  0  0  0  0  0  0  0  0  0  0
    2.9640   -0.8432   -0.2269 H   0  0  0  0  0  0  0  0  0  0  0  0
    2.9642    0.9351   -0.2360 H   0  0  0  0  0  0  0  0  0  0  0  0
   -1.4289   -2.1232    0.2131 H   0  0  0  0  0  0  0  0  0  0  0  0
   -1.1056   -1.2678   -1.3006 H   0  0  0  0  0  0  0  0  0  0  0  0
  1  3  1  0  0  0  0
  1  7  1  0  0  0  0
  2  5  1  0  0  0  0
  2  7  1  0  0  0  0
  3  4  1  0  0  0  0
  3  6  1  0  0  0  0
  3  8  1  0  0  0  0
  4  5  1  0  0  0  0
  4  9  1  0  0  0  0
  4 10  1  0  0  0  0
  5 11  1  0  0  0  0
  5 12  1  0  0  0  0
  6 13  1  0  0  0  0
  6 14  1  0  0  0  0
  6 15  1  0  0  0  0
  7 16  1  0  0  0  0
  7 17  1  0  0  0  0
M  END
> <PUBCHEM_COMPOUND_CID>
14269

> <PUBCHEM_CONFORMER_RMSD>
0.4

> <PUBCHEM_CONFORMER_DIVERSEORDER>
1
3
2

> <PUBCHEM_MMFF94_PARTIAL_CHARGES>
5
1 -0.56
2 -0.56
3 0.28
5 0.28
7 0.56

> <PUBCHEM_EFFECTIVE_ROTOR_COUNT>
1.2

> <PUBCHEM_PHARMACOPHORE_FEATURES>
3
1 1 acceptor
1 2 acceptor
6 1 2 3 4 5 7 rings

> <PUBCHEM_HEAVY_ATOM_COUNT>
7

> <PUBCHEM_ATOM_DEF_STEREO_COUNT>
0

> <PUBCHEM_ATOM_UDEF_STEREO_COUNT>
1

> <PUBCHEM_BOND_DEF_STEREO_COUNT>
0

> <PUBCHEM_BOND_UDEF_STEREO_COUNT>
0

> <PUBCHEM_ISOTOPIC_ATOM_COUNT>
0

> <PUBCHEM_COMPONENT_COUNT>
1

> <PUBCHEM_CACTVS_TAUTO_COUNT>
1

> <PUBCHEM_CONFORMER_ID>
000037BD00000001

> <PUBCHEM_MMFF94_ENERGY>
10.5936

> <PUBCHEM_FEATURE_SELFOVERLAP>
15.258

> <PUBCHEM_SHAPE_FINGERPRINT>
16714656 1 18410568487783248900
18185500 45 18341333292749019806
20096714 4 18266457783463319933
21040471 1 18266739271372580668
23552423 10 18272646874803811966
29004967 10 15482673485389734160

> <PUBCHEM_SHAPE_MULTIPOLES>
132.32
2.43
1.41
0.64
1.06
0.02
-0.02
-0.01
0.11
-0.4
-0.01
0.01
0.02
0.01

> <PUBCHEM_SHAPE_SELFOVERLAP>
251.681

> <PUBCHEM_SHAPE_VOLUME>
80.5

> <PUBCHEM_COORDINATE_TYPE>
2
5
10

$$$$

