13048
  -OEChem-06261207412D

 31 30  0     1  0  0  0  0  0999 V2000
    5.6720    3.4650    0.0000 Cl  0  5  0  0  0  0  0  0  0  0  0  0
    0.5369    4.8100    0.0000 O   0  0  0  0  0  0  0  0  0  0  0  0
    2.2690    5.8100    0.0000 N   0  3  0  0  0  0  0  0  0  0  0  0
    1.4030    0.3100    0.0000 N   0  0  0  0  0  0  0  0  0  0  0  0
    2.2690    4.8100    0.0000 C   0  0  3  0  0  0  0  0  0  0  0  0
    1.4030    4.3100    0.0000 C   0  0  3  0  0  0  0  0  0  0  0  0
    1.4030    3.3100    0.0000 C   0  0  0  0  0  0  0  0  0  0  0  0
    3.1350    4.3100    0.0000 C   0  0  0  0  0  0  0  0  0  0  0  0
    2.2690    6.8100    0.0000 C   0  0  0  0  0  0  0  0  0  0  0  0
    0.5369    2.8100    0.0000 C   0  0  0  0  0  0  0  0  0  0  0  0
    2.2690    2.8100    0.0000 C   0  0  0  0  0  0  0  0  0  0  0  0
    0.5369    1.8100    0.0000 C   0  0  0  0  0  0  0  0  0  0  0  0
    2.2690    1.8100    0.0000 C   0  0  0  0  0  0  0  0  0  0  0  0
    1.4030    1.3100    0.0000 C   0  0  0  0  0  0  0  0  0  0  0  0
    2.8059    5.1200    0.0000 H   0  0  0  0  0  0  0  0  0  0  0  0
    1.4030    4.9300    0.0000 H   0  0  0  0  0  0  0  0  0  0  0  0
    2.8890    5.8100    0.0000 H   0  0  0  0  0  0  0  0  0  0  0  0
    1.6490    5.8100    0.0000 H   0  0  0  0  0  0  0  0  0  0  0  0
    2.8250    3.7731    0.0000 H   0  0  0  0  0  0  0  0  0  0  0  0
    3.6720    4.0000    0.0000 H   0  0  0  0  0  0  0  0  0  0  0  0
    3.4450    4.8469    0.0000 H   0  0  0  0  0  0  0  0  0  0  0  0
    2.8890    6.8100    0.0000 H   0  0  0  0  0  0  0  0  0  0  0  0
    2.2690    7.4300    0.0000 H   0  0  0  0  0  0  0  0  0  0  0  0
    1.6490    6.8100    0.0000 H   0  0  0  0  0  0  0  0  0  0  0  0
    0.0000    3.1200    0.0000 H   0  0  0  0  0  0  0  0  0  0  0  0
    2.8059    3.1200    0.0000 H   0  0  0  0  0  0  0  0  0  0  0  0
    0.5369    5.4300    0.0000 H   0  0  0  0  0  0  0  0  0  0  0  0
    0.0000    1.5000    0.0000 H   0  0  0  0  0  0  0  0  0  0  0  0
    2.8059    1.5000    0.0000 H   0  0  0  0  0  0  0  0  0  0  0  0
    0.8660    0.0000    0.0000 H   0  0  0  0  0  0  0  0  0  0  0  0
    1.9399    0.0000    0.0000 H   0  0  0  0  0  0  0  0  0  0  0  0
  2  6  1  0  0  0  0
  2 27  1  0  0  0  0
  3  5  1  0  0  0  0
  3  9  1  0  0  0  0
  3 17  1  0  0  0  0
  3 18  1  0  0  0  0
  4 14  1  0  0  0  0
  4 30  1  0  0  0  0
  4 31  1  0  0  0  0
  5  6  1  0  0  0  0
  5  8  1  0  0  0  0
  5 15  1  0  0  0  0
  6  7  1  0  0  0  0
  6 16  1  0  0  0  0
  7 10  2  0  0  0  0
  7 11  1  0  0  0  0
  8 19  1  0  0  0  0
  8 20  1  0  0  0  0
  8 21  1  0  0  0  0
  9 22  1  0  0  0  0
  9 23  1  0  0  0  0
  9 24  1  0  0  0  0
 10 12  1  0  0  0  0
 10 25  1  0  0  0  0
 11 13  2  0  0  0  0
 11 26  1  0  0  0  0
 12 14  2  0  0  0  0
 12 28  1  0  0  0  0
 13 14  1  0  0  0  0
 13 29  1  0  0  0  0
M  CHG  2   1  -1   3   1
M  END
> <PUBCHEM_COMPOUND_CID>
13048

> <PUBCHEM_COMPOUND_CANONICALIZED>
1

> <PUBCHEM_CACTVS_COMPLEXITY>
144

> <PUBCHEM_CACTVS_HBOND_ACCEPTOR>
3

> <PUBCHEM_CACTVS_HBOND_DONOR>
3

> <PUBCHEM_CACTVS_ROTATABLE_BOND>
3

> <PUBCHEM_CACTVS_SUBSKEYS>
AAADceBzIAAEAAAAAAAAAAAAAAAAAAAAAAAwAAAAAAAAAAABAAAAHgAQCAAADDzhmAYywILAAgCAAiRCQACCAAAgAgAIiIAIbIgKNiKAkZGEcABk0AEY2AeQ0KEOCAAAAAAAAAAQAAAAAAAAAAAAAAAAAA==

> <PUBCHEM_IUPAC_OPENEYE_NAME>
[2-(4-aminophenyl)-2-hydroxy-1-methyl-ethyl]-methyl-ammonium chloride

> <PUBCHEM_IUPAC_CAS_NAME>
[1-(4-aminophenyl)-1-hydroxypropan-2-yl]-methylammonium chloride

> <PUBCHEM_IUPAC_NAME>
[1-(4-aminophenyl)-1-hydroxypropan-2-yl]-methylazanium chloride

> <PUBCHEM_IUPAC_SYSTEMATIC_NAME>
[1-(4-aminophenyl)-1-oxidanyl-propan-2-yl]-methyl-azanium chloride

> <PUBCHEM_IUPAC_TRADITIONAL_NAME>
[2-(4-aminophenyl)-2-hydroxy-1-methyl-ethyl]-methyl-ammonium chloride

> <PUBCHEM_IUPAC_INCHI>
InChI=1S/C10H16N2O.ClH/c1-7(12-2)10(13)8-3-5-9(11)6-4-8;/h3-7,10,12-13H,11H2,1-2H3;1H

> <PUBCHEM_IUPAC_INCHIKEY>
KOGNWJDRKVGHOP-UHFFFAOYSA-N

> <PUBCHEM_EXACT_MASS>
216.102941

> <PUBCHEM_MOLECULAR_FORMULA>
C10H17ClN2O

> <PUBCHEM_MOLECULAR_WEIGHT>
216.70778

> <PUBCHEM_OPENEYE_CAN_SMILES>
CC(C(C1=CC=C(C=C1)N)O)[NH2+]C.[Cl-]

> <PUBCHEM_OPENEYE_ISO_SMILES>
CC(C(C1=CC=C(C=C1)N)O)[NH2+]C.[Cl-]

> <PUBCHEM_CACTVS_TPSA>
62.9

> <PUBCHEM_MONOISOTOPIC_WEIGHT>
216.102941

> <PUBCHEM_TOTAL_CHARGE>
0

> <PUBCHEM_HEAVY_ATOM_COUNT>
14

> <PUBCHEM_ATOM_DEF_STEREO_COUNT>
0

> <PUBCHEM_ATOM_UDEF_STEREO_COUNT>
2

> <PUBCHEM_BOND_DEF_STEREO_COUNT>
0

> <PUBCHEM_BOND_UDEF_STEREO_COUNT>
0

> <PUBCHEM_ISOTOPIC_ATOM_COUNT>
0

> <PUBCHEM_COMPONENT_COUNT>
2

> <PUBCHEM_CACTVS_TAUTO_COUNT>
1

> <PUBCHEM_COORDINATE_TYPE>
1
5
255

> <PUBCHEM_BONDANNOTATIONS>
10  12  8
11  13  8
12  14  8
13  14  8
6  2  3
5  8  3
7  10  8
7  11  8

$$$$

