17395502
  -OEChem-06241222502D

 36 37  0     0  0  0  0  0  0999 V2000
    7.1733    0.4715    0.0000 O   0  0  0  0  0  0  0  0  0  0  0  0
    2.5878    1.7669    0.0000 O   0  0  0  0  0  0  0  0  0  0  0  0
    3.9890    2.7850    0.0000 O   0  0  0  0  0  0  0  0  0  0  0  0
    6.6381   -1.1758    0.0000 N   0  0  0  0  0  0  0  0  0  0  0  0
    4.6701   -0.4764    0.0000 N   0  0  0  0  0  0  0  0  0  0  0  0
    6.4690   -2.7850    0.0000 C   0  0  0  0  0  0  0  0  0  0  0  0
    7.4471   -2.5771    0.0000 C   0  0  0  0  0  0  0  0  0  0  0  0
    5.9690   -1.9190    0.0000 C   0  0  0  0  0  0  0  0  0  0  0  0
    7.5516   -1.5825    0.0000 C   0  0  0  0  0  0  0  0  0  0  0  0
    6.4302   -0.1977    0.0000 C   0  0  0  0  0  0  0  0  0  0  0  0
    5.4791    0.1114    0.0000 C   0  0  0  0  0  0  0  0  0  0  0  0
    5.1701    1.0624    0.0000 C   0  0  0  0  0  0  0  0  0  0  0  0
    4.1701    1.0624    0.0000 C   0  0  0  0  0  0  0  0  0  0  0  0
    3.8611    0.1114    0.0000 C   0  0  0  0  0  0  0  0  0  0  0  0
    5.7579    1.8714    0.0000 C   0  0  0  0  0  0  0  0  0  0  0  0
    2.9100   -0.1977    0.0000 C   0  0  0  0  0  0  0  0  0  0  0  0
    3.5823    1.8714    0.0000 C   0  0  0  0  0  0  0  0  0  0  0  0
    2.0000    2.5759    0.0000 C   0  0  0  0  0  0  0  0  0  0  0  0
    7.5119   -3.1937    0.0000 H   0  0  0  0  0  0  0  0  0  0  0  0
    8.0671   -2.5771    0.0000 H   0  0  0  0  0  0  0  0  0  0  0  0
    5.9026   -3.0372    0.0000 H   0  0  0  0  0  0  0  0  0  0  0  0
    6.6605   -3.3746    0.0000 H   0  0  0  0  0  0  0  0  0  0  0  0
    8.1581   -1.7114    0.0000 H   0  0  0  0  0  0  0  0  0  0  0  0
    7.7432   -0.9929    0.0000 H   0  0  0  0  0  0  0  0  0  0  0  0
    5.5541   -1.4582    0.0000 H   0  0  0  0  0  0  0  0  0  0  0  0
    5.4674   -2.2834    0.0000 H   0  0  0  0  0  0  0  0  0  0  0  0
    4.6701   -1.0964    0.0000 H   0  0  0  0  0  0  0  0  0  0  0  0
    6.2595    1.5070    0.0000 H   0  0  0  0  0  0  0  0  0  0  0  0
    6.1223    2.3730    0.0000 H   0  0  0  0  0  0  0  0  0  0  0  0
    5.2563    2.2359    0.0000 H   0  0  0  0  0  0  0  0  0  0  0  0
    2.7184    0.3920    0.0000 H   0  0  0  0  0  0  0  0  0  0  0  0
    2.3204   -0.3892    0.0000 H   0  0  0  0  0  0  0  0  0  0  0  0
    3.1016   -0.7873    0.0000 H   0  0  0  0  0  0  0  0  0  0  0  0
    2.5016    2.9404    0.0000 H   0  0  0  0  0  0  0  0  0  0  0  0
    1.6356    3.0775    0.0000 H   0  0  0  0  0  0  0  0  0  0  0  0
    1.4984    2.2115    0.0000 H   0  0  0  0  0  0  0  0  0  0  0  0
  1 10  2  0  0  0  0
  2 17  1  0  0  0  0
  2 18  1  0  0  0  0
  3 17  2  0  0  0  0
  4  8  1  0  0  0  0
  4  9  1  0  0  0  0
  4 10  1  0  0  0  0
  5 11  1  0  0  0  0
  5 14  1  0  0  0  0
  5 27  1  0  0  0  0
  6  7  1  0  0  0  0
  6  8  1  0  0  0  0
  6 21  1  0  0  0  0
  6 22  1  0  0  0  0
  7  9  1  0  0  0  0
  7 19  1  0  0  0  0
  7 20  1  0  0  0  0
  8 25  1  0  0  0  0
  8 26  1  0  0  0  0
  9 23  1  0  0  0  0
  9 24  1  0  0  0  0
 10 11  1  0  0  0  0
 11 12  2  0  0  0  0
 12 13  1  0  0  0  0
 12 15  1  0  0  0  0
 13 14  2  0  0  0  0
 13 17  1  0  0  0  0
 14 16  1  0  0  0  0
 15 28  1  0  0  0  0
 15 29  1  0  0  0  0
 15 30  1  0  0  0  0
 16 31  1  0  0  0  0
 16 32  1  0  0  0  0
 16 33  1  0  0  0  0
 18 34  1  0  0  0  0
 18 35  1  0  0  0  0
 18 36  1  0  0  0  0
M  END
> <PUBCHEM_COMPOUND_CID>
17395502

> <PUBCHEM_COMPOUND_CANONICALIZED>
1

> <PUBCHEM_CACTVS_COMPLEXITY>
339

> <PUBCHEM_CACTVS_HBOND_ACCEPTOR>
3

> <PUBCHEM_CACTVS_HBOND_DONOR>
1

> <PUBCHEM_CACTVS_ROTATABLE_BOND>
3

> <PUBCHEM_CACTVS_SUBSKEYS>
AAADceBzMAAAAAAAAAAAAAAAAAAAAWLAAAAAAAAAAAAAAAABgAAAHgAQAAAADAjBngYCiJPJlACoAwXwXACCgCAnACAAmSG4TNgIZnrAtLmUEYhm1gHI6Ue8HwIegAAAAAAAAAAAAAAAAAAAAAAAAAAAAA==

> <PUBCHEM_IUPAC_OPENEYE_NAME>
methyl 2,4-dimethyl-5-(pyrrolidine-1-carbonyl)-1H-pyrrole-3-carboxylate

> <PUBCHEM_IUPAC_CAS_NAME>
2,4-dimethyl-5-[oxo(1-pyrrolidinyl)methyl]-1H-pyrrole-3-carboxylic acid methyl ester

> <PUBCHEM_IUPAC_NAME>
methyl 2,4-dimethyl-5-(pyrrolidine-1-carbonyl)-1H-pyrrole-3-carboxylate

> <PUBCHEM_IUPAC_SYSTEMATIC_NAME>
methyl 2,4-dimethyl-5-pyrrolidin-1-ylcarbonyl-1H-pyrrole-3-carboxylate

> <PUBCHEM_IUPAC_TRADITIONAL_NAME>
2,4-dimethyl-5-(pyrrolidine-1-carbonyl)-1H-pyrrole-3-carboxylic acid methyl ester

> <PUBCHEM_IUPAC_INCHI>
InChI=1S/C13H18N2O3/c1-8-10(13(17)18-3)9(2)14-11(8)12(16)15-6-4-5-7-15/h14H,4-7H2,1-3H3

> <PUBCHEM_IUPAC_INCHIKEY>
OMTADOXCMAYUAQ-UHFFFAOYSA-N

> <PUBCHEM_XLOGP3_AA>
1.6

> <PUBCHEM_EXACT_MASS>
250.131742

> <PUBCHEM_MOLECULAR_FORMULA>
C13H18N2O3

> <PUBCHEM_MOLECULAR_WEIGHT>
250.29362

> <PUBCHEM_OPENEYE_CAN_SMILES>
CC1=C(NC(=C1C(=O)OC)C)C(=O)N2CCCC2

> <PUBCHEM_OPENEYE_ISO_SMILES>
CC1=C(NC(=C1C(=O)OC)C)C(=O)N2CCCC2

> <PUBCHEM_CACTVS_TPSA>
62.4

> <PUBCHEM_MONOISOTOPIC_WEIGHT>
250.131742

> <PUBCHEM_TOTAL_CHARGE>
0

> <PUBCHEM_HEAVY_ATOM_COUNT>
18

> <PUBCHEM_ATOM_DEF_STEREO_COUNT>
0

> <PUBCHEM_ATOM_UDEF_STEREO_COUNT>
0

> <PUBCHEM_BOND_DEF_STEREO_COUNT>
0

> <PUBCHEM_BOND_UDEF_STEREO_COUNT>
0

> <PUBCHEM_ISOTOPIC_ATOM_COUNT>
0

> <PUBCHEM_COMPONENT_COUNT>
1

> <PUBCHEM_CACTVS_TAUTO_COUNT>
10

> <PUBCHEM_COORDINATE_TYPE>
1
5
255

> <PUBCHEM_BONDANNOTATIONS>
11  12  8
12  13  8
13  14  8
5  11  8
5  14  8

$$$$

