13175
  -OEChem-06261207513D

 31 30  0     0  0  0  0  0  0999 V2000
   -0.6157    1.4552   -0.0167 O   0  0  0  0  0  0  0  0  0  0  0  0
    1.9706    0.3280    0.0486 C   0  0  0  0  0  0  0  0  0  0  0  0
    0.7223   -0.5526    0.0710 C   0  0  0  0  0  0  0  0  0  0  0  0
    3.2644   -0.4920    0.0473 C   0  0  0  0  0  0  0  0  0  0  0  0
   -1.8470   -0.6211   -0.0547 C   0  0  0  0  0  0  0  0  0  0  0  0
   -3.1401    0.1928   -0.0510 C   0  0  0  0  0  0  0  0  0  0  0  0
   -0.5837    0.2259   -0.0011 C   0  0  0  0  0  0  0  0  0  0  0  0
    4.4943    0.4143   -0.0107 C   0  0  0  0  0  0  0  0  0  0  0  0
   -4.3876   -0.6937   -0.0295 C   0  0  0  0  0  0  0  0  0  0  0  0
    5.7806   -0.3946   -0.0589 C   0  0  0  0  0  0  0  0  0  0  0  0
   -5.6581    0.1378    0.0556 C   0  0  0  0  0  0  0  0  0  0  0  0
    1.9598    0.9984    0.9171 H   0  0  0  0  0  0  0  0  0  0  0  0
    1.9452    0.9700   -0.8410 H   0  0  0  0  0  0  0  0  0  0  0  0
    0.7073   -1.1478    0.9910 H   0  0  0  0  0  0  0  0  0  0  0  0
    0.7443   -1.2387   -0.7835 H   0  0  0  0  0  0  0  0  0  0  0  0
    3.3055   -1.1155    0.9485 H   0  0  0  0  0  0  0  0  0  0  0  0
    3.2661   -1.1693   -0.8155 H   0  0  0  0  0  0  0  0  0  0  0  0
   -1.8006   -1.2352   -0.9611 H   0  0  0  0  0  0  0  0  0  0  0  0
   -1.8331   -1.2881    0.8149 H   0  0  0  0  0  0  0  0  0  0  0  0
   -3.1656    0.8447   -0.9331 H   0  0  0  0  0  0  0  0  0  0  0  0
   -3.1477    0.8541    0.8249 H   0  0  0  0  0  0  0  0  0  0  0  0
    4.5133    1.0720    0.8661 H   0  0  0  0  0  0  0  0  0  0  0  0
    4.4427    1.0569   -0.8974 H   0  0  0  0  0  0  0  0  0  0  0  0
   -4.3466   -1.3729    0.8300 H   0  0  0  0  0  0  0  0  0  0  0  0
   -4.4174   -1.3135   -0.9329 H   0  0  0  0  0  0  0  0  0  0  0  0
    5.8071   -1.0375   -0.9444 H   0  0  0  0  0  0  0  0  0  0  0  0
    6.6471    0.2731   -0.0981 H   0  0  0  0  0  0  0  0  0  0  0  0
    5.8792   -1.0276    0.8287 H   0  0  0  0  0  0  0  0  0  0  0  0
   -5.6717    0.7419    0.9684 H   0  0  0  0  0  0  0  0  0  0  0  0
   -6.5374   -0.5138    0.0665 H   0  0  0  0  0  0  0  0  0  0  0  0
   -5.7443    0.8107   -0.8036 H   0  0  0  0  0  0  0  0  0  0  0  0
  1  7  2  0  0  0  0
  2  3  1  0  0  0  0
  2  4  1  0  0  0  0
  2 12  1  0  0  0  0
  2 13  1  0  0  0  0
  3  7  1  0  0  0  0
  3 14  1  0  0  0  0
  3 15  1  0  0  0  0
  4  8  1  0  0  0  0
  4 16  1  0  0  0  0
  4 17  1  0  0  0  0
  5  6  1  0  0  0  0
  5  7  1  0  0  0  0
  5 18  1  0  0  0  0
  5 19  1  0  0  0  0
  6  9  1  0  0  0  0
  6 20  1  0  0  0  0
  6 21  1  0  0  0  0
  8 10  1  0  0  0  0
  8 22  1  0  0  0  0
  8 23  1  0  0  0  0
  9 11  1  0  0  0  0
  9 24  1  0  0  0  0
  9 25  1  0  0  0  0
 10 26  1  0  0  0  0
 10 27  1  0  0  0  0
 10 28  1  0  0  0  0
 11 29  1  0  0  0  0
 11 30  1  0  0  0  0
 11 31  1  0  0  0  0
M  END
> <PUBCHEM_COMPOUND_CID>
13175

> <PUBCHEM_CONFORMER_RMSD>
0.8

> <PUBCHEM_CONFORMER_DIVERSEORDER>
1
6
127
32
162
7
14
189
178
182
41
137
50
180
20
57
199
2
172
126
208
93
209
110
190
55
102
8
200
136
11
91
198
43
158
67
183
15
175
94
147
9
179
85
191
211
149
12
167
111
47
21
74
144
187
196
31
194
46
169
164
78
159
97
10
40
210
186
201
150
66
122
39
185
16
176
27
118
69
193
115
207
29
24
116
73
212
79
213
170
80
18
33
92
206
128
4
81
173
35
25
203
82
3
141
134
65
135
44
168
28
177
109
98
129
130
84
75
120
38
23
133
146
195
188
160
107
161
51
154
53
60
156
139
105
214
184
68
197
63
112
58
64
140
165
119
42
70
96
17
174
145
148
22
113
121
205
171
181
95
90
123
62
5
52
83
48
13
114
71
117
202
166
142
19
143
86
157
30
153
125
100
54
151
163
37
34
131
99
36
89
155
104
72
26
132
88
138
106
204
124
77
192
152
108
56
76
45
61
103
87
59
101
49

> <PUBCHEM_MMFF94_PARTIAL_CHARGES>
4
1 -0.57
3 0.06
5 0.06
7 0.45

> <PUBCHEM_EFFECTIVE_ROTOR_COUNT>
7

> <PUBCHEM_PHARMACOPHORE_FEATURES>
4
1 1 acceptor
1 10 hydrophobe
1 11 hydrophobe
4 2 3 4 8 hydrophobe

> <PUBCHEM_HEAVY_ATOM_COUNT>
11

> <PUBCHEM_ATOM_DEF_STEREO_COUNT>
0

> <PUBCHEM_ATOM_UDEF_STEREO_COUNT>
0

> <PUBCHEM_BOND_DEF_STEREO_COUNT>
0

> <PUBCHEM_BOND_UDEF_STEREO_COUNT>
0

> <PUBCHEM_ISOTOPIC_ATOM_COUNT>
0

> <PUBCHEM_COMPONENT_COUNT>
1

> <PUBCHEM_CACTVS_TAUTO_COUNT>
3

> <PUBCHEM_CONFORMER_ID>
0000337700000001

> <PUBCHEM_MMFF94_ENERGY>
-1.5879

> <PUBCHEM_FEATURE_SELFOVERLAP>
20.298

> <PUBCHEM_SHAPE_FINGERPRINT>
11062470 55 17346599672818170515
11287383 113 15697991908118812581
11401426 45 18409731755371665583
114248 4 15123510306752154171
12815109 37 18410575084663078918
13533116 47 17203338844649175930
14123238 8 14692573216809023810
1420 363 18272082799183778818
14251718 22 10879989159810498977
17834072 33 17313108497022750421
17834076 25 17489869340662870419
187816 3 17203889664855511785
20645477 70 18262798592219916862
20719005 15 18410856555344828770
20767249 13 18412263930233754262
20767249 213 8214138560494412570
22485316 2 18408044004833398223
23402539 116 18260835886448560431
23557571 272 18341328993766617724
366044 4 18412545400915958987
42788 4 18410573980867033351
4463277 17 18410573980872658912
68521 5 18410855503442507245
8209 1 18412545409980127470

> <PUBCHEM_SHAPE_MULTIPOLES>
220.51
13.1
0.93
0.61
1.59
0.13
0
-1.19
-0.09
-0.1
0
0.01
-0.01
-0.01

> <PUBCHEM_SHAPE_SELFOVERLAP>
394.684

> <PUBCHEM_SHAPE_VOLUME>
143.1

> <PUBCHEM_COORDINATE_TYPE>
2
5
10

$$$$

