7752
  -OEChem-06261202173D

 16 15  0     0  0  0  0  0  0999 V2000
    0.6890    0.4498    0.0000 O   0  0  0  0  0  0  0  0  0  0  0  0
   -0.6400   -1.4234    0.0000 O   0  0  0  0  0  0  0  0  0  0  0  0
   -1.5400    0.7149    0.0000 N   0  0  0  0  0  0  0  0  0  0  0  0
    1.8535   -0.3837    0.0000 C   0  0  0  0  0  0  0  0  0  0  0  0
    3.0875    0.4933    0.0000 C   0  0  0  0  0  0  0  0  0  0  0  0
   -0.5113   -0.2036    0.0000 C   0  0  0  0  0  0  0  0  0  0  0  0
   -2.9386    0.3526    0.0000 C   0  0  0  0  0  0  0  0  0  0  0  0
    1.8491   -1.0166    0.8943 H   0  0  0  0  0  0  0  0  0  0  0  0
    1.8491   -1.0165   -0.8945 H   0  0  0  0  0  0  0  0  0  0  0  0
    3.9978   -0.1125    0.0000 H   0  0  0  0  0  0  0  0  0  0  0  0
    3.0966    1.1457   -0.8794 H   0  0  0  0  0  0  0  0  0  0  0  0
    3.0966    1.1456    0.8795 H   0  0  0  0  0  0  0  0  0  0  0  0
   -1.3012    1.7018   -0.0003 H   0  0  0  0  0  0  0  0  0  0  0  0
   -3.0689   -0.7321    0.0021 H   0  0  0  0  0  0  0  0  0  0  0  0
   -3.4016    0.7805   -0.8924 H   0  0  0  0  0  0  0  0  0  0  0  0
   -3.4025    0.7841    0.8903 H   0  0  0  0  0  0  0  0  0  0  0  0
  1  4  1  0  0  0  0
  1  6  1  0  0  0  0
  2  6  2  0  0  0  0
  3  6  1  0  0  0  0
  3  7  1  0  0  0  0
  3 13  1  0  0  0  0
  4  5  1  0  0  0  0
  4  8  1  0  0  0  0
  4  9  1  0  0  0  0
  5 10  1  0  0  0  0
  5 11  1  0  0  0  0
  5 12  1  0  0  0  0
  7 14  1  0  0  0  0
  7 15  1  0  0  0  0
  7 16  1  0  0  0  0
M  END
> <PUBCHEM_COMPOUND_CID>
7752

> <PUBCHEM_CONFORMER_RMSD>
0.4

> <PUBCHEM_CONFORMER_DIVERSEORDER>
1
20
12
11
15
16
19
8
7
18
6
17
14
2
13
5
3
4
9
10

> <PUBCHEM_MMFF94_PARTIAL_CHARGES>
7
1 -0.43
13 0.37
2 -0.57
3 -0.73
4 0.28
6 0.78
7 0.3

> <PUBCHEM_EFFECTIVE_ROTOR_COUNT>
3

> <PUBCHEM_PHARMACOPHORE_FEATURES>
2
1 2 acceptor
1 3 donor

> <PUBCHEM_HEAVY_ATOM_COUNT>
7

> <PUBCHEM_ATOM_DEF_STEREO_COUNT>
0

> <PUBCHEM_ATOM_UDEF_STEREO_COUNT>
0

> <PUBCHEM_BOND_DEF_STEREO_COUNT>
0

> <PUBCHEM_BOND_UDEF_STEREO_COUNT>
0

> <PUBCHEM_ISOTOPIC_ATOM_COUNT>
0

> <PUBCHEM_COMPONENT_COUNT>
1

> <PUBCHEM_CACTVS_TAUTO_COUNT>
2

> <PUBCHEM_CONFORMER_ID>
00001E4800000001

> <PUBCHEM_MMFF94_ENERGY>
1.4675

> <PUBCHEM_FEATURE_SELFOVERLAP>
10.148

> <PUBCHEM_SHAPE_FINGERPRINT>
16714656 1 10015864284070115937
23552423 10 7636859792956861328
29004967 10 8862650322381737613
5460574 1 18410856572735778980

> <PUBCHEM_SHAPE_MULTIPOLES>
127.34
4.5
0.98
0.58
0.59
0.27
0
-1.14
0
-0.12
0
0.02
-0.01
0

> <PUBCHEM_SHAPE_SELFOVERLAP>
227.409

> <PUBCHEM_SHAPE_VOLUME>
83.3

> <PUBCHEM_COORDINATE_TYPE>
2
5
10

$$$$

