17395553
  -OEChem-06241222513D

 42 43  0     0  0  0  0  0  0999 V2000
   -0.2123    0.4055    1.1349 O   0  0  0  0  0  0  0  0  0  0  0  0
    2.9331   -1.6509   -0.9815 O   0  0  0  0  0  0  0  0  0  0  0  0
   -2.7242   -0.4516    0.3725 N   0  0  0  0  0  0  0  0  0  0  0  0
    0.7309   -1.2856   -0.2031 N   0  0  0  0  0  0  0  0  0  0  0  0
    4.1978   -1.0769   -0.9369 N   0  0  0  0  0  0  0  0  0  0  0  0
   -5.3218    0.6177   -0.4664 C   0  0  0  0  0  0  0  0  0  0  0  0
   -3.9963    1.2899   -0.8395 C   0  0  0  0  0  0  0  0  0  0  0  0
   -5.1446   -0.1988    0.8183 C   0  0  0  0  0  0  0  0  0  0  0  0
   -2.8543    0.2733   -0.8985 C   0  0  0  0  0  0  0  0  0  0  0  0
   -3.9642   -1.1657    0.7049 C   0  0  0  0  0  0  0  0  0  0  0  0
   -6.4357    1.6493   -0.3114 C   0  0  0  0  0  0  0  0  0  0  0  0
   -1.5967   -1.3819    0.3183 C   0  0  0  0  0  0  0  0  0  0  0  0
   -0.2913   -0.6215    0.4688 C   0  0  0  0  0  0  0  0  0  0  0  0
    5.2072    0.9011    0.0536 C   0  0  0  0  0  0  0  0  0  0  0  0
    2.0649   -0.8776   -0.2807 C   0  0  0  0  0  0  0  0  0  0  0  0
    4.0487    0.0313   -0.2057 C   0  0  0  0  0  0  0  0  0  0  0  0
    2.7252    0.2067    0.2340 C   0  0  0  0  0  0  0  0  0  0  0  0
    5.5760    1.0107    1.5528 C   0  0  0  0  0  0  0  0  0  0  0  0
    5.0575    2.3249   -0.5345 C   0  0  0  0  0  0  0  0  0  0  0  0
   -5.6039   -0.0676   -1.2770 H   0  0  0  0  0  0  0  0  0  0  0  0
   -4.0908    1.7870   -1.8125 H   0  0  0  0  0  0  0  0  0  0  0  0
   -3.7511    2.0699   -0.1067 H   0  0  0  0  0  0  0  0  0  0  0  0
   -4.9829    0.4738    1.6712 H   0  0  0  0  0  0  0  0  0  0  0  0
   -6.0592   -0.7654    1.0301 H   0  0  0  0  0  0  0  0  0  0  0  0
   -1.9320    0.8213   -1.1251 H   0  0  0  0  0  0  0  0  0  0  0  0
   -3.0289   -0.4224   -1.7301 H   0  0  0  0  0  0  0  0  0  0  0  0
   -4.1863   -1.9339   -0.0475 H   0  0  0  0  0  0  0  0  0  0  0  0
   -3.8535   -1.6765    1.6693 H   0  0  0  0  0  0  0  0  0  0  0  0
   -6.5747    2.2123   -1.2403 H   0  0  0  0  0  0  0  0  0  0  0  0
   -7.3854    1.1610   -0.0694 H   0  0  0  0  0  0  0  0  0  0  0  0
   -6.2096    2.3643    0.4871 H   0  0  0  0  0  0  0  0  0  0  0  0
   -1.6254   -2.0758    1.1688 H   0  0  0  0  0  0  0  0  0  0  0  0
   -1.6154   -1.9860   -0.5970 H   0  0  0  0  0  0  0  0  0  0  0  0
    0.5253   -2.1511   -0.6953 H   0  0  0  0  0  0  0  0  0  0  0  0
    6.0851    0.4611   -0.4415 H   0  0  0  0  0  0  0  0  0  0  0  0
    2.3225    1.0074    0.8362 H   0  0  0  0  0  0  0  0  0  0  0  0
    5.7433    0.0170    1.9827 H   0  0  0  0  0  0  0  0  0  0  0  0
    6.4912    1.5971    1.6858 H   0  0  0  0  0  0  0  0  0  0  0  0
    4.7752    1.4928    2.1244 H   0  0  0  0  0  0  0  0  0  0  0  0
    5.9758    2.9036   -0.3895 H   0  0  0  0  0  0  0  0  0  0  0  0
    4.8509    2.2786   -1.6094 H   0  0  0  0  0  0  0  0  0  0  0  0
    4.2332    2.8666   -0.0577 H   0  0  0  0  0  0  0  0  0  0  0  0
  1 13  2  0  0  0  0
  2  5  1  0  0  0  0
  2 15  1  0  0  0  0
  3  9  1  0  0  0  0
  3 10  1  0  0  0  0
  3 12  1  0  0  0  0
  4 13  1  0  0  0  0
  4 15  1  0  0  0  0
  4 34  1  0  0  0  0
  5 16  2  0  0  0  0
  6  7  1  0  0  0  0
  6  8  1  0  0  0  0
  6 11  1  0  0  0  0
  6 20  1  0  0  0  0
  7  9  1  0  0  0  0
  7 21  1  0  0  0  0
  7 22  1  0  0  0  0
  8 10  1  0  0  0  0
  8 23  1  0  0  0  0
  8 24  1  0  0  0  0
  9 25  1  0  0  0  0
  9 26  1  0  0  0  0
 10 27  1  0  0  0  0
 10 28  1  0  0  0  0
 11 29  1  0  0  0  0
 11 30  1  0  0  0  0
 11 31  1  0  0  0  0
 12 13  1  0  0  0  0
 12 32  1  0  0  0  0
 12 33  1  0  0  0  0
 14 16  1  0  0  0  0
 14 18  1  0  0  0  0
 14 19  1  0  0  0  0
 14 35  1  0  0  0  0
 15 17  2  0  0  0  0
 16 17  1  0  0  0  0
 17 36  1  0  0  0  0
 18 37  1  0  0  0  0
 18 38  1  0  0  0  0
 18 39  1  0  0  0  0
 19 40  1  0  0  0  0
 19 41  1  0  0  0  0
 19 42  1  0  0  0  0
M  END
> <PUBCHEM_COMPOUND_CID>
17395553

> <PUBCHEM_CONFORMER_RMSD>
0.8

> <PUBCHEM_CONFORMER_DIVERSEORDER>
1
28
29
57
24
60
8
41
48
46
20
32
15
61
59
37
26
25
18
22
65
52
14
44
49
40
21
51
34
39
53
38
62
31
13
47
58
2
63
43
17
27
35
30
45
66
54
23
56
11
19
7
42
3
50
4
55
9
5
12
33
64
6
36
16
10

> <PUBCHEM_MMFF94_PARTIAL_CHARGES>
15
1 -0.57
10 0.27
12 0.33
13 0.57
14 0.18
15 0.2
16 0.11
17 -0.15
2 -0.02
3 -0.81
34 0.37
36 0.15
4 -0.49
5 -0.41
9 0.27

> <PUBCHEM_EFFECTIVE_ROTOR_COUNT>
6.2

> <PUBCHEM_PHARMACOPHORE_FEATURES>
7
1 1 acceptor
1 3 cation
1 4 donor
1 5 acceptor
3 14 18 19 hydrophobe
5 2 5 15 16 17 rings
6 3 6 7 8 9 10 rings

> <PUBCHEM_HEAVY_ATOM_COUNT>
19

> <PUBCHEM_ATOM_DEF_STEREO_COUNT>
0

> <PUBCHEM_ATOM_UDEF_STEREO_COUNT>
0

> <PUBCHEM_BOND_DEF_STEREO_COUNT>
0

> <PUBCHEM_BOND_UDEF_STEREO_COUNT>
0

> <PUBCHEM_ISOTOPIC_ATOM_COUNT>
0

> <PUBCHEM_COMPONENT_COUNT>
1

> <PUBCHEM_CACTVS_TAUTO_COUNT>
4

> <PUBCHEM_CONFORMER_ID>
01096F6100000001

> <PUBCHEM_MMFF94_ENERGY>
21.2122

> <PUBCHEM_FEATURE_SELFOVERLAP>
35.52

> <PUBCHEM_SHAPE_FINGERPRINT>
10 15 17846212237642074361
10014705 185 18410011009681732451
11128504 68 15791729681313280280
11287383 113 18341610399659600994
11595378 159 16486990508497556948
117890 112 18342459227237237872
12403259 415 18341038675104142934
12596602 18 16343986871011658160
12916748 109 18131066056560659745
13288520 33 7204771493544731339
13533116 47 16845583045432904448
13685833 64 9727635007704338588
13760787 5 17240758510206780054
14123256 34 11240007784401709240
14251764 18 16057162796570816202
14528608 73 16515687723649018976
15048467 5 18410575102412874685
15183329 4 15791733036015346833
16079462 125 18408892836336542585
17834072 33 4750872667354650570
17870717 6 5906050348826794445
17959699 21 18408602582452044536
18222031 100 5545192826622894954
20281389 69 17917150602310979469
20645477 56 18272088283878108303
20645477 70 17967803998911597766
20871999 31 17822303327331788287
21033648 29 18410862018743923704
21150785 3 16660371359568932661
220451 1 5184074721339325871
22224240 67 17988637524481767889
22289505 5 18260546736476353640
22849339 104 15068912901850826709
23402539 116 17775569710932421223
23402655 69 17894630357183505742
23522609 53 8645653026854627322
23559900 14 18339918320517323502
2767999 5 18260271828282943312
2916195 48 18272652333532957441
29717793 49 16515959367572267734
300161 21 17822016397535276742
3545911 37 18335414652180532030
4072396 5 18261123980434247402
465052 167 10807940375251824328
5104073 3 17774720978376601307
543368 44 17240768350319500089
960060 61 16443062811660163798

> <PUBCHEM_SHAPE_MULTIPOLES>
364.33
16.19
1.77
1.07
2.49
0.48
-0.16
8.62
-0.77
-0.46
0.29
-0.61
0.02
1.34

> <PUBCHEM_SHAPE_SELFOVERLAP>
737.818

> <PUBCHEM_SHAPE_VOLUME>
213

> <PUBCHEM_COORDINATE_TYPE>
2
5
10

$$$$

