47205456
  -OEChem-06241222583D

 33 34  0     1  0  0  0  0  0999 V2000
    5.0700    0.4812   -0.1957 O   0  0  0  0  0  0  0  0  0  0  0  0
   -0.8196   -2.0610   -1.1311 O   0  0  0  0  0  0  0  0  0  0  0  0
    0.9010    1.0598   -0.3328 O   0  0  0  0  0  0  0  0  0  0  0  0
   -3.2623    0.0853    0.1029 N   0  0  0  0  0  0  0  0  0  0  0  0
   -0.6153   -0.8979    0.8649 N   0  0  0  0  0  0  0  0  0  0  0  0
    0.7569   -0.9343    0.8365 N   0  0  0  0  0  0  0  0  0  0  0  0
   -4.1024    1.9693    0.9255 N   0  0  0  0  0  0  0  0  0  0  0  0
   -2.8345   -1.3694    0.0306 C   0  0  1  0  0  0  0  0  0  0  0  0
   -3.6028   -2.1112   -1.0654 C   0  0  0  0  0  0  0  0  0  0  0  0
   -1.3239   -1.4900   -0.1662 C   0  0  0  0  0  0  0  0  0  0  0  0
   -3.1308    1.0175   -0.8876 C   0  0  0  0  0  0  0  0  0  0  0  0
   -3.8505    0.7028    1.1715 C   0  0  0  0  0  0  0  0  0  0  0  0
    2.9151   -0.0193    0.2023 C   0  0  0  0  0  0  0  0  0  0  0  0
    3.7835    0.8859   -0.3625 C   0  0  0  0  0  0  0  0  0  0  0  0
   -3.6561    2.1719   -0.3565 C   0  0  0  0  0  0  0  0  0  0  0  0
    1.4337    0.0954    0.2109 C   0  0  0  0  0  0  0  0  0  0  0  0
    3.7198   -1.0459    0.7516 C   0  0  0  0  0  0  0  0  0  0  0  0
    3.5954    2.1551   -1.0819 C   0  0  0  0  0  0  0  0  0  0  0  0
    5.0226   -0.6950    0.4830 C   0  0  0  0  0  0  0  0  0  0  0  0
   -3.0929   -1.7937    1.0090 H   0  0  0  0  0  0  0  0  0  0  0  0
   -3.3688   -1.7191   -2.0614 H   0  0  0  0  0  0  0  0  0  0  0  0
   -3.3506   -3.1771   -1.0609 H   0  0  0  0  0  0  0  0  0  0  0  0
   -4.6835   -2.0163   -0.9150 H   0  0  0  0  0  0  0  0  0  0  0  0
   -2.6895    0.7914   -1.8482 H   0  0  0  0  0  0  0  0  0  0  0  0
   -4.0692    0.1848    2.0951 H   0  0  0  0  0  0  0  0  0  0  0  0
   -1.0439   -0.4478    1.6666 H   0  0  0  0  0  0  0  0  0  0  0  0
    1.1961   -1.7312    1.2838 H   0  0  0  0  0  0  0  0  0  0  0  0
   -3.7348    3.1387   -0.8318 H   0  0  0  0  0  0  0  0  0  0  0  0
    3.4088   -1.9362    1.2790 H   0  0  0  0  0  0  0  0  0  0  0  0
    3.0753    2.8829   -0.4514 H   0  0  0  0  0  0  0  0  0  0  0  0
    4.5540    2.5940   -1.3767 H   0  0  0  0  0  0  0  0  0  0  0  0
    3.0061    1.9998   -1.9909 H   0  0  0  0  0  0  0  0  0  0  0  0
    5.9786   -1.1506    0.6959 H   0  0  0  0  0  0  0  0  0  0  0  0
  1 14  1  0  0  0  0
  1 19  1  0  0  0  0
  2 10  2  0  0  0  0
  3 16  2  0  0  0  0
  4  8  1  0  0  0  0
  4 11  1  0  0  0  0
  4 12  1  0  0  0  0
  5  6  1  0  0  0  0
  5 10  1  0  0  0  0
  5 26  1  0  0  0  0
  6 16  1  0  0  0  0
  6 27  1  0  0  0  0
  7 12  2  0  0  0  0
  7 15  1  0  0  0  0
  8  9  1  0  0  0  0
  8 10  1  0  0  0  0
  8 20  1  0  0  0  0
  9 21  1  0  0  0  0
  9 22  1  0  0  0  0
  9 23  1  0  0  0  0
 11 15  2  0  0  0  0
 11 24  1  0  0  0  0
 12 25  1  0  0  0  0
 13 14  2  0  0  0  0
 13 16  1  0  0  0  0
 13 17  1  0  0  0  0
 14 18  1  0  0  0  0
 15 28  1  0  0  0  0
 17 19  2  0  0  0  0
 17 29  1  0  0  0  0
 18 30  1  0  0  0  0
 18 31  1  0  0  0  0
 18 32  1  0  0  0  0
 19 33  1  0  0  0  0
M  END
> <PUBCHEM_COMPOUND_CID>
47205456

> <PUBCHEM_CONFORMER_RMSD>
0.8

> <PUBCHEM_CONFORMER_DIVERSEORDER>
1
38
84
56
15
33
64
51
43
86
74
59
61
20
70
44
31
90
28
35
3
67
30
19
75
29
78
4
65
87
18
52
50
77
69
36
79
16
32
55
54
5
37
71
10
72
17
81
83
27
9
6
57
62
47
68
7
23
21
49
8
80
39
40
26
76
13
58
45
89
73
63
24
48
41
34
91
42
66
11
60
2
22
53
14
82
12
88
85
46
25

> <PUBCHEM_MMFF94_PARTIAL_CHARGES>
25
1 -0.28
10 0.57
11 -0.3
12 0.04
13 -0.09
14 -0.04
15 0.08
16 0.72
17 -0.15
18 0.18
19 -0.01
2 -0.57
24 0.15
25 0.15
26 0.37
27 0.37
28 0.15
29 0.15
3 -0.57
33 0.15
4 0.05
5 -0.43
6 -0.43
7 -0.57
8 0.32

> <PUBCHEM_EFFECTIVE_ROTOR_COUNT>
6

> <PUBCHEM_PHARMACOPHORE_FEATURES>
8
1 1 acceptor
1 2 acceptor
1 3 acceptor
1 5 donor
1 6 donor
3 4 7 12 cation
5 1 13 14 17 19 rings
5 4 7 11 12 15 rings

> <PUBCHEM_HEAVY_ATOM_COUNT>
19

> <PUBCHEM_ATOM_DEF_STEREO_COUNT>
0

> <PUBCHEM_ATOM_UDEF_STEREO_COUNT>
1

> <PUBCHEM_BOND_DEF_STEREO_COUNT>
0

> <PUBCHEM_BOND_UDEF_STEREO_COUNT>
0

> <PUBCHEM_ISOTOPIC_ATOM_COUNT>
0

> <PUBCHEM_COMPONENT_COUNT>
1

> <PUBCHEM_CACTVS_TAUTO_COUNT>
4

> <PUBCHEM_CONFORMER_ID>
02D04C5000000001

> <PUBCHEM_MMFF94_ENERGY>
21.5878

> <PUBCHEM_FEATURE_SELFOVERLAP>
42.134

> <PUBCHEM_SHAPE_FINGERPRINT>
10906281 52 17988633079185393472
11370993 144 15697446670684412193
12107183 9 18052545657634115418
12670546 56 18340775844843857566
13583140 156 17489590116597228153
13675066 3 17846775230486815016
14004511 7 18413108363890957938
14251751 93 18411985775609583311
15239154 128 18343019978215006316
17349148 13 5833986170313883990
17818456 19 18189335847985363424
17834072 32 18269838773609370813
18186145 218 17060343998523637514
20261772 1 18272649077621017796
20300324 65 18336550408968714815
20645477 56 18187080668069449683
23402539 116 17895199934419177312
23402655 69 18412260623915979916
23557571 272 17822285760872985343
23559900 14 17676762171843764430
27216 239 18201432619338289641
2838139 119 18058742441271499565
4214541 1 18410576180032733202
4921388 177 15285649772326788765
5104073 3 18343024367914072864
543358 83 18343862221818417744
559249 180 18334862753241786470
633830 44 17918273164579814434
6430166 295 18410294743710754328

> <PUBCHEM_SHAPE_MULTIPOLES>
353.48
10.98
2.33
1.07
6.12
0.34
-0.03
2.82
0.39
-1.9
-0.61
-0.53
-0.01
-1.68

> <PUBCHEM_SHAPE_SELFOVERLAP>
745.038

> <PUBCHEM_SHAPE_VOLUME>
200.9

> <PUBCHEM_COORDINATE_TYPE>
2
5
10

$$$$

