13284
  -OEChem-06261208303D

 34 35  0     0  0  0  0  0  0999 V2000
    4.9076    0.2014   -0.0176 N   0  0  0  0  0  0  0  0  0  0  0  0
    3.5098    0.0128   -0.0043 C   0  0  0  0  0  0  0  0  0  0  0  0
    0.7641   -0.3570    0.0248 C   0  0  0  0  0  0  0  0  0  0  0  0
    2.6648    1.0256   -0.4582 C   0  0  0  0  0  0  0  0  0  0  0  0
    2.9724   -1.1859    0.4644 C   0  0  0  0  0  0  0  0  0  0  0  0
    1.2825    0.8394   -0.4434 C   0  0  0  0  0  0  0  0  0  0  0  0
    1.5901   -1.3723    0.4790 C   0  0  0  0  0  0  0  0  0  0  0  0
   -0.6962   -0.5533    0.0399 C   0  0  0  0  0  0  0  0  0  0  0  0
    5.4707    1.5275    0.1405 C   0  0  0  0  0  0  0  0  0  0  0  0
    5.7992   -0.9302   -0.1756 C   0  0  0  0  0  0  0  0  0  0  0  0
   -3.0588    0.2448   -0.0040 C   0  0  0  0  0  0  0  0  0  0  0  0
   -1.6173    0.4386    0.0006 C   0  0  0  0  0  0  0  0  0  0  0  0
   -3.5959   -0.9861   -0.3812 C   0  0  0  0  0  0  0  0  0  0  0  0
   -3.9042    1.2897    0.3688 C   0  0  0  0  0  0  0  0  0  0  0  0
   -4.9783   -1.1719   -0.3856 C   0  0  0  0  0  0  0  0  0  0  0  0
   -5.2866    1.1039    0.3646 C   0  0  0  0  0  0  0  0  0  0  0  0
   -5.8238   -0.1269   -0.0126 C   0  0  0  0  0  0  0  0  0  0  0  0
    3.0520    1.9641   -0.8449 H   0  0  0  0  0  0  0  0  0  0  0  0
    3.6013   -1.9896    0.8368 H   0  0  0  0  0  0  0  0  0  0  0  0
    0.6649    1.6439   -0.8295 H   0  0  0  0  0  0  0  0  0  0  0  0
    1.1865   -2.3103    0.8510 H   0  0  0  0  0  0  0  0  0  0  0  0
   -1.0035   -1.5937    0.1046 H   0  0  0  0  0  0  0  0  0  0  0  0
    5.4221    2.0846   -0.8009 H   0  0  0  0  0  0  0  0  0  0  0  0
    6.5239    1.4769    0.4387 H   0  0  0  0  0  0  0  0  0  0  0  0
    4.9498    2.0942    0.9206 H   0  0  0  0  0  0  0  0  0  0  0  0
    6.7952   -0.6062   -0.4979 H   0  0  0  0  0  0  0  0  0  0  0  0
    5.4333   -1.6264   -0.9388 H   0  0  0  0  0  0  0  0  0  0  0  0
    5.9181   -1.4661    0.7720 H   0  0  0  0  0  0  0  0  0  0  0  0
   -1.3057    1.4794   -0.0111 H   0  0  0  0  0  0  0  0  0  0  0  0
   -2.9802   -1.8217   -0.7007 H   0  0  0  0  0  0  0  0  0  0  0  0
   -3.5046    2.2560    0.6672 H   0  0  0  0  0  0  0  0  0  0  0  0
   -5.3975   -2.1284   -0.6842 H   0  0  0  0  0  0  0  0  0  0  0  0
   -5.9450    1.9174    0.6550 H   0  0  0  0  0  0  0  0  0  0  0  0
   -6.9002   -0.2713   -0.0171 H   0  0  0  0  0  0  0  0  0  0  0  0
  1  2  1  0  0  0  0
  1  9  1  0  0  0  0
  1 10  1  0  0  0  0
  2  4  2  0  0  0  0
  2  5  1  0  0  0  0
  3  6  2  0  0  0  0
  3  7  1  0  0  0  0
  3  8  1  0  0  0  0
  4  6  1  0  0  0  0
  4 18  1  0  0  0  0
  5  7  2  0  0  0  0
  5 19  1  0  0  0  0
  6 20  1  0  0  0  0
  7 21  1  0  0  0  0
  8 12  2  0  0  0  0
  8 22  1  0  0  0  0
  9 23  1  0  0  0  0
  9 24  1  0  0  0  0
  9 25  1  0  0  0  0
 10 26  1  0  0  0  0
 10 27  1  0  0  0  0
 10 28  1  0  0  0  0
 11 12  1  0  0  0  0
 11 13  2  0  0  0  0
 11 14  1  0  0  0  0
 12 29  1  0  0  0  0
 13 15  1  0  0  0  0
 13 30  1  0  0  0  0
 14 16  2  0  0  0  0
 14 31  1  0  0  0  0
 15 17  2  0  0  0  0
 15 32  1  0  0  0  0
 16 17  1  0  0  0  0
 16 33  1  0  0  0  0
 17 34  1  0  0  0  0
M  END
> <PUBCHEM_COMPOUND_CID>
13284

> <PUBCHEM_CONFORMER_RMSD>
0.6

> <PUBCHEM_CONFORMER_DIVERSEORDER>
2
1

> <PUBCHEM_MMFF94_PARTIAL_CHARGES>
28
1 -0.84
10 0.37
11 0.03
12 -0.18
13 -0.15
14 -0.15
15 -0.15
16 -0.15
17 -0.15
18 0.15
19 0.15
2 0.1
20 0.15
21 0.15
22 0.15
29 0.15
3 0.03
30 0.15
31 0.15
32 0.15
33 0.15
34 0.15
4 -0.15
5 -0.15
6 -0.15
7 -0.15
8 -0.18
9 0.37

> <PUBCHEM_EFFECTIVE_ROTOR_COUNT>
3

> <PUBCHEM_PHARMACOPHORE_FEATURES>
3
1 1 cation
6 11 13 14 15 16 17 rings
6 2 3 4 5 6 7 rings

> <PUBCHEM_HEAVY_ATOM_COUNT>
17

> <PUBCHEM_ATOM_DEF_STEREO_COUNT>
0

> <PUBCHEM_ATOM_UDEF_STEREO_COUNT>
0

> <PUBCHEM_BOND_DEF_STEREO_COUNT>
0

> <PUBCHEM_BOND_UDEF_STEREO_COUNT>
1

> <PUBCHEM_ISOTOPIC_ATOM_COUNT>
0

> <PUBCHEM_COMPONENT_COUNT>
1

> <PUBCHEM_CACTVS_TAUTO_COUNT>
1

> <PUBCHEM_CONFORMER_ID>
000033E400000002

> <PUBCHEM_MMFF94_ENERGY>
67.1504

> <PUBCHEM_FEATURE_SELFOVERLAP>
15.223

> <PUBCHEM_SHAPE_FINGERPRINT>
10354089 29 18201717362172961784
10595046 47 18408605855285474899
10912923 1 18410296934318265835
10968037 39 18410013217948823087
11287383 113 17967813829953860238
11315181 36 18186800271229724689
12107183 9 17617941773905970609
12236239 1 18334858315964855279
13167823 11 18410294713941694071
13533116 47 17274831306800768370
13862211 1 18202005456227265994
14123238 8 18131351916493186337
1420 363 18131064931105330451
14251718 22 18260548905144395427
14251732 16 18337954484926832219
14251764 18 18342742910533780200
14528608 73 18410573964030107612
15196674 1 18411138047506683360
17834072 33 18335421261786872070
17834076 25 18412825793570986274
17844677 252 18259978292853611424
18681886 176 18261116240438819722
200 152 18408886230966803219
20279233 1 15841549691323601411
20281389 69 18412263951793402601
20645477 70 18340206409601206118
21033648 29 15984557610955380101
21054139 6 18340494361309555991
21065198 48 18339082695979799851
21267235 1 18411974759097752751
21641784 216 16844997039810195692
21709351 56 18343869909282532917
220451 1 17704070711397635922
23035841 295 18334294287938018194
23402539 116 18259707795955467957
23402655 69 18409451396828041071
23536379 177 18187364346111078042
23557571 272 17313379075884014681
23559900 14 18263653883474966217
26918003 58 17275099527297438729
2916195 48 18187090503444532360
29717793 49 18186518825821802684
300161 21 18342182180582604541
34797466 226 17168417165297389548
3545911 37 18411417323950716419
4073 2 18131345272121251442
4214541 1 18409730677540706525
42788 4 18408322189680225452
4463277 17 18410012139068175308
5104073 3 18413389855947305371
542803 24 17676486155211109737
7495541 125 17023189266736880786
77779 3 18410011057221544451
9971528 1 18131067143356288540
9981440 41 17260466968462157280

> <PUBCHEM_SHAPE_MULTIPOLES>
344.87
15.05
1.46
0.7
0.85
0.06
0
1.25
-0.01
-0.33
-0.06
0.04
-0.01
-0.59

> <PUBCHEM_SHAPE_SELFOVERLAP>
731.066

> <PUBCHEM_SHAPE_VOLUME>
193.2

> <PUBCHEM_COORDINATE_TYPE>
2
5
10

$$$$

