9466
  -OEChem-06261203433D

 33 32  0     0  0  0  0  0  0999 V2000
    1.2047   -3.6029    0.2951 F   0  0  0  0  0  0  0  0  0  0  0  0
   -0.7898   -2.2989   -0.7624 O   0  0  0  0  0  0  0  0  0  0  0  0
   -0.0695   -0.2007   -0.0661 N   0  0  0  0  0  0  0  0  0  0  0  0
   -1.1736    0.4910   -0.6719 C   0  0  0  0  0  0  0  0  0  0  0  0
    0.9067    0.6382    0.6432 C   0  0  0  0  0  0  0  0  0  0  0  0
   -2.3620    0.6305    0.2734 C   0  0  0  0  0  0  0  0  0  0  0  0
    2.0366    1.1110   -0.2654 C   0  0  0  0  0  0  0  0  0  0  0  0
   -3.5504    1.3425   -0.3771 C   0  0  0  0  0  0  0  0  0  0  0  0
    3.0701    1.9621    0.4758 C   0  0  0  0  0  0  0  0  0  0  0  0
    0.0334   -1.5990   -0.1671 C   0  0  0  0  0  0  0  0  0  0  0  0
   -4.7400    1.4135    0.5677 C   0  0  0  0  0  0  0  0  0  0  0  0
    4.2144    2.3683   -0.4399 C   0  0  0  0  0  0  0  0  0  0  0  0
    1.2193   -2.2555    0.4948 C   0  0  0  0  0  0  0  0  0  0  0  0
   -0.8395    1.4753   -1.0204 H   0  0  0  0  0  0  0  0  0  0  0  0
   -1.4924   -0.0637   -1.5627 H   0  0  0  0  0  0  0  0  0  0  0  0
    0.3805    1.4973    1.0762 H   0  0  0  0  0  0  0  0  0  0  0  0
    1.3244    0.0791    1.4852 H   0  0  0  0  0  0  0  0  0  0  0  0
   -2.0577    1.1796    1.1731 H   0  0  0  0  0  0  0  0  0  0  0  0
   -2.6759   -0.3652    0.6121 H   0  0  0  0  0  0  0  0  0  0  0  0
    1.6192    1.6924   -1.0970 H   0  0  0  0  0  0  0  0  0  0  0  0
    2.5357    0.2474   -0.7201 H   0  0  0  0  0  0  0  0  0  0  0  0
   -3.8479    0.8118   -1.2889 H   0  0  0  0  0  0  0  0  0  0  0  0
   -3.2587    2.3572   -0.6714 H   0  0  0  0  0  0  0  0  0  0  0  0
    3.4737    1.3996    1.3256 H   0  0  0  0  0  0  0  0  0  0  0  0
    2.5899    2.8612    0.8788 H   0  0  0  0  0  0  0  0  0  0  0  0
   -4.4843    1.9627    1.4794 H   0  0  0  0  0  0  0  0  0  0  0  0
   -5.5770    1.9275    0.0848 H   0  0  0  0  0  0  0  0  0  0  0  0
   -5.0755    0.4113    0.8524 H   0  0  0  0  0  0  0  0  0  0  0  0
    3.8484    2.9562   -1.2877 H   0  0  0  0  0  0  0  0  0  0  0  0
    4.9402    2.9773    0.1081 H   0  0  0  0  0  0  0  0  0  0  0  0
    4.7357    1.4885   -0.8308 H   0  0  0  0  0  0  0  0  0  0  0  0
    2.1540   -1.8732    0.0814 H   0  0  0  0  0  0  0  0  0  0  0  0
    1.1855   -2.0920    1.5744 H   0  0  0  0  0  0  0  0  0  0  0  0
  1 13  1  0  0  0  0
  2 10  2  0  0  0  0
  3  4  1  0  0  0  0
  3  5  1  0  0  0  0
  3 10  1  0  0  0  0
  4  6  1  0  0  0  0
  4 14  1  0  0  0  0
  4 15  1  0  0  0  0
  5  7  1  0  0  0  0
  5 16  1  0  0  0  0
  5 17  1  0  0  0  0
  6  8  1  0  0  0  0
  6 18  1  0  0  0  0
  6 19  1  0  0  0  0
  7  9  1  0  0  0  0
  7 20  1  0  0  0  0
  7 21  1  0  0  0  0
  8 11  1  0  0  0  0
  8 22  1  0  0  0  0
  8 23  1  0  0  0  0
  9 12  1  0  0  0  0
  9 24  1  0  0  0  0
  9 25  1  0  0  0  0
 10 13  1  0  0  0  0
 11 26  1  0  0  0  0
 11 27  1  0  0  0  0
 11 28  1  0  0  0  0
 12 29  1  0  0  0  0
 12 30  1  0  0  0  0
 12 31  1  0  0  0  0
 13 32  1  0  0  0  0
 13 33  1  0  0  0  0
M  END
> <PUBCHEM_COMPOUND_CID>
9466

> <PUBCHEM_CONFORMER_RMSD>
0.8

> <PUBCHEM_CONFORMER_DIVERSEORDER>
1
67
101
107
35
96
97
36
63
47
80
105
58
114
126
120
3
79
89
27
30
100
98
121
117
18
84
99
94
115
5
71
118
103
28
108
81
34
102
113
125
86
51
40
24
127
8
73
62
46
56
38
90
49
48
110
68
26
92
64
106
39
111
11
25
61
29
69
4
123
95
109
59
2
20
76
88
122
19
70
75
32
50
85
57
124
45
116
93
22
72
91
9
77
12
87
43
44
66
6
112
83
31
17
37
7
13
52
60
74
65
41
33
78
104
23
82
14
21
42
55
53
10
16
15
119
54

> <PUBCHEM_MMFF94_PARTIAL_CHARGES>
7
1 -0.34
10 0.57
13 0.4
2 -0.57
3 -0.66
4 0.3
5 0.3

> <PUBCHEM_EFFECTIVE_ROTOR_COUNT>
8

> <PUBCHEM_PHARMACOPHORE_FEATURES>
3
1 11 hydrophobe
1 12 hydrophobe
1 2 acceptor

> <PUBCHEM_HEAVY_ATOM_COUNT>
13

> <PUBCHEM_ATOM_DEF_STEREO_COUNT>
0

> <PUBCHEM_ATOM_UDEF_STEREO_COUNT>
0

> <PUBCHEM_BOND_DEF_STEREO_COUNT>
0

> <PUBCHEM_BOND_UDEF_STEREO_COUNT>
0

> <PUBCHEM_ISOTOPIC_ATOM_COUNT>
0

> <PUBCHEM_COMPONENT_COUNT>
1

> <PUBCHEM_CACTVS_TAUTO_COUNT>
1

> <PUBCHEM_CONFORMER_ID>
000024FA00000001

> <PUBCHEM_MMFF94_ENERGY>
6.9453

> <PUBCHEM_FEATURE_SELFOVERLAP>
15.223

> <PUBCHEM_SHAPE_FINGERPRINT>
1 1 18411702127205321772
10922049 32 18410284783544633101
12346645 44 18407759240149291001
12500047 106 18192994825373075404
12532896 13 18338514127940084486
12644460 14 18269550705472232569
14123255 52 18410295778661359113
1741750 31 18264775363575812920
18785283 64 18272086140931877792
204376 136 18412261697130724941
20645477 56 18266739070053073256
20645477 70 18196381531808321637
20671657 1 18337388365377373151
20711985 344 17760662364663076914
20871999 31 18119808002522715140
21499 59 18411144619171072109
21524375 3 18261115144826877533
2255824 54 18191588760079760775
23419403 2 17467858204507205103
23598294 1 18054239734601375848
305870 269 18411140246525008525
3071541 12 18265894837836527414
3071541 37 18411416258445736925
458136 41 18411132558749709593
528862 383 18339651164486232915
7364860 26 18265898140650560265
81228 2 17617673054676264384
81539 233 18343303686347864045

> <PUBCHEM_SHAPE_MULTIPOLES>
249.41
6.95
3.49
0.81
3.28
3.64
0
-8.38
0.37
-2.38
0.11
0.06
-0.05
-0.53

> <PUBCHEM_SHAPE_SELFOVERLAP>
456.468

> <PUBCHEM_SHAPE_VOLUME>
159.3

> <PUBCHEM_COORDINATE_TYPE>
2
5
10

$$$$

