9701
  -OEChem-06261203573D

 28 28  0     1  0  0  0  0  0999 V2000
   -1.4335   -1.8578   -0.4805 O   0  0  0  0  0  0  0  0  0  0  0  0
    4.3310    0.3355    0.2232 O   0  0  0  0  0  0  0  0  0  0  0  0
   -3.4883   -0.1250    0.4802 N   0  0  0  0  0  0  0  0  0  0  0  0
   -2.0691    0.1738    0.7091 C   0  0  1  0  0  0  0  0  0  0  0  0
   -1.2194   -0.4448   -0.4237 C   0  0  1  0  0  0  0  0  0  0  0  0
    0.2699   -0.2355   -0.2505 C   0  0  0  0  0  0  0  0  0  0  0  0
   -1.9147    1.6934    0.7965 C   0  0  0  0  0  0  0  0  0  0  0  0
    0.9850    0.3927   -1.2550 C   0  0  0  0  0  0  0  0  0  0  0  0
    0.8824   -0.6765    0.9091 C   0  0  0  0  0  0  0  0  0  0  0  0
   -3.9472    0.4943   -0.7508 C   0  0  0  0  0  0  0  0  0  0  0  0
    2.3573    0.5857   -1.0946 C   0  0  0  0  0  0  0  0  0  0  0  0
    2.2545   -0.4833    1.0695 C   0  0  0  0  0  0  0  0  0  0  0  0
    2.9920    0.1476    0.0676 C   0  0  0  0  0  0  0  0  0  0  0  0
   -1.8134   -0.2661    1.6798 H   0  0  0  0  0  0  0  0  0  0  0  0
   -1.4948   -0.0451   -1.4038 H   0  0  0  0  0  0  0  0  0  0  0  0
   -0.9529    1.9419    1.2605 H   0  0  0  0  0  0  0  0  0  0  0  0
   -1.9222    2.1858   -0.1816 H   0  0  0  0  0  0  0  0  0  0  0  0
   -2.6883    2.1456    1.4280 H   0  0  0  0  0  0  0  0  0  0  0  0
   -3.6199   -1.1341    0.4187 H   0  0  0  0  0  0  0  0  0  0  0  0
    0.5035    0.7395   -2.1645 H   0  0  0  0  0  0  0  0  0  0  0  0
    0.3267   -1.1787    1.6950 H   0  0  0  0  0  0  0  0  0  0  0  0
   -1.6770   -2.1715    0.4067 H   0  0  0  0  0  0  0  0  0  0  0  0
   -3.4934    0.0877   -1.6576 H   0  0  0  0  0  0  0  0  0  0  0  0
   -3.8881    1.5857   -0.7570 H   0  0  0  0  0  0  0  0  0  0  0  0
   -5.0176    0.2731   -0.8452 H   0  0  0  0  0  0  0  0  0  0  0  0
    2.9204    1.0788   -1.8826 H   0  0  0  0  0  0  0  0  0  0  0  0
    2.7440   -0.8288    1.9761 H   0  0  0  0  0  0  0  0  0  0  0  0
    4.6797    0.7862   -0.5651 H   0  0  0  0  0  0  0  0  0  0  0  0
  1  5  1  0  0  0  0
  1 22  1  0  0  0  0
  2 13  1  0  0  0  0
  2 28  1  0  0  0  0
  3  4  1  0  0  0  0
  3 10  1  0  0  0  0
  3 19  1  0  0  0  0
  4  5  1  0  0  0  0
  4  7  1  0  0  0  0
  4 14  1  0  0  0  0
  5  6  1  0  0  0  0
  5 15  1  0  0  0  0
  6  8  2  0  0  0  0
  6  9  1  0  0  0  0
  7 16  1  0  0  0  0
  7 17  1  0  0  0  0
  7 18  1  0  0  0  0
  8 11  1  0  0  0  0
  8 20  1  0  0  0  0
  9 12  2  0  0  0  0
  9 21  1  0  0  0  0
 10 23  1  0  0  0  0
 10 24  1  0  0  0  0
 10 25  1  0  0  0  0
 11 13  2  0  0  0  0
 11 26  1  0  0  0  0
 12 13  1  0  0  0  0
 12 27  1  0  0  0  0
M  END
> <PUBCHEM_COMPOUND_CID>
9701

> <PUBCHEM_CONFORMER_RMSD>
0.6

> <PUBCHEM_CONFORMER_DIVERSEORDER>
2
17
18
9
1
6
11
14
8
7
12
4
5
16
15
13
3
10

> <PUBCHEM_MMFF94_PARTIAL_CHARGES>
19
1 -0.68
10 0.27
11 -0.15
12 -0.15
13 0.08
19 0.36
2 -0.53
20 0.15
21 0.15
22 0.4
26 0.15
27 0.15
28 0.45
3 -0.9
4 0.27
5 0.42
6 -0.14
8 -0.15
9 -0.15

> <PUBCHEM_EFFECTIVE_ROTOR_COUNT>
3

> <PUBCHEM_PHARMACOPHORE_FEATURES>
6
1 1 acceptor
1 1 donor
1 2 donor
1 3 cation
1 3 donor
6 6 8 9 11 12 13 rings

> <PUBCHEM_HEAVY_ATOM_COUNT>
13

> <PUBCHEM_ATOM_DEF_STEREO_COUNT>
0

> <PUBCHEM_ATOM_UDEF_STEREO_COUNT>
2

> <PUBCHEM_BOND_DEF_STEREO_COUNT>
0

> <PUBCHEM_BOND_UDEF_STEREO_COUNT>
0

> <PUBCHEM_ISOTOPIC_ATOM_COUNT>
0

> <PUBCHEM_COMPONENT_COUNT>
1

> <PUBCHEM_CACTVS_TAUTO_COUNT>
2

> <PUBCHEM_CONFORMER_ID>
000025E500000002

> <PUBCHEM_MMFF94_ENERGY>
33.5921

> <PUBCHEM_FEATURE_SELFOVERLAP>
30.449

> <PUBCHEM_SHAPE_FINGERPRINT>
10219947 1 17060335228031412456
11031198 65 15357691989901833028
11062470 55 16559032705267158281
11471102 20 16845578616751889870
11471102 22 16415473865848620072
12138202 97 17312827069264306727
12251169 10 16845567608745377067
124424 183 17240201045448646726
13538477 17 18412267198809549995
13581323 91 18333450936760103782
13839132 238 17677885919180759273
14144814 61 18342172301646250817
14993402 34 18411703192415285453
15310529 11 5184348473890790369
15775835 57 18273214192264037701
16945 1 18260535715067727341
17844478 74 16370719340319903737
18186145 218 16588290752473766485
18534176 82 17604147034488233951
190213 19 18272647956744894562
200 152 17846785074847438339
20201158 50 16081083783712259382
20344682 1 16660364774920084693
20645477 70 16916518054593336082
21293036 1 14490191605090306476
23402539 116 17894920641317508149
23557571 272 17678173793785127142
305870 269 18191579963659599955
77492 1 18273215278943478583

> <PUBCHEM_SHAPE_MULTIPOLES>
250.81
6.38
1.2
1.16
0.29
0.03
-0.12
0.86
-0.8
-0.22
0.1
0.64
0.01
-0.44

> <PUBCHEM_SHAPE_SELFOVERLAP>
511.178

> <PUBCHEM_SHAPE_VOLUME>
146.8

> <PUBCHEM_COORDINATE_TYPE>
2
5
10

$$$$

