17395346
  -OEChem-06241222493D

 42 44  0     0  0  0  0  0  0999 V2000
    3.7226   -2.2625   -0.4970 F   0  0  0  0  0  0  0  0  0  0  0  0
    6.3715    2.2907    0.9751 F   0  0  0  0  0  0  0  0  0  0  0  0
    2.7784    0.2041   -2.5320 O   0  0  0  0  0  0  0  0  0  0  0  0
   -1.1108   -0.3485    0.5361 N   0  0  0  0  0  0  0  0  0  0  0  0
    1.4235    0.3018   -0.6295 N   0  0  0  0  0  0  0  0  0  0  0  0
   -8.4062    1.2791   -0.5258 N   0  0  0  0  0  0  0  0  0  0  0  0
    0.1358   -0.6427    1.2575 C   0  0  0  0  0  0  0  0  0  0  0  0
   -0.9047   -0.4669   -0.9148 C   0  0  0  0  0  0  0  0  0  0  0  0
    1.2581    0.3048    0.8282 C   0  0  0  0  0  0  0  0  0  0  0  0
    0.1869    0.4936   -1.3839 C   0  0  0  0  0  0  0  0  0  0  0  0
   -2.1824   -1.2403    0.9771 C   0  0  0  0  0  0  0  0  0  0  0  0
    2.6399    0.2066   -1.3097 C   0  0  0  0  0  0  0  0  0  0  0  0
   -3.5409   -0.6908    0.6504 C   0  0  0  0  0  0  0  0  0  0  0  0
    3.8723    0.1078   -0.5165 C   0  0  0  0  0  0  0  0  0  0  0  0
   -3.8296    0.6505    0.9011 C   0  0  0  0  0  0  0  0  0  0  0  0
   -4.5138   -1.5216    0.0945 C   0  0  0  0  0  0  0  0  0  0  0  0
    4.3653   -1.1416   -0.1402 C   0  0  0  0  0  0  0  0  0  0  0  0
    4.5502    1.2673   -0.1398 C   0  0  0  0  0  0  0  0  0  0  0  0
   -5.0913    1.1613    0.5962 C   0  0  0  0  0  0  0  0  0  0  0  0
   -5.7754   -1.0110   -0.2103 C   0  0  0  0  0  0  0  0  0  0  0  0
   -6.0641    0.3304    0.0404 C   0  0  0  0  0  0  0  0  0  0  0  0
    5.7210    1.1773    0.6130 C   0  0  0  0  0  0  0  0  0  0  0  0
    5.5362   -1.2315    0.6126 C   0  0  0  0  0  0  0  0  0  0  0  0
    6.2141   -0.0721    0.9892 C   0  0  0  0  0  0  0  0  0  0  0  0
   -7.3566    0.8540   -0.2720 C   0  0  0  0  0  0  0  0  0  0  0  0
    0.4462   -1.6811    1.0797 H   0  0  0  0  0  0  0  0  0  0  0  0
   -0.0160   -0.5237    2.3371 H   0  0  0  0  0  0  0  0  0  0  0  0
   -1.8234   -0.2244   -1.4613 H   0  0  0  0  0  0  0  0  0  0  0  0
   -0.6240   -1.4943   -1.1832 H   0  0  0  0  0  0  0  0  0  0  0  0
    1.0199    1.3352    1.1196 H   0  0  0  0  0  0  0  0  0  0  0  0
    2.1817    0.0280    1.3410 H   0  0  0  0  0  0  0  0  0  0  0  0
    0.3635    0.3596   -2.4561 H   0  0  0  0  0  0  0  0  0  0  0  0
   -0.1259    1.5341   -1.2323 H   0  0  0  0  0  0  0  0  0  0  0  0
   -2.1600   -1.3482    2.0705 H   0  0  0  0  0  0  0  0  0  0  0  0
   -2.0489   -2.2510    0.5689 H   0  0  0  0  0  0  0  0  0  0  0  0
   -3.0910    1.3130    1.3446 H   0  0  0  0  0  0  0  0  0  0  0  0
   -4.3028   -2.5686   -0.1059 H   0  0  0  0  0  0  0  0  0  0  0  0
    4.1748    2.2460   -0.4269 H   0  0  0  0  0  0  0  0  0  0  0  0
   -5.3022    2.2084    0.7998 H   0  0  0  0  0  0  0  0  0  0  0  0
   -6.5235   -1.6710   -0.6432 H   0  0  0  0  0  0  0  0  0  0  0  0
    5.9197   -2.2044    0.9053 H   0  0  0  0  0  0  0  0  0  0  0  0
    7.1256   -0.1419    1.5755 H   0  0  0  0  0  0  0  0  0  0  0  0
  1 17  1  0  0  0  0
  2 22  1  0  0  0  0
  3 12  2  0  0  0  0
  4  7  1  0  0  0  0
  4  8  1  0  0  0  0
  4 11  1  0  0  0  0
  5  9  1  0  0  0  0
  5 10  1  0  0  0  0
  5 12  1  0  0  0  0
  6 25  3  0  0  0  0
  7  9  1  0  0  0  0
  7 26  1  0  0  0  0
  7 27  1  0  0  0  0
  8 10  1  0  0  0  0
  8 28  1  0  0  0  0
  8 29  1  0  0  0  0
  9 30  1  0  0  0  0
  9 31  1  0  0  0  0
 10 32  1  0  0  0  0
 10 33  1  0  0  0  0
 11 13  1  0  0  0  0
 11 34  1  0  0  0  0
 11 35  1  0  0  0  0
 12 14  1  0  0  0  0
 13 15  2  0  0  0  0
 13 16  1  0  0  0  0
 14 17  2  0  0  0  0
 14 18  1  0  0  0  0
 15 19  1  0  0  0  0
 15 36  1  0  0  0  0
 16 20  2  0  0  0  0
 16 37  1  0  0  0  0
 17 23  1  0  0  0  0
 18 22  2  0  0  0  0
 18 38  1  0  0  0  0
 19 21  2  0  0  0  0
 19 39  1  0  0  0  0
 20 21  1  0  0  0  0
 20 40  1  0  0  0  0
 21 25  1  0  0  0  0
 22 24  1  0  0  0  0
 23 24  2  0  0  0  0
 23 41  1  0  0  0  0
 24 42  1  0  0  0  0
M  END
> <PUBCHEM_COMPOUND_CID>
17395346

> <PUBCHEM_CONFORMER_RMSD>
0.8

> <PUBCHEM_CONFORMER_DIVERSEORDER>
1
88
83
67
31
77
37
66
50
65
15
14
71
28
64
82
11
19
44
87
81
84
26
54
9
57
53
17
39
74
36
42
21
75
56
55
25
46
85
79
47
13
48
38
27
43
41
86
70
72
33
23
78
68
7
40
4
45
18
73
32
52
20
80
63
30
69
6
2
3
59
61
22
60
51
8
24
62
35
49
12
76
16
5
29
34
10
58

> <PUBCHEM_MMFF94_PARTIAL_CHARGES>
32
1 -0.19
10 0.3
11 0.41
12 0.54
13 -0.14
14 0.09
15 -0.15
16 -0.15
17 0.19
18 -0.15
19 -0.15
2 -0.19
20 -0.15
21 0.07
22 0.19
23 -0.15
24 -0.15
25 0.48
3 -0.57
36 0.15
37 0.15
38 0.15
39 0.15
4 -0.81
40 0.15
41 0.15
42 0.15
5 -0.66
6 -0.56
7 0.27
8 0.27
9 0.3

> <PUBCHEM_EFFECTIVE_ROTOR_COUNT>
5.2

> <PUBCHEM_PHARMACOPHORE_FEATURES>
6
1 3 acceptor
1 4 cation
1 6 acceptor
6 13 15 16 19 20 21 rings
6 14 17 18 22 23 24 rings
6 4 5 7 8 9 10 rings

> <PUBCHEM_HEAVY_ATOM_COUNT>
25

> <PUBCHEM_ATOM_DEF_STEREO_COUNT>
0

> <PUBCHEM_ATOM_UDEF_STEREO_COUNT>
0

> <PUBCHEM_BOND_DEF_STEREO_COUNT>
0

> <PUBCHEM_BOND_UDEF_STEREO_COUNT>
0

> <PUBCHEM_ISOTOPIC_ATOM_COUNT>
0

> <PUBCHEM_COMPONENT_COUNT>
1

> <PUBCHEM_CACTVS_TAUTO_COUNT>
1

> <PUBCHEM_CONFORMER_ID>
01096E9200000001

> <PUBCHEM_MMFF94_ENERGY>
58.9441

> <PUBCHEM_FEATURE_SELFOVERLAP>
30.446

> <PUBCHEM_SHAPE_FINGERPRINT>
10299344 5 11312055461396982745
10366900 7 14345787241214723346
10835480 77 18334576815223836865
11089746 13 18202003201279706293
11315181 36 17894910716454910057
11719270 70 17095241444932104510
12236239 1 18060136518767024627
12596602 18 18260266330640590394
12616971 3 16630520696516129199
12730499 353 7132721600124975420
13533116 47 18340201990375030538
13668630 136 6411295741515553481
13914758 101 18131071563130921241
14123256 10 5039947438334676049
14251758 9 17060333024343989675
14251764 18 17989203720618373687
14294032 229 15050342330492830463
14856354 85 12103557602902457171
15131766 46 17825963516137628736
15142383 8 18131355228018629156
15183329 4 18343012320361943311
1577012 14 17417519234136143559
19141452 34 17846215514639045130
19489759 90 18334853922730321875
20157964 124 18186516626798663718
20511986 3 18336555949049635423
21130935 74 18131634456780718370
21150785 3 15936413329674938937
21267235 1 15123519129459057704
21774942 28 18189332541082870761
21781051 124 13686006644377267768
21859007 373 17631747070111292381
2297311 6 9871754589917035427
23035841 295 10015867574384388173
23081809 10 17274533227137807231
23424782 7 7420936595724434981
23522609 53 13110381559908849719
23536379 177 18410011039614524587
23559900 14 18187373091207896689
23569943 247 17416415478844050346
300161 21 18408040697560854787
3004659 81 15482669079275781454
3009799 131 18187365433054445161
3178227 256 14692571018065622412
34797466 226 17531236258107971423
4073 2 18201997677551285794
4325135 7 14345797149772385921
4340502 62 18113334206891447830
5207 217 15068624881348892949
5385378 56 16702028625145362803
8988823 20 18408041814853426618

> <PUBCHEM_SHAPE_MULTIPOLES>
479.13
20.57
1.58
1.34
16.66
0.14
-0.45
-5.75
2.66
-0.66
0.14
-1.19
-0.2
0.5

> <PUBCHEM_SHAPE_SELFOVERLAP>
1029.97

> <PUBCHEM_SHAPE_VOLUME>
263.4

> <PUBCHEM_COORDINATE_TYPE>
2
5
10

$$$$

