9431
  -OEChem-06261203423D

 44 46  0     0  0  0  0  0  0999 V2000
   -1.1390   -0.2405   -0.7922 N   0  0  0  0  0  0  0  0  0  0  0  0
    2.8192    0.4554    0.4101 N   0  0  0  0  0  0  0  0  0  0  0  0
    1.0456   -1.0866   -0.1556 C   0  0  0  0  0  0  0  0  0  0  0  0
    0.5237   -2.4913   -0.2830 C   0  0  0  0  0  0  0  0  0  0  0  0
    1.6323   -3.5419   -0.3335 C   0  0  0  0  0  0  0  0  0  0  0  0
    2.6742   -3.2724    0.7458 C   0  0  0  0  0  0  0  0  0  0  0  0
    3.3344   -1.9146    0.5162 C   0  0  0  0  0  0  0  0  0  0  0  0
    2.3450   -0.8082    0.2613 C   0  0  0  0  0  0  0  0  0  0  0  0
    0.2031   -0.0011   -0.3957 C   0  0  0  0  0  0  0  0  0  0  0  0
    0.6677    1.3109   -0.2422 C   0  0  0  0  0  0  0  0  0  0  0  0
    2.0013    1.4956    0.1670 C   0  0  0  0  0  0  0  0  0  0  0  0
   -1.7933   -1.4872   -0.5724 C   0  0  0  0  0  0  0  0  0  0  0  0
   -3.3070   -1.3328   -0.6943 C   0  0  0  0  0  0  0  0  0  0  0  0
   -3.8891   -0.3726    0.3477 C   0  0  0  0  0  0  0  0  0  0  0  0
   -0.1610    2.4201   -0.4844 C   0  0  0  0  0  0  0  0  0  0  0  0
    2.4663    2.7991    0.3188 C   0  0  0  0  0  0  0  0  0  0  0  0
   -5.4033   -0.2341    0.1882 C   0  0  0  0  0  0  0  0  0  0  0  0
    0.3283    3.7133   -0.3244 C   0  0  0  0  0  0  0  0  0  0  0  0
    1.6445    3.9027    0.0774 C   0  0  0  0  0  0  0  0  0  0  0  0
   -5.9931    0.6862    1.2451 C   0  0  0  0  0  0  0  0  0  0  0  0
   -0.0775   -2.7823    0.5791 H   0  0  0  0  0  0  0  0  0  0  0  0
    0.0920   -2.6539   -1.2669 H   0  0  0  0  0  0  0  0  0  0  0  0
    1.2045   -4.5435   -0.2083 H   0  0  0  0  0  0  0  0  0  0  0  0
    2.1240   -3.5272   -1.3157 H   0  0  0  0  0  0  0  0  0  0  0  0
    3.4373   -4.0587    0.7396 H   0  0  0  0  0  0  0  0  0  0  0  0
    2.1959   -3.2946    1.7332 H   0  0  0  0  0  0  0  0  0  0  0  0
    4.0004   -1.9761   -0.3534 H   0  0  0  0  0  0  0  0  0  0  0  0
    3.9533   -1.6621    1.3850 H   0  0  0  0  0  0  0  0  0  0  0  0
   -1.6313    0.4852   -1.2964 H   0  0  0  0  0  0  0  0  0  0  0  0
   -1.6710   -1.8507    0.4492 H   0  0  0  0  0  0  0  0  0  0  0  0
   -1.6046   -2.2173   -1.3580 H   0  0  0  0  0  0  0  0  0  0  0  0
   -3.7785   -2.3174   -0.5819 H   0  0  0  0  0  0  0  0  0  0  0  0
   -3.5610   -0.9703   -1.6990 H   0  0  0  0  0  0  0  0  0  0  0  0
   -3.4296    0.6183    0.2547 H   0  0  0  0  0  0  0  0  0  0  0  0
   -3.6580   -0.7418    1.3544 H   0  0  0  0  0  0  0  0  0  0  0  0
   -1.1986    2.3257   -0.7890 H   0  0  0  0  0  0  0  0  0  0  0  0
    3.4934    2.9736    0.6339 H   0  0  0  0  0  0  0  0  0  0  0  0
   -5.8780   -1.2191    0.2663 H   0  0  0  0  0  0  0  0  0  0  0  0
   -5.6382    0.1618   -0.8066 H   0  0  0  0  0  0  0  0  0  0  0  0
   -0.3147    4.5682   -0.5100 H   0  0  0  0  0  0  0  0  0  0  0  0
    2.0355    4.9079    0.2055 H   0  0  0  0  0  0  0  0  0  0  0  0
   -7.0761    0.7714    1.1117 H   0  0  0  0  0  0  0  0  0  0  0  0
   -5.8042    0.2998    2.2517 H   0  0  0  0  0  0  0  0  0  0  0  0
   -5.5622    1.6901    1.1756 H   0  0  0  0  0  0  0  0  0  0  0  0
  1  9  1  0  0  0  0
  1 12  1  0  0  0  0
  1 29  1  0  0  0  0
  2  8  2  0  0  0  0
  2 11  1  0  0  0  0
  3  4  1  0  0  0  0
  3  8  1  0  0  0  0
  3  9  2  0  0  0  0
  4  5  1  0  0  0  0
  4 21  1  0  0  0  0
  4 22  1  0  0  0  0
  5  6  1  0  0  0  0
  5 23  1  0  0  0  0
  5 24  1  0  0  0  0
  6  7  1  0  0  0  0
  6 25  1  0  0  0  0
  6 26  1  0  0  0  0
  7  8  1  0  0  0  0
  7 27  1  0  0  0  0
  7 28  1  0  0  0  0
  9 10  1  0  0  0  0
 10 11  1  0  0  0  0
 10 15  2  0  0  0  0
 11 16  2  0  0  0  0
 12 13  1  0  0  0  0
 12 30  1  0  0  0  0
 12 31  1  0  0  0  0
 13 14  1  0  0  0  0
 13 32  1  0  0  0  0
 13 33  1  0  0  0  0
 14 17  1  0  0  0  0
 14 34  1  0  0  0  0
 14 35  1  0  0  0  0
 15 18  1  0  0  0  0
 15 36  1  0  0  0  0
 16 19  1  0  0  0  0
 16 37  1  0  0  0  0
 17 20  1  0  0  0  0
 17 38  1  0  0  0  0
 17 39  1  0  0  0  0
 18 19  2  0  0  0  0
 18 40  1  0  0  0  0
 19 41  1  0  0  0  0
 20 42  1  0  0  0  0
 20 43  1  0  0  0  0
 20 44  1  0  0  0  0
M  END
> <PUBCHEM_COMPOUND_CID>
9431

> <PUBCHEM_CONFORMER_RMSD>
0.8

> <PUBCHEM_CONFORMER_DIVERSEORDER>
1
11
10
6
4
7
2
3
8
9
5

> <PUBCHEM_MMFF94_PARTIAL_CHARGES>
18
1 -0.87
11 0.31
12 0.37
15 -0.15
16 -0.15
18 -0.15
19 -0.15
2 -0.62
29 0.4
3 -0.14
36 0.15
37 0.15
4 0.14
40 0.15
41 0.15
7 0.14
8 0.17
9 0.1

> <PUBCHEM_EFFECTIVE_ROTOR_COUNT>
5.8

> <PUBCHEM_PHARMACOPHORE_FEATURES>
7
1 1 cation
1 1 donor
1 2 acceptor
1 20 hydrophobe
6 10 11 15 16 18 19 rings
6 2 3 8 9 10 11 rings
6 3 4 5 6 7 8 rings

> <PUBCHEM_HEAVY_ATOM_COUNT>
20

> <PUBCHEM_ATOM_DEF_STEREO_COUNT>
0

> <PUBCHEM_ATOM_UDEF_STEREO_COUNT>
0

> <PUBCHEM_BOND_DEF_STEREO_COUNT>
0

> <PUBCHEM_BOND_UDEF_STEREO_COUNT>
0

> <PUBCHEM_ISOTOPIC_ATOM_COUNT>
0

> <PUBCHEM_COMPONENT_COUNT>
1

> <PUBCHEM_CACTVS_TAUTO_COUNT>
4

> <PUBCHEM_CONFORMER_ID>
000024D700000001

> <PUBCHEM_MMFF94_ENERGY>
74.3795

> <PUBCHEM_FEATURE_SELFOVERLAP>
35.576

> <PUBCHEM_SHAPE_FINGERPRINT>
10411042 1 18194405712817508710
10465860 228 18265331716411754261
10688039 33 17986950941678706749
10967382 1 18339373954849825662
1100329 8 18194972838116659202
12107183 9 18263921224004196435
12553582 1 18338245971599521182
12633257 1 18059029280192461779
12788726 201 17911232038055397458
13052359 8 17116358918499705350
13140716 1 18196100936820047122
13785724 45 17973992149390195703
138480 1 18411141363231985460
13878862 14 18270136685990257373
14178342 30 17902814967195726762
14790565 3 18196649593033396620
15042514 8 17690845987412810322
15081414 286 18336826489128950031
15420108 30 18114758026946314454
15475509 8 17969758921905444212
15664445 248 18189317091847546270
15885798 251 18268146650920600267
16945 1 18123492496136033364
18785283 64 18342453686766316811
19591789 44 18268154150154824404
20157964 124 18338240371905886695
20739085 24 18271526394681830564
21041028 32 18196096761705763855
21478907 32 17979639266347260091
21665062 11 18410289220614952643
2255824 54 18337955575759114550
2334 1 18338254751002693284
23598291 2 17969516917583673695
238 59 17476979684235577390
2748010 2 18120965994640925452
3091708 16 8998424606585483954
3421961 26 18412262865435215019
352729 6 16899628113045033390
474 4 18265899056006108571
5283268 108 18266457805033478923
54173680 148 17690568902135067870
5939293 188 18409732846040657958
633830 44 18116992174491633085
6443956 14 18341049726260438119
79837 15 17619073828221386337
81228 2 17690308287777506188
8272917 22 18409162186873764615
84936 182 17971758761694743489
9981440 41 17906458723445468529

> <PUBCHEM_SHAPE_MULTIPOLES>
401.63
7.92
5.04
0.86
17.77
2.36
-0.07
-1.74
-3.08
-5.57
0.09
0.45
-0.1
-0.68

> <PUBCHEM_SHAPE_SELFOVERLAP>
854.199

> <PUBCHEM_SHAPE_VOLUME>
222.4

> <PUBCHEM_COORDINATE_TYPE>
2
5
10

$$$$

