17396631
  -OEChem-06241222573D

 33 34  0     0  0  0  0  0  0999 V2000
   -3.6195   -2.7088    0.6682 Br  0  0  0  0  0  0  0  0  0  0  0  0
   -0.7423    1.8062   -0.5198 O   0  0  0  0  0  0  0  0  0  0  0  0
    5.9017   -0.7535    0.0882 O   0  0  0  0  0  0  0  0  0  0  0  0
   -1.7385   -0.2552   -0.0058 N   0  0  0  0  0  0  0  0  0  0  0  0
    4.1891    0.8492    0.2978 N   0  0  0  0  0  0  0  0  0  0  0  0
    0.6555   -0.0393   -0.2924 C   0  0  0  0  0  0  0  0  0  0  0  0
    3.0501    0.1023   -0.0053 C   0  0  0  0  0  0  0  0  0  0  0  0
    1.7937    0.7080    0.0101 C   0  0  0  0  0  0  0  0  0  0  0  0
   -0.6546    0.5916   -0.2772 C   0  0  0  0  0  0  0  0  0  0  0  0
    0.7737   -1.3922   -0.6108 C   0  0  0  0  0  0  0  0  0  0  0  0
   -3.1168    0.0671    0.0508 C   0  0  0  0  0  0  0  0  0  0  0  0
    3.1683   -1.2506   -0.3237 C   0  0  0  0  0  0  0  0  0  0  0  0
    2.0301   -1.9979   -0.6264 C   0  0  0  0  0  0  0  0  0  0  0  0
   -4.0827   -0.8975    0.3373 C   0  0  0  0  0  0  0  0  0  0  0  0
   -3.4988    1.3873   -0.1874 C   0  0  0  0  0  0  0  0  0  0  0  0
   -5.4305   -0.5420    0.3855 C   0  0  0  0  0  0  0  0  0  0  0  0
   -4.8468    1.7430   -0.1391 C   0  0  0  0  0  0  0  0  0  0  0  0
   -5.8126    0.7782    0.1474 C   0  0  0  0  0  0  0  0  0  0  0  0
    5.4906    0.3749    0.3195 C   0  0  0  0  0  0  0  0  0  0  0  0
    6.4903    1.4293    0.6831 C   0  0  0  0  0  0  0  0  0  0  0  0
    1.7086    1.7624    0.2643 H   0  0  0  0  0  0  0  0  0  0  0  0
   -0.0776   -2.0054   -0.8909 H   0  0  0  0  0  0  0  0  0  0  0  0
    4.0972   -1.7999   -0.3625 H   0  0  0  0  0  0  0  0  0  0  0  0
   -1.5481   -1.2275    0.2202 H   0  0  0  0  0  0  0  0  0  0  0  0
    2.1220   -3.0495   -0.8832 H   0  0  0  0  0  0  0  0  0  0  0  0
    4.0364    1.8293    0.5240 H   0  0  0  0  0  0  0  0  0  0  0  0
   -2.8240    2.1980   -0.4158 H   0  0  0  0  0  0  0  0  0  0  0  0
   -6.1979   -1.2795    0.6070 H   0  0  0  0  0  0  0  0  0  0  0  0
   -5.1461    2.7706   -0.3243 H   0  0  0  0  0  0  0  0  0  0  0  0
   -6.8621    1.0552    0.1850 H   0  0  0  0  0  0  0  0  0  0  0  0
    6.4404    1.6215    1.7584 H   0  0  0  0  0  0  0  0  0  0  0  0
    6.2834    2.3562    0.1402 H   0  0  0  0  0  0  0  0  0  0  0  0
    7.4995    1.0961    0.4246 H   0  0  0  0  0  0  0  0  0  0  0  0
  1 14  1  0  0  0  0
  2  9  2  0  0  0  0
  3 19  2  0  0  0  0
  4  9  1  0  0  0  0
  4 11  1  0  0  0  0
  4 24  1  0  0  0  0
  5  7  1  0  0  0  0
  5 19  1  0  0  0  0
  5 26  1  0  0  0  0
  6  8  2  0  0  0  0
  6  9  1  0  0  0  0
  6 10  1  0  0  0  0
  7  8  1  0  0  0  0
  7 12  2  0  0  0  0
  8 21  1  0  0  0  0
 10 13  2  0  0  0  0
 10 22  1  0  0  0  0
 11 14  1  0  0  0  0
 11 15  2  0  0  0  0
 12 13  1  0  0  0  0
 12 23  1  0  0  0  0
 13 25  1  0  0  0  0
 14 16  2  0  0  0  0
 15 17  1  0  0  0  0
 15 27  1  0  0  0  0
 16 18  1  0  0  0  0
 16 28  1  0  0  0  0
 17 18  2  0  0  0  0
 17 29  1  0  0  0  0
 18 30  1  0  0  0  0
 19 20  1  0  0  0  0
 20 31  1  0  0  0  0
 20 32  1  0  0  0  0
 20 33  1  0  0  0  0
M  END
> <PUBCHEM_COMPOUND_CID>
17396631

> <PUBCHEM_CONFORMER_RMSD>
0.8

> <PUBCHEM_CONFORMER_DIVERSEORDER>
2
18
13
15
24
16
14
10
25
9
22
5
11
19
8
3
7
21
4
20
6
17
23
1
12

> <PUBCHEM_MMFF94_PARTIAL_CHARGES>
30
1 -0.11
10 -0.15
11 0.12
12 -0.15
13 -0.15
14 0.11
15 -0.15
16 -0.15
17 -0.15
18 -0.15
19 0.57
2 -0.57
20 0.06
21 0.15
22 0.15
23 0.15
24 0.37
25 0.15
26 0.37
27 0.15
28 0.15
29 0.15
3 -0.57
30 0.15
4 -0.55
5 -0.55
6 0.09
7 0.12
8 -0.15
9 0.54

> <PUBCHEM_EFFECTIVE_ROTOR_COUNT>
5

> <PUBCHEM_PHARMACOPHORE_FEATURES>
7
1 1 hydrophobe
1 2 acceptor
1 3 acceptor
1 4 donor
1 5 donor
6 11 14 15 16 17 18 rings
6 6 7 8 10 12 13 rings

> <PUBCHEM_HEAVY_ATOM_COUNT>
20

> <PUBCHEM_ATOM_DEF_STEREO_COUNT>
0

> <PUBCHEM_ATOM_UDEF_STEREO_COUNT>
0

> <PUBCHEM_BOND_DEF_STEREO_COUNT>
0

> <PUBCHEM_BOND_UDEF_STEREO_COUNT>
0

> <PUBCHEM_ISOTOPIC_ATOM_COUNT>
0

> <PUBCHEM_COMPONENT_COUNT>
1

> <PUBCHEM_CACTVS_TAUTO_COUNT>
4

> <PUBCHEM_CONFORMER_ID>
0109739700000002

> <PUBCHEM_MMFF94_ENERGY>
66.3445

> <PUBCHEM_FEATURE_SELFOVERLAP>
35.52

> <PUBCHEM_SHAPE_FINGERPRINT>
10 15 18337962203843198968
10366900 7 17530971301971198475
10835480 77 18337678619579044901
11045977 3 18334859389817475312
11315181 36 17988924440591471249
12107183 9 17470159723130847379
12236239 1 16950284022216732853
12516196 113 18187082858228645833
12616971 3 16773790377103157023
12838862 33 18271823319583728533
13073987 5 18271241737824677195
13214271 11 18409451375590510239
13668630 136 13901905622188670753
14251764 18 18408319991464072065
14341114 176 18410005559125322496
14350574 20 9655569721395781717
14844126 61 18128251195563105235
15196674 1 18410009970257533359
15375358 24 18409163342404771991
15788980 27 14908181941078872567
17980427 23 17845648153611422862
1813 80 17060613430169269239
19784866 170 18409167722701454878
200 152 17821731654715941437
20645477 70 17749948993639252983
21267235 1 18342729703171916643
21709351 56 18411706452179555357
220451 1 17703790332038336930
22224240 67 18334863783711547642
23198884 109 4967613892595219612
23402539 116 18202568358276508055
23559900 14 18409729590317764803
23622692 118 18118408341827687047
26918003 58 18408602561129909571
300161 21 18412548734247865351
34934 24 18411141363664898383
3545911 37 18408602578341511537
4073 2 18272646823111405898
4214541 1 18412824690360464069
42630746 31 18040714801366963022
4340502 62 17775287179567758130
474229 33 18409449163635126606
5104073 3 18339918341828039227
5364581 5 18123193406945281864
9709674 26 18409440402292466887

> <PUBCHEM_SHAPE_MULTIPOLES>
395.83
15.33
2.16
0.75
9.11
0.92
-0.02
-3.58
-3.34
-1.58
-0.05
0.09
0.11
1.24

> <PUBCHEM_SHAPE_SELFOVERLAP>
831.812

> <PUBCHEM_SHAPE_VOLUME>
227.2

> <PUBCHEM_COORDINATE_TYPE>
2
5
10

$$$$

