12880
  -OEChem-06261207293D

 33 33  0     0  0  0  0  0  0999 V2000
   -0.9721    1.1035   -1.6864 O   0  0  0  0  0  0  0  0  0  0  0  0
    0.1317   -2.3472    1.0655 O   0  0  0  0  0  0  0  0  0  0  0  0
    3.3883    0.7399   -0.1314 O   0  0  0  0  0  0  0  0  0  0  0  0
    1.1948    1.0517   -0.8337 N   0  0  0  0  0  0  0  0  0  0  0  0
    1.7744   -0.7603    0.6081 N   0  0  0  0  0  0  0  0  0  0  0  0
   -0.5879   -0.1691    0.3246 C   0  0  0  0  0  0  0  0  0  0  0  0
   -1.9269   -0.8547    0.0019 C   0  0  0  0  0  0  0  0  0  0  0  0
   -0.7834    0.7438    1.5492 C   0  0  0  0  0  0  0  0  0  0  0  0
   -0.1641    0.7050   -0.8465 C   0  0  0  0  0  0  0  0  0  0  0  0
    0.4517   -1.2196    0.6870 C   0  0  0  0  0  0  0  0  0  0  0  0
    2.2053    0.3833   -0.1041 C   0  0  0  0  0  0  0  0  0  0  0  0
   -1.7846   -1.7672   -1.1703 C   0  0  0  0  0  0  0  0  0  0  0  0
   -1.8847    1.7228    1.3101 C   0  0  0  0  0  0  0  0  0  0  0  0
    1.6310    2.1118   -1.7365 C   0  0  0  0  0  0  0  0  0  0  0  0
    2.8160   -1.5873    1.2084 C   0  0  0  0  0  0  0  0  0  0  0  0
   -2.4932   -1.6418   -2.2979 C   0  0  0  0  0  0  0  0  0  0  0  0
   -2.9960    1.7854    2.0522 C   0  0  0  0  0  0  0  0  0  0  0  0
   -2.7230   -0.1309   -0.2106 H   0  0  0  0  0  0  0  0  0  0  0  0
   -2.2747   -1.4486    0.8576 H   0  0  0  0  0  0  0  0  0  0  0  0
    0.1304    1.3078    1.7758 H   0  0  0  0  0  0  0  0  0  0  0  0
   -0.9882    0.1366    2.4414 H   0  0  0  0  0  0  0  0  0  0  0  0
   -1.0992   -2.6072   -1.1067 H   0  0  0  0  0  0  0  0  0  0  0  0
   -1.7592    2.4610    0.5225 H   0  0  0  0  0  0  0  0  0  0  0  0
    0.7913    2.7231   -2.0774 H   0  0  0  0  0  0  0  0  0  0  0  0
    2.1157    1.6473   -2.6009 H   0  0  0  0  0  0  0  0  0  0  0  0
    2.3593    2.7537   -1.2314 H   0  0  0  0  0  0  0  0  0  0  0  0
    3.5384   -0.9523    1.7306 H   0  0  0  0  0  0  0  0  0  0  0  0
    3.3361   -2.1195    0.4058 H   0  0  0  0  0  0  0  0  0  0  0  0
    2.4014   -2.3120    1.9139 H   0  0  0  0  0  0  0  0  0  0  0  0
   -2.3599   -2.3470   -3.1111 H   0  0  0  0  0  0  0  0  0  0  0  0
   -3.2127   -0.8419   -2.4331 H   0  0  0  0  0  0  0  0  0  0  0  0
   -3.7519    2.5355    1.8468 H   0  0  0  0  0  0  0  0  0  0  0  0
   -3.1732    1.0949    2.8693 H   0  0  0  0  0  0  0  0  0  0  0  0
  1  9  2  0  0  0  0
  2 10  2  0  0  0  0
  3 11  2  0  0  0  0
  4  9  1  0  0  0  0
  4 11  1  0  0  0  0
  4 14  1  0  0  0  0
  5 10  1  0  0  0  0
  5 11  1  0  0  0  0
  5 15  1  0  0  0  0
  6  7  1  0  0  0  0
  6  8  1  0  0  0  0
  6  9  1  0  0  0  0
  6 10  1  0  0  0  0
  7 12  1  0  0  0  0
  7 18  1  0  0  0  0
  7 19  1  0  0  0  0
  8 13  1  0  0  0  0
  8 20  1  0  0  0  0
  8 21  1  0  0  0  0
 12 16  2  0  0  0  0
 12 22  1  0  0  0  0
 13 17  2  0  0  0  0
 13 23  1  0  0  0  0
 14 24  1  0  0  0  0
 14 25  1  0  0  0  0
 14 26  1  0  0  0  0
 15 27  1  0  0  0  0
 15 28  1  0  0  0  0
 15 29  1  0  0  0  0
 16 30  1  0  0  0  0
 16 31  1  0  0  0  0
 17 32  1  0  0  0  0
 17 33  1  0  0  0  0
M  END
> <PUBCHEM_COMPOUND_CID>
12880

> <PUBCHEM_CONFORMER_RMSD>
0.6

> <PUBCHEM_CONFORMER_DIVERSEORDER>
2
14
9
10
11
3
4
6
13
1
5
12
8
7
15

> <PUBCHEM_MMFF94_PARTIAL_CHARGES>
23
1 -0.57
10 0.57
11 0.69
12 -0.29
13 -0.29
14 0.3
15 0.3
16 -0.3
17 -0.3
2 -0.57
22 0.15
23 0.15
3 -0.57
30 0.15
31 0.15
32 0.15
33 0.15
4 -0.42
5 -0.42
6 0.12
7 0.14
8 0.14
9 0.57

> <PUBCHEM_EFFECTIVE_ROTOR_COUNT>
4.6

> <PUBCHEM_PHARMACOPHORE_FEATURES>
6
1 1 acceptor
1 16 hydrophobe
1 17 hydrophobe
1 2 acceptor
1 3 acceptor
6 4 5 6 9 10 11 rings

> <PUBCHEM_HEAVY_ATOM_COUNT>
17

> <PUBCHEM_ATOM_DEF_STEREO_COUNT>
0

> <PUBCHEM_ATOM_UDEF_STEREO_COUNT>
0

> <PUBCHEM_BOND_DEF_STEREO_COUNT>
0

> <PUBCHEM_BOND_UDEF_STEREO_COUNT>
0

> <PUBCHEM_ISOTOPIC_ATOM_COUNT>
0

> <PUBCHEM_COMPONENT_COUNT>
1

> <PUBCHEM_CACTVS_TAUTO_COUNT>
1

> <PUBCHEM_CONFORMER_ID>
0000325000000002

> <PUBCHEM_MMFF94_ENERGY>
41.5831

> <PUBCHEM_FEATURE_SELFOVERLAP>
30.446

> <PUBCHEM_SHAPE_FINGERPRINT>
11578080 2 17904527065767192169
12138202 97 17240749727125084801
12423570 1 8919616865914845883
13380537 58 17531794853096592185
13538477 17 18186806897963270785
13898156 1 18335692828200216753
14004458 79 17531524270462880045
14617773 55 18335430057705937979
14817 1 7814293241180919825
15881359 60 17915468400374268337
15906896 17 18117252840499526219
16945 1 17914352190003270542
18534176 82 16443054023946268040
20711985 344 17603863352230545087
21524375 3 18046594997588634985
22112679 90 18336833077724605858
2334 1 17988659518328899342
23419403 2 17253213709449232800
23493267 7 16805594906556865874
23557571 272 16805876295418297152
2748010 2 17702673301286277324
528886 8 17773058387514056175
5845 1 16055447502322591161
68419 9 18261945280548125365
6992083 37 18120382200625823122
81228 2 17313656054325066411

> <PUBCHEM_SHAPE_MULTIPOLES>
322.28
4.07
2.47
2.12
1.32
0.24
0.67
-0.53
-0.5
-2.18
-0.08
0.15
-0.1
-2.4

> <PUBCHEM_SHAPE_SELFOVERLAP>
661.927

> <PUBCHEM_SHAPE_VOLUME>
184

> <PUBCHEM_COORDINATE_TYPE>
2
5
10

$$$$

