3707
  -OEChem-06251223363D

 32 35  0     0  0  0  0  0  0999 V2000
   -1.0719    2.9567    0.7832 O   0  0  0  0  0  0  0  0  0  0  0  0
    1.8319    0.5990   -2.8836 O   0  0  0  0  0  0  0  0  0  0  0  0
    1.0985   -0.1217    1.3714 N   0  0  0  0  0  0  0  0  0  0  0  0
   -2.9874    1.6556    0.4825 N   0  0  0  0  0  0  0  0  0  0  0  0
    0.8578    0.6501   -2.1664 N   0  0  0  0  0  0  0  0  0  0  0  0
   -1.0793    0.5363    0.3009 C   0  0  0  0  0  0  0  0  0  0  0  0
    0.3638    0.2509    0.2765 C   0  0  0  0  0  0  0  0  0  0  0  0
   -2.1516   -0.3761    0.0948 C   0  0  0  0  0  0  0  0  0  0  0  0
    2.5160   -0.0562   -0.3501 C   0  0  0  0  0  0  0  0  0  0  0  0
    1.2155    0.2999   -0.8047 C   0  0  0  0  0  0  0  0  0  0  0  0
    2.4150   -0.3158    1.0184 C   0  0  0  0  0  0  0  0  0  0  0  0
   -3.3376    0.3515    0.2140 C   0  0  0  0  0  0  0  0  0  0  0  0
   -1.6249    1.7772    0.5368 C   0  0  0  0  0  0  0  0  0  0  0  0
   -2.2272   -1.7556   -0.1826 C   0  0  0  0  0  0  0  0  0  0  0  0
   -4.6005   -0.2336    0.0692 C   0  0  0  0  0  0  0  0  0  0  0  0
    3.7733   -0.1829   -0.9734 C   0  0  0  0  0  0  0  0  0  0  0  0
    3.5129   -0.6974    1.7977 C   0  0  0  0  0  0  0  0  0  0  0  0
   -3.4837   -2.3544   -0.3302 C   0  0  0  0  0  0  0  0  0  0  0  0
   -4.6508   -1.6032   -0.2057 C   0  0  0  0  0  0  0  0  0  0  0  0
    4.8804   -0.5638   -0.2064 C   0  0  0  0  0  0  0  0  0  0  0  0
    4.7498   -0.8165    1.1577 C   0  0  0  0  0  0  0  0  0  0  0  0
    0.7299   -0.2387    2.3053 H   0  0  0  0  0  0  0  0  0  0  0  0
   -3.6414    2.4138    0.6193 H   0  0  0  0  0  0  0  0  0  0  0  0
   -1.3272   -2.3555   -0.2827 H   0  0  0  0  0  0  0  0  0  0  0  0
   -5.5097    0.3503    0.1659 H   0  0  0  0  0  0  0  0  0  0  0  0
    3.9262    0.0029   -2.0316 H   0  0  0  0  0  0  0  0  0  0  0  0
    3.4122   -0.8943    2.8598 H   0  0  0  0  0  0  0  0  0  0  0  0
   -3.5481   -3.4179   -0.5442 H   0  0  0  0  0  0  0  0  0  0  0  0
   -5.6161   -2.0887   -0.3241 H   0  0  0  0  0  0  0  0  0  0  0  0
    5.8529   -0.6633   -0.6813 H   0  0  0  0  0  0  0  0  0  0  0  0
    5.6228   -1.1111    1.7345 H   0  0  0  0  0  0  0  0  0  0  0  0
   -0.1067    2.8351    0.7795 H   0  0  0  0  0  0  0  0  0  0  0  0
  1 13  1  0  0  0  0
  1 32  1  0  0  0  0
  2  5  2  0  0  0  0
  3  7  1  0  0  0  0
  3 11  1  0  0  0  0
  3 22  1  0  0  0  0
  4 12  1  0  0  0  0
  4 13  1  0  0  0  0
  4 23  1  0  0  0  0
  5 10  1  0  0  0  0
  6  7  1  0  0  0  0
  6  8  1  0  0  0  0
  6 13  2  0  0  0  0
  7 10  2  0  0  0  0
  8 12  1  0  0  0  0
  8 14  2  0  0  0  0
  9 10  1  0  0  0  0
  9 11  1  0  0  0  0
  9 16  2  0  0  0  0
 11 17  2  0  0  0  0
 12 15  2  0  0  0  0
 14 18  1  0  0  0  0
 14 24  1  0  0  0  0
 15 19  1  0  0  0  0
 15 25  1  0  0  0  0
 16 20  1  0  0  0  0
 16 26  1  0  0  0  0
 17 21  1  0  0  0  0
 17 27  1  0  0  0  0
 18 19  2  0  0  0  0
 18 28  1  0  0  0  0
 19 29  1  0  0  0  0
 20 21  2  0  0  0  0
 20 30  1  0  0  0  0
 21 31  1  0  0  0  0
M  END
> <PUBCHEM_COMPOUND_CID>
3707

> <PUBCHEM_CONFORMER_RMSD>
0.6

> <PUBCHEM_CONFORMER_DIVERSEORDER>
2
4
6
3
1
5

> <PUBCHEM_MMFF94_PARTIAL_CHARGES>
29
1 -0.51
10 0.25
11 -0.15
12 -0.15
13 -0.09
14 -0.15
15 -0.15
16 -0.15
17 -0.15
18 -0.15
19 -0.15
2 -0.16
20 -0.15
21 -0.15
22 0.27
23 0.27
24 0.15
25 0.15
26 0.15
27 0.15
28 0.15
29 0.15
3 0.03
30 0.15
31 0.15
32 0.45
4 0.03
5 -0.09
7 -0.15

> <PUBCHEM_EFFECTIVE_ROTOR_COUNT>
2

> <PUBCHEM_PHARMACOPHORE_FEATURES>
9
1 1 donor
1 3 cation
1 3 donor
1 4 cation
1 4 donor
5 3 7 9 10 11 rings
5 4 6 8 12 13 rings
6 8 12 14 15 18 19 rings
6 9 11 16 17 20 21 rings

> <PUBCHEM_HEAVY_ATOM_COUNT>
21

> <PUBCHEM_ATOM_DEF_STEREO_COUNT>
0

> <PUBCHEM_ATOM_UDEF_STEREO_COUNT>
0

> <PUBCHEM_BOND_DEF_STEREO_COUNT>
0

> <PUBCHEM_BOND_UDEF_STEREO_COUNT>
0

> <PUBCHEM_ISOTOPIC_ATOM_COUNT>
0

> <PUBCHEM_COMPONENT_COUNT>
1

> <PUBCHEM_CACTVS_TAUTO_COUNT>
14

> <PUBCHEM_CONFORMER_ID>
00000E7B00000002

> <PUBCHEM_MMFF94_ENERGY>
44.4419

> <PUBCHEM_FEATURE_SELFOVERLAP>
45.896

> <PUBCHEM_SHAPE_FINGERPRINT>
11046707 91 18411705374369526075
11370993 144 16370994243886089427
11578080 2 17915769537632834228
11582403 64 16237081595919027112
12236239 1 18060418027596954563
12363563 72 18188770540073979035
12553582 1 18409450246183273651
13009979 54 18201992239953285714
13134695 92 16415479346422082102
13583140 156 17678481825051070434
13911987 19 15482374444355940506
14115302 16 18130506332243949667
14294032 229 18196937893504457597
14386348 63 17385436622608528951
15099037 37 18040155123661532761
15375358 24 17095241440816133783
16752209 62 18412272744250450779
17349148 13 17989203754772448962
17804303 29 18259989245399738771
1813 80 17560797805464248846
18186145 218 13901913297680109709
19049666 15 16952235749934947549
19862831 5 17704075075100115835
200 152 17418376904275943561
20600515 1 18114173112867634617
20645477 70 15626229060944501114
20739085 24 15213289808264671818
21033648 29 16298965254530631754
21065201 7 18188208822733863458
21069387 34 17561081401648180587
22112679 90 18200577181447567373
22854114 59 15430036543399798107
2297311 6 18187639211027540658
232386 152 18337955589018419783
23366157 5 17981327790180568537
23402539 116 18187092767002774533
23557571 272 17822280331802500353
23559900 14 18041835255070469574
3004659 81 18272934890773108351
34797466 226 18114167598414482860
474 4 17416393265505056236
5104073 3 18189332382115587131
573450 72 18341337780995106266
602551 16 18260550013309677194
633830 44 5617252658871501536
7471813 234 17917994966589531844
77492 1 18060412530001950769
81228 2 17896859102145632761

> <PUBCHEM_SHAPE_MULTIPOLES>
405.49
9.61
1.89
1.59
1.54
0.54
-0.93
-4.43
1.06
-2.42
0.28
1.91
0.24
-1.04

> <PUBCHEM_SHAPE_SELFOVERLAP>
925.864

> <PUBCHEM_SHAPE_VOLUME>
209

> <PUBCHEM_COORDINATE_TYPE>
2
5
10

$$$$

