11089
  -OEChem-06261205182D

 18 19  0     0  0  0  0  0  0999 V2000
    7.5309   -0.1224    0.0000 O   0  0  0  0  0  0  0  0  0  0  0  0
    7.2579    1.6329    0.0000 O   0  0  0  0  0  0  0  0  0  0  0  0
    7.2579   -1.8776    0.0000 O   0  0  0  0  0  0  0  0  0  0  0  0
    2.5369    0.3776    0.0000 O   0  0  0  0  0  0  0  0  0  0  0  0
    3.4030    1.8776    0.0000 O   0  0  0  0  0  0  0  0  0  0  0  0
    6.0010    0.3776    0.0000 C   0  0  0  0  0  0  0  0  0  0  0  0
    6.0010   -0.6224    0.0000 C   0  0  0  0  0  0  0  0  0  0  0  0
    5.1350    0.8776    0.0000 C   0  0  0  0  0  0  0  0  0  0  0  0
    4.2690    0.3776    0.0000 C   0  0  0  0  0  0  0  0  0  0  0  0
    5.1350   -1.1224    0.0000 C   0  0  0  0  0  0  0  0  0  0  0  0
    4.2690   -0.6224    0.0000 C   0  0  0  0  0  0  0  0  0  0  0  0
    6.9473    0.6824    0.0000 C   0  0  0  0  0  0  0  0  0  0  0  0
    6.9473   -0.9271    0.0000 C   0  0  0  0  0  0  0  0  0  0  0  0
    3.4030    0.8776    0.0000 C   0  0  0  0  0  0  0  0  0  0  0  0
    5.1350    1.4976    0.0000 H   0  0  0  0  0  0  0  0  0  0  0  0
    5.1350   -1.7424    0.0000 H   0  0  0  0  0  0  0  0  0  0  0  0
    3.7320   -0.9324    0.0000 H   0  0  0  0  0  0  0  0  0  0  0  0
    2.0000    0.6876    0.0000 H   0  0  0  0  0  0  0  0  0  0  0  0
  1 12  1  0  0  0  0
  1 13  1  0  0  0  0
  2 12  2  0  0  0  0
  3 13  2  0  0  0  0
  4 14  1  0  0  0  0
  4 18  1  0  0  0  0
  5 14  2  0  0  0  0
  6  7  2  0  0  0  0
  6  8  1  0  0  0  0
  6 12  1  0  0  0  0
  7 10  1  0  0  0  0
  7 13  1  0  0  0  0
  8  9  2  0  0  0  0
  8 15  1  0  0  0  0
  9 11  1  0  0  0  0
  9 14  1  0  0  0  0
 10 11  2  0  0  0  0
 10 16  1  0  0  0  0
 11 17  1  0  0  0  0
M  END
> <PUBCHEM_COMPOUND_CID>
11089

> <PUBCHEM_COMPOUND_CANONICALIZED>
1

> <PUBCHEM_CACTVS_COMPLEXITY>
308

> <PUBCHEM_CACTVS_HBOND_ACCEPTOR>
5

> <PUBCHEM_CACTVS_HBOND_DONOR>
1

> <PUBCHEM_CACTVS_ROTATABLE_BOND>
1

> <PUBCHEM_CACTVS_SUBSKEYS>
AAADcYBwOAAAAAAAAAAAAAAAAAAAASAAAAAwAAAAAAAAAEgBAAAAGgAACAAADACAmAAwCIAABgCIAiDSCAACAAAkAAAIiAEACMgIJjKANRiCcQAkwAEIuYeL7viOwAACAAAQAACAAAQAACAAAAAAAAAAAA==

> <PUBCHEM_IUPAC_OPENEYE_NAME>
1,3-dioxoisobenzofuran-5-carboxylic acid

> <PUBCHEM_IUPAC_CAS_NAME>
1,3-dioxo-5-isobenzofurancarboxylic acid

> <PUBCHEM_IUPAC_NAME>
1,3-dioxo-2-benzofuran-5-carboxylic acid

> <PUBCHEM_IUPAC_SYSTEMATIC_NAME>
1,3-bis(oxidanylidene)-2-benzofuran-5-carboxylic acid

> <PUBCHEM_IUPAC_TRADITIONAL_NAME>
trimellitic anhydride

> <PUBCHEM_IUPAC_INCHI>
InChI=1S/C9H4O5/c10-7(11)4-1-2-5-6(3-4)9(13)14-8(5)12/h1-3H,(H,10,11)

> <PUBCHEM_IUPAC_INCHIKEY>
SRPWOOOHEPICQU-UHFFFAOYSA-N

> <PUBCHEM_XLOGP3_AA>
0.8

> <PUBCHEM_EXACT_MASS>
192.005873

> <PUBCHEM_MOLECULAR_FORMULA>
C9H4O5

> <PUBCHEM_MOLECULAR_WEIGHT>
192.12506

> <PUBCHEM_OPENEYE_CAN_SMILES>
C1=CC2=C(C=C1C(=O)O)C(=O)OC2=O

> <PUBCHEM_OPENEYE_ISO_SMILES>
C1=CC2=C(C=C1C(=O)O)C(=O)OC2=O

> <PUBCHEM_CACTVS_TPSA>
80.7

> <PUBCHEM_MONOISOTOPIC_WEIGHT>
192.005873

> <PUBCHEM_TOTAL_CHARGE>
0

> <PUBCHEM_HEAVY_ATOM_COUNT>
14

> <PUBCHEM_ATOM_DEF_STEREO_COUNT>
0

> <PUBCHEM_ATOM_UDEF_STEREO_COUNT>
0

> <PUBCHEM_BOND_DEF_STEREO_COUNT>
0

> <PUBCHEM_BOND_UDEF_STEREO_COUNT>
0

> <PUBCHEM_ISOTOPIC_ATOM_COUNT>
0

> <PUBCHEM_COMPONENT_COUNT>
1

> <PUBCHEM_CACTVS_TAUTO_COUNT>
1

> <PUBCHEM_COORDINATE_TYPE>
1
5
255

> <PUBCHEM_BONDANNOTATIONS>
10  11  8
6  7  8
6  8  8
7  10  8
8  9  8
9  11  8

$$$$

