47205701
  -OEChem-06241222593D

 31 32  0     0  0  0  0  0  0999 V2000
    4.8258   -1.5656    2.1439 F   0  0  0  0  0  0  0  0  0  0  0  0
    0.8182    1.1133   -0.0652 O   0  0  0  0  0  0  0  0  0  0  0  0
   -4.5650   -1.7894   -0.8150 O   0  0  0  0  0  0  0  0  0  0  0  0
   -1.9504    1.9193    1.3513 O   0  0  0  0  0  0  0  0  0  0  0  0
   -0.0659    3.2389   -0.3843 O   0  0  0  0  0  0  0  0  0  0  0  0
   -1.8465    0.4435   -0.4988 N   0  0  0  0  0  0  0  0  0  0  0  0
   -3.3500   -1.2884   -1.2665 N   0  0  0  0  0  0  0  0  0  0  0  0
    3.0701    0.4069   -0.3590 C   0  0  0  0  0  0  0  0  0  0  0  0
    2.1195    1.5532   -0.4344 C   0  0  0  0  0  0  0  0  0  0  0  0
    3.5116   -0.0528    0.8818 C   0  0  0  0  0  0  0  0  0  0  0  0
    3.5185   -0.2053   -1.5294 C   0  0  0  0  0  0  0  0  0  0  0  0
   -3.0281   -0.3264   -0.3969 C   0  0  0  0  0  0  0  0  0  0  0  0
   -4.9373   -1.1196    0.3056 C   0  0  0  0  0  0  0  0  0  0  0  0
   -3.9927   -0.1769    0.6145 C   0  0  0  0  0  0  0  0  0  0  0  0
    4.4014   -1.1247    0.9523 C   0  0  0  0  0  0  0  0  0  0  0  0
    4.4085   -1.2771   -1.4590 C   0  0  0  0  0  0  0  0  0  0  0  0
    4.8497   -1.7371   -0.2181 C   0  0  0  0  0  0  0  0  0  0  0  0
   -1.4376    1.4505    0.3492 C   0  0  0  0  0  0  0  0  0  0  0  0
   -0.1419    2.0618   -0.0921 C   0  0  0  0  0  0  0  0  0  0  0  0
   -6.2079   -1.5242    0.9201 C   0  0  0  0  0  0  0  0  0  0  0  0
    2.4502    2.3510    0.2430 H   0  0  0  0  0  0  0  0  0  0  0  0
    2.0919    1.9686   -1.4496 H   0  0  0  0  0  0  0  0  0  0  0  0
    3.1687    0.4162    1.8003 H   0  0  0  0  0  0  0  0  0  0  0  0
    3.1818    0.1407   -2.5030 H   0  0  0  0  0  0  0  0  0  0  0  0
   -4.0231    0.5033    1.4522 H   0  0  0  0  0  0  0  0  0  0  0  0
    4.7574   -1.7542   -2.3702 H   0  0  0  0  0  0  0  0  0  0  0  0
    5.5424   -2.5716   -0.1630 H   0  0  0  0  0  0  0  0  0  0  0  0
   -1.2624    0.2033   -1.2959 H   0  0  0  0  0  0  0  0  0  0  0  0
   -7.0356   -1.3886    0.2172 H   0  0  0  0  0  0  0  0  0  0  0  0
   -6.1749   -2.5778    1.2139 H   0  0  0  0  0  0  0  0  0  0  0  0
   -6.4216   -0.9297    1.8138 H   0  0  0  0  0  0  0  0  0  0  0  0
  1 15  1  0  0  0  0
  2  9  1  0  0  0  0
  2 19  1  0  0  0  0
  3  7  1  0  0  0  0
  3 13  1  0  0  0  0
  4 18  2  0  0  0  0
  5 19  2  0  0  0  0
  6 12  1  0  0  0  0
  6 18  1  0  0  0  0
  6 28  1  0  0  0  0
  7 12  2  0  0  0  0
  8  9  1  0  0  0  0
  8 10  2  0  0  0  0
  8 11  1  0  0  0  0
  9 21  1  0  0  0  0
  9 22  1  0  0  0  0
 10 15  1  0  0  0  0
 10 23  1  0  0  0  0
 11 16  2  0  0  0  0
 11 24  1  0  0  0  0
 12 14  1  0  0  0  0
 13 14  2  0  0  0  0
 13 20  1  0  0  0  0
 14 25  1  0  0  0  0
 15 17  2  0  0  0  0
 16 17  1  0  0  0  0
 16 26  1  0  0  0  0
 17 27  1  0  0  0  0
 18 19  1  0  0  0  0
 20 29  1  0  0  0  0
 20 30  1  0  0  0  0
 20 31  1  0  0  0  0
M  END
> <PUBCHEM_COMPOUND_CID>
47205701

> <PUBCHEM_CONFORMER_RMSD>
0.8

> <PUBCHEM_CONFORMER_DIVERSEORDER>
2
149
52
147
105
153
159
142
13
77
116
35
15
83
94
141
104
79
140
6
89
68
132
40
73
1
88
62
114
24
162
63
71
134
90
137
69
100
139
16
8
110
118
23
148
65
106
128
47
135
57
4
91
53
120
95
164
42
28
155
152
154
157
32
76
9
25
126
7
34
86
112
48
131
51
3
117
130
21
33
122
103
5
45
143
138
121
124
97
85
11
113
119
78
107
46
115
27
82
146
144
156
55
123
67
133
145
102
111
39
38
59
129
101
49
66
74
160
31
19
163
150
26
30
158
50
70
61
29
109
81
92
22
44
161
98
36
54
41
17
96
10
136
151
37
125
64
18
99
58
56
108
75
80
84
93
20
14
72
12
43
87
60
127

> <PUBCHEM_MMFF94_PARTIAL_CHARGES>
26
1 -0.19
10 -0.15
11 -0.15
12 0.35
13 -0.04
14 -0.15
15 0.19
16 -0.15
17 -0.15
18 0.63
19 0.72
2 -0.43
20 0.18
23 0.15
24 0.15
25 0.15
26 0.15
27 0.15
28 0.37
3 -0.02
4 -0.57
5 -0.57
6 -0.49
7 -0.41
8 -0.14
9 0.42

> <PUBCHEM_EFFECTIVE_ROTOR_COUNT>
6

> <PUBCHEM_PHARMACOPHORE_FEATURES>
5
1 4 acceptor
1 5 acceptor
1 6 donor
5 3 7 12 13 14 rings
6 8 10 11 15 16 17 rings

> <PUBCHEM_HEAVY_ATOM_COUNT>
20

> <PUBCHEM_ATOM_DEF_STEREO_COUNT>
0

> <PUBCHEM_ATOM_UDEF_STEREO_COUNT>
0

> <PUBCHEM_BOND_DEF_STEREO_COUNT>
0

> <PUBCHEM_BOND_UDEF_STEREO_COUNT>
0

> <PUBCHEM_ISOTOPIC_ATOM_COUNT>
0

> <PUBCHEM_COMPONENT_COUNT>
1

> <PUBCHEM_CACTVS_TAUTO_COUNT>
8

> <PUBCHEM_CONFORMER_ID>
02D04D4500000002

> <PUBCHEM_MMFF94_ENERGY>
32.6118

> <PUBCHEM_FEATURE_SELFOVERLAP>
25.374

> <PUBCHEM_SHAPE_MULTIPOLES>
370.88
13.64
2.52
1.37
7.01
1.47
-0.23
-11.96
-1.94
0.26
-0.04
-1.31
-0.54
-0.75

> <PUBCHEM_SHAPE_SELFOVERLAP>
787.825

> <PUBCHEM_SHAPE_VOLUME>
206.5

> <PUBCHEM_COORDINATE_TYPE>
2
5
10

$$$$

