9332
  -OEChem-06261203373D

 28 29  0     0  0  0  0  0  0999 V2000
   -1.1110    0.0748   -0.1306 P   0  0  0  0  0  0  0  0  0  0  0  0
   -1.3079   -0.0502   -1.6225 O   0  0  0  0  0  0  0  0  0  0  0  0
    2.7444    0.4719    0.2818 O   0  0  0  0  0  0  0  0  0  0  0  0
    1.5903   -1.1617   -0.8514 O   0  0  0  0  0  0  0  0  0  0  0  0
   -2.0761    1.2162    0.5926 N   0  0  0  0  0  0  0  0  0  0  0  0
   -1.3727   -1.3254    0.7228 N   0  0  0  0  0  0  0  0  0  0  0  0
    0.4993    0.5554    0.2505 N   0  0  0  0  0  0  0  0  0  0  0  0
   -2.0317    2.5569    0.0238 C   0  0  0  0  0  0  0  0  0  0  0  0
   -3.2291    1.6736   -0.1719 C   0  0  0  0  0  0  0  0  0  0  0  0
   -2.7406   -1.8269    0.7409 C   0  0  0  0  0  0  0  0  0  0  0  0
   -1.6747   -2.5177   -0.0586 C   0  0  0  0  0  0  0  0  0  0  0  0
    1.6120   -0.1413   -0.1712 C   0  0  0  0  0  0  0  0  0  0  0  0
    3.9798   -0.1524   -0.0850 C   0  0  0  0  0  0  0  0  0  0  0  0
    5.1179    0.6268    0.4788 C   0  0  0  0  0  0  0  0  0  0  0  0
   -1.3731    2.7238   -0.8173 H   0  0  0  0  0  0  0  0  0  0  0  0
   -2.1091    3.3690    0.7333 H   0  0  0  0  0  0  0  0  0  0  0  0
   -4.1169    1.8879    0.4077 H   0  0  0  0  0  0  0  0  0  0  0  0
   -3.4051    1.2507   -1.1503 H   0  0  0  0  0  0  0  0  0  0  0  0
   -3.0591   -2.2853    1.6668 H   0  0  0  0  0  0  0  0  0  0  0  0
   -3.4980   -1.2776    0.1995 H   0  0  0  0  0  0  0  0  0  0  0  0
   -1.7142   -2.4451   -1.1356 H   0  0  0  0  0  0  0  0  0  0  0  0
   -1.2707   -3.4433    0.3293 H   0  0  0  0  0  0  0  0  0  0  0  0
    0.6493    1.3882    0.8127 H   0  0  0  0  0  0  0  0  0  0  0  0
    3.9972   -1.1756    0.3071 H   0  0  0  0  0  0  0  0  0  0  0  0
    4.0559   -0.1870   -1.1777 H   0  0  0  0  0  0  0  0  0  0  0  0
    6.0777    0.1735    0.2150 H   0  0  0  0  0  0  0  0  0  0  0  0
    5.1062    1.6578    0.1093 H   0  0  0  0  0  0  0  0  0  0  0  0
    5.0484    0.6850    1.5703 H   0  0  0  0  0  0  0  0  0  0  0  0
  1  2  2  0  0  0  0
  1  5  1  0  0  0  0
  1  6  1  0  0  0  0
  1  7  1  0  0  0  0
  3 12  1  0  0  0  0
  3 13  1  0  0  0  0
  4 12  2  0  0  0  0
  5  8  1  0  0  0  0
  5  9  1  0  0  0  0
  6 10  1  0  0  0  0
  6 11  1  0  0  0  0
  7 12  1  0  0  0  0
  7 23  1  0  0  0  0
  8  9  1  0  0  0  0
  8 15  1  0  0  0  0
  8 16  1  0  0  0  0
  9 17  1  0  0  0  0
  9 18  1  0  0  0  0
 10 11  1  0  0  0  0
 10 19  1  0  0  0  0
 10 20  1  0  0  0  0
 11 21  1  0  0  0  0
 11 22  1  0  0  0  0
 13 14  1  0  0  0  0
 13 24  1  0  0  0  0
 13 25  1  0  0  0  0
 14 26  1  0  0  0  0
 14 27  1  0  0  0  0
 14 28  1  0  0  0  0
M  END
> <PUBCHEM_COMPOUND_CID>
9332

> <PUBCHEM_CONFORMER_RMSD>
0.8

> <PUBCHEM_CONFORMER_DIVERSEORDER>
1
15
16
33
20
13
4
22
8
36
12
3
11
10
29
5
21
28
19
32
39
30
26
7
9
35
38
34
37
17
6
25
27
2
24
18
31
23
14

> <PUBCHEM_MMFF94_PARTIAL_CHARGES>
22
1 1.49
10 -0.04
11 -0.04
12 0.78
13 0.28
15 0.1
16 0.1
17 0.1
18 0.1
19 0.1
2 -0.7
20 0.1
21 0.1
22 0.1
23 0.37
3 -0.43
4 -0.57
5 -0.58
6 -0.58
7 -0.69
8 -0.04
9 -0.04

> <PUBCHEM_EFFECTIVE_ROTOR_COUNT>
7.2

> <PUBCHEM_PHARMACOPHORE_FEATURES>
3
1 2 acceptor
1 4 acceptor
1 7 donor

> <PUBCHEM_HEAVY_ATOM_COUNT>
14

> <PUBCHEM_ATOM_DEF_STEREO_COUNT>
0

> <PUBCHEM_ATOM_UDEF_STEREO_COUNT>
0

> <PUBCHEM_BOND_DEF_STEREO_COUNT>
0

> <PUBCHEM_BOND_UDEF_STEREO_COUNT>
0

> <PUBCHEM_ISOTOPIC_ATOM_COUNT>
0

> <PUBCHEM_COMPONENT_COUNT>
1

> <PUBCHEM_CACTVS_TAUTO_COUNT>
3

> <PUBCHEM_CONFORMER_ID>
0000247400000001

> <PUBCHEM_MMFF94_ENERGY>
18.1446

> <PUBCHEM_FEATURE_SELFOVERLAP>
15.223

> <PUBCHEM_SHAPE_FINGERPRINT>
10680689 15 17894631414452121476
11357001 24 18342734092259156819
12138202 97 18410295847564822143
122479 349 18261673787049407108
12500047 106 18411142476008440272
12532896 13 18268145538602879999
13024252 1 13326858837923160631
13214271 11 18334859407282369340
13296909 8 18413386510204697700
13380535 76 18263084464741393886
15219456 202 18260540160833957326
15279308 16 18260827124620311406
1741750 31 18337106890348006104
187816 3 18339377296550601727
20524608 308 18410290328442403339
20645477 56 18411695517314287944
20645477 70 16950841531290460262
20711985 365 18341326678794744095
20871998 184 18335130973690439311
21339142 126 18335420102156712863
21524375 3 18119255201428957213
22959321 60 18188498982530196104
2306618 200 17775017768536769469
23380061 127 18341052930501115842
23402539 116 18336837415958170535
23500284 214 18261386810098212897
23526113 38 17750235970553192466
23557571 272 18336812122943191732
23559900 14 18262799692084536930
23598291 2 17632000997367920982
23598294 1 18343311352864358130
2748010 2 18191285251599198375
305870 269 17982454007534682657
3086196 2 18270117907417182130
573450 72 18201451272312431410
6333449 129 18410291419506274489
633830 44 17828485005094178573
81228 2 18341035334130965043

> <PUBCHEM_SHAPE_MULTIPOLES>
259.41
7.27
2.43
0.9
11.64
0.15
0.21
-1.72
-1.12
-3.33
-0.2
-0.22
0.12
0.51

> <PUBCHEM_SHAPE_SELFOVERLAP>
492.864

> <PUBCHEM_SHAPE_VOLUME>
162

> <PUBCHEM_COORDINATE_TYPE>
2
5
10

$$$$

