17395912
  -OEChem-06241222533D

 51 55  0     0  0  0  0  0  0999 V2000
    1.4594    1.0190   -1.8090 O   0  0  0  0  0  0  0  0  0  0  0  0
   -5.5161   -0.1532    0.3931 N   0  0  0  0  0  0  0  0  0  0  0  0
   -6.6066   -1.6869   -0.7139 N   0  0  0  0  0  0  0  0  0  0  0  0
   -5.2555   -1.8899   -0.9044 N   0  0  0  0  0  0  0  0  0  0  0  0
    0.9785   -0.3994    0.0034 N   0  0  0  0  0  0  0  0  0  0  0  0
    7.3392    0.0738    0.3177 N   0  0  0  0  0  0  0  0  0  0  0  0
    8.1780    1.0711   -0.0016 N   0  0  0  0  0  0  0  0  0  0  0  0
    9.2737   -0.6520    1.0295 N   0  0  0  0  0  0  0  0  0  0  0  0
   -5.8261    2.2874    0.7056 C   0  0  0  0  0  0  0  0  0  0  0  0
   -7.3362    2.4022    0.9277 C   0  0  0  0  0  0  0  0  0  0  0  0
   -8.1865    1.4196    0.1177 C   0  0  0  0  0  0  0  0  0  0  0  0
   -5.2210    0.9874    1.2289 C   0  0  0  0  0  0  0  0  0  0  0  0
   -8.0271   -0.0391    0.5431 C   0  0  0  0  0  0  0  0  0  0  0  0
   -6.7535   -0.6361    0.0691 C   0  0  0  0  0  0  0  0  0  0  0  0
   -4.6172   -0.9590   -0.2326 C   0  0  0  0  0  0  0  0  0  0  0  0
   -3.1819   -0.8163   -0.1724 C   0  0  0  0  0  0  0  0  0  0  0  0
   -2.5200   -0.0268   -1.1127 C   0  0  0  0  0  0  0  0  0  0  0  0
   -2.4571   -1.4667    0.8262 C   0  0  0  0  0  0  0  0  0  0  0  0
   -1.1334    0.1122   -1.0546 C   0  0  0  0  0  0  0  0  0  0  0  0
   -1.0704   -1.3279    0.8844 C   0  0  0  0  0  0  0  0  0  0  0  0
   -0.4086   -0.5384   -0.0560 C   0  0  0  0  0  0  0  0  0  0  0  0
    1.8080    0.3450   -0.8456 C   0  0  0  0  0  0  0  0  0  0  0  0
    3.2610    0.2730   -0.5406 C   0  0  0  0  0  0  0  0  0  0  0  0
    5.9879    0.1395    0.0328 C   0  0  0  0  0  0  0  0  0  0  0  0
    4.1000    1.3308   -0.8908 C   0  0  0  0  0  0  0  0  0  0  0  0
    3.7856   -0.8516    0.0964 C   0  0  0  0  0  0  0  0  0  0  0  0
    5.4634    1.2642   -0.6042 C   0  0  0  0  0  0  0  0  0  0  0  0
    5.1489   -0.9184    0.3831 C   0  0  0  0  0  0  0  0  0  0  0  0
    7.9982   -0.9464    0.9299 C   0  0  0  0  0  0  0  0  0  0  0  0
    9.3353    0.5829    0.4498 C   0  0  0  0  0  0  0  0  0  0  0  0
   -5.5953    2.4165   -0.3590 H   0  0  0  0  0  0  0  0  0  0  0  0
   -5.3489    3.1210    1.2358 H   0  0  0  0  0  0  0  0  0  0  0  0
   -7.6406    3.4192    0.6499 H   0  0  0  0  0  0  0  0  0  0  0  0
   -7.5625    2.2943    1.9957 H   0  0  0  0  0  0  0  0  0  0  0  0
   -4.1361    1.1073    1.3011 H   0  0  0  0  0  0  0  0  0  0  0  0
   -5.5858    0.7552    2.2362 H   0  0  0  0  0  0  0  0  0  0  0  0
   -9.2382    1.6990    0.2594 H   0  0  0  0  0  0  0  0  0  0  0  0
   -7.9724    1.5362   -0.9521 H   0  0  0  0  0  0  0  0  0  0  0  0
   -8.1045   -0.1350    1.6324 H   0  0  0  0  0  0  0  0  0  0  0  0
   -8.8567   -0.6177    0.1185 H   0  0  0  0  0  0  0  0  0  0  0  0
   -3.0725    0.4869   -1.8962 H   0  0  0  0  0  0  0  0  0  0  0  0
   -2.9588   -2.0851    1.5667 H   0  0  0  0  0  0  0  0  0  0  0  0
   -0.6947    0.7400   -1.8172 H   0  0  0  0  0  0  0  0  0  0  0  0
   -0.5187   -1.8406    1.6682 H   0  0  0  0  0  0  0  0  0  0  0  0
    1.4064   -0.8803    0.7896 H   0  0  0  0  0  0  0  0  0  0  0  0
    3.7096    2.2179   -1.3828 H   0  0  0  0  0  0  0  0  0  0  0  0
    3.1770   -1.7133    0.3537 H   0  0  0  0  0  0  0  0  0  0  0  0
    6.0826    2.1098   -0.8921 H   0  0  0  0  0  0  0  0  0  0  0  0
    5.5034   -1.8199    0.8721 H   0  0  0  0  0  0  0  0  0  0  0  0
    7.5555   -1.8654    1.2868 H   0  0  0  0  0  0  0  0  0  0  0  0
   10.2523    1.1449    0.3537 H   0  0  0  0  0  0  0  0  0  0  0  0
  1 22  2  0  0  0  0
  2 12  1  0  0  0  0
  2 14  1  0  0  0  0
  2 15  1  0  0  0  0
  3  4  1  0  0  0  0
  3 14  2  0  0  0  0
  4 15  2  0  0  0  0
  5 21  1  0  0  0  0
  5 22  1  0  0  0  0
  5 45  1  0  0  0  0
  6  7  1  0  0  0  0
  6 24  1  0  0  0  0
  6 29  1  0  0  0  0
  7 30  2  0  0  0  0
  8 29  2  0  0  0  0
  8 30  1  0  0  0  0
  9 10  1  0  0  0  0
  9 12  1  0  0  0  0
  9 31  1  0  0  0  0
  9 32  1  0  0  0  0
 10 11  1  0  0  0  0
 10 33  1  0  0  0  0
 10 34  1  0  0  0  0
 11 13  1  0  0  0  0
 11 37  1  0  0  0  0
 11 38  1  0  0  0  0
 12 35  1  0  0  0  0
 12 36  1  0  0  0  0
 13 14  1  0  0  0  0
 13 39  1  0  0  0  0
 13 40  1  0  0  0  0
 15 16  1  0  0  0  0
 16 17  2  0  0  0  0
 16 18  1  0  0  0  0
 17 19  1  0  0  0  0
 17 41  1  0  0  0  0
 18 20  2  0  0  0  0
 18 42  1  0  0  0  0
 19 21  2  0  0  0  0
 19 43  1  0  0  0  0
 20 21  1  0  0  0  0
 20 44  1  0  0  0  0
 22 23  1  0  0  0  0
 23 25  2  0  0  0  0
 23 26  1  0  0  0  0
 24 27  2  0  0  0  0
 24 28  1  0  0  0  0
 25 27  1  0  0  0  0
 25 46  1  0  0  0  0
 26 28  2  0  0  0  0
 26 47  1  0  0  0  0
 27 48  1  0  0  0  0
 28 49  1  0  0  0  0
 29 50  1  0  0  0  0
 30 51  1  0  0  0  0
M  END
> <PUBCHEM_COMPOUND_CID>
17395912

> <PUBCHEM_CONFORMER_RMSD>
0.8

> <PUBCHEM_CONFORMER_DIVERSEORDER>
1
11
10
9
2
5
3
6
8
7
4
12

> <PUBCHEM_MMFF94_PARTIAL_CHARGES>
38
1 -0.57
12 0.26
13 0.18
14 0.01
15 0.13
16 0.05
17 -0.15
18 -0.15
19 -0.15
2 0.05
20 -0.15
21 0.12
22 0.54
23 0.09
24 -0.02
25 -0.15
26 -0.15
27 -0.15
28 -0.15
29 0.04
3 -0.34
30 0.37
4 -0.34
41 0.15
42 0.15
43 0.15
44 0.15
45 0.37
46 0.15
47 0.15
48 0.15
49 0.15
5 -0.55
50 0.15
51 0.15
6 0.59
7 -0.71
8 -0.57

> <PUBCHEM_EFFECTIVE_ROTOR_COUNT>
6

> <PUBCHEM_PHARMACOPHORE_FEATURES>
11
1 1 acceptor
1 5 donor
3 2 3 14 cation
3 2 4 15 cation
3 6 8 29 cation
3 7 8 30 cation
5 2 3 4 14 15 rings
5 6 7 8 29 30 rings
6 16 17 18 19 20 21 rings
6 23 24 25 26 27 28 rings
7 2 9 10 11 12 13 14 rings

> <PUBCHEM_HEAVY_ATOM_COUNT>
30

> <PUBCHEM_ATOM_DEF_STEREO_COUNT>
0

> <PUBCHEM_ATOM_UDEF_STEREO_COUNT>
0

> <PUBCHEM_BOND_DEF_STEREO_COUNT>
0

> <PUBCHEM_BOND_UDEF_STEREO_COUNT>
0

> <PUBCHEM_ISOTOPIC_ATOM_COUNT>
0

> <PUBCHEM_COMPONENT_COUNT>
1

> <PUBCHEM_CACTVS_TAUTO_COUNT>
3

> <PUBCHEM_CONFORMER_ID>
010970C800000001

> <PUBCHEM_MMFF94_ENERGY>
75.1386

> <PUBCHEM_FEATURE_SELFOVERLAP>
61.093

> <PUBCHEM_SHAPE_FINGERPRINT>
10 15 16226046691332813806
100830 39 18335983159985729961
10299344 5 18343021082148019994
10533779 1 18118681265910530017
10625338 86 16950281823314998657
10917259 128 17751079317610467241
11135609 127 7709160380146385314
11135926 11 17489878132757058891
11315181 36 18411700972724288783
11456790 92 18272084989649132032
11477941 20 17095251337249816657
12089408 11 18408887313351478214
12144603 126 18343298133941490364
12236239 1 18413668003237055327
12664476 115 17676207975170933745
13150687 139 5472865874655686228
13668630 136 12247682686530202328
13685833 64 17418096516706680558
13885169 127 18334294275079236691
13914758 101 18408037425022342850
14118638 360 14635136954858304282
14251764 18 18343864407740461228
14251764 46 18409730651739319190
14428016 248 18271801303518442852
14444916 359 16415478263963957306
15131766 46 17172664467627211600
15183329 4 18343298163104057639
15301273 46 17458338659515879804
15419008 145 18271810171866818568
15419008 47 16298387971859887536
15461852 350 17967531237964198366
15604295 49 17822018571163918976
16989713 51 16734121033520292551
1754911 235 6844206432627490939
19841028 212 11743578599897444640
20105231 36 15195566805842545272
20982279 24 15697154214167293376
21095086 128 10087645897053913912
21130935 74 18201436914168578690
21150785 3 8070026666505472424
21267235 1 16917069958370400182
21298829 104 18412261748654365554
21781055 127 18058994199173654212
21792961 116 14764355945930378838
22224240 67 18334018260029826430
23522609 53 17987209206188595989
23559900 14 17630607821667515972
23569917 315 17560230315968435883
246663 6 14692851397814772320
3178227 256 16056875836804908544
4073 2 17988073383799675378
4093350 32 18113617936990109678
4339292 15 16951137162786028999
44389302 135 18341343275651878378
44802255 64 16805326622094933877
5381727 24 18131347493763977563
5470011 282 12895351102046757146
6201320 215 18187929555313055057
636775 72 17677045858882237737
636775 8 9294993675725216129
99344 41 18408323289324547230
9937071 3 15051745201206007256
999808 66 15554444106550070849

> <PUBCHEM_SHAPE_MULTIPOLES>
576.65
31.38
1.79
1.12
28.98
0.49
-0.12
6.67
8.84
-3.17
0.19
-0.08
0.11
-2.26

> <PUBCHEM_SHAPE_SELFOVERLAP>
1274.174

> <PUBCHEM_SHAPE_VOLUME>
306.7

> <PUBCHEM_COORDINATE_TYPE>
2
5
10

$$$$

