10611
  -OEChem-06261204452D

 32 33  0     1  0  0  0  0  0999 V2000
    7.8010    0.3831    0.0000 O   0  0  0  0  0  0  0  0  0  0  0  0
    5.1350    1.8623    0.0000 O   0  0  0  0  0  0  0  0  0  0  0  0
    3.4030   -1.1377    0.0000 O   0  0  0  0  0  0  0  0  0  0  0  0
    2.5369    0.3623    0.0000 O   0  0  0  0  0  0  0  0  0  0  0  0
    3.4030    1.8623    0.0000 O   0  0  0  0  0  0  0  0  0  0  0  0
    6.8950   -1.1724    0.0000 C   0  0  1  0  0  0  0  0  0  0  0  0
    7.8010   -0.6585    0.0000 C   0  0  2  0  0  0  0  0  0  0  0  0
    6.0010   -0.6377    0.0000 C   0  0  0  0  0  0  0  0  0  0  0  0
    6.0010    0.3623    0.0000 C   0  0  0  0  0  0  0  0  0  0  0  0
    5.1350   -1.1377    0.0000 C   0  0  0  0  0  0  0  0  0  0  0  0
    6.8834   -2.1723    0.0000 C   0  0  0  0  0  0  0  0  0  0  0  0
    8.6651   -1.1618    0.0000 C   0  0  0  0  0  0  0  0  0  0  0  0
    6.8950    0.8970    0.0000 C   0  0  0  0  0  0  0  0  0  0  0  0
    5.1350    0.8623    0.0000 C   0  0  0  0  0  0  0  0  0  0  0  0
    4.2690   -0.6377    0.0000 C   0  0  0  0  0  0  0  0  0  0  0  0
    4.2690    0.3623    0.0000 C   0  0  0  0  0  0  0  0  0  0  0  0
    5.1350   -2.1377    0.0000 C   0  0  0  0  0  0  0  0  0  0  0  0
    3.4030    0.8623    0.0000 C   0  0  0  0  0  0  0  0  0  0  0  0
    7.4289   -1.4875    0.0000 H   0  0  0  0  0  0  0  0  0  0  0  0
    8.3386   -0.3496    0.0000 H   0  0  0  0  0  0  0  0  0  0  0  0
    6.2635   -2.1651    0.0000 H   0  0  0  0  0  0  0  0  0  0  0  0
    6.8762   -2.7923    0.0000 H   0  0  0  0  0  0  0  0  0  0  0  0
    7.5034   -2.1795    0.0000 H   0  0  0  0  0  0  0  0  0  0  0  0
    8.3531   -1.6976    0.0000 H   0  0  0  0  0  0  0  0  0  0  0  0
    9.2009   -1.4739    0.0000 H   0  0  0  0  0  0  0  0  0  0  0  0
    8.9772   -0.6261    0.0000 H   0  0  0  0  0  0  0  0  0  0  0  0
    6.8878    1.5169    0.0000 H   0  0  0  0  0  0  0  0  0  0  0  0
    4.5150   -2.1377    0.0000 H   0  0  0  0  0  0  0  0  0  0  0  0
    5.1350   -2.7577    0.0000 H   0  0  0  0  0  0  0  0  0  0  0  0
    5.7550   -2.1377    0.0000 H   0  0  0  0  0  0  0  0  0  0  0  0
    2.0000    0.6723    0.0000 H   0  0  0  0  0  0  0  0  0  0  0  0
    2.8660    2.1723    0.0000 H   0  0  0  0  0  0  0  0  0  0  0  0
  1  7  1  0  0  0  0
  1 13  1  0  0  0  0
  2 14  2  0  0  0  0
  3 15  2  0  0  0  0
  4 18  1  0  0  0  0
  4 31  1  0  0  0  0
  5 18  1  0  0  0  0
  5 32  1  0  0  0  0
  6  7  1  0  0  0  0
  6  8  1  0  0  0  0
  6 11  1  6  0  0  0
  6 19  1  0  0  0  0
  7 12  1  1  0  0  0
  7 20  1  0  0  0  0
  8  9  1  0  0  0  0
  8 10  2  0  0  0  0
  9 13  2  0  0  0  0
  9 14  1  0  0  0  0
 10 15  1  0  0  0  0
 10 17  1  0  0  0  0
 11 21  1  0  0  0  0
 11 22  1  0  0  0  0
 11 23  1  0  0  0  0
 12 24  1  0  0  0  0
 12 25  1  0  0  0  0
 12 26  1  0  0  0  0
 13 27  1  0  0  0  0
 14 16  1  0  0  0  0
 15 16  1  0  0  0  0
 16 18  2  0  0  0  0
 17 28  1  0  0  0  0
 17 29  1  0  0  0  0
 17 30  1  0  0  0  0
M  END
> <PUBCHEM_COMPOUND_CID>
10611

> <PUBCHEM_COMPOUND_CANONICALIZED>
1

> <PUBCHEM_CACTVS_COMPLEXITY>
532

> <PUBCHEM_CACTVS_HBOND_ACCEPTOR>
5

> <PUBCHEM_CACTVS_HBOND_DONOR>
2

> <PUBCHEM_CACTVS_ROTATABLE_BOND>
0

> <PUBCHEM_CACTVS_SUBSKEYS>
AAADccBwOAAAAAAAAAAAAAAAAAAAAAAAAAAgQAAAAAAAAACAAAAAGgAACAAADRSggAICCAAABgCIAoBSAAAACAAgIAAACAEAAEgIABIIAAAAAAAEwAAIgYOIzODOAAAAAAAAAAAAAAAAAAAAAAAAAAAAAA==

> <PUBCHEM_IUPAC_OPENEYE_NAME>
(3S,4R)-7-(dihydroxymethylene)-3,4,5-trimethyl-3,4-dihydroisochromene-6,8-dione

> <PUBCHEM_IUPAC_CAS_NAME>
(3S,4R)-7-(dihydroxymethylidene)-3,4,5-trimethyl-3,4-dihydro-2-benzopyran-6,8-dione

> <PUBCHEM_IUPAC_NAME>
(3S,4R)-7-(dihydroxymethylidene)-3,4,5-trimethyl-3,4-dihydroisochromene-6,8-dione

> <PUBCHEM_IUPAC_SYSTEMATIC_NAME>
(3S,4R)-7-[bis(oxidanyl)methylidene]-3,4,5-trimethyl-3,4-dihydroisochromene-6,8-dione

> <PUBCHEM_IUPAC_TRADITIONAL_NAME>
(3S,4R)-7-(dihydroxymethylene)-3,4,5-trimethyl-3,4-dihydroisochromene-6,8-quinone

> <PUBCHEM_IUPAC_INCHI>
InChI=1S/C13H14O5/c1-5-7(3)18-4-8-9(5)6(2)11(14)10(12(8)15)13(16)17/h4-5,7,16-17H,1-3H3/t5-,7-/m0/s1

> <PUBCHEM_IUPAC_INCHIKEY>
JLWQFKMKUKQXMW-FSPLSTOPSA-N

> <PUBCHEM_XLOGP3_AA>
2

> <PUBCHEM_EXACT_MASS>
250.084124

> <PUBCHEM_MOLECULAR_FORMULA>
C13H14O5

> <PUBCHEM_MOLECULAR_WEIGHT>
250.24726

> <PUBCHEM_OPENEYE_CAN_SMILES>
CC1C(OC=C2C1=C(C(=O)C(=C(O)O)C2=O)C)C

> <PUBCHEM_OPENEYE_ISO_SMILES>
C[C@H]1[C@@H](OC=C2C1=C(C(=O)C(=C(O)O)C2=O)C)C

> <PUBCHEM_CACTVS_TPSA>
83.8

> <PUBCHEM_MONOISOTOPIC_WEIGHT>
250.084124

> <PUBCHEM_TOTAL_CHARGE>
0

> <PUBCHEM_HEAVY_ATOM_COUNT>
18

> <PUBCHEM_ATOM_DEF_STEREO_COUNT>
2

> <PUBCHEM_ATOM_UDEF_STEREO_COUNT>
0

> <PUBCHEM_BOND_DEF_STEREO_COUNT>
0

> <PUBCHEM_BOND_UDEF_STEREO_COUNT>
0

> <PUBCHEM_ISOTOPIC_ATOM_COUNT>
0

> <PUBCHEM_COMPONENT_COUNT>
1

> <PUBCHEM_CACTVS_TAUTO_COUNT>
11

> <PUBCHEM_COORDINATE_TYPE>
1
5
255

> <PUBCHEM_BONDANNOTATIONS>
6  11  6
7  12  5

$$$$

