3535
  -OEChem-06251223293D

 31 33  0     1  0  0  0  0  0999 V2000
   -5.0833   -2.8980   -0.7308 I   0  0  0  0  0  0  0  0  0  0  0  0
    3.7229   -2.9089    1.4193 Br  0  0  0  0  0  0  0  0  0  0  0  0
    4.8556    2.1372   -1.0792 Br  0  0  0  0  0  0  0  0  0  0  0  0
    0.2414    1.1236    1.5564 O   0  0  0  0  0  0  0  0  0  0  0  0
    5.3906   -0.4700    0.5003 O   0  0  0  0  0  0  0  0  0  0  0  0
   -2.0078    1.6815    1.2480 N   0  0  0  0  0  0  0  0  0  0  0  0
   -2.4205    0.6498   -0.8654 C   0  0  1  0  0  0  0  0  0  0  0  0
   -3.0310    1.5506    0.2338 C   0  0  1  0  0  0  0  0  0  0  0  0
   -0.9858    0.5036   -0.4264 C   0  0  0  0  0  0  0  0  0  0  0  0
   -3.1080   -0.6819   -1.0500 C   0  0  0  0  0  0  0  0  0  0  0  0
   -0.7911    1.1212    0.9084 C   0  0  0  0  0  0  0  0  0  0  0  0
   -4.2822    1.0399    0.8829 C   0  0  0  0  0  0  0  0  0  0  0  0
    0.0284   -0.0547   -1.0938 C   0  0  0  0  0  0  0  0  0  0  0  0
   -4.2148   -1.0461   -0.3781 C   0  0  0  0  0  0  0  0  0  0  0  0
   -4.8180   -0.1523    0.5888 C   0  0  0  0  0  0  0  0  0  0  0  0
    1.4081   -0.1617   -0.6848 C   0  0  0  0  0  0  0  0  0  0  0  0
    2.3242    0.8468   -1.0089 C   0  0  0  0  0  0  0  0  0  0  0  0
    1.8472   -1.2754    0.0423 C   0  0  0  0  0  0  0  0  0  0  0  0
    3.1806   -1.3790    0.4387 C   0  0  0  0  0  0  0  0  0  0  0  0
    3.6577    0.7434   -0.6125 C   0  0  0  0  0  0  0  0  0  0  0  0
    4.0858   -0.3695    0.1112 C   0  0  0  0  0  0  0  0  0  0  0  0
   -2.4562    1.1865   -1.8225 H   0  0  0  0  0  0  0  0  0  0  0  0
   -3.2168    2.5552   -0.1654 H   0  0  0  0  0  0  0  0  0  0  0  0
   -2.1463    2.1973    2.1119 H   0  0  0  0  0  0  0  0  0  0  0  0
   -2.6734   -1.3517   -1.7894 H   0  0  0  0  0  0  0  0  0  0  0  0
   -4.7740    1.6744    1.6156 H   0  0  0  0  0  0  0  0  0  0  0  0
   -0.1730   -0.4760   -2.0772 H   0  0  0  0  0  0  0  0  0  0  0  0
   -5.7292   -0.4618    1.0914 H   0  0  0  0  0  0  0  0  0  0  0  0
    1.9891    1.7150   -1.5738 H   0  0  0  0  0  0  0  0  0  0  0  0
    1.1398   -2.0628    0.2974 H   0  0  0  0  0  0  0  0  0  0  0  0
    5.5030   -1.3033    0.9896 H   0  0  0  0  0  0  0  0  0  0  0  0
  1 14  1  0  0  0  0
  2 19  1  0  0  0  0
  3 20  1  0  0  0  0
  4 11  2  0  0  0  0
  5 21  1  0  0  0  0
  5 31  1  0  0  0  0
  6  8  1  0  0  0  0
  6 11  1  0  0  0  0
  6 24  1  0  0  0  0
  7  8  1  0  0  0  0
  7  9  1  0  0  0  0
  7 10  1  0  0  0  0
  7 22  1  0  0  0  0
  8 12  1  0  0  0  0
  8 23  1  0  0  0  0
  9 11  1  0  0  0  0
  9 13  2  0  0  0  0
 10 14  2  0  0  0  0
 10 25  1  0  0  0  0
 12 15  2  0  0  0  0
 12 26  1  0  0  0  0
 13 16  1  0  0  0  0
 13 27  1  0  0  0  0
 14 15  1  0  0  0  0
 15 28  1  0  0  0  0
 16 17  2  0  0  0  0
 16 18  1  0  0  0  0
 17 20  1  0  0  0  0
 17 29  1  0  0  0  0
 18 19  2  0  0  0  0
 18 30  1  0  0  0  0
 19 21  1  0  0  0  0
 20 21  2  0  0  0  0
M  END
> <PUBCHEM_COMPOUND_CID>
3535

> <PUBCHEM_CONFORMER_RMSD>
0.6

> <PUBCHEM_CONFORMER_DIVERSEORDER>
1
3
4
2

> <PUBCHEM_MMFF94_PARTIAL_CHARGES>
29
1 -0.09
10 -0.29
11 0.62
12 -0.29
13 -0.18
14 0.09
15 -0.15
16 0.03
17 -0.15
18 -0.15
19 0.11
2 -0.11
20 0.11
21 0.08
24 0.37
25 0.15
26 0.15
27 0.15
28 0.15
29 0.15
3 -0.11
30 0.15
31 0.45
4 -0.57
5 -0.53
6 -0.73
7 0.28
8 0.44
9 -0.12

> <PUBCHEM_EFFECTIVE_ROTOR_COUNT>
1.2

> <PUBCHEM_PHARMACOPHORE_FEATURES>
9
1 1 hydrophobe
1 2 hydrophobe
1 3 hydrophobe
1 4 acceptor
1 5 donor
1 6 donor
5 6 7 8 9 11 rings
6 16 17 18 19 20 21 rings
6 7 8 10 12 14 15 rings

> <PUBCHEM_HEAVY_ATOM_COUNT>
21

> <PUBCHEM_ATOM_DEF_STEREO_COUNT>
0

> <PUBCHEM_ATOM_UDEF_STEREO_COUNT>
2

> <PUBCHEM_BOND_DEF_STEREO_COUNT>
0

> <PUBCHEM_BOND_UDEF_STEREO_COUNT>
1

> <PUBCHEM_ISOTOPIC_ATOM_COUNT>
0

> <PUBCHEM_COMPONENT_COUNT>
1

> <PUBCHEM_CACTVS_TAUTO_COUNT>
4

> <PUBCHEM_CONFORMER_ID>
00000DCF00000001

> <PUBCHEM_MMFF94_ENERGY>
49.7759

> <PUBCHEM_FEATURE_SELFOVERLAP>
45.837

> <PUBCHEM_SHAPE_FINGERPRINT>
10595046 47 18341612594451277301
10906281 52 17532075246559533649
10912923 1 18410571777601662053
11045515 52 18130791152995455509
11405975 8 18057890340591062021
11578080 2 18195554603916506141
11796584 16 18409733975965125767
12107183 9 17692814100367923712
12236239 1 18335137609694376108
12403259 415 13470687014809455343
12403814 3 18340201986074892413
12553582 1 17676776362120266311
12596602 18 18261115171192325834
12616971 3 18343016722339444184
12633257 1 17749379348702105563
12788726 201 17968363637270816569
12839892 36 18187088385804479655
13009979 54 17971754630463608490
13167823 11 18340767130096854982
13224815 77 18040434425258028678
13533116 47 18272087218683982034
13583140 156 18263102026847148356
13631057 29 18124311610418253767
14251739 40 18201720686725666254
14251764 18 18186794774225389249
14289901 80 18342175604529095952
14341114 328 18333723620118016645
14787075 74 18337389335902838482
14849402 71 18337957771648588896
15250474 111 18411708681410610335
15375462 189 18334859411445396215
15788980 27 18059858389137249557
17138139 8 18123764062223233199
17349148 13 17918274251148329472
17492 89 18336264655809666190
18681886 176 18186802470511378030
19050596 39 18334857237943972725
19377110 9 18410577249458478248
200 152 17917991685265840821
20028762 73 18340778117146483802
20281475 54 18410580586906802615
20511986 3 18340781376861870775
20645477 70 17418373623485425306
21033648 29 15068622721128464987
21054139 6 18340768139978743726
21065198 48 18411135857173595917
21728266 224 18408329886731430167
23402539 116 17346318223753935597
23557571 272 16878783958226702224
23559900 14 17678448882309135934
238078 22 18041834013745675929
329604 57 18337110038764879167
4325135 7 18411133597952382429
439807 62 18199472074400966783
474 4 18200586991738505468
5104073 3 18113339708396115403
6913067 236 17631745863082888108
7495541 125 18186804634404872488

> <PUBCHEM_SHAPE_MULTIPOLES>
439.27
12.34
2.72
1.35
0.65
1.95
0.18
3.79
-0.87
-0.48
0.48
0.12
-0.07
-3.09

> <PUBCHEM_SHAPE_SELFOVERLAP>
907.818

> <PUBCHEM_SHAPE_VOLUME>
258.6

> <PUBCHEM_COORDINATE_TYPE>
2
5
10

$$$$

