586127
  -OEChem-06241222453D

 54 56  0     1  0  0  0  0  0999 V2000
   -2.3487    1.8048    0.8903 S   0  0  0  0  0  0  0  0  0  0  0  0
    0.3731    3.0209    0.5089 O   0  0  0  0  0  0  0  0  0  0  0  0
    2.6710    1.2237    1.6071 O   0  0  0  0  0  0  0  0  0  0  0  0
    1.5391    1.4650   -1.8114 O   0  0  0  0  0  0  0  0  0  0  0  0
    3.8396   -0.6303    0.8767 O   0  0  0  0  0  0  0  0  0  0  0  0
    3.4310    0.2393   -2.3164 O   0  0  0  0  0  0  0  0  0  0  0  0
   -0.8182   -0.4918    0.7524 N   0  0  0  0  0  0  0  0  0  0  0  0
   -0.8852   -2.3308    2.0108 N   0  0  0  0  0  0  0  0  0  0  0  0
   -0.6741   -1.5006   -1.4525 N   0  0  0  0  0  0  0  0  0  0  0  0
   -0.6683   -3.9372   -1.3137 N   0  0  0  0  0  0  0  0  0  0  0  0
   -0.7937   -5.1056    0.7710 N   0  0  0  0  0  0  0  0  0  0  0  0
    0.4020    1.6621    0.9855 C   0  0  2  0  0  0  0  0  0  0  0  0
    1.7349    1.0635    0.5432 C   0  0  1  0  0  0  0  0  0  0  0  0
    2.1505    1.9381   -0.6183 C   0  0  2  0  0  0  0  0  0  0  0  0
   -0.8057    0.9387    0.4057 C   0  0  2  0  0  0  0  0  0  0  0  0
    1.5692    3.2852   -0.2392 C   0  0  0  0  0  0  0  0  0  0  0  0
   -3.4742    1.1584   -0.3717 C   0  0  0  0  0  0  0  0  0  0  0  0
   -0.7577   -1.5456   -0.1144 C   0  0  0  0  0  0  0  0  0  0  0  0
   -4.9048    1.7221   -0.3290 C   0  0  0  0  0  0  0  0  0  0  0  0
   -0.8932   -1.0141    2.0164 C   0  0  0  0  0  0  0  0  0  0  0  0
   -0.8009   -2.6764    0.6854 C   0  0  0  0  0  0  0  0  0  0  0  0
    3.6769    0.3012    1.6533 C   0  0  0  0  0  0  0  0  0  0  0  0
    2.2956    0.6168   -2.5720 C   0  0  0  0  0  0  0  0  0  0  0  0
   -5.6125    1.4402    0.9980 C   0  0  0  0  0  0  0  0  0  0  0  0
   -4.9634    3.2142   -0.6632 C   0  0  0  0  0  0  0  0  0  0  0  0
   -0.7534   -3.9068    0.0381 C   0  0  0  0  0  0  0  0  0  0  0  0
    4.5782    0.5931    2.8145 C   0  0  0  0  0  0  0  0  0  0  0  0
    1.5274    0.2016   -3.7899 C   0  0  0  0  0  0  0  0  0  0  0  0
   -0.6345   -2.7497   -1.9655 C   0  0  0  0  0  0  0  0  0  0  0  0
    0.3428    1.6989    2.0809 H   0  0  0  0  0  0  0  0  0  0  0  0
    1.6461    0.0079    0.2726 H   0  0  0  0  0  0  0  0  0  0  0  0
    3.2352    2.0375   -0.7417 H   0  0  0  0  0  0  0  0  0  0  0  0
   -0.7644    1.0013   -0.6871 H   0  0  0  0  0  0  0  0  0  0  0  0
    1.3137    3.9043   -1.1037 H   0  0  0  0  0  0  0  0  0  0  0  0
    2.2466    3.8421    0.4169 H   0  0  0  0  0  0  0  0  0  0  0  0
   -3.5253    0.0702   -0.2564 H   0  0  0  0  0  0  0  0  0  0  0  0
   -3.0424    1.3623   -1.3580 H   0  0  0  0  0  0  0  0  0  0  0  0
   -5.4694    1.1981   -1.1122 H   0  0  0  0  0  0  0  0  0  0  0  0
   -0.9494   -0.3943    2.9010 H   0  0  0  0  0  0  0  0  0  0  0  0
   -5.1775    2.0077    1.8267 H   0  0  0  0  0  0  0  0  0  0  0  0
   -5.5632    0.3750    1.2474 H   0  0  0  0  0  0  0  0  0  0  0  0
   -6.6706    1.7164    0.9318 H   0  0  0  0  0  0  0  0  0  0  0  0
   -4.4692    3.4184   -1.6189 H   0  0  0  0  0  0  0  0  0  0  0  0
   -6.0034    3.5473   -0.7490 H   0  0  0  0  0  0  0  0  0  0  0  0
   -4.4829    3.8255    0.1073 H   0  0  0  0  0  0  0  0  0  0  0  0
    4.0119    0.5323    3.7473 H   0  0  0  0  0  0  0  0  0  0  0  0
    5.3816   -0.1484    2.8454 H   0  0  0  0  0  0  0  0  0  0  0  0
    5.0233    1.5843    2.6977 H   0  0  0  0  0  0  0  0  0  0  0  0
    1.9029   -0.7629   -4.1425 H   0  0  0  0  0  0  0  0  0  0  0  0
    1.6498    0.9540   -4.5723 H   0  0  0  0  0  0  0  0  0  0  0  0
    0.4677    0.0807   -3.5508 H   0  0  0  0  0  0  0  0  0  0  0  0
   -0.5649   -2.8112   -3.0463 H   0  0  0  0  0  0  0  0  0  0  0  0
   -0.7576   -5.9872    0.2776 H   0  0  0  0  0  0  0  0  0  0  0  0
   -0.8569   -5.0857    1.7798 H   0  0  0  0  0  0  0  0  0  0  0  0
  1 15  1  0  0  0  0
  1 17  1  0  0  0  0
  2 12  1  0  0  0  0
  2 16  1  0  0  0  0
  3 13  1  0  0  0  0
  3 22  1  0  0  0  0
  4 14  1  0  0  0  0
  4 23  1  0  0  0  0
  5 22  2  0  0  0  0
  6 23  2  0  0  0  0
  7 15  1  0  0  0  0
  7 18  1  0  0  0  0
  7 20  1  0  0  0  0
  8 20  2  0  0  0  0
  8 21  1  0  0  0  0
  9 18  2  0  0  0  0
  9 29  1  0  0  0  0
 10 26  1  0  0  0  0
 10 29  2  0  0  0  0
 11 26  1  0  0  0  0
 11 53  1  0  0  0  0
 11 54  1  0  0  0  0
 12 13  1  0  0  0  0
 12 15  1  0  0  0  0
 12 30  1  0  0  0  0
 13 14  1  0  0  0  0
 13 31  1  0  0  0  0
 14 16  1  0  0  0  0
 14 32  1  0  0  0  0
 15 33  1  0  0  0  0
 16 34  1  0  0  0  0
 16 35  1  0  0  0  0
 17 19  1  0  0  0  0
 17 36  1  0  0  0  0
 17 37  1  0  0  0  0
 18 21  1  0  0  0  0
 19 24  1  0  0  0  0
 19 25  1  0  0  0  0
 19 38  1  0  0  0  0
 20 39  1  0  0  0  0
 21 26  2  0  0  0  0
 22 27  1  0  0  0  0
 23 28  1  0  0  0  0
 24 40  1  0  0  0  0
 24 41  1  0  0  0  0
 24 42  1  0  0  0  0
 25 43  1  0  0  0  0
 25 44  1  0  0  0  0
 25 45  1  0  0  0  0
 27 46  1  0  0  0  0
 27 47  1  0  0  0  0
 27 48  1  0  0  0  0
 28 49  1  0  0  0  0
 28 50  1  0  0  0  0
 28 51  1  0  0  0  0
 29 52  1  0  0  0  0
M  END
> <PUBCHEM_COMPOUND_CID>
586127

> <PUBCHEM_CONFORMER_RMSD>
1

> <PUBCHEM_CONFORMER_DIVERSEORDER>
1
322
40
467
341
89
147
449
311
303
175
485
420
328
323
316
362
250
482
106
274
404
450
476
117
304
398
431
319
170
254
474
459
346
235
465
374
298
103
423
269
288
222
448
334
29
306
260
59
464
436
477
330
312
441
432
350
400
425
380
202
134
255
265
280
434
336
354
220
475
249
229
205
203
267
132
61
300
310
338
19
238
294
302
271
165
396
161
84
381
93
256
281
451
331
71
356
397
200
444
32
168
305
388
321
56
118
484
468
366
402
146
100
411
214
472
174
130
226
169
186
81
47
363
368
183
115
433
17
357
351
480
333
197
199
184
439
247
386
62
301
427
487
373
91
196
324
299
415
355
76
16
131
349
458
157
272
173
179
31
41
201
253
279
210
454
407
417
141
426
185
221
244
246
140
410
358
231
383
283
315
216
307
51
243
261
162
409
382
293
375
251
395
215
125
266
225
457
248
33
391
87
137
413
14
317
443
424
292
385
259
282
39
206
262
191
471
332
377
218
401
230
268
67
234
337
352
412
34
211
138
11
188
108
90
408
228
314
378
263
296
181
227
394
151
287
163
164
392
3
145
360
325
208
290
416
50
77
42
340
190
481
73
461
69
270
193
4
187
276
182
483
57
167
72
172
9
399
101
219
224
421
78
245
88
66
372
309
102
289
367
406
486
403
295
119
275
327
418
473
347
159
109
455
264
121
339
178
198
139
126
155
453
440
30
390
364
195
207
94
54
136
456
52
135
133
12
113
335
470
371
285
189
49
212
462
365
154
233
447
150
105
13
166
65
429
129
110
479
177
466
344
122
318
419
104
442
435
320
389
82
291
348
96
86
422
308
120
232
99
393
80
353
239
10
370
297
342
127
112
23
142
44
469
379
74
160
384
124
128
95
209
460
156
5
343
223
7
452
213
111
64
92
463
38
97
28
369
83
240
153
55
20
278
114
68
446
361
58
194
148
273
8
242
284
236
478
143
257
75
445
414
345
26
60
376
21
79
258
438
45
25
37
428
70
43
241
158
217
359
286
171
98
329
123
326
176
149
152
63
437
15
180
22
18
85
48
6
204
116
46
277
313
405
2
252
237
27
36
24
107
53
387
192
35
144
430

> <PUBCHEM_MMFF94_PARTIAL_CHARGES>
30
1 -0.46
10 -0.62
11 -0.9
12 0.28
13 0.28
14 0.28
15 0.49
16 0.28
17 0.23
18 0.11
2 -0.56
20 0.04
21 0.23
22 0.66
23 0.66
26 0.41
27 0.06
28 0.06
29 0.47
3 -0.43
39 0.15
4 -0.43
5 -0.57
52 0.15
53 0.4
54 0.4
6 -0.57
7 0.05
8 -0.57
9 -0.57

> <PUBCHEM_EFFECTIVE_ROTOR_COUNT>
10

> <PUBCHEM_PHARMACOPHORE_FEATURES>
12
1 11 cation
1 11 donor
1 2 acceptor
1 5 acceptor
1 6 acceptor
3 19 24 25 hydrophobe
3 7 8 20 cation
3 7 9 18 cation
3 9 10 29 cation
5 2 12 13 14 16 rings
5 7 8 18 20 21 rings
6 9 10 18 21 26 29 rings

> <PUBCHEM_HEAVY_ATOM_COUNT>
29

> <PUBCHEM_ATOM_DEF_STEREO_COUNT>
0

> <PUBCHEM_ATOM_UDEF_STEREO_COUNT>
4

> <PUBCHEM_BOND_DEF_STEREO_COUNT>
0

> <PUBCHEM_BOND_UDEF_STEREO_COUNT>
0

> <PUBCHEM_ISOTOPIC_ATOM_COUNT>
0

> <PUBCHEM_COMPONENT_COUNT>
1

> <PUBCHEM_CACTVS_TAUTO_COUNT>
3

> <PUBCHEM_CONFORMER_ID>
0008F18F00000001

> <PUBCHEM_MMFF94_ENERGY>
58.889

> <PUBCHEM_FEATURE_SELFOVERLAP>
61.498

> <PUBCHEM_SHAPE_FINGERPRINT>
10764073 3 17342958236642138699
10906281 52 17749667398604463912
12160290 23 18044361739449206587
12422481 6 17695099929133441201
12597179 24 17386017152010909236
12788726 201 17976825281331888247
133893 2 17766257053487479753
13692114 37 18410853240733104147
14251757 17 17240755177971106807
14863182 85 18268709596330939681
15849732 13 17988930011006065296
20197701 30 18262255403162539641
20567600 347 18337953497617207961
20905425 154 17471570404975739588
22956985 138 17911520110471075179
23419403 2 17264433396386391886
23598288 3 18058160627177609890
238 59 18118940681132061989
2818148 4 16343421704960087238
3380486 77 18410292549088838528
35225 105 18197762333054117599
38695281 34 18190198938901450857
513532 50 17679030545794333773
6669772 16 18041290962175485030

> <PUBCHEM_SHAPE_MULTIPOLES>
546.4
7.48
5.13
2.85
7.56
6.86
-1.93
-7.86
2.25
1.86
-0.04
-3.42
0.15
0.38

> <PUBCHEM_SHAPE_SELFOVERLAP>
1132.369

> <PUBCHEM_SHAPE_VOLUME>
315.4

> <PUBCHEM_COORDINATE_TYPE>
2
5
10

$$$$

