11250
  -OEChem-06261205273D

 18 17  0     0  0  0  0  0  0999 V2000
   -0.6774    0.0000   -0.0005 C   0  0  0  0  0  0  0  0  0  0  0  0
    0.6772    0.0000    0.0002 C   0  0  0  0  0  0  0  0  0  0  0  0
   -1.5167    1.2541   -0.0001 C   0  0  0  0  0  0  0  0  0  0  0  0
   -1.5163   -1.2546    0.0004 C   0  0  0  0  0  0  0  0  0  0  0  0
    1.5170   -1.2540   -0.0002 C   0  0  0  0  0  0  0  0  0  0  0  0
    1.5162    1.2545    0.0002 C   0  0  0  0  0  0  0  0  0  0  0  0
   -2.3620    1.1401   -0.6887 H   0  0  0  0  0  0  0  0  0  0  0  0
   -1.9158    1.4399    1.0021 H   0  0  0  0  0  0  0  0  0  0  0  0
   -0.9794    2.1445   -0.3329 H   0  0  0  0  0  0  0  0  0  0  0  0
   -1.9160   -1.4411   -1.0015 H   0  0  0  0  0  0  0  0  0  0  0  0
   -0.9783   -2.1446    0.3332 H   0  0  0  0  0  0  0  0  0  0  0  0
   -2.3611   -1.1407    0.6896 H   0  0  0  0  0  0  0  0  0  0  0  0
    1.9169   -1.4398    1.0016 H   0  0  0  0  0  0  0  0  0  0  0  0
    2.3616   -1.1398   -0.6896 H   0  0  0  0  0  0  0  0  0  0  0  0
    0.9795   -2.1445   -0.3326 H   0  0  0  0  0  0  0  0  0  0  0  0
    2.3611    1.1409    0.6893 H   0  0  0  0  0  0  0  0  0  0  0  0
    1.9158    1.4404   -1.0018 H   0  0  0  0  0  0  0  0  0  0  0  0
    0.9784    2.1448    0.3327 H   0  0  0  0  0  0  0  0  0  0  0  0
  1  2  2  0  0  0  0
  1  3  1  0  0  0  0
  1  4  1  0  0  0  0
  2  5  1  0  0  0  0
  2  6  1  0  0  0  0
  3  7  1  0  0  0  0
  3  8  1  0  0  0  0
  3  9  1  0  0  0  0
  4 10  1  0  0  0  0
  4 11  1  0  0  0  0
  4 12  1  0  0  0  0
  5 13  1  0  0  0  0
  5 14  1  0  0  0  0
  5 15  1  0  0  0  0
  6 16  1  0  0  0  0
  6 17  1  0  0  0  0
  6 18  1  0  0  0  0
M  END
> <PUBCHEM_COMPOUND_CID>
11250

> <PUBCHEM_CONFORMER_RMSD>
0.4

> <PUBCHEM_CONFORMER_DIVERSEORDER>
1

> <PUBCHEM_MMFF94_PARTIAL_CHARGES>
6
1 -0.28
2 -0.28
3 0.14
4 0.14
5 0.14
6 0.14

> <PUBCHEM_EFFECTIVE_ROTOR_COUNT>
0

> <PUBCHEM_PHARMACOPHORE_FEATURES>
2
3 1 3 4 hydrophobe
3 2 5 6 hydrophobe

> <PUBCHEM_HEAVY_ATOM_COUNT>
6

> <PUBCHEM_ATOM_DEF_STEREO_COUNT>
0

> <PUBCHEM_ATOM_UDEF_STEREO_COUNT>
0

> <PUBCHEM_BOND_DEF_STEREO_COUNT>
0

> <PUBCHEM_BOND_UDEF_STEREO_COUNT>
0

> <PUBCHEM_ISOTOPIC_ATOM_COUNT>
0

> <PUBCHEM_COMPONENT_COUNT>
1

> <PUBCHEM_CACTVS_TAUTO_COUNT>
1

> <PUBCHEM_CONFORMER_ID>
00002BF200000001

> <PUBCHEM_MMFF94_ENERGY>
7.7545

> <PUBCHEM_FEATURE_SELFOVERLAP>
10.171

> <PUBCHEM_SHAPE_FINGERPRINT>
16714656 1 17762613289006181326
20096714 4 18339359781004243473
21040471 1 18266740370884227873
23552423 10 18343862199631639206
24536 1 18338814363059643781
29004967 10 17982727476760945075

> <PUBCHEM_SHAPE_MULTIPOLES>
123.48
2.3
1.67
0.62
0
0
0
0
0
0
0
0
0
0

> <PUBCHEM_SHAPE_SELFOVERLAP>
218.867

> <PUBCHEM_SHAPE_VOLUME>
82.9

> <PUBCHEM_COORDINATE_TYPE>
2
5
10

$$$$

