13279
  -OEChem-06261208282D

 32 33  0     1  0  0  0  0  0999 V2000
    4.5411   -1.3703    0.0000 O   0  0  0  0  0  0  0  0  0  0  0  0
    2.6443   -3.1304    0.0000 O   0  0  0  0  0  0  0  0  0  0  0  0
    5.8144   -3.0259    0.0000 O   0  0  0  0  0  0  0  0  0  0  0  0
    2.0000    0.2175    0.0000 O   0  0  0  0  0  0  0  0  0  0  0  0
    3.7320    0.2175    0.0000 N   0  0  0  0  0  0  0  0  0  0  0  0
    2.8660    1.7175    0.0000 N   0  0  0  0  0  0  0  0  0  0  0  0
    3.7320    3.2175    0.0000 N   0  0  0  0  0  0  0  0  0  0  0  0
    3.2320   -2.3214    0.0000 C   0  0  3  0  0  0  0  0  0  0  0  0
    3.7320   -0.7825    0.0000 C   0  0  1  0  0  0  0  0  0  0  0  0
    2.9230   -1.3703    0.0000 C   0  0  0  0  0  0  0  0  0  0  0  0
    4.2320   -2.3214    0.0000 C   0  0  1  0  0  0  0  0  0  0  0  0
    4.8198   -3.1304    0.0000 C   0  0  0  0  0  0  0  0  0  0  0  0
    4.5981    0.7175    0.0000 C   0  0  0  0  0  0  0  0  0  0  0  0
    2.8660    0.7175    0.0000 C   0  0  0  0  0  0  0  0  0  0  0  0
    4.5981    1.7175    0.0000 C   0  0  0  0  0  0  0  0  0  0  0  0
    3.7320    2.2175    0.0000 C   0  0  0  0  0  0  0  0  0  0  0  0
    5.4641    2.2175    0.0000 C   0  0  0  0  0  0  0  0  0  0  0  0
    3.5135   -2.8738    0.0000 H   0  0  0  0  0  0  0  0  0  0  0  0
    4.2845   -0.5011    0.0000 H   0  0  0  0  0  0  0  0  0  0  0  0
    2.6130   -0.8334    0.0000 H   0  0  0  0  0  0  0  0  0  0  0  0
    2.3566   -1.6225    0.0000 H   0  0  0  0  0  0  0  0  0  0  0  0
    4.8444   -2.2244    0.0000 H   0  0  0  0  0  0  0  0  0  0  0  0
    4.2626   -3.4022    0.0000 H   0  0  0  0  0  0  0  0  0  0  0  0
    4.9907   -3.7264    0.0000 H   0  0  0  0  0  0  0  0  0  0  0  0
    2.0277   -3.0656    0.0000 H   0  0  0  0  0  0  0  0  0  0  0  0
    5.1350    0.4075    0.0000 H   0  0  0  0  0  0  0  0  0  0  0  0
    6.1788   -3.5275    0.0000 H   0  0  0  0  0  0  0  0  0  0  0  0
    5.7741    1.6805    0.0000 H   0  0  0  0  0  0  0  0  0  0  0  0
    6.0010    2.5275    0.0000 H   0  0  0  0  0  0  0  0  0  0  0  0
    5.1541    2.7544    0.0000 H   0  0  0  0  0  0  0  0  0  0  0  0
    3.1951    3.5275    0.0000 H   0  0  0  0  0  0  0  0  0  0  0  0
    4.2690    3.5275    0.0000 H   0  0  0  0  0  0  0  0  0  0  0  0
  1  9  1  0  0  0  0
  1 11  1  0  0  0  0
  2  8  1  0  0  0  0
  2 25  1  0  0  0  0
  3 12  1  0  0  0  0
  3 27  1  0  0  0  0
  4 14  2  0  0  0  0
  9  5  1  6  0  0  0
  5 13  1  0  0  0  0
  5 14  1  0  0  0  0
  6 14  1  0  0  0  0
  6 16  2  0  0  0  0
  7 16  1  0  0  0  0
  7 31  1  0  0  0  0
  7 32  1  0  0  0  0
  8 10  1  0  0  0  0
  8 11  1  0  0  0  0
  8 18  1  0  0  0  0
  9 10  1  0  0  0  0
  9 19  1  0  0  0  0
 10 20  1  0  0  0  0
 10 21  1  0  0  0  0
 11 12  1  6  0  0  0
 11 22  1  0  0  0  0
 12 23  1  0  0  0  0
 12 24  1  0  0  0  0
 13 15  2  0  0  0  0
 13 26  1  0  0  0  0
 15 16  1  0  0  0  0
 15 17  1  0  0  0  0
 17 28  1  0  0  0  0
 17 29  1  0  0  0  0
 17 30  1  0  0  0  0
M  END
> <PUBCHEM_COMPOUND_CID>
13279

> <PUBCHEM_COMPOUND_CANONICALIZED>
1

> <PUBCHEM_CACTVS_COMPLEXITY>
393

> <PUBCHEM_CACTVS_HBOND_ACCEPTOR>
4

> <PUBCHEM_CACTVS_HBOND_DONOR>
3

> <PUBCHEM_CACTVS_ROTATABLE_BOND>
2

> <PUBCHEM_CACTVS_SUBSKEYS>
AAADccBzOAAAAAAAAAAAAAAAAAAAASAAAAAgAAAAAAAAAAAAAAAAHgAQCAAADBThgAYDAANABgCoAgJmdACAAAEAAAAAAAAoABCBEAIAgQAOQAAHBgIDAACwMAIAAAAAAAAAAAAAAAAAAAAAAAAAAAAAAA==

> <PUBCHEM_IUPAC_OPENEYE_NAME>
4-amino-1-[(2R,5R)-4-hydroxy-5-(hydroxymethyl)tetrahydrofuran-2-yl]-5-methyl-pyrimidin-2-one

> <PUBCHEM_IUPAC_CAS_NAME>
4-amino-1-[(2R,5R)-4-hydroxy-5-(hydroxymethyl)-2-oxolanyl]-5-methyl-2-pyrimidinone

> <PUBCHEM_IUPAC_NAME>
4-amino-1-[(2R,5R)-4-hydroxy-5-(hydroxymethyl)oxolan-2-yl]-5-methylpyrimidin-2-one

> <PUBCHEM_IUPAC_SYSTEMATIC_NAME>
4-azanyl-1-[(2R,5R)-5-(hydroxymethyl)-4-oxidanyl-oxolan-2-yl]-5-methyl-pyrimidin-2-one

> <PUBCHEM_IUPAC_TRADITIONAL_NAME>
4-amino-1-[(2R,5R)-4-hydroxy-5-methylol-tetrahydrofuran-2-yl]-5-methyl-pyrimidin-2-one

> <PUBCHEM_IUPAC_INCHI>
InChI=1S/C10H15N3O4/c1-5-3-13(10(16)12-9(5)11)8-2-6(15)7(4-14)17-8/h3,6-8,14-15H,2,4H2,1H3,(H2,11,12,16)/t6?,7-,8-/m1/s1

> <PUBCHEM_IUPAC_INCHIKEY>
LUCHPKXVUGJYGU-SPDVFEMOSA-N

> <PUBCHEM_XLOGP3>
-1.4

> <PUBCHEM_EXACT_MASS>
241.106256

> <PUBCHEM_MOLECULAR_FORMULA>
C10H15N3O4

> <PUBCHEM_MOLECULAR_WEIGHT>
241.2438

> <PUBCHEM_OPENEYE_CAN_SMILES>
CC1=CN(C(=O)N=C1N)C2CC(C(O2)CO)O

> <PUBCHEM_OPENEYE_ISO_SMILES>
CC1=CN(C(=O)N=C1N)[C@H]2CC([C@H](O2)CO)O

> <PUBCHEM_CACTVS_TPSA>
108

> <PUBCHEM_MONOISOTOPIC_WEIGHT>
241.106256

> <PUBCHEM_TOTAL_CHARGE>
0

> <PUBCHEM_HEAVY_ATOM_COUNT>
17

> <PUBCHEM_ATOM_DEF_STEREO_COUNT>
2

> <PUBCHEM_ATOM_UDEF_STEREO_COUNT>
1

> <PUBCHEM_BOND_DEF_STEREO_COUNT>
0

> <PUBCHEM_BOND_UDEF_STEREO_COUNT>
0

> <PUBCHEM_ISOTOPIC_ATOM_COUNT>
0

> <PUBCHEM_COMPONENT_COUNT>
1

> <PUBCHEM_CACTVS_TAUTO_COUNT>
3

> <PUBCHEM_COORDINATE_TYPE>
1
5
255

> <PUBCHEM_BONDANNOTATIONS>
11  12  6
13  15  8
15  16  8
8  2  3
5  13  8
5  14  8
9  5  6
6  14  8
6  16  8

$$$$

