17396607
  -OEChem-06241222572D

 39 41  0     0  0  0  0  0  0999 V2000
    4.2746    2.4221    0.0000 O   0  0  0  0  0  0  0  0  0  0  0  0
    5.6103    0.9335    0.0000 O   0  0  0  0  0  0  0  0  0  0  0  0
    6.2619   -2.7228    0.0000 O   0  0  0  0  0  0  0  0  0  0  0  0
    4.6783   -3.5276    0.0000 N   0  0  0  0  0  0  0  0  0  0  0  0
    3.7320   -2.2228    0.0000 C   0  0  0  0  0  0  0  0  0  0  0  0
    4.6783   -1.9181    0.0000 C   0  0  0  0  0  0  0  0  0  0  0  0
    3.7320   -3.2228    0.0000 C   0  0  0  0  0  0  0  0  0  0  0  0
    4.9889   -0.9676    0.0000 C   0  0  0  0  0  0  0  0  0  0  0  0
    4.3211   -0.2233    0.0000 C   0  0  0  0  0  0  0  0  0  0  0  0
    5.2619   -2.7228    0.0000 C   0  0  0  0  0  0  0  0  0  0  0  0
    2.8660   -1.7228    0.0000 C   0  0  0  0  0  0  0  0  0  0  0  0
    4.6318    0.7272    0.0000 C   0  0  0  0  0  0  0  0  0  0  0  0
    2.8660   -3.7228    0.0000 C   0  0  0  0  0  0  0  0  0  0  0  0
    3.9639    1.4715    0.0000 C   0  0  0  0  0  0  0  0  0  0  0  0
    3.3426   -0.4295    0.0000 C   0  0  0  0  0  0  0  0  0  0  0  0
    2.0000   -2.2228    0.0000 C   0  0  0  0  0  0  0  0  0  0  0  0
    2.0000   -3.2228    0.0000 C   0  0  0  0  0  0  0  0  0  0  0  0
    2.9854    1.2653    0.0000 C   0  0  0  0  0  0  0  0  0  0  0  0
    2.6747    0.3148    0.0000 C   0  0  0  0  0  0  0  0  0  0  0  0
    3.6067    3.1664    0.0000 C   0  0  0  0  0  0  0  0  0  0  0  0
    5.9209    1.8840    0.0000 C   0  0  0  0  0  0  0  0  0  0  0  0
    3.9174    4.1169    0.0000 C   0  0  0  0  0  0  0  0  0  0  0  0
    5.5956   -0.8397    0.0000 H   0  0  0  0  0  0  0  0  0  0  0  0
    4.8709   -4.1169    0.0000 H   0  0  0  0  0  0  0  0  0  0  0  0
    2.8660   -1.1028    0.0000 H   0  0  0  0  0  0  0  0  0  0  0  0
    2.8660   -4.3428    0.0000 H   0  0  0  0  0  0  0  0  0  0  0  0
    3.1500   -1.0188    0.0000 H   0  0  0  0  0  0  0  0  0  0  0  0
    1.4631   -1.9128    0.0000 H   0  0  0  0  0  0  0  0  0  0  0  0
    1.4631   -3.5328    0.0000 H   0  0  0  0  0  0  0  0  0  0  0  0
    2.5713    1.7268    0.0000 H   0  0  0  0  0  0  0  0  0  0  0  0
    2.0681    0.1870    0.0000 H   0  0  0  0  0  0  0  0  0  0  0  0
    3.0598    3.4584    0.0000 H   0  0  0  0  0  0  0  0  0  0  0  0
    3.2242    2.6785    0.0000 H   0  0  0  0  0  0  0  0  0  0  0  0
    4.5067    3.9243    0.0000 H   0  0  0  0  0  0  0  0  0  0  0  0
    4.1100    4.7062    0.0000 H   0  0  0  0  0  0  0  0  0  0  0  0
    3.3281    4.3095    0.0000 H   0  0  0  0  0  0  0  0  0  0  0  0
    6.5102    1.6914    0.0000 H   0  0  0  0  0  0  0  0  0  0  0  0
    6.1135    2.4733    0.0000 H   0  0  0  0  0  0  0  0  0  0  0  0
    5.3316    2.0766    0.0000 H   0  0  0  0  0  0  0  0  0  0  0  0
  1 14  1  0  0  0  0
  1 20  1  0  0  0  0
  2 12  1  0  0  0  0
  2 21  1  0  0  0  0
  3 10  2  0  0  0  0
  4  7  1  0  0  0  0
  4 10  1  0  0  0  0
  4 24  1  0  0  0  0
  5  6  1  0  0  0  0
  5  7  1  0  0  0  0
  5 11  2  0  0  0  0
  6  8  2  0  0  0  0
  6 10  1  0  0  0  0
  7 13  2  0  0  0  0
  8  9  1  0  0  0  0
  8 23  1  0  0  0  0
  9 12  2  0  0  0  0
  9 15  1  0  0  0  0
 11 16  1  0  0  0  0
 11 25  1  0  0  0  0
 12 14  1  0  0  0  0
 13 17  1  0  0  0  0
 13 26  1  0  0  0  0
 14 18  2  0  0  0  0
 15 19  2  0  0  0  0
 15 27  1  0  0  0  0
 16 17  2  0  0  0  0
 16 28  1  0  0  0  0
 17 29  1  0  0  0  0
 18 19  1  0  0  0  0
 18 30  1  0  0  0  0
 19 31  1  0  0  0  0
 20 22  1  0  0  0  0
 20 32  1  0  0  0  0
 20 33  1  0  0  0  0
 21 37  1  0  0  0  0
 21 38  1  0  0  0  0
 21 39  1  0  0  0  0
 22 34  1  0  0  0  0
 22 35  1  0  0  0  0
 22 36  1  0  0  0  0
M  END
> <PUBCHEM_COMPOUND_CID>
17396607

> <PUBCHEM_COMPOUND_CANONICALIZED>
1

> <PUBCHEM_CACTVS_COMPLEXITY>
434

> <PUBCHEM_CACTVS_HBOND_ACCEPTOR>
3

> <PUBCHEM_CACTVS_HBOND_DONOR>
1

> <PUBCHEM_CACTVS_ROTATABLE_BOND>
4

> <PUBCHEM_CACTVS_SUBSKEYS>
AAADceB6MAAAAAAAAAAAAAAAAAAAAWAAAAAwYAAAAAAAAFgBQAAAHgAQAAAADAyhmAIyxoLABACIAiVSUACCCAAhIgAIiAEG7MgNJjLEtZuGOCrk1BHK6YecyLCOAAABAAAKQAAAAAIAABSAAAAAAAAAAA==

> <PUBCHEM_IUPAC_OPENEYE_NAME>
(3E)-3-[(3-ethoxy-2-methoxy-phenyl)methylene]indolin-2-one

> <PUBCHEM_IUPAC_CAS_NAME>
(3E)-3-[(3-ethoxy-2-methoxyphenyl)methylidene]-1H-indol-2-one

> <PUBCHEM_IUPAC_NAME>
(3E)-3-[(3-ethoxy-2-methoxyphenyl)methylidene]-1H-indol-2-one

> <PUBCHEM_IUPAC_SYSTEMATIC_NAME>
(3E)-3-[(3-ethoxy-2-methoxy-phenyl)methylidene]-1H-indol-2-one

> <PUBCHEM_IUPAC_TRADITIONAL_NAME>
(3E)-3-(3-ethoxy-2-methoxy-benzylidene)oxindole

> <PUBCHEM_IUPAC_INCHI>
InChI=1S/C18H17NO3/c1-3-22-16-10-6-7-12(17(16)21-2)11-14-13-8-4-5-9-15(13)19-18(14)20/h4-11H,3H2,1-2H3,(H,19,20)/b14-11+

> <PUBCHEM_IUPAC_INCHIKEY>
PUCHXEWMJBAPKJ-SDNWHVSQSA-N

> <PUBCHEM_XLOGP3_AA>
3.2

> <PUBCHEM_EXACT_MASS>
295.120843

> <PUBCHEM_MOLECULAR_FORMULA>
C18H17NO3

> <PUBCHEM_MOLECULAR_WEIGHT>
295.33248

> <PUBCHEM_OPENEYE_CAN_SMILES>
CCOC1=CC=CC(=C1OC)C=C2C3=CC=CC=C3NC2=O

> <PUBCHEM_OPENEYE_ISO_SMILES>
CCOC1=CC=CC(=C1OC)/C=C/2\C3=CC=CC=C3NC2=O

> <PUBCHEM_CACTVS_TPSA>
47.6

> <PUBCHEM_MONOISOTOPIC_WEIGHT>
295.120843

> <PUBCHEM_TOTAL_CHARGE>
0

> <PUBCHEM_HEAVY_ATOM_COUNT>
22

> <PUBCHEM_ATOM_DEF_STEREO_COUNT>
0

> <PUBCHEM_ATOM_UDEF_STEREO_COUNT>
0

> <PUBCHEM_BOND_DEF_STEREO_COUNT>
1

> <PUBCHEM_BOND_UDEF_STEREO_COUNT>
0

> <PUBCHEM_ISOTOPIC_ATOM_COUNT>
0

> <PUBCHEM_COMPONENT_COUNT>
1

> <PUBCHEM_CACTVS_TAUTO_COUNT>
2

> <PUBCHEM_COORDINATE_TYPE>
1
5
255

> <PUBCHEM_BONDANNOTATIONS>
11  16  8
12  14  8
13  17  8
14  18  8
15  19  8
16  17  8
18  19  8
5  11  8
5  7  8
7  13  8
9  12  8
9  15  8

$$$$

