13951
  -OEChem-06241222412D

 52 55  0     1  0  0  0  0  0999 V2000
    9.6278    2.3332    0.0000 O   0  0  0  0  0  0  0  0  0  0  0  0
    3.3270   -0.3434    0.0000 O   0  0  0  0  0  0  0  0  0  0  0  0
    6.6389    0.0779    0.0000 C   0  0  3  0  0  0  0  0  0  0  0  0
    5.7289   -0.4289    0.0000 C   0  0  3  0  0  0  0  0  0  0  0  0
    7.5049   -0.4221    0.0000 C   0  0  3  0  0  0  0  0  0  0  0  0
    8.3710    0.0779    0.0000 C   0  0  3  0  0  0  0  0  0  0  0  0
    8.3710    1.0779    0.0000 C   0  0  3  0  0  0  0  0  0  0  0  0
    5.7209   -1.4705    0.0000 C   0  0  3  0  0  0  0  0  0  0  0  0
    6.6389    1.0779    0.0000 C   0  0  0  0  0  0  0  0  0  0  0  0
    7.5210   -1.4636    0.0000 C   0  0  0  0  0  0  0  0  0  0  0  0
    7.5049    1.5779    0.0000 C   0  0  0  0  0  0  0  0  0  0  0  0
    4.7458   -0.1039    0.0000 C   0  0  0  0  0  0  0  0  0  0  0  0
    6.6230   -1.9913    0.0000 C   0  0  0  0  0  0  0  0  0  0  0  0
    9.3172   -0.2268    0.0000 C   0  0  0  0  0  0  0  0  0  0  0  0
    9.3172    1.3827    0.0000 C   0  0  2  0  0  0  0  0  0  0  0  0
    4.7329   -1.7803    0.0000 C   0  0  0  0  0  0  0  0  0  0  0  0
    4.1314   -0.9374    0.0000 C   0  0  1  0  0  0  0  0  0  0  0  0
    9.9008    0.5779    0.0000 C   0  0  0  0  0  0  0  0  0  0  0  0
    5.7366    0.5711    0.0000 C   0  0  0  0  0  0  0  0  0  0  0  0
    8.3710    2.0779    0.0000 C   0  0  0  0  0  0  0  0  0  0  0  0
    3.3179   -1.5190    0.0000 C   0  0  0  0  0  0  0  0  0  0  0  0
    2.5044   -2.1005    0.0000 C   0  0  0  0  0  0  0  0  0  0  0  0
    7.3750    0.5029    0.0000 H   0  0  0  0  0  0  0  0  0  0  0  0
    8.2443   -0.8414    0.0000 H   0  0  0  0  0  0  0  0  0  0  0  0
    8.4609   -0.7673    0.0000 H   0  0  0  0  0  0  0  0  0  0  0  0
    5.6277   -2.3154    0.0000 H   0  0  0  0  0  0  0  0  0  0  0  0
    6.4269    1.6605    0.0000 H   0  0  0  0  0  0  0  0  0  0  0  0
    6.0283    0.9703    0.0000 H   0  0  0  0  0  0  0  0  0  0  0  0
    7.7390   -2.0440    0.0000 H   0  0  0  0  0  0  0  0  0  0  0  0
    8.1302   -1.3481    0.0000 H   0  0  0  0  0  0  0  0  0  0  0  0
    7.9035    2.0529    0.0000 H   0  0  0  0  0  0  0  0  0  0  0  0
    7.1064    2.0529    0.0000 H   0  0  0  0  0  0  0  0  0  0  0  0
    5.0012    0.4610    0.0000 H   0  0  0  0  0  0  0  0  0  0  0  0
    4.2108    0.2095    0.0000 H   0  0  0  0  0  0  0  0  0  0  0  0
    6.2257   -2.4673    0.0000 H   0  0  0  0  0  0  0  0  0  0  0  0
    7.0239   -2.4642    0.0000 H   0  0  0  0  0  0  0  0  0  0  0  0
    9.0662   -0.7937    0.0000 H   0  0  0  0  0  0  0  0  0  0  0  0
    9.8546   -0.5360    0.0000 H   0  0  0  0  0  0  0  0  0  0  0  0
    8.8797    1.8220    0.0000 H   0  0  0  0  0  0  0  0  0  0  0  0
    4.1931   -2.0854    0.0000 H   0  0  0  0  0  0  0  0  0  0  0  0
    4.9795   -2.3492    0.0000 H   0  0  0  0  0  0  0  0  0  0  0  0
   10.3617    0.1632    0.0000 H   0  0  0  0  0  0  0  0  0  0  0  0
   10.3617    0.9927    0.0000 H   0  0  0  0  0  0  0  0  0  0  0  0
    6.3566    0.5663    0.0000 H   0  0  0  0  0  0  0  0  0  0  0  0
    5.7414    1.1910    0.0000 H   0  0  0  0  0  0  0  0  0  0  0  0
    5.1166    0.5758    0.0000 H   0  0  0  0  0  0  0  0  0  0  0  0
    8.9910    2.0779    0.0000 H   0  0  0  0  0  0  0  0  0  0  0  0
    8.3710    2.6979    0.0000 H   0  0  0  0  0  0  0  0  0  0  0  0
    7.7510    2.0779    0.0000 H   0  0  0  0  0  0  0  0  0  0  0  0
   10.2345    2.4610    0.0000 H   0  0  0  0  0  0  0  0  0  0  0  0
    3.3965    0.2727    0.0000 H   0  0  0  0  0  0  0  0  0  0  0  0
    2.0000   -2.4610    0.0000 H   0  0  0  0  0  0  0  0  0  0  0  0
 15  1  1  1  0  0  0
  1 50  1  0  0  0  0
 17  2  1  1  0  0  0
  2 51  1  0  0  0  0
  3  4  1  0  0  0  0
  3  5  1  0  0  0  0
  3  9  1  0  0  0  0
  3 23  1  0  0  0  0
  4  8  1  0  0  0  0
  4 12  1  0  0  0  0
  4 19  1  0  0  0  0
  5  6  1  0  0  0  0
  5 10  1  0  0  0  0
  5 24  1  0  0  0  0
  6  7  1  0  0  0  0
  6 14  1  0  0  0  0
  6 25  1  0  0  0  0
  7 11  1  0  0  0  0
  7 15  1  0  0  0  0
  7 20  1  0  0  0  0
  8 13  1  0  0  0  0
  8 16  1  0  0  0  0
  8 26  1  0  0  0  0
  9 11  1  0  0  0  0
  9 27  1  0  0  0  0
  9 28  1  0  0  0  0
 10 13  1  0  0  0  0
 10 29  1  0  0  0  0
 10 30  1  0  0  0  0
 11 31  1  0  0  0  0
 11 32  1  0  0  0  0
 12 17  1  0  0  0  0
 12 33  1  0  0  0  0
 12 34  1  0  0  0  0
 13 35  1  0  0  0  0
 13 36  1  0  0  0  0
 14 18  1  0  0  0  0
 14 37  1  0  0  0  0
 14 38  1  0  0  0  0
 15 18  1  0  0  0  0
 15 39  1  0  0  0  0
 16 17  1  0  0  0  0
 16 40  1  0  0  0  0
 16 41  1  0  0  0  0
 17 21  1  0  0  0  0
 18 42  1  0  0  0  0
 18 43  1  0  0  0  0
 19 44  1  0  0  0  0
 19 45  1  0  0  0  0
 19 46  1  0  0  0  0
 20 47  1  0  0  0  0
 20 48  1  0  0  0  0
 20 49  1  0  0  0  0
 21 22  3  0  0  0  0
 22 52  1  0  0  0  0
M  END
> <PUBCHEM_COMPOUND_CID>
13951

> <PUBCHEM_COMPOUND_CANONICALIZED>
1

> <PUBCHEM_CACTVS_COMPLEXITY>
533

> <PUBCHEM_CACTVS_HBOND_ACCEPTOR>
2

> <PUBCHEM_CACTVS_HBOND_DONOR>
2

> <PUBCHEM_CACTVS_ROTATABLE_BOND>
1

> <PUBCHEM_CACTVS_SUBSKEYS>
AAADceB4MAAAAAAAAAAAAAAAAAAAAYMAAAAwYAAAAAAAAGDAAAAAGgAACAAAD1SggAICAAAAAgBAGAAAAAgAAAAAAAAAAAAAAAAAEAIAAAAAQAAEAAAAAAGAwPAPgAAAAAAAAACAAAQAACAAAYAADAAAAA==

> <PUBCHEM_IUPAC_OPENEYE_NAME>
(2R,6S)-2-ethynyl-3a,5a-dimethyl-3,3b,4,5,6,7,8,8a,8b,9,10,10a-dodecahydro-1H-indeno[5,4-e]indene-2,6-diol

> <PUBCHEM_IUPAC_CAS_NAME>
(2R,6S)-2-ethynyl-3a,5a-dimethyl-3,3b,4,5,6,7,8,8a,8b,9,10,10a-dodecahydro-1H-indeno[5,4-e]indene-2,6-diol

> <PUBCHEM_IUPAC_NAME>
(2R,6S)-2-ethynyl-3a,5a-dimethyl-3,3b,4,5,6,7,8,8a,8b,9,10,10a-dodecahydro-1H-indeno[5,4-e]indene-2,6-diol

> <PUBCHEM_IUPAC_SYSTEMATIC_NAME>
(2R,6S)-2-ethynyl-3a,5a-dimethyl-3,3b,4,5,6,7,8,8a,8b,9,10,10a-dodecahydro-1H-indeno[5,4-e]indene-2,6-diol

> <PUBCHEM_IUPAC_TRADITIONAL_NAME>
(2R,6S)-2-ethynyl-3a,5a-dimethyl-3,3b,4,5,6,7,8,8a,8b,9,10,10a-dodecahydro-1H-inden[5,4-e]indene-2,6-diol

> <PUBCHEM_IUPAC_INCHI>
InChI=1S/C20H30O2/c1-4-20(22)11-13-5-6-14-15-7-8-17(21)18(15,2)10-9-16(14)19(13,3)12-20/h1,13-17,21-22H,5-12H2,2-3H3/t13?,14?,15?,16?,17-,18?,19?,20+/m0/s1

> <PUBCHEM_IUPAC_INCHIKEY>
KSJJQCZCDJYYDJ-RZOQUZGISA-N

> <PUBCHEM_XLOGP3>
3.7

> <PUBCHEM_EXACT_MASS>
302.22458

> <PUBCHEM_MOLECULAR_FORMULA>
C20H30O2

> <PUBCHEM_MOLECULAR_WEIGHT>
302.451

> <PUBCHEM_OPENEYE_CAN_SMILES>
CC12CCC3C(C1CCC2O)CCC4C3(CC(C4)(C#C)O)C

> <PUBCHEM_OPENEYE_ISO_SMILES>
CC12CCC3C(C1CC[C@@H]2O)CCC4C3(C[C@](C4)(C#C)O)C

> <PUBCHEM_CACTVS_TPSA>
40.5

> <PUBCHEM_MONOISOTOPIC_WEIGHT>
302.22458

> <PUBCHEM_TOTAL_CHARGE>
0

> <PUBCHEM_HEAVY_ATOM_COUNT>
22

> <PUBCHEM_ATOM_DEF_STEREO_COUNT>
2

> <PUBCHEM_ATOM_UDEF_STEREO_COUNT>
6

> <PUBCHEM_BOND_DEF_STEREO_COUNT>
0

> <PUBCHEM_BOND_UDEF_STEREO_COUNT>
0

> <PUBCHEM_ISOTOPIC_ATOM_COUNT>
0

> <PUBCHEM_COMPONENT_COUNT>
1

> <PUBCHEM_CACTVS_TAUTO_COUNT>
1

> <PUBCHEM_COORDINATE_TYPE>
1
5
255

> <PUBCHEM_BONDANNOTATIONS>
15  1  5
17  2  5
3  23  3
4  19  3
5  24  3
6  25  3
7  20  3
8  26  3

$$$$

