13977
  -OEChem-06241222412D

 39 41  0     0  0  0  0  0  0999 V2000
    5.4641   -1.2500    0.0000 S   0  0  0  0  0  0  0  0  0  0  0  0
    8.9282   -0.2500    0.0000 O   0  0  0  0  0  0  0  0  0  0  0  0
    4.5981   -2.7500    0.0000 O   0  0  0  0  0  0  0  0  0  0  0  0
    7.1962   -0.2500    0.0000 N   0  0  0  0  0  0  0  0  0  0  0  0
    7.1962   -1.2500    0.0000 C   0  0  0  0  0  0  0  0  0  0  0  0
    6.3301   -1.7500    0.0000 C   0  0  0  0  0  0  0  0  0  0  0  0
    8.0622   -1.7500    0.0000 C   0  0  0  0  0  0  0  0  0  0  0  0
    8.0622    1.2500    0.0000 C   0  0  0  0  0  0  0  0  0  0  0  0
    8.0622    0.2500    0.0000 C   0  0  0  0  0  0  0  0  0  0  0  0
    6.3301   -2.7500    0.0000 C   0  0  0  0  0  0  0  0  0  0  0  0
    8.0622   -2.7500    0.0000 C   0  0  0  0  0  0  0  0  0  0  0  0
    7.1962   -3.2500    0.0000 C   0  0  0  0  0  0  0  0  0  0  0  0
    3.7320   -1.2500    0.0000 C   0  0  0  0  0  0  0  0  0  0  0  0
    8.9282    1.7500    0.0000 C   0  0  0  0  0  0  0  0  0  0  0  0
    7.1962    1.7500    0.0000 C   0  0  0  0  0  0  0  0  0  0  0  0
    4.5981   -1.7500    0.0000 C   0  0  0  0  0  0  0  0  0  0  0  0
    3.7320   -0.2500    0.0000 C   0  0  0  0  0  0  0  0  0  0  0  0
    2.8660   -1.7500    0.0000 C   0  0  0  0  0  0  0  0  0  0  0  0
    8.9282    2.7500    0.0000 C   0  0  0  0  0  0  0  0  0  0  0  0
    7.1962    2.7500    0.0000 C   0  0  0  0  0  0  0  0  0  0  0  0
    8.0622    3.2500    0.0000 C   0  0  0  0  0  0  0  0  0  0  0  0
    2.8660    0.2500    0.0000 C   0  0  0  0  0  0  0  0  0  0  0  0
    2.0000   -1.2500    0.0000 C   0  0  0  0  0  0  0  0  0  0  0  0
    2.0000   -0.2500    0.0000 C   0  0  0  0  0  0  0  0  0  0  0  0
    6.6592    0.0600    0.0000 H   0  0  0  0  0  0  0  0  0  0  0  0
    8.5991   -1.4400    0.0000 H   0  0  0  0  0  0  0  0  0  0  0  0
    5.7932   -3.0600    0.0000 H   0  0  0  0  0  0  0  0  0  0  0  0
    8.5991   -3.0600    0.0000 H   0  0  0  0  0  0  0  0  0  0  0  0
    7.1962   -3.8700    0.0000 H   0  0  0  0  0  0  0  0  0  0  0  0
    9.4651    1.4400    0.0000 H   0  0  0  0  0  0  0  0  0  0  0  0
    6.6592    1.4400    0.0000 H   0  0  0  0  0  0  0  0  0  0  0  0
    4.2690    0.0600    0.0000 H   0  0  0  0  0  0  0  0  0  0  0  0
    2.8660   -2.3700    0.0000 H   0  0  0  0  0  0  0  0  0  0  0  0
    9.4651    3.0600    0.0000 H   0  0  0  0  0  0  0  0  0  0  0  0
    6.6592    3.0600    0.0000 H   0  0  0  0  0  0  0  0  0  0  0  0
    8.0622    3.8700    0.0000 H   0  0  0  0  0  0  0  0  0  0  0  0
    2.8660    0.8700    0.0000 H   0  0  0  0  0  0  0  0  0  0  0  0
    1.4631   -1.5600    0.0000 H   0  0  0  0  0  0  0  0  0  0  0  0
    1.4631    0.0600    0.0000 H   0  0  0  0  0  0  0  0  0  0  0  0
  1  6  1  0  0  0  0
  1 16  1  0  0  0  0
  2  9  2  0  0  0  0
  3 16  2  0  0  0  0
  4  5  1  0  0  0  0
  4  9  1  0  0  0  0
  4 25  1  0  0  0  0
  5  6  1  0  0  0  0
  5  7  2  0  0  0  0
  6 10  2  0  0  0  0
  7 11  1  0  0  0  0
  7 26  1  0  0  0  0
  8  9  1  0  0  0  0
  8 14  2  0  0  0  0
  8 15  1  0  0  0  0
 10 12  1  0  0  0  0
 10 27  1  0  0  0  0
 11 12  2  0  0  0  0
 11 28  1  0  0  0  0
 12 29  1  0  0  0  0
 13 16  1  0  0  0  0
 13 17  2  0  0  0  0
 13 18  1  0  0  0  0
 14 19  1  0  0  0  0
 14 30  1  0  0  0  0
 15 20  2  0  0  0  0
 15 31  1  0  0  0  0
 17 22  1  0  0  0  0
 17 32  1  0  0  0  0
 18 23  2  0  0  0  0
 18 33  1  0  0  0  0
 19 21  2  0  0  0  0
 19 34  1  0  0  0  0
 20 21  1  0  0  0  0
 20 35  1  0  0  0  0
 21 36  1  0  0  0  0
 22 24  2  0  0  0  0
 22 37  1  0  0  0  0
 23 24  1  0  0  0  0
 23 38  1  0  0  0  0
 24 39  1  0  0  0  0
M  END
> <PUBCHEM_COMPOUND_CID>
13977

> <PUBCHEM_COMPOUND_CANONICALIZED>
1

> <PUBCHEM_CACTVS_COMPLEXITY>
427

> <PUBCHEM_CACTVS_HBOND_ACCEPTOR>
3

> <PUBCHEM_CACTVS_HBOND_DONOR>
1

> <PUBCHEM_CACTVS_ROTATABLE_BOND>
5

> <PUBCHEM_CACTVS_SUBSKEYS>
AAADccB6MABAAAAAAAAAAAAAAAAAAAAAAAAwYMAAAAAAAAABUAAAHgQQAAAADAiB2AAwwYLAAAiIAiVSUACCAAAlChAIiB0AZMgIIDLglZGEIQhglADoyYcYiACOAAAAAAAAAQAAAAAAAAACAAAAAAAAAA==

> <PUBCHEM_IUPAC_OPENEYE_NAME>
S-(2-benzamidophenyl) benzenecarbothioate

> <PUBCHEM_IUPAC_CAS_NAME>
benzenecarbothioic acid S-(2-benzamidophenyl) ester

> <PUBCHEM_IUPAC_NAME>
S-(2-benzamidophenyl) benzenecarbothioate

> <PUBCHEM_IUPAC_SYSTEMATIC_NAME>
S-(2-benzamidophenyl) benzenecarbothioate

> <PUBCHEM_IUPAC_TRADITIONAL_NAME>
thiobenzoic acid S-(2-benzamidophenyl) ester

> <PUBCHEM_IUPAC_INCHI>
InChI=1S/C20H15NO2S/c22-19(15-9-3-1-4-10-15)21-17-13-7-8-14-18(17)24-20(23)16-11-5-2-6-12-16/h1-14H,(H,21,22)

> <PUBCHEM_IUPAC_INCHIKEY>
SPSSXOLIURQSMF-UHFFFAOYSA-N

> <PUBCHEM_XLOGP3_AA>
4.7

> <PUBCHEM_EXACT_MASS>
333.08235

> <PUBCHEM_MOLECULAR_FORMULA>
C20H15NO2S

> <PUBCHEM_MOLECULAR_WEIGHT>
333.4036

> <PUBCHEM_OPENEYE_CAN_SMILES>
C1=CC=C(C=C1)C(=O)NC2=CC=CC=C2SC(=O)C3=CC=CC=C3

> <PUBCHEM_OPENEYE_ISO_SMILES>
C1=CC=C(C=C1)C(=O)NC2=CC=CC=C2SC(=O)C3=CC=CC=C3

> <PUBCHEM_CACTVS_TPSA>
71.5

> <PUBCHEM_MONOISOTOPIC_WEIGHT>
333.08235

> <PUBCHEM_TOTAL_CHARGE>
0

> <PUBCHEM_HEAVY_ATOM_COUNT>
24

> <PUBCHEM_ATOM_DEF_STEREO_COUNT>
0

> <PUBCHEM_ATOM_UDEF_STEREO_COUNT>
0

> <PUBCHEM_BOND_DEF_STEREO_COUNT>
0

> <PUBCHEM_BOND_UDEF_STEREO_COUNT>
0

> <PUBCHEM_ISOTOPIC_ATOM_COUNT>
0

> <PUBCHEM_COMPONENT_COUNT>
1

> <PUBCHEM_CACTVS_TAUTO_COUNT>
2

> <PUBCHEM_COORDINATE_TYPE>
1
5
255

> <PUBCHEM_BONDANNOTATIONS>
10  12  8
11  12  8
13  17  8
13  18  8
14  19  8
15  20  8
17  22  8
18  23  8
19  21  8
20  21  8
22  24  8
23  24  8
5  6  8
5  7  8
6  10  8
7  11  8
8  14  8
8  15  8

$$$$

