13680
  -OEChem-06241222392D

 25 26  0     0  0  0  0  0  0999 V2000
    7.7619   -1.0422    0.0000 O   0  0  0  0  0  0  0  0  0  0  0  0
    4.6783    0.6286    0.0000 N   0  0  0  0  0  0  0  0  0  0  0  0
    4.6783   -0.9809    0.0000 N   0  0  0  0  0  0  0  0  0  0  0  0
    6.7619   -1.0422    0.0000 N   0  0  0  0  0  0  0  0  0  0  0  0
    3.7321    0.3239    0.0000 C   0  0  0  0  0  0  0  0  0  0  0  0
    5.2619   -0.1761    0.0000 C   0  0  0  0  0  0  0  0  0  0  0  0
    3.7321   -0.6761    0.0000 C   0  0  0  0  0  0  0  0  0  0  0  0
    2.8660    0.8239    0.0000 C   0  0  0  0  0  0  0  0  0  0  0  0
    4.9889    1.5791    0.0000 C   0  0  0  0  0  0  0  0  0  0  0  0
    2.8660   -1.1761    0.0000 C   0  0  0  0  0  0  0  0  0  0  0  0
    6.2619   -0.1761    0.0000 C   0  0  0  0  0  0  0  0  0  0  0  0
    2.0000    0.3239    0.0000 C   0  0  0  0  0  0  0  0  0  0  0  0
    2.0000   -0.6761    0.0000 C   0  0  0  0  0  0  0  0  0  0  0  0
    6.7619    0.6899    0.0000 C   0  0  0  0  0  0  0  0  0  0  0  0
    2.8660    1.4439    0.0000 H   0  0  0  0  0  0  0  0  0  0  0  0
    5.5783    1.3865    0.0000 H   0  0  0  0  0  0  0  0  0  0  0  0
    5.1815    2.1684    0.0000 H   0  0  0  0  0  0  0  0  0  0  0  0
    4.3996    1.7717    0.0000 H   0  0  0  0  0  0  0  0  0  0  0  0
    2.8660   -1.7961    0.0000 H   0  0  0  0  0  0  0  0  0  0  0  0
    1.4631    0.6339    0.0000 H   0  0  0  0  0  0  0  0  0  0  0  0
    1.4631   -0.9861    0.0000 H   0  0  0  0  0  0  0  0  0  0  0  0
    7.0719    1.2268    0.0000 H   0  0  0  0  0  0  0  0  0  0  0  0
    6.2249    0.9999    0.0000 H   0  0  0  0  0  0  0  0  0  0  0  0
    7.2988    0.3799    0.0000 H   0  0  0  0  0  0  0  0  0  0  0  0
    8.0719   -1.5791    0.0000 H   0  0  0  0  0  0  0  0  0  0  0  0
  1  4  1  0  0  0  0
  1 25  1  0  0  0  0
  2  5  1  0  0  0  0
  2  6  1  0  0  0  0
  2  9  1  0  0  0  0
  3  6  2  0  0  0  0
  3  7  1  0  0  0  0
  4 11  2  3  0  0  0
  5  7  1  0  0  0  0
  5  8  2  0  0  0  0
  6 11  1  0  0  0  0
  7 10  2  0  0  0  0
  8 12  1  0  0  0  0
  8 15  1  0  0  0  0
  9 16  1  0  0  0  0
  9 17  1  0  0  0  0
  9 18  1  0  0  0  0
 10 13  1  0  0  0  0
 10 19  1  0  0  0  0
 11 14  1  0  0  0  0
 12 13  2  0  0  0  0
 12 20  1  0  0  0  0
 13 21  1  0  0  0  0
 14 22  1  0  0  0  0
 14 23  1  0  0  0  0
 14 24  1  0  0  0  0
M  END
> <PUBCHEM_COMPOUND_CID>
13680

> <PUBCHEM_COMPOUND_CANONICALIZED>
1

> <PUBCHEM_CACTVS_COMPLEXITY>
242

> <PUBCHEM_CACTVS_HBOND_ACCEPTOR>
3

> <PUBCHEM_CACTVS_HBOND_DONOR>
1

> <PUBCHEM_CACTVS_ROTATABLE_BOND>
1

> <PUBCHEM_CACTVS_SUBSKEYS>
AAADccBzIAAAAAAAAAAAAAAAAAAAAWAAAAAwAAAAAAAAAFgB8AAAHAAECAAACAiBFwQz0LccEACgASZiZACCgC0hEqAJ2CA4dJiIaKLAmZGUIAhogALIyCcQAAAAAAAAAAAAACAAAAAAAAAAQAAAAAAAAA==

> <PUBCHEM_IUPAC_OPENEYE_NAME>
1-(1-methylbenzimidazol-2-yl)ethanone oxime

> <PUBCHEM_IUPAC_CAS_NAME>
1-(1-methyl-2-benzimidazolyl)ethanone oxime

> <PUBCHEM_IUPAC_NAME>
N-[1-(1-methylbenzimidazol-2-yl)ethylidene]hydroxylamine

> <PUBCHEM_IUPAC_SYSTEMATIC_NAME>
N-[1-(1-methylbenzimidazol-2-yl)ethylidene]hydroxylamine

> <PUBCHEM_IUPAC_TRADITIONAL_NAME>
1-(1-methylbenzimidazol-2-yl)ethanone oxime

> <PUBCHEM_IUPAC_INCHI>
InChI=1S/C10H11N3O/c1-7(12-14)10-11-8-5-3-4-6-9(8)13(10)2/h3-6,14H,1-2H3

> <PUBCHEM_IUPAC_INCHIKEY>
RVQBDRBJSRUURF-UHFFFAOYSA-N

> <PUBCHEM_XLOGP3>
1.6

> <PUBCHEM_EXACT_MASS>
189.090212

> <PUBCHEM_MOLECULAR_FORMULA>
C10H11N3O

> <PUBCHEM_MOLECULAR_WEIGHT>
189.21384

> <PUBCHEM_OPENEYE_CAN_SMILES>
CC(=NO)C1=NC2=CC=CC=C2N1C

> <PUBCHEM_OPENEYE_ISO_SMILES>
CC(=NO)C1=NC2=CC=CC=C2N1C

> <PUBCHEM_CACTVS_TPSA>
50.4

> <PUBCHEM_MONOISOTOPIC_WEIGHT>
189.090212

> <PUBCHEM_TOTAL_CHARGE>
0

> <PUBCHEM_HEAVY_ATOM_COUNT>
14

> <PUBCHEM_ATOM_DEF_STEREO_COUNT>
0

> <PUBCHEM_ATOM_UDEF_STEREO_COUNT>
0

> <PUBCHEM_BOND_DEF_STEREO_COUNT>
0

> <PUBCHEM_BOND_UDEF_STEREO_COUNT>
1

> <PUBCHEM_ISOTOPIC_ATOM_COUNT>
0

> <PUBCHEM_COMPONENT_COUNT>
1

> <PUBCHEM_CACTVS_TAUTO_COUNT>
2

> <PUBCHEM_COORDINATE_TYPE>
1
5
255

> <PUBCHEM_BONDANNOTATIONS>
10  13  8
12  13  8
2  5  8
2  6  8
3  6  8
3  7  8
4  11  1
5  7  8
5  8  8
7  10  8
8  12  8

$$$$

