7198
  -OEChem-06261201533D

 30 30  0     0  0  0  0  0  0999 V2000
   -3.3826    0.4232   -0.3159 O   0  0  0  0  0  0  0  0  0  0  0  0
    3.3104   -0.6101    0.1105 O   0  0  0  0  0  0  0  0  0  0  0  0
   -2.5183   -1.7054   -0.0736 O   0  0  0  0  0  0  0  0  0  0  0  0
    2.1045    0.3925   -1.5856 O   0  0  0  0  0  0  0  0  0  0  0  0
   -1.2663    0.2161    0.6571 C   0  0  0  0  0  0  0  0  0  0  0  0
    1.6237    0.8940    0.7221 C   0  0  0  0  0  0  0  0  0  0  0  0
   -0.2310   -0.8161    1.1003 C   0  0  0  0  0  0  0  0  0  0  0  0
   -0.6755    1.1970   -0.3537 C   0  0  0  0  0  0  0  0  0  0  0  0
    1.0215   -0.1484    1.6662 C   0  0  0  0  0  0  0  0  0  0  0  0
    0.5822    1.8780    0.1855 C   0  0  0  0  0  0  0  0  0  0  0  0
   -2.4414   -0.4910    0.0547 C   0  0  0  0  0  0  0  0  0  0  0  0
    2.3528    0.2148   -0.4007 C   0  0  0  0  0  0  0  0  0  0  0  0
   -4.5661   -0.1190   -0.9104 C   0  0  0  0  0  0  0  0  0  0  0  0
    4.0859   -1.3257   -0.8564 C   0  0  0  0  0  0  0  0  0  0  0  0
   -1.6221    0.7572    1.5436 H   0  0  0  0  0  0  0  0  0  0  0  0
    2.3808    1.4762    1.2645 H   0  0  0  0  0  0  0  0  0  0  0  0
    0.0558   -1.4594    0.2579 H   0  0  0  0  0  0  0  0  0  0  0  0
   -0.6594   -1.4783    1.8634 H   0  0  0  0  0  0  0  0  0  0  0  0
   -1.4068    1.9743   -0.6080 H   0  0  0  0  0  0  0  0  0  0  0  0
   -0.4518    0.6776   -1.2937 H   0  0  0  0  0  0  0  0  0  0  0  0
    0.7464    0.3561    2.6021 H   0  0  0  0  0  0  0  0  0  0  0  0
    1.7468   -0.9213    1.9445 H   0  0  0  0  0  0  0  0  0  0  0  0
    1.0121    2.5199   -0.5930 H   0  0  0  0  0  0  0  0  0  0  0  0
    0.2852    2.5463    1.0046 H   0  0  0  0  0  0  0  0  0  0  0  0
   -4.3157   -0.6557   -1.8305 H   0  0  0  0  0  0  0  0  0  0  0  0
   -5.2328    0.7110   -1.1586 H   0  0  0  0  0  0  0  0  0  0  0  0
   -5.0762   -0.7802   -0.2033 H   0  0  0  0  0  0  0  0  0  0  0  0
    4.6283   -0.6262   -1.4996 H   0  0  0  0  0  0  0  0  0  0  0  0
    3.4397   -1.9776   -1.4519 H   0  0  0  0  0  0  0  0  0  0  0  0
    4.8106   -1.9444   -0.3206 H   0  0  0  0  0  0  0  0  0  0  0  0
  1 11  1  0  0  0  0
  1 13  1  0  0  0  0
  2 12  1  0  0  0  0
  2 14  1  0  0  0  0
  3 11  2  0  0  0  0
  4 12  2  0  0  0  0
  5  7  1  0  0  0  0
  5  8  1  0  0  0  0
  5 11  1  0  0  0  0
  5 15  1  0  0  0  0
  6  9  1  0  0  0  0
  6 10  1  0  0  0  0
  6 12  1  0  0  0  0
  6 16  1  0  0  0  0
  7  9  1  0  0  0  0
  7 17  1  0  0  0  0
  7 18  1  0  0  0  0
  8 10  1  0  0  0  0
  8 19  1  0  0  0  0
  8 20  1  0  0  0  0
  9 21  1  0  0  0  0
  9 22  1  0  0  0  0
 10 23  1  0  0  0  0
 10 24  1  0  0  0  0
 13 25  1  0  0  0  0
 13 26  1  0  0  0  0
 13 27  1  0  0  0  0
 14 28  1  0  0  0  0
 14 29  1  0  0  0  0
 14 30  1  0  0  0  0
M  END
> <PUBCHEM_COMPOUND_CID>
7198

> <PUBCHEM_CONFORMER_RMSD>
0.6

> <PUBCHEM_CONFORMER_DIVERSEORDER>
1
12
10
11
18
9
19
13
2
17
16
20
15
4
14
7
6
3
8
5

> <PUBCHEM_MMFF94_PARTIAL_CHARGES>
10
1 -0.43
11 0.66
12 0.66
13 0.28
14 0.28
2 -0.43
3 -0.57
4 -0.57
5 0.06
6 0.06

> <PUBCHEM_EFFECTIVE_ROTOR_COUNT>
5.2

> <PUBCHEM_PHARMACOPHORE_FEATURES>
3
1 3 acceptor
1 4 acceptor
6 5 6 7 8 9 10 rings

> <PUBCHEM_HEAVY_ATOM_COUNT>
14

> <PUBCHEM_ATOM_DEF_STEREO_COUNT>
0

> <PUBCHEM_ATOM_UDEF_STEREO_COUNT>
0

> <PUBCHEM_BOND_DEF_STEREO_COUNT>
0

> <PUBCHEM_BOND_UDEF_STEREO_COUNT>
0

> <PUBCHEM_ISOTOPIC_ATOM_COUNT>
0

> <PUBCHEM_COMPONENT_COUNT>
1

> <PUBCHEM_CACTVS_TAUTO_COUNT>
1

> <PUBCHEM_CONFORMER_ID>
00001C1E00000001

> <PUBCHEM_MMFF94_ENERGY>
21.1544

> <PUBCHEM_FEATURE_SELFOVERLAP>
15.223

> <PUBCHEM_SHAPE_FINGERPRINT>
10465860 71 18343018891255672253
10610426 29 17386007316503782752
10857977 72 6915991382510733657
10922049 32 11455888074921151384
11031198 65 16415483769979777897
11769659 78 17530685402735034751
12251169 10 6771857472508891082
12382932 28 7276569589305022171
12932764 1 17846232020535492961
13296908 3 18336829667721026355
13549 16 18413107285891024927
13571099 22 18334016055904053273
13705890 14 18260547779625574074
14115302 16 18202278095786095471
14911166 2 18130788970797815593
14993402 34 18342746225821277577
15775835 57 14189568624728777758
16945 1 18261659441737059617
17041 50 18341901774836843205
18186145 218 17203610354557986637
20201158 50 17894344497119123494
20233049 118 17988658405568788509
20344682 10 13840268134570689742
20645476 183 17132115723548695531
20645477 70 18187649076456896831
20653085 51 15050866626056824620
20671657 53 18113896065516883321
20820808 20 16558752295263209952
20871999 31 18342451595006636524
21119208 17 17846497053791910118
21501925 9 5039948559542660537
22713019 99 18408039632372133047
22802520 49 18058435517958802016
231179 274 14764354846445118423
23402539 116 18262802994080963860
23559900 14 18343013390394271508
25 1 14549015481524069748
2748010 2 17772464586657515097
3060560 45 18340220621616008967
3286 77 17240770600781980256
347723 3 17131834308996510082
4990 188 18342742905695662703
528886 8 16343704322118627833
549884 4 18059579048817462953
74978 22 18339364054960796873
9882013 296 7060373721546759031

> <PUBCHEM_SHAPE_MULTIPOLES>
264.64
6.72
1.45
1.26
2.67
0.13
-0.14
-2.81
2.94
-0.34
0.07
-0.45
-0.07
0.34

> <PUBCHEM_SHAPE_SELFOVERLAP>
529.037

> <PUBCHEM_SHAPE_VOLUME>
154.5

> <PUBCHEM_COORDINATE_TYPE>
2
5
10

$$$$

