12604
  -OEChem-06261207083D

 53 54  0     0  0  0  0  0  0999 V2000
   -0.1641   -1.4312    0.1259 O   0  0  0  0  0  0  0  0  0  0  0  0
   -2.0601   -2.6363   -0.1973 O   0  0  0  0  0  0  0  0  0  0  0  0
    3.8953    0.9706    0.7959 O   0  0  0  0  0  0  0  0  0  0  0  0
    6.7904   -0.9317   -0.0943 O   0  0  0  0  0  0  0  0  0  0  0  0
    6.5026    1.3344    0.2384 O   0  0  0  0  0  0  0  0  0  0  0  0
   -5.9616   -0.6344   -0.1064 N   0  0  0  0  0  0  0  0  0  0  0  0
   -4.5743   -0.4248    0.2924 C   0  0  0  0  0  0  0  0  0  0  0  0
   -3.6738   -0.5033   -0.9292 C   0  0  0  0  0  0  0  0  0  0  0  0
   -2.2329   -0.2855   -0.5428 C   0  0  0  0  0  0  0  0  0  0  0  0
   -1.6170    0.9153   -0.5048 C   0  0  0  0  0  0  0  0  0  0  0  0
   -6.7616   -1.0898    1.0318 C   0  0  0  0  0  0  0  0  0  0  0  0
   -6.5278    0.5941   -0.6659 C   0  0  0  0  0  0  0  0  0  0  0  0
   -0.1793    0.9834   -0.1709 C   0  0  0  0  0  0  0  0  0  0  0  0
    0.4973   -0.1937    0.1347 C   0  0  0  0  0  0  0  0  0  0  0  0
   -1.5049   -1.5417   -0.2011 C   0  0  0  0  0  0  0  0  0  0  0  0
   -2.3180    2.2243   -0.7717 C   0  0  0  0  0  0  0  0  0  0  0  0
   -6.7988   -0.0419    2.1311 C   0  0  0  0  0  0  0  0  0  0  0  0
   -7.9522    0.3732   -1.1460 C   0  0  0  0  0  0  0  0  0  0  0  0
    0.5659    2.1730   -0.1504 C   0  0  0  0  0  0  0  0  0  0  0  0
    1.8557   -0.2178    0.4612 C   0  0  0  0  0  0  0  0  0  0  0  0
    2.5723    0.9728    0.4813 C   0  0  0  0  0  0  0  0  0  0  0  0
    1.9280    2.1678    0.1740 C   0  0  0  0  0  0  0  0  0  0  0  0
    4.6405   -0.2011    0.4661 C   0  0  0  0  0  0  0  0  0  0  0  0
    6.0696    0.1907    0.1976 C   0  0  0  0  0  0  0  0  0  0  0  0
    8.1777   -0.7174   -0.3738 C   0  0  0  0  0  0  0  0  0  0  0  0
    8.8312   -2.0490   -0.6758 C   0  0  0  0  0  0  0  0  0  0  0  0
   -4.2575   -1.2123    0.9900 H   0  0  0  0  0  0  0  0  0  0  0  0
   -4.4314    0.5316    0.8119 H   0  0  0  0  0  0  0  0  0  0  0  0
   -3.7963   -1.4734   -1.4293 H   0  0  0  0  0  0  0  0  0  0  0  0
   -3.9534    0.2238   -1.6984 H   0  0  0  0  0  0  0  0  0  0  0  0
   -7.7762   -1.3750    0.7344 H   0  0  0  0  0  0  0  0  0  0  0  0
   -6.3277   -2.0153    1.4325 H   0  0  0  0  0  0  0  0  0  0  0  0
   -6.4781    1.4571    0.0076 H   0  0  0  0  0  0  0  0  0  0  0  0
   -5.9569    0.8851   -1.5549 H   0  0  0  0  0  0  0  0  0  0  0  0
   -3.3965    2.1220   -0.9143 H   0  0  0  0  0  0  0  0  0  0  0  0
   -2.1930    2.9093    0.0745 H   0  0  0  0  0  0  0  0  0  0  0  0
   -1.9182    2.6977   -1.6749 H   0  0  0  0  0  0  0  0  0  0  0  0
   -7.3335   -0.4612    2.9923 H   0  0  0  0  0  0  0  0  0  0  0  0
   -7.3480    0.8613    1.8511 H   0  0  0  0  0  0  0  0  0  0  0  0
   -5.8097    0.2418    2.5011 H   0  0  0  0  0  0  0  0  0  0  0  0
   -8.6686    0.3051   -0.3219 H   0  0  0  0  0  0  0  0  0  0  0  0
   -8.2659    1.2217   -1.7645 H   0  0  0  0  0  0  0  0  0  0  0  0
   -8.0363   -0.5273   -1.7644 H   0  0  0  0  0  0  0  0  0  0  0  0
    0.1110    3.1314   -0.3862 H   0  0  0  0  0  0  0  0  0  0  0  0
    2.3100   -1.1711    0.7149 H   0  0  0  0  0  0  0  0  0  0  0  0
    2.4789    3.1048    0.1829 H   0  0  0  0  0  0  0  0  0  0  0  0
    4.2678   -0.6734   -0.4512 H   0  0  0  0  0  0  0  0  0  0  0  0
    4.6161   -0.8925    1.3147 H   0  0  0  0  0  0  0  0  0  0  0  0
    8.2773   -0.0515   -1.2382 H   0  0  0  0  0  0  0  0  0  0  0  0
    8.6587   -0.2578    0.4969 H   0  0  0  0  0  0  0  0  0  0  0  0
    8.7239   -2.7323    0.1731 H   0  0  0  0  0  0  0  0  0  0  0  0
    8.3487   -2.5293   -1.5335 H   0  0  0  0  0  0  0  0  0  0  0  0
    9.8951   -1.9218   -0.8945 H   0  0  0  0  0  0  0  0  0  0  0  0
  1 14  1  0  0  0  0
  1 15  1  0  0  0  0
  2 15  2  0  0  0  0
  3 21  1  0  0  0  0
  3 23  1  0  0  0  0
  4 24  1  0  0  0  0
  4 25  1  0  0  0  0
  5 24  2  0  0  0  0
  6  7  1  0  0  0  0
  6 11  1  0  0  0  0
  6 12  1  0  0  0  0
  7  8  1  0  0  0  0
  7 27  1  0  0  0  0
  7 28  1  0  0  0  0
  8  9  1  0  0  0  0
  8 29  1  0  0  0  0
  8 30  1  0  0  0  0
  9 10  2  0  0  0  0
  9 15  1  0  0  0  0
 10 13  1  0  0  0  0
 10 16  1  0  0  0  0
 11 17  1  0  0  0  0
 11 31  1  0  0  0  0
 11 32  1  0  0  0  0
 12 18  1  0  0  0  0
 12 33  1  0  0  0  0
 12 34  1  0  0  0  0
 13 14  2  0  0  0  0
 13 19  1  0  0  0  0
 14 20  1  0  0  0  0
 16 35  1  0  0  0  0
 16 36  1  0  0  0  0
 16 37  1  0  0  0  0
 17 38  1  0  0  0  0
 17 39  1  0  0  0  0
 17 40  1  0  0  0  0
 18 41  1  0  0  0  0
 18 42  1  0  0  0  0
 18 43  1  0  0  0  0
 19 22  2  0  0  0  0
 19 44  1  0  0  0  0
 20 21  2  0  0  0  0
 20 45  1  0  0  0  0
 21 22  1  0  0  0  0
 22 46  1  0  0  0  0
 23 24  1  0  0  0  0
 23 47  1  0  0  0  0
 23 48  1  0  0  0  0
 25 26  1  0  0  0  0
 25 49  1  0  0  0  0
 25 50  1  0  0  0  0
 26 51  1  0  0  0  0
 26 52  1  0  0  0  0
 26 53  1  0  0  0  0
M  END
> <PUBCHEM_COMPOUND_CID>
12604

> <PUBCHEM_CONFORMER_RMSD>
1

> <PUBCHEM_CONFORMER_DIVERSEORDER>
1
35
25
30
43
33
85
45
66
60
44
19
59
84
13
77
76
46
62
55
24
73
14
51
81
16
32
83
61
23
50
20
34
82
67
74
27
15
69
52
7
80
47
71
29
56
12
90
39
78
10
70
91
42
9
64
48
58
68
8
79
88
36
21
63
86
41
26
49
3
75
54
87
72
40
57
22
89
31
38
28
17
37
18
5
65
4
53
2
11
6

> <PUBCHEM_MMFF94_PARTIAL_CHARGES>
26
1 -0.23
10 -0.17
11 0.27
12 0.27
13 0.03
14 0.08
15 0.71
16 0.14
19 -0.15
2 -0.57
20 -0.15
21 0.08
22 -0.15
23 0.34
24 0.66
25 0.28
3 -0.36
4 -0.43
44 0.15
45 0.15
46 0.15
5 -0.57
6 -0.81
7 0.27
8 0.14
9 -0.12

> <PUBCHEM_EFFECTIVE_ROTOR_COUNT>
10

> <PUBCHEM_PHARMACOPHORE_FEATURES>
6
1 2 acceptor
1 3 acceptor
1 5 acceptor
1 6 cation
6 1 9 10 13 14 15 rings
6 13 14 19 20 21 22 rings

> <PUBCHEM_HEAVY_ATOM_COUNT>
26

> <PUBCHEM_ATOM_DEF_STEREO_COUNT>
0

> <PUBCHEM_ATOM_UDEF_STEREO_COUNT>
0

> <PUBCHEM_BOND_DEF_STEREO_COUNT>
0

> <PUBCHEM_BOND_UDEF_STEREO_COUNT>
0

> <PUBCHEM_ISOTOPIC_ATOM_COUNT>
0

> <PUBCHEM_COMPONENT_COUNT>
1

> <PUBCHEM_CACTVS_TAUTO_COUNT>
1

> <PUBCHEM_CONFORMER_ID>
0000313C00000001

> <PUBCHEM_MMFF94_ENERGY>
65.7272

> <PUBCHEM_FEATURE_SELFOVERLAP>
30.479

> <PUBCHEM_SHAPE_FINGERPRINT>
10076449 9 18412821396147084288
10674148 151 18341617027474634248
11089746 13 16950565446381855937
11524674 6 16877946018802754318
12592606 108 18334299738531228383
13140716 1 18196375806163183337
13673619 4 18335422387717708792
13685833 64 18411138030859707152
13914758 101 15791722014348374467
14216079 64 18187364363950661790
14251764 18 17748542632631517296
14444916 359 18412536626583071066
14617045 38 18412827993201319034
14856354 85 16128371554831998147
15183329 4 18333736822657762514
15849732 13 18060139825348342119
16087824 20 18270405009793418869
16120349 21 18408036304025556459
18643901 69 18409724097930338926
20105231 36 18131909360246423962
20157964 124 11024113162056389592
21130935 74 17968664796246258802
21150785 3 15051731993363503834
21267235 1 18413386540754849840
21781051 124 17987498365067422754
21792961 116 18200882880297816076
22224240 67 8790884086515171460
23559900 14 18263093115254330288
23569917 315 18261673663208298791
246663 6 18342172276419817978
2838139 119 16226045570794723457
28498 318 18334016112044557422
3004659 81 18343305882199395146
3178227 256 18272081678529500945
335352 9 18411142415804935015
350125 39 18341899584409128317
439807 62 18411698821130828998
444769 64 18334296457529655039
5381727 24 17240481400172311279
5470011 282 17632571661620903342
636775 8 17774993588103417338
999808 66 18131343103325965979

> <PUBCHEM_SHAPE_MULTIPOLES>
500.74
23.97
2.07
1.06
20.78
0.18
0.31
-9.18
-0.59
1.13
-0.23
-1.91
-0.03
1.5

> <PUBCHEM_SHAPE_SELFOVERLAP>
1032.867

> <PUBCHEM_SHAPE_VOLUME>
288.2

> <PUBCHEM_COORDINATE_TYPE>
2
5
10

$$$$

