3713
  -OEChem-06251223363D

 31 32  0     0  0  0  0  0  0999 V2000
   -4.8807    0.3205   -0.2743 P   0  0  0  0  0  0  0  0  0  0  0  0
   -3.3279    0.0412   -0.6293 O   0  0  0  0  0  0  0  0  0  0  0  0
   -4.8171    1.5033    0.8267 O   0  0  0  0  0  0  0  0  0  0  0  0
   -5.2876   -0.9785    0.5986 O   0  0  0  0  0  0  0  0  0  0  0  0
   -5.7640    0.5915   -1.4569 O   0  0  0  0  0  0  0  0  0  0  0  0
    3.1952   -1.8753   -0.4277 N   0  0  0  0  0  0  0  0  0  0  0  0
    0.0028   -0.7644    0.9534 C   0  0  0  0  0  0  0  0  0  0  0  0
    1.3678   -0.9404    0.4171 C   0  0  0  0  0  0  0  0  0  0  0  0
    2.3476    0.0767    0.2420 C   0  0  0  0  0  0  0  0  0  0  0  0
   -1.0372   -0.4534   -0.1358 C   0  0  0  0  0  0  0  0  0  0  0  0
    3.4843   -0.5364   -0.2895 C   0  0  0  0  0  0  0  0  0  0  0  0
    1.9185   -2.1290   -0.0035 C   0  0  0  0  0  0  0  0  0  0  0  0
   -2.4284   -0.2238    0.4381 C   0  0  0  0  0  0  0  0  0  0  0  0
    2.3765    1.4642    0.4852 C   0  0  0  0  0  0  0  0  0  0  0  0
    4.6531    0.1716   -0.5909 C   0  0  0  0  0  0  0  0  0  0  0  0
    3.5388    2.1854    0.1884 C   0  0  0  0  0  0  0  0  0  0  0  0
    4.6584    1.5469   -0.3413 C   0  0  0  0  0  0  0  0  0  0  0  0
   -0.0017    0.0402    1.6994 H   0  0  0  0  0  0  0  0  0  0  0  0
   -0.3012   -1.6729    1.4894 H   0  0  0  0  0  0  0  0  0  0  0  0
   -1.0750   -1.2719   -0.8665 H   0  0  0  0  0  0  0  0  0  0  0  0
   -0.7332    0.4330   -0.7081 H   0  0  0  0  0  0  0  0  0  0  0  0
    1.5180   -3.1326   -0.0400 H   0  0  0  0  0  0  0  0  0  0  0  0
   -2.7610   -1.1127    0.9834 H   0  0  0  0  0  0  0  0  0  0  0  0
   -2.4161    0.6285    1.1247 H   0  0  0  0  0  0  0  0  0  0  0  0
    3.8337   -2.5698   -0.7903 H   0  0  0  0  0  0  0  0  0  0  0  0
    1.5122    1.9779    0.8963 H   0  0  0  0  0  0  0  0  0  0  0  0
    5.5253   -0.3245   -1.0034 H   0  0  0  0  0  0  0  0  0  0  0  0
    3.5666    3.2559    0.3735 H   0  0  0  0  0  0  0  0  0  0  0  0
    5.5506    2.1264   -0.5645 H   0  0  0  0  0  0  0  0  0  0  0  0
   -5.6557    1.8935    1.1529 H   0  0  0  0  0  0  0  0  0  0  0  0
   -6.2241   -1.0968    0.8652 H   0  0  0  0  0  0  0  0  0  0  0  0
  1  2  1  0  0  0  0
  1  3  1  0  0  0  0
  1  4  1  0  0  0  0
  1  5  2  0  0  0  0
  2 13  1  0  0  0  0
  3 30  1  0  0  0  0
  4 31  1  0  0  0  0
  6 11  1  0  0  0  0
  6 12  1  0  0  0  0
  6 25  1  0  0  0  0
  7  8  1  0  0  0  0
  7 10  1  0  0  0  0
  7 18  1  0  0  0  0
  7 19  1  0  0  0  0
  8  9  1  0  0  0  0
  8 12  2  0  0  0  0
  9 11  1  0  0  0  0
  9 14  2  0  0  0  0
 10 13  1  0  0  0  0
 10 20  1  0  0  0  0
 10 21  1  0  0  0  0
 11 15  2  0  0  0  0
 12 22  1  0  0  0  0
 13 23  1  0  0  0  0
 13 24  1  0  0  0  0
 14 16  1  0  0  0  0
 14 26  1  0  0  0  0
 15 17  1  0  0  0  0
 15 27  1  0  0  0  0
 16 17  2  0  0  0  0
 16 28  1  0  0  0  0
 17 29  1  0  0  0  0
M  END
> <PUBCHEM_COMPOUND_CID>
3713

> <PUBCHEM_CONFORMER_RMSD>
0.6

> <PUBCHEM_CONFORMER_DIVERSEORDER>
1
50
77
59
29
20
26
64
30
45
6
18
52
11
2
7
21
71
46
25
9
15
19
43
49
55
75
68
51
54
67
65
10
22
16
74
63
66
23
57
17
24
12
37
70
53
48
8
5
13
62
73
34
41
14
3
40
35
47
4
27
72
76
42
58
61
44
28
31
33
38
69
32
36
56
39
60

> <PUBCHEM_MMFF94_PARTIAL_CHARGES>
23
1 1.51
11 -0.15
12 -0.3
13 0.28
14 -0.15
15 -0.15
16 -0.15
17 -0.15
2 -0.55
22 0.15
25 0.27
26 0.15
27 0.15
28 0.15
29 0.15
3 -0.77
30 0.5
31 0.5
4 -0.77
5 -0.7
6 0.03
7 0.18
8 -0.18

> <PUBCHEM_EFFECTIVE_ROTOR_COUNT>
5

> <PUBCHEM_PHARMACOPHORE_FEATURES>
8
1 3 acceptor
1 4 acceptor
1 5 acceptor
1 6 cation
1 6 donor
4 1 3 4 5 anion
5 6 8 9 11 12 rings
6 9 11 14 15 16 17 rings

> <PUBCHEM_HEAVY_ATOM_COUNT>
17

> <PUBCHEM_ATOM_DEF_STEREO_COUNT>
0

> <PUBCHEM_ATOM_UDEF_STEREO_COUNT>
0

> <PUBCHEM_BOND_DEF_STEREO_COUNT>
0

> <PUBCHEM_BOND_UDEF_STEREO_COUNT>
0

> <PUBCHEM_ISOTOPIC_ATOM_COUNT>
0

> <PUBCHEM_COMPONENT_COUNT>
1

> <PUBCHEM_CACTVS_TAUTO_COUNT>
1

> <PUBCHEM_CONFORMER_ID>
00000E8100000001

> <PUBCHEM_MMFF94_ENERGY>
-9.5529

> <PUBCHEM_FEATURE_SELFOVERLAP>
40.722

> <PUBCHEM_SHAPE_FINGERPRINT>
10693767 8 17823409569706431366
11287383 113 18341891870647487971
11471102 20 18409164416130433882
12616999 72 16732980937917996942
12730499 353 18341886377215693306
13836976 161 17894633664630278902
14528608 73 18335707122146738229
17834072 33 18334297544029494487
17844677 252 18336537309455410665
20612939 158 18409447011792960854
20645477 56 18060419110282316303
20645477 70 18334289902998221518
212847 35 18060139838824106704
221357 26 18336549407798561132
22289505 5 18411423942221389948
23402655 69 18333730204382015766
23559900 14 16916784153592538067
23590187 302 17894351068619286616
25 1 18410854326990168138
2916195 48 17917714569686236245
29717793 49 17385718131992294996
3060560 45 18260264153577461622
3545911 37 18340764862644169187
4047638 21 18273494559719363306
4072396 5 18410866456357523162
465052 167 9511467736302900376
474 4 18272087154259582768
5104073 3 18202562899832037627
522135 26 18334015012232359502
5281201 14 18336827605709456573
5312625 73 18337108960944164379
543358 83 18261949755935670546
633830 44 18337957895711516671
7164475 11 17751353096095187184
77779 3 18408884053487150771
8272917 22 18188203311942961974

> <PUBCHEM_SHAPE_MULTIPOLES>
325.24
12.94
1.94
0.91
18.15
0.06
0.07
4.56
2.63
-2.07
-0.11
0.66
0.07
0.36

> <PUBCHEM_SHAPE_SELFOVERLAP>
671.113

> <PUBCHEM_SHAPE_VOLUME>
188.7

> <PUBCHEM_COORDINATE_TYPE>
2
5
10

$$$$

