17396054
  -OEChem-06241222542D

 52 56  0     1  0  0  0  0  0999 V2000
    9.0146    0.6264    0.0000 S   0  0  0  0  0  0  0  0  0  0  0  0
   13.4249   -0.6783    0.0000 S   0  0  0  0  0  0  0  0  0  0  0  0
    7.6657   -1.9221    0.0000 O   0  0  0  0  0  0  0  0  0  0  0  0
    2.5878    1.0447    0.0000 O   0  0  0  0  0  0  0  0  0  0  0  0
   11.6127   -1.8736    0.0000 O   0  0  0  0  0  0  0  0  0  0  0  0
    7.2350    0.7197    0.0000 N   0  0  0  0  0  0  0  0  0  0  0  0
    7.0659    2.3288    0.0000 N   0  0  0  0  0  0  0  0  0  0  0  0
    8.0440    2.1209    0.0000 N   0  0  0  0  0  0  0  0  0  0  0  0
   11.6127    1.1264    0.0000 N   0  0  0  0  0  0  0  0  0  0  0  0
   10.7466   -0.3736    0.0000 N   0  0  0  0  0  0  0  0  0  0  0  0
    7.7702   -0.9276    0.0000 C   0  0  3  0  0  0  0  0  0  0  0  0
    8.7484   -0.7197    0.0000 C   0  0  0  0  0  0  0  0  0  0  0  0
    9.2484   -1.5857    0.0000 C   0  0  0  0  0  0  0  0  0  0  0  0
    7.0271   -0.2585    0.0000 C   0  0  0  0  0  0  0  0  0  0  0  0
    8.5792   -2.3288    0.0000 C   0  0  0  0  0  0  0  0  0  0  0  0
    6.5659    1.4628    0.0000 C   0  0  0  0  0  0  0  0  0  0  0  0
    8.1486    1.1264    0.0000 C   0  0  0  0  0  0  0  0  0  0  0  0
    5.5714    1.3583    0.0000 C   0  0  0  0  0  0  0  0  0  0  0  0
    9.8806    1.1264    0.0000 C   0  0  0  0  0  0  0  0  0  0  0  0
    4.9836    2.1673    0.0000 C   0  0  0  0  0  0  0  0  0  0  0  0
    5.1646    0.4448    0.0000 C   0  0  0  0  0  0  0  0  0  0  0  0
   10.7466    0.6264    0.0000 C   0  0  0  0  0  0  0  0  0  0  0  0
    3.9890    2.0628    0.0000 C   0  0  0  0  0  0  0  0  0  0  0  0
    4.1701    0.3402    0.0000 C   0  0  0  0  0  0  0  0  0  0  0  0
    3.5823    1.1492    0.0000 C   0  0  0  0  0  0  0  0  0  0  0  0
   12.4787    0.6264    0.0000 C   0  0  0  0  0  0  0  0  0  0  0  0
   12.4787   -0.3736    0.0000 C   0  0  0  0  0  0  0  0  0  0  0  0
   11.6127   -0.8736    0.0000 C   0  0  0  0  0  0  0  0  0  0  0  0
   13.4249    0.9312    0.0000 C   0  0  0  0  0  0  0  0  0  0  0  0
   14.0085    0.1264    0.0000 C   0  0  0  0  0  0  0  0  0  0  0  0
    2.0000    1.8537    0.0000 C   0  0  0  0  0  0  0  0  0  0  0  0
    7.1914   -1.1498    0.0000 H   0  0  0  0  0  0  0  0  0  0  0  0
    9.3148   -0.4675    0.0000 H   0  0  0  0  0  0  0  0  0  0  0  0
    8.5568   -0.1300    0.0000 H   0  0  0  0  0  0  0  0  0  0  0  0
    9.6632   -2.0465    0.0000 H   0  0  0  0  0  0  0  0  0  0  0  0
    9.7500   -1.2213    0.0000 H   0  0  0  0  0  0  0  0  0  0  0  0
    6.4522   -0.0262    0.0000 H   0  0  0  0  0  0  0  0  0  0  0  0
    6.6985   -0.7843    0.0000 H   0  0  0  0  0  0  0  0  0  0  0  0
    8.2692   -2.8658    0.0000 H   0  0  0  0  0  0  0  0  0  0  0  0
    9.0808   -2.6933    0.0000 H   0  0  0  0  0  0  0  0  0  0  0  0
   10.2791    1.6014    0.0000 H   0  0  0  0  0  0  0  0  0  0  0  0
    9.4821    1.6014    0.0000 H   0  0  0  0  0  0  0  0  0  0  0  0
    5.2357    2.7337    0.0000 H   0  0  0  0  0  0  0  0  0  0  0  0
    5.5290   -0.0568    0.0000 H   0  0  0  0  0  0  0  0  0  0  0  0
    3.6246    2.5644    0.0000 H   0  0  0  0  0  0  0  0  0  0  0  0
    3.9179   -0.2262    0.0000 H   0  0  0  0  0  0  0  0  0  0  0  0
   11.6127    1.7464    0.0000 H   0  0  0  0  0  0  0  0  0  0  0  0
   13.6175    1.5205    0.0000 H   0  0  0  0  0  0  0  0  0  0  0  0
   14.6285    0.1264    0.0000 H   0  0  0  0  0  0  0  0  0  0  0  0
    2.5016    2.2182    0.0000 H   0  0  0  0  0  0  0  0  0  0  0  0
    1.6356    2.3553    0.0000 H   0  0  0  0  0  0  0  0  0  0  0  0
    1.4984    1.4893    0.0000 H   0  0  0  0  0  0  0  0  0  0  0  0
  1 17  1  0  0  0  0
  1 19  1  0  0  0  0
  2 27  1  0  0  0  0
  2 30  1  0  0  0  0
  3 11  1  0  0  0  0
  3 15  1  0  0  0  0
  4 25  1  0  0  0  0
  4 31  1  0  0  0  0
  5 28  2  0  0  0  0
  6 14  1  0  0  0  0
  6 16  1  0  0  0  0
  6 17  1  0  0  0  0
  7  8  1  0  0  0  0
  7 16  2  0  0  0  0
  8 17  2  0  0  0  0
  9 22  1  0  0  0  0
  9 26  1  0  0  0  0
  9 47  1  0  0  0  0
 10 22  2  0  0  0  0
 10 28  1  0  0  0  0
 11 12  1  0  0  0  0
 11 14  1  0  0  0  0
 11 32  1  0  0  0  0
 12 13  1  0  0  0  0
 12 33  1  0  0  0  0
 12 34  1  0  0  0  0
 13 15  1  0  0  0  0
 13 35  1  0  0  0  0
 13 36  1  0  0  0  0
 14 37  1  0  0  0  0
 14 38  1  0  0  0  0
 15 39  1  0  0  0  0
 15 40  1  0  0  0  0
 16 18  1  0  0  0  0
 18 20  2  0  0  0  0
 18 21  1  0  0  0  0
 19 22  1  0  0  0  0
 19 41  1  0  0  0  0
 19 42  1  0  0  0  0
 20 23  1  0  0  0  0
 20 43  1  0  0  0  0
 21 24  2  0  0  0  0
 21 44  1  0  0  0  0
 23 25  2  0  0  0  0
 23 45  1  0  0  0  0
 24 25  1  0  0  0  0
 24 46  1  0  0  0  0
 26 27  2  0  0  0  0
 26 29  1  0  0  0  0
 27 28  1  0  0  0  0
 29 30  2  0  0  0  0
 29 48  1  0  0  0  0
 30 49  1  0  0  0  0
 31 50  1  0  0  0  0
 31 51  1  0  0  0  0
 31 52  1  0  0  0  0
M  END
> <PUBCHEM_COMPOUND_CID>
17396054

> <PUBCHEM_COMPOUND_CANONICALIZED>
1

> <PUBCHEM_CACTVS_COMPLEXITY>
675

> <PUBCHEM_CACTVS_HBOND_ACCEPTOR>
7

> <PUBCHEM_CACTVS_HBOND_DONOR>
1

> <PUBCHEM_CACTVS_ROTATABLE_BOND>
7

> <PUBCHEM_CACTVS_SUBSKEYS>
AAADceB7sABgAAAAAAAAAAAAAAAAAWJEgAAwQAAAAAAAAEAB8AAAHgQYAAAADBzl2waz14fMFAiuAidydACT2ItlKrBdyD0+bNiOLrrk/RuHMaxk2BP4qUeY0AIOIAAAAAAAAABAAAAAAAAAAAAAAAAAAA==

> <PUBCHEM_IUPAC_OPENEYE_NAME>
2-[[5-(4-methoxyphenyl)-4-(tetrahydrofuran-2-ylmethyl)-1,2,4-triazol-3-yl]sulfanylmethyl]-1H-thieno[3,2-d]pyrimidin-4-one

> <PUBCHEM_IUPAC_CAS_NAME>
2-[[[5-(4-methoxyphenyl)-4-(2-oxolanylmethyl)-1,2,4-triazol-3-yl]thio]methyl]-1H-thieno[3,2-d]pyrimidin-4-one

> <PUBCHEM_IUPAC_NAME>
2-[[5-(4-methoxyphenyl)-4-(oxolan-2-ylmethyl)-1,2,4-triazol-3-yl]sulfanylmethyl]-1H-thieno[3,2-d]pyrimidin-4-one

> <PUBCHEM_IUPAC_SYSTEMATIC_NAME>
2-[[5-(4-methoxyphenyl)-4-(oxolan-2-ylmethyl)-1,2,4-triazol-3-yl]sulfanylmethyl]-1H-thieno[3,2-d]pyrimidin-4-one

> <PUBCHEM_IUPAC_TRADITIONAL_NAME>
2-[[[5-(4-methoxyphenyl)-4-(tetrahydrofurfuryl)-1,2,4-triazol-3-yl]thio]methyl]-1H-thieno[3,2-d]pyrimidin-4-one

> <PUBCHEM_IUPAC_INCHI>
InChI=1S/C21H21N5O3S2/c1-28-14-6-4-13(5-7-14)19-24-25-21(26(19)11-15-3-2-9-29-15)31-12-17-22-16-8-10-30-18(16)20(27)23-17/h4-8,10,15H,2-3,9,11-12H2,1H3,(H,22,23,27)

> <PUBCHEM_IUPAC_INCHIKEY>
FHRNYZJVPNGBEO-UHFFFAOYSA-N

> <PUBCHEM_XLOGP3_AA>
2.8

> <PUBCHEM_EXACT_MASS>
455.108582

> <PUBCHEM_MOLECULAR_FORMULA>
C21H21N5O3S2

> <PUBCHEM_MOLECULAR_WEIGHT>
455.55314

> <PUBCHEM_OPENEYE_CAN_SMILES>
COC1=CC=C(C=C1)C2=NN=C(N2CC3CCCO3)SCC4=NC(=O)C5=C(N4)C=CS5

> <PUBCHEM_OPENEYE_ISO_SMILES>
COC1=CC=C(C=C1)C2=NN=C(N2CC3CCCO3)SCC4=NC(=O)C5=C(N4)C=CS5

> <PUBCHEM_CACTVS_TPSA>
144

> <PUBCHEM_MONOISOTOPIC_WEIGHT>
455.108582

> <PUBCHEM_TOTAL_CHARGE>
0

> <PUBCHEM_HEAVY_ATOM_COUNT>
31

> <PUBCHEM_ATOM_DEF_STEREO_COUNT>
0

> <PUBCHEM_ATOM_UDEF_STEREO_COUNT>
1

> <PUBCHEM_BOND_DEF_STEREO_COUNT>
0

> <PUBCHEM_BOND_UDEF_STEREO_COUNT>
0

> <PUBCHEM_ISOTOPIC_ATOM_COUNT>
0

> <PUBCHEM_COMPONENT_COUNT>
1

> <PUBCHEM_CACTVS_TAUTO_COUNT>
8

> <PUBCHEM_COORDINATE_TYPE>
1
5
255

> <PUBCHEM_BONDANNOTATIONS>
10  22  8
10  28  8
11  14  3
18  20  8
18  21  8
2  27  8
2  30  8
20  23  8
21  24  8
23  25  8
24  25  8
26  27  8
26  29  8
27  28  8
29  30  8
6  16  8
6  17  8
7  16  8
7  8  8
8  17  8
9  22  8
9  26  8

$$$$

