7705
  -OEChem-06261202153D

 24 24  0     0  0  0  0  0  0999 V2000
    1.9517   -0.0250    0.2168 C   0  0  0  0  0  0  0  0  0  0  0  0
    0.9430   -0.0336   -0.9340 C   0  0  0  0  0  0  0  0  0  0  0  0
    3.3880   -0.0089   -0.3057 C   0  0  0  0  0  0  0  0  0  0  0  0
   -0.4775   -0.0136   -0.4303 C   0  0  0  0  0  0  0  0  0  0  0  0
    4.3948    0.0408    0.8325 C   0  0  0  0  0  0  0  0  0  0  0  0
   -1.1302   -1.2125   -0.1839 C   0  0  0  0  0  0  0  0  0  0  0  0
   -1.1096    1.2032   -0.2207 C   0  0  0  0  0  0  0  0  0  0  0  0
   -2.4447   -1.1943    0.2824 C   0  0  0  0  0  0  0  0  0  0  0  0
   -2.4240    1.2213    0.2457 C   0  0  0  0  0  0  0  0  0  0  0  0
   -3.0916    0.0226    0.4972 C   0  0  0  0  0  0  0  0  0  0  0  0
    1.8013   -0.9063    0.8532 H   0  0  0  0  0  0  0  0  0  0  0  0
    1.7841    0.8544    0.8516 H   0  0  0  0  0  0  0  0  0  0  0  0
    1.0979   -0.9187   -1.5643 H   0  0  0  0  0  0  0  0  0  0  0  0
    1.1104    0.8310   -1.5894 H   0  0  0  0  0  0  0  0  0  0  0  0
    3.5730   -0.9027   -0.9129 H   0  0  0  0  0  0  0  0  0  0  0  0
    3.5389    0.8616   -0.9547 H   0  0  0  0  0  0  0  0  0  0  0  0
    4.2918   -0.8318    1.4853 H   0  0  0  0  0  0  0  0  0  0  0  0
    4.2579    0.9420    1.4386 H   0  0  0  0  0  0  0  0  0  0  0  0
    5.4149    0.0499    0.4360 H   0  0  0  0  0  0  0  0  0  0  0  0
   -0.6344   -2.1654   -0.3462 H   0  0  0  0  0  0  0  0  0  0  0  0
   -0.5976    2.1421   -0.4116 H   0  0  0  0  0  0  0  0  0  0  0  0
   -2.9643   -2.1276    0.4788 H   0  0  0  0  0  0  0  0  0  0  0  0
   -2.9277    2.1688    0.4137 H   0  0  0  0  0  0  0  0  0  0  0  0
   -4.1149    0.0368    0.8606 H   0  0  0  0  0  0  0  0  0  0  0  0
  1  2  1  0  0  0  0
  1  3  1  0  0  0  0
  1 11  1  0  0  0  0
  1 12  1  0  0  0  0
  2  4  1  0  0  0  0
  2 13  1  0  0  0  0
  2 14  1  0  0  0  0
  3  5  1  0  0  0  0
  3 15  1  0  0  0  0
  3 16  1  0  0  0  0
  4  6  2  0  0  0  0
  4  7  1  0  0  0  0
  5 17  1  0  0  0  0
  5 18  1  0  0  0  0
  5 19  1  0  0  0  0
  6  8  1  0  0  0  0
  6 20  1  0  0  0  0
  7  9  2  0  0  0  0
  7 21  1  0  0  0  0
  8 10  2  0  0  0  0
  8 22  1  0  0  0  0
  9 10  1  0  0  0  0
  9 23  1  0  0  0  0
 10 24  1  0  0  0  0
M  END
> <PUBCHEM_COMPOUND_CID>
7705

> <PUBCHEM_CONFORMER_RMSD>
0.6

> <PUBCHEM_CONFORMER_DIVERSEORDER>
1
4
5
2
3

> <PUBCHEM_MMFF94_PARTIAL_CHARGES>
12
10 -0.15
2 0.14
20 0.15
21 0.15
22 0.15
23 0.15
24 0.15
4 -0.14
6 -0.15
7 -0.15
8 -0.15
9 -0.15

> <PUBCHEM_EFFECTIVE_ROTOR_COUNT>
3

> <PUBCHEM_PHARMACOPHORE_FEATURES>
2
1 5 hydrophobe
6 4 6 7 8 9 10 rings

> <PUBCHEM_HEAVY_ATOM_COUNT>
10

> <PUBCHEM_ATOM_DEF_STEREO_COUNT>
0

> <PUBCHEM_ATOM_UDEF_STEREO_COUNT>
0

> <PUBCHEM_BOND_DEF_STEREO_COUNT>
0

> <PUBCHEM_BOND_UDEF_STEREO_COUNT>
0

> <PUBCHEM_ISOTOPIC_ATOM_COUNT>
0

> <PUBCHEM_COMPONENT_COUNT>
1

> <PUBCHEM_CACTVS_TAUTO_COUNT>
1

> <PUBCHEM_CONFORMER_ID>
00001E1900000001

> <PUBCHEM_MMFF94_ENERGY>
15.1206

> <PUBCHEM_FEATURE_SELFOVERLAP>
10.148

> <PUBCHEM_SHAPE_FINGERPRINT>
10857977 72 18335135371631266817
12251169 10 18411699876779680012
13024252 1 14620796011653785229
14325111 11 18408601495941122806
15219456 202 17895747517000667358
20645464 45 17967527982420938991
20871998 184 18188202105278788919
21119208 17 7853574612791054400
22485316 2 15267345111078921848
23402539 116 18261402143864344885
23403322 49 12679194838002771168
23552423 10 17697019354650717413
369184 2 18408040723536101023
75552 356 18412542093869749015

> <PUBCHEM_SHAPE_MULTIPOLES>
205.8
6.58
1.2
0.85
7.07
0.01
-0.02
0.07
1.98
-1.04
0.02
0.3
0
0.03

> <PUBCHEM_SHAPE_SELFOVERLAP>
409.121

> <PUBCHEM_SHAPE_VOLUME>
118.8

> <PUBCHEM_COORDINATE_TYPE>
2
5
10

$$$$

