3527
  -OEChem-06251223282D

 94 96  0     1  0  0  0  0  0999 V2000
    8.3380    3.0824    0.0000 O   0  0  0  0  0  0  0  0  0  0  0  0
    7.9885   -1.9535    0.0000 O   0  0  0  0  0  0  0  0  0  0  0  0
    6.2284    1.0950    0.0000 O   0  0  0  0  0  0  0  0  0  0  0  0
    6.0010   -2.0686    0.0000 O   0  0  0  0  0  0  0  0  0  0  0  0
    4.2690    1.9314    0.0000 O   0  0  0  0  0  0  0  0  0  0  0  0
    2.5369    0.9314    0.0000 O   0  0  0  0  0  0  0  0  0  0  0  0
   11.0205   -0.7768    0.0000 C   0  0  3  0  0  0  0  0  0  0  0  0
    9.3158    0.2678    0.0000 C   0  0  3  0  0  0  0  0  0  0  0  0
   11.7976   -0.1475    0.0000 C   0  0  3  0  0  0  0  0  0  0  0  0
    9.5746    1.2337    0.0000 C   0  0  3  0  0  0  0  0  0  0  0  0
   11.4392    0.7861    0.0000 C   0  0  0  0  0  0  0  0  0  0  0  0
    8.8380    2.2164    0.0000 C   0  0  0  0  0  0  0  0  0  0  0  0
   11.5651   -1.6155    0.0000 C   0  0  0  0  0  0  0  0  0  0  0  0
    9.0569   -0.6981    0.0000 C   0  0  0  0  0  0  0  0  0  0  0  0
   10.5665   -1.6678    0.0000 C   0  0  0  0  0  0  0  0  0  0  0  0
    7.7806   -0.9753    0.0000 C   0  0  0  0  0  0  0  0  0  0  0  0
   12.7635   -0.4063    0.0000 C   0  0  0  0  0  0  0  0  0  0  0  0
    6.9716    0.4259    0.0000 C   0  0  0  0  0  0  0  0  0  0  0  0
    9.8334    2.1997    0.0000 C   0  0  0  0  0  0  0  0  0  0  0  0
    6.8671   -0.5686    0.0000 C   0  0  0  0  0  0  0  0  0  0  0  0
   12.5637   -1.5632    0.0000 C   0  0  0  0  0  0  0  0  0  0  0  0
    9.7640   -1.4052    0.0000 C   0  0  0  0  0  0  0  0  0  0  0  0
   13.4706    0.3008    0.0000 C   0  0  0  0  0  0  0  0  0  0  0  0
   10.7993    2.4585    0.0000 C   0  0  0  0  0  0  0  0  0  0  0  0
    6.0010   -1.0686    0.0000 C   0  0  0  0  0  0  0  0  0  0  0  0
   13.1084   -2.4018    0.0000 C   0  0  0  0  0  0  0  0  0  0  0  0
    9.5052   -2.3712    0.0000 C   0  0  0  0  0  0  0  0  0  0  0  0
   14.4366    0.0420    0.0000 C   0  0  0  0  0  0  0  0  0  0  0  0
   11.0581    3.4244    0.0000 C   0  0  0  0  0  0  0  0  0  0  0  0
    5.1350   -0.5686    0.0000 C   0  0  0  0  0  0  0  0  0  0  0  0
   12.6544   -3.2928    0.0000 C   0  0  0  0  0  0  0  0  0  0  0  0
   10.2123   -3.0783    0.0000 C   0  0  0  0  0  0  0  0  0  0  0  0
    8.5393   -2.6300    0.0000 C   0  0  0  0  0  0  0  0  0  0  0  0
   15.1437    0.7491    0.0000 C   0  0  0  0  0  0  0  0  0  0  0  0
   14.6954   -0.9240    0.0000 C   0  0  0  0  0  0  0  0  0  0  0  0
   12.0241    3.6832    0.0000 C   0  0  0  0  0  0  0  0  0  0  0  0
   10.3510    4.1315    0.0000 C   0  0  0  0  0  0  0  0  0  0  0  0
    5.1350    0.4314    0.0000 C   0  0  0  0  0  0  0  0  0  0  0  0
    4.2690   -1.0686    0.0000 C   0  0  0  0  0  0  0  0  0  0  0  0
   13.1990   -4.1315    0.0000 C   0  0  0  0  0  0  0  0  0  0  0  0
   11.6557   -3.3452    0.0000 C   0  0  0  0  0  0  0  0  0  0  0  0
    4.2690    0.9314    0.0000 C   0  0  0  0  0  0  0  0  0  0  0  0
    3.4030   -0.5686    0.0000 C   0  0  0  0  0  0  0  0  0  0  0  0
    3.4030    0.4314    0.0000 C   0  0  0  0  0  0  0  0  0  0  0  0
   12.2125    0.3132    0.0000 H   0  0  0  0  0  0  0  0  0  0  0  0
   12.0507    0.8884    0.0000 H   0  0  0  0  0  0  0  0  0  0  0  0
   11.4609    1.4057    0.0000 H   0  0  0  0  0  0  0  0  0  0  0  0
   10.9944   -1.8578    0.0000 H   0  0  0  0  0  0  0  0  0  0  0  0
   11.7046   -2.2196    0.0000 H   0  0  0  0  0  0  0  0  0  0  0  0
    8.4950   -0.4361    0.0000 H   0  0  0  0  0  0  0  0  0  0  0  0
    8.7013   -1.2060    0.0000 H   0  0  0  0  0  0  0  0  0  0  0  0
   10.0140   -1.3864    0.0000 H   0  0  0  0  0  0  0  0  0  0  0  0
   10.2850   -2.2203    0.0000 H   0  0  0  0  0  0  0  0  0  0  0  0
   11.1189   -1.9493    0.0000 H   0  0  0  0  0  0  0  0  0  0  0  0
   12.5015   -0.9682    0.0000 H   0  0  0  0  0  0  0  0  0  0  0  0
   13.2714   -0.7619    0.0000 H   0  0  0  0  0  0  0  0  0  0  0  0
    9.7794    2.8173    0.0000 H   0  0  0  0  0  0  0  0  0  0  0  0
    9.2158    2.2537    0.0000 H   0  0  0  0  0  0  0  0  0  0  0  0
   13.1344   -1.3209    0.0000 H   0  0  0  0  0  0  0  0  0  0  0  0
   12.4243   -0.9591    0.0000 H   0  0  0  0  0  0  0  0  0  0  0  0
   10.3629   -1.2448    0.0000 H   0  0  0  0  0  0  0  0  0  0  0  0
   13.3102    0.8997    0.0000 H   0  0  0  0  0  0  0  0  0  0  0  0
   11.2377    2.0201    0.0000 H   0  0  0  0  0  0  0  0  0  0  0  0
   13.7275   -2.3694    0.0000 H   0  0  0  0  0  0  0  0  0  0  0  0
    5.4641   -2.3786    0.0000 H   0  0  0  0  0  0  0  0  0  0  0  0
    8.3788   -2.0311    0.0000 H   0  0  0  0  0  0  0  0  0  0  0  0
    7.9404   -2.7904    0.0000 H   0  0  0  0  0  0  0  0  0  0  0  0
    8.6998   -3.2288    0.0000 H   0  0  0  0  0  0  0  0  0  0  0  0
    9.7739   -3.5167    0.0000 H   0  0  0  0  0  0  0  0  0  0  0  0
   10.6507   -3.5167    0.0000 H   0  0  0  0  0  0  0  0  0  0  0  0
   10.6507   -2.6398    0.0000 H   0  0  0  0  0  0  0  0  0  0  0  0
   15.5821    0.3107    0.0000 H   0  0  0  0  0  0  0  0  0  0  0  0
   15.5821    1.1875    0.0000 H   0  0  0  0  0  0  0  0  0  0  0  0
   14.7053    1.1875    0.0000 H   0  0  0  0  0  0  0  0  0  0  0  0
   14.0965   -1.0844    0.0000 H   0  0  0  0  0  0  0  0  0  0  0  0
   14.8559   -1.5228    0.0000 H   0  0  0  0  0  0  0  0  0  0  0  0
   15.2943   -0.7635    0.0000 H   0  0  0  0  0  0  0  0  0  0  0  0
   10.7894    4.5699    0.0000 H   0  0  0  0  0  0  0  0  0  0  0  0
    9.9126    4.5699    0.0000 H   0  0  0  0  0  0  0  0  0  0  0  0
   12.1845    3.0844    0.0000 H   0  0  0  0  0  0  0  0  0  0  0  0
   12.6229    3.8437    0.0000 H   0  0  0  0  0  0  0  0  0  0  0  0
   11.8636    4.2821    0.0000 H   0  0  0  0  0  0  0  0  0  0  0  0
    9.9126    3.6931    0.0000 H   0  0  0  0  0  0  0  0  0  0  0  0
    5.6720    0.7414    0.0000 H   0  0  0  0  0  0  0  0  0  0  0  0
    4.2690   -1.6886    0.0000 H   0  0  0  0  0  0  0  0  0  0  0  0
   12.6790   -4.4692    0.0000 H   0  0  0  0  0  0  0  0  0  0  0  0
   13.5367   -4.6515    0.0000 H   0  0  0  0  0  0  0  0  0  0  0  0
   13.7190   -3.7938    0.0000 H   0  0  0  0  0  0  0  0  0  0  0  0
   11.6233   -2.7260    0.0000 H   0  0  0  0  0  0  0  0  0  0  0  0
   11.0366   -3.3776    0.0000 H   0  0  0  0  0  0  0  0  0  0  0  0
   11.6882   -3.9643    0.0000 H   0  0  0  0  0  0  0  0  0  0  0  0
    2.8660   -0.8786    0.0000 H   0  0  0  0  0  0  0  0  0  0  0  0
    3.7320    2.2414    0.0000 H   0  0  0  0  0  0  0  0  0  0  0  0
    2.0000    0.6214    0.0000 H   0  0  0  0  0  0  0  0  0  0  0  0
  1 12  2  0  0  0  0
  2 16  2  0  0  0  0
  3 18  2  0  0  0  0
  4 25  1  0  0  0  0
  4 65  1  0  0  0  0
  5 42  1  0  0  0  0
  5 93  1  0  0  0  0
  6 44  1  0  0  0  0
  6 94  1  0  0  0  0
  7  8  1  0  0  0  0
  7  9  1  0  0  0  0
  7 13  1  0  0  0  0
  7 15  1  0  0  0  0
  8 12  1  0  0  0  0
  8 14  1  0  0  0  0
  8 16  1  0  0  0  0
  9 11  1  0  0  0  0
  9 17  1  0  0  0  0
  9 45  1  0  0  0  0
 10 11  1  0  0  0  0
 10 12  1  0  0  0  0
 10 18  1  0  0  0  0
 10 19  1  0  0  0  0
 11 46  1  0  0  0  0
 11 47  1  0  0  0  0
 13 21  1  0  0  0  0
 13 48  1  0  0  0  0
 13 49  1  0  0  0  0
 14 22  1  0  0  0  0
 14 50  1  0  0  0  0
 14 51  1  0  0  0  0
 15 52  1  0  0  0  0
 15 53  1  0  0  0  0
 15 54  1  0  0  0  0
 16 20  1  0  0  0  0
 17 23  1  0  0  0  0
 17 55  1  0  0  0  0
 17 56  1  0  0  0  0
 18 20  1  0  0  0  0
 19 24  1  0  0  0  0
 19 57  1  0  0  0  0
 19 58  1  0  0  0  0
 20 25  2  3  0  0  0
 21 26  1  0  0  0  0
 21 59  1  0  0  0  0
 21 60  1  0  0  0  0
 22 27  2  0  0  0  0
 22 61  1  0  0  0  0
 23 28  2  0  0  0  0
 23 62  1  0  0  0  0
 24 29  2  0  0  0  0
 24 63  1  0  0  0  0
 25 30  1  0  0  0  0
 26 31  2  0  0  0  0
 26 64  1  0  0  0  0
 27 32  1  0  0  0  0
 27 33  1  0  0  0  0
 28 34  1  0  0  0  0
 28 35  1  0  0  0  0
 29 36  1  0  0  0  0
 29 37  1  0  0  0  0
 30 38  2  0  0  0  0
 30 39  1  0  0  0  0
 31 40  1  0  0  0  0
 31 41  1  0  0  0  0
 32 69  1  0  0  0  0
 32 70  1  0  0  0  0
 32 71  1  0  0  0  0
 33 66  1  0  0  0  0
 33 67  1  0  0  0  0
 33 68  1  0  0  0  0
 34 72  1  0  0  0  0
 34 73  1  0  0  0  0
 34 74  1  0  0  0  0
 35 75  1  0  0  0  0
 35 76  1  0  0  0  0
 35 77  1  0  0  0  0
 36 80  1  0  0  0  0
 36 81  1  0  0  0  0
 36 82  1  0  0  0  0
 37 78  1  0  0  0  0
 37 79  1  0  0  0  0
 37 83  1  0  0  0  0
 38 42  1  0  0  0  0
 38 84  1  0  0  0  0
 39 43  2  0  0  0  0
 39 85  1  0  0  0  0
 40 86  1  0  0  0  0
 40 87  1  0  0  0  0
 40 88  1  0  0  0  0
 41 89  1  0  0  0  0
 41 90  1  0  0  0  0
 41 91  1  0  0  0  0
 42 44  2  0  0  0  0
 43 44  1  0  0  0  0
 43 92  1  0  0  0  0
M  END
> <PUBCHEM_COMPOUND_CID>
3527

> <PUBCHEM_COMPOUND_CANONICALIZED>
1

> <PUBCHEM_CACTVS_COMPLEXITY>
1290

> <PUBCHEM_CACTVS_HBOND_ACCEPTOR>
6

> <PUBCHEM_CACTVS_HBOND_DONOR>
3

> <PUBCHEM_CACTVS_ROTATABLE_BOND>
10

> <PUBCHEM_CACTVS_SUBSKEYS>
AAADcfB8OAAAAAAAAAAAAAAAAAAAAAAAAAAwYMAAAAAYAAABAAAAGgAACAAADwSAmAAyBoAAAgCIAqBSAAACAAAgIAAIiAEGiMgJJjKKERKAcAEkwBEJmQfI6vSvoAABAAAAQADAAAYAACCAAAAAAAAAAA==

> <PUBCHEM_IUPAC_OPENEYE_NAME>
3-[(3,4-dihydroxyphenyl)-hydroxy-methylene]-6-methyl-1,5,7-tris(3-methylbut-2-enyl)-6-(4-methylpent-3-enyl)bicyclo[3.3.1]nonane-2,4,9-trione

> <PUBCHEM_IUPAC_CAS_NAME>
3-[(3,4-dihydroxyphenyl)-hydroxymethylidene]-6-methyl-1,5,7-tris(3-methylbut-2-enyl)-6-(4-methylpent-3-enyl)bicyclo[3.3.1]nonane-2,4,9-trione

> <PUBCHEM_IUPAC_NAME>
3-[(3,4-dihydroxyphenyl)-hydroxymethylidene]-6-methyl-1,5,7-tris(3-methylbut-2-enyl)-6-(4-methylpent-3-enyl)bicyclo[3.3.1]nonane-2,4,9-trione

> <PUBCHEM_IUPAC_SYSTEMATIC_NAME>
3-[[3,4-bis(oxidanyl)phenyl]-oxidanyl-methylidene]-6-methyl-1,5,7-tris(3-methylbut-2-enyl)-6-(4-methylpent-3-enyl)bicyclo[3.3.1]nonane-2,4,9-trione

> <PUBCHEM_IUPAC_TRADITIONAL_NAME>
3-[(3,4-dihydroxyphenyl)-hydroxy-methylene]-6-methyl-1,5,7-tris(3-methylbut-2-enyl)-6-(4-methylpent-3-enyl)bicyclo[3.3.1]nonane-2,4,9-trione

> <PUBCHEM_IUPAC_INCHI>
InChI=1S/C38H50O6/c1-23(2)11-10-18-36(9)28(14-12-24(3)4)22-37(19-16-25(5)6)33(42)31(32(41)27-13-15-29(39)30(40)21-27)34(43)38(36,35(37)44)20-17-26(7)8/h11-13,15-17,21,28,39-41H,10,14,18-20,22H2,1-9H3

> <PUBCHEM_IUPAC_INCHIKEY>
SHBMQWRFQJLYJU-UHFFFAOYSA-N

> <PUBCHEM_XLOGP3_AA>
10.4

> <PUBCHEM_EXACT_MASS>
602.360739

> <PUBCHEM_MOLECULAR_FORMULA>
C38H50O6

> <PUBCHEM_MOLECULAR_WEIGHT>
602.8

> <PUBCHEM_OPENEYE_CAN_SMILES>
CC(=CCCC1(C(CC2(C(=O)C(=C(C3=CC(=C(C=C3)O)O)O)C(=O)C1(C2=O)CC=C(C)C)CC=C(C)C)CC=C(C)C)C)C

> <PUBCHEM_OPENEYE_ISO_SMILES>
CC(=CCCC1(C(CC2(C(=O)C(=C(C3=CC(=C(C=C3)O)O)O)C(=O)C1(C2=O)CC=C(C)C)CC=C(C)C)CC=C(C)C)C)C

> <PUBCHEM_CACTVS_TPSA>
112

> <PUBCHEM_MONOISOTOPIC_WEIGHT>
602.360739

> <PUBCHEM_TOTAL_CHARGE>
0

> <PUBCHEM_HEAVY_ATOM_COUNT>
44

> <PUBCHEM_ATOM_DEF_STEREO_COUNT>
0

> <PUBCHEM_ATOM_UDEF_STEREO_COUNT>
4

> <PUBCHEM_BOND_DEF_STEREO_COUNT>
0

> <PUBCHEM_BOND_UDEF_STEREO_COUNT>
1

> <PUBCHEM_ISOTOPIC_ATOM_COUNT>
0

> <PUBCHEM_COMPONENT_COUNT>
1

> <PUBCHEM_CACTVS_TAUTO_COUNT>
46

> <PUBCHEM_COORDINATE_TYPE>
1
5
255

> <PUBCHEM_BONDANNOTATIONS>
10  19  3
20  25  1
30  38  8
30  39  8
38  42  8
39  43  8
42  44  8
43  44  8
7  15  3
8  14  3
9  17  3

$$$$

