11543
  -OEChem-06261205483D

 21 20  0     0  0  0  0  0  0999 V2000
   -1.0421   -0.2297   -1.3962 O   0  0  0  0  0  0  0  0  0  0  0  0
   -0.9195    0.0209    0.0056 C   0  0  0  0  0  0  0  0  0  0  0  0
    0.4996    0.5581    0.2806 C   0  0  0  0  0  0  0  0  0  0  0  0
    1.6299   -0.3935   -0.1302 C   0  0  0  0  0  0  0  0  0  0  0  0
   -1.9546    1.0851    0.3853 C   0  0  0  0  0  0  0  0  0  0  0  0
   -1.2083   -1.2800    0.7578 C   0  0  0  0  0  0  0  0  0  0  0  0
    2.9951    0.2392    0.0971 C   0  0  0  0  0  0  0  0  0  0  0  0
    0.6021    0.8016    1.3458 H   0  0  0  0  0  0  0  0  0  0  0  0
    0.6340    1.4954   -0.2761 H   0  0  0  0  0  0  0  0  0  0  0  0
    1.5350   -0.6627   -1.1879 H   0  0  0  0  0  0  0  0  0  0  0  0
    1.5761   -1.3204    0.4505 H   0  0  0  0  0  0  0  0  0  0  0  0
   -2.9704    0.7452    0.1528 H   0  0  0  0  0  0  0  0  0  0  0  0
   -1.7986    2.0040   -0.1912 H   0  0  0  0  0  0  0  0  0  0  0  0
   -1.9076    1.3306    1.4513 H   0  0  0  0  0  0  0  0  0  0  0  0
   -0.5821   -2.1011    0.3934 H   0  0  0  0  0  0  0  0  0  0  0  0
   -2.2441   -1.6006    0.5955 H   0  0  0  0  0  0  0  0  0  0  0  0
   -1.0502   -1.1656    1.8349 H   0  0  0  0  0  0  0  0  0  0  0  0
    3.1387    0.4939    1.1521 H   0  0  0  0  0  0  0  0  0  0  0  0
    3.1084    1.1522   -0.4960 H   0  0  0  0  0  0  0  0  0  0  0  0
    3.7882   -0.4560   -0.1956 H   0  0  0  0  0  0  0  0  0  0  0  0
   -1.9406   -0.5613   -1.5651 H   0  0  0  0  0  0  0  0  0  0  0  0
  1  2  1  0  0  0  0
  1 21  1  0  0  0  0
  2  3  1  0  0  0  0
  2  5  1  0  0  0  0
  2  6  1  0  0  0  0
  3  4  1  0  0  0  0
  3  8  1  0  0  0  0
  3  9  1  0  0  0  0
  4  7  1  0  0  0  0
  4 10  1  0  0  0  0
  4 11  1  0  0  0  0
  5 12  1  0  0  0  0
  5 13  1  0  0  0  0
  5 14  1  0  0  0  0
  6 15  1  0  0  0  0
  6 16  1  0  0  0  0
  6 17  1  0  0  0  0
  7 18  1  0  0  0  0
  7 19  1  0  0  0  0
  7 20  1  0  0  0  0
M  END
> <PUBCHEM_COMPOUND_CID>
11543

> <PUBCHEM_CONFORMER_RMSD>
0.4

> <PUBCHEM_CONFORMER_DIVERSEORDER>
1
4
2
5
3

> <PUBCHEM_MMFF94_PARTIAL_CHARGES>
3
1 -0.68
2 0.28
21 0.4

> <PUBCHEM_EFFECTIVE_ROTOR_COUNT>
2

> <PUBCHEM_PHARMACOPHORE_FEATURES>
4
1 1 acceptor
1 1 donor
1 7 hydrophobe
3 2 5 6 hydrophobe

> <PUBCHEM_HEAVY_ATOM_COUNT>
7

> <PUBCHEM_ATOM_DEF_STEREO_COUNT>
0

> <PUBCHEM_ATOM_UDEF_STEREO_COUNT>
0

> <PUBCHEM_BOND_DEF_STEREO_COUNT>
0

> <PUBCHEM_BOND_UDEF_STEREO_COUNT>
0

> <PUBCHEM_ISOTOPIC_ATOM_COUNT>
0

> <PUBCHEM_COMPONENT_COUNT>
1

> <PUBCHEM_CACTVS_TAUTO_COUNT>
1

> <PUBCHEM_CONFORMER_ID>
00002D1700000001

> <PUBCHEM_MMFF94_ENERGY>
8.8284

> <PUBCHEM_FEATURE_SELFOVERLAP>
20.297

> <PUBCHEM_SHAPE_FINGERPRINT>
14390081 3 18113622287480243968
16714656 1 17131832075112433995
21040471 1 18270392926999797233
23235687 12 17560793312822513854
24536 1 18340778043793299072
29004967 10 18260821579880829314
369184 2 16845579694809780112
5460574 1 10519983764246412800
5943 1 13030546999720240847

> <PUBCHEM_SHAPE_MULTIPOLES>
138.19
3.4
1.11
0.93
2.7
0.17
0.26
-0.47
-0.3
-0.58
-0.23
-0.31
0.07
0.05

> <PUBCHEM_SHAPE_SELFOVERLAP>
244.231

> <PUBCHEM_SHAPE_VOLUME>
92.3

> <PUBCHEM_COORDINATE_TYPE>
2
5
10

$$$$

