12029
  -OEChem-06261206243D

 22 22  0     0  0  0  0  0  0999 V2000
   -2.3828   -2.1911    0.0003 O   0  5  0  0  0  0  0  0  0  0  0  0
    2.3829   -2.1909   -0.0016 O   0  5  0  0  0  0  0  0  0  0  0  0
   -3.5117   -0.3083   -0.0003 O   0  0  0  0  0  0  0  0  0  0  0  0
    3.5118   -0.3081   -0.0004 O   0  0  0  0  0  0  0  0  0  0  0  0
   -2.4280   -0.9383    0.0000 N   0  3  0  0  0  0  0  0  0  0  0  0
    2.4281   -0.9381   -0.0002 N   0  3  0  0  0  0  0  0  0  0  0  0
   -1.2081    1.1880   -0.0001 C   0  0  0  0  0  0  0  0  0  0  0  0
    1.2078    1.1882    0.0008 C   0  0  0  0  0  0  0  0  0  0  0  0
   -1.2080   -0.2069    0.0004 C   0  0  0  0  0  0  0  0  0  0  0  0
    1.2080   -0.2066    0.0013 C   0  0  0  0  0  0  0  0  0  0  0  0
   -0.0002    1.8856    0.0003 C   0  0  0  0  0  0  0  0  0  0  0  0
    0.0002   -0.9042    0.0012 C   0  0  0  0  0  0  0  0  0  0  0  0
   -2.4846    1.9656   -0.0015 C   0  0  0  0  0  0  0  0  0  0  0  0
    2.4847    1.9652   -0.0002 C   0  0  0  0  0  0  0  0  0  0  0  0
   -0.0003    2.9730   -0.0003 H   0  0  0  0  0  0  0  0  0  0  0  0
    0.0002   -1.9917    0.0013 H   0  0  0  0  0  0  0  0  0  0  0  0
   -3.0695    1.7959    0.9085 H   0  0  0  0  0  0  0  0  0  0  0  0
   -2.2737    3.0431   -0.0022 H   0  0  0  0  0  0  0  0  0  0  0  0
   -3.0683    1.7945   -0.9120 H   0  0  0  0  0  0  0  0  0  0  0  0
    3.0696    1.7949    0.9097 H   0  0  0  0  0  0  0  0  0  0  0  0
    3.0683    1.7947   -0.9110 H   0  0  0  0  0  0  0  0  0  0  0  0
    2.2739    3.0427   -0.0001 H   0  0  0  0  0  0  0  0  0  0  0  0
  1  5  1  0  0  0  0
  2  6  1  0  0  0  0
  3  5  2  0  0  0  0
  4  6  2  0  0  0  0
  5  9  1  0  0  0  0
  6 10  1  0  0  0  0
  7  9  2  0  0  0  0
  7 11  1  0  0  0  0
  7 13  1  0  0  0  0
  8 10  1  0  0  0  0
  8 11  2  0  0  0  0
  8 14  1  0  0  0  0
  9 12  1  0  0  0  0
 10 12  2  0  0  0  0
 11 15  1  0  0  0  0
 12 16  1  0  0  0  0
 13 17  1  0  0  0  0
 13 18  1  0  0  0  0
 13 19  1  0  0  0  0
 14 20  1  0  0  0  0
 14 21  1  0  0  0  0
 14 22  1  0  0  0  0
M  CHG  4   1  -1   2  -1   5   1   6   1
M  END
> <PUBCHEM_COMPOUND_CID>
12029

> <PUBCHEM_CONFORMER_RMSD>
0.6

> <PUBCHEM_CONFORMER_DIVERSEORDER>
1

> <PUBCHEM_MMFF94_PARTIAL_CHARGES>
16
1 -0.52
10 0.13
11 -0.15
12 -0.15
13 0.14
14 0.14
15 0.15
16 0.15
2 -0.52
3 -0.52
4 -0.52
5 0.91
6 0.91
7 -0.14
8 -0.14
9 0.13

> <PUBCHEM_EFFECTIVE_ROTOR_COUNT>
2

> <PUBCHEM_PHARMACOPHORE_FEATURES>
7
1 1 acceptor
1 1 anion
1 2 acceptor
1 2 anion
1 3 acceptor
1 4 acceptor
6 7 8 9 10 11 12 rings

> <PUBCHEM_HEAVY_ATOM_COUNT>
14

> <PUBCHEM_ATOM_DEF_STEREO_COUNT>
0

> <PUBCHEM_ATOM_UDEF_STEREO_COUNT>
0

> <PUBCHEM_BOND_DEF_STEREO_COUNT>
0

> <PUBCHEM_BOND_UDEF_STEREO_COUNT>
0

> <PUBCHEM_ISOTOPIC_ATOM_COUNT>
0

> <PUBCHEM_COMPONENT_COUNT>
1

> <PUBCHEM_CACTVS_TAUTO_COUNT>
1

> <PUBCHEM_CONFORMER_ID>
00002EFD00000001

> <PUBCHEM_MMFF94_ENERGY>
59.267

> <PUBCHEM_FEATURE_SELFOVERLAP>
35.684

> <PUBCHEM_SHAPE_FINGERPRINT>
10608611 8 18410860961981826624
10967382 1 18410855438695536325
13380535 21 18410845568818972804
14576447 43 17682976392383719551
15442244 35 18265895946017302120
15536298 74 18334011662469241352
16945 1 18410573989446587332
17990270 104 18410575115086559146
193761 8 18410856559640146848
19973954 147 18410856559640075392
20201158 50 18412266120688356154
20511035 2 18115039596396370876
20645477 70 18337113363296601703
20711985 365 18410857685295936421
20871998 184 18187367683158242511
21501502 16 18410571786128572356
21501925 9 18339092531191163576
2334 1 18410575058904168933
23463225 33 18410854395029136908
23552423 10 18343017778933138492
23559900 14 18191589873109520526
2748010 2 18410577283691940676
7364860 26 18334858282022153592
8809292 202 18272647905137144235

> <PUBCHEM_SHAPE_MULTIPOLES>
254.67
4.85
2.44
0.58
0
0.03
0
0.96
0
0
0
0
-0.05
0

> <PUBCHEM_SHAPE_SELFOVERLAP>
540.16

> <PUBCHEM_SHAPE_VOLUME>
144

> <PUBCHEM_COORDINATE_TYPE>
2
5
10

$$$$

