10513
  -OEChem-06261204382D

 50 55  0     1  0  0  0  0  0999 V2000
    3.2360    2.3877    0.0000 O   0  0  0  0  0  0  0  0  0  0  0  0
    2.5452    1.2320    0.0000 O   0  0  0  0  0  0  0  0  0  0  0  0
    2.0000   -0.2251    0.0000 O   0  0  0  0  0  0  0  0  0  0  0  0
    7.1357   -0.1244    0.0000 N   0  0  3  0  0  0  0  0  0  0  0  0
    3.6948   -0.5823    0.0000 N   0  0  0  0  0  0  0  0  0  0  0  0
    5.2979   -0.4152    0.0000 C   0  0  2  0  0  0  0  0  0  0  0  0
    6.1639    0.0848    0.0000 C   0  0  3  0  0  0  0  0  0  0  0  0
    4.4318    0.0848    0.0000 C   0  0  3  0  0  0  0  0  0  0  0  0
    4.4318    1.0848    0.0000 C   0  0  3  0  0  0  0  0  0  0  0  0
    5.2979    1.5848    0.0000 C   0  0  3  0  0  0  0  0  0  0  0  0
    6.1639    1.0848    0.0000 C   0  0  0  0  0  0  0  0  0  0  0  0
    5.9650   -1.1522    0.0000 C   0  0  0  0  0  0  0  0  0  0  0  0
    7.0558   -0.9301    0.0000 C   0  0  0  0  0  0  0  0  0  0  0  0
    5.0887   -1.3870    0.0000 C   0  0  0  0  0  0  0  0  0  0  0  0
    5.4375    2.5556    0.0000 C   0  0  0  0  0  0  0  0  0  0  0  0
    7.0603    1.7058    0.0000 C   0  0  0  0  0  0  0  0  0  0  0  0
    4.0999   -1.4900    0.0000 C   0  0  0  0  0  0  0  0  0  0  0  0
    3.5213    1.4493    0.0000 C   0  0  3  0  0  0  0  0  0  0  0  0
    5.7094   -2.2158    0.0000 C   0  0  0  0  0  0  0  0  0  0  0  0
    4.7675    3.2719    0.0000 C   0  0  0  0  0  0  0  0  0  0  0  0
    2.7443   -0.8929    0.0000 C   0  0  0  0  0  0  0  0  0  0  0  0
    3.6634   -2.4290    0.0000 C   0  0  0  0  0  0  0  0  0  0  0  0
    3.7896    3.1973    0.0000 C   0  0  0  0  0  0  0  0  0  0  0  0
    5.2947   -3.1646    0.0000 C   0  0  0  0  0  0  0  0  0  0  0  0
    4.2648   -3.2719    0.0000 C   0  0  0  0  0  0  0  0  0  0  0  0
    2.5380   -1.8714    0.0000 C   0  0  0  0  0  0  0  0  0  0  0  0
    6.2601   -0.5277    0.0000 H   0  0  0  0  0  0  0  0  0  0  0  0
    3.8651    0.3363    0.0000 H   0  0  0  0  0  0  0  0  0  0  0  0
    3.9184    0.7373    0.0000 H   0  0  0  0  0  0  0  0  0  0  0  0
    5.2979    0.9648    0.0000 H   0  0  0  0  0  0  0  0  0  0  0  0
    6.7745    0.9772    0.0000 H   0  0  0  0  0  0  0  0  0  0  0  0
    6.3759    1.6674    0.0000 H   0  0  0  0  0  0  0  0  0  0  0  0
    5.4388   -1.4802    0.0000 H   0  0  0  0  0  0  0  0  0  0  0  0
    6.1944   -1.7282    0.0000 H   0  0  0  0  0  0  0  0  0  0  0  0
    7.1182   -1.5469    0.0000 H   0  0  0  0  0  0  0  0  0  0  0  0
    7.6758   -0.9295    0.0000 H   0  0  0  0  0  0  0  0  0  0  0  0
    7.6748    1.6234    0.0000 H   0  0  0  0  0  0  0  0  0  0  0  0
    7.2481    2.2967    0.0000 H   0  0  0  0  0  0  0  0  0  0  0  0
    3.4712    0.8313    0.0000 H   0  0  0  0  0  0  0  0  0  0  0  0
    6.3253   -2.1444    0.0000 H   0  0  0  0  0  0  0  0  0  0  0  0
    4.9925    3.8496    0.0000 H   0  0  0  0  0  0  0  0  0  0  0  0
    3.0461   -2.4861    0.0000 H   0  0  0  0  0  0  0  0  0  0  0  0
    3.8817    3.8104    0.0000 H   0  0  0  0  0  0  0  0  0  0  0  0
    3.2125    3.4241    0.0000 H   0  0  0  0  0  0  0  0  0  0  0  0
    2.1259    1.6888    0.0000 H   0  0  0  0  0  0  0  0  0  0  0  0
    5.6607   -3.6650    0.0000 H   0  0  0  0  0  0  0  0  0  0  0  0
    4.0100   -3.8371    0.0000 H   0  0  0  0  0  0  0  0  0  0  0  0
    1.9314   -1.7435    0.0000 H   0  0  0  0  0  0  0  0  0  0  0  0
    2.4101   -2.4780    0.0000 H   0  0  0  0  0  0  0  0  0  0  0  0
    3.1447   -1.9993    0.0000 H   0  0  0  0  0  0  0  0  0  0  0  0
  1 18  1  0  0  0  0
  1 23  1  0  0  0  0
  2 18  1  0  0  0  0
  2 45  1  0  0  0  0
  3 21  2  0  0  0  0
  4  7  1  0  0  0  0
  4 13  1  0  0  0  0
  4 16  1  0  0  0  0
  5  8  1  0  0  0  0
  5 17  1  0  0  0  0
  5 21  1  0  0  0  0
  6  7  1  0  0  0  0
  6  8  1  0  0  0  0
  6 12  1  0  0  0  0
  6 14  1  6  0  0  0
  7 11  1  0  0  0  0
  7 27  1  0  0  0  0
  8  9  1  0  0  0  0
  8 28  1  0  0  0  0
  9 10  1  0  0  0  0
  9 18  1  0  0  0  0
  9 29  1  0  0  0  0
 10 11  1  0  0  0  0
 10 15  1  0  0  0  0
 10 30  1  0  0  0  0
 11 31  1  0  0  0  0
 11 32  1  0  0  0  0
 12 13  1  0  0  0  0
 12 33  1  0  0  0  0
 12 34  1  0  0  0  0
 13 35  1  0  0  0  0
 13 36  1  0  0  0  0
 14 17  1  0  0  0  0
 14 19  2  0  0  0  0
 15 16  1  0  0  0  0
 15 20  2  0  0  0  0
 16 37  1  0  0  0  0
 16 38  1  0  0  0  0
 17 22  2  0  0  0  0
 18 39  1  0  0  0  0
 19 24  1  0  0  0  0
 19 40  1  0  0  0  0
 20 23  1  0  0  0  0
 20 41  1  0  0  0  0
 21 26  1  0  0  0  0
 22 25  1  0  0  0  0
 22 42  1  0  0  0  0
 23 43  1  0  0  0  0
 23 44  1  0  0  0  0
 24 25  2  0  0  0  0
 24 46  1  0  0  0  0
 25 47  1  0  0  0  0
 26 48  1  0  0  0  0
 26 49  1  0  0  0  0
 26 50  1  0  0  0  0
M  END
> <PUBCHEM_COMPOUND_CID>
10513

> <PUBCHEM_COMPOUND_CANONICALIZED>
1

> <PUBCHEM_CACTVS_COMPLEXITY>
678

> <PUBCHEM_CACTVS_HBOND_ACCEPTOR>
4

> <PUBCHEM_CACTVS_HBOND_DONOR>
1

> <PUBCHEM_CACTVS_ROTATABLE_BOND>
0

> <PUBCHEM_CACTVS_SUBSKEYS>
AAADceB7MAAAAAAAAAAAAAAAAAAAAWLAAAA8YIAABAAAAFgBAAAAHgAACAAADyjxmAcyyIMABgCIAiVSUACCAAAhAgAIiAAIZIgYNCLA8ZGGcAhmhgDM6AeQ0PMPgAAAAAACAACQAASACCQAAAAAAAAAAA==

> <PUBCHEM_IUPAC_INCHI>
InChI=1S/C21H24N2O3/c1-12(24)23-16-5-3-2-4-15(16)21-7-8-22-11-13-6-9-26-20(25)18(19(21)23)14(13)10-17(21)22/h2-6,14,17-20,25H,7-11H2,1H3/t14?,17?,18?,19?,20?,21-/m0/s1

> <PUBCHEM_IUPAC_INCHIKEY>
QSDMAJZSSDNJPO-HBFURJNBSA-N

> <PUBCHEM_XLOGP3_AA>
0.7

> <PUBCHEM_EXACT_MASS>
352.178693

> <PUBCHEM_MOLECULAR_FORMULA>
C21H24N2O3

> <PUBCHEM_MOLECULAR_WEIGHT>
352.42686

> <PUBCHEM_OPENEYE_CAN_SMILES>
CC(=O)N1C2C3C4CC5C2(CCN5CC4=CCOC3O)C6=CC=CC=C61

> <PUBCHEM_OPENEYE_ISO_SMILES>
CC(=O)N1C2C3C4CC5[C@]2(CCN5CC4=CCOC3O)C6=CC=CC=C61

> <PUBCHEM_CACTVS_TPSA>
53

> <PUBCHEM_MONOISOTOPIC_WEIGHT>
352.178693

> <PUBCHEM_TOTAL_CHARGE>
0

> <PUBCHEM_HEAVY_ATOM_COUNT>
26

> <PUBCHEM_ATOM_DEF_STEREO_COUNT>
1

> <PUBCHEM_ATOM_UDEF_STEREO_COUNT>
5

> <PUBCHEM_BOND_DEF_STEREO_COUNT>
0

> <PUBCHEM_BOND_UDEF_STEREO_COUNT>
0

> <PUBCHEM_ISOTOPIC_ATOM_COUNT>
0

> <PUBCHEM_COMPONENT_COUNT>
1

> <PUBCHEM_CACTVS_TAUTO_COUNT>
1

> <PUBCHEM_COORDINATE_TYPE>
1
5
255

> <PUBCHEM_BONDANNOTATIONS>
10  11  3
14  17  8
14  19  8
17  22  8
19  24  8
18  2  3
22  25  8
24  25  8
8  5  3
6  14  6
7  11  3
9  18  3

$$$$

