9103
  -OEChem-06261203243D

 40 46  0     0  0  0  0  0  0999 V2000
    1.4221    0.0000    0.0002 C   0  0  0  0  0  0  0  0  0  0  0  0
   -1.4221    0.0000    0.0001 C   0  0  0  0  0  0  0  0  0  0  0  0
    0.7164   -1.2307    0.0002 C   0  0  0  0  0  0  0  0  0  0  0  0
   -0.7163   -1.2307    0.0002 C   0  0  0  0  0  0  0  0  0  0  0  0
    0.7163    1.2307    0.0001 C   0  0  0  0  0  0  0  0  0  0  0  0
   -0.7164    1.2307    0.0001 C   0  0  0  0  0  0  0  0  0  0  0  0
    2.8550    0.0000    0.0001 C   0  0  0  0  0  0  0  0  0  0  0  0
   -2.8549    0.0000    0.0000 C   0  0  0  0  0  0  0  0  0  0  0  0
    3.5801    1.2129    0.0000 C   0  0  0  0  0  0  0  0  0  0  0  0
   -3.5800    1.2128    0.0000 C   0  0  0  0  0  0  0  0  0  0  0  0
    3.5801   -1.2129    0.0000 C   0  0  0  0  0  0  0  0  0  0  0  0
   -3.5801   -1.2129   -0.0001 C   0  0  0  0  0  0  0  0  0  0  0  0
    1.4882   -2.4183    0.0002 C   0  0  0  0  0  0  0  0  0  0  0  0
   -1.4881   -2.4182    0.0000 C   0  0  0  0  0  0  0  0  0  0  0  0
    1.4881    2.4183    0.0001 C   0  0  0  0  0  0  0  0  0  0  0  0
   -1.4881    2.4183    0.0001 C   0  0  0  0  0  0  0  0  0  0  0  0
    2.8823    2.4139    0.0001 C   0  0  0  0  0  0  0  0  0  0  0  0
   -2.8823    2.4139    0.0000 C   0  0  0  0  0  0  0  0  0  0  0  0
    2.8824   -2.4139    0.0001 C   0  0  0  0  0  0  0  0  0  0  0  0
   -2.8824   -2.4139   -0.0001 C   0  0  0  0  0  0  0  0  0  0  0  0
    4.9833    1.2027   -0.0002 C   0  0  0  0  0  0  0  0  0  0  0  0
   -4.9833    1.2027   -0.0001 C   0  0  0  0  0  0  0  0  0  0  0  0
    4.9832   -1.2027   -0.0003 C   0  0  0  0  0  0  0  0  0  0  0  0
   -4.9833   -1.2027   -0.0002 C   0  0  0  0  0  0  0  0  0  0  0  0
    5.6810    0.0000   -0.0004 C   0  0  0  0  0  0  0  0  0  0  0  0
   -5.6810   -0.0001   -0.0002 C   0  0  0  0  0  0  0  0  0  0  0  0
    1.0199   -3.3990    0.0003 H   0  0  0  0  0  0  0  0  0  0  0  0
   -1.0198   -3.3990   -0.0001 H   0  0  0  0  0  0  0  0  0  0  0  0
    1.0199    3.3990    0.0001 H   0  0  0  0  0  0  0  0  0  0  0  0
   -1.0198    3.3990    0.0001 H   0  0  0  0  0  0  0  0  0  0  0  0
    3.4080    3.3664    0.0000 H   0  0  0  0  0  0  0  0  0  0  0  0
   -3.4082    3.3664   -0.0001 H   0  0  0  0  0  0  0  0  0  0  0  0
    3.4082   -3.3664    0.0000 H   0  0  0  0  0  0  0  0  0  0  0  0
   -3.4082   -3.3664   -0.0003 H   0  0  0  0  0  0  0  0  0  0  0  0
    5.5454    2.1343   -0.0002 H   0  0  0  0  0  0  0  0  0  0  0  0
   -5.5454    2.1343   -0.0002 H   0  0  0  0  0  0  0  0  0  0  0  0
    5.5454   -2.1343   -0.0004 H   0  0  0  0  0  0  0  0  0  0  0  0
   -5.5454   -2.1344   -0.0004 H   0  0  0  0  0  0  0  0  0  0  0  0
    6.7669    0.0000   -0.0006 H   0  0  0  0  0  0  0  0  0  0  0  0
   -6.7669   -0.0001   -0.0003 H   0  0  0  0  0  0  0  0  0  0  0  0
  1  3  2  0  0  0  0
  1  5  1  0  0  0  0
  1  7  1  0  0  0  0
  2  4  2  0  0  0  0
  2  6  1  0  0  0  0
  2  8  1  0  0  0  0
  3  4  1  0  0  0  0
  3 13  1  0  0  0  0
  4 14  1  0  0  0  0
  5  6  2  0  0  0  0
  5 15  1  0  0  0  0
  6 16  1  0  0  0  0
  7  9  2  0  0  0  0
  7 11  1  0  0  0  0
  8 10  2  0  0  0  0
  8 12  1  0  0  0  0
  9 17  1  0  0  0  0
  9 21  1  0  0  0  0
 10 18  1  0  0  0  0
 10 22  1  0  0  0  0
 11 19  1  0  0  0  0
 11 23  2  0  0  0  0
 12 20  1  0  0  0  0
 12 24  2  0  0  0  0
 13 19  2  0  0  0  0
 13 27  1  0  0  0  0
 14 20  2  0  0  0  0
 14 28  1  0  0  0  0
 15 17  2  0  0  0  0
 15 29  1  0  0  0  0
 16 18  2  0  0  0  0
 16 30  1  0  0  0  0
 17 31  1  0  0  0  0
 18 32  1  0  0  0  0
 19 33  1  0  0  0  0
 20 34  1  0  0  0  0
 21 25  2  0  0  0  0
 21 35  1  0  0  0  0
 22 26  2  0  0  0  0
 22 36  1  0  0  0  0
 23 25  1  0  0  0  0
 23 37  1  0  0  0  0
 24 26  1  0  0  0  0
 24 38  1  0  0  0  0
 25 39  1  0  0  0  0
 26 40  1  0  0  0  0
M  END
> <PUBCHEM_COMPOUND_CID>
9103

> <PUBCHEM_CONFORMER_RMSD>
0.6

> <PUBCHEM_CONFORMER_DIVERSEORDER>
1

> <PUBCHEM_MMFF94_PARTIAL_CHARGES>
28
13 -0.15
14 -0.15
15 -0.15
16 -0.15
17 -0.15
18 -0.15
19 -0.15
20 -0.15
21 -0.15
22 -0.15
23 -0.15
24 -0.15
25 -0.15
26 -0.15
27 0.15
28 0.15
29 0.15
30 0.15
31 0.15
32 0.15
33 0.15
34 0.15
35 0.15
36 0.15
37 0.15
38 0.15
39 0.15
40 0.15

> <PUBCHEM_EFFECTIVE_ROTOR_COUNT>
0

> <PUBCHEM_PHARMACOPHORE_FEATURES>
7
6 1 2 3 4 5 6 rings
6 1 3 7 11 13 19 rings
6 1 5 7 9 15 17 rings
6 2 4 8 12 14 20 rings
6 2 6 8 10 16 18 rings
6 7 9 11 21 23 25 rings
6 8 10 12 22 24 26 rings

> <PUBCHEM_HEAVY_ATOM_COUNT>
26

> <PUBCHEM_ATOM_DEF_STEREO_COUNT>
0

> <PUBCHEM_ATOM_UDEF_STEREO_COUNT>
0

> <PUBCHEM_BOND_DEF_STEREO_COUNT>
0

> <PUBCHEM_BOND_UDEF_STEREO_COUNT>
0

> <PUBCHEM_ISOTOPIC_ATOM_COUNT>
0

> <PUBCHEM_COMPONENT_COUNT>
1

> <PUBCHEM_CACTVS_TAUTO_COUNT>
1

> <PUBCHEM_CONFORMER_ID>
0000238F00000001

> <PUBCHEM_MMFF94_ENERGY>
106.1196

> <PUBCHEM_FEATURE_SELFOVERLAP>
35.77

> <PUBCHEM_SHAPE_FINGERPRINT>
10 15 18339933619681137576
10616163 171 18410009897058336582
10675989 125 16612243875695636453
10906281 52 18338779174398063786
10967382 1 18410575080384072293
1100329 8 18410573946496745624
11135609 12 17845074200621487715
11513181 2 18041279975691814983
12107183 9 17690280834008875722
12788726 201 17603859057168739505
12838862 33 18338817661594936352
13140716 1 18266458702586315017
13224815 77 18410856563934756890
13402501 40 18410575084663078916
138480 1 17762056944623420487
14341114 176 18410851066387258440
14790565 3 18410851062082001473
15196674 1 18410575088958046208
15219462 58 15769782380845604516
15927050 60 17398669008699212749
1601671 61 18410012139532243010
17492 89 18410574015327921003
1813 80 17203608189942111628
18681886 176 18335425630269720312
19591789 44 18410856563934789345
200 152 18113620084066873985
20028762 73 18187651283981020686
20775438 99 16383154555270524279
21033648 29 17845671308012555221
21133410 171 17182560114567978582
21236236 1 18408603677515503209
21267235 1 18410566288570388003
21279426 13 18338797939104678367
21421861 104 17987527064302372898
221490 88 18340481184085413738
23227448 37 18408324371655883751
23402539 116 18334863792454352863
23559900 14 18408891702418002520
23566358 2 18337674229657562951
3004659 81 18343863329946353932
335352 9 18410856576819659189
338550 245 18342735187417983476
34934 24 18410578383198410467
350125 39 18410854360627421324
3545911 37 18410573985151470636
3633792 109 18338526347924466693
3680242 22 18270684285160746530
4073 2 18059569148722784378
4093350 32 17095797832570778775
4214541 1 18410573998131525925
4280585 95 17613427162458233254
474 4 17775279431145815582
5104073 3 18410573993741386688
9709674 26 18409442609214592942
9981440 41 17262153628042068040

> <PUBCHEM_SHAPE_MULTIPOLES>
535.07
11.37
3.09
0.62
0
0
0
0
0
0
0
0
0
0

> <PUBCHEM_SHAPE_SELFOVERLAP>
1288.618

> <PUBCHEM_SHAPE_VOLUME>
232.5

> <PUBCHEM_COORDINATE_TYPE>
2
5
10

$$$$

