585232
  -OEChem-06241222452D

 48 51  0     0  0  0  0  0  0999 V2000
    4.5390    0.4301    0.0000 O   0  0  0  0  0  0  0  0  0  0  0  0
    3.6730    1.9301    0.0000 O   0  0  0  0  0  0  0  0  0  0  0  0
    3.6730   -1.0699    0.0000 C   0  0  0  0  0  0  0  0  0  0  0  0
    4.5092   -2.5182    0.0000 C   0  0  0  0  0  0  0  0  0  0  0  0
    2.8368   -2.5182    0.0000 C   0  0  0  0  0  0  0  0  0  0  0  0
    2.9819   -2.9533    0.0000 C   0  0  0  0  0  0  0  0  0  0  0  0
    4.5092   -1.5527    0.0000 C   0  0  0  0  0  0  0  0  0  0  0  0
    2.8368   -1.5527    0.0000 C   0  0  0  0  0  0  0  0  0  0  0  0
    2.9819   -1.9080    0.0000 C   0  0  0  0  0  0  0  0  0  0  0  0
    3.6730   -2.8210    0.0000 C   0  0  0  0  0  0  0  0  0  0  0  0
    3.8876   -3.4301    0.0000 C   0  0  0  0  0  0  0  0  0  0  0  0
    2.0000   -3.0010    0.0000 C   0  0  0  0  0  0  0  0  0  0  0  0
    3.6730   -0.0699    0.0000 C   0  0  0  0  0  0  0  0  0  0  0  0
    4.5390    1.4301    0.0000 C   0  0  0  0  0  0  0  0  0  0  0  0
    5.4050    1.9301    0.0000 C   0  0  0  0  0  0  0  0  0  0  0  0
    6.2711    1.4301    0.0000 C   0  0  0  0  0  0  0  0  0  0  0  0
    5.4050    2.9301    0.0000 C   0  0  0  0  0  0  0  0  0  0  0  0
    7.1371    1.9301    0.0000 C   0  0  0  0  0  0  0  0  0  0  0  0
    6.2711    3.4301    0.0000 C   0  0  0  0  0  0  0  0  0  0  0  0
    7.1371    2.9301    0.0000 C   0  0  0  0  0  0  0  0  0  0  0  0
    5.1016   -2.7009    0.0000 H   0  0  0  0  0  0  0  0  0  0  0  0
    2.8912   -3.1358    0.0000 H   0  0  0  0  0  0  0  0  0  0  0  0
    2.8478   -3.5586    0.0000 H   0  0  0  0  0  0  0  0  0  0  0  0
    2.6383   -1.3920    0.0000 H   0  0  0  0  0  0  0  0  0  0  0  0
    5.1198   -1.6603    0.0000 H   0  0  0  0  0  0  0  0  0  0  0  0
    4.7212   -0.9701    0.0000 H   0  0  0  0  0  0  0  0  0  0  0  0
    2.6247   -0.9701    0.0000 H   0  0  0  0  0  0  0  0  0  0  0  0
    2.2262   -1.6603    0.0000 H   0  0  0  0  0  0  0  0  0  0  0  0
    2.3885   -2.0875    0.0000 H   0  0  0  0  0  0  0  0  0  0  0  0
    1.5188   -2.6101    0.0000 H   0  0  0  0  0  0  0  0  0  0  0  0
    3.5782   -3.9674    0.0000 H   0  0  0  0  0  0  0  0  0  0  0  0
    4.4127   -3.7597    0.0000 H   0  0  0  0  0  0  0  0  0  0  0  0
    3.3030   -3.3185    0.0000 H   0  0  0  0  0  0  0  0  0  0  0  0
    4.0430   -3.3185    0.0000 H   0  0  0  0  0  0  0  0  0  0  0  0
    1.8068   -3.5901    0.0000 H   0  0  0  0  0  0  0  0  0  0  0  0
    3.4609    0.5127    0.0000 H   0  0  0  0  0  0  0  0  0  0  0  0
    3.0624   -0.1776    0.0000 H   0  0  0  0  0  0  0  0  0  0  0  0
    5.4050    1.3101    0.0000 H   0  0  0  0  0  0  0  0  0  0  0  0
    5.1930    3.5127    0.0000 H   0  0  0  0  0  0  0  0  0  0  0  0
    4.7945    2.8224    0.0000 H   0  0  0  0  0  0  0  0  0  0  0  0
    5.8725    0.9552    0.0000 H   0  0  0  0  0  0  0  0  0  0  0  0
    6.6696    0.9552    0.0000 H   0  0  0  0  0  0  0  0  0  0  0  0
    7.3492    1.3475    0.0000 H   0  0  0  0  0  0  0  0  0  0  0  0
    7.7477    2.0378    0.0000 H   0  0  0  0  0  0  0  0  0  0  0  0
    6.6696    3.9051    0.0000 H   0  0  0  0  0  0  0  0  0  0  0  0
    5.8725    3.9051    0.0000 H   0  0  0  0  0  0  0  0  0  0  0  0
    7.7477    2.8225    0.0000 H   0  0  0  0  0  0  0  0  0  0  0  0
    7.3491    3.5127    0.0000 H   0  0  0  0  0  0  0  0  0  0  0  0
  1 13  1  0  0  0  0
  1 14  1  0  0  0  0
  2 14  2  0  0  0  0
  3  7  1  0  0  0  0
  3  8  1  0  0  0  0
  3  9  1  0  0  0  0
  3 13  1  0  0  0  0
  4  7  1  0  0  0  0
  4 10  1  0  0  0  0
  4 11  1  0  0  0  0
  4 21  1  0  0  0  0
  5  8  1  0  0  0  0
  5 10  1  0  0  0  0
  5 12  1  0  0  0  0
  5 22  1  0  0  0  0
  6  9  1  0  0  0  0
  6 11  1  0  0  0  0
  6 12  1  0  0  0  0
  6 23  1  0  0  0  0
  7 25  1  0  0  0  0
  7 26  1  0  0  0  0
  8 27  1  0  0  0  0
  8 28  1  0  0  0  0
  9 24  1  0  0  0  0
  9 29  1  0  0  0  0
 10 33  1  0  0  0  0
 10 34  1  0  0  0  0
 11 31  1  0  0  0  0
 11 32  1  0  0  0  0
 12 30  1  0  0  0  0
 12 35  1  0  0  0  0
 13 36  1  0  0  0  0
 13 37  1  0  0  0  0
 14 15  1  0  0  0  0
 15 16  1  0  0  0  0
 15 17  1  0  0  0  0
 15 38  1  0  0  0  0
 16 18  1  0  0  0  0
 16 41  1  0  0  0  0
 16 42  1  0  0  0  0
 17 19  1  0  0  0  0
 17 39  1  0  0  0  0
 17 40  1  0  0  0  0
 18 20  1  0  0  0  0
 18 43  1  0  0  0  0
 18 44  1  0  0  0  0
 19 20  1  0  0  0  0
 19 45  1  0  0  0  0
 19 46  1  0  0  0  0
 20 47  1  0  0  0  0
 20 48  1  0  0  0  0
M  END
> <PUBCHEM_COMPOUND_CID>
585232

> <PUBCHEM_COMPOUND_CANONICALIZED>
1

> <PUBCHEM_CACTVS_COMPLEXITY>
340

> <PUBCHEM_CACTVS_HBOND_ACCEPTOR>
2

> <PUBCHEM_CACTVS_HBOND_DONOR>
0

> <PUBCHEM_CACTVS_ROTATABLE_BOND>
4

> <PUBCHEM_CACTVS_SUBSKEYS>
AAADceB4MAAAAAAAAAAAAAAAAAAAAAAAAAAwYMGDAAAAAAAAAAAAGgAAAAAADwCggAIACAAABAAIAACQCAAAAAAAAAAAAAEAAAAAABIAAAACAAAEAAAAAAGIyOCPAAAAAAAAAAAAAAQAAAAAAAAAAAAAAA==

> <PUBCHEM_IUPAC_OPENEYE_NAME>
1-adamantylmethyl cyclohexanecarboxylate

> <PUBCHEM_IUPAC_CAS_NAME>
cyclohexanecarboxylic acid 1-adamantylmethyl ester

> <PUBCHEM_IUPAC_NAME>
1-adamantylmethyl cyclohexanecarboxylate

> <PUBCHEM_IUPAC_SYSTEMATIC_NAME>
1-adamantylmethyl cyclohexanecarboxylate

> <PUBCHEM_IUPAC_TRADITIONAL_NAME>
cyclohexanecarboxylic acid 1-adamantylmethyl ester

> <PUBCHEM_IUPAC_INCHI>
InChI=1S/C18H28O2/c19-17(16-4-2-1-3-5-16)20-12-18-9-13-6-14(10-18)8-15(7-13)11-18/h13-16H,1-12H2

> <PUBCHEM_IUPAC_INCHIKEY>
RFJXIHACUFQJTK-UHFFFAOYSA-N

> <PUBCHEM_XLOGP3_AA>
5.1

> <PUBCHEM_EXACT_MASS>
276.20893

> <PUBCHEM_MOLECULAR_FORMULA>
C18H28O2

> <PUBCHEM_MOLECULAR_WEIGHT>
276.41372

> <PUBCHEM_OPENEYE_CAN_SMILES>
C1CCC(CC1)C(=O)OCC23CC4CC(C2)CC(C4)C3

> <PUBCHEM_OPENEYE_ISO_SMILES>
C1CCC(CC1)C(=O)OCC23CC4CC(C2)CC(C4)C3

> <PUBCHEM_CACTVS_TPSA>
26.3

> <PUBCHEM_MONOISOTOPIC_WEIGHT>
276.20893

> <PUBCHEM_TOTAL_CHARGE>
0

> <PUBCHEM_HEAVY_ATOM_COUNT>
20

> <PUBCHEM_ATOM_DEF_STEREO_COUNT>
0

> <PUBCHEM_ATOM_UDEF_STEREO_COUNT>
0

> <PUBCHEM_BOND_DEF_STEREO_COUNT>
0

> <PUBCHEM_BOND_UDEF_STEREO_COUNT>
0

> <PUBCHEM_ISOTOPIC_ATOM_COUNT>
0

> <PUBCHEM_COMPONENT_COUNT>
1

> <PUBCHEM_CACTVS_TAUTO_COUNT>
1

> <PUBCHEM_COORDINATE_TYPE>
1
5
255

$$$$

