13219
  -OEChem-06261207543D

 13 13  0     0  0  0  0  0  0999 V2000
    0.0000    0.5165    0.0004 O   0  0  0  0  0  0  0  0  0  0  0  0
   -3.3955   -0.3216   -0.0009 O   0  5  0  0  0  0  0  0  0  0  0  0
    3.3954   -0.3219   -0.0002 O   0  5  0  0  0  0  0  0  0  0  0  0
   -2.3726    1.6207    0.0005 O   0  0  0  0  0  0  0  0  0  0  0  0
    2.3729    1.6207   -0.0004 O   0  0  0  0  0  0  0  0  0  0  0  0
   -2.3250    0.3550   -0.0001 N   0  3  0  0  0  0  0  0  0  0  0  0
    2.3249    0.3550   -0.0001 N   0  3  0  0  0  0  0  0  0  0  0  0
   -1.0897   -0.2955    0.0004 C   0  0  0  0  0  0  0  0  0  0  0  0
    1.0896   -0.2953    0.0000 C   0  0  0  0  0  0  0  0  0  0  0  0
   -0.7077   -1.6168    0.0003 C   0  0  0  0  0  0  0  0  0  0  0  0
    0.7076   -1.6167    0.0000 C   0  0  0  0  0  0  0  0  0  0  0  0
   -1.3619   -2.4772    0.0003 H   0  0  0  0  0  0  0  0  0  0  0  0
    1.3619   -2.4771   -0.0002 H   0  0  0  0  0  0  0  0  0  0  0  0
  1  8  1  0  0  0  0
  1  9  1  0  0  0  0
  2  6  1  0  0  0  0
  3  7  1  0  0  0  0
  4  6  2  0  0  0  0
  5  7  2  0  0  0  0
  6  8  1  0  0  0  0
  7  9  1  0  0  0  0
  8 10  2  0  0  0  0
  9 11  2  0  0  0  0
 10 11  1  0  0  0  0
 10 12  1  0  0  0  0
 11 13  1  0  0  0  0
M  CHG  4   2  -1   3  -1   6   1   7   1
M  END
> <PUBCHEM_COMPOUND_CID>
13219

> <PUBCHEM_CONFORMER_RMSD>
0.4

> <PUBCHEM_CONFORMER_DIVERSEORDER>
1

> <PUBCHEM_MMFF94_PARTIAL_CHARGES>
13
1 -0.28
10 -0.15
11 -0.15
12 0.15
13 0.15
2 -0.52
3 -0.52
4 -0.52
5 -0.52
6 0.96
7 0.96
8 0.22
9 0.22

> <PUBCHEM_EFFECTIVE_ROTOR_COUNT>
2

> <PUBCHEM_PHARMACOPHORE_FEATURES>
8
1 1 acceptor
1 2 acceptor
1 2 anion
1 3 acceptor
1 3 anion
1 4 acceptor
1 5 acceptor
5 1 8 9 10 11 rings

> <PUBCHEM_HEAVY_ATOM_COUNT>
11

> <PUBCHEM_ATOM_DEF_STEREO_COUNT>
0

> <PUBCHEM_ATOM_UDEF_STEREO_COUNT>
0

> <PUBCHEM_BOND_DEF_STEREO_COUNT>
0

> <PUBCHEM_BOND_UDEF_STEREO_COUNT>
0

> <PUBCHEM_ISOTOPIC_ATOM_COUNT>
0

> <PUBCHEM_COMPONENT_COUNT>
1

> <PUBCHEM_CACTVS_TAUTO_COUNT>
1

> <PUBCHEM_CONFORMER_ID>
000033A300000001

> <PUBCHEM_MMFF94_ENERGY>
19.5932

> <PUBCHEM_FEATURE_SELFOVERLAP>
40.78

> <PUBCHEM_SHAPE_FINGERPRINT>
13380535 76 18410857659152047459
14325111 11 18410575084673673888
14390081 3 18408887347373547905
16945 1 18410573989446697766
20653085 51 18335689551082056842
21028194 46 18410853256820507952
21040471 1 18410575080468565762
23402655 69 18120108410179425557
23552423 10 18194120943922180599
2748010 2 18049721819478547294
29004967 10 9511456727847780118
5084963 1 18187083953154824753

> <PUBCHEM_SHAPE_MULTIPOLES>
187.07
4.52
1.6
0.55
0
0.02
0
-1.34
0
0
0
0
0.04
0

> <PUBCHEM_SHAPE_SELFOVERLAP>
393.131

> <PUBCHEM_SHAPE_VOLUME>
106.2

> <PUBCHEM_COORDINATE_TYPE>
2
5
10

$$$$

