47205243
  -OEChem-06241222583D

 35 37  0     0  0  0  0  0  0999 V2000
    3.6368    0.6111   -0.5850 O   0  0  0  0  0  0  0  0  0  0  0  0
   -0.6429    1.1300   -1.3910 N   0  0  0  0  0  0  0  0  0  0  0  0
   -0.7185    2.0619    0.6255 N   0  0  0  0  0  0  0  0  0  0  0  0
    2.0798    0.3563    1.1185 N   0  0  0  0  0  0  0  0  0  0  0  0
    0.1560   -2.1241    0.7185 N   0  0  0  0  0  0  0  0  0  0  0  0
   -0.4314   -2.9442   -0.1696 N   0  0  0  0  0  0  0  0  0  0  0  0
    1.1457    2.7648   -0.8749 C   0  0  0  0  0  0  0  0  0  0  0  0
   -0.0662    2.0060   -0.5140 C   0  0  0  0  0  0  0  0  0  0  0  0
    2.3144    2.5206    0.0974 C   0  0  0  0  0  0  0  0  0  0  0  0
   -1.7406    0.5841   -0.7764 C   0  0  0  0  0  0  0  0  0  0  0  0
   -1.7662    1.1817    0.4807 C   0  0  0  0  0  0  0  0  0  0  0  0
    2.7671    1.0723    0.1491 C   0  0  0  0  0  0  0  0  0  0  0  0
    2.3271   -1.0444    1.3672 C   0  0  0  0  0  0  0  0  0  0  0  0
   -2.6843   -0.3524   -1.1995 C   0  0  0  0  0  0  0  0  0  0  0  0
   -2.7871    0.8363    1.3823 C   0  0  0  0  0  0  0  0  0  0  0  0
    1.4864   -1.9275    0.4910 C   0  0  0  0  0  0  0  0  0  0  0  0
   -3.6932   -0.6846   -0.2893 C   0  0  0  0  0  0  0  0  0  0  0  0
   -3.7456   -0.1019    0.9792 C   0  0  0  0  0  0  0  0  0  0  0  0
    1.7906   -2.6710   -0.6230 C   0  0  0  0  0  0  0  0  0  0  0  0
    0.5721   -3.2750   -0.9866 C   0  0  0  0  0  0  0  0  0  0  0  0
    1.4710    2.5065   -1.8905 H   0  0  0  0  0  0  0  0  0  0  0  0
    0.9083    3.8351   -0.8814 H   0  0  0  0  0  0  0  0  0  0  0  0
    2.0464    2.8576    1.1067 H   0  0  0  0  0  0  0  0  0  0  0  0
    3.1757    3.1247   -0.2123 H   0  0  0  0  0  0  0  0  0  0  0  0
   -0.3201    0.9177   -2.3257 H   0  0  0  0  0  0  0  0  0  0  0  0
    2.1022   -1.2359    2.4219 H   0  0  0  0  0  0  0  0  0  0  0  0
    3.3894   -1.2580    1.2048 H   0  0  0  0  0  0  0  0  0  0  0  0
    1.3629    0.8161    1.6721 H   0  0  0  0  0  0  0  0  0  0  0  0
   -2.6406   -0.8041   -2.1840 H   0  0  0  0  0  0  0  0  0  0  0  0
   -2.8361    1.2830    2.3702 H   0  0  0  0  0  0  0  0  0  0  0  0
   -4.4501   -1.4108   -0.5752 H   0  0  0  0  0  0  0  0  0  0  0  0
   -4.5417   -0.3806    1.6649 H   0  0  0  0  0  0  0  0  0  0  0  0
    2.7535   -2.7620   -1.1040 H   0  0  0  0  0  0  0  0  0  0  0  0
   -0.4150   -1.7293    1.4555 H   0  0  0  0  0  0  0  0  0  0  0  0
    0.3735   -3.9418   -1.8133 H   0  0  0  0  0  0  0  0  0  0  0  0
  1 12  2  0  0  0  0
  2  8  1  0  0  0  0
  2 10  1  0  0  0  0
  2 25  1  0  0  0  0
  3  8  2  0  0  0  0
  3 11  1  0  0  0  0
  4 12  1  0  0  0  0
  4 13  1  0  0  0  0
  4 28  1  0  0  0  0
  5  6  1  0  0  0  0
  5 16  1  0  0  0  0
  5 34  1  0  0  0  0
  6 20  2  0  0  0  0
  7  8  1  0  0  0  0
  7  9  1  0  0  0  0
  7 21  1  0  0  0  0
  7 22  1  0  0  0  0
  9 12  1  0  0  0  0
  9 23  1  0  0  0  0
  9 24  1  0  0  0  0
 10 11  1  0  0  0  0
 10 14  2  0  0  0  0
 11 15  2  0  0  0  0
 13 16  1  0  0  0  0
 13 26  1  0  0  0  0
 13 27  1  0  0  0  0
 14 17  1  0  0  0  0
 14 29  1  0  0  0  0
 15 18  1  0  0  0  0
 15 30  1  0  0  0  0
 16 19  2  0  0  0  0
 17 18  2  0  0  0  0
 17 31  1  0  0  0  0
 18 32  1  0  0  0  0
 19 20  1  0  0  0  0
 19 33  1  0  0  0  0
 20 35  1  0  0  0  0
M  END
> <PUBCHEM_COMPOUND_CID>
47205243

> <PUBCHEM_CONFORMER_RMSD>
0.8

> <PUBCHEM_CONFORMER_DIVERSEORDER>
1
23
6
19
98
110
37
49
61
116
22
3
36
29
99
91
72
114
115
77
11
68
75
41
40
46
79
2
35
30
93
104
51
69
65
105
89
9
83
32
4
56
54
107
5
17
82
52
38
7
97
71
80
64
81
24
50
96
85
25
120
53
39
47
74
42
48
113
33
118
28
62
90
103
67
20
111
86
109
88
100
31
8
55
58
66
106
101
12
112
27
18
73
45
21
13
57
59
102
119
14
60
26
117
34
15
92
70
108
63
10
94
43
87
16
95
78
121
76
84
44

> <PUBCHEM_MMFF94_PARTIAL_CHARGES>
29
1 -0.57
10 -0.15
11 0.23
12 0.57
13 0.48
14 -0.15
15 -0.15
16 -0.33
17 -0.15
18 -0.15
19 -0.15
2 0.03
20 0.14
25 0.27
28 0.37
29 0.15
3 -0.57
30 0.15
31 0.15
32 0.15
33 0.15
34 0.27
35 0.15
4 -0.73
5 0.3
6 -0.71
7 0.18
8 0.01
9 0.06

> <PUBCHEM_EFFECTIVE_ROTOR_COUNT>
6

> <PUBCHEM_PHARMACOPHORE_FEATURES>
9
1 1 acceptor
1 2 donor
1 4 donor
1 5 donor
1 6 acceptor
3 2 3 8 cation
5 2 3 8 10 11 rings
5 5 6 16 19 20 rings
6 10 11 14 15 17 18 rings

> <PUBCHEM_HEAVY_ATOM_COUNT>
20

> <PUBCHEM_ATOM_DEF_STEREO_COUNT>
0

> <PUBCHEM_ATOM_UDEF_STEREO_COUNT>
0

> <PUBCHEM_BOND_DEF_STEREO_COUNT>
0

> <PUBCHEM_BOND_UDEF_STEREO_COUNT>
0

> <PUBCHEM_ISOTOPIC_ATOM_COUNT>
0

> <PUBCHEM_COMPONENT_COUNT>
1

> <PUBCHEM_CACTVS_TAUTO_COUNT>
8

> <PUBCHEM_CONFORMER_ID>
02D04B7B00000001

> <PUBCHEM_MMFF94_ENERGY>
20.2836

> <PUBCHEM_FEATURE_SELFOVERLAP>
45.776

> <PUBCHEM_SHAPE_FINGERPRINT>
12054548 360 17760074516784598022
12553582 1 17762619894491796174
13140716 1 18125163723529412056
14178342 30 18191600854692134888
1420 336 17763185743796049214
15209289 33 18260824904359790892
16945 1 17845661339156077353
17138139 8 17322136437202468727
17492 54 18128274293290022127
20645477 70 18271254845875252821
21236236 1 17404301798949176900
21427221 339 17679840872767515097
238 59 17982492314331951413
2748010 2 18124613112948349612
44154327 71 18412548686607826535
6287921 2 18114456855265583927
6438718 38 17252846274891629614
6443956 14 18341048635550124837
81228 2 17261315795886033648
8272917 22 18411133650167333349

> <PUBCHEM_SHAPE_MULTIPOLES>
380.82
5.34
3.8
1.3
2.3
1.74
0.08
-0.49
0.86
-2.5
-0.89
0.29
0.03
-0.37

> <PUBCHEM_SHAPE_SELFOVERLAP>
824.314

> <PUBCHEM_SHAPE_VOLUME>
209.9

> <PUBCHEM_COORDINATE_TYPE>
2
5
10

$$$$

