7916
  -OEChem-06261202273D

 15 14  0     0  0  0  0  0  0999 V2000
    0.0994    0.0593    0.7804 O   0  0  0  0  0  0  0  0  0  0  0  0
    1.0371   -0.0684   -1.3473 O   0  0  0  0  0  0  0  0  0  0  0  0
   -1.1578    0.0660    0.2081 C   0  0  0  0  0  0  0  0  0  0  0  0
   -1.7958   -1.2698    0.0004 C   0  0  0  0  0  0  0  0  0  0  0  0
    1.1245   -0.0122   -0.1274 C   0  0  0  0  0  0  0  0  0  0  0  0
    2.4305    0.0009    0.6115 C   0  0  0  0  0  0  0  0  0  0  0  0
   -1.7379    1.2242   -0.1256 C   0  0  0  0  0  0  0  0  0  0  0  0
   -2.7983   -1.1831   -0.4313 H   0  0  0  0  0  0  0  0  0  0  0  0
   -1.1914   -1.8833   -0.6751 H   0  0  0  0  0  0  0  0  0  0  0  0
   -1.8860   -1.7962    0.9559 H   0  0  0  0  0  0  0  0  0  0  0  0
    2.4800   -0.8524    1.2927 H   0  0  0  0  0  0  0  0  0  0  0  0
    2.5361    0.9398    1.1608 H   0  0  0  0  0  0  0  0  0  0  0  0
    3.2533   -0.0793   -0.1048 H   0  0  0  0  0  0  0  0  0  0  0  0
   -1.2358    2.1706    0.0461 H   0  0  0  0  0  0  0  0  0  0  0  0
   -2.7242    1.2526   -0.5759 H   0  0  0  0  0  0  0  0  0  0  0  0
  1  3  1  0  0  0  0
  1  5  1  0  0  0  0
  2  5  2  0  0  0  0
  3  4  1  0  0  0  0
  3  7  2  0  0  0  0
  4  8  1  0  0  0  0
  4  9  1  0  0  0  0
  4 10  1  0  0  0  0
  5  6  1  0  0  0  0
  6 11  1  0  0  0  0
  6 12  1  0  0  0  0
  6 13  1  0  0  0  0
  7 14  1  0  0  0  0
  7 15  1  0  0  0  0
M  END
> <PUBCHEM_COMPOUND_CID>
7916

> <PUBCHEM_CONFORMER_RMSD>
0.4

> <PUBCHEM_CONFORMER_DIVERSEORDER>
1
9
4
2
3
6
5
8
7

> <PUBCHEM_MMFF94_PARTIAL_CHARGES>
9
1 -0.23
14 0.15
15 0.15
2 -0.57
3 -0.06
4 0.14
5 0.66
6 0.06
7 -0.3

> <PUBCHEM_EFFECTIVE_ROTOR_COUNT>
2

> <PUBCHEM_PHARMACOPHORE_FEATURES>
1
1 2 acceptor

> <PUBCHEM_HEAVY_ATOM_COUNT>
7

> <PUBCHEM_ATOM_DEF_STEREO_COUNT>
0

> <PUBCHEM_ATOM_UDEF_STEREO_COUNT>
0

> <PUBCHEM_BOND_DEF_STEREO_COUNT>
0

> <PUBCHEM_BOND_UDEF_STEREO_COUNT>
0

> <PUBCHEM_ISOTOPIC_ATOM_COUNT>
0

> <PUBCHEM_COMPONENT_COUNT>
1

> <PUBCHEM_CACTVS_TAUTO_COUNT>
1

> <PUBCHEM_CONFORMER_ID>
00001EEC00000001

> <PUBCHEM_MMFF94_ENERGY>
11.903

> <PUBCHEM_FEATURE_SELFOVERLAP>
5.074

> <PUBCHEM_SHAPE_FINGERPRINT>
20096714 4 16558169579833219724
21040471 1 18196084667278136345
23552449 1 18408610244584140233
24536 1 17386276683698731992
29004967 10 16805315578736917978

> <PUBCHEM_SHAPE_MULTIPOLES>
132.32
3
1.07
0.93
0.96
0.03
0.21
0.07
-0.3
-0.85
0.01
0.32
0
0

> <PUBCHEM_SHAPE_SELFOVERLAP>
244.649

> <PUBCHEM_SHAPE_VOLUME>
83.2

> <PUBCHEM_COORDINATE_TYPE>
2
5
10

$$$$

