47205676
  -OEChem-06241222592D

 36 37  0     0  0  0  0  0  0999 V2000
    5.4641    3.5670    0.0000 O   0  0  0  0  0  0  0  0  0  0  0  0
    6.3301    0.0670    0.0000 O   0  0  0  0  0  0  0  0  0  0  0  0
    2.8660   -3.9330    0.0000 O   0  0  0  0  0  0  0  0  0  0  0  0
    2.0000   -2.4330    0.0000 O   0  0  0  0  0  0  0  0  0  0  0  0
    6.3301    2.0670    0.0000 N   0  0  0  0  0  0  0  0  0  0  0  0
    4.5981    0.0670    0.0000 N   0  0  0  0  0  0  0  0  0  0  0  0
    7.1962    3.5670    0.0000 C   0  0  0  0  0  0  0  0  0  0  0  0
    7.6962    4.4330    0.0000 C   0  0  0  0  0  0  0  0  0  0  0  0
    8.1962    3.5670    0.0000 C   0  0  0  0  0  0  0  0  0  0  0  0
    6.3301    3.0670    0.0000 C   0  0  0  0  0  0  0  0  0  0  0  0
    5.4641    1.5670    0.0000 C   0  0  0  0  0  0  0  0  0  0  0  0
    5.4641    0.5670    0.0000 C   0  0  0  0  0  0  0  0  0  0  0  0
    4.5981   -0.9330    0.0000 C   0  0  0  0  0  0  0  0  0  0  0  0
    3.7320   -1.4330    0.0000 C   0  0  0  0  0  0  0  0  0  0  0  0
    5.4641   -1.4330    0.0000 C   0  0  0  0  0  0  0  0  0  0  0  0
    3.7320   -2.4330    0.0000 C   0  0  0  0  0  0  0  0  0  0  0  0
    5.4641   -2.4330    0.0000 C   0  0  0  0  0  0  0  0  0  0  0  0
    4.5981   -2.9330    0.0000 C   0  0  0  0  0  0  0  0  0  0  0  0
    2.8660   -2.9330    0.0000 C   0  0  0  0  0  0  0  0  0  0  0  0
    2.0000   -4.4330    0.0000 C   0  0  0  0  0  0  0  0  0  0  0  0
    6.7578    4.0054    0.0000 H   0  0  0  0  0  0  0  0  0  0  0  0
    8.3038    2.9564    0.0000 H   0  0  0  0  0  0  0  0  0  0  0  0
    8.7788    3.7790    0.0000 H   0  0  0  0  0  0  0  0  0  0  0  0
    8.1711    4.8315    0.0000 H   0  0  0  0  0  0  0  0  0  0  0  0
    7.2212    4.8315    0.0000 H   0  0  0  0  0  0  0  0  0  0  0  0
    6.8671    1.7570    0.0000 H   0  0  0  0  0  0  0  0  0  0  0  0
    5.2520    2.1496    0.0000 H   0  0  0  0  0  0  0  0  0  0  0  0
    4.8535    1.4593    0.0000 H   0  0  0  0  0  0  0  0  0  0  0  0
    4.0611    0.3770    0.0000 H   0  0  0  0  0  0  0  0  0  0  0  0
    3.1951   -1.1230    0.0000 H   0  0  0  0  0  0  0  0  0  0  0  0
    6.0010   -1.1230    0.0000 H   0  0  0  0  0  0  0  0  0  0  0  0
    6.0010   -2.7430    0.0000 H   0  0  0  0  0  0  0  0  0  0  0  0
    4.5981   -3.5530    0.0000 H   0  0  0  0  0  0  0  0  0  0  0  0
    1.6900   -3.8961    0.0000 H   0  0  0  0  0  0  0  0  0  0  0  0
    1.4631   -4.7430    0.0000 H   0  0  0  0  0  0  0  0  0  0  0  0
    2.3100   -4.9700    0.0000 H   0  0  0  0  0  0  0  0  0  0  0  0
  1 10  2  0  0  0  0
  2 12  2  0  0  0  0
  3 19  1  0  0  0  0
  3 20  1  0  0  0  0
  4 19  2  0  0  0  0
  5 10  1  0  0  0  0
  5 11  1  0  0  0  0
  5 26  1  0  0  0  0
  6 12  1  0  0  0  0
  6 13  1  0  0  0  0
  6 29  1  0  0  0  0
  7  8  1  0  0  0  0
  7  9  1  0  0  0  0
  7 10  1  0  0  0  0
  7 21  1  0  0  0  0
  8  9  1  0  0  0  0
  8 24  1  0  0  0  0
  8 25  1  0  0  0  0
  9 22  1  0  0  0  0
  9 23  1  0  0  0  0
 11 12  1  0  0  0  0
 11 27  1  0  0  0  0
 11 28  1  0  0  0  0
 13 14  1  0  0  0  0
 13 15  2  0  0  0  0
 14 16  2  0  0  0  0
 14 30  1  0  0  0  0
 15 17  1  0  0  0  0
 15 31  1  0  0  0  0
 16 18  1  0  0  0  0
 16 19  1  0  0  0  0
 17 18  2  0  0  0  0
 17 32  1  0  0  0  0
 18 33  1  0  0  0  0
 20 34  1  0  0  0  0
 20 35  1  0  0  0  0
 20 36  1  0  0  0  0
M  END
> <PUBCHEM_COMPOUND_CID>
47205676

> <PUBCHEM_COMPOUND_CANONICALIZED>
1

> <PUBCHEM_CACTVS_COMPLEXITY>
393

> <PUBCHEM_CACTVS_HBOND_ACCEPTOR>
4

> <PUBCHEM_CACTVS_HBOND_DONOR>
2

> <PUBCHEM_CACTVS_ROTATABLE_BOND>
6

> <PUBCHEM_CACTVS_SUBSKEYS>
AAADceBzOAAAAAAAAAAAAAAAGAAAAAAAAAAwAAAAAAAAAAABAAAAHgAQAAAADQjBmAYyyILABACIAiXSWACCAAAlAgAIiIGIbMgIZjLAtbmUMQhk1gHI6Ye8yCCOAAAAQAAAAAAAAACAAAAAAAAAAAAAAA==

> <PUBCHEM_IUPAC_OPENEYE_NAME>
methyl 3-[[2-(cyclopropanecarbonylamino)acetyl]amino]benzoate

> <PUBCHEM_IUPAC_CAS_NAME>
3-[[2-[[cyclopropyl(oxo)methyl]amino]-1-oxoethyl]amino]benzoic acid methyl ester

> <PUBCHEM_IUPAC_NAME>
methyl 3-[[2-(cyclopropanecarbonylamino)acetyl]amino]benzoate

> <PUBCHEM_IUPAC_SYSTEMATIC_NAME>
methyl 3-[2-(cyclopropylcarbonylamino)ethanoylamino]benzoate

> <PUBCHEM_IUPAC_TRADITIONAL_NAME>
3-[[2-(cyclopropanecarbonylamino)acetyl]amino]benzoic acid methyl ester

> <PUBCHEM_IUPAC_INCHI>
InChI=1S/C14H16N2O4/c1-20-14(19)10-3-2-4-11(7-10)16-12(17)8-15-13(18)9-5-6-9/h2-4,7,9H,5-6,8H2,1H3,(H,15,18)(H,16,17)

> <PUBCHEM_IUPAC_INCHIKEY>
ASJIGJGCLXMBHL-UHFFFAOYSA-N

> <PUBCHEM_XLOGP3>
1.3

> <PUBCHEM_EXACT_MASS>
276.111007

> <PUBCHEM_MOLECULAR_FORMULA>
C14H16N2O4

> <PUBCHEM_MOLECULAR_WEIGHT>
276.28784

> <PUBCHEM_OPENEYE_CAN_SMILES>
COC(=O)C1=CC(=CC=C1)NC(=O)CNC(=O)C2CC2

> <PUBCHEM_OPENEYE_ISO_SMILES>
COC(=O)C1=CC(=CC=C1)NC(=O)CNC(=O)C2CC2

> <PUBCHEM_CACTVS_TPSA>
84.5

> <PUBCHEM_MONOISOTOPIC_WEIGHT>
276.111007

> <PUBCHEM_TOTAL_CHARGE>
0

> <PUBCHEM_HEAVY_ATOM_COUNT>
20

> <PUBCHEM_ATOM_DEF_STEREO_COUNT>
0

> <PUBCHEM_ATOM_UDEF_STEREO_COUNT>
0

> <PUBCHEM_BOND_DEF_STEREO_COUNT>
0

> <PUBCHEM_BOND_UDEF_STEREO_COUNT>
0

> <PUBCHEM_ISOTOPIC_ATOM_COUNT>
0

> <PUBCHEM_COMPONENT_COUNT>
1

> <PUBCHEM_CACTVS_TAUTO_COUNT>
6

> <PUBCHEM_COORDINATE_TYPE>
1
5
255

> <PUBCHEM_BONDANNOTATIONS>
13  14  8
13  15  8
14  16  8
15  17  8
16  18  8
17  18  8

$$$$

