17396149
  -OEChem-06241222543D

 45 47  0     1  0  0  0  0  0999 V2000
   -7.6883   -0.4824    0.0594 F   0  0  0  0  0  0  0  0  0  0  0  0
    4.7636   -2.4425   -1.2863 O   0  0  0  0  0  0  0  0  0  0  0  0
   -1.4791    1.0490    1.1552 O   0  0  0  0  0  0  0  0  0  0  0  0
    1.9112    2.8159    0.1804 N   0  0  0  0  0  0  0  0  0  0  0  0
    0.0615   -0.2742    0.0542 N   0  0  0  0  0  0  0  0  0  0  0  0
    1.3665    1.6510   -1.6303 N   0  0  0  0  0  0  0  0  0  0  0  0
   -2.1580   -0.7079   -0.2460 N   0  0  0  0  0  0  0  0  0  0  0  0
    1.2485    0.3992    0.5704 C   0  0  2  0  0  0  0  0  0  0  0  0
    1.5026    1.6124   -0.3234 C   0  0  0  0  0  0  0  0  0  0  0  0
    2.4430   -0.4758    0.7462 C   0  0  0  0  0  0  0  0  0  0  0  0
    3.0517   -1.0574   -0.3660 C   0  0  0  0  0  0  0  0  0  0  0  0
    2.9519   -0.7125    2.0231 C   0  0  0  0  0  0  0  0  0  0  0  0
    2.0445    3.6767   -0.8725 C   0  0  0  0  0  0  0  0  0  0  0  0
    2.1616    3.1360    1.5658 C   0  0  0  0  0  0  0  0  0  0  0  0
    4.1692   -1.8756   -0.2012 C   0  0  0  0  0  0  0  0  0  0  0  0
    1.7032    2.9350   -1.9789 C   0  0  0  0  0  0  0  0  0  0  0  0
   -1.2291    0.1153    0.3967 C   0  0  0  0  0  0  0  0  0  0  0  0
    4.0694   -1.5308    2.1879 C   0  0  0  0  0  0  0  0  0  0  0  0
    4.6781   -2.1122    1.0757 C   0  0  0  0  0  0  0  0  0  0  0  0
   -3.5691   -0.6503   -0.1681 C   0  0  0  0  0  0  0  0  0  0  0  0
   -4.3448   -1.5619   -0.8842 C   0  0  0  0  0  0  0  0  0  0  0  0
   -4.1849    0.3182    0.6248 C   0  0  0  0  0  0  0  0  0  0  0  0
    4.1919   -2.1586   -2.5624 C   0  0  0  0  0  0  0  0  0  0  0  0
   -5.7363   -1.5050   -0.8074 C   0  0  0  0  0  0  0  0  0  0  0  0
   -5.5765    0.3750    0.7015 C   0  0  0  0  0  0  0  0  0  0  0  0
   -6.3522   -0.5367   -0.0146 C   0  0  0  0  0  0  0  0  0  0  0  0
    0.9540    0.7768    1.5576 H   0  0  0  0  0  0  0  0  0  0  0  0
    0.1821   -1.0245   -0.6196 H   0  0  0  0  0  0  0  0  0  0  0  0
    2.6154   -0.8520   -1.3374 H   0  0  0  0  0  0  0  0  0  0  0  0
    2.4902   -0.2678    2.9006 H   0  0  0  0  0  0  0  0  0  0  0  0
    2.3583    4.7043   -0.7526 H   0  0  0  0  0  0  0  0  0  0  0  0
    2.9150    2.4482    1.9558 H   0  0  0  0  0  0  0  0  0  0  0  0
    1.2235    3.0473    2.1190 H   0  0  0  0  0  0  0  0  0  0  0  0
    2.5335    4.1616    1.6389 H   0  0  0  0  0  0  0  0  0  0  0  0
    1.6825    3.2603   -3.0087 H   0  0  0  0  0  0  0  0  0  0  0  0
    4.4658   -1.7151    3.1822 H   0  0  0  0  0  0  0  0  0  0  0  0
    5.5485   -2.7486    1.2104 H   0  0  0  0  0  0  0  0  0  0  0  0
   -1.7833   -1.4407   -0.8432 H   0  0  0  0  0  0  0  0  0  0  0  0
   -3.8776   -2.3214   -1.5058 H   0  0  0  0  0  0  0  0  0  0  0  0
   -3.6533    1.0573    1.2073 H   0  0  0  0  0  0  0  0  0  0  0  0
   -6.3408   -2.2146   -1.3647 H   0  0  0  0  0  0  0  0  0  0  0  0
   -6.0577    1.1284    1.3184 H   0  0  0  0  0  0  0  0  0  0  0  0
    3.1702   -2.5456   -2.6411 H   0  0  0  0  0  0  0  0  0  0  0  0
    4.2527   -1.0918   -2.8031 H   0  0  0  0  0  0  0  0  0  0  0  0
    4.7917   -2.6885   -3.3097 H   0  0  0  0  0  0  0  0  0  0  0  0
  1 26  1  0  0  0  0
  2 15  1  0  0  0  0
  2 23  1  0  0  0  0
  3 17  2  0  0  0  0
  4  9  1  0  0  0  0
  4 13  1  0  0  0  0
  4 14  1  0  0  0  0
  5  8  1  0  0  0  0
  5 17  1  0  0  0  0
  5 28  1  0  0  0  0
  6  9  2  0  0  0  0
  6 16  1  0  0  0  0
  7 17  1  0  0  0  0
  7 20  1  0  0  0  0
  7 38  1  0  0  0  0
  8  9  1  0  0  0  0
  8 10  1  0  0  0  0
  8 27  1  0  0  0  0
 10 11  2  0  0  0  0
 10 12  1  0  0  0  0
 11 15  1  0  0  0  0
 11 29  1  0  0  0  0
 12 18  2  0  0  0  0
 12 30  1  0  0  0  0
 13 16  2  0  0  0  0
 13 31  1  0  0  0  0
 14 32  1  0  0  0  0
 14 33  1  0  0  0  0
 14 34  1  0  0  0  0
 15 19  2  0  0  0  0
 16 35  1  0  0  0  0
 18 19  1  0  0  0  0
 18 36  1  0  0  0  0
 19 37  1  0  0  0  0
 20 21  2  0  0  0  0
 20 22  1  0  0  0  0
 21 24  1  0  0  0  0
 21 39  1  0  0  0  0
 22 25  2  0  0  0  0
 22 40  1  0  0  0  0
 23 43  1  0  0  0  0
 23 44  1  0  0  0  0
 23 45  1  0  0  0  0
 24 26  2  0  0  0  0
 24 41  1  0  0  0  0
 25 26  1  0  0  0  0
 25 42  1  0  0  0  0
M  END
> <PUBCHEM_COMPOUND_CID>
17396149

> <PUBCHEM_CONFORMER_RMSD>
0.8

> <PUBCHEM_CONFORMER_DIVERSEORDER>
1
126
169
172
67
158
181
184
156
103
135
167
19
105
153
53
124
165
95
97
111
192
163
33
157
208
112
52
56
183
162
176
92
131
41
106
205
89
196
50
171
136
174
76
99
100
144
73
128
175
3
143
4
155
134
145
188
54
173
212
68
72
190
125
17
130
182
159
203
139
179
142
146
207
127
80
198
119
204
32
94
7
85
57
187
36
194
39
75
123
178
189
186
148
87
109
46
193
96
93
114
47
101
91
206
78
81
166
121
154
30
199
90
211
63
84
150
66
133
168
161
15
82
102
29
71
170
201
200
140
51
202
83
191
115
86
37
43
49
40
74
120
164
45
70
11
195
149
138
24
209
20
62
10
28
141
31
61
151
25
27
6
129
118
18
110
116
79
48
21
117
137
55
22
26
42
152
8
147
69
180
58
59
5
64
38
14
44
197
107
65
104
177
108
185
113
2
16
98
77
122
132
210
35
13
23
88
34
160
12
9
60

> <PUBCHEM_MMFF94_PARTIAL_CHARGES>
38
1 -0.19
10 -0.14
11 -0.15
12 -0.15
13 -0.3
14 0.26
15 0.08
16 0.08
17 0.69
18 -0.15
19 -0.15
2 -0.36
20 0.12
21 -0.15
22 -0.15
23 0.28
24 -0.15
25 -0.15
26 0.19
28 0.37
29 0.15
3 -0.57
30 0.15
31 0.15
35 0.15
36 0.15
37 0.15
38 0.37
39 0.15
4 0.05
40 0.15
41 0.15
42 0.15
5 -0.73
6 -0.57
7 -0.55
8 0.62
9 0.01

> <PUBCHEM_EFFECTIVE_ROTOR_COUNT>
7

> <PUBCHEM_PHARMACOPHORE_FEATURES>
8
1 2 acceptor
1 3 acceptor
1 5 donor
1 7 donor
3 4 6 9 cation
5 4 6 9 13 16 rings
6 10 11 12 15 18 19 rings
6 20 21 22 24 25 26 rings

> <PUBCHEM_HEAVY_ATOM_COUNT>
26

> <PUBCHEM_ATOM_DEF_STEREO_COUNT>
0

> <PUBCHEM_ATOM_UDEF_STEREO_COUNT>
1

> <PUBCHEM_BOND_DEF_STEREO_COUNT>
0

> <PUBCHEM_BOND_UDEF_STEREO_COUNT>
0

> <PUBCHEM_ISOTOPIC_ATOM_COUNT>
0

> <PUBCHEM_COMPONENT_COUNT>
1

> <PUBCHEM_CACTVS_TAUTO_COUNT>
3

> <PUBCHEM_CONFORMER_ID>
010971B500000001

> <PUBCHEM_MMFF94_ENERGY>
67.1048

> <PUBCHEM_FEATURE_SELFOVERLAP>
40.65

> <PUBCHEM_SHAPE_FINGERPRINT>
10554248 39 18261404313139490357
10721379 63 18201428148024361044
10764073 3 15795652962245154896
11405975 8 18201158754990860731
11954058 11 17894627076123767478
12166972 35 18334293184569091601
12616971 3 18335423444448007351
12617007 42 18409724076118086918
13533116 47 18338237068638107993
14068700 675 18334295409029737600
14170010 4 18342742875420181072
14739800 52 17751369378306170449
15342816 4 18341051930095930970
15420108 30 17755603559425343040
15664445 248 18340197579559616590
17818456 19 18188204416192844321
17844677 252 18130793352503318461
1813 80 18339924917391352686
18222031 100 18410852209149454034
20369508 70 17989214741309263626
21304303 282 16966055116933380596
23559900 14 18334011666548034795
3004659 81 18335419050269104719
312423 11 18410846638951391689
338550 245 18041000609617977287
3411729 13 18267028267523115024
5081480 168 17989486325092408269
5104073 3 18335980858188662931
513532 50 17968651610791670964
5219985 9 18270685376335510506
5281201 14 17989216919253412637
9841814 1 18201446869675501746
9971528 1 18334017202565369442

> <PUBCHEM_SHAPE_MULTIPOLES>
496.13
14.35
3.54
1.9
28.54
3.52
0.36
-10.54
0.3
-5.72
1.14
-3.05
-0.24
-0.61

> <PUBCHEM_SHAPE_SELFOVERLAP>
1068.156

> <PUBCHEM_SHAPE_VOLUME>
275.8

> <PUBCHEM_COORDINATE_TYPE>
2
5
10

$$$$

