7846995
  -OEChem-06241222483D

 45 47  0     1  0  0  0  0  0999 V2000
    4.4680    0.6924   -0.1550 S   0  0  0  0  0  0  0  0  0  0  0  0
    0.0936    2.9480   -0.5421 O   0  0  0  0  0  0  0  0  0  0  0  0
   -0.1578    0.3548   -1.3123 O   0  0  0  0  0  0  0  0  0  0  0  0
    0.1220    1.7575    1.4337 O   0  0  0  0  0  0  0  0  0  0  0  0
   -5.5469   -2.1172    0.7891 O   0  0  0  0  0  0  0  0  0  0  0  0
    2.4598   -0.1558    1.2234 N   0  0  0  0  0  0  0  0  0  0  0  0
    2.9886    2.2298    1.5845 C   0  0  0  0  0  0  0  0  0  0  0  0
    2.0277    3.1151    0.7692 C   0  0  0  0  0  0  0  0  0  0  0  0
   -1.2219    2.4581   -0.8206 C   0  0  2  0  0  0  0  0  0  0  0  0
    3.1953    0.9012    0.9684 C   0  0  0  0  0  0  0  0  0  0  0  0
   -1.1579    0.9362   -0.8935 C   0  0  0  0  0  0  0  0  0  0  0  0
    0.6482    2.5128    0.6280 C   0  0  0  0  0  0  0  0  0  0  0  0
    4.0212   -0.9628   -0.3387 C   0  0  0  0  0  0  0  0  0  0  0  0
    2.9213   -1.2331    0.4811 C   0  0  0  0  0  0  0  0  0  0  0  0
   -2.3254    0.1236   -0.4446 C   0  0  0  0  0  0  0  0  0  0  0  0
   -1.6604    3.0618   -2.1446 C   0  0  0  0  0  0  0  0  0  0  0  0
    4.6021   -1.9509   -1.1498 C   0  0  0  0  0  0  0  0  0  0  0  0
    2.3858   -2.5393    0.4874 C   0  0  0  0  0  0  0  0  0  0  0  0
   -3.5878    0.6586   -0.5681 C   0  0  0  0  0  0  0  0  0  0  0  0
   -2.0971   -1.1305    0.0754 C   0  0  0  0  0  0  0  0  0  0  0  0
    4.0529   -3.2352   -1.1248 C   0  0  0  0  0  0  0  0  0  0  0  0
    2.9591   -3.5278   -0.3176 C   0  0  0  0  0  0  0  0  0  0  0  0
   -4.6802   -0.1010   -0.1491 C   0  0  0  0  0  0  0  0  0  0  0  0
   -3.1895   -1.8901    0.4943 C   0  0  0  0  0  0  0  0  0  0  0  0
   -4.4811   -1.3753    0.3820 C   0  0  0  0  0  0  0  0  0  0  0  0
   -6.8396   -1.5310    0.6442 C   0  0  0  0  0  0  0  0  0  0  0  0
    2.5819    2.0911    2.5944 H   0  0  0  0  0  0  0  0  0  0  0  0
    3.9412    2.7587    1.7107 H   0  0  0  0  0  0  0  0  0  0  0  0
    2.4492    3.2778   -0.2302 H   0  0  0  0  0  0  0  0  0  0  0  0
    1.9181    4.0902    1.2561 H   0  0  0  0  0  0  0  0  0  0  0  0
   -1.8877    2.7861   -0.0143 H   0  0  0  0  0  0  0  0  0  0  0  0
   -2.6461    2.7193   -2.4666 H   0  0  0  0  0  0  0  0  0  0  0  0
   -1.6771    4.1550   -2.0763 H   0  0  0  0  0  0  0  0  0  0  0  0
   -0.9471    2.8101   -2.9384 H   0  0  0  0  0  0  0  0  0  0  0  0
    5.4560   -1.7297   -1.7826 H   0  0  0  0  0  0  0  0  0  0  0  0
    1.5307   -2.7784    1.1133 H   0  0  0  0  0  0  0  0  0  0  0  0
   -3.7820    1.6441   -0.9716 H   0  0  0  0  0  0  0  0  0  0  0  0
   -1.0968   -1.5411    0.1741 H   0  0  0  0  0  0  0  0  0  0  0  0
    4.4874   -4.0147   -1.7452 H   0  0  0  0  0  0  0  0  0  0  0  0
    2.5451   -4.5323   -0.3115 H   0  0  0  0  0  0  0  0  0  0  0  0
   -5.6556    0.3594   -0.2638 H   0  0  0  0  0  0  0  0  0  0  0  0
   -3.0281   -2.8817    0.9083 H   0  0  0  0  0  0  0  0  0  0  0  0
   -7.0819   -1.3458   -0.4079 H   0  0  0  0  0  0  0  0  0  0  0  0
   -7.5681   -2.2586    1.0166 H   0  0  0  0  0  0  0  0  0  0  0  0
   -6.9443   -0.6306    1.2590 H   0  0  0  0  0  0  0  0  0  0  0  0
  1 10  1  0  0  0  0
  1 13  1  0  0  0  0
  2  9  1  0  0  0  0
  2 12  1  0  0  0  0
  3 11  2  0  0  0  0
  4 12  2  0  0  0  0
  5 25  1  0  0  0  0
  5 26  1  0  0  0  0
  6 10  2  0  0  0  0
  6 14  1  0  0  0  0
  7  8  1  0  0  0  0
  7 10  1  0  0  0  0
  7 27  1  0  0  0  0
  7 28  1  0  0  0  0
  8 12  1  0  0  0  0
  8 29  1  0  0  0  0
  8 30  1  0  0  0  0
  9 11  1  0  0  0  0
  9 16  1  0  0  0  0
  9 31  1  0  0  0  0
 11 15  1  0  0  0  0
 13 14  1  0  0  0  0
 13 17  2  0  0  0  0
 14 18  2  0  0  0  0
 15 19  2  0  0  0  0
 15 20  1  0  0  0  0
 16 32  1  0  0  0  0
 16 33  1  0  0  0  0
 16 34  1  0  0  0  0
 17 21  1  0  0  0  0
 17 35  1  0  0  0  0
 18 22  1  0  0  0  0
 18 36  1  0  0  0  0
 19 23  1  0  0  0  0
 19 37  1  0  0  0  0
 20 24  2  0  0  0  0
 20 38  1  0  0  0  0
 21 22  2  0  0  0  0
 21 39  1  0  0  0  0
 22 40  1  0  0  0  0
 23 25  2  0  0  0  0
 23 41  1  0  0  0  0
 24 25  1  0  0  0  0
 24 42  1  0  0  0  0
 26 43  1  0  0  0  0
 26 44  1  0  0  0  0
 26 45  1  0  0  0  0
M  END
> <PUBCHEM_COMPOUND_CID>
7846995

> <PUBCHEM_CONFORMER_RMSD>
1.2

> <PUBCHEM_CONFORMER_DIVERSEORDER>
1
146
142
5
164
16
96
47
39
14
29
93
48
38
157
163
20
107
32
92
131
59
24
53
3
45
104
91
176
40
125
106
115
70
17
101
127
26
124
169
132
119
73
75
36
52
129
85
82
71
50
69
112
11
99
155
83
6
126
138
144
139
30
4
64
171
135
77
15
79
133
178
37
21
63
41
111
108
113
33
84
151
54
162
7
123
118
72
173
35
161
116
66
65
177
170
18
10
8
62
160
168
80
158
94
13
110
28
76
60
137
128
89
154
148
61
23
165
102
31
42
46
86
141
136
149
134
19
9
88
166
114
51
130
153
74
172
27
120
140
105
98
145
2
87
103
95
90
34
156
152
100
167
122
117
43
143
78
97
58
49
22
175
56
55
67
12
25
150
174
159
81
44
121
68
109
57
147

> <PUBCHEM_MMFF94_PARTIAL_CHARGES>
33
1 -0.08
10 0.2
11 0.42
12 0.66
13 0.04
14 0.23
15 0.09
17 -0.15
18 -0.15
19 -0.15
2 -0.43
20 -0.15
21 -0.15
22 -0.15
23 -0.15
24 -0.15
25 0.08
26 0.28
3 -0.57
35 0.15
36 0.15
37 0.15
38 0.15
39 0.15
4 -0.57
40 0.15
41 0.15
42 0.15
5 -0.36
6 -0.57
7 0.18
8 0.06
9 0.34

> <PUBCHEM_EFFECTIVE_ROTOR_COUNT>
8

> <PUBCHEM_PHARMACOPHORE_FEATURES>
7
1 3 acceptor
1 4 acceptor
1 5 acceptor
1 6 acceptor
5 1 6 10 13 14 rings
6 13 14 17 18 21 22 rings
6 15 19 20 23 24 25 rings

> <PUBCHEM_HEAVY_ATOM_COUNT>
26

> <PUBCHEM_ATOM_DEF_STEREO_COUNT>
1

> <PUBCHEM_ATOM_UDEF_STEREO_COUNT>
0

> <PUBCHEM_BOND_DEF_STEREO_COUNT>
0

> <PUBCHEM_BOND_UDEF_STEREO_COUNT>
0

> <PUBCHEM_ISOTOPIC_ATOM_COUNT>
0

> <PUBCHEM_COMPONENT_COUNT>
1

> <PUBCHEM_CACTVS_TAUTO_COUNT>
4

> <PUBCHEM_CONFORMER_ID>
0077BC5300000001

> <PUBCHEM_MMFF94_ENERGY>
65.4079

> <PUBCHEM_FEATURE_SELFOVERLAP>
35.593

> <PUBCHEM_SHAPE_FINGERPRINT>
10064457 181 17469331331356420360
10316853 100 18128250091387238211
10764073 3 17971461052195678677
10951579 204 17631752564207589621
11135609 12 18265342875179700186
11211813 74 8501835644350055819
114674 6 18340209600703716426
12107183 9 18042671987893555537
12596602 18 16589149299472581083
12623949 98 18262228933311139103
12778500 126 17749655330130490219
12892183 10 18114747036441658281
13135754 10 16880735634394389416
13402501 40 18341334405472844242
13533116 47 18187925024411843995
1361 2 18265337214054880355
14251764 30 18410568517874893899
14363568 33 18113624495509840396
14617045 38 18338230462366541874
14863182 85 18266743476810636900
14866123 147 17829886890961801577
15003188 3 17987799601304213539
15420108 30 17114956487214213664
15635459 17 18412831252674912346
15664445 248 17846496985400001020
1813 80 17203619142483567893
1979834 28 18265901250259883977
20775530 9 18337396044911079118
21279426 13 18267878357620664037
21285901 2 18130515149558600765
21315759 227 18197229246377590086
221357 26 18410007784251379734
22864921 267 18267846339029921563
23466295 7 17830726917892829842
23559900 14 18271248317060752540
2818148 4 18044918298622932728
3117164 225 18261944258995243297
329604 57 18338231687276681990
3421961 26 18335701619919085634
345986 75 17385721425994815218
3737641 26 18335135414707494898
404807 14 17973711773909502939
4394409 98 16185818081912855998
46194498 28 18059293149892698845
5309563 4 18334574685004739670
5326457 24 17824844247559532399
6823239 73 18411143571267396426
86090 222 18059290955544433875

> <PUBCHEM_SHAPE_MULTIPOLES>
510.46
11.8
4.45
1.39
12.55
0.4
0.23
-10.31
-1.14
-2.81
0.5
-0.34
0.79
3.17

> <PUBCHEM_SHAPE_SELFOVERLAP>
1086.464

> <PUBCHEM_SHAPE_VOLUME>
285.4

> <PUBCHEM_COORDINATE_TYPE>
2
5
10

$$$$

