583139
  -OEChem-06241222443D

 31 32  0     0  0  0  0  0  0999 V2000
   -1.0396   -0.5363    0.0008 C   0  0  0  0  0  0  0  0  0  0  0  0
   -1.6399    0.0942   -1.2680 C   0  0  0  0  0  0  0  0  0  0  0  0
   -1.6398    0.0978    1.2679 C   0  0  0  0  0  0  0  0  0  0  0  0
   -3.1657    0.0152   -1.2625 C   0  0  0  0  0  0  0  0  0  0  0  0
   -3.1656    0.0187    1.2628 C   0  0  0  0  0  0  0  0  0  0  0  0
   -3.7573    0.6367   -0.0007 C   0  0  0  0  0  0  0  0  0  0  0  0
    0.4768   -0.4713    0.0000 C   0  0  0  0  0  0  0  0  0  0  0  0
    1.1187    0.7651   -0.0011 C   0  0  0  0  0  0  0  0  0  0  0  0
    1.2216   -1.6488    0.0011 C   0  0  0  0  0  0  0  0  0  0  0  0
    2.5124    0.8245   -0.0010 C   0  0  0  0  0  0  0  0  0  0  0  0
    2.6151   -1.5894    0.0013 C   0  0  0  0  0  0  0  0  0  0  0  0
    3.2605   -0.3529    0.0004 C   0  0  0  0  0  0  0  0  0  0  0  0
    3.2030    2.1465   -0.0011 C   0  0  0  0  0  0  0  0  0  0  0  0
   -1.3338   -1.5959    0.0023 H   0  0  0  0  0  0  0  0  0  0  0  0
   -1.2540   -0.4152   -2.1597 H   0  0  0  0  0  0  0  0  0  0  0  0
   -1.3438    1.1469   -1.3577 H   0  0  0  0  0  0  0  0  0  0  0  0
   -1.3437    1.1507    1.3548 H   0  0  0  0  0  0  0  0  0  0  0  0
   -1.2537   -0.4093    2.1610 H   0  0  0  0  0  0  0  0  0  0  0  0
   -3.4769   -1.0343   -1.3334 H   0  0  0  0  0  0  0  0  0  0  0  0
   -3.5639    0.5261   -2.1463 H   0  0  0  0  0  0  0  0  0  0  0  0
   -3.5637    0.5322    2.1452 H   0  0  0  0  0  0  0  0  0  0  0  0
   -3.4768   -1.0305    1.3367 H   0  0  0  0  0  0  0  0  0  0  0  0
   -3.5659    1.7168   -0.0023 H   0  0  0  0  0  0  0  0  0  0  0  0
   -4.8451    0.5050   -0.0005 H   0  0  0  0  0  0  0  0  0  0  0  0
    0.5450    1.6882    0.0000 H   0  0  0  0  0  0  0  0  0  0  0  0
    0.7337   -2.6195    0.0023 H   0  0  0  0  0  0  0  0  0  0  0  0
    3.1977   -2.5060    0.0028 H   0  0  0  0  0  0  0  0  0  0  0  0
    4.3468   -0.3204    0.0027 H   0  0  0  0  0  0  0  0  0  0  0  0
    2.6342    2.8868   -0.5741 H   0  0  0  0  0  0  0  0  0  0  0  0
    3.3200    2.5092    1.0249 H   0  0  0  0  0  0  0  0  0  0  0  0
    4.1941    2.0773   -0.4624 H   0  0  0  0  0  0  0  0  0  0  0  0
  1  2  1  0  0  0  0
  1  3  1  0  0  0  0
  1  7  1  0  0  0  0
  1 14  1  0  0  0  0
  2  4  1  0  0  0  0
  2 15  1  0  0  0  0
  2 16  1  0  0  0  0
  3  5  1  0  0  0  0
  3 17  1  0  0  0  0
  3 18  1  0  0  0  0
  4  6  1  0  0  0  0
  4 19  1  0  0  0  0
  4 20  1  0  0  0  0
  5  6  1  0  0  0  0
  5 21  1  0  0  0  0
  5 22  1  0  0  0  0
  6 23  1  0  0  0  0
  6 24  1  0  0  0  0
  7  8  1  0  0  0  0
  7  9  2  0  0  0  0
  8 10  2  0  0  0  0
  8 25  1  0  0  0  0
  9 11  1  0  0  0  0
  9 26  1  0  0  0  0
 10 12  1  0  0  0  0
 10 13  1  0  0  0  0
 11 12  2  0  0  0  0
 11 27  1  0  0  0  0
 12 28  1  0  0  0  0
 13 29  1  0  0  0  0
 13 30  1  0  0  0  0
 13 31  1  0  0  0  0
M  END
> <PUBCHEM_COMPOUND_CID>
583139

> <PUBCHEM_CONFORMER_RMSD>
0.6

> <PUBCHEM_CONFORMER_DIVERSEORDER>
1
8
2
7
5
4
3
9
6

> <PUBCHEM_MMFF94_PARTIAL_CHARGES>
12
1 0.14
10 -0.14
11 -0.15
12 -0.15
13 0.14
25 0.15
26 0.15
27 0.15
28 0.15
7 -0.14
8 -0.15
9 -0.15

> <PUBCHEM_EFFECTIVE_ROTOR_COUNT>
2.2

> <PUBCHEM_PHARMACOPHORE_FEATURES>
2
6 1 2 3 4 5 6 rings
6 7 8 9 10 11 12 rings

> <PUBCHEM_HEAVY_ATOM_COUNT>
13

> <PUBCHEM_ATOM_DEF_STEREO_COUNT>
0

> <PUBCHEM_ATOM_UDEF_STEREO_COUNT>
0

> <PUBCHEM_BOND_DEF_STEREO_COUNT>
0

> <PUBCHEM_BOND_UDEF_STEREO_COUNT>
0

> <PUBCHEM_ISOTOPIC_ATOM_COUNT>
0

> <PUBCHEM_COMPONENT_COUNT>
1

> <PUBCHEM_CACTVS_TAUTO_COUNT>
1

> <PUBCHEM_CONFORMER_ID>
0008E5E300000001

> <PUBCHEM_MMFF94_ENERGY>
24.1049

> <PUBCHEM_FEATURE_SELFOVERLAP>
10.149

> <PUBCHEM_SHAPE_FINGERPRINT>
10465860 71 15574989529271352464
10608611 8 18202568397058022317
107287 299 18201710752318559110
10857977 72 16702014275532914983
10980938 120 18408040706319418984
11031198 65 18413384319897964500
11132069 177 16917067750720351381
11471102 20 18411702114526167598
12236239 1 17676207987148174871
124424 183 17560530593910046994
12932764 1 17775287174629296739
13296908 3 17632855334697482235
13538477 17 17385732386983566495
13581323 91 15123510306889252321
14144814 61 17603868922602622371
14897335 6 18262523593778932018
15219456 202 18060137634867554393
15279307 12 17749393675958936527
15342168 16 18197770016598084237
15653759 3 17203607098883124856
15775835 57 18186518774118956780
16945 1 18410855494947056934
17844478 74 17917987308646680525
1813 80 17753314659521001814
18175812 5 17918272051930025071
18186145 218 18335135380242242124
19049666 15 17559403662968310655
19422 9 17822012008089224047
200 152 18260838115568300271
20201158 50 18131070480076456787
20279233 1 17704355476414039211
20645464 45 17489591151684255425
20645476 183 17603872178340788239
20645477 70 18339651138711531447
20715346 28 17846776299764938015
21486144 27 18272651238073535023
21499 59 18263926544851601140
21639500 275 18336555927669452148
21730867 7 18343862221190774178
22096605 113 18339934726780061245
2255824 54 18335137626769113998
22854114 111 18410292506090938696
23048698 100 18259703410862352273
23402655 69 18334298711949525069
23557571 272 17346590868530794131
23559900 14 16630249207496663138
25 1 18410853222972589460
2748010 2 18195517109173056998
3248919 1 17821447967040133527
474 4 18116441340794291608
6049 1 17846211202301462765
77492 1 17676489462267329795
8030462 33 17603868883842421754
88987 49 15864076489484446221

> <PUBCHEM_SHAPE_MULTIPOLES>
267.53
6.59
1.55
1.11
1.68
0.18
0
1.56
0
-1.98
0
1.18
0.03
0

> <PUBCHEM_SHAPE_SELFOVERLAP>
553.919

> <PUBCHEM_SHAPE_VOLUME>
147.8

> <PUBCHEM_COORDINATE_TYPE>
2
5
10

$$$$

