5860
  -OEChem-06261200562D

 52 53  0     1  0  0  0  0  0999 V2000
    7.3042    5.1200    0.0000 O   0  0  0  0  0  0  0  0  0  0  0  0
    8.1702    3.6200    0.0000 O   0  0  0  0  0  0  0  0  0  0  0  0
    4.7061    3.6200    0.0000 O   0  0  0  0  0  0  0  0  0  0  0  0
    1.7320    5.7580    0.0000 O   0  5  0  0  0  0  0  0  0  0  0  0
    0.0000    5.7580    0.0000 O   0  5  0  0  0  0  0  0  0  0  0  0
    0.8660    4.2580    0.0000 O   0  0  0  0  0  0  0  0  0  0  0  0
   10.1411    8.4050    0.0000 N   0  3  0  0  0  0  0  0  0  0  0  0
    0.8660    5.2580    0.0000 N   0  3  0  0  0  0  0  0  0  0  0  0
   10.8777    7.4223    0.0000 C   0  0  3  0  0  0  0  0  0  0  0  0
   10.6189    6.4564    0.0000 C   0  0  3  0  0  0  0  0  0  0  0  0
   12.7097    6.6635    0.0000 C   0  0  0  0  0  0  0  0  0  0  0  0
   12.4508    5.6976    0.0000 C   0  0  0  0  0  0  0  0  0  0  0  0
    8.2747    6.6145    0.0000 C   0  0  0  0  0  0  0  0  0  0  0  0
    9.0837    5.2133    0.0000 C   0  0  0  0  0  0  0  0  0  0  0  0
    8.1702    5.6200    0.0000 C   0  0  0  0  0  0  0  0  0  0  0  0
   10.2456    9.3995    0.0000 C   0  0  0  0  0  0  0  0  0  0  0  0
    9.2276    8.8117    0.0000 C   0  0  0  0  0  0  0  0  0  0  0  0
    7.3042    4.1200    0.0000 C   0  0  0  0  0  0  0  0  0  0  0  0
    6.4381    3.6200    0.0000 C   0  0  3  0  0  0  0  0  0  0  0  0
    5.5721    4.1200    0.0000 C   0  0  0  0  0  0  0  0  0  0  0  0
    6.4381    2.6200    0.0000 C   0  0  0  0  0  0  0  0  0  0  0  0
    5.5721    2.1200    0.0000 C   0  0  0  0  0  0  0  0  0  0  0  0
    7.3042    2.1200    0.0000 C   0  0  0  0  0  0  0  0  0  0  0  0
    5.5721    1.1200    0.0000 C   0  0  0  0  0  0  0  0  0  0  0  0
    7.3042    1.1200    0.0000 C   0  0  0  0  0  0  0  0  0  0  0  0
    6.4381    0.6200    0.0000 C   0  0  0  0  0  0  0  0  0  0  0  0
   10.8493    6.8030    0.0000 H   0  0  0  0  0  0  0  0  0  0  0  0
   10.7079    5.8428    0.0000 H   0  0  0  0  0  0  0  0  0  0  0  0
   13.3010    6.4771    0.0000 H   0  0  0  0  0  0  0  0  0  0  0  0
   12.9217    7.2461    0.0000 H   0  0  0  0  0  0  0  0  0  0  0  0
   12.2388    5.1150    0.0000 H   0  0  0  0  0  0  0  0  0  0  0  0
   13.0422    5.5112    0.0000 H   0  0  0  0  0  0  0  0  0  0  0  0
    8.1725    7.2260    0.0000 H   0  0  0  0  0  0  0  0  0  0  0  0
    7.6550    6.5956    0.0000 H   0  0  0  0  0  0  0  0  0  0  0  0
    8.7461    4.6933    0.0000 H   0  0  0  0  0  0  0  0  0  0  0  0
    9.5445    4.7984    0.0000 H   0  0  0  0  0  0  0  0  0  0  0  0
    7.6502    5.9577    0.0000 H   0  0  0  0  0  0  0  0  0  0  0  0
   10.8622    9.3347    0.0000 H   0  0  0  0  0  0  0  0  0  0  0  0
   10.3104   10.0161    0.0000 H   0  0  0  0  0  0  0  0  0  0  0  0
    9.6290    9.4643    0.0000 H   0  0  0  0  0  0  0  0  0  0  0  0
    9.4797    9.3781    0.0000 H   0  0  0  0  0  0  0  0  0  0  0  0
    8.6612    9.0639    0.0000 H   0  0  0  0  0  0  0  0  0  0  0  0
    8.9754    8.2453    0.0000 H   0  0  0  0  0  0  0  0  0  0  0  0
    6.4381    4.2400    0.0000 H   0  0  0  0  0  0  0  0  0  0  0  0
    5.9706    4.5950    0.0000 H   0  0  0  0  0  0  0  0  0  0  0  0
    5.1736    4.5950    0.0000 H   0  0  0  0  0  0  0  0  0  0  0  0
    5.0352    2.4300    0.0000 H   0  0  0  0  0  0  0  0  0  0  0  0
    7.8411    2.4300    0.0000 H   0  0  0  0  0  0  0  0  0  0  0  0
    4.1692    3.9300    0.0000 H   0  0  0  0  0  0  0  0  0  0  0  0
    5.0352    0.8100    0.0000 H   0  0  0  0  0  0  0  0  0  0  0  0
    7.8411    0.8100    0.0000 H   0  0  0  0  0  0  0  0  0  0  0  0
    6.4381    0.0000    0.0000 H   0  0  0  0  0  0  0  0  0  0  0  0
  1 15  1  0  0  0  0
  1 18  1  0  0  0  0
  2 18  2  0  0  0  0
  3 20  1  0  0  0  0
  3 49  1  0  0  0  0
  4  8  1  0  0  0  0
  5  8  1  0  0  0  0
  6  8  2  0  0  0  0
  7  9  1  0  0  0  0
  7 10  1  0  0  0  0
  7 16  1  0  0  0  0
  7 17  1  0  0  0  0
  9 11  1  0  0  0  0
  9 13  1  0  0  0  0
  9 27  1  0  0  0  0
 10 12  1  0  0  0  0
 10 14  1  0  0  0  0
 10 28  1  0  0  0  0
 11 12  1  0  0  0  0
 11 29  1  0  0  0  0
 11 30  1  0  0  0  0
 12 31  1  0  0  0  0
 12 32  1  0  0  0  0
 13 15  1  0  0  0  0
 13 33  1  0  0  0  0
 13 34  1  0  0  0  0
 14 15  1  0  0  0  0
 14 35  1  0  0  0  0
 14 36  1  0  0  0  0
 15 37  1  0  0  0  0
 16 38  1  0  0  0  0
 16 39  1  0  0  0  0
 16 40  1  0  0  0  0
 17 41  1  0  0  0  0
 17 42  1  0  0  0  0
 17 43  1  0  0  0  0
 18 19  1  0  0  0  0
 19 20  1  0  0  0  0
 19 21  1  0  0  0  0
 19 44  1  0  0  0  0
 20 45  1  0  0  0  0
 20 46  1  0  0  0  0
 21 22  2  0  0  0  0
 21 23  1  0  0  0  0
 22 24  1  0  0  0  0
 22 47  1  0  0  0  0
 23 25  2  0  0  0  0
 23 48  1  0  0  0  0
 24 26  2  0  0  0  0
 24 50  1  0  0  0  0
 25 26  1  0  0  0  0
 25 51  1  0  0  0  0
 26 52  1  0  0  0  0
M  CHG  4   4  -1   5  -1   7   1   8   1
M  END
> <PUBCHEM_COMPOUND_CID>
5860

> <PUBCHEM_COMPOUND_CANONICALIZED>
1

> <PUBCHEM_CACTVS_COMPLEXITY>
406

> <PUBCHEM_CACTVS_HBOND_ACCEPTOR>
6

> <PUBCHEM_CACTVS_HBOND_DONOR>
1

> <PUBCHEM_CACTVS_ROTATABLE_BOND>
5

> <PUBCHEM_CACTVS_SUBSKEYS>
AAADceB7OAAAAAAAAAAAAAAAAAAAAWAAAAA8QAAABgAAAAABAAAAHgAECAAADTzhmAYyCIMARgCJAiDSCQACAAAgAAAIiAEIAIgIMDaAlRCGYAAn4AGIiAeYyOCOgAAAAAAAAAAAAAAAAAAAAAAAAAAAAA==

> <PUBCHEM_IUPAC_OPENEYE_NAME>
(8,8-dimethyl-8-azoniabicyclo[3.2.1]octan-3-yl) 3-hydroxy-2-phenyl-propanoate nitrate

> <PUBCHEM_IUPAC_CAS_NAME>
3-hydroxy-2-phenylpropanoic acid (8,8-dimethyl-8-azoniabicyclo[3.2.1]octan-3-yl) ester nitrate

> <PUBCHEM_IUPAC_NAME>
(8,8-dimethyl-8-azoniabicyclo[3.2.1]octan-3-yl) 3-hydroxy-2-phenylpropanoate nitrate

> <PUBCHEM_IUPAC_SYSTEMATIC_NAME>
(8,8-dimethyl-8-azoniabicyclo[3.2.1]octan-3-yl) 3-oxidanyl-2-phenyl-propanoate nitrate

> <PUBCHEM_IUPAC_TRADITIONAL_NAME>
3-hydroxy-2-phenyl-propionic acid (8,8-dimethyl-8-azoniabicyclo[3.2.1]octan-3-yl) ester nitrate

> <PUBCHEM_IUPAC_INCHI>
InChI=1S/C18H26NO3.NO3/c1-19(2)14-8-9-15(19)11-16(10-14)22-18(21)17(12-20)13-6-4-3-5-7-13;2-1(3)4/h3-7,14-17,20H,8-12H2,1-2H3;/q+1;-1

> <PUBCHEM_IUPAC_INCHIKEY>
NEDVJZNVOSNSHF-UHFFFAOYSA-N

> <PUBCHEM_EXACT_MASS>
366.179087

> <PUBCHEM_MOLECULAR_FORMULA>
C18H26N2O6

> <PUBCHEM_MOLECULAR_WEIGHT>
366.40884

> <PUBCHEM_OPENEYE_CAN_SMILES>
C[N+]1(C2CCC1CC(C2)OC(=O)C(CO)C3=CC=CC=C3)C.[N+](=O)([O-])[O-]

> <PUBCHEM_OPENEYE_ISO_SMILES>
C[N+]1(C2CCC1CC(C2)OC(=O)C(CO)C3=CC=CC=C3)C.[N+](=O)([O-])[O-]

> <PUBCHEM_CACTVS_TPSA>
109

> <PUBCHEM_MONOISOTOPIC_WEIGHT>
366.179087

> <PUBCHEM_TOTAL_CHARGE>
0

> <PUBCHEM_HEAVY_ATOM_COUNT>
26

> <PUBCHEM_ATOM_DEF_STEREO_COUNT>
0

> <PUBCHEM_ATOM_UDEF_STEREO_COUNT>
3

> <PUBCHEM_BOND_DEF_STEREO_COUNT>
0

> <PUBCHEM_BOND_UDEF_STEREO_COUNT>
0

> <PUBCHEM_ISOTOPIC_ATOM_COUNT>
0

> <PUBCHEM_COMPONENT_COUNT>
2

> <PUBCHEM_CACTVS_TAUTO_COUNT>
1

> <PUBCHEM_COORDINATE_TYPE>
1
5
255

> <PUBCHEM_BONDANNOTATIONS>
10  12  3
19  20  3
21  22  8
21  23  8
22  24  8
23  25  8
24  26  8
25  26  8
9  11  3

$$$$

