13808
  -OEChem-06241222403D

 65 66  0     0  0  0  0  0  0999 V2000
   -1.1632   -0.3524   -3.5937 O   0  0  0  0  0  0  0  0  0  0  0  0
   -0.8772    1.6437    0.6855 O   0  0  0  0  0  0  0  0  0  0  0  0
   -4.2349   -1.6513   -0.0609 O   0  0  0  0  0  0  0  0  0  0  0  0
    1.7450    3.4480   -0.6691 O   0  0  0  0  0  0  0  0  0  0  0  0
    0.9173   -1.2166   -1.2864 O   0  0  0  0  0  0  0  0  0  0  0  0
   -2.6142   -0.5773    2.6850 O   0  0  0  0  0  0  0  0  0  0  0  0
    4.6752    0.2271    1.2966 O   0  0  0  0  0  0  0  0  0  0  0  0
    3.9382   -2.4975   -0.5357 O   0  0  0  0  0  0  0  0  0  0  0  0
   -2.8438   -1.1351   -1.9637 C   0  0  0  0  0  0  0  0  0  0  0  0
   -1.6550   -0.2574   -2.2992 C   0  0  0  0  0  0  0  0  0  0  0  0
   -1.0749    0.5858   -1.4252 C   0  0  0  0  0  0  0  0  0  0  0  0
   -3.2971   -0.9803   -0.5011 C   0  0  0  0  0  0  0  0  0  0  0  0
    0.1116    1.4402   -1.8053 C   0  0  0  0  0  0  0  0  0  0  0  0
   -2.6127   -0.0092    0.4085 C   0  0  0  0  0  0  0  0  0  0  0  0
   -4.0496   -0.7577   -2.8442 C   0  0  0  0  0  0  0  0  0  0  0  0
   -2.4841   -2.6200   -2.1623 C   0  0  0  0  0  0  0  0  0  0  0  0
   -1.5763    0.7121   -0.0599 C   0  0  0  0  0  0  0  0  0  0  0  0
    1.3221    1.1173   -0.9834 C   0  0  0  0  0  0  0  0  0  0  0  0
   -3.0890    0.1301    1.7981 C   0  0  0  0  0  0  0  0  0  0  0  0
    2.0916    2.1474   -0.4464 C   0  0  0  0  0  0  0  0  0  0  0  0
    1.6746   -0.2118   -0.7581 C   0  0  0  0  0  0  0  0  0  0  0  0
   -4.1654    1.1719    2.0441 C   0  0  0  0  0  0  0  0  0  0  0  0
    2.8013   -0.5121    0.0075 C   0  0  0  0  0  0  0  0  0  0  0  0
    3.2182    1.8472    0.3190 C   0  0  0  0  0  0  0  0  0  0  0  0
    3.5731    0.5174    0.5460 C   0  0  0  0  0  0  0  0  0  0  0  0
   -4.0701    1.7894    3.4372 C   0  0  0  0  0  0  0  0  0  0  0  0
    3.1718   -1.9030    0.2459 C   0  0  0  0  0  0  0  0  0  0  0  0
    4.0458    2.9513    0.8958 C   0  0  0  0  0  0  0  0  0  0  0  0
    2.6131   -2.6433    1.4725 C   0  0  0  0  0  0  0  0  0  0  0  0
   -2.7453    2.5065    3.6400 C   0  0  0  0  0  0  0  0  0  0  0  0
    2.4711   -4.1501    1.2566 C   0  0  0  0  0  0  0  0  0  0  0  0
    2.2969    4.0751   -1.8240 C   0  0  0  0  0  0  0  0  0  0  0  0
    1.8858   -4.8358    2.4803 C   0  0  0  0  0  0  0  0  0  0  0  0
   -0.1942    2.4891   -1.7040 H   0  0  0  0  0  0  0  0  0  0  0  0
    0.3898    1.3238   -2.8599 H   0  0  0  0  0  0  0  0  0  0  0  0
   -4.9312   -1.3604   -2.5955 H   0  0  0  0  0  0  0  0  0  0  0  0
   -3.8468   -0.9093   -3.9099 H   0  0  0  0  0  0  0  0  0  0  0  0
   -4.3283    0.2935   -2.7016 H   0  0  0  0  0  0  0  0  0  0  0  0
   -3.3238   -3.2744   -1.8997 H   0  0  0  0  0  0  0  0  0  0  0  0
   -1.6397   -2.9095   -1.5251 H   0  0  0  0  0  0  0  0  0  0  0  0
   -2.2145   -2.8465   -3.1994 H   0  0  0  0  0  0  0  0  0  0  0  0
   -5.1369    0.6797    1.9239 H   0  0  0  0  0  0  0  0  0  0  0  0
   -4.0934    1.9614    1.2872 H   0  0  0  0  0  0  0  0  0  0  0  0
   -1.7074   -0.9828   -4.0920 H   0  0  0  0  0  0  0  0  0  0  0  0
   -1.2204    1.6409    1.5924 H   0  0  0  0  0  0  0  0  0  0  0  0
   -4.8908    2.5043    3.5656 H   0  0  0  0  0  0  0  0  0  0  0  0
   -4.1884    1.0190    4.2078 H   0  0  0  0  0  0  0  0  0  0  0  0
    3.4519    3.8500    1.0923 H   0  0  0  0  0  0  0  0  0  0  0  0
    4.8573    3.2099    0.2083 H   0  0  0  0  0  0  0  0  0  0  0  0
    4.4816    2.6654    1.8592 H   0  0  0  0  0  0  0  0  0  0  0  0
    1.6338   -2.2151    1.7170 H   0  0  0  0  0  0  0  0  0  0  0  0
    3.2888   -2.4436    2.3119 H   0  0  0  0  0  0  0  0  0  0  0  0
    1.2862   -2.0853   -1.0611 H   0  0  0  0  0  0  0  0  0  0  0  0
    1.8300   -4.3404    0.3877 H   0  0  0  0  0  0  0  0  0  0  0  0
    3.4496   -4.5896    1.0302 H   0  0  0  0  0  0  0  0  0  0  0  0
   -1.9045    1.8086    3.6812 H   0  0  0  0  0  0  0  0  0  0  0  0
   -2.7602    3.0488    4.5913 H   0  0  0  0  0  0  0  0  0  0  0  0
   -2.5609    3.2348    2.8440 H   0  0  0  0  0  0  0  0  0  0  0  0
    4.8293   -0.7302    1.3309 H   0  0  0  0  0  0  0  0  0  0  0  0
    1.9025    5.0934   -1.8807 H   0  0  0  0  0  0  0  0  0  0  0  0
    2.0096    3.5398   -2.7345 H   0  0  0  0  0  0  0  0  0  0  0  0
    3.3875    4.1281   -1.7527 H   0  0  0  0  0  0  0  0  0  0  0  0
    0.8899   -4.4440    2.7105 H   0  0  0  0  0  0  0  0  0  0  0  0
    1.7950   -5.9122    2.3046 H   0  0  0  0  0  0  0  0  0  0  0  0
    2.5251   -4.6869    3.3564 H   0  0  0  0  0  0  0  0  0  0  0  0
  1 10  1  0  0  0  0
  1 44  1  0  0  0  0
  2 17  1  0  0  0  0
  2 45  1  0  0  0  0
  3 12  2  0  0  0  0
  4 20  1  0  0  0  0
  4 32  1  0  0  0  0
  5 21  1  0  0  0  0
  5 53  1  0  0  0  0
  6 19  2  0  0  0  0
  7 25  1  0  0  0  0
  7 59  1  0  0  0  0
  8 27  2  0  0  0  0
  9 10  1  0  0  0  0
  9 12  1  0  0  0  0
  9 15  1  0  0  0  0
  9 16  1  0  0  0  0
 10 11  2  0  0  0  0
 11 13  1  0  0  0  0
 11 17  1  0  0  0  0
 12 14  1  0  0  0  0
 13 18  1  0  0  0  0
 13 34  1  0  0  0  0
 13 35  1  0  0  0  0
 14 17  2  0  0  0  0
 14 19  1  0  0  0  0
 15 36  1  0  0  0  0
 15 37  1  0  0  0  0
 15 38  1  0  0  0  0
 16 39  1  0  0  0  0
 16 40  1  0  0  0  0
 16 41  1  0  0  0  0
 18 20  2  0  0  0  0
 18 21  1  0  0  0  0
 19 22  1  0  0  0  0
 20 24  1  0  0  0  0
 21 23  2  0  0  0  0
 22 26  1  0  0  0  0
 22 42  1  0  0  0  0
 22 43  1  0  0  0  0
 23 25  1  0  0  0  0
 23 27  1  0  0  0  0
 24 25  2  0  0  0  0
 24 28  1  0  0  0  0
 26 30  1  0  0  0  0
 26 46  1  0  0  0  0
 26 47  1  0  0  0  0
 27 29  1  0  0  0  0
 28 48  1  0  0  0  0
 28 49  1  0  0  0  0
 28 50  1  0  0  0  0
 29 31  1  0  0  0  0
 29 51  1  0  0  0  0
 29 52  1  0  0  0  0
 30 56  1  0  0  0  0
 30 57  1  0  0  0  0
 30 58  1  0  0  0  0
 31 33  1  0  0  0  0
 31 54  1  0  0  0  0
 31 55  1  0  0  0  0
 32 60  1  0  0  0  0
 32 61  1  0  0  0  0
 32 62  1  0  0  0  0
 33 63  1  0  0  0  0
 33 64  1  0  0  0  0
 33 65  1  0  0  0  0
M  END
> <PUBCHEM_COMPOUND_CID>
13808

> <PUBCHEM_CONFORMER_RMSD>
1

> <PUBCHEM_CONFORMER_DIVERSEORDER>
8
20
142
138
62
98
104
128
103
69
110
136
121
39
6
75
141
81
144
19
41
65
99
107
11
44
108
119
23
130
139
101
93
122
26
50
95
134
60
15
109
73
125
114
38
86
18
100
49
102
131
123
91
40
63
2
129
117
48
25
133
124
87
89
72
43
71
31
127
59
92
116
88
5
37
135
112
111
36
52
115
45
68
85
29
143
4
78
118
57
22
137
67
33
61
12
21
97
83
126
66
96
27
120
113
106
64
77
1
35
82
53
105
84
74
76
30
3
32
47
34
132
79
28
140
58
94
10
51
46
24
80
54
16
55
14
9
56
70
42
13
90
17
7

> <PUBCHEM_MMFF94_PARTIAL_CHARGES>
31
1 -0.53
10 -0.06
11 -0.14
12 0.49
13 0.28
14 0.03
17 0.08
18 -0.14
19 0.49
2 -0.53
20 0.08
21 0.08
22 0.06
23 0.09
24 -0.14
25 0.08
27 0.42
28 0.14
29 0.06
3 -0.57
32 0.28
4 -0.36
44 0.45
45 0.45
5 -0.53
53 0.45
59 0.45
6 -0.57
7 -0.53
8 -0.57
9 0.2

> <PUBCHEM_EFFECTIVE_ROTOR_COUNT>
9.2

> <PUBCHEM_PHARMACOPHORE_FEATURES>
14
1 1 donor
1 14 anion
1 2 donor
1 3 acceptor
1 30 hydrophobe
1 33 hydrophobe
1 4 acceptor
1 5 donor
1 6 acceptor
1 7 donor
1 8 acceptor
3 9 15 16 hydrophobe
6 18 20 21 23 24 25 rings
6 9 10 11 12 14 17 rings

> <PUBCHEM_HEAVY_ATOM_COUNT>
33

> <PUBCHEM_ATOM_DEF_STEREO_COUNT>
0

> <PUBCHEM_ATOM_UDEF_STEREO_COUNT>
0

> <PUBCHEM_BOND_DEF_STEREO_COUNT>
0

> <PUBCHEM_BOND_UDEF_STEREO_COUNT>
0

> <PUBCHEM_ISOTOPIC_ATOM_COUNT>
0

> <PUBCHEM_COMPONENT_COUNT>
1

> <PUBCHEM_CACTVS_TAUTO_COUNT>
418

> <PUBCHEM_CONFORMER_ID>
000035F000000008

> <PUBCHEM_MMFF94_ENERGY>
102.2362

> <PUBCHEM_FEATURE_SELFOVERLAP>
71.041

> <PUBCHEM_SHAPE_FINGERPRINT>
10764073 3 16906356583442206121
11421498 54 17750803146881163522
11578080 2 17463173151476507597
11595378 159 17167863015552193959
12128747 34 17485913435919753161
12156800 1 15389732102327523667
12160290 23 16371270161760376205
12553582 1 18198908209075906618
12788726 201 17531248288918217543
13383668 90 13101345996341471464
13583140 156 18267846351345019665
13726171 33 16227153821958390840
13965767 371 17896308285105856208
14659021 117 16904723778584145842
14844126 61 16827878945141469274
15403338 16 18268129007463688777
17138139 8 17035879641214622142
19315092 285 17538333584217433002
20511986 3 18113629958260251065
20775530 9 17414142826969410546
21133410 230 15594664594393022115
21756936 100 17614251409289201332
22440779 20 16911128385958603886
23559900 14 15625405436583746684
238918 7 16964903391003273161
3383291 50 16756376625580944271
3737641 26 17840570811300535962
392239 28 17246690165216920808
7097593 13 18261669367548976660
77296 10 18200861956018951825
7808743 9 16805590439506691393
86090 222 16987124272002949483
9849439 229 16734647875483332481

> <PUBCHEM_SHAPE_MULTIPOLES>
632.17
8.49
4.77
3.65
0.72
2.54
1.12
0.09
3.54
-5.9
2.12
5.28
-0.35
-4.44

> <PUBCHEM_SHAPE_SELFOVERLAP>
1337.132

> <PUBCHEM_SHAPE_VOLUME>
353.3

> <PUBCHEM_COORDINATE_TYPE>
2
5
10

$$$$

