10617
  -OEChem-06261204452D

 37 40  0     0  0  0  0  0  0999 V2000
    2.0000    0.8381    0.0000 O   0  0  0  0  0  0  0  0  0  0  0  0
    2.9866    4.3060    0.0000 O   0  0  0  0  0  0  0  0  0  0  0  0
    4.4900    3.4458    0.0000 O   0  0  0  0  0  0  0  0  0  0  0  0
    4.0241   -3.3610    0.0000 C   0  0  0  0  0  0  0  0  0  0  0  0
    3.5241   -1.8222    0.0000 C   0  0  0  0  0  0  0  0  0  0  0  0
    3.2151   -2.7732    0.0000 C   0  0  0  0  0  0  0  0  0  0  0  0
    4.8332   -2.7732    0.0000 C   0  0  0  0  0  0  0  0  0  0  0  0
    4.5241   -1.8222    0.0000 C   0  0  0  0  0  0  0  0  0  0  0  0
    4.1170   -4.3985    0.0000 C   0  0  0  0  0  0  0  0  0  0  0  0
    2.9895   -0.9282    0.0000 C   0  0  0  0  0  0  0  0  0  0  0  0
    5.0588   -0.9282    0.0000 C   0  0  0  0  0  0  0  0  0  0  0  0
    2.3588   -3.3042    0.0000 C   0  0  0  0  0  0  0  0  0  0  0  0
    3.5033   -0.0221    0.0000 C   0  0  0  0  0  0  0  0  0  0  0  0
    5.7912   -3.1822    0.0000 C   0  0  0  0  0  0  0  0  0  0  0  0
    4.5450   -0.0221    0.0000 C   0  0  0  0  0  0  0  0  0  0  0  0
    3.2134   -4.8441    0.0000 C   0  0  0  0  0  0  0  0  0  0  0  0
    5.0653   -4.8295    0.0000 C   0  0  0  0  0  0  0  0  0  0  0  0
    2.3580   -4.3118    0.0000 C   0  0  0  0  0  0  0  0  0  0  0  0
    5.9080   -4.2172    0.0000 C   0  0  0  0  0  0  0  0  0  0  0  0
    3.0000    0.8419    0.0000 C   0  0  0  0  0  0  0  0  0  0  0  0
    3.4966    1.7099    0.0000 C   0  0  0  0  0  0  0  0  0  0  0  0
    2.9933    2.5740    0.0000 C   0  0  0  0  0  0  0  0  0  0  0  0
    3.4900    3.4419    0.0000 C   0  0  0  0  0  0  0  0  0  0  0  0
    2.3695   -0.9354    0.0000 H   0  0  0  0  0  0  0  0  0  0  0  0
    5.6788   -0.9354    0.0000 H   0  0  0  0  0  0  0  0  0  0  0  0
    1.8172   -3.0024    0.0000 H   0  0  0  0  0  0  0  0  0  0  0  0
    6.2885   -2.8120    0.0000 H   0  0  0  0  0  0  0  0  0  0  0  0
    4.8570    0.5136    0.0000 H   0  0  0  0  0  0  0  0  0  0  0  0
    3.1829   -5.4634    0.0000 H   0  0  0  0  0  0  0  0  0  0  0  0
    5.1278   -5.4463    0.0000 H   0  0  0  0  0  0  0  0  0  0  0  0
    1.8159   -4.6126    0.0000 H   0  0  0  0  0  0  0  0  0  0  0  0
    6.4754   -4.4672    0.0000 H   0  0  0  0  0  0  0  0  0  0  0  0
    3.9731    1.3132    0.0000 H   0  0  0  0  0  0  0  0  0  0  0  0
    3.9701    2.1102    0.0000 H   0  0  0  0  0  0  0  0  0  0  0  0
    2.5168    2.9707    0.0000 H   0  0  0  0  0  0  0  0  0  0  0  0
    2.5199    2.1736    0.0000 H   0  0  0  0  0  0  0  0  0  0  0  0
    3.2946    4.8441    0.0000 H   0  0  0  0  0  0  0  0  0  0  0  0
  1 20  2  0  0  0  0
  2 23  1  0  0  0  0
  2 37  1  0  0  0  0
  3 23  2  0  0  0  0
  4  6  1  0  0  0  0
  4  7  1  0  0  0  0
  4  9  2  0  0  0  0
  5  6  1  0  0  0  0
  5  8  2  0  0  0  0
  5 10  1  0  0  0  0
  6 12  2  0  0  0  0
  7  8  1  0  0  0  0
  7 14  2  0  0  0  0
  8 11  1  0  0  0  0
  9 16  1  0  0  0  0
  9 17  1  0  0  0  0
 10 13  2  0  0  0  0
 10 24  1  0  0  0  0
 11 15  2  0  0  0  0
 11 25  1  0  0  0  0
 12 18  1  0  0  0  0
 12 26  1  0  0  0  0
 13 15  1  0  0  0  0
 13 20  1  0  0  0  0
 14 19  1  0  0  0  0
 14 27  1  0  0  0  0
 15 28  1  0  0  0  0
 16 18  2  0  0  0  0
 16 29  1  0  0  0  0
 17 19  2  0  0  0  0
 17 30  1  0  0  0  0
 18 31  1  0  0  0  0
 19 32  1  0  0  0  0
 20 21  1  0  0  0  0
 21 22  1  0  0  0  0
 21 33  1  0  0  0  0
 21 34  1  0  0  0  0
 22 23  1  0  0  0  0
 22 35  1  0  0  0  0
 22 36  1  0  0  0  0
M  END
> <PUBCHEM_COMPOUND_CID>
10617

> <PUBCHEM_COMPOUND_CANONICALIZED>
1

> <PUBCHEM_CACTVS_COMPLEXITY>
485

> <PUBCHEM_CACTVS_HBOND_ACCEPTOR>
3

> <PUBCHEM_CACTVS_HBOND_DONOR>
1

> <PUBCHEM_CACTVS_ROTATABLE_BOND>
4

> <PUBCHEM_CACTVS_SUBSKEYS>
AAADccB4MAAAAAAAAAAAAAAAAAAAAYAAAAAwYMAAAAAAAGDBVAAAGgAACAAADASAmAAwCMAAAgCIAqDSCAACAAAkAAAIiAEAAMgIIDKAFRCAYQAkgAAIiYeLyPCOwAACAAAQAACAAAQAACAAAQAACAAAAA==

> <PUBCHEM_IUPAC_OPENEYE_NAME>
4-fluoranthen-8-yl-4-oxo-butanoic acid

> <PUBCHEM_IUPAC_CAS_NAME>
4-(8-fluoranthenyl)-4-oxobutanoic acid

> <PUBCHEM_IUPAC_NAME>
4-fluoranthen-8-yl-4-oxobutanoic acid

> <PUBCHEM_IUPAC_SYSTEMATIC_NAME>
4-fluoranthen-8-yl-4-oxidanylidene-butanoic acid

> <PUBCHEM_IUPAC_TRADITIONAL_NAME>
4-fluoranthen-8-yl-4-keto-butyric acid

> <PUBCHEM_IUPAC_INCHI>
InChI=1S/C20H14O3/c21-18(9-10-19(22)23)13-7-8-14-15-5-1-3-12-4-2-6-16(20(12)15)17(14)11-13/h1-8,11H,9-10H2,(H,22,23)

> <PUBCHEM_IUPAC_INCHIKEY>
QOBAOSCOLAGPKI-UHFFFAOYSA-N

> <PUBCHEM_XLOGP3_AA>
3.6

> <PUBCHEM_EXACT_MASS>
302.094294

> <PUBCHEM_MOLECULAR_FORMULA>
C20H14O3

> <PUBCHEM_MOLECULAR_WEIGHT>
302.32336

> <PUBCHEM_OPENEYE_CAN_SMILES>
C1=CC2=C3C(=C1)C4=C(C3=CC=C2)C=C(C=C4)C(=O)CCC(=O)O

> <PUBCHEM_OPENEYE_ISO_SMILES>
C1=CC2=C3C(=C1)C4=C(C3=CC=C2)C=C(C=C4)C(=O)CCC(=O)O

> <PUBCHEM_CACTVS_TPSA>
54.4

> <PUBCHEM_MONOISOTOPIC_WEIGHT>
302.094294

> <PUBCHEM_TOTAL_CHARGE>
0

> <PUBCHEM_HEAVY_ATOM_COUNT>
23

> <PUBCHEM_ATOM_DEF_STEREO_COUNT>
0

> <PUBCHEM_ATOM_UDEF_STEREO_COUNT>
0

> <PUBCHEM_BOND_DEF_STEREO_COUNT>
0

> <PUBCHEM_BOND_UDEF_STEREO_COUNT>
0

> <PUBCHEM_ISOTOPIC_ATOM_COUNT>
0

> <PUBCHEM_COMPONENT_COUNT>
1

> <PUBCHEM_CACTVS_TAUTO_COUNT>
2

> <PUBCHEM_COORDINATE_TYPE>
1
5
255

> <PUBCHEM_BONDANNOTATIONS>
10  13  8
11  15  8
12  18  8
13  15  8
14  19  8
16  18  8
17  19  8
4  6  8
4  7  8
4  9  8
5  10  8
5  8  8
6  12  8
7  14  8
8  11  8
9  16  8
9  17  8

$$$$

