17396442
  -OEChem-06241222562D

 27 27  0     0  0  0  0  0  0999 V2000
    6.3301    2.6550    0.0000 S   0  0  0  0  0  0  0  0  0  0  0  0
    6.3301    0.6550    0.0000 O   0  0  0  0  0  0  0  0  0  0  0  0
    2.0000   -1.8450    0.0000 O   0  0  0  0  0  0  0  0  0  0  0  0
    4.5981    0.6550    0.0000 N   0  0  0  0  0  0  0  0  0  0  0  0
    2.8660   -3.3450    0.0000 N   0  0  0  0  0  0  0  0  0  0  0  0
    4.5981   -0.3450    0.0000 C   0  0  0  0  0  0  0  0  0  0  0  0
    3.7320   -0.8450    0.0000 C   0  0  0  0  0  0  0  0  0  0  0  0
    3.7320   -1.8450    0.0000 C   0  0  0  0  0  0  0  0  0  0  0  0
    5.4641   -0.8450    0.0000 C   0  0  0  0  0  0  0  0  0  0  0  0
    4.5981   -2.3450    0.0000 C   0  0  0  0  0  0  0  0  0  0  0  0
    5.4641   -1.8450    0.0000 C   0  0  0  0  0  0  0  0  0  0  0  0
    5.4641    1.1550    0.0000 C   0  0  0  0  0  0  0  0  0  0  0  0
    5.4641    2.1550    0.0000 C   0  0  0  0  0  0  0  0  0  0  0  0
    2.8660   -2.3450    0.0000 C   0  0  0  0  0  0  0  0  0  0  0  0
    6.3301    3.6550    0.0000 C   0  0  0  0  0  0  0  0  0  0  0  0
    3.1951   -0.5350    0.0000 H   0  0  0  0  0  0  0  0  0  0  0  0
    6.0010   -0.5350    0.0000 H   0  0  0  0  0  0  0  0  0  0  0  0
    4.0611    0.9650    0.0000 H   0  0  0  0  0  0  0  0  0  0  0  0
    4.5981   -2.9650    0.0000 H   0  0  0  0  0  0  0  0  0  0  0  0
    6.0010   -2.1550    0.0000 H   0  0  0  0  0  0  0  0  0  0  0  0
    5.2520    2.7376    0.0000 H   0  0  0  0  0  0  0  0  0  0  0  0
    4.8535    2.0473    0.0000 H   0  0  0  0  0  0  0  0  0  0  0  0
    2.3291   -3.6550    0.0000 H   0  0  0  0  0  0  0  0  0  0  0  0
    3.4030   -3.6550    0.0000 H   0  0  0  0  0  0  0  0  0  0  0  0
    6.9501    3.6550    0.0000 H   0  0  0  0  0  0  0  0  0  0  0  0
    6.3301    4.2750    0.0000 H   0  0  0  0  0  0  0  0  0  0  0  0
    5.7101    3.6550    0.0000 H   0  0  0  0  0  0  0  0  0  0  0  0
  1 13  1  0  0  0  0
  1 15  1  0  0  0  0
  2 12  2  0  0  0  0
  3 14  2  0  0  0  0
  4  6  1  0  0  0  0
  4 12  1  0  0  0  0
  4 18  1  0  0  0  0
  5 14  1  0  0  0  0
  5 23  1  0  0  0  0
  5 24  1  0  0  0  0
  6  7  1  0  0  0  0
  6  9  2  0  0  0  0
  7  8  2  0  0  0  0
  7 16  1  0  0  0  0
  8 10  1  0  0  0  0
  8 14  1  0  0  0  0
  9 11  1  0  0  0  0
  9 17  1  0  0  0  0
 10 11  2  0  0  0  0
 10 19  1  0  0  0  0
 11 20  1  0  0  0  0
 12 13  1  0  0  0  0
 13 21  1  0  0  0  0
 13 22  1  0  0  0  0
 15 25  1  0  0  0  0
 15 26  1  0  0  0  0
 15 27  1  0  0  0  0
M  END
> <PUBCHEM_COMPOUND_CID>
17396442

> <PUBCHEM_COMPOUND_CANONICALIZED>
1

> <PUBCHEM_CACTVS_COMPLEXITY>
246

> <PUBCHEM_CACTVS_HBOND_ACCEPTOR>
3

> <PUBCHEM_CACTVS_HBOND_DONOR>
2

> <PUBCHEM_CACTVS_ROTATABLE_BOND>
4

> <PUBCHEM_CACTVS_SUBSKEYS>
AAADccBzMABAAAAAAAAAAAAAAAAAAAAAAAAwAAAAAAAAAAABAAAAHgQQAAAADAiF2ACywILAAAiIAiVSUACCAAAlAhAIiAEAZMgIIDLAlZGEIQhglADIyYcciACOAAAAQAAAAAAAAACAAAAAAAAAAAAAAA==

> <PUBCHEM_IUPAC_OPENEYE_NAME>
3-[(2-methylsulfanylacetyl)amino]benzamide

> <PUBCHEM_IUPAC_CAS_NAME>
3-[[2-(methylthio)-1-oxoethyl]amino]benzamide

> <PUBCHEM_IUPAC_NAME>
3-[(2-methylsulfanylacetyl)amino]benzamide

> <PUBCHEM_IUPAC_SYSTEMATIC_NAME>
3-(2-methylsulfanylethanoylamino)benzamide

> <PUBCHEM_IUPAC_TRADITIONAL_NAME>
3-[[2-(methylthio)acetyl]amino]benzamide

> <PUBCHEM_IUPAC_INCHI>
InChI=1S/C10H12N2O2S/c1-15-6-9(13)12-8-4-2-3-7(5-8)10(11)14/h2-5H,6H2,1H3,(H2,11,14)(H,12,13)

> <PUBCHEM_IUPAC_INCHIKEY>
IFPVZBSRFMDWEO-UHFFFAOYSA-N

> <PUBCHEM_XLOGP3>
1.4

> <PUBCHEM_EXACT_MASS>
224.061949

> <PUBCHEM_MOLECULAR_FORMULA>
C10H12N2O2S

> <PUBCHEM_MOLECULAR_WEIGHT>
224.27948

> <PUBCHEM_OPENEYE_CAN_SMILES>
CSCC(=O)NC1=CC=CC(=C1)C(=O)N

> <PUBCHEM_OPENEYE_ISO_SMILES>
CSCC(=O)NC1=CC=CC(=C1)C(=O)N

> <PUBCHEM_CACTVS_TPSA>
97.5

> <PUBCHEM_MONOISOTOPIC_WEIGHT>
224.061949

> <PUBCHEM_TOTAL_CHARGE>
0

> <PUBCHEM_HEAVY_ATOM_COUNT>
15

> <PUBCHEM_ATOM_DEF_STEREO_COUNT>
0

> <PUBCHEM_ATOM_UDEF_STEREO_COUNT>
0

> <PUBCHEM_BOND_DEF_STEREO_COUNT>
0

> <PUBCHEM_BOND_UDEF_STEREO_COUNT>
0

> <PUBCHEM_ISOTOPIC_ATOM_COUNT>
0

> <PUBCHEM_COMPONENT_COUNT>
1

> <PUBCHEM_CACTVS_TAUTO_COUNT>
6

> <PUBCHEM_COORDINATE_TYPE>
1
5
255

> <PUBCHEM_BONDANNOTATIONS>
10  11  8
6  7  8
6  9  8
7  8  8
8  10  8
9  11  8

$$$$

