10577
  -OEChem-06261204423D

 67 70  0     1  0  0  0  0  0999 V2000
   -1.8371    1.1186   -0.6282 O   0  0  0  0  0  0  0  0  0  0  0  0
   -1.9603   -2.0549   -0.2628 O   0  0  0  0  0  0  0  0  0  0  0  0
   -1.8901    2.0469    1.4823 O   0  0  0  0  0  0  0  0  0  0  0  0
   -3.7962   -1.2040   -1.3694 O   0  0  0  0  0  0  0  0  0  0  0  0
    9.0470   -0.0272    0.2257 O   0  0  0  0  0  0  0  0  0  0  0  0
   -4.9818    6.0941    0.7518 O   0  0  0  0  0  0  0  0  0  0  0  0
   -4.9173    4.9980   -1.2374 O   0  0  0  0  0  0  0  0  0  0  0  0
   -7.5859   -4.0954    0.5669 O   0  0  0  0  0  0  0  0  0  0  0  0
   -5.6978   -4.7426    1.6525 O   0  0  0  0  0  0  0  0  0  0  0  0
    0.5495    0.5036   -0.4080 C   0  0  1  0  0  0  0  0  0  0  0  0
    1.1803   -0.8969   -0.2584 C   0  0  2  0  0  0  0  0  0  0  0  0
    2.6915   -0.8774   -0.4893 C   0  0  1  0  0  0  0  0  0  0  0  0
   -0.9283    0.1283   -0.1804 C   0  0  2  0  0  0  0  0  0  0  0  0
    3.3490    0.0472    0.5799 C   0  0  2  0  0  0  0  0  0  0  0  0
    0.3001   -1.7855   -1.1385 C   0  0  0  0  0  0  0  0  0  0  0  0
    1.1534    1.4144    0.6681 C   0  0  0  0  0  0  0  0  0  0  0  0
   -1.1085   -1.1764   -0.9865 C   0  0  1  0  0  0  0  0  0  0  0  0
    2.6916    1.4535    0.5891 C   0  0  0  0  0  0  0  0  0  0  0  0
    3.3183   -2.2699   -0.3942 C   0  0  0  0  0  0  0  0  0  0  0  0
    0.7372    1.1572   -1.8000 C   0  0  0  0  0  0  0  0  0  0  0  0
    4.8701    0.0448    0.4522 C   0  0  0  0  0  0  0  0  0  0  0  0
    4.7944   -2.2010   -0.7743 C   0  0  0  0  0  0  0  0  0  0  0  0
    5.5368   -1.0442   -0.1513 C   0  0  0  0  0  0  0  0  0  0  0  0
    5.6490    1.0762    1.0063 C   0  0  0  0  0  0  0  0  0  0  0  0
    6.9407   -1.0493   -0.2305 C   0  0  0  0  0  0  0  0  0  0  0  0
   -2.2470    2.0309    0.3126 C   0  0  0  0  0  0  0  0  0  0  0  0
   -3.2973   -1.9658   -0.5530 C   0  0  0  0  0  0  0  0  0  0  0  0
    7.0432    1.0543    0.9282 C   0  0  0  0  0  0  0  0  0  0  0  0
    7.6893   -0.0058    0.3060 C   0  0  0  0  0  0  0  0  0  0  0  0
   -3.2099    3.0094   -0.3248 C   0  0  0  0  0  0  0  0  0  0  0  0
   -4.0573   -2.9588    0.2999 C   0  0  0  0  0  0  0  0  0  0  0  0
   -3.6547    4.1157    0.6242 C   0  0  0  0  0  0  0  0  0  0  0  0
   -5.5486   -2.9971   -0.0117 C   0  0  0  0  0  0  0  0  0  0  0  0
   -4.5679    5.0968   -0.0683 C   0  0  0  0  0  0  0  0  0  0  0  0
   -6.2554   -4.0377    0.8213 C   0  0  0  0  0  0  0  0  0  0  0  0
    1.0215   -1.2445    0.7764 H   0  0  0  0  0  0  0  0  0  0  0  0
    2.9033   -0.4878   -1.4935 H   0  0  0  0  0  0  0  0  0  0  0  0
   -1.1100   -0.1011    0.8798 H   0  0  0  0  0  0  0  0  0  0  0  0
    3.1468   -0.3931    1.5688 H   0  0  0  0  0  0  0  0  0  0  0  0
    0.3379   -2.8335   -0.8240 H   0  0  0  0  0  0  0  0  0  0  0  0
    0.6267   -1.7329   -2.1833 H   0  0  0  0  0  0  0  0  0  0  0  0
    0.7613    2.4345    0.5806 H   0  0  0  0  0  0  0  0  0  0  0  0
    0.8685    1.0564    1.6661 H   0  0  0  0  0  0  0  0  0  0  0  0
   -1.5135   -0.9870   -1.9889 H   0  0  0  0  0  0  0  0  0  0  0  0
    3.0064    2.0156   -0.2984 H   0  0  0  0  0  0  0  0  0  0  0  0
    3.0415    2.0291    1.4538 H   0  0  0  0  0  0  0  0  0  0  0  0
    3.2129   -2.6611    0.6260 H   0  0  0  0  0  0  0  0  0  0  0  0
    2.8150   -2.9791   -1.0608 H   0  0  0  0  0  0  0  0  0  0  0  0
    0.2967    0.5622   -2.6059 H   0  0  0  0  0  0  0  0  0  0  0  0
    0.2585    2.1429   -1.8303 H   0  0  0  0  0  0  0  0  0  0  0  0
    1.7888    1.3099   -2.0564 H   0  0  0  0  0  0  0  0  0  0  0  0
    5.2731   -3.1461   -0.4902 H   0  0  0  0  0  0  0  0  0  0  0  0
    4.8776   -2.1050   -1.8646 H   0  0  0  0  0  0  0  0  0  0  0  0
    5.1884    1.9159    1.5180 H   0  0  0  0  0  0  0  0  0  0  0  0
    7.4453   -1.8820   -0.7167 H   0  0  0  0  0  0  0  0  0  0  0  0
    7.6170    1.8696    1.3608 H   0  0  0  0  0  0  0  0  0  0  0  0
   -2.7106    3.4502   -1.1962 H   0  0  0  0  0  0  0  0  0  0  0  0
   -4.0824    2.4452   -0.6747 H   0  0  0  0  0  0  0  0  0  0  0  0
   -3.9035   -2.6885    1.3513 H   0  0  0  0  0  0  0  0  0  0  0  0
   -3.6202   -3.9502    0.1299 H   0  0  0  0  0  0  0  0  0  0  0  0
   -4.1902    3.6846    1.4773 H   0  0  0  0  0  0  0  0  0  0  0  0
   -2.7818    4.6622    0.9983 H   0  0  0  0  0  0  0  0  0  0  0  0
    9.3234   -0.8368   -0.2371 H   0  0  0  0  0  0  0  0  0  0  0  0
   -5.9997   -2.0205    0.1956 H   0  0  0  0  0  0  0  0  0  0  0  0
   -5.7048   -3.2379   -1.0692 H   0  0  0  0  0  0  0  0  0  0  0  0
   -5.5827    6.7196    0.2934 H   0  0  0  0  0  0  0  0  0  0  0  0
   -8.0360   -4.7680    1.1212 H   0  0  0  0  0  0  0  0  0  0  0  0
  1 13  1  0  0  0  0
  1 26  1  0  0  0  0
  2 17  1  0  0  0  0
  2 27  1  0  0  0  0
  3 26  2  0  0  0  0
  4 27  2  0  0  0  0
  5 29  1  0  0  0  0
  5 63  1  0  0  0  0
  6 34  1  0  0  0  0
  6 66  1  0  0  0  0
  7 34  2  0  0  0  0
  8 35  1  0  0  0  0
  8 67  1  0  0  0  0
  9 35  2  0  0  0  0
 10 11  1  0  0  0  0
 10 13  1  0  0  0  0
 10 16  1  0  0  0  0
 10 20  1  0  0  0  0
 11 12  1  0  0  0  0
 11 15  1  0  0  0  0
 11 36  1  0  0  0  0
 12 14  1  0  0  0  0
 12 19  1  0  0  0  0
 12 37  1  0  0  0  0
 13 17  1  0  0  0  0
 13 38  1  0  0  0  0
 14 18  1  0  0  0  0
 14 21  1  0  0  0  0
 14 39  1  0  0  0  0
 15 17  1  0  0  0  0
 15 40  1  0  0  0  0
 15 41  1  0  0  0  0
 16 18  1  0  0  0  0
 16 42  1  0  0  0  0
 16 43  1  0  0  0  0
 17 44  1  0  0  0  0
 18 45  1  0  0  0  0
 18 46  1  0  0  0  0
 19 22  1  0  0  0  0
 19 47  1  0  0  0  0
 19 48  1  0  0  0  0
 20 49  1  0  0  0  0
 20 50  1  0  0  0  0
 20 51  1  0  0  0  0
 21 23  2  0  0  0  0
 21 24  1  0  0  0  0
 22 23  1  0  0  0  0
 22 52  1  0  0  0  0
 22 53  1  0  0  0  0
 23 25  1  0  0  0  0
 24 28  2  0  0  0  0
 24 54  1  0  0  0  0
 25 29  2  0  0  0  0
 25 55  1  0  0  0  0
 26 30  1  0  0  0  0
 27 31  1  0  0  0  0
 28 29  1  0  0  0  0
 28 56  1  0  0  0  0
 30 32  1  0  0  0  0
 30 57  1  0  0  0  0
 30 58  1  0  0  0  0
 31 33  1  0  0  0  0
 31 59  1  0  0  0  0
 31 60  1  0  0  0  0
 32 34  1  0  0  0  0
 32 61  1  0  0  0  0
 32 62  1  0  0  0  0
 33 35  1  0  0  0  0
 33 64  1  0  0  0  0
 33 65  1  0  0  0  0
M  END
> <PUBCHEM_COMPOUND_CID>
10577

> <PUBCHEM_CONFORMER_RMSD>
1.2

> <PUBCHEM_CONFORMER_DIVERSEORDER>
1
7
6
3
12
10
5
9
8
2
4
11

> <PUBCHEM_MMFF94_PARTIAL_CHARGES>
33
1 -0.43
13 0.28
14 0.14
17 0.28
2 -0.43
21 -0.14
22 0.14
23 -0.14
24 -0.15
25 -0.15
26 0.66
27 0.66
28 -0.15
29 0.08
3 -0.57
30 0.06
31 0.06
32 0.06
33 0.06
34 0.66
35 0.66
4 -0.57
5 -0.53
54 0.15
55 0.15
56 0.15
6 -0.65
63 0.45
66 0.5
67 0.5
7 -0.57
8 -0.65
9 -0.57

> <PUBCHEM_EFFECTIVE_ROTOR_COUNT>
11.4

> <PUBCHEM_PHARMACOPHORE_FEATURES>
13
1 3 acceptor
1 4 acceptor
1 5 donor
1 6 acceptor
1 7 acceptor
1 8 acceptor
1 9 acceptor
3 6 7 34 anion
3 8 9 35 anion
5 10 11 13 15 17 rings
6 10 11 12 14 16 18 rings
6 12 14 19 21 22 23 rings
6 21 23 24 25 28 29 rings

> <PUBCHEM_HEAVY_ATOM_COUNT>
35

> <PUBCHEM_ATOM_DEF_STEREO_COUNT>
6

> <PUBCHEM_ATOM_UDEF_STEREO_COUNT>
0

> <PUBCHEM_BOND_DEF_STEREO_COUNT>
0

> <PUBCHEM_BOND_UDEF_STEREO_COUNT>
0

> <PUBCHEM_ISOTOPIC_ATOM_COUNT>
0

> <PUBCHEM_COMPONENT_COUNT>
1

> <PUBCHEM_CACTVS_TAUTO_COUNT>
9

> <PUBCHEM_CONFORMER_ID>
0000295100000001

> <PUBCHEM_MMFF94_ENERGY>
88.5059

> <PUBCHEM_FEATURE_SELFOVERLAP>
66.181

> <PUBCHEM_SHAPE_FINGERPRINT>
10050765 1 18337674247323481950
10411042 1 18267022744363769175
11297750 10 18189342277583736641
11411753 3 18114461249765746302
12106331 60 18338249175887658531
12925494 130 18261122910819085720
13540713 4 18042111223583089822
14068700 675 18129660786190307503
14790565 3 17613435962434557576
15064981 194 18263066847266555072
15347591 1 18410574033472621566
16090146 7 16917063335172712218
18608769 82 18408323267727774403
19301679 30 18338793408241799911
20105231 36 18114453471723204214
21057603 238 17971169638801562310
21236236 1 18261397758386204844
21267235 1 18335137545655261278
21639891 77 18187085040315015937
23569943 247 17557441061680917602
23845131 108 18051129495933081309
2747138 104 18339078169132281962
3418910 222 18200027323140436340
350125 39 18261112933414247848
4058900 60 17757831513185598753
4073 2 18338237171685888902
4144715 1 18336259162820222902
5028188 123 18340758331154271822
504843 32 18268997668994764613
5104073 3 18335993060180447978
6086070 43 16226631648624962768
6698420 124 17900532690595283561
9896288 288 18411421730387254571

> <PUBCHEM_SHAPE_MULTIPOLES>
667.46
20.02
6.78
1.17
18.43
6.71
-0.08
-7.94
5.27
-24.62
1.43
-0.56
-0.06
2.93

> <PUBCHEM_SHAPE_SELFOVERLAP>
1419.205

> <PUBCHEM_SHAPE_VOLUME>
368.1

> <PUBCHEM_COORDINATE_TYPE>
2
5
10

$$$$

