5027
  -OEChem-06261200282D

 41 43  0     1  0  0  0  0  0999 V2000
    7.4848   -3.3163    0.0000 Cl  0  0  0  0  0  0  0  0  0  0  0  0
    2.3784   -1.7312    0.0000 S   0  0  0  0  0  0  0  0  0  0  0  0
    5.4557    0.6134    0.0000 N   0  0  3  0  0  0  0  0  0  0  0  0
    4.0547   -1.1434    0.0000 N   0  0  0  0  0  0  0  0  0  0  0  0
    3.8414   -2.7387    0.0000 N   0  0  0  0  0  0  0  0  0  0  0  0
    4.4557    0.6134    0.0000 C   0  0  3  0  0  0  0  0  0  0  0  0
    3.8322   -0.1685    0.0000 C   0  0  0  0  0  0  0  0  0  0  0  0
    6.0792   -0.1685    0.0000 C   0  0  0  0  0  0  0  0  0  0  0  0
    4.9557   -1.5773    0.0000 C   0  0  0  0  0  0  0  0  0  0  0  0
    5.8566   -1.1434    0.0000 C   0  0  0  0  0  0  0  0  0  0  0  0
    5.8896    1.5143    0.0000 C   0  0  0  0  0  0  0  0  0  0  0  0
    4.0218    1.5143    0.0000 C   0  0  0  0  0  0  0  0  0  0  0  0
    4.8618   -2.6147    0.0000 C   0  0  0  0  0  0  0  0  0  0  0  0
    3.3696   -1.8637    0.0000 C   0  0  0  0  0  0  0  0  0  0  0  0
    6.7262   -1.7168    0.0000 C   0  0  0  0  0  0  0  0  0  0  0  0
    5.7179   -3.2081    0.0000 C   0  0  0  0  0  0  0  0  0  0  0  0
    6.8868    1.5891    0.0000 C   0  0  0  0  0  0  0  0  0  0  0  0
    6.6564   -2.7561    0.0000 C   0  0  0  0  0  0  0  0  0  0  0  0
    7.3206    2.4900    0.0000 C   0  0  0  0  0  0  0  0  0  0  0  0
    8.3178    2.5648    0.0000 C   0  0  0  0  0  0  0  0  0  0  0  0
    6.7573    3.3163    0.0000 C   0  0  0  0  0  0  0  0  0  0  0  0
    4.7855    1.1383    0.0000 H   0  0  0  0  0  0  0  0  0  0  0  0
    3.4456    0.3163    0.0000 H   0  0  0  0  0  0  0  0  0  0  0  0
    3.2736   -0.4375    0.0000 H   0  0  0  0  0  0  0  0  0  0  0  0
    6.6378   -0.4375    0.0000 H   0  0  0  0  0  0  0  0  0  0  0  0
    6.4657    0.3163    0.0000 H   0  0  0  0  0  0  0  0  0  0  0  0
    5.9513    2.1312    0.0000 H   0  0  0  0  0  0  0  0  0  0  0  0
    5.2927    1.6822    0.0000 H   0  0  0  0  0  0  0  0  0  0  0  0
    4.5804    1.7833    0.0000 H   0  0  0  0  0  0  0  0  0  0  0  0
    3.7528    2.0729    0.0000 H   0  0  0  0  0  0  0  0  0  0  0  0
    3.4632    1.2453    0.0000 H   0  0  0  0  0  0  0  0  0  0  0  0
    7.2817   -1.4414    0.0000 H   0  0  0  0  0  0  0  0  0  0  0  0
    5.6692   -3.8262    0.0000 H   0  0  0  0  0  0  0  0  0  0  0  0
    7.2360    1.0768    0.0000 H   0  0  0  0  0  0  0  0  0  0  0  0
    2.0000   -2.2223    0.0000 H   0  0  0  0  0  0  0  0  0  0  0  0
    8.3642    1.9465    0.0000 H   0  0  0  0  0  0  0  0  0  0  0  0
    8.9361    2.6111    0.0000 H   0  0  0  0  0  0  0  0  0  0  0  0
    8.2715    3.1830    0.0000 H   0  0  0  0  0  0  0  0  0  0  0  0
    7.2696    3.6655    0.0000 H   0  0  0  0  0  0  0  0  0  0  0  0
    6.4081    3.8285    0.0000 H   0  0  0  0  0  0  0  0  0  0  0  0
    6.2451    2.9670    0.0000 H   0  0  0  0  0  0  0  0  0  0  0  0
  1 18  1  0  0  0  0
  2 14  1  0  0  0  0
  2 35  1  0  0  0  0
  3  6  1  0  0  0  0
  3  8  1  0  0  0  0
  3 11  1  0  0  0  0
  4  7  1  0  0  0  0
  4  9  1  0  0  0  0
  4 14  1  0  0  0  0
  5 13  1  0  0  0  0
  5 14  2  0  0  0  0
  6  7  1  0  0  0  0
  6 12  1  0  0  0  0
  6 22  1  0  0  0  0
  7 23  1  0  0  0  0
  7 24  1  0  0  0  0
  8 10  1  0  0  0  0
  8 25  1  0  0  0  0
  8 26  1  0  0  0  0
  9 10  2  0  0  0  0
  9 13  1  0  0  0  0
 10 15  1  0  0  0  0
 11 17  1  0  0  0  0
 11 27  1  0  0  0  0
 11 28  1  0  0  0  0
 12 29  1  0  0  0  0
 12 30  1  0  0  0  0
 12 31  1  0  0  0  0
 13 16  2  0  0  0  0
 15 18  2  0  0  0  0
 15 32  1  0  0  0  0
 16 18  1  0  0  0  0
 16 33  1  0  0  0  0
 17 19  2  0  0  0  0
 17 34  1  0  0  0  0
 19 20  1  0  0  0  0
 19 21  1  0  0  0  0
 20 36  1  0  0  0  0
 20 37  1  0  0  0  0
 20 38  1  0  0  0  0
 21 39  1  0  0  0  0
 21 40  1  0  0  0  0
 21 41  1  0  0  0  0
M  END
> <PUBCHEM_COMPOUND_CID>
5027

> <PUBCHEM_COMPOUND_CANONICALIZED>
1

> <PUBCHEM_CACTVS_COMPLEXITY>
412

> <PUBCHEM_CACTVS_HBOND_ACCEPTOR>
3

> <PUBCHEM_CACTVS_HBOND_DONOR>
1

> <PUBCHEM_CACTVS_ROTATABLE_BOND>
2

> <PUBCHEM_CACTVS_SUBSKEYS>
AAADceB7AABEAAAAAAAAAAAAAAAAAWAAAAAwAAAABYAAAFix8AAAHAYAAAAADCrBHiQz0LcMEASgAyRiZAGC0C0hF6AB2CA4dpiIaKLB25GUIAhogALIyCcQgAAOAABAYAICACAAAIDABAQAQAAAAAAAAA==

> <PUBCHEM_IUPAC_INCHI>
InChI=1S/C16H20ClN3S/c1-10(2)4-5-19-9-12-6-13(17)7-14-15(12)20(8-11(19)3)16(21)18-14/h4,6-7,11H,5,8-9H2,1-3H3,(H,18,21)

> <PUBCHEM_IUPAC_INCHIKEY>
RCSLUNOLLUVOOG-UHFFFAOYSA-N

> <PUBCHEM_XLOGP3_AA>
4

> <PUBCHEM_EXACT_MASS>
321.106646

> <PUBCHEM_MOLECULAR_FORMULA>
C16H20ClN3S

> <PUBCHEM_MOLECULAR_WEIGHT>
321.8681

> <PUBCHEM_OPENEYE_CAN_SMILES>
CC1CN2C3=C(C=C(C=C3CN1CC=C(C)C)Cl)N=C2S

> <PUBCHEM_OPENEYE_ISO_SMILES>
CC1CN2C3=C(C=C(C=C3CN1CC=C(C)C)Cl)N=C2S

> <PUBCHEM_CACTVS_TPSA>
22.1

> <PUBCHEM_MONOISOTOPIC_WEIGHT>
321.106646

> <PUBCHEM_TOTAL_CHARGE>
0

> <PUBCHEM_HEAVY_ATOM_COUNT>
21

> <PUBCHEM_ATOM_DEF_STEREO_COUNT>
0

> <PUBCHEM_ATOM_UDEF_STEREO_COUNT>
1

> <PUBCHEM_BOND_DEF_STEREO_COUNT>
0

> <PUBCHEM_BOND_UDEF_STEREO_COUNT>
0

> <PUBCHEM_ISOTOPIC_ATOM_COUNT>
0

> <PUBCHEM_COMPONENT_COUNT>
1

> <PUBCHEM_CACTVS_TAUTO_COUNT>
2

> <PUBCHEM_COORDINATE_TYPE>
1
5
255

> <PUBCHEM_BONDANNOTATIONS>
10  15  8
13  16  8
15  18  8
16  18  8
4  14  8
4  9  8
5  13  8
5  14  8
6  12  3
9  10  8
9  13  8

$$$$

