11325
  -OEChem-06261205323D

 22 23  0     0  0  0  0  0  0999 V2000
   -5.1587    0.0035   -0.4125 Br  0  0  0  0  0  0  0  0  0  0  0  0
   -0.6302    2.2976    0.2848 O   0  0  0  0  0  0  0  0  0  0  0  0
   -0.5802   -2.3353    0.2603 O   0  0  0  0  0  0  0  0  0  0  0  0
   -1.0296   -0.0229    0.3391 N   0  0  0  0  0  0  0  0  0  0  0  0
    1.0986    0.6936    0.0442 C   0  0  0  0  0  0  0  0  0  0  0  0
    1.1124   -0.6934    0.0371 C   0  0  0  0  0  0  0  0  0  0  0  0
   -2.4639   -0.0382    0.5469 C   0  0  0  0  0  0  0  0  0  0  0  0
   -0.2833    1.1321    0.2353 C   0  0  0  0  0  0  0  0  0  0  0  0
   -0.2607   -1.1616    0.2235 C   0  0  0  0  0  0  0  0  0  0  0  0
    2.2509    1.4360   -0.1124 C   0  0  0  0  0  0  0  0  0  0  0  0
    2.2793   -1.4111   -0.1273 C   0  0  0  0  0  0  0  0  0  0  0  0
   -3.2398    0.0493   -0.7520 C   0  0  0  0  0  0  0  0  0  0  0  0
    3.4456    0.7301   -0.2798 C   0  0  0  0  0  0  0  0  0  0  0  0
    3.4597   -0.6797   -0.2874 C   0  0  0  0  0  0  0  0  0  0  0  0
   -2.7262   -0.9592    1.0811 H   0  0  0  0  0  0  0  0  0  0  0  0
   -2.7233    0.8084    1.1939 H   0  0  0  0  0  0  0  0  0  0  0  0
    2.2404    2.5196   -0.1073 H   0  0  0  0  0  0  0  0  0  0  0  0
    2.2905   -2.4946   -0.1334 H   0  0  0  0  0  0  0  0  0  0  0  0
   -3.0191   -0.7921   -1.4153 H   0  0  0  0  0  0  0  0  0  0  0  0
   -3.0377    0.9819   -1.2867 H   0  0  0  0  0  0  0  0  0  0  0  0
    4.3783    1.2735   -0.4067 H   0  0  0  0  0  0  0  0  0  0  0  0
    4.4031   -1.2031   -0.4199 H   0  0  0  0  0  0  0  0  0  0  0  0
  1 12  1  0  0  0  0
  2  8  2  0  0  0  0
  3  9  2  0  0  0  0
  4  7  1  0  0  0  0
  4  8  1  0  0  0  0
  4  9  1  0  0  0  0
  5  6  1  0  0  0  0
  5  8  1  0  0  0  0
  5 10  2  0  0  0  0
  6  9  1  0  0  0  0
  6 11  2  0  0  0  0
  7 12  1  0  0  0  0
  7 15  1  0  0  0  0
  7 16  1  0  0  0  0
 10 13  1  0  0  0  0
 10 17  1  0  0  0  0
 11 14  1  0  0  0  0
 11 18  1  0  0  0  0
 12 19  1  0  0  0  0
 12 20  1  0  0  0  0
 13 14  2  0  0  0  0
 13 21  1  0  0  0  0
 14 22  1  0  0  0  0
M  END
> <PUBCHEM_COMPOUND_CID>
11325

> <PUBCHEM_CONFORMER_RMSD>
0.6

> <PUBCHEM_CONFORMER_DIVERSEORDER>
1
3
2

> <PUBCHEM_MMFF94_PARTIAL_CHARGES>
18
1 -0.23
10 -0.15
11 -0.15
12 0.23
13 -0.15
14 -0.15
17 0.15
18 0.15
2 -0.57
21 0.15
22 0.15
3 -0.57
4 -0.42
5 0.09
6 0.09
7 0.3
8 0.54
9 0.54

> <PUBCHEM_EFFECTIVE_ROTOR_COUNT>
2.2

> <PUBCHEM_PHARMACOPHORE_FEATURES>
5
1 1 hydrophobe
1 2 acceptor
1 3 acceptor
5 4 5 6 8 9 rings
6 5 6 10 11 13 14 rings

> <PUBCHEM_HEAVY_ATOM_COUNT>
14

> <PUBCHEM_ATOM_DEF_STEREO_COUNT>
0

> <PUBCHEM_ATOM_UDEF_STEREO_COUNT>
0

> <PUBCHEM_BOND_DEF_STEREO_COUNT>
0

> <PUBCHEM_BOND_UDEF_STEREO_COUNT>
0

> <PUBCHEM_ISOTOPIC_ATOM_COUNT>
0

> <PUBCHEM_COMPONENT_COUNT>
1

> <PUBCHEM_CACTVS_TAUTO_COUNT>
1

> <PUBCHEM_CONFORMER_ID>
00002C3D00000001

> <PUBCHEM_MMFF94_ENERGY>
28.0581

> <PUBCHEM_FEATURE_SELFOVERLAP>
25.464

> <PUBCHEM_SHAPE_FINGERPRINT>
10967382 1 18410852166130994850
11206711 2 18268420416230340452
11401426 45 18335427850092669761
11471102 20 18411419509624930949
12032990 46 18411129225823439419
12236239 1 17748824125320619665
13380535 76 18409728439683618090
13571099 22 18411697686098374326
13690532 89 18339926012565970978
14115302 16 18201428156508410742
14251717 144 18409168822497964663
14576447 43 18115319877751962303
14911166 2 18411131437873904894
14993402 34 18260546710395040807
16945 1 18410562990546830914
18186145 218 18342181085144417735
193761 8 17690559006213763922
200 152 18114185262812890333
20645477 70 18409449219527938263
21501502 16 18193551392472033232
221490 88 18122907530338936827
22713019 99 18333445465040503150
2334 1 17977660910179450082
23402539 116 18334301967355062646
23402655 69 18408891754516415597
23559900 14 18262790754453104364
25 1 18342746225789830567
2748010 2 18048869702720781168
3286 77 17022908985914098226
34934 24 18337678503624756226
528886 8 18337392647623232682
69090 78 18408888412504533255

> <PUBCHEM_SHAPE_MULTIPOLES>
277.34
7.2
1.82
0.72
7.68
0.03
-0.04
-0.07
-1.71
-0.66
0.16
0.24
0
0.01

> <PUBCHEM_SHAPE_SELFOVERLAP>
586.187

> <PUBCHEM_SHAPE_VOLUME>
161.5

> <PUBCHEM_COORDINATE_TYPE>
2
5
10

$$$$

