4254
  -OEChem-06251223592D

 81 84  0     1  0  0  0  0  0999 V2000
    2.6428   -5.2750    0.0000 O   0  0  0  0  0  0  0  0  0  0  0  0
    3.0261   -1.6899    0.0000 O   0  0  0  0  0  0  0  0  0  0  0  0
    6.3858   -0.2823    0.0000 O   0  0  0  0  0  0  0  0  0  0  0  0
    6.2434    1.0723    0.0000 O   0  0  0  0  0  0  0  0  0  0  0  0
    9.2160    3.7488    0.0000 O   0  0  0  0  0  0  0  0  0  0  0  0
    6.3628    4.6759    0.0000 O   0  0  0  0  0  0  0  0  0  0  0  0
    4.6686    4.3158    0.0000 O   0  0  0  0  0  0  0  0  0  0  0  0
    3.3268   -3.3956    0.0000 N   0  0  0  0  0  0  0  0  0  0  0  0
    4.6537   -2.2823    0.0000 N   0  0  0  0  0  0  0  0  0  0  0  0
    4.6537   -0.2823    0.0000 N   0  0  0  0  0  0  0  0  0  0  0  0
    5.0844    2.3595    0.0000 N   0  0  0  0  0  0  0  0  0  0  0  0
    5.5198   -1.7823    0.0000 C   0  0  3  0  0  0  0  0  0  0  0  0
    6.3858   -2.2823    0.0000 C   0  0  0  0  0  0  0  0  0  0  0  0
    3.6689   -2.4560    0.0000 C   0  0  3  0  0  0  0  0  0  0  0  0
    3.9696   -4.1617    0.0000 C   0  0  0  0  0  0  0  0  0  0  0  0
    2.3421   -3.5693    0.0000 C   0  0  0  0  0  0  0  0  0  0  0  0
    5.5198   -0.7823    0.0000 C   0  0  0  0  0  0  0  0  0  0  0  0
    6.3858   -3.2823    0.0000 C   0  0  0  0  0  0  0  0  0  0  0  0
    7.2518   -1.7823    0.0000 C   0  0  0  0  0  0  0  0  0  0  0  0
    3.6276   -5.1014    0.0000 C   0  0  0  0  0  0  0  0  0  0  0  0
    2.0000   -4.5089    0.0000 C   0  0  0  0  0  0  0  0  0  0  0  0
    5.5198   -3.7823    0.0000 C   0  0  0  0  0  0  0  0  0  0  0  0
    8.1178   -2.2823    0.0000 C   0  0  0  0  0  0  0  0  0  0  0  0
    7.2518   -3.7823    0.0000 C   0  0  0  0  0  0  0  0  0  0  0  0
    7.2518   -0.7823    0.0000 C   0  0  0  0  0  0  0  0  0  0  0  0
    4.5492    0.7122    0.0000 C   0  0  0  0  0  0  0  0  0  0  0  0
    3.7402   -0.6891    0.0000 C   0  0  0  0  0  0  0  0  0  0  0  0
    3.5710    0.9201    0.0000 C   0  0  0  0  0  0  0  0  0  0  0  0
    8.9838   -1.7823    0.0000 C   0  0  0  0  0  0  0  0  0  0  0  0
    5.5198   -4.7823    0.0000 C   0  0  0  0  0  0  0  0  0  0  0  0
    7.2518   -4.7823    0.0000 C   0  0  0  0  0  0  0  0  0  0  0  0
    8.1178   -0.2823    0.0000 C   0  0  0  0  0  0  0  0  0  0  0  0
    5.2923    1.3813    0.0000 C   0  0  0  0  0  0  0  0  0  0  0  0
    3.0710    0.0541    0.0000 C   0  0  0  0  0  0  0  0  0  0  0  0
    5.8276    3.0286    0.0000 C   0  0  3  0  0  0  0  0  0  0  0  0
    6.7786    2.7196    0.0000 C   0  0  0  0  0  0  0  0  0  0  0  0
    6.3858   -5.2823    0.0000 C   0  0  0  0  0  0  0  0  0  0  0  0
    8.9838   -0.7823    0.0000 C   0  0  0  0  0  0  0  0  0  0  0  0
    7.5218    3.3887    0.0000 C   0  0  0  0  0  0  0  0  0  0  0  0
    8.4728    3.0797    0.0000 C   0  0  0  0  0  0  0  0  0  0  0  0
   10.1670    3.4398    0.0000 C   0  0  0  0  0  0  0  0  0  0  0  0
    5.6197    4.0068    0.0000 B   0  0  0  0  0  0  0  0  0  0  0  0
    4.9828   -1.4723    0.0000 H   0  0  0  0  0  0  0  0  0  0  0  0
    5.8488   -2.5923    0.0000 H   0  0  0  0  0  0  0  0  0  0  0  0
    3.8810   -1.8734    0.0000 H   0  0  0  0  0  0  0  0  0  0  0  0
    4.6537   -2.9023    0.0000 H   0  0  0  0  0  0  0  0  0  0  0  0
    2.3421   -2.9493    0.0000 H   0  0  0  0  0  0  0  0  0  0  0  0
    1.7315   -3.4616    0.0000 H   0  0  0  0  0  0  0  0  0  0  0  0
    4.5066   -4.4717    0.0000 H   0  0  0  0  0  0  0  0  0  0  0  0
    4.3682   -3.6868    0.0000 H   0  0  0  0  0  0  0  0  0  0  0  0
    3.6276   -5.7214    0.0000 H   0  0  0  0  0  0  0  0  0  0  0  0
    4.2382   -5.2091    0.0000 H   0  0  0  0  0  0  0  0  0  0  0  0
    1.4631   -4.1989    0.0000 H   0  0  0  0  0  0  0  0  0  0  0  0
    1.6014   -4.9839    0.0000 H   0  0  0  0  0  0  0  0  0  0  0  0
    4.9828   -3.4723    0.0000 H   0  0  0  0  0  0  0  0  0  0  0  0
    8.1178   -2.9023    0.0000 H   0  0  0  0  0  0  0  0  0  0  0  0
    7.7887   -3.4723    0.0000 H   0  0  0  0  0  0  0  0  0  0  0  0
    6.7149   -0.4723    0.0000 H   0  0  0  0  0  0  0  0  0  0  0  0
    2.4155   -1.7976    0.0000 H   0  0  0  0  0  0  0  0  0  0  0  0
    3.6113   -1.2955    0.0000 H   0  0  0  0  0  0  0  0  0  0  0  0
    3.3189    1.4865    0.0000 H   0  0  0  0  0  0  0  0  0  0  0  0
    4.9828   -5.0923    0.0000 H   0  0  0  0  0  0  0  0  0  0  0  0
    9.5208   -2.0923    0.0000 H   0  0  0  0  0  0  0  0  0  0  0  0
    7.7887   -5.0923    0.0000 H   0  0  0  0  0  0  0  0  0  0  0  0
    8.1178    0.3377    0.0000 H   0  0  0  0  0  0  0  0  0  0  0  0
    5.2379    3.2202    0.0000 H   0  0  0  0  0  0  0  0  0  0  0  0
    2.4544   -0.0107    0.0000 H   0  0  0  0  0  0  0  0  0  0  0  0
    6.4876    2.1722    0.0000 H   0  0  0  0  0  0  0  0  0  0  0  0
    7.2672    2.3379    0.0000 H   0  0  0  0  0  0  0  0  0  0  0  0
    4.4948    2.5511    0.0000 H   0  0  0  0  0  0  0  0  0  0  0  0
    6.3858   -5.9023    0.0000 H   0  0  0  0  0  0  0  0  0  0  0  0
    9.5208   -0.4723    0.0000 H   0  0  0  0  0  0  0  0  0  0  0  0
    7.8128    3.9361    0.0000 H   0  0  0  0  0  0  0  0  0  0  0  0
    7.0332    3.7704    0.0000 H   0  0  0  0  0  0  0  0  0  0  0  0
    8.1817    2.5323    0.0000 H   0  0  0  0  0  0  0  0  0  0  0  0
    8.9614    2.6980    0.0000 H   0  0  0  0  0  0  0  0  0  0  0  0
    6.2339    5.2823    0.0000 H   0  0  0  0  0  0  0  0  0  0  0  0
    4.5397    4.9222    0.0000 H   0  0  0  0  0  0  0  0  0  0  0  0
    9.9754    2.8502    0.0000 H   0  0  0  0  0  0  0  0  0  0  0  0
   10.7567    3.2482    0.0000 H   0  0  0  0  0  0  0  0  0  0  0  0
   10.3586    4.0295    0.0000 H   0  0  0  0  0  0  0  0  0  0  0  0
  1 20  1  0  0  0  0
  1 21  1  0  0  0  0
  2 14  1  0  0  0  0
  2 59  1  0  0  0  0
  3 17  2  0  0  0  0
  4 33  2  0  0  0  0
  5 40  1  0  0  0  0
  5 41  1  0  0  0  0
  6 42  1  0  0  0  0
  6 77  1  0  0  0  0
  7 42  1  0  0  0  0
  7 78  1  0  0  0  0
  8 14  1  0  0  0  0
  8 15  1  0  0  0  0
  8 16  1  0  0  0  0
  9 12  1  0  0  0  0
  9 14  1  0  0  0  0
  9 46  1  0  0  0  0
 10 17  1  0  0  0  0
 10 26  1  0  0  0  0
 10 27  1  0  0  0  0
 11 33  1  0  0  0  0
 11 35  1  0  0  0  0
 11 70  1  0  0  0  0
 12 13  1  0  0  0  0
 12 17  1  0  0  0  0
 12 43  1  0  0  0  0
 13 18  1  0  0  0  0
 13 19  1  0  0  0  0
 13 44  1  0  0  0  0
 14 45  1  0  0  0  0
 15 20  1  0  0  0  0
 15 49  1  0  0  0  0
 15 50  1  0  0  0  0
 16 21  1  0  0  0  0
 16 47  1  0  0  0  0
 16 48  1  0  0  0  0
 18 22  2  0  0  0  0
 18 24  1  0  0  0  0
 19 23  2  0  0  0  0
 19 25  1  0  0  0  0
 20 51  1  0  0  0  0
 20 52  1  0  0  0  0
 21 53  1  0  0  0  0
 21 54  1  0  0  0  0
 22 30  1  0  0  0  0
 22 55  1  0  0  0  0
 23 29  1  0  0  0  0
 23 56  1  0  0  0  0
 24 31  2  0  0  0  0
 24 57  1  0  0  0  0
 25 32  2  0  0  0  0
 25 58  1  0  0  0  0
 26 28  2  0  0  0  0
 26 33  1  0  0  0  0
 27 34  2  0  0  0  0
 27 60  1  0  0  0  0
 28 34  1  0  0  0  0
 28 61  1  0  0  0  0
 29 38  2  0  0  0  0
 29 63  1  0  0  0  0
 30 37  2  0  0  0  0
 30 62  1  0  0  0  0
 31 37  1  0  0  0  0
 31 64  1  0  0  0  0
 32 38  1  0  0  0  0
 32 65  1  0  0  0  0
 34 67  1  0  0  0  0
 35 36  1  0  0  0  0
 35 42  1  0  0  0  0
 35 66  1  0  0  0  0
 36 39  1  0  0  0  0
 36 68  1  0  0  0  0
 36 69  1  0  0  0  0
 37 71  1  0  0  0  0
 38 72  1  0  0  0  0
 39 40  1  0  0  0  0
 39 73  1  0  0  0  0
 39 74  1  0  0  0  0
 40 75  1  0  0  0  0
 40 76  1  0  0  0  0
 41 79  1  0  0  0  0
 41 80  1  0  0  0  0
 41 81  1  0  0  0  0
M  END
> <PUBCHEM_COMPOUND_CID>
4254

> <PUBCHEM_COMPOUND_CANONICALIZED>
1

> <PUBCHEM_CACTVS_COMPLEXITY>
804

> <PUBCHEM_CACTVS_HBOND_ACCEPTOR>
9

> <PUBCHEM_CACTVS_HBOND_DONOR>
5

> <PUBCHEM_CACTVS_ROTATABLE_BOND>
14

> <PUBCHEM_CACTVS_SUBSKEYS>
AAADcfJ7uAAAAAAAAAAAAAAAAAAAAWAAAAA8YIAAAAAAAAAB0AAoHgAQCAAADSjhngY/gJPMFgCoAzV3VACCgCA3AiAI2KG4ZNmKcPLAlbGXIQhslgLYyYc4icCOgAAAAAAAAAAAAAAAAAAAAAAAAAAAAA==

> <PUBCHEM_IUPAC_OPENEYE_NAME>
[1-[[1-[2-[[hydroxy(morpholino)methyl]amino]-3,3-diphenyl-propanoyl]pyrrole-2-carbonyl]amino]-4-methoxy-butyl]boronic acid

> <PUBCHEM_IUPAC_CAS_NAME>
[1-[[[1-[2-[[hydroxy(4-morpholinyl)methyl]amino]-1-oxo-3,3-diphenylpropyl]-2-pyrrolyl]-oxomethyl]amino]-4-methoxybutyl]boronic acid

> <PUBCHEM_IUPAC_NAME>
[1-[[1-[2-[[hydroxy(morpholin-4-yl)methyl]amino]-3,3-diphenylpropanoyl]pyrrole-2-carbonyl]amino]-4-methoxybutyl]boronic acid

> <PUBCHEM_IUPAC_SYSTEMATIC_NAME>
[4-methoxy-1-[[1-[2-[[morpholin-4-yl(oxidanyl)methyl]amino]-3,3-diphenyl-propanoyl]pyrrol-2-yl]carbonylamino]butyl]boronic acid

> <PUBCHEM_IUPAC_TRADITIONAL_NAME>
[1-[[1-[2-[[hydroxy(morpholino)methyl]amino]-3,3-diphenyl-propanoyl]pyrrole-2-carbonyl]amino]-4-methoxy-butyl]boronic acid

> <PUBCHEM_IUPAC_INCHI>
InChI=1S/C30H39BN4O7/c1-41-19-9-15-25(31(39)40)32-28(36)24-14-8-16-35(24)29(37)27(33-30(38)34-17-20-42-21-18-34)26(22-10-4-2-5-11-22)23-12-6-3-7-13-23/h2-8,10-14,16,25-27,30,33,38-40H,9,15,17-21H2,1H3,(H,32,36)

> <PUBCHEM_IUPAC_INCHIKEY>
DTJORIMAIDQZOF-UHFFFAOYSA-N

> <PUBCHEM_EXACT_MASS>
578.29118

> <PUBCHEM_MOLECULAR_FORMULA>
C30H39BN4O7

> <PUBCHEM_MOLECULAR_WEIGHT>
578.46426

> <PUBCHEM_OPENEYE_CAN_SMILES>
B(C(CCCOC)NC(=O)C1=CC=CN1C(=O)C(C(C2=CC=CC=C2)C3=CC=CC=C3)NC(N4CCOCC4)O)(O)O

> <PUBCHEM_OPENEYE_ISO_SMILES>
B(C(CCCOC)NC(=O)C1=CC=CN1C(=O)C(C(C2=CC=CC=C2)C3=CC=CC=C3)NC(N4CCOCC4)O)(O)O

> <PUBCHEM_CACTVS_TPSA>
146

> <PUBCHEM_MONOISOTOPIC_WEIGHT>
578.29118

> <PUBCHEM_TOTAL_CHARGE>
0

> <PUBCHEM_HEAVY_ATOM_COUNT>
42

> <PUBCHEM_ATOM_DEF_STEREO_COUNT>
0

> <PUBCHEM_ATOM_UDEF_STEREO_COUNT>
3

> <PUBCHEM_BOND_DEF_STEREO_COUNT>
0

> <PUBCHEM_BOND_UDEF_STEREO_COUNT>
0

> <PUBCHEM_ISOTOPIC_ATOM_COUNT>
0

> <PUBCHEM_COMPONENT_COUNT>
1

> <PUBCHEM_CACTVS_TAUTO_COUNT>
2

> <PUBCHEM_COORDINATE_TYPE>
1
5
255

> <PUBCHEM_BONDANNOTATIONS>
10  26  8
10  27  8
12  13  3
18  22  8
18  24  8
19  23  8
19  25  8
14  2  3
22  30  8
23  29  8
24  31  8
25  32  8
26  28  8
27  34  8
28  34  8
29  38  8
30  37  8
31  37  8
32  38  8
35  36  3

$$$$

