9337
  -OEChem-06261203372D

 12 11  0     0  0  0  0  0  0999 V2000
    3.7320   -1.2500    0.0000 Cl  0  0  0  0  0  0  0  0  0  0  0  0
    4.5981    1.2500    0.0000 Cl  0  0  0  0  0  0  0  0  0  0  0  0
    2.0000    0.7500    0.0000 F   0  0  0  0  0  0  0  0  0  0  0  0
    2.3660   -0.6160    0.0000 F   0  0  0  0  0  0  0  0  0  0  0  0
    3.3660    1.1160    0.0000 F   0  0  0  0  0  0  0  0  0  0  0  0
    6.3301   -0.7500    0.0000 F   0  0  0  0  0  0  0  0  0  0  0  0
    5.9641    0.6160    0.0000 F   0  0  0  0  0  0  0  0  0  0  0  0
    4.9641   -1.1160    0.0000 F   0  0  0  0  0  0  0  0  0  0  0  0
    3.7320   -0.2500    0.0000 C   0  0  0  0  0  0  0  0  0  0  0  0
    4.5981    0.2500    0.0000 C   0  0  0  0  0  0  0  0  0  0  0  0
    2.8660    0.2500    0.0000 C   0  0  0  0  0  0  0  0  0  0  0  0
    5.4641   -0.2500    0.0000 C   0  0  0  0  0  0  0  0  0  0  0  0
  1  9  1  0  0  0  0
  2 10  1  0  0  0  0
  3 11  1  0  0  0  0
  4 11  1  0  0  0  0
  5 11  1  0  0  0  0
  6 12  1  0  0  0  0
  7 12  1  0  0  0  0
  8 12  1  0  0  0  0
  9 10  2  3  0  0  0
  9 11  1  0  0  0  0
 10 12  1  0  0  0  0
M  END
> <PUBCHEM_COMPOUND_CID>
9337

> <PUBCHEM_COMPOUND_CANONICALIZED>
1

> <PUBCHEM_CACTVS_COMPLEXITY>
177

> <PUBCHEM_CACTVS_HBOND_ACCEPTOR>
6

> <PUBCHEM_CACTVS_HBOND_DONOR>
0

> <PUBCHEM_CACTVS_ROTATABLE_BOND>
0

> <PUBCHEM_CACTVS_SUBSKEYS>
AAADcQBgAcAGAAAAAAAAAAAAAAAAAAAAAAAAAAAAAAAAAAAAAAAACQIAAAAACAIAABAAAAAAAACAAABAAAAAAAAAAAAACAAAAAAAAAAAAAAAAAAAAAAAAAAAAAAAAAAAAAAAAAAAAAAAAAAAAAAAAAAAAA==

> <PUBCHEM_IUPAC_OPENEYE_NAME>
2,3-dichloro-1,1,1,4,4,4-hexafluoro-but-2-ene

> <PUBCHEM_IUPAC_CAS_NAME>
2,3-dichloro-1,1,1,4,4,4-hexafluoro-2-butene

> <PUBCHEM_IUPAC_NAME>
2,3-dichloro-1,1,1,4,4,4-hexafluorobut-2-ene

> <PUBCHEM_IUPAC_SYSTEMATIC_NAME>
2,3-bis(chloranyl)-1,1,1,4,4,4-hexakis(fluoranyl)but-2-ene

> <PUBCHEM_IUPAC_TRADITIONAL_NAME>
2,3-dichloro-1,1,1,4,4,4-hexafluoro-but-2-ene

> <PUBCHEM_IUPAC_INCHI>
InChI=1S/C4Cl2F6/c5-1(3(7,8)9)2(6)4(10,11)12

> <PUBCHEM_IUPAC_INCHIKEY>
XDIDQEGAKCWQQP-UHFFFAOYSA-N

> <PUBCHEM_XLOGP3_AA>
3.5

> <PUBCHEM_EXACT_MASS>
231.928125

> <PUBCHEM_MOLECULAR_FORMULA>
C4Cl2F6

> <PUBCHEM_MOLECULAR_WEIGHT>
232.939219

> <PUBCHEM_OPENEYE_CAN_SMILES>
C(=C(C(F)(F)F)Cl)(C(F)(F)F)Cl

> <PUBCHEM_OPENEYE_ISO_SMILES>
C(=C(C(F)(F)F)Cl)(C(F)(F)F)Cl

> <PUBCHEM_CACTVS_TPSA>
0

> <PUBCHEM_MONOISOTOPIC_WEIGHT>
231.928125

> <PUBCHEM_TOTAL_CHARGE>
0

> <PUBCHEM_HEAVY_ATOM_COUNT>
12

> <PUBCHEM_ATOM_DEF_STEREO_COUNT>
0

> <PUBCHEM_ATOM_UDEF_STEREO_COUNT>
0

> <PUBCHEM_BOND_DEF_STEREO_COUNT>
0

> <PUBCHEM_BOND_UDEF_STEREO_COUNT>
1

> <PUBCHEM_ISOTOPIC_ATOM_COUNT>
0

> <PUBCHEM_COMPONENT_COUNT>
1

> <PUBCHEM_CACTVS_TAUTO_COUNT>
1

> <PUBCHEM_COORDINATE_TYPE>
1
5
255

> <PUBCHEM_BONDANNOTATIONS>
9  10  1

$$$$

