4343
  -OEChem-06261200033D

 41 41  0     1  0  0  0  0  0999 V2000
   -1.8623    1.8493    0.3146 S   0  0  0  0  0  0  0  0  0  0  0  0
   -1.9782    2.5019   -0.9756 O   0  0  0  0  0  0  0  0  0  0  0  0
   -2.7042    2.2641    1.4203 O   0  0  0  0  0  0  0  0  0  0  0  0
    2.7148    2.8047    0.3100 O   0  0  0  0  0  0  0  0  0  0  0  0
   -0.2412    1.8794    0.8195 N   0  0  0  0  0  0  0  0  0  0  0  0
    1.2697    3.3093   -1.4033 N   0  0  0  0  0  0  0  0  0  0  0  0
    5.1318   -3.2315    0.3937 N   0  0  0  0  0  0  0  0  0  0  0  0
    1.5379    0.2042    0.6528 C   0  0  0  0  0  0  0  0  0  0  0  0
    0.8185    1.3447   -0.0690 C   0  0  2  0  0  0  0  0  0  0  0  0
    2.6821   -0.3741   -0.1857 C   0  0  0  0  0  0  0  0  0  0  0  0
    3.3410   -1.5627    0.5182 C   0  0  0  0  0  0  0  0  0  0  0  0
    1.7128    2.5390   -0.3497 C   0  0  0  0  0  0  0  0  0  0  0  0
    4.5051   -2.1144   -0.3030 C   0  0  0  0  0  0  0  0  0  0  0  0
   -2.1385    0.1194    0.0773 C   0  0  0  0  0  0  0  0  0  0  0  0
   -2.6002   -0.6428    1.1363 C   0  0  0  0  0  0  0  0  0  0  0  0
   -1.8879   -0.4405   -1.1633 C   0  0  0  0  0  0  0  0  0  0  0  0
   -2.5712   -2.5890   -0.2949 C   0  0  0  0  0  0  0  0  0  0  0  0
   -2.8184   -2.0078    0.9487 C   0  0  0  0  0  0  0  0  0  0  0  0
   -2.1060   -1.8054   -1.3510 C   0  0  0  0  0  0  0  0  0  0  0  0
   -2.8057   -4.0480   -0.4959 C   0  0  0  0  0  0  0  0  0  0  0  0
    0.8184   -0.5901    0.8872 H   0  0  0  0  0  0  0  0  0  0  0  0
    1.9374    0.5529    1.6142 H   0  0  0  0  0  0  0  0  0  0  0  0
    0.4171    0.9892   -1.0209 H   0  0  0  0  0  0  0  0  0  0  0  0
    3.4407    0.3918   -0.3800 H   0  0  0  0  0  0  0  0  0  0  0  0
    2.2942   -0.6981   -1.1593 H   0  0  0  0  0  0  0  0  0  0  0  0
    2.5940   -2.3493    0.6835 H   0  0  0  0  0  0  0  0  0  0  0  0
    3.7004   -1.2459    1.5055 H   0  0  0  0  0  0  0  0  0  0  0  0
   -0.0049    2.0219    1.8090 H   0  0  0  0  0  0  0  0  0  0  0  0
    5.2553   -1.3352   -0.4747 H   0  0  0  0  0  0  0  0  0  0  0  0
    4.1537   -2.4545   -1.2829 H   0  0  0  0  0  0  0  0  0  0  0  0
   -2.7903   -0.2112    2.1140 H   0  0  0  0  0  0  0  0  0  0  0  0
   -1.5328    0.1511   -2.0012 H   0  0  0  0  0  0  0  0  0  0  0  0
    1.7752    4.1413   -1.6892 H   0  0  0  0  0  0  0  0  0  0  0  0
    0.4298    3.0841   -1.9267 H   0  0  0  0  0  0  0  0  0  0  0  0
   -3.1775   -2.6086    1.7802 H   0  0  0  0  0  0  0  0  0  0  0  0
   -1.9096   -2.2468   -2.3245 H   0  0  0  0  0  0  0  0  0  0  0  0
    5.4537   -2.9256    1.3113 H   0  0  0  0  0  0  0  0  0  0  0  0
    4.4385   -3.9581    0.5689 H   0  0  0  0  0  0  0  0  0  0  0  0
   -1.8947   -4.6097   -0.2666 H   0  0  0  0  0  0  0  0  0  0  0  0
   -3.6135   -4.4111    0.1485 H   0  0  0  0  0  0  0  0  0  0  0  0
   -3.0997   -4.2622   -1.5291 H   0  0  0  0  0  0  0  0  0  0  0  0
  1  2  2  0  0  0  0
  1  3  2  0  0  0  0
  1  5  1  0  0  0  0
  1 14  1  0  0  0  0
  4 12  2  0  0  0  0
  5  9  1  0  0  0  0
  5 28  1  0  0  0  0
  6 12  1  0  0  0  0
  6 33  1  0  0  0  0
  6 34  1  0  0  0  0
  7 13  1  0  0  0  0
  7 37  1  0  0  0  0
  7 38  1  0  0  0  0
  8  9  1  0  0  0  0
  8 10  1  0  0  0  0
  8 21  1  0  0  0  0
  8 22  1  0  0  0  0
  9 12  1  0  0  0  0
  9 23  1  0  0  0  0
 10 11  1  0  0  0  0
 10 24  1  0  0  0  0
 10 25  1  0  0  0  0
 11 13  1  0  0  0  0
 11 26  1  0  0  0  0
 11 27  1  0  0  0  0
 13 29  1  0  0  0  0
 13 30  1  0  0  0  0
 14 15  2  0  0  0  0
 14 16  1  0  0  0  0
 15 18  1  0  0  0  0
 15 31  1  0  0  0  0
 16 19  2  0  0  0  0
 16 32  1  0  0  0  0
 17 18  2  0  0  0  0
 17 19  1  0  0  0  0
 17 20  1  0  0  0  0
 18 35  1  0  0  0  0
 19 36  1  0  0  0  0
 20 39  1  0  0  0  0
 20 40  1  0  0  0  0
 20 41  1  0  0  0  0
M  END
> <PUBCHEM_COMPOUND_CID>
4343

> <PUBCHEM_CONFORMER_RMSD>
0.8

> <PUBCHEM_CONFORMER_DIVERSEORDER>
2
90
136
184
23
101
123
16
203
119
164
6
79
45
167
191
117
165
73
161
190
114
182
210
200
62
61
86
92
140
183
142
162
121
9
171
55
176
192
59
80
24
64
71
122
168
152
150
66
151
78
159
148
11
15
27
58
170
160
204
207
205
21
178
115
13
181
107
3
51
108
194
137
33
215
60
188
12
180
97
133
47
89
199
98
96
29
173
40
189
88
130
125
105
201
156
41
10
202
17
198
154
38
109
147
83
187
166
158
113
42
85
128
53
175
157
84
94
116
112
56
65
172
214
111
28
99
19
20
100
68
37
54
69
208
70
144
22
4
120
127
93
118
14
132
82
43
39
145
196
25
77
44
95
129
18
76
81
30
106
135
104
110
163
102
72
141
5
34
87
134
146
206
126
1
209
177
213
52
31
49
103
174
7
197
57
46
195
35
153
211
50
169
139
32
138
143
67
26
185
75
124
91
48
193
131
36
155
74
63
149
179
8
212
186

> <PUBCHEM_MMFF94_PARTIAL_CHARGES>
26
1 1.45
12 0.57
13 0.27
14 -0.01
15 -0.15
16 -0.15
17 -0.14
18 -0.15
19 -0.15
2 -0.65
20 0.14
28 0.42
3 -0.65
31 0.15
32 0.15
33 0.37
34 0.37
35 0.15
36 0.15
37 0.36
38 0.36
4 -0.57
5 -0.91
6 -0.8
7 -0.99
9 0.42

> <PUBCHEM_EFFECTIVE_ROTOR_COUNT>
8

> <PUBCHEM_PHARMACOPHORE_FEATURES>
8
1 2 acceptor
1 3 acceptor
1 4 acceptor
1 5 donor
1 6 donor
1 7 cation
1 7 donor
6 14 15 16 17 18 19 rings

> <PUBCHEM_HEAVY_ATOM_COUNT>
20

> <PUBCHEM_ATOM_DEF_STEREO_COUNT>
0

> <PUBCHEM_ATOM_UDEF_STEREO_COUNT>
1

> <PUBCHEM_BOND_DEF_STEREO_COUNT>
0

> <PUBCHEM_BOND_UDEF_STEREO_COUNT>
0

> <PUBCHEM_ISOTOPIC_ATOM_COUNT>
0

> <PUBCHEM_COMPONENT_COUNT>
1

> <PUBCHEM_CACTVS_TAUTO_COUNT>
2

> <PUBCHEM_CONFORMER_ID>
000010F700000002

> <PUBCHEM_MMFF94_ENERGY>
20.8506

> <PUBCHEM_FEATURE_SELFOVERLAP>
40.613

> <PUBCHEM_SHAPE_FINGERPRINT>
107951 10 17341801576089870531
11014199 57 18410012092103662026
11315621 246 18193543683892441678
12553582 1 18127138695663399746
12633257 1 18042665317435038219
12839892 36 17976840696238779896
14251757 5 18051395560351226974
14863182 85 17691689983083212748
15099037 8 18337392642990609857
15375462 189 17831006932606838953
20291156 8 18410290302952278298
20600515 1 17970622111785412984
21285901 2 17268382456250515399
2255824 54 17042608609743026125
23566358 27 18199450096076899296
23598288 3 18040708126444478949
23728640 28 18191024701871913547
3084891 72 17834966647282185036
4409770 3 17696198376020926884
7097593 13 18409158900949379184

> <PUBCHEM_SHAPE_MULTIPOLES>
382.89
7.32
5.03
1.19
7.23
0.97
0.09
7.85
-0.58
1.3
0.61
-0.69
-0.26
-1.15

> <PUBCHEM_SHAPE_SELFOVERLAP>
758.137

> <PUBCHEM_SHAPE_VOLUME>
227.8

> <PUBCHEM_COORDINATE_TYPE>
2
5
10

$$$$

