582713
  -OEChem-06241222432D

 37 39  0     1  0  0  0  0  0999 V2000
    7.9244    0.0861    0.0000 O   0  0  0  0  0  0  0  0  0  0  0  0
    4.6783   -3.0926    0.0000 N   0  0  0  0  0  0  0  0  0  0  0  0
    6.2781    0.6241    0.0000 N   0  0  0  0  0  0  0  0  0  0  0  0
    7.3031   -1.8150    0.0000 N   0  0  0  0  0  0  0  0  0  0  0  0
    4.6783   -1.4831    0.0000 C   0  0  0  0  0  0  0  0  0  0  0  0
    4.9889   -0.5326    0.0000 C   0  0  0  0  0  0  0  0  0  0  0  0
    3.7320   -1.7879    0.0000 C   0  0  0  0  0  0  0  0  0  0  0  0
    5.9674   -0.3264    0.0000 C   0  0  3  0  0  0  0  0  0  0  0  0
    3.7320   -2.7879    0.0000 C   0  0  0  0  0  0  0  0  0  0  0  0
    5.2619   -2.2879    0.0000 C   0  0  0  0  0  0  0  0  0  0  0  0
    2.8660   -1.2879    0.0000 C   0  0  0  0  0  0  0  0  0  0  0  0
    2.8660   -3.2879    0.0000 C   0  0  0  0  0  0  0  0  0  0  0  0
    2.0000   -1.7879    0.0000 C   0  0  0  0  0  0  0  0  0  0  0  0
    2.0000   -2.7879    0.0000 C   0  0  0  0  0  0  0  0  0  0  0  0
    7.2566    0.8304    0.0000 C   0  0  0  0  0  0  0  0  0  0  0  0
    6.6353   -1.0707    0.0000 C   0  0  0  0  0  0  0  0  0  0  0  0
    7.5673    1.7809    0.0000 C   0  0  0  0  0  0  0  0  0  0  0  0
    8.5458    1.9871    0.0000 C   0  0  0  0  0  0  0  0  0  0  0  0
    6.8994    2.5252    0.0000 C   0  0  0  0  0  0  0  0  0  0  0  0
    8.8564    2.9376    0.0000 C   0  0  0  0  0  0  0  0  0  0  0  0
    7.2101    3.4757    0.0000 C   0  0  0  0  0  0  0  0  0  0  0  0
    8.1886    3.6819    0.0000 C   0  0  0  0  0  0  0  0  0  0  0  0
    4.9684    0.0871    0.0000 H   0  0  0  0  0  0  0  0  0  0  0  0
    4.3751   -0.4453    0.0000 H   0  0  0  0  0  0  0  0  0  0  0  0
    5.5534    0.1351    0.0000 H   0  0  0  0  0  0  0  0  0  0  0  0
    5.8819   -2.2879    0.0000 H   0  0  0  0  0  0  0  0  0  0  0  0
    4.8709   -3.6819    0.0000 H   0  0  0  0  0  0  0  0  0  0  0  0
    2.8660   -0.6679    0.0000 H   0  0  0  0  0  0  0  0  0  0  0  0
    5.8640    1.0856    0.0000 H   0  0  0  0  0  0  0  0  0  0  0  0
    2.8660   -3.9079    0.0000 H   0  0  0  0  0  0  0  0  0  0  0  0
    1.4631   -1.4779    0.0000 H   0  0  0  0  0  0  0  0  0  0  0  0
    1.4631   -3.0979    0.0000 H   0  0  0  0  0  0  0  0  0  0  0  0
    8.9598    1.5256    0.0000 H   0  0  0  0  0  0  0  0  0  0  0  0
    6.2928    2.3973    0.0000 H   0  0  0  0  0  0  0  0  0  0  0  0
    9.4631    3.0655    0.0000 H   0  0  0  0  0  0  0  0  0  0  0  0
    6.7960    3.9372    0.0000 H   0  0  0  0  0  0  0  0  0  0  0  0
    8.3812    4.2712    0.0000 H   0  0  0  0  0  0  0  0  0  0  0  0
  1 15  2  0  0  0  0
  2  9  1  0  0  0  0
  2 10  1  0  0  0  0
  2 27  1  0  0  0  0
  3  8  1  0  0  0  0
  3 15  1  0  0  0  0
  3 29  1  0  0  0  0
  4 16  3  0  0  0  0
  5  6  1  0  0  0  0
  5  7  1  0  0  0  0
  5 10  2  0  0  0  0
  6  8  1  0  0  0  0
  6 23  1  0  0  0  0
  6 24  1  0  0  0  0
  7  9  1  0  0  0  0
  7 11  2  0  0  0  0
  8 16  1  0  0  0  0
  8 25  1  0  0  0  0
  9 12  2  0  0  0  0
 10 26  1  0  0  0  0
 11 13  1  0  0  0  0
 11 28  1  0  0  0  0
 12 14  1  0  0  0  0
 12 30  1  0  0  0  0
 13 14  2  0  0  0  0
 13 31  1  0  0  0  0
 14 32  1  0  0  0  0
 15 17  1  0  0  0  0
 17 18  2  0  0  0  0
 17 19  1  0  0  0  0
 18 20  1  0  0  0  0
 18 33  1  0  0  0  0
 19 21  2  0  0  0  0
 19 34  1  0  0  0  0
 20 22  2  0  0  0  0
 20 35  1  0  0  0  0
 21 22  1  0  0  0  0
 21 36  1  0  0  0  0
 22 37  1  0  0  0  0
M  END
> <PUBCHEM_COMPOUND_CID>
582713

> <PUBCHEM_COMPOUND_CANONICALIZED>
1

> <PUBCHEM_CACTVS_COMPLEXITY>
435

> <PUBCHEM_CACTVS_HBOND_ACCEPTOR>
2

> <PUBCHEM_CACTVS_HBOND_DONOR>
2

> <PUBCHEM_CACTVS_ROTATABLE_BOND>
4

> <PUBCHEM_CACTVS_SUBSKEYS>
AAADccB7IAAAAAAAAAAAAAAAAAAAAWAAAAAwYAAAAAAAAFgB9AAAHgAQAAAADCjBngQ8wPLJkAC4BzV3VACCgCA1AiAI2aE4ZNgIoPLAlZGEIQhglgDIyY8YiMCOgAAAAAACAAAAAAAAAAQAAAAAAAAAAA==

> <PUBCHEM_IUPAC_OPENEYE_NAME>
N-[1-cyano-2-(1H-indol-3-yl)ethyl]benzamide

> <PUBCHEM_IUPAC_CAS_NAME>
N-[1-cyano-2-(1H-indol-3-yl)ethyl]benzamide

> <PUBCHEM_IUPAC_NAME>
N-[1-cyano-2-(1H-indol-3-yl)ethyl]benzamide

> <PUBCHEM_IUPAC_SYSTEMATIC_NAME>
N-[1-cyano-2-(1H-indol-3-yl)ethyl]benzamide

> <PUBCHEM_IUPAC_TRADITIONAL_NAME>
N-[1-cyano-2-(1H-indol-3-yl)ethyl]benzamide

> <PUBCHEM_IUPAC_INCHI>
InChI=1S/C18H15N3O/c19-11-15(21-18(22)13-6-2-1-3-7-13)10-14-12-20-17-9-5-4-8-16(14)17/h1-9,12,15,20H,10H2,(H,21,22)

> <PUBCHEM_IUPAC_INCHIKEY>
RLHKBKZMBNDSLH-UHFFFAOYSA-N

> <PUBCHEM_XLOGP3>
2.9

> <PUBCHEM_EXACT_MASS>
289.121512

> <PUBCHEM_MOLECULAR_FORMULA>
C18H15N3O

> <PUBCHEM_MOLECULAR_WEIGHT>
289.3312

> <PUBCHEM_OPENEYE_CAN_SMILES>
C1=CC=C(C=C1)C(=O)NC(CC2=CNC3=CC=CC=C32)C#N

> <PUBCHEM_OPENEYE_ISO_SMILES>
C1=CC=C(C=C1)C(=O)NC(CC2=CNC3=CC=CC=C32)C#N

> <PUBCHEM_CACTVS_TPSA>
68.7

> <PUBCHEM_MONOISOTOPIC_WEIGHT>
289.121512

> <PUBCHEM_TOTAL_CHARGE>
0

> <PUBCHEM_HEAVY_ATOM_COUNT>
22

> <PUBCHEM_ATOM_DEF_STEREO_COUNT>
0

> <PUBCHEM_ATOM_UDEF_STEREO_COUNT>
1

> <PUBCHEM_BOND_DEF_STEREO_COUNT>
0

> <PUBCHEM_BOND_UDEF_STEREO_COUNT>
0

> <PUBCHEM_ISOTOPIC_ATOM_COUNT>
0

> <PUBCHEM_COMPONENT_COUNT>
1

> <PUBCHEM_CACTVS_TAUTO_COUNT>
2

> <PUBCHEM_COORDINATE_TYPE>
1
5
255

> <PUBCHEM_BONDANNOTATIONS>
11  13  8
12  14  8
13  14  8
17  18  8
17  19  8
18  20  8
19  21  8
2  10  8
2  9  8
20  22  8
21  22  8
5  10  8
5  7  8
8  6  3
7  11  8
7  9  8
9  12  8

$$$$

