7963
  -OEChem-06261202302D

 14 14  0     0  0  0  0  0  0999 V2000
    2.8660   -1.5000    0.0000 N   0  0  0  0  0  0  0  0  0  0  0  0
    2.8660    0.5000    0.0000 C   0  0  0  0  0  0  0  0  0  0  0  0
    2.0000    0.0000    0.0000 C   0  0  0  0  0  0  0  0  0  0  0  0
    3.7320    0.0000    0.0000 C   0  0  0  0  0  0  0  0  0  0  0  0
    2.8660    1.5000    0.0000 C   0  0  0  0  0  0  0  0  0  0  0  0
    2.0000   -1.0000    0.0000 C   0  0  0  0  0  0  0  0  0  0  0  0
    3.7320   -1.0000    0.0000 C   0  0  0  0  0  0  0  0  0  0  0  0
    1.4631    0.3100    0.0000 H   0  0  0  0  0  0  0  0  0  0  0  0
    4.2690    0.3100    0.0000 H   0  0  0  0  0  0  0  0  0  0  0  0
    3.4860    1.5000    0.0000 H   0  0  0  0  0  0  0  0  0  0  0  0
    2.8660    2.1200    0.0000 H   0  0  0  0  0  0  0  0  0  0  0  0
    2.2460    1.5000    0.0000 H   0  0  0  0  0  0  0  0  0  0  0  0
    1.4631   -1.3100    0.0000 H   0  0  0  0  0  0  0  0  0  0  0  0
    4.2690   -1.3100    0.0000 H   0  0  0  0  0  0  0  0  0  0  0  0
  1  6  2  0  0  0  0
  1  7  1  0  0  0  0
  2  3  2  0  0  0  0
  2  4  1  0  0  0  0
  2  5  1  0  0  0  0
  3  6  1  0  0  0  0
  3  8  1  0  0  0  0
  4  7  2  0  0  0  0
  4  9  1  0  0  0  0
  5 10  1  0  0  0  0
  5 11  1  0  0  0  0
  5 12  1  0  0  0  0
  6 13  1  0  0  0  0
  7 14  1  0  0  0  0
M  END
> <PUBCHEM_COMPOUND_CID>
7963

> <PUBCHEM_COMPOUND_CANONICALIZED>
1

> <PUBCHEM_CACTVS_COMPLEXITY>
46.1

> <PUBCHEM_CACTVS_HBOND_ACCEPTOR>
1

> <PUBCHEM_CACTVS_HBOND_DONOR>
0

> <PUBCHEM_CACTVS_ROTATABLE_BOND>
0

> <PUBCHEM_CACTVS_SUBSKEYS>
AAADcYBiAAAAAAAAAAAAAAAAAAAAAAAAAAAsAAAAAAAAAAABgAAAHAAAAAAADADBGgQ+gJIIEACgAjBnRACCgCAxAiAI2CA4ZJgIIGLAkZGEIAhggADIyAYQAAAKAAAAAAAAAAAAAAAAAAAAAAAAAAAAAA==

> <PUBCHEM_IUPAC_OPENEYE_NAME>
4-methylpyridine

> <PUBCHEM_IUPAC_CAS_NAME>
4-methylpyridine

> <PUBCHEM_IUPAC_NAME>
4-methylpyridine

> <PUBCHEM_IUPAC_SYSTEMATIC_NAME>
4-methylpyridine

> <PUBCHEM_IUPAC_TRADITIONAL_NAME>
$g-picoline

> <PUBCHEM_IUPAC_INCHI>
InChI=1S/C6H7N/c1-6-2-4-7-5-3-6/h2-5H,1H3

> <PUBCHEM_IUPAC_INCHIKEY>
FKNQCJSGGFJEIZ-UHFFFAOYSA-N

> <PUBCHEM_XLOGP3>
1.2

> <PUBCHEM_EXACT_MASS>
93.057849

> <PUBCHEM_MOLECULAR_FORMULA>
C6H7N

> <PUBCHEM_MOLECULAR_WEIGHT>
93.12648

> <PUBCHEM_OPENEYE_CAN_SMILES>
CC1=CC=NC=C1

> <PUBCHEM_OPENEYE_ISO_SMILES>
CC1=CC=NC=C1

> <PUBCHEM_CACTVS_TPSA>
12.9

> <PUBCHEM_MONOISOTOPIC_WEIGHT>
93.057849

> <PUBCHEM_TOTAL_CHARGE>
0

> <PUBCHEM_HEAVY_ATOM_COUNT>
7

> <PUBCHEM_ATOM_DEF_STEREO_COUNT>
0

> <PUBCHEM_ATOM_UDEF_STEREO_COUNT>
0

> <PUBCHEM_BOND_DEF_STEREO_COUNT>
0

> <PUBCHEM_BOND_UDEF_STEREO_COUNT>
0

> <PUBCHEM_ISOTOPIC_ATOM_COUNT>
0

> <PUBCHEM_COMPONENT_COUNT>
1

> <PUBCHEM_CACTVS_TAUTO_COUNT>
1

> <PUBCHEM_COORDINATE_TYPE>
1
5
255

> <PUBCHEM_BONDANNOTATIONS>
1  6  8
1  7  8
2  3  8
2  4  8
3  6  8
4  7  8

$$$$

