10940
  -OEChem-06261205082D

 26 26  0     1  0  0  0  0  0999 V2000
    2.8090    0.0693    0.0000 O   0  0  0  0  0  0  0  0  0  0  0  0
    2.3090    1.6082    0.0000 O   0  0  0  0  0  0  0  0  0  0  0  0
    4.7770   -0.6300    0.0000 N   0  3  0  0  0  0  0  0  0  0  0  0
    4.5691    0.3481    0.0000 C   0  0  0  0  0  0  0  0  0  0  0  0
    3.6180    0.6571    0.0000 C   0  0  3  0  0  0  0  0  0  0  0  0
    3.3090    1.6082    0.0000 C   0  0  0  0  0  0  0  0  0  0  0  0
    4.9849   -1.6082    0.0000 C   0  0  0  0  0  0  0  0  0  0  0  0
    5.7552   -0.4221    0.0000 C   0  0  0  0  0  0  0  0  0  0  0  0
    3.7988   -0.8379    0.0000 C   0  0  0  0  0  0  0  0  0  0  0  0
    2.0000    0.6571    0.0000 C   0  0  0  0  0  0  0  0  0  0  0  0
    5.1887    0.3697    0.0000 H   0  0  0  0  0  0  0  0  0  0  0  0
    4.6554    0.9621    0.0000 H   0  0  0  0  0  0  0  0  0  0  0  0
    3.7510   -0.1824    0.0000 H   0  0  0  0  0  0  0  0  0  0  0  0
    3.9155    1.7371    0.0000 H   0  0  0  0  0  0  0  0  0  0  0  0
    3.2442    2.2248    0.0000 H   0  0  0  0  0  0  0  0  0  0  0  0
    5.8841   -1.0286    0.0000 H   0  0  0  0  0  0  0  0  0  0  0  0
    6.3616   -0.2932    0.0000 H   0  0  0  0  0  0  0  0  0  0  0  0
    5.6262    0.1843    0.0000 H   0  0  0  0  0  0  0  0  0  0  0  0
    4.3785   -1.7371    0.0000 H   0  0  0  0  0  0  0  0  0  0  0  0
    5.1138   -2.2146    0.0000 H   0  0  0  0  0  0  0  0  0  0  0  0
    5.5914   -1.4793    0.0000 H   0  0  0  0  0  0  0  0  0  0  0  0
    3.6700   -0.2315    0.0000 H   0  0  0  0  0  0  0  0  0  0  0  0
    3.1924   -0.9669    0.0000 H   0  0  0  0  0  0  0  0  0  0  0  0
    3.9278   -1.4444    0.0000 H   0  0  0  0  0  0  0  0  0  0  0  0
    1.4336    0.9093    0.0000 H   0  0  0  0  0  0  0  0  0  0  0  0
    1.6900    0.1202    0.0000 H   0  0  0  0  0  0  0  0  0  0  0  0
  1  5  1  0  0  0  0
  1 10  1  0  0  0  0
  2  6  1  0  0  0  0
  2 10  1  0  0  0  0
  3  4  1  0  0  0  0
  3  7  1  0  0  0  0
  3  8  1  0  0  0  0
  3  9  1  0  0  0  0
  4  5  1  0  0  0  0
  4 11  1  0  0  0  0
  4 12  1  0  0  0  0
  5  6  1  0  0  0  0
  5 13  1  0  0  0  0
  6 14  1  0  0  0  0
  6 15  1  0  0  0  0
  7 19  1  0  0  0  0
  7 20  1  0  0  0  0
  7 21  1  0  0  0  0
  8 16  1  0  0  0  0
  8 17  1  0  0  0  0
  8 18  1  0  0  0  0
  9 22  1  0  0  0  0
  9 23  1  0  0  0  0
  9 24  1  0  0  0  0
 10 25  1  0  0  0  0
 10 26  1  0  0  0  0
M  CHG  1   3   1
M  END
> <PUBCHEM_COMPOUND_CID>
10940

> <PUBCHEM_COMPOUND_CANONICALIZED>
1

> <PUBCHEM_CACTVS_COMPLEXITY>
109

> <PUBCHEM_CACTVS_HBOND_ACCEPTOR>
2

> <PUBCHEM_CACTVS_HBOND_DONOR>
0

> <PUBCHEM_CACTVS_ROTATABLE_BOND>
2

> <PUBCHEM_CACTVS_SUBSKEYS>
AAADceBiMAAAAAAAAAAAAAAAAAAAASAAAAAAAAAAAAAAAAAAAAAAHgAAAAAACBThgAcCCAMABAAAAAAAAAAAAAAAAAAAAAAIAAATAAAAAAAlAAACAAAWAAAAAAAAAAAAAAAAAAAAAAAAAAAAAAAAAAAAAA==

> <PUBCHEM_IUPAC_OPENEYE_NAME>
1,3-dioxolan-4-ylmethyl(trimethyl)ammonium

> <PUBCHEM_IUPAC_CAS_NAME>
1,3-dioxolan-4-ylmethyl(trimethyl)ammonium

> <PUBCHEM_IUPAC_NAME>
1,3-dioxolan-4-ylmethyl(trimethyl)azanium

> <PUBCHEM_IUPAC_SYSTEMATIC_NAME>
1,3-dioxolan-4-ylmethyl(trimethyl)azanium

> <PUBCHEM_IUPAC_TRADITIONAL_NAME>
1,3-dioxolan-4-ylmethyl(trimethyl)ammonium

> <PUBCHEM_IUPAC_INCHI>
InChI=1S/C7H16NO2/c1-8(2,3)4-7-5-9-6-10-7/h7H,4-6H2,1-3H3/q+1

> <PUBCHEM_IUPAC_INCHIKEY>
HJPHIJVSRJVAGC-UHFFFAOYSA-N

> <PUBCHEM_XLOGP3_AA>
-0.1

> <PUBCHEM_EXACT_MASS>
146.118104

> <PUBCHEM_MOLECULAR_FORMULA>
C7H16NO2+

> <PUBCHEM_MOLECULAR_WEIGHT>
146.20744

> <PUBCHEM_OPENEYE_CAN_SMILES>
C[N+](C)(C)CC1COCO1

> <PUBCHEM_OPENEYE_ISO_SMILES>
C[N+](C)(C)CC1COCO1

> <PUBCHEM_CACTVS_TPSA>
18.5

> <PUBCHEM_MONOISOTOPIC_WEIGHT>
146.118104

> <PUBCHEM_TOTAL_CHARGE>
1

> <PUBCHEM_HEAVY_ATOM_COUNT>
10

> <PUBCHEM_ATOM_DEF_STEREO_COUNT>
0

> <PUBCHEM_ATOM_UDEF_STEREO_COUNT>
1

> <PUBCHEM_BOND_DEF_STEREO_COUNT>
0

> <PUBCHEM_BOND_UDEF_STEREO_COUNT>
0

> <PUBCHEM_ISOTOPIC_ATOM_COUNT>
0

> <PUBCHEM_COMPONENT_COUNT>
1

> <PUBCHEM_CACTVS_TAUTO_COUNT>
1

> <PUBCHEM_COORDINATE_TYPE>
1
5
255

> <PUBCHEM_BONDANNOTATIONS>
5  13  3

$$$$

