8336
  -OEChem-06261202453D

 28 29  0     0  0  0  0  0  0999 V2000
    3.3406   -0.1387   -0.0407 S   0  0  0  0  0  0  0  0  0  0  0  0
   -3.5336   -0.1592   -0.0452 S   0  0  0  0  0  0  0  0  0  0  0  0
    3.5773    0.4919    1.4447 O   0  0  0  0  0  0  0  0  0  0  0  0
   -3.7372   -0.8168    1.4345 O   0  0  0  0  0  0  0  0  0  0  0  0
    4.1607   -1.3316   -0.1408 O   0  0  0  0  0  0  0  0  0  0  0  0
    3.4434    0.9296   -1.0161 O   0  0  0  0  0  0  0  0  0  0  0  0
   -4.4257    0.9831   -0.1359 O   0  0  0  0  0  0  0  0  0  0  0  0
   -3.5762   -1.2245   -1.0300 O   0  0  0  0  0  0  0  0  0  0  0  0
    1.8991    2.2724   -0.0328 N   0  0  0  0  0  0  0  0  0  0  0  0
    0.5320    0.1865   -0.0418 C   0  0  0  0  0  0  0  0  0  0  0  0
   -0.7616   -0.3877   -0.0454 C   0  0  0  0  0  0  0  0  0  0  0  0
    1.6567   -0.6545   -0.0447 C   0  0  0  0  0  0  0  0  0  0  0  0
   -1.8863    0.4533   -0.0427 C   0  0  0  0  0  0  0  0  0  0  0  0
    0.6626    1.5847   -0.0358 C   0  0  0  0  0  0  0  0  0  0  0  0
   -0.8923   -1.7860   -0.0515 C   0  0  0  0  0  0  0  0  0  0  0  0
   -1.7379    1.8405   -0.0369 C   0  0  0  0  0  0  0  0  0  0  0  0
    1.5082   -2.0418   -0.0509 C   0  0  0  0  0  0  0  0  0  0  0  0
   -0.4659    2.4052   -0.0335 C   0  0  0  0  0  0  0  0  0  0  0  0
    0.2361   -2.6065   -0.0543 C   0  0  0  0  0  0  0  0  0  0  0  0
   -1.8421   -2.3035   -0.0045 H   0  0  0  0  0  0  0  0  0  0  0  0
   -2.5876    2.5163   -0.0318 H   0  0  0  0  0  0  0  0  0  0  0  0
    2.3444   -2.7334   -0.0457 H   0  0  0  0  0  0  0  0  0  0  0  0
   -0.3715    3.4886   -0.0300 H   0  0  0  0  0  0  0  0  0  0  0  0
    0.1213   -3.6867   -0.0467 H   0  0  0  0  0  0  0  0  0  0  0  0
    1.8995    3.1854    0.4109 H   0  0  0  0  0  0  0  0  0  0  0  0
    2.3854    2.2618   -0.9223 H   0  0  0  0  0  0  0  0  0  0  0  0
    3.4552   -0.1353    2.1959 H   0  0  0  0  0  0  0  0  0  0  0  0
   -3.6506   -0.1911    2.1917 H   0  0  0  0  0  0  0  0  0  0  0  0
  1  3  1  0  0  0  0
  1  5  2  0  0  0  0
  1  6  2  0  0  0  0
  1 12  1  0  0  0  0
  2  4  1  0  0  0  0
  2  7  2  0  0  0  0
  2  8  2  0  0  0  0
  2 13  1  0  0  0  0
  3 27  1  0  0  0  0
  4 28  1  0  0  0  0
  9 14  1  0  0  0  0
  9 25  1  0  0  0  0
  9 26  1  0  0  0  0
 10 11  1  0  0  0  0
 10 12  1  0  0  0  0
 10 14  2  0  0  0  0
 11 13  2  0  0  0  0
 11 15  1  0  0  0  0
 12 17  2  0  0  0  0
 13 16  1  0  0  0  0
 14 18  1  0  0  0  0
 15 19  2  0  0  0  0
 15 20  1  0  0  0  0
 16 18  2  0  0  0  0
 16 21  1  0  0  0  0
 17 19  1  0  0  0  0
 17 22  1  0  0  0  0
 18 23  1  0  0  0  0
 19 24  1  0  0  0  0
M  END
> <PUBCHEM_COMPOUND_CID>
8336

> <PUBCHEM_CONFORMER_RMSD>
0.6

> <PUBCHEM_CONFORMER_DIVERSEORDER>
1

> <PUBCHEM_MMFF94_PARTIAL_CHARGES>
26
1 1.49
12 -0.01
13 -0.01
14 0.1
15 -0.15
16 -0.15
17 -0.15
18 -0.15
19 -0.15
2 1.49
20 0.15
21 0.15
22 0.15
23 0.15
24 0.15
25 0.4
26 0.4
27 0.5
28 0.5
3 -0.68
4 -0.68
5 -0.65
6 -0.65
7 -0.65
8 -0.65
9 -0.9

> <PUBCHEM_EFFECTIVE_ROTOR_COUNT>
2

> <PUBCHEM_PHARMACOPHORE_FEATURES>
12
1 3 acceptor
1 4 acceptor
1 5 acceptor
1 6 acceptor
1 7 acceptor
1 8 acceptor
1 9 cation
1 9 donor
4 1 3 5 6 anion
4 2 4 7 8 anion
6 10 11 12 15 17 19 rings
6 10 11 13 14 16 18 rings

> <PUBCHEM_HEAVY_ATOM_COUNT>
19

> <PUBCHEM_ATOM_DEF_STEREO_COUNT>
0

> <PUBCHEM_ATOM_UDEF_STEREO_COUNT>
0

> <PUBCHEM_BOND_DEF_STEREO_COUNT>
0

> <PUBCHEM_BOND_UDEF_STEREO_COUNT>
0

> <PUBCHEM_ISOTOPIC_ATOM_COUNT>
0

> <PUBCHEM_COMPONENT_COUNT>
1

> <PUBCHEM_CACTVS_TAUTO_COUNT>
1

> <PUBCHEM_CONFORMER_ID>
0000209000000001

> <PUBCHEM_MMFF94_ENERGY>
78.2169

> <PUBCHEM_FEATURE_SELFOVERLAP>
61.033

> <PUBCHEM_SHAPE_FINGERPRINT>
10062212 137 18412549829385443439
10759866 29 17846208935123187214
10967382 1 18410573942312587022
11132069 177 18334864908734451339
11471102 20 18411140251062413189
11578080 2 17388009497488368753
11680986 33 18195808461967698778
12403259 226 18335991977399893208
12596599 1 17604137164911805367
13140716 1 18194683665888589442
13172582 1 18410294696355357266
13221675 6 18410292518828108551
13583140 156 16844745122429052259
13862211 1 18410860974877271582
14178342 30 18121507009832973680
14251717 144 18410017611062115479
14614273 12 18057607774945658253
14790565 3 18338781351941929245
15196674 1 18410573980867039933
15309172 13 18335414673433874499
15536298 74 18259706687743148500
15848702 151 17458897253512912158
16945 1 18410575063241041974
18186145 218 17967526857092041098
193761 8 17689998938141232646
19591789 44 18339356353768307183
200 152 18187090563689813437
20028762 73 17971468499553471343
20510252 161 18261114110140738112
20645476 183 17773017666934124974
20905425 154 18047471420246356406
21267235 1 18338507642371013151
21421861 104 17770782617550936115
21501502 16 18050286165385906715
21634736 98 17899991421551999735
2334 1 17834114147713095438
23388829 49 18409169934868088093
23402539 116 18334867133817849702
23463225 33 18341896337429072454
23493267 7 17561089124442373505
23559900 14 18197219367720921382
2748010 2 18121782986992510742
335352 9 18338799030079145125
34934 24 18337962306573987621
350125 39 18266176317688493042
4072396 5 18270700764738946027
43471831 8 18197783399874382114
5104073 3 18410573989488649873
537710 114 18412257333285469476
7364860 26 17901389210105646438
8809292 202 18202275905743268675

> <PUBCHEM_SHAPE_MULTIPOLES>
358.51
6.79
2.59
0.85
1.15
0.05
-0.15
-0.36
-0.28
-0.3
0.12
0.02
-0.04
0.04

> <PUBCHEM_SHAPE_SELFOVERLAP>
763.182

> <PUBCHEM_SHAPE_VOLUME>
199.2

> <PUBCHEM_COORDINATE_TYPE>
2
5
10

$$$$

