5890
  -OEChem-06261200572D

144147  0     1  0  0  0  0  0999 V2000
   10.3965    3.9057    0.0000 O   0  0  0  0  0  0  0  0  0  0  0  0
   11.1202    6.7603    0.0000 O   0  0  0  0  0  0  0  0  0  0  0  0
    9.6534    3.2366    0.0000 O   0  0  0  0  0  0  0  0  0  0  0  0
    7.6561    5.7603    0.0000 O   0  0  0  0  0  0  0  0  0  0  0  0
    8.5221    4.2603    0.0000 O   0  0  0  0  0  0  0  0  0  0  0  0
    7.6319    0.2510    0.0000 O   0  0  0  0  0  0  0  0  0  0  0  0
    6.8887   -0.4181    0.0000 O   0  0  0  0  0  0  0  0  0  0  0  0
    3.7082   -2.1165    0.0000 O   0  0  0  0  0  0  0  0  0  0  0  0
    5.2830   -5.3599    0.0000 O   0  0  0  0  0  0  0  0  0  0  0  0
    2.4608    3.7524    0.0000 O   0  0  0  0  0  0  0  0  0  0  0  0
    2.1025   -7.0583    0.0000 O   0  0  0  0  0  0  0  0  0  0  0  0
   12.0907    4.2658    0.0000 N   0  0  0  0  0  0  0  0  0  0  0  0
   10.2541    5.2603    0.0000 N   0  0  0  0  0  0  0  0  0  0  0  0
   10.8123    1.9494    0.0000 N   0  0  0  0  0  0  0  0  0  0  0  0
    8.1671    1.8983    0.0000 N   0  0  0  0  0  0  0  0  0  0  0  0
   13.6280    0.9246    0.0000 N   0  0  0  0  0  0  0  0  0  0  0  0
    5.7297    0.8691    0.0000 N   0  0  0  0  0  0  0  0  0  0  0  0
   12.5453   -0.2778    0.0000 N   0  0  0  0  0  0  0  0  0  0  0  0
    5.4024   -1.7564    0.0000 N   0  0  0  0  0  0  0  0  0  0  0  0
    4.1240   -4.0728    0.0000 N   0  0  0  0  0  0  0  0  0  0  0  0
    7.1851   -5.9780    0.0000 N   0  0  0  0  0  0  0  0  0  0  0  0
    2.6378   -5.4110    0.0000 N   0  0  0  0  0  0  0  0  0  0  0  0
    3.2615   -8.3455    0.0000 N   0  0  0  0  0  0  0  0  0  0  0  0
    8.3441   -7.2651    0.0000 N   0  0  0  0  0  0  0  0  0  0  0  0
    8.8793   -5.6179    0.0000 N   0  0  0  0  0  0  0  0  0  0  0  0
   11.9862    5.2603    0.0000 C   0  0  3  0  0  0  0  0  0  0  0  0
   12.8997    5.6671    0.0000 C   0  0  0  0  0  0  0  0  0  0  0  0
   13.5689    4.9239    0.0000 C   0  0  0  0  0  0  0  0  0  0  0  0
   13.0689    4.0579    0.0000 C   0  0  0  0  0  0  0  0  0  0  0  0
   11.3476    3.5967    0.0000 C   0  0  0  0  0  0  0  0  0  0  0  0
   11.5555    2.6185    0.0000 C   0  0  3  0  0  0  0  0  0  0  0  0
   11.1202    5.7603    0.0000 C   0  0  0  0  0  0  0  0  0  0  0  0
   12.5065    2.3095    0.0000 C   0  0  0  0  0  0  0  0  0  0  0  0
    9.3881    5.7603    0.0000 C   0  0  3  0  0  0  0  0  0  0  0  0
    9.1181    1.5893    0.0000 C   0  0  3  0  0  0  0  0  0  0  0  0
    9.8613    2.2584    0.0000 C   0  0  0  0  0  0  0  0  0  0  0  0
    9.3261    0.6111    0.0000 C   0  0  0  0  0  0  0  0  0  0  0  0
   12.7145    1.3314    0.0000 C   0  0  0  0  0  0  0  0  0  0  0  0
    9.3881    6.7603    0.0000 C   0  0  0  0  0  0  0  0  0  0  0  0
    8.5221    5.2603    0.0000 C   0  0  0  0  0  0  0  0  0  0  0  0
    8.5829   -0.0580    0.0000 C   0  0  0  0  0  0  0  0  0  0  0  0
   10.2771    0.3021    0.0000 C   0  0  0  0  0  0  0  0  0  0  0  0
    6.4729    1.5382    0.0000 C   0  0  3  0  0  0  0  0  0  0  0  0
   12.0453    0.5882    0.0000 C   0  0  0  0  0  0  0  0  0  0  0  0
    7.4239    1.2292    0.0000 C   0  0  0  0  0  0  0  0  0  0  0  0
    8.5221    7.2603    0.0000 C   0  0  0  0  0  0  0  0  0  0  0  0
    5.1945   -0.7782    0.0000 C   0  0  3  0  0  0  0  0  0  0  0  0
    6.2650    2.5163    0.0000 C   0  0  0  0  0  0  0  0  0  0  0  0
    4.2434   -0.4692    0.0000 C   0  0  0  0  0  0  0  0  0  0  0  0
   13.5235   -0.0699    0.0000 C   0  0  0  0  0  0  0  0  0  0  0  0
    5.9376   -0.1091    0.0000 C   0  0  0  0  0  0  0  0  0  0  0  0
    8.5221    8.2603    0.0000 C   0  0  0  0  0  0  0  0  0  0  0  0
    7.6561    6.7603    0.0000 C   0  0  0  0  0  0  0  0  0  0  0  0
    4.8672   -3.4036    0.0000 C   0  0  3  0  0  0  0  0  0  0  0  0
    5.3139    2.8254    0.0000 C   0  0  0  0  0  0  0  0  0  0  0  0
    3.5003   -1.1383    0.0000 C   0  0  0  0  0  0  0  0  0  0  0  0
    4.0355    0.5090    0.0000 C   0  0  0  0  0  0  0  0  0  0  0  0
    4.6593   -2.4255    0.0000 C   0  0  0  0  0  0  0  0  0  0  0  0
    5.8182   -3.7127    0.0000 C   0  0  0  0  0  0  0  0  0  0  0  0
    7.6561    8.7603    0.0000 C   0  0  0  0  0  0  0  0  0  0  0  0
    6.7900    7.2603    0.0000 C   0  0  0  0  0  0  0  0  0  0  0  0
    6.0262   -4.6908    0.0000 C   0  0  0  0  0  0  0  0  0  0  0  0
    5.1060    3.8035    0.0000 C   0  0  0  0  0  0  0  0  0  0  0  0
    4.5708    2.1562    0.0000 C   0  0  0  0  0  0  0  0  0  0  0  0
    6.7900    8.2603    0.0000 C   0  0  0  0  0  0  0  0  0  0  0  0
    6.9772   -4.9998    0.0000 C   0  0  0  0  0  0  0  0  0  0  0  0
    4.3320   -5.0509    0.0000 C   0  0  0  0  0  0  0  0  0  0  0  0
    4.1550    4.1125    0.0000 C   0  0  0  0  0  0  0  0  0  0  0  0
    3.6197    2.4652    0.0000 C   0  0  0  0  0  0  0  0  0  0  0  0
    3.5888   -5.7200    0.0000 C   0  0  3  0  0  0  0  0  0  0  0  0
    3.4118    3.4434    0.0000 C   0  0  0  0  0  0  0  0  0  0  0  0
    3.7967   -6.6982    0.0000 C   0  0  0  0  0  0  0  0  0  0  0  0
    3.0536   -7.3673    0.0000 C   0  0  0  0  0  0  0  0  0  0  0  0
    8.1362   -6.2870    0.0000 C   0  0  0  0  0  0  0  0  0  0  0  0
   11.2733    4.7974    0.0000 H   0  0  0  0  0  0  0  0  0  0  0  0
   13.4013    6.0315    0.0000 H   0  0  0  0  0  0  0  0  0  0  0  0
   12.5897    6.2040    0.0000 H   0  0  0  0  0  0  0  0  0  0  0  0
   14.0705    4.5595    0.0000 H   0  0  0  0  0  0  0  0  0  0  0  0
   13.9837    5.3847    0.0000 H   0  0  0  0  0  0  0  0  0  0  0  0
   12.8773    3.4682    0.0000 H   0  0  0  0  0  0  0  0  0  0  0  0
   13.6353    3.8057    0.0000 H   0  0  0  0  0  0  0  0  0  0  0  0
   10.7471    2.8812    0.0000 H   0  0  0  0  0  0  0  0  0  0  0  0
   13.1262    2.3312    0.0000 H   0  0  0  0  0  0  0  0  0  0  0  0
   12.5928    2.9235    0.0000 H   0  0  0  0  0  0  0  0  0  0  0  0
   10.2541    4.6403    0.0000 H   0  0  0  0  0  0  0  0  0  0  0  0
   10.9413    1.3430    0.0000 H   0  0  0  0  0  0  0  0  0  0  0  0
   10.1242    6.1853    0.0000 H   0  0  0  0  0  0  0  0  0  0  0  0
    8.4865    1.0205    0.0000 H   0  0  0  0  0  0  0  0  0  0  0  0
    9.7868    1.0260    0.0000 H   0  0  0  0  0  0  0  0  0  0  0  0
    9.9987    6.6527    0.0000 H   0  0  0  0  0  0  0  0  0  0  0  0
    9.6002    7.3430    0.0000 H   0  0  0  0  0  0  0  0  0  0  0  0
    8.0382    2.5048    0.0000 H   0  0  0  0  0  0  0  0  0  0  0  0
    8.1680    0.4028    0.0000 H   0  0  0  0  0  0  0  0  0  0  0  0
    8.1222   -0.4728    0.0000 H   0  0  0  0  0  0  0  0  0  0  0  0
    8.9978   -0.5187    0.0000 H   0  0  0  0  0  0  0  0  0  0  0  0
   10.0855   -0.2875    0.0000 H   0  0  0  0  0  0  0  0  0  0  0  0
   10.8668    0.1105    0.0000 H   0  0  0  0  0  0  0  0  0  0  0  0
   10.4687    0.8918    0.0000 H   0  0  0  0  0  0  0  0  0  0  0  0
    6.6496    0.7068    0.0000 H   0  0  0  0  0  0  0  0  0  0  0  0
   14.1649    1.2346    0.0000 H   0  0  0  0  0  0  0  0  0  0  0  0
   11.4287    0.6530    0.0000 H   0  0  0  0  0  0  0  0  0  0  0  0
    6.0029   -1.0409    0.0000 H   0  0  0  0  0  0  0  0  0  0  0  0
    3.6538   -0.2776    0.0000 H   0  0  0  0  0  0  0  0  0  0  0  0
    6.8846    2.5380    0.0000 H   0  0  0  0  0  0  0  0  0  0  0  0
    6.3513    3.1303    0.0000 H   0  0  0  0  0  0  0  0  0  0  0  0
    5.1401    1.0607    0.0000 H   0  0  0  0  0  0  0  0  0  0  0  0
   13.9842   -0.4847    0.0000 H   0  0  0  0  0  0  0  0  0  0  0  0
    5.9921   -1.9480    0.0000 H   0  0  0  0  0  0  0  0  0  0  0  0
    9.0590    8.5703    0.0000 H   0  0  0  0  0  0  0  0  0  0  0  0
    7.6561    6.1403    0.0000 H   0  0  0  0  0  0  0  0  0  0  0  0
    5.0439   -4.2351    0.0000 H   0  0  0  0  0  0  0  0  0  0  0  0
    4.6420    0.6379    0.0000 H   0  0  0  0  0  0  0  0  0  0  0  0
    3.9066    1.1154    0.0000 H   0  0  0  0  0  0  0  0  0  0  0  0
    3.4291    0.3800    0.0000 H   0  0  0  0  0  0  0  0  0  0  0  0
    3.0854   -0.6776    0.0000 H   0  0  0  0  0  0  0  0  0  0  0  0
    3.0396   -1.5532    0.0000 H   0  0  0  0  0  0  0  0  0  0  0  0
    3.9152   -1.5991    0.0000 H   0  0  0  0  0  0  0  0  0  0  0  0
    7.1191    5.4503    0.0000 H   0  0  0  0  0  0  0  0  0  0  0  0
    6.4379   -3.6910    0.0000 H   0  0  0  0  0  0  0  0  0  0  0  0
    5.9045   -3.0987    0.0000 H   0  0  0  0  0  0  0  0  0  0  0  0
    7.6561    9.3803    0.0000 H   0  0  0  0  0  0  0  0  0  0  0  0
    6.2531    6.9503    0.0000 H   0  0  0  0  0  0  0  0  0  0  0  0
    5.4065   -4.7124    0.0000 H   0  0  0  0  0  0  0  0  0  0  0  0
    5.9399   -5.3048    0.0000 H   0  0  0  0  0  0  0  0  0  0  0  0
    3.5344   -3.8812    0.0000 H   0  0  0  0  0  0  0  0  0  0  0  0
    5.5668    4.2184    0.0000 H   0  0  0  0  0  0  0  0  0  0  0  0
    4.6997    1.5498    0.0000 H   0  0  0  0  0  0  0  0  0  0  0  0
    6.2531    8.5703    0.0000 H   0  0  0  0  0  0  0  0  0  0  0  0
    7.5968   -4.9782    0.0000 H   0  0  0  0  0  0  0  0  0  0  0  0
    7.0635   -4.3859    0.0000 H   0  0  0  0  0  0  0  0  0  0  0  0
    4.0260    4.7190    0.0000 H   0  0  0  0  0  0  0  0  0  0  0  0
    3.1590    2.0504    0.0000 H   0  0  0  0  0  0  0  0  0  0  0  0
    2.9571   -6.2888    0.0000 H   0  0  0  0  0  0  0  0  0  0  0  0
    4.1253   -7.2240    0.0000 H   0  0  0  0  0  0  0  0  0  0  0  0
    4.3716   -6.4659    0.0000 H   0  0  0  0  0  0  0  0  0  0  0  0
    2.1770   -5.8259    0.0000 H   0  0  0  0  0  0  0  0  0  0  0  0
    2.5088   -4.8046    0.0000 H   0  0  0  0  0  0  0  0  0  0  0  0
    2.0000    3.3376    0.0000 H   0  0  0  0  0  0  0  0  0  0  0  0
    2.8007   -8.7603    0.0000 H   0  0  0  0  0  0  0  0  0  0  0  0
    3.8511   -8.5371    0.0000 H   0  0  0  0  0  0  0  0  0  0  0  0
    9.4690   -5.8094    0.0000 H   0  0  0  0  0  0  0  0  0  0  0  0
    8.7504   -5.0114    0.0000 H   0  0  0  0  0  0  0  0  0  0  0  0
    8.9338   -7.4567    0.0000 H   0  0  0  0  0  0  0  0  0  0  0  0
    7.8833   -7.6800    0.0000 H   0  0  0  0  0  0  0  0  0  0  0  0
  1 30  2  0  0  0  0
  2 32  2  0  0  0  0
  3 36  2  0  0  0  0
  4 40  1  0  0  0  0
  4118  1  0  0  0  0
  5 40  2  0  0  0  0
  6 45  2  0  0  0  0
  7 51  2  0  0  0  0
  8 58  2  0  0  0  0
  9 67  2  0  0  0  0
 10 71  1  0  0  0  0
 10138  1  0  0  0  0
 11 73  2  0  0  0  0
 12 26  1  0  0  0  0
 12 29  1  0  0  0  0
 12 30  1  0  0  0  0
 13 32  1  0  0  0  0
 13 34  1  0  0  0  0
 13 85  1  0  0  0  0
 14 31  1  0  0  0  0
 14 36  1  0  0  0  0
 14 86  1  0  0  0  0
 15 35  1  0  0  0  0
 15 45  1  0  0  0  0
 15 92  1  0  0  0  0
 16 38  1  0  0  0  0
 16 50  1  0  0  0  0
 16100  1  0  0  0  0
 17 43  1  0  0  0  0
 17 51  1  0  0  0  0
 17106  1  0  0  0  0
 18 44  1  0  0  0  0
 18 50  2  0  0  0  0
 19 47  1  0  0  0  0
 19 58  1  0  0  0  0
 19108  1  0  0  0  0
 20 54  1  0  0  0  0
 20 67  1  0  0  0  0
 20125  1  0  0  0  0
 21 66  1  0  0  0  0
 21 74  2  0  0  0  0
 22 70  1  0  0  0  0
 22136  1  0  0  0  0
 22137  1  0  0  0  0
 23 73  1  0  0  0  0
 23139  1  0  0  0  0
 23140  1  0  0  0  0
 24 74  1  0  0  0  0
 24143  1  0  0  0  0
 24144  1  0  0  0  0
 25 74  1  0  0  0  0
 25141  1  0  0  0  0
 25142  1  0  0  0  0
 26 27  1  0  0  0  0
 26 32  1  0  0  0  0
 26 75  1  0  0  0  0
 27 28  1  0  0  0  0
 27 76  1  0  0  0  0
 27 77  1  0  0  0  0
 28 29  1  0  0  0  0
 28 78  1  0  0  0  0
 28 79  1  0  0  0  0
 29 80  1  0  0  0  0
 29 81  1  0  0  0  0
 30 31  1  0  0  0  0
 31 33  1  0  0  0  0
 31 82  1  0  0  0  0
 33 38  1  0  0  0  0
 33 83  1  0  0  0  0
 33 84  1  0  0  0  0
 34 39  1  0  0  0  0
 34 40  1  0  0  0  0
 34 87  1  0  0  0  0
 35 36  1  0  0  0  0
 35 37  1  0  0  0  0
 35 88  1  0  0  0  0
 37 41  1  0  0  0  0
 37 42  1  0  0  0  0
 37 89  1  0  0  0  0
 38 44  2  0  0  0  0
 39 46  1  0  0  0  0
 39 90  1  0  0  0  0
 39 91  1  0  0  0  0
 41 93  1  0  0  0  0
 41 94  1  0  0  0  0
 41 95  1  0  0  0  0
 42 96  1  0  0  0  0
 42 97  1  0  0  0  0
 42 98  1  0  0  0  0
 43 45  1  0  0  0  0
 43 48  1  0  0  0  0
 43 99  1  0  0  0  0
 44101  1  0  0  0  0
 46 52  2  0  0  0  0
 46 53  1  0  0  0  0
 47 49  1  0  0  0  0
 47 51  1  0  0  0  0
 47102  1  0  0  0  0
 48 55  1  0  0  0  0
 48104  1  0  0  0  0
 48105  1  0  0  0  0
 49 56  1  0  0  0  0
 49 57  1  0  0  0  0
 49103  1  0  0  0  0
 50107  1  0  0  0  0
 52 60  1  0  0  0  0
 52109  1  0  0  0  0
 53 61  2  0  0  0  0
 53110  1  0  0  0  0
 54 58  1  0  0  0  0
 54 59  1  0  0  0  0
 54111  1  0  0  0  0
 55 63  2  0  0  0  0
 55 64  1  0  0  0  0
 56115  1  0  0  0  0
 56116  1  0  0  0  0
 56117  1  0  0  0  0
 57112  1  0  0  0  0
 57113  1  0  0  0  0
 57114  1  0  0  0  0
 59 62  1  0  0  0  0
 59119  1  0  0  0  0
 59120  1  0  0  0  0
 60 65  2  0  0  0  0
 60121  1  0  0  0  0
 61 65  1  0  0  0  0
 61122  1  0  0  0  0
 62 66  1  0  0  0  0
 62123  1  0  0  0  0
 62124  1  0  0  0  0
 63 68  1  0  0  0  0
 63126  1  0  0  0  0
 64 69  2  0  0  0  0
 64127  1  0  0  0  0
 65128  1  0  0  0  0
 66129  1  0  0  0  0
 66130  1  0  0  0  0
 67 70  1  0  0  0  0
 68 71  2  0  0  0  0
 68131  1  0  0  0  0
 69 71  1  0  0  0  0
 69132  1  0  0  0  0
 70 72  1  0  0  0  0
 70133  1  0  0  0  0
 72 73  1  0  0  0  0
 72134  1  0  0  0  0
 72135  1  0  0  0  0
M  END
> <PUBCHEM_COMPOUND_CID>
5890

> <PUBCHEM_COMPOUND_CANONICALIZED>
1

> <PUBCHEM_CACTVS_COMPLEXITY>
1960

> <PUBCHEM_CACTVS_HBOND_ACCEPTOR>
14

> <PUBCHEM_CACTVS_HBOND_DONOR>
13

> <PUBCHEM_CACTVS_ROTATABLE_BOND>
28

> <PUBCHEM_CACTVS_SUBSKEYS>
AAADcfB//AAAAAAAAAAAAAAAAAAAAWLAAAAwYAAAAAAAAAAB0AAAHgAQCAAADSzBngQ/npfJkgCoAzX3fAACgC2xMqAJ2YG+eIiKbjrC2TOUcAAs1hPY2CedyaCOIAAAAAAAAABAAAAAAAAAAAAAAAAAAA==

> <PUBCHEM_IUPAC_OPENEYE_NAME>
2-[[1-[2-[[2-[[2-[[2-[[2-[(2,4-diamino-4-oxo-butanoyl)amino]-5-guanidino-pentanoyl]amino]-3-methyl-butanoyl]amino]-3-(4-hydroxyphenyl)propanoyl]amino]-3-methyl-butanoyl]amino]-3-(1H-imidazol-5-yl)propanoyl]pyrrolidine-2-carbonyl]amino]-3-phenyl-propanoic acid

> <PUBCHEM_IUPAC_CAS_NAME>
2-[[[1-[2-[[2-[[2-[[2-[[2-[(2,4-diamino-1,4-dioxobutyl)amino]-5-(diaminomethylideneamino)-1-oxopentyl]amino]-3-methyl-1-oxobutyl]amino]-3-(4-hydroxyphenyl)-1-oxopropyl]amino]-3-methyl-1-oxobutyl]amino]-3-(1H-imidazol-5-yl)-1-oxopropyl]-2-pyrrolidinyl]-oxomethyl]amino]-3-phenylpropanoic acid

> <PUBCHEM_IUPAC_NAME>
2-[[1-[2-[[2-[[2-[[2-[[5-(diaminomethylideneamino)-2-[(2,4-diamino-4-oxobutanoyl)amino]pentanoyl]amino]-3-methylbutanoyl]amino]-3-(4-hydroxyphenyl)propanoyl]amino]-3-methylbutanoyl]amino]-3-(1H-imidazol-5-yl)propanoyl]pyrrolidine-2-carbonyl]amino]-3-phenylpropanoic acid

> <PUBCHEM_IUPAC_SYSTEMATIC_NAME>
2-[[1-[2-[[2-[[2-[[2-[[5-[bis(azanyl)methylideneamino]-2-[[2,4-bis(azanyl)-4-oxidanylidene-butanoyl]amino]pentanoyl]amino]-3-methyl-butanoyl]amino]-3-(4-hydroxyphenyl)propanoyl]amino]-3-methyl-butanoyl]amino]-3-(1H-imidazol-5-yl)propanoyl]pyrrolidin-2-yl]carbonylamino]-3-phenyl-propanoic acid

> <PUBCHEM_IUPAC_TRADITIONAL_NAME>
2-[[1-[2-[[2-[[2-[[2-[[2-[(2,4-diamino-4-keto-butanoyl)amino]-5-guanidino-pentanoyl]amino]-3-methyl-butanoyl]amino]-3-(4-hydroxyphenyl)propanoyl]amino]-3-methyl-butanoyl]amino]-3-(1H-imidazol-5-yl)propanoyl]prolyl]amino]-3-phenyl-propionic acid

> <PUBCHEM_IUPAC_INCHI>
InChI=1S/C49H70N14O11/c1-26(2)39(61-42(67)33(12-8-18-55-49(52)53)57-41(66)32(50)23-38(51)65)45(70)58-34(20-29-14-16-31(64)17-15-29)43(68)62-40(27(3)4)46(71)59-35(22-30-24-54-25-56-30)47(72)63-19-9-13-37(63)44(69)60-36(48(73)74)21-28-10-6-5-7-11-28/h5-7,10-11,14-17,24-27,32-37,39-40,64H,8-9,12-13,18-23,50H2,1-4H3,(H2,51,65)(H,54,56)(H,57,66)(H,58,70)(H,59,71)(H,60,69)(H,61,67)(H,62,68)(H,73,74)(H4,52,53,55)

> <PUBCHEM_IUPAC_INCHIKEY>
JYPVVOOBQVVUQV-UHFFFAOYSA-N

> <PUBCHEM_XLOGP3_AA>
-2.7

> <PUBCHEM_EXACT_MASS>
1030.534849

> <PUBCHEM_MOLECULAR_FORMULA>
C49H70N14O11

> <PUBCHEM_MOLECULAR_WEIGHT>
1031.1673

> <PUBCHEM_OPENEYE_CAN_SMILES>
CC(C)C(C(=O)NC(CC1=CC=C(C=C1)O)C(=O)NC(C(C)C)C(=O)NC(CC2=CN=CN2)C(=O)N3CCCC3C(=O)NC(CC4=CC=CC=C4)C(=O)O)NC(=O)C(CCCN=C(N)N)NC(=O)C(CC(=O)N)N

> <PUBCHEM_OPENEYE_ISO_SMILES>
CC(C)C(C(=O)NC(CC1=CC=C(C=C1)O)C(=O)NC(C(C)C)C(=O)NC(CC2=CN=CN2)C(=O)N3CCCC3C(=O)NC(CC4=CC=CC=C4)C(=O)O)NC(=O)C(CCCN=C(N)N)NC(=O)C(CC(=O)N)N

> <PUBCHEM_CACTVS_TPSA>
415

> <PUBCHEM_MONOISOTOPIC_WEIGHT>
1030.534849

> <PUBCHEM_TOTAL_CHARGE>
0

> <PUBCHEM_HEAVY_ATOM_COUNT>
74

> <PUBCHEM_ATOM_DEF_STEREO_COUNT>
0

> <PUBCHEM_ATOM_UDEF_STEREO_COUNT>
8

> <PUBCHEM_BOND_DEF_STEREO_COUNT>
0

> <PUBCHEM_BOND_UDEF_STEREO_COUNT>
0

> <PUBCHEM_ISOTOPIC_ATOM_COUNT>
0

> <PUBCHEM_COMPONENT_COUNT>
1

> <PUBCHEM_CACTVS_TAUTO_COUNT>
1001

> <PUBCHEM_COORDINATE_TYPE>
1
5
255

> <PUBCHEM_BONDANNOTATIONS>
16  38  8
16  50  8
18  44  8
18  50  8
26  75  3
31  82  3
34  87  3
35  88  3
38  44  8
43  99  3
46  52  8
46  53  8
47  102  3
52  60  8
53  61  8
54  111  3
55  63  8
55  64  8
60  65  8
61  65  8
63  68  8
64  69  8
68  71  8
69  71  8
70  133  3

$$$$

