10082
  -OEChem-06261204182D

 38 38  0     1  0  0  0  0  0999 V2000
    3.0000    1.6550    0.0000 S   0  0  0  0  0  0  0  0  0  0  0  0
    5.0000   -3.0771    0.0000 S   0  0  0  0  0  0  0  0  0  0  0  0
    3.2679   -0.0771    0.0000 O   0  0  0  0  0  0  0  0  0  0  0  0
    6.7321   -0.0771    0.0000 O   0  0  0  0  0  0  0  0  0  0  0  0
    4.1340   -1.5771    0.0000 N   0  0  0  0  0  0  0  0  0  0  0  0
    5.8660   -1.5771    0.0000 N   0  0  0  0  0  0  0  0  0  0  0  0
    5.0000   -0.0771    0.0000 C   0  0  3  0  0  0  0  0  0  0  0  0
    5.5000    0.7890    0.0000 C   0  0  3  0  0  0  0  0  0  0  0  0
    4.5000    0.7890    0.0000 C   0  0  0  0  0  0  0  0  0  0  0  0
    5.0000    1.6550    0.0000 C   0  0  0  0  0  0  0  0  0  0  0  0
    6.5000    0.7890    0.0000 C   0  0  0  0  0  0  0  0  0  0  0  0
    4.1340   -0.5771    0.0000 C   0  0  0  0  0  0  0  0  0  0  0  0
    5.8660   -0.5771    0.0000 C   0  0  0  0  0  0  0  0  0  0  0  0
    5.5000    2.5210    0.0000 C   0  0  0  0  0  0  0  0  0  0  0  0
    3.5000    0.7890    0.0000 C   0  0  0  0  0  0  0  0  0  0  0  0
    5.0000    3.3871    0.0000 C   0  0  0  0  0  0  0  0  0  0  0  0
    5.0000   -2.0771    0.0000 C   0  0  0  0  0  0  0  0  0  0  0  0
    2.0000    1.6550    0.0000 C   0  0  0  0  0  0  0  0  0  0  0  0
    5.8100    0.2520    0.0000 H   0  0  0  0  0  0  0  0  0  0  0  0
    5.0826    1.0010    0.0000 H   0  0  0  0  0  0  0  0  0  0  0  0
    4.3923    1.3996    0.0000 H   0  0  0  0  0  0  0  0  0  0  0  0
    4.5251    2.0535    0.0000 H   0  0  0  0  0  0  0  0  0  0  0  0
    4.5251    1.2565    0.0000 H   0  0  0  0  0  0  0  0  0  0  0  0
    6.5000    0.1690    0.0000 H   0  0  0  0  0  0  0  0  0  0  0  0
    7.1200    0.7890    0.0000 H   0  0  0  0  0  0  0  0  0  0  0  0
    6.5000    1.4090    0.0000 H   0  0  0  0  0  0  0  0  0  0  0  0
    5.9749    2.1225    0.0000 H   0  0  0  0  0  0  0  0  0  0  0  0
    5.9749    2.9196    0.0000 H   0  0  0  0  0  0  0  0  0  0  0  0
    2.9174    0.5769    0.0000 H   0  0  0  0  0  0  0  0  0  0  0  0
    3.6077    0.1784    0.0000 H   0  0  0  0  0  0  0  0  0  0  0  0
    3.5970   -1.8871    0.0000 H   0  0  0  0  0  0  0  0  0  0  0  0
    5.5369    3.6971    0.0000 H   0  0  0  0  0  0  0  0  0  0  0  0
    4.6900    3.9240    0.0000 H   0  0  0  0  0  0  0  0  0  0  0  0
    4.4631    3.0771    0.0000 H   0  0  0  0  0  0  0  0  0  0  0  0
    2.0000    2.2750    0.0000 H   0  0  0  0  0  0  0  0  0  0  0  0
    1.3800    1.6550    0.0000 H   0  0  0  0  0  0  0  0  0  0  0  0
    2.0000    1.0350    0.0000 H   0  0  0  0  0  0  0  0  0  0  0  0
    5.5369   -3.3871    0.0000 H   0  0  0  0  0  0  0  0  0  0  0  0
  1 15  1  0  0  0  0
  1 18  1  0  0  0  0
  2 17  1  0  0  0  0
  2 38  1  0  0  0  0
  3 12  2  0  0  0  0
  4 13  2  0  0  0  0
  5 12  1  0  0  0  0
  5 17  1  0  0  0  0
  5 31  1  0  0  0  0
  6 13  1  0  0  0  0
  6 17  2  0  0  0  0
  7  8  1  0  0  0  0
  7  9  1  0  0  0  0
  7 12  1  0  0  0  0
  7 13  1  0  0  0  0
  8 10  1  0  0  0  0
  8 11  1  0  0  0  0
  8 19  1  0  0  0  0
  9 15  1  0  0  0  0
  9 20  1  0  0  0  0
  9 21  1  0  0  0  0
 10 14  1  0  0  0  0
 10 22  1  0  0  0  0
 10 23  1  0  0  0  0
 11 24  1  0  0  0  0
 11 25  1  0  0  0  0
 11 26  1  0  0  0  0
 14 16  1  0  0  0  0
 14 27  1  0  0  0  0
 14 28  1  0  0  0  0
 15 29  1  0  0  0  0
 15 30  1  0  0  0  0
 16 32  1  0  0  0  0
 16 33  1  0  0  0  0
 16 34  1  0  0  0  0
 18 35  1  0  0  0  0
 18 36  1  0  0  0  0
 18 37  1  0  0  0  0
M  END
> <PUBCHEM_COMPOUND_CID>
10082

> <PUBCHEM_COMPOUND_CANONICALIZED>
1

> <PUBCHEM_CACTVS_COMPLEXITY>
371

> <PUBCHEM_CACTVS_HBOND_ACCEPTOR>
4

> <PUBCHEM_CACTVS_HBOND_DONOR>
2

> <PUBCHEM_CACTVS_ROTATABLE_BOND>
6

> <PUBCHEM_CACTVS_SUBSKEYS>
AAADceBzMABgAAAAAAAAAAAAAAAAAAAAAAAgAAAAAAAAAAAAAAAAHgQQAAAADwCFwACDAALAAAwoAAEQNAAAEAEAABABAAEAAAAAABooyAAEAAAAAAAAAAEYiAAPgAAAAAAAAAAAAAAAAAAAAAAAAAAAAA==

> <PUBCHEM_IUPAC_OPENEYE_NAME>
5-(1-methylbutyl)-5-(2-methylsulfanylethyl)-2-sulfanyl-1H-pyrimidine-4,6-dione

> <PUBCHEM_IUPAC_CAS_NAME>
2-mercapto-5-[2-(methylthio)ethyl]-5-pentan-2-yl-1H-pyrimidine-4,6-dione

> <PUBCHEM_IUPAC_NAME>
5-(2-methylsulfanylethyl)-5-pentan-2-yl-2-sulfanyl-1H-pyrimidine-4,6-dione

> <PUBCHEM_IUPAC_SYSTEMATIC_NAME>
5-(2-methylsulfanylethyl)-5-pentan-2-yl-2-sulfanyl-1H-pyrimidine-4,6-dione

> <PUBCHEM_IUPAC_TRADITIONAL_NAME>
2-mercapto-5-(1-methylbutyl)-5-[2-(methylthio)ethyl]-1H-pyrimidine-4,6-quinone

> <PUBCHEM_IUPAC_INCHI>
InChI=1S/C12H20N2O2S2/c1-4-5-8(2)12(6-7-18-3)9(15)13-11(17)14-10(12)16/h8H,4-7H2,1-3H3,(H2,13,14,15,16,17)

> <PUBCHEM_IUPAC_INCHIKEY>
KEMCRVSPPRNENL-UHFFFAOYSA-N

> <PUBCHEM_XLOGP3>
3

> <PUBCHEM_EXACT_MASS>
288.09662

> <PUBCHEM_MOLECULAR_FORMULA>
C12H20N2O2S2

> <PUBCHEM_MOLECULAR_WEIGHT>
288.4294

> <PUBCHEM_OPENEYE_CAN_SMILES>
CCCC(C)C1(C(=O)NC(=NC1=O)S)CCSC

> <PUBCHEM_OPENEYE_ISO_SMILES>
CCCC(C)C1(C(=O)NC(=NC1=O)S)CCSC

> <PUBCHEM_CACTVS_TPSA>
84.8

> <PUBCHEM_MONOISOTOPIC_WEIGHT>
288.09662

> <PUBCHEM_TOTAL_CHARGE>
0

> <PUBCHEM_HEAVY_ATOM_COUNT>
18

> <PUBCHEM_ATOM_DEF_STEREO_COUNT>
0

> <PUBCHEM_ATOM_UDEF_STEREO_COUNT>
2

> <PUBCHEM_BOND_DEF_STEREO_COUNT>
0

> <PUBCHEM_BOND_UDEF_STEREO_COUNT>
0

> <PUBCHEM_ISOTOPIC_ATOM_COUNT>
0

> <PUBCHEM_COMPONENT_COUNT>
1

> <PUBCHEM_CACTVS_TAUTO_COUNT>
5

> <PUBCHEM_COORDINATE_TYPE>
1
5
255

> <PUBCHEM_BONDANNOTATIONS>
7  9  3
8  11  3

$$$$

