4350
  -OEChem-06261200042D

 46 48  0     1  0  0  0  0  0999 V2000
    3.0084    1.7292    0.0000 O   0  0  0  0  0  0  0  0  0  0  0  0
    3.7320   -1.1255    0.0000 O   0  0  0  0  0  0  0  0  0  0  0  0
    6.8130    3.4230    0.0000 O   0  0  0  0  0  0  0  0  0  0  0  0
    2.8660    0.3745    0.0000 O   0  0  0  0  0  0  0  0  0  0  0  0
    4.1674    3.0163    0.0000 N   0  0  0  0  0  0  0  0  0  0  0  0
    4.5981    0.3745    0.0000 N   0  0  0  0  0  0  0  0  0  0  0  0
    4.7026    1.3690    0.0000 C   0  0  3  0  0  0  0  0  0  0  0  0
    5.6808    1.5770    0.0000 C   0  0  0  0  0  0  0  0  0  0  0  0
    5.0809    3.4230    0.0000 C   0  0  3  0  0  0  0  0  0  0  0  0
    6.1808    0.7109    0.0000 C   0  0  0  0  0  0  0  0  0  0  0  0
    3.4982    3.7595    0.0000 C   0  0  0  0  0  0  0  0  0  0  0  0
    4.9764    4.4176    0.0000 C   0  0  0  0  0  0  0  0  0  0  0  0
    3.9595    2.0382    0.0000 C   0  0  0  0  0  0  0  0  0  0  0  0
    5.5116   -0.0322    0.0000 C   0  0  0  0  0  0  0  0  0  0  0  0
    3.9982    4.6255    0.0000 C   0  0  0  0  0  0  0  0  0  0  0  0
    5.9469    2.9230    0.0000 C   0  0  0  0  0  0  0  0  0  0  0  0
    3.7320   -0.1255    0.0000 C   0  0  0  0  0  0  0  0  0  0  0  0
    2.8660   -1.6255    0.0000 C   0  0  0  0  0  0  0  0  0  0  0  0
    2.8660   -2.6255    0.0000 C   0  0  0  0  0  0  0  0  0  0  0  0
    2.0000   -3.1255    0.0000 C   0  0  0  0  0  0  0  0  0  0  0  0
    3.7320   -3.1255    0.0000 C   0  0  0  0  0  0  0  0  0  0  0  0
    2.0000   -4.1255    0.0000 C   0  0  0  0  0  0  0  0  0  0  0  0
    3.7320   -4.1255    0.0000 C   0  0  0  0  0  0  0  0  0  0  0  0
    2.8660   -4.6255    0.0000 C   0  0  0  0  0  0  0  0  0  0  0  0
    4.1238    1.1468    0.0000 H   0  0  0  0  0  0  0  0  0  0  0  0
    6.2472    1.8291    0.0000 H   0  0  0  0  0  0  0  0  0  0  0  0
    5.4892    2.1666    0.0000 H   0  0  0  0  0  0  0  0  0  0  0  0
    5.0485    2.8039    0.0000 H   0  0  0  0  0  0  0  0  0  0  0  0
    6.5956    0.2502    0.0000 H   0  0  0  0  0  0  0  0  0  0  0  0
    6.6823    1.0754    0.0000 H   0  0  0  0  0  0  0  0  0  0  0  0
    2.9966    4.1239    0.0000 H   0  0  0  0  0  0  0  0  0  0  0  0
    3.0834    3.2987    0.0000 H   0  0  0  0  0  0  0  0  0  0  0  0
    5.5964    4.4176    0.0000 H   0  0  0  0  0  0  0  0  0  0  0  0
    5.0412    5.0342    0.0000 H   0  0  0  0  0  0  0  0  0  0  0  0
    5.2016   -0.5692    0.0000 H   0  0  0  0  0  0  0  0  0  0  0  0
    6.0132   -0.3966    0.0000 H   0  0  0  0  0  0  0  0  0  0  0  0
    4.1898    5.2151    0.0000 H   0  0  0  0  0  0  0  0  0  0  0  0
    3.4318    4.8777    0.0000 H   0  0  0  0  0  0  0  0  0  0  0  0
    5.9469    2.3030    0.0000 H   0  0  0  0  0  0  0  0  0  0  0  0
    2.6540   -1.0429    0.0000 H   0  0  0  0  0  0  0  0  0  0  0  0
    2.2554   -1.7332    0.0000 H   0  0  0  0  0  0  0  0  0  0  0  0
    1.4631   -2.8155    0.0000 H   0  0  0  0  0  0  0  0  0  0  0  0
    4.2690   -2.8155    0.0000 H   0  0  0  0  0  0  0  0  0  0  0  0
    1.4631   -4.4355    0.0000 H   0  0  0  0  0  0  0  0  0  0  0  0
    4.2690   -4.4355    0.0000 H   0  0  0  0  0  0  0  0  0  0  0  0
    2.8660   -5.2455    0.0000 H   0  0  0  0  0  0  0  0  0  0  0  0
  1 13  2  0  0  0  0
  2 17  1  0  0  0  0
  2 18  1  0  0  0  0
  3 16  2  0  0  0  0
  4 17  2  0  0  0  0
  5  9  1  0  0  0  0
  5 11  1  0  0  0  0
  5 13  1  0  0  0  0
  6  7  1  0  0  0  0
  6 14  1  0  0  0  0
  6 17  1  0  0  0  0
  7  8  1  0  0  0  0
  7 13  1  0  0  0  0
  7 25  1  0  0  0  0
  8 10  1  0  0  0  0
  8 26  1  0  0  0  0
  8 27  1  0  0  0  0
  9 12  1  0  0  0  0
  9 16  1  0  0  0  0
  9 28  1  0  0  0  0
 10 14  1  0  0  0  0
 10 29  1  0  0  0  0
 10 30  1  0  0  0  0
 11 15  1  0  0  0  0
 11 31  1  0  0  0  0
 11 32  1  0  0  0  0
 12 15  1  0  0  0  0
 12 33  1  0  0  0  0
 12 34  1  0  0  0  0
 14 35  1  0  0  0  0
 14 36  1  0  0  0  0
 15 37  1  0  0  0  0
 15 38  1  0  0  0  0
 16 39  1  0  0  0  0
 18 19  1  0  0  0  0
 18 40  1  0  0  0  0
 18 41  1  0  0  0  0
 19 20  2  0  0  0  0
 19 21  1  0  0  0  0
 20 22  1  0  0  0  0
 20 42  1  0  0  0  0
 21 23  2  0  0  0  0
 21 43  1  0  0  0  0
 22 24  2  0  0  0  0
 22 44  1  0  0  0  0
 23 24  1  0  0  0  0
 23 45  1  0  0  0  0
 24 46  1  0  0  0  0
M  END
> <PUBCHEM_COMPOUND_CID>
4350

> <PUBCHEM_COMPOUND_CANONICALIZED>
1

> <PUBCHEM_CACTVS_COMPLEXITY>
476

> <PUBCHEM_CACTVS_HBOND_ACCEPTOR>
4

> <PUBCHEM_CACTVS_HBOND_DONOR>
0

> <PUBCHEM_CACTVS_ROTATABLE_BOND>
5

> <PUBCHEM_CACTVS_SUBSKEYS>
AAADceB7OAAAAAAAAAAAAAAAAAAAAWLAAAAwAAAAAAAAAAABAAAAHgAAAAAADCjhmAYwCIMABACIAilSmAACAAAgAAAIiAGICIgIZjKAsTicMAAkxgGIqAeYwSAOAAAAAAAAAAAAAAAAAAAAAAAAAAAAAA==

> <PUBCHEM_IUPAC_OPENEYE_NAME>
benzyl 2-(2-formylpyrrolidine-1-carbonyl)pyrrolidine-1-carboxylate

> <PUBCHEM_IUPAC_CAS_NAME>
2-[(2-formyl-1-pyrrolidinyl)-oxomethyl]-1-pyrrolidinecarboxylic acid (phenylmethyl) ester

> <PUBCHEM_IUPAC_NAME>
benzyl 2-(2-formylpyrrolidine-1-carbonyl)pyrrolidine-1-carboxylate

> <PUBCHEM_IUPAC_SYSTEMATIC_NAME>
(phenylmethyl) 2-(2-methanoylpyrrolidin-1-yl)carbonylpyrrolidine-1-carboxylate

> <PUBCHEM_IUPAC_TRADITIONAL_NAME>
2-(2-formylpyrrolidine-1-carbonyl)pyrrolidine-1-carboxylic acid benzyl ester

> <PUBCHEM_IUPAC_INCHI>
InChI=1S/C18H22N2O4/c21-12-15-8-4-10-19(15)17(22)16-9-5-11-20(16)18(23)24-13-14-6-2-1-3-7-14/h1-3,6-7,12,15-16H,4-5,8-11,13H2

> <PUBCHEM_IUPAC_INCHIKEY>
ORZXYSPOAVJYRU-UHFFFAOYSA-N

> <PUBCHEM_XLOGP3_AA>
1.7

> <PUBCHEM_EXACT_MASS>
330.157957

> <PUBCHEM_MOLECULAR_FORMULA>
C18H22N2O4

> <PUBCHEM_MOLECULAR_WEIGHT>
330.37828

> <PUBCHEM_OPENEYE_CAN_SMILES>
C1CC(N(C1)C(=O)C2CCCN2C(=O)OCC3=CC=CC=C3)C=O

> <PUBCHEM_OPENEYE_ISO_SMILES>
C1CC(N(C1)C(=O)C2CCCN2C(=O)OCC3=CC=CC=C3)C=O

> <PUBCHEM_CACTVS_TPSA>
66.9

> <PUBCHEM_MONOISOTOPIC_WEIGHT>
330.157957

> <PUBCHEM_TOTAL_CHARGE>
0

> <PUBCHEM_HEAVY_ATOM_COUNT>
24

> <PUBCHEM_ATOM_DEF_STEREO_COUNT>
0

> <PUBCHEM_ATOM_UDEF_STEREO_COUNT>
2

> <PUBCHEM_BOND_DEF_STEREO_COUNT>
0

> <PUBCHEM_BOND_UDEF_STEREO_COUNT>
0

> <PUBCHEM_ISOTOPIC_ATOM_COUNT>
0

> <PUBCHEM_COMPONENT_COUNT>
1

> <PUBCHEM_CACTVS_TAUTO_COUNT>
2

> <PUBCHEM_COORDINATE_TYPE>
1
5
255

> <PUBCHEM_BONDANNOTATIONS>
19  20  8
19  21  8
20  22  8
21  23  8
22  24  8
23  24  8
7  13  3
9  16  3

$$$$

