47205606
  -OEChem-06241222593D

 33 34  0     0  0  0  0  0  0999 V2000
   -5.9097    1.7444   -0.3031 Cl  0  0  0  0  0  0  0  0  0  0  0  0
    3.4882   -0.6447   -1.6015 O   0  0  0  0  0  0  0  0  0  0  0  0
    0.8110    0.8114    0.4652 O   0  0  0  0  0  0  0  0  0  0  0  0
    2.9356   -0.8275    0.6548 N   0  0  0  0  0  0  0  0  0  0  0  0
   -0.6966   -0.9818    0.2412 N   0  0  0  0  0  0  0  0  0  0  0  0
    5.0428    0.1543   -0.0270 C   0  0  0  0  0  0  0  0  0  0  0  0
    5.0279    1.3705    0.8519 C   0  0  0  0  0  0  0  0  0  0  0  0
    5.3977    1.4961   -0.5971 C   0  0  0  0  0  0  0  0  0  0  0  0
    3.7479   -0.4788   -0.4154 C   0  0  0  0  0  0  0  0  0  0  0  0
    1.6505   -1.4448    0.5052 C   0  0  0  0  0  0  0  0  0  0  0  0
    0.5648   -0.3888    0.4043 C   0  0  0  0  0  0  0  0  0  0  0  0
   -1.9364   -0.3512    0.1114 C   0  0  0  0  0  0  0  0  0  0  0  0
   -3.1051   -1.0967   -0.0448 C   0  0  0  0  0  0  0  0  0  0  0  0
   -1.9965    1.0422    0.1395 C   0  0  0  0  0  0  0  0  0  0  0  0
   -4.3337   -0.4488   -0.1729 C   0  0  0  0  0  0  0  0  0  0  0  0
   -3.0694   -2.5903   -0.0776 C   0  0  0  0  0  0  0  0  0  0  0  0
   -3.2252    1.6900    0.0110 C   0  0  0  0  0  0  0  0  0  0  0  0
   -4.3938    0.9446   -0.1450 C   0  0  0  0  0  0  0  0  0  0  0  0
    5.8629   -0.5443    0.1053 H   0  0  0  0  0  0  0  0  0  0  0  0
    4.0780    1.7896    1.1606 H   0  0  0  0  0  0  0  0  0  0  0  0
    5.8189    1.4717    1.5850 H   0  0  0  0  0  0  0  0  0  0  0  0
    6.4371    1.6835   -0.8375 H   0  0  0  0  0  0  0  0  0  0  0  0
    4.6911    1.9883   -1.2541 H   0  0  0  0  0  0  0  0  0  0  0  0
    3.2580   -0.6337    1.5985 H   0  0  0  0  0  0  0  0  0  0  0  0
    1.4696   -2.0701    1.3847 H   0  0  0  0  0  0  0  0  0  0  0  0
    1.6389   -2.0660   -0.3963 H   0  0  0  0  0  0  0  0  0  0  0  0
   -0.7076   -1.9979    0.2145 H   0  0  0  0  0  0  0  0  0  0  0  0
   -1.1421    1.6927    0.2562 H   0  0  0  0  0  0  0  0  0  0  0  0
   -5.2467   -1.0273   -0.2947 H   0  0  0  0  0  0  0  0  0  0  0  0
   -2.4590   -2.9430   -0.9156 H   0  0  0  0  0  0  0  0  0  0  0  0
   -2.6685   -2.9870    0.8611 H   0  0  0  0  0  0  0  0  0  0  0  0
   -4.0700   -3.0177   -0.2061 H   0  0  0  0  0  0  0  0  0  0  0  0
   -3.2584    2.7764    0.0343 H   0  0  0  0  0  0  0  0  0  0  0  0
  1 18  1  0  0  0  0
  2  9  2  0  0  0  0
  3 11  2  0  0  0  0
  4  9  1  0  0  0  0
  4 10  1  0  0  0  0
  4 24  1  0  0  0  0
  5 11  1  0  0  0  0
  5 12  1  0  0  0  0
  5 27  1  0  0  0  0
  6  7  1  0  0  0  0
  6  8  1  0  0  0  0
  6  9  1  0  0  0  0
  6 19  1  0  0  0  0
  7  8  1  0  0  0  0
  7 20  1  0  0  0  0
  7 21  1  0  0  0  0
  8 22  1  0  0  0  0
  8 23  1  0  0  0  0
 10 11  1  0  0  0  0
 10 25  1  0  0  0  0
 10 26  1  0  0  0  0
 12 13  2  0  0  0  0
 12 14  1  0  0  0  0
 13 15  1  0  0  0  0
 13 16  1  0  0  0  0
 14 17  2  0  0  0  0
 14 28  1  0  0  0  0
 15 18  2  0  0  0  0
 15 29  1  0  0  0  0
 16 30  1  0  0  0  0
 16 31  1  0  0  0  0
 16 32  1  0  0  0  0
 17 18  1  0  0  0  0
 17 33  1  0  0  0  0
M  END
> <PUBCHEM_COMPOUND_CID>
47205606

> <PUBCHEM_CONFORMER_RMSD>
0.8

> <PUBCHEM_CONFORMER_DIVERSEORDER>
1
39
18
27
20
13
6
8
17
38
35
26
2
23
25
48
52
24
41
49
40
9
47
51
45
42
14
10
5
33
16
32
19
31
36
7
28
11
43
34
4
12
50
30
46
21
3
22
29
15
44
37

> <PUBCHEM_MMFF94_PARTIAL_CHARGES>
28
1 -0.18
10 0.36
11 0.57
12 0.12
13 -0.14
14 -0.15
15 -0.15
16 0.14
17 -0.15
18 0.18
19 0.1
2 -0.57
20 0.1
21 0.1
22 0.1
23 0.1
24 0.37
27 0.37
28 0.15
29 0.15
3 -0.57
33 0.15
4 -0.73
5 -0.55
6 -0.1
7 -0.2
8 -0.2
9 0.63

> <PUBCHEM_EFFECTIVE_ROTOR_COUNT>
6.6

> <PUBCHEM_PHARMACOPHORE_FEATURES>
5
1 2 acceptor
1 3 acceptor
1 4 donor
1 5 donor
6 12 13 14 15 17 18 rings

> <PUBCHEM_HEAVY_ATOM_COUNT>
18

> <PUBCHEM_ATOM_DEF_STEREO_COUNT>
0

> <PUBCHEM_ATOM_UDEF_STEREO_COUNT>
0

> <PUBCHEM_BOND_DEF_STEREO_COUNT>
0

> <PUBCHEM_BOND_UDEF_STEREO_COUNT>
0

> <PUBCHEM_ISOTOPIC_ATOM_COUNT>
0

> <PUBCHEM_COMPONENT_COUNT>
1

> <PUBCHEM_CACTVS_TAUTO_COUNT>
4

> <PUBCHEM_CONFORMER_ID>
02D04CE600000001

> <PUBCHEM_MMFF94_ENERGY>
45.2584

> <PUBCHEM_FEATURE_SELFOVERLAP>
25.371

> <PUBCHEM_SHAPE_FINGERPRINT>
10014705 185 18342176674271137185
10366900 7 16950568800366289747
10498660 4 18408321107654617040
11128504 68 14490471950870511176
11595378 159 16844744130323904948
12236239 1 17989489631942860259
12390115 104 18043239348900228353
12616971 3 16487254352733374022
12916754 54 7637395237903023491
14251718 22 18260831475327217167
14251764 18 9439400229606819748
14528608 73 18409450263294259052
14790565 3 17975972386985400289
15048467 5 18343302582488553989
15196674 1 18411420613611036498
15239154 128 18343863342161505188
17834072 33 18040721341974238148
17959699 21 18411136931300821080
18222031 100 5761647075250016378
20281389 69 18059859523483648589
20621476 66 18188204420830683353
20645477 56 18411419531585038073
20645477 70 16950556744546181470
20681677 155 18413671318561378963
20871999 31 18261118435061996191
21150785 3 16588315959890248789
22079108 93 16702009894877367465
22289505 5 18113337518617162016
22950370 63 7204503221039051746
23402539 116 18342462508560616638
23402655 69 18410014346617912507
23557571 272 18334289821256250950
23559900 14 18188772868157581350
245318 6 16841614710337189748
2916195 48 18336832975014863920
300161 21 18271813440441490447
3004659 81 18337953510629139146
3472631 163 18411980269213759405
34797466 226 17822000961607515948
34934 24 18342181089471254275
351380 3 6411294620048911468
3545911 37 18411417327871234776
42 15 10015867583005821970
4214541 1 18410012126140887056
441001 317 18410293601101767024
465052 167 8502367854319880960
474 4 17489582347048706364
5104073 3 18272652376145196626
960060 61 15864069892820978516

> <PUBCHEM_SHAPE_MULTIPOLES>
350.6
13.87
2.07
0.85
6.42
0.37
0.14
-6.77
1.62
-1.73
0
0.79
0.01
0.21

> <PUBCHEM_SHAPE_SELFOVERLAP>
718.361

> <PUBCHEM_SHAPE_VOLUME>
203.7

> <PUBCHEM_COORDINATE_TYPE>
2
5
10

$$$$

