9155
  -OEChem-06261203273D

 25 28  0     0  0  0  0  0  0999 V2000
   -2.4083    1.4211    0.0001 N   0  0  0  0  0  0  0  0  0  0  0  0
    0.8827   -0.0029   -0.0001 C   0  0  0  0  0  0  0  0  0  0  0  0
    0.1114   -1.1590    0.0000 C   0  0  0  0  0  0  0  0  0  0  0  0
    0.0673    1.1218    0.0000 C   0  0  0  0  0  0  0  0  0  0  0  0
   -1.2839   -0.7540    0.0000 C   0  0  0  0  0  0  0  0  0  0  0  0
   -1.3093    0.6579    0.0000 C   0  0  0  0  0  0  0  0  0  0  0  0
    2.2747    0.0256    0.0000 C   0  0  0  0  0  0  0  0  0  0  0  0
    0.7409   -2.3889    0.0000 C   0  0  0  0  0  0  0  0  0  0  0  0
    0.6447    2.3764    0.0000 C   0  0  0  0  0  0  0  0  0  0  0  0
    2.9124   -1.2308    0.0000 C   0  0  0  0  0  0  0  0  0  0  0  0
    2.8610    1.3070    0.0000 C   0  0  0  0  0  0  0  0  0  0  0  0
   -2.4755   -1.4425   -0.0001 C   0  0  0  0  0  0  0  0  0  0  0  0
    2.1472   -2.4181    0.0001 C   0  0  0  0  0  0  0  0  0  0  0  0
    2.0485    2.4626   -0.0001 C   0  0  0  0  0  0  0  0  0  0  0  0
   -3.6494   -0.6875   -0.0001 C   0  0  0  0  0  0  0  0  0  0  0  0
   -3.5642    0.7113    0.0001 C   0  0  0  0  0  0  0  0  0  0  0  0
    0.1762   -3.3152    0.0001 H   0  0  0  0  0  0  0  0  0  0  0  0
    0.0417    3.2781    0.0000 H   0  0  0  0  0  0  0  0  0  0  0  0
    3.9974   -1.2963    0.0001 H   0  0  0  0  0  0  0  0  0  0  0  0
    3.9426    1.4163    0.0000 H   0  0  0  0  0  0  0  0  0  0  0  0
   -2.5126   -2.5257   -0.0002 H   0  0  0  0  0  0  0  0  0  0  0  0
    2.6589   -3.3777    0.0002 H   0  0  0  0  0  0  0  0  0  0  0  0
    2.5210    3.4421    0.0000 H   0  0  0  0  0  0  0  0  0  0  0  0
   -4.6181   -1.1768   -0.0001 H   0  0  0  0  0  0  0  0  0  0  0  0
   -4.4686    1.3125    0.0001 H   0  0  0  0  0  0  0  0  0  0  0  0
  1  6  1  0  0  0  0
  1 16  2  0  0  0  0
  2  3  1  0  0  0  0
  2  4  1  0  0  0  0
  2  7  2  0  0  0  0
  3  5  1  0  0  0  0
  3  8  2  0  0  0  0
  4  6  1  0  0  0  0
  4  9  2  0  0  0  0
  5  6  2  0  0  0  0
  5 12  1  0  0  0  0
  7 10  1  0  0  0  0
  7 11  1  0  0  0  0
  8 13  1  0  0  0  0
  8 17  1  0  0  0  0
  9 14  1  0  0  0  0
  9 18  1  0  0  0  0
 10 13  2  0  0  0  0
 10 19  1  0  0  0  0
 11 14  2  0  0  0  0
 11 20  1  0  0  0  0
 12 15  2  0  0  0  0
 12 21  1  0  0  0  0
 13 22  1  0  0  0  0
 14 23  1  0  0  0  0
 15 16  1  0  0  0  0
 15 24  1  0  0  0  0
 16 25  1  0  0  0  0
M  END
> <PUBCHEM_COMPOUND_CID>
9155

> <PUBCHEM_CONFORMER_RMSD>
0.4

> <PUBCHEM_CONFORMER_DIVERSEORDER>
1

> <PUBCHEM_MMFF94_PARTIAL_CHARGES>
20
1 -0.62
10 -0.15
11 -0.15
12 -0.15
13 -0.15
14 -0.15
15 -0.15
16 0.16
17 0.15
18 0.15
19 0.15
20 0.15
21 0.15
22 0.15
23 0.15
24 0.15
25 0.15
6 0.31
8 -0.15
9 -0.15

> <PUBCHEM_EFFECTIVE_ROTOR_COUNT>
0

> <PUBCHEM_PHARMACOPHORE_FEATURES>
5
1 1 acceptor
5 2 3 4 5 6 rings
6 1 5 6 12 15 16 rings
6 2 3 7 8 10 13 rings
6 2 4 7 9 11 14 rings

> <PUBCHEM_HEAVY_ATOM_COUNT>
16

> <PUBCHEM_ATOM_DEF_STEREO_COUNT>
0

> <PUBCHEM_ATOM_UDEF_STEREO_COUNT>
0

> <PUBCHEM_BOND_DEF_STEREO_COUNT>
0

> <PUBCHEM_BOND_UDEF_STEREO_COUNT>
0

> <PUBCHEM_ISOTOPIC_ATOM_COUNT>
0

> <PUBCHEM_COMPONENT_COUNT>
1

> <PUBCHEM_CACTVS_TAUTO_COUNT>
1

> <PUBCHEM_CONFORMER_ID>
000023C300000001

> <PUBCHEM_MMFF94_ENERGY>
71.4488

> <PUBCHEM_FEATURE_SELFOVERLAP>
25.695

> <PUBCHEM_SHAPE_FINGERPRINT>
10319926 262 16970296492013382666
10411042 1 17978228592934494383
10608611 8 18413393146272210805
10967382 1 18338798914072803591
10980938 120 18410855438684986888
11471102 20 18411142437332499205
11578080 2 17244181320364749745
12553582 1 18050846924811620131
13140716 1 18410575123375813808
13380535 76 18268714896304609210
13897977 150 18411703145196973317
14648413 74 18413106160599096009
14790565 3 16461340303166968488
15196674 1 18410575084668360167
15219456 202 18341895177909143889
15442244 35 18264768938135556161
15536298 74 18333449841907258278
16945 1 18410573963834902695
17990270 104 18411702109936002610
18186145 218 18261663792607540941
193761 8 18194401332140238084
19591789 44 17834386826749979026
20510252 161 17541934287203218425
20559304 39 18410292510206408560
20645477 70 18409453587731036119
21267235 1 18337944679585547819
21501502 16 18410011031267033415
221490 88 18340760477298398427
2334 1 18410855430211096774
23463225 33 18411702122862972474
23559900 14 18409456902844141850
25 1 18341332201753428228
2748010 2 18411139130033627404
3071541 12 18410006615893226420
3071541 158 18271243931899091084
335352 9 18194683902333408285
34934 24 18195537110313541042
352729 6 17691122639172480230
5104073 3 18411135836210456611
528886 8 18338240366587584824
53812653 166 18335141934357359976
54173680 148 17258216800978234474
7364860 26 18408322185358871394
7832392 63 18264488558454640169
81228 2 17615682277315926042
84936 182 18042124271435330528
8809292 202 18272926141898424291
9709674 26 18411416194311676615

> <PUBCHEM_SHAPE_MULTIPOLES>
324.29
5.2
2.81
0.61
3.28
0
0
-0.01
0
-1.76
0
-0.01
0.01
0

> <PUBCHEM_SHAPE_SELFOVERLAP>
759.626

> <PUBCHEM_SHAPE_VOLUME>
162.2

> <PUBCHEM_COORDINATE_TYPE>
2
5
10

$$$$

