17396229
  -OEChem-06241222552D

 30 31  0     0  0  0  0  0  0999 V2000
    7.7331   -0.7500    0.0000 Br  0  0  0  0  0  0  0  0  0  0  0  0
    7.7331    3.2500    0.0000 Br  0  0  0  0  0  0  0  0  0  0  0  0
    6.0010    0.2500    0.0000 S   0  0  0  0  0  0  0  0  0  0  0  0
    6.8671   -3.2500    0.0000 F   0  0  0  0  0  0  0  0  0  0  0  0
    5.5010    1.1160    0.0000 O   0  0  0  0  0  0  0  0  0  0  0  0
    6.5010   -0.6160    0.0000 O   0  0  0  0  0  0  0  0  0  0  0  0
    2.5369   -1.7500    0.0000 O   0  0  0  0  0  0  0  0  0  0  0  0
    3.4030   -0.2500    0.0000 O   0  0  0  0  0  0  0  0  0  0  0  0
    5.1350   -0.2500    0.0000 N   0  0  0  0  0  0  0  0  0  0  0  0
    6.8671    0.7500    0.0000 C   0  0  0  0  0  0  0  0  0  0  0  0
    5.1350   -1.2500    0.0000 C   0  0  0  0  0  0  0  0  0  0  0  0
    4.2690   -1.7500    0.0000 C   0  0  0  0  0  0  0  0  0  0  0  0
    7.7331    0.2500    0.0000 C   0  0  0  0  0  0  0  0  0  0  0  0
    6.8671    1.7500    0.0000 C   0  0  0  0  0  0  0  0  0  0  0  0
    6.0010   -1.7500    0.0000 C   0  0  0  0  0  0  0  0  0  0  0  0
    4.2690   -2.7500    0.0000 C   0  0  0  0  0  0  0  0  0  0  0  0
    7.7331    2.2500    0.0000 C   0  0  0  0  0  0  0  0  0  0  0  0
    8.5991    0.7500    0.0000 C   0  0  0  0  0  0  0  0  0  0  0  0
    6.0010   -2.7500    0.0000 C   0  0  0  0  0  0  0  0  0  0  0  0
    5.1350   -3.2500    0.0000 C   0  0  0  0  0  0  0  0  0  0  0  0
    8.5991    1.7500    0.0000 C   0  0  0  0  0  0  0  0  0  0  0  0
    3.4030   -1.2500    0.0000 C   0  0  0  0  0  0  0  0  0  0  0  0
    4.5981    0.0600    0.0000 H   0  0  0  0  0  0  0  0  0  0  0  0
    6.3301    2.0600    0.0000 H   0  0  0  0  0  0  0  0  0  0  0  0
    6.5380   -1.4400    0.0000 H   0  0  0  0  0  0  0  0  0  0  0  0
    3.7320   -3.0600    0.0000 H   0  0  0  0  0  0  0  0  0  0  0  0
    9.1360    0.4400    0.0000 H   0  0  0  0  0  0  0  0  0  0  0  0
    5.1350   -3.8700    0.0000 H   0  0  0  0  0  0  0  0  0  0  0  0
    9.1360    2.0600    0.0000 H   0  0  0  0  0  0  0  0  0  0  0  0
    2.0000   -1.4400    0.0000 H   0  0  0  0  0  0  0  0  0  0  0  0
  1 13  1  0  0  0  0
  2 17  1  0  0  0  0
  3  5  2  0  0  0  0
  3  6  2  0  0  0  0
  3  9  1  0  0  0  0
  3 10  1  0  0  0  0
  4 19  1  0  0  0  0
  7 22  1  0  0  0  0
  7 30  1  0  0  0  0
  8 22  2  0  0  0  0
  9 11  1  0  0  0  0
  9 23  1  0  0  0  0
 10 13  2  0  0  0  0
 10 14  1  0  0  0  0
 11 12  2  0  0  0  0
 11 15  1  0  0  0  0
 12 16  1  0  0  0  0
 12 22  1  0  0  0  0
 13 18  1  0  0  0  0
 14 17  2  0  0  0  0
 14 24  1  0  0  0  0
 15 19  2  0  0  0  0
 15 25  1  0  0  0  0
 16 20  2  0  0  0  0
 16 26  1  0  0  0  0
 17 21  1  0  0  0  0
 18 21  2  0  0  0  0
 18 27  1  0  0  0  0
 19 20  1  0  0  0  0
 20 28  1  0  0  0  0
 21 29  1  0  0  0  0
M  END
> <PUBCHEM_COMPOUND_CID>
17396229

> <PUBCHEM_COMPOUND_CANONICALIZED>
1

> <PUBCHEM_CACTVS_COMPLEXITY>
513

> <PUBCHEM_CACTVS_HBOND_ACCEPTOR>
6

> <PUBCHEM_CACTVS_HBOND_DONOR>
2

> <PUBCHEM_CACTVS_ROTATABLE_BOND>
4

> <PUBCHEM_CACTVS_SUBSKEYS>
AAADccByOQBAGAAAAAAAAAAAAAAAAAAAAAAwYAAAAAAAAAABQAAAHwRQSAABrAiB2AgwyYBAAgKIAiTSSHDCABAkAgQIiBkAbOgIJjqAlZGAcYBm0AEI29eYyCCOAAAEAAgCAEAAAAgAEAQAgAAAAAAAAA==

> <PUBCHEM_IUPAC_OPENEYE_NAME>
2-[(2,5-dibromophenyl)sulfonylamino]-4-fluoro-benzoic acid

> <PUBCHEM_IUPAC_CAS_NAME>
2-[(2,5-dibromophenyl)sulfonylamino]-4-fluorobenzoic acid

> <PUBCHEM_IUPAC_NAME>
2-[(2,5-dibromophenyl)sulfonylamino]-4-fluorobenzoic acid

> <PUBCHEM_IUPAC_SYSTEMATIC_NAME>
2-[[2,5-bis(bromanyl)phenyl]sulfonylamino]-4-fluoranyl-benzoic acid

> <PUBCHEM_IUPAC_TRADITIONAL_NAME>
2-[(2,5-dibromophenyl)sulfonylamino]-4-fluoro-benzoic acid

> <PUBCHEM_IUPAC_INCHI>
InChI=1S/C13H8Br2FNO4S/c14-7-1-4-10(15)12(5-7)22(20,21)17-11-6-8(16)2-3-9(11)13(18)19/h1-6,17H,(H,18,19)

> <PUBCHEM_IUPAC_INCHIKEY>
BEQXEERMKOSSDQ-UHFFFAOYSA-N

> <PUBCHEM_XLOGP3_AA>
4

> <PUBCHEM_EXACT_MASS>
452.850435

> <PUBCHEM_MOLECULAR_FORMULA>
C13H8Br2FNO4S

> <PUBCHEM_MOLECULAR_WEIGHT>
453.078323

> <PUBCHEM_OPENEYE_CAN_SMILES>
C1=CC(=C(C=C1F)NS(=O)(=O)C2=C(C=CC(=C2)Br)Br)C(=O)O

> <PUBCHEM_OPENEYE_ISO_SMILES>
C1=CC(=C(C=C1F)NS(=O)(=O)C2=C(C=CC(=C2)Br)Br)C(=O)O

> <PUBCHEM_CACTVS_TPSA>
91.8

> <PUBCHEM_MONOISOTOPIC_WEIGHT>
450.852481

> <PUBCHEM_TOTAL_CHARGE>
0

> <PUBCHEM_HEAVY_ATOM_COUNT>
22

> <PUBCHEM_ATOM_DEF_STEREO_COUNT>
0

> <PUBCHEM_ATOM_UDEF_STEREO_COUNT>
0

> <PUBCHEM_BOND_DEF_STEREO_COUNT>
0

> <PUBCHEM_BOND_UDEF_STEREO_COUNT>
0

> <PUBCHEM_ISOTOPIC_ATOM_COUNT>
0

> <PUBCHEM_COMPONENT_COUNT>
1

> <PUBCHEM_CACTVS_TAUTO_COUNT>
4

> <PUBCHEM_COORDINATE_TYPE>
1
5
255

> <PUBCHEM_BONDANNOTATIONS>
10  13  8
10  14  8
11  12  8
11  15  8
12  16  8
13  18  8
14  17  8
15  19  8
16  20  8
17  21  8
18  21  8
19  20  8

$$$$

