47205748
  -OEChem-06241223003D

 31 32  0     0  0  0  0  0  0999 V2000
   -6.0261   -2.6586   -0.5082 Cl  0  0  0  0  0  0  0  0  0  0  0  0
   -0.7017    1.2240    0.0554 O   0  0  0  0  0  0  0  0  0  0  0  0
    4.5029   -2.0171    0.6669 O   0  0  0  0  0  0  0  0  0  0  0  0
    2.1560    2.0332   -1.1695 O   0  0  0  0  0  0  0  0  0  0  0  0
    0.2696    3.2544    0.6347 O   0  0  0  0  0  0  0  0  0  0  0  0
    1.9088    0.3745    0.5039 N   0  0  0  0  0  0  0  0  0  0  0  0
    3.2964   -1.5053    1.1287 N   0  0  0  0  0  0  0  0  0  0  0  0
   -2.9946    0.6074    0.1931 C   0  0  0  0  0  0  0  0  0  0  0  0
   -1.9942    1.6884    0.4256 C   0  0  0  0  0  0  0  0  0  0  0  0
   -3.6405    0.5082   -1.0393 C   0  0  0  0  0  0  0  0  0  0  0  0
   -3.2861   -0.3035    1.2086 C   0  0  0  0  0  0  0  0  0  0  0  0
    3.0555   -0.4401    0.3589 C   0  0  0  0  0  0  0  0  0  0  0  0
    4.9508   -1.2509   -0.3605 C   0  0  0  0  0  0  0  0  0  0  0  0
    4.0653   -0.2329   -0.5966 C   0  0  0  0  0  0  0  0  0  0  0  0
   -4.5773   -0.5022   -1.2564 C   0  0  0  0  0  0  0  0  0  0  0  0
   -4.2231   -1.3137    0.9916 C   0  0  0  0  0  0  0  0  0  0  0  0
   -4.8688   -1.4131   -0.2410 C   0  0  0  0  0  0  0  0  0  0  0  0
    1.5822    1.4866   -0.2425 C   0  0  0  0  0  0  0  0  0  0  0  0
    0.3008    2.1131    0.2184 C   0  0  0  0  0  0  0  0  0  0  0  0
    6.2239   -1.6523   -0.9718 C   0  0  0  0  0  0  0  0  0  0  0  0
   -2.2527    2.5770   -0.1644 H   0  0  0  0  0  0  0  0  0  0  0  0
   -1.9941    1.9831    1.4829 H   0  0  0  0  0  0  0  0  0  0  0  0
   -3.4208    1.2107   -1.8389 H   0  0  0  0  0  0  0  0  0  0  0  0
   -2.7884   -0.2377    2.1725 H   0  0  0  0  0  0  0  0  0  0  0  0
    4.1612    0.5308   -1.3534 H   0  0  0  0  0  0  0  0  0  0  0  0
   -5.0725   -0.5677   -2.2219 H   0  0  0  0  0  0  0  0  0  0  0  0
   -4.4401   -2.0166    1.7919 H   0  0  0  0  0  0  0  0  0  0  0  0
    1.2828    0.0807    1.2496 H   0  0  0  0  0  0  0  0  0  0  0  0
    7.0288   -1.6362   -0.2305 H   0  0  0  0  0  0  0  0  0  0  0  0
    6.1523   -2.6652   -1.3801 H   0  0  0  0  0  0  0  0  0  0  0  0
    6.5010   -0.9771   -1.7874 H   0  0  0  0  0  0  0  0  0  0  0  0
  1 17  1  0  0  0  0
  2  9  1  0  0  0  0
  2 19  1  0  0  0  0
  3  7  1  0  0  0  0
  3 13  1  0  0  0  0
  4 18  2  0  0  0  0
  5 19  2  0  0  0  0
  6 12  1  0  0  0  0
  6 18  1  0  0  0  0
  6 28  1  0  0  0  0
  7 12  2  0  0  0  0
  8  9  1  0  0  0  0
  8 10  2  0  0  0  0
  8 11  1  0  0  0  0
  9 21  1  0  0  0  0
  9 22  1  0  0  0  0
 10 15  1  0  0  0  0
 10 23  1  0  0  0  0
 11 16  2  0  0  0  0
 11 24  1  0  0  0  0
 12 14  1  0  0  0  0
 13 14  2  0  0  0  0
 13 20  1  0  0  0  0
 14 25  1  0  0  0  0
 15 17  2  0  0  0  0
 15 26  1  0  0  0  0
 16 17  1  0  0  0  0
 16 27  1  0  0  0  0
 18 19  1  0  0  0  0
 20 29  1  0  0  0  0
 20 30  1  0  0  0  0
 20 31  1  0  0  0  0
M  END
> <PUBCHEM_COMPOUND_CID>
47205748

> <PUBCHEM_CONFORMER_RMSD>
0.8

> <PUBCHEM_CONFORMER_DIVERSEORDER>
1
64
25
43
50
63
56
29
48
26
10
52
4
38
59
17
36
15
39
31
58
41
46
23
55
67
51
20
24
11
37
2
21
16
68
54
22
53
8
65
12
9
47
5
30
34
19
61
13
62
45
49
66
60
42
40
57
44
32
6
18
35
27
14
28
7
33
3

> <PUBCHEM_MMFF94_PARTIAL_CHARGES>
26
1 -0.18
10 -0.15
11 -0.15
12 0.35
13 -0.04
14 -0.15
15 -0.15
16 -0.15
17 0.18
18 0.63
19 0.72
2 -0.43
20 0.18
23 0.15
24 0.15
25 0.15
26 0.15
27 0.15
28 0.37
3 -0.02
4 -0.57
5 -0.57
6 -0.49
7 -0.41
8 -0.14
9 0.42

> <PUBCHEM_EFFECTIVE_ROTOR_COUNT>
6

> <PUBCHEM_PHARMACOPHORE_FEATURES>
5
1 4 acceptor
1 5 acceptor
1 6 donor
5 3 7 12 13 14 rings
6 8 10 11 15 16 17 rings

> <PUBCHEM_HEAVY_ATOM_COUNT>
20

> <PUBCHEM_ATOM_DEF_STEREO_COUNT>
0

> <PUBCHEM_ATOM_UDEF_STEREO_COUNT>
0

> <PUBCHEM_BOND_DEF_STEREO_COUNT>
0

> <PUBCHEM_BOND_UDEF_STEREO_COUNT>
0

> <PUBCHEM_ISOTOPIC_ATOM_COUNT>
0

> <PUBCHEM_COMPONENT_COUNT>
1

> <PUBCHEM_CACTVS_TAUTO_COUNT>
8

> <PUBCHEM_CONFORMER_ID>
02D04D7400000001

> <PUBCHEM_MMFF94_ENERGY>
33.2905

> <PUBCHEM_FEATURE_SELFOVERLAP>
25.374

> <PUBCHEM_SHAPE_FINGERPRINT>
10042902 136 18334571347988834350
10968037 57 18335700525372545955
11046707 91 18335984276212541968
11135609 201 10807929380124887037
12107183 9 18261942047282199849
12363563 72 18409162220985622065
12403259 118 7276537733537654447
12592606 108 18335138675384666823
12596602 18 17385723582242847762
13103583 49 17894898664043610521
13533116 47 18191305975549189371
13583140 156 14852172908748593712
13955234 65 17828767236154146609
14123256 34 18408315579752489607
14178342 30 17314211415034566825
1420 369 18334014977909479427
14251740 57 18260834748029123282
14251764 30 18114456864251053742
14576447 43 18272649082648876802
14767858 380 18200576044172329708
14848178 5 18409455799021858822
14931854 50 17989489644875852115
14950920 106 15285369430667932526
15188451 53 16588317055581345151
15342168 16 10015599306827660913
15352361 1 18410856572625106747
15475509 8 17632308848503531757
15537594 2 18271236243839189619
15880784 105 17894910728548644738
17780758 139 17458340887923378953
17834072 32 9223234044130253521
17870717 6 17918276454930860383
18222031 100 18408891745551927898
193927 3 18334288781821307548
19784866 240 18334294254232037285
20028762 73 18040999501368994751
20388580 30 18343016679690828556
20403669 9 18408881837147057935
20621476 21 17679006330963664038
20645477 70 18199475376576033601
20871999 31 17632013147466579300
21315759 148 17095801135675163022
21401589 2 8214140768197183125
221357 26 18201442454560118259
23403322 49 18412829084080281457
235170 7 16056879156166113074
23559900 14 18130795499644393573
23622692 118 18408884027596190029
270888 7 10159703486380428935
2838139 119 11599710750007307558
2916195 48 11383816161388295182
3004659 81 18201722846714297469
314194 84 18338508660235746210
3472631 163 11527952253249640635
351380 3 18334856121226355399
3737641 26 17459739527128945086
38570 142 13986096211913786522
4259306 186 18343865528072921102
44062 13 18341057393315164477
46194498 28 17274260518115339269
465052 167 18189048720810780631
5104073 3 17894625925378747593
5486654 36 18339347635401343889
559249 180 18334295418437472609
636775 72 9148304526597508586
7062679 13 18411422799818052783
76465 3 18335420136800943489
7970288 3 18334576841052260527
960060 61 17632579339982964423

> <PUBCHEM_SHAPE_MULTIPOLES>
380.02
14.64
2.9
1.13
3.12
0.91
-0.04
-14.8
-2.96
0.04
0.07
-0.36
-0.16
-0.35

> <PUBCHEM_SHAPE_SELFOVERLAP>
795.816

> <PUBCHEM_SHAPE_VOLUME>
215

> <PUBCHEM_COORDINATE_TYPE>
2
5
10

$$$$

