11391
  -OEChem-06261205372D

 59 60  0     0  0  0  0  0  0999 V2000
    1.4030    4.9776    0.0000 S   0  0  0  0  0  0  0  0  0  0  0  0
    2.2690    5.4776    0.0000 O   0  0  0  0  0  0  0  0  0  0  0  0
    0.5369    4.4776    0.0000 O   0  0  0  0  0  0  0  0  0  0  0  0
    0.9030    5.8437    0.0000 O   0  0  0  0  0  0  0  0  0  0  0  0
    1.9030    4.1116    0.0000 O   0  0  0  0  0  0  0  0  0  0  0  0
    7.1009    1.8100    0.0000 N   0  0  0  0  0  0  0  0  0  0  0  0
    7.1009    7.8006    0.0000 N   0  0  0  0  0  0  0  0  0  0  0  0
    5.3689    1.8100    0.0000 N   0  0  0  0  0  0  0  0  0  0  0  0
    5.3689    7.8006    0.0000 N   0  0  0  0  0  0  0  0  0  0  0  0
    6.2349    0.3100    0.0000 N   0  0  0  0  0  0  0  0  0  0  0  0
    6.2349    6.3006    0.0000 N   0  0  0  0  0  0  0  0  0  0  0  0
    7.9670    9.3006    0.0000 C   0  0  0  0  0  0  0  0  0  0  0  0
    7.9670    3.3100    0.0000 C   0  0  0  0  0  0  0  0  0  0  0  0
    7.1009    8.8006    0.0000 C   0  0  0  0  0  0  0  0  0  0  0  0
    7.1009    2.8100    0.0000 C   0  0  0  0  0  0  0  0  0  0  0  0
    7.9670    7.3006    0.0000 C   0  0  0  0  0  0  0  0  0  0  0  0
    7.9670    1.3100    0.0000 C   0  0  0  0  0  0  0  0  0  0  0  0
    8.8330    2.8100    0.0000 C   0  0  0  0  0  0  0  0  0  0  0  0
    8.8330    8.8006    0.0000 C   0  0  0  0  0  0  0  0  0  0  0  0
    8.8330    1.8100    0.0000 C   0  0  0  0  0  0  0  0  0  0  0  0
    8.8330    7.8006    0.0000 C   0  0  0  0  0  0  0  0  0  0  0  0
    9.7269    3.3447    0.0000 C   0  0  0  0  0  0  0  0  0  0  0  0
    9.7269    9.3353    0.0000 C   0  0  0  0  0  0  0  0  0  0  0  0
    9.7269    1.2753    0.0000 C   0  0  0  0  0  0  0  0  0  0  0  0
    9.7269    7.2660    0.0000 C   0  0  0  0  0  0  0  0  0  0  0  0
    6.2349    1.3100    0.0000 C   0  0  0  0  0  0  0  0  0  0  0  0
    6.2349    7.3006    0.0000 C   0  0  0  0  0  0  0  0  0  0  0  0
   10.6330    2.8308    0.0000 C   0  0  0  0  0  0  0  0  0  0  0  0
   10.6330    8.8214    0.0000 C   0  0  0  0  0  0  0  0  0  0  0  0
   10.6330    1.7892    0.0000 C   0  0  0  0  0  0  0  0  0  0  0  0
   10.6330    7.7798    0.0000 C   0  0  0  0  0  0  0  0  0  0  0  0
    8.3655    3.7850    0.0000 H   0  0  0  0  0  0  0  0  0  0  0  0
    7.5684    3.7850    0.0000 H   0  0  0  0  0  0  0  0  0  0  0  0
    8.3655    9.7756    0.0000 H   0  0  0  0  0  0  0  0  0  0  0  0
    7.5684    9.7756    0.0000 H   0  0  0  0  0  0  0  0  0  0  0  0
    6.8889    3.3926    0.0000 H   0  0  0  0  0  0  0  0  0  0  0  0
    6.4904    2.7023    0.0000 H   0  0  0  0  0  0  0  0  0  0  0  0
    6.8889    9.3832    0.0000 H   0  0  0  0  0  0  0  0  0  0  0  0
    6.4904    8.6930    0.0000 H   0  0  0  0  0  0  0  0  0  0  0  0
    7.5684    6.8257    0.0000 H   0  0  0  0  0  0  0  0  0  0  0  0
    8.3655    6.8257    0.0000 H   0  0  0  0  0  0  0  0  0  0  0  0
    7.5684    0.8351    0.0000 H   0  0  0  0  0  0  0  0  0  0  0  0
    8.3655    0.8351    0.0000 H   0  0  0  0  0  0  0  0  0  0  0  0
    9.7198    3.9646    0.0000 H   0  0  0  0  0  0  0  0  0  0  0  0
    9.7198    9.9553    0.0000 H   0  0  0  0  0  0  0  0  0  0  0  0
    9.7198    0.6554    0.0000 H   0  0  0  0  0  0  0  0  0  0  0  0
    9.7198    6.6460    0.0000 H   0  0  0  0  0  0  0  0  0  0  0  0
   11.1687    3.1429    0.0000 H   0  0  0  0  0  0  0  0  0  0  0  0
   11.1687    9.1335    0.0000 H   0  0  0  0  0  0  0  0  0  0  0  0
   11.1687    1.4771    0.0000 H   0  0  0  0  0  0  0  0  0  0  0  0
   11.1687    7.4678    0.0000 H   0  0  0  0  0  0  0  0  0  0  0  0
    4.8319    1.5000    0.0000 H   0  0  0  0  0  0  0  0  0  0  0  0
    5.3689    2.4300    0.0000 H   0  0  0  0  0  0  0  0  0  0  0  0
    4.8319    7.4906    0.0000 H   0  0  0  0  0  0  0  0  0  0  0  0
    5.3689    8.4206    0.0000 H   0  0  0  0  0  0  0  0  0  0  0  0
    5.6980    0.0000    0.0000 H   0  0  0  0  0  0  0  0  0  0  0  0
    5.6980    5.9906    0.0000 H   0  0  0  0  0  0  0  0  0  0  0  0
    2.8059    5.1676    0.0000 H   0  0  0  0  0  0  0  0  0  0  0  0
    0.0000    4.7876    0.0000 H   0  0  0  0  0  0  0  0  0  0  0  0
  1  2  1  0  0  0  0
  1  3  1  0  0  0  0
  1  4  2  0  0  0  0
  1  5  2  0  0  0  0
  2 58  1  0  0  0  0
  3 59  1  0  0  0  0
  6 15  1  0  0  0  0
  6 17  1  0  0  0  0
  6 26  1  0  0  0  0
  7 14  1  0  0  0  0
  7 16  1  0  0  0  0
  7 27  1  0  0  0  0
  8 26  1  0  0  0  0
  8 52  1  0  0  0  0
  8 53  1  0  0  0  0
  9 27  1  0  0  0  0
  9 54  1  0  0  0  0
  9 55  1  0  0  0  0
 10 26  2  0  0  0  0
 10 56  1  0  0  0  0
 11 27  2  0  0  0  0
 11 57  1  0  0  0  0
 12 14  1  0  0  0  0
 12 19  1  0  0  0  0
 12 34  1  0  0  0  0
 12 35  1  0  0  0  0
 13 15  1  0  0  0  0
 13 18  1  0  0  0  0
 13 32  1  0  0  0  0
 13 33  1  0  0  0  0
 14 38  1  0  0  0  0
 14 39  1  0  0  0  0
 15 36  1  0  0  0  0
 15 37  1  0  0  0  0
 16 21  1  0  0  0  0
 16 40  1  0  0  0  0
 16 41  1  0  0  0  0
 17 20  1  0  0  0  0
 17 42  1  0  0  0  0
 17 43  1  0  0  0  0
 18 20  1  0  0  0  0
 18 22  2  0  0  0  0
 19 21  1  0  0  0  0
 19 23  2  0  0  0  0
 20 24  2  0  0  0  0
 21 25  2  0  0  0  0
 22 28  1  0  0  0  0
 22 44  1  0  0  0  0
 23 29  1  0  0  0  0
 23 45  1  0  0  0  0
 24 30  1  0  0  0  0
 24 46  1  0  0  0  0
 25 31  1  0  0  0  0
 25 47  1  0  0  0  0
 28 30  2  0  0  0  0
 28 48  1  0  0  0  0
 29 31  2  0  0  0  0
 29 49  1  0  0  0  0
 30 50  1  0  0  0  0
 31 51  1  0  0  0  0
M  END
> <PUBCHEM_COMPOUND_CID>
11391

> <PUBCHEM_COMPOUND_CANONICALIZED>
1

> <PUBCHEM_CACTVS_COMPLEXITY>
284

> <PUBCHEM_CACTVS_HBOND_ACCEPTOR>
6

> <PUBCHEM_CACTVS_HBOND_DONOR>
6

> <PUBCHEM_CACTVS_ROTATABLE_BOND>
2

> <PUBCHEM_CACTVS_SUBSKEYS>
AAADceB7uABAAAAAAAAAAAAAAAAAAAAAAAA8eIEAAAAAAACxQAAAHAAQCAAADADBGAQxAINAAICgAiBCIDCCAACgAAAJiAAIBIiIICKAmRGEIAhggAKIiAcQgIAOgAAAAAAQAAAAAAAAACAAAAAAAAAAAA==

> <PUBCHEM_IUPAC_OPENEYE_NAME>
3,4-dihydro-1H-isoquinoline-2-carboxamidine; sulfuric acid

> <PUBCHEM_IUPAC_CAS_NAME>
3,4-dihydro-1H-isoquinoline-2-carboximidamide; sulfuric acid

> <PUBCHEM_IUPAC_NAME>
3,4-dihydro-1H-isoquinoline-2-carboximidamide; sulfuric acid

> <PUBCHEM_IUPAC_SYSTEMATIC_NAME>
3,4-dihydro-1H-isoquinoline-2-carboximidamide; sulfuric acid

> <PUBCHEM_IUPAC_TRADITIONAL_NAME>
3,4-dihydro-1H-isoquinoline-2-carboxamidine; sulfuric acid

> <PUBCHEM_IUPAC_INCHI>
InChI=1S/2C10H13N3.H2O4S/c2*11-10(12)13-6-5-8-3-1-2-4-9(8)7-13;1-5(2,3)4/h2*1-4H,5-7H2,(H3,11,12);(H2,1,2,3,4)

> <PUBCHEM_IUPAC_INCHIKEY>
CAYGYVYWRIHZCQ-UHFFFAOYSA-N

> <PUBCHEM_EXACT_MASS>
448.189274

> <PUBCHEM_MOLECULAR_FORMULA>
C20H28N6O4S

> <PUBCHEM_MOLECULAR_WEIGHT>
448.53912

> <PUBCHEM_OPENEYE_CAN_SMILES>
C1CN(CC2=CC=CC=C21)C(=N)N.C1CN(CC2=CC=CC=C21)C(=N)N.OS(=O)(=O)O

> <PUBCHEM_OPENEYE_ISO_SMILES>
C1CN(CC2=CC=CC=C21)C(=N)N.C1CN(CC2=CC=CC=C21)C(=N)N.OS(=O)(=O)O

> <PUBCHEM_CACTVS_TPSA>
189

> <PUBCHEM_MONOISOTOPIC_WEIGHT>
448.189274

> <PUBCHEM_TOTAL_CHARGE>
0

> <PUBCHEM_HEAVY_ATOM_COUNT>
31

> <PUBCHEM_ATOM_DEF_STEREO_COUNT>
0

> <PUBCHEM_ATOM_UDEF_STEREO_COUNT>
0

> <PUBCHEM_BOND_DEF_STEREO_COUNT>
0

> <PUBCHEM_BOND_UDEF_STEREO_COUNT>
0

> <PUBCHEM_ISOTOPIC_ATOM_COUNT>
0

> <PUBCHEM_COMPONENT_COUNT>
3

> <PUBCHEM_CACTVS_TAUTO_COUNT>
1

> <PUBCHEM_COORDINATE_TYPE>
1
5
255

> <PUBCHEM_BONDANNOTATIONS>
18  20  8
18  22  8
19  21  8
19  23  8
20  24  8
21  25  8
22  28  8
23  29  8
24  30  8
25  31  8
28  30  8
29  31  8

$$$$

