854159
  -OEChem-06241222473D

 21 21  0     1  0  0  0  0  0999 V2000
   -2.1160    0.8148    0.9335 O   0  0  0  0  0  0  0  0  0  0  0  0
    1.7603   -1.2846    0.0526 N   0  0  0  0  0  0  0  0  0  0  0  0
   -2.6212   -0.7466   -0.6792 N   0  0  0  0  0  0  0  0  0  0  0  0
   -0.3339   -0.0498   -0.4021 C   0  0  1  0  0  0  0  0  0  0  0  0
    0.3858    1.2810   -0.1855 C   0  0  0  0  0  0  0  0  0  0  0  0
    1.8791    1.1304   -0.4587 C   0  0  0  0  0  0  0  0  0  0  0  0
    0.3392   -1.1761    0.3858 C   0  0  0  0  0  0  0  0  0  0  0  0
    2.4714   -0.0361    0.3292 C   0  0  0  0  0  0  0  0  0  0  0  0
   -1.7648    0.0670    0.0244 C   0  0  0  0  0  0  0  0  0  0  0  0
   -0.3000   -0.2886   -1.4742 H   0  0  0  0  0  0  0  0  0  0  0  0
    0.2534    1.6329    0.8460 H   0  0  0  0  0  0  0  0  0  0  0  0
   -0.0378    2.0553   -0.8363 H   0  0  0  0  0  0  0  0  0  0  0  0
    2.0396    0.9698   -1.5324 H   0  0  0  0  0  0  0  0  0  0  0  0
    2.3988    2.0582   -0.1941 H   0  0  0  0  0  0  0  0  0  0  0  0
    0.2220   -1.0246    1.4667 H   0  0  0  0  0  0  0  0  0  0  0  0
   -0.1460   -2.1335    0.1616 H   0  0  0  0  0  0  0  0  0  0  0  0
    3.5259   -0.1608    0.0598 H   0  0  0  0  0  0  0  0  0  0  0  0
    2.4450    0.1770    1.4047 H   0  0  0  0  0  0  0  0  0  0  0  0
    1.8509   -1.5036   -0.9397 H   0  0  0  0  0  0  0  0  0  0  0  0
   -3.6150   -0.7571   -0.4753 H   0  0  0  0  0  0  0  0  0  0  0  0
   -2.3024   -1.3652   -1.4181 H   0  0  0  0  0  0  0  0  0  0  0  0
  1  9  2  0  0  0  0
  2  7  1  0  0  0  0
  2  8  1  0  0  0  0
  2 19  1  0  0  0  0
  3  9  1  0  0  0  0
  3 20  1  0  0  0  0
  3 21  1  0  0  0  0
  4  5  1  0  0  0  0
  4  7  1  0  0  0  0
  4  9  1  0  0  0  0
  4 10  1  0  0  0  0
  5  6  1  0  0  0  0
  5 11  1  0  0  0  0
  5 12  1  0  0  0  0
  6  8  1  0  0  0  0
  6 13  1  0  0  0  0
  6 14  1  0  0  0  0
  7 15  1  0  0  0  0
  7 16  1  0  0  0  0
  8 17  1  0  0  0  0
  8 18  1  0  0  0  0
M  END
> <PUBCHEM_COMPOUND_CID>
854159

> <PUBCHEM_CONFORMER_RMSD>
0.4

> <PUBCHEM_CONFORMER_DIVERSEORDER>
1
16
12
14
3
17
4
7
15
5
6
2
11
13
18
8
9
10

> <PUBCHEM_MMFF94_PARTIAL_CHARGES>
10
1 -0.57
19 0.36
2 -0.9
20 0.37
21 0.37
3 -0.8
4 0.06
7 0.27
8 0.27
9 0.57

> <PUBCHEM_EFFECTIVE_ROTOR_COUNT>
2.2

> <PUBCHEM_PHARMACOPHORE_FEATURES>
5
1 1 acceptor
1 2 cation
1 2 donor
1 3 donor
6 2 4 5 6 7 8 rings

> <PUBCHEM_HEAVY_ATOM_COUNT>
9

> <PUBCHEM_ATOM_DEF_STEREO_COUNT>
1

> <PUBCHEM_ATOM_UDEF_STEREO_COUNT>
0

> <PUBCHEM_BOND_DEF_STEREO_COUNT>
0

> <PUBCHEM_BOND_UDEF_STEREO_COUNT>
0

> <PUBCHEM_ISOTOPIC_ATOM_COUNT>
0

> <PUBCHEM_COMPONENT_COUNT>
1

> <PUBCHEM_CACTVS_TAUTO_COUNT>
2

> <PUBCHEM_CONFORMER_ID>
000D088F00000001

> <PUBCHEM_MMFF94_ENERGY>
7.7346

> <PUBCHEM_FEATURE_SELFOVERLAP>
25.371

> <PUBCHEM_SHAPE_FINGERPRINT>
16945 1 18272930522769898908
18185500 45 18408888455327287273
21040471 1 18269270154187874620
23235685 24 18342459192988288756
23552423 10 18341047509899096798
29004967 10 17918268783549531592
5084963 1 18411145709744241652

> <PUBCHEM_SHAPE_MULTIPOLES>
169.38
3.48
1.37
0.78
0.76
0.03
0.04
0.08
0.01
-0.45
0.01
0.23
-0.05
-0.38

> <PUBCHEM_SHAPE_SELFOVERLAP>
332.555

> <PUBCHEM_SHAPE_VOLUME>
100.6

> <PUBCHEM_COORDINATE_TYPE>
2
5
10

$$$$

