17396251
  -OEChem-06241222552D

 42 44  0     0  0  0  0  0  0999 V2000
    2.8660    1.0600    0.0000 Cl  0  0  0  0  0  0  0  0  0  0  0  0
    6.3301   -1.9400    0.0000 S   0  0  0  0  0  0  0  0  0  0  0  0
   12.3923    2.5600    0.0000 O   0  0  0  0  0  0  0  0  0  0  0  0
   11.5263    1.0600    0.0000 N   0  0  0  0  0  0  0  0  0  0  0  0
    6.3301    0.0600    0.0000 N   0  0  0  0  0  0  0  0  0  0  0  0
    4.5981   -1.9400    0.0000 N   0  0  0  0  0  0  0  0  0  0  0  0
    5.4641   -0.4400    0.0000 N   0  0  0  0  0  0  0  0  0  0  0  0
    8.0622    0.0600    0.0000 C   0  0  0  0  0  0  0  0  0  0  0  0
    9.7942    1.0600    0.0000 C   0  0  0  0  0  0  0  0  0  0  0  0
    7.1962   -0.4400    0.0000 C   0  0  0  0  0  0  0  0  0  0  0  0
   10.6603    1.5600    0.0000 C   0  0  0  0  0  0  0  0  0  0  0  0
    8.0622    1.0600    0.0000 C   0  0  0  0  0  0  0  0  0  0  0  0
    8.9282   -0.4400    0.0000 C   0  0  0  0  0  0  0  0  0  0  0  0
    8.9282    1.5600    0.0000 C   0  0  0  0  0  0  0  0  0  0  0  0
    9.7942    0.0600    0.0000 C   0  0  0  0  0  0  0  0  0  0  0  0
    7.1962   -1.4400    0.0000 C   0  0  0  0  0  0  0  0  0  0  0  0
    5.4641   -1.4400    0.0000 C   0  0  0  0  0  0  0  0  0  0  0  0
    3.7320   -1.4400    0.0000 C   0  0  0  0  0  0  0  0  0  0  0  0
   12.3923    1.5600    0.0000 C   0  0  0  0  0  0  0  0  0  0  0  0
    3.7320   -0.4400    0.0000 C   0  0  0  0  0  0  0  0  0  0  0  0
    2.8660   -1.9400    0.0000 C   0  0  0  0  0  0  0  0  0  0  0  0
    2.8660    0.0600    0.0000 C   0  0  0  0  0  0  0  0  0  0  0  0
    2.0000   -1.4400    0.0000 C   0  0  0  0  0  0  0  0  0  0  0  0
    2.0000   -0.4400    0.0000 C   0  0  0  0  0  0  0  0  0  0  0  0
   13.2583    1.0600    0.0000 C   0  0  0  0  0  0  0  0  0  0  0  0
   11.0588    2.0349    0.0000 H   0  0  0  0  0  0  0  0  0  0  0  0
   10.2617    2.0349    0.0000 H   0  0  0  0  0  0  0  0  0  0  0  0
    7.5252    1.3700    0.0000 H   0  0  0  0  0  0  0  0  0  0  0  0
    8.9282   -1.0600    0.0000 H   0  0  0  0  0  0  0  0  0  0  0  0
    8.9282    2.1800    0.0000 H   0  0  0  0  0  0  0  0  0  0  0  0
   10.3312   -0.2500    0.0000 H   0  0  0  0  0  0  0  0  0  0  0  0
    7.4082   -2.0226    0.0000 H   0  0  0  0  0  0  0  0  0  0  0  0
    7.8067   -1.3323    0.0000 H   0  0  0  0  0  0  0  0  0  0  0  0
   11.5263    0.4400    0.0000 H   0  0  0  0  0  0  0  0  0  0  0  0
    4.5981   -2.5600    0.0000 H   0  0  0  0  0  0  0  0  0  0  0  0
    4.2690   -0.1300    0.0000 H   0  0  0  0  0  0  0  0  0  0  0  0
    2.8660   -2.5600    0.0000 H   0  0  0  0  0  0  0  0  0  0  0  0
    1.4631   -1.7500    0.0000 H   0  0  0  0  0  0  0  0  0  0  0  0
    1.4631   -0.1300    0.0000 H   0  0  0  0  0  0  0  0  0  0  0  0
   12.9483    0.5231    0.0000 H   0  0  0  0  0  0  0  0  0  0  0  0
   13.7953    0.7500    0.0000 H   0  0  0  0  0  0  0  0  0  0  0  0
   13.5683    1.5969    0.0000 H   0  0  0  0  0  0  0  0  0  0  0  0
  1 22  1  0  0  0  0
  2 16  1  0  0  0  0
  2 17  1  0  0  0  0
  3 19  2  0  0  0  0
  4 11  1  0  0  0  0
  4 19  1  0  0  0  0
  4 34  1  0  0  0  0
  5  7  1  0  0  0  0
  5 10  2  0  0  0  0
  6 17  1  0  0  0  0
  6 18  1  0  0  0  0
  6 35  1  0  0  0  0
  7 17  2  0  0  0  0
  8 10  1  0  0  0  0
  8 12  2  0  0  0  0
  8 13  1  0  0  0  0
  9 11  1  0  0  0  0
  9 14  2  0  0  0  0
  9 15  1  0  0  0  0
 10 16  1  0  0  0  0
 11 26  1  0  0  0  0
 11 27  1  0  0  0  0
 12 14  1  0  0  0  0
 12 28  1  0  0  0  0
 13 15  2  0  0  0  0
 13 29  1  0  0  0  0
 14 30  1  0  0  0  0
 15 31  1  0  0  0  0
 16 32  1  0  0  0  0
 16 33  1  0  0  0  0
 18 20  2  0  0  0  0
 18 21  1  0  0  0  0
 19 25  1  0  0  0  0
 20 22  1  0  0  0  0
 20 36  1  0  0  0  0
 21 23  2  0  0  0  0
 21 37  1  0  0  0  0
 22 24  2  0  0  0  0
 23 24  1  0  0  0  0
 23 38  1  0  0  0  0
 24 39  1  0  0  0  0
 25 40  1  0  0  0  0
 25 41  1  0  0  0  0
 25 42  1  0  0  0  0
M  END
> <PUBCHEM_COMPOUND_CID>
17396251

> <PUBCHEM_COMPOUND_CANONICALIZED>
1

> <PUBCHEM_CACTVS_COMPLEXITY>
531

> <PUBCHEM_CACTVS_HBOND_ACCEPTOR>
4

> <PUBCHEM_CACTVS_HBOND_DONOR>
2

> <PUBCHEM_CACTVS_ROTATABLE_BOND>
5

> <PUBCHEM_CACTVS_SUBSKEYS>
AAADceB7oABEAAAAAAAAAAAAAAAAAAAAAAAwYIAAAAAAAAABQAAAHgYYAAAADArF2CSzwILAAAioAyVycACCAABhBxAJiIA4ZpgIIKLhm5GEIAhglgDIyAcQgMAOQAAAAAIAAACAAAAABAAAAAAAAAAAAA==

> <PUBCHEM_IUPAC_OPENEYE_NAME>
N-[[4-[2-(3-chloroanilino)-6H-1,3,4-thiadiazin-5-yl]phenyl]methyl]acetamide

> <PUBCHEM_IUPAC_CAS_NAME>
N-[[4-[2-(3-chloroanilino)-6H-1,3,4-thiadiazin-5-yl]phenyl]methyl]acetamide

> <PUBCHEM_IUPAC_NAME>
N-[[4-[2-(3-chloroanilino)-6H-1,3,4-thiadiazin-5-yl]phenyl]methyl]acetamide

> <PUBCHEM_IUPAC_SYSTEMATIC_NAME>
N-[[4-[2-[(3-chlorophenyl)amino]-6H-1,3,4-thiadiazin-5-yl]phenyl]methyl]ethanamide

> <PUBCHEM_IUPAC_TRADITIONAL_NAME>
N-[4-[2-(3-chloroanilino)-6H-1,3,4-thiadiazin-5-yl]benzyl]acetamide

> <PUBCHEM_IUPAC_INCHI>
InChI=1S/C18H17ClN4OS/c1-12(24)20-10-13-5-7-14(8-6-13)17-11-25-18(23-22-17)21-16-4-2-3-15(19)9-16/h2-9H,10-11H2,1H3,(H,20,24)(H,21,23)

> <PUBCHEM_IUPAC_INCHIKEY>
NSLCWPROPWIADZ-UHFFFAOYSA-N

> <PUBCHEM_XLOGP3_AA>
3.4

> <PUBCHEM_EXACT_MASS>
372.08116

> <PUBCHEM_MOLECULAR_FORMULA>
C18H17ClN4OS

> <PUBCHEM_MOLECULAR_WEIGHT>
372.87178

> <PUBCHEM_OPENEYE_CAN_SMILES>
CC(=O)NCC1=CC=C(C=C1)C2=NN=C(SC2)NC3=CC(=CC=C3)Cl

> <PUBCHEM_OPENEYE_ISO_SMILES>
CC(=O)NCC1=CC=C(C=C1)C2=NN=C(SC2)NC3=CC(=CC=C3)Cl

> <PUBCHEM_CACTVS_TPSA>
91.2

> <PUBCHEM_MONOISOTOPIC_WEIGHT>
372.08116

> <PUBCHEM_TOTAL_CHARGE>
0

> <PUBCHEM_HEAVY_ATOM_COUNT>
25

> <PUBCHEM_ATOM_DEF_STEREO_COUNT>
0

> <PUBCHEM_ATOM_UDEF_STEREO_COUNT>
0

> <PUBCHEM_BOND_DEF_STEREO_COUNT>
0

> <PUBCHEM_BOND_UDEF_STEREO_COUNT>
0

> <PUBCHEM_ISOTOPIC_ATOM_COUNT>
0

> <PUBCHEM_COMPONENT_COUNT>
1

> <PUBCHEM_CACTVS_TAUTO_COUNT>
4

> <PUBCHEM_COORDINATE_TYPE>
1
5
255

> <PUBCHEM_BONDANNOTATIONS>
12  14  8
13  15  8
18  20  8
18  21  8
20  22  8
21  23  8
22  24  8
23  24  8
8  12  8
8  13  8
9  14  8
9  15  8

$$$$

