6756
  -OEChem-06261201292D

 50 54  0     1  0  0  0  0  0999 V2000
    9.4476   -1.5663    0.0000 O   0  0  0  0  0  0  0  0  0  0  0  0
    5.4133   -1.4664    0.0000 N   0  0  0  0  0  0  0  0  0  0  0  0
    4.1538    0.9271    0.0000 C   0  0  2  0  0  0  0  0  0  0  0  0
    4.7773    1.7089    0.0000 C   0  0  1  0  0  0  0  0  0  0  0  0
    4.3764   -0.0478    0.0000 C   0  0  1  0  0  0  0  0  0  0  0  0
    2.6261   -0.4686    0.0000 C   0  0  1  0  0  0  0  0  0  0  0  0
    3.1633    1.2495    0.0000 C   0  0  2  0  0  0  0  0  0  0  0  0
    3.6827    0.6389    0.0000 C   0  0  0  0  0  0  0  0  0  0  0  0
    3.6238   -0.7680    0.0000 C   0  0  0  0  0  0  0  0  0  0  0  0
    2.3943    0.5469    0.0000 C   0  0  0  0  0  0  0  0  0  0  0  0
    5.7773    1.7089    0.0000 C   0  0  0  0  0  0  0  0  0  0  0  0
    5.2773   -0.4817    0.0000 C   0  0  0  0  0  0  0  0  0  0  0  0
    2.9521    2.2269    0.0000 C   0  0  0  0  0  0  0  0  0  0  0  0
    6.4008    0.9271    0.0000 C   0  0  0  0  0  0  0  0  0  0  0  0
    6.1783   -0.0478    0.0000 C   0  0  0  0  0  0  0  0  0  0  0  0
    6.8634   -0.7681    0.0000 C   0  0  0  0  0  0  0  0  0  0  0  0
    2.0000    2.5327    0.0000 C   0  0  0  0  0  0  0  0  0  0  0  0
    6.3916   -1.6431    0.0000 C   0  0  0  0  0  0  0  0  0  0  0  0
    7.8978   -0.7221    0.0000 C   0  0  0  0  0  0  0  0  0  0  0  0
    6.9215   -2.5327    0.0000 C   0  0  0  0  0  0  0  0  0  0  0  0
    8.4482   -1.5992    0.0000 C   0  0  0  0  0  0  0  0  0  0  0  0
    7.9567   -2.5106    0.0000 C   0  0  0  0  0  0  0  0  0  0  0  0
    9.9759   -2.4154    0.0000 C   0  0  0  0  0  0  0  0  0  0  0  0
    3.9758    1.7071    0.0000 H   0  0  0  0  0  0  0  0  0  0  0  0
    4.3774    2.4018    0.0000 H   0  0  0  0  0  0  0  0  0  0  0  0
    4.5544   -0.8278    0.0000 H   0  0  0  0  0  0  0  0  0  0  0  0
    1.8599   -0.2387    0.0000 H   0  0  0  0  0  0  0  0  0  0  0  0
    2.5727    1.4379    0.0000 H   0  0  0  0  0  0  0  0  0  0  0  0
    3.5221    1.2378    0.0000 H   0  0  0  0  0  0  0  0  0  0  0  0
    4.1238    0.2032    0.0000 H   0  0  0  0  0  0  0  0  0  0  0  0
    3.3466   -1.3226    0.0000 H   0  0  0  0  0  0  0  0  0  0  0  0
    4.1228   -1.1360    0.0000 H   0  0  0  0  0  0  0  0  0  0  0  0
    2.0606    1.0694    0.0000 H   0  0  0  0  0  0  0  0  0  0  0  0
    1.8224    0.3075    0.0000 H   0  0  0  0  0  0  0  0  0  0  0  0
    6.3359    1.9780    0.0000 H   0  0  0  0  0  0  0  0  0  0  0  0
    5.6394    2.3134    0.0000 H   0  0  0  0  0  0  0  0  0  0  0  0
    3.5716    2.2506    0.0000 H   0  0  0  0  0  0  0  0  0  0  0  0
    3.0363    2.8411    0.0000 H   0  0  0  0  0  0  0  0  0  0  0  0
    6.9594    0.6581    0.0000 H   0  0  0  0  0  0  0  0  0  0  0  0
    6.7874    1.4119    0.0000 H   0  0  0  0  0  0  0  0  0  0  0  0
    4.9659   -1.8957    0.0000 H   0  0  0  0  0  0  0  0  0  0  0  0
    2.1896    3.1230    0.0000 H   0  0  0  0  0  0  0  0  0  0  0  0
    1.4097    2.7223    0.0000 H   0  0  0  0  0  0  0  0  0  0  0  0
    1.8104    1.9424    0.0000 H   0  0  0  0  0  0  0  0  0  0  0  0
    8.1858   -0.1730    0.0000 H   0  0  0  0  0  0  0  0  0  0  0  0
    6.6209   -3.0749    0.0000 H   0  0  0  0  0  0  0  0  0  0  0  0
    8.2801   -3.0395    0.0000 H   0  0  0  0  0  0  0  0  0  0  0  0
    9.4494   -2.7429    0.0000 H   0  0  0  0  0  0  0  0  0  0  0  0
   10.3034   -2.9418    0.0000 H   0  0  0  0  0  0  0  0  0  0  0  0
   10.5023   -2.0879    0.0000 H   0  0  0  0  0  0  0  0  0  0  0  0
  1 21  1  0  0  0  0
  1 23  1  0  0  0  0
  2 12  1  0  0  0  0
  2 18  1  0  0  0  0
  2 41  1  0  0  0  0
  3  4  1  0  0  0  0
  3  5  1  0  0  0  0
  3  7  1  0  0  0  0
  3 24  1  0  0  0  0
  4  8  1  0  0  0  0
  4 11  1  0  0  0  0
  4 25  1  0  0  0  0
  5  9  1  0  0  0  0
  5 12  1  0  0  0  0
  5 26  1  0  0  0  0
  6  8  1  0  0  0  0
  6  9  1  0  0  0  0
  6 10  1  0  0  0  0
  6 27  1  0  0  0  0
  7 10  1  0  0  0  0
  7 13  1  0  0  0  0
  7 28  1  0  0  0  0
  8 29  1  0  0  0  0
  8 30  1  0  0  0  0
  9 31  1  0  0  0  0
  9 32  1  0  0  0  0
 10 33  1  0  0  0  0
 10 34  1  0  0  0  0
 11 14  1  0  0  0  0
 11 35  1  0  0  0  0
 11 36  1  0  0  0  0
 12 15  2  0  0  0  0
 13 17  1  0  0  0  0
 13 37  1  0  0  0  0
 13 38  1  0  0  0  0
 14 15  1  0  0  0  0
 14 39  1  0  0  0  0
 14 40  1  0  0  0  0
 15 16  1  0  0  0  0
 16 18  2  0  0  0  0
 16 19  1  0  0  0  0
 17 42  1  0  0  0  0
 17 43  1  0  0  0  0
 17 44  1  0  0  0  0
 18 20  1  0  0  0  0
 19 21  2  0  0  0  0
 19 45  1  0  0  0  0
 20 22  2  0  0  0  0
 20 46  1  0  0  0  0
 21 22  1  0  0  0  0
 22 47  1  0  0  0  0
 23 48  1  0  0  0  0
 23 49  1  0  0  0  0
 23 50  1  0  0  0  0
M  END
> <PUBCHEM_COMPOUND_CID>
6756

> <PUBCHEM_COMPOUND_CANONICALIZED>
1

> <PUBCHEM_CACTVS_COMPLEXITY>
451

> <PUBCHEM_CACTVS_HBOND_ACCEPTOR>
1

> <PUBCHEM_CACTVS_HBOND_DONOR>
1

> <PUBCHEM_CACTVS_ROTATABLE_BOND>
2

> <PUBCHEM_CACTVS_SUBSKEYS>
AAADceB6IAAAAAAAAAAAAAAAAAAAAWAAAAAwYMAABgAAAHix8AAAHgAQAAAADQyBngIyxvLJlACgAyRiRACCiCAhIiAImSA2bJgMJuLEsZuEMChk0BHI6Aew0PMOgEABAAACAACAgAYAACQAAAAAAAAAAA==

> <PUBCHEM_IUPAC_INCHI>
InChI=1S/C21H27NO/c1-3-13-8-12-9-14-4-6-16-17-11-15(23-2)5-7-19(17)22-21(16)18(10-12)20(13)14/h5,7,11-14,18,20,22H,3-4,6,8-10H2,1-2H3/t12-,13-,14+,18+,20+/m0/s1

> <PUBCHEM_IUPAC_INCHIKEY>
FJBMNNKTXYNBNC-NGJAZAEPSA-N

> <PUBCHEM_XLOGP3_AA>
5.8

> <PUBCHEM_EXACT_MASS>
309.209264

> <PUBCHEM_MOLECULAR_FORMULA>
C21H27NO

> <PUBCHEM_MOLECULAR_WEIGHT>
309.44518

> <PUBCHEM_OPENEYE_CAN_SMILES>
CCC1CC2CC3C1C(C2)C4=C(CC3)C5=C(N4)C=CC(=C5)OC

> <PUBCHEM_OPENEYE_ISO_SMILES>
CC[C@H]1C[C@H]2C[C@@H]3[C@@H]1[C@@H](C2)C4=C(CC3)C5=C(N4)C=CC(=C5)OC

> <PUBCHEM_CACTVS_TPSA>
25

> <PUBCHEM_MONOISOTOPIC_WEIGHT>
309.209264

> <PUBCHEM_TOTAL_CHARGE>
0

> <PUBCHEM_HEAVY_ATOM_COUNT>
23

> <PUBCHEM_ATOM_DEF_STEREO_COUNT>
5

> <PUBCHEM_ATOM_UDEF_STEREO_COUNT>
0

> <PUBCHEM_BOND_DEF_STEREO_COUNT>
0

> <PUBCHEM_BOND_UDEF_STEREO_COUNT>
0

> <PUBCHEM_ISOTOPIC_ATOM_COUNT>
0

> <PUBCHEM_COMPONENT_COUNT>
1

> <PUBCHEM_CACTVS_TAUTO_COUNT>
1

> <PUBCHEM_COORDINATE_TYPE>
1
5
255

> <PUBCHEM_BONDANNOTATIONS>
12  15  8
15  16  8
16  18  8
16  19  8
18  20  8
19  21  8
2  12  8
2  18  8
20  22  8
21  22  8
3  24  3
4  25  3
5  26  3
6  27  3
7  13  3

$$$$

