9934
  -OEChem-06261204123D

 15 15  0     1  0  0  0  0  0999 V2000
   -2.3798   -0.8199    0.2402 S   0  0  0  0  0  0  0  0  0  0  0  0
    2.1925   -1.0486   -0.3296 O   0  0  0  0  0  0  0  0  0  0  0  0
    1.9630    1.0585    0.5090 O   0  0  0  0  0  0  0  0  0  0  0  0
   -0.6330    1.1629   -0.0721 N   0  0  0  0  0  0  0  0  0  0  0  0
    0.0544   -0.0897   -0.4185 C   0  0  2  0  0  0  0  0  0  0  0  0
   -0.6201   -1.2242    0.3406 C   0  0  0  0  0  0  0  0  0  0  0  0
   -2.0627    0.8949   -0.2491 C   0  0  0  0  0  0  0  0  0  0  0  0
    1.4857    0.0660   -0.0205 C   0  0  0  0  0  0  0  0  0  0  0  0
    0.0113   -0.2446   -1.5050 H   0  0  0  0  0  0  0  0  0  0  0  0
   -0.4237   -2.1976   -0.1183 H   0  0  0  0  0  0  0  0  0  0  0  0
   -0.3156   -1.2646    1.3919 H   0  0  0  0  0  0  0  0  0  0  0  0
   -0.3373    1.9195   -0.6874 H   0  0  0  0  0  0  0  0  0  0  0  0
   -2.6594    1.5806    0.3585 H   0  0  0  0  0  0  0  0  0  0  0  0
   -2.3500    1.0193   -1.2983 H   0  0  0  0  0  0  0  0  0  0  0  0
    3.1366   -0.9660   -0.0762 H   0  0  0  0  0  0  0  0  0  0  0  0
  1  6  1  0  0  0  0
  1  7  1  0  0  0  0
  2  8  1  0  0  0  0
  2 15  1  0  0  0  0
  3  8  2  0  0  0  0
  4  5  1  0  0  0  0
  4  7  1  0  0  0  0
  4 12  1  0  0  0  0
  5  6  1  0  0  0  0
  5  8  1  0  0  0  0
  5  9  1  0  0  0  0
  6 10  1  0  0  0  0
  6 11  1  0  0  0  0
  7 13  1  0  0  0  0
  7 14  1  0  0  0  0
M  END
> <PUBCHEM_COMPOUND_CID>
9934

> <PUBCHEM_CONFORMER_RMSD>
0.4

> <PUBCHEM_CONFORMER_DIVERSEORDER>
1
4
8
5
3
6
7
2

> <PUBCHEM_MMFF94_PARTIAL_CHARGES>
10
1 -0.46
12 0.36
15 0.5
2 -0.65
3 -0.57
4 -0.9
5 0.33
6 0.23
7 0.5
8 0.66

> <PUBCHEM_EFFECTIVE_ROTOR_COUNT>
2

> <PUBCHEM_PHARMACOPHORE_FEATURES>
6
1 2 acceptor
1 3 acceptor
1 4 cation
1 4 donor
3 2 3 8 anion
5 1 4 5 6 7 rings

> <PUBCHEM_HEAVY_ATOM_COUNT>
8

> <PUBCHEM_ATOM_DEF_STEREO_COUNT>
0

> <PUBCHEM_ATOM_UDEF_STEREO_COUNT>
1

> <PUBCHEM_BOND_DEF_STEREO_COUNT>
0

> <PUBCHEM_BOND_UDEF_STEREO_COUNT>
0

> <PUBCHEM_ISOTOPIC_ATOM_COUNT>
0

> <PUBCHEM_COMPONENT_COUNT>
1

> <PUBCHEM_CACTVS_TAUTO_COUNT>
1

> <PUBCHEM_CONFORMER_ID>
000026CE00000001

> <PUBCHEM_MMFF94_ENERGY>
8.6577

> <PUBCHEM_FEATURE_SELFOVERLAP>
30.502

> <PUBCHEM_SHAPE_FINGERPRINT>
10857977 72 18269561537569663409
16714656 1 18343578555807077423
21040471 1 18200031879588176421
23552423 10 18130783464597273918
24536 1 18272940379624884852
29004967 10 18339638915297481595
5084963 1 18201150039905838461

> <PUBCHEM_SHAPE_MULTIPOLES>
151.77
3.28
1.37
0.69
0.15
0
0.01
-0.19
0.13
-0.18
0.05
0
-0.01
0.33

> <PUBCHEM_SHAPE_SELFOVERLAP>
287.14

> <PUBCHEM_SHAPE_VOLUME>
95.6

> <PUBCHEM_COORDINATE_TYPE>
2
5
10

$$$$

