12635
  -OEChem-06261207113D

 10  9  0     0  0  0  0  0  0999 V2000
    2.2122   -2.0265    0.0000 N   0  0  0  0  0  0  0  0  0  0  0  0
   -2.2208   -2.0177    0.0000 N   0  0  0  0  0  0  0  0  0  0  0  0
   -2.2117    2.0274    0.0001 N   0  0  0  0  0  0  0  0  0  0  0  0
    2.2209    2.0168    0.0001 N   0  0  0  0  0  0  0  0  0  0  0  0
   -0.0016   -0.6769    0.0000 C   0  0  0  0  0  0  0  0  0  0  0  0
    0.0014    0.6769   -0.0002 C   0  0  0  0  0  0  0  0  0  0  0  0
    1.2225   -1.4199   -0.0001 C   0  0  0  0  0  0  0  0  0  0  0  0
   -1.2290   -1.4147    0.0002 C   0  0  0  0  0  0  0  0  0  0  0  0
   -1.2226    1.4200   -0.0001 C   0  0  0  0  0  0  0  0  0  0  0  0
    1.2288    1.4145    0.0000 C   0  0  0  0  0  0  0  0  0  0  0  0
  1  7  3  0  0  0  0
  2  8  3  0  0  0  0
  3  9  3  0  0  0  0
  4 10  3  0  0  0  0
  5  6  2  0  0  0  0
  5  7  1  0  0  0  0
  5  8  1  0  0  0  0
  6  9  1  0  0  0  0
  6 10  1  0  0  0  0
M  END
> <PUBCHEM_COMPOUND_CID>
12635

> <PUBCHEM_CONFORMER_RMSD>
0.4

> <PUBCHEM_CONFORMER_DIVERSEORDER>
1

> <PUBCHEM_MMFF94_PARTIAL_CHARGES>
10
1 -0.56
10 0.49
2 -0.56
3 -0.56
4 -0.56
5 0.13
6 0.13
7 0.49
8 0.49
9 0.49

> <PUBCHEM_EFFECTIVE_ROTOR_COUNT>
0

> <PUBCHEM_PHARMACOPHORE_FEATURES>
4
1 1 acceptor
1 2 acceptor
1 3 acceptor
1 4 acceptor

> <PUBCHEM_HEAVY_ATOM_COUNT>
10

> <PUBCHEM_ATOM_DEF_STEREO_COUNT>
0

> <PUBCHEM_ATOM_UDEF_STEREO_COUNT>
0

> <PUBCHEM_BOND_DEF_STEREO_COUNT>
0

> <PUBCHEM_BOND_UDEF_STEREO_COUNT>
0

> <PUBCHEM_ISOTOPIC_ATOM_COUNT>
0

> <PUBCHEM_COMPONENT_COUNT>
1

> <PUBCHEM_CACTVS_TAUTO_COUNT>
1

> <PUBCHEM_CONFORMER_ID>
0000315B00000001

> <PUBCHEM_MMFF94_ENERGY>
8.326

> <PUBCHEM_FEATURE_SELFOVERLAP>
20.297

> <PUBCHEM_SHAPE_FINGERPRINT>
161256 15 18264750104503568071
193761 8 18410855464423129095
23552423 10 18342452600007611766
2748010 2 18410575093253013663
5084963 1 16817694718419836987

> <PUBCHEM_SHAPE_MULTIPOLES>
185.87
2.95
2.9
0.58
0
0
0
0
0
0
0
0
0
0

> <PUBCHEM_SHAPE_SELFOVERLAP>
372.615

> <PUBCHEM_SHAPE_VOLUME>
101.8

> <PUBCHEM_COORDINATE_TYPE>
2
5
10

$$$$

