17396137
  -OEChem-06241222542D

 51 53  0     1  0  0  0  0  0999 V2000
    4.5981    0.8874    0.0000 S   0  0  0  0  0  0  0  0  0  0  0  0
    2.8660   -0.1126    0.0000 O   0  0  0  0  0  0  0  0  0  0  0  0
    8.0362    4.7058    0.0000 O   0  0  0  0  0  0  0  0  0  0  0  0
    3.7320   -1.6126    0.0000 N   0  0  0  0  0  0  0  0  0  0  0  0
    5.5686    2.3819    0.0000 N   0  0  0  0  0  0  0  0  0  0  0  0
    6.3776    0.9807    0.0000 N   0  0  0  0  0  0  0  0  0  0  0  0
    7.0468    1.7238    0.0000 N   0  0  0  0  0  0  0  0  0  0  0  0
    2.8660   -3.1126    0.0000 C   0  0  0  0  0  0  0  0  0  0  0  0
    2.0000   -3.6126    0.0000 C   0  0  0  0  0  0  0  0  0  0  0  0
    3.7320   -3.6126    0.0000 C   0  0  0  0  0  0  0  0  0  0  0  0
    2.0000   -4.6126    0.0000 C   0  0  0  0  0  0  0  0  0  0  0  0
    3.7320   -4.6126    0.0000 C   0  0  0  0  0  0  0  0  0  0  0  0
    2.8660   -5.1126    0.0000 C   0  0  0  0  0  0  0  0  0  0  0  0
    2.8660   -2.1126    0.0000 C   0  0  0  0  0  0  0  0  0  0  0  0
    3.7320   -0.6126    0.0000 C   0  0  0  0  0  0  0  0  0  0  0  0
    4.5981   -0.1126    0.0000 C   0  0  3  0  0  0  0  0  0  0  0  0
    5.4641   -0.6126    0.0000 C   0  0  0  0  0  0  0  0  0  0  0  0
    5.4641    1.3874    0.0000 C   0  0  0  0  0  0  0  0  0  0  0  0
    6.5468    2.5899    0.0000 C   0  0  0  0  0  0  0  0  0  0  0  0
    6.9535    3.5034    0.0000 C   0  0  0  0  0  0  0  0  0  0  0  0
    4.8255    3.0511    0.0000 C   0  0  0  0  0  0  0  0  0  0  0  0
    7.9317    3.7113    0.0000 C   0  0  0  0  0  0  0  0  0  0  0  0
    6.4535    4.3694    0.0000 C   0  0  0  0  0  0  0  0  0  0  0  0
    8.6748    3.0422    0.0000 C   0  0  0  0  0  0  0  0  0  0  0  0
    7.1226    5.1126    0.0000 C   0  0  0  0  0  0  0  0  0  0  0  0
    3.4030   -2.8026    0.0000 H   0  0  0  0  0  0  0  0  0  0  0  0
    4.3426   -3.7202    0.0000 H   0  0  0  0  0  0  0  0  0  0  0  0
    3.9441   -3.0300    0.0000 H   0  0  0  0  0  0  0  0  0  0  0  0
    1.7880   -3.0300    0.0000 H   0  0  0  0  0  0  0  0  0  0  0  0
    1.3894   -3.7202    0.0000 H   0  0  0  0  0  0  0  0  0  0  0  0
    3.9441   -5.1952    0.0000 H   0  0  0  0  0  0  0  0  0  0  0  0
    4.3426   -4.5049    0.0000 H   0  0  0  0  0  0  0  0  0  0  0  0
    1.3894   -4.5049    0.0000 H   0  0  0  0  0  0  0  0  0  0  0  0
    1.7880   -5.1952    0.0000 H   0  0  0  0  0  0  0  0  0  0  0  0
    2.4675   -5.5875    0.0000 H   0  0  0  0  0  0  0  0  0  0  0  0
    3.2646   -5.5875    0.0000 H   0  0  0  0  0  0  0  0  0  0  0  0
    2.6540   -1.5300    0.0000 H   0  0  0  0  0  0  0  0  0  0  0  0
    2.2554   -2.2202    0.0000 H   0  0  0  0  0  0  0  0  0  0  0  0
    4.2690   -1.9226    0.0000 H   0  0  0  0  0  0  0  0  0  0  0  0
    5.1350    0.1974    0.0000 H   0  0  0  0  0  0  0  0  0  0  0  0
    5.1541   -1.1495    0.0000 H   0  0  0  0  0  0  0  0  0  0  0  0
    6.0010   -0.9226    0.0000 H   0  0  0  0  0  0  0  0  0  0  0  0
    5.7741   -0.0756    0.0000 H   0  0  0  0  0  0  0  0  0  0  0  0
    5.2404    3.5118    0.0000 H   0  0  0  0  0  0  0  0  0  0  0  0
    4.3647    3.4659    0.0000 H   0  0  0  0  0  0  0  0  0  0  0  0
    4.4106    2.5903    0.0000 H   0  0  0  0  0  0  0  0  0  0  0  0
    5.8369    4.4342    0.0000 H   0  0  0  0  0  0  0  0  0  0  0  0
    8.2600    2.5814    0.0000 H   0  0  0  0  0  0  0  0  0  0  0  0
    9.1356    2.6273    0.0000 H   0  0  0  0  0  0  0  0  0  0  0  0
    9.0897    3.5029    0.0000 H   0  0  0  0  0  0  0  0  0  0  0  0
    6.9937    5.7190    0.0000 H   0  0  0  0  0  0  0  0  0  0  0  0
  1 16  1  0  0  0  0
  1 18  1  0  0  0  0
  2 15  2  0  0  0  0
  3 22  1  0  0  0  0
  3 25  1  0  0  0  0
  4 14  1  0  0  0  0
  4 15  1  0  0  0  0
  4 39  1  0  0  0  0
  5 18  1  0  0  0  0
  5 19  1  0  0  0  0
  5 21  1  0  0  0  0
  6  7  1  0  0  0  0
  6 18  2  0  0  0  0
  7 19  2  0  0  0  0
  8  9  1  0  0  0  0
  8 10  1  0  0  0  0
  8 14  1  0  0  0  0
  8 26  1  0  0  0  0
  9 11  1  0  0  0  0
  9 29  1  0  0  0  0
  9 30  1  0  0  0  0
 10 12  1  0  0  0  0
 10 27  1  0  0  0  0
 10 28  1  0  0  0  0
 11 13  1  0  0  0  0
 11 33  1  0  0  0  0
 11 34  1  0  0  0  0
 12 13  1  0  0  0  0
 12 31  1  0  0  0  0
 12 32  1  0  0  0  0
 13 35  1  0  0  0  0
 13 36  1  0  0  0  0
 14 37  1  0  0  0  0
 14 38  1  0  0  0  0
 15 16  1  0  0  0  0
 16 17  1  0  0  0  0
 16 40  1  0  0  0  0
 17 41  1  0  0  0  0
 17 42  1  0  0  0  0
 17 43  1  0  0  0  0
 19 20  1  0  0  0  0
 20 22  2  0  0  0  0
 20 23  1  0  0  0  0
 21 44  1  0  0  0  0
 21 45  1  0  0  0  0
 21 46  1  0  0  0  0
 22 24  1  0  0  0  0
 23 25  2  0  0  0  0
 23 47  1  0  0  0  0
 24 48  1  0  0  0  0
 24 49  1  0  0  0  0
 24 50  1  0  0  0  0
 25 51  1  0  0  0  0
M  END
> <PUBCHEM_COMPOUND_CID>
17396137

> <PUBCHEM_COMPOUND_CANONICALIZED>
1

> <PUBCHEM_CACTVS_COMPLEXITY>
447

> <PUBCHEM_CACTVS_HBOND_ACCEPTOR>
5

> <PUBCHEM_CACTVS_HBOND_DONOR>
1

> <PUBCHEM_CACTVS_ROTATABLE_BOND>
6

> <PUBCHEM_CACTVS_SUBSKEYS>
AAADceB7sABAAAAAAAAAAAAAAAAAAWJAAAAwAAAAAAAAAAAB4AAAHgQYAAAADQTl2wazFIfMFEiqAqtytACS2AtkILAdyKEuDNiMLrqEvBuGGSjm3hOIqYe8gAAOAAAAAAAAAAAAAAAAAAAAAAAAAAAAAA==

> <PUBCHEM_IUPAC_OPENEYE_NAME>
N-(cyclohexylmethyl)-2-[[4-methyl-5-(2-methyl-3-furyl)-1,2,4-triazol-3-yl]sulfanyl]propanamide

> <PUBCHEM_IUPAC_CAS_NAME>
N-(cyclohexylmethyl)-2-[[4-methyl-5-(2-methyl-3-furanyl)-1,2,4-triazol-3-yl]thio]propanamide

> <PUBCHEM_IUPAC_NAME>
N-(cyclohexylmethyl)-2-[[4-methyl-5-(2-methylfuran-3-yl)-1,2,4-triazol-3-yl]sulfanyl]propanamide

> <PUBCHEM_IUPAC_SYSTEMATIC_NAME>
N-(cyclohexylmethyl)-2-[[4-methyl-5-(2-methylfuran-3-yl)-1,2,4-triazol-3-yl]sulfanyl]propanamide

> <PUBCHEM_IUPAC_TRADITIONAL_NAME>
N-(cyclohexylmethyl)-2-[[4-methyl-5-(2-methyl-3-furyl)-1,2,4-triazol-3-yl]thio]propionamide

> <PUBCHEM_IUPAC_INCHI>
InChI=1S/C18H26N4O2S/c1-12-15(9-10-24-12)16-20-21-18(22(16)3)25-13(2)17(23)19-11-14-7-5-4-6-8-14/h9-10,13-14H,4-8,11H2,1-3H3,(H,19,23)

> <PUBCHEM_IUPAC_INCHIKEY>
OSTOGLSZOICDLE-UHFFFAOYSA-N

> <PUBCHEM_XLOGP3_AA>
3.5

> <PUBCHEM_EXACT_MASS>
362.177647

> <PUBCHEM_MOLECULAR_FORMULA>
C18H26N4O2S

> <PUBCHEM_MOLECULAR_WEIGHT>
362.48964

> <PUBCHEM_OPENEYE_CAN_SMILES>
CC1=C(C=CO1)C2=NN=C(N2C)SC(C)C(=O)NCC3CCCCC3

> <PUBCHEM_OPENEYE_ISO_SMILES>
CC1=C(C=CO1)C2=NN=C(N2C)SC(C)C(=O)NCC3CCCCC3

> <PUBCHEM_CACTVS_TPSA>
98.2

> <PUBCHEM_MONOISOTOPIC_WEIGHT>
362.177647

> <PUBCHEM_TOTAL_CHARGE>
0

> <PUBCHEM_HEAVY_ATOM_COUNT>
25

> <PUBCHEM_ATOM_DEF_STEREO_COUNT>
0

> <PUBCHEM_ATOM_UDEF_STEREO_COUNT>
1

> <PUBCHEM_BOND_DEF_STEREO_COUNT>
0

> <PUBCHEM_BOND_UDEF_STEREO_COUNT>
0

> <PUBCHEM_ISOTOPIC_ATOM_COUNT>
0

> <PUBCHEM_COMPONENT_COUNT>
1

> <PUBCHEM_CACTVS_TAUTO_COUNT>
2

> <PUBCHEM_COORDINATE_TYPE>
1
5
255

> <PUBCHEM_BONDANNOTATIONS>
16  17  3
20  22  8
20  23  8
23  25  8
3  22  8
3  25  8
5  18  8
5  19  8
6  18  8
6  7  8
7  19  8

$$$$

