854300
  -OEChem-06241222473D

 32 33  0     0  0  0  0  0  0999 V2000
    0.3860   -1.6763   -0.1154 O   0  0  0  0  0  0  0  0  0  0  0  0
   -0.6229    0.2797   -0.9458 N   0  0  0  0  0  0  0  0  0  0  0  0
    1.6913   -0.1647   -1.4712 C   0  0  0  0  0  0  0  0  0  0  0  0
    2.8385    0.0434   -0.5329 C   0  0  0  0  0  0  0  0  0  0  0  0
   -1.9269    0.2058   -0.4554 C   0  0  0  0  0  0  0  0  0  0  0  0
    0.4296   -0.6326   -0.7589 C   0  0  0  0  0  0  0  0  0  0  0  0
   -4.5345    0.0585    0.5252 C   0  0  0  0  0  0  0  0  0  0  0  0
   -2.8408    1.2176   -0.7495 C   0  0  0  0  0  0  0  0  0  0  0  0
   -2.3168   -0.8797    0.3290 C   0  0  0  0  0  0  0  0  0  0  0  0
    3.0323    1.2890    0.0584 C   0  0  0  0  0  0  0  0  0  0  0  0
    3.7065   -1.0095   -0.2563 C   0  0  0  0  0  0  0  0  0  0  0  0
   -4.1447    1.1441   -0.2591 C   0  0  0  0  0  0  0  0  0  0  0  0
   -3.6205   -0.9534    0.8192 C   0  0  0  0  0  0  0  0  0  0  0  0
    4.1019    1.4831    0.9326 C   0  0  0  0  0  0  0  0  0  0  0  0
    4.7760   -0.8154    0.6180 C   0  0  0  0  0  0  0  0  0  0  0  0
   -5.9286   -0.0204    1.0496 C   0  0  0  0  0  0  0  0  0  0  0  0
    4.9736    0.4310    1.2124 C   0  0  0  0  0  0  0  0  0  0  0  0
    1.5159    0.7519   -2.0471 H   0  0  0  0  0  0  0  0  0  0  0  0
    1.9438   -0.9282   -2.2184 H   0  0  0  0  0  0  0  0  0  0  0  0
   -0.4269    1.1062   -1.5060 H   0  0  0  0  0  0  0  0  0  0  0  0
   -2.5510    2.0692   -1.3599 H   0  0  0  0  0  0  0  0  0  0  0  0
   -1.6685   -1.7013    0.5991 H   0  0  0  0  0  0  0  0  0  0  0  0
    2.3583    2.1154   -0.1507 H   0  0  0  0  0  0  0  0  0  0  0  0
    3.5622   -1.9854   -0.7119 H   0  0  0  0  0  0  0  0  0  0  0  0
   -4.8481    1.9378   -0.4966 H   0  0  0  0  0  0  0  0  0  0  0  0
   -3.9142   -1.8047    1.4279 H   0  0  0  0  0  0  0  0  0  0  0  0
    4.2555    2.4534    1.3959 H   0  0  0  0  0  0  0  0  0  0  0  0
    5.4547   -1.6348    0.8364 H   0  0  0  0  0  0  0  0  0  0  0  0
   -5.9599   -0.5445    2.0108 H   0  0  0  0  0  0  0  0  0  0  0  0
   -6.3456    0.9787    1.2161 H   0  0  0  0  0  0  0  0  0  0  0  0
   -6.5677   -0.5531    0.3385 H   0  0  0  0  0  0  0  0  0  0  0  0
    5.8062    0.5820    1.8932 H   0  0  0  0  0  0  0  0  0  0  0  0
  1  6  2  0  0  0  0
  2  5  1  0  0  0  0
  2  6  1  0  0  0  0
  2 20  1  0  0  0  0
  3  4  1  0  0  0  0
  3  6  1  0  0  0  0
  3 18  1  0  0  0  0
  3 19  1  0  0  0  0
  4 10  2  0  0  0  0
  4 11  1  0  0  0  0
  5  8  2  0  0  0  0
  5  9  1  0  0  0  0
  7 12  2  0  0  0  0
  7 13  1  0  0  0  0
  7 16  1  0  0  0  0
  8 12  1  0  0  0  0
  8 21  1  0  0  0  0
  9 13  2  0  0  0  0
  9 22  1  0  0  0  0
 10 14  1  0  0  0  0
 10 23  1  0  0  0  0
 11 15  2  0  0  0  0
 11 24  1  0  0  0  0
 12 25  1  0  0  0  0
 13 26  1  0  0  0  0
 14 17  2  0  0  0  0
 14 27  1  0  0  0  0
 15 17  1  0  0  0  0
 15 28  1  0  0  0  0
 16 29  1  0  0  0  0
 16 30  1  0  0  0  0
 16 31  1  0  0  0  0
 17 32  1  0  0  0  0
M  END
> <PUBCHEM_COMPOUND_CID>
854300

> <PUBCHEM_CONFORMER_RMSD>
0.6

> <PUBCHEM_CONFORMER_DIVERSEORDER>
2
13
5
14
9
8
7
10
11
6
4
3
12
1

> <PUBCHEM_MMFF94_PARTIAL_CHARGES>
27
1 -0.57
10 -0.15
11 -0.15
12 -0.15
13 -0.15
14 -0.15
15 -0.15
16 0.14
17 -0.15
2 -0.55
20 0.37
21 0.15
22 0.15
23 0.15
24 0.15
25 0.15
26 0.15
27 0.15
28 0.15
3 0.2
32 0.15
4 -0.14
5 0.12
6 0.57
7 -0.14
8 -0.15
9 -0.15

> <PUBCHEM_EFFECTIVE_ROTOR_COUNT>
4

> <PUBCHEM_PHARMACOPHORE_FEATURES>
4
1 1 acceptor
1 2 donor
6 4 10 11 14 15 17 rings
6 5 7 8 9 12 13 rings

> <PUBCHEM_HEAVY_ATOM_COUNT>
17

> <PUBCHEM_ATOM_DEF_STEREO_COUNT>
0

> <PUBCHEM_ATOM_UDEF_STEREO_COUNT>
0

> <PUBCHEM_BOND_DEF_STEREO_COUNT>
0

> <PUBCHEM_BOND_UDEF_STEREO_COUNT>
0

> <PUBCHEM_ISOTOPIC_ATOM_COUNT>
0

> <PUBCHEM_COMPONENT_COUNT>
1

> <PUBCHEM_CACTVS_TAUTO_COUNT>
2

> <PUBCHEM_CONFORMER_ID>
000D091C00000002

> <PUBCHEM_MMFF94_ENERGY>
47.7342

> <PUBCHEM_FEATURE_SELFOVERLAP>
20.297

> <PUBCHEM_SHAPE_FINGERPRINT>
10354089 29 18186802470284557144
10498660 4 5617260299096153170
10688039 33 18410575110528828968
12236239 1 15913323598344792373
12403259 415 18411698819938332644
12507560 40 18342179981443408580
12596602 18 17275388698708305496
12670546 177 7204772600876219074
13167372 99 17096076017365261601
13167823 11 15626219104803963833
13533116 47 18338794632012184355
13675066 3 18341614832303246966
13914758 101 15841281411145878511
14178342 30 17845369019766531973
1420 369 15841556279460568096
14251764 75 17534913978949775040
14341114 176 18342174475295497400
14366163 111 4967611672128925506
14528608 73 4750870438182104209
15183329 4 11455904550716417871
15188451 53 17560526105764330859
15342168 16 17095520660603016620
17349148 13 16845566505139488787
17862501 102 16917348130200768185
17870717 6 8862945000446813721
1798214 20 12391517481544465400
1813 80 15051730932396331998
18186145 218 17603861204783762262
18222031 100 16128654141366267103
193927 3 13542467613294942432
19433438 28 18341895220442364805
19784866 240 14261346956077791947
20281475 54 11671518810629295316
20325693 3 6988320543341846781
20369508 70 13901907783005321004
204376 136 17530965778258400335
20871999 31 8142093077868659519
21033648 29 18337128833362704264
21065199 12 18343306985093568540
21637258 2 14692302767889023176
22079108 93 17821726105375809815
221357 26 9727637181100637363
22646028 1 15841551872781930709
22854114 59 18407758135999323973
23402655 69 5473144011703744095
23559900 14 18200018685296065638
2838139 119 4749153109332899762
2871803 45 9871756805935452908
3004659 81 6627482787215876972
3472631 163 14779555547655208040
351380 180 18408326587700492769
351380 3 15339121251488394760
4047638 21 17676203576707385518
42 15 17917712413591418302
4259306 186 12319467610026677480
4325135 7 17240769432951887175
465052 167 15195278733569259746
474 4 17022620853759028098
4990 188 8286201647658225766
5104073 3 18339921524103373963
5374978 207 18412539907662998956
542803 24 16515405174650941749
559249 180 16056608681249019689
573450 72 16988842791613006101
5924683 9 18337394812519475479
6327066 14 9437389227620998874
633830 44 16588291817562333335
94968 8 12679465287872045228
960060 61 10663818576841238296

> <PUBCHEM_SHAPE_MULTIPOLES>
339
12.87
1.38
1.18
3.45
0.09
0.03
1.42
-5.63
-0.49
-0.08
-0.28
0.06
0.92

> <PUBCHEM_SHAPE_SELFOVERLAP>
720.173

> <PUBCHEM_SHAPE_VOLUME>
188.4

> <PUBCHEM_COORDINATE_TYPE>
2
5
10

$$$$

