8820
  -OEChem-06261203082D

 12 11  0     0  0  0  0  0  0999 V2000
    4.2690    1.0600    0.0000 O   0  0  0  0  0  0  0  0  0  0  0  0
    3.4030   -0.4400    0.0000 N   0  0  0  0  0  0  0  0  0  0  0  0
    2.5369    0.0600    0.0000 N   0  0  0  0  0  0  0  0  0  0  0  0
    6.8671    0.5600    0.0000 N   0  0  0  0  0  0  0  0  0  0  0  0
    5.1350   -0.4400    0.0000 C   0  0  0  0  0  0  0  0  0  0  0  0
    4.2690    0.0600    0.0000 C   0  0  0  0  0  0  0  0  0  0  0  0
    6.0010    0.0600    0.0000 C   0  0  0  0  0  0  0  0  0  0  0  0
    4.7365   -0.9149    0.0000 H   0  0  0  0  0  0  0  0  0  0  0  0
    5.5335   -0.9149    0.0000 H   0  0  0  0  0  0  0  0  0  0  0  0
    3.4030   -1.0600    0.0000 H   0  0  0  0  0  0  0  0  0  0  0  0
    2.0000   -0.2500    0.0000 H   0  0  0  0  0  0  0  0  0  0  0  0
    2.5369    0.6800    0.0000 H   0  0  0  0  0  0  0  0  0  0  0  0
  1  6  2  0  0  0  0
  2  3  1  0  0  0  0
  2  6  1  0  0  0  0
  2 10  1  0  0  0  0
  3 11  1  0  0  0  0
  3 12  1  0  0  0  0
  4  7  3  0  0  0  0
  5  6  1  0  0  0  0
  5  7  1  0  0  0  0
  5  8  1  0  0  0  0
  5  9  1  0  0  0  0
M  END
> <PUBCHEM_COMPOUND_CID>
8820

> <PUBCHEM_COMPOUND_CANONICALIZED>
1

> <PUBCHEM_CACTVS_COMPLEXITY>
111

> <PUBCHEM_CACTVS_HBOND_ACCEPTOR>
3

> <PUBCHEM_CACTVS_HBOND_DONOR>
2

> <PUBCHEM_CACTVS_ROTATABLE_BOND>
1

> <PUBCHEM_CACTVS_SUBSKEYS>
AAADcYBDIAAAAAAAAAAAAAAAAAAAAAAAAAAAAAAAAAAAAAAAAAAAHgAYAAAACACBgAAAAABiAAAYBAEQEAAAAAAAAAISIAEAAAAAgAAAAAAAAAAAEAAAAAAAAAAAAAAAAAAAAAAAAAAAAAAAAAAAAAAAAA==

> <PUBCHEM_IUPAC_OPENEYE_NAME>
2-cyanoacetohydrazide

> <PUBCHEM_IUPAC_CAS_NAME>
2-cyanoacetohydrazide

> <PUBCHEM_IUPAC_NAME>
2-cyanoacetohydrazide

> <PUBCHEM_IUPAC_SYSTEMATIC_NAME>
2-cyanoethanehydrazide

> <PUBCHEM_IUPAC_TRADITIONAL_NAME>
2-cyanoacetohydrazide

> <PUBCHEM_IUPAC_INCHI>
InChI=1S/C3H5N3O/c4-2-1-3(7)6-5/h1,5H2,(H,6,7)

> <PUBCHEM_IUPAC_INCHIKEY>
HPHBOJANXDKUQD-UHFFFAOYSA-N

> <PUBCHEM_XLOGP3_AA>
-1.3

> <PUBCHEM_EXACT_MASS>
99.043262

> <PUBCHEM_MOLECULAR_FORMULA>
C3H5N3O

> <PUBCHEM_MOLECULAR_WEIGHT>
99.0913

> <PUBCHEM_OPENEYE_CAN_SMILES>
C(C#N)C(=O)NN

> <PUBCHEM_OPENEYE_ISO_SMILES>
C(C#N)C(=O)NN

> <PUBCHEM_CACTVS_TPSA>
78.9

> <PUBCHEM_MONOISOTOPIC_WEIGHT>
99.043262

> <PUBCHEM_TOTAL_CHARGE>
0

> <PUBCHEM_HEAVY_ATOM_COUNT>
7

> <PUBCHEM_ATOM_DEF_STEREO_COUNT>
0

> <PUBCHEM_ATOM_UDEF_STEREO_COUNT>
0

> <PUBCHEM_BOND_DEF_STEREO_COUNT>
0

> <PUBCHEM_BOND_UDEF_STEREO_COUNT>
0

> <PUBCHEM_ISOTOPIC_ATOM_COUNT>
0

> <PUBCHEM_COMPONENT_COUNT>
1

> <PUBCHEM_CACTVS_TAUTO_COUNT>
2

> <PUBCHEM_COORDINATE_TYPE>
1
5
255

$$$$

