12868
  -OEChem-06261207283D

 16 16  0     0  0  0  0  0  0999 V2000
   -1.5847   -2.7028   -0.0788 Cl  0  0  0  0  0  0  0  0  0  0  0  0
    1.5846   -2.7029    0.0785 Cl  0  0  0  0  0  0  0  0  0  0  0  0
   -1.5845    2.7034   -0.0792 Cl  0  0  0  0  0  0  0  0  0  0  0  0
    1.5847    2.7033    0.0792 Cl  0  0  0  0  0  0  0  0  0  0  0  0
   -3.8410   -0.0016    1.3252 Cl  0  0  0  0  0  0  0  0  0  0  0  0
    3.8401   -0.0013   -1.3258 Cl  0  0  0  0  0  0  0  0  0  0  0  0
   -3.3961    0.0003   -1.2629 O   0  0  0  0  0  0  0  0  0  0  0  0
    3.3967   -0.0002    1.2625 O   0  0  0  0  0  0  0  0  0  0  0  0
   -1.3931    0.0002   -0.0693 C   0  0  0  0  0  0  0  0  0  0  0  0
    1.3931    0.0003    0.0700 C   0  0  0  0  0  0  0  0  0  0  0  0
   -0.6966   -1.2077   -0.0345 C   0  0  0  0  0  0  0  0  0  0  0  0
    0.6966   -1.2078    0.0352 C   0  0  0  0  0  0  0  0  0  0  0  0
   -0.6965    1.2082   -0.0347 C   0  0  0  0  0  0  0  0  0  0  0  0
    0.6966    1.2082    0.0350 C   0  0  0  0  0  0  0  0  0  0  0  0
   -2.8553    0.0003   -0.1424 C   0  0  0  0  0  0  0  0  0  0  0  0
    2.8554    0.0002    0.1422 C   0  0  0  0  0  0  0  0  0  0  0  0
  1 11  1  0  0  0  0
  2 12  1  0  0  0  0
  3 13  1  0  0  0  0
  4 14  1  0  0  0  0
  5 15  1  0  0  0  0
  6 16  1  0  0  0  0
  7 15  2  0  0  0  0
  8 16  2  0  0  0  0
  9 11  2  0  0  0  0
  9 13  1  0  0  0  0
  9 15  1  0  0  0  0
 10 12  2  0  0  0  0
 10 14  1  0  0  0  0
 10 16  1  0  0  0  0
 11 12  1  0  0  0  0
 13 14  2  0  0  0  0
M  END
> <PUBCHEM_COMPOUND_CID>
12868

> <PUBCHEM_CONFORMER_RMSD>
0.6

> <PUBCHEM_CONFORMER_DIVERSEORDER>
2
1

> <PUBCHEM_MMFF94_PARTIAL_CHARGES>
16
1 -0.18
10 0.09
11 0.18
12 0.18
13 0.18
14 0.18
15 0.69
16 0.69
2 -0.18
3 -0.18
4 -0.18
5 -0.21
6 -0.21
7 -0.57
8 -0.57
9 0.09

> <PUBCHEM_EFFECTIVE_ROTOR_COUNT>
2

> <PUBCHEM_PHARMACOPHORE_FEATURES>
1
6 9 10 11 12 13 14 rings

> <PUBCHEM_HEAVY_ATOM_COUNT>
16

> <PUBCHEM_ATOM_DEF_STEREO_COUNT>
0

> <PUBCHEM_ATOM_UDEF_STEREO_COUNT>
0

> <PUBCHEM_BOND_DEF_STEREO_COUNT>
0

> <PUBCHEM_BOND_UDEF_STEREO_COUNT>
0

> <PUBCHEM_ISOTOPIC_ATOM_COUNT>
0

> <PUBCHEM_COMPONENT_COUNT>
1

> <PUBCHEM_CACTVS_TAUTO_COUNT>
1

> <PUBCHEM_CONFORMER_ID>
0000324400000002

> <PUBCHEM_MMFF94_ENERGY>
53.3007

> <PUBCHEM_FEATURE_SELFOVERLAP>
5.074

> <PUBCHEM_SHAPE_FINGERPRINT>
10967382 1 18410577283686347466
11132069 177 18410020905317810258
11206711 2 18411421755909067117
11471102 22 18269817814289714379
12382932 28 18409451362463229555
12553582 1 18410854364911507812
13140716 1 18266742376586281410
13172582 1 18410292488784306769
13221675 6 18410853261120892910
13380535 21 18410846664035912614
13538477 17 18202286866600041026
14178342 30 18334868172973432938
14289901 80 15769770234629936521
14790565 3 18266718286115750565
14911166 2 18410575076099518508
15209294 21 17749669700611183433
15309172 13 18409445908055093667
16752209 62 18339933717473517013
16945 1 18410577283686334470
18186145 218 18336827494066855700
193761 8 12717463816326086662
20510252 161 18261113014734225552
20588541 1 18410571790428697494
20645476 183 17631724972641716830
20739085 24 17977639207488261585
20871999 31 18194103132919567070
21501502 16 18122627424770569198
2334 1 17978795601420091399
23402539 116 18263100914497740742
23419403 2 14956126364561745376
23493267 7 17418380220312722289
23526114 1 18122908616268999300
23559900 14 18334848378544812332
2748010 2 18122629344594576718
53812653 8 18341885324995834068
7364860 26 18116430328624829216
74978 22 18337671893200615260

> <PUBCHEM_SHAPE_MULTIPOLES>
328.75
5.75
2.98
1
0
0
0
0
0
0
0
0
0
0

> <PUBCHEM_SHAPE_SELFOVERLAP>
642.48

> <PUBCHEM_SHAPE_VOLUME>
199.8

> <PUBCHEM_COORDINATE_TYPE>
2
5
10

$$$$

