12362
  -OEChem-06261206523D

 17 16  0     0  0  0  0  0  0999 V2000
    0.0012    0.0351   -0.9916 O   0  0  0  0  0  0  0  0  0  0  0  0
    1.6768    0.2877    0.7001 O   0  0  0  0  0  0  0  0  0  0  0  0
   -1.6719   -0.3215    0.6840 O   0  0  0  0  0  0  0  0  0  0  0  0
    0.7565    0.9337   -0.1778 C   0  0  0  0  0  0  0  0  0  0  0  0
   -0.7477   -0.9120   -0.2285 C   0  0  0  0  0  0  0  0  0  0  0  0
    2.6556   -0.4637   -0.0054 C   0  0  0  0  0  0  0  0  0  0  0  0
   -2.6705    0.4407    0.0192 C   0  0  0  0  0  0  0  0  0  0  0  0
    1.3028    1.6146   -0.8400 H   0  0  0  0  0  0  0  0  0  0  0  0
    0.0816    1.5485    0.4262 H   0  0  0  0  0  0  0  0  0  0  0  0
   -1.2897   -1.5589   -0.9275 H   0  0  0  0  0  0  0  0  0  0  0  0
   -0.0703   -1.5562    0.3411 H   0  0  0  0  0  0  0  0  0  0  0  0
    3.3445   -0.8972    0.7247 H   0  0  0  0  0  0  0  0  0  0  0  0
    3.2258    0.1857   -0.6766 H   0  0  0  0  0  0  0  0  0  0  0  0
    2.1979   -1.2793   -0.5721 H   0  0  0  0  0  0  0  0  0  0  0  0
   -3.3591    0.8327    0.7727 H   0  0  0  0  0  0  0  0  0  0  0  0
   -3.2365   -0.1904   -0.6729 H   0  0  0  0  0  0  0  0  0  0  0  0
   -2.2305    1.2859   -0.5177 H   0  0  0  0  0  0  0  0  0  0  0  0
  1  4  1  0  0  0  0
  1  5  1  0  0  0  0
  2  4  1  0  0  0  0
  2  6  1  0  0  0  0
  3  5  1  0  0  0  0
  3  7  1  0  0  0  0
  4  8  1  0  0  0  0
  4  9  1  0  0  0  0
  5 10  1  0  0  0  0
  5 11  1  0  0  0  0
  6 12  1  0  0  0  0
  6 13  1  0  0  0  0
  6 14  1  0  0  0  0
  7 15  1  0  0  0  0
  7 16  1  0  0  0  0
  7 17  1  0  0  0  0
M  END
> <PUBCHEM_COMPOUND_CID>
12362

> <PUBCHEM_CONFORMER_RMSD>
0.6

> <PUBCHEM_CONFORMER_DIVERSEORDER>
1
14
13
15
6
7
4
3
12
9
8
11
2
5
10

> <PUBCHEM_MMFF94_PARTIAL_CHARGES>
7
1 -0.56
2 -0.56
3 -0.56
4 0.56
5 0.56
6 0.28
7 0.28

> <PUBCHEM_EFFECTIVE_ROTOR_COUNT>
4

> <PUBCHEM_PHARMACOPHORE_FEATURES>
3
1 1 acceptor
1 2 acceptor
1 3 acceptor

> <PUBCHEM_HEAVY_ATOM_COUNT>
7

> <PUBCHEM_ATOM_DEF_STEREO_COUNT>
0

> <PUBCHEM_ATOM_UDEF_STEREO_COUNT>
0

> <PUBCHEM_BOND_DEF_STEREO_COUNT>
0

> <PUBCHEM_BOND_UDEF_STEREO_COUNT>
0

> <PUBCHEM_ISOTOPIC_ATOM_COUNT>
0

> <PUBCHEM_COMPONENT_COUNT>
1

> <PUBCHEM_CACTVS_TAUTO_COUNT>
1

> <PUBCHEM_CONFORMER_ID>
0000304A00000001

> <PUBCHEM_MMFF94_ENERGY>
16.9062

> <PUBCHEM_FEATURE_SELFOVERLAP>
15.288

> <PUBCHEM_SHAPE_FINGERPRINT>
12897270 3 9367351430960216259
139733 1 15502649377919374900
14390081 3 5545203804733350779
16714656 1 12679460884992418801
20096714 4 16226043349515713984
20651381 17 15502380044820478231
24536 1 18126298432144886690
29004967 10 15052014554545083652
5460574 1 9223234048145489971

> <PUBCHEM_SHAPE_MULTIPOLES>
126.45
3.72
0.94
0.81
0.04
0
0.05
-0.02
-0.48
-0.01
0.04
0
0
0.04

> <PUBCHEM_SHAPE_SELFOVERLAP>
218.775

> <PUBCHEM_SHAPE_VOLUME>
83.5

> <PUBCHEM_COORDINATE_TYPE>
2
5
10

$$$$

