12274
  -OEChem-06261206453D

 11 11  0     0  0  0  0  0  0999 V2000
   -2.7795    1.2476   -0.0009 Br  0  0  0  0  0  0  0  0  0  0  0  0
    2.7789    1.2481    0.0004 Br  0  0  0  0  0  0  0  0  0  0  0  0
    0.0000    0.9865    0.0003 N   0  0  0  0  0  0  0  0  0  0  0  0
    0.0003   -1.8087   -0.0001 C   0  0  0  0  0  0  0  0  0  0  0  0
   -1.2024   -1.1107    0.0007 C   0  0  0  0  0  0  0  0  0  0  0  0
    1.2027   -1.1106   -0.0007 C   0  0  0  0  0  0  0  0  0  0  0  0
   -1.1487    0.2738    0.0010 C   0  0  0  0  0  0  0  0  0  0  0  0
    1.1487    0.2739   -0.0007 C   0  0  0  0  0  0  0  0  0  0  0  0
    0.0003   -2.8945   -0.0004 H   0  0  0  0  0  0  0  0  0  0  0  0
   -2.1429   -1.6515    0.0008 H   0  0  0  0  0  0  0  0  0  0  0  0
    2.1434   -1.6511   -0.0011 H   0  0  0  0  0  0  0  0  0  0  0  0
  1  7  1  0  0  0  0
  2  8  1  0  0  0  0
  3  7  2  0  0  0  0
  3  8  1  0  0  0  0
  4  5  2  0  0  0  0
  4  6  1  0  0  0  0
  4  9  1  0  0  0  0
  5  7  1  0  0  0  0
  5 10  1  0  0  0  0
  6  8  2  0  0  0  0
  6 11  1  0  0  0  0
M  END
> <PUBCHEM_COMPOUND_CID>
12274

> <PUBCHEM_CONFORMER_RMSD>
0.4

> <PUBCHEM_CONFORMER_DIVERSEORDER>
1

> <PUBCHEM_MMFF94_PARTIAL_CHARGES>
11
1 -0.11
10 0.15
11 0.15
2 -0.11
3 -0.62
4 -0.15
5 -0.15
6 -0.15
7 0.42
8 0.42
9 0.15

> <PUBCHEM_EFFECTIVE_ROTOR_COUNT>
0

> <PUBCHEM_PHARMACOPHORE_FEATURES>
4
1 1 hydrophobe
1 2 hydrophobe
1 3 acceptor
6 3 4 5 6 7 8 rings

> <PUBCHEM_HEAVY_ATOM_COUNT>
8

> <PUBCHEM_ATOM_DEF_STEREO_COUNT>
0

> <PUBCHEM_ATOM_UDEF_STEREO_COUNT>
0

> <PUBCHEM_BOND_DEF_STEREO_COUNT>
0

> <PUBCHEM_BOND_UDEF_STEREO_COUNT>
0

> <PUBCHEM_ISOTOPIC_ATOM_COUNT>
0

> <PUBCHEM_COMPONENT_COUNT>
1

> <PUBCHEM_CACTVS_TAUTO_COUNT>
1

> <PUBCHEM_CONFORMER_ID>
00002FF200000001

> <PUBCHEM_MMFF94_ENERGY>
13.8404

> <PUBCHEM_FEATURE_SELFOVERLAP>
20.297

> <PUBCHEM_SHAPE_FINGERPRINT>
14325111 11 18410856563950873441
14390081 3 18334296456933523401
16714656 1 18122340169047491910
21040471 1 18410573972335127520
23235685 24 18410860961981592773
23552423 10 18200313196120673438
241688 4 16896235616856170250
2748010 2 18411129238534190111
29004967 10 17981600790975125619

> <PUBCHEM_SHAPE_MULTIPOLES>
171.54
3.69
1.92
0.64
0
0.47
0
-2.54
0
0
0
0
-0.03
0

> <PUBCHEM_SHAPE_SELFOVERLAP>
323.643

> <PUBCHEM_SHAPE_VOLUME>
110.5

> <PUBCHEM_COORDINATE_TYPE>
2
5
10

$$$$

