854091
  -OEChem-06241222472D

 35 36  0     0  0  0  0  0  0999 V2000
    3.7320    0.0103    0.0000 S   0  0  0  0  0  0  0  0  0  0  0  0
    3.2320   -0.8557    0.0000 O   0  0  0  0  0  0  0  0  0  0  0  0
    4.2320    0.8763    0.0000 O   0  0  0  0  0  0  0  0  0  0  0  0
    7.2764   -1.7944    0.0000 N   0  0  0  0  0  0  0  0  0  0  0  0
    2.8660    0.5103    0.0000 N   0  0  0  0  0  0  0  0  0  0  0  0
    8.8762    1.9223    0.0000 N   0  0  0  0  0  0  0  0  0  0  0  0
    6.3301   -0.4897    0.0000 C   0  0  0  0  0  0  0  0  0  0  0  0
    7.2764   -0.1850    0.0000 C   0  0  0  0  0  0  0  0  0  0  0  0
    6.3301   -1.4897    0.0000 C   0  0  0  0  0  0  0  0  0  0  0  0
    4.5981   -0.4897    0.0000 C   0  0  0  0  0  0  0  0  0  0  0  0
    5.4641    0.0103    0.0000 C   0  0  0  0  0  0  0  0  0  0  0  0
    7.5870    0.7656    0.0000 C   0  0  0  0  0  0  0  0  0  0  0  0
    7.8600   -0.9897    0.0000 C   0  0  0  0  0  0  0  0  0  0  0  0
    5.4641   -1.9897    0.0000 C   0  0  0  0  0  0  0  0  0  0  0  0
    4.5981   -1.4897    0.0000 C   0  0  0  0  0  0  0  0  0  0  0  0
    8.5655    0.9718    0.0000 C   0  0  0  0  0  0  0  0  0  0  0  0
    2.0000    0.0103    0.0000 C   0  0  0  0  0  0  0  0  0  0  0  0
    2.8660    1.5103    0.0000 C   0  0  0  0  0  0  0  0  0  0  0  0
    5.4641    0.6303    0.0000 H   0  0  0  0  0  0  0  0  0  0  0  0
    7.5664    1.3852    0.0000 H   0  0  0  0  0  0  0  0  0  0  0  0
    6.9732    0.8529    0.0000 H   0  0  0  0  0  0  0  0  0  0  0  0
    8.4800   -0.9897    0.0000 H   0  0  0  0  0  0  0  0  0  0  0  0
    7.4690   -2.3838    0.0000 H   0  0  0  0  0  0  0  0  0  0  0  0
    5.4641   -2.6097    0.0000 H   0  0  0  0  0  0  0  0  0  0  0  0
    4.0611   -1.7997    0.0000 H   0  0  0  0  0  0  0  0  0  0  0  0
    8.5861    0.3521    0.0000 H   0  0  0  0  0  0  0  0  0  0  0  0
    9.1793    0.8844    0.0000 H   0  0  0  0  0  0  0  0  0  0  0  0
    1.6900    0.5472    0.0000 H   0  0  0  0  0  0  0  0  0  0  0  0
    1.4631   -0.2997    0.0000 H   0  0  0  0  0  0  0  0  0  0  0  0
    2.3100   -0.5266    0.0000 H   0  0  0  0  0  0  0  0  0  0  0  0
    3.4860    1.5103    0.0000 H   0  0  0  0  0  0  0  0  0  0  0  0
    2.8660    2.1303    0.0000 H   0  0  0  0  0  0  0  0  0  0  0  0
    2.2460    1.5103    0.0000 H   0  0  0  0  0  0  0  0  0  0  0  0
    9.4828    2.0502    0.0000 H   0  0  0  0  0  0  0  0  0  0  0  0
    8.4621    2.3838    0.0000 H   0  0  0  0  0  0  0  0  0  0  0  0
  1  2  2  0  0  0  0
  1  3  2  0  0  0  0
  1  5  1  0  0  0  0
  1 10  1  0  0  0  0
  4  9  1  0  0  0  0
  4 13  1  0  0  0  0
  4 23  1  0  0  0  0
  5 17  1  0  0  0  0
  5 18  1  0  0  0  0
  6 16  1  0  0  0  0
  6 34  1  0  0  0  0
  6 35  1  0  0  0  0
  7  8  1  0  0  0  0
  7  9  2  0  0  0  0
  7 11  1  0  0  0  0
  8 12  1  0  0  0  0
  8 13  2  0  0  0  0
  9 14  1  0  0  0  0
 10 11  2  0  0  0  0
 10 15  1  0  0  0  0
 11 19  1  0  0  0  0
 12 16  1  0  0  0  0
 12 20  1  0  0  0  0
 12 21  1  0  0  0  0
 13 22  1  0  0  0  0
 14 15  2  0  0  0  0
 14 24  1  0  0  0  0
 15 25  1  0  0  0  0
 16 26  1  0  0  0  0
 16 27  1  0  0  0  0
 17 28  1  0  0  0  0
 17 29  1  0  0  0  0
 17 30  1  0  0  0  0
 18 31  1  0  0  0  0
 18 32  1  0  0  0  0
 18 33  1  0  0  0  0
M  END
> <PUBCHEM_COMPOUND_CID>
854091

> <PUBCHEM_COMPOUND_CANONICALIZED>
1

> <PUBCHEM_CACTVS_COMPLEXITY>
377

> <PUBCHEM_CACTVS_HBOND_ACCEPTOR>
4

> <PUBCHEM_CACTVS_HBOND_DONOR>
2

> <PUBCHEM_CACTVS_ROTATABLE_BOND>
4

> <PUBCHEM_CACTVS_SUBSKEYS>
AAADceBzMABAAAAAAAAAAAAAAAAAAWAAAAAwAAAAAAAAAFgB8AAAHAQQQAAADAjBXgQ+wfLJkAKgAzRnRHDCgDAxAiAI2bg4ZJgIIOLAkZGEIAhgkADIyAcQgMAOgAQAgAACAAAACAEAAAQAAAAAAAAAAA==

> <PUBCHEM_IUPAC_OPENEYE_NAME>
3-(2-aminoethyl)-N,N-dimethyl-1H-indole-5-sulfonamide

> <PUBCHEM_IUPAC_CAS_NAME>
3-(2-aminoethyl)-N,N-dimethyl-1H-indole-5-sulfonamide

> <PUBCHEM_IUPAC_NAME>
3-(2-aminoethyl)-N,N-dimethyl-1H-indole-5-sulfonamide

> <PUBCHEM_IUPAC_SYSTEMATIC_NAME>
3-(2-azanylethyl)-N,N-dimethyl-1H-indole-5-sulfonamide

> <PUBCHEM_IUPAC_TRADITIONAL_NAME>
3-(2-aminoethyl)-N,N-dimethyl-1H-indole-5-sulfonamide

> <PUBCHEM_IUPAC_INCHI>
InChI=1S/C12H17N3O2S/c1-15(2)18(16,17)10-3-4-12-11(7-10)9(5-6-13)8-14-12/h3-4,7-8,14H,5-6,13H2,1-2H3

> <PUBCHEM_IUPAC_INCHIKEY>
PCYPVBLQYZTTLL-UHFFFAOYSA-N

> <PUBCHEM_XLOGP3>
-0.3

> <PUBCHEM_EXACT_MASS>
267.104148

> <PUBCHEM_MOLECULAR_FORMULA>
C12H17N3O2S

> <PUBCHEM_MOLECULAR_WEIGHT>
267.34728

> <PUBCHEM_OPENEYE_CAN_SMILES>
CN(C)S(=O)(=O)C1=CC2=C(C=C1)NC=C2CCN

> <PUBCHEM_OPENEYE_ISO_SMILES>
CN(C)S(=O)(=O)C1=CC2=C(C=C1)NC=C2CCN

> <PUBCHEM_CACTVS_TPSA>
87.6

> <PUBCHEM_MONOISOTOPIC_WEIGHT>
267.104148

> <PUBCHEM_TOTAL_CHARGE>
0

> <PUBCHEM_HEAVY_ATOM_COUNT>
18

> <PUBCHEM_ATOM_DEF_STEREO_COUNT>
0

> <PUBCHEM_ATOM_UDEF_STEREO_COUNT>
0

> <PUBCHEM_BOND_DEF_STEREO_COUNT>
0

> <PUBCHEM_BOND_UDEF_STEREO_COUNT>
0

> <PUBCHEM_ISOTOPIC_ATOM_COUNT>
0

> <PUBCHEM_COMPONENT_COUNT>
1

> <PUBCHEM_CACTVS_TAUTO_COUNT>
1

> <PUBCHEM_COORDINATE_TYPE>
1
5
255

> <PUBCHEM_BONDANNOTATIONS>
10  11  8
10  15  8
14  15  8
4  13  8
4  9  8
7  11  8
7  8  8
7  9  8
8  13  8
9  14  8

$$$$

