9656
  -OEChem-06261203552D

 46 45  0     1  0  0  0  0  0999 V2000
    0.0000    4.3285    0.0000 I   0  5  0  0  0  0  0  0  0  0  0  0
    2.9030    5.0369    0.0000 O   0  0  0  0  0  0  0  0  0  0  0  0
    3.9030    1.0369    0.0000 O   0  0  0  0  0  0  0  0  0  0  0  0
    4.7690    7.5369    0.0000 N   0  3  0  0  0  0  0  0  0  0  0  0
    4.7690    6.5369    0.0000 C   0  0  0  0  0  0  0  0  0  0  0  0
    3.9030    6.0369    0.0000 C   0  0  0  0  0  0  0  0  0  0  0  0
    3.9030    5.0369    0.0000 C   0  0  3  0  0  0  0  0  0  0  0  0
    4.7690    8.5369    0.0000 C   0  0  0  0  0  0  0  0  0  0  0  0
    5.7690    7.5369    0.0000 C   0  0  0  0  0  0  0  0  0  0  0  0
    3.7690    7.5369    0.0000 C   0  0  0  0  0  0  0  0  0  0  0  0
    3.9030    4.0369    0.0000 C   0  0  0  0  0  0  0  0  0  0  0  0
    4.9030    5.0369    0.0000 C   0  0  0  0  0  0  0  0  0  0  0  0
    4.7690    3.5369    0.0000 C   0  0  0  0  0  0  0  0  0  0  0  0
    3.0369    3.5369    0.0000 C   0  0  0  0  0  0  0  0  0  0  0  0
    5.4030    5.9030    0.0000 C   0  0  0  0  0  0  0  0  0  0  0  0
    4.7690    2.5369    0.0000 C   0  0  0  0  0  0  0  0  0  0  0  0
    3.0369    2.5369    0.0000 C   0  0  0  0  0  0  0  0  0  0  0  0
    3.9030    2.0369    0.0000 C   0  0  0  0  0  0  0  0  0  0  0  0
    6.4030    5.9030    0.0000 C   0  0  0  0  0  0  0  0  0  0  0  0
    3.0369    0.5369    0.0000 C   0  0  0  0  0  0  0  0  0  0  0  0
    5.3796    6.6446    0.0000 H   0  0  0  0  0  0  0  0  0  0  0  0
    4.9810    5.9543    0.0000 H   0  0  0  0  0  0  0  0  0  0  0  0
    3.6909    6.6195    0.0000 H   0  0  0  0  0  0  0  0  0  0  0  0
    3.2924    5.9293    0.0000 H   0  0  0  0  0  0  0  0  0  0  0  0
    4.1490    8.5369    0.0000 H   0  0  0  0  0  0  0  0  0  0  0  0
    4.7690    9.1569    0.0000 H   0  0  0  0  0  0  0  0  0  0  0  0
    5.3890    8.5369    0.0000 H   0  0  0  0  0  0  0  0  0  0  0  0
    5.7690    8.1569    0.0000 H   0  0  0  0  0  0  0  0  0  0  0  0
    6.3890    7.5369    0.0000 H   0  0  0  0  0  0  0  0  0  0  0  0
    5.7690    6.9169    0.0000 H   0  0  0  0  0  0  0  0  0  0  0  0
    3.7690    6.9169    0.0000 H   0  0  0  0  0  0  0  0  0  0  0  0
    3.1490    7.5369    0.0000 H   0  0  0  0  0  0  0  0  0  0  0  0
    3.7690    8.1569    0.0000 H   0  0  0  0  0  0  0  0  0  0  0  0
    5.2130    4.5000    0.0000 H   0  0  0  0  0  0  0  0  0  0  0  0
    2.5930    5.5739    0.0000 H   0  0  0  0  0  0  0  0  0  0  0  0
    5.3059    3.8469    0.0000 H   0  0  0  0  0  0  0  0  0  0  0  0
    2.5000    3.8469    0.0000 H   0  0  0  0  0  0  0  0  0  0  0  0
    5.0930    6.4399    0.0000 H   0  0  0  0  0  0  0  0  0  0  0  0
    5.3059    2.2269    0.0000 H   0  0  0  0  0  0  0  0  0  0  0  0
    2.5000    2.2269    0.0000 H   0  0  0  0  0  0  0  0  0  0  0  0
    6.4030    5.2830    0.0000 H   0  0  0  0  0  0  0  0  0  0  0  0
    6.4030    6.5230    0.0000 H   0  0  0  0  0  0  0  0  0  0  0  0
    7.0230    5.9030    0.0000 H   0  0  0  0  0  0  0  0  0  0  0  0
    3.3469    0.0000    0.0000 H   0  0  0  0  0  0  0  0  0  0  0  0
    2.5000    0.2269    0.0000 H   0  0  0  0  0  0  0  0  0  0  0  0
    2.7269    1.0739    0.0000 H   0  0  0  0  0  0  0  0  0  0  0  0
  2  7  1  0  0  0  0
  2 35  1  0  0  0  0
  3 18  1  0  0  0  0
  3 20  1  0  0  0  0
  4  5  1  0  0  0  0
  4  8  1  0  0  0  0
  4  9  1  0  0  0  0
  4 10  1  0  0  0  0
  5  6  1  0  0  0  0
  5 21  1  0  0  0  0
  5 22  1  0  0  0  0
  6  7  1  0  0  0  0
  6 23  1  0  0  0  0
  6 24  1  0  0  0  0
  7 11  1  0  0  0  0
  7 12  1  0  0  0  0
  8 25  1  0  0  0  0
  8 26  1  0  0  0  0
  8 27  1  0  0  0  0
  9 28  1  0  0  0  0
  9 29  1  0  0  0  0
  9 30  1  0  0  0  0
 10 31  1  0  0  0  0
 10 32  1  0  0  0  0
 10 33  1  0  0  0  0
 11 13  2  0  0  0  0
 11 14  1  0  0  0  0
 12 15  2  3  0  0  0
 12 34  1  0  0  0  0
 13 16  1  0  0  0  0
 13 36  1  0  0  0  0
 14 17  2  0  0  0  0
 14 37  1  0  0  0  0
 15 19  1  0  0  0  0
 15 38  1  0  0  0  0
 16 18  2  0  0  0  0
 16 39  1  0  0  0  0
 17 18  1  0  0  0  0
 17 40  1  0  0  0  0
 19 41  1  0  0  0  0
 19 42  1  0  0  0  0
 19 43  1  0  0  0  0
 20 44  1  0  0  0  0
 20 45  1  0  0  0  0
 20 46  1  0  0  0  0
M  CHG  2   1  -1   4   1
M  END
> <PUBCHEM_COMPOUND_CID>
9656

> <PUBCHEM_COMPOUND_CANONICALIZED>
1

> <PUBCHEM_CACTVS_COMPLEXITY>
288

> <PUBCHEM_CACTVS_HBOND_ACCEPTOR>
3

> <PUBCHEM_CACTVS_HBOND_DONOR>
1

> <PUBCHEM_CACTVS_ROTATABLE_BOND>
6

> <PUBCHEM_CACTVS_SUBSKEYS>
AAADceB6MAAAAgAAAAAAAAAAAAAAAAAAAAAwAAAAAAAAAAABAAAAHgAACAAADETBmAYyBoMABgCAAiBCAAACCAAgIAAIiAAOCIgMJiKEsRqEcCAmwBEIuAeQ4PwOoAAAAAAAAABAAAAAAAAAAAAAAAAAAA==

> <PUBCHEM_IUPAC_OPENEYE_NAME>
[3-hydroxy-3-(4-methoxyphenyl)hex-4-enyl]-trimethyl-ammonium iodide

> <PUBCHEM_IUPAC_CAS_NAME>
[3-hydroxy-3-(4-methoxyphenyl)hex-4-enyl]-trimethylammonium iodide

> <PUBCHEM_IUPAC_NAME>
[3-hydroxy-3-(4-methoxyphenyl)hex-4-enyl]-trimethylazanium iodide

> <PUBCHEM_IUPAC_SYSTEMATIC_NAME>
[3-(4-methoxyphenyl)-3-oxidanyl-hex-4-enyl]-trimethyl-azanium iodide

> <PUBCHEM_IUPAC_TRADITIONAL_NAME>
[3-hydroxy-3-(4-methoxyphenyl)hex-4-enyl]-trimethyl-ammonium iodide

> <PUBCHEM_IUPAC_INCHI>
InChI=1S/C16H26NO2.HI/c1-6-11-16(18,12-13-17(2,3)4)14-7-9-15(19-5)10-8-14;/h6-11,18H,12-13H2,1-5H3;1H/q+1;/p-1

> <PUBCHEM_IUPAC_INCHIKEY>
HSUQJCNSPOHPKQ-UHFFFAOYSA-M

> <PUBCHEM_EXACT_MASS>
391.100827

> <PUBCHEM_MOLECULAR_FORMULA>
C16H26INO2

> <PUBCHEM_MOLECULAR_WEIGHT>
391.28761

> <PUBCHEM_OPENEYE_CAN_SMILES>
CC=CC(CC[N+](C)(C)C)(C1=CC=C(C=C1)OC)O.[I-]

> <PUBCHEM_OPENEYE_ISO_SMILES>
CC=CC(CC[N+](C)(C)C)(C1=CC=C(C=C1)OC)O.[I-]

> <PUBCHEM_CACTVS_TPSA>
29.5

> <PUBCHEM_MONOISOTOPIC_WEIGHT>
391.100827

> <PUBCHEM_TOTAL_CHARGE>
0

> <PUBCHEM_HEAVY_ATOM_COUNT>
20

> <PUBCHEM_ATOM_DEF_STEREO_COUNT>
0

> <PUBCHEM_ATOM_UDEF_STEREO_COUNT>
0

> <PUBCHEM_BOND_DEF_STEREO_COUNT>
0

> <PUBCHEM_BOND_UDEF_STEREO_COUNT>
1

> <PUBCHEM_ISOTOPIC_ATOM_COUNT>
0

> <PUBCHEM_COMPONENT_COUNT>
2

> <PUBCHEM_CACTVS_TAUTO_COUNT>
1

> <PUBCHEM_COORDINATE_TYPE>
1
5
255

> <PUBCHEM_BONDANNOTATIONS>
11  13  8
11  14  8
12  15  1
13  16  8
14  17  8
16  18  8
17  18  8

$$$$

