17395947
  -OEChem-06241222532D

 46 47  0     0  0  0  0  0  0999 V2000
    3.6750   -2.5313    0.0000 S   0  0  0  0  0  0  0  0  0  0  0  0
    2.9146    3.6920    0.0000 O   0  0  0  0  0  0  0  0  0  0  0  0
    5.1294    0.8468    0.0000 O   0  0  0  0  0  0  0  0  0  0  0  0
    4.4970    4.3965    0.0000 N   0  0  0  0  0  0  0  0  0  0  0  0
    3.7281    1.8649    0.0000 N   0  0  0  0  0  0  0  0  0  0  0  0
    4.0902    5.3100    0.0000 C   0  0  0  0  0  0  0  0  0  0  0  0
    4.3159    2.6739    0.0000 C   0  0  0  0  0  0  0  0  0  0  0  0
    3.9092    3.5875    0.0000 C   0  0  0  0  0  0  0  0  0  0  0  0
    4.6780    6.1190    0.0000 C   0  0  0  0  0  0  0  0  0  0  0  0
    3.0957    5.4146    0.0000 C   0  0  0  0  0  0  0  0  0  0  0  0
    4.1349    0.9514    0.0000 C   0  0  0  0  0  0  0  0  0  0  0  0
    2.7336    1.9694    0.0000 C   0  0  0  0  0  0  0  0  0  0  0  0
    2.8660   -3.1190    0.0000 C   0  0  0  0  0  0  0  0  0  0  0  0
    3.3660   -1.5802    0.0000 C   0  0  0  0  0  0  0  0  0  0  0  0
    2.8660   -4.1190    0.0000 C   0  0  0  0  0  0  0  0  0  0  0  0
    3.5471    0.1424    0.0000 C   0  0  0  0  0  0  0  0  0  0  0  0
    3.9538   -0.7712    0.0000 C   0  0  0  0  0  0  0  0  0  0  0  0
    2.0570   -2.5313    0.0000 C   0  0  0  0  0  0  0  0  0  0  0  0
    2.3660   -1.5802    0.0000 C   0  0  0  0  0  0  0  0  0  0  0  0
    2.0000   -4.6190    0.0000 C   0  0  0  0  0  0  0  0  0  0  0  0
    3.7320   -4.6190    0.0000 C   0  0  0  0  0  0  0  0  0  0  0  0
    2.0000   -5.6190    0.0000 C   0  0  0  0  0  0  0  0  0  0  0  0
    3.7320   -5.6190    0.0000 C   0  0  0  0  0  0  0  0  0  0  0  0
    2.8660   -6.1190    0.0000 C   0  0  0  0  0  0  0  0  0  0  0  0
    4.7068    5.2452    0.0000 H   0  0  0  0  0  0  0  0  0  0  0  0
    4.7466    2.2279    0.0000 H   0  0  0  0  0  0  0  0  0  0  0  0
    4.8299    3.0206    0.0000 H   0  0  0  0  0  0  0  0  0  0  0  0
    5.1136    4.3317    0.0000 H   0  0  0  0  0  0  0  0  0  0  0  0
    5.1796    5.7546    0.0000 H   0  0  0  0  0  0  0  0  0  0  0  0
    3.1605    6.0312    0.0000 H   0  0  0  0  0  0  0  0  0  0  0  0
    2.4791    5.4794    0.0000 H   0  0  0  0  0  0  0  0  0  0  0  0
    3.0309    4.7980    0.0000 H   0  0  0  0  0  0  0  0  0  0  0  0
    5.0424    6.6206    0.0000 H   0  0  0  0  0  0  0  0  0  0  0  0
    4.1764    6.4835    0.0000 H   0  0  0  0  0  0  0  0  0  0  0  0
    2.7984    2.5860    0.0000 H   0  0  0  0  0  0  0  0  0  0  0  0
    2.1170    2.0342    0.0000 H   0  0  0  0  0  0  0  0  0  0  0  0
    2.6688    1.3528    0.0000 H   0  0  0  0  0  0  0  0  0  0  0  0
    2.9305    0.2072    0.0000 H   0  0  0  0  0  0  0  0  0  0  0  0
    4.5704   -0.8360    0.0000 H   0  0  0  0  0  0  0  0  0  0  0  0
    1.4674   -2.7229    0.0000 H   0  0  0  0  0  0  0  0  0  0  0  0
    2.0016   -1.0786    0.0000 H   0  0  0  0  0  0  0  0  0  0  0  0
    1.4631   -4.3090    0.0000 H   0  0  0  0  0  0  0  0  0  0  0  0
    4.2690   -4.3090    0.0000 H   0  0  0  0  0  0  0  0  0  0  0  0
    1.4631   -5.9290    0.0000 H   0  0  0  0  0  0  0  0  0  0  0  0
    4.2690   -5.9290    0.0000 H   0  0  0  0  0  0  0  0  0  0  0  0
    2.8660   -6.7390    0.0000 H   0  0  0  0  0  0  0  0  0  0  0  0
  1 13  1  0  0  0  0
  1 14  1  0  0  0  0
  2  8  2  0  0  0  0
  3 11  2  0  0  0  0
  4  6  1  0  0  0  0
  4  8  1  0  0  0  0
  4 28  1  0  0  0  0
  5  7  1  0  0  0  0
  5 11  1  0  0  0  0
  5 12  1  0  0  0  0
  6  9  1  0  0  0  0
  6 10  1  0  0  0  0
  6 25  1  0  0  0  0
  7  8  1  0  0  0  0
  7 26  1  0  0  0  0
  7 27  1  0  0  0  0
  9 29  1  0  0  0  0
  9 33  1  0  0  0  0
  9 34  1  0  0  0  0
 10 30  1  0  0  0  0
 10 31  1  0  0  0  0
 10 32  1  0  0  0  0
 11 16  1  0  0  0  0
 12 35  1  0  0  0  0
 12 36  1  0  0  0  0
 12 37  1  0  0  0  0
 13 15  1  0  0  0  0
 13 18  2  0  0  0  0
 14 17  1  0  0  0  0
 14 19  2  0  0  0  0
 15 20  2  0  0  0  0
 15 21  1  0  0  0  0
 16 17  2  0  0  0  0
 16 38  1  0  0  0  0
 17 39  1  0  0  0  0
 18 19  1  0  0  0  0
 18 40  1  0  0  0  0
 19 41  1  0  0  0  0
 20 22  1  0  0  0  0
 20 42  1  0  0  0  0
 21 23  2  0  0  0  0
 21 43  1  0  0  0  0
 22 24  2  0  0  0  0
 22 44  1  0  0  0  0
 23 24  1  0  0  0  0
 23 45  1  0  0  0  0
 24 46  1  0  0  0  0
M  END
> <PUBCHEM_COMPOUND_CID>
17395947

> <PUBCHEM_COMPOUND_CANONICALIZED>
1

> <PUBCHEM_CACTVS_COMPLEXITY>
458

> <PUBCHEM_CACTVS_HBOND_ACCEPTOR>
3

> <PUBCHEM_CACTVS_HBOND_DONOR>
1

> <PUBCHEM_CACTVS_ROTATABLE_BOND>
6

> <PUBCHEM_CACTVS_SUBSKEYS>
AAADceB7MABAAAAAAAAAAAAAAAAAASAAAAAwAAAAAAAAAAABwAAAHgQQAAAADCjB2AQyAYPAAAiMAiFSEACDAIAgCBBIiJiIAMgIYCKgETCQIAAglgCoiYcAgMAOAAAAAAAAAAAAAAAAAAAAAAAAAAAAAA==

> <PUBCHEM_IUPAC_OPENEYE_NAME>
(E)-N-[2-(isopropylamino)-2-oxo-ethyl]-N-methyl-3-(5-phenyl-2-thienyl)prop-2-enamide

> <PUBCHEM_IUPAC_CAS_NAME>
(E)-N-methyl-N-[2-oxo-2-(propan-2-ylamino)ethyl]-3-(5-phenyl-2-thiophenyl)-2-propenamide

> <PUBCHEM_IUPAC_NAME>
(E)-N-methyl-N-[2-oxo-2-(propan-2-ylamino)ethyl]-3-(5-phenylthiophen-2-yl)prop-2-enamide

> <PUBCHEM_IUPAC_SYSTEMATIC_NAME>
(E)-N-methyl-N-[2-oxidanylidene-2-(propan-2-ylamino)ethyl]-3-(5-phenylthiophen-2-yl)prop-2-enamide

> <PUBCHEM_IUPAC_TRADITIONAL_NAME>
(E)-N-[2-(isopropylamino)-2-keto-ethyl]-N-methyl-3-(5-phenyl-2-thienyl)acrylamide

> <PUBCHEM_IUPAC_INCHI>
InChI=1S/C19H22N2O2S/c1-14(2)20-18(22)13-21(3)19(23)12-10-16-9-11-17(24-16)15-7-5-4-6-8-15/h4-12,14H,13H2,1-3H3,(H,20,22)/b12-10+

> <PUBCHEM_IUPAC_INCHIKEY>
UJKBULGBAGQABH-ZRDIBKRKSA-N

> <PUBCHEM_XLOGP3_AA>
3.3

> <PUBCHEM_EXACT_MASS>
342.140199

> <PUBCHEM_MOLECULAR_FORMULA>
C19H22N2O2S

> <PUBCHEM_MOLECULAR_WEIGHT>
342.45518

> <PUBCHEM_OPENEYE_CAN_SMILES>
CC(C)NC(=O)CN(C)C(=O)C=CC1=CC=C(S1)C2=CC=CC=C2

> <PUBCHEM_OPENEYE_ISO_SMILES>
CC(C)NC(=O)CN(C)C(=O)/C=C/C1=CC=C(S1)C2=CC=CC=C2

> <PUBCHEM_CACTVS_TPSA>
77.6

> <PUBCHEM_MONOISOTOPIC_WEIGHT>
342.140199

> <PUBCHEM_TOTAL_CHARGE>
0

> <PUBCHEM_HEAVY_ATOM_COUNT>
24

> <PUBCHEM_ATOM_DEF_STEREO_COUNT>
0

> <PUBCHEM_ATOM_UDEF_STEREO_COUNT>
0

> <PUBCHEM_BOND_DEF_STEREO_COUNT>
1

> <PUBCHEM_BOND_UDEF_STEREO_COUNT>
0

> <PUBCHEM_ISOTOPIC_ATOM_COUNT>
0

> <PUBCHEM_COMPONENT_COUNT>
1

> <PUBCHEM_CACTVS_TAUTO_COUNT>
2

> <PUBCHEM_COORDINATE_TYPE>
1
5
255

> <PUBCHEM_BONDANNOTATIONS>
1  13  8
1  14  8
13  18  8
14  19  8
15  20  8
15  21  8
18  19  8
20  22  8
21  23  8
22  24  8
23  24  8

$$$$

