17395898
  -OEChem-06241222533D

 37 39  0     1  0  0  0  0  0999 V2000
    1.9286   -0.8006    0.7335 O   0  0  0  0  0  0  0  0  0  0  0  0
    3.2564   -0.6705   -1.8208 O   0  0  0  0  0  0  0  0  0  0  0  0
   -0.8234   -0.9640    1.9762 O   0  0  0  0  0  0  0  0  0  0  0  0
   -5.3370    2.0214   -0.8401 O   0  0  0  0  0  0  0  0  0  0  0  0
   -0.5546   -1.7483   -0.2197 N   0  0  0  0  0  0  0  0  0  0  0  0
   -4.5164    0.0118   -0.0071 N   0  0  0  0  0  0  0  0  0  0  0  0
   -3.4518   -0.7437    0.4027 N   0  0  0  0  0  0  0  0  0  0  0  0
    1.8816   -1.8676   -0.2236 C   0  0  1  0  0  0  0  0  0  0  0  0
    0.5708   -2.6135   -0.0218 C   0  0  0  0  0  0  0  0  0  0  0  0
    1.9844   -1.2987   -1.6327 C   0  0  0  0  0  0  0  0  0  0  0  0
    2.9333    0.0908    0.4634 C   0  0  0  0  0  0  0  0  0  0  0  0
    3.5842    0.1463   -0.7709 C   0  0  0  0  0  0  0  0  0  0  0  0
    3.2911    0.9737    1.4827 C   0  0  0  0  0  0  0  0  0  0  0  0
    4.6232    1.0553   -0.9726 C   0  0  0  0  0  0  0  0  0  0  0  0
   -1.1346   -1.0143    0.7969 C   0  0  0  0  0  0  0  0  0  0  0  0
    4.3211    1.8916    1.2757 C   0  0  0  0  0  0  0  0  0  0  0  0
    4.9898    1.9286    0.0517 C   0  0  0  0  0  0  0  0  0  0  0  0
   -2.2895   -0.1901    0.3511 C   0  0  0  0  0  0  0  0  0  0  0  0
   -1.9856    1.1683   -0.1017 C   0  0  0  0  0  0  0  0  0  0  0  0
   -3.0319    1.8892   -0.4971 C   0  0  0  0  0  0  0  0  0  0  0  0
   -4.3990    1.3182   -0.4653 C   0  0  0  0  0  0  0  0  0  0  0  0
   -5.8408   -0.5839    0.0395 C   0  0  0  0  0  0  0  0  0  0  0  0
    2.7205   -2.5463   -0.0188 H   0  0  0  0  0  0  0  0  0  0  0  0
    0.5228   -3.0126    0.9977 H   0  0  0  0  0  0  0  0  0  0  0  0
    0.4810   -3.4477   -0.7249 H   0  0  0  0  0  0  0  0  0  0  0  0
    1.8994   -2.0951   -2.3796 H   0  0  0  0  0  0  0  0  0  0  0  0
    1.2085   -0.5518   -1.8436 H   0  0  0  0  0  0  0  0  0  0  0  0
   -0.9392   -1.6771   -1.1575 H   0  0  0  0  0  0  0  0  0  0  0  0
    2.7810    0.9457    2.4416 H   0  0  0  0  0  0  0  0  0  0  0  0
    5.1434    1.0969   -1.9257 H   0  0  0  0  0  0  0  0  0  0  0  0
    4.6057    2.5756    2.0700 H   0  0  0  0  0  0  0  0  0  0  0  0
    5.7941    2.6415   -0.1053 H   0  0  0  0  0  0  0  0  0  0  0  0
   -0.9713    1.5432   -0.1080 H   0  0  0  0  0  0  0  0  0  0  0  0
   -2.9121    2.9068   -0.8506 H   0  0  0  0  0  0  0  0  0  0  0  0
   -5.8414   -1.4763   -0.5934 H   0  0  0  0  0  0  0  0  0  0  0  0
   -6.6202    0.0990   -0.3071 H   0  0  0  0  0  0  0  0  0  0  0  0
   -6.0541   -0.8735    1.0726 H   0  0  0  0  0  0  0  0  0  0  0  0
  1  8  1  0  0  0  0
  1 11  1  0  0  0  0
  2 10  1  0  0  0  0
  2 12  1  0  0  0  0
  3 15  2  0  0  0  0
  4 21  2  0  0  0  0
  5  9  1  0  0  0  0
  5 15  1  0  0  0  0
  5 28  1  0  0  0  0
  6  7  1  0  0  0  0
  6 21  1  0  0  0  0
  6 22  1  0  0  0  0
  7 18  2  0  0  0  0
  8  9  1  0  0  0  0
  8 10  1  0  0  0  0
  8 23  1  0  0  0  0
  9 24  1  0  0  0  0
  9 25  1  0  0  0  0
 10 26  1  0  0  0  0
 10 27  1  0  0  0  0
 11 12  1  0  0  0  0
 11 13  2  0  0  0  0
 12 14  2  0  0  0  0
 13 16  1  0  0  0  0
 13 29  1  0  0  0  0
 14 17  1  0  0  0  0
 14 30  1  0  0  0  0
 15 18  1  0  0  0  0
 16 17  2  0  0  0  0
 16 31  1  0  0  0  0
 17 32  1  0  0  0  0
 18 19  1  0  0  0  0
 19 20  2  0  0  0  0
 19 33  1  0  0  0  0
 20 21  1  0  0  0  0
 20 34  1  0  0  0  0
 22 35  1  0  0  0  0
 22 36  1  0  0  0  0
 22 37  1  0  0  0  0
M  END
> <PUBCHEM_COMPOUND_CID>
17395898

> <PUBCHEM_CONFORMER_RMSD>
0.8

> <PUBCHEM_CONFORMER_DIVERSEORDER>
1
83
50
94
13
75
43
65
44
67
49
18
30
99
73
86
27
46
55
79
76
93
82
78
45
3
87
47
53
11
62
8
42
57
26
80
97
22
61
15
98
39
64
72
56
40
37
70
35
24
96
19
17
59
74
41
32
10
52
91
34
6
31
16
36
58
9
88
51
28
14
63
77
2
54
12
21
89
7
20
60
95
4
29
71
92
33
85
5
84
68
69
48
81
25
38
90
23
66

> <PUBCHEM_MMFF94_PARTIAL_CHARGES>
29
1 -0.36
10 0.28
11 0.08
12 0.08
13 -0.15
14 -0.15
15 0.63
16 -0.15
17 -0.15
18 0.44
19 -0.14
2 -0.36
20 -0.14
21 0.62
22 0.3
28 0.37
29 0.15
3 -0.57
30 0.15
31 0.15
32 0.15
33 0.15
34 0.15
4 -0.57
5 -0.73
6 -0.3
7 -0.51
8 0.28
9 0.3

> <PUBCHEM_EFFECTIVE_ROTOR_COUNT>
4.8

> <PUBCHEM_PHARMACOPHORE_FEATURES>
9
1 1 acceptor
1 2 acceptor
1 3 acceptor
1 4 acceptor
1 5 donor
1 7 acceptor
6 1 2 8 10 11 12 rings
6 11 12 13 14 16 17 rings
6 6 7 18 19 20 21 rings

> <PUBCHEM_HEAVY_ATOM_COUNT>
22

> <PUBCHEM_ATOM_DEF_STEREO_COUNT>
0

> <PUBCHEM_ATOM_UDEF_STEREO_COUNT>
1

> <PUBCHEM_BOND_DEF_STEREO_COUNT>
0

> <PUBCHEM_BOND_UDEF_STEREO_COUNT>
0

> <PUBCHEM_ISOTOPIC_ATOM_COUNT>
0

> <PUBCHEM_COMPONENT_COUNT>
1

> <PUBCHEM_CACTVS_TAUTO_COUNT>
2

> <PUBCHEM_CONFORMER_ID>
010970BA00000001

> <PUBCHEM_MMFF94_ENERGY>
55.2874

> <PUBCHEM_FEATURE_SELFOVERLAP>
45.713

> <PUBCHEM_SHAPE_FINGERPRINT>
10498660 4 18410852183094846025
10670039 82 18131058373075469948
10928967 22 5472847148091737237
11128504 68 15864069853738991952
11140007 195 10375871878842242951
11211813 74 18267311005785187445
12403259 415 18410564093905273374
12596602 18 16486969527893337816
12633257 1 15482671234890122606
12670546 177 17676207948599217999
12730499 353 18114172017250255222
12769317 202 18186809071280240616
12788726 201 16697772204812235354
13009979 54 15142628748565687366
13402501 40 18409451358342770576
13675066 3 11095878251129835647
13773456 73 18337967743491109298
13914758 101 13542197082686257783
14211702 104 8789442627099114285
14251758 9 8574716819376610239
14251764 30 5256116986676002253
14341114 328 16702303416973650888
14468879 13 18342450430933362523
14528608 73 18261398858024478709
14957384 54 18130228138838583052
15238133 3 17418089910825654428
15475509 84 14045473258043389534
15537594 2 5112016023410179997
15885798 251 9367350335875892099
1813 80 5039658254087140763
20775530 9 6481698475780081716
221357 26 17748818640162508256
231179 274 18334290938612327794
23227448 37 18189058594623920479
23557571 272 18269541767825144083
23559900 14 17987792063447172071
238 59 17603583045632501956
2838139 119 18337121072673044988
341906 21 17918269844253381973
3421961 26 10087631607339270790
3472631 163 18131352981508400213
34797466 226 18040715896678439173
4028521 119 18187359896582916730
43658 37 18408046225173046278
474 4 17489576909588753543
5104073 3 18200591527254956403
5312625 73 18113900433967835903
53794403 172 18122064195618958684
6442390 28 18410011009650350614
7808743 9 18197495130633702172
960060 61 15213024859958001681
9981440 41 18059853956826342595

> <PUBCHEM_SHAPE_MULTIPOLES>
414.33
12.2
2.4
1.37
8
0.24
0.05
-7.52
-1.53
-0.45
-0.16
-1.18
0.07
1.65

> <PUBCHEM_SHAPE_SELFOVERLAP>
893.464

> <PUBCHEM_SHAPE_VOLUME>
225.8

> <PUBCHEM_COORDINATE_TYPE>
2
5
10

$$$$

