13018
  -OEChem-06261207393D

 17 17  0     0  0  0  0  0  0999 V2000
    1.8354   -0.0001    0.0000 C   0  0  0  0  0  0  0  0  0  0  0  0
    1.1377   -1.2081   -0.0002 C   0  0  0  0  0  0  0  0  0  0  0  0
    1.1380    1.2080   -0.0002 C   0  0  0  0  0  0  0  0  0  0  0  0
   -0.9544    0.0000   -0.0008 C   0  0  0  0  0  0  0  0  0  0  0  0
   -0.2571   -1.2080   -0.0007 C   0  0  0  0  0  0  0  0  0  0  0  0
   -0.2569    1.2080   -0.0006 C   0  0  0  0  0  0  0  0  0  0  0  0
    3.3267    0.0000    0.0012 C   0  0  0  0  0  0  0  0  0  0  0  0
   -2.3834    0.0000    0.0003 C   0  0  0  0  0  0  0  0  0  0  0  0
   -3.5860    0.0001    0.0011 C   0  0  0  0  0  0  0  0  0  0  0  0
    1.6698   -2.1557   -0.0016 H   0  0  0  0  0  0  0  0  0  0  0  0
    1.6702    2.1556   -0.0017 H   0  0  0  0  0  0  0  0  0  0  0  0
   -0.7865   -2.1579   -0.0010 H   0  0  0  0  0  0  0  0  0  0  0  0
   -0.7863    2.1579   -0.0009 H   0  0  0  0  0  0  0  0  0  0  0  0
    3.7213    0.8780    0.5239 H   0  0  0  0  0  0  0  0  0  0  0  0
    3.7217   -0.8828    0.5153 H   0  0  0  0  0  0  0  0  0  0  0  0
    3.7032    0.0050   -1.0266 H   0  0  0  0  0  0  0  0  0  0  0  0
   -4.6509    0.0003    0.0018 H   0  0  0  0  0  0  0  0  0  0  0  0
  1  2  2  0  0  0  0
  1  3  1  0  0  0  0
  1  7  1  0  0  0  0
  2  5  1  0  0  0  0
  2 10  1  0  0  0  0
  3  6  2  0  0  0  0
  3 11  1  0  0  0  0
  4  5  2  0  0  0  0
  4  6  1  0  0  0  0
  4  8  1  0  0  0  0
  5 12  1  0  0  0  0
  6 13  1  0  0  0  0
  7 14  1  0  0  0  0
  7 15  1  0  0  0  0
  7 16  1  0  0  0  0
  8  9  3  0  0  0  0
  9 17  1  0  0  0  0
M  END
> <PUBCHEM_COMPOUND_CID>
13018

> <PUBCHEM_CONFORMER_RMSD>
0.4

> <PUBCHEM_CONFORMER_DIVERSEORDER>
1

> <PUBCHEM_MMFF94_PARTIAL_CHARGES>
14
1 -0.14
10 0.15
11 0.15
12 0.15
13 0.15
17 0.18
2 -0.15
3 -0.15
4 0.07
5 -0.15
6 -0.15
7 0.14
8 -0.07
9 -0.18

> <PUBCHEM_EFFECTIVE_ROTOR_COUNT>
0

> <PUBCHEM_PHARMACOPHORE_FEATURES>
2
1 9 hydrophobe
6 1 2 3 4 5 6 rings

> <PUBCHEM_HEAVY_ATOM_COUNT>
9

> <PUBCHEM_ATOM_DEF_STEREO_COUNT>
0

> <PUBCHEM_ATOM_UDEF_STEREO_COUNT>
0

> <PUBCHEM_BOND_DEF_STEREO_COUNT>
0

> <PUBCHEM_BOND_UDEF_STEREO_COUNT>
0

> <PUBCHEM_ISOTOPIC_ATOM_COUNT>
0

> <PUBCHEM_COMPONENT_COUNT>
1

> <PUBCHEM_CACTVS_TAUTO_COUNT>
1

> <PUBCHEM_CONFORMER_ID>
000032DA00000001

> <PUBCHEM_MMFF94_ENERGY>
17.1236

> <PUBCHEM_FEATURE_SELFOVERLAP>
10.148

> <PUBCHEM_SHAPE_FINGERPRINT>
10219947 1 18411135839898761483
11062470 55 16917348142906341485
12032990 46 18410847776500578838
14325111 11 18410575046272214789
16945 1 18410856559703086598
193761 8 17689998263963229414
20201158 50 18343020008242750267
21040471 1 18194402195222663428
21293036 1 18412538799840823316
23235685 24 18410860949249353384
23402655 69 18193574457169372661
23552423 10 18055347200329228950
2748010 2 18122623842825853604
29004967 10 18343015610043070009
5084963 1 18334857216432284465
528886 8 18409172094983482419

> <PUBCHEM_SHAPE_MULTIPOLES>
185.22
4.68
1.26
0.62
1.62
0
0
0
0
-0.29
0
0
0
0

> <PUBCHEM_SHAPE_SELFOVERLAP>
382.479

> <PUBCHEM_SHAPE_VOLUME>
100.7

> <PUBCHEM_COORDINATE_TYPE>
2
5
10

$$$$

