12059
  -OEChem-06261206273D

 22 22  0     0  0  0  0  0  0999 V2000
   -2.3822    1.8259    0.0000 O   0  0  0  0  0  0  0  0  0  0  0  0
    2.0638   -0.2020   -0.0003 C   0  0  0  0  0  0  0  0  0  0  0  0
    0.5777   -0.3245    0.0003 C   0  0  0  0  0  0  0  0  0  0  0  0
    2.5970    0.5050    1.2603 C   0  0  0  0  0  0  0  0  0  0  0  0
    2.5962    0.5061   -1.2606 C   0  0  0  0  0  0  0  0  0  0  0  0
   -0.2166    0.8222    0.0006 C   0  0  0  0  0  0  0  0  0  0  0  0
   -0.0182   -1.5858   -0.0001 C   0  0  0  0  0  0  0  0  0  0  0  0
   -1.6069    0.7075    0.0003 C   0  0  0  0  0  0  0  0  0  0  0  0
   -1.4082   -1.7005   -0.0003 C   0  0  0  0  0  0  0  0  0  0  0  0
   -2.2025   -0.5539   -0.0002 C   0  0  0  0  0  0  0  0  0  0  0  0
    2.5027   -1.2091   -0.0008 H   0  0  0  0  0  0  0  0  0  0  0  0
    2.2746    1.5507    1.3110 H   0  0  0  0  0  0  0  0  0  0  0  0
    3.6923    0.4930    1.2725 H   0  0  0  0  0  0  0  0  0  0  0  0
    2.2450    0.0010    2.1673 H   0  0  0  0  0  0  0  0  0  0  0  0
    2.2434    0.0028   -2.1677 H   0  0  0  0  0  0  0  0  0  0  0  0
    3.6914    0.4939   -1.2737 H   0  0  0  0  0  0  0  0  0  0  0  0
    2.2740    1.5517   -1.3101 H   0  0  0  0  0  0  0  0  0  0  0  0
    0.2321    1.8122    0.0007 H   0  0  0  0  0  0  0  0  0  0  0  0
    0.5856   -2.4893   -0.0005 H   0  0  0  0  0  0  0  0  0  0  0  0
   -1.8722   -2.6825   -0.0007 H   0  0  0  0  0  0  0  0  0  0  0  0
   -3.2843   -0.6569   -0.0005 H   0  0  0  0  0  0  0  0  0  0  0  0
   -3.3180    1.5606   -0.0003 H   0  0  0  0  0  0  0  0  0  0  0  0
  1  8  1  0  0  0  0
  1 22  1  0  0  0  0
  2  3  1  0  0  0  0
  2  4  1  0  0  0  0
  2  5  1  0  0  0  0
  2 11  1  0  0  0  0
  3  6  2  0  0  0  0
  3  7  1  0  0  0  0
  4 12  1  0  0  0  0
  4 13  1  0  0  0  0
  4 14  1  0  0  0  0
  5 15  1  0  0  0  0
  5 16  1  0  0  0  0
  5 17  1  0  0  0  0
  6  8  1  0  0  0  0
  6 18  1  0  0  0  0
  7  9  2  0  0  0  0
  7 19  1  0  0  0  0
  8 10  2  0  0  0  0
  9 10  1  0  0  0  0
  9 20  1  0  0  0  0
 10 21  1  0  0  0  0
M  END
> <PUBCHEM_COMPOUND_CID>
12059

> <PUBCHEM_CONFORMER_RMSD>
0.4

> <PUBCHEM_CONFORMER_DIVERSEORDER>
1
3
2

> <PUBCHEM_MMFF94_PARTIAL_CHARGES>
13
1 -0.53
10 -0.15
18 0.15
19 0.15
2 0.14
20 0.15
21 0.15
22 0.45
3 -0.14
6 -0.15
7 -0.15
8 0.08
9 -0.15

> <PUBCHEM_EFFECTIVE_ROTOR_COUNT>
1

> <PUBCHEM_PHARMACOPHORE_FEATURES>
3
1 1 donor
3 2 4 5 hydrophobe
6 3 6 7 8 9 10 rings

> <PUBCHEM_HEAVY_ATOM_COUNT>
10

> <PUBCHEM_ATOM_DEF_STEREO_COUNT>
0

> <PUBCHEM_ATOM_UDEF_STEREO_COUNT>
0

> <PUBCHEM_BOND_DEF_STEREO_COUNT>
0

> <PUBCHEM_BOND_UDEF_STEREO_COUNT>
0

> <PUBCHEM_ISOTOPIC_ATOM_COUNT>
0

> <PUBCHEM_COMPONENT_COUNT>
1

> <PUBCHEM_CACTVS_TAUTO_COUNT>
9

> <PUBCHEM_CONFORMER_ID>
00002F1B00000001

> <PUBCHEM_MMFF94_ENERGY>
22.7767

> <PUBCHEM_FEATURE_SELFOVERLAP>
15.223

> <PUBCHEM_SHAPE_FINGERPRINT>
10857977 72 18263651649427152042
12716758 59 18334853935224989222
12932741 1 17748823003790966260
12932764 1 17895188879241961694
14390081 3 18187935013904621377
15310529 11 16630251303071237143
16945 1 18338516335421613511
20645464 45 17895199870131623186
20653085 51 18199727263427895276
20871998 184 18116431444920525167
21028194 46 18335702801029804131
21040471 1 18338797921930148419
23552423 10 18273213127344627114
23559900 14 18115300207455841790
2748010 2 18267016340045233095
29004967 10 16298379137381242106
369184 2 18187092719304583546
5084963 1 18260536810426871046

> <PUBCHEM_SHAPE_MULTIPOLES>
199.93
3.86
1.62
0.93
1.28
0.06
0
-0.87
0
-1.18
0
0.86
-0.12
0

> <PUBCHEM_SHAPE_SELFOVERLAP>
407.983

> <PUBCHEM_SHAPE_VOLUME>
117.1

> <PUBCHEM_COORDINATE_TYPE>
2
5
10

$$$$

