6244
  -OEChem-06261201123D

 40 41  0     0  0  0  0  0  0999 V2000
    1.7223    0.7866   -3.0478 Cl  0  0  0  0  0  0  0  0  0  0  0  0
    1.7996   -1.0386    2.9629 Cl  0  0  0  0  0  0  0  0  0  0  0  0
    4.0649    1.7808   -1.1398 Cl  0  0  0  0  0  0  0  0  0  0  0  0
    4.1046    0.8640    1.8748 Cl  0  0  0  0  0  0  0  0  0  0  0  0
   -1.2518   -1.7576   -0.4995 N   0  3  0  0  0  0  0  0  0  0  0  0
   -3.2642    1.3519    0.3986 N   0  3  0  0  0  0  0  0  0  0  0  0
   -2.4808   -0.9002   -0.2226 C   0  0  0  0  0  0  0  0  0  0  0  0
   -0.3671   -1.0899   -1.5953 C   0  0  0  0  0  0  0  0  0  0  0  0
   -0.3363   -1.8066    0.7610 C   0  0  0  0  0  0  0  0  0  0  0  0
   -2.0683    0.4998    0.1882 C   0  0  0  0  0  0  0  0  0  0  0  0
    0.8009   -0.5041   -0.8747 C   0  0  0  0  0  0  0  0  0  0  0  0
    0.8183   -0.9103    0.4610 C   0  0  0  0  0  0  0  0  0  0  0  0
   -1.6884   -3.1484   -0.9169 C   0  0  0  0  0  0  0  0  0  0  0  0
   -4.0933    1.4568   -0.8892 C   0  0  0  0  0  0  0  0  0  0  0  0
   -4.1631    0.7685    1.4980 C   0  0  0  0  0  0  0  0  0  0  0  0
   -2.8564    2.7708    0.8196 C   0  0  0  0  0  0  0  0  0  0  0  0
    1.7922    0.3169   -1.3850 C   0  0  0  0  0  0  0  0  0  0  0  0
    1.8272   -0.5051    1.3183 C   0  0  0  0  0  0  0  0  0  0  0  0
    2.8111    0.7366   -0.5273 C   0  0  0  0  0  0  0  0  0  0  0  0
    2.8285    0.3284    0.8156 C   0  0  0  0  0  0  0  0  0  0  0  0
   -3.0368   -1.4244    0.5608 H   0  0  0  0  0  0  0  0  0  0  0  0
   -3.0639   -0.9222   -1.1474 H   0  0  0  0  0  0  0  0  0  0  0  0
   -0.9707   -0.3715   -2.1569 H   0  0  0  0  0  0  0  0  0  0  0  0
   -0.0244   -1.8856   -2.2665 H   0  0  0  0  0  0  0  0  0  0  0  0
    0.0153   -2.8387    0.8692 H   0  0  0  0  0  0  0  0  0  0  0  0
   -0.9210   -1.5227    1.6404 H   0  0  0  0  0  0  0  0  0  0  0  0
   -1.4675    1.0124   -0.5680 H   0  0  0  0  0  0  0  0  0  0  0  0
   -1.5128    0.5164    1.1309 H   0  0  0  0  0  0  0  0  0  0  0  0
   -0.7963   -3.7514   -1.1103 H   0  0  0  0  0  0  0  0  0  0  0  0
   -2.2726   -3.5849   -0.1017 H   0  0  0  0  0  0  0  0  0  0  0  0
   -2.2923   -3.0620   -1.8247 H   0  0  0  0  0  0  0  0  0  0  0  0
   -4.8551    2.2288   -0.7404 H   0  0  0  0  0  0  0  0  0  0  0  0
   -3.4256    1.7393   -1.7083 H   0  0  0  0  0  0  0  0  0  0  0  0
   -4.5905    0.5051   -1.0900 H   0  0  0  0  0  0  0  0  0  0  0  0
   -4.6368   -0.1490    1.1408 H   0  0  0  0  0  0  0  0  0  0  0  0
   -3.5482    0.5806    2.3829 H   0  0  0  0  0  0  0  0  0  0  0  0
   -4.9406    1.5042    1.7270 H   0  0  0  0  0  0  0  0  0  0  0  0
   -2.2867    2.6992    1.7508 H   0  0  0  0  0  0  0  0  0  0  0  0
   -2.2406    3.1987    0.0231 H   0  0  0  0  0  0  0  0  0  0  0  0
   -3.7610    3.3678    0.9682 H   0  0  0  0  0  0  0  0  0  0  0  0
  1 17  1  0  0  0  0
  2 18  1  0  0  0  0
  3 19  1  0  0  0  0
  4 20  1  0  0  0  0
  5  7  1  0  0  0  0
  5  8  1  0  0  0  0
  5  9  1  0  0  0  0
  5 13  1  0  0  0  0
  6 10  1  0  0  0  0
  6 14  1  0  0  0  0
  6 15  1  0  0  0  0
  6 16  1  0  0  0  0
  7 10  1  0  0  0  0
  7 21  1  0  0  0  0
  7 22  1  0  0  0  0
  8 11  1  0  0  0  0
  8 23  1  0  0  0  0
  8 24  1  0  0  0  0
  9 12  1  0  0  0  0
  9 25  1  0  0  0  0
  9 26  1  0  0  0  0
 10 27  1  0  0  0  0
 10 28  1  0  0  0  0
 11 12  2  0  0  0  0
 11 17  1  0  0  0  0
 12 18  1  0  0  0  0
 13 29  1  0  0  0  0
 13 30  1  0  0  0  0
 13 31  1  0  0  0  0
 14 32  1  0  0  0  0
 14 33  1  0  0  0  0
 14 34  1  0  0  0  0
 15 35  1  0  0  0  0
 15 36  1  0  0  0  0
 15 37  1  0  0  0  0
 16 38  1  0  0  0  0
 16 39  1  0  0  0  0
 16 40  1  0  0  0  0
 17 19  2  0  0  0  0
 18 20  2  0  0  0  0
 19 20  1  0  0  0  0
M  CHG  2   5   1   6   1
M  END
> <PUBCHEM_COMPOUND_CID>
6244

> <PUBCHEM_CONFORMER_RMSD>
0.6

> <PUBCHEM_CONFORMER_DIVERSEORDER>
1
2
3

> <PUBCHEM_MMFF94_PARTIAL_CHARGES>
20
1 -0.18
10 0.5
11 -0.14
12 -0.14
13 0.5
14 0.5
15 0.5
16 0.5
17 0.18
18 0.18
19 0.18
2 -0.18
20 0.18
3 -0.18
4 -0.18
5 -1.01
6 -1.01
7 0.5
8 0.65
9 0.65

> <PUBCHEM_EFFECTIVE_ROTOR_COUNT>
3.6

> <PUBCHEM_PHARMACOPHORE_FEATURES>
4
1 5 cation
1 6 cation
5 5 8 9 11 12 rings
6 11 12 17 18 19 20 rings

> <PUBCHEM_HEAVY_ATOM_COUNT>
20

> <PUBCHEM_ATOM_DEF_STEREO_COUNT>
0

> <PUBCHEM_ATOM_UDEF_STEREO_COUNT>
0

> <PUBCHEM_BOND_DEF_STEREO_COUNT>
0

> <PUBCHEM_BOND_UDEF_STEREO_COUNT>
0

> <PUBCHEM_ISOTOPIC_ATOM_COUNT>
0

> <PUBCHEM_COMPONENT_COUNT>
1

> <PUBCHEM_CACTVS_TAUTO_COUNT>
1

> <PUBCHEM_CONFORMER_ID>
0000186400000001

> <PUBCHEM_MMFF94_ENERGY>
75.2113

> <PUBCHEM_FEATURE_SELFOVERLAP>
20.373

> <PUBCHEM_SHAPE_FINGERPRINT>
10165383 225 17606368091284528875
10382601 240 17489308620382953840
10498660 4 17968381255569795921
10764073 3 16167239629612079858
11221954 11 17460337467647975664
11471102 22 16271940332250750386
11578080 2 17534590808350737732
11640471 11 18201720647749213549
11725454 13 16589462767750499746
12400797 292 5111998435150006036
12730499 353 16370720418594156319
12788726 201 18125443008163043875
12892183 10 16917343753724409321
13134695 92 17176869403100639191
13294875 104 17606403404089379231
13965767 371 18055921132508985269
14341114 328 17916851474855191609
14739800 52 18049737222091978368
14787075 74 16544672761191125518
14817 1 13781716189401205143
14957384 54 18342464758854740189
15163728 17 17969772000350469960
15209294 21 18199766790244113576
15309172 13 16414639237965691678
15422964 175 15768947920502473250
15534591 1 18200020742764416638
16945 1 18189619341085370254
17357990 137 18060126631351291958
18186145 218 17022901298043879617
20600515 1 17393321014618392519
20739085 24 16702303468956396308
21330990 113 17038109979140149018
21427221 339 18129671918724251528
21524375 3 17822865298095741783
21756936 100 17343192179389864348
22182313 1 16516526569690966008
23114952 82 16153701072123854901
23526113 38 16878487038288788110
23557571 272 17751344106448873351
23559900 14 17968085427181036724
238 59 14996580468270359640
25 1 16878492544547721779
2748010 2 14853286495749024774
31174 14 15338832032559042212
3323516 105 15285368309997622189
3797600 57 17699813342545934521
427121 178 18187640357894572185
539174 4 17915488114516613904
568465 68 15123799495616677288
6442390 28 17895459389753020403
7808743 9 18335127657733470320
81228 2 17897448294449816431

> <PUBCHEM_SHAPE_MULTIPOLES>
409.11
7.24
2.59
2.49
1.89
0.09
0.51
1.44
-5.44
-2.33
-0.01
2.3
-0.19
-1.35

> <PUBCHEM_SHAPE_SELFOVERLAP>
809.586

> <PUBCHEM_SHAPE_VOLUME>
249.6

> <PUBCHEM_COORDINATE_TYPE>
2
5
10

$$$$

