8621
  -OEChem-06261202583D

 19 19  0     0  0  0  0  0  0999 V2000
    2.6558    1.3714   -0.0006 Cl  0  0  0  0  0  0  0  0  0  0  0  0
   -2.7694    1.1673    0.0010 Cl  0  0  0  0  0  0  0  0  0  0  0  0
   -2.3178   -1.7753   -0.0016 O   0  0  0  0  0  0  0  0  0  0  0  0
   -0.0493    1.1117   -0.0001 C   0  0  0  0  0  0  0  0  0  0  0  0
    1.2333   -0.9359    0.0010 C   0  0  0  0  0  0  0  0  0  0  0  0
    1.1831    0.4581    0.0005 C   0  0  0  0  0  0  0  0  0  0  0  0
   -1.2314    0.3713   -0.0004 C   0  0  0  0  0  0  0  0  0  0  0  0
    0.0511   -1.6762    0.0009 C   0  0  0  0  0  0  0  0  0  0  0  0
   -1.1812   -1.0226    0.0003 C   0  0  0  0  0  0  0  0  0  0  0  0
   -0.1045    2.6098   -0.0005 C   0  0  0  0  0  0  0  0  0  0  0  0
    2.5303   -1.6795   -0.0005 C   0  0  0  0  0  0  0  0  0  0  0  0
    0.0865   -2.7632    0.0006 H   0  0  0  0  0  0  0  0  0  0  0  0
   -0.0809    2.9843   -1.0290 H   0  0  0  0  0  0  0  0  0  0  0  0
   -0.9951    3.0071    0.4946 H   0  0  0  0  0  0  0  0  0  0  0  0
    0.7222    3.0606    0.5571 H   0  0  0  0  0  0  0  0  0  0  0  0
    3.1155   -1.4357    0.8924 H   0  0  0  0  0  0  0  0  0  0  0  0
    2.3795   -2.7648    0.0017 H   0  0  0  0  0  0  0  0  0  0  0  0
    3.1116   -1.4384   -0.8967 H   0  0  0  0  0  0  0  0  0  0  0  0
   -2.0786   -2.7180   -0.0011 H   0  0  0  0  0  0  0  0  0  0  0  0
  1  6  1  0  0  0  0
  2  7  1  0  0  0  0
  3  9  1  0  0  0  0
  3 19  1  0  0  0  0
  4  6  2  0  0  0  0
  4  7  1  0  0  0  0
  4 10  1  0  0  0  0
  5  6  1  0  0  0  0
  5  8  2  0  0  0  0
  5 11  1  0  0  0  0
  7  9  2  0  0  0  0
  8  9  1  0  0  0  0
  8 12  1  0  0  0  0
 10 13  1  0  0  0  0
 10 14  1  0  0  0  0
 10 15  1  0  0  0  0
 11 16  1  0  0  0  0
 11 17  1  0  0  0  0
 11 18  1  0  0  0  0
M  END
> <PUBCHEM_COMPOUND_CID>
8621

> <PUBCHEM_CONFORMER_RMSD>
0.4

> <PUBCHEM_CONFORMER_DIVERSEORDER>
1

> <PUBCHEM_MMFF94_PARTIAL_CHARGES>
13
1 -0.18
10 0.14
11 0.14
12 0.15
19 0.45
2 -0.18
3 -0.53
4 -0.14
5 -0.14
6 0.18
7 0.18
8 -0.15
9 0.08

> <PUBCHEM_EFFECTIVE_ROTOR_COUNT>
0

> <PUBCHEM_PHARMACOPHORE_FEATURES>
2
1 3 donor
6 4 5 6 7 8 9 rings

> <PUBCHEM_HEAVY_ATOM_COUNT>
11

> <PUBCHEM_ATOM_DEF_STEREO_COUNT>
0

> <PUBCHEM_ATOM_UDEF_STEREO_COUNT>
0

> <PUBCHEM_BOND_DEF_STEREO_COUNT>
0

> <PUBCHEM_BOND_UDEF_STEREO_COUNT>
0

> <PUBCHEM_ISOTOPIC_ATOM_COUNT>
0

> <PUBCHEM_COMPONENT_COUNT>
1

> <PUBCHEM_CACTVS_TAUTO_COUNT>
9

> <PUBCHEM_CONFORMER_ID>
000021AD00000001

> <PUBCHEM_MMFF94_ENERGY>
30.5924

> <PUBCHEM_FEATURE_SELFOVERLAP>
10.148

> <PUBCHEM_SHAPE_FINGERPRINT>
10967382 1 18338799034342528324
11206711 2 18195528091003396301
12423570 1 14439847578847055077
12524768 44 18336260244803529510
13380535 21 18339067237854418112
16945 1 18194683906422653318
193761 8 18410855447253822404
21040471 1 18410856551065848128
21501502 16 18410577275112373558
2334 1 18410855421494750018
23552423 10 18343862212632611590
241688 4 18411418435877819466
2748010 2 18410009927117696534
5084963 1 17753902906134950600
528886 8 18409735070717218040
53812653 166 18261957332068472976
66348 1 18409729564563921652

> <PUBCHEM_SHAPE_MULTIPOLES>
224.25
3.57
2.59
0.62
0.03
0.49
0
-0.09
0
-0.08
0
-0.02
0.03
0

> <PUBCHEM_SHAPE_SELFOVERLAP>
450.557

> <PUBCHEM_SHAPE_VOLUME>
135.4

> <PUBCHEM_COORDINATE_TYPE>
2
5
10

$$$$

