4327
  -OEChem-06261200023D

 47 50  0     0  0  0  0  0  0999 V2000
    1.3587    0.2353    0.8333 O   0  0  0  0  0  0  0  0  0  0  0  0
   -2.8515   -1.8736    0.4639 N   0  0  0  0  0  0  0  0  0  0  0  0
    1.9516   -1.8314   -0.1184 N   0  0  0  0  0  0  0  0  0  0  0  0
   -2.3114    0.3803    0.0971 N   0  0  0  0  0  0  0  0  0  0  0  0
   -4.4599   -0.2477    0.9896 N   0  0  0  0  0  0  0  0  0  0  0  0
   -0.7896    4.8554   -0.1340 N   0  0  0  0  0  0  0  0  0  0  0  0
    5.9240   -0.7096    0.3964 N   0  0  0  0  0  0  0  0  0  0  0  0
   -1.6704   -2.5229    0.0417 C   0  0  0  0  0  0  0  0  0  0  0  0
   -1.7174   -3.8082   -0.4980 C   0  0  0  0  0  0  0  0  0  0  0  0
    0.7284   -2.4905   -0.2441 C   0  0  0  0  0  0  0  0  0  0  0  0
   -0.4476   -1.8641    0.1686 C   0  0  0  0  0  0  0  0  0  0  0  0
   -0.5414   -4.4349   -0.9106 C   0  0  0  0  0  0  0  0  0  0  0  0
    0.6814   -3.7760   -0.7838 C   0  0  0  0  0  0  0  0  0  0  0  0
   -3.0132   -4.5374   -0.6441 C   0  0  0  0  0  0  0  0  0  0  0  0
   -3.2249   -0.5180    0.5192 C   0  0  0  0  0  0  0  0  0  0  0  0
   -2.7021    1.6699    0.1640 C   0  0  0  0  0  0  0  0  0  0  0  0
    2.1923   -0.5501    0.3950 C   0  0  0  0  0  0  0  0  0  0  0  0
   -1.7248    2.6306   -0.2889 C   0  0  0  0  0  0  0  0  0  0  0  0
    3.6121   -0.1105    0.3711 C   0  0  0  0  0  0  0  0  0  0  0  0
   -3.9384    2.0736    0.6253 C   0  0  0  0  0  0  0  0  0  0  0  0
   -4.7846    1.0613    1.0291 C   0  0  0  0  0  0  0  0  0  0  0  0
   -0.7995    2.3034   -1.2742 C   0  0  0  0  0  0  0  0  0  0  0  0
   -1.6777    3.9090    0.2444 C   0  0  0  0  0  0  0  0  0  0  0  0
    3.9114    1.2280    0.3071 C   0  0  0  0  0  0  0  0  0  0  0  0
    4.6137   -1.0417    0.4139 C   0  0  0  0  0  0  0  0  0  0  0  0
    0.1302    3.2501   -1.6901 C   0  0  0  0  0  0  0  0  0  0  0  0
    5.2485    1.6089    0.2871 C   0  0  0  0  0  0  0  0  0  0  0  0
    0.0936    4.5004   -1.0940 C   0  0  0  0  0  0  0  0  0  0  0  0
    6.2081    0.6106    0.3333 C   0  0  0  0  0  0  0  0  0  0  0  0
   -0.4362   -0.9026    0.6529 H   0  0  0  0  0  0  0  0  0  0  0  0
   -0.5598   -5.4364   -1.3321 H   0  0  0  0  0  0  0  0  0  0  0  0
    1.5898   -4.2766   -1.1094 H   0  0  0  0  0  0  0  0  0  0  0  0
   -3.6208   -2.4924    0.6980 H   0  0  0  0  0  0  0  0  0  0  0  0
   -3.4363   -4.7664    0.3394 H   0  0  0  0  0  0  0  0  0  0  0  0
   -3.7298   -3.9428   -1.2204 H   0  0  0  0  0  0  0  0  0  0  0  0
   -2.8866   -5.4872   -1.1755 H   0  0  0  0  0  0  0  0  0  0  0  0
    2.7383   -2.3557   -0.4905 H   0  0  0  0  0  0  0  0  0  0  0  0
   -4.2696    3.1034    0.6636 H   0  0  0  0  0  0  0  0  0  0  0  0
   -5.7794    1.2806    1.4021 H   0  0  0  0  0  0  0  0  0  0  0  0
   -0.7828    1.3222   -1.7421 H   0  0  0  0  0  0  0  0  0  0  0  0
   -2.3457    4.2420    1.0327 H   0  0  0  0  0  0  0  0  0  0  0  0
    3.1411    1.9919    0.2660 H   0  0  0  0  0  0  0  0  0  0  0  0
    4.4479   -2.1088    0.5043 H   0  0  0  0  0  0  0  0  0  0  0  0
    0.8600    3.0171   -2.4570 H   0  0  0  0  0  0  0  0  0  0  0  0
    5.5307    2.6543    0.2355 H   0  0  0  0  0  0  0  0  0  0  0  0
    0.7973    5.2740   -1.3829 H   0  0  0  0  0  0  0  0  0  0  0  0
    7.2651    0.8552    0.3197 H   0  0  0  0  0  0  0  0  0  0  0  0
  1 17  2  0  0  0  0
  2  8  1  0  0  0  0
  2 15  1  0  0  0  0
  2 33  1  0  0  0  0
  3 10  1  0  0  0  0
  3 17  1  0  0  0  0
  3 37  1  0  0  0  0
  4 15  1  0  0  0  0
  4 16  2  0  0  0  0
  5 15  2  0  0  0  0
  5 21  1  0  0  0  0
  6 23  1  0  0  0  0
  6 28  2  0  0  0  0
  7 25  1  0  0  0  0
  7 29  2  0  0  0  0
  8  9  2  0  0  0  0
  8 11  1  0  0  0  0
  9 12  1  0  0  0  0
  9 14  1  0  0  0  0
 10 11  2  0  0  0  0
 10 13  1  0  0  0  0
 11 30  1  0  0  0  0
 12 13  2  0  0  0  0
 12 31  1  0  0  0  0
 13 32  1  0  0  0  0
 14 34  1  0  0  0  0
 14 35  1  0  0  0  0
 14 36  1  0  0  0  0
 16 18  1  0  0  0  0
 16 20  1  0  0  0  0
 17 19  1  0  0  0  0
 18 22  1  0  0  0  0
 18 23  2  0  0  0  0
 19 24  1  0  0  0  0
 19 25  2  0  0  0  0
 20 21  2  0  0  0  0
 20 38  1  0  0  0  0
 21 39  1  0  0  0  0
 22 26  2  0  0  0  0
 22 40  1  0  0  0  0
 23 41  1  0  0  0  0
 24 27  2  0  0  0  0
 24 42  1  0  0  0  0
 25 43  1  0  0  0  0
 26 28  1  0  0  0  0
 26 44  1  0  0  0  0
 27 29  1  0  0  0  0
 27 45  1  0  0  0  0
 28 46  1  0  0  0  0
 29 47  1  0  0  0  0
M  END
> <PUBCHEM_COMPOUND_CID>
4327

> <PUBCHEM_CONFORMER_RMSD>
0.8

> <PUBCHEM_CONFORMER_DIVERSEORDER>
3
179
158
264
347
188
270
342
210
26
315
360
60
334
356
54
193
266
34
235
309
66
354
220
310
128
211
228
238
221
136
339
187
293
180
116
134
357
330
212
268
58
250
283
358
7
308
226
237
249
155
302
171
113
337
216
20
359
344
145
208
361
33
254
269
324
17
280
39
103
242
267
186
168
345
336
177
150
353
273
261
227
346
252
6
320
167
289
185
307
355
162
198
37
265
282
14
340
306
362
19
263
316
230
67
236
146
349
96
243
239
160
338
101
115
106
196
57
348
176
184
318
153
35
275
285
148
5
174
327
204
131
126
240
233
199
244
140
99
1
295
241
286
351
229
118
274
173
102
40
169
137
317
305
225
301
141
323
325
2
82
79
163
287
284
363
262
83
232
72
201
331
123
209
296
110
114
281
127
69
311
172
182
206
247
312
272
144
86
292
73
314
84
245
135
304
43
104
202
253
215
279
142
290
329
30
81
343
89
36
246
321
190
97
255
257
112
80
231
65
120
341
41
108
218
313
68
109
78
350
31
45
75
298
300
94
175
352
234
124
214
53
111
90
16
64
222
139
13
276
56
76
77
87
299
47
322
191
71
15
332
149
49
107
256
328
24
224
119
277
42
223
291
44
278
297
122
303
207
195
121
194
25
50
27
161
326
133
258
200
333
4
29
288
147
132
260
259
217
38
205
156
93
98
46
130
251
88
335
159
152
178
248
294
129
170
62
143
271
100
319
219
197
55
165
70
157
61
105
91
192
18
117
125
8
181
151
21
138
189
213
92
9
203
154
164
74
166
52
63
183
48
95
51
32
12
59
85
28
23
10
22
11

> <PUBCHEM_MMFF94_PARTIAL_CHARGES>
43
1 -0.57
10 0.12
11 -0.15
12 -0.15
13 -0.15
14 0.14
15 0.72
16 0.31
17 0.54
19 0.09
2 -0.6
20 -0.15
21 0.16
22 -0.15
23 0.16
24 -0.15
25 0.16
26 -0.15
27 -0.15
28 0.16
29 0.16
3 -0.55
30 0.15
31 0.15
32 0.15
33 0.4
37 0.37
38 0.15
39 0.15
4 -0.62
40 0.15
41 0.15
42 0.15
43 0.15
44 0.15
45 0.15
46 0.15
47 0.15
5 -0.62
6 -0.62
7 -0.62
8 0.1
9 -0.14

> <PUBCHEM_EFFECTIVE_ROTOR_COUNT>
6

> <PUBCHEM_PHARMACOPHORE_FEATURES>
11
1 1 acceptor
1 2 donor
1 3 donor
1 4 acceptor
1 6 acceptor
1 7 acceptor
4 2 4 5 15 cation
6 4 5 15 16 20 21 rings
6 6 18 22 23 26 28 rings
6 7 19 24 25 27 29 rings
6 8 9 10 11 12 13 rings

> <PUBCHEM_HEAVY_ATOM_COUNT>
29

> <PUBCHEM_ATOM_DEF_STEREO_COUNT>
0

> <PUBCHEM_ATOM_UDEF_STEREO_COUNT>
0

> <PUBCHEM_BOND_DEF_STEREO_COUNT>
0

> <PUBCHEM_BOND_UDEF_STEREO_COUNT>
0

> <PUBCHEM_ISOTOPIC_ATOM_COUNT>
0

> <PUBCHEM_COMPONENT_COUNT>
1

> <PUBCHEM_CACTVS_TAUTO_COUNT>
6

> <PUBCHEM_CONFORMER_ID>
000010E700000003

> <PUBCHEM_MMFF94_ENERGY>
106.3458

> <PUBCHEM_FEATURE_SELFOVERLAP>
55.818

> <PUBCHEM_SHAPE_FINGERPRINT>
10006869 2 18128829723035146403
10165383 225 18187361069019363795
10721379 63 4938460265002843194
1100329 8 18195243305013146823
11014199 57 17833553392863022010
12677640 9 18187923925180200545
13402501 40 18410011078285229952
13773456 30 17622746609565708668
138480 1 16751844460167883246
14068700 675 17825403890208722263
14117953 113 18412260666407042405
14466204 15 17403462265221787426
15320467 1 18410012165197000112
15351339 4 16537644661391278320
19611394 137 18058151840239707195
21796203 349 17839419411824580889
22113638 7 18340202990748761781
25019877 29 17676481718700415039
474144 1 17701515364934025140
5047190 48 18339073899686583844
50677037 204 18265061223798385840
5171179 24 17759797443980690727
6004065 56 18410581678403684349
6287921 2 17908968139218222772
6700243 42 17538528082412722710
7399639 24 18122901199298303083
7808743 9 18408325471352238370

> <PUBCHEM_SHAPE_MULTIPOLES>
561.05
9.99
7.25
1.04
14.53
0.14
0.24
-1.23
-3.87
-5.7
3.12
-0.36
-0.44
-0.71

> <PUBCHEM_SHAPE_SELFOVERLAP>
1238.415

> <PUBCHEM_SHAPE_VOLUME>
297.2

> <PUBCHEM_COORDINATE_TYPE>
2
5
10

$$$$

