12482
  -OEChem-06261206593D

 26 27  0     0  0  0  0  0  0999 V2000
    0.1968    1.4751    1.0922 S   0  0  0  0  0  0  0  0  0  0  0  0
    0.4789   -0.6328   -0.4668 N   0  0  0  0  0  0  0  0  0  0  0  0
   -1.8525    0.0407    0.0335 C   0  0  0  0  0  0  0  0  0  0  0  0
    1.8461   -0.3685   -0.2755 C   0  0  0  0  0  0  0  0  0  0  0  0
   -0.4036    0.1424    0.1052 C   0  0  0  0  0  0  0  0  0  0  0  0
   -2.4571   -1.2054   -0.1319 C   0  0  0  0  0  0  0  0  0  0  0  0
   -2.6376    1.1894    0.1301 C   0  0  0  0  0  0  0  0  0  0  0  0
    2.5195   -0.9545    0.7916 C   0  0  0  0  0  0  0  0  0  0  0  0
    2.5151    0.4769   -1.1545 C   0  0  0  0  0  0  0  0  0  0  0  0
   -3.8468   -1.3027   -0.2009 C   0  0  0  0  0  0  0  0  0  0  0  0
   -4.0274    1.0922    0.0612 C   0  0  0  0  0  0  0  0  0  0  0  0
   -4.6320   -0.1540   -0.1044 C   0  0  0  0  0  0  0  0  0  0  0  0
    3.8763   -0.6923    0.9816 C   0  0  0  0  0  0  0  0  0  0  0  0
    3.8720    0.7391   -0.9647 C   0  0  0  0  0  0  0  0  0  0  0  0
    4.5525    0.1544    0.1034 C   0  0  0  0  0  0  0  0  0  0  0  0
   -1.8612   -2.1115   -0.2056 H   0  0  0  0  0  0  0  0  0  0  0  0
   -2.2225    2.1885    0.2194 H   0  0  0  0  0  0  0  0  0  0  0  0
    2.0013   -1.6175    1.4793 H   0  0  0  0  0  0  0  0  0  0  0  0
    1.9937    0.9348   -1.9909 H   0  0  0  0  0  0  0  0  0  0  0  0
   -4.3178   -2.2730   -0.3295 H   0  0  0  0  0  0  0  0  0  0  0  0
   -4.6394    1.9872    0.1272 H   0  0  0  0  0  0  0  0  0  0  0  0
   -5.7140   -0.2295   -0.1601 H   0  0  0  0  0  0  0  0  0  0  0  0
    4.4063   -1.1479    1.8129 H   0  0  0  0  0  0  0  0  0  0  0  0
    4.3986    1.3981   -1.6487 H   0  0  0  0  0  0  0  0  0  0  0  0
    5.6089    0.3585    0.2511 H   0  0  0  0  0  0  0  0  0  0  0  0
    0.8177    2.1544    0.1176 H   0  0  0  0  0  0  0  0  0  0  0  0
  1  5  1  0  0  0  0
  1 26  1  0  0  0  0
  2  4  1  0  0  0  0
  2  5  2  0  0  0  0
  3  5  1  0  0  0  0
  3  6  2  0  0  0  0
  3  7  1  0  0  0  0
  4  8  2  0  0  0  0
  4  9  1  0  0  0  0
  6 10  1  0  0  0  0
  6 16  1  0  0  0  0
  7 11  2  0  0  0  0
  7 17  1  0  0  0  0
  8 13  1  0  0  0  0
  8 18  1  0  0  0  0
  9 14  2  0  0  0  0
  9 19  1  0  0  0  0
 10 12  2  0  0  0  0
 10 20  1  0  0  0  0
 11 12  1  0  0  0  0
 11 21  1  0  0  0  0
 12 22  1  0  0  0  0
 13 15  2  0  0  0  0
 13 23  1  0  0  0  0
 14 15  1  0  0  0  0
 14 24  1  0  0  0  0
 15 25  1  0  0  0  0
M  END
> <PUBCHEM_COMPOUND_CID>
12482

> <PUBCHEM_CONFORMER_RMSD>
0.6

> <PUBCHEM_CONFORMER_DIVERSEORDER>
1

> <PUBCHEM_MMFF94_PARTIAL_CHARGES>
26
1 -0.32
10 -0.15
11 -0.15
12 -0.15
13 -0.15
14 -0.15
15 -0.15
16 0.15
17 0.15
18 0.15
19 0.15
2 -0.63
20 0.15
21 0.15
22 0.15
23 0.15
24 0.15
25 0.15
26 0.18
3 0.09
4 0.18
5 0.5
6 -0.15
7 -0.15
8 -0.15
9 -0.15

> <PUBCHEM_EFFECTIVE_ROTOR_COUNT>
2

> <PUBCHEM_PHARMACOPHORE_FEATURES>
3
1 2 acceptor
6 3 6 7 10 11 12 rings
6 4 8 9 13 14 15 rings

> <PUBCHEM_HEAVY_ATOM_COUNT>
15

> <PUBCHEM_ATOM_DEF_STEREO_COUNT>
0

> <PUBCHEM_ATOM_UDEF_STEREO_COUNT>
0

> <PUBCHEM_BOND_DEF_STEREO_COUNT>
0

> <PUBCHEM_BOND_UDEF_STEREO_COUNT>
0

> <PUBCHEM_ISOTOPIC_ATOM_COUNT>
0

> <PUBCHEM_COMPONENT_COUNT>
1

> <PUBCHEM_CACTVS_TAUTO_COUNT>
2

> <PUBCHEM_CONFORMER_ID>
000030C200000001

> <PUBCHEM_MMFF94_ENERGY>
59.0144

> <PUBCHEM_FEATURE_SELFOVERLAP>
15.223

> <PUBCHEM_SHAPE_FINGERPRINT>
10465860 250 18260837011371354329
10912923 1 18202282498122279585
12107183 9 17552367986772703848
12236239 1 18343302570162535398
12403814 3 18060418045330997685
13167823 11 18202284710036056082
13296908 3 17312818294667115733
13760787 19 18343300366227367922
14123238 8 17846498131934105327
14252887 29 16805316691360164462
14386348 63 17240198833028650143
15375358 24 17458346355342880367
17804303 29 18187929443885751041
17834072 33 18131069298976203159
18186145 218 15339116844641036608
19026448 5 18131632287531439622
19050596 39 18272932730151000042
200 152 17988926669099093254
20279233 1 17168143446582930319
20281475 54 18412832378004050195
20645477 70 16486981721400424130
22485316 2 18412548712456589195
22646028 1 18202004325975490847
22854114 59 15430038759750537930
23048698 100 17846497045439254712
23402539 116 17703796928717667981
23402655 69 17917713530072035924
23557571 272 17822282539436828492
23559900 14 18042117816557939582
26918003 58 16774077371234162048
300161 21 18272940418168879141
4214541 1 18342740745116103285
474 4 17202191916197843212
4921388 177 16271919368884624931
5104073 3 18342457040792897464
5281201 14 15502365751618022224
542803 24 18131348613573710492
573450 72 18341902912955444139
633830 44 14836124359857268391
69090 78 16271924891621717026
7495541 125 18341326678916096185
77779 3 18272931626360300623
81228 2 17532633831866106545
9709674 26 18342450460993300155
9971528 1 17489588974520848084

> <PUBCHEM_SHAPE_MULTIPOLES>
307.56
9.72
1.35
0.99
0.69
0.12
-0.02
-0.55
0.48
0.78
-0.19
-0.89
0.12
-0.61

> <PUBCHEM_SHAPE_SELFOVERLAP>
652.018

> <PUBCHEM_SHAPE_VOLUME>
172.5

> <PUBCHEM_COORDINATE_TYPE>
2
5
10

$$$$

