5043
  -OEChem-06261200293D

 60 66  0     1  0  0  0  0  0999 V2000
   -2.7165   -3.6663    0.1159 Cl  0  0  0  0  0  0  0  0  0  0  0  0
   -2.0195    4.0908   -0.1175 Cl  0  0  0  0  0  0  0  0  0  0  0  0
   -1.9007    0.4985    0.7135 O   0  0  0  0  0  0  0  0  0  0  0  0
   -3.0412   -1.8099   -1.8229 O   0  0  0  0  0  0  0  0  0  0  0  0
   -4.9637   -0.4293    0.1239 O   0  0  0  0  0  0  0  0  0  0  0  0
   -2.8190    1.7475   -1.8775 O   0  0  0  0  0  0  0  0  0  0  0  0
   -2.9220    1.3866    3.2885 O   0  0  0  0  0  0  0  0  0  0  0  0
    4.8268   -2.7054    0.0695 O   0  0  0  0  0  0  0  0  0  0  0  0
    5.2376    1.8890   -0.0743 O   0  0  0  0  0  0  0  0  0  0  0  0
   -0.4963   -1.3106    0.0423 N   0  0  0  0  0  0  0  0  0  0  0  0
   -0.2486    1.4607   -0.0421 N   0  0  0  0  0  0  0  0  0  0  0  0
    5.4209   -0.4430   -0.0014 N   0  0  0  0  0  0  0  0  0  0  0  0
   -1.9070   -0.7543    0.0281 C   0  0  2  0  0  0  0  0  0  0  0  0
   -2.4362   -0.5824   -1.4117 C   0  0  2  0  0  0  0  0  0  0  0  0
   -3.4833    0.5377   -1.5164 C   0  0  1  0  0  0  0  0  0  0  0  0
   -4.2076    0.7401   -0.1835 C   0  0  2  0  0  0  0  0  0  0  0  0
    0.7224   -0.7252    0.0215 C   0  0  0  0  0  0  0  0  0  0  0  0
   -3.2020    1.0578    0.9430 C   0  0  1  0  0  0  0  0  0  0  0  0
    1.9444   -1.4777    0.0408 C   0  0  0  0  0  0  0  0  0  0  0  0
   -0.1417   -2.6508    0.0813 C   0  0  0  0  0  0  0  0  0  0  0  0
    0.8469    0.6684   -0.0214 C   0  0  0  0  0  0  0  0  0  0  0  0
    1.2871   -2.7917    0.0821 C   0  0  0  0  0  0  0  0  0  0  0  0
    2.1830    1.1920   -0.0416 C   0  0  0  0  0  0  0  0  0  0  0  0
    3.2298   -0.9440    0.0210 C   0  0  0  0  0  0  0  0  0  0  0  0
    3.3534    0.4388   -0.0220 C   0  0  0  0  0  0  0  0  0  0  0  0
   -3.6790    0.6641    2.3367 C   0  0  0  0  0  0  0  0  0  0  0  0
    1.7694    2.6019   -0.0837 C   0  0  0  0  0  0  0  0  0  0  0  0
   -0.9937   -3.7652    0.1161 C   0  0  0  0  0  0  0  0  0  0  0  0
    0.3383    2.7167   -0.0827 C   0  0  0  0  0  0  0  0  0  0  0  0
    1.8062   -4.1084    0.1201 C   0  0  0  0  0  0  0  0  0  0  0  0
    4.5631   -1.5201    0.0343 C   0  0  0  0  0  0  0  0  0  0  0  0
    4.7679    0.7691   -0.0371 C   0  0  0  0  0  0  0  0  0  0  0  0
   -0.4305   -5.0413    0.1527 C   0  0  0  0  0  0  0  0  0  0  0  0
    0.9477   -5.2124    0.1549 C   0  0  0  0  0  0  0  0  0  0  0  0
    2.5139    3.8055   -0.1234 C   0  0  0  0  0  0  0  0  0  0  0  0
   -0.3025    3.9646   -0.1192 C   0  0  0  0  0  0  0  0  0  0  0  0
   -6.1909   -0.4568   -0.5906 C   0  0  0  0  0  0  0  0  0  0  0  0
    1.8648    5.0443   -0.1597 C   0  0  0  0  0  0  0  0  0  0  0  0
    0.4782    5.1206   -0.1575 C   0  0  0  0  0  0  0  0  0  0  0  0
   -2.4955   -1.4013    0.6654 H   0  0  0  0  0  0  0  0  0  0  0  0
   -1.6056   -0.3894   -2.1014 H   0  0  0  0  0  0  0  0  0  0  0  0
   -4.1941    0.3186   -2.3187 H   0  0  0  0  0  0  0  0  0  0  0  0
   -4.8864    1.6019   -0.2446 H   0  0  0  0  0  0  0  0  0  0  0  0
   -3.0583    2.1317    0.9728 H   0  0  0  0  0  0  0  0  0  0  0  0
   -4.7316    0.9282    2.4792 H   0  0  0  0  0  0  0  0  0  0  0  0
   -3.5411   -0.4039    2.5299 H   0  0  0  0  0  0  0  0  0  0  0  0
   -1.1847    1.2924   -0.3425 H   0  0  0  0  0  0  0  0  0  0  0  0
   -3.3076   -1.7087   -2.7526 H   0  0  0  0  0  0  0  0  0  0  0  0
    2.8776   -4.2820    0.1227 H   0  0  0  0  0  0  0  0  0  0  0  0
   -2.4043    1.6085   -2.7460 H   0  0  0  0  0  0  0  0  0  0  0  0
    6.4309   -0.5333   -0.0021 H   0  0  0  0  0  0  0  0  0  0  0  0
   -1.0644   -5.9252    0.1800 H   0  0  0  0  0  0  0  0  0  0  0  0
    1.3666   -6.2149    0.1836 H   0  0  0  0  0  0  0  0  0  0  0  0
    3.5990    3.7862   -0.1263 H   0  0  0  0  0  0  0  0  0  0  0  0
   -6.7572   -1.3281   -0.2488 H   0  0  0  0  0  0  0  0  0  0  0  0
   -6.0315   -0.5663   -1.6659 H   0  0  0  0  0  0  0  0  0  0  0  0
   -6.7879    0.4365   -0.3820 H   0  0  0  0  0  0  0  0  0  0  0  0
   -3.2432    1.1269    4.1688 H   0  0  0  0  0  0  0  0  0  0  0  0
    2.4550    5.9565   -0.1899 H   0  0  0  0  0  0  0  0  0  0  0  0
    0.0070    6.1006   -0.1864 H   0  0  0  0  0  0  0  0  0  0  0  0
  1 28  1  0  0  0  0
  2 36  1  0  0  0  0
  3 13  1  0  0  0  0
  3 18  1  0  0  0  0
  4 14  1  0  0  0  0
  4 48  1  0  0  0  0
  5 16  1  0  0  0  0
  5 37  1  0  0  0  0
  6 15  1  0  0  0  0
  6 50  1  0  0  0  0
  7 26  1  0  0  0  0
  7 58  1  0  0  0  0
  8 31  2  0  0  0  0
  9 32  2  0  0  0  0
 10 13  1  0  0  0  0
 10 17  1  0  0  0  0
 10 20  1  0  0  0  0
 11 21  1  0  0  0  0
 11 29  1  0  0  0  0
 11 47  1  0  0  0  0
 12 31  1  0  0  0  0
 12 32  1  0  0  0  0
 12 51  1  0  0  0  0
 13 14  1  0  0  0  0
 13 40  1  0  0  0  0
 14 15  1  0  0  0  0
 14 41  1  0  0  0  0
 15 16  1  0  0  0  0
 15 42  1  0  0  0  0
 16 18  1  0  0  0  0
 16 43  1  0  0  0  0
 17 19  1  0  0  0  0
 17 21  2  0  0  0  0
 18 26  1  0  0  0  0
 18 44  1  0  0  0  0
 19 22  1  0  0  0  0
 19 24  2  0  0  0  0
 20 22  2  0  0  0  0
 20 28  1  0  0  0  0
 21 23  1  0  0  0  0
 22 30  1  0  0  0  0
 23 25  2  0  0  0  0
 23 27  1  0  0  0  0
 24 25  1  0  0  0  0
 24 31  1  0  0  0  0
 25 32  1  0  0  0  0
 26 45  1  0  0  0  0
 26 46  1  0  0  0  0
 27 29  2  0  0  0  0
 27 35  1  0  0  0  0
 28 33  2  0  0  0  0
 29 36  1  0  0  0  0
 30 34  2  0  0  0  0
 30 49  1  0  0  0  0
 33 34  1  0  0  0  0
 33 52  1  0  0  0  0
 34 53  1  0  0  0  0
 35 38  2  0  0  0  0
 35 54  1  0  0  0  0
 36 39  2  0  0  0  0
 37 55  1  0  0  0  0
 37 56  1  0  0  0  0
 37 57  1  0  0  0  0
 38 39  1  0  0  0  0
 38 59  1  0  0  0  0
 39 60  1  0  0  0  0
M  END
> <PUBCHEM_COMPOUND_CID>
5043

> <PUBCHEM_CONFORMER_RMSD>
0.8

> <PUBCHEM_CONFORMER_DIVERSEORDER>
1
6
2
11
13

> <PUBCHEM_MMFF94_PARTIAL_CHARGES>
48
1 -0.18
10 -0.04
11 -0.05
12 -0.49
13 0.54
14 0.28
15 0.28
16 0.28
17 -0.05
18 0.28
19 -0.01
2 -0.18
20 -0.15
21 -0.05
23 -0.01
24 0.09
25 0.09
26 0.28
28 0.18
29 -0.15
3 -0.56
30 -0.15
31 0.54
32 0.54
33 -0.15
34 -0.15
35 -0.15
36 0.18
37 0.28
38 -0.15
39 -0.15
4 -0.68
47 0.27
48 0.4
49 0.15
5 -0.56
50 0.4
51 0.37
52 0.15
53 0.15
54 0.15
58 0.4
59 0.15
6 -0.68
60 0.15
7 -0.68
8 -0.57
9 -0.57

> <PUBCHEM_EFFECTIVE_ROTOR_COUNT>
4.4

> <PUBCHEM_PHARMACOPHORE_FEATURES>
21
1 10 cation
1 11 cation
1 11 donor
1 12 donor
1 3 acceptor
1 4 acceptor
1 4 donor
1 5 acceptor
1 6 acceptor
1 6 donor
1 7 acceptor
1 7 donor
1 8 acceptor
1 9 acceptor
5 10 17 19 20 22 rings
5 11 21 23 27 29 rings
5 12 24 25 31 32 rings
6 17 19 21 23 24 25 rings
6 20 22 28 30 33 34 rings
6 27 29 35 36 38 39 rings
6 3 13 14 15 16 18 rings

> <PUBCHEM_HEAVY_ATOM_COUNT>
39

> <PUBCHEM_ATOM_DEF_STEREO_COUNT>
0

> <PUBCHEM_ATOM_UDEF_STEREO_COUNT>
5

> <PUBCHEM_BOND_DEF_STEREO_COUNT>
0

> <PUBCHEM_BOND_UDEF_STEREO_COUNT>
0

> <PUBCHEM_ISOTOPIC_ATOM_COUNT>
0

> <PUBCHEM_COMPONENT_COUNT>
1

> <PUBCHEM_CACTVS_TAUTO_COUNT>
21

> <PUBCHEM_CONFORMER_ID>
000013B300000001

> <PUBCHEM_MMFF94_ENERGY>
197.2922

> <PUBCHEM_FEATURE_SELFOVERLAP>
107.035

> <PUBCHEM_SHAPE_FINGERPRINT>
10190108 129 17905576115670629336
10675989 125 17836949049604373173
1100329 8 18338799988041552368
12788726 201 18268713995026108866
13140716 1 18338231557488263392
1361 2 18411423878218477339
13636023 51 5495947234224025018
13911987 19 18343013406862108180
140371 6 18120091672375173018
14790565 3 18410849997410172996
14955137 171 18340471344336619514
15320467 1 18411139116953546677
15420108 30 17608355067810222953
15439362 3 18194691366918919125
15927050 60 17905886972560712309
16112460 7 18334009484836257864
19311894 1 18409451405592965062
19319366 153 18189062989045773479
19591789 44 18266458887813220954
19930381 70 18340208608761059567
20028762 73 18260833691467629871
20642791 105 17183914566621118713
20739085 24 18195504069568074136
20764821 26 18268143158721454172
20775438 99 17325813229596787455
21796203 349 17980721044461318584
23559900 14 17832715573702984280
3178227 256 18339633469938469963
350125 39 18124309406994314787
3886686 26 17760401832390403992
469060 322 18337387274471693273
50150288 127 16740254044575260897
5309563 4 18338800134228722095
9961470 85 17974296421373111288

> <PUBCHEM_SHAPE_MULTIPOLES>
750.31
9.01
7.63
1.26
0.09
0.49
0.67
-0.04
-0.33
-2.82
-0.01
2.06
-0.51
-0.61

> <PUBCHEM_SHAPE_SELFOVERLAP>
1698.894

> <PUBCHEM_SHAPE_VOLUME>
392.7

> <PUBCHEM_COORDINATE_TYPE>
2
5
10

$$$$

