17395768
  -OEChem-06241222522D

 40 42  0     0  0  0  0  0  0999 V2000
    4.5981    0.4879    0.0000 Cl  0  0  0  0  0  0  0  0  0  0  0  0
   10.7263   -0.0362    0.0000 O   0  0  0  0  0  0  0  0  0  0  0  0
   10.7263    2.0121    0.0000 O   0  0  0  0  0  0  0  0  0  0  0  0
    7.1962    2.9879    0.0000 O   0  0  0  0  0  0  0  0  0  0  0  0
    2.0000   -3.0121    0.0000 O   0  0  0  0  0  0  0  0  0  0  0  0
    7.1962   -0.0121    0.0000 N   0  0  0  0  0  0  0  0  0  0  0  0
    6.3301    1.4879    0.0000 N   0  0  0  0  0  0  0  0  0  0  0  0
    8.0622    0.4879    0.0000 C   0  0  0  0  0  0  0  0  0  0  0  0
    8.0622    1.4879    0.0000 C   0  0  0  0  0  0  0  0  0  0  0  0
    6.3301    0.4879    0.0000 C   0  0  0  0  0  0  0  0  0  0  0  0
    8.9561   -0.0467    0.0000 C   0  0  0  0  0  0  0  0  0  0  0  0
    8.9561    2.0226    0.0000 C   0  0  0  0  0  0  0  0  0  0  0  0
    7.1962    1.9879    0.0000 C   0  0  0  0  0  0  0  0  0  0  0  0
    9.8622    0.4671    0.0000 C   0  0  0  0  0  0  0  0  0  0  0  0
    9.8622    1.5087    0.0000 C   0  0  0  0  0  0  0  0  0  0  0  0
    5.4641   -0.0121    0.0000 C   0  0  0  0  0  0  0  0  0  0  0  0
    5.4641   -1.0121    0.0000 C   0  0  0  0  0  0  0  0  0  0  0  0
    4.5981   -1.5121    0.0000 C   0  0  0  0  0  0  0  0  0  0  0  0
    3.7320   -1.0121    0.0000 C   0  0  0  0  0  0  0  0  0  0  0  0
    4.5981   -2.5121    0.0000 C   0  0  0  0  0  0  0  0  0  0  0  0
   10.7224   -1.0362    0.0000 C   0  0  0  0  0  0  0  0  0  0  0  0
   10.7224    3.0121    0.0000 C   0  0  0  0  0  0  0  0  0  0  0  0
    2.8660   -1.5121    0.0000 C   0  0  0  0  0  0  0  0  0  0  0  0
    3.7320   -3.0121    0.0000 C   0  0  0  0  0  0  0  0  0  0  0  0
    2.8660   -2.5121    0.0000 C   0  0  0  0  0  0  0  0  0  0  0  0
    7.1962   -0.6321    0.0000 H   0  0  0  0  0  0  0  0  0  0  0  0
    8.9490   -0.6667    0.0000 H   0  0  0  0  0  0  0  0  0  0  0  0
    8.9490    2.6426    0.0000 H   0  0  0  0  0  0  0  0  0  0  0  0
    5.7932    1.7979    0.0000 H   0  0  0  0  0  0  0  0  0  0  0  0
    6.0010   -1.3221    0.0000 H   0  0  0  0  0  0  0  0  0  0  0  0
    5.1350   -2.8221    0.0000 H   0  0  0  0  0  0  0  0  0  0  0  0
    3.7320   -0.3921    0.0000 H   0  0  0  0  0  0  0  0  0  0  0  0
   10.1024   -1.0338    0.0000 H   0  0  0  0  0  0  0  0  0  0  0  0
   10.7200   -1.6562    0.0000 H   0  0  0  0  0  0  0  0  0  0  0  0
   11.3424   -1.0386    0.0000 H   0  0  0  0  0  0  0  0  0  0  0  0
   11.3424    3.0145    0.0000 H   0  0  0  0  0  0  0  0  0  0  0  0
   10.7200    3.6321    0.0000 H   0  0  0  0  0  0  0  0  0  0  0  0
   10.1024    3.0097    0.0000 H   0  0  0  0  0  0  0  0  0  0  0  0
    3.7320   -3.6321    0.0000 H   0  0  0  0  0  0  0  0  0  0  0  0
    2.3291   -1.2021    0.0000 H   0  0  0  0  0  0  0  0  0  0  0  0
  1 16  1  0  0  0  0
  2 14  1  0  0  0  0
  2 21  1  0  0  0  0
  3 15  1  0  0  0  0
  3 22  1  0  0  0  0
  4 13  2  0  0  0  0
  5 25  2  0  0  0  0
  6  8  1  0  0  0  0
  6 10  1  0  0  0  0
  6 26  1  0  0  0  0
  7 10  1  0  0  0  0
  7 13  1  0  0  0  0
  7 29  1  0  0  0  0
  8  9  1  0  0  0  0
  8 11  2  0  0  0  0
  9 12  2  0  0  0  0
  9 13  1  0  0  0  0
 10 16  2  0  0  0  0
 11 14  1  0  0  0  0
 11 27  1  0  0  0  0
 12 15  1  0  0  0  0
 12 28  1  0  0  0  0
 14 15  2  0  0  0  0
 16 17  1  0  0  0  0
 17 18  2  0  0  0  0
 17 30  1  0  0  0  0
 18 19  1  0  0  0  0
 18 20  1  0  0  0  0
 19 23  2  0  0  0  0
 19 32  1  0  0  0  0
 20 24  2  0  0  0  0
 20 31  1  0  0  0  0
 21 33  1  0  0  0  0
 21 34  1  0  0  0  0
 21 35  1  0  0  0  0
 22 36  1  0  0  0  0
 22 37  1  0  0  0  0
 22 38  1  0  0  0  0
 23 25  1  0  0  0  0
 23 40  1  0  0  0  0
 24 25  1  0  0  0  0
 24 39  1  0  0  0  0
M  END
> <PUBCHEM_COMPOUND_CID>
17395768

> <PUBCHEM_COMPOUND_CANONICALIZED>
1

> <PUBCHEM_CACTVS_COMPLEXITY>
677

> <PUBCHEM_CACTVS_HBOND_ACCEPTOR>
5

> <PUBCHEM_CACTVS_HBOND_DONOR>
2

> <PUBCHEM_CACTVS_ROTATABLE_BOND>
3

> <PUBCHEM_CACTVS_SUBSKEYS>
AAADccB7OAAEAAAAAAAAAAAAAAAAAAAAAAA8QIAAAAAAAACxAAAAHgIQAAAADA6BmAIzxoLABACIAqVSUACCCAAlIgAIiAEG7MiNJjrE9ZuEMapu0RtK6ee63BPOIEABAgACQABAgAIEAASAAAAAAAAAAA==

> <PUBCHEM_IUPAC_OPENEYE_NAME>
(2Z)-2-[1-chloro-2-(4-oxocyclohexa-2,5-dien-1-ylidene)ethylidene]-6,7-dimethoxy-1H-quinazolin-4-one

> <PUBCHEM_IUPAC_CAS_NAME>
(2Z)-2-[1-chloro-2-(4-oxo-1-cyclohexa-2,5-dienylidene)ethylidene]-6,7-dimethoxy-1H-quinazolin-4-one

> <PUBCHEM_IUPAC_NAME>
(2Z)-2-[1-chloro-2-(4-oxocyclohexa-2,5-dien-1-ylidene)ethylidene]-6,7-dimethoxy-1H-quinazolin-4-one

> <PUBCHEM_IUPAC_SYSTEMATIC_NAME>
(2Z)-2-[1-chloranyl-2-(4-oxidanylidenecyclohexa-2,5-dien-1-ylidene)ethylidene]-6,7-dimethoxy-1H-quinazolin-4-one

> <PUBCHEM_IUPAC_TRADITIONAL_NAME>
(2Z)-2-[1-chloro-2-(4-ketocyclohexa-2,5-dien-1-ylidene)ethylidene]-6,7-dimethoxy-1H-quinazolin-4-one

> <PUBCHEM_IUPAC_INCHI>
InChI=1S/C18H15ClN2O4/c1-24-15-8-12-14(9-16(15)25-2)20-17(21-18(12)23)13(19)7-10-3-5-11(22)6-4-10/h3-9,20H,1-2H3,(H,21,23)/b17-13-

> <PUBCHEM_IUPAC_INCHIKEY>
YNHCXDWCMXIABJ-LGMDPLHJSA-N

> <PUBCHEM_XLOGP3_AA>
2.5

> <PUBCHEM_EXACT_MASS>
358.072035

> <PUBCHEM_MOLECULAR_FORMULA>
C18H15ClN2O4

> <PUBCHEM_MOLECULAR_WEIGHT>
358.7757

> <PUBCHEM_OPENEYE_CAN_SMILES>
COC1=C(C=C2C(=C1)C(=O)NC(=C(C=C3C=CC(=O)C=C3)Cl)N2)OC

> <PUBCHEM_OPENEYE_ISO_SMILES>
COC1=C(C=C2C(=C1)C(=O)N/C(=C(/C=C3C=CC(=O)C=C3)\Cl)/N2)OC

> <PUBCHEM_CACTVS_TPSA>
76.7

> <PUBCHEM_MONOISOTOPIC_WEIGHT>
358.072035

> <PUBCHEM_TOTAL_CHARGE>
0

> <PUBCHEM_HEAVY_ATOM_COUNT>
25

> <PUBCHEM_ATOM_DEF_STEREO_COUNT>
0

> <PUBCHEM_ATOM_UDEF_STEREO_COUNT>
0

> <PUBCHEM_BOND_DEF_STEREO_COUNT>
1

> <PUBCHEM_BOND_UDEF_STEREO_COUNT>
0

> <PUBCHEM_ISOTOPIC_ATOM_COUNT>
0

> <PUBCHEM_COMPONENT_COUNT>
1

> <PUBCHEM_CACTVS_TAUTO_COUNT>
25

> <PUBCHEM_COORDINATE_TYPE>
1
5
255

> <PUBCHEM_BONDANNOTATIONS>
11  14  8
12  15  8
14  15  8
8  11  8
8  9  8
9  12  8

$$$$

