7847013
  -OEChem-06241222483D

 40 42  0     0  0  0  0  0  0999 V2000
    3.3641    1.9201   -0.8336 S   0  0  0  0  0  0  0  0  0  0  0  0
   -6.2344    0.5876    0.0751 F   0  0  0  0  0  0  0  0  0  0  0  0
    2.1638   -1.8605   -0.7049 O   0  0  0  0  0  0  0  0  0  0  0  0
    3.2040   -3.1724    0.8822 O   0  0  0  0  0  0  0  0  0  0  0  0
   -0.1093   -0.7254   -1.5809 O   0  0  0  0  0  0  0  0  0  0  0  0
    2.2829    0.6648    1.1430 N   0  0  0  0  0  0  0  0  0  0  0  0
   -1.3288   -1.9517    0.0130 N   0  0  0  0  0  0  0  0  0  0  0  0
    4.5372   -0.1513    0.5488 C   0  0  0  0  0  0  0  0  0  0  0  0
    4.4309   -1.4342   -0.2965 C   0  0  0  0  0  0  0  0  0  0  0  0
    3.3587    0.7288    0.3937 C   0  0  0  0  0  0  0  0  0  0  0  0
    1.7877    2.4179   -0.3438 C   0  0  0  0  0  0  0  0  0  0  0  0
    1.3725    1.6275    0.7322 C   0  0  0  0  0  0  0  0  0  0  0  0
    3.2224   -2.2723    0.0540 C   0  0  0  0  0  0  0  0  0  0  0  0
    0.9768    3.4346   -0.8735 C   0  0  0  0  0  0  0  0  0  0  0  0
    0.1002    1.8652    1.2962 C   0  0  0  0  0  0  0  0  0  0  0  0
   -0.2776    3.6490   -0.2969 C   0  0  0  0  0  0  0  0  0  0  0  0
   -0.7122    2.8757    0.7738 C   0  0  0  0  0  0  0  0  0  0  0  0
    0.9378   -2.5662   -0.4872 C   0  0  0  0  0  0  0  0  0  0  0  0
   -2.5855   -1.3015    0.0287 C   0  0  0  0  0  0  0  0  0  0  0  0
   -0.2195   -1.6296   -0.7584 C   0  0  0  0  0  0  0  0  0  0  0  0
   -3.5801   -1.7691    0.8716 C   0  0  0  0  0  0  0  0  0  0  0  0
   -2.7945   -0.2110   -0.7992 C   0  0  0  0  0  0  0  0  0  0  0  0
   -4.8188   -1.1279    0.8870 C   0  0  0  0  0  0  0  0  0  0  0  0
   -4.0331    0.4302   -0.7838 C   0  0  0  0  0  0  0  0  0  0  0  0
   -5.0453   -0.0283    0.0592 C   0  0  0  0  0  0  0  0  0  0  0  0
    4.6273   -0.4310    1.6063 H   0  0  0  0  0  0  0  0  0  0  0  0
    5.4640    0.3748    0.2901 H   0  0  0  0  0  0  0  0  0  0  0  0
    5.3211   -2.0550   -0.1408 H   0  0  0  0  0  0  0  0  0  0  0  0
    4.4068   -1.2026   -1.3686 H   0  0  0  0  0  0  0  0  0  0  0  0
    1.3093    4.0419   -1.7097 H   0  0  0  0  0  0  0  0  0  0  0  0
   -0.2504    1.2653    2.1312 H   0  0  0  0  0  0  0  0  0  0  0  0
   -0.9215    4.4301   -0.6926 H   0  0  0  0  0  0  0  0  0  0  0  0
   -1.6919    3.0552    1.2080 H   0  0  0  0  0  0  0  0  0  0  0  0
    0.8725   -2.9489    0.5371 H   0  0  0  0  0  0  0  0  0  0  0  0
    0.8797   -3.3996   -1.1945 H   0  0  0  0  0  0  0  0  0  0  0  0
   -1.2506   -2.7473    0.6428 H   0  0  0  0  0  0  0  0  0  0  0  0
   -3.4141   -2.6245    1.5205 H   0  0  0  0  0  0  0  0  0  0  0  0
   -2.0622    0.2036   -1.4761 H   0  0  0  0  0  0  0  0  0  0  0  0
   -5.6070   -1.4844    1.5436 H   0  0  0  0  0  0  0  0  0  0  0  0
   -4.2105    1.2875   -1.4266 H   0  0  0  0  0  0  0  0  0  0  0  0
  1 10  1  0  0  0  0
  1 11  1  0  0  0  0
  2 25  1  0  0  0  0
  3 13  1  0  0  0  0
  3 18  1  0  0  0  0
  4 13  2  0  0  0  0
  5 20  2  0  0  0  0
  6 10  2  0  0  0  0
  6 12  1  0  0  0  0
  7 19  1  0  0  0  0
  7 20  1  0  0  0  0
  7 36  1  0  0  0  0
  8  9  1  0  0  0  0
  8 10  1  0  0  0  0
  8 26  1  0  0  0  0
  8 27  1  0  0  0  0
  9 13  1  0  0  0  0
  9 28  1  0  0  0  0
  9 29  1  0  0  0  0
 11 12  1  0  0  0  0
 11 14  2  0  0  0  0
 12 15  2  0  0  0  0
 14 16  1  0  0  0  0
 14 30  1  0  0  0  0
 15 17  1  0  0  0  0
 15 31  1  0  0  0  0
 16 17  2  0  0  0  0
 16 32  1  0  0  0  0
 17 33  1  0  0  0  0
 18 20  1  0  0  0  0
 18 34  1  0  0  0  0
 18 35  1  0  0  0  0
 19 21  2  0  0  0  0
 19 22  1  0  0  0  0
 21 23  1  0  0  0  0
 21 37  1  0  0  0  0
 22 24  2  0  0  0  0
 22 38  1  0  0  0  0
 23 25  2  0  0  0  0
 23 39  1  0  0  0  0
 24 25  1  0  0  0  0
 24 40  1  0  0  0  0
M  END
> <PUBCHEM_COMPOUND_CID>
7847013

> <PUBCHEM_CONFORMER_RMSD>
1

> <PUBCHEM_CONFORMER_DIVERSEORDER>
1
99
168
118
28
131
55
49
162
12
47
73
71
48
90
105
117
187
139
177
181
158
102
199
91
67
93
101
6
142
13
208
113
95
3
85
124
9
7
173
193
104
137
163
8
84
17
81
122
197
4
129
16
54
57
36
194
182
136
201
50
45
165
87
196
178
35
134
167
192
144
159
24
191
156
115
207
32
121
186
206
152
11
125
23
160
109
174
76
22
130
40
119
96
171
204
15
92
68
100
138
116
44
188
69
198
128
78
79
185
10
127
43
161
97
180
62
126
88
66
20
42
154
30
70
145
164
18
123
120
190
63
89
110
205
209
56
2
74
143
179
38
94
147
77
34
5
195
33
86
169
21
26
61
140
83
176
175
80
107
82
19
41
183
31
75
148
14
146
60
189
25
65
29
114
157
103
59
108
210
153
150
27
141
170
106
172
58
72
166
135
98
184
39
112
200
202
133
53
149
111
46
37
51
155
52
151
64
203
132

> <PUBCHEM_MMFF94_PARTIAL_CHARGES>
34
1 -0.08
10 0.2
11 0.04
12 0.23
13 0.66
14 -0.15
15 -0.15
16 -0.15
17 -0.15
18 0.34
19 0.12
2 -0.19
20 0.57
21 -0.15
22 -0.15
23 -0.15
24 -0.15
25 0.19
3 -0.43
30 0.15
31 0.15
32 0.15
33 0.15
36 0.37
37 0.15
38 0.15
39 0.15
4 -0.57
40 0.15
5 -0.57
6 -0.57
7 -0.55
8 0.18
9 0.06

> <PUBCHEM_EFFECTIVE_ROTOR_COUNT>
8

> <PUBCHEM_PHARMACOPHORE_FEATURES>
7
1 4 acceptor
1 5 acceptor
1 6 acceptor
1 7 donor
5 1 6 10 11 12 rings
6 11 12 14 15 16 17 rings
6 19 21 22 23 24 25 rings

> <PUBCHEM_HEAVY_ATOM_COUNT>
25

> <PUBCHEM_ATOM_DEF_STEREO_COUNT>
0

> <PUBCHEM_ATOM_UDEF_STEREO_COUNT>
0

> <PUBCHEM_BOND_DEF_STEREO_COUNT>
0

> <PUBCHEM_BOND_UDEF_STEREO_COUNT>
0

> <PUBCHEM_ISOTOPIC_ATOM_COUNT>
0

> <PUBCHEM_COMPONENT_COUNT>
1

> <PUBCHEM_CACTVS_TAUTO_COUNT>
4

> <PUBCHEM_CONFORMER_ID>
0077BC6500000001

> <PUBCHEM_MMFF94_ENERGY>
49.4305

> <PUBCHEM_FEATURE_SELFOVERLAP>
35.591

> <PUBCHEM_SHAPE_FINGERPRINT>
104564 63 18261111937060852596
10688039 33 18271526510613902909
11513181 2 17242162668428666503
12035759 4 18268690763553734708
12422481 6 17898559028504805873
12633257 1 18058466334439120571
13075007 39 18058712616822852155
13140716 1 18120103788482845736
13402501 40 18339366361411086389
14251757 17 18129955588423877949
14363568 33 18196080049940802152
14464042 87 17894625989644741401
14790565 3 17691404110156001932
151778 21 18053376605030718661
15210252 30 18200867371435109396
15475509 84 17911810385445332994
1601671 61 18337953389852862808
17093844 170 18408890611886543608
17357779 13 18188780572832473310
18785283 64 18198899206438780277
20465049 17 17906711632293980222
23559900 14 18413671314082171751
3014063 31 18337111266835109004
3052486 1 18124594438330365208
338550 245 18266166421899999897
3680242 22 18338788035485139129
46194498 28 17702664341810938029
508706 21 18130803291010279829
5283268 108 18338800121280503706
8509985 295 18410294688055599045

> <PUBCHEM_SHAPE_MULTIPOLES>
483.49
9.81
4.26
1.13
10.37
1.68
-0.01
-3.36
-0.95
-2.98
0.14
-0.03
0.14
-0.02

> <PUBCHEM_SHAPE_SELFOVERLAP>
1028.92

> <PUBCHEM_SHAPE_VOLUME>
271.4

> <PUBCHEM_COORDINATE_TYPE>
2
5
10

$$$$

