12189
  -OEChem-06261206383D

 21 20  0     0  0  0  0  0  0999 V2000
   -0.0001    0.3071   -0.0006 O   0  0  0  0  0  0  0  0  0  0  0  0
    1.3123   -1.6110    0.0017 O   0  0  0  0  0  0  0  0  0  0  0  0
   -1.3121   -1.6113   -0.0014 O   0  0  0  0  0  0  0  0  0  0  0  0
    2.2695    0.5878    0.0005 C   0  0  0  0  0  0  0  0  0  0  0  0
   -2.2695    0.5875   -0.0014 C   0  0  0  0  0  0  0  0  0  0  0  0
    3.5420    0.1700    0.0004 C   0  0  0  0  0  0  0  0  0  0  0  0
   -3.5422    0.1700    0.0006 C   0  0  0  0  0  0  0  0  0  0  0  0
    1.1654   -0.3992    0.0011 C   0  0  0  0  0  0  0  0  0  0  0  0
   -1.1654   -0.3995   -0.0017 C   0  0  0  0  0  0  0  0  0  0  0  0
    4.7116    1.0991   -0.0008 C   0  0  0  0  0  0  0  0  0  0  0  0
   -4.7114    1.0994    0.0015 C   0  0  0  0  0  0  0  0  0  0  0  0
    2.0223    1.6442   -0.0001 H   0  0  0  0  0  0  0  0  0  0  0  0
   -2.0223    1.6438   -0.0025 H   0  0  0  0  0  0  0  0  0  0  0  0
    3.7761   -0.8912    0.0008 H   0  0  0  0  0  0  0  0  0  0  0  0
   -3.7764   -0.8912    0.0019 H   0  0  0  0  0  0  0  0  0  0  0  0
    5.3279    0.9231    0.8862 H   0  0  0  0  0  0  0  0  0  0  0  0
    4.4071    2.1506   -0.0014 H   0  0  0  0  0  0  0  0  0  0  0  0
    5.3270    0.9218   -0.8881 H   0  0  0  0  0  0  0  0  0  0  0  0
   -4.4065    2.1507    0.0003 H   0  0  0  0  0  0  0  0  0  0  0  0
   -5.3261    0.9236    0.8896 H   0  0  0  0  0  0  0  0  0  0  0  0
   -5.3286    0.9223   -0.8847 H   0  0  0  0  0  0  0  0  0  0  0  0
  1  8  1  0  0  0  0
  1  9  1  0  0  0  0
  2  8  2  0  0  0  0
  3  9  2  0  0  0  0
  4  6  2  0  0  0  0
  4  8  1  0  0  0  0
  4 12  1  0  0  0  0
  5  7  2  0  0  0  0
  5  9  1  0  0  0  0
  5 13  1  0  0  0  0
  6 10  1  0  0  0  0
  6 14  1  0  0  0  0
  7 11  1  0  0  0  0
  7 15  1  0  0  0  0
 10 16  1  0  0  0  0
 10 17  1  0  0  0  0
 10 18  1  0  0  0  0
 11 19  1  0  0  0  0
 11 20  1  0  0  0  0
 11 21  1  0  0  0  0
M  END
> <PUBCHEM_COMPOUND_CID>
12189

> <PUBCHEM_CONFORMER_RMSD>
0.6

> <PUBCHEM_CONFORMER_DIVERSEORDER>
1
9
14
6
12
3
7
5
4
11
10
8
13
2

> <PUBCHEM_MMFF94_PARTIAL_CHARGES>
15
1 -0.3
10 0.14
11 0.14
12 0.15
13 0.15
14 0.15
15 0.15
2 -0.57
3 -0.57
4 -0.14
5 -0.14
6 -0.29
7 -0.29
8 0.71
9 0.71

> <PUBCHEM_EFFECTIVE_ROTOR_COUNT>
4

> <PUBCHEM_PHARMACOPHORE_FEATURES>
4
1 10 hydrophobe
1 11 hydrophobe
1 2 acceptor
1 3 acceptor

> <PUBCHEM_HEAVY_ATOM_COUNT>
11

> <PUBCHEM_ATOM_DEF_STEREO_COUNT>
0

> <PUBCHEM_ATOM_UDEF_STEREO_COUNT>
0

> <PUBCHEM_BOND_DEF_STEREO_COUNT>
0

> <PUBCHEM_BOND_UDEF_STEREO_COUNT>
2

> <PUBCHEM_ISOTOPIC_ATOM_COUNT>
0

> <PUBCHEM_COMPONENT_COUNT>
1

> <PUBCHEM_CACTVS_TAUTO_COUNT>
1

> <PUBCHEM_CONFORMER_ID>
00002F9D00000001

> <PUBCHEM_MMFF94_ENERGY>
14.6553

> <PUBCHEM_FEATURE_SELFOVERLAP>
20.307

> <PUBCHEM_SHAPE_FINGERPRINT>
100836 57 18341606010509271916
11062470 55 18409167714090479589
13380535 76 18410855460128655495
14252887 29 12247686001981613408
14325111 11 18410856603206692967
14897335 6 18409450292879183550
14993402 34 15719112452572687076
15477762 27 8934997079598871504
15501527 16 18410007728421703009
170605 34 18342457066710471514
177051 138 9727631704605475500
20605781 2 18410575106644707349
20645477 56 18411699859547199772
20645477 70 18041839639768251607
21119208 17 15719111357366667040
21293036 1 16081089272648802056
23402539 116 18259993668815308853
23402655 69 18113903801185493701
366044 4 18410575085095874979
42 15 12247679383173019197
42788 4 18410292510175000332
449060 50 18341609321870729533
449060 62 18335983150751534929

> <PUBCHEM_SHAPE_MULTIPOLES>
208.77
8.97
1.3
0.59
0
0.39
0
-4.67
0
0
0
0
-0.03
0

> <PUBCHEM_SHAPE_SELFOVERLAP>
401.354

> <PUBCHEM_SHAPE_VOLUME>
126.6

> <PUBCHEM_COORDINATE_TYPE>
2
5
10

$$$$

