9771
  -OEChem-06261204023D

 23 22  0     0  0  0  0  0  0999 V2000
   -4.3499    1.1082   -0.3885 F   0  0  0  0  0  0  0  0  0  0  0  0
    1.6879   -0.4001   -0.1325 O   0  0  0  0  0  0  0  0  0  0  0  0
   -1.9051   -0.0031    0.2280 O   0  0  0  0  0  0  0  0  0  0  0  0
    5.2098    0.4772    0.0544 O   0  0  0  0  0  0  0  0  0  0  0  0
    0.4754    0.2504    0.2214 C   0  0  0  0  0  0  0  0  0  0  0  0
   -0.6921   -0.6455   -0.1450 C   0  0  0  0  0  0  0  0  0  0  0  0
    2.8197    0.4069    0.1696 C   0  0  0  0  0  0  0  0  0  0  0  0
   -3.0365   -0.8002   -0.0930 C   0  0  0  0  0  0  0  0  0  0  0  0
    4.0791   -0.3380   -0.2289 C   0  0  0  0  0  0  0  0  0  0  0  0
   -4.2883   -0.0559    0.3144 C   0  0  0  0  0  0  0  0  0  0  0  0
    0.4606    0.4619    1.2975 H   0  0  0  0  0  0  0  0  0  0  0  0
    0.3895    1.2077   -0.3067 H   0  0  0  0  0  0  0  0  0  0  0  0
   -0.6003   -1.6084    0.3722 H   0  0  0  0  0  0  0  0  0  0  0  0
   -0.6849   -0.8449   -1.2235 H   0  0  0  0  0  0  0  0  0  0  0  0
    2.7585    1.3578   -0.3735 H   0  0  0  0  0  0  0  0  0  0  0  0
    2.8454    0.6372    1.2416 H   0  0  0  0  0  0  0  0  0  0  0  0
   -2.9812   -1.7573    0.4366 H   0  0  0  0  0  0  0  0  0  0  0  0
   -3.0540   -0.9814   -1.1734 H   0  0  0  0  0  0  0  0  0  0  0  0
    4.0739   -0.5910   -1.2943 H   0  0  0  0  0  0  0  0  0  0  0  0
    4.1708   -1.2753    0.3292 H   0  0  0  0  0  0  0  0  0  0  0  0
   -5.1890   -0.6353    0.0959 H   0  0  0  0  0  0  0  0  0  0  0  0
   -4.2691    0.2070    1.3759 H   0  0  0  0  0  0  0  0  0  0  0  0
    5.1275    1.2874   -0.4771 H   0  0  0  0  0  0  0  0  0  0  0  0
  1 10  1  0  0  0  0
  2  5  1  0  0  0  0
  2  7  1  0  0  0  0
  3  6  1  0  0  0  0
  3  8  1  0  0  0  0
  4  9  1  0  0  0  0
  4 23  1  0  0  0  0
  5  6  1  0  0  0  0
  5 11  1  0  0  0  0
  5 12  1  0  0  0  0
  6 13  1  0  0  0  0
  6 14  1  0  0  0  0
  7  9  1  0  0  0  0
  7 15  1  0  0  0  0
  7 16  1  0  0  0  0
  8 10  1  0  0  0  0
  8 17  1  0  0  0  0
  8 18  1  0  0  0  0
  9 19  1  0  0  0  0
  9 20  1  0  0  0  0
 10 21  1  0  0  0  0
 10 22  1  0  0  0  0
M  END
> <PUBCHEM_COMPOUND_CID>
9771

> <PUBCHEM_CONFORMER_RMSD>
0.6

> <PUBCHEM_CONFORMER_DIVERSEORDER>
7
98
236
217
148
40
241
142
160
186
132
117
16
212
121
179
123
137
175
3
52
240
228
129
153
11
206
113
208
19
157
222
233
196
192
38
43
211
230
9
180
247
93
225
131
223
122
45
193
243
59
134
238
133
66
63
83
191
149
79
78
10
118
70
58
112
227
125
69
207
55
187
218
119
220
54
60
226
244
224
50
213
190
209
62
221
176
219
200
61
185
15
161
152
189
163
199
107
41
168
84
124
25
100
33
71
162
48
245
167
23
111
86
195
140
99
147
150
234
26
215
64
126
32
115
246
42
30
141
39
172
114
205
194
173
103
18
85
116
94
151
232
57
154
174
101
1
214
74
24
44
158
183
72
102
229
47
97
14
188
8
231
22
108
90
80
56
197
198
12
201
5
237
91
242
46
67
136
76
28
165
17
159
235
89
75
2
81
130
21
68
146
96
120
170
105
144
53
82
49
92
135
106
138
31
181
177
204
182
169
145
210
143
35
104
110
239
77
65
127
13
29
128
164
166
27
171
6
87
20
155
34
88
109
184
156
37
202
4
73
178
51
36
216
203
95
139

> <PUBCHEM_MMFF94_PARTIAL_CHARGES>
11
1 -0.34
10 0.34
2 -0.56
23 0.4
3 -0.56
4 -0.68
5 0.28
6 0.28
7 0.28
8 0.28
9 0.28

> <PUBCHEM_EFFECTIVE_ROTOR_COUNT>
7

> <PUBCHEM_PHARMACOPHORE_FEATURES>
4
1 2 acceptor
1 3 acceptor
1 4 acceptor
1 4 donor

> <PUBCHEM_HEAVY_ATOM_COUNT>
10

> <PUBCHEM_ATOM_DEF_STEREO_COUNT>
0

> <PUBCHEM_ATOM_UDEF_STEREO_COUNT>
0

> <PUBCHEM_BOND_DEF_STEREO_COUNT>
0

> <PUBCHEM_BOND_UDEF_STEREO_COUNT>
0

> <PUBCHEM_ISOTOPIC_ATOM_COUNT>
0

> <PUBCHEM_COMPONENT_COUNT>
1

> <PUBCHEM_CACTVS_TAUTO_COUNT>
1

> <PUBCHEM_CONFORMER_ID>
0000262B00000007

> <PUBCHEM_MMFF94_ENERGY>
12.1078

> <PUBCHEM_FEATURE_SELFOVERLAP>
20.297

> <PUBCHEM_SHAPE_FINGERPRINT>
11062470 55 18410292505948448930
14123238 8 11024106547025661506
15501527 16 18410290354861242009
17834076 25 18411136935110166706
18342897 14 18201720652118020892
20645477 70 17749382728271902454
20719005 15 18409166597404224931
20767249 213 17917714621885285573
20828058 44 15626219100382383419
21119208 17 17894348873685230766
22485316 2 18333452036572561422
23402539 116 18334583433757656486
42788 4 18412262826791019634

> <PUBCHEM_SHAPE_MULTIPOLES>
180.91
10.72
0.85
0.62
3.04
0.02
0.01
1.63
-0.3
-0.43
-0.05
-0.1
0.01
0.22

> <PUBCHEM_SHAPE_SELFOVERLAP>
323.036

> <PUBCHEM_SHAPE_VOLUME>
117.4

> <PUBCHEM_COORDINATE_TYPE>
2
5
10

$$$$

