4492
  -OEChem-06261200102D

 63 65  0     1  0  0  0  0  0999 V2000
    9.4056    0.8564    0.0000 O   0  0  0  0  0  0  0  0  0  0  0  0
   11.3025   -0.9037    0.0000 O   0  0  0  0  0  0  0  0  0  0  0  0
   11.9747    1.1654    0.0000 O   0  0  0  0  0  0  0  0  0  0  0  0
    8.9458   -2.6262    0.0000 O   0  0  0  0  0  0  0  0  0  0  0  0
    7.9513   -2.5217    0.0000 O   0  0  0  0  0  0  0  0  0  0  0  0
   10.5281   -1.9218    0.0000 O   0  0  0  0  0  0  0  0  0  0  0  0
    8.4826    2.4442    0.0000 O   0  0  0  0  0  0  0  0  0  0  0  0
   10.2147    5.4442    0.0000 O   0  0  0  0  0  0  0  0  0  0  0  0
    2.6166   -5.4442    0.0000 O   0  0  0  0  0  0  0  0  0  0  0  0
   10.2147    2.4442    0.0000 N   0  0  0  0  0  0  0  0  0  0  0  0
    8.1324   -0.7991    0.0000 N   0  0  0  0  0  0  0  0  0  0  0  0
    6.1433   -0.5901    0.0000 N   0  0  0  0  0  0  0  0  0  0  0  0
    3.3854   -2.9126    0.0000 N   0  0  0  0  0  0  0  0  0  0  0  0
    9.7147   -0.0947    0.0000 C   0  0  3  0  0  0  0  0  0  0  0  0
   10.7147   -0.0947    0.0000 C   0  0  3  0  0  0  0  0  0  0  0  0
   11.0237    0.8564    0.0000 C   0  0  3  0  0  0  0  0  0  0  0  0
   10.2147    1.4442    0.0000 C   0  0  3  0  0  0  0  0  0  0  0  0
    9.1269   -0.9037    0.0000 C   0  0  3  0  0  0  0  0  0  0  0  0
    5.9623   -2.3126    0.0000 C   0  0  3  0  0  0  0  0  0  0  0  0
    6.5500   -1.5036    0.0000 C   0  0  3  0  0  0  0  0  0  0  0  0
    4.9677   -2.2081    0.0000 C   0  0  3  0  0  0  0  0  0  0  0  0
    7.5446   -1.6082    0.0000 C   0  0  0  0  0  0  0  0  0  0  0  0
    9.5336   -1.8172    0.0000 C   0  0  0  0  0  0  0  0  0  0  0  0
    9.3486    2.9442    0.0000 C   0  0  0  0  0  0  0  0  0  0  0  0
   11.0807    2.9442    0.0000 C   0  0  0  0  0  0  0  0  0  0  0  0
    6.3690   -3.2262    0.0000 C   0  0  0  0  0  0  0  0  0  0  0  0
    9.3486    3.9442    0.0000 C   0  0  0  0  0  0  0  0  0  0  0  0
    4.5610   -1.2946    0.0000 C   0  0  0  0  0  0  0  0  0  0  0  0
    4.3800   -3.0171    0.0000 C   0  0  0  0  0  0  0  0  0  0  0  0
   11.0807    3.9442    0.0000 C   0  0  0  0  0  0  0  0  0  0  0  0
   10.2147    4.4442    0.0000 C   0  0  0  0  0  0  0  0  0  0  0  0
    4.7867   -3.9307    0.0000 C   0  0  0  0  0  0  0  0  0  0  0  0
    4.1989   -4.7397    0.0000 C   0  0  0  0  0  0  0  0  0  0  0  0
    2.7976   -3.7216    0.0000 C   0  0  0  0  0  0  0  0  0  0  0  0
    3.2044   -4.6352    0.0000 C   0  0  0  0  0  0  0  0  0  0  0  0
    9.1023    0.0023    0.0000 H   0  0  0  0  0  0  0  0  0  0  0  0
   11.3270    0.0023    0.0000 H   0  0  0  0  0  0  0  0  0  0  0  0
   11.1207    1.4688    0.0000 H   0  0  0  0  0  0  0  0  0  0  0  0
   10.7671    1.7257    0.0000 H   0  0  0  0  0  0  0  0  0  0  0  0
    8.8747   -0.3373    0.0000 H   0  0  0  0  0  0  0  0  0  0  0  0
    7.8802   -0.2327    0.0000 H   0  0  0  0  0  0  0  0  0  0  0  0
    5.5978   -2.8142    0.0000 H   0  0  0  0  0  0  0  0  0  0  0  0
    5.9334   -1.4388    0.0000 H   0  0  0  0  0  0  0  0  0  0  0  0
    4.3511   -2.1433    0.0000 H   0  0  0  0  0  0  0  0  0  0  0  0
   11.9191   -0.8389    0.0000 H   0  0  0  0  0  0  0  0  0  0  0  0
   12.4355    0.7506    0.0000 H   0  0  0  0  0  0  0  0  0  0  0  0
   11.6176    2.6342    0.0000 H   0  0  0  0  0  0  0  0  0  0  0  0
    5.8026   -3.4784    0.0000 H   0  0  0  0  0  0  0  0  0  0  0  0
    6.6212   -3.7926    0.0000 H   0  0  0  0  0  0  0  0  0  0  0  0
    6.9354   -2.9740    0.0000 H   0  0  0  0  0  0  0  0  0  0  0  0
    9.1366    4.5268    0.0000 H   0  0  0  0  0  0  0  0  0  0  0  0
    8.7381    3.8365    0.0000 H   0  0  0  0  0  0  0  0  0  0  0  0
    5.1274   -1.0424    0.0000 H   0  0  0  0  0  0  0  0  0  0  0  0
    4.3088   -0.7282    0.0000 H   0  0  0  0  0  0  0  0  0  0  0  0
    3.9946   -1.5468    0.0000 H   0  0  0  0  0  0  0  0  0  0  0  0
    5.5267   -0.5253    0.0000 H   0  0  0  0  0  0  0  0  0  0  0  0
    6.5077   -0.0885    0.0000 H   0  0  0  0  0  0  0  0  0  0  0  0
   11.6176    4.2542    0.0000 H   0  0  0  0  0  0  0  0  0  0  0  0
    9.1980   -3.1926    0.0000 H   0  0  0  0  0  0  0  0  0  0  0  0
    5.4033   -3.9955    0.0000 H   0  0  0  0  0  0  0  0  0  0  0  0
    4.4511   -5.3061    0.0000 H   0  0  0  0  0  0  0  0  0  0  0  0
    2.1810   -3.6568    0.0000 H   0  0  0  0  0  0  0  0  0  0  0  0
    2.0000   -5.3794    0.0000 H   0  0  0  0  0  0  0  0  0  0  0  0
  1 14  1  0  0  0  0
  1 17  1  0  0  0  0
  2 15  1  0  0  0  0
  2 45  1  0  0  0  0
  3 16  1  0  0  0  0
  3 46  1  0  0  0  0
  4 23  1  0  0  0  0
  4 59  1  0  0  0  0
  5 22  2  0  0  0  0
  6 23  2  0  0  0  0
  7 24  2  0  0  0  0
  8 31  2  0  0  0  0
  9 35  1  0  0  0  0
  9 63  1  0  0  0  0
 10 17  1  0  0  0  0
 10 24  1  0  0  0  0
 10 25  1  0  0  0  0
 11 18  1  0  0  0  0
 11 22  1  0  0  0  0
 11 41  1  0  0  0  0
 12 20  1  0  0  0  0
 12 56  1  0  0  0  0
 12 57  1  0  0  0  0
 13 29  2  0  0  0  0
 13 34  1  0  0  0  0
 14 15  1  0  0  0  0
 14 18  1  0  0  0  0
 14 36  1  0  0  0  0
 15 16  1  0  0  0  0
 15 37  1  0  0  0  0
 16 17  1  0  0  0  0
 16 38  1  0  0  0  0
 17 39  1  0  0  0  0
 18 23  1  0  0  0  0
 18 40  1  0  0  0  0
 19 20  1  0  0  0  0
 19 21  1  0  0  0  0
 19 26  1  0  0  0  0
 19 42  1  0  0  0  0
 20 22  1  0  0  0  0
 20 43  1  0  0  0  0
 21 28  1  0  0  0  0
 21 29  1  0  0  0  0
 21 44  1  0  0  0  0
 24 27  1  0  0  0  0
 25 30  2  0  0  0  0
 25 47  1  0  0  0  0
 26 48  1  0  0  0  0
 26 49  1  0  0  0  0
 26 50  1  0  0  0  0
 27 31  1  0  0  0  0
 27 51  1  0  0  0  0
 27 52  1  0  0  0  0
 28 53  1  0  0  0  0
 28 54  1  0  0  0  0
 28 55  1  0  0  0  0
 29 32  1  0  0  0  0
 30 31  1  0  0  0  0
 30 58  1  0  0  0  0
 32 33  2  0  0  0  0
 32 60  1  0  0  0  0
 33 35  1  0  0  0  0
 33 61  1  0  0  0  0
 34 35  2  0  0  0  0
 34 62  1  0  0  0  0
M  END
> <PUBCHEM_COMPOUND_CID>
4492

> <PUBCHEM_COMPOUND_CANONICALIZED>
1

> <PUBCHEM_CACTVS_COMPLEXITY>
868

> <PUBCHEM_CACTVS_HBOND_ACCEPTOR>
11

> <PUBCHEM_CACTVS_HBOND_DONOR>
6

> <PUBCHEM_CACTVS_ROTATABLE_BOND>
8

> <PUBCHEM_CACTVS_SUBSKEYS>
AAADceB7vAAAAAAAAAAAAAAAAAAAASAAAAAsQAAAAAAAAAABgAAAHgAQCAAADTzhlgY+jpPIFgCoAbX3XASCgCAxYiAI2KG/bNgLdv7akbOfcAhn9hHb2Mf6/ffegAAAAAAAAAAAAAAAAAAAAAAAAAAAAA==

> <PUBCHEM_IUPAC_OPENEYE_NAME>
2-[[2-amino-4-(5-hydroxy-2-pyridyl)-3-methyl-pentanoyl]amino]-2-[5-(2,4-dioxo-1-pyridyl)-3,4-dihydroxy-tetrahydrofuran-2-yl]acetic acid

> <PUBCHEM_IUPAC_CAS_NAME>
2-[[2-amino-4-(5-hydroxy-2-pyridinyl)-3-methyl-1-oxopentyl]amino]-2-[5-(2,4-dioxo-1-pyridinyl)-3,4-dihydroxy-2-oxolanyl]acetic acid

> <PUBCHEM_IUPAC_NAME>
2-[[2-amino-4-(5-hydroxypyridin-2-yl)-3-methylpentanoyl]amino]-2-[5-(2,4-dioxopyridin-1-yl)-3,4-dihydroxyoxolan-2-yl]acetic acid

> <PUBCHEM_IUPAC_SYSTEMATIC_NAME>
2-[[2-azanyl-3-methyl-4-(5-oxidanylpyridin-2-yl)pentanoyl]amino]-2-[5-[2,4-bis(oxidanylidene)pyridin-1-yl]-3,4-bis(oxidanyl)oxolan-2-yl]ethanoic acid

> <PUBCHEM_IUPAC_TRADITIONAL_NAME>
2-[[2-amino-4-(5-hydroxy-2-pyridyl)-3-methyl-pentanoyl]amino]-2-[5-(2,4-diketo-1-pyridyl)-3,4-dihydroxy-tetrahydrofuran-2-yl]acetic acid

> <PUBCHEM_IUPAC_INCHI>
InChI=1S/C22H28N4O9/c1-9(13-4-3-12(28)8-24-13)10(2)15(23)20(32)25-16(22(33)34)19-17(30)18(31)21(35-19)26-6-5-11(27)7-14(26)29/h3-6,8-10,15-19,21,28,30-31H,7,23H2,1-2H3,(H,25,32)(H,33,34)

> <PUBCHEM_IUPAC_INCHIKEY>
MUYOCJNYLOJXQK-UHFFFAOYSA-N

> <PUBCHEM_XLOGP3_AA>
-3.8

> <PUBCHEM_EXACT_MASS>
492.185628

> <PUBCHEM_MOLECULAR_FORMULA>
C22H28N4O9

> <PUBCHEM_MOLECULAR_WEIGHT>
492.47912

> <PUBCHEM_OPENEYE_CAN_SMILES>
CC(C1=NC=C(C=C1)O)C(C)C(C(=O)NC(C2C(C(C(O2)N3C=CC(=O)CC3=O)O)O)C(=O)O)N

> <PUBCHEM_OPENEYE_ISO_SMILES>
CC(C1=NC=C(C=C1)O)C(C)C(C(=O)NC(C2C(C(C(O2)N3C=CC(=O)CC3=O)O)O)C(=O)O)N

> <PUBCHEM_CACTVS_TPSA>
213

> <PUBCHEM_MONOISOTOPIC_WEIGHT>
492.185628

> <PUBCHEM_TOTAL_CHARGE>
0

> <PUBCHEM_HEAVY_ATOM_COUNT>
35

> <PUBCHEM_ATOM_DEF_STEREO_COUNT>
0

> <PUBCHEM_ATOM_UDEF_STEREO_COUNT>
8

> <PUBCHEM_BOND_DEF_STEREO_COUNT>
0

> <PUBCHEM_BOND_UDEF_STEREO_COUNT>
0

> <PUBCHEM_ISOTOPIC_ATOM_COUNT>
0

> <PUBCHEM_COMPONENT_COUNT>
1

> <PUBCHEM_CACTVS_TAUTO_COUNT>
66

> <PUBCHEM_COORDINATE_TYPE>
1
5
255

> <PUBCHEM_BONDANNOTATIONS>
14  1  3
17  10  3
20  12  3
13  29  8
13  34  8
18  23  3
19  26  3
15  2  3
21  28  3
29  32  8
16  3  3
32  33  8
33  35  8
34  35  8

$$$$

