7529
  -OEChem-06261202073D

 19 19  0     0  0  0  0  0  0999 V2000
   -1.5742   -0.4232   -0.0268 C   0  0  0  0  0  0  0  0  0  0  0  0
    0.8255   -0.1832    0.1159 C   0  0  0  0  0  0  0  0  0  0  0  0
   -0.3059   -0.9971    0.0603 C   0  0  0  0  0  0  0  0  0  0  0  0
   -1.7111    0.9645   -0.0583 C   0  0  0  0  0  0  0  0  0  0  0  0
    0.6887    1.2045    0.0844 C   0  0  0  0  0  0  0  0  0  0  0  0
   -0.5796    1.7784   -0.0028 C   0  0  0  0  0  0  0  0  0  0  0  0
   -2.7844   -1.2927   -0.0867 C   0  0  0  0  0  0  0  0  0  0  0  0
    2.1486   -0.7809    0.2071 C   0  0  0  0  0  0  0  0  0  0  0  0
    3.2924   -0.2703   -0.2931 C   0  0  0  0  0  0  0  0  0  0  0  0
   -0.2048   -2.0803    0.0814 H   0  0  0  0  0  0  0  0  0  0  0  0
   -2.6936    1.4239   -0.1273 H   0  0  0  0  0  0  0  0  0  0  0  0
    1.5482    1.8677    0.1402 H   0  0  0  0  0  0  0  0  0  0  0  0
   -0.6868    2.8590   -0.0246 H   0  0  0  0  0  0  0  0  0  0  0  0
   -3.6599   -0.7838    0.3308 H   0  0  0  0  0  0  0  0  0  0  0  0
   -3.0003   -1.5650   -1.1246 H   0  0  0  0  0  0  0  0  0  0  0  0
   -2.6397   -2.2095    0.4951 H   0  0  0  0  0  0  0  0  0  0  0  0
    2.2027   -1.7458    0.7069 H   0  0  0  0  0  0  0  0  0  0  0  0
    4.2238   -0.8146   -0.1746 H   0  0  0  0  0  0  0  0  0  0  0  0
    3.3290    0.6703   -0.8308 H   0  0  0  0  0  0  0  0  0  0  0  0
  1  3  2  0  0  0  0
  1  4  1  0  0  0  0
  1  7  1  0  0  0  0
  2  3  1  0  0  0  0
  2  5  2  0  0  0  0
  2  8  1  0  0  0  0
  3 10  1  0  0  0  0
  4  6  2  0  0  0  0
  4 11  1  0  0  0  0
  5  6  1  0  0  0  0
  5 12  1  0  0  0  0
  6 13  1  0  0  0  0
  7 14  1  0  0  0  0
  7 15  1  0  0  0  0
  7 16  1  0  0  0  0
  8  9  2  0  0  0  0
  8 17  1  0  0  0  0
  9 18  1  0  0  0  0
  9 19  1  0  0  0  0
M  END
> <PUBCHEM_COMPOUND_CID>
7529

> <PUBCHEM_CONFORMER_RMSD>
0.4

> <PUBCHEM_CONFORMER_DIVERSEORDER>
2
1

> <PUBCHEM_MMFF94_PARTIAL_CHARGES>
16
1 -0.14
10 0.15
11 0.15
12 0.15
13 0.15
17 0.15
18 0.15
19 0.15
2 0.03
3 -0.15
4 -0.15
5 -0.15
6 -0.15
7 0.14
8 -0.18
9 -0.3

> <PUBCHEM_EFFECTIVE_ROTOR_COUNT>
1

> <PUBCHEM_PHARMACOPHORE_FEATURES>
2
1 9 hydrophobe
6 1 2 3 4 5 6 rings

> <PUBCHEM_HEAVY_ATOM_COUNT>
9

> <PUBCHEM_ATOM_DEF_STEREO_COUNT>
0

> <PUBCHEM_ATOM_UDEF_STEREO_COUNT>
0

> <PUBCHEM_BOND_DEF_STEREO_COUNT>
0

> <PUBCHEM_BOND_UDEF_STEREO_COUNT>
0

> <PUBCHEM_ISOTOPIC_ATOM_COUNT>
0

> <PUBCHEM_COMPONENT_COUNT>
1

> <PUBCHEM_CACTVS_TAUTO_COUNT>
1

> <PUBCHEM_CONFORMER_ID>
00001D6900000002

> <PUBCHEM_MMFF94_ENERGY>
23.866

> <PUBCHEM_FEATURE_SELFOVERLAP>
10.148

> <PUBCHEM_SHAPE_FINGERPRINT>
10857977 72 18336278876587918090
11206711 2 18342182180223973853
12897270 3 18410856594358302150
13024252 1 17274812601474303969
14128692 85 18338513045376275708
161256 15 18265339416987468096
16945 1 18266182909867362417
20871998 184 18187083979009213135
20871998 22 18261941990577238311
21040471 1 17905895034188141232
23552423 10 18272931617960198628
241688 4 18411985745429014913
2748010 2 18338528438697560453
29004967 10 18407759218278497490
369184 2 18129662027409098872
5084963 1 18259985950690382635

> <PUBCHEM_SHAPE_MULTIPOLES>
185.22
3.97
1.63
0.63
1.75
0.5
0
-1.54
-0.33
-0.68
0.01
0.04
-0.01
-0.03

> <PUBCHEM_SHAPE_SELFOVERLAP>
379.957

> <PUBCHEM_SHAPE_VOLUME>
102.1

> <PUBCHEM_COORDINATE_TYPE>
2
5
10

$$$$

