11810
  -OEChem-06261206093D

 18 18  0     0  0  0  0  0  0999 V2000
   -1.3262    2.6957   -0.2443 Cl  0  0  0  0  0  0  0  0  0  0  0  0
   -1.3238   -2.6969   -0.2453 Cl  0  0  0  0  0  0  0  0  0  0  0  0
    1.8191   -2.7201    0.0785 Cl  0  0  0  0  0  0  0  0  0  0  0  0
    1.8166    2.7214    0.0777 Cl  0  0  0  0  0  0  0  0  0  0  0  0
    3.3856    0.0013    0.2411 Cl  0  0  0  0  0  0  0  0  0  0  0  0
   -1.1237   -0.0003   -0.2249 C   0  0  0  0  0  0  0  0  0  0  0  0
   -2.6164   -0.0007   -0.3788 C   0  0  0  0  0  0  0  0  0  0  0  0
   -0.4304    1.2079   -0.1534 C   0  0  0  0  0  0  0  0  0  0  0  0
   -0.4297   -1.2082   -0.1531 C   0  0  0  0  0  0  0  0  0  0  0  0
   -3.3373   -0.0009    0.9609 C   0  0  0  0  0  0  0  0  0  0  0  0
    0.9579   -1.2078   -0.0099 C   0  0  0  0  0  0  0  0  0  0  0  0
    0.9570    1.2082   -0.0102 C   0  0  0  0  0  0  0  0  0  0  0  0
    1.6513    0.0005    0.0616 C   0  0  0  0  0  0  0  0  0  0  0  0
   -2.9623    0.8489   -0.9782 H   0  0  0  0  0  0  0  0  0  0  0  0
   -2.9617   -0.8505   -0.9780 H   0  0  0  0  0  0  0  0  0  0  0  0
   -3.0838   -0.8847    1.5555 H   0  0  0  0  0  0  0  0  0  0  0  0
   -4.4210   -0.0012    0.8050 H   0  0  0  0  0  0  0  0  0  0  0  0
   -3.0844    0.8829    1.5556 H   0  0  0  0  0  0  0  0  0  0  0  0
  1  8  1  0  0  0  0
  2  9  1  0  0  0  0
  3 11  1  0  0  0  0
  4 12  1  0  0  0  0
  5 13  1  0  0  0  0
  6  7  1  0  0  0  0
  6  8  2  0  0  0  0
  6  9  1  0  0  0  0
  7 10  1  0  0  0  0
  7 14  1  0  0  0  0
  7 15  1  0  0  0  0
  8 12  1  0  0  0  0
  9 11  2  0  0  0  0
 10 16  1  0  0  0  0
 10 17  1  0  0  0  0
 10 18  1  0  0  0  0
 11 13  1  0  0  0  0
 12 13  2  0  0  0  0
M  END
> <PUBCHEM_COMPOUND_CID>
11810

> <PUBCHEM_CONFORMER_RMSD>
0.4

> <PUBCHEM_CONFORMER_DIVERSEORDER>
1

> <PUBCHEM_MMFF94_PARTIAL_CHARGES>
12
1 -0.18
11 0.18
12 0.18
13 0.18
2 -0.18
3 -0.18
4 -0.18
5 -0.18
6 -0.14
7 0.14
8 0.18
9 0.18

> <PUBCHEM_EFFECTIVE_ROTOR_COUNT>
1

> <PUBCHEM_PHARMACOPHORE_FEATURES>
2
1 10 hydrophobe
6 6 8 9 11 12 13 rings

> <PUBCHEM_HEAVY_ATOM_COUNT>
13

> <PUBCHEM_ATOM_DEF_STEREO_COUNT>
0

> <PUBCHEM_ATOM_UDEF_STEREO_COUNT>
0

> <PUBCHEM_BOND_DEF_STEREO_COUNT>
0

> <PUBCHEM_BOND_UDEF_STEREO_COUNT>
0

> <PUBCHEM_ISOTOPIC_ATOM_COUNT>
0

> <PUBCHEM_COMPONENT_COUNT>
1

> <PUBCHEM_CACTVS_TAUTO_COUNT>
1

> <PUBCHEM_CONFORMER_ID>
00002E2200000001

> <PUBCHEM_MMFF94_ENERGY>
34.7961

> <PUBCHEM_FEATURE_SELFOVERLAP>
10.148

> <PUBCHEM_SHAPE_FINGERPRINT>
10967382 1 18410858754399732900
11132069 177 18337681827876695976
11471102 22 18269815610876565467
11680986 33 17906457980104837242
12382932 28 18409167675546602475
12423570 1 8176941489210221967
12524768 44 18341051826414906863
13140716 1 18266742376770897680
13380535 21 18122897629874706756
14790565 3 18338496595874052460
16945 1 18410860962092037860
193761 8 18410580590906098060
20588541 1 18410290311288875358
21501502 16 18121781621293104710
2334 1 17978795601594158276
23463225 33 18268714904963147928
23526114 1 18122910819729581996
23552423 10 18126010364567554006
23559900 14 17397266509479903094
241688 4 17906172102638935864
2748010 2 18122068877301025214
5255222 1 18410300202566727660
528886 8 18337678507571628954

> <PUBCHEM_SHAPE_MULTIPOLES>
276.88
4.18
3.44
0.73
0.27
0
-0.06
0
-0.79
-0.66
0.23
0.25
0
0

> <PUBCHEM_SHAPE_SELFOVERLAP>
531.594

> <PUBCHEM_SHAPE_VOLUME>
165.5

> <PUBCHEM_COORDINATE_TYPE>
2
5
10

$$$$

