3334
  -OEChem-06251223213D

 34 36  0     0  0  0  0  0  0999 V2000
   -3.4190   -1.6862   -0.8262 S   0  0  0  0  0  0  0  0  0  0  0  0
    5.8211    1.5350   -0.2823 O   0  0  0  0  0  0  0  0  0  0  0  0
    5.2130   -0.3403    0.8724 O   0  0  0  0  0  0  0  0  0  0  0  0
    1.3744    0.5256   -0.9304 N   0  0  0  0  0  0  0  0  0  0  0  0
    2.3370   -0.9510    0.4234 N   0  0  0  0  0  0  0  0  0  0  0  0
    3.6782    0.8495   -0.4521 N   0  0  0  0  0  0  0  0  0  0  0  0
    0.3859   -0.3646   -0.5976 C   0  0  0  0  0  0  0  0  0  0  0  0
    1.0116   -1.2763    0.2480 C   0  0  0  0  0  0  0  0  0  0  0  0
   -0.9608   -0.4480   -0.9528 C   0  0  0  0  0  0  0  0  0  0  0  0
   -1.6890   -1.5139   -0.4142 C   0  0  0  0  0  0  0  0  0  0  0  0
    2.5203    0.1331   -0.2963 C   0  0  0  0  0  0  0  0  0  0  0  0
    0.2648   -2.3408    0.7802 C   0  0  0  0  0  0  0  0  0  0  0  0
   -1.0892   -2.4445    0.4372 C   0  0  0  0  0  0  0  0  0  0  0  0
   -4.0758   -0.1446   -0.2080 C   0  0  0  0  0  0  0  0  0  0  0  0
   -3.9552    0.1682    1.1442 C   0  0  0  0  0  0  0  0  0  0  0  0
   -4.7063    0.7403   -1.0798 C   0  0  0  0  0  0  0  0  0  0  0  0
   -4.4680    1.3722    1.6270 C   0  0  0  0  0  0  0  0  0  0  0  0
   -5.2191    1.9442   -0.5968 C   0  0  0  0  0  0  0  0  0  0  0  0
    4.9223    0.5830    0.1221 C   0  0  0  0  0  0  0  0  0  0  0  0
   -5.0999    2.2601    0.7566 C   0  0  0  0  0  0  0  0  0  0  0  0
    7.1537    1.3992    0.2254 C   0  0  0  0  0  0  0  0  0  0  0  0
   -1.4037    0.2831   -1.6210 H   0  0  0  0  0  0  0  0  0  0  0  0
    1.2741    1.3289   -1.5363 H   0  0  0  0  0  0  0  0  0  0  0  0
    0.7218   -3.0689    1.4426 H   0  0  0  0  0  0  0  0  0  0  0  0
   -1.6651   -3.2697    0.8512 H   0  0  0  0  0  0  0  0  0  0  0  0
    3.6229    1.6670   -1.0543 H   0  0  0  0  0  0  0  0  0  0  0  0
   -3.4725   -0.5111    1.8422 H   0  0  0  0  0  0  0  0  0  0  0  0
   -4.8076    0.5110   -2.1376 H   0  0  0  0  0  0  0  0  0  0  0  0
   -4.3766    1.6177    2.6811 H   0  0  0  0  0  0  0  0  0  0  0  0
   -5.7110    2.6359   -1.2744 H   0  0  0  0  0  0  0  0  0  0  0  0
   -5.4994    3.1974    1.1327 H   0  0  0  0  0  0  0  0  0  0  0  0
    7.1512    1.4674    1.3173 H   0  0  0  0  0  0  0  0  0  0  0  0
    7.7550    2.2191   -0.1762 H   0  0  0  0  0  0  0  0  0  0  0  0
    7.5889    0.4507   -0.1034 H   0  0  0  0  0  0  0  0  0  0  0  0
  1 10  1  0  0  0  0
  1 14  1  0  0  0  0
  2 19  1  0  0  0  0
  2 21  1  0  0  0  0
  3 19  2  0  0  0  0
  4  7  1  0  0  0  0
  4 11  1  0  0  0  0
  4 23  1  0  0  0  0
  5  8  1  0  0  0  0
  5 11  2  0  0  0  0
  6 11  1  0  0  0  0
  6 19  1  0  0  0  0
  6 26  1  0  0  0  0
  7  8  2  0  0  0  0
  7  9  1  0  0  0  0
  8 12  1  0  0  0  0
  9 10  2  0  0  0  0
  9 22  1  0  0  0  0
 10 13  1  0  0  0  0
 12 13  2  0  0  0  0
 12 24  1  0  0  0  0
 13 25  1  0  0  0  0
 14 15  2  0  0  0  0
 14 16  1  0  0  0  0
 15 17  1  0  0  0  0
 15 27  1  0  0  0  0
 16 18  2  0  0  0  0
 16 28  1  0  0  0  0
 17 20  2  0  0  0  0
 17 29  1  0  0  0  0
 18 20  1  0  0  0  0
 18 30  1  0  0  0  0
 20 31  1  0  0  0  0
 21 32  1  0  0  0  0
 21 33  1  0  0  0  0
 21 34  1  0  0  0  0
M  END
> <PUBCHEM_COMPOUND_CID>
3334

> <PUBCHEM_CONFORMER_RMSD>
0.8

> <PUBCHEM_CONFORMER_DIVERSEORDER>
1
14
10
20
18
17
13
5
2
11
6
4
19
9
3
15
12
16
7
8

> <PUBCHEM_MMFF94_PARTIAL_CHARGES>
31
1 -0.2
10 0.1
11 0.25
12 -0.15
13 -0.15
14 0.1
15 -0.15
16 -0.15
17 -0.15
18 -0.15
19 0.78
2 -0.43
20 -0.15
21 0.28
22 0.15
23 0.27
24 0.15
25 0.15
26 0.37
27 0.15
28 0.15
29 0.15
3 -0.57
30 0.15
31 0.15
4 0.03
5 -0.57
6 -0.49
7 -0.15
8 0.23
9 -0.15

> <PUBCHEM_EFFECTIVE_ROTOR_COUNT>
5

> <PUBCHEM_PHARMACOPHORE_FEATURES>
6
1 3 acceptor
1 4 donor
1 6 donor
5 4 5 7 8 11 rings
6 14 15 16 17 18 20 rings
6 7 8 9 10 12 13 rings

> <PUBCHEM_HEAVY_ATOM_COUNT>
21

> <PUBCHEM_ATOM_DEF_STEREO_COUNT>
0

> <PUBCHEM_ATOM_UDEF_STEREO_COUNT>
0

> <PUBCHEM_BOND_DEF_STEREO_COUNT>
0

> <PUBCHEM_BOND_UDEF_STEREO_COUNT>
0

> <PUBCHEM_ISOTOPIC_ATOM_COUNT>
0

> <PUBCHEM_COMPONENT_COUNT>
1

> <PUBCHEM_CACTVS_TAUTO_COUNT>
5

> <PUBCHEM_CONFORMER_ID>
00000D0600000001

> <PUBCHEM_MMFF94_ENERGY>
44.7498

> <PUBCHEM_FEATURE_SELFOVERLAP>
30.589

> <PUBCHEM_SHAPE_FINGERPRINT>
10 15 18131626790511507625
10042902 136 11383532474472129489
10382601 240 17917152822244933067
105312 117 17240479195767041877
10906281 52 18059282177137169102
11089746 13 18040724653736953688
11135609 201 18114450276171889105
11640471 11 18116998987069406071
12390115 104 18411128130627903999
12403259 118 17418084417514821829
12422481 6 17418096554723122310
12596602 18 17846779611264059745
13073987 5 18413108329711184890
13583140 156 15123524583344934719
13631057 29 18336553695183621095
13782708 43 10663832858277936636
14251764 38 17970635086317612592
14466204 15 18412829083605943576
14576447 43 7853570197248305948
14739800 52 17896342326958259018
14790565 3 18272086055106774940
14950920 106 15195274305737877125
15183329 4 16950558913398800116
15188451 53 15194985130528136521
15209294 21 18412265034209193479
15415430 10 9367345942319260791
167882 2 17386557093703564902
17780758 139 13254801248306904877
18222031 100 8286198319048236342
193927 3 10375865312143131113
19784866 240 8934992677615991883
20281389 69 18410293597155167184
20621476 66 18412259519882830444
20739085 24 17773871076788510638
21033648 29 16987716986786236141
21713013 43 5472554652782520141
21756936 100 18335419045874183439
22393880 68 6050158879555681011
23379529 103 8357381844614041365
23402539 116 18336553733125553254
23559900 14 18113329830646788262
270888 7 18189048871488498993
2838139 119 17748829617919672976
2916195 48 18334579001562552800
293599 30 18411699885258825438
314194 84 8862938403070910124
328310 18 16153694449769302689
351380 3 9511457827618104533
397830 11 13542176131371454276
441001 317 18040716952702212937
46194498 28 13985537771422480019
5104073 3 17917159282545127138
6327066 14 18336550525323501533
6328613 192 18339921507636323204
636775 72 18263086505616731768
6431902 208 9007059067156819261
7062679 6 18409726253339568804
7226269 152 18333730217214612144
7808743 9 18259984916278504121
7970288 3 9871451116034029977

> <PUBCHEM_SHAPE_MULTIPOLES>
409.34
15.05
2.41
1.15
18.77
0.42
-0.16
-13.04
-1.28
-1.81
-0.39
-1.18
-0.13
-0.93

> <PUBCHEM_SHAPE_SELFOVERLAP>
877.279

> <PUBCHEM_SHAPE_VOLUME>
227.4

> <PUBCHEM_COORDINATE_TYPE>
2
5
10

$$$$

