13039
  -OEChem-06261207413D

 18 18  0     0  0  0  0  0  0999 V2000
   -2.3618    2.0717    0.0000 F   0  0  0  0  0  0  0  0  0  0  0  0
    2.3135    1.4404    0.0001 O   0  0  0  0  0  0  0  0  0  0  0  0
    1.4898   -0.7666   -0.0002 N   0  0  0  0  0  0  0  0  0  0  0  0
    3.7591   -0.3292    0.0001 N   0  0  0  0  0  0  0  0  0  0  0  0
    0.1042   -0.6033   -0.0001 C   0  0  0  0  0  0  0  0  0  0  0  0
   -0.4471    0.6780   -0.0001 C   0  0  0  0  0  0  0  0  0  0  0  0
   -0.7298   -1.7214    0.0000 C   0  0  0  0  0  0  0  0  0  0  0  0
   -1.8323    0.8412    0.0000 C   0  0  0  0  0  0  0  0  0  0  0  0
   -2.1150   -1.5582    0.0002 C   0  0  0  0  0  0  0  0  0  0  0  0
   -2.6663   -0.2769    0.0000 C   0  0  0  0  0  0  0  0  0  0  0  0
    2.4858    0.2242    0.0000 C   0  0  0  0  0  0  0  0  0  0  0  0
    0.1330    1.5900   -0.0001 H   0  0  0  0  0  0  0  0  0  0  0  0
   -0.3140   -2.7258    0.0000 H   0  0  0  0  0  0  0  0  0  0  0  0
    1.8208   -1.7283   -0.0002 H   0  0  0  0  0  0  0  0  0  0  0  0
   -2.7646   -2.4287    0.0002 H   0  0  0  0  0  0  0  0  0  0  0  0
   -3.7447   -0.1494    0.0001 H   0  0  0  0  0  0  0  0  0  0  0  0
    4.5861    0.2585    0.0003 H   0  0  0  0  0  0  0  0  0  0  0  0
    3.9049   -1.3331    0.0000 H   0  0  0  0  0  0  0  0  0  0  0  0
  1  8  1  0  0  0  0
  2 11  2  0  0  0  0
  3  5  1  0  0  0  0
  3 11  1  0  0  0  0
  3 14  1  0  0  0  0
  4 11  1  0  0  0  0
  4 17  1  0  0  0  0
  4 18  1  0  0  0  0
  5  6  2  0  0  0  0
  5  7  1  0  0  0  0
  6  8  1  0  0  0  0
  6 12  1  0  0  0  0
  7  9  2  0  0  0  0
  7 13  1  0  0  0  0
  8 10  2  0  0  0  0
  9 10  1  0  0  0  0
  9 15  1  0  0  0  0
 10 16  1  0  0  0  0
M  END
> <PUBCHEM_COMPOUND_CID>
13039

> <PUBCHEM_CONFORMER_RMSD>
0.4

> <PUBCHEM_CONFORMER_DIVERSEORDER>
1
11
19
20
15
14
24
22
8
7
2
21
13
16
23
9
10
18
17
12
3
4
5
6

> <PUBCHEM_MMFF94_PARTIAL_CHARGES>
18
1 -0.19
10 -0.15
11 0.69
12 0.15
13 0.15
14 0.37
15 0.15
16 0.15
17 0.37
18 0.37
2 -0.57
3 -0.55
4 -0.8
5 0.12
6 -0.15
7 -0.15
8 0.19
9 -0.15

> <PUBCHEM_EFFECTIVE_ROTOR_COUNT>
2

> <PUBCHEM_PHARMACOPHORE_FEATURES>
4
1 2 acceptor
1 3 donor
1 4 donor
6 5 6 7 8 9 10 rings

> <PUBCHEM_HEAVY_ATOM_COUNT>
11

> <PUBCHEM_ATOM_DEF_STEREO_COUNT>
0

> <PUBCHEM_ATOM_UDEF_STEREO_COUNT>
0

> <PUBCHEM_BOND_DEF_STEREO_COUNT>
0

> <PUBCHEM_BOND_UDEF_STEREO_COUNT>
0

> <PUBCHEM_ISOTOPIC_ATOM_COUNT>
0

> <PUBCHEM_COMPONENT_COUNT>
1

> <PUBCHEM_CACTVS_TAUTO_COUNT>
3

> <PUBCHEM_CONFORMER_ID>
000032EF00000001

> <PUBCHEM_MMFF94_ENERGY>
27.7374

> <PUBCHEM_FEATURE_SELFOVERLAP>
20.346

> <PUBCHEM_SHAPE_FINGERPRINT>
10608611 8 18335424543353188160
12716758 59 18408608058392779338
12897270 3 18410013191329790670
12932764 1 17489597765891628180
13024252 1 11527955547336478039
13380535 76 18337675338107433983
14325111 11 18410855469050470724
15775835 57 18200871893550050024
16945 1 18410573959529580775
19973954 147 18338796715308257748
20653085 51 18339067285151786618
20871998 184 18188484658287042031
21028194 46 18260829306331776840
21040471 1 18338799051791468327
23402539 116 18334869294376264767
23552423 10 18200595770160592958
2748010 2 18194394713664064047
369184 2 18340770351375068035
5084963 1 18259703376275864738
6333449 129 18409168818160656431

> <PUBCHEM_SHAPE_MULTIPOLES>
203.27
4.79
1.77
0.58
3.71
0.29
0
0.4
0
-1.03
0
-0.04
-0.03
0

> <PUBCHEM_SHAPE_SELFOVERLAP>
423.283

> <PUBCHEM_SHAPE_VOLUME>
115.1

> <PUBCHEM_COORDINATE_TYPE>
2
5
10

$$$$

