582845
  -OEChem-06241222442D

 29 30  0     1  0  0  0  0  0999 V2000
    5.7628    1.7601    0.0000 F   0  0  0  0  0  0  0  0  0  0  0  0
    4.7592    1.5284    0.0000 F   0  0  0  0  0  0  0  0  0  0  0  0
    4.3660   -1.8660    0.0000 F   0  0  0  0  0  0  0  0  0  0  0  0
    5.0088   -1.6321    0.0000 F   0  0  0  0  0  0  0  0  0  0  0  0
    4.1924    1.8508    0.0000 F   0  0  0  0  0  0  0  0  0  0  0  0
    5.2320    1.3660    0.0000 F   0  0  0  0  0  0  0  0  0  0  0  0
    6.7139    1.4511    0.0000 F   0  0  0  0  0  0  0  0  0  0  0  0
    2.5000   -1.3660    0.0000 F   0  0  0  0  0  0  0  0  0  0  0  0
    3.3660   -1.8660    0.0000 F   0  0  0  0  0  0  0  0  0  0  0  0
    2.5000    1.3660    0.0000 F   0  0  0  0  0  0  0  0  0  0  0  0
    3.3660    1.8660    0.0000 F   0  0  0  0  0  0  0  0  0  0  0  0
    6.3700   -1.4994    0.0000 F   0  0  0  0  0  0  0  0  0  0  0  0
    7.1709   -1.1428    0.0000 F   0  0  0  0  0  0  0  0  0  0  0  0
    2.0000   -0.5000    0.0000 F   0  0  0  0  0  0  0  0  0  0  0  0
    2.0000    0.5000    0.0000 F   0  0  0  0  0  0  0  0  0  0  0  0
    8.4049    0.5000    0.0000 F   0  0  0  0  0  0  0  0  0  0  0  0
    7.4049    1.5000    0.0000 F   0  0  0  0  0  0  0  0  0  0  0  0
    8.0477   -0.2660    0.0000 F   0  0  0  0  0  0  0  0  0  0  0  0
    5.4538   -0.8090    0.0000 O   0  0  0  0  0  0  0  0  0  0  0  0
    4.8660    0.0000    0.0000 C   0  0  0  0  0  0  0  0  0  0  0  0
    5.4538    0.8090    0.0000 C   0  0  0  0  0  0  0  0  0  0  0  0
    4.3660   -0.8660    0.0000 C   0  0  0  0  0  0  0  0  0  0  0  0
    4.3660    0.8660    0.0000 C   0  0  0  0  0  0  0  0  0  0  0  0
    6.4049    0.5000    0.0000 C   0  0  3  0  0  0  0  0  0  0  0  0
    3.3660   -0.8660    0.0000 C   0  0  0  0  0  0  0  0  0  0  0  0
    3.3660    0.8660    0.0000 C   0  0  0  0  0  0  0  0  0  0  0  0
    6.4049   -0.5000    0.0000 C   0  0  0  0  0  0  0  0  0  0  0  0
    2.8660    0.0000    0.0000 C   0  0  0  0  0  0  0  0  0  0  0  0
    7.4049    0.5000    0.0000 C   0  0  0  0  0  0  0  0  0  0  0  0
  1 21  1  0  0  0  0
  2 21  1  0  0  0  0
  3 22  1  0  0  0  0
  4 22  1  0  0  0  0
  5 23  1  0  0  0  0
  6 23  1  0  0  0  0
  7 24  1  0  0  0  0
  8 25  1  0  0  0  0
  9 25  1  0  0  0  0
 10 26  1  0  0  0  0
 11 26  1  0  0  0  0
 12 27  1  0  0  0  0
 13 27  1  0  0  0  0
 14 28  1  0  0  0  0
 15 28  1  0  0  0  0
 16 29  1  0  0  0  0
 17 29  1  0  0  0  0
 18 29  1  0  0  0  0
 19 20  1  0  0  0  0
 19 27  1  0  0  0  0
 20 21  1  0  0  0  0
 20 22  1  0  0  0  0
 20 23  1  0  0  0  0
 21 24  1  0  0  0  0
 22 25  1  0  0  0  0
 23 26  1  0  0  0  0
 24 27  1  0  0  0  0
 24 29  1  0  0  0  0
 25 28  1  0  0  0  0
 26 28  1  0  0  0  0
M  END
> <PUBCHEM_COMPOUND_CID>
582845

> <PUBCHEM_COMPOUND_CANONICALIZED>
1

> <PUBCHEM_CACTVS_COMPLEXITY>
687

> <PUBCHEM_CACTVS_HBOND_ACCEPTOR>
19

> <PUBCHEM_CACTVS_HBOND_DONOR>
0

> <PUBCHEM_CACTVS_ROTATABLE_BOND>
0

> <PUBCHEM_CACTVS_SUBSKEYS>
AAADcQBwIcAAAAAAAAAAAAAAAAAAASAAAAAwAAAAAAAAAAAAAAAACwAAAAAADEQAgBAAAAAABAAAAAAAAAAAAAAAAAAAAAAAAAAAAAIAAAACAAAEAAAAAAGAwOAOAAAAAAAAAAAAAAAAAAAAAAAAAAAAAA==

> <PUBCHEM_IUPAC_OPENEYE_NAME>
2,2,3,4,4,6,6,7,7,8,8,9,9,10,10-pentadecafluoro-3-(trifluoromethyl)-1-oxaspiro[4.5]decane

> <PUBCHEM_IUPAC_CAS_NAME>
2,2,3,4,4,6,6,7,7,8,8,9,9,10,10-pentadecafluoro-3-(trifluoromethyl)-1-oxaspiro[4.5]decane

> <PUBCHEM_IUPAC_NAME>
2,2,3,4,4,6,6,7,7,8,8,9,9,10,10-pentadecafluoro-3-(trifluoromethyl)-1-oxaspiro[4.5]decane

> <PUBCHEM_IUPAC_SYSTEMATIC_NAME>
2,2,3,4,4,6,6,7,7,8,8,9,9,10,10-pentadecakis(fluoranyl)-3-(trifluoromethyl)-1-oxaspiro[4.5]decane

> <PUBCHEM_IUPAC_TRADITIONAL_NAME>
2,2,3,4,4,6,6,7,7,8,8,9,9,10,10-pentadecafluoro-3-(trifluoromethyl)-1-oxaspiro[4.5]decane

> <PUBCHEM_IUPAC_INCHI>
InChI=1S/C10F18O/c11-1(9(24,25)26)3(12,13)2(29-10(1,27)28)4(14,15)6(18,19)8(22,23)7(20,21)5(2,16)17

> <PUBCHEM_IUPAC_INCHIKEY>
LHQPJTIULDESRY-UHFFFAOYSA-N

> <PUBCHEM_XLOGP3_AA>
5.6

> <PUBCHEM_EXACT_MASS>
477.966173

> <PUBCHEM_MOLECULAR_FORMULA>
C10F18O

> <PUBCHEM_MOLECULAR_WEIGHT>
478.077658

> <PUBCHEM_OPENEYE_CAN_SMILES>
C12(C(C(C(O1)(F)F)(C(F)(F)F)F)(F)F)C(C(C(C(C2(F)F)(F)F)(F)F)(F)F)(F)F

> <PUBCHEM_OPENEYE_ISO_SMILES>
C12(C(C(C(O1)(F)F)(C(F)(F)F)F)(F)F)C(C(C(C(C2(F)F)(F)F)(F)F)(F)F)(F)F

> <PUBCHEM_CACTVS_TPSA>
9.2

> <PUBCHEM_MONOISOTOPIC_WEIGHT>
477.966173

> <PUBCHEM_TOTAL_CHARGE>
0

> <PUBCHEM_HEAVY_ATOM_COUNT>
29

> <PUBCHEM_ATOM_DEF_STEREO_COUNT>
0

> <PUBCHEM_ATOM_UDEF_STEREO_COUNT>
1

> <PUBCHEM_BOND_DEF_STEREO_COUNT>
0

> <PUBCHEM_BOND_UDEF_STEREO_COUNT>
0

> <PUBCHEM_ISOTOPIC_ATOM_COUNT>
0

> <PUBCHEM_COMPONENT_COUNT>
1

> <PUBCHEM_CACTVS_TAUTO_COUNT>
1

> <PUBCHEM_COORDINATE_TYPE>
1
5
255

> <PUBCHEM_BONDANNOTATIONS>
24  7  3

$$$$

