5297
  -OEChem-06261200372D

 79 81  0     1  0  0  0  0  0999 V2000
    5.8520    0.0006    0.0000 O   0  0  0  0  0  0  0  0  0  0  0  0
    7.6316    0.0938    0.0000 O   0  0  0  0  0  0  0  0  0  0  0  0
    6.0794    2.1642    0.0000 O   0  0  0  0  0  0  0  0  0  0  0  0
    7.2384    3.4514    0.0000 O   0  0  0  0  0  0  0  0  0  0  0  0
    7.5928    2.6812    0.0000 O   0  0  0  0  0  0  0  0  0  0  0  0
    7.5841   -0.9994    0.0000 O   0  0  0  0  0  0  0  0  0  0  0  0
    4.1200   -2.9994    0.0000 O   0  0  0  0  0  0  0  0  0  0  0  0
    7.5841   -2.9994    0.0000 O   0  0  0  0  0  0  0  0  0  0  0  0
    5.0090    5.4588    0.0000 O   0  0  0  0  0  0  0  0  0  0  0  0
    6.9111    6.0768    0.0000 O   0  0  0  0  0  0  0  0  0  0  0  0
    8.6668    3.2030    0.0000 O   0  0  0  0  0  0  0  0  0  0  0  0
    9.1405    4.0694    0.0000 O   0  0  0  0  0  0  0  0  0  0  0  0
    4.1200   -0.9994    0.0000 N   0  0  0  0  0  0  0  0  0  0  0  0
    5.8520   -3.9994    0.0000 N   0  0  0  0  0  0  0  0  0  0  0  0
    4.5932    3.5025    0.0000 N   0  0  0  0  0  0  0  0  0  0  0  0
    2.6200   -0.1333    0.0000 N   0  0  0  0  0  0  0  0  0  0  0  0
    2.6200   -1.8655    0.0000 N   0  0  0  0  0  0  0  0  0  0  0  0
    5.8520   -5.7315    0.0000 N   0  0  0  0  0  0  0  0  0  0  0  0
    7.3520   -4.8654    0.0000 N   0  0  0  0  0  0  0  0  0  0  0  0
    6.8226    1.4951    0.0000 C   0  0  3  0  0  0  0  0  0  0  0  0
    5.8520   -0.9994    0.0000 C   0  0  3  0  0  0  0  0  0  0  0  0
    7.8008    1.7030    0.0000 C   0  0  3  0  0  0  0  0  0  0  0  0
    6.7181    0.5006    0.0000 C   0  0  3  0  0  0  0  0  0  0  0  0
    4.9860   -1.4994    0.0000 C   0  0  3  0  0  0  0  0  0  0  0  0
    6.7181   -1.4994    0.0000 C   0  0  3  0  0  0  0  0  0  0  0  0
    4.9860   -2.4994    0.0000 C   0  0  3  0  0  0  0  0  0  0  0  0
    8.3008    0.8370    0.0000 C   0  0  3  0  0  0  0  0  0  0  0  0
    6.7181   -2.4994    0.0000 C   0  0  3  0  0  0  0  0  0  0  0  0
    5.8520   -2.9994    0.0000 C   0  0  3  0  0  0  0  0  0  0  0  0
    6.2874    3.1424    0.0000 C   0  0  3  0  0  0  0  0  0  0  0  0
    5.5442    3.8115    0.0000 C   0  0  3  0  0  0  0  0  0  0  0  0
    5.7521    4.7896    0.0000 C   0  0  3  0  0  0  0  0  0  0  0  0
    6.7032    5.0987    0.0000 C   0  0  3  0  0  0  0  0  0  0  0  0
    7.4463    4.4295    0.0000 C   0  0  3  0  0  0  0  0  0  0  0  0
    9.2953    0.7325    0.0000 C   0  0  0  0  0  0  0  0  0  0  0  0
    8.6668    2.2030    0.0000 C   0  0  0  0  0  0  0  0  0  0  0  0
    8.3974    4.7386    0.0000 C   0  0  0  0  0  0  0  0  0  0  0  0
    3.1200   -0.9994    0.0000 C   0  0  0  0  0  0  0  0  0  0  0  0
    3.8500    4.1716    0.0000 C   0  0  0  0  0  0  0  0  0  0  0  0
    6.3520   -4.8654    0.0000 C   0  0  0  0  0  0  0  0  0  0  0  0
    7.0426    2.3161    0.0000 H   0  0  0  0  0  0  0  0  0  0  0  0
    6.5882   -0.5744    0.0000 H   0  0  0  0  0  0  0  0  0  0  0  0
    6.7626   -0.3483    0.0000 H   0  0  0  0  0  0  0  0  0  0  0  0
    4.9860   -0.6494    0.0000 H   0  0  0  0  0  0  0  0  0  0  0  0
    6.7181   -0.6494    0.0000 H   0  0  0  0  0  0  0  0  0  0  0  0
    4.9860   -3.3494    0.0000 H   0  0  0  0  0  0  0  0  0  0  0  0
    8.6054    0.0434    0.0000 H   0  0  0  0  0  0  0  0  0  0  0  0
    6.7181   -3.3494    0.0000 H   0  0  0  0  0  0  0  0  0  0  0  0
    6.5882   -3.4244    0.0000 H   0  0  0  0  0  0  0  0  0  0  0  0
    5.4790    2.8797    0.0000 H   0  0  0  0  0  0  0  0  0  0  0  0
    5.3675    2.9801    0.0000 H   0  0  0  0  0  0  0  0  0  0  0  0
    4.9437    4.5270    0.0000 H   0  0  0  0  0  0  0  0  0  0  0  0
    7.5116    5.3613    0.0000 H   0  0  0  0  0  0  0  0  0  0  0  0
    8.0780    3.8608    0.0000 H   0  0  0  0  0  0  0  0  0  0  0  0
    9.2305    0.1159    0.0000 H   0  0  0  0  0  0  0  0  0  0  0  0
    9.9119    0.6676    0.0000 H   0  0  0  0  0  0  0  0  0  0  0  0
    9.3601    1.3491    0.0000 H   0  0  0  0  0  0  0  0  0  0  0  0
    9.2037    1.8930    0.0000 H   0  0  0  0  0  0  0  0  0  0  0  0
    7.0032    2.8728    0.0000 H   0  0  0  0  0  0  0  0  0  0  0  0
    8.1210   -1.3094    0.0000 H   0  0  0  0  0  0  0  0  0  0  0  0
    4.4643    2.8960    0.0000 H   0  0  0  0  0  0  0  0  0  0  0  0
    4.1200   -3.6194    0.0000 H   0  0  0  0  0  0  0  0  0  0  0  0
    8.1210   -2.6894    0.0000 H   0  0  0  0  0  0  0  0  0  0  0  0
    8.8860    5.1203    0.0000 H   0  0  0  0  0  0  0  0  0  0  0  0
    8.1063    5.2860    0.0000 H   0  0  0  0  0  0  0  0  0  0  0  0
    5.1379    6.0652    0.0000 H   0  0  0  0  0  0  0  0  0  0  0  0
    7.5008    6.2684    0.0000 H   0  0  0  0  0  0  0  0  0  0  0  0
    4.2649    4.6324    0.0000 H   0  0  0  0  0  0  0  0  0  0  0  0
    3.3893    4.5865    0.0000 H   0  0  0  0  0  0  0  0  0  0  0  0
    3.4352    3.7109    0.0000 H   0  0  0  0  0  0  0  0  0  0  0  0
    9.7302    4.2610    0.0000 H   0  0  0  0  0  0  0  0  0  0  0  0
    2.0000   -1.8655    0.0000 H   0  0  0  0  0  0  0  0  0  0  0  0
    2.9300   -2.4024    0.0000 H   0  0  0  0  0  0  0  0  0  0  0  0
    2.0000   -0.1333    0.0000 H   0  0  0  0  0  0  0  0  0  0  0  0
    2.9300    0.4035    0.0000 H   0  0  0  0  0  0  0  0  0  0  0  0
    7.6620   -5.4024    0.0000 H   0  0  0  0  0  0  0  0  0  0  0  0
    7.6620   -4.3285    0.0000 H   0  0  0  0  0  0  0  0  0  0  0  0
    5.2320   -5.7315    0.0000 H   0  0  0  0  0  0  0  0  0  0  0  0
    6.1620   -6.2684    0.0000 H   0  0  0  0  0  0  0  0  0  0  0  0
  1 21  1  0  0  0  0
  1 23  1  0  0  0  0
  2 23  1  0  0  0  0
  2 27  1  0  0  0  0
  3 20  1  0  0  0  0
  3 30  1  0  0  0  0
  4 30  1  0  0  0  0
  4 34  1  0  0  0  0
  5 22  1  0  0  0  0
  5 59  1  0  0  0  0
  6 25  1  0  0  0  0
  6 60  1  0  0  0  0
  7 26  1  0  0  0  0
  7 62  1  0  0  0  0
  8 28  1  0  0  0  0
  8 63  1  0  0  0  0
  9 32  1  0  0  0  0
  9 66  1  0  0  0  0
 10 33  1  0  0  0  0
 10 67  1  0  0  0  0
 11 36  2  0  0  0  0
 12 37  1  0  0  0  0
 12 71  1  0  0  0  0
 13 24  1  0  0  0  0
 13 38  2  0  0  0  0
 14 29  1  0  0  0  0
 14 40  2  0  0  0  0
 15 31  1  0  0  0  0
 15 39  1  0  0  0  0
 15 61  1  0  0  0  0
 16 38  1  0  0  0  0
 16 74  1  0  0  0  0
 16 75  1  0  0  0  0
 17 38  1  0  0  0  0
 17 72  1  0  0  0  0
 17 73  1  0  0  0  0
 18 40  1  0  0  0  0
 18 78  1  0  0  0  0
 18 79  1  0  0  0  0
 19 40  1  0  0  0  0
 19 76  1  0  0  0  0
 19 77  1  0  0  0  0
 20 22  1  0  0  0  0
 20 23  1  0  0  0  0
 20 41  1  0  0  0  0
 21 24  1  0  0  0  0
 21 25  1  0  0  0  0
 21 42  1  0  0  0  0
 22 27  1  0  0  0  0
 22 36  1  0  0  0  0
 23 43  1  0  0  0  0
 24 26  1  0  0  0  0
 24 44  1  0  0  0  0
 25 28  1  0  0  0  0
 25 45  1  0  0  0  0
 26 29  1  0  0  0  0
 26 46  1  0  0  0  0
 27 35  1  0  0  0  0
 27 47  1  0  0  0  0
 28 29  1  0  0  0  0
 28 48  1  0  0  0  0
 29 49  1  0  0  0  0
 30 31  1  0  0  0  0
 30 50  1  0  0  0  0
 31 32  1  0  0  0  0
 31 51  1  0  0  0  0
 32 33  1  0  0  0  0
 32 52  1  0  0  0  0
 33 34  1  0  0  0  0
 33 53  1  0  0  0  0
 34 37  1  0  0  0  0
 34 54  1  0  0  0  0
 35 55  1  0  0  0  0
 35 56  1  0  0  0  0
 35 57  1  0  0  0  0
 36 58  1  0  0  0  0
 37 64  1  0  0  0  0
 37 65  1  0  0  0  0
 39 68  1  0  0  0  0
 39 69  1  0  0  0  0
 39 70  1  0  0  0  0
M  END
> <PUBCHEM_COMPOUND_CID>
5297

> <PUBCHEM_COMPOUND_CANONICALIZED>
1

> <PUBCHEM_CACTVS_COMPLEXITY>
940

> <PUBCHEM_CACTVS_HBOND_ACCEPTOR>
15

> <PUBCHEM_CACTVS_HBOND_DONOR>
12

> <PUBCHEM_CACTVS_ROTATABLE_BOND>
9

> <PUBCHEM_CACTVS_SUBSKEYS>
AAADcfB7vAAAAAAAAAAAAAAAAAAAASAAAAA0QAAAAAAAAAAAAAAAHgAQCAAADHzxgAcDCALABgAoAAgQpAIAAAEAAAAAAIFIAAATEBYAwAAnQAAHMAAXAAHycA8KAAAAAAAAAAACgAAUCACgAAAAAAAAAA==

> <PUBCHEM_IUPAC_OPENEYE_NAME>
2-[2-[3-[4,5-dihydroxy-6-(hydroxymethyl)-3-(methylamino)tetrahydropyran-2-yl]oxy-4-formyl-4-hydroxy-5-methyl-tetrahydrofuran-2-yl]oxy-5-guanidino-3,4,6-trihydroxy-cyclohexyl]guanidine

> <PUBCHEM_IUPAC_CAS_NAME>
2-[3-(diaminomethylideneamino)-4-[[3-[[4,5-dihydroxy-6-(hydroxymethyl)-3-(methylamino)-2-oxanyl]oxy]-4-formyl-4-hydroxy-5-methyl-2-oxolanyl]oxy]-2,5,6-trihydroxycyclohexyl]guanidine

> <PUBCHEM_IUPAC_NAME>
2-[3-(diaminomethylideneamino)-4-[3-[4,5-dihydroxy-6-(hydroxymethyl)-3-(methylamino)oxan-2-yl]oxy-4-formyl-4-hydroxy-5-methyloxolan-2-yl]oxy-2,5,6-trihydroxycyclohexyl]guanidine

> <PUBCHEM_IUPAC_SYSTEMATIC_NAME>
2-[3-[bis(azanyl)methylideneamino]-4-[3-[6-(hydroxymethyl)-3-(methylamino)-4,5-bis(oxidanyl)oxan-2-yl]oxy-4-methanoyl-5-methyl-4-oxidanyl-oxolan-2-yl]oxy-2,5,6-tris(oxidanyl)cyclohexyl]guanidine

> <PUBCHEM_IUPAC_TRADITIONAL_NAME>
2-[2-[3-[4,5-dihydroxy-3-(methylamino)-6-methylol-tetrahydropyran-2-yl]oxy-4-formyl-4-hydroxy-5-methyl-tetrahydrofuran-2-yl]oxy-5-guanidino-3,4,6-trihydroxy-cyclohexyl]guanidine

> <PUBCHEM_IUPAC_INCHI>
InChI=1S/C21H39N7O12/c1-5-21(36,4-30)16(40-17-9(26-2)13(34)10(31)6(3-29)38-17)18(37-5)39-15-8(28-20(24)25)11(32)7(27-19(22)23)12(33)14(15)35/h4-18,26,29,31-36H,3H2,1-2H3,(H4,22,23,27)(H4,24,25,28)

> <PUBCHEM_IUPAC_INCHIKEY>
UCSJYZPVAKXKNQ-UHFFFAOYSA-N

> <PUBCHEM_XLOGP3_AA>
-8

> <PUBCHEM_EXACT_MASS>
581.26567

> <PUBCHEM_MOLECULAR_FORMULA>
C21H39N7O12

> <PUBCHEM_MOLECULAR_WEIGHT>
581.57406

> <PUBCHEM_OPENEYE_CAN_SMILES>
CC1C(C(C(O1)OC2C(C(C(C(C2O)O)N=C(N)N)O)N=C(N)N)OC3C(C(C(C(O3)CO)O)O)NC)(C=O)O

> <PUBCHEM_OPENEYE_ISO_SMILES>
CC1C(C(C(O1)OC2C(C(C(C(C2O)O)N=C(N)N)O)N=C(N)N)OC3C(C(C(C(O3)CO)O)O)NC)(C=O)O

> <PUBCHEM_CACTVS_TPSA>
336

> <PUBCHEM_MONOISOTOPIC_WEIGHT>
581.26567

> <PUBCHEM_TOTAL_CHARGE>
0

> <PUBCHEM_HEAVY_ATOM_COUNT>
40

> <PUBCHEM_ATOM_DEF_STEREO_COUNT>
0

> <PUBCHEM_ATOM_UDEF_STEREO_COUNT>
15

> <PUBCHEM_BOND_DEF_STEREO_COUNT>
0

> <PUBCHEM_BOND_UDEF_STEREO_COUNT>
0

> <PUBCHEM_ISOTOPIC_ATOM_COUNT>
0

> <PUBCHEM_COMPONENT_COUNT>
1

> <PUBCHEM_CACTVS_TAUTO_COUNT>
4

> <PUBCHEM_COORDINATE_TYPE>
1
5
255

> <PUBCHEM_BONDANNOTATIONS>
20  41  3
21  42  3
22  36  3
23  43  3
24  44  3
25  45  3
26  46  3
27  47  3
28  48  3
29  49  3
30  50  3
31  51  3
32  52  3
33  53  3
34  54  3

$$$$

