3322
  -OEChem-06251223203D

 42 41  0     1  0  0  0  0  0999 V2000
   -4.7821   -0.1812    1.4234 O   0  0  0  0  0  0  0  0  0  0  0  0
    2.8022   -1.9285    0.0692 C   0  0  0  0  0  0  0  0  0  0  0  0
    3.3091   -1.2169   -1.1879 C   0  0  0  0  0  0  0  0  0  0  0  0
    1.4888   -2.6851   -0.1546 C   0  0  0  0  0  0  0  0  0  0  0  0
    4.6190   -0.4489   -0.9652 C   0  0  0  0  0  0  0  0  0  0  0  0
    0.9694   -3.3806    1.1049 C   0  0  0  0  0  0  0  0  0  0  0  0
    4.5653    0.6443    0.1082 C   0  0  0  0  0  0  0  0  0  0  0  0
   -0.2933   -4.1781    0.8169 C   0  0  0  0  0  0  0  0  0  0  0  0
    3.5868    1.7348   -0.2186 C   0  0  0  0  0  0  0  0  0  0  0  0
    2.5838    2.1009    0.5935 C   0  0  0  0  0  0  0  0  0  0  0  0
    1.5896    3.1714    0.2616 C   0  0  0  0  0  0  0  0  0  0  0  0
    0.2388    2.5975    0.2348 C   0  0  0  0  0  0  0  0  0  0  0  0
   -0.8603    2.1147    0.2128 C   0  0  0  0  0  0  0  0  0  0  0  0
   -4.5214    0.4074    0.1522 C   0  0  1  0  0  0  0  0  0  0  0  0
   -2.1078    1.5449    0.1912 C   0  0  0  0  0  0  0  0  0  0  0  0
   -3.1948    1.0348    0.1749 C   0  0  0  0  0  0  0  0  0  0  0  0
   -4.5627   -0.6611   -0.8993 C   0  0  0  0  0  0  0  0  0  0  0  0
   -5.4304   -0.6704   -1.9180 C   0  0  0  0  0  0  0  0  0  0  0  0
    2.6388   -1.2016    0.8721 H   0  0  0  0  0  0  0  0  0  0  0  0
    3.5686   -2.6287    0.4231 H   0  0  0  0  0  0  0  0  0  0  0  0
    3.4727   -1.9596   -1.9785 H   0  0  0  0  0  0  0  0  0  0  0  0
    2.5368   -0.5333   -1.5600 H   0  0  0  0  0  0  0  0  0  0  0  0
    0.7270   -1.9851   -0.5202 H   0  0  0  0  0  0  0  0  0  0  0  0
    1.6393   -3.4306   -0.9452 H   0  0  0  0  0  0  0  0  0  0  0  0
    4.9267   -0.0046   -1.9205 H   0  0  0  0  0  0  0  0  0  0  0  0
    5.4052   -1.1639   -0.6916 H   0  0  0  0  0  0  0  0  0  0  0  0
    0.7605   -2.6351    1.8807 H   0  0  0  0  0  0  0  0  0  0  0  0
    1.7378   -4.0549    1.5000 H   0  0  0  0  0  0  0  0  0  0  0  0
    5.5603    1.1011    0.1806 H   0  0  0  0  0  0  0  0  0  0  0  0
    4.3642    0.2059    1.0918 H   0  0  0  0  0  0  0  0  0  0  0  0
   -0.6498   -4.6654    1.7297 H   0  0  0  0  0  0  0  0  0  0  0  0
   -0.1053   -4.9546    0.0685 H   0  0  0  0  0  0  0  0  0  0  0  0
   -1.0914   -3.5276    0.4449 H   0  0  0  0  0  0  0  0  0  0  0  0
    3.7136    2.2394   -1.1732 H   0  0  0  0  0  0  0  0  0  0  0  0
    2.4699    1.6006    1.5530 H   0  0  0  0  0  0  0  0  0  0  0  0
    1.8144    3.6399   -0.7033 H   0  0  0  0  0  0  0  0  0  0  0  0
    1.6475    3.9580    1.0222 H   0  0  0  0  0  0  0  0  0  0  0  0
   -5.2940    1.1637   -0.0272 H   0  0  0  0  0  0  0  0  0  0  0  0
   -3.8564   -1.4846   -0.8164 H   0  0  0  0  0  0  0  0  0  0  0  0
   -4.8241    0.5371    2.0780 H   0  0  0  0  0  0  0  0  0  0  0  0
   -5.4170   -1.4767   -2.6432 H   0  0  0  0  0  0  0  0  0  0  0  0
   -6.1632    0.1183   -2.0471 H   0  0  0  0  0  0  0  0  0  0  0  0
  1 14  1  0  0  0  0
  1 40  1  0  0  0  0
  2  3  1  0  0  0  0
  2  4  1  0  0  0  0
  2 19  1  0  0  0  0
  2 20  1  0  0  0  0
  3  5  1  0  0  0  0
  3 21  1  0  0  0  0
  3 22  1  0  0  0  0
  4  6  1  0  0  0  0
  4 23  1  0  0  0  0
  4 24  1  0  0  0  0
  5  7  1  0  0  0  0
  5 25  1  0  0  0  0
  5 26  1  0  0  0  0
  6  8  1  0  0  0  0
  6 27  1  0  0  0  0
  6 28  1  0  0  0  0
  7  9  1  0  0  0  0
  7 29  1  0  0  0  0
  7 30  1  0  0  0  0
  8 31  1  0  0  0  0
  8 32  1  0  0  0  0
  8 33  1  0  0  0  0
  9 10  2  0  0  0  0
  9 34  1  0  0  0  0
 10 11  1  0  0  0  0
 10 35  1  0  0  0  0
 11 12  1  0  0  0  0
 11 36  1  0  0  0  0
 11 37  1  0  0  0  0
 12 13  3  0  0  0  0
 13 15  1  0  0  0  0
 14 16  1  0  0  0  0
 14 17  1  0  0  0  0
 14 38  1  0  0  0  0
 15 16  3  0  0  0  0
 17 18  2  0  0  0  0
 17 39  1  0  0  0  0
 18 41  1  0  0  0  0
 18 42  1  0  0  0  0
M  END
> <PUBCHEM_COMPOUND_CID>
3322

> <PUBCHEM_CONFORMER_RMSD>
1

> <PUBCHEM_CONFORMER_DIVERSEORDER>
7
3
440
319
67
246
9
505
400
498
33
221
2
452
149
375
244
430
200
387
100
299
118
386
185
330
144
4
75
208
245
468
24
131
151
112
500
182
482
16
376
76
412
29
256
34
316
37
36
163
23
350
291
187
458
101
385
61
150
420
5
306
215
47
17
157
14
111
62
66
49
304
230
180
38
15
6
493
11
65
152
323
54
1
27
261
478
315
10
188
68
59
86
40
431
320
13
433
198
296
64
69
103
116
44
139

> <PUBCHEM_MMFF94_PARTIAL_CHARGES>
16
1 -0.68
10 -0.29
11 0.34
12 -0.2
14 0.62
16 -0.2
17 -0.29
18 -0.3
34 0.15
35 0.15
39 0.15
40 0.4
41 0.15
42 0.15
7 0.14
9 -0.29

> <PUBCHEM_EFFECTIVE_ROTOR_COUNT>
8

> <PUBCHEM_PHARMACOPHORE_FEATURES>
4
1 1 acceptor
1 1 donor
1 18 hydrophobe
1 8 hydrophobe

> <PUBCHEM_HEAVY_ATOM_COUNT>
18

> <PUBCHEM_ATOM_DEF_STEREO_COUNT>
0

> <PUBCHEM_ATOM_UDEF_STEREO_COUNT>
1

> <PUBCHEM_BOND_DEF_STEREO_COUNT>
0

> <PUBCHEM_BOND_UDEF_STEREO_COUNT>
1

> <PUBCHEM_ISOTOPIC_ATOM_COUNT>
0

> <PUBCHEM_COMPONENT_COUNT>
1

> <PUBCHEM_CACTVS_TAUTO_COUNT>
1

> <PUBCHEM_CONFORMER_ID>
00000CFA00000007

> <PUBCHEM_MMFF94_ENERGY>
-0.2963

> <PUBCHEM_FEATURE_SELFOVERLAP>
20.297

> <PUBCHEM_SHAPE_FINGERPRINT>
10316853 100 18269542863157816859
108634 29 18336532864328231646
114674 6 18409170995820261336
12596602 18 16588023481028062552
13402501 40 18340477894420039970
15110567 62 18411975892673551169
152267 14 17473551724866467855
20621476 78 18115041718701020389
20645477 70 18271243803114005761
235170 7 17561365097360451509
23596394 208 18271821150071609877
4283 87 18333740121445632853
463206 1 18335419019908986525
5283384 97 18261686899927232957
556388 4 18337393854440626876
9795274 37 17839177755452318922

> <PUBCHEM_SHAPE_MULTIPOLES>
364.56
11.27
4.85
1.22
10.69
3.51
-0.29
0
-3.88
-2.95
1.79
1.04
0.63
-0.17

> <PUBCHEM_SHAPE_SELFOVERLAP>
684.838

> <PUBCHEM_SHAPE_VOLUME>
222.9

> <PUBCHEM_COORDINATE_TYPE>
2
5
10

$$$$

