10410
  -OEChem-06261204322D

 14 12  0     0  0  0  0  0  0999 V2000
    0.0000    1.0000    0.0000 Na  0  3  0  0  0  0  0  0  0  0  0  0
    5.1962    1.0000    0.0000 F   0  0  0  0  0  0  0  0  0  0  0  0
    0.8660    1.5000    0.0000 O   0  5  0  0  0  0  0  0  0  0  0  0
    1.7321    0.0000    0.0000 O   0  0  0  0  0  0  0  0  0  0  0  0
    3.4641    1.0000    0.0000 C   0  0  0  0  0  0  0  0  0  0  0  0
    2.5981    1.5000    0.0000 C   0  0  0  0  0  0  0  0  0  0  0  0
    4.3301    1.5000    0.0000 C   0  0  0  0  0  0  0  0  0  0  0  0
    1.7321    1.0000    0.0000 C   0  0  0  0  0  0  0  0  0  0  0  0
    3.0656    0.5251    0.0000 H   0  0  0  0  0  0  0  0  0  0  0  0
    3.8626    0.5251    0.0000 H   0  0  0  0  0  0  0  0  0  0  0  0
    2.9966    1.9749    0.0000 H   0  0  0  0  0  0  0  0  0  0  0  0
    2.1995    1.9749    0.0000 H   0  0  0  0  0  0  0  0  0  0  0  0
    4.7287    1.9749    0.0000 H   0  0  0  0  0  0  0  0  0  0  0  0
    3.9316    1.9749    0.0000 H   0  0  0  0  0  0  0  0  0  0  0  0
  2  7  1  0  0  0  0
  3  8  1  0  0  0  0
  4  8  2  0  0  0  0
  5  6  1  0  0  0  0
  5  7  1  0  0  0  0
  5  9  1  0  0  0  0
  5 10  1  0  0  0  0
  6  8  1  0  0  0  0
  6 11  1  0  0  0  0
  6 12  1  0  0  0  0
  7 13  1  0  0  0  0
  7 14  1  0  0  0  0
M  CHG  2   1   1   3  -1
M  END
> <PUBCHEM_COMPOUND_CID>
10410

> <PUBCHEM_COMPOUND_CANONICALIZED>
1

> <PUBCHEM_CACTVS_COMPLEXITY>
57.2

> <PUBCHEM_CACTVS_HBOND_ACCEPTOR>
3

> <PUBCHEM_CACTVS_HBOND_DONOR>
0

> <PUBCHEM_CACTVS_ROTATABLE_BOND>
2

> <PUBCHEM_CACTVS_SUBSKEYS>
AAADcYBgMSAAAAAAAAAAAAAAAAAAAAAAAAAAAAAAAAAAAAAAAAAAGwAAAAAACACAgAAACAAAAAAIAACQCAAAAAAAAAAAAAEAAAAAABAAAAAAAAAEAAAAAAAAAAAAAAAAAAAAAAAAAAAAAAAAAAAAAAAAAA==

> <PUBCHEM_IUPAC_OPENEYE_NAME>
sodium 4-fluorobutanoate

> <PUBCHEM_IUPAC_CAS_NAME>
sodium 4-fluorobutanoate

> <PUBCHEM_IUPAC_NAME>
sodium 4-fluorobutanoate

> <PUBCHEM_IUPAC_SYSTEMATIC_NAME>
sodium 4-fluoranylbutanoate

> <PUBCHEM_IUPAC_TRADITIONAL_NAME>
sodium 4-fluorobutyrate

> <PUBCHEM_IUPAC_INCHI>
InChI=1S/C4H7FO2.Na/c5-3-1-2-4(6)7;/h1-3H2,(H,6,7);/q;+1/p-1

> <PUBCHEM_IUPAC_INCHIKEY>
HTMHSGUVCIIRFU-UHFFFAOYSA-M

> <PUBCHEM_EXACT_MASS>
128.024952

> <PUBCHEM_MOLECULAR_FORMULA>
C4H6FNaO2

> <PUBCHEM_MOLECULAR_WEIGHT>
128.077412

> <PUBCHEM_OPENEYE_CAN_SMILES>
C(CC(=O)[O-])CF.[Na+]

> <PUBCHEM_OPENEYE_ISO_SMILES>
C(CC(=O)[O-])CF.[Na+]

> <PUBCHEM_CACTVS_TPSA>
40.1

> <PUBCHEM_MONOISOTOPIC_WEIGHT>
128.024952

> <PUBCHEM_TOTAL_CHARGE>
0

> <PUBCHEM_HEAVY_ATOM_COUNT>
8

> <PUBCHEM_ATOM_DEF_STEREO_COUNT>
0

> <PUBCHEM_ATOM_UDEF_STEREO_COUNT>
0

> <PUBCHEM_BOND_DEF_STEREO_COUNT>
0

> <PUBCHEM_BOND_UDEF_STEREO_COUNT>
0

> <PUBCHEM_ISOTOPIC_ATOM_COUNT>
0

> <PUBCHEM_COMPONENT_COUNT>
2

> <PUBCHEM_CACTVS_TAUTO_COUNT>
1

> <PUBCHEM_COORDINATE_TYPE>
1
5
255

$$$$

