51090921
  -OEChem-06241223003D

 37 38  0     1  0  0  0  0  0999 V2000
   -5.6301    2.1323    0.4129 F   0  0  0  0  0  0  0  0  0  0  0  0
   -4.4333    1.7430   -1.3667 F   0  0  0  0  0  0  0  0  0  0  0  0
   -5.6070    0.1358   -0.4619 F   0  0  0  0  0  0  0  0  0  0  0  0
    2.4067   -1.7817   -1.1950 O   0  0  0  0  0  0  0  0  0  0  0  0
   -2.8100   -0.1149    0.0414 N   0  0  1  0  0  0  0  0  0  0  0  0
    1.3855   -1.0546    0.7572 N   0  0  0  0  0  0  0  0  0  0  0  0
    5.3714    1.0126   -0.1265 N   0  0  0  0  0  0  0  0  0  0  0  0
    4.5942    1.8509    0.5803 N   0  0  0  0  0  0  0  0  0  0  0  0
   -0.8987   -1.4141   -0.0185 C   0  0  1  0  0  0  0  0  0  0  0  0
   -2.0960   -2.3659   -0.0758 C   0  0  0  0  0  0  0  0  0  0  0  0
   -1.4656   -0.1505    0.6182 C   0  0  0  0  0  0  0  0  0  0  0  0
   -3.3191   -1.4826    0.1625 C   0  0  0  0  0  0  0  0  0  0  0  0
    0.2916   -1.9818    0.7363 C   0  0  0  0  0  0  0  0  0  0  0  0
   -3.6710    0.8599    0.6938 C   0  0  0  0  0  0  0  0  0  0  0  0
   -4.8425    1.2156   -0.1932 C   0  0  0  0  0  0  0  0  0  0  0  0
    2.3707   -1.0286   -0.2255 C   0  0  0  0  0  0  0  0  0  0  0  0
    3.4511   -0.0251   -0.0456 C   0  0  0  0  0  0  0  0  0  0  0  0
    4.7344   -0.1257   -0.5250 C   0  0  0  0  0  0  0  0  0  0  0  0
    3.4225    1.2116    0.6264 C   0  0  0  0  0  0  0  0  0  0  0  0
    6.7453    1.3640   -0.3954 C   0  0  0  0  0  0  0  0  0  0  0  0
   -0.5951   -1.1812   -1.0497 H   0  0  0  0  0  0  0  0  0  0  0  0
   -2.1428   -2.8527   -1.0565 H   0  0  0  0  0  0  0  0  0  0  0  0
   -2.0393   -3.1515    0.6860 H   0  0  0  0  0  0  0  0  0  0  0  0
   -0.8837    0.7358    0.3444 H   0  0  0  0  0  0  0  0  0  0  0  0
   -1.4966   -0.2322    1.7126 H   0  0  0  0  0  0  0  0  0  0  0  0
   -4.0997   -1.6992   -0.5730 H   0  0  0  0  0  0  0  0  0  0  0  0
   -3.7198   -1.6884    1.1632 H   0  0  0  0  0  0  0  0  0  0  0  0
    0.0303   -2.2000    1.7777 H   0  0  0  0  0  0  0  0  0  0  0  0
    0.6209   -2.9184    0.2723 H   0  0  0  0  0  0  0  0  0  0  0  0
   -3.1107    1.7874    0.8676 H   0  0  0  0  0  0  0  0  0  0  0  0
   -4.0182    0.5171    1.6760 H   0  0  0  0  0  0  0  0  0  0  0  0
    1.4358   -0.4017    1.5335 H   0  0  0  0  0  0  0  0  0  0  0  0
    5.2347   -0.8923   -1.1012 H   0  0  0  0  0  0  0  0  0  0  0  0
    2.5994    1.6806    1.1469 H   0  0  0  0  0  0  0  0  0  0  0  0
    6.7567    2.2993   -0.9606 H   0  0  0  0  0  0  0  0  0  0  0  0
    7.2625    1.4849    0.5597 H   0  0  0  0  0  0  0  0  0  0  0  0
    7.2182    0.5697   -0.9782 H   0  0  0  0  0  0  0  0  0  0  0  0
  1 15  1  0  0  0  0
  2 15  1  0  0  0  0
  3 15  1  0  0  0  0
  4 16  2  0  0  0  0
  5 11  1  0  0  0  0
  5 12  1  0  0  0  0
  5 14  1  0  0  0  0
  6 13  1  0  0  0  0
  6 16  1  0  0  0  0
  6 32  1  0  0  0  0
  7  8  1  0  0  0  0
  7 18  1  0  0  0  0
  7 20  1  0  0  0  0
  8 19  2  0  0  0  0
  9 10  1  0  0  0  0
  9 11  1  0  0  0  0
  9 13  1  0  0  0  0
  9 21  1  0  0  0  0
 10 12  1  0  0  0  0
 10 22  1  0  0  0  0
 10 23  1  0  0  0  0
 11 24  1  0  0  0  0
 11 25  1  0  0  0  0
 12 26  1  0  0  0  0
 12 27  1  0  0  0  0
 13 28  1  0  0  0  0
 13 29  1  0  0  0  0
 14 15  1  0  0  0  0
 14 30  1  0  0  0  0
 14 31  1  0  0  0  0
 16 17  1  0  0  0  0
 17 18  2  0  0  0  0
 17 19  1  0  0  0  0
 18 33  1  0  0  0  0
 19 34  1  0  0  0  0
 20 35  1  0  0  0  0
 20 36  1  0  0  0  0
 20 37  1  0  0  0  0
M  END
> <PUBCHEM_COMPOUND_CID>
51090921

> <PUBCHEM_CONFORMER_RMSD>
0.8

> <PUBCHEM_CONFORMER_DIVERSEORDER>
1
152
159
92
58
52
147
55
82
50
153
18
163
96
135
181
48
128
76
127
151
84
177
41
69
137
94
65
34
60
44
26
129
100
172
51
86
113
79
49
132
97
53
6
165
131
144
13
17
136
170
64
22
150
15
119
16
117
108
81
103
19
121
87
21
145
83
126
107
176
70
43
173
80
149
32
141
154
74
30
109
164
179
24
54
110
29
134
146
158
138
157
12
90
183
20
77
95
124
66
85
175
46
7
28
111
148
38
123
71
11
184
62
142
31
122
89
47
156
61
116
93
125
114
23
33
115
120
101
3
155
118
39
166
178
4
106
171
57
169
161
143
140
102
73
25
98
75
174
5
35
180
182
63
67
160
56
42
105
45
68
139
72
112
130
167
8
185
99
133
162
168
10
91
78
14
27
40
2
104
37
9
88
59
36

> <PUBCHEM_MMFF94_PARTIAL_CHARGES>
21
1 -0.34
11 0.27
12 0.27
13 0.3
14 0.27
15 1.02
16 0.72
17 -0.09
18 -0.3
19 0.14
2 -0.34
20 0.26
3 -0.34
32 0.37
33 0.15
34 0.15
4 -0.57
5 -0.81
6 -0.73
7 0.31
8 -0.71

> <PUBCHEM_EFFECTIVE_ROTOR_COUNT>
7

> <PUBCHEM_PHARMACOPHORE_FEATURES>
6
1 4 acceptor
1 5 cation
1 6 donor
1 8 acceptor
5 5 9 10 11 12 rings
5 7 8 17 18 19 rings

> <PUBCHEM_HEAVY_ATOM_COUNT>
20

> <PUBCHEM_ATOM_DEF_STEREO_COUNT>
0

> <PUBCHEM_ATOM_UDEF_STEREO_COUNT>
1

> <PUBCHEM_BOND_DEF_STEREO_COUNT>
0

> <PUBCHEM_BOND_UDEF_STEREO_COUNT>
0

> <PUBCHEM_ISOTOPIC_ATOM_COUNT>
0

> <PUBCHEM_COMPONENT_COUNT>
1

> <PUBCHEM_CACTVS_TAUTO_COUNT>
2

> <PUBCHEM_CONFORMER_ID>
030B95E900000001

> <PUBCHEM_MMFF94_ENERGY>
26.7609

> <PUBCHEM_FEATURE_SELFOVERLAP>
30.446

> <PUBCHEM_SHAPE_FINGERPRINT>
10014705 185 18411136926805296171
10498660 4 18409448098198121425
11796584 16 8645955234038460258
12107183 9 18200043957764687962
12390115 104 18337941347023053963
12403259 118 17203316815582546655
12403259 415 18115306653615865896
12596602 18 15051724279228207244
12633257 1 14692562208839551323
12760667 363 9151170952913949281
12769317 202 18334583446953911672
13402501 40 18411139130097580420
13740256 8 8935005871560645050
13955234 65 17913487110871526579
14123255 352 18411699868163300170
14123256 34 9871476443592830912
14251764 38 18124876746773759684
14252887 29 13973699321368506466
14931854 50 18113898307442774417
15183329 4 18260820536694432058
15196674 1 18410009914623184762
15342816 4 6555420799484069754
15778101 99 18412259523650179642
17780758 139 11887962055429015207
17834072 32 18410292505879818786
17959699 21 18408886243429718563
19784866 240 6771864091085272939
19784866 34 18342460374115046291
20281389 69 18272090479012591448
20621476 66 18271801286275256892
20645477 56 18411133628402411579
20871999 31 17895767205474039887
21033648 29 18262806147188138360
21054139 6 6338966555452778292
21637258 2 6555414185081290698
21709351 56 18115026295267419940
22289505 5 18186798076738851948
23227448 37 18410013191651498807
23402539 116 18410858716357099878
23402655 69 18259703398056721062
23557571 272 18263073340692090854
23559900 14 18187080711114704614
270888 7 18340769338105859409
2767999 5 18272092698956821532
2838139 119 18334863813707902836
2916195 48 18341048536501736730
293599 30 18412261744090067498
316301 35 8862946052803634604
3472631 163 18411699880868867319
351380 3 8430314623631044016
3545911 37 18335416850670894763
4028521 119 18335419058405436802
441001 317 18411702058697140331
465052 167 10592040272005716368
5104073 3 18131349734703126587
5969126 39 18192153681824786383
77188 2 16972510344893941834
7808743 9 18342460322163592265
7970288 3 8718534009183459109
960060 61 16226048928641373190

> <PUBCHEM_SHAPE_MULTIPOLES>
363.98
15.01
2.36
0.89
5.29
0.21
0.08
-11.5
2.13
-1.46
0.04
-0.09
-0.04
0.63

> <PUBCHEM_SHAPE_SELFOVERLAP>
754.974

> <PUBCHEM_SHAPE_VOLUME>
211.6

> <PUBCHEM_COORDINATE_TYPE>
2
5
10

$$$$

