6186
  -OEChem-06261201102D

 52 57  0     1  0  0  0  0  0999 V2000
    5.3391    0.6026    0.0000 O   0  0  0  0  0  0  0  0  0  0  0  0
    2.0720    0.5647    0.0000 O   0  0  0  0  0  0  0  0  0  0  0  0
    4.4323    8.9443    0.0000 O   0  5  0  0  0  0  0  0  0  0  0  0
    2.7003    8.9443    0.0000 O   0  5  0  0  0  0  0  0  0  0  0  0
    3.5663    7.4443    0.0000 O   0  0  0  0  0  0  0  0  0  0  0  0
    4.3466    4.7412    0.0000 N   0  3  3  0  0  0  0  0  0  0  0  0
    2.9380    1.9889    0.0000 N   0  0  0  0  0  0  0  0  0  0  0  0
    3.5663    8.4443    0.0000 N   0  3  0  0  0  0  0  0  0  0  0  0
    3.7384    3.3752    0.0000 C   0  0  1  0  0  0  0  0  0  0  0  0
    4.5388    3.8373    0.0000 C   0  0  2  0  0  0  0  0  0  0  0  0
    3.7384    2.4510    0.0000 C   0  0  3  0  0  0  0  0  0  0  0  0
    4.5388    1.9889    0.0000 C   0  0  1  0  0  0  0  0  0  0  0  0
    5.3391    2.4510    0.0000 C   0  0  1  0  0  0  0  0  0  0  0  0
    5.3391    3.3752    0.0000 C   0  0  0  0  0  0  0  0  0  0  0  0
    3.0516    3.9936    0.0000 C   0  0  0  0  0  0  0  0  0  0  0  0
    3.4275    4.8379    0.0000 C   0  0  0  0  0  0  0  0  0  0  0  0
    2.1377    3.3752    0.0000 C   0  0  0  0  0  0  0  0  0  0  0  0
    6.1636    3.9400    0.0000 C   0  0  0  0  0  0  0  0  0  0  0  0
    6.1994    2.1134    0.0000 C   0  0  0  0  0  0  0  0  0  0  0  0
    4.5388    1.0647    0.0000 C   0  0  3  0  0  0  0  0  0  0  0  0
    2.1377    2.4510    0.0000 C   0  0  0  0  0  0  0  0  0  0  0  0
    3.7384    0.6026    0.0000 C   0  0  0  0  0  0  0  0  0  0  0  0
    2.9380    1.0647    0.0000 C   0  0  0  0  0  0  0  0  0  0  0  0
    6.5127    1.4755    0.0000 C   0  0  0  0  0  0  0  0  0  0  0  0
    1.3373    3.8373    0.0000 C   0  0  0  0  0  0  0  0  0  0  0  0
    6.0609    0.6129    0.0000 C   0  0  0  0  0  0  0  0  0  0  0  0
    1.3373    1.9889    0.0000 C   0  0  0  0  0  0  0  0  0  0  0  0
    0.5369    3.3752    0.0000 C   0  0  0  0  0  0  0  0  0  0  0  0
    0.5369    2.4510    0.0000 C   0  0  0  0  0  0  0  0  0  0  0  0
    5.2812    4.2511    0.0000 H   0  0  0  0  0  0  0  0  0  0  0  0
    3.2014    2.7610    0.0000 H   0  0  0  0  0  0  0  0  0  0  0  0
    5.2749    1.5639    0.0000 H   0  0  0  0  0  0  0  0  0  0  0  0
    4.5060    5.3404    0.0000 H   0  0  0  0  0  0  0  0  0  0  0  0
    6.0414    2.9298    0.0000 H   0  0  0  0  0  0  0  0  0  0  0  0
    5.9497    3.2675    0.0000 H   0  0  0  0  0  0  0  0  0  0  0  0
    5.5512    3.9578    0.0000 H   0  0  0  0  0  0  0  0  0  0  0  0
    2.5146    4.3036    0.0000 H   0  0  0  0  0  0  0  0  0  0  0  0
    2.6872    3.4920    0.0000 H   0  0  0  0  0  0  0  0  0  0  0  0
    3.5564    5.4443    0.0000 H   0  0  0  0  0  0  0  0  0  0  0  0
    2.8378    5.0294    0.0000 H   0  0  0  0  0  0  0  0  0  0  0  0
    6.7787    3.8624    0.0000 H   0  0  0  0  0  0  0  0  0  0  0  0
    6.3292    4.5374    0.0000 H   0  0  0  0  0  0  0  0  0  0  0  0
    4.5388    0.4447    0.0000 H   0  0  0  0  0  0  0  0  0  0  0  0
    3.3399    0.1277    0.0000 H   0  0  0  0  0  0  0  0  0  0  0  0
    4.1369    0.1277    0.0000 H   0  0  0  0  0  0  0  0  0  0  0  0
    7.1326    1.4674    0.0000 H   0  0  0  0  0  0  0  0  0  0  0  0
    1.3373    4.4573    0.0000 H   0  0  0  0  0  0  0  0  0  0  0  0
    5.9674    0.0000    0.0000 H   0  0  0  0  0  0  0  0  0  0  0  0
    6.6500    0.4197    0.0000 H   0  0  0  0  0  0  0  0  0  0  0  0
    1.3373    1.3689    0.0000 H   0  0  0  0  0  0  0  0  0  0  0  0
    0.0000    3.6852    0.0000 H   0  0  0  0  0  0  0  0  0  0  0  0
    0.0000    2.1410    0.0000 H   0  0  0  0  0  0  0  0  0  0  0  0
  1 20  1  0  0  0  0
  1 26  1  0  0  0  0
  2 23  2  0  0  0  0
  3  8  1  0  0  0  0
  4  8  1  0  0  0  0
  5  8  2  0  0  0  0
  6 10  1  0  0  0  0
  6 16  1  0  0  0  0
  6 18  1  0  0  0  0
  6 33  1  0  0  0  0
  7 11  1  0  0  0  0
  7 21  1  0  0  0  0
  7 23  1  0  0  0  0
  9 10  1  0  0  0  0
  9 11  1  0  0  0  0
  9 15  1  0  0  0  0
  9 17  1  6  0  0  0
 10 14  1  0  0  0  0
 10 30  1  6  0  0  0
 11 12  1  0  0  0  0
 11 31  1  0  0  0  0
 12 13  1  0  0  0  0
 12 20  1  0  0  0  0
 12 32  1  6  0  0  0
 13 14  1  0  0  0  0
 13 19  1  0  0  0  0
 13 34  1  6  0  0  0
 14 35  1  0  0  0  0
 14 36  1  0  0  0  0
 15 16  1  0  0  0  0
 15 37  1  0  0  0  0
 15 38  1  0  0  0  0
 16 39  1  0  0  0  0
 16 40  1  0  0  0  0
 17 21  1  0  0  0  0
 17 25  2  0  0  0  0
 18 19  1  0  0  0  0
 18 41  1  0  0  0  0
 18 42  1  0  0  0  0
 19 24  2  0  0  0  0
 20 22  1  0  0  0  0
 20 43  1  0  0  0  0
 21 27  2  0  0  0  0
 22 23  1  0  0  0  0
 22 44  1  0  0  0  0
 22 45  1  0  0  0  0
 24 26  1  0  0  0  0
 24 46  1  0  0  0  0
 25 28  1  0  0  0  0
 25 47  1  0  0  0  0
 26 48  1  0  0  0  0
 26 49  1  0  0  0  0
 27 29  1  0  0  0  0
 27 50  1  0  0  0  0
 28 29  2  0  0  0  0
 28 51  1  0  0  0  0
 29 52  1  0  0  0  0
M  CHG  4   3  -1   4  -1   6   1   8   1
M  END
> <PUBCHEM_COMPOUND_CID>
6186

> <PUBCHEM_COMPOUND_CANONICALIZED>
1

> <PUBCHEM_CACTVS_COMPLEXITY>
708

> <PUBCHEM_CACTVS_HBOND_ACCEPTOR>
5

> <PUBCHEM_CACTVS_HBOND_DONOR>
1

> <PUBCHEM_CACTVS_ROTATABLE_BOND>
0

> <PUBCHEM_CACTVS_SUBSKEYS>
AAADceB7OAAAAAAAAAAAAAAAAAAAAWLAAAA8eIEABAAAAFgBAAAAHgAUAAAADzzhmAYwwIPARACJAiVSUQCCAAAhAgAIiIEIZIgIJDbA8ZGGMAhmtgDI6AeY2fOfgAAAAAACAACQAASACCQAAAAAAAAAAA==

> <PUBCHEM_IUPAC_OPENEYE_NAME>
(4aR,5aS,8aS,15bR)-2,4a,5,5a,6,7,8,13a,15,15a,15b,16-dodecahydro4,6-methanoindolo[3,2,1-ij]oxepino[2,3,4-de]pyrrolo[2,3-h]quinoline-6-ium-14-one nitrate

> <PUBCHEM_IUPAC_CAS_NAME>
(4aR,5aS,8aS,15bR)-2,4a,5,5a,6,7,8,13a,15,15a,15b,16-dodecahydro4,6-methanoindolo[3,2,1-ij]oxepino[2,3,4-de]pyrrolo[2,3-h]quinoline-6-ium-14-one nitrate

> <PUBCHEM_IUPAC_NAME>
(4aR,5aS,8aS,15bR)-2,4a,5,5a,6,7,8,13a,15,15a,15b,16-dodecahydro4,6-methanoindolo[3,2,1-ij]oxepino[2,3,4-de]pyrrolo[2,3-h]quinoline-6-ium-14-one nitrate

> <PUBCHEM_IUPAC_SYSTEMATIC_NAME>
(4aR,5aS,8aS,15bR)-2,4a,5,5a,6,7,8,13a,15,15a,15b,16-dodecahydro4,6-methanoindolo[3,2,1-ij]oxepino[2,3,4-de]pyrrolo[2,3-h]quinoline-6-ium-14-one nitrate

> <PUBCHEM_IUPAC_TRADITIONAL_NAME>
(4aR,5aS,8aS,15bR)-2,4a,5,5a,6,7,8,13a,15,15a,15b,16-dodecahydro4,6-methanoindolo[3,2,1-ij]oxepino[2,3,4-de]pyrrolo[2,3-h]quinoline-6-ium-14-one nitrate

> <PUBCHEM_IUPAC_INCHI>
InChI=1S/C21H22N2O2.NO3/c24-18-10-16-19-13-9-17-21(6-7-22(17)11-12(13)5-8-25-16)14-3-1-2-4-15(14)23(18)20(19)21;2-1(3)4/h1-5,13,16-17,19-20H,6-11H2;/q;-1/p+1/t13-,16?,17-,19-,20?,21+;/m0./s1

> <PUBCHEM_IUPAC_INCHIKEY>
JWKVPTXNWFCSIW-OFWMIIDDSA-O

> <PUBCHEM_EXACT_MASS>
397.163771

> <PUBCHEM_MOLECULAR_FORMULA>
C21H23N3O5

> <PUBCHEM_MOLECULAR_WEIGHT>
397.42442

> <PUBCHEM_OPENEYE_CAN_SMILES>
C1C[NH+]2CC3=CCOC4CC(=O)N5C6C4C3CC2C61C7=CC=CC=C75.[N+](=O)([O-])[O-]

> <PUBCHEM_OPENEYE_ISO_SMILES>
C1C[NH+]2CC3=CCOC4CC(=O)N5C6[C@H]4[C@H]3C[C@H]2[C@@]61C7=CC=CC=C75.[N+](=O)([O-])[O-]

> <PUBCHEM_CACTVS_TPSA>
96.9

> <PUBCHEM_MONOISOTOPIC_WEIGHT>
397.163771

> <PUBCHEM_TOTAL_CHARGE>
0

> <PUBCHEM_HEAVY_ATOM_COUNT>
29

> <PUBCHEM_ATOM_DEF_STEREO_COUNT>
4

> <PUBCHEM_ATOM_UDEF_STEREO_COUNT>
2

> <PUBCHEM_BOND_DEF_STEREO_COUNT>
0

> <PUBCHEM_BOND_UDEF_STEREO_COUNT>
0

> <PUBCHEM_ISOTOPIC_ATOM_COUNT>
0

> <PUBCHEM_COMPONENT_COUNT>
2

> <PUBCHEM_CACTVS_TAUTO_COUNT>
2

> <PUBCHEM_COORDINATE_TYPE>
1
5
255

> <PUBCHEM_BONDANNOTATIONS>
10  30  6
12  32  6
13  34  6
17  21  8
17  25  8
20  22  3
21  27  8
25  28  8
27  29  8
28  29  8
11  7  3
9  17  6

$$$$

