11365
  -OEChem-06261205353D

 19 19  0     0  0  0  0  0  0999 V2000
    1.7049   -2.1051    0.4230 Cl  0  0  0  0  0  0  0  0  0  0  0  0
    1.7648    1.7070   -0.3953 O   0  0  0  0  0  0  0  0  0  0  0  0
    1.0616   -0.4870    0.0933 N   0  0  0  0  0  0  0  0  0  0  0  0
   -0.3084   -0.2263    0.0530 C   0  0  0  0  0  0  0  0  0  0  0  0
   -0.7900    1.0322    0.4133 C   0  0  0  0  0  0  0  0  0  0  0  0
   -1.1965   -1.2241   -0.3483 C   0  0  0  0  0  0  0  0  0  0  0  0
   -2.1597    1.2930    0.3720 C   0  0  0  0  0  0  0  0  0  0  0  0
   -2.5662   -0.9634   -0.3897 C   0  0  0  0  0  0  0  0  0  0  0  0
   -3.0478    0.2952   -0.0295 C   0  0  0  0  0  0  0  0  0  0  0  0
    2.0378    0.5341   -0.1289 C   0  0  0  0  0  0  0  0  0  0  0  0
    3.4996    0.1445   -0.0629 C   0  0  0  0  0  0  0  0  0  0  0  0
   -0.1546    1.8227    0.7977 H   0  0  0  0  0  0  0  0  0  0  0  0
   -0.8548   -2.2096   -0.6515 H   0  0  0  0  0  0  0  0  0  0  0  0
   -2.5370    2.2678    0.6671 H   0  0  0  0  0  0  0  0  0  0  0  0
   -3.2578   -1.7392   -0.7052 H   0  0  0  0  0  0  0  0  0  0  0  0
   -4.1144    0.4973   -0.0590 H   0  0  0  0  0  0  0  0  0  0  0  0
    4.1184    1.0293   -0.2433 H   0  0  0  0  0  0  0  0  0  0  0  0
    3.7328   -0.5935   -0.8347 H   0  0  0  0  0  0  0  0  0  0  0  0
    3.7477   -0.2409    0.9295 H   0  0  0  0  0  0  0  0  0  0  0  0
  1  3  1  0  0  0  0
  2 10  2  0  0  0  0
  3  4  1  0  0  0  0
  3 10  1  0  0  0  0
  4  5  2  0  0  0  0
  4  6  1  0  0  0  0
  5  7  1  0  0  0  0
  5 12  1  0  0  0  0
  6  8  2  0  0  0  0
  6 13  1  0  0  0  0
  7  9  2  0  0  0  0
  7 14  1  0  0  0  0
  8  9  1  0  0  0  0
  8 15  1  0  0  0  0
  9 16  1  0  0  0  0
 10 11  1  0  0  0  0
 11 17  1  0  0  0  0
 11 18  1  0  0  0  0
 11 19  1  0  0  0  0
M  END
> <PUBCHEM_COMPOUND_CID>
11365

> <PUBCHEM_CONFORMER_RMSD>
0.4

> <PUBCHEM_CONFORMER_DIVERSEORDER>
1
6
8
5
7
2
3
4

> <PUBCHEM_MMFF94_PARTIAL_CHARGES>
16
1 -0.06
10 0.57
11 0.06
12 0.15
13 0.15
14 0.15
15 0.15
16 0.15
2 -0.57
3 -0.12
4 0.12
5 -0.15
6 -0.15
7 -0.15
8 -0.15
9 -0.15

> <PUBCHEM_EFFECTIVE_ROTOR_COUNT>
2

> <PUBCHEM_PHARMACOPHORE_FEATURES>
2
1 2 acceptor
6 4 5 6 7 8 9 rings

> <PUBCHEM_HEAVY_ATOM_COUNT>
11

> <PUBCHEM_ATOM_DEF_STEREO_COUNT>
0

> <PUBCHEM_ATOM_UDEF_STEREO_COUNT>
0

> <PUBCHEM_BOND_DEF_STEREO_COUNT>
0

> <PUBCHEM_BOND_UDEF_STEREO_COUNT>
0

> <PUBCHEM_ISOTOPIC_ATOM_COUNT>
0

> <PUBCHEM_COMPONENT_COUNT>
1

> <PUBCHEM_CACTVS_TAUTO_COUNT>
1

> <PUBCHEM_CONFORMER_ID>
00002C6500000001

> <PUBCHEM_MMFF94_ENERGY>
40.937

> <PUBCHEM_FEATURE_SELFOVERLAP>
10.148

> <PUBCHEM_SHAPE_FINGERPRINT>
12897270 3 18410013191361328749
12932764 1 17749116581874818787
13380535 76 18413108359628054978
14144814 61 18410857697932801674
14325111 11 18409728443767367948
15775835 57 18410567422483874209
16945 1 18411700967569426441
19021347 11 18413390942843309074
23463225 33 18340490083658772418
23552423 10 18411982464010638447
2748010 2 17907298006798801004
369184 2 16486980570217092065
5084963 1 18260825960589293552
528862 383 18271529804890839602
7364860 26 18260831557142956010
8030462 33 18334304166573594247

> <PUBCHEM_SHAPE_MULTIPOLES>
217.39
4.9
1.8
0.69
1.03
0.39
-0.02
-0.38
0.22
0.43
-0.09
-0.03
0.03
-0.54

> <PUBCHEM_SHAPE_SELFOVERLAP>
436.181

> <PUBCHEM_SHAPE_VOLUME>
128.5

> <PUBCHEM_COORDINATE_TYPE>
2
5
10

$$$$

