586239
  -OEChem-06241222462D

 17 17  0     0  0  0  0  0  0999 V2000
    3.6711    2.5512    0.0000 O   0  0  0  0  0  0  0  0  0  0  0  0
    5.0724    1.5331    0.0000 O   0  0  0  0  0  0  0  0  0  0  0  0
    2.8090   -2.4328    0.0000 N   0  0  0  0  0  0  0  0  0  0  0  0
    3.3090   -0.8939    0.0000 C   0  0  0  0  0  0  0  0  0  0  0  0
    3.6180   -1.8450    0.0000 C   0  0  0  0  0  0  0  0  0  0  0  0
    2.3090   -0.8939    0.0000 C   0  0  0  0  0  0  0  0  0  0  0  0
    2.0000   -1.8450    0.0000 C   0  0  0  0  0  0  0  0  0  0  0  0
    3.8968   -0.0849    0.0000 C   0  0  0  0  0  0  0  0  0  0  0  0
    3.4901    0.8286    0.0000 C   0  0  0  0  0  0  0  0  0  0  0  0
    4.0779    1.6376    0.0000 C   0  0  0  0  0  0  0  0  0  0  0  0
    4.2077   -2.0366    0.0000 H   0  0  0  0  0  0  0  0  0  0  0  0
    1.9446   -0.3923    0.0000 H   0  0  0  0  0  0  0  0  0  0  0  0
    2.8090   -3.0528    0.0000 H   0  0  0  0  0  0  0  0  0  0  0  0
    1.4103   -2.0366    0.0000 H   0  0  0  0  0  0  0  0  0  0  0  0
    4.5134   -0.1497    0.0000 H   0  0  0  0  0  0  0  0  0  0  0  0
    2.8735    0.8934    0.0000 H   0  0  0  0  0  0  0  0  0  0  0  0
    4.0355    3.0528    0.0000 H   0  0  0  0  0  0  0  0  0  0  0  0
  1 10  1  0  0  0  0
  1 17  1  0  0  0  0
  2 10  2  0  0  0  0
  3  5  1  0  0  0  0
  3  7  1  0  0  0  0
  3 13  1  0  0  0  0
  4  5  2  0  0  0  0
  4  6  1  0  0  0  0
  4  8  1  0  0  0  0
  5 11  1  0  0  0  0
  6  7  2  0  0  0  0
  6 12  1  0  0  0  0
  7 14  1  0  0  0  0
  8  9  2  3  0  0  0
  8 15  1  0  0  0  0
  9 10  1  0  0  0  0
  9 16  1  0  0  0  0
M  END
> <PUBCHEM_COMPOUND_CID>
586239

> <PUBCHEM_COMPOUND_CANONICALIZED>
1

> <PUBCHEM_CACTVS_COMPLEXITY>
154

> <PUBCHEM_CACTVS_HBOND_ACCEPTOR>
2

> <PUBCHEM_CACTVS_HBOND_DONOR>
2

> <PUBCHEM_CACTVS_ROTATABLE_BOND>
2

> <PUBCHEM_CACTVS_SUBSKEYS>
AAADcYBiMAAAAAAAAAAAAAAAAAAAAWAAAAAAAAAAAAAAAAABgAAAHgAQCAAADADBmgQ8iJLJkgCoAjD3TACCgCAxAiAI2aA4ZNgIJMDAgYEEEAhAkADI0YYAAAAIAAAAAAAAAAAAAAAAAAAAAAAAAAAAAA==

> <PUBCHEM_IUPAC_OPENEYE_NAME>
3-(1H-pyrrol-3-yl)prop-2-enoic acid

> <PUBCHEM_IUPAC_CAS_NAME>
3-(1H-pyrrol-3-yl)-2-propenoic acid

> <PUBCHEM_IUPAC_NAME>
3-(1H-pyrrol-3-yl)prop-2-enoic acid

> <PUBCHEM_IUPAC_SYSTEMATIC_NAME>
3-(1H-pyrrol-3-yl)prop-2-enoic acid

> <PUBCHEM_IUPAC_TRADITIONAL_NAME>
3-(1H-pyrrol-3-yl)acrylic acid

> <PUBCHEM_IUPAC_INCHI>
InChI=1S/C7H7NO2/c9-7(10)2-1-6-3-4-8-5-6/h1-5,8H,(H,9,10)

> <PUBCHEM_IUPAC_INCHIKEY>
GDACOBAFWPGBOL-UHFFFAOYSA-N

> <PUBCHEM_XLOGP3_AA>
0.7

> <PUBCHEM_EXACT_MASS>
137.047678

> <PUBCHEM_MOLECULAR_FORMULA>
C7H7NO2

> <PUBCHEM_MOLECULAR_WEIGHT>
137.13598

> <PUBCHEM_OPENEYE_CAN_SMILES>
C1=CNC=C1C=CC(=O)O

> <PUBCHEM_OPENEYE_ISO_SMILES>
C1=CNC=C1C=CC(=O)O

> <PUBCHEM_CACTVS_TPSA>
53.1

> <PUBCHEM_MONOISOTOPIC_WEIGHT>
137.047678

> <PUBCHEM_TOTAL_CHARGE>
0

> <PUBCHEM_HEAVY_ATOM_COUNT>
10

> <PUBCHEM_ATOM_DEF_STEREO_COUNT>
0

> <PUBCHEM_ATOM_UDEF_STEREO_COUNT>
0

> <PUBCHEM_BOND_DEF_STEREO_COUNT>
0

> <PUBCHEM_BOND_UDEF_STEREO_COUNT>
1

> <PUBCHEM_ISOTOPIC_ATOM_COUNT>
0

> <PUBCHEM_COMPONENT_COUNT>
1

> <PUBCHEM_CACTVS_TAUTO_COUNT>
2

> <PUBCHEM_COORDINATE_TYPE>
1
5
255

> <PUBCHEM_BONDANNOTATIONS>
3  5  8
3  7  8
4  5  8
4  6  8
6  7  8
8  9  1

$$$$

