583285
  -OEChem-06241222453D

 27 27  0     0  0  0  0  0  0999 V2000
    3.1966   -0.0023   -1.8041 S   0  0  0  0  0  0  0  0  0  0  0  0
    1.3460    0.0009    0.0358 N   0  0  0  0  0  0  0  0  0  0  0  0
    2.5539    0.0009    0.7260 N   0  0  0  0  0  0  0  0  0  0  0  0
    4.9085    0.0005    0.2176 N   0  0  0  0  0  0  0  0  0  0  0  0
   -1.0137    0.0004    0.3618 C   0  0  0  0  0  0  0  0  0  0  0  0
   -1.6696    1.2080    0.1223 C   0  0  0  0  0  0  0  0  0  0  0  0
   -1.6683   -1.2081    0.1230 C   0  0  0  0  0  0  0  0  0  0  0  0
   -2.9800    1.2071   -0.3558 C   0  0  0  0  0  0  0  0  0  0  0  0
   -2.9789   -1.2088   -0.3549 C   0  0  0  0  0  0  0  0  0  0  0  0
   -3.6346   -0.0012   -0.5944 C   0  0  0  0  0  0  0  0  0  0  0  0
   -0.9949    2.5183    0.3683 C   0  0  0  0  0  0  0  0  0  0  0  0
   -0.9925   -2.5176    0.3705 C   0  0  0  0  0  0  0  0  0  0  0  0
    0.3571    0.0012    0.8619 C   0  0  0  0  0  0  0  0  0  0  0  0
    3.5707    0.0005   -0.0780 C   0  0  0  0  0  0  0  0  0  0  0  0
   -3.5058    2.1385   -0.5485 H   0  0  0  0  0  0  0  0  0  0  0  0
   -3.5039   -2.1408   -0.5468 H   0  0  0  0  0  0  0  0  0  0  0  0
   -4.6548   -0.0018   -0.9669 H   0  0  0  0  0  0  0  0  0  0  0  0
   -0.6548    2.5879    1.4070 H   0  0  0  0  0  0  0  0  0  0  0  0
   -0.1382    2.6394   -0.3027 H   0  0  0  0  0  0  0  0  0  0  0  0
   -1.6698    3.3634    0.1934 H   0  0  0  0  0  0  0  0  0  0  0  0
   -0.6536   -2.5863    1.4096 H   0  0  0  0  0  0  0  0  0  0  0  0
   -1.6663   -3.3635    0.1953 H   0  0  0  0  0  0  0  0  0  0  0  0
   -0.1350   -2.6383   -0.2995 H   0  0  0  0  0  0  0  0  0  0  0  0
    0.4872    0.0014    1.9594 H   0  0  0  0  0  0  0  0  0  0  0  0
    5.2319    0.0009    1.1789 H   0  0  0  0  0  0  0  0  0  0  0  0
    5.6155   -0.0011   -0.5091 H   0  0  0  0  0  0  0  0  0  0  0  0
    4.4587   -0.0026   -2.2558 H   0  0  0  0  0  0  0  0  0  0  0  0
  1 14  1  0  0  0  0
  1 27  1  0  0  0  0
  2  3  1  0  0  0  0
  2 13  2  0  0  0  0
  3 14  2  0  0  0  0
  4 14  1  0  0  0  0
  4 25  1  0  0  0  0
  4 26  1  0  0  0  0
  5  6  2  0  0  0  0
  5  7  1  0  0  0  0
  5 13  1  0  0  0  0
  6  8  1  0  0  0  0
  6 11  1  0  0  0  0
  7  9  2  0  0  0  0
  7 12  1  0  0  0  0
  8 10  2  0  0  0  0
  8 15  1  0  0  0  0
  9 10  1  0  0  0  0
  9 16  1  0  0  0  0
 10 17  1  0  0  0  0
 11 18  1  0  0  0  0
 11 19  1  0  0  0  0
 11 20  1  0  0  0  0
 12 21  1  0  0  0  0
 12 22  1  0  0  0  0
 12 23  1  0  0  0  0
 13 24  1  0  0  0  0
M  END
> <PUBCHEM_COMPOUND_CID>
583285

> <PUBCHEM_CONFORMER_RMSD>
0.6

> <PUBCHEM_CONFORMER_DIVERSEORDER>
1
2

> <PUBCHEM_MMFF94_PARTIAL_CHARGES>
21
1 -0.32
10 -0.15
11 0.14
12 0.14
13 0.3
14 0.64
15 0.15
16 0.15
17 0.15
2 -0.45
24 0.06
25 0.4
26 0.4
27 0.18
3 -0.45
4 -0.85
5 0.09
6 -0.14
7 -0.14
8 -0.15
9 -0.15

> <PUBCHEM_EFFECTIVE_ROTOR_COUNT>
2

> <PUBCHEM_PHARMACOPHORE_FEATURES>
5
1 2 acceptor
1 4 donor
3 1 4 14 anion
3 3 4 14 cation
6 5 6 7 8 9 10 rings

> <PUBCHEM_HEAVY_ATOM_COUNT>
14

> <PUBCHEM_ATOM_DEF_STEREO_COUNT>
0

> <PUBCHEM_ATOM_UDEF_STEREO_COUNT>
0

> <PUBCHEM_BOND_DEF_STEREO_COUNT>
0

> <PUBCHEM_BOND_UDEF_STEREO_COUNT>
2

> <PUBCHEM_ISOTOPIC_ATOM_COUNT>
0

> <PUBCHEM_COMPONENT_COUNT>
1

> <PUBCHEM_CACTVS_TAUTO_COUNT>
3

> <PUBCHEM_CONFORMER_ID>
0008E67500000001

> <PUBCHEM_MMFF94_ENERGY>
49.3517

> <PUBCHEM_FEATURE_SELFOVERLAP>
25.371

> <PUBCHEM_SHAPE_FINGERPRINT>
10465860 71 18338222795971530556
11137873 295 16661750241238459622
11578080 2 6049295719551463163
12119455 92 13901915504923995961
13024252 1 14979956969603349681
14911166 2 18338812147573924573
14993402 34 18202291298853160517
15375358 24 17967535657981248878
15775835 57 17774724250471812524
16945 1 18338816562847712547
17870717 6 18187911916034708118
187816 3 18410581682191762103
20201158 50 17821727234598748326
20279233 1 17822005411357047870
20300324 65 18409450280131340728
20645476 183 17775010076493422507
20645477 56 18411133658345811416
20645477 70 16298661810928096732
20871999 31 18411144602112106543
23402539 116 18336557074304180300
23557571 272 18187077365355955200
23559900 14 18334300877277362288
2748010 2 17908157486211641659
4175511 318 18131637793938060775
77492 1 17704077299861279754
81228 2 18261097608517658304
9709674 26 18333726931854832974

> <PUBCHEM_SHAPE_MULTIPOLES>
277.02
7.22
1.98
1.05
7.87
0
-0.4
0
-1.67
-1.83
0.3
0.78
0
0

> <PUBCHEM_SHAPE_SELFOVERLAP>
561.31

> <PUBCHEM_SHAPE_VOLUME>
164.8

> <PUBCHEM_COORDINATE_TYPE>
2
5
10

$$$$

