11768
  -OEChem-06261206053D

 27 29  0     0  0  0  0  0  0999 V2000
    2.0406   -2.5053   -0.0010 O   0  0  0  0  0  0  0  0  0  0  0  0
   -0.5311   -2.5611    0.0019 O   0  0  0  0  0  0  0  0  0  0  0  0
   -0.8026    2.7761    0.0010 O   0  0  0  0  0  0  0  0  0  0  0  0
    4.2951   -0.9900   -0.0014 O   0  0  0  0  0  0  0  0  0  0  0  0
    4.1293    1.7684   -0.0005 O   0  0  0  0  0  0  0  0  0  0  0  0
    0.6581   -0.5177    0.0004 C   0  0  0  0  0  0  0  0  0  0  0  0
    0.5796    0.8766    0.0006 C   0  0  0  0  0  0  0  0  0  0  0  0
   -1.8841   -0.6605    0.0003 C   0  0  0  0  0  0  0  0  0  0  0  0
   -1.9624    0.7337   -0.0001 C   0  0  0  0  0  0  0  0  0  0  0  0
   -0.5710   -1.3371    0.0010 C   0  0  0  0  0  0  0  0  0  0  0  0
   -0.7334    1.5532    0.0006 C   0  0  0  0  0  0  0  0  0  0  0  0
    1.9087   -1.1467   -0.0001 C   0  0  0  0  0  0  0  0  0  0  0  0
    1.7521    1.6417    0.0004 C   0  0  0  0  0  0  0  0  0  0  0  0
    3.0745   -0.3804   -0.0002 C   0  0  0  0  0  0  0  0  0  0  0  0
    2.9964    1.0108    0.0001 C   0  0  0  0  0  0  0  0  0  0  0  0
   -3.0565   -1.4258    0.0001 C   0  0  0  0  0  0  0  0  0  0  0  0
   -3.2133    1.3627   -0.0008 C   0  0  0  0  0  0  0  0  0  0  0  0
   -4.3009   -0.7949   -0.0009 C   0  0  0  0  0  0  0  0  0  0  0  0
   -4.3791    0.5963   -0.0014 C   0  0  0  0  0  0  0  0  0  0  0  0
    1.7110    2.7282    0.0003 H   0  0  0  0  0  0  0  0  0  0  0  0
   -3.0243   -2.5120    0.0004 H   0  0  0  0  0  0  0  0  0  0  0  0
   -3.3011    2.4459   -0.0011 H   0  0  0  0  0  0  0  0  0  0  0  0
   -5.2101   -1.3892   -0.0012 H   0  0  0  0  0  0  0  0  0  0  0  0
   -5.3492    1.0850   -0.0021 H   0  0  0  0  0  0  0  0  0  0  0  0
    1.1743   -2.9384   -0.0043 H   0  0  0  0  0  0  0  0  0  0  0  0
    4.1570   -1.9531   -0.0015 H   0  0  0  0  0  0  0  0  0  0  0  0
    4.8970    1.1706   -0.0009 H   0  0  0  0  0  0  0  0  0  0  0  0
  1 12  1  0  0  0  0
  1 25  1  0  0  0  0
  2 10  2  0  0  0  0
  3 11  2  0  0  0  0
  4 14  1  0  0  0  0
  4 26  1  0  0  0  0
  5 15  1  0  0  0  0
  5 27  1  0  0  0  0
  6  7  1  0  0  0  0
  6 10  1  0  0  0  0
  6 12  2  0  0  0  0
  7 11  1  0  0  0  0
  7 13  2  0  0  0  0
  8  9  1  0  0  0  0
  8 10  1  0  0  0  0
  8 16  2  0  0  0  0
  9 11  1  0  0  0  0
  9 17  2  0  0  0  0
 12 14  1  0  0  0  0
 13 15  1  0  0  0  0
 13 20  1  0  0  0  0
 14 15  2  0  0  0  0
 16 18  1  0  0  0  0
 16 21  1  0  0  0  0
 17 19  1  0  0  0  0
 17 22  1  0  0  0  0
 18 19  2  0  0  0  0
 18 23  1  0  0  0  0
 19 24  1  0  0  0  0
M  END
> <PUBCHEM_COMPOUND_CID>
11768

> <PUBCHEM_CONFORMER_RMSD>
0.4

> <PUBCHEM_CONFORMER_DIVERSEORDER>
1

> <PUBCHEM_MMFF94_PARTIAL_CHARGES>
27
1 -0.53
10 0.4
11 0.4
12 0.08
13 -0.15
14 0.08
15 0.08
16 -0.15
17 -0.15
18 -0.15
19 -0.15
2 -0.57
20 0.15
21 0.15
22 0.15
23 0.15
24 0.15
25 0.45
26 0.45
27 0.45
3 -0.57
4 -0.53
5 -0.53
6 0.09
7 0.09
8 0.09
9 0.09

> <PUBCHEM_EFFECTIVE_ROTOR_COUNT>
0

> <PUBCHEM_PHARMACOPHORE_FEATURES>
8
1 1 donor
1 2 acceptor
1 3 acceptor
1 4 donor
1 5 donor
6 6 7 12 13 14 15 rings
6 6 7 8 9 10 11 rings
6 8 9 16 17 18 19 rings

> <PUBCHEM_HEAVY_ATOM_COUNT>
19

> <PUBCHEM_ATOM_DEF_STEREO_COUNT>
0

> <PUBCHEM_ATOM_UDEF_STEREO_COUNT>
0

> <PUBCHEM_BOND_DEF_STEREO_COUNT>
0

> <PUBCHEM_BOND_UDEF_STEREO_COUNT>
0

> <PUBCHEM_ISOTOPIC_ATOM_COUNT>
0

> <PUBCHEM_COMPONENT_COUNT>
1

> <PUBCHEM_CACTVS_TAUTO_COUNT>
32

> <PUBCHEM_CONFORMER_ID>
00002DF800000001

> <PUBCHEM_MMFF94_ENERGY>
57.3549

> <PUBCHEM_FEATURE_SELFOVERLAP>
40.648

> <PUBCHEM_SHAPE_FINGERPRINT>
10062212 137 18409456886049634731
10411042 1 17834113426148943119
10608611 8 18411421725949608789
10616163 171 18408884074729891663
10967382 1 18410855451548783207
11132069 177 18408329881966717745
11471102 20 18410859845300359636
11578080 2 16842770605883689862
13132413 78 18336826394829690661
13140716 1 18339073908360635371
13221675 6 18410576171289837294
13380535 76 18411700946005179042
13862211 1 18410862070136071554
14790565 3 18195235633632694980
15196674 1 18410573972319342245
15442244 35 18194402427177446714
15536298 74 18334857216616770740
16945 1 18122625226021600679
18186145 218 18411418444578543229
193761 8 17834395996626189445
19591789 44 18410573946644919251
200 152 18113341903488198495
20510252 161 18333730221430425753
20645477 70 18334294283690556543
21029758 11 18335144146634827809
21267235 1 18410565197764830307
21421861 104 17986395700679950755
21501502 16 18337389451856412489
221490 88 18341043038811865402
2334 1 18410575059273070275
23402539 116 18334022682822332927
23463225 33 18412262843839136981
23559900 14 18263649622767174954
238 59 15757143774115482269
2748010 2 18411136935484667711
2871803 45 18412830200217897093
335352 9 18266741474796175509
34934 24 18337678520377350999
350125 39 18339359777205258772
474 4 17417244304621403404
5104073 3 18410855451548810169
537710 114 18410851032233534301
69090 78 18408325462572041999
7364860 26 18335420214084124054
8809292 202 18344141488354023299
9709674 26 18410005546240946814

> <PUBCHEM_SHAPE_MULTIPOLES>
361.66
7.43
2.52
0.59
0.44
0.1
0
-0.24
0
-0.5
0
0.05
-0.01
0

> <PUBCHEM_SHAPE_SELFOVERLAP>
824.297

> <PUBCHEM_SHAPE_VOLUME>
186.3

> <PUBCHEM_COORDINATE_TYPE>
2
5
10

$$$$

