10865
  -OEChem-06261205032D

 27 27  0     0  0  0  0  0  0999 V2000
    3.7320    0.9400    0.0000 N   0  0  0  0  0  0  0  0  0  0  0  0
    4.5981    1.4400    0.0000 N   0  0  0  0  0  0  0  0  0  0  0  0
    5.4641    2.9400    0.0000 N   0  0  0  0  0  0  0  0  0  0  0  0
    3.7320    2.9400    0.0000 N   0  0  0  0  0  0  0  0  0  0  0  0
    2.8660   -0.5600    0.0000 C   0  0  0  0  0  0  0  0  0  0  0  0
    2.8660   -1.5600    0.0000 C   0  0  0  0  0  0  0  0  0  0  0  0
    3.7320   -0.0600    0.0000 C   0  0  0  0  0  0  0  0  0  0  0  0
    2.0000   -2.0600    0.0000 C   0  0  0  0  0  0  0  0  0  0  0  0
    3.7320   -2.0600    0.0000 C   0  0  0  0  0  0  0  0  0  0  0  0
    2.0000   -3.0600    0.0000 C   0  0  0  0  0  0  0  0  0  0  0  0
    3.7320   -3.0600    0.0000 C   0  0  0  0  0  0  0  0  0  0  0  0
    2.8660   -3.5600    0.0000 C   0  0  0  0  0  0  0  0  0  0  0  0
    4.5981    2.4400    0.0000 C   0  0  0  0  0  0  0  0  0  0  0  0
    2.6540    0.0226    0.0000 H   0  0  0  0  0  0  0  0  0  0  0  0
    2.2554   -0.6677    0.0000 H   0  0  0  0  0  0  0  0  0  0  0  0
    3.9441   -0.6426    0.0000 H   0  0  0  0  0  0  0  0  0  0  0  0
    4.3426    0.0477    0.0000 H   0  0  0  0  0  0  0  0  0  0  0  0
    1.4631   -1.7500    0.0000 H   0  0  0  0  0  0  0  0  0  0  0  0
    4.2690   -1.7500    0.0000 H   0  0  0  0  0  0  0  0  0  0  0  0
    3.1951    1.2500    0.0000 H   0  0  0  0  0  0  0  0  0  0  0  0
    1.4631   -3.3700    0.0000 H   0  0  0  0  0  0  0  0  0  0  0  0
    4.2690   -3.3700    0.0000 H   0  0  0  0  0  0  0  0  0  0  0  0
    2.8660   -4.1800    0.0000 H   0  0  0  0  0  0  0  0  0  0  0  0
    5.4641    3.5600    0.0000 H   0  0  0  0  0  0  0  0  0  0  0  0
    6.0010    2.6300    0.0000 H   0  0  0  0  0  0  0  0  0  0  0  0
    3.7320    3.5600    0.0000 H   0  0  0  0  0  0  0  0  0  0  0  0
    3.1951    2.6300    0.0000 H   0  0  0  0  0  0  0  0  0  0  0  0
  1  2  1  0  0  0  0
  1  7  1  0  0  0  0
  1 20  1  0  0  0  0
  2 13  2  0  0  0  0
  3 13  1  0  0  0  0
  3 24  1  0  0  0  0
  3 25  1  0  0  0  0
  4 13  1  0  0  0  0
  4 26  1  0  0  0  0
  4 27  1  0  0  0  0
  5  6  1  0  0  0  0
  5  7  1  0  0  0  0
  5 14  1  0  0  0  0
  5 15  1  0  0  0  0
  6  8  2  0  0  0  0
  6  9  1  0  0  0  0
  7 16  1  0  0  0  0
  7 17  1  0  0  0  0
  8 10  1  0  0  0  0
  8 18  1  0  0  0  0
  9 11  2  0  0  0  0
  9 19  1  0  0  0  0
 10 12  2  0  0  0  0
 10 21  1  0  0  0  0
 11 12  1  0  0  0  0
 11 22  1  0  0  0  0
 12 23  1  0  0  0  0
M  END
> <PUBCHEM_COMPOUND_CID>
10865

> <PUBCHEM_COMPOUND_CANONICALIZED>
1

> <PUBCHEM_CACTVS_COMPLEXITY>
157

> <PUBCHEM_CACTVS_HBOND_ACCEPTOR>
2

> <PUBCHEM_CACTVS_HBOND_DONOR>
3

> <PUBCHEM_CACTVS_ROTATABLE_BOND>
4

> <PUBCHEM_CACTVS_SUBSKEYS>
AAADccBzgAAAAAAAAAAAAAAAAAAAAAAAAAAwAAAAAAAAAAABAAAAHAAYAAAADADBGAQxAIBiAACgAiBCIAASAAAgAAAYiIAAAIgIICKAkRGAIAAgkAAIiAcQgIAOAAAAAAAAAAAAAAAAAAAAAAAAAAAAAA==

> <PUBCHEM_IUPAC_OPENEYE_NAME>
2-(2-phenylethylamino)guanidine

> <PUBCHEM_IUPAC_CAS_NAME>
2-(2-phenylethylamino)guanidine

> <PUBCHEM_IUPAC_NAME>
2-(2-phenylethylamino)guanidine

> <PUBCHEM_IUPAC_SYSTEMATIC_NAME>
2-(2-phenylethylamino)guanidine

> <PUBCHEM_IUPAC_TRADITIONAL_NAME>
2-(phenethylamino)guanidine

> <PUBCHEM_IUPAC_INCHI>
InChI=1S/C9H14N4/c10-9(11)13-12-7-6-8-4-2-1-3-5-8/h1-5,12H,6-7H2,(H4,10,11,13)

> <PUBCHEM_IUPAC_INCHIKEY>
NMLWFEJUWANVHA-UHFFFAOYSA-N

> <PUBCHEM_XLOGP3_AA>
1.1

> <PUBCHEM_EXACT_MASS>
178.121846

> <PUBCHEM_MOLECULAR_FORMULA>
C9H14N4

> <PUBCHEM_MOLECULAR_WEIGHT>
178.23426

> <PUBCHEM_OPENEYE_CAN_SMILES>
C1=CC=C(C=C1)CCNN=C(N)N

> <PUBCHEM_OPENEYE_ISO_SMILES>
C1=CC=C(C=C1)CCNN=C(N)N

> <PUBCHEM_CACTVS_TPSA>
76.4

> <PUBCHEM_MONOISOTOPIC_WEIGHT>
178.121846

> <PUBCHEM_TOTAL_CHARGE>
0

> <PUBCHEM_HEAVY_ATOM_COUNT>
13

> <PUBCHEM_ATOM_DEF_STEREO_COUNT>
0

> <PUBCHEM_ATOM_UDEF_STEREO_COUNT>
0

> <PUBCHEM_BOND_DEF_STEREO_COUNT>
0

> <PUBCHEM_BOND_UDEF_STEREO_COUNT>
0

> <PUBCHEM_ISOTOPIC_ATOM_COUNT>
0

> <PUBCHEM_COMPONENT_COUNT>
1

> <PUBCHEM_CACTVS_TAUTO_COUNT>
2

> <PUBCHEM_COORDINATE_TYPE>
1
5
255

> <PUBCHEM_BONDANNOTATIONS>
10  12  8
11  12  8
6  8  8
6  9  8
8  10  8
9  11  8

$$$$

