47205222
  -OEChem-06241222583D

 33 34  0     0  0  0  0  0  0999 V2000
   -0.8795    1.4242    0.3982 O   0  0  0  0  0  0  0  0  0  0  0  0
    0.0070   -2.2240    0.7143 O   0  0  0  0  0  0  0  0  0  0  0  0
    0.4440   -0.8233   -1.0812 N   0  0  0  0  0  0  0  0  0  0  0  0
    3.3945   -1.0454    0.6001 N   0  0  0  0  0  0  0  0  0  0  0  0
    4.2631   -0.2155    1.2026 N   0  0  0  0  0  0  0  0  0  0  0  0
    1.7957   -1.2749   -1.3213 C   0  0  0  0  0  0  0  0  0  0  0  0
   -1.7200   -0.7925    0.0315 C   0  0  0  0  0  0  0  0  0  0  0  0
    2.7968   -0.5111   -0.5035 C   0  0  0  0  0  0  0  0  0  0  0  0
   -1.9304    0.5674    0.2597 C   0  0  0  0  0  0  0  0  0  0  0  0
   -0.3718   -1.3343   -0.0663 C   0  0  0  0  0  0  0  0  0  0  0  0
   -2.8089   -1.6534   -0.1048 C   0  0  0  0  0  0  0  0  0  0  0  0
   -3.2298    1.0663    0.3516 C   0  0  0  0  0  0  0  0  0  0  0  0
    3.3098    0.7565   -0.6315 C   0  0  0  0  0  0  0  0  0  0  0  0
   -4.1083   -1.1545   -0.0129 C   0  0  0  0  0  0  0  0  0  0  0  0
   -4.3188    0.2053    0.2153 C   0  0  0  0  0  0  0  0  0  0  0  0
   -1.0851    2.7728   -0.0175 C   0  0  0  0  0  0  0  0  0  0  0  0
    4.2071    0.8836    0.4457 C   0  0  0  0  0  0  0  0  0  0  0  0
    0.2345    3.3527   -0.4801 C   0  0  0  0  0  0  0  0  0  0  0  0
    2.0031   -1.1308   -2.3870 H   0  0  0  0  0  0  0  0  0  0  0  0
    1.8591   -2.3477   -1.1076 H   0  0  0  0  0  0  0  0  0  0  0  0
    0.0771   -0.0927   -1.6848 H   0  0  0  0  0  0  0  0  0  0  0  0
   -2.6595   -2.7151   -0.2842 H   0  0  0  0  0  0  0  0  0  0  0  0
   -3.4414    2.1109    0.5590 H   0  0  0  0  0  0  0  0  0  0  0  0
    3.0704    1.4837   -1.3935 H   0  0  0  0  0  0  0  0  0  0  0  0
    3.2578   -1.9660    0.9986 H   0  0  0  0  0  0  0  0  0  0  0  0
   -4.9562   -1.8250   -0.1177 H   0  0  0  0  0  0  0  0  0  0  0  0
   -5.3308    0.5920    0.2938 H   0  0  0  0  0  0  0  0  0  0  0  0
   -1.4681    3.3560    0.8271 H   0  0  0  0  0  0  0  0  0  0  0  0
   -1.7843    2.8400   -0.8604 H   0  0  0  0  0  0  0  0  0  0  0  0
    4.8222    1.7315    0.7106 H   0  0  0  0  0  0  0  0  0  0  0  0
    0.1179    4.3953   -0.7890 H   0  0  0  0  0  0  0  0  0  0  0  0
    0.6329    2.7776   -1.3226 H   0  0  0  0  0  0  0  0  0  0  0  0
    0.9802    3.3023    0.3202 H   0  0  0  0  0  0  0  0  0  0  0  0
  1  9  1  0  0  0  0
  1 16  1  0  0  0  0
  2 10  2  0  0  0  0
  3  6  1  0  0  0  0
  3 10  1  0  0  0  0
  3 21  1  0  0  0  0
  4  5  1  0  0  0  0
  4  8  1  0  0  0  0
  4 25  1  0  0  0  0
  5 17  2  0  0  0  0
  6  8  1  0  0  0  0
  6 19  1  0  0  0  0
  6 20  1  0  0  0  0
  7  9  1  0  0  0  0
  7 10  1  0  0  0  0
  7 11  2  0  0  0  0
  8 13  2  0  0  0  0
  9 12  2  0  0  0  0
 11 14  1  0  0  0  0
 11 22  1  0  0  0  0
 12 15  1  0  0  0  0
 12 23  1  0  0  0  0
 13 17  1  0  0  0  0
 13 24  1  0  0  0  0
 14 15  2  0  0  0  0
 14 26  1  0  0  0  0
 15 27  1  0  0  0  0
 16 18  1  0  0  0  0
 16 28  1  0  0  0  0
 16 29  1  0  0  0  0
 17 30  1  0  0  0  0
 18 31  1  0  0  0  0
 18 32  1  0  0  0  0
 18 33  1  0  0  0  0
M  END
> <PUBCHEM_COMPOUND_CID>
47205222

> <PUBCHEM_CONFORMER_RMSD>
0.8

> <PUBCHEM_CONFORMER_DIVERSEORDER>
3
33
40
87
29
74
53
11
27
44
57
43
13
31
48
37
77
23
18
2
85
55
34
82
50
46
80
32
61
14
47
64
79
49
38
21
25
86
56
91
70
1
35
75
42
12
67
52
7
71
83
84
58
16
89
19
22
90
8
78
72
39
54
81
9
36
41
17
88
73
15
20
63
28
60
4
45
69
26
10
51
65
6
68
24
66
62
30
5
76
59

> <PUBCHEM_MMFF94_PARTIAL_CHARGES>
25
1 -0.36
10 0.54
11 -0.15
12 -0.15
13 -0.15
14 -0.15
15 -0.15
16 0.28
17 0.14
2 -0.57
21 0.37
22 0.15
23 0.15
24 0.15
25 0.27
26 0.15
27 0.15
3 -0.73
30 0.15
4 0.3
5 -0.71
6 0.48
7 0.09
8 -0.33
9 0.08

> <PUBCHEM_EFFECTIVE_ROTOR_COUNT>
6

> <PUBCHEM_PHARMACOPHORE_FEATURES>
7
1 1 acceptor
1 2 acceptor
1 3 donor
1 4 donor
1 5 acceptor
5 4 5 8 13 17 rings
6 7 9 11 12 14 15 rings

> <PUBCHEM_HEAVY_ATOM_COUNT>
18

> <PUBCHEM_ATOM_DEF_STEREO_COUNT>
0

> <PUBCHEM_ATOM_UDEF_STEREO_COUNT>
0

> <PUBCHEM_BOND_DEF_STEREO_COUNT>
0

> <PUBCHEM_BOND_UDEF_STEREO_COUNT>
0

> <PUBCHEM_ISOTOPIC_ATOM_COUNT>
0

> <PUBCHEM_COMPONENT_COUNT>
1

> <PUBCHEM_CACTVS_TAUTO_COUNT>
4

> <PUBCHEM_CONFORMER_ID>
02D04B6600000003

> <PUBCHEM_MMFF94_ENERGY>
39.6274

> <PUBCHEM_FEATURE_SELFOVERLAP>
35.52

> <PUBCHEM_SHAPE_MULTIPOLES>
343.75
8.06
2.77
0.94
2.49
2.38
-0.07
-0.95
1.55
-0.6
-0.26
0.7
-0.18
-0.09

> <PUBCHEM_SHAPE_SELFOVERLAP>
724.595

> <PUBCHEM_SHAPE_VOLUME>
193.4

> <PUBCHEM_COORDINATE_TYPE>
2
5
10

$$$$

