3645
  -OEChem-06251223332D

 61 64  0     1  0  0  0  0  0999 V2000
   11.7851    1.1720    0.0000 P   0  0  0  0  0  0  0  0  0  0  0  0
    8.0319    1.7674    0.0000 O   0  0  0  0  0  0  0  0  0  0  0  0
    4.7950    1.0111    0.0000 O   0  0  0  0  0  0  0  0  0  0  0  0
    9.0465    2.3969    0.0000 O   0  0  0  0  0  0  0  0  0  0  0  0
   10.8722    1.5803    0.0000 O   0  0  0  0  0  0  0  0  0  0  0  0
    2.0000   -2.5412    0.0000 O   0  0  0  0  0  0  0  0  0  0  0  0
   12.6979    0.7637    0.0000 O   0  0  0  0  0  0  0  0  0  0  0  0
   12.1934    2.0848    0.0000 O   0  0  0  0  0  0  0  0  0  0  0  0
   11.3767    0.2591    0.0000 O   0  0  0  0  0  0  0  0  0  0  0  0
    7.3931    0.5111    0.0000 C   0  0  3  0  0  0  0  0  0  0  0  0
    7.3931   -0.4889    0.0000 C   0  0  3  0  0  0  0  0  0  0  0  0
    6.5271   -0.9889    0.0000 C   0  0  3  0  0  0  0  0  0  0  0  0
    5.6610   -0.4889    0.0000 C   0  0  3  0  0  0  0  0  0  0  0  0
    8.3393    0.8159    0.0000 C   0  0  3  0  0  0  0  0  0  0  0  0
    6.5271    1.0111    0.0000 C   0  0  0  0  0  0  0  0  0  0  0  0
    4.7510   -0.9957    0.0000 C   0  0  3  0  0  0  0  0  0  0  0  0
    5.6610    0.5111    0.0000 C   0  0  3  0  0  0  0  0  0  0  0  0
    8.3393   -0.7936    0.0000 C   0  0  0  0  0  0  0  0  0  0  0  0
    8.9229    0.0111    0.0000 C   0  0  0  0  0  0  0  0  0  0  0  0
    6.5431   -2.0304    0.0000 C   0  0  0  0  0  0  0  0  0  0  0  0
    7.3931    1.5111    0.0000 C   0  0  0  0  0  0  0  0  0  0  0  0
    4.7430   -2.0373    0.0000 C   0  0  0  0  0  0  0  0  0  0  0  0
    5.6451   -2.5581    0.0000 C   0  0  0  0  0  0  0  0  0  0  0  0
    3.8242   -0.4316    0.0000 C   0  0  0  0  0  0  0  0  0  0  0  0
    4.7587    0.0042    0.0000 C   0  0  0  0  0  0  0  0  0  0  0  0
    9.1493    1.4022    0.0000 C   0  0  0  0  0  0  0  0  0  0  0  0
    2.8763   -0.9596    0.0000 C   0  0  0  0  0  0  0  0  0  0  0  0
    3.8076   -2.5870    0.0000 C   0  0  0  0  0  0  0  0  0  0  0  0
    2.8680   -2.0446    0.0000 C   0  0  0  0  0  0  0  0  0  0  0  0
   10.0622    0.9939    0.0000 C   0  0  0  0  0  0  0  0  0  0  0  0
    7.4587   -1.1054    0.0000 H   0  0  0  0  0  0  0  0  0  0  0  0
    7.0664   -1.2947    0.0000 H   0  0  0  0  0  0  0  0  0  0  0  0
    6.1980   -0.1789    0.0000 H   0  0  0  0  0  0  0  0  0  0  0  0
    6.9256    1.4861    0.0000 H   0  0  0  0  0  0  0  0  0  0  0  0
    6.1285    1.4861    0.0000 H   0  0  0  0  0  0  0  0  0  0  0  0
    5.6610    1.1311    0.0000 H   0  0  0  0  0  0  0  0  0  0  0  0
    8.0883   -1.3605    0.0000 H   0  0  0  0  0  0  0  0  0  0  0  0
    8.8767   -1.1028    0.0000 H   0  0  0  0  0  0  0  0  0  0  0  0
    9.3838   -0.4036    0.0000 H   0  0  0  0  0  0  0  0  0  0  0  0
    9.3838    0.4258    0.0000 H   0  0  0  0  0  0  0  0  0  0  0  0
    6.7612   -2.6108    0.0000 H   0  0  0  0  0  0  0  0  0  0  0  0
    7.1523   -1.9149    0.0000 H   0  0  0  0  0  0  0  0  0  0  0  0
    8.0131    1.5111    0.0000 H   0  0  0  0  0  0  0  0  0  0  0  0
    7.3931    2.1311    0.0000 H   0  0  0  0  0  0  0  0  0  0  0  0
    6.7731    1.5111    0.0000 H   0  0  0  0  0  0  0  0  0  0  0  0
    5.2478   -3.0341    0.0000 H   0  0  0  0  0  0  0  0  0  0  0  0
    6.0460   -3.0310    0.0000 H   0  0  0  0  0  0  0  0  0  0  0  0
    4.2324    0.0350    0.0000 H   0  0  0  0  0  0  0  0  0  0  0  0
    3.4343    0.0504    0.0000 H   0  0  0  0  0  0  0  0  0  0  0  0
    5.3787   -0.0005    0.0000 H   0  0  0  0  0  0  0  0  0  0  0  0
    4.7635    0.6242    0.0000 H   0  0  0  0  0  0  0  0  0  0  0  0
    4.1388    0.0090    0.0000 H   0  0  0  0  0  0  0  0  0  0  0  0
    8.4476    2.2275    0.0000 H   0  0  0  0  0  0  0  0  0  0  0  0
    2.6718   -0.3743    0.0000 H   0  0  0  0  0  0  0  0  0  0  0  0
    2.2647   -1.0610    0.0000 H   0  0  0  0  0  0  0  0  0  0  0  0
    4.7950    1.6311    0.0000 H   0  0  0  0  0  0  0  0  0  0  0  0
    3.8100   -3.2070    0.0000 H   0  0  0  0  0  0  0  0  0  0  0  0
    9.7146    0.4805    0.0000 H   0  0  0  0  0  0  0  0  0  0  0  0
   10.5074    0.5625    0.0000 H   0  0  0  0  0  0  0  0  0  0  0  0
   11.8298    2.5870    0.0000 H   0  0  0  0  0  0  0  0  0  0  0  0
   13.2001    1.1272    0.0000 H   0  0  0  0  0  0  0  0  0  0  0  0
  1  5  1  0  0  0  0
  1  7  1  0  0  0  0
  1  8  1  0  0  0  0
  1  9  2  0  0  0  0
  2 14  1  0  0  0  0
  2 53  1  0  0  0  0
  3 17  1  0  0  0  0
  3 56  1  0  0  0  0
  4 26  2  0  0  0  0
  5 30  1  0  0  0  0
  6 29  2  0  0  0  0
  7 61  1  0  0  0  0
  8 60  1  0  0  0  0
 10 11  1  0  0  0  0
 10 14  1  0  0  0  0
 10 15  1  0  0  0  0
 10 21  1  0  0  0  0
 11 12  1  0  0  0  0
 11 18  1  0  0  0  0
 11 31  1  0  0  0  0
 12 13  1  0  0  0  0
 12 20  1  0  0  0  0
 12 32  1  0  0  0  0
 13 16  1  0  0  0  0
 13 17  1  0  0  0  0
 13 33  1  0  0  0  0
 14 19  1  0  0  0  0
 14 26  1  0  0  0  0
 15 17  1  0  0  0  0
 15 34  1  0  0  0  0
 15 35  1  0  0  0  0
 16 22  1  0  0  0  0
 16 24  1  0  0  0  0
 16 25  1  0  0  0  0
 17 36  1  0  0  0  0
 18 19  1  0  0  0  0
 18 37  1  0  0  0  0
 18 38  1  0  0  0  0
 19 39  1  0  0  0  0
 19 40  1  0  0  0  0
 20 23  1  0  0  0  0
 20 41  1  0  0  0  0
 20 42  1  0  0  0  0
 21 43  1  0  0  0  0
 21 44  1  0  0  0  0
 21 45  1  0  0  0  0
 22 23  1  0  0  0  0
 22 28  2  0  0  0  0
 23 46  1  0  0  0  0
 23 47  1  0  0  0  0
 24 27  1  0  0  0  0
 24 48  1  0  0  0  0
 24 49  1  0  0  0  0
 25 50  1  0  0  0  0
 25 51  1  0  0  0  0
 25 52  1  0  0  0  0
 26 30  1  0  0  0  0
 27 29  1  0  0  0  0
 27 54  1  0  0  0  0
 27 55  1  0  0  0  0
 28 29  1  0  0  0  0
 28 57  1  0  0  0  0
 30 58  1  0  0  0  0
 30 59  1  0  0  0  0
M  END
> <PUBCHEM_COMPOUND_CID>
3645

> <PUBCHEM_COMPOUND_CANONICALIZED>
1

> <PUBCHEM_CACTVS_COMPLEXITY>
848

> <PUBCHEM_CACTVS_HBOND_ACCEPTOR>
8

> <PUBCHEM_CACTVS_HBOND_DONOR>
4

> <PUBCHEM_CACTVS_ROTATABLE_BOND>
4

> <PUBCHEM_CACTVS_SUBSKEYS>
AAADceB4PAIAAAAAAAAAAAAAAAAAAYAAAAAwYIAAAAAAAGDAAAAAGgAACCAAD1SggAICAAAAAxCIQqBSAIIAAAAgAAAACAFAAEgAEBIAAQAAQAAFgAAIAQPIzPDPgAAAAAAAAADAAAYAADAAAYAADAAAAA==

> <PUBCHEM_IUPAC_OPENEYE_NAME>
[2-(11,17-dihydroxy-10,13-dimethyl-3-oxo-2,6,7,8,9,11,12,14,15,16-decahydro-1H-cyclopenta[a]phenanthren-17-yl)-2-oxo-ethyl] dihydrogen phosphate

> <PUBCHEM_IUPAC_CAS_NAME>
[2-(11,17-dihydroxy-10,13-dimethyl-3-oxo-2,6,7,8,9,11,12,14,15,16-decahydro-1H-cyclopenta[a]phenanthren-17-yl)-2-oxoethyl] dihydrogen phosphate

> <PUBCHEM_IUPAC_NAME>
[2-(11,17-dihydroxy-10,13-dimethyl-3-oxo-2,6,7,8,9,11,12,14,15,16-decahydro-1H-cyclopenta[a]phenanthren-17-yl)-2-oxoethyl] dihydrogen phosphate

> <PUBCHEM_IUPAC_SYSTEMATIC_NAME>
[2-[10,13-dimethyl-11,17-bis(oxidanyl)-3-oxidanylidene-2,6,7,8,9,11,12,14,15,16-decahydro-1H-cyclopenta[a]phenanthren-17-yl]-2-oxidanylidene-ethyl] dihydrogen phosphate

> <PUBCHEM_IUPAC_TRADITIONAL_NAME>
[2-(11,17-dihydroxy-3-keto-10,13-dimethyl-2,6,7,8,9,11,12,14,15,16-decahydro-1H-cyclopenta[a]phenanthren-17-yl)-2-keto-ethyl] dihydrogen phosphate

> <PUBCHEM_IUPAC_INCHI>
InChI=1S/C21H31O8P/c1-19-7-5-13(22)9-12(19)3-4-14-15-6-8-21(25,17(24)11-29-30(26,27)28)20(15,2)10-16(23)18(14)19/h9,14-16,18,23,25H,3-8,10-11H2,1-2H3,(H2,26,27,28)

> <PUBCHEM_IUPAC_INCHIKEY>
BGSOJVFOEQLVMH-UHFFFAOYSA-N

> <PUBCHEM_XLOGP3>
0

> <PUBCHEM_EXACT_MASS>
442.175655

> <PUBCHEM_MOLECULAR_FORMULA>
C21H31O8P

> <PUBCHEM_MOLECULAR_WEIGHT>
442.439802

> <PUBCHEM_OPENEYE_CAN_SMILES>
CC12CCC(=O)C=C1CCC3C2C(CC4(C3CCC4(C(=O)COP(=O)(O)O)O)C)O

> <PUBCHEM_OPENEYE_ISO_SMILES>
CC12CCC(=O)C=C1CCC3C2C(CC4(C3CCC4(C(=O)COP(=O)(O)O)O)C)O

> <PUBCHEM_CACTVS_TPSA>
141

> <PUBCHEM_MONOISOTOPIC_WEIGHT>
442.175655

> <PUBCHEM_TOTAL_CHARGE>
0

> <PUBCHEM_HEAVY_ATOM_COUNT>
30

> <PUBCHEM_ATOM_DEF_STEREO_COUNT>
0

> <PUBCHEM_ATOM_UDEF_STEREO_COUNT>
7

> <PUBCHEM_BOND_DEF_STEREO_COUNT>
0

> <PUBCHEM_BOND_UDEF_STEREO_COUNT>
0

> <PUBCHEM_ISOTOPIC_ATOM_COUNT>
0

> <PUBCHEM_COMPONENT_COUNT>
1

> <PUBCHEM_CACTVS_TAUTO_COUNT>
10

> <PUBCHEM_COORDINATE_TYPE>
1
5
255

> <PUBCHEM_BONDANNOTATIONS>
10  21  3
11  18  3
12  20  3
13  17  3
16  25  3
14  2  3
17  3  3

$$$$

