12935
  -OEChem-06261207333D

 54 56  0     0  0  0  0  0  0999 V2000
    0.2281    1.8587   -1.1874 O   0  0  0  0  0  0  0  0  0  0  0  0
   -2.2569   -1.0645    1.4450 O   0  0  0  0  0  0  0  0  0  0  0  0
    2.3047   -1.4055    1.3999 O   0  0  0  0  0  0  0  0  0  0  0  0
   -1.0694    0.3660    0.0324 N   0  0  0  0  0  0  0  0  0  0  0  0
    1.3126    0.1962    0.0199 N   0  0  0  0  0  0  0  0  0  0  0  0
   -2.2503    1.1337   -0.2810 C   0  0  0  0  0  0  0  0  0  0  0  0
    2.5849    0.7916   -0.3105 C   0  0  0  0  0  0  0  0  0  0  0  0
   -3.2645    0.2798   -1.0465 C   0  0  0  0  0  0  0  0  0  0  0  0
   -2.8638    1.7185    0.9935 C   0  0  0  0  0  0  0  0  0  0  0  0
    3.3023    1.2734    0.9532 C   0  0  0  0  0  0  0  0  0  0  0  0
    3.4493   -0.1940   -1.1004 C   0  0  0  0  0  0  0  0  0  0  0  0
   -4.5449    1.0570   -1.3411 C   0  0  0  0  0  0  0  0  0  0  0  0
   -4.1457    2.4926    0.6969 C   0  0  0  0  0  0  0  0  0  0  0  0
    4.6752    1.8580    0.6318 C   0  0  0  0  0  0  0  0  0  0  0  0
    4.8228    0.3915   -1.4181 C   0  0  0  0  0  0  0  0  0  0  0  0
   -0.0117   -1.6478    0.9214 C   0  0  0  0  0  0  0  0  0  0  0  0
   -5.1537    1.6408   -0.0694 C   0  0  0  0  0  0  0  0  0  0  0  0
    5.5345    0.8746   -0.1575 C   0  0  0  0  0  0  0  0  0  0  0  0
    0.1608    0.8703   -0.4483 C   0  0  0  0  0  0  0  0  0  0  0  0
   -1.2212   -0.7556    0.8538 C   0  0  0  0  0  0  0  0  0  0  0  0
    1.3143   -0.9419    0.8326 C   0  0  0  0  0  0  0  0  0  0  0  0
   -0.0976   -2.6907   -0.1906 C   0  0  0  0  0  0  0  0  0  0  0  0
   -1.3686   -3.5237   -0.0690 C   0  0  0  0  0  0  0  0  0  0  0  0
   -1.4412   -4.5791   -1.1607 C   0  0  0  0  0  0  0  0  0  0  0  0
   -1.9953    1.9803   -0.9297 H   0  0  0  0  0  0  0  0  0  0  0  0
    2.4429    1.6711   -0.9498 H   0  0  0  0  0  0  0  0  0  0  0  0
   -3.5430   -0.6271   -0.5005 H   0  0  0  0  0  0  0  0  0  0  0  0
   -2.8221   -0.0603   -1.9915 H   0  0  0  0  0  0  0  0  0  0  0  0
   -2.1412    2.3914    1.4727 H   0  0  0  0  0  0  0  0  0  0  0  0
   -3.1137    0.9662    1.7449 H   0  0  0  0  0  0  0  0  0  0  0  0
    3.4559    0.4859    1.6947 H   0  0  0  0  0  0  0  0  0  0  0  0
    2.6935    2.0389    1.4509 H   0  0  0  0  0  0  0  0  0  0  0  0
    2.9443   -0.4586   -2.0380 H   0  0  0  0  0  0  0  0  0  0  0  0
    3.6035   -1.1365   -0.5652 H   0  0  0  0  0  0  0  0  0  0  0  0
   -5.2722    0.3992   -1.8304 H   0  0  0  0  0  0  0  0  0  0  0  0
   -4.3250    1.8683   -2.0460 H   0  0  0  0  0  0  0  0  0  0  0  0
   -3.9034    3.3867    0.1093 H   0  0  0  0  0  0  0  0  0  0  0  0
   -4.5933    2.8411    1.6347 H   0  0  0  0  0  0  0  0  0  0  0  0
    5.1872    2.1333    1.5609 H   0  0  0  0  0  0  0  0  0  0  0  0
    4.5517    2.7810    0.0517 H   0  0  0  0  0  0  0  0  0  0  0  0
    4.7089    1.2301   -2.1162 H   0  0  0  0  0  0  0  0  0  0  0  0
    5.4377   -0.3615   -1.9238 H   0  0  0  0  0  0  0  0  0  0  0  0
   -0.0363   -2.1404    1.9029 H   0  0  0  0  0  0  0  0  0  0  0  0
   -6.0303    2.2468   -0.3245 H   0  0  0  0  0  0  0  0  0  0  0  0
   -5.5049    0.8248    0.5743 H   0  0  0  0  0  0  0  0  0  0  0  0
    6.4839    1.3498   -0.4291 H   0  0  0  0  0  0  0  0  0  0  0  0
    5.7777    0.0129    0.4763 H   0  0  0  0  0  0  0  0  0  0  0  0
    0.7795   -3.3493   -0.1485 H   0  0  0  0  0  0  0  0  0  0  0  0
   -0.0723   -2.2052   -1.1752 H   0  0  0  0  0  0  0  0  0  0  0  0
   -2.2647   -2.9043   -0.1679 H   0  0  0  0  0  0  0  0  0  0  0  0
   -1.4088   -4.0133    0.9108 H   0  0  0  0  0  0  0  0  0  0  0  0
   -1.4418   -4.1182   -2.1537 H   0  0  0  0  0  0  0  0  0  0  0  0
   -0.5904   -5.2652   -1.1006 H   0  0  0  0  0  0  0  0  0  0  0  0
   -2.3585   -5.1676   -1.0593 H   0  0  0  0  0  0  0  0  0  0  0  0
  1 19  2  0  0  0  0
  2 20  2  0  0  0  0
  3 21  2  0  0  0  0
  4  6  1  0  0  0  0
  4 19  1  0  0  0  0
  4 20  1  0  0  0  0
  5  7  1  0  0  0  0
  5 19  1  0  0  0  0
  5 21  1  0  0  0  0
  6  8  1  0  0  0  0
  6  9  1  0  0  0  0
  6 25  1  0  0  0  0
  7 10  1  0  0  0  0
  7 11  1  0  0  0  0
  7 26  1  0  0  0  0
  8 12  1  0  0  0  0
  8 27  1  0  0  0  0
  8 28  1  0  0  0  0
  9 13  1  0  0  0  0
  9 29  1  0  0  0  0
  9 30  1  0  0  0  0
 10 14  1  0  0  0  0
 10 31  1  0  0  0  0
 10 32  1  0  0  0  0
 11 15  1  0  0  0  0
 11 33  1  0  0  0  0
 11 34  1  0  0  0  0
 12 17  1  0  0  0  0
 12 35  1  0  0  0  0
 12 36  1  0  0  0  0
 13 17  1  0  0  0  0
 13 37  1  0  0  0  0
 13 38  1  0  0  0  0
 14 18  1  0  0  0  0
 14 39  1  0  0  0  0
 14 40  1  0  0  0  0
 15 18  1  0  0  0  0
 15 41  1  0  0  0  0
 15 42  1  0  0  0  0
 16 20  1  0  0  0  0
 16 21  1  0  0  0  0
 16 22  1  0  0  0  0
 16 43  1  0  0  0  0
 17 44  1  0  0  0  0
 17 45  1  0  0  0  0
 18 46  1  0  0  0  0
 18 47  1  0  0  0  0
 22 23  1  0  0  0  0
 22 48  1  0  0  0  0
 22 49  1  0  0  0  0
 23 24  1  0  0  0  0
 23 50  1  0  0  0  0
 23 51  1  0  0  0  0
 24 52  1  0  0  0  0
 24 53  1  0  0  0  0
 24 54  1  0  0  0  0
M  END
> <PUBCHEM_COMPOUND_CID>
12935

> <PUBCHEM_CONFORMER_RMSD>
0.8

> <PUBCHEM_CONFORMER_DIVERSEORDER>
1
5
8
4
9
14
10
6
2
12
13
7
3
11

> <PUBCHEM_MMFF94_PARTIAL_CHARGES>
11
1 -0.57
16 0.12
19 0.69
2 -0.57
20 0.57
21 0.57
3 -0.57
4 -0.42
5 -0.42
6 0.3
7 0.3

> <PUBCHEM_EFFECTIVE_ROTOR_COUNT>
7

> <PUBCHEM_PHARMACOPHORE_FEATURES>
8
1 1 acceptor
1 16 anion
1 2 acceptor
1 24 hydrophobe
1 3 acceptor
6 4 5 16 19 20 21 rings
6 6 8 9 12 13 17 rings
6 7 10 11 14 15 18 rings

> <PUBCHEM_HEAVY_ATOM_COUNT>
24

> <PUBCHEM_ATOM_DEF_STEREO_COUNT>
0

> <PUBCHEM_ATOM_UDEF_STEREO_COUNT>
0

> <PUBCHEM_BOND_DEF_STEREO_COUNT>
0

> <PUBCHEM_BOND_UDEF_STEREO_COUNT>
0

> <PUBCHEM_ISOTOPIC_ATOM_COUNT>
0

> <PUBCHEM_COMPONENT_COUNT>
1

> <PUBCHEM_CACTVS_TAUTO_COUNT>
1

> <PUBCHEM_CONFORMER_ID>
0000328700000001

> <PUBCHEM_MMFF94_ENERGY>
40.861

> <PUBCHEM_FEATURE_SELFOVERLAP>
40.594

> <PUBCHEM_SHAPE_FINGERPRINT>
11578080 2 17608372341799188793
12236239 1 18334861675378925741
12293681 4 18113333103290672256
12643181 29 18410003365605453110
12788726 201 17837772223131035606
12969540 114 18341059587400011045
13140716 1 18200876300097078955
13583140 156 17386566822347340384
14790565 3 18337951315173045505
15664445 248 17176573621582902967
1601671 61 17917988399637367892
17492 54 18058752242349562559
17539 30 18046350734203425551
200 152 6483352205354700637
20602899 9 18040711480793104227
20739085 24 17842264045805418173
21033648 29 18261112954372640185
21344244 181 18040709273417447703
21524375 3 18272092746227777234
22182313 1 18268685325476368827
2255824 54 17975418228597717071
22620623 9 18191015716958657366
23557571 272 18118127965697621362
23558518 356 17982732965713513324
23559900 14 17832717046992675187
23566358 27 17901946667186104423
25147074 1 18058750043141937482
2748010 2 18271791467215075259
283562 15 17909840838181918930
34934 24 17917715699336468776
350125 39 17986375721019798121
38695281 34 18338800121459748175
474 4 18267870669328075433
53917941 68 18269008521722675503
633830 44 18114466768107963117
7164475 11 17978226058987439134
81228 2 17982450399683059018
8863177 126 5399643940516356749
9862522 239 17774735215512958516

> <PUBCHEM_SHAPE_MULTIPOLES>
466.34
9.88
3.75
1.34
4.72
5.57
0.06
-8.62
1.83
-3.27
0.43
0.04
0.09
-0.2

> <PUBCHEM_SHAPE_SELFOVERLAP>
967.414

> <PUBCHEM_SHAPE_VOLUME>
260

> <PUBCHEM_COORDINATE_TYPE>
2
5
10

$$$$

