11043
  -OEChem-06261205153D

 22 23  0     0  0  0  0  0  0999 V2000
   -1.9251   -3.7831   -0.0024 I   0  0  0  0  0  0  0  0  0  0  0  0
    2.6137   -0.3977   -0.0801 S   0  0  0  0  0  0  0  0  0  0  0  0
    3.0398    0.1532    1.3961 O   0  0  0  0  0  0  0  0  0  0  0  0
   -3.2688   -0.8379    0.0377 O   0  0  0  0  0  0  0  0  0  0  0  0
    3.1062   -1.7596   -0.1904 O   0  0  0  0  0  0  0  0  0  0  0  0
    2.9667    0.6093   -1.0641 O   0  0  0  0  0  0  0  0  0  0  0  0
   -2.1591    1.6416    0.0255 N   0  0  0  0  0  0  0  0  0  0  0  0
    0.0500    0.6799   -0.0239 C   0  0  0  0  0  0  0  0  0  0  0  0
    0.8587   -0.4691   -0.0450 C   0  0  0  0  0  0  0  0  0  0  0  0
   -1.3554    0.5614    0.0046 C   0  0  0  0  0  0  0  0  0  0  0  0
    0.2825   -1.7361   -0.0380 C   0  0  0  0  0  0  0  0  0  0  0  0
   -1.9048   -0.7176    0.0112 C   0  0  0  0  0  0  0  0  0  0  0  0
    0.6036    1.9673   -0.0305 C   0  0  0  0  0  0  0  0  0  0  0  0
   -1.1010   -1.8601   -0.0099 C   0  0  0  0  0  0  0  0  0  0  0  0
   -0.2220    3.0822   -0.0091 C   0  0  0  0  0  0  0  0  0  0  0  0
   -1.5849    2.8664    0.0183 C   0  0  0  0  0  0  0  0  0  0  0  0
    0.8945   -2.6332   -0.0510 H   0  0  0  0  0  0  0  0  0  0  0  0
    1.6666    2.1693   -0.0035 H   0  0  0  0  0  0  0  0  0  0  0  0
    0.1883    4.0852   -0.0026 H   0  0  0  0  0  0  0  0  0  0  0  0
   -2.2795    3.6998    0.0388 H   0  0  0  0  0  0  0  0  0  0  0  0
    2.7783   -0.4208    2.1540 H   0  0  0  0  0  0  0  0  0  0  0  0
   -3.4931   -1.7843    0.0386 H   0  0  0  0  0  0  0  0  0  0  0  0
  1 14  1  0  0  0  0
  2  3  1  0  0  0  0
  2  5  2  0  0  0  0
  2  6  2  0  0  0  0
  2  9  1  0  0  0  0
  3 21  1  0  0  0  0
  4 12  1  0  0  0  0
  4 22  1  0  0  0  0
  7 10  1  0  0  0  0
  7 16  2  0  0  0  0
  8  9  1  0  0  0  0
  8 10  2  0  0  0  0
  8 13  1  0  0  0  0
  9 11  2  0  0  0  0
 10 12  1  0  0  0  0
 11 14  1  0  0  0  0
 11 17  1  0  0  0  0
 12 14  2  0  0  0  0
 13 15  2  0  0  0  0
 13 18  1  0  0  0  0
 15 16  1  0  0  0  0
 15 19  1  0  0  0  0
 16 20  1  0  0  0  0
M  END
> <PUBCHEM_COMPOUND_CID>
11043

> <PUBCHEM_CONFORMER_RMSD>
0.6

> <PUBCHEM_CONFORMER_DIVERSEORDER>
1

> <PUBCHEM_MMFF94_PARTIAL_CHARGES>
21
1 -0.08
10 0.31
11 -0.15
12 0.08
13 -0.15
14 0.08
15 -0.15
16 0.16
17 0.15
18 0.15
19 0.15
2 1.49
20 0.15
21 0.5
22 0.45
3 -0.68
4 -0.53
5 -0.65
6 -0.65
7 -0.62
9 -0.01

> <PUBCHEM_EFFECTIVE_ROTOR_COUNT>
1

> <PUBCHEM_PHARMACOPHORE_FEATURES>
9
1 1 hydrophobe
1 3 acceptor
1 4 donor
1 5 acceptor
1 6 acceptor
1 7 acceptor
4 2 3 5 6 anion
6 7 8 10 13 15 16 rings
6 8 9 10 11 12 14 rings

> <PUBCHEM_HEAVY_ATOM_COUNT>
16

> <PUBCHEM_ATOM_DEF_STEREO_COUNT>
0

> <PUBCHEM_ATOM_UDEF_STEREO_COUNT>
0

> <PUBCHEM_BOND_DEF_STEREO_COUNT>
0

> <PUBCHEM_BOND_UDEF_STEREO_COUNT>
0

> <PUBCHEM_ISOTOPIC_ATOM_COUNT>
0

> <PUBCHEM_COMPONENT_COUNT>
1

> <PUBCHEM_CACTVS_TAUTO_COUNT>
3

> <PUBCHEM_CONFORMER_ID>
00002B2300000001

> <PUBCHEM_MMFF94_ENERGY>
40.9759

> <PUBCHEM_FEATURE_SELFOVERLAP>
45.757

> <PUBCHEM_SHAPE_FINGERPRINT>
10411042 1 18122623847401298638
10967382 1 18338514114981426863
11578080 2 17055035478753635860
11680986 33 17975979765411413411
12553582 1 18267017258862623471
13140716 1 18121782729510900403
13380535 76 17762903568549596303
14790565 3 18266436824546005873
15042514 8 18411979178192365298
16945 1 18338235968504195783
193761 8 17906169547423642239
19591789 44 18121207938522593187
20510252 161 18334578000740188616
20645477 70 17185885986996721255
21524375 3 17829333832059274981
21650355 55 18196116398617955962
22802520 49 17970341727387322430
2334 1 17762056532427288247
23388829 49 17252042531844090158
23402539 116 18262252087342519295
23419403 2 17191838850185474294
23526114 1 17762051038926499670
23557571 272 18259979380081366756
23559900 14 17899979632732246814
257057 1 18194694665268445423
2748010 2 18194113242961202095
3071541 250 17761761875969197023
33824 294 16682319513950669243
352729 6 18123468551339897603
43471831 8 17836084846418128587
458136 41 17543890756459975601
54173680 148 18411135835867960518
7364860 26 17472131774376070575
81228 2 18408610244631346835
8272917 22 17184461019927019527

> <PUBCHEM_SHAPE_MULTIPOLES>
316.6
4.58
3.95
0.76
4.99
0.05
0.07
1.03
-0.01
-2.55
0.04
-0.24
0.33
-0.06

> <PUBCHEM_SHAPE_SELFOVERLAP>
659.501

> <PUBCHEM_SHAPE_VOLUME>
184.1

> <PUBCHEM_COORDINATE_TYPE>
2
5
10

$$$$

