9130
  -OEChem-06261203262D

 44 50  0     0  0  0  0  0  0999 V2000
    4.6153   -2.6686    0.0000 C   0  0  0  0  0  0  0  0  0  0  0  0
    3.7493   -2.1686    0.0000 C   0  0  0  0  0  0  0  0  0  0  0  0
    5.4814   -1.1686    0.0000 C   0  0  0  0  0  0  0  0  0  0  0  0
    4.6153   -0.6686    0.0000 C   0  0  0  0  0  0  0  0  0  0  0  0
    5.4814   -2.1686    0.0000 C   0  0  0  0  0  0  0  0  0  0  0  0
    3.7493   -1.1686    0.0000 C   0  0  0  0  0  0  0  0  0  0  0  0
    2.8393   -2.6755    0.0000 C   0  0  0  0  0  0  0  0  0  0  0  0
    4.6314   -3.7101    0.0000 C   0  0  0  0  0  0  0  0  0  0  0  0
    4.5993    0.3729    0.0000 C   0  0  0  0  0  0  0  0  0  0  0  0
    6.3914   -0.6618    0.0000 C   0  0  0  0  0  0  0  0  0  0  0  0
    6.3994    0.3798    0.0000 C   0  0  0  0  0  0  0  0  0  0  0  0
    5.4973    0.9006    0.0000 C   0  0  0  0  0  0  0  0  0  0  0  0
    2.8911   -0.6717    0.0000 C   0  0  0  0  0  0  0  0  0  0  0  0
    6.3408   -2.6634    0.0000 C   0  0  0  0  0  0  0  0  0  0  0  0
    2.8313   -3.7171    0.0000 C   0  0  0  0  0  0  0  0  0  0  0  0
    3.7334   -4.2379    0.0000 C   0  0  0  0  0  0  0  0  0  0  0  0
    5.5085   -4.1729    0.0000 C   0  0  0  0  0  0  0  0  0  0  0  0
    2.0000   -2.1472    0.0000 C   0  0  0  0  0  0  0  0  0  0  0  0
    5.4806    1.9855    0.0000 C   0  0  0  0  0  0  0  0  0  0  0  0
    7.3473    0.9078    0.0000 C   0  0  0  0  0  0  0  0  0  0  0  0
    6.3543   -3.6550    0.0000 C   0  0  0  0  0  0  0  0  0  0  0  0
    2.0256   -1.1559    0.0000 C   0  0  0  0  0  0  0  0  0  0  0  0
    6.4160    2.5352    0.0000 C   0  0  0  0  0  0  0  0  0  0  0  0
    7.3556    1.9927    0.0000 C   0  0  0  0  0  0  0  0  0  0  0  0
    8.3430    2.5427    0.0000 C   0  0  0  0  0  0  0  0  0  0  0  0
    6.3986    3.6653    0.0000 C   0  0  0  0  0  0  0  0  0  0  0  0
    8.3517    3.6728    0.0000 C   0  0  0  0  0  0  0  0  0  0  0  0
    7.3730    4.2379    0.0000 C   0  0  0  0  0  0  0  0  0  0  0  0
    6.9247   -0.9780    0.0000 H   0  0  0  0  0  0  0  0  0  0  0  0
    4.0588    0.6767    0.0000 H   0  0  0  0  0  0  0  0  0  0  0  0
    2.8957   -0.0517    0.0000 H   0  0  0  0  0  0  0  0  0  0  0  0
    6.8755   -2.3494    0.0000 H   0  0  0  0  0  0  0  0  0  0  0  0
    2.2932   -4.0250    0.0000 H   0  0  0  0  0  0  0  0  0  0  0  0
    3.7358   -4.8579    0.0000 H   0  0  0  0  0  0  0  0  0  0  0  0
    1.4534   -2.4399    0.0000 H   0  0  0  0  0  0  0  0  0  0  0  0
    5.5284   -4.7926    0.0000 H   0  0  0  0  0  0  0  0  0  0  0  0
    4.9401    2.2893    0.0000 H   0  0  0  0  0  0  0  0  0  0  0  0
    7.8806    0.5916    0.0000 H   0  0  0  0  0  0  0  0  0  0  0  0
    1.4949   -0.8353    0.0000 H   0  0  0  0  0  0  0  0  0  0  0  0
    6.8972   -3.9544    0.0000 H   0  0  0  0  0  0  0  0  0  0  0  0
    5.8581    3.9690    0.0000 H   0  0  0  0  0  0  0  0  0  0  0  0
    8.8763    2.2265    0.0000 H   0  0  0  0  0  0  0  0  0  0  0  0
    8.8898    3.9807    0.0000 H   0  0  0  0  0  0  0  0  0  0  0  0
    7.3706    4.8579    0.0000 H   0  0  0  0  0  0  0  0  0  0  0  0
  1  2  1  0  0  0  0
  1  5  1  0  0  0  0
  1  8  2  0  0  0  0
  2  6  1  0  0  0  0
  2  7  2  0  0  0  0
  3  4  1  0  0  0  0
  3  5  1  0  0  0  0
  3 10  2  0  0  0  0
  4  6  1  0  0  0  0
  4  9  2  0  0  0  0
  5 14  2  0  0  0  0
  6 13  2  0  0  0  0
  7 15  1  0  0  0  0
  7 18  1  0  0  0  0
  8 16  1  0  0  0  0
  8 17  1  0  0  0  0
  9 12  1  0  0  0  0
  9 30  1  0  0  0  0
 10 11  1  0  0  0  0
 10 29  1  0  0  0  0
 11 12  1  0  0  0  0
 11 20  2  0  0  0  0
 12 19  2  0  0  0  0
 13 22  1  0  0  0  0
 13 31  1  0  0  0  0
 14 21  1  0  0  0  0
 14 32  1  0  0  0  0
 15 16  2  0  0  0  0
 15 33  1  0  0  0  0
 16 34  1  0  0  0  0
 17 21  2  0  0  0  0
 17 36  1  0  0  0  0
 18 22  2  0  0  0  0
 18 35  1  0  0  0  0
 19 23  1  0  0  0  0
 19 37  1  0  0  0  0
 20 24  1  0  0  0  0
 20 38  1  0  0  0  0
 21 40  1  0  0  0  0
 22 39  1  0  0  0  0
 23 24  1  0  0  0  0
 23 26  2  0  0  0  0
 24 25  2  0  0  0  0
 25 27  1  0  0  0  0
 25 42  1  0  0  0  0
 26 28  1  0  0  0  0
 26 41  1  0  0  0  0
 27 28  2  0  0  0  0
 27 43  1  0  0  0  0
 28 44  1  0  0  0  0
M  END
> <PUBCHEM_COMPOUND_CID>
9130

> <PUBCHEM_COMPOUND_CANONICALIZED>
1

> <PUBCHEM_CACTVS_COMPLEXITY>
541

> <PUBCHEM_CACTVS_HBOND_ACCEPTOR>
0

> <PUBCHEM_CACTVS_HBOND_DONOR>
0

> <PUBCHEM_CACTVS_ROTATABLE_BOND>
0

> <PUBCHEM_CACTVS_SUBSKEYS>
AAADceB4AAAAAAAAAAAAAAAAAAAAAAAAAAAwYMGDAAAAAADBVAAAGAAAAAAADACAGAAwAMAAAACAAiBCAAACAAAgAAAIiAAAAIgIICKAERCAIAAggAAIiAcAgMAOwAACAAAQAACAAAQAACAAAAAAAAAAAA==

> <PUBCHEM_IUPAC_INCHI>
InChI=1S/C28H16/c1-2-6-20-14-22-16-26-24-10-4-8-18-12-11-17-7-3-9-23(27(17)28(18)24)25(26)15-21(22)13-19(20)5-1/h1-16H

> <PUBCHEM_IUPAC_INCHIKEY>
JQUQARYITFQBHD-UHFFFAOYSA-N

> <PUBCHEM_XLOGP3_AA>
8

> <PUBCHEM_EXACT_MASS>
352.125201

> <PUBCHEM_MOLECULAR_FORMULA>
C28H16

> <PUBCHEM_MOLECULAR_WEIGHT>
352.42664

> <PUBCHEM_OPENEYE_CAN_SMILES>
C1=CC=C2C=C3C=C4C5=CC=CC6=C5C7=C(C=CC=C7C4=CC3=CC2=C1)C=C6

> <PUBCHEM_OPENEYE_ISO_SMILES>
C1=CC=C2C=C3C=C4C5=CC=CC6=C5C7=C(C=CC=C7C4=CC3=CC2=C1)C=C6

> <PUBCHEM_CACTVS_TPSA>
0

> <PUBCHEM_MONOISOTOPIC_WEIGHT>
352.125201

> <PUBCHEM_TOTAL_CHARGE>
0

> <PUBCHEM_HEAVY_ATOM_COUNT>
28

> <PUBCHEM_ATOM_DEF_STEREO_COUNT>
0

> <PUBCHEM_ATOM_UDEF_STEREO_COUNT>
0

> <PUBCHEM_BOND_DEF_STEREO_COUNT>
0

> <PUBCHEM_BOND_UDEF_STEREO_COUNT>
0

> <PUBCHEM_ISOTOPIC_ATOM_COUNT>
0

> <PUBCHEM_COMPONENT_COUNT>
1

> <PUBCHEM_CACTVS_TAUTO_COUNT>
1

> <PUBCHEM_COORDINATE_TYPE>
1
5
255

> <PUBCHEM_BONDANNOTATIONS>
1  2  8
1  5  8
1  8  8
10  11  8
11  12  8
11  20  8
12  19  8
13  22  8
14  21  8
15  16  8
17  21  8
18  22  8
19  23  8
2  6  8
2  7  8
20  24  8
23  24  8
23  26  8
24  25  8
25  27  8
26  28  8
27  28  8
3  10  8
3  4  8
3  5  8
4  6  8
4  9  8
5  14  8
6  13  8
7  15  8
7  18  8
8  16  8
8  17  8
9  12  8

$$$$

