13449
  -OEChem-06261214192D

 20 21  0     0  0  0  0  0  0999 V2000
    4.5981    0.5000    0.0000 Cl  0  0  0  0  0  0  0  0  0  0  0  0
    6.3301    1.5000    0.0000 F   0  0  0  0  0  0  0  0  0  0  0  0
    8.0622   -1.5000    0.0000 F   0  0  0  0  0  0  0  0  0  0  0  0
    4.5981   -1.5000    0.0000 O   0  0  0  0  0  0  0  0  0  0  0  0
    6.3301   -1.5000    0.0000 N   0  0  0  0  0  0  0  0  0  0  0  0
    5.4641    0.0000    0.0000 N   0  0  0  0  0  0  0  0  0  0  0  0
    7.1962    0.0000    0.0000 N   0  0  0  0  0  0  0  0  0  0  0  0
    3.7320   -1.0000    0.0000 C   0  0  0  0  0  0  0  0  0  0  0  0
    3.7320    0.0000    0.0000 C   0  0  0  0  0  0  0  0  0  0  0  0
    2.8660   -1.5000    0.0000 C   0  0  0  0  0  0  0  0  0  0  0  0
    2.8660    0.5000    0.0000 C   0  0  0  0  0  0  0  0  0  0  0  0
    2.0000   -1.0000    0.0000 C   0  0  0  0  0  0  0  0  0  0  0  0
    2.0000    0.0000    0.0000 C   0  0  0  0  0  0  0  0  0  0  0  0
    5.4641   -1.0000    0.0000 C   0  0  0  0  0  0  0  0  0  0  0  0
    6.3301    0.5000    0.0000 C   0  0  0  0  0  0  0  0  0  0  0  0
    7.1962   -1.0000    0.0000 C   0  0  0  0  0  0  0  0  0  0  0  0
    2.8660   -2.1200    0.0000 H   0  0  0  0  0  0  0  0  0  0  0  0
    2.8660    1.1200    0.0000 H   0  0  0  0  0  0  0  0  0  0  0  0
    1.4631   -1.3100    0.0000 H   0  0  0  0  0  0  0  0  0  0  0  0
    1.4631    0.3100    0.0000 H   0  0  0  0  0  0  0  0  0  0  0  0
  1  9  1  0  0  0  0
  2 15  1  0  0  0  0
  3 16  1  0  0  0  0
  4  8  1  0  0  0  0
  4 14  1  0  0  0  0
  5 14  2  0  0  0  0
  5 16  1  0  0  0  0
  6 14  1  0  0  0  0
  6 15  2  0  0  0  0
  7 15  1  0  0  0  0
  7 16  2  0  0  0  0
  8  9  1  0  0  0  0
  8 10  2  0  0  0  0
  9 11  2  0  0  0  0
 10 12  1  0  0  0  0
 10 17  1  0  0  0  0
 11 13  1  0  0  0  0
 11 18  1  0  0  0  0
 12 13  2  0  0  0  0
 12 19  1  0  0  0  0
 13 20  1  0  0  0  0
M  END
> <PUBCHEM_COMPOUND_CID>
13449

> <PUBCHEM_COMPOUND_CANONICALIZED>
1

> <PUBCHEM_CACTVS_COMPLEXITY>
227

> <PUBCHEM_CACTVS_HBOND_ACCEPTOR>
6

> <PUBCHEM_CACTVS_HBOND_DONOR>
0

> <PUBCHEM_CACTVS_ROTATABLE_BOND>
2

> <PUBCHEM_CACTVS_SUBSKEYS>
AAADcYBzIYAEAAAAAAAAAAAAAAAAAAAAAAA8QAAAAAAAAAABwAAAHwIAAAAACAaAkCAxFoYIFACgACBCJAACCAkgJcAJiAAGC4iMLiOFMxqIMCAswBEIqAeAQAAAAAAAAAAACAAAAAAAAAAQAAAAAAAAAA==

> <PUBCHEM_IUPAC_OPENEYE_NAME>
2-(2-chlorophenoxy)-4,6-difluoro-1,3,5-triazine

> <PUBCHEM_IUPAC_CAS_NAME>
2-(2-chlorophenoxy)-4,6-difluoro-1,3,5-triazine

> <PUBCHEM_IUPAC_NAME>
2-(2-chlorophenoxy)-4,6-difluoro-1,3,5-triazine

> <PUBCHEM_IUPAC_SYSTEMATIC_NAME>
2-(2-chloranylphenoxy)-4,6-bis(fluoranyl)-1,3,5-triazine

> <PUBCHEM_IUPAC_TRADITIONAL_NAME>
2-(2-chlorophenoxy)-4,6-difluoro-s-triazine

> <PUBCHEM_IUPAC_INCHI>
InChI=1S/C9H4ClF2N3O/c10-5-3-1-2-4-6(5)16-9-14-7(11)13-8(12)15-9/h1-4H

> <PUBCHEM_IUPAC_INCHIKEY>
ZFJLOQARRCCGMD-UHFFFAOYSA-N

> <PUBCHEM_XLOGP3_AA>
3.3

> <PUBCHEM_EXACT_MASS>
243.001096

> <PUBCHEM_MOLECULAR_FORMULA>
C9H4ClF2N3O

> <PUBCHEM_MOLECULAR_WEIGHT>
243.597366

> <PUBCHEM_OPENEYE_CAN_SMILES>
C1=CC=C(C(=C1)OC2=NC(=NC(=N2)F)F)Cl

> <PUBCHEM_OPENEYE_ISO_SMILES>
C1=CC=C(C(=C1)OC2=NC(=NC(=N2)F)F)Cl

> <PUBCHEM_CACTVS_TPSA>
47.9

> <PUBCHEM_MONOISOTOPIC_WEIGHT>
243.001096

> <PUBCHEM_TOTAL_CHARGE>
0

> <PUBCHEM_HEAVY_ATOM_COUNT>
16

> <PUBCHEM_ATOM_DEF_STEREO_COUNT>
0

> <PUBCHEM_ATOM_UDEF_STEREO_COUNT>
0

> <PUBCHEM_BOND_DEF_STEREO_COUNT>
0

> <PUBCHEM_BOND_UDEF_STEREO_COUNT>
0

> <PUBCHEM_ISOTOPIC_ATOM_COUNT>
0

> <PUBCHEM_COMPONENT_COUNT>
1

> <PUBCHEM_CACTVS_TAUTO_COUNT>
1

> <PUBCHEM_COORDINATE_TYPE>
1
5
255

> <PUBCHEM_BONDANNOTATIONS>
10  12  8
11  13  8
12  13  8
5  14  8
5  16  8
6  14  8
6  15  8
7  15  8
7  16  8
8  10  8
8  9  8
9  11  8

$$$$

