11492
  -OEChem-06261205443D

 21 21  0     0  0  0  0  0  0999 V2000
   -2.6976    1.7397   -0.1187 O   0  0  0  0  0  0  0  0  0  0  0  0
    4.0725    0.4296   -0.2309 N   0  0  0  0  0  0  0  0  0  0  0  0
    1.8079    0.0220    0.6757 C   0  0  0  0  0  0  0  0  0  0  0  0
    0.3700   -0.1987    0.3480 C   0  0  0  0  0  0  0  0  0  0  0  0
    2.6675    0.2416   -0.5760 C   0  0  0  0  0  0  0  0  0  0  0  0
   -0.5018    0.8872    0.2666 C   0  0  0  0  0  0  0  0  0  0  0  0
   -0.1034   -1.4914    0.1230 C   0  0  0  0  0  0  0  0  0  0  0  0
   -1.8467    0.6804   -0.0398 C   0  0  0  0  0  0  0  0  0  0  0  0
   -1.4484   -1.6982   -0.1832 C   0  0  0  0  0  0  0  0  0  0  0  0
   -2.3200   -0.6123   -0.2647 C   0  0  0  0  0  0  0  0  0  0  0  0
    1.9029    0.8834    1.3505 H   0  0  0  0  0  0  0  0  0  0  0  0
    2.1884   -0.8369    1.2449 H   0  0  0  0  0  0  0  0  0  0  0  0
    2.3173    1.1201   -1.1299 H   0  0  0  0  0  0  0  0  0  0  0  0
    2.5822   -0.6159   -1.2532 H   0  0  0  0  0  0  0  0  0  0  0  0
   -0.1390    1.8976    0.4391 H   0  0  0  0  0  0  0  0  0  0  0  0
    0.5659   -2.3457    0.1816 H   0  0  0  0  0  0  0  0  0  0  0  0
   -1.8168   -2.7047   -0.3588 H   0  0  0  0  0  0  0  0  0  0  0  0
   -3.3655   -0.7869   -0.5042 H   0  0  0  0  0  0  0  0  0  0  0  0
    4.4074   -0.3819    0.2873 H   0  0  0  0  0  0  0  0  0  0  0  0
    4.1640    1.2223    0.4036 H   0  0  0  0  0  0  0  0  0  0  0  0
   -3.5870    1.4137   -0.3394 H   0  0  0  0  0  0  0  0  0  0  0  0
  1  8  1  0  0  0  0
  1 21  1  0  0  0  0
  2  5  1  0  0  0  0
  2 19  1  0  0  0  0
  2 20  1  0  0  0  0
  3  4  1  0  0  0  0
  3  5  1  0  0  0  0
  3 11  1  0  0  0  0
  3 12  1  0  0  0  0
  4  6  2  0  0  0  0
  4  7  1  0  0  0  0
  5 13  1  0  0  0  0
  5 14  1  0  0  0  0
  6  8  1  0  0  0  0
  6 15  1  0  0  0  0
  7  9  2  0  0  0  0
  7 16  1  0  0  0  0
  8 10  2  0  0  0  0
  9 10  1  0  0  0  0
  9 17  1  0  0  0  0
 10 18  1  0  0  0  0
M  END
> <PUBCHEM_COMPOUND_CID>
11492

> <PUBCHEM_CONFORMER_RMSD>
0.4

> <PUBCHEM_CONFORMER_DIVERSEORDER>
2
12
9
3
1
11
6
10
7
5
4
8

> <PUBCHEM_MMFF94_PARTIAL_CHARGES>
17
1 -0.53
10 -0.15
15 0.15
16 0.15
17 0.15
18 0.15
19 0.36
2 -0.99
20 0.36
21 0.45
3 0.14
4 -0.14
5 0.27
6 -0.15
7 -0.15
8 0.08
9 -0.15

> <PUBCHEM_EFFECTIVE_ROTOR_COUNT>
2

> <PUBCHEM_PHARMACOPHORE_FEATURES>
4
1 1 donor
1 2 cation
1 2 donor
6 4 6 7 8 9 10 rings

> <PUBCHEM_HEAVY_ATOM_COUNT>
10

> <PUBCHEM_ATOM_DEF_STEREO_COUNT>
0

> <PUBCHEM_ATOM_UDEF_STEREO_COUNT>
0

> <PUBCHEM_BOND_DEF_STEREO_COUNT>
0

> <PUBCHEM_BOND_UDEF_STEREO_COUNT>
0

> <PUBCHEM_ISOTOPIC_ATOM_COUNT>
0

> <PUBCHEM_COMPONENT_COUNT>
1

> <PUBCHEM_CACTVS_TAUTO_COUNT>
9

> <PUBCHEM_CONFORMER_ID>
00002CE400000002

> <PUBCHEM_MMFF94_ENERGY>
16.4477

> <PUBCHEM_FEATURE_SELFOVERLAP>
20.297

> <PUBCHEM_SHAPE_FINGERPRINT>
11206711 2 18337125487877910917
12138202 97 18187366549123411174
12716758 59 18334860506577660834
12897270 3 18336829693316828158
12932764 1 17967537835371548954
13024252 1 17917711258240122795
14325111 11 18411699911165681696
15775835 57 18201438116368881636
16945 1 18337403638376133715
20201158 50 17749102288519024478
20645464 45 17750254542118342346
20653085 51 18271793636384296312
20871998 184 18188766133115981655
21040471 1 18336839700622256987
23235685 24 18337113457426776457
23552423 10 18127416639855011946
23559900 14 18186802509403337010
29004967 10 16009026155462364106
6333449 129 18334013873902378792

> <PUBCHEM_SHAPE_MULTIPOLES>
194.94
4.77
1.56
0.72
4.61
0.15
-0.02
-1.28
0.84
-1.29
0.04
0.17
0.01
-0.09

> <PUBCHEM_SHAPE_SELFOVERLAP>
396.669

> <PUBCHEM_SHAPE_VOLUME>
113.6

> <PUBCHEM_COORDINATE_TYPE>
2
5
10

$$$$

