47205757
  -OEChem-06241223003D

 39 39  0     1  0  0  0  0  0999 V2000
    1.3280    3.0526    1.3456 O   0  0  0  0  0  0  0  0  0  0  0  0
    3.4690   -0.5838   -2.1250 O   0  0  0  0  0  0  0  0  0  0  0  0
    2.3522   -2.3798    1.9434 O   0  0  0  0  0  0  0  0  0  0  0  0
   -2.4070   -2.1398    0.6783 O   0  0  0  0  0  0  0  0  0  0  0  0
   -2.5612   -2.0982   -1.6229 O   0  0  0  0  0  0  0  0  0  0  0  0
    0.1022    2.5502   -0.5650 N   0  0  0  0  0  0  0  0  0  0  0  0
    1.5631   -0.5154    0.7726 N   0  0  0  0  0  0  0  0  0  0  0  0
    3.1716   -1.7524   -0.1411 N   0  0  0  0  0  0  0  0  0  0  0  0
    1.8181    0.1402   -0.4873 C   0  0  1  0  0  0  0  0  0  0  0  0
   -2.0884    2.5206    0.5212 C   0  0  0  0  0  0  0  0  0  0  0  0
   -2.5441    1.2936   -0.2694 C   0  0  0  0  0  0  0  0  0  0  0  0
    2.2898    1.5717   -0.3071 C   0  0  0  0  0  0  0  0  0  0  0  0
   -1.0630    3.3333   -0.2593 C   0  0  0  0  0  0  0  0  0  0  0  0
   -3.6037    0.4990    0.5002 C   0  0  0  0  0  0  0  0  0  0  0  0
    1.2132    2.4726    0.2694 C   0  0  0  0  0  0  0  0  0  0  0  0
    2.9165   -0.7519   -1.0468 C   0  0  0  0  0  0  0  0  0  0  0  0
   -4.0538   -0.7534   -0.2519 C   0  0  0  0  0  0  0  0  0  0  0  0
    2.3671   -1.6388    0.9702 C   0  0  0  0  0  0  0  0  0  0  0  0
   -2.9256   -1.7260   -0.5159 C   0  0  0  0  0  0  0  0  0  0  0  0
   -1.3440   -3.0942    0.5908 C   0  0  0  0  0  0  0  0  0  0  0  0
    0.9230    0.0398   -1.1079 H   0  0  0  0  0  0  0  0  0  0  0  0
   -2.9511    3.1576    0.7486 H   0  0  0  0  0  0  0  0  0  0  0  0
   -1.6593    2.2004    1.4787 H   0  0  0  0  0  0  0  0  0  0  0  0
   -1.6842    0.6470   -0.4758 H   0  0  0  0  0  0  0  0  0  0  0  0
   -2.9545    1.6067   -1.2371 H   0  0  0  0  0  0  0  0  0  0  0  0
    2.6062    1.9938   -1.2690 H   0  0  0  0  0  0  0  0  0  0  0  0
    3.1616    1.6164    0.3579 H   0  0  0  0  0  0  0  0  0  0  0  0
   -0.7654    4.2122    0.3224 H   0  0  0  0  0  0  0  0  0  0  0  0
   -1.4853    3.6814   -1.2078 H   0  0  0  0  0  0  0  0  0  0  0  0
   -3.2071    0.2200    1.4839 H   0  0  0  0  0  0  0  0  0  0  0  0
   -4.4785    1.1356    0.6793 H   0  0  0  0  0  0  0  0  0  0  0  0
    0.1144    2.0601   -1.4544 H   0  0  0  0  0  0  0  0  0  0  0  0
    0.8466   -0.2209    1.4289 H   0  0  0  0  0  0  0  0  0  0  0  0
   -4.4886   -0.4708   -1.2178 H   0  0  0  0  0  0  0  0  0  0  0  0
   -4.8357   -1.2791    0.3077 H   0  0  0  0  0  0  0  0  0  0  0  0
    3.8622   -2.4822   -0.2743 H   0  0  0  0  0  0  0  0  0  0  0  0
   -0.9442   -3.2511    1.5961 H   0  0  0  0  0  0  0  0  0  0  0  0
   -0.5407   -2.7184   -0.0501 H   0  0  0  0  0  0  0  0  0  0  0  0
   -1.7276   -4.0455    0.2106 H   0  0  0  0  0  0  0  0  0  0  0  0
  1 15  2  0  0  0  0
  2 16  2  0  0  0  0
  3 18  2  0  0  0  0
  4 19  1  0  0  0  0
  4 20  1  0  0  0  0
  5 19  2  0  0  0  0
  6 13  1  0  0  0  0
  6 15  1  0  0  0  0
  6 32  1  0  0  0  0
  7  9  1  0  0  0  0
  7 18  1  0  0  0  0
  7 33  1  0  0  0  0
  8 16  1  0  0  0  0
  8 18  1  0  0  0  0
  8 36  1  0  0  0  0
  9 12  1  0  0  0  0
  9 16  1  0  0  0  0
  9 21  1  0  0  0  0
 10 11  1  0  0  0  0
 10 13  1  0  0  0  0
 10 22  1  0  0  0  0
 10 23  1  0  0  0  0
 11 14  1  0  0  0  0
 11 24  1  0  0  0  0
 11 25  1  0  0  0  0
 12 15  1  0  0  0  0
 12 26  1  0  0  0  0
 12 27  1  0  0  0  0
 13 28  1  0  0  0  0
 13 29  1  0  0  0  0
 14 17  1  0  0  0  0
 14 30  1  0  0  0  0
 14 31  1  0  0  0  0
 17 19  1  0  0  0  0
 17 34  1  0  0  0  0
 17 35  1  0  0  0  0
 20 37  1  0  0  0  0
 20 38  1  0  0  0  0
 20 39  1  0  0  0  0
M  END
> <PUBCHEM_COMPOUND_CID>
47205757

> <PUBCHEM_CONFORMER_RMSD>
1.4

> <PUBCHEM_CONFORMER_DIVERSEORDER>
3
54
4
60
36
14
48
70
66
52
59
6
9
73
58
34
27
64
2
17
35
76
39
51
44
77
41
8
1
28
24
11
55
40
12
7
74
75
61
26
29
22
31
43
23
46
47
49
32
53
62
42
65
30
19
16
37
15
18
5
68
67
33
45
25
57
71
69
13
20
21
38
50
56
10
72
63

> <PUBCHEM_MMFF94_PARTIAL_CHARGES>
20
1 -0.57
12 0.06
13 0.3
15 0.57
16 0.57
17 0.06
18 0.69
19 0.66
2 -0.57
20 0.28
3 -0.57
32 0.37
33 0.37
36 0.37
4 -0.43
5 -0.57
6 -0.73
7 -0.73
8 -0.49
9 0.36

> <PUBCHEM_EFFECTIVE_ROTOR_COUNT>
10.6

> <PUBCHEM_PHARMACOPHORE_FEATURES>
9
1 1 acceptor
1 2 acceptor
1 3 acceptor
1 5 acceptor
1 6 donor
1 7 donor
1 8 donor
4 10 11 14 17 hydrophobe
5 7 8 9 16 18 rings

> <PUBCHEM_HEAVY_ATOM_COUNT>
20

> <PUBCHEM_ATOM_DEF_STEREO_COUNT>
0

> <PUBCHEM_ATOM_UDEF_STEREO_COUNT>
1

> <PUBCHEM_BOND_DEF_STEREO_COUNT>
0

> <PUBCHEM_BOND_UDEF_STEREO_COUNT>
0

> <PUBCHEM_ISOTOPIC_ATOM_COUNT>
0

> <PUBCHEM_COMPONENT_COUNT>
1

> <PUBCHEM_CACTVS_TAUTO_COUNT>
16

> <PUBCHEM_CONFORMER_ID>
02D04D7D00000003

> <PUBCHEM_MMFF94_ENERGY>
22.3333

> <PUBCHEM_FEATURE_SELFOVERLAP>
45.74

> <PUBCHEM_SHAPE_MULTIPOLES>
367.3
6.62
4.45
1.36
1.75
1.51
0.13
-3.14
1.16
0.93
-1
-1
-0.63
-0.56

> <PUBCHEM_SHAPE_SELFOVERLAP>
731.299

> <PUBCHEM_SHAPE_VOLUME>
217.6

> <PUBCHEM_COORDINATE_TYPE>
2
5
10

$$$$

