854134
  -OEChem-06241222472D

 24 25  0     0  0  0  0  0  0999 V2000
    8.9942    1.5068    0.0000 Br  0  0  0  0  0  0  0  0  0  0  0  0
    2.8660   -0.0173    0.0000 O   0  0  0  0  0  0  0  0  0  0  0  0
    3.7320   -1.5173    0.0000 O   0  0  0  0  0  0  0  0  0  0  0  0
    6.3301   -0.0173    0.0000 C   0  0  0  0  0  0  0  0  0  0  0  0
    6.3301    0.9827    0.0000 C   0  0  0  0  0  0  0  0  0  0  0  0
    5.4641   -0.5173    0.0000 C   0  0  0  0  0  0  0  0  0  0  0  0
    4.5981   -0.0173    0.0000 C   0  0  0  0  0  0  0  0  0  0  0  0
    5.4641    1.4827    0.0000 C   0  0  0  0  0  0  0  0  0  0  0  0
    7.2241   -0.5520    0.0000 C   0  0  0  0  0  0  0  0  0  0  0  0
    4.5981    0.9827    0.0000 C   0  0  0  0  0  0  0  0  0  0  0  0
    7.2241    1.5173    0.0000 C   0  0  0  0  0  0  0  0  0  0  0  0
    8.1301   -0.0381    0.0000 C   0  0  0  0  0  0  0  0  0  0  0  0
    8.1301    1.0035    0.0000 C   0  0  0  0  0  0  0  0  0  0  0  0
    3.7320   -0.5173    0.0000 C   0  0  0  0  0  0  0  0  0  0  0  0
    2.0000   -0.5173    0.0000 C   0  0  0  0  0  0  0  0  0  0  0  0
    5.4641   -1.1373    0.0000 H   0  0  0  0  0  0  0  0  0  0  0  0
    5.4641    2.1027    0.0000 H   0  0  0  0  0  0  0  0  0  0  0  0
    7.2169   -1.1720    0.0000 H   0  0  0  0  0  0  0  0  0  0  0  0
    4.0611    1.2927    0.0000 H   0  0  0  0  0  0  0  0  0  0  0  0
    7.2169    2.1373    0.0000 H   0  0  0  0  0  0  0  0  0  0  0  0
    8.6659   -0.3502    0.0000 H   0  0  0  0  0  0  0  0  0  0  0  0
    1.6900    0.0196    0.0000 H   0  0  0  0  0  0  0  0  0  0  0  0
    1.4631   -0.8273    0.0000 H   0  0  0  0  0  0  0  0  0  0  0  0
    2.3100   -1.0543    0.0000 H   0  0  0  0  0  0  0  0  0  0  0  0
  1 13  1  0  0  0  0
  2 14  1  0  0  0  0
  2 15  1  0  0  0  0
  3 14  2  0  0  0  0
  4  5  2  0  0  0  0
  4  6  1  0  0  0  0
  4  9  1  0  0  0  0
  5  8  1  0  0  0  0
  5 11  1  0  0  0  0
  6  7  2  0  0  0  0
  6 16  1  0  0  0  0
  7 10  1  0  0  0  0
  7 14  1  0  0  0  0
  8 10  2  0  0  0  0
  8 17  1  0  0  0  0
  9 12  2  0  0  0  0
  9 18  1  0  0  0  0
 10 19  1  0  0  0  0
 11 13  2  0  0  0  0
 11 20  1  0  0  0  0
 12 13  1  0  0  0  0
 12 21  1  0  0  0  0
 15 22  1  0  0  0  0
 15 23  1  0  0  0  0
 15 24  1  0  0  0  0
M  END
> <PUBCHEM_COMPOUND_CID>
854134

> <PUBCHEM_COMPOUND_CANONICALIZED>
1

> <PUBCHEM_CACTVS_COMPLEXITY>
242

> <PUBCHEM_CACTVS_HBOND_ACCEPTOR>
2

> <PUBCHEM_CACTVS_HBOND_DONOR>
0

> <PUBCHEM_CACTVS_ROTATABLE_BOND>
2

> <PUBCHEM_CACTVS_SUBSKEYS>
AAADccBwMAAAEAAAAAAAAAAAAAAAAAAAAAAwYAAAAAAAAADBUAAAGgBAAAABrACAmAIyCMAABACIAiDSCAACAAAkAAQIiAEACOgIJjKANRiAMQAkwAEIq5eIyPCOwgACEAAQAACEAAQgACAAAAAAAAAAAA==

> <PUBCHEM_IUPAC_OPENEYE_NAME>
methyl 6-bromonaphthalene-2-carboxylate

> <PUBCHEM_IUPAC_CAS_NAME>
6-bromo-2-naphthalenecarboxylic acid methyl ester

> <PUBCHEM_IUPAC_NAME>
methyl 6-bromonaphthalene-2-carboxylate

> <PUBCHEM_IUPAC_SYSTEMATIC_NAME>
methyl 6-bromanylnaphthalene-2-carboxylate

> <PUBCHEM_IUPAC_TRADITIONAL_NAME>
6-bromonaphthalene-2-carboxylic acid methyl ester

> <PUBCHEM_IUPAC_INCHI>
InChI=1S/C12H9BrO2/c1-15-12(14)10-3-2-9-7-11(13)5-4-8(9)6-10/h2-7H,1H3

> <PUBCHEM_IUPAC_INCHIKEY>
JEUBRLPXJZOGPX-UHFFFAOYSA-N

> <PUBCHEM_XLOGP3_AA>
3.7

> <PUBCHEM_EXACT_MASS>
263.978592

> <PUBCHEM_MOLECULAR_FORMULA>
C12H9BrO2

> <PUBCHEM_MOLECULAR_WEIGHT>
265.10266

> <PUBCHEM_OPENEYE_CAN_SMILES>
COC(=O)C1=CC2=C(C=C1)C=C(C=C2)Br

> <PUBCHEM_OPENEYE_ISO_SMILES>
COC(=O)C1=CC2=C(C=C1)C=C(C=C2)Br

> <PUBCHEM_CACTVS_TPSA>
26.3

> <PUBCHEM_MONOISOTOPIC_WEIGHT>
263.978592

> <PUBCHEM_TOTAL_CHARGE>
0

> <PUBCHEM_HEAVY_ATOM_COUNT>
15

> <PUBCHEM_ATOM_DEF_STEREO_COUNT>
0

> <PUBCHEM_ATOM_UDEF_STEREO_COUNT>
0

> <PUBCHEM_BOND_DEF_STEREO_COUNT>
0

> <PUBCHEM_BOND_UDEF_STEREO_COUNT>
0

> <PUBCHEM_ISOTOPIC_ATOM_COUNT>
0

> <PUBCHEM_COMPONENT_COUNT>
1

> <PUBCHEM_CACTVS_TAUTO_COUNT>
1

> <PUBCHEM_COORDINATE_TYPE>
1
5
255

> <PUBCHEM_BONDANNOTATIONS>
11  13  8
12  13  8
4  5  8
4  6  8
4  9  8
5  11  8
5  8  8
6  7  8
7  10  8
8  10  8
9  12  8

$$$$

