17395614
  -OEChem-06241222513D

 44 47  0     0  0  0  0  0  0999 V2000
   -4.6795   -1.0932   -0.4764 Cl  0  0  0  0  0  0  0  0  0  0  0  0
    4.0006    3.6811   -0.1575 S   0  0  0  0  0  0  0  0  0  0  0  0
    2.8129   -0.6815    0.3379 O   0  0  0  0  0  0  0  0  0  0  0  0
   -1.4399    0.3551   -1.1933 N   0  0  0  0  0  0  0  0  0  0  0  0
   -1.2774   -0.9461   -0.8994 N   0  0  0  0  0  0  0  0  0  0  0  0
    2.4677    1.5367   -0.2205 N   0  0  0  0  0  0  0  0  0  0  0  0
    4.6578    1.2565    0.5789 N   0  0  0  0  0  0  0  0  0  0  0  0
   -2.6669    0.9188   -1.6743 C   0  0  0  0  0  0  0  0  0  0  0  0
    0.6800   -0.0806   -0.4627 C   0  0  0  0  0  0  0  0  0  0  0  0
   -0.0256   -1.2593   -0.4575 C   0  0  0  0  0  0  0  0  0  0  0  0
   -0.2409    0.8787   -0.9245 C   0  0  0  0  0  0  0  0  0  0  0  0
   -3.5405    1.3819   -0.5399 C   0  0  0  0  0  0  0  0  0  0  0  0
    0.3570   -2.5934   -0.0898 C   0  0  0  0  0  0  0  0  0  0  0  0
    2.0374    0.1964   -0.0999 C   0  0  0  0  0  0  0  0  0  0  0  0
   -4.4751    0.5356    0.0570 C   0  0  0  0  0  0  0  0  0  0  0  0
   -3.3980    2.6934   -0.0869 C   0  0  0  0  0  0  0  0  0  0  0  0
    1.4000   -3.2304   -0.7623 C   0  0  0  0  0  0  0  0  0  0  0  0
   -0.3144   -3.2527    0.9399 C   0  0  0  0  0  0  0  0  0  0  0  0
    3.7072    1.9922    0.1098 C   0  0  0  0  0  0  0  0  0  0  0  0
    5.7701    3.3757    0.0053 C   0  0  0  0  0  0  0  0  0  0  0  0
    5.8201    2.1241    0.8710 C   0  0  0  0  0  0  0  0  0  0  0  0
   -5.2669    1.0009    1.1069 C   0  0  0  0  0  0  0  0  0  0  0  0
   -4.1900    3.1587    0.9629 C   0  0  0  0  0  0  0  0  0  0  0  0
    1.7714   -4.5266   -0.4054 C   0  0  0  0  0  0  0  0  0  0  0  0
    0.0573   -4.5489    1.2969 C   0  0  0  0  0  0  0  0  0  0  0  0
   -5.1245    2.3125    1.5597 C   0  0  0  0  0  0  0  0  0  0  0  0
    1.1001   -5.1858    0.6242 C   0  0  0  0  0  0  0  0  0  0  0  0
   -3.1599    0.1910   -2.3267 H   0  0  0  0  0  0  0  0  0  0  0  0
   -2.4077    1.7646   -2.3236 H   0  0  0  0  0  0  0  0  0  0  0  0
   -0.0963    1.9397   -1.0787 H   0  0  0  0  0  0  0  0  0  0  0  0
    1.8287    2.2382   -0.5785 H   0  0  0  0  0  0  0  0  0  0  0  0
   -2.6735    3.3648   -0.5403 H   0  0  0  0  0  0  0  0  0  0  0  0
    1.9313   -2.7361   -1.5724 H   0  0  0  0  0  0  0  0  0  0  0  0
   -1.1283   -2.7713    1.4771 H   0  0  0  0  0  0  0  0  0  0  0  0
    6.1891    3.1796   -0.9866 H   0  0  0  0  0  0  0  0  0  0  0  0
    6.2976    4.2181    0.4595 H   0  0  0  0  0  0  0  0  0  0  0  0
    5.8101    2.3825    1.9373 H   0  0  0  0  0  0  0  0  0  0  0  0
    6.7469    1.5726    0.6797 H   0  0  0  0  0  0  0  0  0  0  0  0
   -5.9996    0.3541    1.5829 H   0  0  0  0  0  0  0  0  0  0  0  0
   -4.0787    4.1798    1.3160 H   0  0  0  0  0  0  0  0  0  0  0  0
    2.5823   -5.0232   -0.9301 H   0  0  0  0  0  0  0  0  0  0  0  0
   -0.4649   -5.0623    2.0990 H   0  0  0  0  0  0  0  0  0  0  0  0
   -5.7408    2.6749    2.3772 H   0  0  0  0  0  0  0  0  0  0  0  0
    1.3893   -6.1952    0.9020 H   0  0  0  0  0  0  0  0  0  0  0  0
  1 15  1  0  0  0  0
  2 19  1  0  0  0  0
  2 20  1  0  0  0  0
  3 14  2  0  0  0  0
  4  5  1  0  0  0  0
  4  8  1  0  0  0  0
  4 11  1  0  0  0  0
  5 10  2  0  0  0  0
  6 14  1  0  0  0  0
  6 19  1  0  0  0  0
  6 31  1  0  0  0  0
  7 19  2  0  0  0  0
  7 21  1  0  0  0  0
  8 12  1  0  0  0  0
  8 28  1  0  0  0  0
  8 29  1  0  0  0  0
  9 10  1  0  0  0  0
  9 11  2  0  0  0  0
  9 14  1  0  0  0  0
 10 13  1  0  0  0  0
 11 30  1  0  0  0  0
 12 15  1  0  0  0  0
 12 16  2  0  0  0  0
 13 17  2  0  0  0  0
 13 18  1  0  0  0  0
 15 22  2  0  0  0  0
 16 23  1  0  0  0  0
 16 32  1  0  0  0  0
 17 24  1  0  0  0  0
 17 33  1  0  0  0  0
 18 25  2  0  0  0  0
 18 34  1  0  0  0  0
 20 21  1  0  0  0  0
 20 35  1  0  0  0  0
 20 36  1  0  0  0  0
 21 37  1  0  0  0  0
 21 38  1  0  0  0  0
 22 26  1  0  0  0  0
 22 39  1  0  0  0  0
 23 26  2  0  0  0  0
 23 40  1  0  0  0  0
 24 27  2  0  0  0  0
 24 41  1  0  0  0  0
 25 27  1  0  0  0  0
 25 42  1  0  0  0  0
 26 43  1  0  0  0  0
 27 44  1  0  0  0  0
M  END
> <PUBCHEM_COMPOUND_CID>
17395614

> <PUBCHEM_CONFORMER_RMSD>
0.8

> <PUBCHEM_CONFORMER_DIVERSEORDER>
1
232
112
265
109
93
4
78
234
226
219
142
230
239
167
196
240
149
153
269
217
236
146
268
170
274
145
98
65
134
148
104
172
245
238
152
189
124
212
158
99
91
197
19
130
131
64
209
13
51
121
74
252
135
282
237
6
107
97
87
262
160
32
227
85
70
183
180
168
256
176
103
159
233
47
154
26
116
43
17
71
41
206
96
95
115
213
119
80
228
224
101
181
21
162
272
255
50
221
254
132
199
75
62
151
210
76
128
182
207
260
92
193
246
249
258
279
203
270
208
261
155
2
127
72
263
223
22
28
163
267
9
137
114
141
111
77
204
44
276
259
5
283
266
173
67
30
139
79
63
243
52
188
216
123
280
147
82
235
31
264
150
281
144
118
90
12
88
113
105
58
248
179
45
54
174
215
192
56
200
55
25
205
11
24
15
271
211
14
106
33
61
129
195
122
241
59
253
7
20
69
53
231
244
117
169
16
49
214
46
3
222
156
194
10
110
140
81
73
187
143
191
100
250
273
83
120
40
201
34
177
185
89
37
186
68
108
242
171
48
86
84
102
8
277
136
133
35
202
66
138
198
18
164
42
218
251
178
36
126
225
60
275
161
94
27
29
175
278
220
157
247
39
38
190
125
184
165
23
257
57
229
166

> <PUBCHEM_MMFF94_PARTIAL_CHARGES>
38
1 -0.18
10 0.23
11 -0.3
12 -0.14
13 0.05
14 0.72
15 0.18
16 -0.15
17 -0.15
18 -0.15
19 0.65
2 -0.37
20 0.23
21 0.25
22 -0.15
23 -0.15
24 -0.15
25 -0.15
26 -0.15
27 -0.15
3 -0.57
30 0.15
31 0.37
32 0.15
33 0.15
34 0.15
39 0.15
4 0.31
40 0.15
41 0.15
42 0.15
43 0.15
44 0.15
5 -0.71
6 -0.49
7 -0.7
8 0.4
9 -0.09

> <PUBCHEM_EFFECTIVE_ROTOR_COUNT>
6.6

> <PUBCHEM_PHARMACOPHORE_FEATURES>
7
1 3 acceptor
1 5 acceptor
1 6 donor
5 2 7 19 20 21 rings
5 4 5 9 10 11 rings
6 12 15 16 22 23 26 rings
6 13 17 18 24 25 27 rings

> <PUBCHEM_HEAVY_ATOM_COUNT>
27

> <PUBCHEM_ATOM_DEF_STEREO_COUNT>
0

> <PUBCHEM_ATOM_UDEF_STEREO_COUNT>
0

> <PUBCHEM_BOND_DEF_STEREO_COUNT>
0

> <PUBCHEM_BOND_UDEF_STEREO_COUNT>
0

> <PUBCHEM_ISOTOPIC_ATOM_COUNT>
0

> <PUBCHEM_COMPONENT_COUNT>
1

> <PUBCHEM_CACTVS_TAUTO_COUNT>
3

> <PUBCHEM_CONFORMER_ID>
01096F9E00000001

> <PUBCHEM_MMFF94_ENERGY>
72.1427

> <PUBCHEM_FEATURE_SELFOVERLAP>
35.52

> <PUBCHEM_SHAPE_FINGERPRINT>
10074138 170 17979933617830590338
11049842 53 18127667402100806270
12160290 23 17690316748863183446
12293681 160 17760119257474725911
12390115 104 18336819789090972052
12553582 1 17475523154016420551
12788726 201 17975997366050866174
12988421 55 18339377300461187412
13140716 1 18412548738363660046
13533116 47 18197770219447464329
13540713 5 17897179107616749973
13583140 156 18053104205641593373
13590594 115 17543910565033351784
13955234 65 18267578203134473835
14565420 104 18408879668246654521
14790565 3 18410293592960439628
14849402 71 18266735960501636090
14955137 171 17686332479312050463
15081414 286 17976263757424108510
15664445 248 17682388496949383630
15842332 3 17751667526582534431
15878777 1 16669153128390185678
15927050 60 18408886213956629262
17980427 26 18336274538745108134
18393751 57 18270114613589047649
18785283 64 18268713973177011770
19246450 95 17910150050595679704
19319366 153 18334015012406751177
20739085 24 18201151161114498764
21033650 10 17824240653982864092
21120745 212 17261298212274158340
21304303 172 17690274911450245999
21756936 100 18114749226569023900
21796203 349 17619321635483188259
23559900 14 17908427197267757761
23845131 108 18341895173614339235
283562 15 18265625273326901087
3411729 13 18261107538777088149
392239 28 18192700147772041545
394222 165 18261394519722719227
4058900 60 18409720785888561544
633830 44 18260550051726850692
6371380 46 18337379510003914222
6442390 28 18340480084600114252
6691757 9 18122653603503931336
6700243 42 16966845717554477276
6703917 75 18267000796553723468
79837 15 18268147561173897354
9981440 41 18341045233988241809

> <PUBCHEM_SHAPE_MULTIPOLES>
535.57
11.64
6.99
1.21
1.52
9.12
-0.05
-17.76
-3.44
5.5
-1.98
-1
0
-0.62

> <PUBCHEM_SHAPE_SELFOVERLAP>
1149.814

> <PUBCHEM_SHAPE_VOLUME>
298.5

> <PUBCHEM_COORDINATE_TYPE>
2
5
10

$$$$

