12997
  -OEChem-06261207382D

 28 27  0     0  0  0  0  0  0999 V2000
    6.8671   -0.1550    0.0000 C   0  0  0  0  0  0  0  0  0  0  0  0
    7.7331   -0.6550    0.0000 C   0  0  0  0  0  0  0  0  0  0  0  0
    6.0010   -0.6550    0.0000 C   0  0  0  0  0  0  0  0  0  0  0  0
    8.5991   -0.1550    0.0000 C   0  0  0  0  0  0  0  0  0  0  0  0
    5.1350   -0.1550    0.0000 C   0  0  0  0  0  0  0  0  0  0  0  0
    9.4651   -0.6550    0.0000 C   0  0  0  0  0  0  0  0  0  0  0  0
    4.2690   -0.6550    0.0000 C   0  0  0  0  0  0  0  0  0  0  0  0
   10.3312   -0.1550    0.0000 C   0  0  0  0  0  0  0  0  0  0  0  0
    3.4030   -0.1550    0.0000 C   0  0  0  0  0  0  0  0  0  0  0  0
    2.5369    0.3450    0.0000 C   0  0  0  0  0  0  0  0  0  0  0  0
    7.2656    0.3199    0.0000 H   0  0  0  0  0  0  0  0  0  0  0  0
    6.4685    0.3199    0.0000 H   0  0  0  0  0  0  0  0  0  0  0  0
    7.3346   -1.1300    0.0000 H   0  0  0  0  0  0  0  0  0  0  0  0
    8.1316   -1.1300    0.0000 H   0  0  0  0  0  0  0  0  0  0  0  0
    5.6025   -1.1300    0.0000 H   0  0  0  0  0  0  0  0  0  0  0  0
    6.3996   -1.1300    0.0000 H   0  0  0  0  0  0  0  0  0  0  0  0
    8.9976    0.3199    0.0000 H   0  0  0  0  0  0  0  0  0  0  0  0
    8.2006    0.3199    0.0000 H   0  0  0  0  0  0  0  0  0  0  0  0
    5.5335    0.3199    0.0000 H   0  0  0  0  0  0  0  0  0  0  0  0
    4.7365    0.3199    0.0000 H   0  0  0  0  0  0  0  0  0  0  0  0
    9.0666   -1.1300    0.0000 H   0  0  0  0  0  0  0  0  0  0  0  0
    9.8637   -1.1300    0.0000 H   0  0  0  0  0  0  0  0  0  0  0  0
    3.8705   -1.1300    0.0000 H   0  0  0  0  0  0  0  0  0  0  0  0
    4.6675   -1.1300    0.0000 H   0  0  0  0  0  0  0  0  0  0  0  0
   10.6412   -0.6919    0.0000 H   0  0  0  0  0  0  0  0  0  0  0  0
   10.8681    0.1550    0.0000 H   0  0  0  0  0  0  0  0  0  0  0  0
   10.0212    0.3819    0.0000 H   0  0  0  0  0  0  0  0  0  0  0  0
    2.0000    0.6550    0.0000 H   0  0  0  0  0  0  0  0  0  0  0  0
  1  2  1  0  0  0  0
  1  3  1  0  0  0  0
  1 11  1  0  0  0  0
  1 12  1  0  0  0  0
  2  4  1  0  0  0  0
  2 13  1  0  0  0  0
  2 14  1  0  0  0  0
  3  5  1  0  0  0  0
  3 15  1  0  0  0  0
  3 16  1  0  0  0  0
  4  6  1  0  0  0  0
  4 17  1  0  0  0  0
  4 18  1  0  0  0  0
  5  7  1  0  0  0  0
  5 19  1  0  0  0  0
  5 20  1  0  0  0  0
  6  8  1  0  0  0  0
  6 21  1  0  0  0  0
  6 22  1  0  0  0  0
  7  9  1  0  0  0  0
  7 23  1  0  0  0  0
  7 24  1  0  0  0  0
  8 25  1  0  0  0  0
  8 26  1  0  0  0  0
  8 27  1  0  0  0  0
  9 10  3  0  0  0  0
 10 28  1  0  0  0  0
M  END
> <PUBCHEM_COMPOUND_CID>
12997

> <PUBCHEM_COMPOUND_CANONICALIZED>
1

> <PUBCHEM_CACTVS_COMPLEXITY>
93.9

> <PUBCHEM_CACTVS_HBOND_ACCEPTOR>
0

> <PUBCHEM_CACTVS_HBOND_DONOR>
0

> <PUBCHEM_CACTVS_ROTATABLE_BOND>
6

> <PUBCHEM_CACTVS_SUBSKEYS>
AAADceBwAAAAAAAAAAAAAAAAAAAAAAAAAAAAAAAAAAAAAAAAAAAAGAAAAAAACACAAAACAAAAAABAGAAAAAgAAAAAAAAAAAAAAAAAAAIAAAAAAAAAAAAAAAEAgIAAAAAAAAAAAAAAAAAAAAAAAAAAAAAAAA==

> <PUBCHEM_IUPAC_OPENEYE_NAME>
dec-1-yne

> <PUBCHEM_IUPAC_CAS_NAME>
1-decyne

> <PUBCHEM_IUPAC_NAME>
dec-1-yne

> <PUBCHEM_IUPAC_SYSTEMATIC_NAME>
dec-1-yne

> <PUBCHEM_IUPAC_TRADITIONAL_NAME>
dec-1-yne

> <PUBCHEM_IUPAC_INCHI>
InChI=1S/C10H18/c1-3-5-7-9-10-8-6-4-2/h1H,4-10H2,2H3

> <PUBCHEM_IUPAC_INCHIKEY>
ILLHQJIJCRNRCJ-UHFFFAOYSA-N

> <PUBCHEM_XLOGP3_AA>
4.6

> <PUBCHEM_EXACT_MASS>
138.140851

> <PUBCHEM_MOLECULAR_FORMULA>
C10H18

> <PUBCHEM_MOLECULAR_WEIGHT>
138.24992

> <PUBCHEM_OPENEYE_CAN_SMILES>
CCCCCCCCC#C

> <PUBCHEM_OPENEYE_ISO_SMILES>
CCCCCCCCC#C

> <PUBCHEM_CACTVS_TPSA>
0

> <PUBCHEM_MONOISOTOPIC_WEIGHT>
138.140851

> <PUBCHEM_TOTAL_CHARGE>
0

> <PUBCHEM_HEAVY_ATOM_COUNT>
10

> <PUBCHEM_ATOM_DEF_STEREO_COUNT>
0

> <PUBCHEM_ATOM_UDEF_STEREO_COUNT>
0

> <PUBCHEM_BOND_DEF_STEREO_COUNT>
0

> <PUBCHEM_BOND_UDEF_STEREO_COUNT>
0

> <PUBCHEM_ISOTOPIC_ATOM_COUNT>
0

> <PUBCHEM_COMPONENT_COUNT>
1

> <PUBCHEM_CACTVS_TAUTO_COUNT>
1

> <PUBCHEM_COORDINATE_TYPE>
1
5
255

$$$$

