8618
  -OEChem-06261202573D

 14 13  0     0  0  0  0  0  0999 V2000
    0.4784    1.7932   -0.0066 O   0  0  0  0  0  0  0  0  0  0  0  0
    3.0044    0.6665   -0.0039 O   0  0  0  0  0  0  0  0  0  0  0  0
    2.0223   -1.4874    0.0028 O   0  0  0  0  0  0  0  0  0  0  0  0
   -0.5730   -1.6785   -0.0067 O   0  0  0  0  0  0  0  0  0  0  0  0
   -2.8760   -0.7433   -0.0088 O   0  0  0  0  0  0  0  0  0  0  0  0
   -2.0569    1.4041    0.0016 O   0  0  0  0  0  0  0  0  0  0  0  0
    0.6334    0.4173    0.0023 C   0  0  0  0  0  0  0  0  0  0  0  0
   -0.5774   -0.4565    0.0086 C   0  0  0  0  0  0  0  0  0  0  0  0
    1.8678   -0.1133    0.0019 C   0  0  0  0  0  0  0  0  0  0  0  0
   -1.9230    0.1978    0.0087 C   0  0  0  0  0  0  0  0  0  0  0  0
    1.3635    2.1974   -0.0107 H   0  0  0  0  0  0  0  0  0  0  0  0
    3.7660    0.0627   -0.0051 H   0  0  0  0  0  0  0  0  0  0  0  0
    2.9775   -1.6670    0.0005 H   0  0  0  0  0  0  0  0  0  0  0  0
   -3.7783   -0.3585   -0.0207 H   0  0  0  0  0  0  0  0  0  0  0  0
  1  7  1  0  0  0  0
  1 11  1  0  0  0  0
  2  9  1  0  0  0  0
  2 12  1  0  0  0  0
  3  9  1  0  0  0  0
  3 13  1  0  0  0  0
  4  8  2  0  0  0  0
  5 10  1  0  0  0  0
  5 14  1  0  0  0  0
  6 10  2  0  0  0  0
  7  8  1  0  0  0  0
  7  9  2  0  0  0  0
  8 10  1  0  0  0  0
M  END
> <PUBCHEM_COMPOUND_CID>
8618

> <PUBCHEM_CONFORMER_RMSD>
0.4

> <PUBCHEM_CONFORMER_DIVERSEORDER>
1
2
5
4
3

> <PUBCHEM_MMFF94_PARTIAL_CHARGES>
14
1 -0.53
10 0.72
11 0.45
12 0.45
13 0.45
14 0.5
2 -0.53
3 -0.53
4 -0.57
5 -0.65
6 -0.57
7 0.09
8 0.56
9 0.15

> <PUBCHEM_EFFECTIVE_ROTOR_COUNT>
2

> <PUBCHEM_PHARMACOPHORE_FEATURES>
8
1 1 donor
1 2 donor
1 3 donor
1 4 acceptor
1 5 acceptor
1 6 acceptor
3 2 3 9 anion
3 5 6 10 anion

> <PUBCHEM_HEAVY_ATOM_COUNT>
10

> <PUBCHEM_ATOM_DEF_STEREO_COUNT>
0

> <PUBCHEM_ATOM_UDEF_STEREO_COUNT>
0

> <PUBCHEM_BOND_DEF_STEREO_COUNT>
0

> <PUBCHEM_BOND_UDEF_STEREO_COUNT>
0

> <PUBCHEM_ISOTOPIC_ATOM_COUNT>
0

> <PUBCHEM_COMPONENT_COUNT>
1

> <PUBCHEM_CACTVS_TAUTO_COUNT>
4

> <PUBCHEM_CONFORMER_ID>
000021AA00000001

> <PUBCHEM_MMFF94_ENERGY>
16.7892

> <PUBCHEM_FEATURE_SELFOVERLAP>
40.709

> <PUBCHEM_SHAPE_FINGERPRINT>
12932764 1 17385452011296787910
14325111 11 18410575114854528481
14390081 3 18334860502277464176
16945 1 18338797805987084971
21040471 1 18410856564119431650
23552423 10 18200026373419185750
2748010 2 18338797934820273287
29004967 10 18341890783936080176
5084963 1 18259703380765887387

> <PUBCHEM_SHAPE_MULTIPOLES>
170.58
3.77
1.57
0.55
0.18
0.03
0
0
0
0
0
0
0
0

> <PUBCHEM_SHAPE_SELFOVERLAP>
341.401

> <PUBCHEM_SHAPE_VOLUME>
97.8

> <PUBCHEM_COORDINATE_TYPE>
2
5
10

$$$$

