17396438
  -OEChem-06241222562D

 39 42  0     1  0  0  0  0  0999 V2000
    4.6783    0.0057    0.0000 S   0  0  0  0  0  0  0  0  0  0  0  0
    7.7619    1.7990    0.0000 O   0  0  0  0  0  0  0  0  0  0  0  0
    7.7619    0.0670    0.0000 N   0  0  0  0  0  0  0  0  0  0  0  0
    4.6783   -1.6038    0.0000 N   0  0  0  0  0  0  0  0  0  0  0  0
    9.7619    0.0670    0.0000 N   0  0  0  0  0  0  0  0  0  0  0  0
   10.7619    1.7990    0.0000 N   0  0  0  0  0  0  0  0  0  0  0  0
    6.2619   -0.7990    0.0000 C   0  0  3  0  0  0  0  0  0  0  0  0
    6.7619   -1.6651    0.0000 C   0  0  0  0  0  0  0  0  0  0  0  0
    6.7619    0.0670    0.0000 C   0  0  0  0  0  0  0  0  0  0  0  0
    7.7619   -1.6651    0.0000 C   0  0  0  0  0  0  0  0  0  0  0  0
    8.2619   -0.7990    0.0000 C   0  0  0  0  0  0  0  0  0  0  0  0
    5.2619   -0.7990    0.0000 C   0  0  0  0  0  0  0  0  0  0  0  0
    8.2619    0.9330    0.0000 C   0  0  0  0  0  0  0  0  0  0  0  0
    3.7320   -0.2990    0.0000 C   0  0  0  0  0  0  0  0  0  0  0  0
    3.7320   -1.2990    0.0000 C   0  0  0  0  0  0  0  0  0  0  0  0
    9.2619    0.9330    0.0000 C   0  0  0  0  0  0  0  0  0  0  0  0
    2.8660    0.2010    0.0000 C   0  0  0  0  0  0  0  0  0  0  0  0
    2.8660   -1.7990    0.0000 C   0  0  0  0  0  0  0  0  0  0  0  0
    9.7619    1.7990    0.0000 C   0  0  0  0  0  0  0  0  0  0  0  0
    2.0000   -0.2990    0.0000 C   0  0  0  0  0  0  0  0  0  0  0  0
    2.0000   -1.2990    0.0000 C   0  0  0  0  0  0  0  0  0  0  0  0
   10.7619    0.0670    0.0000 C   0  0  0  0  0  0  0  0  0  0  0  0
   11.2619    0.9330    0.0000 C   0  0  0  0  0  0  0  0  0  0  0  0
    5.9519   -1.3360    0.0000 H   0  0  0  0  0  0  0  0  0  0  0  0
    6.1793   -1.8771    0.0000 H   0  0  0  0  0  0  0  0  0  0  0  0
    6.8695   -2.2756    0.0000 H   0  0  0  0  0  0  0  0  0  0  0  0
    6.8695    0.6776    0.0000 H   0  0  0  0  0  0  0  0  0  0  0  0
    6.1793    0.2790    0.0000 H   0  0  0  0  0  0  0  0  0  0  0  0
    7.6542   -2.2756    0.0000 H   0  0  0  0  0  0  0  0  0  0  0  0
    8.3445   -1.8771    0.0000 H   0  0  0  0  0  0  0  0  0  0  0  0
    8.7368   -1.1976    0.0000 H   0  0  0  0  0  0  0  0  0  0  0  0
    8.7368   -0.4005    0.0000 H   0  0  0  0  0  0  0  0  0  0  0  0
    2.8660    0.8210    0.0000 H   0  0  0  0  0  0  0  0  0  0  0  0
    2.8660   -2.4190    0.0000 H   0  0  0  0  0  0  0  0  0  0  0  0
    9.4519    2.3360    0.0000 H   0  0  0  0  0  0  0  0  0  0  0  0
    1.4631    0.0110    0.0000 H   0  0  0  0  0  0  0  0  0  0  0  0
    1.4631   -1.6090    0.0000 H   0  0  0  0  0  0  0  0  0  0  0  0
   11.0719   -0.4699    0.0000 H   0  0  0  0  0  0  0  0  0  0  0  0
   11.8819    0.9330    0.0000 H   0  0  0  0  0  0  0  0  0  0  0  0
  1 12  1  0  0  0  0
  1 14  1  0  0  0  0
  2 13  2  0  0  0  0
  3  9  1  0  0  0  0
  3 11  1  0  0  0  0
  3 13  1  0  0  0  0
  4 12  2  0  0  0  0
  4 15  1  0  0  0  0
  5 16  2  0  0  0  0
  5 22  1  0  0  0  0
  6 19  2  0  0  0  0
  6 23  1  0  0  0  0
  7  8  1  0  0  0  0
  7  9  1  0  0  0  0
  7 12  1  0  0  0  0
  7 24  1  0  0  0  0
  8 10  1  0  0  0  0
  8 25  1  0  0  0  0
  8 26  1  0  0  0  0
  9 27  1  0  0  0  0
  9 28  1  0  0  0  0
 10 11  1  0  0  0  0
 10 29  1  0  0  0  0
 10 30  1  0  0  0  0
 11 31  1  0  0  0  0
 11 32  1  0  0  0  0
 13 16  1  0  0  0  0
 14 15  1  0  0  0  0
 14 17  2  0  0  0  0
 15 18  2  0  0  0  0
 16 19  1  0  0  0  0
 17 20  1  0  0  0  0
 17 33  1  0  0  0  0
 18 21  1  0  0  0  0
 18 34  1  0  0  0  0
 19 35  1  0  0  0  0
 20 21  2  0  0  0  0
 20 36  1  0  0  0  0
 21 37  1  0  0  0  0
 22 23  2  0  0  0  0
 22 38  1  0  0  0  0
 23 39  1  0  0  0  0
M  END
> <PUBCHEM_COMPOUND_CID>
17396438

> <PUBCHEM_COMPOUND_CANONICALIZED>
1

> <PUBCHEM_CACTVS_COMPLEXITY>
435

> <PUBCHEM_CACTVS_HBOND_ACCEPTOR>
5

> <PUBCHEM_CACTVS_HBOND_DONOR>
0

> <PUBCHEM_CACTVS_ROTATABLE_BOND>
2

> <PUBCHEM_CACTVS_SUBSKEYS>
AAADceB7oABAAAAAAAAAAAAAAAAAAWAAAAA8WIAAAAAAAFgB/AAAHgQAAAAADQjB1gQ8wbMIEAisATV3VACD8KR3GjhI2D24dNgIYOrg0bGUIIhghgDoyMcQAAAMAAAAAAAAAQAAAAAAAAACAAAAAAAAAA==

> <PUBCHEM_IUPAC_OPENEYE_NAME>
[3-(1,3-benzothiazol-2-yl)-1-piperidyl]-pyrazin-2-yl-methanone

> <PUBCHEM_IUPAC_CAS_NAME>
[3-(1,3-benzothiazol-2-yl)-1-piperidinyl]-(2-pyrazinyl)methanone

> <PUBCHEM_IUPAC_NAME>
[3-(1,3-benzothiazol-2-yl)piperidin-1-yl]-pyrazin-2-ylmethanone

> <PUBCHEM_IUPAC_SYSTEMATIC_NAME>
[3-(1,3-benzothiazol-2-yl)piperidin-1-yl]-pyrazin-2-yl-methanone

> <PUBCHEM_IUPAC_TRADITIONAL_NAME>
[3-(1,3-benzothiazol-2-yl)piperidino]-pyrazin-2-yl-methanone

> <PUBCHEM_IUPAC_INCHI>
InChI=1S/C17H16N4OS/c22-17(14-10-18-7-8-19-14)21-9-3-4-12(11-21)16-20-13-5-1-2-6-15(13)23-16/h1-2,5-8,10,12H,3-4,9,11H2

> <PUBCHEM_IUPAC_INCHIKEY>
VEBPYINRZLVGIE-UHFFFAOYSA-N

> <PUBCHEM_XLOGP3_AA>
2.3

> <PUBCHEM_EXACT_MASS>
324.104482

> <PUBCHEM_MOLECULAR_FORMULA>
C17H16N4OS

> <PUBCHEM_MOLECULAR_WEIGHT>
324.40014

> <PUBCHEM_OPENEYE_CAN_SMILES>
C1CC(CN(C1)C(=O)C2=NC=CN=C2)C3=NC4=CC=CC=C4S3

> <PUBCHEM_OPENEYE_ISO_SMILES>
C1CC(CN(C1)C(=O)C2=NC=CN=C2)C3=NC4=CC=CC=C4S3

> <PUBCHEM_CACTVS_TPSA>
87.2

> <PUBCHEM_MONOISOTOPIC_WEIGHT>
324.104482

> <PUBCHEM_TOTAL_CHARGE>
0

> <PUBCHEM_HEAVY_ATOM_COUNT>
23

> <PUBCHEM_ATOM_DEF_STEREO_COUNT>
0

> <PUBCHEM_ATOM_UDEF_STEREO_COUNT>
1

> <PUBCHEM_BOND_DEF_STEREO_COUNT>
0

> <PUBCHEM_BOND_UDEF_STEREO_COUNT>
0

> <PUBCHEM_ISOTOPIC_ATOM_COUNT>
0

> <PUBCHEM_COMPONENT_COUNT>
1

> <PUBCHEM_CACTVS_TAUTO_COUNT>
1

> <PUBCHEM_COORDINATE_TYPE>
1
5
255

> <PUBCHEM_BONDANNOTATIONS>
1  12  8
1  14  8
14  15  8
14  17  8
15  18  8
16  19  8
17  20  8
18  21  8
20  21  8
22  23  8
4  12  8
4  15  8
5  16  8
5  22  8
6  19  8
6  23  8
7  12  3

$$$$

