13851
  -OEChem-06241222402D

  9  9  0     0  0  0  0  0  0999 V2000
    4.5691   -0.4907    0.0000 Br  0  0  0  0  0  0  0  0  0  0  0  0
    2.8090   -0.7694    0.0000 S   0  0  0  0  0  0  0  0  0  0  0  0
    3.3090    0.7694    0.0000 C   0  0  0  0  0  0  0  0  0  0  0  0
    2.3090    0.7694    0.0000 C   0  0  0  0  0  0  0  0  0  0  0  0
    3.6180   -0.1816    0.0000 C   0  0  0  0  0  0  0  0  0  0  0  0
    2.0000   -0.1816    0.0000 C   0  0  0  0  0  0  0  0  0  0  0  0
    3.6734    1.2710    0.0000 H   0  0  0  0  0  0  0  0  0  0  0  0
    1.9446    1.2710    0.0000 H   0  0  0  0  0  0  0  0  0  0  0  0
    1.4103   -0.3732    0.0000 H   0  0  0  0  0  0  0  0  0  0  0  0
  1  5  1  0  0  0  0
  2  5  1  0  0  0  0
  2  6  1  0  0  0  0
  3  4  1  0  0  0  0
  3  5  2  0  0  0  0
  3  7  1  0  0  0  0
  4  6  2  0  0  0  0
  4  8  1  0  0  0  0
  6  9  1  0  0  0  0
M  END
> <PUBCHEM_COMPOUND_CID>
13851

> <PUBCHEM_COMPOUND_CANONICALIZED>
1

> <PUBCHEM_CACTVS_COMPLEXITY>
46.8

> <PUBCHEM_CACTVS_HBOND_ACCEPTOR>
1

> <PUBCHEM_CACTVS_HBOND_DONOR>
0

> <PUBCHEM_CACTVS_ROTATABLE_BOND>
0

> <PUBCHEM_CACTVS_SUBSKEYS>
AAADcQBgAABAEAAAAAAAAAAAAAAAASAAAAAAAAAAAAAAAAABgAAAGARAAAABKACEUACwAYAAAAiEACBCAAADAIAgCBRIiBgAAKgIIAAgAQAAAAAAAAAgAhAAAAAAAAAAAAAAAAAAAAAAAAAAAAAAAAAAAA==

> <PUBCHEM_IUPAC_OPENEYE_NAME>
2-bromothiophene

> <PUBCHEM_IUPAC_CAS_NAME>
2-bromothiophene

> <PUBCHEM_IUPAC_NAME>
2-bromothiophene

> <PUBCHEM_IUPAC_SYSTEMATIC_NAME>
2-bromanylthiophene

> <PUBCHEM_IUPAC_TRADITIONAL_NAME>
2-bromothiophene

> <PUBCHEM_IUPAC_INCHI>
InChI=1S/C4H3BrS/c5-4-2-1-3-6-4/h1-3H

> <PUBCHEM_IUPAC_INCHIKEY>
TUCRZHGAIRVWTI-UHFFFAOYSA-N

> <PUBCHEM_XLOGP3>
2.8

> <PUBCHEM_EXACT_MASS>
161.913883

> <PUBCHEM_MOLECULAR_FORMULA>
C4H3BrS

> <PUBCHEM_MOLECULAR_WEIGHT>
163.03562

> <PUBCHEM_OPENEYE_CAN_SMILES>
C1=CSC(=C1)Br

> <PUBCHEM_OPENEYE_ISO_SMILES>
C1=CSC(=C1)Br

> <PUBCHEM_CACTVS_TPSA>
28.2

> <PUBCHEM_MONOISOTOPIC_WEIGHT>
161.913883

> <PUBCHEM_TOTAL_CHARGE>
0

> <PUBCHEM_HEAVY_ATOM_COUNT>
6

> <PUBCHEM_ATOM_DEF_STEREO_COUNT>
0

> <PUBCHEM_ATOM_UDEF_STEREO_COUNT>
0

> <PUBCHEM_BOND_DEF_STEREO_COUNT>
0

> <PUBCHEM_BOND_UDEF_STEREO_COUNT>
0

> <PUBCHEM_ISOTOPIC_ATOM_COUNT>
0

> <PUBCHEM_COMPONENT_COUNT>
1

> <PUBCHEM_CACTVS_TAUTO_COUNT>
1

> <PUBCHEM_COORDINATE_TYPE>
1
5
255

> <PUBCHEM_BONDANNOTATIONS>
2  5  8
2  6  8
3  4  8
3  5  8
4  6  8

$$$$

