583025
  -OEChem-06241222442D

 54 57  0     1  0  0  0  0  0999 V2000
    4.6660   -0.0181    0.0000 N   0  0  3  0  0  0  0  0  0  0  0  0
    6.4783   -1.8229    0.0000 N   0  0  0  0  0  0  0  0  0  0  0  0
    4.6660   -2.0182    0.0000 N   0  0  0  0  0  0  0  0  0  0  0  0
    8.0619   -1.0182    0.0000 N   0  0  0  0  0  0  0  0  0  0  0  0
    5.5321   -0.5181    0.0000 C   0  0  3  0  0  0  0  0  0  0  0  0
    6.4783   -0.2134    0.0000 C   0  0  3  0  0  0  0  0  0  0  0  0
    5.5321   -1.5182    0.0000 C   0  0  3  0  0  0  0  0  0  0  0  0
    7.0619   -1.0182    0.0000 C   0  0  0  0  0  0  0  0  0  0  0  0
    3.8000   -0.5181    0.0000 C   0  0  0  0  0  0  0  0  0  0  0  0
    6.7889    0.7371    0.0000 C   0  0  0  0  0  0  0  0  0  0  0  0
    3.8000   -1.5182    0.0000 C   0  0  0  0  0  0  0  0  0  0  0  0
    4.6660    0.9819    0.0000 C   0  0  0  0  0  0  0  0  0  0  0  0
    8.5619   -1.8842    0.0000 C   0  0  0  0  0  0  0  0  0  0  0  0
    8.5619   -0.1521    0.0000 C   0  0  0  0  0  0  0  0  0  0  0  0
    2.9061    0.0165    0.0000 C   0  0  0  0  0  0  0  0  0  0  0  0
    7.7674    0.9433    0.0000 C   0  0  0  0  0  0  0  0  0  0  0  0
    6.1211    1.4814    0.0000 C   0  0  0  0  0  0  0  0  0  0  0  0
    2.9061   -2.0528    0.0000 C   0  0  0  0  0  0  0  0  0  0  0  0
    3.8000    1.4818    0.0000 C   0  0  0  0  0  0  0  0  0  0  0  0
    2.0000   -0.4973    0.0000 C   0  0  0  0  0  0  0  0  0  0  0  0
    2.0000   -1.5390    0.0000 C   0  0  0  0  0  0  0  0  0  0  0  0
    8.0781    1.8938    0.0000 C   0  0  0  0  0  0  0  0  0  0  0  0
    6.4318    2.4319    0.0000 C   0  0  0  0  0  0  0  0  0  0  0  0
    9.5619   -0.1521    0.0000 C   0  0  0  0  0  0  0  0  0  0  0  0
    9.5619   -1.8842    0.0000 C   0  0  0  0  0  0  0  0  0  0  0  0
    7.4103    2.6382    0.0000 C   0  0  0  0  0  0  0  0  0  0  0  0
    5.5977    0.0984    0.0000 H   0  0  0  0  0  0  0  0  0  0  0  0
    7.0908   -0.1172    0.0000 H   0  0  0  0  0  0  0  0  0  0  0  0
    5.5977   -2.1347    0.0000 H   0  0  0  0  0  0  0  0  0  0  0  0
    4.6660   -2.6382    0.0000 H   0  0  0  0  0  0  0  0  0  0  0  0
    5.2766    0.8742    0.0000 H   0  0  0  0  0  0  0  0  0  0  0  0
    4.8781    1.5645    0.0000 H   0  0  0  0  0  0  0  0  0  0  0  0
    7.9793   -2.0962    0.0000 H   0  0  0  0  0  0  0  0  0  0  0  0
    8.6695   -2.4947    0.0000 H   0  0  0  0  0  0  0  0  0  0  0  0
    8.6695    0.4585    0.0000 H   0  0  0  0  0  0  0  0  0  0  0  0
    7.9793    0.0599    0.0000 H   0  0  0  0  0  0  0  0  0  0  0  0
    2.9132    0.6365    0.0000 H   0  0  0  0  0  0  0  0  0  0  0  0
    8.1815    0.4819    0.0000 H   0  0  0  0  0  0  0  0  0  0  0  0
    5.5144    1.3536    0.0000 H   0  0  0  0  0  0  0  0  0  0  0  0
    2.9132   -2.6728    0.0000 H   0  0  0  0  0  0  0  0  0  0  0  0
    4.1100    2.0188    0.0000 H   0  0  0  0  0  0  0  0  0  0  0  0
    3.2631    1.7918    0.0000 H   0  0  0  0  0  0  0  0  0  0  0  0
    3.4900    0.9449    0.0000 H   0  0  0  0  0  0  0  0  0  0  0  0
    1.4643   -0.1853    0.0000 H   0  0  0  0  0  0  0  0  0  0  0  0
    1.4643   -1.8510    0.0000 H   0  0  0  0  0  0  0  0  0  0  0  0
    9.5619   -0.7721    0.0000 H   0  0  0  0  0  0  0  0  0  0  0  0
   10.1819   -0.1521    0.0000 H   0  0  0  0  0  0  0  0  0  0  0  0
    9.5619    0.4679    0.0000 H   0  0  0  0  0  0  0  0  0  0  0  0
    9.5619   -2.5042    0.0000 H   0  0  0  0  0  0  0  0  0  0  0  0
   10.1819   -1.8842    0.0000 H   0  0  0  0  0  0  0  0  0  0  0  0
    9.5619   -1.2642    0.0000 H   0  0  0  0  0  0  0  0  0  0  0  0
    8.6848    2.0217    0.0000 H   0  0  0  0  0  0  0  0  0  0  0  0
    6.0177    2.8934    0.0000 H   0  0  0  0  0  0  0  0  0  0  0  0
    7.6029    3.2275    0.0000 H   0  0  0  0  0  0  0  0  0  0  0  0
  1  5  1  0  0  0  0
  1  9  1  0  0  0  0
  1 12  1  0  0  0  0
  2  7  1  0  0  0  0
  2  8  2  0  0  0  0
  3  7  1  0  0  0  0
  3 11  1  0  0  0  0
  3 30  1  0  0  0  0
  4  8  1  0  0  0  0
  4 13  1  0  0  0  0
  4 14  1  0  0  0  0
  5  6  1  0  0  0  0
  5  7  1  0  0  0  0
  5 27  1  0  0  0  0
  6  8  1  0  0  0  0
  6 10  1  0  0  0  0
  6 28  1  0  0  0  0
  7 29  1  0  0  0  0
  9 11  1  0  0  0  0
  9 15  2  0  0  0  0
 10 16  2  0  0  0  0
 10 17  1  0  0  0  0
 11 18  2  0  0  0  0
 12 19  1  0  0  0  0
 12 31  1  0  0  0  0
 12 32  1  0  0  0  0
 13 25  1  0  0  0  0
 13 33  1  0  0  0  0
 13 34  1  0  0  0  0
 14 24  1  0  0  0  0
 14 35  1  0  0  0  0
 14 36  1  0  0  0  0
 15 20  1  0  0  0  0
 15 37  1  0  0  0  0
 16 22  1  0  0  0  0
 16 38  1  0  0  0  0
 17 23  2  0  0  0  0
 17 39  1  0  0  0  0
 18 21  1  0  0  0  0
 18 40  1  0  0  0  0
 19 41  1  0  0  0  0
 19 42  1  0  0  0  0
 19 43  1  0  0  0  0
 20 21  2  0  0  0  0
 20 44  1  0  0  0  0
 21 45  1  0  0  0  0
 22 26  2  0  0  0  0
 22 52  1  0  0  0  0
 23 26  1  0  0  0  0
 23 53  1  0  0  0  0
 24 46  1  0  0  0  0
 24 47  1  0  0  0  0
 24 48  1  0  0  0  0
 25 49  1  0  0  0  0
 25 50  1  0  0  0  0
 25 51  1  0  0  0  0
 26 54  1  0  0  0  0
M  END
> <PUBCHEM_COMPOUND_CID>
583025

> <PUBCHEM_COMPOUND_CANONICALIZED>
1

> <PUBCHEM_CACTVS_COMPLEXITY>
494

> <PUBCHEM_CACTVS_HBOND_ACCEPTOR>
3

> <PUBCHEM_CACTVS_HBOND_DONOR>
1

> <PUBCHEM_CACTVS_ROTATABLE_BOND>
5

> <PUBCHEM_CACTVS_SUBSKEYS>
AAADceB7gAAAAAAAAAAAAAAAAAAAAQAAAAA8YIAAAAAAAECxQAAAHAAQAAAADSjBGAQzwIPAAACgAiZiZACCAAEhAgAJiIA4dIiIYCLA2ZGUIAhgkALIyCcQgMAOgAAAAAAAACAAAAAAAAAAQAAAAAAAAA==

> <PUBCHEM_IUPAC_OPENEYE_NAME>
N,N,4-triethyl-3-phenyl-3,3a,9,9a-tetrahydropyrrolo[2,3-b]quinoxalin-2-amine

> <PUBCHEM_IUPAC_CAS_NAME>
N,N,4-triethyl-3-phenyl-3,3a,9,9a-tetrahydropyrrolo[2,3-b]quinoxalin-2-amine

> <PUBCHEM_IUPAC_NAME>
N,N,4-triethyl-3-phenyl-3,3a,9,9a-tetrahydropyrrolo[2,3-b]quinoxalin-2-amine

> <PUBCHEM_IUPAC_SYSTEMATIC_NAME>
N,N,4-triethyl-3-phenyl-3,3a,9,9a-tetrahydropyrrolo[2,3-b]quinoxalin-2-amine

> <PUBCHEM_IUPAC_TRADITIONAL_NAME>
diethyl-(4-ethyl-3-phenyl-3,3a,9,9a-tetrahydropyrrolo[2,3-b]quinoxalin-2-yl)amine

> <PUBCHEM_IUPAC_INCHI>
InChI=1S/C22H28N4/c1-4-25(5-2)22-19(16-12-8-7-9-13-16)20-21(24-22)23-17-14-10-11-15-18(17)26(20)6-3/h7-15,19-21,23H,4-6H2,1-3H3

> <PUBCHEM_IUPAC_INCHIKEY>
FEAZVMDHAGNEQZ-UHFFFAOYSA-N

> <PUBCHEM_XLOGP3_AA>
3.9

> <PUBCHEM_EXACT_MASS>
348.231397

> <PUBCHEM_MOLECULAR_FORMULA>
C22H28N4

> <PUBCHEM_MOLECULAR_WEIGHT>
348.48452

> <PUBCHEM_OPENEYE_CAN_SMILES>
CCN1C2C(C(=NC2NC3=CC=CC=C31)N(CC)CC)C4=CC=CC=C4

> <PUBCHEM_OPENEYE_ISO_SMILES>
CCN1C2C(C(=NC2NC3=CC=CC=C31)N(CC)CC)C4=CC=CC=C4

> <PUBCHEM_CACTVS_TPSA>
30.9

> <PUBCHEM_MONOISOTOPIC_WEIGHT>
348.231397

> <PUBCHEM_TOTAL_CHARGE>
0

> <PUBCHEM_HEAVY_ATOM_COUNT>
26

> <PUBCHEM_ATOM_DEF_STEREO_COUNT>
0

> <PUBCHEM_ATOM_UDEF_STEREO_COUNT>
3

> <PUBCHEM_BOND_DEF_STEREO_COUNT>
0

> <PUBCHEM_BOND_UDEF_STEREO_COUNT>
0

> <PUBCHEM_ISOTOPIC_ATOM_COUNT>
0

> <PUBCHEM_COMPONENT_COUNT>
1

> <PUBCHEM_CACTVS_TAUTO_COUNT>
2

> <PUBCHEM_COORDINATE_TYPE>
1
5
255

> <PUBCHEM_BONDANNOTATIONS>
5  1  3
10  16  8
10  17  8
11  18  8
15  20  8
16  22  8
17  23  8
18  21  8
20  21  8
22  26  8
23  26  8
7  3  3
6  10  3
9  11  8
9  15  8

$$$$

