9790
  -OEChem-06261204043D

 14 13  0     1  0  0  0  0  0999 V2000
   -0.6932   -2.0497   -0.1282 Cl  0  0  0  0  0  0  0  0  0  0  0  0
   -2.2577    0.9026   -0.6573 Cl  0  0  0  0  0  0  0  0  0  0  0  0
    1.9071   -0.7390   -0.1374 F   0  0  0  0  0  0  0  0  0  0  0  0
    0.5422    0.4966   -1.2939 F   0  0  0  0  0  0  0  0  0  0  0  0
   -0.2815   -0.5071    0.7001 C   0  0  1  0  0  0  0  0  0  0  0  0
    0.8899    0.1607   -0.0258 C   0  0  0  0  0  0  0  0  0  0  0  0
   -1.5434    0.3431    0.8743 C   0  0  0  0  0  0  0  0  0  0  0  0
    1.4366    1.3928    0.6682 C   0  0  0  0  0  0  0  0  0  0  0  0
    0.0626   -0.8150    1.6939 H   0  0  0  0  0  0  0  0  0  0  0  0
   -2.3179   -0.2221    1.4037 H   0  0  0  0  0  0  0  0  0  0  0  0
   -1.3280    1.2331    1.4731 H   0  0  0  0  0  0  0  0  0  0  0  0
    2.3196    1.7585    0.1339 H   0  0  0  0  0  0  0  0  0  0  0  0
    0.7050    2.2055    0.6816 H   0  0  0  0  0  0  0  0  0  0  0  0
    1.7434    1.1648    1.6934 H   0  0  0  0  0  0  0  0  0  0  0  0
  1  5  1  0  0  0  0
  2  7  1  0  0  0  0
  3  6  1  0  0  0  0
  4  6  1  0  0  0  0
  5  6  1  0  0  0  0
  5  7  1  0  0  0  0
  5  9  1  0  0  0  0
  6  8  1  0  0  0  0
  7 10  1  0  0  0  0
  7 11  1  0  0  0  0
  8 12  1  0  0  0  0
  8 13  1  0  0  0  0
  8 14  1  0  0  0  0
M  END
> <PUBCHEM_COMPOUND_CID>
9790

> <PUBCHEM_CONFORMER_RMSD>
0.4

> <PUBCHEM_CONFORMER_DIVERSEORDER>
1
4
6
7
14
5
9
13
8
17
12
16
11
3
10
15
2
18

> <PUBCHEM_MMFF94_PARTIAL_CHARGES>
7
1 -0.29
2 -0.29
3 -0.34
4 -0.34
5 0.29
6 0.68
7 0.29

> <PUBCHEM_EFFECTIVE_ROTOR_COUNT>
2

> <PUBCHEM_PHARMACOPHORE_FEATURES>
0

> <PUBCHEM_HEAVY_ATOM_COUNT>
8

> <PUBCHEM_ATOM_DEF_STEREO_COUNT>
0

> <PUBCHEM_ATOM_UDEF_STEREO_COUNT>
1

> <PUBCHEM_BOND_DEF_STEREO_COUNT>
0

> <PUBCHEM_BOND_UDEF_STEREO_COUNT>
0

> <PUBCHEM_ISOTOPIC_ATOM_COUNT>
0

> <PUBCHEM_COMPONENT_COUNT>
1

> <PUBCHEM_CACTVS_TAUTO_COUNT>
1

> <PUBCHEM_CONFORMER_ID>
0000263E00000001

> <PUBCHEM_MMFF94_ENERGY>
10.0813

> <PUBCHEM_FEATURE_SELFOVERLAP>
0

> <PUBCHEM_SHAPE_FINGERPRINT>
12423570 1 7391029183294954193
137420 1 11348198894897316896
21040471 1 18341892974248127193
23552449 1 17977676303068179265
24536 1 16951663862064880122
29004967 10 18117554239496992642
5084963 1 18059840779924186913

> <PUBCHEM_SHAPE_MULTIPOLES>
153.83
2.45
1.71
1.03
0.29
0.79
-0.08
-0.85
-0.16
0.28
-0.02
0.13
-0.18
0.26

> <PUBCHEM_SHAPE_SELFOVERLAP>
269.806

> <PUBCHEM_SHAPE_VOLUME>
104.1

> <PUBCHEM_COORDINATE_TYPE>
2
5
10

$$$$

