3401
  -OEChem-06251223232D

 42 45  0     1  0  0  0  0  0999 V2000
    3.2680   -2.5000    0.0000 F   0  0  0  0  0  0  0  0  0  0  0  0
    5.0000    3.5000    0.0000 F   0  0  0  0  0  0  0  0  0  0  0  0
    6.0000   -0.5000    0.0000 N   0  0  0  0  0  0  0  0  0  0  0  0
    7.5388    0.0000    0.0000 N   0  0  0  0  0  0  0  0  0  0  0  0
    5.0000   -0.5000    0.0000 C   0  0  3  0  0  0  0  0  0  0  0  0
    5.0000    0.5000    0.0000 C   0  0  0  0  0  0  0  0  0  0  0  0
    5.0000   -1.5000    0.0000 C   0  0  0  0  0  0  0  0  0  0  0  0
    4.0000   -0.5000    0.0000 C   0  0  0  0  0  0  0  0  0  0  0  0
    5.8660    1.0000    0.0000 C   0  0  0  0  0  0  0  0  0  0  0  0
    4.1340    1.0000    0.0000 C   0  0  0  0  0  0  0  0  0  0  0  0
    4.1340   -2.0000    0.0000 C   0  0  0  0  0  0  0  0  0  0  0  0
    5.8660   -2.0000    0.0000 C   0  0  0  0  0  0  0  0  0  0  0  0
    6.5878   -1.3090    0.0000 C   0  0  0  0  0  0  0  0  0  0  0  0
    3.5000   -1.3660    0.0000 C   0  0  0  0  0  0  0  0  0  0  0  0
    3.5000    0.3660    0.0000 C   0  0  0  0  0  0  0  0  0  0  0  0
    6.5878    0.3090    0.0000 C   0  0  0  0  0  0  0  0  0  0  0  0
    7.5388   -1.0000    0.0000 C   0  0  0  0  0  0  0  0  0  0  0  0
    5.8660    2.0000    0.0000 C   0  0  0  0  0  0  0  0  0  0  0  0
    4.1340    2.0000    0.0000 C   0  0  0  0  0  0  0  0  0  0  0  0
    4.1340   -3.0000    0.0000 C   0  0  0  0  0  0  0  0  0  0  0  0
    5.8660   -3.0000    0.0000 C   0  0  0  0  0  0  0  0  0  0  0  0
    2.5000   -1.3660    0.0000 C   0  0  0  0  0  0  0  0  0  0  0  0
    2.5000    0.3660    0.0000 C   0  0  0  0  0  0  0  0  0  0  0  0
    5.0000    2.5000    0.0000 C   0  0  0  0  0  0  0  0  0  0  0  0
    5.0000   -3.5000    0.0000 C   0  0  0  0  0  0  0  0  0  0  0  0
    2.0000   -0.5000    0.0000 C   0  0  0  0  0  0  0  0  0  0  0  0
    6.4030    0.6900    0.0000 H   0  0  0  0  0  0  0  0  0  0  0  0
    3.5970    0.6900    0.0000 H   0  0  0  0  0  0  0  0  0  0  0  0
    6.4030   -1.6900    0.0000 H   0  0  0  0  0  0  0  0  0  0  0  0
    6.3962   -1.8987    0.0000 H   0  0  0  0  0  0  0  0  0  0  0  0
    3.8100   -1.9030    0.0000 H   0  0  0  0  0  0  0  0  0  0  0  0
    3.8100    0.9030    0.0000 H   0  0  0  0  0  0  0  0  0  0  0  0
    6.3962    0.8987    0.0000 H   0  0  0  0  0  0  0  0  0  0  0  0
    8.0404   -1.3644    0.0000 H   0  0  0  0  0  0  0  0  0  0  0  0
    6.4030    2.3100    0.0000 H   0  0  0  0  0  0  0  0  0  0  0  0
    3.5970    2.3100    0.0000 H   0  0  0  0  0  0  0  0  0  0  0  0
    3.5970   -3.3100    0.0000 H   0  0  0  0  0  0  0  0  0  0  0  0
    6.4030   -3.3100    0.0000 H   0  0  0  0  0  0  0  0  0  0  0  0
    2.1900   -1.9030    0.0000 H   0  0  0  0  0  0  0  0  0  0  0  0
    2.1900    0.9030    0.0000 H   0  0  0  0  0  0  0  0  0  0  0  0
    5.0000   -4.1200    0.0000 H   0  0  0  0  0  0  0  0  0  0  0  0
    1.3800   -0.5000    0.0000 H   0  0  0  0  0  0  0  0  0  0  0  0
  1 11  1  0  0  0  0
  2 24  1  0  0  0  0
  3  5  1  0  0  0  0
  3 13  1  0  0  0  0
  3 16  1  0  0  0  0
  4 16  2  0  0  0  0
  4 17  1  0  0  0  0
  5  6  1  0  0  0  0
  5  7  1  0  0  0  0
  5  8  1  0  0  0  0
  6  9  2  0  0  0  0
  6 10  1  0  0  0  0
  7 11  1  0  0  0  0
  7 12  2  0  0  0  0
  8 14  2  0  0  0  0
  8 15  1  0  0  0  0
  9 18  1  0  0  0  0
  9 27  1  0  0  0  0
 10 19  2  0  0  0  0
 10 28  1  0  0  0  0
 11 20  2  0  0  0  0
 12 21  1  0  0  0  0
 12 29  1  0  0  0  0
 13 17  2  0  0  0  0
 13 30  1  0  0  0  0
 14 22  1  0  0  0  0
 14 31  1  0  0  0  0
 15 23  2  0  0  0  0
 15 32  1  0  0  0  0
 16 33  1  0  0  0  0
 17 34  1  0  0  0  0
 18 24  2  0  0  0  0
 18 35  1  0  0  0  0
 19 24  1  0  0  0  0
 19 36  1  0  0  0  0
 20 25  1  0  0  0  0
 20 37  1  0  0  0  0
 21 25  2  0  0  0  0
 21 38  1  0  0  0  0
 22 26  2  0  0  0  0
 22 39  1  0  0  0  0
 23 26  1  0  0  0  0
 23 40  1  0  0  0  0
 25 41  1  0  0  0  0
 26 42  1  0  0  0  0
M  END
> <PUBCHEM_COMPOUND_CID>
3401

> <PUBCHEM_COMPOUND_CANONICALIZED>
1

> <PUBCHEM_CACTVS_COMPLEXITY>
445

> <PUBCHEM_CACTVS_HBOND_ACCEPTOR>
3

> <PUBCHEM_CACTVS_HBOND_DONOR>
0

> <PUBCHEM_CACTVS_ROTATABLE_BOND>
4

> <PUBCHEM_CACTVS_SUBSKEYS>
AAADceB7AYAAAAAAAAAAAAAAAAAAAWAAAAAwYMAAAAAAAAAB1AAAHQAAAAAADIjBGgw9kJcMEACgAjBnZACCgC0xEqAJyAAYNIiIaCKAmRGUIAhogAKIiCcQgMAOgAAAAAAAAAAAAAAAAAAAAAAAAAAAAA==

> <PUBCHEM_IUPAC_OPENEYE_NAME>
1-[(2-fluorophenyl)-(4-fluorophenyl)-phenyl-methyl]imidazole

> <PUBCHEM_IUPAC_CAS_NAME>
1-[(2-fluorophenyl)-(4-fluorophenyl)-phenylmethyl]imidazole

> <PUBCHEM_IUPAC_NAME>
1-[(2-fluorophenyl)-(4-fluorophenyl)-phenylmethyl]imidazole

> <PUBCHEM_IUPAC_SYSTEMATIC_NAME>
1-[(2-fluorophenyl)-(4-fluorophenyl)-phenyl-methyl]imidazole

> <PUBCHEM_IUPAC_TRADITIONAL_NAME>
1-[(2-fluorophenyl)-(4-fluorophenyl)-phenyl-methyl]imidazole

> <PUBCHEM_IUPAC_INCHI>
InChI=1S/C22H16F2N2/c23-19-12-10-18(11-13-19)22(26-15-14-25-16-26,17-6-2-1-3-7-17)20-8-4-5-9-21(20)24/h1-16H

> <PUBCHEM_IUPAC_INCHIKEY>
QHMWCHQXCUNUAK-UHFFFAOYSA-N

> <PUBCHEM_XLOGP3>
4.6

> <PUBCHEM_EXACT_MASS>
346.128155

> <PUBCHEM_MOLECULAR_FORMULA>
C22H16F2N2

> <PUBCHEM_MOLECULAR_WEIGHT>
346.372646

> <PUBCHEM_OPENEYE_CAN_SMILES>
C1=CC=C(C=C1)C(C2=CC=C(C=C2)F)(C3=CC=CC=C3F)N4C=CN=C4

> <PUBCHEM_OPENEYE_ISO_SMILES>
C1=CC=C(C=C1)C(C2=CC=C(C=C2)F)(C3=CC=CC=C3F)N4C=CN=C4

> <PUBCHEM_CACTVS_TPSA>
17.8

> <PUBCHEM_MONOISOTOPIC_WEIGHT>
346.128155

> <PUBCHEM_TOTAL_CHARGE>
0

> <PUBCHEM_HEAVY_ATOM_COUNT>
26

> <PUBCHEM_ATOM_DEF_STEREO_COUNT>
0

> <PUBCHEM_ATOM_UDEF_STEREO_COUNT>
1

> <PUBCHEM_BOND_DEF_STEREO_COUNT>
0

> <PUBCHEM_BOND_UDEF_STEREO_COUNT>
0

> <PUBCHEM_ISOTOPIC_ATOM_COUNT>
0

> <PUBCHEM_COMPONENT_COUNT>
1

> <PUBCHEM_CACTVS_TAUTO_COUNT>
1

> <PUBCHEM_COORDINATE_TYPE>
1
5
255

> <PUBCHEM_BONDANNOTATIONS>
10  19  8
11  20  8
12  21  8
13  17  8
14  22  8
15  23  8
18  24  8
19  24  8
20  25  8
21  25  8
22  26  8
23  26  8
3  13  8
3  16  8
4  16  8
4  17  8
5  8  3
6  10  8
6  9  8
7  11  8
7  12  8
8  14  8
8  15  8
9  18  8

$$$$

