17396249
  -OEChem-06241222553D

 48 51  0     1  0  0  0  0  0999 V2000
    3.5887   -1.0734   -0.9040 O   0  0  0  0  0  0  0  0  0  0  0  0
    1.2903    1.7707    2.0478 O   0  0  0  0  0  0  0  0  0  0  0  0
   -3.9163   -1.3337    1.2031 O   0  0  0  0  0  0  0  0  0  0  0  0
   -3.8006   -3.8966    0.1343 O   0  0  0  0  0  0  0  0  0  0  0  0
    1.0834    0.2427    0.3039 N   0  0  0  0  0  0  0  0  0  0  0  0
   -0.1472    0.9282   -1.6774 N   0  0  0  0  0  0  0  0  0  0  0  0
    3.4274   -0.4816    0.3960 C   0  0  1  0  0  0  0  0  0  0  0  0
    2.0143   -0.7127    0.8950 C   0  0  0  0  0  0  0  0  0  0  0  0
    4.4922   -1.1065    1.2806 C   0  0  0  0  0  0  0  0  0  0  0  0
    0.3625   -0.1889   -0.9050 C   0  0  2  0  0  0  0  0  0  0  0  0
    5.6185   -1.3080    0.2982 C   0  0  0  0  0  0  0  0  0  0  0  0
    4.8719   -1.7148   -0.9544 C   0  0  0  0  0  0  0  0  0  0  0  0
    0.8196    1.4479    0.9595 C   0  0  0  0  0  0  0  0  0  0  0  0
   -0.7545   -1.1799   -0.6252 C   0  0  0  0  0  0  0  0  0  0  0  0
   -0.0682    2.4007    0.2488 C   0  0  0  0  0  0  0  0  0  0  0  0
   -0.4925    2.1124   -1.0532 C   0  0  0  0  0  0  0  0  0  0  0  0
   -1.8382   -0.8030    0.1680 C   0  0  0  0  0  0  0  0  0  0  0  0
   -0.6962   -2.4665   -1.1608 C   0  0  0  0  0  0  0  0  0  0  0  0
   -0.4337    3.6020    0.8711 C   0  0  0  0  0  0  0  0  0  0  0  0
   -1.2714    3.0631   -1.7283 C   0  0  0  0  0  0  0  0  0  0  0  0
   -2.8637   -1.7127    0.4255 C   0  0  0  0  0  0  0  0  0  0  0  0
   -1.2220    4.5271    0.1895 C   0  0  0  0  0  0  0  0  0  0  0  0
   -1.6376    4.2602   -1.1113 C   0  0  0  0  0  0  0  0  0  0  0  0
   -1.7216   -3.3762   -0.9031 C   0  0  0  0  0  0  0  0  0  0  0  0
   -2.8054   -2.9993   -0.1100 C   0  0  0  0  0  0  0  0  0  0  0  0
   -3.8997   -0.0014    1.7116 C   0  0  0  0  0  0  0  0  0  0  0  0
    3.6324    0.5912    0.2861 H   0  0  0  0  0  0  0  0  0  0  0  0
    1.9864   -0.5808    1.9829 H   0  0  0  0  0  0  0  0  0  0  0  0
    1.6759   -1.7317    0.6787 H   0  0  0  0  0  0  0  0  0  0  0  0
    4.7643   -0.4749    2.1308 H   0  0  0  0  0  0  0  0  0  0  0  0
    4.1612   -2.0789    1.6654 H   0  0  0  0  0  0  0  0  0  0  0  0
    1.1072   -0.6765   -1.5446 H   0  0  0  0  0  0  0  0  0  0  0  0
    6.3539   -2.0511    0.6172 H   0  0  0  0  0  0  0  0  0  0  0  0
    6.1406   -0.3583    0.1312 H   0  0  0  0  0  0  0  0  0  0  0  0
    4.7016   -2.7963   -0.9806 H   0  0  0  0  0  0  0  0  0  0  0  0
    5.3949   -1.4214   -1.8689 H   0  0  0  0  0  0  0  0  0  0  0  0
   -0.4763    0.7591   -2.6210 H   0  0  0  0  0  0  0  0  0  0  0  0
   -1.8405    0.2001    0.5725 H   0  0  0  0  0  0  0  0  0  0  0  0
    0.1421   -2.7751   -1.7796 H   0  0  0  0  0  0  0  0  0  0  0  0
   -0.1096    3.8369    1.8813 H   0  0  0  0  0  0  0  0  0  0  0  0
   -1.6086    2.8718   -2.7449 H   0  0  0  0  0  0  0  0  0  0  0  0
   -1.5056    5.4585    0.6706 H   0  0  0  0  0  0  0  0  0  0  0  0
   -2.2472    4.9822   -1.6466 H   0  0  0  0  0  0  0  0  0  0  0  0
   -1.6635   -4.3755   -1.3264 H   0  0  0  0  0  0  0  0  0  0  0  0
   -3.5909   -4.7327   -0.3162 H   0  0  0  0  0  0  0  0  0  0  0  0
   -3.0559    0.1617    2.3909 H   0  0  0  0  0  0  0  0  0  0  0  0
   -3.9375    0.7400    0.9059 H   0  0  0  0  0  0  0  0  0  0  0  0
   -4.8118    0.1282    2.3036 H   0  0  0  0  0  0  0  0  0  0  0  0
  1  7  1  0  0  0  0
  1 12  1  0  0  0  0
  2 13  2  0  0  0  0
  3 21  1  0  0  0  0
  3 26  1  0  0  0  0
  4 25  1  0  0  0  0
  4 45  1  0  0  0  0
  5  8  1  0  0  0  0
  5 10  1  0  0  0  0
  5 13  1  0  0  0  0
  6 10  1  0  0  0  0
  6 16  1  0  0  0  0
  6 37  1  0  0  0  0
  7  8  1  0  0  0  0
  7  9  1  0  0  0  0
  7 27  1  0  0  0  0
  8 28  1  0  0  0  0
  8 29  1  0  0  0  0
  9 11  1  0  0  0  0
  9 30  1  0  0  0  0
  9 31  1  0  0  0  0
 10 14  1  0  0  0  0
 10 32  1  0  0  0  0
 11 12  1  0  0  0  0
 11 33  1  0  0  0  0
 11 34  1  0  0  0  0
 12 35  1  0  0  0  0
 12 36  1  0  0  0  0
 13 15  1  0  0  0  0
 14 17  2  0  0  0  0
 14 18  1  0  0  0  0
 15 16  1  0  0  0  0
 15 19  2  0  0  0  0
 16 20  2  0  0  0  0
 17 21  1  0  0  0  0
 17 38  1  0  0  0  0
 18 24  2  0  0  0  0
 18 39  1  0  0  0  0
 19 22  1  0  0  0  0
 19 40  1  0  0  0  0
 20 23  1  0  0  0  0
 20 41  1  0  0  0  0
 21 25  2  0  0  0  0
 22 23  2  0  0  0  0
 22 42  1  0  0  0  0
 23 43  1  0  0  0  0
 24 25  1  0  0  0  0
 24 44  1  0  0  0  0
 26 46  1  0  0  0  0
 26 47  1  0  0  0  0
 26 48  1  0  0  0  0
M  END
> <PUBCHEM_COMPOUND_CID>
17396249

> <PUBCHEM_CONFORMER_RMSD>
0.8

> <PUBCHEM_CONFORMER_DIVERSEORDER>
2
84
40
91
97
16
64
119
102
24
98
6
42
127
128
123
126
106
72
31
10
82
30
56
134
115
129
39
61
104
94
110
92
1
114
12
11
59
132
135
5
116
101
83
99
62
14
137
100
136
50
28
48
105
53
60
81
125
29
13
7
95
122
23
63
38
44
112
120
76
9
133
111
47
130
67
109
66
18
77
113
103
55
37
41
70
108
57
86
43
78
71
124
93
88
51
35
74
69
36
121
26
118
89
22
65
131
75
80
52
87
17
73
107
117
58
21
45
46
68
33
49
90
27
96
25
54
85
20
34
4
79
8
15
19
32
3

> <PUBCHEM_MMFF94_PARTIAL_CHARGES>
33
1 -0.56
10 0.81
12 0.28
13 0.54
14 -0.14
15 0.09
16 0.1
17 -0.15
18 -0.15
19 -0.15
2 -0.57
20 -0.15
21 0.08
22 -0.15
23 -0.15
24 -0.15
25 0.08
26 0.28
3 -0.36
37 0.4
38 0.15
39 0.15
4 -0.53
40 0.15
41 0.15
42 0.15
43 0.15
44 0.15
45 0.45
5 -0.66
6 -0.87
7 0.28
8 0.3

> <PUBCHEM_EFFECTIVE_ROTOR_COUNT>
5.6

> <PUBCHEM_PHARMACOPHORE_FEATURES>
10
1 1 acceptor
1 2 acceptor
1 3 acceptor
1 4 donor
1 6 cation
1 6 donor
5 1 7 9 11 12 rings
6 14 17 18 21 24 25 rings
6 15 16 19 20 22 23 rings
6 5 6 10 13 15 16 rings

> <PUBCHEM_HEAVY_ATOM_COUNT>
26

> <PUBCHEM_ATOM_DEF_STEREO_COUNT>
0

> <PUBCHEM_ATOM_UDEF_STEREO_COUNT>
2

> <PUBCHEM_BOND_DEF_STEREO_COUNT>
0

> <PUBCHEM_BOND_UDEF_STEREO_COUNT>
0

> <PUBCHEM_ISOTOPIC_ATOM_COUNT>
0

> <PUBCHEM_COMPONENT_COUNT>
1

> <PUBCHEM_CACTVS_TAUTO_COUNT>
6

> <PUBCHEM_CONFORMER_ID>
0109721900000002

> <PUBCHEM_MMFF94_ENERGY>
86.5205

> <PUBCHEM_FEATURE_SELFOVERLAP>
50.769

> <PUBCHEM_SHAPE_FINGERPRINT>
10764073 3 17460011088766611451
107951 10 17829051257871701932
11069576 57 17034465660444826078
11582403 64 15550800514036783741
11640471 11 16468124736407317997
12160290 23 17982203241537124452
12166972 35 18190748523296987703
12422481 6 17836331081288507025
12553582 1 18341622486083330594
12597179 24 17692528227534872097
12714826 92 18411708716012422162
12788726 201 18271791441914581526
13004483 165 18341324535295028488
13140716 1 18410579452650158674
13533116 47 17765712430534816611
13583140 156 14201408153099844974
13955234 65 17548689682581720643
13965767 371 17756956241842006379
14787075 74 16032674855527883807
14955137 171 18269252609310411043
17980427 23 17750228124238864367
1813 80 18269556044375466158
20600515 1 18042103445402038617
21120745 212 18340750569241220740
21330990 113 18116416219224342546
2255824 54 17474108696319592388
22907989 373 18339641243496986100
23366157 5 17763740988541413311
23559900 14 17979923709526576755
23598288 3 18125458633290931922
283562 15 18272657857140936514
3759504 43 17978235181688178444
4058900 60 17185590763861071584
4409770 3 18268435805087469381
458136 41 17328585532023070324
474 4 16973088688489010805
513202 73 18055615459723686618
5951187 136 4669858151207905121
6786 2 17762620998477693859
7097593 13 17974850566827548547
9981440 41 17760387864401849896

> <PUBCHEM_SHAPE_MULTIPOLES>
501.63
7.58
5.79
1.58
12.88
2.3
0.08
-5.35
1.79
-8.13
-1.04
-0.3
0.54
1.17

> <PUBCHEM_SHAPE_SELFOVERLAP>
1091.801

> <PUBCHEM_SHAPE_VOLUME>
272.1

> <PUBCHEM_COORDINATE_TYPE>
2
5
10

$$$$

