4693
  -OEChem-06261200172D

102107  0     1  0  0  0  0  0999 V2000
    7.2250   -1.6050    0.0000 S   0  0  0  0  0  0  0  0  0  0  0  0
    6.4831    0.8857    0.0000 S   0  0  0  0  0  0  0  0  0  0  0  0
    9.3974    2.1003    0.0000 O   0  0  0  0  0  0  0  0  0  0  0  0
    4.0032   -0.6433    0.0000 O   0  0  0  0  0  0  0  0  0  0  0  0
   10.6300    0.1545    0.0000 O   0  0  0  0  0  0  0  0  0  0  0  0
    2.1590    1.9551    0.0000 O   0  0  0  0  0  0  0  0  0  0  0  0
    6.1711    4.1693    0.0000 O   0  0  0  0  0  0  0  0  0  0  0  0
    4.3884   -0.0523    0.0000 O   0  0  0  0  0  0  0  0  0  0  0  0
    9.1437    1.4928    0.0000 N   0  0  0  0  0  0  0  0  0  0  0  0
    7.8653    3.8092    0.0000 N   0  0  0  0  0  0  0  0  0  0  0  0
    2.3852   -0.6433    0.0000 N   0  0  0  0  0  0  0  0  0  0  0  0
    4.9236   -1.6996    0.0000 N   0  0  0  0  0  0  0  0  0  0  0  0
    9.4710   -1.1327    0.0000 N   0  0  0  0  0  0  0  0  0  0  0  0
    3.8532    1.5950    0.0000 N   0  0  0  0  0  0  0  0  0  0  0  0
    6.8257   -1.0816    0.0000 N   0  0  0  0  0  0  0  0  0  0  0  0
    5.7553    2.2130    0.0000 N   0  0  0  0  0  0  0  0  0  0  0  0
    8.6084    3.1400    0.0000 C   0  0  3  0  0  0  0  0  0  0  0  0
    9.5595    3.4491    0.0000 C   0  0  3  0  0  0  0  0  0  0  0  0
    8.9358    0.5146    0.0000 C   0  0  3  0  0  0  0  0  0  0  0  0
    9.7060    1.1504    0.0000 C   0  0  3  0  0  0  0  0  0  0  0  0
    8.4005    2.1619    0.0000 C   0  0  0  0  0  0  0  0  0  0  0  0
    3.9373   -1.9002    0.0000 C   0  0  3  0  0  0  0  0  0  0  0  0
    9.7674    4.4272    0.0000 C   0  0  0  0  0  0  0  0  0  0  0  0
    3.6681   -2.8632    0.0000 C   0  0  0  0  0  0  0  0  0  0  0  0
    2.6942    0.3078    0.0000 C   0  0  3  0  0  0  0  0  0  0  0  0
    3.6942    0.3078    0.0000 C   0  0  3  0  0  0  0  0  0  0  0  0
    2.6994   -3.1116    0.0000 C   0  0  0  0  0  0  0  0  0  0  0  0
   10.3026    2.7799    0.0000 C   0  0  0  0  0  0  0  0  0  0  0  0
    3.1942   -1.2310    0.0000 C   0  0  0  0  0  0  0  0  0  0  0  0
    9.6789   -0.1545    0.0000 C   0  0  0  0  0  0  0  0  0  0  0  0
   10.6662    0.8709    0.0000 C   0  0  0  0  0  0  0  0  0  0  0  0
    8.5199   -1.4417    0.0000 C   0  0  3  0  0  0  0  0  0  0  0  0
   10.7185    4.7362    0.0000 C   0  0  0  0  0  0  0  0  0  0  0  0
    2.9021    1.2860    0.0000 C   0  0  0  0  0  0  0  0  0  0  0  0
    4.1983    1.3414    0.0000 C   0  0  0  0  0  0  0  0  0  0  0  0
    2.4302   -4.0747    0.0000 C   0  0  0  0  0  0  0  0  0  0  0  0
    2.0000   -2.3969    0.0000 C   0  0  0  0  0  0  0  0  0  0  0  0
    6.9142    3.5002    0.0000 C   0  0  0  0  0  0  0  0  0  0  0  0
    8.3120   -2.4198    0.0000 C   0  0  0  0  0  0  0  0  0  0  0  0
    4.5963    0.9258    0.0000 C   0  0  3  0  0  0  0  0  0  0  0  0
    7.7768   -0.7725    0.0000 C   0  0  0  0  0  0  0  0  0  0  0  0
    5.1315   -0.7214    0.0000 C   0  0  0  0  0  0  0  0  0  0  0  0
    6.7063    2.5220    0.0000 C   0  0  0  0  0  0  0  0  0  0  0  0
    6.0826   -0.4124    0.0000 C   0  0  0  0  0  0  0  0  0  0  0  0
    5.5474    1.2348    0.0000 C   0  0  0  0  0  0  0  0  0  0  0  0
    9.0552   -3.0890    0.0000 C   0  0  0  0  0  0  0  0  0  0  0  0
    5.3395    0.2568    0.0000 C   0  0  0  0  0  0  0  0  0  0  0  0
    6.2481   -1.3974    0.0000 C   0  0  0  0  0  0  0  0  0  0  0  0
    7.1514    1.6279    0.0000 C   0  0  0  0  0  0  0  0  0  0  0  0
    8.8473   -4.0671    0.0000 C   0  0  0  0  0  0  0  0  0  0  0  0
   10.0062   -2.7799    0.0000 C   0  0  0  0  0  0  0  0  0  0  0  0
    9.5904   -4.7362    0.0000 C   0  0  0  0  0  0  0  0  0  0  0  0
   10.7494   -3.4491    0.0000 C   0  0  0  0  0  0  0  0  0  0  0  0
   10.5415   -4.4272    0.0000 C   0  0  0  0  0  0  0  0  0  0  0  0
    8.7852    3.9715    0.0000 H   0  0  0  0  0  0  0  0  0  0  0  0
    9.3828    2.6176    0.0000 H   0  0  0  0  0  0  0  0  0  0  0  0
    8.1274    0.2520    0.0000 H   0  0  0  0  0  0  0  0  0  0  0  0
   10.2977    1.7606    0.0000 H   0  0  0  0  0  0  0  0  0  0  0  0
    4.5164   -2.5224    0.0000 H   0  0  0  0  0  0  0  0  0  0  0  0
    9.6811    5.0412    0.0000 H   0  0  0  0  0  0  0  0  0  0  0  0
    9.1478    4.4488    0.0000 H   0  0  0  0  0  0  0  0  0  0  0  0
    3.7154   -3.4814    0.0000 H   0  0  0  0  0  0  0  0  0  0  0  0
    4.2851   -2.9240    0.0000 H   0  0  0  0  0  0  0  0  0  0  0  0
    1.8732    0.5278    0.0000 H   0  0  0  0  0  0  0  0  0  0  0  0
    4.5421    0.2485    0.0000 H   0  0  0  0  0  0  0  0  0  0  0  0
    3.1331   -3.5547    0.0000 H   0  0  0  0  0  0  0  0  0  0  0  0
    9.8878    2.3192    0.0000 H   0  0  0  0  0  0  0  0  0  0  0  0
   10.7634    2.3651    0.0000 H   0  0  0  0  0  0  0  0  0  0  0  0
   10.7175    3.2407    0.0000 H   0  0  0  0  0  0  0  0  0  0  0  0
    7.9942    4.4156    0.0000 H   0  0  0  0  0  0  0  0  0  0  0  0
   10.4929    0.2756    0.0000 H   0  0  0  0  0  0  0  0  0  0  0  0
   11.2614    0.6976    0.0000 H   0  0  0  0  0  0  0  0  0  0  0  0
   10.8395    1.4662    0.0000 H   0  0  0  0  0  0  0  0  0  0  0  0
    9.1516   -2.0104    0.0000 H   0  0  0  0  0  0  0  0  0  0  0  0
   10.9101    4.1466    0.0000 H   0  0  0  0  0  0  0  0  0  0  0  0
   11.3081    4.9278    0.0000 H   0  0  0  0  0  0  0  0  0  0  0  0
   10.5269    5.3259    0.0000 H   0  0  0  0  0  0  0  0  0  0  0  0
    5.3623   -2.1378    0.0000 H   0  0  0  0  0  0  0  0  0  0  0  0
    9.9317   -1.5475    0.0000 H   0  0  0  0  0  0  0  0  0  0  0  0
    4.7556    1.0696    0.0000 H   0  0  0  0  0  0  0  0  0  0  0  0
    4.4701    1.8987    0.0000 H   0  0  0  0  0  0  0  0  0  0  0  0
    3.6411    1.6132    0.0000 H   0  0  0  0  0  0  0  0  0  0  0  0
    1.8331   -3.9078    0.0000 H   0  0  0  0  0  0  0  0  0  0  0  0
    2.2632   -4.6718    0.0000 H   0  0  0  0  0  0  0  0  0  0  0  0
    3.0273   -4.2416    0.0000 H   0  0  0  0  0  0  0  0  0  0  0  0
    2.4431   -1.9633    0.0000 H   0  0  0  0  0  0  0  0  0  0  0  0
    1.5664   -1.9538    0.0000 H   0  0  0  0  0  0  0  0  0  0  0  0
    1.5569   -2.8305    0.0000 H   0  0  0  0  0  0  0  0  0  0  0  0
    7.7372   -2.1876    0.0000 H   0  0  0  0  0  0  0  0  0  0  0  0
    7.9835   -2.9456    0.0000 H   0  0  0  0  0  0  0  0  0  0  0  0
    4.0276    0.2941    0.0000 H   0  0  0  0  0  0  0  0  0  0  0  0
    3.9821    2.2014    0.0000 H   0  0  0  0  0  0  0  0  0  0  0  0
    4.9247   -0.2040    0.0000 H   0  0  0  0  0  0  0  0  0  0  0  0
    5.8003   -0.1581    0.0000 H   0  0  0  0  0  0  0  0  0  0  0  0
    5.7543    0.7175    0.0000 H   0  0  0  0  0  0  0  0  0  0  0  0
    5.8003   -1.8263    0.0000 H   0  0  0  0  0  0  0  0  0  0  0  0
    7.7657    1.5441    0.0000 H   0  0  0  0  0  0  0  0  0  0  0  0
    8.2576   -4.2587    0.0000 H   0  0  0  0  0  0  0  0  0  0  0  0
   10.1351   -2.1735    0.0000 H   0  0  0  0  0  0  0  0  0  0  0  0
    9.4615   -5.3427    0.0000 H   0  0  0  0  0  0  0  0  0  0  0  0
   11.3390   -3.2575    0.0000 H   0  0  0  0  0  0  0  0  0  0  0  0
   11.0022   -4.8421    0.0000 H   0  0  0  0  0  0  0  0  0  0  0  0
  1 41  1  0  0  0  0
  1 48  1  0  0  0  0
  2 45  1  0  0  0  0
  2 49  1  0  0  0  0
  3 20  1  0  0  0  0
  3 21  1  0  0  0  0
  4 26  1  0  0  0  0
  4 29  1  0  0  0  0
  5 30  2  0  0  0  0
  6 34  2  0  0  0  0
  7 38  2  0  0  0  0
  8 42  2  0  0  0  0
  9 19  1  0  0  0  0
  9 21  2  0  0  0  0
 10 17  1  0  0  0  0
 10 38  1  0  0  0  0
 10 70  1  0  0  0  0
 11 25  1  0  0  0  0
 11 29  2  0  0  0  0
 12 22  1  0  0  0  0
 12 42  1  0  0  0  0
 12 78  1  0  0  0  0
 13 30  1  0  0  0  0
 13 32  1  0  0  0  0
 13 79  1  0  0  0  0
 14 34  1  0  0  0  0
 14 40  1  0  0  0  0
 14 92  1  0  0  0  0
 15 41  2  0  0  0  0
 15 44  1  0  0  0  0
 16 43  1  0  0  0  0
 16 45  2  0  0  0  0
 17 18  1  0  0  0  0
 17 21  1  0  0  0  0
 17 55  1  0  0  0  0
 18 23  1  0  0  0  0
 18 28  1  0  0  0  0
 18 56  1  0  0  0  0
 19 20  1  0  0  0  0
 19 30  1  0  0  0  0
 19 57  1  0  0  0  0
 20 31  1  0  0  0  0
 20 58  1  0  0  0  0
 22 24  1  0  0  0  0
 22 29  1  0  0  0  0
 22 59  1  0  0  0  0
 23 33  1  0  0  0  0
 23 60  1  0  0  0  0
 23 61  1  0  0  0  0
 24 27  1  0  0  0  0
 24 62  1  0  0  0  0
 24 63  1  0  0  0  0
 25 26  1  0  0  0  0
 25 34  1  0  0  0  0
 25 64  1  0  0  0  0
 26 35  1  0  0  0  0
 26 65  1  0  0  0  0
 27 36  1  0  0  0  0
 27 37  1  0  0  0  0
 27 66  1  0  0  0  0
 28 67  1  0  0  0  0
 28 68  1  0  0  0  0
 28 69  1  0  0  0  0
 31 71  1  0  0  0  0
 31 72  1  0  0  0  0
 31 73  1  0  0  0  0
 32 39  1  0  0  0  0
 32 41  1  0  0  0  0
 32 74  1  0  0  0  0
 33 75  1  0  0  0  0
 33 76  1  0  0  0  0
 33 77  1  0  0  0  0
 35 80  1  0  0  0  0
 35 81  1  0  0  0  0
 35 82  1  0  0  0  0
 36 83  1  0  0  0  0
 36 84  1  0  0  0  0
 36 85  1  0  0  0  0
 37 86  1  0  0  0  0
 37 87  1  0  0  0  0
 37 88  1  0  0  0  0
 38 43  1  0  0  0  0
 39 46  1  0  0  0  0
 39 89  1  0  0  0  0
 39 90  1  0  0  0  0
 40 45  1  0  0  0  0
 40 47  1  0  0  0  0
 40 91  1  0  0  0  0
 42 44  1  0  0  0  0
 43 49  2  0  0  0  0
 44 48  2  0  0  0  0
 46 50  2  0  0  0  0
 46 51  1  0  0  0  0
 47 93  1  0  0  0  0
 47 94  1  0  0  0  0
 47 95  1  0  0  0  0
 48 96  1  0  0  0  0
 49 97  1  0  0  0  0
 50 52  1  0  0  0  0
 50 98  1  0  0  0  0
 51 53  2  0  0  0  0
 51 99  1  0  0  0  0
 52 54  2  0  0  0  0
 52100  1  0  0  0  0
 53 54  1  0  0  0  0
 53101  1  0  0  0  0
 54102  1  0  0  0  0
M  END
> <PUBCHEM_COMPOUND_CID>
4693

> <PUBCHEM_COMPOUND_CANONICALIZED>
1

> <PUBCHEM_CACTVS_COMPLEXITY>
1440

> <PUBCHEM_CACTVS_HBOND_ACCEPTOR>
12

> <PUBCHEM_CACTVS_HBOND_DONOR>
4

> <PUBCHEM_CACTVS_ROTATABLE_BOND>
6

> <PUBCHEM_CACTVS_SUBSKEYS>
AAADcfB/+ABgAAAAAAAAAAAAAAAAAWLECAAwAAAAAAAAAAAB8AAAHgQQAAAADTzl3gaygZLIFAisAyVyVACC8KBnCjgIiJW4JMgKYDagkTGXIAgmtgC4iIeQgIAOAAAAAAAAAAAAAAAAAAAAAAAAAAAAAA==

> <PUBCHEM_IUPAC_INCHI>
InChI=1S/C38H48N8O6S2/c1-8-19(4)28-36-46-30(22(7)52-36)34(50)41-25(15-23-12-10-9-11-13-23)38-43-26(17-54-38)31(47)40-24(14-18(2)3)35-45-29(21(6)51-35)33(49)39-20(5)37-42-27(16-53-37)32(48)44-28/h9-13,16-22,24-25,28-30H,8,14-15H2,1-7H3,(H,39,49)(H,40,47)(H,41,50)(H,44,48)

> <PUBCHEM_IUPAC_INCHIKEY>
FDAPKNJHIHKHDM-UHFFFAOYSA-N

> <PUBCHEM_XLOGP3_AA>
5.3

> <PUBCHEM_EXACT_MASS>
776.313823

> <PUBCHEM_MOLECULAR_FORMULA>
C38H48N8O6S2

> <PUBCHEM_MOLECULAR_WEIGHT>
776.96772

> <PUBCHEM_OPENEYE_CAN_SMILES>
CCC(C)C1C2=NC(C(O2)C)C(=O)NC(C3=NC(=CS3)C(=O)NC(C4=NC(C(O4)C)C(=O)NC(C5=NC(=CS5)C(=O)N1)C)CC(C)C)CC6=CC=CC=C6

> <PUBCHEM_OPENEYE_ISO_SMILES>
CCC(C)C1C2=NC(C(O2)C)C(=O)NC(C3=NC(=CS3)C(=O)NC(C4=NC(C(O4)C)C(=O)NC(C5=NC(=CS5)C(=O)N1)C)CC(C)C)CC6=CC=CC=C6

> <PUBCHEM_CACTVS_TPSA>
242

> <PUBCHEM_MONOISOTOPIC_WEIGHT>
776.313823

> <PUBCHEM_TOTAL_CHARGE>
0

> <PUBCHEM_HEAVY_ATOM_COUNT>
54

> <PUBCHEM_ATOM_DEF_STEREO_COUNT>
0

> <PUBCHEM_ATOM_UDEF_STEREO_COUNT>
9

> <PUBCHEM_BOND_DEF_STEREO_COUNT>
0

> <PUBCHEM_BOND_UDEF_STEREO_COUNT>
0

> <PUBCHEM_ISOTOPIC_ATOM_COUNT>
0

> <PUBCHEM_COMPONENT_COUNT>
1

> <PUBCHEM_CACTVS_TAUTO_COUNT>
16

> <PUBCHEM_COORDINATE_TYPE>
1
5
255

> <PUBCHEM_BONDANNOTATIONS>
1  41  8
1  48  8
15  41  8
15  44  8
16  43  8
16  45  8
17  55  3
18  56  3
19  57  3
2  45  8
2  49  8
20  58  3
22  59  3
25  64  3
26  65  3
32  74  3
40  91  3
43  49  8
44  48  8
46  50  8
46  51  8
50  52  8
51  53  8
52  54  8
53  54  8

$$$$

