9095
  -OEChem-06261203242D

 56 60  0     0  0  0  0  0  0999 V2000
    4.8454   -1.3066    0.0000 Si  0  0  0  0  0  0  0  0  0  0  0  0
    6.1520    0.0000    0.0000 Si  0  0  0  0  0  0  0  0  0  0  0  0
    4.8454    1.3066    0.0000 Si  0  0  0  0  0  0  0  0  0  0  0  0
    3.5388    0.0000    0.0000 Si  0  0  0  0  0  0  0  0  0  0  0  0
    3.9215   -0.9239    0.0000 O   0  0  0  0  0  0  0  0  0  0  0  0
    5.7693   -0.9239    0.0000 O   0  0  0  0  0  0  0  0  0  0  0  0
    5.7693    0.9239    0.0000 O   0  0  0  0  0  0  0  0  0  0  0  0
    3.9215    0.9239    0.0000 O   0  0  0  0  0  0  0  0  0  0  0  0
    5.6544   -1.8944    0.0000 C   0  0  0  0  0  0  0  0  0  0  0  0
    4.0364   -1.8944    0.0000 C   0  0  0  0  0  0  0  0  0  0  0  0
    6.7398    0.8090    0.0000 C   0  0  0  0  0  0  0  0  0  0  0  0
    6.7398   -0.8090    0.0000 C   0  0  0  0  0  0  0  0  0  0  0  0
    4.0364    1.8944    0.0000 C   0  0  0  0  0  0  0  0  0  0  0  0
    5.6544    1.8944    0.0000 C   0  0  0  0  0  0  0  0  0  0  0  0
    2.9511   -0.8090    0.0000 C   0  0  0  0  0  0  0  0  0  0  0  0
    2.9511    0.8090    0.0000 C   0  0  0  0  0  0  0  0  0  0  0  0
    5.3454   -2.8454    0.0000 C   0  0  0  0  0  0  0  0  0  0  0  0
    4.3454   -2.8454    0.0000 C   0  0  0  0  0  0  0  0  0  0  0  0
    7.6908    0.5000    0.0000 C   0  0  0  0  0  0  0  0  0  0  0  0
    7.6908   -0.5000    0.0000 C   0  0  0  0  0  0  0  0  0  0  0  0
    4.3454    2.8454    0.0000 C   0  0  0  0  0  0  0  0  0  0  0  0
    5.3454    2.8454    0.0000 C   0  0  0  0  0  0  0  0  0  0  0  0
    2.0000   -0.5000    0.0000 C   0  0  0  0  0  0  0  0  0  0  0  0
    2.0000    0.5000    0.0000 C   0  0  0  0  0  0  0  0  0  0  0  0
    6.2208   -2.1465    0.0000 H   0  0  0  0  0  0  0  0  0  0  0  0
    5.9644   -1.3574    0.0000 H   0  0  0  0  0  0  0  0  0  0  0  0
    3.7264   -1.3574    0.0000 H   0  0  0  0  0  0  0  0  0  0  0  0
    3.4700   -2.1465    0.0000 H   0  0  0  0  0  0  0  0  0  0  0  0
    6.9919    1.3754    0.0000 H   0  0  0  0  0  0  0  0  0  0  0  0
    6.2028    1.1190    0.0000 H   0  0  0  0  0  0  0  0  0  0  0  0
    6.2028   -1.1190    0.0000 H   0  0  0  0  0  0  0  0  0  0  0  0
    6.9919   -1.3754    0.0000 H   0  0  0  0  0  0  0  0  0  0  0  0
    3.4700    2.1465    0.0000 H   0  0  0  0  0  0  0  0  0  0  0  0
    3.7264    1.3574    0.0000 H   0  0  0  0  0  0  0  0  0  0  0  0
    5.9644    1.3574    0.0000 H   0  0  0  0  0  0  0  0  0  0  0  0
    6.2208    2.1465    0.0000 H   0  0  0  0  0  0  0  0  0  0  0  0
    2.6989   -1.3754    0.0000 H   0  0  0  0  0  0  0  0  0  0  0  0
    3.4880   -1.1190    0.0000 H   0  0  0  0  0  0  0  0  0  0  0  0
    3.4880    1.1190    0.0000 H   0  0  0  0  0  0  0  0  0  0  0  0
    2.6989    1.3754    0.0000 H   0  0  0  0  0  0  0  0  0  0  0  0
    5.2806   -3.4620    0.0000 H   0  0  0  0  0  0  0  0  0  0  0  0
    5.9519   -2.9743    0.0000 H   0  0  0  0  0  0  0  0  0  0  0  0
    3.7390   -2.9743    0.0000 H   0  0  0  0  0  0  0  0  0  0  0  0
    4.4102   -3.4620    0.0000 H   0  0  0  0  0  0  0  0  0  0  0  0
    8.3074    0.4352    0.0000 H   0  0  0  0  0  0  0  0  0  0  0  0
    7.8197    1.1064    0.0000 H   0  0  0  0  0  0  0  0  0  0  0  0
    7.8197   -1.1064    0.0000 H   0  0  0  0  0  0  0  0  0  0  0  0
    8.3074   -0.4352    0.0000 H   0  0  0  0  0  0  0  0  0  0  0  0
    4.4102    3.4620    0.0000 H   0  0  0  0  0  0  0  0  0  0  0  0
    3.7390    2.9743    0.0000 H   0  0  0  0  0  0  0  0  0  0  0  0
    5.9519    2.9743    0.0000 H   0  0  0  0  0  0  0  0  0  0  0  0
    5.2806    3.4620    0.0000 H   0  0  0  0  0  0  0  0  0  0  0  0
    1.3834   -0.4352    0.0000 H   0  0  0  0  0  0  0  0  0  0  0  0
    1.8711   -1.1064    0.0000 H   0  0  0  0  0  0  0  0  0  0  0  0
    1.8711    1.1064    0.0000 H   0  0  0  0  0  0  0  0  0  0  0  0
    1.3834    0.4352    0.0000 H   0  0  0  0  0  0  0  0  0  0  0  0
  1  5  1  0  0  0  0
  1  6  1  0  0  0  0
  1  9  1  0  0  0  0
  1 10  1  0  0  0  0
  2  6  1  0  0  0  0
  2  7  1  0  0  0  0
  2 11  1  0  0  0  0
  2 12  1  0  0  0  0
  3  7  1  0  0  0  0
  3  8  1  0  0  0  0
  3 13  1  0  0  0  0
  3 14  1  0  0  0  0
  4  5  1  0  0  0  0
  4  8  1  0  0  0  0
  4 15  1  0  0  0  0
  4 16  1  0  0  0  0
  9 17  1  0  0  0  0
  9 25  1  0  0  0  0
  9 26  1  0  0  0  0
 10 18  1  0  0  0  0
 10 27  1  0  0  0  0
 10 28  1  0  0  0  0
 11 19  1  0  0  0  0
 11 29  1  0  0  0  0
 11 30  1  0  0  0  0
 12 20  1  0  0  0  0
 12 31  1  0  0  0  0
 12 32  1  0  0  0  0
 13 21  1  0  0  0  0
 13 33  1  0  0  0  0
 13 34  1  0  0  0  0
 14 22  1  0  0  0  0
 14 35  1  0  0  0  0
 14 36  1  0  0  0  0
 15 23  1  0  0  0  0
 15 37  1  0  0  0  0
 15 38  1  0  0  0  0
 16 24  1  0  0  0  0
 16 39  1  0  0  0  0
 16 40  1  0  0  0  0
 17 18  1  0  0  0  0
 17 41  1  0  0  0  0
 17 42  1  0  0  0  0
 18 43  1  0  0  0  0
 18 44  1  0  0  0  0
 19 20  1  0  0  0  0
 19 45  1  0  0  0  0
 19 46  1  0  0  0  0
 20 47  1  0  0  0  0
 20 48  1  0  0  0  0
 21 22  1  0  0  0  0
 21 49  1  0  0  0  0
 21 50  1  0  0  0  0
 22 51  1  0  0  0  0
 22 52  1  0  0  0  0
 23 24  1  0  0  0  0
 23 53  1  0  0  0  0
 23 54  1  0  0  0  0
 24 55  1  0  0  0  0
 24 56  1  0  0  0  0
M  END
> <PUBCHEM_COMPOUND_CID>
9095

> <PUBCHEM_COMPOUND_CANONICALIZED>
1

> <PUBCHEM_CACTVS_COMPLEXITY>
367

> <PUBCHEM_CACTVS_HBOND_ACCEPTOR>
4

> <PUBCHEM_CACTVS_HBOND_DONOR>
0

> <PUBCHEM_CACTVS_ROTATABLE_BOND>
0

> <PUBCHEM_CACTVS_SUBSKEYS>
AAADcfB4OAwAAAAAAAAAAAAAAAAAASJEiQAAAAAAAAASAAAAAAAAGBAAAEAACACAIABAAAAAAAEAAAAAAAAAAAAAAAAAAAAAAAAAAAAAAAAAAAAAAAAAAAAAAAAAAAAAAAAAAAAAAAAAAAAAAAAAAAAAAA==

> <PUBCHEM_IUPAC_OPENEYE_NAME>
6,12,18,24-tetraoxa-5,7,13,19-tetrasilatetraspiro[4.1.4^{7}.1.4^{13}.1.4^{19}.1^{5}]tetracosane

> <PUBCHEM_IUPAC_CAS_NAME>
6,12,18,24-tetraoxa-5,7,13,19-tetrasilatetraspiro[4.1.4^{7}.1.4^{13}.1.4^{19}.1^{5}]tetracosane

> <PUBCHEM_IUPAC_NAME>
6,12,18,24-tetraoxa-5,7,13,19-tetrasilatetraspiro[4.1.4^{7}.1.4^{13}.1.4^{19}.1^{5}]tetracosane

> <PUBCHEM_IUPAC_SYSTEMATIC_NAME>
6,12,18,24-tetraoxa-5,7,13,19-tetrasilatetraspiro[4.1.4^{7}.1.4^{13}.1.4^{19}.1^{5}]tetracosane

> <PUBCHEM_IUPAC_TRADITIONAL_NAME>
6,12,18,24-tetraoxa-5,7,13,19-tetrasilatetraspiro[4.1.4^{7}.1.4^{13}.1.4^{19}.1^{5}]tetracosane

> <PUBCHEM_IUPAC_INCHI>
InChI=1S/C16H32O4Si4/c1-2-10-21(9-1)17-22(11-3-4-12-22)19-24(15-7-8-16-24)20-23(18-21)13-5-6-14-23/h1-16H2

> <PUBCHEM_IUPAC_INCHIKEY>
BFSUTNYNXLTKIQ-UHFFFAOYSA-N

> <PUBCHEM_EXACT_MASS>
400.137766

> <PUBCHEM_MOLECULAR_FORMULA>
C16H32O4Si4

> <PUBCHEM_MOLECULAR_WEIGHT>
400.76488

> <PUBCHEM_OPENEYE_CAN_SMILES>
C1CC[Si]2(C1)O[Si]3(CCCC3)O[Si]4(CCCC4)O[Si]5(O2)CCCC5

> <PUBCHEM_OPENEYE_ISO_SMILES>
C1CC[Si]2(C1)O[Si]3(CCCC3)O[Si]4(CCCC4)O[Si]5(O2)CCCC5

> <PUBCHEM_CACTVS_TPSA>
36.9

> <PUBCHEM_MONOISOTOPIC_WEIGHT>
400.137766

> <PUBCHEM_TOTAL_CHARGE>
0

> <PUBCHEM_HEAVY_ATOM_COUNT>
24

> <PUBCHEM_ATOM_DEF_STEREO_COUNT>
0

> <PUBCHEM_ATOM_UDEF_STEREO_COUNT>
0

> <PUBCHEM_BOND_DEF_STEREO_COUNT>
0

> <PUBCHEM_BOND_UDEF_STEREO_COUNT>
0

> <PUBCHEM_ISOTOPIC_ATOM_COUNT>
0

> <PUBCHEM_COMPONENT_COUNT>
1

> <PUBCHEM_CACTVS_TAUTO_COUNT>
1

> <PUBCHEM_COORDINATE_TYPE>
1
5
255

$$$$

