8247
  -OEChem-06261202413D

 21 21  0     0  0  0  0  0  0999 V2000
    2.6511    0.9021    1.0722 O   0  0  0  0  0  0  0  0  0  0  0  0
    0.6467    0.7660   -0.8029 N   0  0  0  0  0  0  0  0  0  0  0  0
    1.6838   -0.1132   -0.7815 N   0  0  0  0  0  0  0  0  0  0  0  0
   -0.6285    0.3329   -0.3838 C   0  0  0  0  0  0  0  0  0  0  0  0
   -1.6325    1.2664   -0.1260 C   0  0  0  0  0  0  0  0  0  0  0  0
   -0.8855   -1.0291   -0.2266 C   0  0  0  0  0  0  0  0  0  0  0  0
   -2.8934    0.8380    0.2891 C   0  0  0  0  0  0  0  0  0  0  0  0
   -2.1464   -1.4575    0.1885 C   0  0  0  0  0  0  0  0  0  0  0  0
   -3.1503   -0.5239    0.4463 C   0  0  0  0  0  0  0  0  0  0  0  0
    2.6421    0.0366    0.1996 C   0  0  0  0  0  0  0  0  0  0  0  0
    3.7128   -1.0186    0.1252 C   0  0  0  0  0  0  0  0  0  0  0  0
   -1.4444    2.3304   -0.2447 H   0  0  0  0  0  0  0  0  0  0  0  0
   -0.1340   -1.7887   -0.4229 H   0  0  0  0  0  0  0  0  0  0  0  0
    0.8544    1.7531   -0.8830 H   0  0  0  0  0  0  0  0  0  0  0  0
   -3.6751    1.5648    0.4899 H   0  0  0  0  0  0  0  0  0  0  0  0
   -2.3477   -2.5179    0.3097 H   0  0  0  0  0  0  0  0  0  0  0  0
    1.7081   -0.8084   -1.5196 H   0  0  0  0  0  0  0  0  0  0  0  0
   -4.1321   -0.8574    0.7691 H   0  0  0  0  0  0  0  0  0  0  0  0
    3.8719   -1.3480   -0.9056 H   0  0  0  0  0  0  0  0  0  0  0  0
    3.4145   -1.8753    0.7353 H   0  0  0  0  0  0  0  0  0  0  0  0
    4.6529   -0.6097    0.5057 H   0  0  0  0  0  0  0  0  0  0  0  0
  1 10  2  0  0  0  0
  2  3  1  0  0  0  0
  2  4  1  0  0  0  0
  2 14  1  0  0  0  0
  3 10  1  0  0  0  0
  3 17  1  0  0  0  0
  4  5  2  0  0  0  0
  4  6  1  0  0  0  0
  5  7  1  0  0  0  0
  5 12  1  0  0  0  0
  6  8  2  0  0  0  0
  6 13  1  0  0  0  0
  7  9  2  0  0  0  0
  7 15  1  0  0  0  0
  8  9  1  0  0  0  0
  8 16  1  0  0  0  0
  9 18  1  0  0  0  0
 10 11  1  0  0  0  0
 11 19  1  0  0  0  0
 11 20  1  0  0  0  0
 11 21  1  0  0  0  0
M  END
> <PUBCHEM_COMPOUND_CID>
8247

> <PUBCHEM_CONFORMER_RMSD>
0.6

> <PUBCHEM_CONFORMER_DIVERSEORDER>
1
5
6
8
3
7
4
2

> <PUBCHEM_MMFF94_PARTIAL_CHARGES>
18
1 -0.57
10 0.57
11 0.06
12 0.15
13 0.15
14 0.4
15 0.15
16 0.15
17 0.37
18 0.15
2 -0.52
3 -0.41
4 0.1
5 -0.15
6 -0.15
7 -0.15
8 -0.15
9 -0.15

> <PUBCHEM_EFFECTIVE_ROTOR_COUNT>
3

> <PUBCHEM_PHARMACOPHORE_FEATURES>
4
1 1 acceptor
1 2 donor
1 3 donor
6 4 5 6 7 8 9 rings

> <PUBCHEM_HEAVY_ATOM_COUNT>
11

> <PUBCHEM_ATOM_DEF_STEREO_COUNT>
0

> <PUBCHEM_ATOM_UDEF_STEREO_COUNT>
0

> <PUBCHEM_BOND_DEF_STEREO_COUNT>
0

> <PUBCHEM_BOND_UDEF_STEREO_COUNT>
0

> <PUBCHEM_ISOTOPIC_ATOM_COUNT>
0

> <PUBCHEM_COMPONENT_COUNT>
1

> <PUBCHEM_CACTVS_TAUTO_COUNT>
2

> <PUBCHEM_CONFORMER_ID>
0000203700000001

> <PUBCHEM_MMFF94_ENERGY>
33.7351

> <PUBCHEM_FEATURE_SELFOVERLAP>
21.893

> <PUBCHEM_SHAPE_FINGERPRINT>
10857977 72 18336543828899358705
12251169 10 18335143068339229360
124424 183 18041002894450192672
12932764 1 17894911789447686526
14325111 11 18410572894250941460
177051 138 18343580716001729403
17804303 29 18337383946040745870
17834069 15 18339361980101274126
20361792 2 16702306736872464718
20528008 55 18261399927133777013
20645464 45 18040148543760968991
20871998 184 18188203187684381031
21293036 1 9007053548291973347
22169311 14 18260550043294872352
23402539 116 18261119595288423437
23552423 10 17698427837641010349
2748010 2 17981029023728067959
369184 2 17967816033192961807

> <PUBCHEM_SHAPE_MULTIPOLES>
210.54
5.95
1.37
0.82
3.54
0.16
-0.03
0.9
-1.28
-0.52
-0.05
0.24
-0.1
0.18

> <PUBCHEM_SHAPE_SELFOVERLAP>
428.808

> <PUBCHEM_SHAPE_VOLUME>
121.8

> <PUBCHEM_COORDINATE_TYPE>
2
5
10

$$$$

