17395697
  -OEChem-06241222513D

 37 38  0     0  0  0  0  0  0999 V2000
   -3.0341   -1.2528   -0.0533 S   0  0  0  0  0  0  0  0  0  0  0  0
    5.1707   -0.7867    0.4823 O   0  0  0  0  0  0  0  0  0  0  0  0
   -0.3027   -2.2484   -0.1364 O   0  0  0  0  0  0  0  0  0  0  0  0
    5.2990    1.2455   -0.5711 O   0  0  0  0  0  0  0  0  0  0  0  0
    1.0781    1.0917   -0.0023 N   0  0  0  0  0  0  0  0  0  0  0  0
   -5.6242   -0.2964    0.0291 N   0  0  0  0  0  0  0  0  0  0  0  0
   -4.1143    1.2863    0.0821 N   0  0  0  0  0  0  0  0  0  0  0  0
   -5.3629    1.8738    0.1287 N   0  0  0  0  0  0  0  0  0  0  0  0
    2.2890   -0.7670   -0.1054 C   0  0  0  0  0  0  0  0  0  0  0  0
    1.0029   -0.2752   -0.0641 C   0  0  0  0  0  0  0  0  0  0  0  0
    3.1680    0.3435   -0.0669 C   0  0  0  0  0  0  0  0  0  0  0  0
    2.3925    1.4799   -0.0028 C   0  0  0  0  0  0  0  0  0  0  0  0
   -0.2321   -0.9952   -0.0794 C   0  0  0  0  0  0  0  0  0  0  0  0
    2.6811   -2.1904   -0.1774 C   0  0  0  0  0  0  0  0  0  0  0  0
    2.7614    2.9077    0.0583 C   0  0  0  0  0  0  0  0  0  0  0  0
   -1.5578   -0.2028   -0.0236 C   0  0  0  0  0  0  0  0  0  0  0  0
    4.6036    0.3354   -0.0879 C   0  0  0  0  0  0  0  0  0  0  0  0
   -4.2919   -0.0142    0.0227 C   0  0  0  0  0  0  0  0  0  0  0  0
   -6.2729   -1.5843   -0.0229 C   0  0  0  0  0  0  0  0  0  0  0  0
   -6.2544    0.9091    0.0958 C   0  0  0  0  0  0  0  0  0  0  0  0
    6.6010   -0.8598    0.4946 C   0  0  0  0  0  0  0  0  0  0  0  0
    0.2899    1.7235    0.0377 H   0  0  0  0  0  0  0  0  0  0  0  0
    3.6415   -2.3241   -0.6845 H   0  0  0  0  0  0  0  0  0  0  0  0
    1.9672   -2.7857   -0.7531 H   0  0  0  0  0  0  0  0  0  0  0  0
    2.7575   -2.6182    0.8272 H   0  0  0  0  0  0  0  0  0  0  0  0
    3.5111    3.0813    0.8372 H   0  0  0  0  0  0  0  0  0  0  0  0
    1.8979    3.5422    0.2845 H   0  0  0  0  0  0  0  0  0  0  0  0
    3.1775    3.2365   -0.8993 H   0  0  0  0  0  0  0  0  0  0  0  0
   -1.5623    0.3844    0.9008 H   0  0  0  0  0  0  0  0  0  0  0  0
   -1.5869    0.4691   -0.8879 H   0  0  0  0  0  0  0  0  0  0  0  0
   -7.3572   -1.4468   -0.0008 H   0  0  0  0  0  0  0  0  0  0  0  0
   -5.9595   -2.1682    0.8462 H   0  0  0  0  0  0  0  0  0  0  0  0
   -5.9854   -2.0826   -0.9520 H   0  0  0  0  0  0  0  0  0  0  0  0
   -7.3285    1.0271    0.1173 H   0  0  0  0  0  0  0  0  0  0  0  0
    6.9870   -0.8547   -0.5290 H   0  0  0  0  0  0  0  0  0  0  0  0
    7.0159   -0.0268    1.0695 H   0  0  0  0  0  0  0  0  0  0  0  0
    6.8892   -1.7982    0.9753 H   0  0  0  0  0  0  0  0  0  0  0  0
  1 16  1  0  0  0  0
  1 18  1  0  0  0  0
  2 17  1  0  0  0  0
  2 21  1  0  0  0  0
  3 13  2  0  0  0  0
  4 17  2  0  0  0  0
  5 10  1  0  0  0  0
  5 12  1  0  0  0  0
  5 22  1  0  0  0  0
  6 18  1  0  0  0  0
  6 19  1  0  0  0  0
  6 20  1  0  0  0  0
  7  8  1  0  0  0  0
  7 18  2  0  0  0  0
  8 20  2  0  0  0  0
  9 10  2  0  0  0  0
  9 11  1  0  0  0  0
  9 14  1  0  0  0  0
 10 13  1  0  0  0  0
 11 12  2  0  0  0  0
 11 17  1  0  0  0  0
 12 15  1  0  0  0  0
 13 16  1  0  0  0  0
 14 23  1  0  0  0  0
 14 24  1  0  0  0  0
 14 25  1  0  0  0  0
 15 26  1  0  0  0  0
 15 27  1  0  0  0  0
 15 28  1  0  0  0  0
 16 29  1  0  0  0  0
 16 30  1  0  0  0  0
 19 31  1  0  0  0  0
 19 32  1  0  0  0  0
 19 33  1  0  0  0  0
 20 34  1  0  0  0  0
 21 35  1  0  0  0  0
 21 36  1  0  0  0  0
 21 37  1  0  0  0  0
M  END
> <PUBCHEM_COMPOUND_CID>
17395697

> <PUBCHEM_CONFORMER_RMSD>
1

> <PUBCHEM_CONFORMER_DIVERSEORDER>
1
83
72
69
158
47
27
9
37
147
40
122
109
68
138
155
156
48
61
31
17
73
98
8
42
136
64
101
115
28
49
148
34
86
10
106
113
116
154
99
76
52
13
121
78
125
102
153
12
119
82
120
41
126
124
57
33
92
97
139
105
51
22
23
67
85
88
25
66
63
50
152
133
103
79
36
54
18
38
157
70
143
118
142
128
141
89
16
146
58
3
107
26
21
94
87
7
100
35
39
59
24
135
74
112
80
43
14
44
108
81
95
145
110
129
75
149
62
137
20
60
91
11
111
29
65
123
56
6
2
150
104
46
132
131
140
5
84
77
45
30
71
90
130
19
4
96
93
134
55
32
114
15
151
127
53
117
144

> <PUBCHEM_MMFF94_PARTIAL_CHARGES>
23
1 -0.29
10 -0.24
11 -0.09
12 -0.33
13 0.59
14 0.18
15 0.18
16 0.29
17 0.81
18 0.24
19 0.26
2 -0.43
20 0.04
21 0.28
22 0.27
3 -0.57
34 0.15
4 -0.57
5 0.03
6 0.05
7 -0.34
8 -0.34
9 -0.18

> <PUBCHEM_EFFECTIVE_ROTOR_COUNT>
6

> <PUBCHEM_PHARMACOPHORE_FEATURES>
8
1 3 acceptor
1 4 acceptor
1 5 cation
1 5 donor
3 6 7 18 cation
3 6 8 20 cation
5 5 9 10 11 12 rings
5 6 7 8 18 20 rings

> <PUBCHEM_HEAVY_ATOM_COUNT>
21

> <PUBCHEM_ATOM_DEF_STEREO_COUNT>
0

> <PUBCHEM_ATOM_UDEF_STEREO_COUNT>
0

> <PUBCHEM_BOND_DEF_STEREO_COUNT>
0

> <PUBCHEM_BOND_UDEF_STEREO_COUNT>
0

> <PUBCHEM_ISOTOPIC_ATOM_COUNT>
0

> <PUBCHEM_COMPONENT_COUNT>
1

> <PUBCHEM_CACTVS_TAUTO_COUNT>
18

> <PUBCHEM_CONFORMER_ID>
01096FF100000001

> <PUBCHEM_MMFF94_ENERGY>
32.5514

> <PUBCHEM_FEATURE_SELFOVERLAP>
43.097

> <PUBCHEM_SHAPE_FINGERPRINT>
10411042 1 17906169904223400390
10595046 47 18336266756675602687
11089746 13 18409735045179405903
11578080 2 17025171622257202424
11646440 116 17749385953470023289
12166972 35 18339921520188818297
12236239 1 18410856555350103531
12596602 18 14261057771413583429
13167372 99 18409728477926873736
13533116 47 13984929767373030076
13785724 45 17833834146211900242
14251764 18 18272091578613643018
15183329 4 18410571807608313320
15196674 1 18410010992654993521
1601671 61 18410575102301975092
17844677 252 18410003317890924193
18681886 176 18260836977027394866
20281389 69 18342459231353051925
20645477 70 18261387901036061678
21267235 1 18410286995832540199
212847 35 18342173350066806916
21315763 129 18410856551567021077
21315764 268 18341056216178153237
21421861 104 17845102925231459722
21709351 56 18409737253093354749
23402539 116 18187089442212699927
23402655 69 18333732407531537679
23559900 14 18334861640691815091
335352 9 18410573981658499926
350125 39 18411700997597852500
351380 180 18411699885522634457
3545911 37 18408039606992407531
4072396 5 18335145310803047698
4073 2 17988637450339144203
4214541 1 18410292510907944005
4325135 7 18260551104932815239
5104073 3 18271530780127705386
54446538 1 18408605838485472365
6328613 192 18272362032646802460
8272917 22 18335980951934469222
9996256 80 18411139108849272607

> <PUBCHEM_SHAPE_MULTIPOLES>
398.49
16.63
2.31
0.63
11.26
0.65
0
0.86
-1.17
-0.52
0.03
-0.19
-0.02
-0.42

> <PUBCHEM_SHAPE_SELFOVERLAP>
825.258

> <PUBCHEM_SHAPE_VOLUME>
232.6

> <PUBCHEM_COORDINATE_TYPE>
2
5
10

$$$$

