4315
  -OEChem-06261200023D

 56 60  0     0  0  0  0  0  0999 V2000
    5.1384   -0.3422    1.3420 O   0  0  0  0  0  0  0  0  0  0  0  0
    6.5456    0.6367   -0.3519 O   0  0  0  0  0  0  0  0  0  0  0  0
   -1.3838    2.3186    0.9881 O   0  0  0  0  0  0  0  0  0  0  0  0
   -7.4845   -0.2995    0.0612 O   0  0  0  0  0  0  0  0  0  0  0  0
   -6.7997    1.4323   -1.2635 O   0  0  0  0  0  0  0  0  0  0  0  0
   -2.5523   -0.6218    0.4466 N   0  0  0  0  0  0  0  0  0  0  0  0
    0.4235    2.0818   -0.4516 N   0  0  0  0  0  0  0  0  0  0  0  0
   -5.2171    0.0946   -0.1936 N   0  0  0  0  0  0  0  0  0  0  0  0
   -0.3598   -1.3971   -0.1113 N   0  0  0  0  0  0  0  0  0  0  0  0
    1.7851   -2.1495   -0.6058 N   0  0  0  0  0  0  0  0  0  0  0  0
    1.2710   -1.7499    1.6275 N   0  0  0  0  0  0  0  0  0  0  0  0
    2.6523   -2.6346   -2.5920 N   0  0  0  0  0  0  0  0  0  0  0  0
   -2.8297    0.4537   -0.4240 C   0  0  0  0  0  0  0  0  0  0  0  0
   -1.7195    1.2016   -1.1147 C   0  0  0  0  0  0  0  0  0  0  0  0
    1.4049    2.7522    0.3709 C   0  0  0  0  0  0  0  0  0  0  0  0
    2.7876    2.2102    0.1500 C   0  0  0  0  0  0  0  0  0  0  0  0
   -4.1134    0.7743   -0.7127 C   0  0  0  0  0  0  0  0  0  0  0  0
   -0.8985    1.9208   -0.0697 C   0  0  0  0  0  0  0  0  0  0  0  0
   -3.6534   -1.3170    0.9372 C   0  0  0  0  0  0  0  0  0  0  0  0
   -1.2358   -1.0122    0.8398 C   0  0  0  0  0  0  0  0  0  0  0  0
    4.5241    0.6806    0.6873 C   0  0  0  0  0  0  0  0  0  0  0  0
    3.2468    1.1440    0.9270 C   0  0  0  0  0  0  0  0  0  0  0  0
   -4.9176   -0.9775    0.6416 C   0  0  0  0  0  0  0  0  0  0  0  0
    5.3277    1.2396   -0.2799 C   0  0  0  0  0  0  0  0  0  0  0  0
    3.6087    2.7815   -0.8381 C   0  0  0  0  0  0  0  0  0  0  0  0
    4.8983    2.2930   -1.0606 C   0  0  0  0  0  0  0  0  0  0  0  0
   -0.9365   -0.9706    2.1864 C   0  0  0  0  0  0  0  0  0  0  0  0
    6.4185   -0.3648    0.6780 C   0  0  0  0  0  0  0  0  0  0  0  0
   -6.5245    0.4861   -0.5261 C   0  0  0  0  0  0  0  0  0  0  0  0
    0.8575   -1.7478    0.3459 C   0  0  0  0  0  0  0  0  0  0  0  0
    0.3448   -1.3542    2.5253 C   0  0  0  0  0  0  0  0  0  0  0  0
    3.0711   -2.5446   -0.3663 C   0  0  0  0  0  0  0  0  0  0  0  0
    1.5794   -2.2199   -1.9556 C   0  0  0  0  0  0  0  0  0  0  0  0
    3.5857   -2.8394   -1.6069 C   0  0  0  0  0  0  0  0  0  0  0  0
   -8.8449    0.0411   -0.2306 C   0  0  0  0  0  0  0  0  0  0  0  0
   -1.1044    0.5171   -1.7077 H   0  0  0  0  0  0  0  0  0  0  0  0
   -2.1017    1.9626   -1.8058 H   0  0  0  0  0  0  0  0  0  0  0  0
    1.1227    2.6673    1.4270 H   0  0  0  0  0  0  0  0  0  0  0  0
    1.3648    3.8196    0.1237 H   0  0  0  0  0  0  0  0  0  0  0  0
   -4.3399    1.5895   -1.3928 H   0  0  0  0  0  0  0  0  0  0  0  0
   -3.4339   -2.1609    1.5825 H   0  0  0  0  0  0  0  0  0  0  0  0
    0.7078    1.7749   -1.3777 H   0  0  0  0  0  0  0  0  0  0  0  0
    2.6306    0.7030    1.7013 H   0  0  0  0  0  0  0  0  0  0  0  0
   -5.7431   -1.5460    1.0534 H   0  0  0  0  0  0  0  0  0  0  0  0
    3.2457    3.6099   -1.4415 H   0  0  0  0  0  0  0  0  0  0  0  0
    5.5344    2.7303   -1.8217 H   0  0  0  0  0  0  0  0  0  0  0  0
   -1.6417   -0.6513    2.9437 H   0  0  0  0  0  0  0  0  0  0  0  0
    7.2042   -0.2024    1.4247 H   0  0  0  0  0  0  0  0  0  0  0  0
    6.5613   -1.3531    0.2258 H   0  0  0  0  0  0  0  0  0  0  0  0
    0.6737   -1.3507    3.5590 H   0  0  0  0  0  0  0  0  0  0  0  0
    3.5094   -2.5940    0.6212 H   0  0  0  0  0  0  0  0  0  0  0  0
    0.6424   -1.9613   -2.4320 H   0  0  0  0  0  0  0  0  0  0  0  0
    4.5807   -3.1889   -1.8403 H   0  0  0  0  0  0  0  0  0  0  0  0
   -9.0648    1.0538    0.1204 H   0  0  0  0  0  0  0  0  0  0  0  0
   -9.0350   -0.0478   -1.3043 H   0  0  0  0  0  0  0  0  0  0  0  0
   -9.4919   -0.6625    0.2999 H   0  0  0  0  0  0  0  0  0  0  0  0
  1 21  1  0  0  0  0
  1 28  1  0  0  0  0
  2 24  1  0  0  0  0
  2 28  1  0  0  0  0
  3 18  2  0  0  0  0
  4 29  1  0  0  0  0
  4 35  1  0  0  0  0
  5 29  2  0  0  0  0
  6 13  1  0  0  0  0
  6 19  1  0  0  0  0
  6 20  1  0  0  0  0
  7 15  1  0  0  0  0
  7 18  1  0  0  0  0
  7 42  1  0  0  0  0
  8 17  1  0  0  0  0
  8 23  1  0  0  0  0
  8 29  1  0  0  0  0
  9 20  2  0  0  0  0
  9 30  1  0  0  0  0
 10 30  1  0  0  0  0
 10 32  1  0  0  0  0
 10 33  1  0  0  0  0
 11 30  2  0  0  0  0
 11 31  1  0  0  0  0
 12 33  2  0  0  0  0
 12 34  1  0  0  0  0
 13 14  1  0  0  0  0
 13 17  2  0  0  0  0
 14 18  1  0  0  0  0
 14 36  1  0  0  0  0
 14 37  1  0  0  0  0
 15 16  1  0  0  0  0
 15 38  1  0  0  0  0
 15 39  1  0  0  0  0
 16 22  2  0  0  0  0
 16 25  1  0  0  0  0
 17 40  1  0  0  0  0
 19 23  2  0  0  0  0
 19 41  1  0  0  0  0
 20 27  1  0  0  0  0
 21 22  1  0  0  0  0
 21 24  2  0  0  0  0
 22 43  1  0  0  0  0
 23 44  1  0  0  0  0
 24 26  1  0  0  0  0
 25 26  2  0  0  0  0
 25 45  1  0  0  0  0
 26 46  1  0  0  0  0
 27 31  2  0  0  0  0
 27 47  1  0  0  0  0
 28 48  1  0  0  0  0
 28 49  1  0  0  0  0
 31 50  1  0  0  0  0
 32 34  2  0  0  0  0
 32 51  1  0  0  0  0
 33 52  1  0  0  0  0
 34 53  1  0  0  0  0
 35 54  1  0  0  0  0
 35 55  1  0  0  0  0
 35 56  1  0  0  0  0
M  END
> <PUBCHEM_COMPOUND_CID>
4315

> <PUBCHEM_CONFORMER_RMSD>
1.2

> <PUBCHEM_CONFORMER_DIVERSEORDER>
1
28
35
211
60
227
231
200
173
44
212
30
233
54
118
229
187
41
155
78
164
194
213
215
238
71
228
181
237
218
130
55
232
140
151
125
189
205
97
40
72
221
156
139
82
107
224
14
165
182
81
167
75
184
208
146
166
100
101
198
92
161
178
145
230
99
148
133
88
222
29
158
196
90
210
65
57
143
214
9
94
185
197
157
219
216
36
124
177
147
66
169
112
144
225
79
91
239
193
113
4
195
69
153
217
180
109
43
159
141
174
179
206
117
64
120
127
149
98
115
128
106
6
77
33
186
104
110
103
58
203
15
13
183
154
102
122
96
136
162
27
67
11
37
199
142
176
52
150
80
46
234
201
172
63
207
168
2
202
89
3
121
170
190
209
236
83
160
62
49
76
240
123
137
86
192
32
129
20
235
38
220
204
47
191
16
126
87
119
8
134
114
48
163
116
175
61
26
19
105
188
53
95
10
135
93
31
108
56
21
25
34
138
223
70
39
132
50
152
226
45
131
24
17
84
5
23
18
51
12
68
85
59
42
22
73
74
7
111
171

> <PUBCHEM_MMFF94_PARTIAL_CHARGES>
47
1 -0.36
10 0.33
11 -0.62
12 -0.57
13 -0.04
14 0.2
15 0.44
16 -0.14
17 -0.04
18 0.57
19 -0.05
2 -0.36
20 0.41
21 0.08
22 -0.15
23 -0.04
24 0.08
25 -0.15
26 -0.15
27 -0.15
28 0.56
29 0.78
3 -0.57
30 0.6
31 0.16
32 -0.3
33 0.04
34 0.08
35 0.28
4 -0.43
40 0.15
41 0.15
42 0.37
43 0.15
44 0.15
45 0.15
46 0.15
47 0.15
5 -0.57
50 0.15
51 0.15
52 0.15
53 0.15
6 -0.3
7 -0.73
8 -0.28
9 -0.62

> <PUBCHEM_EFFECTIVE_ROTOR_COUNT>
10

> <PUBCHEM_PHARMACOPHORE_FEATURES>
11
1 1 acceptor
1 2 acceptor
1 3 acceptor
1 5 acceptor
1 7 donor
4 9 10 11 30 cation
5 1 2 21 24 28 rings
5 10 12 32 33 34 rings
6 16 21 22 24 25 26 rings
6 6 8 13 17 19 23 rings
6 9 11 20 27 30 31 rings

> <PUBCHEM_HEAVY_ATOM_COUNT>
35

> <PUBCHEM_ATOM_DEF_STEREO_COUNT>
0

> <PUBCHEM_ATOM_UDEF_STEREO_COUNT>
0

> <PUBCHEM_BOND_DEF_STEREO_COUNT>
0

> <PUBCHEM_BOND_UDEF_STEREO_COUNT>
0

> <PUBCHEM_ISOTOPIC_ATOM_COUNT>
0

> <PUBCHEM_COMPONENT_COUNT>
1

> <PUBCHEM_CACTVS_TAUTO_COUNT>
2

> <PUBCHEM_CONFORMER_ID>
000010DB00000001

> <PUBCHEM_MMFF94_ENERGY>
94.9082

> <PUBCHEM_FEATURE_SELFOVERLAP>
55.973

> <PUBCHEM_SHAPE_FINGERPRINT>
11828532 37 17846488206386406955
12107698 1 18338800151419413614
13402501 40 18343582923973596160
1361 2 18259983794717436407
14117953 113 18334289869033622286
14725015 67 18341904017289813408
15183329 4 18413387627076114633
15264996 44 17969484062012326630
15403338 16 17703245000315285194
15721738 202 17749671899492046106
15840311 113 15913329065600777141
16728300 4 17485396648438503130
20554085 129 17418089931673061571
20691752 17 17701804695590314784
20764821 26 18049974939998963600
20771845 140 17530972383976058854
20775438 99 17474421404161876085
21781051 124 16343120478030046457
27425 322 16056029126789183780
3004659 81 17989211421790654288
3298306 158 18338796715171237964
3411729 13 18342742892921718981
34797466 226 18409448107616562167
4093350 32 18113616828882603319
46194498 28 18188489202304276359
5265222 85 17909253690346186252
6138700 20 18272654549767873872

> <PUBCHEM_SHAPE_MULTIPOLES>
656.07
16.93
3.28
1.74
26
0.01
0.08
-4.06
-2.79
-4.11
-1.1
-0.97
1.25
1.45

> <PUBCHEM_SHAPE_SELFOVERLAP>
1444.769

> <PUBCHEM_SHAPE_VOLUME>
350.4

> <PUBCHEM_COORDINATE_TYPE>
2
5
10

$$$$

