6750
  -OEChem-06261201292D

 52 54  0     1  0  0  0  0  0999 V2000
    4.5961   -1.4824    0.0000 O   0  0  0  0  0  0  0  0  0  0  0  0
    6.3856    0.5347    0.0000 O   0  0  0  0  0  0  0  0  0  0  0  0
   10.8064   -1.2052    0.0000 O   0  0  0  0  0  0  0  0  0  0  0  0
   10.8064   -2.8146    0.0000 O   0  0  0  0  0  0  0  0  0  0  0  0
    5.4679    0.0143    0.0000 O   0  0  0  0  0  0  0  0  0  0  0  0
    8.1176    0.5147    0.0000 O   0  0  0  0  0  0  0  0  0  0  0  0
    6.3282   -1.4891    0.0000 C   0  0  3  0  0  0  0  0  0  0  0  0
    6.3282   -2.5307    0.0000 C   0  0  3  0  0  0  0  0  0  0  0  0
    7.2342   -0.9752    0.0000 C   0  0  3  0  0  0  0  0  0  0  0  0
    7.2342   -3.0445    0.0000 C   0  0  0  0  0  0  0  0  0  0  0  0
    8.1282   -1.5099    0.0000 C   0  0  0  0  0  0  0  0  0  0  0  0
    8.1282   -2.5099    0.0000 C   0  0  0  0  0  0  0  0  0  0  0  0
    5.4641   -3.0340    0.0000 C   0  0  0  0  0  0  0  0  0  0  0  0
    5.4641   -0.9857    0.0000 C   0  0  0  0  0  0  0  0  0  0  0  0
    7.2458    0.0247    0.0000 C   0  0  0  0  0  0  0  0  0  0  0  0
    8.9942   -1.0099    0.0000 C   0  0  0  0  0  0  0  0  0  0  0  0
    8.9942   -3.0099    0.0000 C   0  0  0  0  0  0  0  0  0  0  0  0
    9.8602   -1.5099    0.0000 C   0  0  0  0  0  0  0  0  0  0  0  0
    9.8602   -2.5099    0.0000 C   0  0  0  0  0  0  0  0  0  0  0  0
   11.3901   -2.0099    0.0000 C   0  0  0  0  0  0  0  0  0  0  0  0
    3.7320   -0.9791    0.0000 C   0  0  0  0  0  0  0  0  0  0  0  0
    6.3972    1.5346    0.0000 C   0  0  0  0  0  0  0  0  0  0  0  0
    2.8641   -1.4757    0.0000 C   0  0  0  0  0  0  0  0  0  0  0  0
    5.5370    2.0446    0.0000 C   0  0  0  0  0  0  0  0  0  0  0  0
    2.0000   -0.9724    0.0000 C   0  0  0  0  0  0  0  0  0  0  0  0
    5.5486    3.0445    0.0000 C   0  0  0  0  0  0  0  0  0  0  0  0
    5.7906   -1.7980    0.0000 H   0  0  0  0  0  0  0  0  0  0  0  0
    5.7906   -2.2217    0.0000 H   0  0  0  0  0  0  0  0  0  0  0  0
    6.7003   -0.6601    0.0000 H   0  0  0  0  0  0  0  0  0  0  0  0
    6.8406   -3.5236    0.0000 H   0  0  0  0  0  0  0  0  0  0  0  0
    7.6388   -3.5143    0.0000 H   0  0  0  0  0  0  0  0  0  0  0  0
    5.1520   -2.4983    0.0000 H   0  0  0  0  0  0  0  0  0  0  0  0
    4.9283   -3.3461    0.0000 H   0  0  0  0  0  0  0  0  0  0  0  0
    5.7761   -3.5698    0.0000 H   0  0  0  0  0  0  0  0  0  0  0  0
    8.9942   -0.3899    0.0000 H   0  0  0  0  0  0  0  0  0  0  0  0
    8.9942   -3.6299    0.0000 H   0  0  0  0  0  0  0  0  0  0  0  0
   11.8509   -2.4246    0.0000 H   0  0  0  0  0  0  0  0  0  0  0  0
   11.8509   -1.5952    0.0000 H   0  0  0  0  0  0  0  0  0  0  0  0
    4.1324   -0.5056    0.0000 H   0  0  0  0  0  0  0  0  0  0  0  0
    3.3353   -0.5026    0.0000 H   0  0  0  0  0  0  0  0  0  0  0  0
    7.0065    1.4199    0.0000 H   0  0  0  0  0  0  0  0  0  0  0  0
    6.6160    2.1148    0.0000 H   0  0  0  0  0  0  0  0  0  0  0  0
    2.4637   -1.9491    0.0000 H   0  0  0  0  0  0  0  0  0  0  0  0
    3.2608   -1.9522    0.0000 H   0  0  0  0  0  0  0  0  0  0  0  0
    4.9277    2.1593    0.0000 H   0  0  0  0  0  0  0  0  0  0  0  0
    5.3182    1.4645    0.0000 H   0  0  0  0  0  0  0  0  0  0  0  0
    2.3121   -0.4366    0.0000 H   0  0  0  0  0  0  0  0  0  0  0  0
    1.4643   -0.6603    0.0000 H   0  0  0  0  0  0  0  0  0  0  0  0
    1.6879   -1.5081    0.0000 H   0  0  0  0  0  0  0  0  0  0  0  0
    6.1685    3.0374    0.0000 H   0  0  0  0  0  0  0  0  0  0  0  0
    5.5557    3.6645    0.0000 H   0  0  0  0  0  0  0  0  0  0  0  0
    4.9286    3.0517    0.0000 H   0  0  0  0  0  0  0  0  0  0  0  0
  1 14  1  0  0  0  0
  1 21  1  0  0  0  0
  2 15  1  0  0  0  0
  2 22  1  0  0  0  0
  3 18  1  0  0  0  0
  3 20  1  0  0  0  0
  4 19  1  0  0  0  0
  4 20  1  0  0  0  0
  5 14  2  0  0  0  0
  6 15  2  0  0  0  0
  7  8  1  0  0  0  0
  7  9  1  0  0  0  0
  7 14  1  0  0  0  0
  7 27  1  0  0  0  0
  8 10  1  0  0  0  0
  8 13  1  0  0  0  0
  8 28  1  0  0  0  0
  9 11  1  0  0  0  0
  9 15  1  0  0  0  0
  9 29  1  0  0  0  0
 10 12  1  0  0  0  0
 10 30  1  0  0  0  0
 10 31  1  0  0  0  0
 11 12  1  0  0  0  0
 11 16  2  0  0  0  0
 12 17  2  0  0  0  0
 13 32  1  0  0  0  0
 13 33  1  0  0  0  0
 13 34  1  0  0  0  0
 16 18  1  0  0  0  0
 16 35  1  0  0  0  0
 17 19  1  0  0  0  0
 17 36  1  0  0  0  0
 18 19  2  0  0  0  0
 20 37  1  0  0  0  0
 20 38  1  0  0  0  0
 21 23  1  0  0  0  0
 21 39  1  0  0  0  0
 21 40  1  0  0  0  0
 22 24  1  0  0  0  0
 22 41  1  0  0  0  0
 22 42  1  0  0  0  0
 23 25  1  0  0  0  0
 23 43  1  0  0  0  0
 23 44  1  0  0  0  0
 24 26  1  0  0  0  0
 24 45  1  0  0  0  0
 24 46  1  0  0  0  0
 25 47  1  0  0  0  0
 25 48  1  0  0  0  0
 25 49  1  0  0  0  0
 26 50  1  0  0  0  0
 26 51  1  0  0  0  0
 26 52  1  0  0  0  0
M  END
> <PUBCHEM_COMPOUND_CID>
6750

> <PUBCHEM_COMPOUND_CANONICALIZED>
1

> <PUBCHEM_CACTVS_COMPLEXITY>
507

> <PUBCHEM_CACTVS_HBOND_ACCEPTOR>
6

> <PUBCHEM_CACTVS_HBOND_DONOR>
0

> <PUBCHEM_CACTVS_ROTATABLE_BOND>
8

> <PUBCHEM_CACTVS_SUBSKEYS>
AAADceB4OAAAAAAAAAAAAAAAAAAAASAAAAAwYAAAAAAAAEjBAAAAGgAAAAAADQSgmAMyDoAABACIAiDSCAACCAAgIAAAiAEGiIgdJjKENRqiMCIkwBEOqAfL7PzOoAABAAAQQADAAAYAACCAAAAAAAAAAA==

> <PUBCHEM_IUPAC_OPENEYE_NAME>
dipropyl 7-methyl-5,6,7,8-tetrahydrobenzo[f][1,3]benzodioxole-5,6-dicarboxylate

> <PUBCHEM_IUPAC_CAS_NAME>
7-methyl-5,6,7,8-tetrahydrobenzo[f][1,3]benzodioxole-5,6-dicarboxylic acid dipropyl ester

> <PUBCHEM_IUPAC_NAME>
dipropyl 7-methyl-5,6,7,8-tetrahydrobenzo[f][1,3]benzodioxole-5,6-dicarboxylate

> <PUBCHEM_IUPAC_SYSTEMATIC_NAME>
dipropyl 7-methyl-5,6,7,8-tetrahydrobenzo[f][1,3]benzodioxole-5,6-dicarboxylate

> <PUBCHEM_IUPAC_TRADITIONAL_NAME>
7-methyl-5,6,7,8-tetrahydrobenzo[f][1,3]benzodioxole-5,6-dicarboxylic acid dipropyl ester

> <PUBCHEM_IUPAC_INCHI>
InChI=1S/C20H26O6/c1-4-6-23-19(21)17-12(3)8-13-9-15-16(26-11-25-15)10-14(13)18(17)20(22)24-7-5-2/h9-10,12,17-18H,4-8,11H2,1-3H3

> <PUBCHEM_IUPAC_INCHIKEY>
UEKQGZQLUMSLNW-UHFFFAOYSA-N

> <PUBCHEM_XLOGP3_AA>
4

> <PUBCHEM_EXACT_MASS>
362.172939

> <PUBCHEM_MOLECULAR_FORMULA>
C20H26O6

> <PUBCHEM_MOLECULAR_WEIGHT>
362.41684

> <PUBCHEM_OPENEYE_CAN_SMILES>
CCCOC(=O)C1C(CC2=CC3=C(C=C2C1C(=O)OCCC)OCO3)C

> <PUBCHEM_OPENEYE_ISO_SMILES>
CCCOC(=O)C1C(CC2=CC3=C(C=C2C1C(=O)OCCC)OCO3)C

> <PUBCHEM_CACTVS_TPSA>
71.1

> <PUBCHEM_MONOISOTOPIC_WEIGHT>
362.172939

> <PUBCHEM_TOTAL_CHARGE>
0

> <PUBCHEM_HEAVY_ATOM_COUNT>
26

> <PUBCHEM_ATOM_DEF_STEREO_COUNT>
0

> <PUBCHEM_ATOM_UDEF_STEREO_COUNT>
3

> <PUBCHEM_BOND_DEF_STEREO_COUNT>
0

> <PUBCHEM_BOND_UDEF_STEREO_COUNT>
0

> <PUBCHEM_ISOTOPIC_ATOM_COUNT>
0

> <PUBCHEM_COMPONENT_COUNT>
1

> <PUBCHEM_CACTVS_TAUTO_COUNT>
1

> <PUBCHEM_COORDINATE_TYPE>
1
5
255

> <PUBCHEM_BONDANNOTATIONS>
11  12  8
11  16  8
12  17  8
16  18  8
17  19  8
18  19  8
7  14  3
8  13  3
9  15  3

$$$$

