7954
  -OEChem-06261202293D

  9  9  0     0  0  0  0  0  0999 V2000
    0.9967   -2.8333    0.0023 Cl  0  0  0  0  0  0  0  0  0  0  0  0
   -2.9520    0.5534    0.0030 Cl  0  0  0  0  0  0  0  0  0  0  0  0
    1.9555    2.2796    0.0029 Cl  0  0  0  0  0  0  0  0  0  0  0  0
   -0.9019   -1.0516   -0.0012 N   0  0  0  0  0  0  0  0  0  0  0  0
    1.3617   -0.2552   -0.0010 N   0  0  0  0  0  0  0  0  0  0  0  0
   -0.4598    1.3068   -0.0018 N   0  0  0  0  0  0  0  0  0  0  0  0
    0.4301   -1.2222   -0.0009 C   0  0  0  0  0  0  0  0  0  0  0  0
   -1.2736    0.2387   -0.0017 C   0  0  0  0  0  0  0  0  0  0  0  0
    0.8434    0.9836   -0.0016 C   0  0  0  0  0  0  0  0  0  0  0  0
  1  7  1  0  0  0  0
  2  8  1  0  0  0  0
  3  9  1  0  0  0  0
  4  7  2  0  0  0  0
  4  8  1  0  0  0  0
  5  7  1  0  0  0  0
  5  9  2  0  0  0  0
  6  8  2  0  0  0  0
  6  9  1  0  0  0  0
M  END
> <PUBCHEM_COMPOUND_CID>
7954

> <PUBCHEM_CONFORMER_RMSD>
0.4

> <PUBCHEM_CONFORMER_DIVERSEORDER>
1

> <PUBCHEM_MMFF94_PARTIAL_CHARGES>
9
1 -0.18
2 -0.18
3 -0.18
4 -0.62
5 -0.62
6 -0.62
7 0.8
8 0.8
9 0.8

> <PUBCHEM_EFFECTIVE_ROTOR_COUNT>
0

> <PUBCHEM_PHARMACOPHORE_FEATURES>
4
3 4 5 7 cation
3 4 6 8 cation
3 5 6 9 cation
6 4 5 6 7 8 9 rings

> <PUBCHEM_HEAVY_ATOM_COUNT>
9

> <PUBCHEM_ATOM_DEF_STEREO_COUNT>
0

> <PUBCHEM_ATOM_UDEF_STEREO_COUNT>
0

> <PUBCHEM_BOND_DEF_STEREO_COUNT>
0

> <PUBCHEM_BOND_UDEF_STEREO_COUNT>
0

> <PUBCHEM_ISOTOPIC_ATOM_COUNT>
0

> <PUBCHEM_COMPONENT_COUNT>
1

> <PUBCHEM_CACTVS_TAUTO_COUNT>
1

> <PUBCHEM_CONFORMER_ID>
00001F1200000001

> <PUBCHEM_MMFF94_ENERGY>
11.8048

> <PUBCHEM_FEATURE_SELFOVERLAP>
23.07

> <PUBCHEM_SHAPE_FINGERPRINT>
1 1 18411139121301372077
12716758 59 17976250241014133532
16945 1 18338799017299750725
20871998 184 17036119313353189652
21040471 1 18194683653009169764
23552423 10 18409167740213581487
23552449 1 17040918664175387276
241688 4 17617941773584171424
2748010 2 18268140959677073703
29004967 10 18196932382179506563

> <PUBCHEM_SHAPE_MULTIPOLES>
175.88
2.88
2.88
0.6
1.88
1.81
0
-1.81
0
-1.88
0
0
0
0

> <PUBCHEM_SHAPE_SELFOVERLAP>
336.034

> <PUBCHEM_SHAPE_VOLUME>
103.6

> <PUBCHEM_COORDINATE_TYPE>
2
5
10

$$$$

