14385
  -OEChem-06241222432D

 27 28  0     0  0  0  0  0  0999 V2000
    2.5369   -3.7500    0.0000 Cl  0  0  0  0  0  0  0  0  0  0  0  0
    6.0010   -3.7500    0.0000 Cl  0  0  0  0  0  0  0  0  0  0  0  0
    6.8671    2.7500    0.0000 Cl  0  0  0  0  0  0  0  0  0  0  0  0
    5.1350    3.7500    0.0000 Cl  0  0  0  0  0  0  0  0  0  0  0  0
    2.5369   -1.7500    0.0000 O   0  0  0  0  0  0  0  0  0  0  0  0
    3.4030   -0.2500    0.0000 O   0  0  0  0  0  0  0  0  0  0  0  0
    5.1350   -0.2500    0.0000 N   0  0  0  0  0  0  0  0  0  0  0  0
    4.2690   -1.7500    0.0000 C   0  0  0  0  0  0  0  0  0  0  0  0
    5.1350    0.7500    0.0000 C   0  0  0  0  0  0  0  0  0  0  0  0
    4.2690   -0.7500    0.0000 C   0  0  0  0  0  0  0  0  0  0  0  0
    3.4030   -2.2500    0.0000 C   0  0  0  0  0  0  0  0  0  0  0  0
    5.1350   -2.2500    0.0000 C   0  0  0  0  0  0  0  0  0  0  0  0
    6.0010    1.2500    0.0000 C   0  0  0  0  0  0  0  0  0  0  0  0
    4.2690    1.2500    0.0000 C   0  0  0  0  0  0  0  0  0  0  0  0
    3.4030   -3.2500    0.0000 C   0  0  0  0  0  0  0  0  0  0  0  0
    5.1350   -3.2500    0.0000 C   0  0  0  0  0  0  0  0  0  0  0  0
    4.2690   -3.7500    0.0000 C   0  0  0  0  0  0  0  0  0  0  0  0
    6.0010    2.2500    0.0000 C   0  0  0  0  0  0  0  0  0  0  0  0
    4.2690    2.2500    0.0000 C   0  0  0  0  0  0  0  0  0  0  0  0
    5.1350    2.7500    0.0000 C   0  0  0  0  0  0  0  0  0  0  0  0
    5.6720   -0.5600    0.0000 H   0  0  0  0  0  0  0  0  0  0  0  0
    5.6720   -1.9400    0.0000 H   0  0  0  0  0  0  0  0  0  0  0  0
    6.5380    0.9400    0.0000 H   0  0  0  0  0  0  0  0  0  0  0  0
    3.7320    0.9400    0.0000 H   0  0  0  0  0  0  0  0  0  0  0  0
    4.2690   -4.3700    0.0000 H   0  0  0  0  0  0  0  0  0  0  0  0
    3.7320    2.5600    0.0000 H   0  0  0  0  0  0  0  0  0  0  0  0
    2.0000   -2.0600    0.0000 H   0  0  0  0  0  0  0  0  0  0  0  0
  1 15  1  0  0  0  0
  2 16  1  0  0  0  0
  3 18  1  0  0  0  0
  4 20  1  0  0  0  0
  5 11  1  0  0  0  0
  5 27  1  0  0  0  0
  6 10  2  0  0  0  0
  7  9  1  0  0  0  0
  7 10  1  0  0  0  0
  7 21  1  0  0  0  0
  8 10  1  0  0  0  0
  8 11  2  0  0  0  0
  8 12  1  0  0  0  0
  9 13  2  0  0  0  0
  9 14  1  0  0  0  0
 11 15  1  0  0  0  0
 12 16  2  0  0  0  0
 12 22  1  0  0  0  0
 13 18  1  0  0  0  0
 13 23  1  0  0  0  0
 14 19  2  0  0  0  0
 14 24  1  0  0  0  0
 15 17  2  0  0  0  0
 16 17  1  0  0  0  0
 17 25  1  0  0  0  0
 18 20  2  0  0  0  0
 19 20  1  0  0  0  0
 19 26  1  0  0  0  0
M  END
> <PUBCHEM_COMPOUND_CID>
14385

> <PUBCHEM_COMPOUND_CANONICALIZED>
1

> <PUBCHEM_CACTVS_COMPLEXITY>
357

> <PUBCHEM_CACTVS_HBOND_ACCEPTOR>
2

> <PUBCHEM_CACTVS_HBOND_DONOR>
2

> <PUBCHEM_CACTVS_ROTATABLE_BOND>
2

> <PUBCHEM_CACTVS_SUBSKEYS>
AAADcYByMAAHAAAAAAAAAAAAAAAAAAAAAAAwYAAAAAAAAAABQAAAHgIQCAAADA6BmCAwxoLAAgCIAiVSUACCAAAlJ0AIikEEb8gIJjbDl5OEcUhm9BHI2YeYyCCOACBAIAKICAQAQIBABRAQCAAAAAAAAA==

> <PUBCHEM_IUPAC_OPENEYE_NAME>
3,5-dichloro-N-(3,4-dichlorophenyl)-2-hydroxy-benzamide

> <PUBCHEM_IUPAC_CAS_NAME>
3,5-dichloro-N-(3,4-dichlorophenyl)-2-hydroxybenzamide

> <PUBCHEM_IUPAC_NAME>
3,5-dichloro-N-(3,4-dichlorophenyl)-2-hydroxybenzamide

> <PUBCHEM_IUPAC_SYSTEMATIC_NAME>
3,5-bis(chloranyl)-N-(3,4-dichlorophenyl)-2-oxidanyl-benzamide

> <PUBCHEM_IUPAC_TRADITIONAL_NAME>
3,5-dichloro-N-(3,4-dichlorophenyl)-2-hydroxy-benzamide

> <PUBCHEM_IUPAC_INCHI>
InChI=1S/C13H7Cl4NO2/c14-6-3-8(12(19)11(17)4-6)13(20)18-7-1-2-9(15)10(16)5-7/h1-5,19H,(H,18,20)

> <PUBCHEM_IUPAC_INCHIKEY>
SJQBHPJLLIJASD-UHFFFAOYSA-N

> <PUBCHEM_XLOGP3>
5.9

> <PUBCHEM_EXACT_MASS>
350.920139

> <PUBCHEM_MOLECULAR_FORMULA>
C13H7Cl4NO2

> <PUBCHEM_MOLECULAR_WEIGHT>
351.01218

> <PUBCHEM_OPENEYE_CAN_SMILES>
C1=CC(=C(C=C1NC(=O)C2=CC(=CC(=C2O)Cl)Cl)Cl)Cl

> <PUBCHEM_OPENEYE_ISO_SMILES>
C1=CC(=C(C=C1NC(=O)C2=CC(=CC(=C2O)Cl)Cl)Cl)Cl

> <PUBCHEM_CACTVS_TPSA>
49.3

> <PUBCHEM_MONOISOTOPIC_WEIGHT>
348.923089

> <PUBCHEM_TOTAL_CHARGE>
0

> <PUBCHEM_HEAVY_ATOM_COUNT>
20

> <PUBCHEM_ATOM_DEF_STEREO_COUNT>
0

> <PUBCHEM_ATOM_UDEF_STEREO_COUNT>
0

> <PUBCHEM_BOND_DEF_STEREO_COUNT>
0

> <PUBCHEM_BOND_UDEF_STEREO_COUNT>
0

> <PUBCHEM_ISOTOPIC_ATOM_COUNT>
0

> <PUBCHEM_COMPONENT_COUNT>
1

> <PUBCHEM_CACTVS_TAUTO_COUNT>
7

> <PUBCHEM_COORDINATE_TYPE>
1
5
255

> <PUBCHEM_BONDANNOTATIONS>
11  15  8
12  16  8
13  18  8
14  19  8
15  17  8
16  17  8
18  20  8
19  20  8
8  11  8
8  12  8
9  13  8
9  14  8

$$$$

