11834
  -OEChem-06261206103D

 48 50  0     1  0  0  0  0  0999 V2000
   -3.0131    0.2440   -1.2881 O   0  0  0  0  0  0  0  0  0  0  0  0
    1.6306   -0.1844   -0.3976 O   0  0  0  0  0  0  0  0  0  0  0  0
    1.8226    3.5597    1.1975 O   0  0  0  0  0  0  0  0  0  0  0  0
   -4.5264   -1.4441    1.3567 N   0  0  0  0  0  0  0  0  0  0  0  0
   -5.2856   -0.4411   -0.7873 C   0  0  1  0  0  0  0  0  0  0  0  0
   -4.8487   -1.7131   -0.0408 C   0  0  0  0  0  0  0  0  0  0  0  0
   -4.2338    0.6731   -0.6874 C   0  0  0  0  0  0  0  0  0  0  0  0
   -5.5768   -0.7804   -2.2544 C   0  0  0  0  0  0  0  0  0  0  0  0
   -1.8607    0.7797   -0.7998 C   0  0  0  0  0  0  0  0  0  0  0  0
   -4.0682   -2.6641    2.0230 C   0  0  0  0  0  0  0  0  0  0  0  0
   -5.6868   -0.8888    2.0548 C   0  0  0  0  0  0  0  0  0  0  0  0
    0.5005    0.5908   -0.3345 C   0  0  0  0  0  0  0  0  0  0  0  0
    0.4954    1.8783    0.1998 C   0  0  0  0  0  0  0  0  0  0  0  0
   -0.6788    0.0394   -0.8358 C   0  0  0  0  0  0  0  0  0  0  0  0
   -1.8639    2.0686   -0.2644 C   0  0  0  0  0  0  0  0  0  0  0  0
   -0.6858    2.6229    0.2374 C   0  0  0  0  0  0  0  0  0  0  0  0
    2.8162    0.3347    0.0999 C   0  0  0  0  0  0  0  0  0  0  0  0
    1.7533    2.4358    0.7195 C   0  0  0  0  0  0  0  0  0  0  0  0
    2.9400    1.5611    0.6318 C   0  0  0  0  0  0  0  0  0  0  0  0
    3.9693   -0.5796   -0.0224 C   0  0  0  0  0  0  0  0  0  0  0  0
    5.2573   -0.0658   -0.1940 C   0  0  0  0  0  0  0  0  0  0  0  0
    3.7779   -1.9624    0.0329 C   0  0  0  0  0  0  0  0  0  0  0  0
    6.3466   -0.9293   -0.3098 C   0  0  0  0  0  0  0  0  0  0  0  0
    4.8673   -2.8259   -0.0829 C   0  0  0  0  0  0  0  0  0  0  0  0
    6.1516   -2.3092   -0.2542 C   0  0  0  0  0  0  0  0  0  0  0  0
   -6.2277   -0.0627   -0.3735 H   0  0  0  0  0  0  0  0  0  0  0  0
   -5.6417   -2.4696   -0.1189 H   0  0  0  0  0  0  0  0  0  0  0  0
   -3.9666   -2.1343   -0.5410 H   0  0  0  0  0  0  0  0  0  0  0  0
   -4.0992    0.9482    0.3654 H   0  0  0  0  0  0  0  0  0  0  0  0
   -4.5925    1.5585   -1.2267 H   0  0  0  0  0  0  0  0  0  0  0  0
   -5.8948    0.1121   -2.8036 H   0  0  0  0  0  0  0  0  0  0  0  0
   -4.6966   -1.1933   -2.7584 H   0  0  0  0  0  0  0  0  0  0  0  0
   -6.3816   -1.5200   -2.3262 H   0  0  0  0  0  0  0  0  0  0  0  0
   -3.1791   -3.0648    1.5233 H   0  0  0  0  0  0  0  0  0  0  0  0
   -4.8387   -3.4436    2.0355 H   0  0  0  0  0  0  0  0  0  0  0  0
   -3.7748   -2.4515    3.0571 H   0  0  0  0  0  0  0  0  0  0  0  0
   -5.4761   -0.7998    3.1276 H   0  0  0  0  0  0  0  0  0  0  0  0
   -6.5794   -1.5152    1.9432 H   0  0  0  0  0  0  0  0  0  0  0  0
   -5.9224    0.1284    1.7287 H   0  0  0  0  0  0  0  0  0  0  0  0
   -0.6796   -0.9645   -1.2529 H   0  0  0  0  0  0  0  0  0  0  0  0
   -2.7564    2.6873   -0.2462 H   0  0  0  0  0  0  0  0  0  0  0  0
   -0.7056    3.6300    0.6442 H   0  0  0  0  0  0  0  0  0  0  0  0
    3.8652    1.9598    1.0312 H   0  0  0  0  0  0  0  0  0  0  0  0
    5.4485    1.0016   -0.2645 H   0  0  0  0  0  0  0  0  0  0  0  0
    2.7892   -2.3924    0.1740 H   0  0  0  0  0  0  0  0  0  0  0  0
    7.3462   -0.5278   -0.4484 H   0  0  0  0  0  0  0  0  0  0  0  0
    4.7161   -3.9005   -0.0379 H   0  0  0  0  0  0  0  0  0  0  0  0
    6.9997   -2.9816   -0.3451 H   0  0  0  0  0  0  0  0  0  0  0  0
  1  7  1  0  0  0  0
  1  9  1  0  0  0  0
  2 12  1  0  0  0  0
  2 17  1  0  0  0  0
  3 18  2  0  0  0  0
  4  6  1  0  0  0  0
  4 10  1  0  0  0  0
  4 11  1  0  0  0  0
  5  6  1  0  0  0  0
  5  7  1  0  0  0  0
  5  8  1  0  0  0  0
  5 26  1  0  0  0  0
  6 27  1  0  0  0  0
  6 28  1  0  0  0  0
  7 29  1  0  0  0  0
  7 30  1  0  0  0  0
  8 31  1  0  0  0  0
  8 32  1  0  0  0  0
  8 33  1  0  0  0  0
  9 14  2  0  0  0  0
  9 15  1  0  0  0  0
 10 34  1  0  0  0  0
 10 35  1  0  0  0  0
 10 36  1  0  0  0  0
 11 37  1  0  0  0  0
 11 38  1  0  0  0  0
 11 39  1  0  0  0  0
 12 13  2  0  0  0  0
 12 14  1  0  0  0  0
 13 16  1  0  0  0  0
 13 18  1  0  0  0  0
 14 40  1  0  0  0  0
 15 16  2  0  0  0  0
 15 41  1  0  0  0  0
 16 42  1  0  0  0  0
 17 19  2  0  0  0  0
 17 20  1  0  0  0  0
 18 19  1  0  0  0  0
 19 43  1  0  0  0  0
 20 21  2  0  0  0  0
 20 22  1  0  0  0  0
 21 23  1  0  0  0  0
 21 44  1  0  0  0  0
 22 24  2  0  0  0  0
 22 45  1  0  0  0  0
 23 25  2  0  0  0  0
 23 46  1  0  0  0  0
 24 25  1  0  0  0  0
 24 47  1  0  0  0  0
 25 48  1  0  0  0  0
M  END
> <PUBCHEM_COMPOUND_CID>
11834

> <PUBCHEM_CONFORMER_RMSD>
0.8

> <PUBCHEM_CONFORMER_DIVERSEORDER>
1
70
45
48
26
72
66
20
35
53
54
18
15
68
61
56
69
30
36
29
59
34
64
39
37
16
71
23
17
67
65
8
19
5
32
58
52
41
22
47
57
4
3
10
51
25
33
27
46
28
24
60
50
9
12
63
6
38
2
7
11
55
62
40
44
14
21
31
43
13
42
49

> <PUBCHEM_MMFF94_PARTIAL_CHARGES>
32
1 -0.36
10 0.27
11 0.27
12 0.08
13 0.09
14 -0.15
15 -0.15
16 -0.15
17 0.05
18 0.47
19 -0.14
2 -0.16
20 0.03
21 -0.15
22 -0.15
23 -0.15
24 -0.15
25 -0.15
3 -0.57
4 -0.81
40 0.15
41 0.15
42 0.15
43 0.15
44 0.15
45 0.15
46 0.15
47 0.15
48 0.15
6 0.27
7 0.28
9 0.08

> <PUBCHEM_EFFECTIVE_ROTOR_COUNT>
6

> <PUBCHEM_PHARMACOPHORE_FEATURES>
8
1 1 acceptor
1 2 acceptor
1 3 acceptor
1 4 cation
1 8 hydrophobe
6 2 12 13 17 18 19 rings
6 20 21 22 23 24 25 rings
6 9 12 13 14 15 16 rings

> <PUBCHEM_HEAVY_ATOM_COUNT>
25

> <PUBCHEM_ATOM_DEF_STEREO_COUNT>
0

> <PUBCHEM_ATOM_UDEF_STEREO_COUNT>
1

> <PUBCHEM_BOND_DEF_STEREO_COUNT>
0

> <PUBCHEM_BOND_UDEF_STEREO_COUNT>
0

> <PUBCHEM_ISOTOPIC_ATOM_COUNT>
0

> <PUBCHEM_COMPONENT_COUNT>
1

> <PUBCHEM_CACTVS_TAUTO_COUNT>
1

> <PUBCHEM_CONFORMER_ID>
00002E3A00000001

> <PUBCHEM_MMFF94_ENERGY>
79.5336

> <PUBCHEM_FEATURE_SELFOVERLAP>
40.623

> <PUBCHEM_SHAPE_FINGERPRINT>
11135609 99 18129951204133733530
11370993 144 18339073788592187497
11796584 16 17775013379349263675
12107183 9 18040992995046824665
12422481 6 17023456564037149085
12596602 18 16298678195917522723
12633257 1 16732702727111071605
12760667 363 18408604790265584295
12969540 114 11167939139059247143
13103583 49 17822001004652023843
13402501 40 18272082794810268611
13540713 4 18190488071563192416
1361 87 18273213084521606851
13782708 43 18131355210807377682
13911852 28 18189060944108486886
13941219 33 18340756131450469043
13955234 65 18043540408558719128
14211702 104 18195527215458607474
14251751 18 17988915656792923087
14461889 52 18341058450135549842
14767858 380 12607399975535150303
14950920 106 17896305944870731411
15361156 5 18413110563436797925
15475509 84 17822838853866557025
15510800 12 18058731278609396715
15927050 60 17755031796156806524
193927 3 18410006676143906278
20028762 73 17604161345288091103
20281389 69 7493281140563952142
20621476 21 17774992450290440595
21033650 10 16486981734512354629
21267235 1 18187928426258018502
21315764 119 17560244746677832575
21682296 61 18333452062252642839
221490 88 18410858746021334008
2260408 40 16225756450528091388
22950370 63 18261677086006108356
23522609 53 18043506413586862624
23559900 14 18131356276075194941
25025965 108 17900285253150718862
3089732 80 18343017774591101451
314194 84 18334298660499432526
329604 57 18412823621040266606
335352 9 18189062052511184541
3421961 26 18261120642817630496
4073 2 18272089409075124336
465052 167 18041002851817083454
484989 97 18201425957955121226
508706 21 17489030332510185635
5104073 3 18115033034255815080
5486654 36 18336258041738969337
6431902 208 18411135861421557971
7495541 125 18409730642985815604
7918774 8 18410846668536179502
7970288 3 18188783850025136406
8863177 126 18341609257283118675
9862886 166 18060697290929654690
9980921 7 17631151028811371348
999808 66 18412819209529033462

> <PUBCHEM_SHAPE_MULTIPOLES>
491.9
15.79
3.33
1.48
1.17
0.8
0.22
-14.05
-0.79
1.8
1.4
-3.32
-0.57
2.14

> <PUBCHEM_SHAPE_SELFOVERLAP>
1053.326

> <PUBCHEM_SHAPE_VOLUME>
273.4

> <PUBCHEM_COORDINATE_TYPE>
2
5
10

$$$$

