12880
  -OEChem-06261207292D

 33 33  0     0  0  0  0  0  0999 V2000
    5.7320    0.2010    0.0000 O   0  0  0  0  0  0  0  0  0  0  0  0
    2.2680    0.2010    0.0000 O   0  0  0  0  0  0  0  0  0  0  0  0
    4.0000   -2.7990    0.0000 O   0  0  0  0  0  0  0  0  0  0  0  0
    4.8660   -1.2990    0.0000 N   0  0  0  0  0  0  0  0  0  0  0  0
    3.1340   -1.2990    0.0000 N   0  0  0  0  0  0  0  0  0  0  0  0
    4.0000    0.2010    0.0000 C   0  0  0  0  0  0  0  0  0  0  0  0
    4.5000    1.0670    0.0000 C   0  0  0  0  0  0  0  0  0  0  0  0
    3.5000    1.0670    0.0000 C   0  0  0  0  0  0  0  0  0  0  0  0
    4.8660   -0.2990    0.0000 C   0  0  0  0  0  0  0  0  0  0  0  0
    3.1340   -0.2990    0.0000 C   0  0  0  0  0  0  0  0  0  0  0  0
    4.0000   -1.7990    0.0000 C   0  0  0  0  0  0  0  0  0  0  0  0
    2.5000    1.0670    0.0000 C   0  0  0  0  0  0  0  0  0  0  0  0
    4.0000    1.9330    0.0000 C   0  0  0  0  0  0  0  0  0  0  0  0
    2.2680   -1.7990    0.0000 C   0  0  0  0  0  0  0  0  0  0  0  0
    5.7320   -1.7990    0.0000 C   0  0  0  0  0  0  0  0  0  0  0  0
    4.5000    2.7990    0.0000 C   0  0  0  0  0  0  0  0  0  0  0  0
    2.0000    1.9330    0.0000 C   0  0  0  0  0  0  0  0  0  0  0  0
    4.9750    0.6685    0.0000 H   0  0  0  0  0  0  0  0  0  0  0  0
    4.9750    1.4655    0.0000 H   0  0  0  0  0  0  0  0  0  0  0  0
    4.0826    1.2790    0.0000 H   0  0  0  0  0  0  0  0  0  0  0  0
    3.3923    1.6776    0.0000 H   0  0  0  0  0  0  0  0  0  0  0  0
    3.3800    1.9330    0.0000 H   0  0  0  0  0  0  0  0  0  0  0  0
    2.1900    0.5301    0.0000 H   0  0  0  0  0  0  0  0  0  0  0  0
    1.9580   -1.2621    0.0000 H   0  0  0  0  0  0  0  0  0  0  0  0
    1.7310   -2.1090    0.0000 H   0  0  0  0  0  0  0  0  0  0  0  0
    2.5780   -2.3360    0.0000 H   0  0  0  0  0  0  0  0  0  0  0  0
    5.4220   -2.3360    0.0000 H   0  0  0  0  0  0  0  0  0  0  0  0
    6.2690   -2.1090    0.0000 H   0  0  0  0  0  0  0  0  0  0  0  0
    6.0420   -1.2621    0.0000 H   0  0  0  0  0  0  0  0  0  0  0  0
    2.3100    2.4700    0.0000 H   0  0  0  0  0  0  0  0  0  0  0  0
    1.3800    1.9330    0.0000 H   0  0  0  0  0  0  0  0  0  0  0  0
    5.1200    2.7990    0.0000 H   0  0  0  0  0  0  0  0  0  0  0  0
    4.1900    3.3360    0.0000 H   0  0  0  0  0  0  0  0  0  0  0  0
  1  9  2  0  0  0  0
  2 10  2  0  0  0  0
  3 11  2  0  0  0  0
  4  9  1  0  0  0  0
  4 11  1  0  0  0  0
  4 15  1  0  0  0  0
  5 10  1  0  0  0  0
  5 11  1  0  0  0  0
  5 14  1  0  0  0  0
  6  7  1  0  0  0  0
  6  8  1  0  0  0  0
  6  9  1  0  0  0  0
  6 10  1  0  0  0  0
  7 13  1  0  0  0  0
  7 18  1  0  0  0  0
  7 19  1  0  0  0  0
  8 12  1  0  0  0  0
  8 20  1  0  0  0  0
  8 21  1  0  0  0  0
 12 17  2  0  0  0  0
 12 23  1  0  0  0  0
 13 16  2  0  0  0  0
 13 22  1  0  0  0  0
 14 24  1  0  0  0  0
 14 25  1  0  0  0  0
 14 26  1  0  0  0  0
 15 27  1  0  0  0  0
 15 28  1  0  0  0  0
 15 29  1  0  0  0  0
 16 32  1  0  0  0  0
 16 33  1  0  0  0  0
 17 30  1  0  0  0  0
 17 31  1  0  0  0  0
M  END
> <PUBCHEM_COMPOUND_CID>
12880

> <PUBCHEM_COMPOUND_CANONICALIZED>
1

> <PUBCHEM_CACTVS_COMPLEXITY>
365

> <PUBCHEM_CACTVS_HBOND_ACCEPTOR>
3

> <PUBCHEM_CACTVS_HBOND_DONOR>
0

> <PUBCHEM_CACTVS_ROTATABLE_BOND>
4

> <PUBCHEM_CACTVS_SUBSKEYS>
AAADceBzMAAAAAAAAAAAAAAAAAAAAAAAAAAsAAAAAAAAAAAAAAAAHgAAAAAADgCBgAQDAAMAAACIACFSEAAAAAAgAAAIAAEIAAiAABoIwQAEAAAIhyIAAAAAAAALAAAAAAAAAAAAAAAAAAAAAAAAAAAAAA==

> <PUBCHEM_IUPAC_OPENEYE_NAME>
5,5-diallyl-1,3-dimethyl-hexahydropyrimidine-2,4,6-trione

> <PUBCHEM_IUPAC_CAS_NAME>
1,3-dimethyl-5,5-bis(prop-2-enyl)-1,3-diazinane-2,4,6-trione

> <PUBCHEM_IUPAC_NAME>
1,3-dimethyl-5,5-bis(prop-2-enyl)-1,3-diazinane-2,4,6-trione

> <PUBCHEM_IUPAC_SYSTEMATIC_NAME>
1,3-dimethyl-5,5-bis(prop-2-enyl)-1,3-diazinane-2,4,6-trione

> <PUBCHEM_IUPAC_TRADITIONAL_NAME>
5,5-diallyl-1,3-dimethyl-barbituric acid

> <PUBCHEM_IUPAC_INCHI>
InChI=1S/C12H16N2O3/c1-5-7-12(8-6-2)9(15)13(3)11(17)14(4)10(12)16/h5-6H,1-2,7-8H2,3-4H3

> <PUBCHEM_IUPAC_INCHIKEY>
MCTNRBUJWLUDJG-UHFFFAOYSA-N

> <PUBCHEM_XLOGP3_AA>
1.3

> <PUBCHEM_EXACT_MASS>
236.116092

> <PUBCHEM_MOLECULAR_FORMULA>
C12H16N2O3

> <PUBCHEM_MOLECULAR_WEIGHT>
236.26704

> <PUBCHEM_OPENEYE_CAN_SMILES>
CN1C(=O)C(C(=O)N(C1=O)C)(CC=C)CC=C

> <PUBCHEM_OPENEYE_ISO_SMILES>
CN1C(=O)C(C(=O)N(C1=O)C)(CC=C)CC=C

> <PUBCHEM_CACTVS_TPSA>
57.7

> <PUBCHEM_MONOISOTOPIC_WEIGHT>
236.116092

> <PUBCHEM_TOTAL_CHARGE>
0

> <PUBCHEM_HEAVY_ATOM_COUNT>
17

> <PUBCHEM_ATOM_DEF_STEREO_COUNT>
0

> <PUBCHEM_ATOM_UDEF_STEREO_COUNT>
0

> <PUBCHEM_BOND_DEF_STEREO_COUNT>
0

> <PUBCHEM_BOND_UDEF_STEREO_COUNT>
0

> <PUBCHEM_ISOTOPIC_ATOM_COUNT>
0

> <PUBCHEM_COMPONENT_COUNT>
1

> <PUBCHEM_CACTVS_TAUTO_COUNT>
1

> <PUBCHEM_COORDINATE_TYPE>
1
5
255

$$$$

