14315
  -OEChem-06241222432D

 24 25  0     0  0  0  0  0  0999 V2000
    2.8660   -0.2673    0.0000 C   0  0  0  0  0  0  0  0  0  0  0  0
    3.7320    0.2327    0.0000 C   0  0  0  0  0  0  0  0  0  0  0  0
    3.7320    1.2327    0.0000 C   0  0  0  0  0  0  0  0  0  0  0  0
    2.8660   -1.2673    0.0000 C   0  0  0  0  0  0  0  0  0  0  0  0
    2.0000    0.2327    0.0000 C   0  0  0  0  0  0  0  0  0  0  0  0
    4.6260   -0.3020    0.0000 C   0  0  0  0  0  0  0  0  0  0  0  0
    2.8660    1.7327    0.0000 C   0  0  0  0  0  0  0  0  0  0  0  0
    4.6260    1.7673    0.0000 C   0  0  0  0  0  0  0  0  0  0  0  0
    2.0000    1.2327    0.0000 C   0  0  0  0  0  0  0  0  0  0  0  0
    2.0000   -1.7673    0.0000 C   0  0  0  0  0  0  0  0  0  0  0  0
    5.5321    0.2119    0.0000 C   0  0  0  0  0  0  0  0  0  0  0  0
    5.5321    1.2535    0.0000 C   0  0  0  0  0  0  0  0  0  0  0  0
    3.0781   -1.8499    0.0000 H   0  0  0  0  0  0  0  0  0  0  0  0
    3.4766   -1.1597    0.0000 H   0  0  0  0  0  0  0  0  0  0  0  0
    1.4631   -0.0773    0.0000 H   0  0  0  0  0  0  0  0  0  0  0  0
    4.6188   -0.9220    0.0000 H   0  0  0  0  0  0  0  0  0  0  0  0
    2.8660    2.3527    0.0000 H   0  0  0  0  0  0  0  0  0  0  0  0
    4.6188    2.3873    0.0000 H   0  0  0  0  0  0  0  0  0  0  0  0
    1.4631    1.5427    0.0000 H   0  0  0  0  0  0  0  0  0  0  0  0
    1.6900   -1.2304    0.0000 H   0  0  0  0  0  0  0  0  0  0  0  0
    1.4631   -2.0773    0.0000 H   0  0  0  0  0  0  0  0  0  0  0  0
    2.3100   -2.3043    0.0000 H   0  0  0  0  0  0  0  0  0  0  0  0
    6.0678   -0.1002    0.0000 H   0  0  0  0  0  0  0  0  0  0  0  0
    6.0678    1.5656    0.0000 H   0  0  0  0  0  0  0  0  0  0  0  0
  1  2  1  0  0  0  0
  1  4  1  0  0  0  0
  1  5  2  0  0  0  0
  2  3  1  0  0  0  0
  2  6  2  0  0  0  0
  3  7  1  0  0  0  0
  3  8  2  0  0  0  0
  4 10  1  0  0  0  0
  4 13  1  0  0  0  0
  4 14  1  0  0  0  0
  5  9  1  0  0  0  0
  5 15  1  0  0  0  0
  6 11  1  0  0  0  0
  6 16  1  0  0  0  0
  7  9  2  0  0  0  0
  7 17  1  0  0  0  0
  8 12  1  0  0  0  0
  8 18  1  0  0  0  0
  9 19  1  0  0  0  0
 10 20  1  0  0  0  0
 10 21  1  0  0  0  0
 10 22  1  0  0  0  0
 11 12  2  0  0  0  0
 11 23  1  0  0  0  0
 12 24  1  0  0  0  0
M  END
> <PUBCHEM_COMPOUND_CID>
14315

> <PUBCHEM_COMPOUND_CANONICALIZED>
1

> <PUBCHEM_CACTVS_COMPLEXITY>
139

> <PUBCHEM_CACTVS_HBOND_ACCEPTOR>
0

> <PUBCHEM_CACTVS_HBOND_DONOR>
0

> <PUBCHEM_CACTVS_ROTATABLE_BOND>
1

> <PUBCHEM_CACTVS_SUBSKEYS>
AAADccBwAAAAAAAAAAAAAAAAAAAAAAAAAAAwYAAAAAAAAADBUAAAGAAAAAAADACAGAAyAMAAAACAAiBCAAACAAAgAAAIiAAAAIgIICKAERCAIAAggAAIiAcAgMAOgAACAAAQAAAAAAQAACAAAAAAAAAAAA==

> <PUBCHEM_IUPAC_OPENEYE_NAME>
1-ethylnaphthalene

> <PUBCHEM_IUPAC_CAS_NAME>
1-ethylnaphthalene

> <PUBCHEM_IUPAC_NAME>
1-ethylnaphthalene

> <PUBCHEM_IUPAC_SYSTEMATIC_NAME>
1-ethylnaphthalene

> <PUBCHEM_IUPAC_TRADITIONAL_NAME>
1-ethylnaphthalene

> <PUBCHEM_IUPAC_INCHI>
InChI=1S/C12H12/c1-2-10-7-5-8-11-6-3-4-9-12(10)11/h3-9H,2H2,1H3

> <PUBCHEM_IUPAC_INCHIKEY>
ZMXIYERNXPIYFR-UHFFFAOYSA-N

> <PUBCHEM_XLOGP3>
4.4

> <PUBCHEM_EXACT_MASS>
156.0939

> <PUBCHEM_MOLECULAR_FORMULA>
C12H12

> <PUBCHEM_MOLECULAR_WEIGHT>
156.22368

> <PUBCHEM_OPENEYE_CAN_SMILES>
CCC1=CC=CC2=CC=CC=C21

> <PUBCHEM_OPENEYE_ISO_SMILES>
CCC1=CC=CC2=CC=CC=C21

> <PUBCHEM_CACTVS_TPSA>
0

> <PUBCHEM_MONOISOTOPIC_WEIGHT>
156.0939

> <PUBCHEM_TOTAL_CHARGE>
0

> <PUBCHEM_HEAVY_ATOM_COUNT>
12

> <PUBCHEM_ATOM_DEF_STEREO_COUNT>
0

> <PUBCHEM_ATOM_UDEF_STEREO_COUNT>
0

> <PUBCHEM_BOND_DEF_STEREO_COUNT>
0

> <PUBCHEM_BOND_UDEF_STEREO_COUNT>
0

> <PUBCHEM_ISOTOPIC_ATOM_COUNT>
0

> <PUBCHEM_COMPONENT_COUNT>
1

> <PUBCHEM_CACTVS_TAUTO_COUNT>
1

> <PUBCHEM_COORDINATE_TYPE>
1
5
255

> <PUBCHEM_BONDANNOTATIONS>
1  2  8
1  5  8
11  12  8
2  3  8
2  6  8
3  7  8
3  8  8
5  9  8
6  11  8
7  9  8
8  12  8

$$$$

