3524
  -OEChem-06251223283D

 35 38  0     1  0  0  0  0  0999 V2000
    2.1417   -3.6633    1.0601 S   0  0  0  0  0  0  0  0  0  0  0  0
    2.6681   -2.3019   -0.2062 P   0  0  1  0  0  0  0  0  0  0  0  0
    1.5838    1.4247    1.0285 O   0  0  0  0  0  0  0  0  0  0  0  0
    1.4866   -1.5032   -0.9994 O   0  0  0  0  0  0  0  0  0  0  0  0
    3.4278   -0.9809    0.3795 O   0  0  0  0  0  0  0  0  0  0  0  0
    3.6462   -2.7464   -1.4202 O   0  0  0  0  0  0  0  0  0  0  0  0
    3.0542    3.7770    0.6739 O   0  0  0  0  0  0  0  0  0  0  0  0
   -4.9621    1.2565   -0.6179 O   0  0  0  0  0  0  0  0  0  0  0  0
   -0.5230    0.8269    0.1160 N   0  0  0  0  0  0  0  0  0  0  0  0
   -1.8814   -1.1626    0.4497 N   0  0  0  0  0  0  0  0  0  0  0  0
   -2.1783    2.2186   -0.4822 N   0  0  0  0  0  0  0  0  0  0  0  0
   -4.2251   -0.8410    0.0370 N   0  0  0  0  0  0  0  0  0  0  0  0
   -3.3534   -2.9259    0.7071 N   0  0  0  0  0  0  0  0  0  0  0  0
    1.6096   -0.0981   -0.7940 C   0  0  2  0  0  0  0  0  0  0  0  0
    3.0423    0.1745   -0.3810 C   0  0  1  0  0  0  0  0  0  0  0  0
    0.8267    0.3607    0.4268 C   0  0  1  0  0  0  0  0  0  0  0  0
    2.9342    1.3927    0.5190 C   0  0  1  0  0  0  0  0  0  0  0  0
    3.1840    2.6927   -0.2313 C   0  0  0  0  0  0  0  0  0  0  0  0
   -1.6762    0.1202    0.1403 C   0  0  0  0  0  0  0  0  0  0  0  0
   -0.8787    2.1000   -0.2684 C   0  0  0  0  0  0  0  0  0  0  0  0
   -2.6770    0.9728   -0.2243 C   0  0  0  0  0  0  0  0  0  0  0  0
   -4.0480    0.5082   -0.2938 C   0  0  0  0  0  0  0  0  0  0  0  0
   -3.2021   -1.6020    0.3807 C   0  0  0  0  0  0  0  0  0  0  0  0
    1.3377    0.4465   -1.7041 H   0  0  0  0  0  0  0  0  0  0  0  0
    3.7434    0.2766   -1.2140 H   0  0  0  0  0  0  0  0  0  0  0  0
    0.7210   -0.4302    1.1783 H   0  0  0  0  0  0  0  0  0  0  0  0
    3.5992    1.3244    1.3872 H   0  0  0  0  0  0  0  0  0  0  0  0
    2.4597    2.8435   -1.0384 H   0  0  0  0  0  0  0  0  0  0  0  0
    4.1926    2.7173   -0.6542 H   0  0  0  0  0  0  0  0  0  0  0  0
   -0.1545    2.8955   -0.3807 H   0  0  0  0  0  0  0  0  0  0  0  0
   -1.1394   -1.8011    0.7171 H   0  0  0  0  0  0  0  0  0  0  0  0
    3.9246   -2.0735   -2.0771 H   0  0  0  0  0  0  0  0  0  0  0  0
    2.1562    3.7420    1.0455 H   0  0  0  0  0  0  0  0  0  0  0  0
   -4.2660   -3.3682    0.6955 H   0  0  0  0  0  0  0  0  0  0  0  0
   -2.5599   -3.5004    0.9692 H   0  0  0  0  0  0  0  0  0  0  0  0
  1  2  2  0  0  0  0
  2  4  1  0  0  0  0
  2  5  1  0  0  0  0
  2  6  1  0  0  0  0
  3 16  1  0  0  0  0
  3 17  1  0  0  0  0
  4 14  1  0  0  0  0
  5 15  1  0  0  0  0
  6 32  1  0  0  0  0
  7 18  1  0  0  0  0
  7 33  1  0  0  0  0
  8 22  2  0  0  0  0
  9 16  1  0  0  0  0
  9 19  1  0  0  0  0
  9 20  1  0  0  0  0
 10 19  1  0  0  0  0
 10 23  1  0  0  0  0
 10 31  1  0  0  0  0
 11 20  2  0  0  0  0
 11 21  1  0  0  0  0
 12 22  1  0  0  0  0
 12 23  2  0  0  0  0
 13 23  1  0  0  0  0
 13 34  1  0  0  0  0
 13 35  1  0  0  0  0
 14 15  1  0  0  0  0
 14 16  1  0  0  0  0
 14 24  1  0  0  0  0
 15 17  1  0  0  0  0
 15 25  1  0  0  0  0
 16 26  1  0  0  0  0
 17 18  1  0  0  0  0
 17 27  1  0  0  0  0
 18 28  1  0  0  0  0
 18 29  1  0  0  0  0
 19 21  2  0  0  0  0
 20 30  1  0  0  0  0
 21 22  1  0  0  0  0
M  END
> <PUBCHEM_COMPOUND_CID>
3524

> <PUBCHEM_CONFORMER_RMSD>
0.6

> <PUBCHEM_CONFORMER_DIVERSEORDER>
20
46
90
130
132
89
142
76
103
129
111
128
109
58
23
10
52
100
122
87
141
114
60
16
36
127
84
96
66
133
21
61
95
139
55
71
119
41
140
2
78
118
91
47
138
86
85
131
98
107
134
42
14
94
97
65
22
44
125
124
54
137
9
117
136
106
79
12
105
34
69
110
112
53
123
115
27
82
116
80
68
83
37
113
70
62
99
92
108
135
13
102
51
63
19
40
93
6
120
126
67
49
88
77
3
25
1
101
5
32
104
30
64
45
59
48
121
11
50
29
24
43
15
17
57
72
75
74
7
56
33
38
81
4
31
18
39
35
8
26
73
28

> <PUBCHEM_MMFF94_PARTIAL_CHARGES>
29
1 -0.68
10 -0.53
11 -0.57
12 -0.66
13 -0.85
14 0.28
15 0.28
16 0.54
17 0.28
18 0.28
19 -0.07
2 1.49
20 0.04
21 0.14
22 0.87
23 0.55
3 -0.56
30 0.15
31 0.4
32 0.5
33 0.4
34 0.4
35 0.4
4 -0.55
5 -0.55
6 -0.77
7 -0.68
8 -0.57
9 0.05

> <PUBCHEM_EFFECTIVE_ROTOR_COUNT>
3

> <PUBCHEM_PHARMACOPHORE_FEATURES>
13
1 10 donor
1 12 donor
1 13 donor
1 3 acceptor
1 6 acceptor
1 7 acceptor
1 7 donor
1 8 acceptor
3 9 11 20 cation
5 2 4 5 14 15 rings
5 3 14 15 16 17 rings
5 9 11 19 20 21 rings
6 10 12 19 21 22 23 rings

> <PUBCHEM_HEAVY_ATOM_COUNT>
23

> <PUBCHEM_ATOM_DEF_STEREO_COUNT>
0

> <PUBCHEM_ATOM_UDEF_STEREO_COUNT>
4

> <PUBCHEM_BOND_DEF_STEREO_COUNT>
0

> <PUBCHEM_BOND_UDEF_STEREO_COUNT>
0

> <PUBCHEM_ISOTOPIC_ATOM_COUNT>
0

> <PUBCHEM_COMPONENT_COUNT>
1

> <PUBCHEM_CACTVS_TAUTO_COUNT>
12

> <PUBCHEM_CONFORMER_ID>
00000DC400000014

> <PUBCHEM_MMFF94_ENERGY>
44.793

> <PUBCHEM_FEATURE_SELFOVERLAP>
66.692

> <PUBCHEM_SHAPE_FINGERPRINT>
10616163 171 18338515240262988367
1100329 8 16754094065580412347
11578080 2 16987181489741674484
12403259 226 18126572451064081829
12553582 1 17977093892728878458
12633257 1 18118112796041884979
12788726 201 17329138586883109410
12839892 36 18194983863112975314
13140716 1 18411419479528498592
13533116 47 18187365420396266617
13544592 145 18339922735711438349
14223421 5 18411699863583463799
14787075 74 17537436215151167881
14790565 3 17762330323629229573
14866123 147 16391275045019156242
15375358 24 18339930316302465165
15375462 6 18411136900935382612
19591789 44 17688590463878401032
20369508 70 18267872855060389854
20645477 70 18333734632467041415
20693207 138 18340762736376830461
221490 88 18410003339017808966
23184049 29 18339361992975756458
23419403 2 12629189083568005076
23557571 272 18059570239934413045
23559900 14 18410860979403964184
3084891 72 17114390792870946844
314173 41 18265328593981196478
350125 39 18338797798173084588
463206 1 18056192720413296698
495365 180 17895493474075086649
5104073 3 18412544271713873433
6442390 28 17975975367555157036
7364860 26 18408886256847630052
9709674 26 18410011056910535623

> <PUBCHEM_SHAPE_MULTIPOLES>
420.91
8.24
4.12
0.94
6.22
0.84
-0.07
0.82
-0.74
-3.69
0.82
-0.59
0.33
1.24

> <PUBCHEM_SHAPE_SELFOVERLAP>
901.242

> <PUBCHEM_SHAPE_VOLUME>
237.6

> <PUBCHEM_COORDINATE_TYPE>
2
5
10

$$$$

