17396473
  -OEChem-06241222562D

 64 67  0     1  0  0  0  0  0999 V2000
    9.1643   -1.0818    0.0000 O   0  0  0  0  0  0  0  0  0  0  0  0
    5.7002   -2.0818    0.0000 O   0  0  0  0  0  0  0  0  0  0  0  0
    7.4323    0.9182    0.0000 N   0  0  0  0  0  0  0  0  0  0  0  0
    4.9836    2.7546    0.0000 N   0  0  0  0  0  0  0  0  0  0  0  0
    5.4836    3.6206    0.0000 N   0  0  0  0  0  0  0  0  0  0  0  0
    7.4323   -1.0818    0.0000 N   0  0  0  0  0  0  0  0  0  0  0  0
    6.5662    2.4182    0.0000 C   0  0  0  0  0  0  0  0  0  0  0  0
    7.4323    1.9182    0.0000 C   0  0  0  0  0  0  0  0  0  0  0  0
    8.2983    0.4182    0.0000 C   0  0  3  0  0  0  0  0  0  0  0  0
    5.6527    2.0114    0.0000 C   0  0  0  0  0  0  0  0  0  0  0  0
    6.4617    3.4127    0.0000 C   0  0  0  0  0  0  0  0  0  0  0  0
    9.1643    0.9182    0.0000 C   0  0  0  0  0  0  0  0  0  0  0  0
    8.2983   -0.5818    0.0000 C   0  0  0  0  0  0  0  0  0  0  0  0
    5.4448    1.0333    0.0000 C   0  0  0  0  0  0  0  0  0  0  0  0
    3.9890    2.6500    0.0000 C   0  0  0  0  0  0  0  0  0  0  0  0
    7.2049    4.0818    0.0000 C   0  0  0  0  0  0  0  0  0  0  0  0
   10.0303    0.4182    0.0000 C   0  0  0  0  0  0  0  0  0  0  0  0
    9.1643    1.9182    0.0000 C   0  0  0  0  0  0  0  0  0  0  0  0
    3.4013    3.4591    0.0000 C   0  0  0  0  0  0  0  0  0  0  0  0
    3.5823    1.7365    0.0000 C   0  0  0  0  0  0  0  0  0  0  0  0
    7.4323   -2.0818    0.0000 C   0  0  0  0  0  0  0  0  0  0  0  0
   10.8964    0.9182    0.0000 C   0  0  0  0  0  0  0  0  0  0  0  0
   10.0303    2.4182    0.0000 C   0  0  0  0  0  0  0  0  0  0  0  0
   10.8964    1.9182    0.0000 C   0  0  0  0  0  0  0  0  0  0  0  0
    2.4067    3.3545    0.0000 C   0  0  0  0  0  0  0  0  0  0  0  0
    2.5878    1.6320    0.0000 C   0  0  0  0  0  0  0  0  0  0  0  0
    6.5662   -2.5818    0.0000 C   0  0  0  0  0  0  0  0  0  0  0  0
    8.2983   -2.5818    0.0000 C   0  0  0  0  0  0  0  0  0  0  0  0
    2.0000    2.4410    0.0000 C   0  0  0  0  0  0  0  0  0  0  0  0
    6.5662   -3.5818    0.0000 C   0  0  0  0  0  0  0  0  0  0  0  0
    8.2983   -3.5818    0.0000 C   0  0  0  0  0  0  0  0  0  0  0  0
    7.4323   -4.0818    0.0000 C   0  0  0  0  0  0  0  0  0  0  0  0
    4.8342   -2.5818    0.0000 C   0  0  0  0  0  0  0  0  0  0  0  0
    3.9682   -2.0818    0.0000 C   0  0  0  0  0  0  0  0  0  0  0  0
    8.0428    1.8105    0.0000 H   0  0  0  0  0  0  0  0  0  0  0  0
    7.6443    2.5008    0.0000 H   0  0  0  0  0  0  0  0  0  0  0  0
    7.7614    0.1082    0.0000 H   0  0  0  0  0  0  0  0  0  0  0  0
    6.8953    0.6082    0.0000 H   0  0  0  0  0  0  0  0  0  0  0  0
    4.8383    1.1622    0.0000 H   0  0  0  0  0  0  0  0  0  0  0  0
    5.3159    0.4268    0.0000 H   0  0  0  0  0  0  0  0  0  0  0  0
    6.0512    0.9044    0.0000 H   0  0  0  0  0  0  0  0  0  0  0  0
    7.6197    3.6211    0.0000 H   0  0  0  0  0  0  0  0  0  0  0  0
    7.6656    4.4967    0.0000 H   0  0  0  0  0  0  0  0  0  0  0  0
    6.7900    4.5426    0.0000 H   0  0  0  0  0  0  0  0  0  0  0  0
   10.0303   -0.2018    0.0000 H   0  0  0  0  0  0  0  0  0  0  0  0
    8.6274    2.2282    0.0000 H   0  0  0  0  0  0  0  0  0  0  0  0
    6.8953   -0.7718    0.0000 H   0  0  0  0  0  0  0  0  0  0  0  0
    3.6534    4.0255    0.0000 H   0  0  0  0  0  0  0  0  0  0  0  0
    3.9467    1.2349    0.0000 H   0  0  0  0  0  0  0  0  0  0  0  0
   11.4333    0.6082    0.0000 H   0  0  0  0  0  0  0  0  0  0  0  0
   10.0303    3.0382    0.0000 H   0  0  0  0  0  0  0  0  0  0  0  0
   11.4333    2.2282    0.0000 H   0  0  0  0  0  0  0  0  0  0  0  0
    2.0423    3.8561    0.0000 H   0  0  0  0  0  0  0  0  0  0  0  0
    2.3356    1.0656    0.0000 H   0  0  0  0  0  0  0  0  0  0  0  0
    8.8352   -2.2718    0.0000 H   0  0  0  0  0  0  0  0  0  0  0  0
    1.3834    2.3762    0.0000 H   0  0  0  0  0  0  0  0  0  0  0  0
    6.0293   -3.8918    0.0000 H   0  0  0  0  0  0  0  0  0  0  0  0
    8.8352   -3.8918    0.0000 H   0  0  0  0  0  0  0  0  0  0  0  0
    7.4323   -4.7018    0.0000 H   0  0  0  0  0  0  0  0  0  0  0  0
    4.4357   -3.0568    0.0000 H   0  0  0  0  0  0  0  0  0  0  0  0
    5.2327   -3.0568    0.0000 H   0  0  0  0  0  0  0  0  0  0  0  0
    4.2782   -1.5449    0.0000 H   0  0  0  0  0  0  0  0  0  0  0  0
    3.4312   -1.7718    0.0000 H   0  0  0  0  0  0  0  0  0  0  0  0
    3.6582   -2.6188    0.0000 H   0  0  0  0  0  0  0  0  0  0  0  0
  1 13  2  0  0  0  0
  2 27  1  0  0  0  0
  2 33  1  0  0  0  0
  3  8  1  0  0  0  0
  3  9  1  0  0  0  0
  3 38  1  0  0  0  0
  4  5  1  0  0  0  0
  4 10  1  0  0  0  0
  4 15  1  0  0  0  0
  5 11  2  0  0  0  0
  6 13  1  0  0  0  0
  6 21  1  0  0  0  0
  6 47  1  0  0  0  0
  7  8  1  0  0  0  0
  7 10  2  0  0  0  0
  7 11  1  0  0  0  0
  8 35  1  0  0  0  0
  8 36  1  0  0  0  0
  9 12  1  0  0  0  0
  9 13  1  0  0  0  0
  9 37  1  0  0  0  0
 10 14  1  0  0  0  0
 11 16  1  0  0  0  0
 12 17  2  0  0  0  0
 12 18  1  0  0  0  0
 14 39  1  0  0  0  0
 14 40  1  0  0  0  0
 14 41  1  0  0  0  0
 15 19  2  0  0  0  0
 15 20  1  0  0  0  0
 16 42  1  0  0  0  0
 16 43  1  0  0  0  0
 16 44  1  0  0  0  0
 17 22  1  0  0  0  0
 17 45  1  0  0  0  0
 18 23  2  0  0  0  0
 18 46  1  0  0  0  0
 19 25  1  0  0  0  0
 19 48  1  0  0  0  0
 20 26  2  0  0  0  0
 20 49  1  0  0  0  0
 21 27  1  0  0  0  0
 21 28  2  0  0  0  0
 22 24  2  0  0  0  0
 22 50  1  0  0  0  0
 23 24  1  0  0  0  0
 23 51  1  0  0  0  0
 24 52  1  0  0  0  0
 25 29  2  0  0  0  0
 25 53  1  0  0  0  0
 26 29  1  0  0  0  0
 26 54  1  0  0  0  0
 27 30  2  0  0  0  0
 28 31  1  0  0  0  0
 28 55  1  0  0  0  0
 29 56  1  0  0  0  0
 30 32  1  0  0  0  0
 30 57  1  0  0  0  0
 31 32  2  0  0  0  0
 31 58  1  0  0  0  0
 32 59  1  0  0  0  0
 33 34  1  0  0  0  0
 33 60  1  0  0  0  0
 33 61  1  0  0  0  0
 34 62  1  0  0  0  0
 34 63  1  0  0  0  0
 34 64  1  0  0  0  0
M  END
> <PUBCHEM_COMPOUND_CID>
17396473

> <PUBCHEM_COMPOUND_CANONICALIZED>
1

> <PUBCHEM_CACTVS_COMPLEXITY>
620

> <PUBCHEM_CACTVS_HBOND_ACCEPTOR>
4

> <PUBCHEM_CACTVS_HBOND_DONOR>
2

> <PUBCHEM_CACTVS_ROTATABLE_BOND>
9

> <PUBCHEM_CACTVS_SUBSKEYS>
AAADceB7sAAAAAAAAAAAAAAAAAAAAWAAAAAwYMAAAAAAAAAB1AAAHgAYAAAADCzhngYyxpLIBACqAyVyVACSDCAhIgAYmKG/bJgOZnLE9fuXvCjk3BHY6AeYyICOAAAAAAAAEAAAAAAAAAAgAAAAAAAAAA==

> <PUBCHEM_IUPAC_OPENEYE_NAME>
2-[(3,5-dimethyl-1-phenyl-pyrazol-4-yl)methylamino]-N-(2-ethoxyphenyl)-2-phenyl-acetamide

> <PUBCHEM_IUPAC_CAS_NAME>
2-[(3,5-dimethyl-1-phenyl-4-pyrazolyl)methylamino]-N-(2-ethoxyphenyl)-2-phenylacetamide

> <PUBCHEM_IUPAC_NAME>
2-[(3,5-dimethyl-1-phenylpyrazol-4-yl)methylamino]-N-(2-ethoxyphenyl)-2-phenylacetamide

> <PUBCHEM_IUPAC_SYSTEMATIC_NAME>
2-[(3,5-dimethyl-1-phenyl-pyrazol-4-yl)methylamino]-N-(2-ethoxyphenyl)-2-phenyl-ethanamide

> <PUBCHEM_IUPAC_TRADITIONAL_NAME>
2-[(3,5-dimethyl-1-phenyl-pyrazol-4-yl)methylamino]-N-o-phenetyl-2-phenyl-acetamide

> <PUBCHEM_IUPAC_INCHI>
InChI=1S/C28H30N4O2/c1-4-34-26-18-12-11-17-25(26)30-28(33)27(22-13-7-5-8-14-22)29-19-24-20(2)31-32(21(24)3)23-15-9-6-10-16-23/h5-18,27,29H,4,19H2,1-3H3,(H,30,33)

> <PUBCHEM_IUPAC_INCHIKEY>
IIZAUMMBMKOFFD-UHFFFAOYSA-N

> <PUBCHEM_XLOGP3_AA>
5

> <PUBCHEM_EXACT_MASS>
454.236876

> <PUBCHEM_MOLECULAR_FORMULA>
C28H30N4O2

> <PUBCHEM_MOLECULAR_WEIGHT>
454.5634

> <PUBCHEM_OPENEYE_CAN_SMILES>
CCOC1=CC=CC=C1NC(=O)C(C2=CC=CC=C2)NCC3=C(N(N=C3C)C4=CC=CC=C4)C

> <PUBCHEM_OPENEYE_ISO_SMILES>
CCOC1=CC=CC=C1NC(=O)C(C2=CC=CC=C2)NCC3=C(N(N=C3C)C4=CC=CC=C4)C

> <PUBCHEM_CACTVS_TPSA>
68.2

> <PUBCHEM_MONOISOTOPIC_WEIGHT>
454.236876

> <PUBCHEM_TOTAL_CHARGE>
0

> <PUBCHEM_HEAVY_ATOM_COUNT>
34

> <PUBCHEM_ATOM_DEF_STEREO_COUNT>
0

> <PUBCHEM_ATOM_UDEF_STEREO_COUNT>
1

> <PUBCHEM_BOND_DEF_STEREO_COUNT>
0

> <PUBCHEM_BOND_UDEF_STEREO_COUNT>
0

> <PUBCHEM_ISOTOPIC_ATOM_COUNT>
0

> <PUBCHEM_COMPONENT_COUNT>
1

> <PUBCHEM_CACTVS_TAUTO_COUNT>
3

> <PUBCHEM_COORDINATE_TYPE>
1
5
255

> <PUBCHEM_BONDANNOTATIONS>
12  17  8
12  18  8
15  19  8
15  20  8
17  22  8
18  23  8
19  25  8
20  26  8
21  27  8
21  28  8
22  24  8
23  24  8
25  29  8
26  29  8
27  30  8
28  31  8
30  32  8
31  32  8
4  10  8
4  5  8
5  11  8
7  10  8
7  11  8
9  13  3

$$$$

