10969
  -OEChem-06261205112D

 31 29  0     1  0  0  0  0  0999 V2000
    2.6350    0.0000    0.0000 Cl  0  0  0  0  0  0  0  0  0  0  0  0
    0.5369    3.6200    0.0000 O   0  0  0  0  0  0  0  0  0  0  0  0
    5.7331    4.6200    0.0000 N   0  0  0  0  0  0  0  0  0  0  0  0
    2.2690    4.6200    0.0000 C   0  0  0  0  0  0  0  0  0  0  0  0
    1.4030    4.1200    0.0000 C   0  0  0  0  0  0  0  0  0  0  0  0
    3.1350    4.1200    0.0000 C   0  0  0  0  0  0  0  0  0  0  0  0
    4.0010    4.6200    0.0000 C   0  0  0  0  0  0  0  0  0  0  0  0
    4.8671    4.1200    0.0000 C   0  0  3  0  0  0  0  0  0  0  0  0
    0.9030    4.9860    0.0000 C   0  0  0  0  0  0  0  0  0  0  0  0
    1.9030    3.2540    0.0000 C   0  0  0  0  0  0  0  0  0  0  0  0
    4.8671    3.1200    0.0000 C   0  0  0  0  0  0  0  0  0  0  0  0
    2.6675    5.0950    0.0000 H   0  0  0  0  0  0  0  0  0  0  0  0
    1.8705    5.0950    0.0000 H   0  0  0  0  0  0  0  0  0  0  0  0
    2.7365    3.6450    0.0000 H   0  0  0  0  0  0  0  0  0  0  0  0
    3.5335    3.6450    0.0000 H   0  0  0  0  0  0  0  0  0  0  0  0
    4.3996    5.0950    0.0000 H   0  0  0  0  0  0  0  0  0  0  0  0
    3.6025    5.0950    0.0000 H   0  0  0  0  0  0  0  0  0  0  0  0
    4.8671    4.9700    0.0000 H   0  0  0  0  0  0  0  0  0  0  0  0
    1.4399    5.2960    0.0000 H   0  0  0  0  0  0  0  0  0  0  0  0
    0.5930    5.5230    0.0000 H   0  0  0  0  0  0  0  0  0  0  0  0
    0.3660    4.6760    0.0000 H   0  0  0  0  0  0  0  0  0  0  0  0
    1.3660    2.9440    0.0000 H   0  0  0  0  0  0  0  0  0  0  0  0
    2.2130    2.7170    0.0000 H   0  0  0  0  0  0  0  0  0  0  0  0
    2.4399    3.5640    0.0000 H   0  0  0  0  0  0  0  0  0  0  0  0
    4.2471    3.1200    0.0000 H   0  0  0  0  0  0  0  0  0  0  0  0
    4.8671    2.5000    0.0000 H   0  0  0  0  0  0  0  0  0  0  0  0
    5.4871    3.1200    0.0000 H   0  0  0  0  0  0  0  0  0  0  0  0
    0.0000    3.9300    0.0000 H   0  0  0  0  0  0  0  0  0  0  0  0
    6.2700    4.3100    0.0000 H   0  0  0  0  0  0  0  0  0  0  0  0
    5.7331    5.2400    0.0000 H   0  0  0  0  0  0  0  0  0  0  0  0
    3.6350    0.0000    0.0000 H   0  0  0  0  0  0  0  0  0  0  0  0
  1 31  1  0  0  0  0
  2  5  1  0  0  0  0
  2 28  1  0  0  0  0
  3  8  1  0  0  0  0
  3 29  1  0  0  0  0
  3 30  1  0  0  0  0
  4  5  1  0  0  0  0
  4  6  1  0  0  0  0
  4 12  1  0  0  0  0
  4 13  1  0  0  0  0
  5  9  1  0  0  0  0
  5 10  1  0  0  0  0
  6  7  1  0  0  0  0
  6 14  1  0  0  0  0
  6 15  1  0  0  0  0
  7  8  1  0  0  0  0
  7 16  1  0  0  0  0
  7 17  1  0  0  0  0
  8 11  1  0  0  0  0
  8 18  1  0  0  0  0
  9 19  1  0  0  0  0
  9 20  1  0  0  0  0
  9 21  1  0  0  0  0
 10 22  1  0  0  0  0
 10 23  1  0  0  0  0
 10 24  1  0  0  0  0
 11 25  1  0  0  0  0
 11 26  1  0  0  0  0
 11 27  1  0  0  0  0
M  END
> <PUBCHEM_COMPOUND_CID>
10969

> <PUBCHEM_COMPOUND_CANONICALIZED>
1

> <PUBCHEM_CACTVS_COMPLEXITY>
91.3

> <PUBCHEM_CACTVS_HBOND_ACCEPTOR>
2

> <PUBCHEM_CACTVS_HBOND_DONOR>
3

> <PUBCHEM_CACTVS_ROTATABLE_BOND>
4

> <PUBCHEM_CACTVS_SUBSKEYS>
AAADceByIAAEAAAAAAAAAAAAAAAAAAAAAAAAAAAAAAAAAAAAAAAAHgAQCAAADGzBgAQCAABAAgAAAAAAAAAAAAAAAAAAAIAAAAAAAAIAgAAAQAAEEAAAAAGQ0EEMAAAAAAAAAAAAAAAAAAAAAAAAAAAAAA==

> <PUBCHEM_IUPAC_OPENEYE_NAME>
6-amino-2-methyl-heptan-2-ol hydrochloride

> <PUBCHEM_IUPAC_CAS_NAME>
6-amino-2-methyl-2-heptanol hydrochloride

> <PUBCHEM_IUPAC_NAME>
6-amino-2-methylheptan-2-ol hydrochloride

> <PUBCHEM_IUPAC_SYSTEMATIC_NAME>
6-azanyl-2-methyl-heptan-2-ol hydrochloride

> <PUBCHEM_IUPAC_TRADITIONAL_NAME>
6-amino-2-methyl-heptan-2-ol hydrochloride

> <PUBCHEM_IUPAC_INCHI>
InChI=1S/C8H19NO.ClH/c1-7(9)5-4-6-8(2,3)10;/h7,10H,4-6,9H2,1-3H3;1H

> <PUBCHEM_IUPAC_INCHIKEY>
JZNBMCOSOXIZJB-UHFFFAOYSA-N

> <PUBCHEM_EXACT_MASS>
181.123342

> <PUBCHEM_MOLECULAR_FORMULA>
C8H20ClNO

> <PUBCHEM_MOLECULAR_WEIGHT>
181.7035

> <PUBCHEM_OPENEYE_CAN_SMILES>
CC(CCCC(C)(C)O)N.Cl

> <PUBCHEM_OPENEYE_ISO_SMILES>
CC(CCCC(C)(C)O)N.Cl

> <PUBCHEM_CACTVS_TPSA>
46.2

> <PUBCHEM_MONOISOTOPIC_WEIGHT>
181.123342

> <PUBCHEM_TOTAL_CHARGE>
0

> <PUBCHEM_HEAVY_ATOM_COUNT>
11

> <PUBCHEM_ATOM_DEF_STEREO_COUNT>
0

> <PUBCHEM_ATOM_UDEF_STEREO_COUNT>
1

> <PUBCHEM_BOND_DEF_STEREO_COUNT>
0

> <PUBCHEM_BOND_UDEF_STEREO_COUNT>
0

> <PUBCHEM_ISOTOPIC_ATOM_COUNT>
0

> <PUBCHEM_COMPONENT_COUNT>
2

> <PUBCHEM_CACTVS_TAUTO_COUNT>
1

> <PUBCHEM_COORDINATE_TYPE>
1
5
255

> <PUBCHEM_BONDANNOTATIONS>
8  18  3

$$$$

