5331
  -OEChem-06261200383D

 37 39  0     1  0  0  0  0  0999 V2000
   -3.0264   -1.8923   -0.3184 S   0  0  0  0  0  0  0  0  0  0  0  0
    3.3757   -1.8500   -0.1715 S   0  0  0  0  0  0  0  0  0  0  0  0
   -0.9670    2.5740   -0.3394 O   0  0  0  0  0  0  0  0  0  0  0  0
    1.2818    1.9751   -0.0609 O   0  0  0  0  0  0  0  0  0  0  0  0
    0.1760    0.5563    1.4341 O   0  0  0  0  0  0  0  0  0  0  0  0
   -2.0803   -0.8273   -1.1234 O   0  0  0  0  0  0  0  0  0  0  0  0
   -3.0884   -1.0701    1.0965 O   0  0  0  0  0  0  0  0  0  0  0  0
    2.3537   -0.6388    0.2409 O   0  0  0  0  0  0  0  0  0  0  0  0
   -2.2823   -3.1189   -0.1173 O   0  0  0  0  0  0  0  0  0  0  0  0
   -4.3462   -1.8891   -0.9163 O   0  0  0  0  0  0  0  0  0  0  0  0
    2.6604   -3.1092   -0.0736 O   0  0  0  0  0  0  0  0  0  0  0  0
    4.0144   -1.4731   -1.4195 O   0  0  0  0  0  0  0  0  0  0  0  0
    4.5735   -1.8198    1.0549 N   0  0  0  0  0  0  0  0  0  0  0  0
   -0.7883    1.2044   -0.7300 C   0  0  1  0  0  0  0  0  0  0  0  0
    0.4562    0.8004    0.0519 C   0  0  1  0  0  0  0  0  0  0  0  0
   -2.0469    0.4224   -0.4133 C   0  0  2  0  0  0  0  0  0  0  0  0
   -2.1698    0.0353    1.0694 C   0  0  2  0  0  0  0  0  0  0  0  0
    0.3642    3.0753   -0.1536 C   0  0  0  0  0  0  0  0  0  0  0  0
   -0.8420   -0.4049    1.6703 C   0  0  0  0  0  0  0  0  0  0  0  0
    1.2206   -0.3659   -0.5638 C   0  0  0  0  0  0  0  0  0  0  0  0
    0.4065    3.8852    1.1357 C   0  0  0  0  0  0  0  0  0  0  0  0
    0.7547    3.9313   -1.3528 C   0  0  0  0  0  0  0  0  0  0  0  0
   -0.5922    1.1961   -1.8100 H   0  0  0  0  0  0  0  0  0  0  0  0
   -2.9389    0.9842   -0.7181 H   0  0  0  0  0  0  0  0  0  0  0  0
   -2.5807    0.8739    1.6420 H   0  0  0  0  0  0  0  0  0  0  0  0
   -0.9566   -0.5146    2.7547 H   0  0  0  0  0  0  0  0  0  0  0  0
   -0.5248   -1.3904    1.3131 H   0  0  0  0  0  0  0  0  0  0  0  0
    1.5616   -0.1101   -1.5735 H   0  0  0  0  0  0  0  0  0  0  0  0
    0.6049   -1.2683   -0.6210 H   0  0  0  0  0  0  0  0  0  0  0  0
    0.1099    3.2681    1.9911 H   0  0  0  0  0  0  0  0  0  0  0  0
    1.4165    4.2559    1.3392 H   0  0  0  0  0  0  0  0  0  0  0  0
   -0.2870    4.7317    1.0957 H   0  0  0  0  0  0  0  0  0  0  0  0
    0.7322    3.3387   -2.2744 H   0  0  0  0  0  0  0  0  0  0  0  0
    0.0595    4.7664   -1.4882 H   0  0  0  0  0  0  0  0  0  0  0  0
    1.7721    4.3224   -1.2471 H   0  0  0  0  0  0  0  0  0  0  0  0
    5.1957   -1.0016    1.0706 H   0  0  0  0  0  0  0  0  0  0  0  0
    4.2748   -2.1032    1.9969 H   0  0  0  0  0  0  0  0  0  0  0  0
  1  6  1  0  0  0  0
  1  7  1  0  0  0  0
  1  9  2  0  0  0  0
  1 10  2  0  0  0  0
  2  8  1  0  0  0  0
  2 11  2  0  0  0  0
  2 12  2  0  0  0  0
  2 13  1  0  0  0  0
  3 14  1  0  0  0  0
  3 18  1  0  0  0  0
  4 15  1  0  0  0  0
  4 18  1  0  0  0  0
  5 15  1  0  0  0  0
  5 19  1  0  0  0  0
  6 16  1  0  0  0  0
  7 17  1  0  0  0  0
  8 20  1  0  0  0  0
 13 36  1  0  0  0  0
 13 37  1  0  0  0  0
 14 15  1  0  0  0  0
 14 16  1  0  0  0  0
 14 23  1  0  0  0  0
 15 20  1  0  0  0  0
 16 17  1  0  0  0  0
 16 24  1  0  0  0  0
 17 19  1  0  0  0  0
 17 25  1  0  0  0  0
 18 21  1  0  0  0  0
 18 22  1  0  0  0  0
 19 26  1  0  0  0  0
 19 27  1  0  0  0  0
 20 28  1  0  0  0  0
 20 29  1  0  0  0  0
 21 30  1  0  0  0  0
 21 31  1  0  0  0  0
 21 32  1  0  0  0  0
 22 33  1  0  0  0  0
 22 34  1  0  0  0  0
 22 35  1  0  0  0  0
M  END
> <PUBCHEM_COMPOUND_CID>
5331

> <PUBCHEM_CONFORMER_RMSD>
0.8

> <PUBCHEM_CONFORMER_DIVERSEORDER>
3
47
55
23
27
51
35
54
34
43
44
32
46
42
52
53
11
40
58
31
20
39
28
45
24
16
6
57
56
17
9
41
19
1
48
50
36
5
4
25
49
8
10
15
33
26
38
18
29
21
7
37
2
22
30
13
14
12

> <PUBCHEM_MMFF94_PARTIAL_CHARGES>
22
1 1.67
10 -0.65
11 -0.65
12 -0.65
13 -0.98
14 0.28
15 0.56
16 0.28
17 0.28
18 0.56
19 0.28
2 1.62
20 0.28
3 -0.56
36 0.42
37 0.42
4 -0.56
5 -0.56
6 -0.46
7 -0.46
8 -0.46
9 -0.65

> <PUBCHEM_EFFECTIVE_ROTOR_COUNT>
4.4

> <PUBCHEM_PHARMACOPHORE_FEATURES>
12
1 10 acceptor
1 11 acceptor
1 12 acceptor
1 13 donor
1 3 acceptor
1 4 acceptor
1 5 acceptor
1 9 acceptor
3 18 21 22 hydrophobe
5 1 6 7 16 17 rings
5 3 4 14 15 18 rings
6 5 14 15 16 17 19 rings

> <PUBCHEM_HEAVY_ATOM_COUNT>
22

> <PUBCHEM_ATOM_DEF_STEREO_COUNT>
0

> <PUBCHEM_ATOM_UDEF_STEREO_COUNT>
4

> <PUBCHEM_BOND_DEF_STEREO_COUNT>
0

> <PUBCHEM_BOND_UDEF_STEREO_COUNT>
0

> <PUBCHEM_ISOTOPIC_ATOM_COUNT>
0

> <PUBCHEM_COMPONENT_COUNT>
1

> <PUBCHEM_CACTVS_TAUTO_COUNT>
1

> <PUBCHEM_CONFORMER_ID>
000014D300000003

> <PUBCHEM_MMFF94_ENERGY>
50.9708

> <PUBCHEM_FEATURE_SELFOVERLAP>
61.452

> <PUBCHEM_SHAPE_FINGERPRINT>
107951 10 16258372603551367426
11578080 2 17895208704642637473
12173636 292 17546734106751773580
12553582 1 18339348738770315830
12788726 201 18054232303949017146
12839892 36 17400943898288307898
13004483 165 18339088214522664858
13140716 1 18337393845850757384
13533116 47 18047465631200647027
13681431 1 18341333284270212320
13931106 250 18123478442681391318
13955234 65 17975696091638469683
14081887 123 18265910235901296250
14790565 3 17761774370130015317
14817 1 11330420960097000841
15309172 13 17260741850927428981
15852999 172 17338162896997563417
16945 1 18051970321126913193
1813 80 18334282171940894999
20524608 308 17764021767838553074
20600515 1 18116143549068057061
20645477 70 17981901752498533287
20671657 53 18410580560931407071
21304303 282 17121182386270256364
21452121 199 18341622499004512456
21452121 71 18338224977756797078
21665056 4 17400925692038120750
21731228 192 8646765590792251726
23114952 82 17914624856271154397
23419403 2 17411105752530647276
23526113 38 17845661352024797737
23557571 272 18190471639381158496
23559900 14 18192160300104963067
23566358 27 18052235320661629091
23598288 3 17983839362199868444
23598291 2 18116412804920261107
23728640 28 17619915397109497306
257057 1 18410858767300731836
3091708 16 9354505845355837416
458136 41 17620737406763254921
6992083 37 18189596397807633033
7364860 26 18121221978417171481
81228 2 18125157384120987128
84936 31 17974584493461091105

> <PUBCHEM_SHAPE_MULTIPOLES>
396.77
5.9
4.75
1.33
1.9
3.83
0.23
-8.05
-0.65
1.97
-0.59
-0.04
0.26
-0.36

> <PUBCHEM_SHAPE_SELFOVERLAP>
815.438

> <PUBCHEM_SHAPE_VOLUME>
231.9

> <PUBCHEM_COORDINATE_TYPE>
2
5
10

$$$$

