9875
  -OEChem-06261204092D

 60 63  0     1  0  0  0  0  0999 V2000
    5.6489   -3.4869    0.0000 Cl  0  0  0  0  0  0  0  0  0  0  0  0
    8.0319    1.8387    0.0000 O   0  0  0  0  0  0  0  0  0  0  0  0
   10.0622    1.0652    0.0000 O   0  0  0  0  0  0  0  0  0  0  0  0
    2.0000   -2.4700    0.0000 O   0  0  0  0  0  0  0  0  0  0  0  0
    9.1931    3.1238    0.0000 O   0  0  0  0  0  0  0  0  0  0  0  0
    7.3931    0.5824    0.0000 C   0  0  3  0  0  0  0  0  0  0  0  0
    7.3931   -0.4176    0.0000 C   0  0  2  0  0  0  0  0  0  0  0  0
    6.5271   -0.9176    0.0000 C   0  0  3  0  0  0  0  0  0  0  0  0
    8.3393    0.8871    0.0000 C   0  0  1  0  0  0  0  0  0  0  0  0
    5.6610   -0.4176    0.0000 C   0  0  2  0  0  0  0  0  0  0  0  0
    8.3393   -0.7224    0.0000 C   0  0  0  0  0  0  0  0  0  0  0  0
    8.9229    0.0824    0.0000 C   0  0  1  0  0  0  0  0  0  0  0  0
    6.5271    1.0824    0.0000 C   0  0  0  0  0  0  0  0  0  0  0  0
    5.6610    0.5824    0.0000 C   0  0  0  0  0  0  0  0  0  0  0  0
    4.7510   -0.9245    0.0000 C   0  0  3  0  0  0  0  0  0  0  0  0
    7.3931    1.5824    0.0000 C   0  0  0  0  0  0  0  0  0  0  0  0
    6.5431   -1.9591    0.0000 C   0  0  0  0  0  0  0  0  0  0  0  0
    4.7430   -1.9661    0.0000 C   0  0  0  0  0  0  0  0  0  0  0  0
    9.1493    1.4735    0.0000 C   0  0  0  0  0  0  0  0  0  0  0  0
    3.8242   -0.3604    0.0000 C   0  0  0  0  0  0  0  0  0  0  0  0
    9.9229    0.0824    0.0000 C   0  0  0  0  0  0  0  0  0  0  0  0
    4.7587    0.0755    0.0000 C   0  0  0  0  0  0  0  0  0  0  0  0
    5.6451   -2.4869    0.0000 C   0  0  0  0  0  0  0  0  0  0  0  0
    2.8763   -0.8883    0.0000 C   0  0  0  0  0  0  0  0  0  0  0  0
    3.8076   -2.5158    0.0000 C   0  0  0  0  0  0  0  0  0  0  0  0
    9.5576    2.3863    0.0000 C   0  0  0  0  0  0  0  0  0  0  0  0
    2.8680   -1.9733    0.0000 C   0  0  0  0  0  0  0  0  0  0  0  0
    8.2415    2.8165    0.0000 C   0  0  0  0  0  0  0  0  0  0  0  0
    7.4996    3.4869    0.0000 C   0  0  0  0  0  0  0  0  0  0  0  0
    7.4830   -1.2629    0.0000 H   0  0  0  0  0  0  0  0  0  0  0  0
    7.2664   -1.3370    0.0000 H   0  0  0  0  0  0  0  0  0  0  0  0
    6.3972    0.0074    0.0000 H   0  0  0  0  0  0  0  0  0  0  0  0
    8.0883   -1.2893    0.0000 H   0  0  0  0  0  0  0  0  0  0  0  0
    8.8767   -1.0316    0.0000 H   0  0  0  0  0  0  0  0  0  0  0  0
    9.2046    0.6347    0.0000 H   0  0  0  0  0  0  0  0  0  0  0  0
    6.9256    1.5573    0.0000 H   0  0  0  0  0  0  0  0  0  0  0  0
    6.1285    1.5573    0.0000 H   0  0  0  0  0  0  0  0  0  0  0  0
    5.4490    1.1650    0.0000 H   0  0  0  0  0  0  0  0  0  0  0  0
    5.0504    0.4747    0.0000 H   0  0  0  0  0  0  0  0  0  0  0  0
    8.0131    1.5824    0.0000 H   0  0  0  0  0  0  0  0  0  0  0  0
    7.3931    2.2024    0.0000 H   0  0  0  0  0  0  0  0  0  0  0  0
    6.7731    1.5824    0.0000 H   0  0  0  0  0  0  0  0  0  0  0  0
    7.0836   -2.2629    0.0000 H   0  0  0  0  0  0  0  0  0  0  0  0
    4.2324    0.1063    0.0000 H   0  0  0  0  0  0  0  0  0  0  0  0
    3.4343    0.1216    0.0000 H   0  0  0  0  0  0  0  0  0  0  0  0
    9.9229   -0.5376    0.0000 H   0  0  0  0  0  0  0  0  0  0  0  0
   10.5429    0.0824    0.0000 H   0  0  0  0  0  0  0  0  0  0  0  0
    9.9229    0.7024    0.0000 H   0  0  0  0  0  0  0  0  0  0  0  0
    5.3787    0.0707    0.0000 H   0  0  0  0  0  0  0  0  0  0  0  0
    4.7635    0.6955    0.0000 H   0  0  0  0  0  0  0  0  0  0  0  0
    4.1388    0.0803    0.0000 H   0  0  0  0  0  0  0  0  0  0  0  0
    2.6718   -0.3031    0.0000 H   0  0  0  0  0  0  0  0  0  0  0  0
    2.2647   -0.9897    0.0000 H   0  0  0  0  0  0  0  0  0  0  0  0
    3.8100   -3.1358    0.0000 H   0  0  0  0  0  0  0  0  0  0  0  0
   10.1236    2.1332    0.0000 H   0  0  0  0  0  0  0  0  0  0  0  0
    9.8108    2.9523    0.0000 H   0  0  0  0  0  0  0  0  0  0  0  0
    8.9917    2.6395    0.0000 H   0  0  0  0  0  0  0  0  0  0  0  0
    7.9152    3.9469    0.0000 H   0  0  0  0  0  0  0  0  0  0  0  0
    7.0395    3.9026    0.0000 H   0  0  0  0  0  0  0  0  0  0  0  0
    7.0839    3.0269    0.0000 H   0  0  0  0  0  0  0  0  0  0  0  0
  1 23  1  0  0  0  0
  9  2  1  6  0  0  0
  2 28  1  0  0  0  0
  3 19  2  0  0  0  0
  4 27  2  0  0  0  0
  5 28  2  0  0  0  0
  6  7  1  0  0  0  0
  6  9  1  0  0  0  0
  6 13  1  0  0  0  0
  6 16  1  0  0  0  0
  7  8  1  0  0  0  0
  7 11  1  0  0  0  0
  7 30  1  6  0  0  0
  8 10  1  0  0  0  0
  8 17  1  0  0  0  0
  8 31  1  0  0  0  0
  9 12  1  0  0  0  0
  9 19  1  0  0  0  0
 10 14  1  0  0  0  0
 10 15  1  0  0  0  0
 10 32  1  6  0  0  0
 11 12  1  0  0  0  0
 11 33  1  0  0  0  0
 11 34  1  0  0  0  0
 12 21  1  6  0  0  0
 12 35  1  0  0  0  0
 13 14  1  0  0  0  0
 13 36  1  0  0  0  0
 13 37  1  0  0  0  0
 14 38  1  0  0  0  0
 14 39  1  0  0  0  0
 15 18  1  0  0  0  0
 15 20  1  0  0  0  0
 15 22  1  0  0  0  0
 16 40  1  0  0  0  0
 16 41  1  0  0  0  0
 16 42  1  0  0  0  0
 17 23  2  0  0  0  0
 17 43  1  0  0  0  0
 18 23  1  0  0  0  0
 18 25  2  0  0  0  0
 19 26  1  0  0  0  0
 20 24  1  0  0  0  0
 20 44  1  0  0  0  0
 20 45  1  0  0  0  0
 21 46  1  0  0  0  0
 21 47  1  0  0  0  0
 21 48  1  0  0  0  0
 22 49  1  0  0  0  0
 22 50  1  0  0  0  0
 22 51  1  0  0  0  0
 24 27  1  0  0  0  0
 24 52  1  0  0  0  0
 24 53  1  0  0  0  0
 25 27  1  0  0  0  0
 25 54  1  0  0  0  0
 26 55  1  0  0  0  0
 26 56  1  0  0  0  0
 26 57  1  0  0  0  0
 28 29  1  0  0  0  0
 29 58  1  0  0  0  0
 29 59  1  0  0  0  0
 29 60  1  0  0  0  0
M  END
> <PUBCHEM_COMPOUND_CID>
9875

> <PUBCHEM_COMPOUND_CANONICALIZED>
1

> <PUBCHEM_CACTVS_COMPLEXITY>
857

> <PUBCHEM_CACTVS_HBOND_ACCEPTOR>
4

> <PUBCHEM_CACTVS_HBOND_DONOR>
0

> <PUBCHEM_CACTVS_ROTATABLE_BOND>
3

> <PUBCHEM_CACTVS_SUBSKEYS>
AAADceB4OAAEAAAAAAAAAAAAAAAAAYAAAAAwQIAAAAAAAGCAAAAAGgIAAAAAD0aAgAACCAAABACIAqDSCAIAAAAgAAAACAFAAkgIABIBAAQCAAAEgAAIgQOIyPCPgAAAAAAAAACAAAQAACAAAYAADAAAAA==

> <PUBCHEM_IUPAC_OPENEYE_NAME>
[(9S,14S,16R,17R)-17-acetyl-6-chloro-10,13,16-trimethyl-3-oxo-2,8,9,11,12,14,15,16-octahydro-1H-cyclopenta[a]phenanthren-17-yl] acetate

> <PUBCHEM_IUPAC_CAS_NAME>
acetic acid [(9S,14S,16R,17R)-17-acetyl-6-chloro-10,13,16-trimethyl-3-oxo-2,8,9,11,12,14,15,16-octahydro-1H-cyclopenta[a]phenanthren-17-yl] ester

> <PUBCHEM_IUPAC_NAME>
[(9S,14S,16R,17R)-17-acetyl-6-chloro-10,13,16-trimethyl-3-oxo-2,8,9,11,12,14,15,16-octahydro-1H-cyclopenta[a]phenanthren-17-yl] acetate

> <PUBCHEM_IUPAC_SYSTEMATIC_NAME>
[(9S,14S,16R,17R)-6-chloranyl-17-ethanoyl-10,13,16-trimethyl-3-oxidanylidene-2,8,9,11,12,14,15,16-octahydro-1H-cyclopenta[a]phenanthren-17-yl] ethanoate

> <PUBCHEM_IUPAC_TRADITIONAL_NAME>
acetic acid [(9S,14S,16R,17R)-17-acetyl-6-chloro-3-keto-10,13,16-trimethyl-2,8,9,11,12,14,15,16-octahydro-1H-cyclopenta[a]phenanthren-17-yl] ester

> <PUBCHEM_IUPAC_INCHI>
InChI=1S/C24H31ClO4/c1-13-10-19-17-12-21(25)20-11-16(28)6-8-22(20,4)18(17)7-9-23(19,5)24(13,14(2)26)29-15(3)27/h11-13,17-19H,6-10H2,1-5H3/t13-,17?,18+,19+,22?,23?,24+/m1/s1

> <PUBCHEM_IUPAC_INCHIKEY>
WWSKHPDYSWDMNC-AJGRBHDYSA-N

> <PUBCHEM_XLOGP3_AA>
4

> <PUBCHEM_EXACT_MASS>
418.191087

> <PUBCHEM_MOLECULAR_FORMULA>
C24H31ClO4

> <PUBCHEM_MOLECULAR_WEIGHT>
418.95354

> <PUBCHEM_OPENEYE_CAN_SMILES>
CC1CC2C3C=C(C4=CC(=O)CCC4(C3CCC2(C1(C(=O)C)OC(=O)C)C)C)Cl

> <PUBCHEM_OPENEYE_ISO_SMILES>
C[C@@H]1C[C@H]2C3C=C(C4=CC(=O)CCC4([C@H]3CCC2([C@]1(C(=O)C)OC(=O)C)C)C)Cl

> <PUBCHEM_CACTVS_TPSA>
60.4

> <PUBCHEM_MONOISOTOPIC_WEIGHT>
418.191087

> <PUBCHEM_TOTAL_CHARGE>
0

> <PUBCHEM_HEAVY_ATOM_COUNT>
29

> <PUBCHEM_ATOM_DEF_STEREO_COUNT>
4

> <PUBCHEM_ATOM_UDEF_STEREO_COUNT>
3

> <PUBCHEM_BOND_DEF_STEREO_COUNT>
0

> <PUBCHEM_BOND_UDEF_STEREO_COUNT>
0

> <PUBCHEM_ISOTOPIC_ATOM_COUNT>
0

> <PUBCHEM_COMPONENT_COUNT>
1

> <PUBCHEM_CACTVS_TAUTO_COUNT>
10

> <PUBCHEM_COORDINATE_TYPE>
1
5
255

> <PUBCHEM_BONDANNOTATIONS>
10  32  6
12  21  6
15  22  3
9  2  6
6  16  3
7  30  6
8  31  3

$$$$

