10094
  -OEChem-06261204183D

 62 66  0     1  0  0  0  0  0999 V2000
    0.4675    3.0333   -0.5749 O   0  0  0  0  0  0  0  0  0  0  0  0
   -3.6504    2.1392   -1.4033 O   0  0  0  0  0  0  0  0  0  0  0  0
   -6.2338   -2.3414    0.4093 O   0  0  0  0  0  0  0  0  0  0  0  0
    4.9108   -2.4120   -0.4915 O   0  0  0  0  0  0  0  0  0  0  0  0
    6.8934   -1.2989   -0.1363 O   0  0  0  0  0  0  0  0  0  0  0  0
    0.7346    1.8541    0.2001 C   0  0  1  0  0  0  0  0  0  0  0  0
   -0.6857    1.3016    0.5711 C   0  0  1  0  0  0  0  0  0  0  0  0
   -1.3621    0.6179   -0.6590 C   0  0  2  0  0  0  0  0  0  0  0  0
    1.6707    0.8902   -0.5940 C   0  0  2  0  0  0  0  0  0  0  0  0
   -2.8405    0.1563   -0.3455 C   0  0  2  0  0  0  0  0  0  0  0  0
   -2.8634   -0.7214    0.9381 C   0  0  1  0  0  0  0  0  0  0  0  0
   -0.4365   -0.4949   -1.1904 C   0  0  0  0  0  0  0  0  0  0  0  0
    0.9109    0.0610   -1.6450 C   0  0  0  0  0  0  0  0  0  0  0  0
    2.2926    0.0296    0.5420 C   0  0  2  0  0  0  0  0  0  0  0  0
   -0.7958    0.4208    1.8339 C   0  0  0  0  0  0  0  0  0  0  0  0
    1.5914    2.2279    1.4215 C   0  0  0  0  0  0  0  0  0  0  0  0
   -2.2322   -0.0079    2.1358 C   0  0  0  0  0  0  0  0  0  0  0  0
    2.4570    1.0001    1.7283 C   0  0  0  0  0  0  0  0  0  0  0  0
   -3.4532   -0.6812   -1.5060 C   0  0  0  0  0  0  0  0  0  0  0  0
   -4.2718   -1.2328    1.2769 C   0  0  0  0  0  0  0  0  0  0  0  0
    2.7874    1.6584   -1.3599 C   0  0  0  0  0  0  0  0  0  0  0  0
   -3.7112    1.4382   -0.1862 C   0  0  0  0  0  0  0  0  0  0  0  0
   -4.8526   -1.2197   -1.1968 C   0  0  0  0  0  0  0  0  0  0  0  0
   -4.8821   -2.0096    0.1094 C   0  0  2  0  0  0  0  0  0  0  0  0
    3.5522   -0.7090    0.2119 C   0  0  0  0  0  0  0  0  0  0  0  0
    3.5275   -2.0880   -0.3163 C   0  0  0  0  0  0  0  0  0  0  0  0
    4.7997   -0.2641    0.3373 C   0  0  0  0  0  0  0  0  0  0  0  0
    5.6758   -1.3479   -0.1104 C   0  0  0  0  0  0  0  0  0  0  0  0
   -1.2783    2.1980    0.8003 H   0  0  0  0  0  0  0  0  0  0  0  0
   -1.4192    1.3558   -1.4690 H   0  0  0  0  0  0  0  0  0  0  0  0
   -2.2529   -1.6158    0.7455 H   0  0  0  0  0  0  0  0  0  0  0  0
   -0.8795   -0.9757   -2.0679 H   0  0  0  0  0  0  0  0  0  0  0  0
   -0.2873   -1.2824   -0.4455 H   0  0  0  0  0  0  0  0  0  0  0  0
    1.5302   -0.7607   -2.0168 H   0  0  0  0  0  0  0  0  0  0  0  0
    0.7157    0.6936   -2.5226 H   0  0  0  0  0  0  0  0  0  0  0  0
    1.5797   -0.7389    0.8526 H   0  0  0  0  0  0  0  0  0  0  0  0
   -0.4233    0.9579    2.7117 H   0  0  0  0  0  0  0  0  0  0  0  0
   -0.1982   -0.4868    1.7430 H   0  0  0  0  0  0  0  0  0  0  0  0
    1.0020    2.5529    2.2841 H   0  0  0  0  0  0  0  0  0  0  0  0
    2.2404    3.0799    1.1798 H   0  0  0  0  0  0  0  0  0  0  0  0
   -2.2223   -0.6803    3.0028 H   0  0  0  0  0  0  0  0  0  0  0  0
   -2.8273    0.8634    2.4321 H   0  0  0  0  0  0  0  0  0  0  0  0
    3.4806    1.3300    1.9250 H   0  0  0  0  0  0  0  0  0  0  0  0
    2.1124    0.5154    2.6499 H   0  0  0  0  0  0  0  0  0  0  0  0
   -2.8286   -1.5606   -1.7003 H   0  0  0  0  0  0  0  0  0  0  0  0
   -3.4756   -0.1111   -2.4420 H   0  0  0  0  0  0  0  0  0  0  0  0
   -4.2317   -1.8917    2.1542 H   0  0  0  0  0  0  0  0  0  0  0  0
   -4.9314   -0.4083    1.5738 H   0  0  0  0  0  0  0  0  0  0  0  0
    3.4283    2.2411   -0.6908 H   0  0  0  0  0  0  0  0  0  0  0  0
    3.4258    0.9757   -1.9318 H   0  0  0  0  0  0  0  0  0  0  0  0
    2.3609    2.3582   -2.0876 H   0  0  0  0  0  0  0  0  0  0  0  0
   -3.3616    2.0971    0.6112 H   0  0  0  0  0  0  0  0  0  0  0  0
   -4.7592    1.2156    0.0285 H   0  0  0  0  0  0  0  0  0  0  0  0
   -5.5875   -0.4068   -1.1722 H   0  0  0  0  0  0  0  0  0  0  0  0
   -5.1833   -1.8700   -2.0169 H   0  0  0  0  0  0  0  0  0  0  0  0
   -4.3369   -2.9513   -0.0236 H   0  0  0  0  0  0  0  0  0  0  0  0
    0.1386    2.7625   -1.4475 H   0  0  0  0  0  0  0  0  0  0  0  0
    3.0850   -2.7953    0.3913 H   0  0  0  0  0  0  0  0  0  0  0  0
    3.0295   -2.1715   -1.2840 H   0  0  0  0  0  0  0  0  0  0  0  0
   -4.1937    2.9396   -1.3054 H   0  0  0  0  0  0  0  0  0  0  0  0
    5.1574    0.6921    0.6764 H   0  0  0  0  0  0  0  0  0  0  0  0
   -6.7239   -1.5124    0.5446 H   0  0  0  0  0  0  0  0  0  0  0  0
  1  6  1  0  0  0  0
  1 57  1  0  0  0  0
  2 22  1  0  0  0  0
  2 60  1  0  0  0  0
  3 24  1  0  0  0  0
  3 62  1  0  0  0  0
  4 26  1  0  0  0  0
  4 28  1  0  0  0  0
  5 28  2  0  0  0  0
  6  7  1  0  0  0  0
  6  9  1  0  0  0  0
  6 16  1  0  0  0  0
  7  8  1  0  0  0  0
  7 15  1  0  0  0  0
  7 29  1  0  0  0  0
  8 10  1  0  0  0  0
  8 12  1  0  0  0  0
  8 30  1  0  0  0  0
  9 13  1  0  0  0  0
  9 14  1  0  0  0  0
  9 21  1  0  0  0  0
 10 11  1  0  0  0  0
 10 19  1  0  0  0  0
 10 22  1  0  0  0  0
 11 17  1  0  0  0  0
 11 20  1  0  0  0  0
 11 31  1  0  0  0  0
 12 13  1  0  0  0  0
 12 32  1  0  0  0  0
 12 33  1  0  0  0  0
 13 34  1  0  0  0  0
 13 35  1  0  0  0  0
 14 18  1  0  0  0  0
 14 25  1  0  0  0  0
 14 36  1  0  0  0  0
 15 17  1  0  0  0  0
 15 37  1  0  0  0  0
 15 38  1  0  0  0  0
 16 18  1  0  0  0  0
 16 39  1  0  0  0  0
 16 40  1  0  0  0  0
 17 41  1  0  0  0  0
 17 42  1  0  0  0  0
 18 43  1  0  0  0  0
 18 44  1  0  0  0  0
 19 23  1  0  0  0  0
 19 45  1  0  0  0  0
 19 46  1  0  0  0  0
 20 24  1  0  0  0  0
 20 47  1  0  0  0  0
 20 48  1  0  0  0  0
 21 49  1  0  0  0  0
 21 50  1  0  0  0  0
 21 51  1  0  0  0  0
 22 52  1  0  0  0  0
 22 53  1  0  0  0  0
 23 24  1  0  0  0  0
 23 54  1  0  0  0  0
 23 55  1  0  0  0  0
 24 56  1  0  0  0  0
 25 26  1  0  0  0  0
 25 27  2  0  0  0  0
 26 58  1  0  0  0  0
 26 59  1  0  0  0  0
 27 28  1  0  0  0  0
 27 61  1  0  0  0  0
M  END
> <PUBCHEM_COMPOUND_CID>
10094

> <PUBCHEM_CONFORMER_RMSD>
0.8

> <PUBCHEM_CONFORMER_DIVERSEORDER>
1
10
6
5
4
11
9
3
8
2
7

> <PUBCHEM_MMFF94_PARTIAL_CHARGES>
17
1 -0.68
14 0.14
2 -0.68
22 0.28
24 0.28
25 -0.28
26 0.42
27 -0.14
28 0.71
3 -0.68
4 -0.43
5 -0.57
57 0.4
6 0.28
60 0.4
61 0.15
62 0.4

> <PUBCHEM_EFFECTIVE_ROTOR_COUNT>
4.6

> <PUBCHEM_PHARMACOPHORE_FEATURES>
12
1 1 acceptor
1 1 donor
1 2 acceptor
1 2 donor
1 3 acceptor
1 3 donor
1 5 acceptor
5 4 25 26 27 28 rings
5 6 9 14 16 18 rings
6 10 11 19 20 23 24 rings
6 6 7 8 9 12 13 rings
6 7 8 10 11 15 17 rings

> <PUBCHEM_HEAVY_ATOM_COUNT>
28

> <PUBCHEM_ATOM_DEF_STEREO_COUNT>
6

> <PUBCHEM_ATOM_UDEF_STEREO_COUNT>
2

> <PUBCHEM_BOND_DEF_STEREO_COUNT>
0

> <PUBCHEM_BOND_UDEF_STEREO_COUNT>
0

> <PUBCHEM_ISOTOPIC_ATOM_COUNT>
0

> <PUBCHEM_COMPONENT_COUNT>
1

> <PUBCHEM_CACTVS_TAUTO_COUNT>
1

> <PUBCHEM_CONFORMER_ID>
0000276E00000001

> <PUBCHEM_MMFF94_ENERGY>
100.508

> <PUBCHEM_FEATURE_SELFOVERLAP>
61.08

> <PUBCHEM_SHAPE_FINGERPRINT>
10369192 42 9871166393924309130
10498660 4 14045741487187542047
11545043 162 18410300224110200889
11796584 16 18340208617103106870
11961588 58 13758071862087497206
12166972 35 18260549987302178312
12293681 160 13326854435539601764
12422481 6 16298932256154581387
12596602 18 17240204313792451234
12633257 1 15068629270510304170
12788726 201 17842003470466812376
12892183 10 16370728188269232858
13009979 54 18186511120719610400
13103583 49 17531237383326379138
13224815 77 16515682196116020009
13533116 47 18188491251193463371
13544653 18 18336542832857251686
13583140 156 18187097143294958869
13690498 29 18131071541234059599
14178342 30 16951106499995838337
14251751 18 18412542102481217975
14251764 30 18336826485346133758
14294032 229 17273710947898188197
14341114 328 14707213175515105106
14787075 74 18334010606329026722
15183329 4 15051737521276889522
15788980 27 18334016098621585205
16752209 62 15195023647177388925
17349148 13 16660653933492937821
17980427 23 14418143885018928816
193927 3 18201712942651893507
19784866 240 18408600353390300723
19784866 34 9583524208847688853
200 152 18341893026172765666
20028762 73 17095812022584329519
21033650 10 17131559443574119605
21069387 34 18410854330862980177
21421861 104 17241036605175721075
21637258 2 18273218608102425890
22393880 68 18059585701531647131
23227448 37 10591461924077632554
23559900 14 17917433064781943933
2838139 119 9439398008987915250
312423 11 18342170025852018005
34797466 226 17059495110990447589
3737641 26 17823972540897259806
4098825 35 18131345306633983341
46194498 28 17631450077174764590
463206 1 18337108943511756691
465052 167 18187922833298352647
474 4 10879994661937872880
5104073 3 17749382616992616739
6669772 16 17976533906894248580
7970288 3 18410009927176576250

> <PUBCHEM_SHAPE_MULTIPOLES>
546.88
12.28
2.54
1.69
3.8
0.32
0.29
-10.58
-0.28
0.38
-0.21
-0.93
0.39
0.73

> <PUBCHEM_SHAPE_SELFOVERLAP>
1182.064

> <PUBCHEM_SHAPE_VOLUME>
298.6

> <PUBCHEM_COORDINATE_TYPE>
2
5
10

$$$$

