13062
  -OEChem-06261207432D

 26 27  0     0  0  0  0  0  0999 V2000
    6.3301    1.2500    0.0000 O   0  0  0  0  0  0  0  0  0  0  0  0
    2.0000   -1.2500    0.0000 O   0  0  0  0  0  0  0  0  0  0  0  0
    5.4641    2.7500    0.0000 N   0  0  0  0  0  0  0  0  0  0  0  0
    2.8660   -2.7500    0.0000 N   0  0  0  0  0  0  0  0  0  0  0  0
    4.5981    1.2500    0.0000 N   0  0  0  0  0  0  0  0  0  0  0  0
    3.7321   -1.2500    0.0000 N   0  0  0  0  0  0  0  0  0  0  0  0
    5.9641    3.6160    0.0000 C   0  0  0  0  0  0  0  0  0  0  0  0
    4.9641    3.6160    0.0000 C   0  0  0  0  0  0  0  0  0  0  0  0
    2.3660   -3.6160    0.0000 C   0  0  0  0  0  0  0  0  0  0  0  0
    3.3660   -3.6160    0.0000 C   0  0  0  0  0  0  0  0  0  0  0  0
    5.4641    1.7500    0.0000 C   0  0  0  0  0  0  0  0  0  0  0  0
    2.8660   -1.7500    0.0000 C   0  0  0  0  0  0  0  0  0  0  0  0
    4.5981    0.2500    0.0000 C   0  0  0  0  0  0  0  0  0  0  0  0
    3.7321   -0.2500    0.0000 C   0  0  0  0  0  0  0  0  0  0  0  0
    6.5467    3.4040    0.0000 H   0  0  0  0  0  0  0  0  0  0  0  0
    6.0718    4.2266    0.0000 H   0  0  0  0  0  0  0  0  0  0  0  0
    4.8564    4.2266    0.0000 H   0  0  0  0  0  0  0  0  0  0  0  0
    4.3815    3.4040    0.0000 H   0  0  0  0  0  0  0  0  0  0  0  0
    1.7834   -3.4040    0.0000 H   0  0  0  0  0  0  0  0  0  0  0  0
    2.2584   -4.2266    0.0000 H   0  0  0  0  0  0  0  0  0  0  0  0
    3.4737   -4.2266    0.0000 H   0  0  0  0  0  0  0  0  0  0  0  0
    3.9486   -3.4040    0.0000 H   0  0  0  0  0  0  0  0  0  0  0  0
    4.0611    1.5600    0.0000 H   0  0  0  0  0  0  0  0  0  0  0  0
    4.2690   -1.5600    0.0000 H   0  0  0  0  0  0  0  0  0  0  0  0
    5.1350   -0.0600    0.0000 H   0  0  0  0  0  0  0  0  0  0  0  0
    3.1951    0.0600    0.0000 H   0  0  0  0  0  0  0  0  0  0  0  0
  1 11  2  0  0  0  0
  2 12  2  0  0  0  0
  3  7  1  0  0  0  0
  3  8  1  0  0  0  0
  3 11  1  0  0  0  0
  4  9  1  0  0  0  0
  4 10  1  0  0  0  0
  4 12  1  0  0  0  0
  5 11  1  0  0  0  0
  5 13  1  0  0  0  0
  5 23  1  0  0  0  0
  6 12  1  0  0  0  0
  6 14  1  0  0  0  0
  6 24  1  0  0  0  0
  7  8  1  0  0  0  0
  7 15  1  0  0  0  0
  7 16  1  0  0  0  0
  8 17  1  0  0  0  0
  8 18  1  0  0  0  0
  9 10  1  0  0  0  0
  9 19  1  0  0  0  0
  9 20  1  0  0  0  0
 10 21  1  0  0  0  0
 10 22  1  0  0  0  0
 13 14  2  3  0  0  0
 13 25  1  0  0  0  0
 14 26  1  0  0  0  0
M  END
> <PUBCHEM_COMPOUND_CID>
13062

> <PUBCHEM_COMPOUND_CANONICALIZED>
1

> <PUBCHEM_CACTVS_COMPLEXITY>
253

> <PUBCHEM_CACTVS_HBOND_ACCEPTOR>
2

> <PUBCHEM_CACTVS_HBOND_DONOR>
2

> <PUBCHEM_CACTVS_ROTATABLE_BOND>
2

> <PUBCHEM_CACTVS_SUBSKEYS>
AAADccBzsAAAAAAAAAAAAAAAFiwAAAAAAAAAAAAAAAAAAAAAAAAAHgAQAAAAAADBAAQBAAPAAACIAAAGUAAAAAAAAgAIAIAIAACAAAAAAAAAAAAIBgIAAAAAAAAAAAAAAAAAAAAAAAAAAAAAAAAAAAAAAA==

> <PUBCHEM_IUPAC_OPENEYE_NAME>
N-[2-(aziridine-1-carbonylamino)vinyl]aziridine-1-carboxamide

> <PUBCHEM_IUPAC_CAS_NAME>
N-[2-[[1-aziridinyl(oxo)methyl]amino]ethenyl]-1-aziridinecarboxamide

> <PUBCHEM_IUPAC_NAME>
N-[2-(aziridine-1-carbonylamino)ethenyl]aziridine-1-carboxamide

> <PUBCHEM_IUPAC_SYSTEMATIC_NAME>
N-[2-(aziridin-1-ylcarbonylamino)ethenyl]aziridine-1-carboxamide

> <PUBCHEM_IUPAC_TRADITIONAL_NAME>
N-[2-(ethylenimine-1-carbonylamino)vinyl]ethylenimine-1-carboxamide

> <PUBCHEM_IUPAC_INCHI>
InChI=1S/C8H12N4O2/c13-7(11-3-4-11)9-1-2-10-8(14)12-5-6-12/h1-2H,3-6H2,(H,9,13)(H,10,14)

> <PUBCHEM_IUPAC_INCHIKEY>
WGALHHZHSDFQLW-UHFFFAOYSA-N

> <PUBCHEM_XLOGP3_AA>
-1.6

> <PUBCHEM_EXACT_MASS>
196.096026

> <PUBCHEM_MOLECULAR_FORMULA>
C8H12N4O2

> <PUBCHEM_MOLECULAR_WEIGHT>
196.20648

> <PUBCHEM_OPENEYE_CAN_SMILES>
C1CN1C(=O)NC=CNC(=O)N2CC2

> <PUBCHEM_OPENEYE_ISO_SMILES>
C1CN1C(=O)NC=CNC(=O)N2CC2

> <PUBCHEM_CACTVS_TPSA>
64.2

> <PUBCHEM_MONOISOTOPIC_WEIGHT>
196.096026

> <PUBCHEM_TOTAL_CHARGE>
0

> <PUBCHEM_HEAVY_ATOM_COUNT>
14

> <PUBCHEM_ATOM_DEF_STEREO_COUNT>
0

> <PUBCHEM_ATOM_UDEF_STEREO_COUNT>
0

> <PUBCHEM_BOND_DEF_STEREO_COUNT>
0

> <PUBCHEM_BOND_UDEF_STEREO_COUNT>
1

> <PUBCHEM_ISOTOPIC_ATOM_COUNT>
0

> <PUBCHEM_COMPONENT_COUNT>
1

> <PUBCHEM_CACTVS_TAUTO_COUNT>
3

> <PUBCHEM_COORDINATE_TYPE>
1
5
255

> <PUBCHEM_BONDANNOTATIONS>
13  14  1

$$$$

