12381
  -OEChem-06261206533D

 25 24  0     0  0  0  0  0  0999 V2000
    4.9219   -0.3893    0.0128 O   0  0  0  0  0  0  0  0  0  0  0  0
   -4.9345   -0.3846    0.0310 O   0  0  0  0  0  0  0  0  0  0  0  0
    0.0038   -0.3762   -0.0396 C   0  0  0  0  0  0  0  0  0  0  0  0
    1.2677    0.4843   -0.0025 C   0  0  0  0  0  0  0  0  0  0  0  0
   -1.2588    0.4879   -0.0249 C   0  0  0  0  0  0  0  0  0  0  0  0
    2.5273   -0.3787    0.0163 C   0  0  0  0  0  0  0  0  0  0  0  0
   -2.5232   -0.3763   -0.0219 C   0  0  0  0  0  0  0  0  0  0  0  0
    3.7905    0.4703    0.0098 C   0  0  0  0  0  0  0  0  0  0  0  0
   -3.7946    0.4626    0.0189 C   0  0  0  0  0  0  0  0  0  0  0  0
    0.0102   -1.0032   -0.9394 H   0  0  0  0  0  0  0  0  0  0  0  0
   -0.0043   -1.0512    0.8250 H   0  0  0  0  0  0  0  0  0  0  0  0
    1.2859    1.1445   -0.8781 H   0  0  0  0  0  0  0  0  0  0  0  0
    1.2514    1.1267    0.8865 H   0  0  0  0  0  0  0  0  0  0  0  0
   -1.2658    1.1468   -0.9015 H   0  0  0  0  0  0  0  0  0  0  0  0
   -1.2545    1.1305    0.8639 H   0  0  0  0  0  0  0  0  0  0  0  0
    2.5298   -1.0296    0.8996 H   0  0  0  0  0  0  0  0  0  0  0  0
    2.5359   -1.0508   -0.8510 H   0  0  0  0  0  0  0  0  0  0  0  0
   -2.5429   -1.0200   -0.9102 H   0  0  0  0  0  0  0  0  0  0  0  0
   -2.5137   -1.0562    0.8392 H   0  0  0  0  0  0  0  0  0  0  0  0
    3.8410    1.1108   -0.8765 H   0  0  0  0  0  0  0  0  0  0  0  0
    3.8417    1.1048    0.8998 H   0  0  0  0  0  0  0  0  0  0  0  0
   -3.8558    1.1127   -0.8598 H   0  0  0  0  0  0  0  0  0  0  0  0
   -3.8175    1.0848    0.9194 H   0  0  0  0  0  0  0  0  0  0  0  0
    4.8852   -0.9262   -0.7970 H   0  0  0  0  0  0  0  0  0  0  0  0
   -5.7178    0.1911    0.0569 H   0  0  0  0  0  0  0  0  0  0  0  0
  1  8  1  0  0  0  0
  1 24  1  0  0  0  0
  2  9  1  0  0  0  0
  2 25  1  0  0  0  0
  3  4  1  0  0  0  0
  3  5  1  0  0  0  0
  3 10  1  0  0  0  0
  3 11  1  0  0  0  0
  4  6  1  0  0  0  0
  4 12  1  0  0  0  0
  4 13  1  0  0  0  0
  5  7  1  0  0  0  0
  5 14  1  0  0  0  0
  5 15  1  0  0  0  0
  6  8  1  0  0  0  0
  6 16  1  0  0  0  0
  6 17  1  0  0  0  0
  7  9  1  0  0  0  0
  7 18  1  0  0  0  0
  7 19  1  0  0  0  0
  8 20  1  0  0  0  0
  8 21  1  0  0  0  0
  9 22  1  0  0  0  0
  9 23  1  0  0  0  0
M  END
> <PUBCHEM_COMPOUND_CID>
12381

> <PUBCHEM_CONFORMER_RMSD>
0.6

> <PUBCHEM_CONFORMER_DIVERSEORDER>
1
71
63
99
110
3
33
104
29
103
28
23
37
2
87
73
114
42
100
41
56
8
105
4
90
89
47
31
112
27
12
74
108
92
76
32
7
107
102
11
84
45
85
22
49
109
10
20
98
17
111
86
79
72
113
26
6
5
95
64
67
61
39
88
75
106
46
35
54
51
21
97
13
93
91
9
44
16
101
94
14
19
65
96
53
15
25
40
83
34
24
58
18
70
36
69
30
62
77
68
60
82
66
59
50
80
52
78
55
57
81
48
43
38

> <PUBCHEM_MMFF94_PARTIAL_CHARGES>
6
1 -0.68
2 -0.68
24 0.4
25 0.4
8 0.28
9 0.28

> <PUBCHEM_EFFECTIVE_ROTOR_COUNT>
6

> <PUBCHEM_PHARMACOPHORE_FEATURES>
5
1 1 acceptor
1 1 donor
1 2 acceptor
1 2 donor
5 3 4 5 6 7 hydrophobe

> <PUBCHEM_HEAVY_ATOM_COUNT>
9

> <PUBCHEM_ATOM_DEF_STEREO_COUNT>
0

> <PUBCHEM_ATOM_UDEF_STEREO_COUNT>
0

> <PUBCHEM_BOND_DEF_STEREO_COUNT>
0

> <PUBCHEM_BOND_UDEF_STEREO_COUNT>
0

> <PUBCHEM_ISOTOPIC_ATOM_COUNT>
0

> <PUBCHEM_COMPONENT_COUNT>
1

> <PUBCHEM_CACTVS_TAUTO_COUNT>
1

> <PUBCHEM_CONFORMER_ID>
0000305D00000001

> <PUBCHEM_MMFF94_ENERGY>
0.708

> <PUBCHEM_FEATURE_SELFOVERLAP>
25.371

> <PUBCHEM_SHAPE_FINGERPRINT>
11062470 55 18410855460128174785
14123238 8 18413670205663611173
17834076 25 18411136939399839748
18342897 14 17966968335424118385
20645477 70 18261672692033460494
20719005 15 18410856559655620322
22485316 2 18411422812428570123
23402539 116 17894918438426533757
366044 4 18411700980338764578
42788 4 18410856559639880517

> <PUBCHEM_SHAPE_MULTIPOLES>
173.48
10.02
0.78
0.6
0.1
0.03
0
-0.63
-0.15
0
0
0
0.01
0

> <PUBCHEM_SHAPE_SELFOVERLAP>
303.649

> <PUBCHEM_SHAPE_VOLUME>
114.4

> <PUBCHEM_COORDINATE_TYPE>
2
5
10

$$$$

