9966
  -OEChem-06261204133D

 18 18  0     0  0  0  0  0  0999 V2000
    3.1865    1.2389   -0.0014 F   0  0  0  0  0  0  0  0  0  0  0  0
    3.1672   -0.6386    1.0843 F   0  0  0  0  0  0  0  0  0  0  0  0
    3.1446   -0.6430   -1.0901 F   0  0  0  0  0  0  0  0  0  0  0  0
   -3.6421   -1.2011    0.0005 O   0  0  0  0  0  0  0  0  0  0  0  0
   -3.8147    1.0653   -0.0002 O   0  0  0  0  0  0  0  0  0  0  0  0
    1.1350    0.0081    0.0012 C   0  0  0  0  0  0  0  0  0  0  0  0
    0.4498    1.2231   -0.0002 C   0  0  0  0  0  0  0  0  0  0  0  0
    0.4252   -1.1928    0.0024 C   0  0  0  0  0  0  0  0  0  0  0  0
   -1.6546    0.0367    0.0006 C   0  0  0  0  0  0  0  0  0  0  0  0
   -0.9449    1.2375   -0.0005 C   0  0  0  0  0  0  0  0  0  0  0  0
   -0.9696   -1.1784    0.0021 C   0  0  0  0  0  0  0  0  0  0  0  0
    2.6265   -0.0070    0.0007 C   0  0  0  0  0  0  0  0  0  0  0  0
   -3.1089    0.0514    0.0006 C   0  0  0  0  0  0  0  0  0  0  0  0
    0.9851    2.1686   -0.0013 H   0  0  0  0  0  0  0  0  0  0  0  0
    0.9507   -2.1442    0.0034 H   0  0  0  0  0  0  0  0  0  0  0  0
   -1.4600    2.1946   -0.0015 H   0  0  0  0  0  0  0  0  0  0  0  0
   -1.4823   -2.1362    0.0030 H   0  0  0  0  0  0  0  0  0  0  0  0
   -4.6229   -1.1802    0.0000 H   0  0  0  0  0  0  0  0  0  0  0  0
  1 12  1  0  0  0  0
  2 12  1  0  0  0  0
  3 12  1  0  0  0  0
  4 13  1  0  0  0  0
  4 18  1  0  0  0  0
  5 13  2  0  0  0  0
  6  7  2  0  0  0  0
  6  8  1  0  0  0  0
  6 12  1  0  0  0  0
  7 10  1  0  0  0  0
  7 14  1  0  0  0  0
  8 11  2  0  0  0  0
  8 15  1  0  0  0  0
  9 10  2  0  0  0  0
  9 11  1  0  0  0  0
  9 13  1  0  0  0  0
 10 16  1  0  0  0  0
 11 17  1  0  0  0  0
M  END
> <PUBCHEM_COMPOUND_CID>
9966

> <PUBCHEM_CONFORMER_RMSD>
0.6

> <PUBCHEM_CONFORMER_DIVERSEORDER>
1

> <PUBCHEM_MMFF94_PARTIAL_CHARGES>
18
1 -0.34
10 -0.15
11 -0.15
12 1.16
13 0.63
14 0.15
15 0.15
16 0.15
17 0.15
18 0.5
2 -0.34
3 -0.34
4 -0.65
5 -0.57
6 -0.14
7 -0.15
8 -0.15
9 0.09

> <PUBCHEM_EFFECTIVE_ROTOR_COUNT>
2

> <PUBCHEM_PHARMACOPHORE_FEATURES>
4
1 4 acceptor
1 5 acceptor
3 4 5 13 anion
6 6 7 8 9 10 11 rings

> <PUBCHEM_HEAVY_ATOM_COUNT>
13

> <PUBCHEM_ATOM_DEF_STEREO_COUNT>
0

> <PUBCHEM_ATOM_UDEF_STEREO_COUNT>
0

> <PUBCHEM_BOND_DEF_STEREO_COUNT>
0

> <PUBCHEM_BOND_UDEF_STEREO_COUNT>
0

> <PUBCHEM_ISOTOPIC_ATOM_COUNT>
0

> <PUBCHEM_COMPONENT_COUNT>
1

> <PUBCHEM_CACTVS_TAUTO_COUNT>
1

> <PUBCHEM_CONFORMER_ID>
000026EE00000001

> <PUBCHEM_MMFF94_ENERGY>
27.3629

> <PUBCHEM_FEATURE_SELFOVERLAP>
20.355

> <PUBCHEM_SHAPE_FINGERPRINT>
10130415 120 18271813427509155072
10219947 1 18410009935849971349
11062470 55 18343301474508154921
11132069 177 18334862735633934961
12032990 46 18408595955380771271
12932764 1 17703795833405957829
13296908 3 18260545628005292407
14144814 61 18413953884085164787
14325111 11 18410575076268420577
14993402 34 18271804605530200061
16945 1 18410855494519561667
18186145 218 18343302578167044189
19026448 4 16443066105799826915
19026448 5 16487254378603241839
193761 8 17545884183967810919
20645476 183 17703210833333577790
20645477 70 17676766586379107223
23402539 116 18261685826016395646
23402655 69 18192447457893294501
23463225 33 18343025531375468610
23552423 10 17984983695911205548
23559900 14 18334293189291300494
2748010 2 18194965132465184735
528886 8 18409735079665738339

> <PUBCHEM_SHAPE_MULTIPOLES>
233.97
6.03
1.38
0.71
0.89
0.07
0
-0.01
-0.01
0.25
0
-0.41
-0.08
0

> <PUBCHEM_SHAPE_SELFOVERLAP>
497.94

> <PUBCHEM_SHAPE_VOLUME>
131.6

> <PUBCHEM_COORDINATE_TYPE>
2
5
10

$$$$

