7846933
  -OEChem-06241222472D

 36 38  0     0  0  0  0  0  0999 V2000
   11.2619   -3.0981    0.0000 Br  0  0  0  0  0  0  0  0  0  0  0  0
    4.6783    2.9028    0.0000 S   0  0  0  0  0  0  0  0  0  0  0  0
    8.2619   -1.3660    0.0000 F   0  0  0  0  0  0  0  0  0  0  0  0
    8.2619    0.3660    0.0000 O   0  0  0  0  0  0  0  0  0  0  0  0
    8.2619    2.0981    0.0000 O   0  0  0  0  0  0  0  0  0  0  0  0
    4.6783    1.2933    0.0000 N   0  0  0  0  0  0  0  0  0  0  0  0
    6.2619    2.0981    0.0000 C   0  0  0  0  0  0  0  0  0  0  0  0
    6.7619    1.2320    0.0000 C   0  0  0  0  0  0  0  0  0  0  0  0
    5.2619    2.0981    0.0000 C   0  0  0  0  0  0  0  0  0  0  0  0
    3.7320    2.5981    0.0000 C   0  0  0  0  0  0  0  0  0  0  0  0
    3.7320    1.5981    0.0000 C   0  0  0  0  0  0  0  0  0  0  0  0
    7.7619    1.2320    0.0000 C   0  0  0  0  0  0  0  0  0  0  0  0
    9.2619    0.3660    0.0000 C   0  0  0  0  0  0  0  0  0  0  0  0
    9.7619   -0.5000    0.0000 C   0  0  0  0  0  0  0  0  0  0  0  0
    2.8660    3.0981    0.0000 C   0  0  0  0  0  0  0  0  0  0  0  0
    2.8660    1.0981    0.0000 C   0  0  0  0  0  0  0  0  0  0  0  0
    2.0000    2.5981    0.0000 C   0  0  0  0  0  0  0  0  0  0  0  0
    2.0000    1.5981    0.0000 C   0  0  0  0  0  0  0  0  0  0  0  0
    9.2619   -1.3660    0.0000 C   0  0  0  0  0  0  0  0  0  0  0  0
   10.7619   -0.5000    0.0000 C   0  0  0  0  0  0  0  0  0  0  0  0
    9.7619   -2.2320    0.0000 C   0  0  0  0  0  0  0  0  0  0  0  0
   11.2619   -1.3660    0.0000 C   0  0  0  0  0  0  0  0  0  0  0  0
   10.7619   -2.2320    0.0000 C   0  0  0  0  0  0  0  0  0  0  0  0
    6.8445    2.3101    0.0000 H   0  0  0  0  0  0  0  0  0  0  0  0
    6.1542    2.7087    0.0000 H   0  0  0  0  0  0  0  0  0  0  0  0
    6.1793    1.0200    0.0000 H   0  0  0  0  0  0  0  0  0  0  0  0
    6.8695    0.6215    0.0000 H   0  0  0  0  0  0  0  0  0  0  0  0
    9.8445    0.5781    0.0000 H   0  0  0  0  0  0  0  0  0  0  0  0
    9.1542    0.9766    0.0000 H   0  0  0  0  0  0  0  0  0  0  0  0
    2.8660    3.7181    0.0000 H   0  0  0  0  0  0  0  0  0  0  0  0
    2.8660    0.4781    0.0000 H   0  0  0  0  0  0  0  0  0  0  0  0
    1.4631    2.9081    0.0000 H   0  0  0  0  0  0  0  0  0  0  0  0
    1.4631    1.2881    0.0000 H   0  0  0  0  0  0  0  0  0  0  0  0
   11.0719    0.0369    0.0000 H   0  0  0  0  0  0  0  0  0  0  0  0
    9.4519   -2.7690    0.0000 H   0  0  0  0  0  0  0  0  0  0  0  0
   11.8819   -1.3660    0.0000 H   0  0  0  0  0  0  0  0  0  0  0  0
  1 23  1  0  0  0  0
  2  9  1  0  0  0  0
  2 10  1  0  0  0  0
  3 19  1  0  0  0  0
  4 12  1  0  0  0  0
  4 13  1  0  0  0  0
  5 12  2  0  0  0  0
  6  9  2  0  0  0  0
  6 11  1  0  0  0  0
  7  8  1  0  0  0  0
  7  9  1  0  0  0  0
  7 24  1  0  0  0  0
  7 25  1  0  0  0  0
  8 12  1  0  0  0  0
  8 26  1  0  0  0  0
  8 27  1  0  0  0  0
 10 11  1  0  0  0  0
 10 15  2  0  0  0  0
 11 16  2  0  0  0  0
 13 14  1  0  0  0  0
 13 28  1  0  0  0  0
 13 29  1  0  0  0  0
 14 19  2  0  0  0  0
 14 20  1  0  0  0  0
 15 17  1  0  0  0  0
 15 30  1  0  0  0  0
 16 18  1  0  0  0  0
 16 31  1  0  0  0  0
 17 18  2  0  0  0  0
 17 32  1  0  0  0  0
 18 33  1  0  0  0  0
 19 21  1  0  0  0  0
 20 22  2  0  0  0  0
 20 34  1  0  0  0  0
 21 23  2  0  0  0  0
 21 35  1  0  0  0  0
 22 23  1  0  0  0  0
 22 36  1  0  0  0  0
M  END
> <PUBCHEM_COMPOUND_CID>
7846933

> <PUBCHEM_COMPOUND_CANONICALIZED>
1

> <PUBCHEM_CACTVS_COMPLEXITY>
414

> <PUBCHEM_CACTVS_HBOND_ACCEPTOR>
5

> <PUBCHEM_CACTVS_HBOND_DONOR>
0

> <PUBCHEM_CACTVS_ROTATABLE_BOND>
6

> <PUBCHEM_CACTVS_SUBSKEYS>
AAADccB6MQBAEAAAAAAAAAAAAAAAAWAAAAAwYAAAAAAAAFgB9AAAHwRAAAABrAih3gowybIIFAisAyTyTACD8KBhCjxImD0wbLgIJrLgsZmGMAhkwAHo6he0wCAOAgAAAAAAAQAEAAAAAAACAAAAAAAAAA==

> <PUBCHEM_IUPAC_OPENEYE_NAME>
(4-bromo-2-fluoro-phenyl)methyl 3-(1,3-benzothiazol-2-yl)propanoate

> <PUBCHEM_IUPAC_CAS_NAME>
3-(1,3-benzothiazol-2-yl)propanoic acid (4-bromo-2-fluorophenyl)methyl ester

> <PUBCHEM_IUPAC_NAME>
(4-bromo-2-fluorophenyl)methyl 3-(1,3-benzothiazol-2-yl)propanoate

> <PUBCHEM_IUPAC_SYSTEMATIC_NAME>
(4-bromanyl-2-fluoranyl-phenyl)methyl 3-(1,3-benzothiazol-2-yl)propanoate

> <PUBCHEM_IUPAC_TRADITIONAL_NAME>
3-(1,3-benzothiazol-2-yl)propionic acid (4-bromo-2-fluoro-benzyl) ester

> <PUBCHEM_IUPAC_INCHI>
InChI=1S/C17H13BrFNO2S/c18-12-6-5-11(13(19)9-12)10-22-17(21)8-7-16-20-14-3-1-2-4-15(14)23-16/h1-6,9H,7-8,10H2

> <PUBCHEM_IUPAC_INCHIKEY>
KVWOHCQXGFVUSO-UHFFFAOYSA-N

> <PUBCHEM_XLOGP3_AA>
4.8

> <PUBCHEM_EXACT_MASS>
392.98344

> <PUBCHEM_MOLECULAR_FORMULA>
C17H13BrFNO2S

> <PUBCHEM_MOLECULAR_WEIGHT>
394.258023

> <PUBCHEM_OPENEYE_CAN_SMILES>
C1=CC=C2C(=C1)N=C(S2)CCC(=O)OCC3=C(C=C(C=C3)Br)F

> <PUBCHEM_OPENEYE_ISO_SMILES>
C1=CC=C2C(=C1)N=C(S2)CCC(=O)OCC3=C(C=C(C=C3)Br)F

> <PUBCHEM_CACTVS_TPSA>
67.4

> <PUBCHEM_MONOISOTOPIC_WEIGHT>
392.98344

> <PUBCHEM_TOTAL_CHARGE>
0

> <PUBCHEM_HEAVY_ATOM_COUNT>
23

> <PUBCHEM_ATOM_DEF_STEREO_COUNT>
0

> <PUBCHEM_ATOM_UDEF_STEREO_COUNT>
0

> <PUBCHEM_BOND_DEF_STEREO_COUNT>
0

> <PUBCHEM_BOND_UDEF_STEREO_COUNT>
0

> <PUBCHEM_ISOTOPIC_ATOM_COUNT>
0

> <PUBCHEM_COMPONENT_COUNT>
1

> <PUBCHEM_CACTVS_TAUTO_COUNT>
2

> <PUBCHEM_COORDINATE_TYPE>
1
5
255

> <PUBCHEM_BONDANNOTATIONS>
10  11  8
10  15  8
11  16  8
14  19  8
14  20  8
15  17  8
16  18  8
17  18  8
19  21  8
2  10  8
2  9  8
20  22  8
21  23  8
22  23  8
6  11  8
6  9  8

$$$$

