3616
  -OEChem-06251223323D

 34 33  0     0  0  0  0  0  0999 V2000
    4.2754   -1.2305   -1.1182 O   0  0  0  0  0  0  0  0  0  0  0  0
   -4.2716   -1.2242    1.1243 O   0  0  0  0  0  0  0  0  0  0  0  0
    3.5013    0.2149    0.5359 N   0  0  0  0  0  0  0  0  0  0  0  0
   -3.5100    0.2118   -0.5436 N   0  0  0  0  0  0  0  0  0  0  0  0
    0.7260    1.3476    0.2925 C   0  0  0  0  0  0  0  0  0  0  0  0
   -0.6969    1.3017   -0.2699 C   0  0  0  0  0  0  0  0  0  0  0  0
    1.7662    1.3081   -0.8322 C   0  0  0  0  0  0  0  0  0  0  0  0
   -1.7818    1.3315    0.8130 C   0  0  0  0  0  0  0  0  0  0  0  0
    3.1976    1.3396   -0.3055 C   0  0  0  0  0  0  0  0  0  0  0  0
   -3.2141    1.3464    0.2869 C   0  0  0  0  0  0  0  0  0  0  0  0
    4.0174   -0.9821    0.0566 C   0  0  0  0  0  0  0  0  0  0  0  0
   -4.0166   -0.9848   -0.0530 C   0  0  0  0  0  0  0  0  0  0  0  0
    4.2664   -1.9827    1.1532 C   0  0  0  0  0  0  0  0  0  0  0  0
   -4.2592   -1.9972   -1.1400 C   0  0  0  0  0  0  0  0  0  0  0  0
    0.8672    0.4976    0.9701 H   0  0  0  0  0  0  0  0  0  0  0  0
    0.8585    2.2608    0.8850 H   0  0  0  0  0  0  0  0  0  0  0  0
   -0.8105    0.3935   -0.8743 H   0  0  0  0  0  0  0  0  0  0  0  0
   -0.8454    2.1531   -0.9456 H   0  0  0  0  0  0  0  0  0  0  0  0
    1.6154    2.1651   -1.4995 H   0  0  0  0  0  0  0  0  0  0  0  0
    1.6174    0.4021   -1.4326 H   0  0  0  0  0  0  0  0  0  0  0  0
   -1.6484    0.4589    1.4652 H   0  0  0  0  0  0  0  0  0  0  0  0
   -1.6351    2.2182    1.4417 H   0  0  0  0  0  0  0  0  0  0  0  0
    3.8975    1.3532   -1.1482 H   0  0  0  0  0  0  0  0  0  0  0  0
    3.3669    2.2456    0.2861 H   0  0  0  0  0  0  0  0  0  0  0  0
   -3.9155    1.3681    1.1281 H   0  0  0  0  0  0  0  0  0  0  0  0
   -3.3847    2.2438   -0.3171 H   0  0  0  0  0  0  0  0  0  0  0  0
    3.3296    0.3117    1.5326 H   0  0  0  0  0  0  0  0  0  0  0  0
   -3.3374    0.3000   -1.5410 H   0  0  0  0  0  0  0  0  0  0  0  0
    4.4418   -2.9702    0.7176 H   0  0  0  0  0  0  0  0  0  0  0  0
    5.1456   -1.6805    1.7286 H   0  0  0  0  0  0  0  0  0  0  0  0
    3.3992   -2.0428    1.8172 H   0  0  0  0  0  0  0  0  0  0  0  0
   -4.4272   -2.9819   -0.6951 H   0  0  0  0  0  0  0  0  0  0  0  0
   -5.1410   -1.7068   -1.7174 H   0  0  0  0  0  0  0  0  0  0  0  0
   -3.3921   -2.0573   -1.8039 H   0  0  0  0  0  0  0  0  0  0  0  0
  1 11  2  0  0  0  0
  2 12  2  0  0  0  0
  3  9  1  0  0  0  0
  3 11  1  0  0  0  0
  3 27  1  0  0  0  0
  4 10  1  0  0  0  0
  4 12  1  0  0  0  0
  4 28  1  0  0  0  0
  5  6  1  0  0  0  0
  5  7  1  0  0  0  0
  5 15  1  0  0  0  0
  5 16  1  0  0  0  0
  6  8  1  0  0  0  0
  6 17  1  0  0  0  0
  6 18  1  0  0  0  0
  7  9  1  0  0  0  0
  7 19  1  0  0  0  0
  7 20  1  0  0  0  0
  8 10  1  0  0  0  0
  8 21  1  0  0  0  0
  8 22  1  0  0  0  0
  9 23  1  0  0  0  0
  9 24  1  0  0  0  0
 10 25  1  0  0  0  0
 10 26  1  0  0  0  0
 11 13  1  0  0  0  0
 12 14  1  0  0  0  0
 13 29  1  0  0  0  0
 13 30  1  0  0  0  0
 13 31  1  0  0  0  0
 14 32  1  0  0  0  0
 14 33  1  0  0  0  0
 14 34  1  0  0  0  0
M  END
> <PUBCHEM_COMPOUND_CID>
3616

> <PUBCHEM_CONFORMER_RMSD>
0.8

> <PUBCHEM_CONFORMER_DIVERSEORDER>
1
169
25
106
44
105
179
107
61
24
157
72
20
94
11
17
183
22
141
87
172
112
37
97
13
121
32
137
77
190
45
184
64
75
3
78
176
34
118
66
60
46
131
170
73
127
171
85
114
175
130
146
70
163
38
54
90
14
188
52
128
26
156
12
103
79
5
43
110
95
124
164
86
129
8
136
142
39
153
33
166
30
189
7
6
88
59
92
165
2
158
65
193
4
56
28
84
187
51
144
192
115
36
68
29
98
174
71
53
148
122
109
138
182
21
150
27
76
143
116
140
168
74
177
93
126
91
173
111
83
50
100
161
67
113
145
55
117
10
134
99
155
186
120
18
62
125
81
48
180
104
181
58
185
16
151
191
47
102
178
119
63
41
162
133
49
89
19
80
108
152
57
132
15
147
167
82
159
31
23
160
35
135
9
139
42
69
123
96
154
40
101
149

> <PUBCHEM_MMFF94_PARTIAL_CHARGES>
12
1 -0.57
10 0.3
11 0.57
12 0.57
13 0.06
14 0.06
2 -0.57
27 0.37
28 0.37
3 -0.73
4 -0.73
9 0.3

> <PUBCHEM_EFFECTIVE_ROTOR_COUNT>
9

> <PUBCHEM_PHARMACOPHORE_FEATURES>
5
1 1 acceptor
1 2 acceptor
1 3 donor
1 4 donor
4 5 6 7 8 hydrophobe

> <PUBCHEM_HEAVY_ATOM_COUNT>
14

> <PUBCHEM_ATOM_DEF_STEREO_COUNT>
0

> <PUBCHEM_ATOM_UDEF_STEREO_COUNT>
0

> <PUBCHEM_BOND_DEF_STEREO_COUNT>
0

> <PUBCHEM_BOND_UDEF_STEREO_COUNT>
0

> <PUBCHEM_ISOTOPIC_ATOM_COUNT>
0

> <PUBCHEM_COMPONENT_COUNT>
1

> <PUBCHEM_CACTVS_TAUTO_COUNT>
3

> <PUBCHEM_CONFORMER_ID>
00000E2000000001

> <PUBCHEM_MMFF94_ENERGY>
5.1408

> <PUBCHEM_FEATURE_SELFOVERLAP>
25.371

> <PUBCHEM_SHAPE_FINGERPRINT>
10062212 137 18410575115170942377
10498660 4 11312053249066715494
11159736 12 18410863161004549506
11987891 38 18411980256286769428
122479 349 8286195063368327172
12410352 35 18410300223973271718
13167823 11 18410570690911814437
13255334 9 18412540994390094618
13887833 79 15625954182446978898
14123255 352 8286198344728265443
14123260 362 10592044674057031151
1420 369 18408038494347984015
14251710 61 18410570690911541605
15239191 94 18410013234221434788
177051 138 18408321094711816124
17834072 33 18410567367324708316
18186145 218 15051725374365882837
18915474 69 18413109433205978321
193927 3 18410845568823890274
20281475 54 18410571786134106957
20621476 91 16444212840730439367
20645477 70 17632572721834259984
21054139 6 18268707204661916612
22485316 2 18410857663446982276
22620623 9 17131003116370455701
22646028 28 18410572889934953057
23403322 49 18410295779309484557
235170 7 16773803558394867535
23590187 138 9151175367776436635
23596394 208 16988575609876038882
351380 3 18410848863058732930
4283 87 18341904012272490738
559249 180 18268434701745279753
573450 72 18260547853009640729
633830 44 16773791523891560381
960060 61 17275100661100057734

> <PUBCHEM_SHAPE_MULTIPOLES>
266.41
11.5
2.34
1.1
0.02
0.67
0
7.85
0.01
0.02
0
-0.01
0.37
-1.2

> <PUBCHEM_SHAPE_SELFOVERLAP>
491.912

> <PUBCHEM_SHAPE_VOLUME>
167.3

> <PUBCHEM_COORDINATE_TYPE>
2
5
10

$$$$

