13015
  -OEChem-06261207393D

 13 13  0     0  0  0  0  0  0999 V2000
   -2.7593    1.6519   -0.0005 Cl  0  0  0  0  0  0  0  0  0  0  0  0
    3.3377    0.7254   -0.0005 N   0  0  0  0  0  0  0  0  0  0  0  0
    0.8639   -0.0444    0.0005 C   0  0  0  0  0  0  0  0  0  0  0  0
   -0.1615    0.9014    0.0006 C   0  0  0  0  0  0  0  0  0  0  0  0
    0.5575   -1.4053    0.0001 C   0  0  0  0  0  0  0  0  0  0  0  0
   -1.4932    0.4861    0.0003 C   0  0  0  0  0  0  0  0  0  0  0  0
   -0.7741   -1.8205   -0.0002 C   0  0  0  0  0  0  0  0  0  0  0  0
   -1.7994   -0.8748   -0.0002 C   0  0  0  0  0  0  0  0  0  0  0  0
    2.2284    0.3802    0.0000 C   0  0  0  0  0  0  0  0  0  0  0  0
    0.0765    1.9634    0.0007 H   0  0  0  0  0  0  0  0  0  0  0  0
    1.3456   -2.1545   -0.0002 H   0  0  0  0  0  0  0  0  0  0  0  0
   -2.8324   -1.2130   -0.0006 H   0  0  0  0  0  0  0  0  0  0  0  0
   -1.0126   -2.8800   -0.0006 H   0  0  0  0  0  0  0  0  0  0  0  0
  1  6  1  0  0  0  0
  2  9  3  0  0  0  0
  3  4  2  0  0  0  0
  3  5  1  0  0  0  0
  3  9  1  0  0  0  0
  4  6  1  0  0  0  0
  4 10  1  0  0  0  0
  5  7  2  0  0  0  0
  5 11  1  0  0  0  0
  6  8  2  0  0  0  0
  7  8  1  0  0  0  0
  7 13  1  0  0  0  0
  8 12  1  0  0  0  0
M  END
> <PUBCHEM_COMPOUND_CID>
13015

> <PUBCHEM_CONFORMER_RMSD>
0.4

> <PUBCHEM_CONFORMER_DIVERSEORDER>
1

> <PUBCHEM_MMFF94_PARTIAL_CHARGES>
13
1 -0.18
10 0.15
11 0.15
12 0.15
13 0.15
2 -0.56
3 0.07
4 -0.15
5 -0.15
6 0.18
7 -0.15
8 -0.15
9 0.48

> <PUBCHEM_EFFECTIVE_ROTOR_COUNT>
0

> <PUBCHEM_PHARMACOPHORE_FEATURES>
2
1 2 acceptor
6 3 4 5 6 7 8 rings

> <PUBCHEM_HEAVY_ATOM_COUNT>
9

> <PUBCHEM_ATOM_DEF_STEREO_COUNT>
0

> <PUBCHEM_ATOM_UDEF_STEREO_COUNT>
0

> <PUBCHEM_BOND_DEF_STEREO_COUNT>
0

> <PUBCHEM_BOND_UDEF_STEREO_COUNT>
0

> <PUBCHEM_ISOTOPIC_ATOM_COUNT>
0

> <PUBCHEM_COMPONENT_COUNT>
1

> <PUBCHEM_CACTVS_TAUTO_COUNT>
1

> <PUBCHEM_CONFORMER_ID>
000032D700000001

> <PUBCHEM_MMFF94_ENERGY>
15.2803

> <PUBCHEM_FEATURE_SELFOVERLAP>
10.148

> <PUBCHEM_SHAPE_FINGERPRINT>
12716758 59 18335419054305589714
13024252 1 12679199183913412910
13380535 76 18338802315887556991
14325111 11 18410575093553823776
16945 1 18338516309535745703
20653085 51 18341598313975122792
20871998 184 18117270359323168375
21040471 1 18410574019595656995
23235685 24 18410298042208948101
23402655 69 18191884507892393941
23552423 10 18272368655412370070
241688 4 16319495636076085971
2748010 2 18338789130348585887
369184 2 18261674762185993650
5084963 1 18042120960057073690
6333449 129 18335986389125312029

> <PUBCHEM_SHAPE_MULTIPOLES>
182.1
3.87
1.81
0.61
1.53
0.51
0
-2.26
0
-0.75
0
-0.04
0
0

> <PUBCHEM_SHAPE_SELFOVERLAP>
370.612

> <PUBCHEM_SHAPE_VOLUME>
104.7

> <PUBCHEM_COORDINATE_TYPE>
2
5
10

$$$$

