854083
  -OEChem-06241222472D

 44 46  0     0  0  0  0  0  0999 V2000
    6.7619   -0.3651    0.0000 O   0  0  0  0  0  0  0  0  0  0  0  0
    4.6783   -0.4264    0.0000 N   0  0  0  0  0  0  0  0  0  0  0  0
    4.6318    2.2189    0.0000 N   0  0  0  0  0  0  0  0  0  0  0  0
    6.7619   -2.0972    0.0000 N   0  0  0  0  0  0  0  0  0  0  0  0
    4.9889    0.5241    0.0000 C   0  0  0  0  0  0  0  0  0  0  0  0
    3.7320   -0.7312    0.0000 C   0  0  0  0  0  0  0  0  0  0  0  0
    5.2619   -1.2312    0.0000 C   0  0  0  0  0  0  0  0  0  0  0  0
    3.7320   -1.7312    0.0000 C   0  0  0  0  0  0  0  0  0  0  0  0
    4.3211    1.2684    0.0000 C   0  0  0  0  0  0  0  0  0  0  0  0
    4.6783   -2.0359    0.0000 C   0  0  0  0  0  0  0  0  0  0  0  0
    2.8660   -0.2312    0.0000 C   0  0  0  0  0  0  0  0  0  0  0  0
    2.8660   -2.2312    0.0000 C   0  0  0  0  0  0  0  0  0  0  0  0
    6.2619   -1.2312    0.0000 C   0  0  0  0  0  0  0  0  0  0  0  0
    2.0000   -0.7312    0.0000 C   0  0  0  0  0  0  0  0  0  0  0  0
    2.0000   -1.7312    0.0000 C   0  0  0  0  0  0  0  0  0  0  0  0
    3.9639    2.9632    0.0000 C   0  0  0  0  0  0  0  0  0  0  0  0
    5.6103    2.4251    0.0000 C   0  0  0  0  0  0  0  0  0  0  0  0
    7.7619   -2.0972    0.0000 C   0  0  0  0  0  0  0  0  0  0  0  0
    8.2619   -2.9632    0.0000 C   0  0  0  0  0  0  0  0  0  0  0  0
    8.2619   -1.2312    0.0000 C   0  0  0  0  0  0  0  0  0  0  0  0
    9.2619   -2.9632    0.0000 C   0  0  0  0  0  0  0  0  0  0  0  0
    9.2619   -1.2312    0.0000 C   0  0  0  0  0  0  0  0  0  0  0  0
    9.7619   -2.0972    0.0000 C   0  0  0  0  0  0  0  0  0  0  0  0
    5.5359    0.2321    0.0000 H   0  0  0  0  0  0  0  0  0  0  0  0
    5.3715    1.0120    0.0000 H   0  0  0  0  0  0  0  0  0  0  0  0
    3.7742    1.5604    0.0000 H   0  0  0  0  0  0  0  0  0  0  0  0
    3.9385    0.7805    0.0000 H   0  0  0  0  0  0  0  0  0  0  0  0
    4.8709   -2.6252    0.0000 H   0  0  0  0  0  0  0  0  0  0  0  0
    2.8660    0.3888    0.0000 H   0  0  0  0  0  0  0  0  0  0  0  0
    2.8660   -2.8512    0.0000 H   0  0  0  0  0  0  0  0  0  0  0  0
    1.4631   -0.4212    0.0000 H   0  0  0  0  0  0  0  0  0  0  0  0
    1.4631   -2.0412    0.0000 H   0  0  0  0  0  0  0  0  0  0  0  0
    4.4254    3.3773    0.0000 H   0  0  0  0  0  0  0  0  0  0  0  0
    5.7381    1.8185    0.0000 H   0  0  0  0  0  0  0  0  0  0  0  0
    6.2169    2.5530    0.0000 H   0  0  0  0  0  0  0  0  0  0  0  0
    5.4824    3.0318    0.0000 H   0  0  0  0  0  0  0  0  0  0  0  0
    3.5498    3.4247    0.0000 H   0  0  0  0  0  0  0  0  0  0  0  0
    3.5024    2.5492    0.0000 H   0  0  0  0  0  0  0  0  0  0  0  0
    6.4519   -2.6341    0.0000 H   0  0  0  0  0  0  0  0  0  0  0  0
    7.9519   -3.5002    0.0000 H   0  0  0  0  0  0  0  0  0  0  0  0
    7.9519   -0.6942    0.0000 H   0  0  0  0  0  0  0  0  0  0  0  0
    9.5719   -3.5002    0.0000 H   0  0  0  0  0  0  0  0  0  0  0  0
    9.5719   -0.6942    0.0000 H   0  0  0  0  0  0  0  0  0  0  0  0
   10.3819   -2.0972    0.0000 H   0  0  0  0  0  0  0  0  0  0  0  0
  1 13  2  0  0  0  0
  2  5  1  0  0  0  0
  2  6  1  0  0  0  0
  2  7  1  0  0  0  0
  3  9  1  0  0  0  0
  3 16  1  0  0  0  0
  3 17  1  0  0  0  0
  4 13  1  0  0  0  0
  4 18  1  0  0  0  0
  4 39  1  0  0  0  0
  5  9  1  0  0  0  0
  5 24  1  0  0  0  0
  5 25  1  0  0  0  0
  6  8  1  0  0  0  0
  6 11  2  0  0  0  0
  7 10  2  0  0  0  0
  7 13  1  0  0  0  0
  8 10  1  0  0  0  0
  8 12  2  0  0  0  0
  9 26  1  0  0  0  0
  9 27  1  0  0  0  0
 10 28  1  0  0  0  0
 11 14  1  0  0  0  0
 11 29  1  0  0  0  0
 12 15  1  0  0  0  0
 12 30  1  0  0  0  0
 14 15  2  0  0  0  0
 14 31  1  0  0  0  0
 15 32  1  0  0  0  0
 16 33  1  0  0  0  0
 16 37  1  0  0  0  0
 16 38  1  0  0  0  0
 17 34  1  0  0  0  0
 17 35  1  0  0  0  0
 17 36  1  0  0  0  0
 18 19  2  0  0  0  0
 18 20  1  0  0  0  0
 19 21  1  0  0  0  0
 19 40  1  0  0  0  0
 20 22  2  0  0  0  0
 20 41  1  0  0  0  0
 21 23  2  0  0  0  0
 21 42  1  0  0  0  0
 22 23  1  0  0  0  0
 22 43  1  0  0  0  0
 23 44  1  0  0  0  0
M  END
> <PUBCHEM_COMPOUND_CID>
854083

> <PUBCHEM_COMPOUND_CANONICALIZED>
1

> <PUBCHEM_CACTVS_COMPLEXITY>
392

> <PUBCHEM_CACTVS_HBOND_ACCEPTOR>
2

> <PUBCHEM_CACTVS_HBOND_DONOR>
1

> <PUBCHEM_CACTVS_ROTATABLE_BOND>
5

> <PUBCHEM_CACTVS_SUBSKEYS>
AAADceB7IAAAAAAAAAAAAAAAAAAAAWAAAAAwYAAAAAAAAFgB9AAAHgAQAAAADAjBngQywPPMEACoAyVyVACCgCAnAiAI2CG4ZNgIYPLAlbGUIQhglADIyYcYiYCeAAAAAAACAAAAAAAAAAQAAAAAAAAAAA==

> <PUBCHEM_IUPAC_OPENEYE_NAME>
1-[2-(dimethylamino)ethyl]-N-phenyl-indole-2-carboxamide

> <PUBCHEM_IUPAC_CAS_NAME>
1-[2-(dimethylamino)ethyl]-N-phenyl-2-indolecarboxamide

> <PUBCHEM_IUPAC_NAME>
1-[2-(dimethylamino)ethyl]-N-phenylindole-2-carboxamide

> <PUBCHEM_IUPAC_SYSTEMATIC_NAME>
1-[2-(dimethylamino)ethyl]-N-phenyl-indole-2-carboxamide

> <PUBCHEM_IUPAC_TRADITIONAL_NAME>
1-[2-(dimethylamino)ethyl]-N-phenyl-indole-2-carboxamide

> <PUBCHEM_IUPAC_INCHI>
InChI=1S/C19H21N3O/c1-21(2)12-13-22-17-11-7-6-8-15(17)14-18(22)19(23)20-16-9-4-3-5-10-16/h3-11,14H,12-13H2,1-2H3,(H,20,23)

> <PUBCHEM_IUPAC_INCHIKEY>
JRXNIBONLVRORU-UHFFFAOYSA-N

> <PUBCHEM_XLOGP3_AA>
3.1

> <PUBCHEM_EXACT_MASS>
307.168462

> <PUBCHEM_MOLECULAR_FORMULA>
C19H21N3O

> <PUBCHEM_MOLECULAR_WEIGHT>
307.38954

> <PUBCHEM_OPENEYE_CAN_SMILES>
CN(C)CCN1C2=CC=CC=C2C=C1C(=O)NC3=CC=CC=C3

> <PUBCHEM_OPENEYE_ISO_SMILES>
CN(C)CCN1C2=CC=CC=C2C=C1C(=O)NC3=CC=CC=C3

> <PUBCHEM_CACTVS_TPSA>
37.3

> <PUBCHEM_MONOISOTOPIC_WEIGHT>
307.168462

> <PUBCHEM_TOTAL_CHARGE>
0

> <PUBCHEM_HEAVY_ATOM_COUNT>
23

> <PUBCHEM_ATOM_DEF_STEREO_COUNT>
0

> <PUBCHEM_ATOM_UDEF_STEREO_COUNT>
0

> <PUBCHEM_BOND_DEF_STEREO_COUNT>
0

> <PUBCHEM_BOND_UDEF_STEREO_COUNT>
0

> <PUBCHEM_ISOTOPIC_ATOM_COUNT>
0

> <PUBCHEM_COMPONENT_COUNT>
1

> <PUBCHEM_CACTVS_TAUTO_COUNT>
2

> <PUBCHEM_COORDINATE_TYPE>
1
5
255

> <PUBCHEM_BONDANNOTATIONS>
11  14  8
12  15  8
14  15  8
18  19  8
18  20  8
19  21  8
2  6  8
2  7  8
20  22  8
21  23  8
22  23  8
6  11  8
6  8  8
7  10  8
8  10  8
8  12  8

$$$$

