47205510
  -OEChem-06241222593D

 39 40  0     1  0  0  0  0  0999 V2000
    1.1815    1.2276   -0.4101 S   0  0  0  0  0  0  0  0  0  0  0  0
   -1.6900   -2.0643    1.2813 O   0  0  0  0  0  0  0  0  0  0  0  0
   -3.8324   -0.0233   -0.5304 N   0  0  0  0  0  0  0  0  0  0  0  0
   -0.9143   -0.3372   -0.1245 N   0  0  0  0  0  0  0  0  0  0  0  0
    2.1678    0.0383    1.6340 N   0  0  0  0  0  0  0  0  0  0  0  0
    0.9328   -0.5482    1.4207 N   0  0  0  0  0  0  0  0  0  0  0  0
   -4.9238    1.7494    0.2428 N   0  0  0  0  0  0  0  0  0  0  0  0
    4.9647    0.9856    0.6023 C   0  0  0  0  0  0  0  0  0  0  0  0
    5.0514    0.1605   -0.6853 C   0  0  0  0  0  0  0  0  0  0  0  0
    3.6774    1.8119    0.6996 C   0  0  0  0  0  0  0  0  0  0  0  0
    6.3610   -0.6260   -0.7515 C   0  0  0  0  0  0  0  0  0  0  0  0
   -3.1154   -1.3615   -0.5368 C   0  0  1  0  0  0  0  0  0  0  0  0
    2.4210    0.9792    0.7495 C   0  0  0  0  0  0  0  0  0  0  0  0
   -1.8461   -1.3143    0.3220 C   0  0  0  0  0  0  0  0  0  0  0  0
   -4.0555   -2.4840   -0.0895 C   0  0  0  0  0  0  0  0  0  0  0  0
    6.4705   -1.4171   -2.0453 C   0  0  0  0  0  0  0  0  0  0  0  0
    0.3145   -0.0203    0.3859 C   0  0  0  0  0  0  0  0  0  0  0  0
   -4.0610    0.7772   -1.6140 C   0  0  0  0  0  0  0  0  0  0  0  0
   -4.3682    0.6015    0.5612 C   0  0  0  0  0  0  0  0  0  0  0  0
   -4.7358    1.8650   -1.1119 C   0  0  0  0  0  0  0  0  0  0  0  0
    5.0386    0.3164    1.4688 H   0  0  0  0  0  0  0  0  0  0  0  0
    5.8216    1.6685    0.6544 H   0  0  0  0  0  0  0  0  0  0  0  0
    4.2108   -0.5405   -0.7446 H   0  0  0  0  0  0  0  0  0  0  0  0
    4.9782    0.8286   -1.5521 H   0  0  0  0  0  0  0  0  0  0  0  0
    3.6430    2.5230   -0.1350 H   0  0  0  0  0  0  0  0  0  0  0  0
    3.7153    2.4124    1.6171 H   0  0  0  0  0  0  0  0  0  0  0  0
    6.4252   -1.3144    0.0992 H   0  0  0  0  0  0  0  0  0  0  0  0
    7.2124    0.0606   -0.6788 H   0  0  0  0  0  0  0  0  0  0  0  0
   -2.8199   -1.5244   -1.5808 H   0  0  0  0  0  0  0  0  0  0  0  0
   -3.5615   -3.4581   -0.1716 H   0  0  0  0  0  0  0  0  0  0  0  0
   -4.9573   -2.5063   -0.7108 H   0  0  0  0  0  0  0  0  0  0  0  0
   -4.3713   -2.3583    0.9521 H   0  0  0  0  0  0  0  0  0  0  0  0
    6.4431   -0.7529   -2.9150 H   0  0  0  0  0  0  0  0  0  0  0  0
    7.4134   -1.9723   -2.0713 H   0  0  0  0  0  0  0  0  0  0  0  0
    5.6501   -2.1363   -2.1358 H   0  0  0  0  0  0  0  0  0  0  0  0
   -1.1753    0.2094   -0.9414 H   0  0  0  0  0  0  0  0  0  0  0  0
   -3.7365    0.5159   -2.6113 H   0  0  0  0  0  0  0  0  0  0  0  0
   -4.3229    0.1788    1.5555 H   0  0  0  0  0  0  0  0  0  0  0  0
   -5.0955    2.7256   -1.6568 H   0  0  0  0  0  0  0  0  0  0  0  0
  1 13  1  0  0  0  0
  1 17  1  0  0  0  0
  2 14  2  0  0  0  0
  3 12  1  0  0  0  0
  3 18  1  0  0  0  0
  3 19  1  0  0  0  0
  4 14  1  0  0  0  0
  4 17  1  0  0  0  0
  4 36  1  0  0  0  0
  5  6  1  0  0  0  0
  5 13  2  0  0  0  0
  6 17  2  0  0  0  0
  7 19  2  0  0  0  0
  7 20  1  0  0  0  0
  8  9  1  0  0  0  0
  8 10  1  0  0  0  0
  8 21  1  0  0  0  0
  8 22  1  0  0  0  0
  9 11  1  0  0  0  0
  9 23  1  0  0  0  0
  9 24  1  0  0  0  0
 10 13  1  0  0  0  0
 10 25  1  0  0  0  0
 10 26  1  0  0  0  0
 11 16  1  0  0  0  0
 11 27  1  0  0  0  0
 11 28  1  0  0  0  0
 12 14  1  0  0  0  0
 12 15  1  0  0  0  0
 12 29  1  0  0  0  0
 15 30  1  0  0  0  0
 15 31  1  0  0  0  0
 15 32  1  0  0  0  0
 16 33  1  0  0  0  0
 16 34  1  0  0  0  0
 16 35  1  0  0  0  0
 18 20  2  0  0  0  0
 18 37  1  0  0  0  0
 19 38  1  0  0  0  0
 20 39  1  0  0  0  0
M  END
> <PUBCHEM_COMPOUND_CID>
47205510

> <PUBCHEM_CONFORMER_RMSD>
1

> <PUBCHEM_CONFORMER_DIVERSEORDER>
1
149
13
140
136
100
92
123
155
30
119
6
134
159
164
151
143
161
148
79
103
147
47
67
152
167
75
63
68
94
138
80
84
141
22
46
35
64
28
145
144
76
89
36
116
154
23
88
74
102
16
165
7
133
135
37
65
38
108
93
139
59
124
69
132
77
70
44
168
24
60
114
128
85
142
5
72
156
26
42
137
96
121
170
90
27
104
112
122
162
43
106
86
8
98
115
111
40
9
166
160
73
49
109
127
81
110
82
150
3
146
118
18
45
95
52
62
78
91
99
39
58
53
55
61
163
10
17
158
4
51
41
131
120
25
56
29
54
169
71
129
87
113
50
48
21
97
105
83
2
107
11
20
126
31
130
125
14
12
157
153
117
66
15
32
57
19
33
101
34

> <PUBCHEM_MMFF94_PARTIAL_CHARGES>
19
1 -0.08
10 0.18
12 0.32
13 0.2
14 0.57
17 0.44
18 -0.3
19 0.04
2 -0.57
20 0.08
3 0.05
36 0.37
37 0.15
38 0.15
39 0.15
4 -0.49
5 -0.34
6 -0.34
7 -0.57

> <PUBCHEM_EFFECTIVE_ROTOR_COUNT>
8

> <PUBCHEM_PHARMACOPHORE_FEATURES>
8
1 16 hydrophobe
1 2 acceptor
1 4 donor
1 5 acceptor
3 3 7 19 cation
4 8 9 10 11 hydrophobe
5 1 5 6 13 17 rings
5 3 7 18 19 20 rings

> <PUBCHEM_HEAVY_ATOM_COUNT>
20

> <PUBCHEM_ATOM_DEF_STEREO_COUNT>
0

> <PUBCHEM_ATOM_UDEF_STEREO_COUNT>
1

> <PUBCHEM_BOND_DEF_STEREO_COUNT>
0

> <PUBCHEM_BOND_UDEF_STEREO_COUNT>
0

> <PUBCHEM_ISOTOPIC_ATOM_COUNT>
0

> <PUBCHEM_COMPONENT_COUNT>
1

> <PUBCHEM_CACTVS_TAUTO_COUNT>
3

> <PUBCHEM_CONFORMER_ID>
02D04C8600000001

> <PUBCHEM_MMFF94_ENERGY>
18.9133

> <PUBCHEM_FEATURE_SELFOVERLAP>
40.594

> <PUBCHEM_SHAPE_FINGERPRINT>
10670039 82 17917434254282332260
11056379 131 18270686346982827635
11545043 162 18334295323067165778
11796584 16 18260550022374436822
11858739 19 17676485069190895996
12390115 104 18272371997133939577
12596602 18 13542465392522979157
12616971 3 15410908336149744880
12670543 26 18409728482864977502
12954195 1 18263921210697859480
13237642 15 10231758890116631804
13955234 65 12750972035597080720
14251752 14 18202283654222875662
14251757 5 18059851757781591044
14251764 75 13468962955293382118
14573314 32 18333733494437812268
146900 427 13758071896748020268
15052358 14 18409443726470157310
15183329 4 18410857694080900398
15475509 8 18130215064979298420
15788980 27 16950281775975295188
1601671 61 17918000477311971484
16760501 71 10519403201286751934
17349148 13 14273734010762763288
17834072 8 18408041823169165068
17844677 252 18269836419734911208
17857418 61 14923944561571142350
200 152 5112008365478352417
20567600 234 8862642609232598606
20567600 75 18259983747825665196
20621476 91 7132430194904151926
20645477 70 18041275475077225438
21279426 13 18334856134612040398
21315764 119 18059283375391314670
22061861 79 18040150708783085076
22079108 93 10952043434577393228
2215653 11 18259703419805669654
23402539 116 5184073660139285171
23559900 14 18187368714377843352
32948 21 18411981352099346980
3545911 37 18410577279992773433
4325135 7 11671776061832083832
4990 188 18339928117468873544
5207 123 18040990774664374348
531348 171 17167864205395512621
633830 44 18058737892752848316
6913067 236 5833992724413086760
8988823 20 15647061456611796080
90127 26 18200873963893267648

> <PUBCHEM_SHAPE_MULTIPOLES>
384.67
15.43
2.16
1.47
13.82
0.55
0.24
0.41
6.79
-1.7
0.08
0.8
0.19
2.45

> <PUBCHEM_SHAPE_SELFOVERLAP>
768.544

> <PUBCHEM_SHAPE_VOLUME>
229.7

> <PUBCHEM_COORDINATE_TYPE>
2
5
10

$$$$

