9304
  -OEChem-06261203353D

 18 18  0     0  0  0  0  0  0999 V2000
   -2.2870    3.0476    0.1949 I   0  0  0  0  0  0  0  0  0  0  0  0
   -2.1836   -3.0950    0.1719 I   0  0  0  0  0  0  0  0  0  0  0  0
    4.2481   -0.0217    0.0650 O   0  0  0  0  0  0  0  0  0  0  0  0
   -3.2484   -0.0415    0.4023 O   0  0  0  0  0  0  0  0  0  0  0  0
    2.4235    0.0102    1.4194 O   0  0  0  0  0  0  0  0  0  0  0  0
    0.6844    0.0285   -0.6355 N   0  0  0  0  0  0  0  0  0  0  0  0
    2.1050    0.0549   -0.9694 C   0  0  0  0  0  0  0  0  0  0  0  0
   -0.0223    1.2037   -0.4301 C   0  0  0  0  0  0  0  0  0  0  0  0
    0.0178   -1.1711   -0.4388 C   0  0  0  0  0  0  0  0  0  0  0  0
   -1.3169    1.2730   -0.0844 C   0  0  0  0  0  0  0  0  0  0  0  0
   -1.2738   -1.2866   -0.0940 C   0  0  0  0  0  0  0  0  0  0  0  0
   -2.0586   -0.0203    0.1018 C   0  0  0  0  0  0  0  0  0  0  0  0
    2.9117    0.0182    0.2968 C   0  0  0  0  0  0  0  0  0  0  0  0
    2.3616    0.9636   -1.5261 H   0  0  0  0  0  0  0  0  0  0  0  0
    2.3733   -0.8106   -1.5864 H   0  0  0  0  0  0  0  0  0  0  0  0
    0.5783    2.0957   -0.5778 H   0  0  0  0  0  0  0  0  0  0  0  0
    0.6485   -2.0409   -0.5935 H   0  0  0  0  0  0  0  0  0  0  0  0
    4.7634   -0.0528    0.8991 H   0  0  0  0  0  0  0  0  0  0  0  0
  1 10  1  0  0  0  0
  2 11  1  0  0  0  0
  3 13  1  0  0  0  0
  3 18  1  0  0  0  0
  4 12  2  0  0  0  0
  5 13  2  0  0  0  0
  6  7  1  0  0  0  0
  6  8  1  0  0  0  0
  6  9  1  0  0  0  0
  7 13  1  0  0  0  0
  7 14  1  0  0  0  0
  7 15  1  0  0  0  0
  8 10  2  0  0  0  0
  8 16  1  0  0  0  0
  9 11  2  0  0  0  0
  9 17  1  0  0  0  0
 10 12  1  0  0  0  0
 11 12  1  0  0  0  0
M  END
> <PUBCHEM_COMPOUND_CID>
9304

> <PUBCHEM_CONFORMER_RMSD>
0.6

> <PUBCHEM_CONFORMER_DIVERSEORDER>
1
3
2

> <PUBCHEM_MMFF94_PARTIAL_CHARGES>
16
1 -0.09
10 0.1
11 0.1
12 0.54
13 0.66
16 0.15
17 0.15
18 0.5
2 -0.09
3 -0.65
4 -0.57
5 -0.57
6 -0.57
7 0.43
8 -0.05
9 -0.05

> <PUBCHEM_EFFECTIVE_ROTOR_COUNT>
2

> <PUBCHEM_PHARMACOPHORE_FEATURES>
8
1 1 hydrophobe
1 2 hydrophobe
1 3 acceptor
1 4 acceptor
1 5 acceptor
1 6 cation
3 3 5 13 anion
6 6 8 9 10 11 12 rings

> <PUBCHEM_HEAVY_ATOM_COUNT>
13

> <PUBCHEM_ATOM_DEF_STEREO_COUNT>
0

> <PUBCHEM_ATOM_UDEF_STEREO_COUNT>
0

> <PUBCHEM_BOND_DEF_STEREO_COUNT>
0

> <PUBCHEM_BOND_UDEF_STEREO_COUNT>
0

> <PUBCHEM_ISOTOPIC_ATOM_COUNT>
0

> <PUBCHEM_COMPONENT_COUNT>
1

> <PUBCHEM_CACTVS_TAUTO_COUNT>
1

> <PUBCHEM_CONFORMER_ID>
0000245800000001

> <PUBCHEM_MMFF94_ENERGY>
24.8795

> <PUBCHEM_FEATURE_SELFOVERLAP>
40.652

> <PUBCHEM_SHAPE_FINGERPRINT>
11357001 24 18412822456671775163
12500047 106 18337960111613681648
13140716 1 18266169527181616043
13380535 76 18124032592542430109
13538477 17 18200870682390287382
14817 1 4703572054995035617
15042514 8 18340196415333523819
15219456 202 17969498393452600390
16945 1 18410565189390738527
19021347 4 18267019642874888651
20510252 161 18262233425646360057
20671657 1 17399792095861145901
20871998 184 18188486869889140527
21524375 3 17828212317383022605
21650355 55 18266750090416343955
22112679 90 18122327005015038183
22445834 79 17917156086614802202
2334 1 17905601108475513135
23402539 116 18334301955203487815
23419403 2 17317632897830882931
23598294 1 18270405004474532512
257057 1 17978233759995753855
2748010 2 18051675939910193119
305870 269 18051973915882229433
3071541 12 17328299663568791165
3071541 236 18341901822186621069
3091708 16 9417578213529314411
7364860 26 17328022578106523351
81228 2 18336256878002798039
84936 182 17324651470966408889

> <PUBCHEM_SHAPE_MULTIPOLES>
268.82
5.26
3.39
0.9
5.52
0.24
-0.1
-0.23
-0.94
-4.78
-0.25
0.37
-0.01
-0.01

> <PUBCHEM_SHAPE_SELFOVERLAP>
512.025

> <PUBCHEM_SHAPE_VOLUME>
170.4

> <PUBCHEM_COORDINATE_TYPE>
2
5
10

$$$$

