17396347
  -OEChem-06241222563D

 42 43  0     0  0  0  0  0  0999 V2000
    4.2507    0.3797   -1.8290 Cl  0  0  0  0  0  0  0  0  0  0  0  0
    2.8248   -3.9555    0.3438 F   0  0  0  0  0  0  0  0  0  0  0  0
   -0.6901    1.4433    1.0487 O   0  0  0  0  0  0  0  0  0  0  0  0
    3.4434    2.2100    1.1009 O   0  0  0  0  0  0  0  0  0  0  0  0
    1.5340    2.2678   -0.2465 N   0  0  0  0  0  0  0  0  0  0  0  0
   -1.5952    0.4623   -0.8846 N   0  0  0  0  0  0  0  0  0  0  0  0
   -2.8320   -0.0553   -0.4317 C   0  0  0  0  0  0  0  0  0  0  0  0
    0.5392    1.5279   -1.0199 C   0  0  0  0  0  0  0  0  0  0  0  0
   -3.7926    0.8023    0.1044 C   0  0  0  0  0  0  0  0  0  0  0  0
   -3.0907   -1.4230   -0.5220 C   0  0  0  0  0  0  0  0  0  0  0  0
   -0.6411    1.1529   -0.1422 C   0  0  0  0  0  0  0  0  0  0  0  0
   -5.0119    0.2922    0.5502 C   0  0  0  0  0  0  0  0  0  0  0  0
   -4.3101   -1.9331   -0.0762 C   0  0  0  0  0  0  0  0  0  0  0  0
    2.5809    1.6248    0.4356 C   0  0  0  0  0  0  0  0  0  0  0  0
   -5.2706   -1.0755    0.4599 C   0  0  0  0  0  0  0  0  0  0  0  0
   -3.5449    2.2720    0.2149 C   0  0  0  0  0  0  0  0  0  0  0  0
   -2.0818   -2.3671   -1.0914 C   0  0  0  0  0  0  0  0  0  0  0  0
    2.6658    0.1703    0.3818 C   0  0  0  0  0  0  0  0  0  0  0  0
    1.3703    3.7146   -0.2285 C   0  0  0  0  0  0  0  0  0  0  0  0
    3.3976   -0.4904   -0.6050 C   0  0  0  0  0  0  0  0  0  0  0  0
    1.9879   -0.5627    1.3557 C   0  0  0  0  0  0  0  0  0  0  0  0
    3.4514   -1.8841   -0.6179 C   0  0  0  0  0  0  0  0  0  0  0  0
    2.0415   -1.9564    1.3429 C   0  0  0  0  0  0  0  0  0  0  0  0
    2.7733   -2.6171    0.3561 C   0  0  0  0  0  0  0  0  0  0  0  0
    0.1915    2.1547   -1.8492 H   0  0  0  0  0  0  0  0  0  0  0  0
    0.9675    0.6188   -1.4494 H   0  0  0  0  0  0  0  0  0  0  0  0
   -1.2339    0.0090   -1.7215 H   0  0  0  0  0  0  0  0  0  0  0  0
   -5.7693    0.9473    0.9727 H   0  0  0  0  0  0  0  0  0  0  0  0
   -4.5287   -2.9958   -0.1399 H   0  0  0  0  0  0  0  0  0  0  0  0
   -6.2199   -1.4727    0.8075 H   0  0  0  0  0  0  0  0  0  0  0  0
   -3.0149    2.5060    1.1424 H   0  0  0  0  0  0  0  0  0  0  0  0
   -2.9869    2.6633   -0.6417 H   0  0  0  0  0  0  0  0  0  0  0  0
   -4.4924    2.8237    0.2296 H   0  0  0  0  0  0  0  0  0  0  0  0
   -1.9444   -2.1791   -2.1613 H   0  0  0  0  0  0  0  0  0  0  0  0
   -1.1201   -2.2630   -0.5777 H   0  0  0  0  0  0  0  0  0  0  0  0
   -2.3926   -3.4115   -0.9776 H   0  0  0  0  0  0  0  0  0  0  0  0
    0.3777    3.9607    0.1587 H   0  0  0  0  0  0  0  0  0  0  0  0
    2.1272    4.1855    0.4039 H   0  0  0  0  0  0  0  0  0  0  0  0
    1.4739    4.0945   -1.2490 H   0  0  0  0  0  0  0  0  0  0  0  0
    1.4198   -0.0622    2.1354 H   0  0  0  0  0  0  0  0  0  0  0  0
    4.0167   -2.4146   -1.3797 H   0  0  0  0  0  0  0  0  0  0  0  0
    1.5145   -2.5275    2.1015 H   0  0  0  0  0  0  0  0  0  0  0  0
  1 20  1  0  0  0  0
  2 24  1  0  0  0  0
  3 11  2  0  0  0  0
  4 14  2  0  0  0  0
  5  8  1  0  0  0  0
  5 14  1  0  0  0  0
  5 19  1  0  0  0  0
  6  7  1  0  0  0  0
  6 11  1  0  0  0  0
  6 27  1  0  0  0  0
  7  9  2  0  0  0  0
  7 10  1  0  0  0  0
  8 11  1  0  0  0  0
  8 25  1  0  0  0  0
  8 26  1  0  0  0  0
  9 12  1  0  0  0  0
  9 16  1  0  0  0  0
 10 13  2  0  0  0  0
 10 17  1  0  0  0  0
 12 15  2  0  0  0  0
 12 28  1  0  0  0  0
 13 15  1  0  0  0  0
 13 29  1  0  0  0  0
 14 18  1  0  0  0  0
 15 30  1  0  0  0  0
 16 31  1  0  0  0  0
 16 32  1  0  0  0  0
 16 33  1  0  0  0  0
 17 34  1  0  0  0  0
 17 35  1  0  0  0  0
 17 36  1  0  0  0  0
 18 20  2  0  0  0  0
 18 21  1  0  0  0  0
 19 37  1  0  0  0  0
 19 38  1  0  0  0  0
 19 39  1  0  0  0  0
 20 22  1  0  0  0  0
 21 23  2  0  0  0  0
 21 40  1  0  0  0  0
 22 24  2  0  0  0  0
 22 41  1  0  0  0  0
 23 24  1  0  0  0  0
 23 42  1  0  0  0  0
M  END
> <PUBCHEM_COMPOUND_CID>
17396347

> <PUBCHEM_CONFORMER_RMSD>
0.8

> <PUBCHEM_CONFORMER_DIVERSEORDER>
1
129
98
158
102
109
119
38
159
54
53
18
114
94
110
108
10
139
115
87
101
91
80
131
58
33
51
79
30
138
62
48
142
127
96
122
20
121
103
75
116
32
81
107
105
28
47
90
128
22
137
19
143
29
84
25
86
27
89
133
42
156
39
126
44
8
41
145
140
71
14
60
97
4
134
52
59
95
40
3
37
45
6
93
141
21
92
31
46
120
151
9
100
2
15
130
49
77
124
154
123
136
36
12
5
135
7
111
146
23
34
117
149
65
88
64
66
157
85
144
147
26
118
73
82
61
16
69
104
24
35
106
17
50
152
72
113
148
56
74
153
70
150
76
11
155
125
68
13
43
57
78
67
83
112
55
63
132
99

> <PUBCHEM_MMFF94_PARTIAL_CHARGES>
31
1 -0.18
10 -0.14
11 0.57
12 -0.15
13 -0.15
14 0.54
15 -0.15
16 0.14
17 0.14
18 0.09
19 0.3
2 -0.19
20 0.18
21 -0.15
22 -0.15
23 -0.15
24 0.19
27 0.37
28 0.15
29 0.15
3 -0.57
30 0.15
4 -0.57
40 0.15
41 0.15
42 0.15
5 -0.66
6 -0.55
7 0.12
8 0.36
9 -0.14

> <PUBCHEM_EFFECTIVE_ROTOR_COUNT>
6

> <PUBCHEM_PHARMACOPHORE_FEATURES>
5
1 3 acceptor
1 4 acceptor
1 6 donor
6 18 20 21 22 23 24 rings
6 7 9 10 12 13 15 rings

> <PUBCHEM_HEAVY_ATOM_COUNT>
24

> <PUBCHEM_ATOM_DEF_STEREO_COUNT>
0

> <PUBCHEM_ATOM_UDEF_STEREO_COUNT>
0

> <PUBCHEM_BOND_DEF_STEREO_COUNT>
0

> <PUBCHEM_BOND_UDEF_STEREO_COUNT>
0

> <PUBCHEM_ISOTOPIC_ATOM_COUNT>
0

> <PUBCHEM_COMPONENT_COUNT>
1

> <PUBCHEM_CACTVS_TAUTO_COUNT>
2

> <PUBCHEM_CONFORMER_ID>
0109727B00000001

> <PUBCHEM_MMFF94_ENERGY>
84.4308

> <PUBCHEM_FEATURE_SELFOVERLAP>
25.371

> <PUBCHEM_SHAPE_FINGERPRINT>
10616163 171 18192432970251056439
12107183 9 18119803875291057801
12553582 1 18339089275474129918
12788726 201 17749941297063087753
13224815 77 17632582655903548915
13533116 47 18335424526600307511
13583140 156 17896053065565029601
14178342 30 18337970999245416768
14617045 38 18340195324179507719
14863182 85 18343022147553091060
14866123 147 17400644221483081945
15537594 2 18340757183432716819
15635459 17 18272369745832923051
15664445 248 18339066130338886604
16110190 28 18263654020698063946
17492 54 17487876957739216132
17492 89 18410857642568218955
17818456 19 18114736144620808537
1813 80 17489869323973885093
20291156 8 18339082691231164707
20442098 301 18262246529570214663
20775530 9 18196660819930078686
21033648 29 16081653412593014185
21421861 104 18410857629239900353
2255824 54 18200030612573337492
23379529 103 17975689807896269334
23559900 14 18040991834930881501
238 59 18058720308972141824
239999 70 18188202109689508340
3117164 225 18265883822147955121
314173 41 18410287029944183628
3323516 105 18272932713103084187
3421961 26 18410296942902782538
3737641 26 18340760567756163446
6823239 73 18186512203214457654
7097593 13 18408608032997729701
9709674 26 18341894026858084267

> <PUBCHEM_SHAPE_MULTIPOLES>
466.8
10
3.8
1.22
8.52
0.22
-0.08
2.81
-0.19
-2.51
0.25
-0.99
0.13
-0.61

> <PUBCHEM_SHAPE_SELFOVERLAP>
982.99

> <PUBCHEM_SHAPE_VOLUME>
263.9

> <PUBCHEM_COORDINATE_TYPE>
2
5
10

$$$$

