8100
  -OEChem-06261202353D

 17 16  0     0  0  0  0  0  0999 V2000
   -4.0996   -0.5793   -0.0141 Br  0  0  0  0  0  0  0  0  0  0  0  0
    4.1144   -0.5781    0.0045 Br  0  0  0  0  0  0  0  0  0  0  0  0
   -0.0126    0.5874   -0.0129 C   0  0  0  0  0  0  0  0  0  0  0  0
   -1.2688   -0.2864    0.0033 C   0  0  0  0  0  0  0  0  0  0  0  0
    1.2584   -0.2686    0.0097 C   0  0  0  0  0  0  0  0  0  0  0  0
   -2.5261    0.5663    0.0215 C   0  0  0  0  0  0  0  0  0  0  0  0
    2.5343    0.5587   -0.0119 C   0  0  0  0  0  0  0  0  0  0  0  0
   -0.0135    1.2191   -0.9094 H   0  0  0  0  0  0  0  0  0  0  0  0
   -0.0161    1.2565    0.8560 H   0  0  0  0  0  0  0  0  0  0  0  0
   -1.2694   -0.9402   -0.8780 H   0  0  0  0  0  0  0  0  0  0  0  0
   -1.2505   -0.9421    0.8829 H   0  0  0  0  0  0  0  0  0  0  0  0
    1.2494   -0.9488   -0.8517 H   0  0  0  0  0  0  0  0  0  0  0  0
    1.2499   -0.9038    0.9048 H   0  0  0  0  0  0  0  0  0  0  0  0
   -2.5939    1.2147   -0.8563 H   0  0  0  0  0  0  0  0  0  0  0  0
   -2.5981    1.1710    0.9295 H   0  0  0  0  0  0  0  0  0  0  0  0
    2.6095    1.2061    0.8663 H   0  0  0  0  0  0  0  0  0  0  0  0
    2.6029    1.1696   -0.9164 H   0  0  0  0  0  0  0  0  0  0  0  0
  1  6  1  0  0  0  0
  2  7  1  0  0  0  0
  3  4  1  0  0  0  0
  3  5  1  0  0  0  0
  3  8  1  0  0  0  0
  3  9  1  0  0  0  0
  4  6  1  0  0  0  0
  4 10  1  0  0  0  0
  4 11  1  0  0  0  0
  5  7  1  0  0  0  0
  5 12  1  0  0  0  0
  5 13  1  0  0  0  0
  6 14  1  0  0  0  0
  6 15  1  0  0  0  0
  7 16  1  0  0  0  0
  7 17  1  0  0  0  0
M  END
> <PUBCHEM_COMPOUND_CID>
8100

> <PUBCHEM_CONFORMER_RMSD>
0.6

> <PUBCHEM_CONFORMER_DIVERSEORDER>
1
18
13
15
21
5
20
17
3
12
11
7
6
8
4
10
19
2
14
16
9

> <PUBCHEM_MMFF94_PARTIAL_CHARGES>
4
1 -0.23
2 -0.23
6 0.23
7 0.23

> <PUBCHEM_EFFECTIVE_ROTOR_COUNT>
4

> <PUBCHEM_PHARMACOPHORE_FEATURES>
2
1 1 hydrophobe
1 2 hydrophobe

> <PUBCHEM_HEAVY_ATOM_COUNT>
7

> <PUBCHEM_ATOM_DEF_STEREO_COUNT>
0

> <PUBCHEM_ATOM_UDEF_STEREO_COUNT>
0

> <PUBCHEM_BOND_DEF_STEREO_COUNT>
0

> <PUBCHEM_BOND_UDEF_STEREO_COUNT>
0

> <PUBCHEM_ISOTOPIC_ATOM_COUNT>
0

> <PUBCHEM_COMPONENT_COUNT>
1

> <PUBCHEM_CACTVS_TAUTO_COUNT>
1

> <PUBCHEM_CONFORMER_ID>
00001FA400000001

> <PUBCHEM_MMFF94_ENERGY>
0.3393

> <PUBCHEM_FEATURE_SELFOVERLAP>
10.149

> <PUBCHEM_SHAPE_FINGERPRINT>
11062470 55 9439404631251874919
14325111 11 18410573989446444417
177051 138 18408040727905051214
17834076 25 13758076303152084239
18342897 14 8142085364118055766
20211469 26 18341895190641071475
20719005 15 18410573985156797346
21293036 1 14836122156560079350
5460574 1 9295291638194509601

> <PUBCHEM_SHAPE_MULTIPOLES>
155.94
8.5
0.92
0.66
0.13
0.03
0
2.16
0.01
0
0
0
0.02
-0.01

> <PUBCHEM_SHAPE_SELFOVERLAP>
245.057

> <PUBCHEM_SHAPE_VOLUME>
112.1

> <PUBCHEM_COORDINATE_TYPE>
2
5
10

$$$$

