3521
  -OEChem-06251223283D

 30 29  0     0  0  0  0  0  0999 V2000
   -1.0245    0.0927   -1.5458 S   0  0  0  0  0  0  0  0  0  0  0  0
    1.0253   -0.0616   -1.5444 S   0  0  0  0  0  0  0  0  0  0  0  0
   -3.4661    0.1062    0.3095 N   0  0  0  0  0  0  0  0  0  0  0  0
    3.4675   -0.1174    0.3099 N   0  0  0  0  0  0  0  0  0  0  0  0
   -5.2728    1.4464    0.8898 N   0  0  0  0  0  0  0  0  0  0  0  0
   -5.7272   -0.7044    0.2879 N   0  0  0  0  0  0  0  0  0  0  0  0
    5.2687   -1.4619    0.8693 N   0  0  0  0  0  0  0  0  0  0  0  0
    5.7276    0.6963    0.2979 N   0  0  0  0  0  0  0  0  0  0  0  0
   -1.4836   -1.1421   -0.2980 C   0  0  0  0  0  0  0  0  0  0  0  0
    1.4852    1.1509   -0.2830 C   0  0  0  0  0  0  0  0  0  0  0  0
   -2.9937   -1.2006   -0.1298 C   0  0  0  0  0  0  0  0  0  0  0  0
    2.9953    1.2040   -0.1134 C   0  0  0  0  0  0  0  0  0  0  0  0
   -4.7474    0.2447    0.4769 C   0  0  0  0  0  0  0  0  0  0  0  0
    4.7459   -0.2533    0.4733 C   0  0  0  0  0  0  0  0  0  0  0  0
   -1.0145   -0.8767    0.6557 H   0  0  0  0  0  0  0  0  0  0  0  0
   -1.1149   -2.1251   -0.6085 H   0  0  0  0  0  0  0  0  0  0  0  0
    1.0162    0.8738    0.6675 H   0  0  0  0  0  0  0  0  0  0  0  0
    1.1191    2.1396   -0.5784 H   0  0  0  0  0  0  0  0  0  0  0  0
   -3.2303   -1.9630    0.6223 H   0  0  0  0  0  0  0  0  0  0  0  0
   -3.4630   -1.4953   -1.0769 H   0  0  0  0  0  0  0  0  0  0  0  0
    3.2346    1.9530    0.6511 H   0  0  0  0  0  0  0  0  0  0  0  0
    3.4674    1.5088   -1.0560 H   0  0  0  0  0  0  0  0  0  0  0  0
   -4.6744    2.2448    1.0714 H   0  0  0  0  0  0  0  0  0  0  0  0
   -6.2701    1.5704    1.0261 H   0  0  0  0  0  0  0  0  0  0  0  0
   -6.7045   -0.4856    0.4491 H   0  0  0  0  0  0  0  0  0  0  0  0
   -5.5149   -1.6488   -0.0132 H   0  0  0  0  0  0  0  0  0  0  0  0
    4.6684   -2.2615    1.0395 H   0  0  0  0  0  0  0  0  0  0  0  0
    6.2655   -1.5900    1.0040 H   0  0  0  0  0  0  0  0  0  0  0  0
    6.7044    0.4733    0.4562 H   0  0  0  0  0  0  0  0  0  0  0  0
    5.5174    1.6453    0.0101 H   0  0  0  0  0  0  0  0  0  0  0  0
  1  2  1  0  0  0  0
  1  9  1  0  0  0  0
  2 10  1  0  0  0  0
  3 11  1  0  0  0  0
  3 13  2  0  0  0  0
  4 12  1  0  0  0  0
  4 14  2  0  0  0  0
  5 13  1  0  0  0  0
  5 23  1  0  0  0  0
  5 24  1  0  0  0  0
  6 13  1  0  0  0  0
  6 25  1  0  0  0  0
  6 26  1  0  0  0  0
  7 14  1  0  0  0  0
  7 27  1  0  0  0  0
  7 28  1  0  0  0  0
  8 14  1  0  0  0  0
  8 29  1  0  0  0  0
  8 30  1  0  0  0  0
  9 11  1  0  0  0  0
  9 15  1  0  0  0  0
  9 16  1  0  0  0  0
 10 12  1  0  0  0  0
 10 17  1  0  0  0  0
 10 18  1  0  0  0  0
 11 19  1  0  0  0  0
 11 20  1  0  0  0  0
 12 21  1  0  0  0  0
 12 22  1  0  0  0  0
M  END
> <PUBCHEM_COMPOUND_CID>
3521

> <PUBCHEM_CONFORMER_RMSD>
0.8

> <PUBCHEM_CONFORMER_DIVERSEORDER>
1
247
5
183
68
81
145
60
21
365
111
106
91
220
326
137
193
154
75
354
74
350
128
83
204
356
85
6
25
323
171
341
298
3
63
357
362
331
337
178
29
88
157
64
320
42
256
236
235
4
264
165
291
108
55
114
127
170
40
132
307
305
338
302
159
267
348
164
283
24
358
179
105
297
250
340
76
79
208
351
325
62
147
125
373
73
102
142
346
33
71
153
290
148
11
90
144
294
103
249
361
50
369
195
222
173
172
174
160
196
359
87
223
243
104
27
259
2
113
150
9
180
117
169
101
237
202
315
322
274
269
156
345
95
330
131
177
275
126
138
364
121
94
375
282
217
34
26
278
248
329
300
72
266
53
367
215
129
209
244
30
57
343
349
15
13
186
141
14
372
41
10
12
229
70
7
319
279
47
168
56
18
353
200
239
22
61
23
370
366
335
176
210
263
17
301
260
166
130
287
155
109
203
221
226
93
134
199
191
238
255
28
133
292
97
289
339
334
184
327
286
140
265
119
80
65
201
303
317
277
296
347
228
100
257
185
198
312
284
122
163
8
253
295
78
288
43
182
118
342
123
19
143
304
272
262
280
112
96
360
152
218
352
46
49
189
332
67
268
205
146
252
110
194
190
206
216
92
258
225
224
120
313
162
374
241
232
187
69
48
233
314
84
230
214
45
82
66
309
310
175
136
273
139
355
39
276
98
285
333
149
51
192
311
308
161
336
212
124
261
197
242
321
219
368
135
371
299
213
77
37
89
44
234
158
207
281
151
38
107
32
20
86
231
35
116
99
318
363
52
188
227
16
306
324
211
240
344
181
36
270
254
58
328
31
54
251
245
271
115
167
293
246
316
59

> <PUBCHEM_MMFF94_PARTIAL_CHARGES>
22
1 -0.23
10 0.23
11 0.25
12 0.25
13 0.55
14 0.55
2 -0.23
23 0.4
24 0.4
25 0.4
26 0.4
27 0.4
28 0.4
29 0.4
3 -0.7
30 0.4
4 -0.7
5 -0.85
6 -0.85
7 -0.85
8 -0.85
9 0.23

> <PUBCHEM_EFFECTIVE_ROTOR_COUNT>
7

> <PUBCHEM_PHARMACOPHORE_FEATURES>
7
1 5 donor
1 6 donor
1 7 donor
1 8 donor
4 1 2 9 10 hydrophobe
4 3 5 6 13 cation
4 4 7 8 14 cation

> <PUBCHEM_HEAVY_ATOM_COUNT>
14

> <PUBCHEM_ATOM_DEF_STEREO_COUNT>
0

> <PUBCHEM_ATOM_UDEF_STEREO_COUNT>
0

> <PUBCHEM_BOND_DEF_STEREO_COUNT>
0

> <PUBCHEM_BOND_UDEF_STEREO_COUNT>
0

> <PUBCHEM_ISOTOPIC_ATOM_COUNT>
0

> <PUBCHEM_COMPONENT_COUNT>
1

> <PUBCHEM_CACTVS_TAUTO_COUNT>
3

> <PUBCHEM_CONFORMER_ID>
00000DC100000001

> <PUBCHEM_MMFF94_ENERGY>
27.7525

> <PUBCHEM_FEATURE_SELFOVERLAP>
35.633

> <PUBCHEM_SHAPE_FINGERPRINT>
11128504 68 8214141850012002463
114248 4 9295289443165437198
12596602 18 18410573976561536744
12714333 28 5978389412934614039
14123255 352 15647057027936095432
14123256 34 15123215621089044345
14251732 14 15338829915683847998
14251732 17 18113897199694003109
14251764 18 18410575046008373486
14251764 30 15985386702667577378
14455015 7 16415760838124857224
15527383 91 18202284680324654524
17834072 33 9439404626957128603
193927 3 15770053947279061245
19782 4 16225764116575268117
20300324 65 9367353643016417583
20621476 21 15984816081939592754
20724930 31 16487259859340201452
20767249 213 16588024589134470437
20871999 31 10303824163703914711
212916 134 17240208732976143110
23402539 116 17968101919417824133
23590187 156 15864076451251708093
2767999 5 15574716906211383850
328317 168 5256403911438365415
351380 180 17167580488187260961
351380 3 16200155382615368906
42 15 18131067125928330383
5207 217 6194550109290144861
8217 86 10807632494763709369

> <PUBCHEM_SHAPE_MULTIPOLES>
265.93
14.52
1.34
1.18
0.02
0.01
-0.52
0.11
6.85
-0.03
0.21
0.03
-0.01
-0.94

> <PUBCHEM_SHAPE_SELFOVERLAP>
474.294

> <PUBCHEM_SHAPE_VOLUME>
173.3

> <PUBCHEM_COORDINATE_TYPE>
2
5
10

$$$$

