17395431
  -OEChem-06241222503D

 55 57  0     0  0  0  0  0  0999 V2000
    0.1861    1.1288    1.2316 O   0  0  0  0  0  0  0  0  0  0  0  0
    6.3541    0.1239   -1.2407 O   0  0  0  0  0  0  0  0  0  0  0  0
   -6.0172    0.4753    1.7356 O   0  0  0  0  0  0  0  0  0  0  0  0
   -1.2619   -0.4689   -1.6547 O   0  0  0  0  0  0  0  0  0  0  0  0
   -7.2580   -1.4202    0.1257 O   0  0  0  0  0  0  0  0  0  0  0  0
    1.8601    2.3805    0.1557 N   0  0  0  0  0  0  0  0  0  0  0  0
    3.1576   -0.2620    1.1473 N   0  0  0  0  0  0  0  0  0  0  0  0
    4.6548    1.1306   -0.0777 N   0  0  0  0  0  0  0  0  0  0  0  0
   -1.6711    1.5652   -0.6169 N   0  0  0  0  0  0  0  0  0  0  0  0
    2.8651    2.1744    1.1456 C   0  0  0  0  0  0  0  0  0  0  0  0
    2.2412    3.2022   -1.0059 C   0  0  0  0  0  0  0  0  0  0  0  0
    3.6256    0.9506    0.6982 C   0  0  0  0  0  0  0  0  0  0  0  0
    0.5603    1.8232    0.2828 C   0  0  0  0  0  0  0  0  0  0  0  0
    3.8186   -1.4299    0.7618 C   0  0  0  0  0  0  0  0  0  0  0  0
   -0.3825    2.1468   -0.8628 C   0  0  0  0  0  0  0  0  0  0  0  0
    4.9403   -1.3284   -0.0725 C   0  0  0  0  0  0  0  0  0  0  0  0
    1.9545    4.6699   -0.7654 C   0  0  0  0  0  0  0  0  0  0  0  0
    5.3731    0.0292   -0.5098 C   0  0  0  0  0  0  0  0  0  0  0  0
    3.3929   -2.6912    1.1862 C   0  0  0  0  0  0  0  0  0  0  0  0
    5.6305   -2.4728   -0.4807 C   0  0  0  0  0  0  0  0  0  0  0  0
   -2.0121    0.2841   -1.0395 C   0  0  0  0  0  0  0  0  0  0  0  0
    4.0804   -3.8360    0.7799 C   0  0  0  0  0  0  0  0  0  0  0  0
   -3.3948   -0.1624   -0.7300 C   0  0  0  0  0  0  0  0  0  0  0  0
    5.1958   -3.7266   -0.0513 C   0  0  0  0  0  0  0  0  0  0  0  0
   -4.0701    0.3691    0.3687 C   0  0  0  0  0  0  0  0  0  0  0  0
   -4.0173   -1.1142   -1.5375 C   0  0  0  0  0  0  0  0  0  0  0  0
   -5.3680   -0.0509    0.6598 C   0  0  0  0  0  0  0  0  0  0  0  0
   -5.9906   -1.0028   -0.1478 C   0  0  0  0  0  0  0  0  0  0  0  0
   -5.3151   -1.5345   -1.2463 C   0  0  0  0  0  0  0  0  0  0  0  0
   -5.3105    1.4428    2.5095 C   0  0  0  0  0  0  0  0  0  0  0  0
   -7.8219   -2.3958   -0.7487 C   0  0  0  0  0  0  0  0  0  0  0  0
    2.4096    1.9889    2.1237 H   0  0  0  0  0  0  0  0  0  0  0  0
    3.5257    3.0434    1.2234 H   0  0  0  0  0  0  0  0  0  0  0  0
    1.7262    2.8695   -1.9089 H   0  0  0  0  0  0  0  0  0  0  0  0
    3.3095    3.0701   -1.2065 H   0  0  0  0  0  0  0  0  0  0  0  0
    2.3446   -0.3392    1.7466 H   0  0  0  0  0  0  0  0  0  0  0  0
   -0.5318    3.2239   -0.9508 H   0  0  0  0  0  0  0  0  0  0  0  0
    0.0067    1.7338   -1.7972 H   0  0  0  0  0  0  0  0  0  0  0  0
    2.2257    5.2585   -1.6474 H   0  0  0  0  0  0  0  0  0  0  0  0
    2.5359    5.0482    0.0821 H   0  0  0  0  0  0  0  0  0  0  0  0
    0.9001    4.8558   -0.5444 H   0  0  0  0  0  0  0  0  0  0  0  0
    2.5256   -2.7919    1.8337 H   0  0  0  0  0  0  0  0  0  0  0  0
   -2.3581    2.1620   -0.1693 H   0  0  0  0  0  0  0  0  0  0  0  0
    6.5009   -2.4090   -1.1272 H   0  0  0  0  0  0  0  0  0  0  0  0
    3.7462   -4.8148    1.1117 H   0  0  0  0  0  0  0  0  0  0  0  0
    5.7271   -4.6208   -0.3645 H   0  0  0  0  0  0  0  0  0  0  0  0
   -3.5451    1.0723    1.0024 H   0  0  0  0  0  0  0  0  0  0  0  0
   -3.5085   -1.5364   -2.4002 H   0  0  0  0  0  0  0  0  0  0  0  0
   -5.7358   -2.2753   -1.9173 H   0  0  0  0  0  0  0  0  0  0  0  0
   -5.9809    1.7611    3.3149 H   0  0  0  0  0  0  0  0  0  0  0  0
   -5.0747    2.3377    1.9232 H   0  0  0  0  0  0  0  0  0  0  0  0
   -4.4259    1.0092    2.9884 H   0  0  0  0  0  0  0  0  0  0  0  0
   -7.9295   -2.0100   -1.7682 H   0  0  0  0  0  0  0  0  0  0  0  0
   -7.2639   -3.3379   -0.7160 H   0  0  0  0  0  0  0  0  0  0  0  0
   -8.8311   -2.6116   -0.3828 H   0  0  0  0  0  0  0  0  0  0  0  0
  1 13  2  0  0  0  0
  2 18  2  0  0  0  0
  3 27  1  0  0  0  0
  3 30  1  0  0  0  0
  4 21  2  0  0  0  0
  5 28  1  0  0  0  0
  5 31  1  0  0  0  0
  6 10  1  0  0  0  0
  6 11  1  0  0  0  0
  6 13  1  0  0  0  0
  7 12  1  0  0  0  0
  7 14  1  0  0  0  0
  7 36  1  0  0  0  0
  8 12  2  0  0  0  0
  8 18  1  0  0  0  0
  9 15  1  0  0  0  0
  9 21  1  0  0  0  0
  9 43  1  0  0  0  0
 10 12  1  0  0  0  0
 10 32  1  0  0  0  0
 10 33  1  0  0  0  0
 11 17  1  0  0  0  0
 11 34  1  0  0  0  0
 11 35  1  0  0  0  0
 13 15  1  0  0  0  0
 14 16  1  0  0  0  0
 14 19  2  0  0  0  0
 15 37  1  0  0  0  0
 15 38  1  0  0  0  0
 16 18  1  0  0  0  0
 16 20  2  0  0  0  0
 17 39  1  0  0  0  0
 17 40  1  0  0  0  0
 17 41  1  0  0  0  0
 19 22  1  0  0  0  0
 19 42  1  0  0  0  0
 20 24  1  0  0  0  0
 20 44  1  0  0  0  0
 21 23  1  0  0  0  0
 22 24  2  0  0  0  0
 22 45  1  0  0  0  0
 23 25  2  0  0  0  0
 23 26  1  0  0  0  0
 24 46  1  0  0  0  0
 25 27  1  0  0  0  0
 25 47  1  0  0  0  0
 26 29  2  0  0  0  0
 26 48  1  0  0  0  0
 27 28  2  0  0  0  0
 28 29  1  0  0  0  0
 29 49  1  0  0  0  0
 30 50  1  0  0  0  0
 30 51  1  0  0  0  0
 30 52  1  0  0  0  0
 31 53  1  0  0  0  0
 31 54  1  0  0  0  0
 31 55  1  0  0  0  0
M  END
> <PUBCHEM_COMPOUND_CID>
17395431

> <PUBCHEM_CONFORMER_RMSD>
1.4

> <PUBCHEM_CONFORMER_DIVERSEORDER>
1
13
37
126
79
10
57
56
116
132
27
98
43
95
20
97
18
42
140
80
109
25
4
92
47
65
93
21
111
85
131
62
66
36
87
78
123
40
138
19
49
102
133
96
7
83
122
67
107
17
72
101
141
127
58
84
26
112
117
32
39
103
8
12
5
23
82
38
76
106
45
88
54
120
105
77
64
6
129
104
22
68
41
124
115
99
71
91
118
89
90
139
81
73
35
11
14
137
119
69
53
29
55
60
48
108
114
94
30
52
113
110
136
16
15
121
134
2
128
31
135
75
34
61
9
24
70
100
86
44
3
74
63
46
59
51
28
33
125
130
50

> <PUBCHEM_MMFF94_PARTIAL_CHARGES>
39
1 -0.57
10 0.36
11 0.3
12 0.44
13 0.57
14 0.1
15 0.36
16 0.09
18 0.69
19 -0.15
2 -0.57
20 -0.15
21 0.54
22 -0.15
23 0.09
24 -0.15
25 -0.15
26 -0.15
27 0.08
28 0.08
29 -0.15
3 -0.36
30 0.28
31 0.28
36 0.4
4 -0.57
42 0.15
43 0.37
44 0.15
45 0.15
46 0.15
47 0.15
48 0.15
49 0.15
5 -0.36
6 -0.66
7 -0.55
8 -0.66
9 -0.73

> <PUBCHEM_EFFECTIVE_ROTOR_COUNT>
10

> <PUBCHEM_PHARMACOPHORE_FEATURES>
11
1 1 acceptor
1 2 acceptor
1 3 acceptor
1 4 acceptor
1 5 acceptor
1 7 donor
1 8 donor
1 9 donor
6 14 16 19 20 22 24 rings
6 23 25 26 27 28 29 rings
6 7 8 12 14 16 18 rings

> <PUBCHEM_HEAVY_ATOM_COUNT>
31

> <PUBCHEM_ATOM_DEF_STEREO_COUNT>
0

> <PUBCHEM_ATOM_UDEF_STEREO_COUNT>
0

> <PUBCHEM_BOND_DEF_STEREO_COUNT>
0

> <PUBCHEM_BOND_UDEF_STEREO_COUNT>
0

> <PUBCHEM_ISOTOPIC_ATOM_COUNT>
0

> <PUBCHEM_COMPONENT_COUNT>
1

> <PUBCHEM_CACTVS_TAUTO_COUNT>
6

> <PUBCHEM_CONFORMER_ID>
01096EE700000001

> <PUBCHEM_MMFF94_ENERGY>
107.4467

> <PUBCHEM_FEATURE_SELFOVERLAP>
55.883

> <PUBCHEM_SHAPE_FINGERPRINT>
10319926 262 16877653574637441013
10928967 22 18267319779305906010
11059845 2 17533204517551532985
11200772 71 12031495567836969777
117089 54 18263358269229358934
11991303 11 17485377999516670917
12107183 9 18261666099654280689
12422481 6 17749950093382631645
13008946 170 18047483223054817405
13008946 62 16479629025174301981
13150687 139 17987783118290844316
13533116 47 18336550396173568137
1361 2 18341334409636033650
13989917 61 18269837510720602899
14040222 275 18193817440444006726
14251764 30 18341614857888661559
15467298 65 17974020448740435967
15537594 2 18408042922754685078
15728490 83 17762339519381070474
15799311 1 18270949160009560975
20775530 9 18269284632781215814
2260408 40 18187660093475584824
22950370 63 18409731802326155552
23522609 53 18191275304455454016
345986 75 17967821573542668208
34797466 226 16271931454991232501
3737641 26 18341334495814739788
44880168 125 17095812143602724806
4516262 110 18050572837654062413
46194498 28 17418375766626919972
513202 73 18271806878196179597
5372103 7 15625364712046153588
54039377 194 18263923410238294518
86090 222 17632581534917196051
9555976 147 17458336481967623435
9831232 110 18272098167056994031

> <PUBCHEM_SHAPE_MULTIPOLES>
588.69
19.41
4.57
1.56
22.08
0.99
-0.48
-16.18
-0.43
-6.93
0.41
1.69
0.32
-2.52

> <PUBCHEM_SHAPE_SELFOVERLAP>
1256.938

> <PUBCHEM_SHAPE_VOLUME>
325

> <PUBCHEM_COORDINATE_TYPE>
2
5
10

$$$$

