7776
  -OEChem-06261202183D

 53 52  0     0  0  0  0  0  0999 V2000
    6.1594   -0.3305    0.1434 O   0  0  0  0  0  0  0  0  0  0  0  0
   -6.1591   -0.3139   -0.1649 O   0  0  0  0  0  0  0  0  0  0  0  0
    5.0620    1.6988    0.0549 O   0  0  0  0  0  0  0  0  0  0  0  0
   -5.0841    1.7237   -0.0412 O   0  0  0  0  0  0  0  0  0  0  0  0
    0.0113    0.5144   -0.0241 C   0  0  0  0  0  0  0  0  0  0  0  0
    1.2645   -0.3643    0.0051 C   0  0  0  0  0  0  0  0  0  0  0  0
   -1.2609   -0.3359   -0.0413 C   0  0  0  0  0  0  0  0  0  0  0  0
    2.5373    0.4859    0.0543 C   0  0  0  0  0  0  0  0  0  0  0  0
   -2.5466    0.4951   -0.0401 C   0  0  0  0  0  0  0  0  0  0  0  0
    3.8058   -0.3621    0.0536 C   0  0  0  0  0  0  0  0  0  0  0  0
   -3.8164   -0.3508   -0.1307 C   0  0  0  0  0  0  0  0  0  0  0  0
    8.5591   -0.6719    0.2415 C   0  0  0  0  0  0  0  0  0  0  0  0
   -8.5573   -0.6782   -0.2098 C   0  0  0  0  0  0  0  0  0  0  0  0
    5.0606    0.4748    0.0834 C   0  0  0  0  0  0  0  0  0  0  0  0
   -5.0649    0.5024   -0.1085 C   0  0  0  0  0  0  0  0  0  0  0  0
    7.4190    0.3479    0.1749 C   0  0  0  0  0  0  0  0  0  0  0  0
   -7.4261    0.3514   -0.1413 C   0  0  0  0  0  0  0  0  0  0  0  0
    9.9056    0.0406    0.3489 C   0  0  0  0  0  0  0  0  0  0  0  0
    8.5457   -1.6030   -0.9727 C   0  0  0  0  0  0  0  0  0  0  0  0
   -9.9133    0.0225   -0.2586 C   0  0  0  0  0  0  0  0  0  0  0  0
   -8.5016   -1.6470    0.9733 C   0  0  0  0  0  0  0  0  0  0  0  0
    0.0328    1.1611   -0.9094 H   0  0  0  0  0  0  0  0  0  0  0  0
   -0.0001    1.1692    0.8556 H   0  0  0  0  0  0  0  0  0  0  0  0
    1.2334   -1.0249    0.8799 H   0  0  0  0  0  0  0  0  0  0  0  0
    1.2847   -1.0051   -0.8847 H   0  0  0  0  0  0  0  0  0  0  0  0
   -1.2666   -1.0016    0.8308 H   0  0  0  0  0  0  0  0  0  0  0  0
   -1.2505   -0.9789   -0.9303 H   0  0  0  0  0  0  0  0  0  0  0  0
    2.5201    1.1187    0.9507 H   0  0  0  0  0  0  0  0  0  0  0  0
    2.5527    1.1661   -0.8069 H   0  0  0  0  0  0  0  0  0  0  0  0
   -2.5779    1.1066    0.8706 H   0  0  0  0  0  0  0  0  0  0  0  0
   -2.5212    1.1982   -0.8825 H   0  0  0  0  0  0  0  0  0  0  0  0
    3.8349   -0.9834   -0.8486 H   0  0  0  0  0  0  0  0  0  0  0  0
    3.8098   -1.0147    0.9339 H   0  0  0  0  0  0  0  0  0  0  0  0
   -3.8105   -0.9273   -1.0622 H   0  0  0  0  0  0  0  0  0  0  0  0
   -3.8580   -1.0421    0.7184 H   0  0  0  0  0  0  0  0  0  0  0  0
    8.4173   -1.2951    1.1336 H   0  0  0  0  0  0  0  0  0  0  0  0
   -8.4332   -1.2713   -1.1247 H   0  0  0  0  0  0  0  0  0  0  0  0
    7.4501    0.9967    1.0587 H   0  0  0  0  0  0  0  0  0  0  0  0
    7.5166    0.9694   -0.7239 H   0  0  0  0  0  0  0  0  0  0  0  0
   -7.4875    1.0272   -1.0030 H   0  0  0  0  0  0  0  0  0  0  0  0
   -7.5055    0.9432    0.7791 H   0  0  0  0  0  0  0  0  0  0  0  0
    9.9373    0.6801    1.2374 H   0  0  0  0  0  0  0  0  0  0  0  0
   10.7235   -0.6831    0.4296 H   0  0  0  0  0  0  0  0  0  0  0  0
   10.0948    0.6690   -0.5281 H   0  0  0  0  0  0  0  0  0  0  0  0
    9.3680   -2.3244   -0.9168 H   0  0  0  0  0  0  0  0  0  0  0  0
    7.6116   -2.1716   -1.0258 H   0  0  0  0  0  0  0  0  0  0  0  0
    8.6532   -1.0394   -1.9058 H   0  0  0  0  0  0  0  0  0  0  0  0
   -9.9754    0.6892   -1.1252 H   0  0  0  0  0  0  0  0  0  0  0  0
  -10.7257   -0.7073   -0.3405 H   0  0  0  0  0  0  0  0  0  0  0  0
  -10.0852    0.6209    0.6426 H   0  0  0  0  0  0  0  0  0  0  0  0
   -9.3176   -2.3753    0.9163 H   0  0  0  0  0  0  0  0  0  0  0  0
   -7.5606   -2.2066    0.9834 H   0  0  0  0  0  0  0  0  0  0  0  0
   -8.5897   -1.1144    1.9264 H   0  0  0  0  0  0  0  0  0  0  0  0
  1 14  1  0  0  0  0
  1 16  1  0  0  0  0
  2 15  1  0  0  0  0
  2 17  1  0  0  0  0
  3 14  2  0  0  0  0
  4 15  2  0  0  0  0
  5  6  1  0  0  0  0
  5  7  1  0  0  0  0
  5 22  1  0  0  0  0
  5 23  1  0  0  0  0
  6  8  1  0  0  0  0
  6 24  1  0  0  0  0
  6 25  1  0  0  0  0
  7  9  1  0  0  0  0
  7 26  1  0  0  0  0
  7 27  1  0  0  0  0
  8 10  1  0  0  0  0
  8 28  1  0  0  0  0
  8 29  1  0  0  0  0
  9 11  1  0  0  0  0
  9 30  1  0  0  0  0
  9 31  1  0  0  0  0
 10 14  1  0  0  0  0
 10 32  1  0  0  0  0
 10 33  1  0  0  0  0
 11 15  1  0  0  0  0
 11 34  1  0  0  0  0
 11 35  1  0  0  0  0
 12 16  1  0  0  0  0
 12 18  1  0  0  0  0
 12 19  1  0  0  0  0
 12 36  1  0  0  0  0
 13 17  1  0  0  0  0
 13 20  1  0  0  0  0
 13 21  1  0  0  0  0
 13 37  1  0  0  0  0
 16 38  1  0  0  0  0
 16 39  1  0  0  0  0
 17 40  1  0  0  0  0
 17 41  1  0  0  0  0
 18 42  1  0  0  0  0
 18 43  1  0  0  0  0
 18 44  1  0  0  0  0
 19 45  1  0  0  0  0
 19 46  1  0  0  0  0
 19 47  1  0  0  0  0
 20 48  1  0  0  0  0
 20 49  1  0  0  0  0
 20 50  1  0  0  0  0
 21 51  1  0  0  0  0
 21 52  1  0  0  0  0
 21 53  1  0  0  0  0
M  END
> <PUBCHEM_COMPOUND_CID>
7776

> <PUBCHEM_CONFORMER_RMSD>
1.4

> <PUBCHEM_CONFORMER_DIVERSEORDER>
1
28
29
20
12
31
26
21
9
16
19
27
22
18
33
30
13
8
24
17
32
14
2
23
10
5
6
25
7
3
15
4
11

> <PUBCHEM_MMFF94_PARTIAL_CHARGES>
10
1 -0.43
10 0.06
11 0.06
14 0.66
15 0.66
16 0.28
17 0.28
2 -0.43
3 -0.57
4 -0.57

> <PUBCHEM_EFFECTIVE_ROTOR_COUNT>
14

> <PUBCHEM_PHARMACOPHORE_FEATURES>
4
1 3 acceptor
1 4 acceptor
3 12 18 19 hydrophobe
3 13 20 21 hydrophobe

> <PUBCHEM_HEAVY_ATOM_COUNT>
21

> <PUBCHEM_ATOM_DEF_STEREO_COUNT>
0

> <PUBCHEM_ATOM_UDEF_STEREO_COUNT>
0

> <PUBCHEM_BOND_DEF_STEREO_COUNT>
0

> <PUBCHEM_BOND_UDEF_STEREO_COUNT>
0

> <PUBCHEM_ISOTOPIC_ATOM_COUNT>
0

> <PUBCHEM_COMPONENT_COUNT>
1

> <PUBCHEM_CACTVS_TAUTO_COUNT>
1

> <PUBCHEM_CONFORMER_ID>
00001E6000000001

> <PUBCHEM_MMFF94_ENERGY>
14.2293

> <PUBCHEM_FEATURE_SELFOVERLAP>
20.297

> <PUBCHEM_SHAPE_FINGERPRINT>
11638347 137 17312819399244097726
14202775 3 18411132541359772715
14251764 18 17632861940304377763
14251764 46 18410857663451672387
15461852 350 16773795888184526959
15510794 2 18410008844770503358
18335252 98 18187363250604397247
20812841 46 16226054380104918042
21095086 128 17988926678016225026
21267235 1 18410855464423590324
21315763 28 18411136935105398653
21362267 20 18272089366369448643
21792961 116 18040999574836274321
22224240 67 16988565684364743675
232437 2 18411138038917015114
23521765 1 18335422369687954828
23581129 1 18411983563353233764
246663 6 18411135839888237966
28498 318 18334295392567156454
33684 2 18343866623590170970
5283156 175 17530683221630120166
67123 10 18343865511156737476
8209 1 18131633387111671628

> <PUBCHEM_SHAPE_MULTIPOLES>
408.69
40.17
1.23
0.72
0.18
0.04
0
9.76
-0.5
-0.08
-0.01
0.04
0.16
1.29

> <PUBCHEM_SHAPE_SELFOVERLAP>
763.971

> <PUBCHEM_SHAPE_VOLUME>
256

> <PUBCHEM_COORDINATE_TYPE>
2
5
10

$$$$

