17395499
  -OEChem-06241222503D

 43 45  0     1  0  0  0  0  0999 V2000
   -0.1253   -1.1249    2.2332 O   0  0  0  0  0  0  0  0  0  0  0  0
    4.9994   -0.0691   -0.8908 O   0  0  0  0  0  0  0  0  0  0  0  0
   -1.0513   -1.1726    0.0721 N   0  0  0  0  0  0  0  0  0  0  0  0
    3.3039   -1.5225   -0.2560 N   0  0  0  0  0  0  0  0  0  0  0  0
    2.0405   -1.7262    0.2207 N   0  0  0  0  0  0  0  0  0  0  0  0
   -2.4023   -1.4900    0.5097 C   0  0  1  0  0  0  0  0  0  0  0  0
   -3.3576   -0.3896    0.1005 C   0  0  0  0  0  0  0  0  0  0  0  0
   -2.7970   -2.8601   -0.0376 C   0  0  0  0  0  0  0  0  0  0  0  0
   -0.0492   -1.0252    1.0179 C   0  0  0  0  0  0  0  0  0  0  0  0
    1.3029   -0.7002    0.4915 C   0  0  0  0  0  0  0  0  0  0  0  0
    1.7192    0.6897    0.3135 C   0  0  0  0  0  0  0  0  0  0  0  0
   -0.8621   -1.0334   -1.3686 C   0  0  0  0  0  0  0  0  0  0  0  0
    3.0072    0.8997   -0.1655 C   0  0  0  0  0  0  0  0  0  0  0  0
   -3.5523    0.7110    0.9352 C   0  0  0  0  0  0  0  0  0  0  0  0
   -4.0431   -0.4757   -1.1113 C   0  0  0  0  0  0  0  0  0  0  0  0
    3.8613   -0.2640   -0.4694 C   0  0  0  0  0  0  0  0  0  0  0  0
    0.8844    1.7745    0.5917 C   0  0  0  0  0  0  0  0  0  0  0  0
    3.4772    2.2025   -0.3618 C   0  0  0  0  0  0  0  0  0  0  0  0
   -4.4324    1.7253    0.5582 C   0  0  0  0  0  0  0  0  0  0  0  0
   -4.9232    0.5388   -1.4883 C   0  0  0  0  0  0  0  0  0  0  0  0
    1.3540    3.0741    0.3960 C   0  0  0  0  0  0  0  0  0  0  0  0
    2.6477    3.2878   -0.0784 C   0  0  0  0  0  0  0  0  0  0  0  0
   -5.1178    1.6392   -0.6535 C   0  0  0  0  0  0  0  0  0  0  0  0
    4.1159   -2.6892   -0.5589 C   0  0  0  0  0  0  0  0  0  0  0  0
   -2.4260   -1.5693    1.6042 H   0  0  0  0  0  0  0  0  0  0  0  0
   -2.8067   -2.9559   -1.1256 H   0  0  0  0  0  0  0  0  0  0  0  0
   -2.1014   -3.6233    0.3328 H   0  0  0  0  0  0  0  0  0  0  0  0
   -3.7971   -3.1380    0.3165 H   0  0  0  0  0  0  0  0  0  0  0  0
   -1.2227   -1.9108   -1.9067 H   0  0  0  0  0  0  0  0  0  0  0  0
    0.1906   -0.9217   -1.6343 H   0  0  0  0  0  0  0  0  0  0  0  0
   -1.3712   -0.1336   -1.7232 H   0  0  0  0  0  0  0  0  0  0  0  0
   -3.0217    0.7910    1.8803 H   0  0  0  0  0  0  0  0  0  0  0  0
   -3.9143   -1.3024   -1.8008 H   0  0  0  0  0  0  0  0  0  0  0  0
   -0.1268    1.6354    0.9620 H   0  0  0  0  0  0  0  0  0  0  0  0
    4.4798    2.3926   -0.7345 H   0  0  0  0  0  0  0  0  0  0  0  0
   -4.5831    2.5828    1.2075 H   0  0  0  0  0  0  0  0  0  0  0  0
   -5.4543    0.4743   -2.4336 H   0  0  0  0  0  0  0  0  0  0  0  0
    0.7096    3.9211    0.6133 H   0  0  0  0  0  0  0  0  0  0  0  0
    3.0091    4.3008   -0.2298 H   0  0  0  0  0  0  0  0  0  0  0  0
   -5.8021    2.4296   -0.9476 H   0  0  0  0  0  0  0  0  0  0  0  0
    4.2456   -3.2681    0.3604 H   0  0  0  0  0  0  0  0  0  0  0  0
    5.0994   -2.4263   -0.9556 H   0  0  0  0  0  0  0  0  0  0  0  0
    3.5857   -3.2981   -1.2971 H   0  0  0  0  0  0  0  0  0  0  0  0
  1  9  2  0  0  0  0
  2 16  2  0  0  0  0
  3  6  1  0  0  0  0
  3  9  1  0  0  0  0
  3 12  1  0  0  0  0
  4  5  1  0  0  0  0
  4 16  1  0  0  0  0
  4 24  1  0  0  0  0
  5 10  2  0  0  0  0
  6  7  1  0  0  0  0
  6  8  1  0  0  0  0
  6 25  1  0  0  0  0
  7 14  2  0  0  0  0
  7 15  1  0  0  0  0
  8 26  1  0  0  0  0
  8 27  1  0  0  0  0
  8 28  1  0  0  0  0
  9 10  1  0  0  0  0
 10 11  1  0  0  0  0
 11 13  1  0  0  0  0
 11 17  2  0  0  0  0
 12 29  1  0  0  0  0
 12 30  1  0  0  0  0
 12 31  1  0  0  0  0
 13 16  1  0  0  0  0
 13 18  2  0  0  0  0
 14 19  1  0  0  0  0
 14 32  1  0  0  0  0
 15 20  2  0  0  0  0
 15 33  1  0  0  0  0
 17 21  1  0  0  0  0
 17 34  1  0  0  0  0
 18 22  1  0  0  0  0
 18 35  1  0  0  0  0
 19 23  2  0  0  0  0
 19 36  1  0  0  0  0
 20 23  1  0  0  0  0
 20 37  1  0  0  0  0
 21 22  2  0  0  0  0
 21 38  1  0  0  0  0
 22 39  1  0  0  0  0
 23 40  1  0  0  0  0
 24 41  1  0  0  0  0
 24 42  1  0  0  0  0
 24 43  1  0  0  0  0
M  END
> <PUBCHEM_COMPOUND_CID>
17395499

> <PUBCHEM_CONFORMER_RMSD>
0.8

> <PUBCHEM_CONFORMER_DIVERSEORDER>
1
9
43
13
48
31
37
42
6
36
26
47
38
19
49
46
34
14
30
17
29
20
44
41
16
15
18
35
33
39
5
32
45
8
40
27
12
10
3
28
23
7
24
2
25
11
4
22
21

> <PUBCHEM_MMFF94_PARTIAL_CHARGES>
32
1 -0.57
10 0.36
11 0.09
12 0.3
13 0.09
14 -0.15
15 -0.15
16 0.54
17 -0.15
18 -0.15
19 -0.15
2 -0.57
20 -0.15
21 -0.15
22 -0.15
23 -0.15
24 0.3
3 -0.66
32 0.15
33 0.15
34 0.15
35 0.15
36 0.15
37 0.15
38 0.15
39 0.15
4 -0.3
40 0.15
5 -0.51
6 0.44
7 -0.14
9 0.63

> <PUBCHEM_EFFECTIVE_ROTOR_COUNT>
4

> <PUBCHEM_PHARMACOPHORE_FEATURES>
6
1 1 acceptor
1 2 acceptor
1 5 acceptor
6 11 13 17 18 21 22 rings
6 4 5 10 11 13 16 rings
6 7 14 15 19 20 23 rings

> <PUBCHEM_HEAVY_ATOM_COUNT>
24

> <PUBCHEM_ATOM_DEF_STEREO_COUNT>
0

> <PUBCHEM_ATOM_UDEF_STEREO_COUNT>
1

> <PUBCHEM_BOND_DEF_STEREO_COUNT>
0

> <PUBCHEM_BOND_UDEF_STEREO_COUNT>
0

> <PUBCHEM_ISOTOPIC_ATOM_COUNT>
0

> <PUBCHEM_COMPONENT_COUNT>
1

> <PUBCHEM_CACTVS_TAUTO_COUNT>
1

> <PUBCHEM_CONFORMER_ID>
01096F2B00000001

> <PUBCHEM_MMFF94_ENERGY>
71.3906

> <PUBCHEM_FEATURE_SELFOVERLAP>
30.472

> <PUBCHEM_SHAPE_FINGERPRINT>
10165383 225 17418088853741368871
10498660 4 17988658367388719837
10906281 52 18342165641138678360
11273773 38 17834960055014658429
116883 192 18117831334081899526
12596602 18 13398338114694148181
12633257 1 18272101507971409059
12788726 201 17982163724102638594
13004483 165 18121790680028712602
13464514 151 18343017749142596320
13583140 156 18339635651281163887
13590594 115 18267300031193809832
13944108 23 17477776040615405933
14341114 328 12391502114077679535
14713325 29 16049804666820459516
14848178 96 18272655601818895317
15210252 30 17846207848523472452
15238133 3 17772489016579226777
1601671 61 18410855469272062396
16087824 20 18049998097609081793
17349148 13 16008742511390110151
17492 89 18336827468419098815
18186145 218 17989207044580201971
18335252 114 18193566782094579933
19930381 70 17256247043139817905
20775438 99 16740913751921373583
20832881 197 18129943519808837362
21033648 144 18410864230926530749
21033648 29 17632306700471809477
21478907 32 17834394897479084714
21503847 285 18342742944076198165
21709351 56 18335981957141166574
21860390 5 18408317783365826324
221357 26 18411143567067576037
22289505 5 18411982485891462340
22393880 68 18116705219384487860
22907989 373 17823141112648415495
23227448 37 18340489950709744269
23536364 44 17766845305093332870
23559900 14 18335140899555130194
3459 83 18115583910438890639
350125 39 18340197497907765195
3797600 57 13254794646477836582
392239 28 11743544449931063454
474 4 18201163139635543769
5281201 14 18410288077953386775
543358 83 18410008849481675860
5895379 119 18114465659747944753
6287921 2 17913480251576165197
633830 44 18202289091150390335
7399639 24 17618216209157190714
7832392 63 18408888416714831689
9971528 1 18261119620578140106
9981440 41 17760940536720708584

> <PUBCHEM_SHAPE_MULTIPOLES>
467.23
10.37
3.35
1.21
4.81
0.98
-0.14
1.74
3.48
-2.14
-0.06
0.75
-0.22
0.31

> <PUBCHEM_SHAPE_SELFOVERLAP>
1014.1

> <PUBCHEM_SHAPE_VOLUME>
255.5

> <PUBCHEM_COORDINATE_TYPE>
2
5
10

$$$$

