17395262
  -OEChem-06241222493D

 59 62  0     1  0  0  0  0  0999 V2000
   -3.0547   -1.1289    1.1798 S   0  0  0  0  0  0  0  0  0  0  0  0
    3.0213    0.8179    0.9955 S   0  0  0  0  0  0  0  0  0  0  0  0
   -8.4943   -0.7867   -1.0642 F   0  0  0  0  0  0  0  0  0  0  0  0
   -3.1585   -0.9909    2.6163 O   0  0  0  0  0  0  0  0  0  0  0  0
   -2.3979   -2.2726    0.5850 O   0  0  0  0  0  0  0  0  0  0  0  0
    1.3272    3.4739    0.3592 O   0  0  0  0  0  0  0  0  0  0  0  0
   -2.3735    0.3028    0.5294 N   0  0  2  0  0  0  0  0  0  0  0  0
   -0.2486    2.0361   -0.5566 N   0  0  0  0  0  0  0  0  0  0  0  0
    4.9301   -1.0327    0.0492 N   0  0  0  0  0  0  0  0  0  0  0  0
    5.2598   -1.5152   -1.1832 N   0  0  0  0  0  0  0  0  0  0  0  0
   -3.0512    1.5740    0.9197 C   0  0  0  0  0  0  0  0  0  0  0  0
   -2.0315    0.2583   -0.9231 C   0  0  0  0  0  0  0  0  0  0  0  0
   -2.0577    2.7316    0.9890 C   0  0  0  0  0  0  0  0  0  0  0  0
   -0.5943    0.7252   -1.1324 C   0  0  0  0  0  0  0  0  0  0  0  0
   -1.3270    3.0036   -0.3260 C   0  0  0  0  0  0  0  0  0  0  0  0
    1.0651    2.3891   -0.1647 C   0  0  0  0  0  0  0  0  0  0  0  0
    2.1241    1.4083   -0.3903 C   0  0  0  0  0  0  0  0  0  0  0  0
    3.9206   -0.1395   -0.0142 C   0  0  0  0  0  0  0  0  0  0  0  0
    3.5869   -0.0379   -1.3028 C   0  0  0  0  0  0  0  0  0  0  0  0
   -4.6837   -1.0263    0.5078 C   0  0  0  0  0  0  0  0  0  0  0  0
    5.6416   -1.4910    1.2167 C   0  0  0  0  0  0  0  0  0  0  0  0
    6.8810   -0.6465    1.5619 C   0  0  0  0  0  0  0  0  0  0  0  0
    2.5528    0.8424   -1.5894 C   0  0  0  0  0  0  0  0  0  0  0  0
    4.4103   -0.8832   -2.0185 C   0  0  0  0  0  0  0  0  0  0  0  0
    7.5292   -1.1800    2.8410 C   0  0  0  0  0  0  0  0  0  0  0  0
    7.9066   -0.6394    0.4262 C   0  0  0  0  0  0  0  0  0  0  0  0
   -4.9641   -1.6011   -0.7318 C   0  0  0  0  0  0  0  0  0  0  0  0
   -5.6905   -0.3705    1.2163 C   0  0  0  0  0  0  0  0  0  0  0  0
    4.4579   -1.1466   -3.4642 C   0  0  0  0  0  0  0  0  0  0  0  0
   -6.2514   -1.5202   -1.2628 C   0  0  0  0  0  0  0  0  0  0  0  0
   -6.9777   -0.2896    0.6853 C   0  0  0  0  0  0  0  0  0  0  0  0
   -7.2582   -0.8644   -0.5543 C   0  0  0  0  0  0  0  0  0  0  0  0
   -3.4954    1.4775    1.9157 H   0  0  0  0  0  0  0  0  0  0  0  0
   -3.8582    1.8111    0.2172 H   0  0  0  0  0  0  0  0  0  0  0  0
   -2.1109   -0.7551   -1.3277 H   0  0  0  0  0  0  0  0  0  0  0  0
   -2.7343    0.8663   -1.5037 H   0  0  0  0  0  0  0  0  0  0  0  0
   -2.6143    3.6338    1.2704 H   0  0  0  0  0  0  0  0  0  0  0  0
   -1.3295    2.5439    1.7880 H   0  0  0  0  0  0  0  0  0  0  0  0
    0.0699   -0.0351   -0.7092 H   0  0  0  0  0  0  0  0  0  0  0  0
   -0.3890    0.7859   -2.2071 H   0  0  0  0  0  0  0  0  0  0  0  0
   -0.8934    4.0088   -0.2741 H   0  0  0  0  0  0  0  0  0  0  0  0
   -2.0044    3.0069   -1.1866 H   0  0  0  0  0  0  0  0  0  0  0  0
    5.9198   -2.5378    1.0410 H   0  0  0  0  0  0  0  0  0  0  0  0
    4.9338   -1.4881    2.0543 H   0  0  0  0  0  0  0  0  0  0  0  0
    6.5688    0.3900    1.7430 H   0  0  0  0  0  0  0  0  0  0  0  0
    2.1381    1.0734   -2.5616 H   0  0  0  0  0  0  0  0  0  0  0  0
    6.8180   -1.1614    3.6737 H   0  0  0  0  0  0  0  0  0  0  0  0
    8.3911   -0.5673    3.1258 H   0  0  0  0  0  0  0  0  0  0  0  0
    7.8742   -2.2116    2.7121 H   0  0  0  0  0  0  0  0  0  0  0  0
    8.8177   -0.1130    0.7316 H   0  0  0  0  0  0  0  0  0  0  0  0
    8.1880   -1.6574    0.1364 H   0  0  0  0  0  0  0  0  0  0  0  0
    7.5214   -0.1224   -0.4579 H   0  0  0  0  0  0  0  0  0  0  0  0
   -4.1971   -2.1168   -1.3022 H   0  0  0  0  0  0  0  0  0  0  0  0
   -5.4983    0.0821    2.1848 H   0  0  0  0  0  0  0  0  0  0  0  0
    3.4507   -1.3024   -3.8645 H   0  0  0  0  0  0  0  0  0  0  0  0
    5.0479   -2.0399   -3.6945 H   0  0  0  0  0  0  0  0  0  0  0  0
    4.9078   -0.2994   -3.9917 H   0  0  0  0  0  0  0  0  0  0  0  0
   -6.4703   -1.9674   -2.2280 H   0  0  0  0  0  0  0  0  0  0  0  0
   -7.7621    0.2203    1.2368 H   0  0  0  0  0  0  0  0  0  0  0  0
  1  4  2  0  0  0  0
  1  5  2  0  0  0  0
  1  7  1  0  0  0  0
  1 20  1  0  0  0  0
  2 17  1  0  0  0  0
  2 18  1  0  0  0  0
  3 32  1  0  0  0  0
  6 16  2  0  0  0  0
  7 11  1  0  0  0  0
  7 12  1  0  0  0  0
  8 14  1  0  0  0  0
  8 15  1  0  0  0  0
  8 16  1  0  0  0  0
  9 10  1  0  0  0  0
  9 18  1  0  0  0  0
  9 21  1  0  0  0  0
 10 24  2  0  0  0  0
 11 13  1  0  0  0  0
 11 33  1  0  0  0  0
 11 34  1  0  0  0  0
 12 14  1  0  0  0  0
 12 35  1  0  0  0  0
 12 36  1  0  0  0  0
 13 15  1  0  0  0  0
 13 37  1  0  0  0  0
 13 38  1  0  0  0  0
 14 39  1  0  0  0  0
 14 40  1  0  0  0  0
 15 41  1  0  0  0  0
 15 42  1  0  0  0  0
 16 17  1  0  0  0  0
 17 23  2  0  0  0  0
 18 19  2  0  0  0  0
 19 23  1  0  0  0  0
 19 24  1  0  0  0  0
 20 27  2  0  0  0  0
 20 28  1  0  0  0  0
 21 22  1  0  0  0  0
 21 43  1  0  0  0  0
 21 44  1  0  0  0  0
 22 25  1  0  0  0  0
 22 26  1  0  0  0  0
 22 45  1  0  0  0  0
 23 46  1  0  0  0  0
 24 29  1  0  0  0  0
 25 47  1  0  0  0  0
 25 48  1  0  0  0  0
 25 49  1  0  0  0  0
 26 50  1  0  0  0  0
 26 51  1  0  0  0  0
 26 52  1  0  0  0  0
 27 30  1  0  0  0  0
 27 53  1  0  0  0  0
 28 31  2  0  0  0  0
 28 54  1  0  0  0  0
 29 55  1  0  0  0  0
 29 56  1  0  0  0  0
 29 57  1  0  0  0  0
 30 32  2  0  0  0  0
 30 58  1  0  0  0  0
 31 32  1  0  0  0  0
 31 59  1  0  0  0  0
M  END
> <PUBCHEM_COMPOUND_CID>
17395262

> <PUBCHEM_CONFORMER_RMSD>
1.4

> <PUBCHEM_CONFORMER_DIVERSEORDER>
1
94
69
89
107
105
68
41
123
84
37
12
117
120
67
38
29
59
48
21
35
127
33
113
91
65
26
27
114
40
63
126
24
71
93
49
134
36
98
70
133
106
50
115
101
125
103
85
121
60
122
23
57
31
130
97
55
132
7
135
124
25
102
62
109
77
111
119
78
51
86
39
95
9
131
58
118
14
76
61
64
44
13
116
128
79
30
22
129
90
82
6
96
52
32
19
112
110
34
15
56
104
5
66
108
88
83
53
3
54
20
87
17
75
45
74
46
43
4
72
42
10
18
16
81
100
11
47
8
99
28
92
80
2
73

> <PUBCHEM_MMFF94_PARTIAL_CHARGES>
32
1 1.45
10 -0.71
11 0.36
12 0.36
14 0.3
15 0.3
16 0.71
17 -0.05
18 -0.11
2 -0.08
20 -0.01
21 0.26
23 -0.15
24 0.11
27 -0.15
28 -0.15
29 0.18
3 -0.19
30 -0.15
31 -0.15
32 0.19
4 -0.65
46 0.15
5 -0.65
53 0.15
54 0.15
58 0.15
59 0.15
6 -0.57
7 -0.85
8 -0.66
9 0.31

> <PUBCHEM_EFFECTIVE_ROTOR_COUNT>
7.4

> <PUBCHEM_PHARMACOPHORE_FEATURES>
9
1 10 acceptor
1 4 acceptor
1 5 acceptor
1 6 acceptor
3 22 25 26 hydrophobe
5 2 17 18 19 23 rings
5 9 10 18 19 24 rings
6 20 27 28 30 31 32 rings
7 7 8 11 12 13 14 15 rings

> <PUBCHEM_HEAVY_ATOM_COUNT>
32

> <PUBCHEM_ATOM_DEF_STEREO_COUNT>
0

> <PUBCHEM_ATOM_UDEF_STEREO_COUNT>
0

> <PUBCHEM_BOND_DEF_STEREO_COUNT>
0

> <PUBCHEM_BOND_UDEF_STEREO_COUNT>
0

> <PUBCHEM_ISOTOPIC_ATOM_COUNT>
0

> <PUBCHEM_COMPONENT_COUNT>
1

> <PUBCHEM_CACTVS_TAUTO_COUNT>
1

> <PUBCHEM_CONFORMER_ID>
01096E3E00000001

> <PUBCHEM_MMFF94_ENERGY>
64.4749

> <PUBCHEM_FEATURE_SELFOVERLAP>
45.917

> <PUBCHEM_SHAPE_FINGERPRINT>
10 15 4895552987448807855
10254770 206 18339935856388836555
10674148 151 14979965773816925389
10917259 69 18269002063269152013
11135609 201 13984673533776750786
11211813 128 18334295393026449466
11297750 10 18272385160708808932
11828532 37 18269834212180211555
1200032 147 7925635535687515644
12342043 65 17097757227069368228
12422481 6 17168131356909453661
12539765 74 16413785970199941300
12596602 18 16081361990240476406
12760667 363 18343584044864933081
13533116 47 18114456761029342057
13782708 43 17676476294013703791
14068700 675 18408040702230621985
14150023 24 17687468967026083760
14257110 125 7997972379481514824
14705955 166 17458346385339204161
14747281 78 12391241568244753824
15183329 4 18272365365630783007
15188451 53 18413393154835654656
15320294 125 17989218049120754226
15420108 30 17684627111814681449
15575132 122 8502390905762962003
17349148 13 17750494210558684853
18393751 57 6050444812724620253
19304671 126 13686292457450197870
20028762 73 17967245391111987031
21315763 87 17313097575063517118
21315764 119 16128656344779610643
21344244 78 17530682091548099496
22393880 68 12247384684546223544
2260408 40 16805318908075330252
22889206 1 16663194780205643753
23559900 14 18058726876178013057
24893992 56 18341323420132963265
3004659 81 16559038177218971960
3383291 50 18410011040052900603
3729539 64 17632303397662999531
38570 142 5256403933936770024
397830 11 17095524023641485264
4258327 124 6555119597089462226
439807 62 17418376908644932666
44317340 157 15482090696866322278
50009960 94 18192729859507216071
5080951 261 18265349454848629597
613672 6 18336530651649914530

> <PUBCHEM_SHAPE_MULTIPOLES>
621.44
21.86
2.68
2.31
2.34
2.42
0.43
-15.8
-4.63
0.81
-0.1
-3.81
-1.17
-0.78

> <PUBCHEM_SHAPE_SELFOVERLAP>
1302.408

> <PUBCHEM_SHAPE_VOLUME>
355.7

> <PUBCHEM_COORDINATE_TYPE>
2
5
10

$$$$

