4402
  -OEChem-06261200062D

 45 48  0     1  0  0  0  0  0999 V2000
    7.5232    1.5214    0.0000 O   0  0  0  0  0  0  0  0  0  0  0  0
    4.9852    2.0258    0.0000 O   0  0  0  0  0  0  0  0  0  0  0  0
    6.2670    3.7836    0.0000 O   0  0  0  0  0  0  0  0  0  0  0  0
    9.2478    2.6994    0.0000 O   0  0  0  0  0  0  0  0  0  0  0  0
    6.2610    0.2635    0.0000 N   0  0  0  0  0  0  0  0  0  0  0  0
    4.4487   -2.5412    0.0000 N   0  0  0  0  0  0  0  0  0  0  0  0
    6.2610   -1.3460    0.0000 N   0  0  0  0  0  0  0  0  0  0  0  0
    4.4487    0.4588    0.0000 N   0  0  0  0  0  0  0  0  0  0  0  0
    3.5827   -1.0412    0.0000 N   0  0  0  0  0  0  0  0  0  0  0  0
    6.5716    1.2140    0.0000 C   0  0  3  0  0  0  0  0  0  0  0  0
    5.9852    2.0240    0.0000 C   0  0  3  0  0  0  0  0  0  0  0  0
    6.5744    2.8320    0.0000 C   0  0  3  0  0  0  0  0  0  0  0  0
    7.5249    2.5214    0.0000 C   0  0  3  0  0  0  0  0  0  0  0  0
    3.5827   -3.0412    0.0000 C   0  0  0  0  0  0  0  0  0  0  0  0
    2.6691   -2.6345    0.0000 C   0  0  0  0  0  0  0  0  0  0  0  0
    3.4782   -4.0358    0.0000 C   0  0  0  0  0  0  0  0  0  0  0  0
    2.5000   -4.2437    0.0000 C   0  0  0  0  0  0  0  0  0  0  0  0
    2.0000   -3.3776    0.0000 C   0  0  0  0  0  0  0  0  0  0  0  0
    8.3350    3.1078    0.0000 C   0  0  0  0  0  0  0  0  0  0  0  0
    5.3147   -0.0412    0.0000 C   0  0  0  0  0  0  0  0  0  0  0  0
    5.3147   -1.0412    0.0000 C   0  0  0  0  0  0  0  0  0  0  0  0
    4.4487   -1.5412    0.0000 C   0  0  0  0  0  0  0  0  0  0  0  0
    6.8446   -0.5412    0.0000 C   0  0  0  0  0  0  0  0  0  0  0  0
    3.5827   -0.0412    0.0000 C   0  0  0  0  0  0  0  0  0  0  0  0
    5.9591    1.1181    0.0000 H   0  0  0  0  0  0  0  0  0  0  0  0
    5.7047    2.5770    0.0000 H   0  0  0  0  0  0  0  0  0  0  0  0
    5.9622    2.9301    0.0000 H   0  0  0  0  0  0  0  0  0  0  0  0
    8.0769    2.2390    0.0000 H   0  0  0  0  0  0  0  0  0  0  0  0
    4.1026   -3.3789    0.0000 H   0  0  0  0  0  0  0  0  0  0  0  0
    3.5430   -4.6524    0.0000 H   0  0  0  0  0  0  0  0  0  0  0  0
    4.0982   -4.0358    0.0000 H   0  0  0  0  0  0  0  0  0  0  0  0
    2.9791   -2.0976    0.0000 H   0  0  0  0  0  0  0  0  0  0  0  0
    2.1675   -2.2701    0.0000 H   0  0  0  0  0  0  0  0  0  0  0  0
    1.5851   -2.9169    0.0000 H   0  0  0  0  0  0  0  0  0  0  0  0
    1.4984   -3.7421    0.0000 H   0  0  0  0  0  0  0  0  0  0  0  0
    1.9336   -4.4958    0.0000 H   0  0  0  0  0  0  0  0  0  0  0  0
    2.6916   -4.8333    0.0000 H   0  0  0  0  0  0  0  0  0  0  0  0
    4.9856   -2.8512    0.0000 H   0  0  0  0  0  0  0  0  0  0  0  0
    8.6826    3.6212    0.0000 H   0  0  0  0  0  0  0  0  0  0  0  0
    7.8897    3.5392    0.0000 H   0  0  0  0  0  0  0  0  0  0  0  0
    7.4646   -0.5412    0.0000 H   0  0  0  0  0  0  0  0  0  0  0  0
    4.6762    2.5632    0.0000 H   0  0  0  0  0  0  0  0  0  0  0  0
    6.6827    4.2437    0.0000 H   0  0  0  0  0  0  0  0  0  0  0  0
    9.7500    3.0630    0.0000 H   0  0  0  0  0  0  0  0  0  0  0  0
    3.0457    0.2688    0.0000 H   0  0  0  0  0  0  0  0  0  0  0  0
  1 10  1  0  0  0  0
  1 13  1  0  0  0  0
  2 11  1  0  0  0  0
  2 42  1  0  0  0  0
  3 12  1  0  0  0  0
  3 43  1  0  0  0  0
  4 19  1  0  0  0  0
  4 44  1  0  0  0  0
  5 10  1  0  0  0  0
  5 20  1  0  0  0  0
  5 23  1  0  0  0  0
  6 14  1  0  0  0  0
  6 22  1  0  0  0  0
  6 38  1  0  0  0  0
  7 21  1  0  0  0  0
  7 23  2  0  0  0  0
  8 20  2  0  0  0  0
  8 24  1  0  0  0  0
  9 22  1  0  0  0  0
  9 24  2  0  0  0  0
 10 11  1  0  0  0  0
 10 25  1  0  0  0  0
 11 12  1  0  0  0  0
 11 26  1  0  0  0  0
 12 13  1  0  0  0  0
 12 27  1  0  0  0  0
 13 19  1  0  0  0  0
 13 28  1  0  0  0  0
 14 15  1  0  0  0  0
 14 16  1  0  0  0  0
 14 29  1  0  0  0  0
 15 18  1  0  0  0  0
 15 32  1  0  0  0  0
 15 33  1  0  0  0  0
 16 17  1  0  0  0  0
 16 30  1  0  0  0  0
 16 31  1  0  0  0  0
 17 18  1  0  0  0  0
 17 36  1  0  0  0  0
 17 37  1  0  0  0  0
 18 34  1  0  0  0  0
 18 35  1  0  0  0  0
 19 39  1  0  0  0  0
 19 40  1  0  0  0  0
 20 21  1  0  0  0  0
 21 22  2  0  0  0  0
 23 41  1  0  0  0  0
 24 45  1  0  0  0  0
M  END
> <PUBCHEM_COMPOUND_CID>
4402

> <PUBCHEM_COMPOUND_CANONICALIZED>
1

> <PUBCHEM_CACTVS_COMPLEXITY>
438

> <PUBCHEM_CACTVS_HBOND_ACCEPTOR>
8

> <PUBCHEM_CACTVS_HBOND_DONOR>
4

> <PUBCHEM_CACTVS_ROTATABLE_BOND>
4

> <PUBCHEM_CACTVS_SUBSKEYS>
AAADceBzuAAAAAAAAAAAAAAAAAAAAeJEAAAsAAAAAAAAAFgB+AAAHgAQCAAACDzhlwYF8L/MFgCgAQZhZACAgC0REKABUKAoVBCDWAJAyEAeRAgPEALTACDwMAIAAAAAAAAAAAAAAAAAAAAAAAAAAAAAAA==

> <PUBCHEM_IUPAC_OPENEYE_NAME>
2-[6-(cyclopentylamino)purin-9-yl]-5-(hydroxymethyl)tetrahydrofuran-3,4-diol

> <PUBCHEM_IUPAC_CAS_NAME>
2-[6-(cyclopentylamino)-9-purinyl]-5-(hydroxymethyl)oxolane-3,4-diol

> <PUBCHEM_IUPAC_NAME>
2-[6-(cyclopentylamino)purin-9-yl]-5-(hydroxymethyl)oxolane-3,4-diol

> <PUBCHEM_IUPAC_SYSTEMATIC_NAME>
2-[6-(cyclopentylamino)purin-9-yl]-5-(hydroxymethyl)oxolane-3,4-diol

> <PUBCHEM_IUPAC_TRADITIONAL_NAME>
2-[6-(cyclopentylamino)purin-9-yl]-5-methylol-tetrahydrofuran-3,4-diol

> <PUBCHEM_IUPAC_INCHI>
InChI=1S/C15H21N5O4/c21-5-9-11(22)12(23)15(24-9)20-7-18-10-13(16-6-17-14(10)20)19-8-3-1-2-4-8/h6-9,11-12,15,21-23H,1-5H2,(H,16,17,19)

> <PUBCHEM_IUPAC_INCHIKEY>
SQMWSBKSHWARHU-UHFFFAOYSA-N

> <PUBCHEM_XLOGP3>
0.9

> <PUBCHEM_EXACT_MASS>
335.159354

> <PUBCHEM_MOLECULAR_FORMULA>
C15H21N5O4

> <PUBCHEM_MOLECULAR_WEIGHT>
335.35834

> <PUBCHEM_OPENEYE_CAN_SMILES>
C1CCC(C1)NC2=NC=NC3=C2N=CN3C4C(C(C(O4)CO)O)O

> <PUBCHEM_OPENEYE_ISO_SMILES>
C1CCC(C1)NC2=NC=NC3=C2N=CN3C4C(C(C(O4)CO)O)O

> <PUBCHEM_CACTVS_TPSA>
126

> <PUBCHEM_MONOISOTOPIC_WEIGHT>
335.159354

> <PUBCHEM_TOTAL_CHARGE>
0

> <PUBCHEM_HEAVY_ATOM_COUNT>
24

> <PUBCHEM_ATOM_DEF_STEREO_COUNT>
0

> <PUBCHEM_ATOM_UDEF_STEREO_COUNT>
4

> <PUBCHEM_BOND_DEF_STEREO_COUNT>
0

> <PUBCHEM_BOND_UDEF_STEREO_COUNT>
0

> <PUBCHEM_ISOTOPIC_ATOM_COUNT>
0

> <PUBCHEM_COMPONENT_COUNT>
1

> <PUBCHEM_CACTVS_TAUTO_COUNT>
3

> <PUBCHEM_COORDINATE_TYPE>
1
5
255

> <PUBCHEM_BONDANNOTATIONS>
13  19  3
11  2  3
20  21  8
21  22  8
12  3  3
10  5  3
5  20  8
5  23  8
7  21  8
7  23  8
8  20  8
8  24  8
9  22  8
9  24  8

$$$$

