582798
  -OEChem-06241222442D

 99101  0     1  0  0  0  0  0999 V2000
    4.6318    1.3208    0.0000 O   0  0  0  0  0  0  0  0  0  0  0  0
    7.5743    1.2014    0.0000 O   0  0  0  0  0  0  0  0  0  0  0  0
    6.3246   -1.8626    0.0000 O   0  0  0  0  0  0  0  0  0  0  0  0
    9.9280   -1.9883    0.0000 O   0  0  0  0  0  0  0  0  0  0  0  0
   10.4233    3.4112    0.0000 O   0  0  0  0  0  0  0  0  0  0  0  0
    9.5708   -0.2935    0.0000 O   0  0  0  0  0  0  0  0  0  0  0  0
    6.8725    2.7849    0.0000 N   0  0  0  0  0  0  0  0  0  0  0  0
    6.2781    0.7827    0.0000 N   0  0  0  0  0  0  0  0  0  0  0  0
    7.6138   -0.7059    0.0000 N   0  0  0  0  0  0  0  0  0  0  0  0
    9.4028    2.0117    0.0000 N   0  0  0  0  0  0  0  0  0  0  0  0
    4.6783   -2.9340    0.0000 N   0  0  0  0  0  0  0  0  0  0  0  0
    5.9209    2.4775    0.0000 C   0  0  3  0  0  0  0  0  0  0  0  0
    5.3345    3.2876    0.0000 C   0  0  0  0  0  0  0  0  0  0  0  0
    5.9237    4.0956    0.0000 C   0  0  0  0  0  0  0  0  0  0  0  0
    6.8742    3.7849    0.0000 C   0  0  0  0  0  0  0  0  0  0  0  0
    5.6103    1.5270    0.0000 C   0  0  0  0  0  0  0  0  0  0  0  0
    7.6805    2.1957    0.0000 C   0  0  0  0  0  0  0  0  0  0  0  0
    5.9674   -0.1678    0.0000 C   0  0  3  0  0  0  0  0  0  0  0  0
    4.9889   -0.3740    0.0000 C   0  0  0  0  0  0  0  0  0  0  0  0
    8.5948    2.6009    0.0000 C   0  0  0  0  0  0  0  0  0  0  0  0
    6.6353   -0.9121    0.0000 C   0  0  0  0  0  0  0  0  0  0  0  0
    4.6783   -1.3246    0.0000 C   0  0  0  0  0  0  0  0  0  0  0  0
    8.2816   -1.4502    0.0000 C   0  0  3  0  0  0  0  0  0  0  0  0
    7.9710   -2.4007    0.0000 C   0  0  0  0  0  0  0  0  0  0  0  0
    3.7320   -1.6293    0.0000 C   0  0  0  0  0  0  0  0  0  0  0  0
    8.6388   -3.1450    0.0000 C   0  0  0  0  0  0  0  0  0  0  0  0
    5.2619   -2.1293    0.0000 C   0  0  0  0  0  0  0  0  0  0  0  0
    3.7320   -2.6293    0.0000 C   0  0  0  0  0  0  0  0  0  0  0  0
   11.1250    1.8276    0.0000 C   0  0  0  0  0  0  0  0  0  0  0  0
   12.0392    2.2328    0.0000 C   0  0  0  0  0  0  0  0  0  0  0  0
   10.3170    2.4168    0.0000 C   0  0  0  0  0  0  0  0  0  0  0  0
   12.8472    1.6436    0.0000 C   0  0  0  0  0  0  0  0  0  0  0  0
   13.7615    2.0488    0.0000 C   0  0  0  0  0  0  0  0  0  0  0  0
   14.5695    1.4596    0.0000 C   0  0  0  0  0  0  0  0  0  0  0  0
    9.2601   -1.2440    0.0000 C   0  0  0  0  0  0  0  0  0  0  0  0
    8.3282   -4.0956    0.0000 C   0  0  0  0  0  0  0  0  0  0  0  0
    9.6173   -2.9388    0.0000 C   0  0  0  0  0  0  0  0  0  0  0  0
   15.4837    1.8647    0.0000 C   0  0  0  0  0  0  0  0  0  0  0  0
    2.8660   -1.1293    0.0000 C   0  0  0  0  0  0  0  0  0  0  0  0
   16.2917    1.2756    0.0000 C   0  0  0  0  0  0  0  0  0  0  0  0
    2.8660   -3.1293    0.0000 C   0  0  0  0  0  0  0  0  0  0  0  0
    2.0000   -1.6293    0.0000 C   0  0  0  0  0  0  0  0  0  0  0  0
    2.0000   -2.6293    0.0000 C   0  0  0  0  0  0  0  0  0  0  0  0
   17.2060    1.6807    0.0000 C   0  0  0  0  0  0  0  0  0  0  0  0
   18.0140    1.0915    0.0000 C   0  0  0  0  0  0  0  0  0  0  0  0
   10.9065   -1.7821    0.0000 C   0  0  0  0  0  0  0  0  0  0  0  0
    6.3586    2.0384    0.0000 H   0  0  0  0  0  0  0  0  0  0  0  0
    4.8745    3.7032    0.0000 H   0  0  0  0  0  0  0  0  0  0  0  0
    4.8731    2.8735    0.0000 H   0  0  0  0  0  0  0  0  0  0  0  0
    6.1769    4.6615    0.0000 H   0  0  0  0  0  0  0  0  0  0  0  0
    5.3873    4.4065    0.0000 H   0  0  0  0  0  0  0  0  0  0  0  0
    7.4907    3.7190    0.0000 H   0  0  0  0  0  0  0  0  0  0  0  0
    7.0042    4.3911    0.0000 H   0  0  0  0  0  0  0  0  0  0  0  0
    5.5534    0.2936    0.0000 H   0  0  0  0  0  0  0  0  0  0  0  0
    6.8848    0.9106    0.0000 H   0  0  0  0  0  0  0  0  0  0  0  0
    4.9684    0.2456    0.0000 H   0  0  0  0  0  0  0  0  0  0  0  0
    4.3751   -0.2867    0.0000 H   0  0  0  0  0  0  0  0  0  0  0  0
    9.0415    3.0308    0.0000 H   0  0  0  0  0  0  0  0  0  0  0  0
    8.2490    3.1155    0.0000 H   0  0  0  0  0  0  0  0  0  0  0  0
    8.4742   -0.8609    0.0000 H   0  0  0  0  0  0  0  0  0  0  0  0
    7.8064   -0.1166    0.0000 H   0  0  0  0  0  0  0  0  0  0  0  0
    7.4240   -2.1087    0.0000 H   0  0  0  0  0  0  0  0  0  0  0  0
    7.5884   -2.8886    0.0000 H   0  0  0  0  0  0  0  0  0  0  0  0
    9.3369    1.3952    0.0000 H   0  0  0  0  0  0  0  0  0  0  0  0
    8.0321   -3.2729    0.0000 H   0  0  0  0  0  0  0  0  0  0  0  0
    5.8819   -2.1293    0.0000 H   0  0  0  0  0  0  0  0  0  0  0  0
   12.4860    2.6627    0.0000 H   0  0  0  0  0  0  0  0  0  0  0  0
   11.6934    2.7474    0.0000 H   0  0  0  0  0  0  0  0  0  0  0  0
   10.6783    1.3977    0.0000 H   0  0  0  0  0  0  0  0  0  0  0  0
   11.4708    1.3130    0.0000 H   0  0  0  0  0  0  0  0  0  0  0  0
   12.4005    1.2137    0.0000 H   0  0  0  0  0  0  0  0  0  0  0  0
   13.1931    1.1290    0.0000 H   0  0  0  0  0  0  0  0  0  0  0  0
   14.2082    2.4787    0.0000 H   0  0  0  0  0  0  0  0  0  0  0  0
   13.4157    2.5634    0.0000 H   0  0  0  0  0  0  0  0  0  0  0  0
    4.8709   -3.5234    0.0000 H   0  0  0  0  0  0  0  0  0  0  0  0
   14.1228    1.0297    0.0000 H   0  0  0  0  0  0  0  0  0  0  0  0
   14.9153    0.9450    0.0000 H   0  0  0  0  0  0  0  0  0  0  0  0
   15.9305    2.2947    0.0000 H   0  0  0  0  0  0  0  0  0  0  0  0
   15.1379    2.3794    0.0000 H   0  0  0  0  0  0  0  0  0  0  0  0
    7.7388   -3.9029    0.0000 H   0  0  0  0  0  0  0  0  0  0  0  0
    8.1355   -4.6849    0.0000 H   0  0  0  0  0  0  0  0  0  0  0  0
    8.9175   -4.2882    0.0000 H   0  0  0  0  0  0  0  0  0  0  0  0
    9.7452   -3.5455    0.0000 H   0  0  0  0  0  0  0  0  0  0  0  0
   10.2240   -2.8110    0.0000 H   0  0  0  0  0  0  0  0  0  0  0  0
    9.4895   -2.3321    0.0000 H   0  0  0  0  0  0  0  0  0  0  0  0
    2.8660   -0.5093    0.0000 H   0  0  0  0  0  0  0  0  0  0  0  0
   15.8450    0.8456    0.0000 H   0  0  0  0  0  0  0  0  0  0  0  0
   16.6376    0.7610    0.0000 H   0  0  0  0  0  0  0  0  0  0  0  0
    2.8660   -3.7493    0.0000 H   0  0  0  0  0  0  0  0  0  0  0  0
    1.4631   -1.3193    0.0000 H   0  0  0  0  0  0  0  0  0  0  0  0
   17.6527    2.1106    0.0000 H   0  0  0  0  0  0  0  0  0  0  0  0
   16.8602    2.1953    0.0000 H   0  0  0  0  0  0  0  0  0  0  0  0
    1.4631   -2.9393    0.0000 H   0  0  0  0  0  0  0  0  0  0  0  0
   17.6487    0.5906    0.0000 H   0  0  0  0  0  0  0  0  0  0  0  0
   18.5149    0.7262    0.0000 H   0  0  0  0  0  0  0  0  0  0  0  0
   18.3793    1.5925    0.0000 H   0  0  0  0  0  0  0  0  0  0  0  0
   11.0343   -2.3888    0.0000 H   0  0  0  0  0  0  0  0  0  0  0  0
   11.5132   -1.6542    0.0000 H   0  0  0  0  0  0  0  0  0  0  0  0
   10.7786   -1.1754    0.0000 H   0  0  0  0  0  0  0  0  0  0  0  0
  1 16  2  0  0  0  0
  2 17  2  0  0  0  0
  3 21  2  0  0  0  0
  4 35  1  0  0  0  0
  4 46  1  0  0  0  0
  5 31  2  0  0  0  0
  6 35  2  0  0  0  0
  7 12  1  0  0  0  0
  7 15  1  0  0  0  0
  7 17  1  0  0  0  0
  8 16  1  0  0  0  0
  8 18  1  0  0  0  0
  8 55  1  0  0  0  0
  9 21  1  0  0  0  0
  9 23  1  0  0  0  0
  9 61  1  0  0  0  0
 10 20  1  0  0  0  0
 10 31  1  0  0  0  0
 10 64  1  0  0  0  0
 11 27  1  0  0  0  0
 11 28  1  0  0  0  0
 11 75  1  0  0  0  0
 12 13  1  0  0  0  0
 12 16  1  0  0  0  0
 12 47  1  0  0  0  0
 13 14  1  0  0  0  0
 13 48  1  0  0  0  0
 13 49  1  0  0  0  0
 14 15  1  0  0  0  0
 14 50  1  0  0  0  0
 14 51  1  0  0  0  0
 15 52  1  0  0  0  0
 15 53  1  0  0  0  0
 17 20  1  0  0  0  0
 18 19  1  0  0  0  0
 18 21  1  0  0  0  0
 18 54  1  0  0  0  0
 19 22  1  0  0  0  0
 19 56  1  0  0  0  0
 19 57  1  0  0  0  0
 20 58  1  0  0  0  0
 20 59  1  0  0  0  0
 22 25  1  0  0  0  0
 22 27  2  0  0  0  0
 23 24  1  0  0  0  0
 23 35  1  0  0  0  0
 23 60  1  0  0  0  0
 24 26  1  0  0  0  0
 24 62  1  0  0  0  0
 24 63  1  0  0  0  0
 25 28  1  0  0  0  0
 25 39  2  0  0  0  0
 26 36  1  0  0  0  0
 26 37  1  0  0  0  0
 26 65  1  0  0  0  0
 27 66  1  0  0  0  0
 28 41  2  0  0  0  0
 29 30  1  0  0  0  0
 29 31  1  0  0  0  0
 29 69  1  0  0  0  0
 29 70  1  0  0  0  0
 30 32  1  0  0  0  0
 30 67  1  0  0  0  0
 30 68  1  0  0  0  0
 32 33  1  0  0  0  0
 32 71  1  0  0  0  0
 32 72  1  0  0  0  0
 33 34  1  0  0  0  0
 33 73  1  0  0  0  0
 33 74  1  0  0  0  0
 34 38  1  0  0  0  0
 34 76  1  0  0  0  0
 34 77  1  0  0  0  0
 36 80  1  0  0  0  0
 36 81  1  0  0  0  0
 36 82  1  0  0  0  0
 37 83  1  0  0  0  0
 37 84  1  0  0  0  0
 37 85  1  0  0  0  0
 38 40  1  0  0  0  0
 38 78  1  0  0  0  0
 38 79  1  0  0  0  0
 39 42  1  0  0  0  0
 39 86  1  0  0  0  0
 40 44  1  0  0  0  0
 40 87  1  0  0  0  0
 40 88  1  0  0  0  0
 41 43  1  0  0  0  0
 41 89  1  0  0  0  0
 42 43  2  0  0  0  0
 42 90  1  0  0  0  0
 43 93  1  0  0  0  0
 44 45  1  0  0  0  0
 44 91  1  0  0  0  0
 44 92  1  0  0  0  0
 45 94  1  0  0  0  0
 45 95  1  0  0  0  0
 45 96  1  0  0  0  0
 46 97  1  0  0  0  0
 46 98  1  0  0  0  0
 46 99  1  0  0  0  0
M  END
> <PUBCHEM_COMPOUND_CID>
582798

> <PUBCHEM_COMPOUND_CANONICALIZED>
1

> <PUBCHEM_CACTVS_COMPLEXITY>
1010

> <PUBCHEM_CACTVS_HBOND_ACCEPTOR>
6

> <PUBCHEM_CACTVS_HBOND_DONOR>
4

> <PUBCHEM_CACTVS_ROTATABLE_BOND>
20

> <PUBCHEM_CACTVS_SUBSKEYS>
AAADcfB/uAAAAAAAAAAAAAAAAAAAAWLAAAAwAAAAAAAAAFgB8AAAHgAQAAAADSjBngY+yPPJlACoAzX3XACCgCAxAiAI2aG4ZJgKYPLAkbGVIAhklgDYyAeYicCOgAAAAAACAAAAAAAAAAQAAAAAAAAAAA==

> <PUBCHEM_IUPAC_OPENEYE_NAME>
methyl 2-[[2-[[1-[2-(decanoylamino)acetyl]pyrrolidine-2-carbonyl]amino]-3-(1H-indol-3-yl)propanoyl]amino]-4-methyl-pentanoate

> <PUBCHEM_IUPAC_CAS_NAME>
2-[[3-(1H-indol-3-yl)-1-oxo-2-[[oxo-[1-[1-oxo-2-(1-oxodecylamino)ethyl]-2-pyrrolidinyl]methyl]amino]propyl]amino]-4-methylpentanoic acid methyl ester

> <PUBCHEM_IUPAC_NAME>
methyl 2-[[2-[[1-[2-(decanoylamino)acetyl]pyrrolidine-2-carbonyl]amino]-3-(1H-indol-3-yl)propanoyl]amino]-4-methylpentanoate

> <PUBCHEM_IUPAC_SYSTEMATIC_NAME>
methyl 2-[[2-[[1-[2-(decanoylamino)ethanoyl]pyrrolidin-2-yl]carbonylamino]-3-(1H-indol-3-yl)propanoyl]amino]-4-methyl-pentanoate

> <PUBCHEM_IUPAC_TRADITIONAL_NAME>
2-[[2-[[1-[2-(caprylamino)acetyl]prolyl]amino]-3-(1H-indol-3-yl)propanoyl]amino]-4-methyl-valeric acid methyl ester

> <PUBCHEM_IUPAC_INCHI>
InChI=1S/C35H53N5O6/c1-5-6-7-8-9-10-11-18-31(41)37-23-32(42)40-19-14-17-30(40)34(44)38-28(21-25-22-36-27-16-13-12-15-26(25)27)33(43)39-29(20-24(2)3)35(45)46-4/h12-13,15-16,22,24,28-30,36H,5-11,14,17-21,23H2,1-4H3,(H,37,41)(H,38,44)(H,39,43)

> <PUBCHEM_IUPAC_INCHIKEY>
FWZUUNAMCYNOMK-UHFFFAOYSA-N

> <PUBCHEM_XLOGP3>
5.8

> <PUBCHEM_EXACT_MASS>
639.399584

> <PUBCHEM_MOLECULAR_FORMULA>
C35H53N5O6

> <PUBCHEM_MOLECULAR_WEIGHT>
639.82522

> <PUBCHEM_OPENEYE_CAN_SMILES>
CCCCCCCCCC(=O)NCC(=O)N1CCCC1C(=O)NC(CC2=CNC3=CC=CC=C32)C(=O)NC(CC(C)C)C(=O)OC

> <PUBCHEM_OPENEYE_ISO_SMILES>
CCCCCCCCCC(=O)NCC(=O)N1CCCC1C(=O)NC(CC2=CNC3=CC=CC=C32)C(=O)NC(CC(C)C)C(=O)OC

> <PUBCHEM_CACTVS_TPSA>
150

> <PUBCHEM_MONOISOTOPIC_WEIGHT>
639.399584

> <PUBCHEM_TOTAL_CHARGE>
0

> <PUBCHEM_HEAVY_ATOM_COUNT>
46

> <PUBCHEM_ATOM_DEF_STEREO_COUNT>
0

> <PUBCHEM_ATOM_UDEF_STEREO_COUNT>
3

> <PUBCHEM_BOND_DEF_STEREO_COUNT>
0

> <PUBCHEM_BOND_UDEF_STEREO_COUNT>
0

> <PUBCHEM_ISOTOPIC_ATOM_COUNT>
0

> <PUBCHEM_COMPONENT_COUNT>
1

> <PUBCHEM_CACTVS_TAUTO_COUNT>
8

> <PUBCHEM_COORDINATE_TYPE>
1
5
255

> <PUBCHEM_BONDANNOTATIONS>
11  27  8
11  28  8
12  16  3
18  19  3
22  25  8
22  27  8
23  24  3
25  28  8
25  39  8
28  41  8
39  42  8
41  43  8
42  43  8

$$$$

