11901
  -OEChem-06261206153D

 18 19  0     0  0  0  0  0  0999 V2000
   -2.2220    2.1845    0.0001 O   0  0  0  0  0  0  0  0  0  0  0  0
   -4.0368   -0.0258   -0.0012 O   0  0  0  0  0  0  0  0  0  0  0  0
    4.0900   -0.4580    0.0004 O   0  0  0  0  0  0  0  0  0  0  0  0
    3.2167    1.6927    0.0003 O   0  5  0  0  0  0  0  0  0  0  0  0
   -2.1183   -1.3836    0.0011 N   0  0  0  0  0  0  0  0  0  0  0  0
    2.9965    0.4435    0.0000 N   0  3  0  0  0  0  0  0  0  0  0  0
   -0.5889    0.3744    0.0001 C   0  0  0  0  0  0  0  0  0  0  0  0
   -0.8498   -1.0783    0.0005 C   0  0  0  0  0  0  0  0  0  0  0  0
    0.6276    0.9081   -0.0004 C   0  0  0  0  0  0  0  0  0  0  0  0
    1.7760   -0.0222   -0.0006 C   0  0  0  0  0  0  0  0  0  0  0  0
    0.2987   -1.9914   -0.0001 C   0  0  0  0  0  0  0  0  0  0  0  0
   -1.8991    1.0256    0.0004 C   0  0  0  0  0  0  0  0  0  0  0  0
    1.5374   -1.4860   -0.0009 C   0  0  0  0  0  0  0  0  0  0  0  0
   -2.8279   -0.1836    0.0004 C   0  0  0  0  0  0  0  0  0  0  0  0
    0.7750    1.9807   -0.0006 H   0  0  0  0  0  0  0  0  0  0  0  0
    0.1165   -3.0589   -0.0002 H   0  0  0  0  0  0  0  0  0  0  0  0
    2.3829   -2.1644   -0.0015 H   0  0  0  0  0  0  0  0  0  0  0  0
    4.8469    0.1519    0.0008 H   0  0  0  0  0  0  0  0  0  0  0  0
  1 12  2  0  0  0  0
  2 14  2  0  0  0  0
  3  6  1  0  0  0  0
  3 18  1  0  0  0  0
  4  6  1  0  0  0  0
  5  8  2  0  0  0  0
  5 14  1  0  0  0  0
  6 10  2  0  0  0  0
  7  8  1  0  0  0  0
  7  9  2  0  0  0  0
  7 12  1  0  0  0  0
  8 11  1  0  0  0  0
  9 10  1  0  0  0  0
  9 15  1  0  0  0  0
 10 13  1  0  0  0  0
 11 13  2  0  0  0  0
 11 16  1  0  0  0  0
 12 14  1  0  0  0  0
 13 17  1  0  0  0  0
M  CHG  2   4  -1   6   1
M  END
> <PUBCHEM_COMPOUND_CID>
11901

> <PUBCHEM_CONFORMER_RMSD>
0.4

> <PUBCHEM_CONFORMER_DIVERSEORDER>
1

> <PUBCHEM_MMFF94_PARTIAL_CHARGES>
18
1 -0.57
10 -0.02
11 -0.14
12 0.56
13 -0.14
14 0.78
15 0.15
16 0.15
17 0.15
18 0.4
2 -0.57
3 -0.54
4 -0.63
5 -0.66
6 0.77
7 0.03
8 0.42
9 -0.14

> <PUBCHEM_EFFECTIVE_ROTOR_COUNT>
0

> <PUBCHEM_PHARMACOPHORE_FEATURES>
10
1 1 acceptor
1 2 acceptor
1 3 acceptor
1 3 anion
1 4 acceptor
1 4 anion
1 5 acceptor
1 5 donor
5 5 7 8 12 14 rings
6 7 8 9 10 11 13 rings

> <PUBCHEM_HEAVY_ATOM_COUNT>
14

> <PUBCHEM_ATOM_DEF_STEREO_COUNT>
0

> <PUBCHEM_ATOM_UDEF_STEREO_COUNT>
0

> <PUBCHEM_BOND_DEF_STEREO_COUNT>
0

> <PUBCHEM_BOND_UDEF_STEREO_COUNT>
1

> <PUBCHEM_ISOTOPIC_ATOM_COUNT>
0

> <PUBCHEM_COMPONENT_COUNT>
1

> <PUBCHEM_CACTVS_TAUTO_COUNT>
6

> <PUBCHEM_CONFORMER_ID>
00002E7D00000001

> <PUBCHEM_MMFF94_ENERGY>
39.73

> <PUBCHEM_FEATURE_SELFOVERLAP>
50.981

> <PUBCHEM_SHAPE_FINGERPRINT>
10608611 8 18410577318136094436
10967382 1 18410856551049854983
11132069 177 18336272249379514210
13380535 76 18411419518241667979
14325111 11 18410855456123481248
14614273 12 18272376416275687101
15536298 74 18261956366149249990
15775835 57 18334292041690942067
16945 1 18410855456060203719
18186145 218 18186793686855027088
193761 8 17906452477966952839
20510252 161 18334011662041928440
20645476 183 17773298046879174694
20871998 184 18116707409517518111
21501502 16 18267025148933252443
21524375 3 18409167714317456354
2334 1 17762055441463195663
23402539 116 18335713718931687879
23402655 69 18263658402044169485
23463225 33 18342461473626420498
23552423 10 18196934581171366771
23559900 14 18187644735399936126
2748010 2 18194962065863940263
528886 8 18410297982068817651
53812653 166 18333736788440254264
69090 78 18113904835818957494
7364860 26 18191585461402803470

> <PUBCHEM_SHAPE_MULTIPOLES>
254.67
5.7
1.91
0.58
1.36
0.04
0
1.19
0
-0.02
0
-0.01
-0.02
0

> <PUBCHEM_SHAPE_SELFOVERLAP>
558.264

> <PUBCHEM_SHAPE_VOLUME>
138.3

> <PUBCHEM_COORDINATE_TYPE>
2
5
10

$$$$

