12508
  -OEChem-06261207013D

 20 19  0     0  0  0  0  0  0999 V2000
    0.4582   -0.6805   -0.2123 O   0  0  0  0  0  0  0  0  0  0  0  0
   -0.8752    1.0815   -0.8764 O   0  0  0  0  0  0  0  0  0  0  0  0
    1.6427    0.1226   -0.1958 C   0  0  0  0  0  0  0  0  0  0  0  0
    1.5764    1.0885    0.9774 C   0  0  0  0  0  0  0  0  0  0  0  0
    2.8614   -0.7840   -0.1154 C   0  0  0  0  0  0  0  0  0  0  0  0
   -1.8024   -0.7737    0.3919 C   0  0  0  0  0  0  0  0  0  0  0  0
   -0.7177    0.0079   -0.3117 C   0  0  0  0  0  0  0  0  0  0  0  0
   -3.1433   -0.0623    0.3423 C   0  0  0  0  0  0  0  0  0  0  0  0
    1.7010    0.6842   -1.1365 H   0  0  0  0  0  0  0  0  0  0  0  0
    2.5181    1.6371    1.0840 H   0  0  0  0  0  0  0  0  0  0  0  0
    0.7810    1.8308    0.8645 H   0  0  0  0  0  0  0  0  0  0  0  0
    1.3806    0.5533    1.9135 H   0  0  0  0  0  0  0  0  0  0  0  0
    3.7906   -0.2063   -0.1222 H   0  0  0  0  0  0  0  0  0  0  0  0
    2.8753   -1.4795   -0.9615 H   0  0  0  0  0  0  0  0  0  0  0  0
    2.8338   -1.3955    0.7933 H   0  0  0  0  0  0  0  0  0  0  0  0
   -1.8927   -1.7526   -0.0904 H   0  0  0  0  0  0  0  0  0  0  0  0
   -1.5059   -0.9139    1.4368 H   0  0  0  0  0  0  0  0  0  0  0  0
   -3.4706    0.0881   -0.6918 H   0  0  0  0  0  0  0  0  0  0  0  0
   -3.9065   -0.6506    0.8609 H   0  0  0  0  0  0  0  0  0  0  0  0
   -3.0845    0.9209    0.8211 H   0  0  0  0  0  0  0  0  0  0  0  0
  1  3  1  0  0  0  0
  1  7  1  0  0  0  0
  2  7  2  0  0  0  0
  3  4  1  0  0  0  0
  3  5  1  0  0  0  0
  3  9  1  0  0  0  0
  4 10  1  0  0  0  0
  4 11  1  0  0  0  0
  4 12  1  0  0  0  0
  5 13  1  0  0  0  0
  5 14  1  0  0  0  0
  5 15  1  0  0  0  0
  6  7  1  0  0  0  0
  6  8  1  0  0  0  0
  6 16  1  0  0  0  0
  6 17  1  0  0  0  0
  8 18  1  0  0  0  0
  8 19  1  0  0  0  0
  8 20  1  0  0  0  0
M  END
> <PUBCHEM_COMPOUND_CID>
12508

> <PUBCHEM_CONFORMER_RMSD>
0.6

> <PUBCHEM_CONFORMER_DIVERSEORDER>
2
17
12
6
7
16
10
3
13
1
4
8
11
9
5
15
14

> <PUBCHEM_MMFF94_PARTIAL_CHARGES>
5
1 -0.43
2 -0.57
3 0.28
6 0.06
7 0.66

> <PUBCHEM_EFFECTIVE_ROTOR_COUNT>
3

> <PUBCHEM_PHARMACOPHORE_FEATURES>
3
1 2 acceptor
1 8 hydrophobe
3 3 4 5 hydrophobe

> <PUBCHEM_HEAVY_ATOM_COUNT>
8

> <PUBCHEM_ATOM_DEF_STEREO_COUNT>
0

> <PUBCHEM_ATOM_UDEF_STEREO_COUNT>
0

> <PUBCHEM_BOND_DEF_STEREO_COUNT>
0

> <PUBCHEM_BOND_UDEF_STEREO_COUNT>
0

> <PUBCHEM_ISOTOPIC_ATOM_COUNT>
0

> <PUBCHEM_COMPONENT_COUNT>
1

> <PUBCHEM_CACTVS_TAUTO_COUNT>
1

> <PUBCHEM_CONFORMER_ID>
000030DC00000002

> <PUBCHEM_MMFF94_ENERGY>
8.0884

> <PUBCHEM_FEATURE_SELFOVERLAP>
15.223

> <PUBCHEM_SHAPE_FINGERPRINT>
10857977 72 18059016081747203297
12897270 3 12175620663647911954
12932741 1 18270696323479128220
12932764 1 18411989056743207335
14390081 3 17531246115316482793
23552333 60 14620524414716999848
29004967 10 18412823560245930226
5084963 1 18342455958571790824
5460574 1 7132436804468508159

> <PUBCHEM_SHAPE_MULTIPOLES>
152.9
4.32
1.08
0.85
1
0.16
0
-0.66
-0.63
-0.4
-0.09
0.04
0.19
0.36

> <PUBCHEM_SHAPE_SELFOVERLAP>
277.966

> <PUBCHEM_SHAPE_VOLUME>
98.7

> <PUBCHEM_COORDINATE_TYPE>
2
5
10

$$$$

