9449
  -OEChem-06261203422D

 37 38  0     0  0  0  0  0  0999 V2000
    1.4030    4.3082    0.0000 S   0  0  0  0  0  0  0  0  0  0  0  0
    2.2690    4.8082    0.0000 O   0  0  0  0  0  0  0  0  0  0  0  0
    0.5369    3.8082    0.0000 O   0  0  0  0  0  0  0  0  0  0  0  0
    0.9030    5.1742    0.0000 O   0  0  0  0  0  0  0  0  0  0  0  0
    1.9030    3.4422    0.0000 O   0  0  0  0  0  0  0  0  0  0  0  0
    8.0175    1.8047    0.0000 N   0  0  0  0  0  0  0  0  0  0  0  0
    8.0175    7.1111    0.0000 N   0  0  0  0  0  0  0  0  0  0  0  0
    8.0175    5.5016    0.0000 N   0  0  0  0  0  0  0  0  0  0  0  0
    8.0175    0.1953    0.0000 N   0  0  0  0  0  0  0  0  0  0  0  0
    6.2052    5.3064    0.0000 N   0  0  0  0  0  0  0  0  0  0  0  0
    6.2052    0.0000    0.0000 N   0  0  0  0  0  0  0  0  0  0  0  0
    5.3392    6.8064    0.0000 N   0  0  0  0  0  0  0  0  0  0  0  0
    5.3392    1.5000    0.0000 N   0  0  0  0  0  0  0  0  0  0  0  0
    6.2052    3.0000    0.0000 N   0  0  0  0  0  0  0  0  0  0  0  0
    6.2052    8.3064    0.0000 N   0  0  0  0  0  0  0  0  0  0  0  0
    7.0713    1.5000    0.0000 C   0  0  0  0  0  0  0  0  0  0  0  0
    7.0713    6.8064    0.0000 C   0  0  0  0  0  0  0  0  0  0  0  0
    7.0713    0.5000    0.0000 C   0  0  0  0  0  0  0  0  0  0  0  0
    7.0713    5.8064    0.0000 C   0  0  0  0  0  0  0  0  0  0  0  0
    6.2052    2.0000    0.0000 C   0  0  0  0  0  0  0  0  0  0  0  0
    6.2052    7.3064    0.0000 C   0  0  0  0  0  0  0  0  0  0  0  0
    8.6011    1.0000    0.0000 C   0  0  0  0  0  0  0  0  0  0  0  0
    8.6011    6.3064    0.0000 C   0  0  0  0  0  0  0  0  0  0  0  0
    5.3392    0.5000    0.0000 C   0  0  0  0  0  0  0  0  0  0  0  0
    5.3392    5.8064    0.0000 C   0  0  0  0  0  0  0  0  0  0  0  0
    8.2101    7.7004    0.0000 H   0  0  0  0  0  0  0  0  0  0  0  0
    8.2101    2.3940    0.0000 H   0  0  0  0  0  0  0  0  0  0  0  0
    9.2211    6.3064    0.0000 H   0  0  0  0  0  0  0  0  0  0  0  0
    9.2211    1.0000    0.0000 H   0  0  0  0  0  0  0  0  0  0  0  0
    4.8023    5.4964    0.0000 H   0  0  0  0  0  0  0  0  0  0  0  0
    4.8023    0.1900    0.0000 H   0  0  0  0  0  0  0  0  0  0  0  0
    5.6683    8.6164    0.0000 H   0  0  0  0  0  0  0  0  0  0  0  0
    6.7422    8.6164    0.0000 H   0  0  0  0  0  0  0  0  0  0  0  0
    5.6683    3.3100    0.0000 H   0  0  0  0  0  0  0  0  0  0  0  0
    6.7422    3.3100    0.0000 H   0  0  0  0  0  0  0  0  0  0  0  0
    2.8059    4.4982    0.0000 H   0  0  0  0  0  0  0  0  0  0  0  0
    0.0000    4.1182    0.0000 H   0  0  0  0  0  0  0  0  0  0  0  0
  1  2  1  0  0  0  0
  1  3  1  0  0  0  0
  1  4  2  0  0  0  0
  1  5  2  0  0  0  0
  2 36  1  0  0  0  0
  3 37  1  0  0  0  0
  6 16  1  0  0  0  0
  6 22  1  0  0  0  0
  6 27  1  0  0  0  0
  7 17  1  0  0  0  0
  7 23  1  0  0  0  0
  7 26  1  0  0  0  0
  8 19  1  0  0  0  0
  8 23  2  0  0  0  0
  9 18  1  0  0  0  0
  9 22  2  0  0  0  0
 10 19  2  0  0  0  0
 10 25  1  0  0  0  0
 11 18  2  0  0  0  0
 11 24  1  0  0  0  0
 12 21  1  0  0  0  0
 12 25  2  0  0  0  0
 13 20  1  0  0  0  0
 13 24  2  0  0  0  0
 14 20  1  0  0  0  0
 14 34  1  0  0  0  0
 14 35  1  0  0  0  0
 15 21  1  0  0  0  0
 15 32  1  0  0  0  0
 15 33  1  0  0  0  0
 16 18  1  0  0  0  0
 16 20  2  0  0  0  0
 17 19  1  0  0  0  0
 17 21  2  0  0  0  0
 22 29  1  0  0  0  0
 23 28  1  0  0  0  0
 24 31  1  0  0  0  0
 25 30  1  0  0  0  0
M  END
> <PUBCHEM_COMPOUND_CID>
9449

> <PUBCHEM_COMPOUND_CANONICALIZED>
1

> <PUBCHEM_CACTVS_COMPLEXITY>
209

> <PUBCHEM_CACTVS_HBOND_ACCEPTOR>
12

> <PUBCHEM_CACTVS_HBOND_DONOR>
6

> <PUBCHEM_CACTVS_ROTATABLE_BOND>
0

> <PUBCHEM_CACTVS_SUBSKEYS>
AAADccBz+ABAAAAAAAAAAAAAAAAAAWLAAAAsWAAAAAAAAFgB/gAAHAAQCAAACAgBFwQF8L7JkICgAQZhZDCAgC2REKABUaAoVBCASABASEAUBAgIAAJAACAAAAAAAAAAAAAAAAAAAAAAAAAAAAAAAAAAAA==

> <PUBCHEM_IUPAC_OPENEYE_NAME>
7H-purin-6-amine; sulfuric acid

> <PUBCHEM_IUPAC_CAS_NAME>
7H-purin-6-amine; sulfuric acid

> <PUBCHEM_IUPAC_NAME>
7H-purin-6-amine; sulfuric acid

> <PUBCHEM_IUPAC_SYSTEMATIC_NAME>
7H-purin-6-amine; sulfuric acid

> <PUBCHEM_IUPAC_TRADITIONAL_NAME>
7H-adenine; sulfuric acid

> <PUBCHEM_IUPAC_INCHI>
InChI=1S/2C5H5N5.H2O4S/c2*6-4-3-5(9-1-7-3)10-2-8-4;1-5(2,3)4/h2*1-2H,(H3,6,7,8,9,10);(H2,1,2,3,4)

> <PUBCHEM_IUPAC_INCHIKEY>
LQXHSCOPYJCOMD-UHFFFAOYSA-N

> <PUBCHEM_EXACT_MASS>
368.07637

> <PUBCHEM_MOLECULAR_FORMULA>
C10H12N10O4S

> <PUBCHEM_MOLECULAR_WEIGHT>
368.33188

> <PUBCHEM_OPENEYE_CAN_SMILES>
C1=NC2=C(N1)C(=NC=N2)N.C1=NC2=C(N1)C(=NC=N2)N.OS(=O)(=O)O

> <PUBCHEM_OPENEYE_ISO_SMILES>
C1=NC2=C(N1)C(=NC=N2)N.C1=NC2=C(N1)C(=NC=N2)N.OS(=O)(=O)O

> <PUBCHEM_CACTVS_TPSA>
244

> <PUBCHEM_MONOISOTOPIC_WEIGHT>
368.07637

> <PUBCHEM_TOTAL_CHARGE>
0

> <PUBCHEM_HEAVY_ATOM_COUNT>
25

> <PUBCHEM_ATOM_DEF_STEREO_COUNT>
0

> <PUBCHEM_ATOM_UDEF_STEREO_COUNT>
0

> <PUBCHEM_BOND_DEF_STEREO_COUNT>
0

> <PUBCHEM_BOND_UDEF_STEREO_COUNT>
0

> <PUBCHEM_ISOTOPIC_ATOM_COUNT>
0

> <PUBCHEM_COMPONENT_COUNT>
3

> <PUBCHEM_CACTVS_TAUTO_COUNT>
36

> <PUBCHEM_COORDINATE_TYPE>
1
5
255

> <PUBCHEM_BONDANNOTATIONS>
10  19  8
10  25  8
11  18  8
11  24  8
12  21  8
12  25  8
13  20  8
13  24  8
16  18  8
16  20  8
17  19  8
17  21  8
6  16  8
6  22  8
7  17  8
7  23  8
8  19  8
8  23  8
9  18  8
9  22  8

$$$$

