9138
  -OEChem-06261203263D

 44 50  0     0  0  0  0  0  0999 V2000
    2.5290    0.2557    0.0006 C   0  0  0  0  0  0  0  0  0  0  0  0
    1.4500   -0.6681    0.0014 C   0  0  0  0  0  0  0  0  0  0  0  0
    0.0965   -0.1781    0.0017 C   0  0  0  0  0  0  0  0  0  0  0  0
    3.8800   -0.1931   -0.0001 C   0  0  0  0  0  0  0  0  0  0  0  0
    2.2734    1.6436    0.0005 C   0  0  0  0  0  0  0  0  0  0  0  0
   -0.1301    1.2174    0.0013 C   0  0  0  0  0  0  0  0  0  0  0  0
    0.9535    2.1022    0.0007 C   0  0  0  0  0  0  0  0  0  0  0  0
    4.1694   -1.5745   -0.0003 C   0  0  0  0  0  0  0  0  0  0  0  0
    4.9472    0.7380   -0.0010 C   0  0  0  0  0  0  0  0  0  0  0  0
   -2.3682   -0.4992    0.0019 C   0  0  0  0  0  0  0  0  0  0  0  0
   -1.0548   -1.0079    0.0023 C   0  0  0  0  0  0  0  0  0  0  0  0
   -2.5621    0.8904    0.0012 C   0  0  0  0  0  0  0  0  0  0  0  0
    1.7889   -2.0408    0.0013 C   0  0  0  0  0  0  0  0  0  0  0  0
   -1.4396    1.7298    0.0011 C   0  0  0  0  0  0  0  0  0  0  0  0
    3.3407    2.5519   -0.0003 C   0  0  0  0  0  0  0  0  0  0  0  0
    3.1138   -2.4854    0.0005 C   0  0  0  0  0  0  0  0  0  0  0  0
    4.6607    2.1059   -0.0010 C   0  0  0  0  0  0  0  0  0  0  0  0
   -3.4891   -1.3486    0.0016 C   0  0  0  0  0  0  0  0  0  0  0  0
   -3.8696    1.4071    0.0002 C   0  0  0  0  0  0  0  0  0  0  0  0
    5.5036   -2.0085   -0.0014 C   0  0  0  0  0  0  0  0  0  0  0  0
    6.2722    0.2777   -0.0020 C   0  0  0  0  0  0  0  0  0  0  0  0
   -4.7975   -0.8371    0.0004 C   0  0  0  0  0  0  0  0  0  0  0  0
   -4.9905    0.5610   -0.0002 C   0  0  0  0  0  0  0  0  0  0  0  0
    6.5475   -1.0873   -0.0023 C   0  0  0  0  0  0  0  0  0  0  0  0
   -5.9173   -1.6854   -0.0009 C   0  0  0  0  0  0  0  0  0  0  0  0
   -6.2982    1.0744   -0.0017 C   0  0  0  0  0  0  0  0  0  0  0  0
   -7.2095   -1.1598   -0.0026 C   0  0  0  0  0  0  0  0  0  0  0  0
   -7.3998    0.2186   -0.0029 C   0  0  0  0  0  0  0  0  0  0  0  0
    0.7655    3.1766    0.0004 H   0  0  0  0  0  0  0  0  0  0  0  0
   -0.9419   -2.0907    0.0028 H   0  0  0  0  0  0  0  0  0  0  0  0
    1.0213   -2.8105    0.0017 H   0  0  0  0  0  0  0  0  0  0  0  0
   -1.5897    2.8103    0.0005 H   0  0  0  0  0  0  0  0  0  0  0  0
    3.1549    3.6244   -0.0004 H   0  0  0  0  0  0  0  0  0  0  0  0
    3.3044   -3.5568    0.0004 H   0  0  0  0  0  0  0  0  0  0  0  0
    5.4621    2.8419   -0.0016 H   0  0  0  0  0  0  0  0  0  0  0  0
   -3.3395   -2.4284    0.0020 H   0  0  0  0  0  0  0  0  0  0  0  0
   -4.0165    2.4873   -0.0004 H   0  0  0  0  0  0  0  0  0  0  0  0
    5.7412   -3.0702   -0.0015 H   0  0  0  0  0  0  0  0  0  0  0  0
    7.1033    0.9799   -0.0027 H   0  0  0  0  0  0  0  0  0  0  0  0
    7.5770   -1.4333   -0.0032 H   0  0  0  0  0  0  0  0  0  0  0  0
   -5.7918   -2.7662   -0.0007 H   0  0  0  0  0  0  0  0  0  0  0  0
   -6.4700    2.1489   -0.0022 H   0  0  0  0  0  0  0  0  0  0  0  0
   -8.0666   -1.8269   -0.0037 H   0  0  0  0  0  0  0  0  0  0  0  0
   -8.4054    0.6286   -0.0042 H   0  0  0  0  0  0  0  0  0  0  0  0
  1  2  2  0  0  0  0
  1  4  1  0  0  0  0
  1  5  1  0  0  0  0
  2  3  1  0  0  0  0
  2 13  1  0  0  0  0
  3  6  1  0  0  0  0
  3 11  2  0  0  0  0
  4  8  1  0  0  0  0
  4  9  2  0  0  0  0
  5  7  2  0  0  0  0
  5 15  1  0  0  0  0
  6  7  1  0  0  0  0
  6 14  2  0  0  0  0
  7 29  1  0  0  0  0
  8 16  1  0  0  0  0
  8 20  2  0  0  0  0
  9 17  1  0  0  0  0
  9 21  1  0  0  0  0
 10 11  1  0  0  0  0
 10 12  1  0  0  0  0
 10 18  2  0  0  0  0
 11 30  1  0  0  0  0
 12 14  1  0  0  0  0
 12 19  2  0  0  0  0
 13 16  2  0  0  0  0
 13 31  1  0  0  0  0
 14 32  1  0  0  0  0
 15 17  2  0  0  0  0
 15 33  1  0  0  0  0
 16 34  1  0  0  0  0
 17 35  1  0  0  0  0
 18 22  1  0  0  0  0
 18 36  1  0  0  0  0
 19 23  1  0  0  0  0
 19 37  1  0  0  0  0
 20 24  1  0  0  0  0
 20 38  1  0  0  0  0
 21 24  2  0  0  0  0
 21 39  1  0  0  0  0
 22 23  1  0  0  0  0
 22 25  2  0  0  0  0
 23 26  2  0  0  0  0
 24 40  1  0  0  0  0
 25 27  1  0  0  0  0
 25 41  1  0  0  0  0
 26 28  1  0  0  0  0
 26 42  1  0  0  0  0
 27 28  2  0  0  0  0
 27 43  1  0  0  0  0
 28 44  1  0  0  0  0
M  END
> <PUBCHEM_COMPOUND_CID>
9138

> <PUBCHEM_CONFORMER_RMSD>
0.6

> <PUBCHEM_CONFORMER_DIVERSEORDER>
1

> <PUBCHEM_MMFF94_PARTIAL_CHARGES>
32
11 -0.15
13 -0.15
14 -0.15
15 -0.15
16 -0.15
17 -0.15
18 -0.15
19 -0.15
20 -0.15
21 -0.15
24 -0.15
25 -0.15
26 -0.15
27 -0.15
28 -0.15
29 0.15
30 0.15
31 0.15
32 0.15
33 0.15
34 0.15
35 0.15
36 0.15
37 0.15
38 0.15
39 0.15
40 0.15
41 0.15
42 0.15
43 0.15
44 0.15
7 -0.15

> <PUBCHEM_EFFECTIVE_ROTOR_COUNT>
0

> <PUBCHEM_PHARMACOPHORE_FEATURES>
7
6 1 2 3 5 6 7 rings
6 1 2 4 8 13 16 rings
6 1 4 5 9 15 17 rings
6 10 12 18 19 22 23 rings
6 22 23 25 26 27 28 rings
6 3 6 10 11 12 14 rings
6 4 8 9 20 21 24 rings

> <PUBCHEM_HEAVY_ATOM_COUNT>
28

> <PUBCHEM_ATOM_DEF_STEREO_COUNT>
0

> <PUBCHEM_ATOM_UDEF_STEREO_COUNT>
0

> <PUBCHEM_BOND_DEF_STEREO_COUNT>
0

> <PUBCHEM_BOND_UDEF_STEREO_COUNT>
0

> <PUBCHEM_ISOTOPIC_ATOM_COUNT>
0

> <PUBCHEM_COMPONENT_COUNT>
1

> <PUBCHEM_CACTVS_TAUTO_COUNT>
1

> <PUBCHEM_CONFORMER_ID>
000023B200000001

> <PUBCHEM_MMFF94_ENERGY>
105.144

> <PUBCHEM_FEATURE_SELFOVERLAP>
35.722

> <PUBCHEM_SHAPE_FINGERPRINT>
10050765 1 18122625213121114892
10299344 5 18261108569938458747
10411042 1 18122343739046939014
10595046 47 18408322164496094593
10835480 77 18340775914059719925
11135609 187 18196086651917784056
11497681 19 18265623087737238831
11524674 6 16660364766862972407
11578080 2 13613086917643966700
117089 54 17753880925311040950
11719270 70 18261114084107287462
11963148 33 18411989061123655446
12107183 9 17831293175029046529
12166972 35 18342454833211985228
12236239 1 18114180830870767041
12516196 113 18260269654744602921
12788726 201 17313375756227528265
13402501 40 18413670214201090539
13533116 47 18334013873860492840
13685833 64 18411980269371839139
13782708 43 17775007924450998186
14170010 4 18411139130329175856
14251764 18 18333448742648799129
14341114 176 18410290311172583959
14933364 13 18412543211041196447
15183329 4 18411983576855418257
15196674 1 18410855460170535201
15361156 5 17988634143556781999
15510794 2 18131348589233761131
15927050 60 17684655329438247772
16728300 4 17413618339218349394
17492 89 18122345950380168002
17844677 252 18410005568079513705
17857418 61 18410292523070191889
1813 80 17203610388902213125
18681886 176 18334300855132801306
20028762 73 18261111898196021070
21033650 10 16486980656517839405
21130935 74 18261110768418811347
21197605 99 18336543803082712390
21267235 1 18408880767884564158
21279426 13 18340771537155372149
21792934 111 18335433390627141673
221357 26 18412263952019963516
22149856 69 18337378380222047305
23522609 53 18122874694676337580
23559900 14 18339084791945296633
23569943 247 17702110376559985099
255183 451 17971465454658821246
27425 322 16271075996364151320
3004659 81 18272653449976625608
335352 9 18411134732651904214
34797466 226 16660360364479210512
350125 39 18410012147658135892
3545911 37 18411700984812729045
3633792 109 18410861001638598837
397830 11 14708074059192912711
4073 2 18059571322055396403
4093350 32 16950280685992748252
4325135 7 18409729564585033863
46194498 28 17632297839505943708
465052 167 18260546745102900054
5104073 3 18408885148229019385

> <PUBCHEM_SHAPE_MULTIPOLES>
576.23
18.53
2.55
0.62
16.21
0.14
0
-4.08
0.02
-2.24
0
0
0
0

> <PUBCHEM_SHAPE_SELFOVERLAP>
1372.151

> <PUBCHEM_SHAPE_VOLUME>
256.7

> <PUBCHEM_COORDINATE_TYPE>
2
5
10

$$$$

