854057
  -OEChem-06241222472D

 30 31  0     0  0  0  0  0  0999 V2000
    2.5369   -0.5000    0.0000 O   0  0  0  0  0  0  0  0  0  0  0  0
    3.4030   -2.0000    0.0000 O   0  0  0  0  0  0  0  0  0  0  0  0
    6.0010    0.5000    0.0000 N   0  0  0  0  0  0  0  0  0  0  0  0
    5.1350   -1.0000    0.0000 C   0  0  0  0  0  0  0  0  0  0  0  0
    6.0010   -0.5000    0.0000 C   0  0  0  0  0  0  0  0  0  0  0  0
    4.2690   -0.5000    0.0000 C   0  0  0  0  0  0  0  0  0  0  0  0
    5.1350   -2.0000    0.0000 C   0  0  0  0  0  0  0  0  0  0  0  0
    6.8671   -1.0000    0.0000 C   0  0  0  0  0  0  0  0  0  0  0  0
    6.8671    1.0000    0.0000 C   0  0  0  0  0  0  0  0  0  0  0  0
    6.0010   -2.5000    0.0000 C   0  0  0  0  0  0  0  0  0  0  0  0
    6.8671   -2.0000    0.0000 C   0  0  0  0  0  0  0  0  0  0  0  0
    7.7331    0.5000    0.0000 C   0  0  0  0  0  0  0  0  0  0  0  0
    6.8671    2.0000    0.0000 C   0  0  0  0  0  0  0  0  0  0  0  0
    3.4030   -1.0000    0.0000 C   0  0  0  0  0  0  0  0  0  0  0  0
    8.5991    1.0000    0.0000 C   0  0  0  0  0  0  0  0  0  0  0  0
    7.7331    2.5000    0.0000 C   0  0  0  0  0  0  0  0  0  0  0  0
    8.5991    2.0000    0.0000 C   0  0  0  0  0  0  0  0  0  0  0  0
    4.6675   -0.0251    0.0000 H   0  0  0  0  0  0  0  0  0  0  0  0
    3.8705   -0.0251    0.0000 H   0  0  0  0  0  0  0  0  0  0  0  0
    5.4641    0.8100    0.0000 H   0  0  0  0  0  0  0  0  0  0  0  0
    4.5981   -2.3100    0.0000 H   0  0  0  0  0  0  0  0  0  0  0  0
    7.4040   -0.6900    0.0000 H   0  0  0  0  0  0  0  0  0  0  0  0
    6.0010   -3.1200    0.0000 H   0  0  0  0  0  0  0  0  0  0  0  0
    7.4040   -2.3100    0.0000 H   0  0  0  0  0  0  0  0  0  0  0  0
    7.7331   -0.1200    0.0000 H   0  0  0  0  0  0  0  0  0  0  0  0
    6.3301    2.3100    0.0000 H   0  0  0  0  0  0  0  0  0  0  0  0
    9.1360    0.6900    0.0000 H   0  0  0  0  0  0  0  0  0  0  0  0
    7.7331    3.1200    0.0000 H   0  0  0  0  0  0  0  0  0  0  0  0
    9.1360    2.3100    0.0000 H   0  0  0  0  0  0  0  0  0  0  0  0
    2.0000   -0.8100    0.0000 H   0  0  0  0  0  0  0  0  0  0  0  0
  1 14  1  0  0  0  0
  1 30  1  0  0  0  0
  2 14  2  0  0  0  0
  3  5  1  0  0  0  0
  3  9  1  0  0  0  0
  3 20  1  0  0  0  0
  4  5  1  0  0  0  0
  4  6  1  0  0  0  0
  4  7  2  0  0  0  0
  5  8  2  0  0  0  0
  6 14  1  0  0  0  0
  6 18  1  0  0  0  0
  6 19  1  0  0  0  0
  7 10  1  0  0  0  0
  7 21  1  0  0  0  0
  8 11  1  0  0  0  0
  8 22  1  0  0  0  0
  9 12  2  0  0  0  0
  9 13  1  0  0  0  0
 10 11  2  0  0  0  0
 10 23  1  0  0  0  0
 11 24  1  0  0  0  0
 12 15  1  0  0  0  0
 12 25  1  0  0  0  0
 13 16  2  0  0  0  0
 13 26  1  0  0  0  0
 15 17  2  0  0  0  0
 15 27  1  0  0  0  0
 16 17  1  0  0  0  0
 16 28  1  0  0  0  0
 17 29  1  0  0  0  0
M  END
> <PUBCHEM_COMPOUND_CID>
854057

> <PUBCHEM_COMPOUND_CANONICALIZED>
1

> <PUBCHEM_CACTVS_COMPLEXITY>
249

> <PUBCHEM_CACTVS_HBOND_ACCEPTOR>
3

> <PUBCHEM_CACTVS_HBOND_DONOR>
2

> <PUBCHEM_CACTVS_ROTATABLE_BOND>
4

> <PUBCHEM_CACTVS_SUBSKEYS>
AAADccByMAAAAAAAAAAAAAAAAAAAAAAAAAAwYAAAAAAAAAABQAAAHgAQCAAADAiBmAAwyILAAgCIAiTSSACCAAAhAgAIiAEAZIgIIHLAlZGEYAhk0AHIyAe8yKCOAAAAAAACAAAAAAAAAAQAAAAAAAAAAA==

> <PUBCHEM_IUPAC_OPENEYE_NAME>
2-(2-anilinophenyl)acetic acid

> <PUBCHEM_IUPAC_CAS_NAME>
2-(2-anilinophenyl)acetic acid

> <PUBCHEM_IUPAC_NAME>
2-(2-anilinophenyl)acetic acid

> <PUBCHEM_IUPAC_SYSTEMATIC_NAME>
2-(2-phenylazanylphenyl)ethanoic acid

> <PUBCHEM_IUPAC_TRADITIONAL_NAME>
2-(2-anilinophenyl)acetic acid

> <PUBCHEM_IUPAC_INCHI>
InChI=1S/C14H13NO2/c16-14(17)10-11-6-4-5-9-13(11)15-12-7-2-1-3-8-12/h1-9,15H,10H2,(H,16,17)

> <PUBCHEM_IUPAC_INCHIKEY>
NJFCAWNKWPIBAG-UHFFFAOYSA-N

> <PUBCHEM_XLOGP3>
3.5

> <PUBCHEM_EXACT_MASS>
227.094629

> <PUBCHEM_MOLECULAR_FORMULA>
C14H13NO2

> <PUBCHEM_MOLECULAR_WEIGHT>
227.25852

> <PUBCHEM_OPENEYE_CAN_SMILES>
C1=CC=C(C=C1)NC2=CC=CC=C2CC(=O)O

> <PUBCHEM_OPENEYE_ISO_SMILES>
C1=CC=C(C=C1)NC2=CC=CC=C2CC(=O)O

> <PUBCHEM_CACTVS_TPSA>
49.3

> <PUBCHEM_MONOISOTOPIC_WEIGHT>
227.094629

> <PUBCHEM_TOTAL_CHARGE>
0

> <PUBCHEM_HEAVY_ATOM_COUNT>
17

> <PUBCHEM_ATOM_DEF_STEREO_COUNT>
0

> <PUBCHEM_ATOM_UDEF_STEREO_COUNT>
0

> <PUBCHEM_BOND_DEF_STEREO_COUNT>
0

> <PUBCHEM_BOND_UDEF_STEREO_COUNT>
0

> <PUBCHEM_ISOTOPIC_ATOM_COUNT>
0

> <PUBCHEM_COMPONENT_COUNT>
1

> <PUBCHEM_CACTVS_TAUTO_COUNT>
1

> <PUBCHEM_COORDINATE_TYPE>
1
5
255

> <PUBCHEM_BONDANNOTATIONS>
10  11  8
12  15  8
13  16  8
15  17  8
16  17  8
4  5  8
4  7  8
5  8  8
7  10  8
8  11  8
9  12  8
9  13  8

$$$$

