17396308
  -OEChem-06241222553D

 42 44  0     0  0  0  0  0  0999 V2000
    4.4485   -1.5216    0.3167 S   0  0  0  0  0  0  0  0  0  0  0  0
   -4.0585   -1.1241   -0.7561 O   0  0  0  0  0  0  0  0  0  0  0  0
   -2.5756   -2.5694   -1.7734 O   0  0  0  0  0  0  0  0  0  0  0  0
   -0.2434   -1.5048    1.4770 O   0  0  0  0  0  0  0  0  0  0  0  0
   -1.8119   -0.6660   -0.6488 N   0  0  0  0  0  0  0  0  0  0  0  0
    1.3576   -2.2131   -0.0517 N   0  0  0  0  0  0  0  0  0  0  0  0
   -2.4644    0.3408    0.0290 C   0  0  0  0  0  0  0  0  0  0  0  0
   -0.3824   -0.7473   -0.8129 C   0  0  0  0  0  0  0  0  0  0  0  0
   -3.8096    0.0433   -0.0498 C   0  0  0  0  0  0  0  0  0  0  0  0
   -2.7683   -1.5494   -1.1229 C   0  0  0  0  0  0  0  0  0  0  0  0
    0.2163   -1.5274    0.3380 C   0  0  0  0  0  0  0  0  0  0  0  0
    2.1591   -3.0002    0.8578 C   0  0  0  0  0  0  0  0  0  0  0  0
   -1.9939    1.4581    0.6868 C   0  0  0  0  0  0  0  0  0  0  0  0
   -4.7653    0.8518    0.5285 C   0  0  0  0  0  0  0  0  0  0  0  0
    3.2671   -2.1957    1.5240 C   0  0  0  0  0  0  0  0  0  0  0  0
   -2.9444    2.2925    1.2807 C   0  0  0  0  0  0  0  0  0  0  0  0
   -4.3187    1.9922    1.2023 C   0  0  0  0  0  0  0  0  0  0  0  0
    3.7052    0.0622   -0.0560 C   0  0  0  0  0  0  0  0  0  0  0  0
    2.5478    2.5332   -0.6365 C   0  0  0  0  0  0  0  0  0  0  0  0
    3.5098    0.9970    0.9608 C   0  0  0  0  0  0  0  0  0  0  0  0
    3.3218    0.3629   -1.3630 C   0  0  0  0  0  0  0  0  0  0  0  0
    2.9311    2.2324    0.6705 C   0  0  0  0  0  0  0  0  0  0  0  0
    2.7431    1.5984   -1.6533 C   0  0  0  0  0  0  0  0  0  0  0  0
    1.9291    3.8541   -0.9475 C   0  0  0  0  0  0  0  0  0  0  0  0
    0.0631    0.2498   -0.8586 H   0  0  0  0  0  0  0  0  0  0  0  0
   -0.1812   -1.2636   -1.7580 H   0  0  0  0  0  0  0  0  0  0  0  0
    2.5737   -3.8377    0.2855 H   0  0  0  0  0  0  0  0  0  0  0  0
    1.5040   -3.4221    1.6282 H   0  0  0  0  0  0  0  0  0  0  0  0
   -0.9382    1.6929    0.7523 H   0  0  0  0  0  0  0  0  0  0  0  0
    1.6693   -2.1554   -1.0166 H   0  0  0  0  0  0  0  0  0  0  0  0
    3.8296   -2.8590    2.1897 H   0  0  0  0  0  0  0  0  0  0  0  0
    2.8465   -1.4030    2.1501 H   0  0  0  0  0  0  0  0  0  0  0  0
   -5.8217    0.6182    0.4666 H   0  0  0  0  0  0  0  0  0  0  0  0
   -2.6217    3.1847    1.8109 H   0  0  0  0  0  0  0  0  0  0  0  0
   -5.0388    2.6567    1.6726 H   0  0  0  0  0  0  0  0  0  0  0  0
    3.8110    0.7899    1.9846 H   0  0  0  0  0  0  0  0  0  0  0  0
    3.4650   -0.3537   -2.1680 H   0  0  0  0  0  0  0  0  0  0  0  0
    2.7873    2.9540    1.4703 H   0  0  0  0  0  0  0  0  0  0  0  0
    2.4489    1.8211   -2.6755 H   0  0  0  0  0  0  0  0  0  0  0  0
    1.3597    4.2340   -0.0924 H   0  0  0  0  0  0  0  0  0  0  0  0
    1.2301    3.7751   -1.7871 H   0  0  0  0  0  0  0  0  0  0  0  0
    2.7053    4.5818   -1.2041 H   0  0  0  0  0  0  0  0  0  0  0  0
  1 15  1  0  0  0  0
  1 18  1  0  0  0  0
  2  9  1  0  0  0  0
  2 10  1  0  0  0  0
  3 10  2  0  0  0  0
  4 11  2  0  0  0  0
  5  7  1  0  0  0  0
  5  8  1  0  0  0  0
  5 10  1  0  0  0  0
  6 11  1  0  0  0  0
  6 12  1  0  0  0  0
  6 30  1  0  0  0  0
  7  9  1  0  0  0  0
  7 13  2  0  0  0  0
  8 11  1  0  0  0  0
  8 25  1  0  0  0  0
  8 26  1  0  0  0  0
  9 14  2  0  0  0  0
 12 15  1  0  0  0  0
 12 27  1  0  0  0  0
 12 28  1  0  0  0  0
 13 16  1  0  0  0  0
 13 29  1  0  0  0  0
 14 17  1  0  0  0  0
 14 33  1  0  0  0  0
 15 31  1  0  0  0  0
 15 32  1  0  0  0  0
 16 17  2  0  0  0  0
 16 34  1  0  0  0  0
 17 35  1  0  0  0  0
 18 20  2  0  0  0  0
 18 21  1  0  0  0  0
 19 22  2  0  0  0  0
 19 23  1  0  0  0  0
 19 24  1  0  0  0  0
 20 22  1  0  0  0  0
 20 36  1  0  0  0  0
 21 23  2  0  0  0  0
 21 37  1  0  0  0  0
 22 38  1  0  0  0  0
 23 39  1  0  0  0  0
 24 40  1  0  0  0  0
 24 41  1  0  0  0  0
 24 42  1  0  0  0  0
M  END
> <PUBCHEM_COMPOUND_CID>
17396308

> <PUBCHEM_CONFORMER_RMSD>
1

> <PUBCHEM_CONFORMER_DIVERSEORDER>
1
70
3
13
56
170
239
110
157
237
211
122
75
67
93
73
173
220
52
162
83
169
186
144
44
124
163
14
111
208
128
131
135
146
226
26
4
16
97
134
41
79
39
167
98
143
85
68
43
51
69
177
184
196
176
155
207
88
164
53
101
46
193
205
219
139
9
60
161
96
42
241
142
10
114
189
59
232
31
188
40
192
185
106
181
116
215
15
78
225
137
227
37
55
34
87
119
138
108
199
230
229
180
200
147
121
109
132
62
30
156
91
187
25
197
175
190
129
130
65
66
72
172
152
118
216
233
115
150
133
20
166
84
202
22
47
7
158
113
89
218
136
194
18
95
112
168
165
204
174
117
223
149
36
19
214
153
64
178
127
6
32
77
29
217
231
179
201
140
12
57
154
33
38
49
90
23
107
35
94
160
45
27
104
74
238
125
236
71
92
2
102
21
228
82
99
11
221
48
148
159
76
141
100
103
123
240
63
209
5
105
145
24
120
151
17
210
54
171
50
195
203
61
224
126
80
183
58
212
222
206
81
213
234
182
235
86
191
198
28
8

> <PUBCHEM_MMFF94_PARTIAL_CHARGES>
33
1 -0.33
10 0.78
11 0.57
12 0.3
13 -0.15
14 -0.15
15 0.23
16 -0.15
17 -0.15
18 0.1
19 -0.14
2 -0.23
20 -0.15
21 -0.15
22 -0.15
23 -0.15
24 0.14
29 0.15
3 -0.57
30 0.37
33 0.15
34 0.15
35 0.15
36 0.15
37 0.15
38 0.15
39 0.15
4 -0.57
5 -0.48
6 -0.73
7 0.12
8 0.36
9 0.08

> <PUBCHEM_EFFECTIVE_ROTOR_COUNT>
7

> <PUBCHEM_PHARMACOPHORE_FEATURES>
6
1 3 acceptor
1 4 acceptor
1 6 donor
5 2 5 7 9 10 rings
6 18 19 20 21 22 23 rings
6 7 9 13 14 16 17 rings

> <PUBCHEM_HEAVY_ATOM_COUNT>
24

> <PUBCHEM_ATOM_DEF_STEREO_COUNT>
0

> <PUBCHEM_ATOM_UDEF_STEREO_COUNT>
0

> <PUBCHEM_BOND_DEF_STEREO_COUNT>
0

> <PUBCHEM_BOND_UDEF_STEREO_COUNT>
0

> <PUBCHEM_ISOTOPIC_ATOM_COUNT>
0

> <PUBCHEM_COMPONENT_COUNT>
1

> <PUBCHEM_CACTVS_TAUTO_COUNT>
2

> <PUBCHEM_CONFORMER_ID>
0109725400000001

> <PUBCHEM_MMFF94_ENERGY>
60.7261

> <PUBCHEM_FEATURE_SELFOVERLAP>
30.559

> <PUBCHEM_SHAPE_FINGERPRINT>
10708813 3 18409728478074599160
12422481 6 17978820092130937106
12633257 1 17632581552360620666
12788726 201 17333084222808601246
13583140 156 18059570360567796939
14251764 3 16343986926861563915
17492 89 18261672580216793286
17818456 19 18113899419902016520
20715895 44 17758679236919704313
21033648 29 16559041488274883966
21041028 32 17840874289283388146
21864079 5 18337945688939415448
22749437 52 18199192776222809460
23557571 272 17167866361105032954
23558518 356 18265892454124390388
238 59 18270110206989038106
474 4 18343862199478450442
5312544 6 18269834207715892837
5895379 119 17749662017241790072
7064713 232 17897731104549141049
7097593 13 18338520845163505318
9981440 41 17762626088325598840

> <PUBCHEM_SHAPE_MULTIPOLES>
470.19
9.57
3.88
1.51
4.62
1.25
0.15
1.19
-1.29
-2.44
0.13
-0.06
-0.11
-2.96

> <PUBCHEM_SHAPE_SELFOVERLAP>
994.134

> <PUBCHEM_SHAPE_VOLUME>
265.5

> <PUBCHEM_COORDINATE_TYPE>
2
5
10

$$$$

