11803
  -OEChem-06261206082D

 22 23  0     0  0  0  0  0  0999 V2000
    2.0000   -2.5223    0.0000 O   0  5  0  0  0  0  0  0  0  0  0  0
    5.4746    2.5223    0.0000 O   0  5  0  0  0  0  0  0  0  0  0  0
    3.7427    2.5023    0.0000 O   0  0  0  0  0  0  0  0  0  0  0  0
    3.7320   -2.5223    0.0000 O   0  0  0  0  0  0  0  0  0  0  0  0
    2.8660   -2.0223    0.0000 N   0  3  0  0  0  0  0  0  0  0  0  0
    4.6144    2.0123    0.0000 N   0  3  0  0  0  0  0  0  0  0  0  0
    3.7320    0.4777    0.0000 C   0  0  0  0  0  0  0  0  0  0  0  0
    3.7320   -0.5223    0.0000 C   0  0  0  0  0  0  0  0  0  0  0  0
    2.8660   -1.0223    0.0000 C   0  0  0  0  0  0  0  0  0  0  0  0
    4.6260    1.0124    0.0000 C   0  0  0  0  0  0  0  0  0  0  0  0
    2.8660    0.9777    0.0000 C   0  0  0  0  0  0  0  0  0  0  0  0
    4.6260   -1.0570    0.0000 C   0  0  0  0  0  0  0  0  0  0  0  0
    2.0000   -0.5223    0.0000 C   0  0  0  0  0  0  0  0  0  0  0  0
    5.5321    0.4985    0.0000 C   0  0  0  0  0  0  0  0  0  0  0  0
    5.5321   -0.5431    0.0000 C   0  0  0  0  0  0  0  0  0  0  0  0
    2.0000    0.4777    0.0000 C   0  0  0  0  0  0  0  0  0  0  0  0
    2.8660    1.5977    0.0000 H   0  0  0  0  0  0  0  0  0  0  0  0
    4.6188   -1.6769    0.0000 H   0  0  0  0  0  0  0  0  0  0  0  0
    1.4631   -0.8323    0.0000 H   0  0  0  0  0  0  0  0  0  0  0  0
    6.0678    0.8106    0.0000 H   0  0  0  0  0  0  0  0  0  0  0  0
    1.4631    0.7877    0.0000 H   0  0  0  0  0  0  0  0  0  0  0  0
    6.0678   -0.8552    0.0000 H   0  0  0  0  0  0  0  0  0  0  0  0
  1  5  1  0  0  0  0
  2  6  1  0  0  0  0
  3  6  2  0  0  0  0
  4  5  2  0  0  0  0
  5  9  1  0  0  0  0
  6 10  1  0  0  0  0
  7  8  2  0  0  0  0
  7 10  1  0  0  0  0
  7 11  1  0  0  0  0
  8  9  1  0  0  0  0
  8 12  1  0  0  0  0
  9 13  2  0  0  0  0
 10 14  2  0  0  0  0
 11 16  2  0  0  0  0
 11 17  1  0  0  0  0
 12 15  2  0  0  0  0
 12 18  1  0  0  0  0
 13 16  1  0  0  0  0
 13 19  1  0  0  0  0
 14 15  1  0  0  0  0
 14 20  1  0  0  0  0
 15 22  1  0  0  0  0
 16 21  1  0  0  0  0
M  CHG  4   1  -1   2  -1   5   1   6   1
M  END
> <PUBCHEM_COMPOUND_CID>
11803

> <PUBCHEM_COMPOUND_CANONICALIZED>
1

> <PUBCHEM_CACTVS_COMPLEXITY>
266

> <PUBCHEM_CACTVS_HBOND_ACCEPTOR>
4

> <PUBCHEM_CACTVS_HBOND_DONOR>
0

> <PUBCHEM_CACTVS_ROTATABLE_BOND>
0

> <PUBCHEM_CACTVS_SUBSKEYS>
AAADcYBzOAAAAAAAAAAAAAAAAAAAAAAAAAAwYAAAAAAAAADBUAAAHAAEAAAADAiBGAAwwMAQQACBAiRCQwCCAAAgAgAoiAAAZIoIICKAkZGAIABggAAIyAcQgIAOgAAAQAASAAAAAACAACQAAAAAAAAAAA==

> <PUBCHEM_IUPAC_OPENEYE_NAME>
1,5-dinitronaphthalene

> <PUBCHEM_IUPAC_CAS_NAME>
1,5-dinitronaphthalene

> <PUBCHEM_IUPAC_NAME>
1,5-dinitronaphthalene

> <PUBCHEM_IUPAC_SYSTEMATIC_NAME>
1,5-dinitronaphthalene

> <PUBCHEM_IUPAC_TRADITIONAL_NAME>
1,5-dinitronaphthalene

> <PUBCHEM_IUPAC_INCHI>
InChI=1S/C10H6N2O4/c13-11(14)9-5-1-3-7-8(9)4-2-6-10(7)12(15)16/h1-6H

> <PUBCHEM_IUPAC_INCHIKEY>
ZUTCJXFCHHDFJS-UHFFFAOYSA-N

> <PUBCHEM_XLOGP3>
2.6

> <PUBCHEM_EXACT_MASS>
218.032757

> <PUBCHEM_MOLECULAR_FORMULA>
C10H6N2O4

> <PUBCHEM_MOLECULAR_WEIGHT>
218.16564

> <PUBCHEM_OPENEYE_CAN_SMILES>
C1=CC2=C(C=CC=C2[N+](=O)[O-])C(=C1)[N+](=O)[O-]

> <PUBCHEM_OPENEYE_ISO_SMILES>
C1=CC2=C(C=CC=C2[N+](=O)[O-])C(=C1)[N+](=O)[O-]

> <PUBCHEM_CACTVS_TPSA>
91.6

> <PUBCHEM_MONOISOTOPIC_WEIGHT>
218.032757

> <PUBCHEM_TOTAL_CHARGE>
0

> <PUBCHEM_HEAVY_ATOM_COUNT>
16

> <PUBCHEM_ATOM_DEF_STEREO_COUNT>
0

> <PUBCHEM_ATOM_UDEF_STEREO_COUNT>
0

> <PUBCHEM_BOND_DEF_STEREO_COUNT>
0

> <PUBCHEM_BOND_UDEF_STEREO_COUNT>
0

> <PUBCHEM_ISOTOPIC_ATOM_COUNT>
0

> <PUBCHEM_COMPONENT_COUNT>
1

> <PUBCHEM_CACTVS_TAUTO_COUNT>
1

> <PUBCHEM_COORDINATE_TYPE>
1
5
255

> <PUBCHEM_BONDANNOTATIONS>
10  14  8
11  16  8
12  15  8
13  16  8
14  15  8
7  10  8
7  11  8
7  8  8
8  12  8
8  9  8
9  13  8

$$$$

