17396158
  -OEChem-06241222543D

 40 43  0     0  0  0  0  0  0999 V2000
   -3.2111    1.7159   -0.0146 O   0  0  0  0  0  0  0  0  0  0  0  0
    0.8124    2.8831   -0.0144 O   0  0  0  0  0  0  0  0  0  0  0  0
    1.2334    0.5709    0.0349 N   0  0  0  0  0  0  0  0  0  0  0  0
   -1.5465    0.1852    0.0140 N   0  0  0  0  0  0  0  0  0  0  0  0
    2.6174   -1.8324    0.0046 N   0  0  0  0  0  0  0  0  0  0  0  0
    2.6330    0.5404    0.0194 C   0  0  0  0  0  0  0  0  0  0  0  0
    3.3085   -0.6768    0.0053 C   0  0  0  0  0  0  0  0  0  0  0  0
    4.7188   -0.6529   -0.0082 C   0  0  0  0  0  0  0  0  0  0  0  0
   -1.0158    1.4497    0.0070 C   0  0  0  0  0  0  0  0  0  0  0  0
   -2.0230    2.3821   -0.0105 C   0  0  0  0  0  0  0  0  0  0  0  0
   -2.8416    0.4060    0.0007 C   0  0  0  0  0  0  0  0  0  0  0  0
    0.4477    1.7129    0.0173 C   0  0  0  0  0  0  0  0  0  0  0  0
    3.3178    1.7581    0.0203 C   0  0  0  0  0  0  0  0  0  0  0  0
    5.4079    0.5717   -0.0072 C   0  0  0  0  0  0  0  0  0  0  0  0
   -3.9267   -0.5356    0.0003 C   0  0  0  0  0  0  0  0  0  0  0  0
    4.7070    1.7742    0.0071 C   0  0  0  0  0  0  0  0  0  0  0  0
    5.3993   -1.8780   -0.0224 C   0  0  0  0  0  0  0  0  0  0  0  0
   -2.0817    3.8482   -0.0249 C   0  0  0  0  0  0  0  0  0  0  0  0
   -5.2449   -0.0796   -0.0152 C   0  0  0  0  0  0  0  0  0  0  0  0
   -3.6628   -1.9053    0.0161 C   0  0  0  0  0  0  0  0  0  0  0  0
    4.6899   -3.0704   -0.0231 C   0  0  0  0  0  0  0  0  0  0  0  0
    3.3121   -2.9931   -0.0093 C   0  0  0  0  0  0  0  0  0  0  0  0
   -6.2991   -0.9931   -0.0147 C   0  0  0  0  0  0  0  0  0  0  0  0
   -4.7170   -2.8187    0.0165 C   0  0  0  0  0  0  0  0  0  0  0  0
   -6.0351   -2.3626    0.0011 C   0  0  0  0  0  0  0  0  0  0  0  0
    0.7665   -0.3333    0.0448 H   0  0  0  0  0  0  0  0  0  0  0  0
    2.8724    2.7393    0.0410 H   0  0  0  0  0  0  0  0  0  0  0  0
    6.4954    0.5954   -0.0169 H   0  0  0  0  0  0  0  0  0  0  0  0
    5.2451    2.7174    0.0101 H   0  0  0  0  0  0  0  0  0  0  0  0
    6.4864   -1.9096   -0.0331 H   0  0  0  0  0  0  0  0  0  0  0  0
   -1.5871    4.2450   -0.9168 H   0  0  0  0  0  0  0  0  0  0  0  0
   -3.1157    4.2073   -0.0275 H   0  0  0  0  0  0  0  0  0  0  0  0
   -1.5856    4.2628    0.8580 H   0  0  0  0  0  0  0  0  0  0  0  0
   -5.4923    0.9788   -0.0276 H   0  0  0  0  0  0  0  0  0  0  0  0
   -2.6435   -2.2839    0.0284 H   0  0  0  0  0  0  0  0  0  0  0  0
    5.1999   -4.0264   -0.0340 H   0  0  0  0  0  0  0  0  0  0  0  0
    2.7046   -3.8922   -0.0091 H   0  0  0  0  0  0  0  0  0  0  0  0
   -7.3257   -0.6385   -0.0267 H   0  0  0  0  0  0  0  0  0  0  0  0
   -4.5118   -3.8851    0.0288 H   0  0  0  0  0  0  0  0  0  0  0  0
   -6.8559   -3.0739    0.0014 H   0  0  0  0  0  0  0  0  0  0  0  0
  1 10  1  0  0  0  0
  1 11  1  0  0  0  0
  2 12  2  0  0  0  0
  3  6  1  0  0  0  0
  3 12  1  0  0  0  0
  3 26  1  0  0  0  0
  4  9  1  0  0  0  0
  4 11  2  0  0  0  0
  5  7  1  0  0  0  0
  5 22  2  0  0  0  0
  6  7  1  0  0  0  0
  6 13  2  0  0  0  0
  7  8  2  0  0  0  0
  8 14  1  0  0  0  0
  8 17  1  0  0  0  0
  9 10  2  0  0  0  0
  9 12  1  0  0  0  0
 10 18  1  0  0  0  0
 11 15  1  0  0  0  0
 13 16  1  0  0  0  0
 13 27  1  0  0  0  0
 14 16  2  0  0  0  0
 14 28  1  0  0  0  0
 15 19  2  0  0  0  0
 15 20  1  0  0  0  0
 16 29  1  0  0  0  0
 17 21  2  0  0  0  0
 17 30  1  0  0  0  0
 18 31  1  0  0  0  0
 18 32  1  0  0  0  0
 18 33  1  0  0  0  0
 19 23  1  0  0  0  0
 19 34  1  0  0  0  0
 20 24  2  0  0  0  0
 20 35  1  0  0  0  0
 21 22  1  0  0  0  0
 21 36  1  0  0  0  0
 22 37  1  0  0  0  0
 23 25  2  0  0  0  0
 23 38  1  0  0  0  0
 24 25  1  0  0  0  0
 24 39  1  0  0  0  0
 25 40  1  0  0  0  0
M  END
> <PUBCHEM_COMPOUND_CID>
17396158

> <PUBCHEM_CONFORMER_RMSD>
0.8

> <PUBCHEM_CONFORMER_DIVERSEORDER>
1
11
16
13
15
3
2
14
4
9
12
10
5
17
7
6
8

> <PUBCHEM_MMFF94_PARTIAL_CHARGES>
36
1 -0.28
10 -0.04
11 0.43
12 0.72
13 -0.15
14 -0.15
15 0.05
16 -0.15
17 -0.15
18 0.18
19 -0.15
2 -0.57
20 -0.15
21 -0.15
22 0.16
23 -0.15
24 -0.15
25 -0.15
26 0.37
27 0.15
28 0.15
29 0.15
3 -0.55
30 0.15
34 0.15
35 0.15
36 0.15
37 0.15
38 0.15
39 0.15
4 -0.57
40 0.15
5 -0.62
6 0.12
7 0.31
9 0.14

> <PUBCHEM_EFFECTIVE_ROTOR_COUNT>
4

> <PUBCHEM_PHARMACOPHORE_FEATURES>
7
1 2 acceptor
1 3 donor
1 5 acceptor
5 1 4 9 10 11 rings
6 15 19 20 23 24 25 rings
6 5 7 8 17 21 22 rings
6 6 7 8 13 14 16 rings

> <PUBCHEM_HEAVY_ATOM_COUNT>
25

> <PUBCHEM_ATOM_DEF_STEREO_COUNT>
0

> <PUBCHEM_ATOM_UDEF_STEREO_COUNT>
0

> <PUBCHEM_BOND_DEF_STEREO_COUNT>
0

> <PUBCHEM_BOND_UDEF_STEREO_COUNT>
0

> <PUBCHEM_ISOTOPIC_ATOM_COUNT>
0

> <PUBCHEM_COMPONENT_COUNT>
1

> <PUBCHEM_CACTVS_TAUTO_COUNT>
2

> <PUBCHEM_CONFORMER_ID>
010971BE00000001

> <PUBCHEM_MMFF94_ENERGY>
66.2818

> <PUBCHEM_FEATURE_SELFOVERLAP>
35.552

> <PUBCHEM_SHAPE_FINGERPRINT>
10050765 1 18338797926816537544
10595046 47 18412541016318676692
10835480 77 18340216223622641813
108634 29 18059848416503322298
117089 54 17826782931246590366
11963148 33 18268437845466915242
12107183 9 17903349656201069801
12596602 18 17385716972314156762
12760667 363 18334861636697313679
13402501 40 18411981325902756115
13533116 47 18408322163947358072
1361 2 18197776605584331228
13631057 29 18408319986810720456
13685833 64 18341610361870149675
13911852 28 18336831901420771783
13989917 61 17979633438520420347
14347332 77 18341054102737063241
1454969 45 18270396071770985124
14840074 17 17895476934308998095
14866123 147 18264485264905976889
15042514 8 18337952393932529793
15196674 1 18410574015216222210
15250474 111 18199192969475674370
15320467 1 17617940227529028007
15352361 1 18410855456149965459
15361156 5 18058430140644403572
15537594 2 18114464448556409862
15927050 60 17326331022391210468
17492 89 18337954614245687206
17844677 252 18337947999848098436
17857418 61 18410012139189488123
17909252 39 18334856138939039946
1813 80 17632576045922624237
19958102 18 18128829727594079205
20028762 73 18336830883466874690
20286276 3 18265328581201854596
20403669 9 18335134310859124375
21033650 10 16486698107187258189
21065198 57 18266740375659632868
21197605 99 18336827481757525374
21267235 1 18408598176305923446
21279426 13 18342463677292770791
21478907 32 18411136952865425641
221490 88 18338514248679158088
22393880 68 17916595369754133190
22950370 63 18410008798095172569
23424784 1240 18188762972115380782
23522609 53 18121465094999738081
23559900 14 18338806602819046865
239999 70 18114454588097215356
24893989 43 16887219072149038679
25222932 49 18190463753167699639
3004659 81 18130792239194230715
314194 84 18262802865337264599
3246872 21 18119817906237745631
329604 57 18411418414745938954
335352 9 18410857638932245109
3421961 26 18336266717641381329
3882209 13 17118925123127327803
4073 2 18200589194433969859
4214541 1 18266459991335512064
439807 62 18342175587502311331
46194498 28 17489028145627481597
463206 1 18196089945872564635
5104073 3 18187932836841506136
54583773 228 18341886412962899622
6431902 208 18411421683200636335
7970288 3 18265899064696965047
9709674 26 18343294890571054416

> <PUBCHEM_SHAPE_MULTIPOLES>
487.81
15.5
4.17
0.6
5.78
0.42
0
-11.34
0.06
0.11
0.02
0
-0.01
0.06

> <PUBCHEM_SHAPE_SELFOVERLAP>
1092.805

> <PUBCHEM_SHAPE_VOLUME>
258.5

> <PUBCHEM_COORDINATE_TYPE>
2
5
10

$$$$

