586247
  -OEChem-06241222463D

 45 45  0     0  0  0  0  0  0999 V2000
    5.9578   -1.4433   -0.9591 O   0  0  0  0  0  0  0  0  0  0  0  0
   -1.9249   -1.1724    0.3998 C   0  0  0  0  0  0  0  0  0  0  0  0
   -2.8985   -1.7483   -0.6623 C   0  0  0  0  0  0  0  0  0  0  0  0
   -1.7406    0.3504    0.2337 C   0  0  0  0  0  0  0  0  0  0  0  0
   -4.1475   -0.8959   -0.8145 C   0  0  0  0  0  0  0  0  0  0  0  0
   -3.7730    0.5141   -1.2491 C   0  0  0  0  0  0  0  0  0  0  0  0
   -2.5691    1.0948   -0.5394 C   0  0  0  0  0  0  0  0  0  0  0  0
   -0.5858   -1.9231    0.2294 C   0  0  0  0  0  0  0  0  0  0  0  0
   -2.4791   -1.4731    1.8101 C   0  0  0  0  0  0  0  0  0  0  0  0
   -0.5866    0.9656    0.9949 C   0  0  0  0  0  0  0  0  0  0  0  0
   -2.3895    2.5680   -0.8100 C   0  0  0  0  0  0  0  0  0  0  0  0
    0.6602    0.9780    0.1733 C   0  0  0  0  0  0  0  0  0  0  0  0
    1.9296    0.9239    0.6225 C   0  0  0  0  0  0  0  0  0  0  0  0
    3.1507    0.9735   -0.2675 C   0  0  0  0  0  0  0  0  0  0  0  0
    2.2121    0.8403    2.0995 C   0  0  0  0  0  0  0  0  0  0  0  0
    3.9898   -0.3000   -0.1645 C   0  0  0  0  0  0  0  0  0  0  0  0
    5.1940   -0.2526   -1.0968 C   0  0  0  0  0  0  0  0  0  0  0  0
   -3.1870   -2.7746   -0.4027 H   0  0  0  0  0  0  0  0  0  0  0  0
   -2.3962   -1.8088   -1.6380 H   0  0  0  0  0  0  0  0  0  0  0  0
   -4.7062   -0.8626    0.1278 H   0  0  0  0  0  0  0  0  0  0  0  0
   -4.8182   -1.3426   -1.5577 H   0  0  0  0  0  0  0  0  0  0  0  0
   -4.6431    1.1639   -1.0941 H   0  0  0  0  0  0  0  0  0  0  0  0
   -3.5655    0.5123   -2.3270 H   0  0  0  0  0  0  0  0  0  0  0  0
   -0.1087   -1.6843   -0.7279 H   0  0  0  0  0  0  0  0  0  0  0  0
    0.1234   -1.7030    1.0342 H   0  0  0  0  0  0  0  0  0  0  0  0
   -0.7470   -3.0080    0.2488 H   0  0  0  0  0  0  0  0  0  0  0  0
   -1.7537   -1.2350    2.5956 H   0  0  0  0  0  0  0  0  0  0  0  0
   -3.3870   -0.8982    2.0226 H   0  0  0  0  0  0  0  0  0  0  0  0
   -2.7254   -2.5359    1.9177 H   0  0  0  0  0  0  0  0  0  0  0  0
   -0.8277    1.9916    1.2954 H   0  0  0  0  0  0  0  0  0  0  0  0
   -0.4464    0.4285    1.9372 H   0  0  0  0  0  0  0  0  0  0  0  0
   -1.4209    2.9660   -0.5015 H   0  0  0  0  0  0  0  0  0  0  0  0
   -3.1706    3.1400   -0.2985 H   0  0  0  0  0  0  0  0  0  0  0  0
   -2.4714    2.7629   -1.8853 H   0  0  0  0  0  0  0  0  0  0  0  0
    0.5262    1.0851   -0.9029 H   0  0  0  0  0  0  0  0  0  0  0  0
    3.7571    1.8462    0.0052 H   0  0  0  0  0  0  0  0  0  0  0  0
    2.8481    1.1222   -1.3118 H   0  0  0  0  0  0  0  0  0  0  0  0
    2.4041   -0.1965    2.3930 H   0  0  0  0  0  0  0  0  0  0  0  0
    3.0967    1.4366    2.3508 H   0  0  0  0  0  0  0  0  0  0  0  0
    1.4024    1.2330    2.7206 H   0  0  0  0  0  0  0  0  0  0  0  0
    4.3458   -0.4543    0.8617 H   0  0  0  0  0  0  0  0  0  0  0  0
    3.3809   -1.1813   -0.4045 H   0  0  0  0  0  0  0  0  0  0  0  0
    5.8376    0.5993   -0.8545 H   0  0  0  0  0  0  0  0  0  0  0  0
    4.8730   -0.1669   -2.1400 H   0  0  0  0  0  0  0  0  0  0  0  0
    6.7120   -1.3705   -1.5685 H   0  0  0  0  0  0  0  0  0  0  0  0
  1 17  1  0  0  0  0
  1 45  1  0  0  0  0
  2  3  1  0  0  0  0
  2  4  1  0  0  0  0
  2  8  1  0  0  0  0
  2  9  1  0  0  0  0
  3  5  1  0  0  0  0
  3 18  1  0  0  0  0
  3 19  1  0  0  0  0
  4  7  2  0  0  0  0
  4 10  1  0  0  0  0
  5  6  1  0  0  0  0
  5 20  1  0  0  0  0
  5 21  1  0  0  0  0
  6  7  1  0  0  0  0
  6 22  1  0  0  0  0
  6 23  1  0  0  0  0
  7 11  1  0  0  0  0
  8 24  1  0  0  0  0
  8 25  1  0  0  0  0
  8 26  1  0  0  0  0
  9 27  1  0  0  0  0
  9 28  1  0  0  0  0
  9 29  1  0  0  0  0
 10 12  1  0  0  0  0
 10 30  1  0  0  0  0
 10 31  1  0  0  0  0
 11 32  1  0  0  0  0
 11 33  1  0  0  0  0
 11 34  1  0  0  0  0
 12 13  2  0  0  0  0
 12 35  1  0  0  0  0
 13 14  1  0  0  0  0
 13 15  1  0  0  0  0
 14 16  1  0  0  0  0
 14 36  1  0  0  0  0
 14 37  1  0  0  0  0
 15 38  1  0  0  0  0
 15 39  1  0  0  0  0
 15 40  1  0  0  0  0
 16 17  1  0  0  0  0
 16 41  1  0  0  0  0
 16 42  1  0  0  0  0
 17 43  1  0  0  0  0
 17 44  1  0  0  0  0
M  END
> <PUBCHEM_COMPOUND_CID>
586247

> <PUBCHEM_CONFORMER_RMSD>
0.8

> <PUBCHEM_CONFORMER_DIVERSEORDER>
3
41
53
43
24
52
32
46
44
27
33
20
23
18
51
30
39
49
50
12
31
45
9
47
40
37
5
48
42
7
25
10
29
21
38
11
34
35
54
15
26
16
19
1
6
17
22
28
2
4
8
36
14
13

> <PUBCHEM_MMFF94_PARTIAL_CHARGES>
14
1 -0.68
10 0.28
11 0.14
12 -0.29
13 -0.28
14 0.14
15 0.14
17 0.28
2 0.14
35 0.15
4 -0.28
45 0.4
6 0.14
7 -0.28

> <PUBCHEM_EFFECTIVE_ROTOR_COUNT>
5.8

> <PUBCHEM_PHARMACOPHORE_FEATURES>
5
1 1 acceptor
1 1 donor
1 15 hydrophobe
3 2 8 9 hydrophobe
6 2 3 4 5 6 7 rings

> <PUBCHEM_HEAVY_ATOM_COUNT>
17

> <PUBCHEM_ATOM_DEF_STEREO_COUNT>
0

> <PUBCHEM_ATOM_UDEF_STEREO_COUNT>
0

> <PUBCHEM_BOND_DEF_STEREO_COUNT>
0

> <PUBCHEM_BOND_UDEF_STEREO_COUNT>
1

> <PUBCHEM_ISOTOPIC_ATOM_COUNT>
0

> <PUBCHEM_COMPONENT_COUNT>
1

> <PUBCHEM_CACTVS_TAUTO_COUNT>
1

> <PUBCHEM_CONFORMER_ID>
0008F20700000003

> <PUBCHEM_MMFF94_ENERGY>
26.1966

> <PUBCHEM_FEATURE_SELFOVERLAP>
25.371

> <PUBCHEM_SHAPE_FINGERPRINT>
10730089 88 18411417323539402988
10751810 167 17775007864510937792
107951 10 17775278404438291747
10803635 8 18342456002128216430
11458722 379 18411702101398886926
12186901 62 17917710184577270771
12363563 72 17385716998469257036
12596599 1 16773508881063014486
12954195 1 18188497986108657685
13214271 11 10663815278158804665
13544592 145 18187936053471290793
14123260 362 16200433571931613460
14251740 79 18337667624235361616
14341114 328 7132424740570077006
15163728 17 16628297638971554319
16752209 62 18342471325933160227
16945 1 18194428665902687225
17870717 6 18409161134411514246
18186145 218 18261406545789546521
200 152 16877664539229894839
20325693 3 18202560687565085773
20645476 183 17131839737582218099
20645477 70 17894353263753847588
20693207 138 18260272923552721428
20871999 31 18343578547449420332
21637258 2 15936986132757968127
23403322 49 18186237333818294350
23493267 7 17846499218550438139
23557571 272 18340221686768444272
23559900 14 18334587806425273496
23598291 2 17273995699032429616
2748010 2 17838636461198880905
3286 77 16878223052366054984
4921388 177 17560790009686955106
559249 180 18270123560142763226
76465 3 17095810931746284326
9709674 26 18265340499440227714

> <PUBCHEM_SHAPE_MULTIPOLES>
343.98
9.76
2.12
1.5
14.09
0.16
0.62
-2.92
-5.05
-1.47
-0.18
0.27
-0.08
1.33

> <PUBCHEM_SHAPE_SELFOVERLAP>
673.499

> <PUBCHEM_SHAPE_VOLUME>
207

> <PUBCHEM_COORDINATE_TYPE>
2
5
10

$$$$

