5730
  -OEChem-06261200502D

 52 54  0     0  0  0  0  0  0999 V2000
    7.1962   -3.9050    0.0000 O   0  0  0  0  0  0  0  0  0  0  0  0
    6.3301    0.5950    0.0000 O   0  0  0  0  0  0  0  0  0  0  0  0
    7.1962    5.0950    0.0000 O   0  0  0  0  0  0  0  0  0  0  0  0
    6.3301   -2.4050    0.0000 N   0  0  0  0  0  0  0  0  0  0  0  0
    2.8660   -3.4050    0.0000 N   0  0  0  0  0  0  0  0  0  0  0  0
    8.0622    0.5950    0.0000 N   0  0  0  0  0  0  0  0  0  0  0  0
    8.0622   -0.4050    0.0000 C   0  0  0  0  0  0  0  0  0  0  0  0
    8.9282   -0.9050    0.0000 C   0  0  0  0  0  0  0  0  0  0  0  0
    7.1962   -1.9050    0.0000 C   0  0  0  0  0  0  0  0  0  0  0  0
    7.1962   -0.9050    0.0000 C   0  0  0  0  0  0  0  0  0  0  0  0
    5.4641   -3.9050    0.0000 C   0  0  0  0  0  0  0  0  0  0  0  0
    3.7320   -3.9050    0.0000 C   0  0  0  0  0  0  0  0  0  0  0  0
    8.9282   -1.9050    0.0000 C   0  0  0  0  0  0  0  0  0  0  0  0
    8.0622   -2.4050    0.0000 C   0  0  0  0  0  0  0  0  0  0  0  0
    4.5981   -3.4050    0.0000 C   0  0  0  0  0  0  0  0  0  0  0  0
    6.3301   -3.4050    0.0000 C   0  0  0  0  0  0  0  0  0  0  0  0
    9.7942   -0.4050    0.0000 C   0  0  0  0  0  0  0  0  0  0  0  0
    5.4641   -4.9050    0.0000 C   0  0  0  0  0  0  0  0  0  0  0  0
    3.7320   -4.9050    0.0000 C   0  0  0  0  0  0  0  0  0  0  0  0
    4.5981   -5.4050    0.0000 C   0  0  0  0  0  0  0  0  0  0  0  0
    7.1962    1.0950    0.0000 C   0  0  0  0  0  0  0  0  0  0  0  0
    7.1962    2.0950    0.0000 C   0  0  0  0  0  0  0  0  0  0  0  0
    2.0000   -3.9050    0.0000 C   0  0  0  0  0  0  0  0  0  0  0  0
    2.8660   -2.4050    0.0000 C   0  0  0  0  0  0  0  0  0  0  0  0
    8.0622    2.5950    0.0000 C   0  0  0  0  0  0  0  0  0  0  0  0
    6.3301    2.5950    0.0000 C   0  0  0  0  0  0  0  0  0  0  0  0
    8.0622    3.5950    0.0000 C   0  0  0  0  0  0  0  0  0  0  0  0
    6.3301    3.5950    0.0000 C   0  0  0  0  0  0  0  0  0  0  0  0
    7.1962    4.0950    0.0000 C   0  0  0  0  0  0  0  0  0  0  0  0
    6.6592   -0.5950    0.0000 H   0  0  0  0  0  0  0  0  0  0  0  0
    9.4651   -2.2150    0.0000 H   0  0  0  0  0  0  0  0  0  0  0  0
    8.0622   -3.0250    0.0000 H   0  0  0  0  0  0  0  0  0  0  0  0
    5.7932   -2.0950    0.0000 H   0  0  0  0  0  0  0  0  0  0  0  0
    4.5981   -2.7850    0.0000 H   0  0  0  0  0  0  0  0  0  0  0  0
    8.5991    0.9050    0.0000 H   0  0  0  0  0  0  0  0  0  0  0  0
   10.1042   -0.9419    0.0000 H   0  0  0  0  0  0  0  0  0  0  0  0
   10.3312   -0.0950    0.0000 H   0  0  0  0  0  0  0  0  0  0  0  0
    9.4842    0.1319    0.0000 H   0  0  0  0  0  0  0  0  0  0  0  0
    3.1951   -5.2150    0.0000 H   0  0  0  0  0  0  0  0  0  0  0  0
    6.0010   -5.2150    0.0000 H   0  0  0  0  0  0  0  0  0  0  0  0
    4.5981   -6.0250    0.0000 H   0  0  0  0  0  0  0  0  0  0  0  0
    1.6900   -3.3681    0.0000 H   0  0  0  0  0  0  0  0  0  0  0  0
    1.4631   -4.2150    0.0000 H   0  0  0  0  0  0  0  0  0  0  0  0
    2.3100   -4.4419    0.0000 H   0  0  0  0  0  0  0  0  0  0  0  0
    3.4860   -2.4050    0.0000 H   0  0  0  0  0  0  0  0  0  0  0  0
    2.8660   -1.7850    0.0000 H   0  0  0  0  0  0  0  0  0  0  0  0
    2.2460   -2.4050    0.0000 H   0  0  0  0  0  0  0  0  0  0  0  0
    8.5991    2.2850    0.0000 H   0  0  0  0  0  0  0  0  0  0  0  0
    5.7932    2.2850    0.0000 H   0  0  0  0  0  0  0  0  0  0  0  0
    8.5991    3.9050    0.0000 H   0  0  0  0  0  0  0  0  0  0  0  0
    5.7932    3.9050    0.0000 H   0  0  0  0  0  0  0  0  0  0  0  0
    6.6592    5.4050    0.0000 H   0  0  0  0  0  0  0  0  0  0  0  0
  1 16  2  0  0  0  0
  2 21  2  0  0  0  0
  3 29  1  0  0  0  0
  3 52  1  0  0  0  0
  4  9  1  0  0  0  0
  4 16  1  0  0  0  0
  4 33  1  0  0  0  0
  5 12  1  0  0  0  0
  5 23  1  0  0  0  0
  5 24  1  0  0  0  0
  6  7  1  0  0  0  0
  6 21  1  0  0  0  0
  6 35  1  0  0  0  0
  7  8  2  0  0  0  0
  7 10  1  0  0  0  0
  8 13  1  0  0  0  0
  8 17  1  0  0  0  0
  9 10  2  0  0  0  0
  9 14  1  0  0  0  0
 10 30  1  0  0  0  0
 11 15  2  0  0  0  0
 11 16  1  0  0  0  0
 11 18  1  0  0  0  0
 12 15  1  0  0  0  0
 12 19  2  0  0  0  0
 13 14  2  0  0  0  0
 13 31  1  0  0  0  0
 14 32  1  0  0  0  0
 15 34  1  0  0  0  0
 17 36  1  0  0  0  0
 17 37  1  0  0  0  0
 17 38  1  0  0  0  0
 18 20  2  0  0  0  0
 18 40  1  0  0  0  0
 19 20  1  0  0  0  0
 19 39  1  0  0  0  0
 20 41  1  0  0  0  0
 21 22  1  0  0  0  0
 22 25  2  0  0  0  0
 22 26  1  0  0  0  0
 23 42  1  0  0  0  0
 23 43  1  0  0  0  0
 23 44  1  0  0  0  0
 24 45  1  0  0  0  0
 24 46  1  0  0  0  0
 24 47  1  0  0  0  0
 25 27  1  0  0  0  0
 25 48  1  0  0  0  0
 26 28  2  0  0  0  0
 26 49  1  0  0  0  0
 27 29  2  0  0  0  0
 27 50  1  0  0  0  0
 28 29  1  0  0  0  0
 28 51  1  0  0  0  0
M  END
> <PUBCHEM_COMPOUND_CID>
5730

> <PUBCHEM_COMPOUND_CANONICALIZED>
1

> <PUBCHEM_CACTVS_COMPLEXITY>
560

> <PUBCHEM_CACTVS_HBOND_ACCEPTOR>
4

> <PUBCHEM_CACTVS_HBOND_DONOR>
3

> <PUBCHEM_CACTVS_ROTATABLE_BOND>
5

> <PUBCHEM_CACTVS_SUBSKEYS>
AAADceB7MAAAAAAAAAAAAAAAAAAAAAAAAAAwYMAAAAAAAAABUAAAHgAQCAAADAyBmAQyxoPAAgCIAiVSUACCAAAlIgAIiAEObMgIJjLC1dOEcQhk1BHI2Yec3ALOKAAAQAQCAABQAACACAQAAAAAAAAAAA==

> <PUBCHEM_IUPAC_OPENEYE_NAME>
3-(dimethylamino)-N-[3-[(4-hydroxybenzoyl)amino]-4-methyl-phenyl]benzamide

> <PUBCHEM_IUPAC_CAS_NAME>
3-(dimethylamino)-N-[3-[[(4-hydroxyphenyl)-oxomethyl]amino]-4-methylphenyl]benzamide

> <PUBCHEM_IUPAC_NAME>
3-(dimethylamino)-N-[3-[(4-hydroxybenzoyl)amino]-4-methylphenyl]benzamide

> <PUBCHEM_IUPAC_SYSTEMATIC_NAME>
3-(dimethylamino)-N-[3-[(4-hydroxyphenyl)carbonylamino]-4-methyl-phenyl]benzamide

> <PUBCHEM_IUPAC_TRADITIONAL_NAME>
3-(dimethylamino)-N-[3-[(4-hydroxybenzoyl)amino]-4-methyl-phenyl]benzamide

> <PUBCHEM_IUPAC_INCHI>
InChI=1S/C23H23N3O3/c1-15-7-10-18(24-23(29)17-5-4-6-19(13-17)26(2)3)14-21(15)25-22(28)16-8-11-20(27)12-9-16/h4-14,27H,1-3H3,(H,24,29)(H,25,28)

> <PUBCHEM_IUPAC_INCHIKEY>
PYEFPDQFAZNXLI-UHFFFAOYSA-N

> <PUBCHEM_XLOGP3_AA>
3.7

> <PUBCHEM_EXACT_MASS>
389.173942

> <PUBCHEM_MOLECULAR_FORMULA>
C23H23N3O3

> <PUBCHEM_MOLECULAR_WEIGHT>
389.44702

> <PUBCHEM_OPENEYE_CAN_SMILES>
CC1=C(C=C(C=C1)NC(=O)C2=CC(=CC=C2)N(C)C)NC(=O)C3=CC=C(C=C3)O

> <PUBCHEM_OPENEYE_ISO_SMILES>
CC1=C(C=C(C=C1)NC(=O)C2=CC(=CC=C2)N(C)C)NC(=O)C3=CC=C(C=C3)O

> <PUBCHEM_CACTVS_TPSA>
81.7

> <PUBCHEM_MONOISOTOPIC_WEIGHT>
389.173942

> <PUBCHEM_TOTAL_CHARGE>
0

> <PUBCHEM_HEAVY_ATOM_COUNT>
29

> <PUBCHEM_ATOM_DEF_STEREO_COUNT>
0

> <PUBCHEM_ATOM_UDEF_STEREO_COUNT>
0

> <PUBCHEM_BOND_DEF_STEREO_COUNT>
0

> <PUBCHEM_BOND_UDEF_STEREO_COUNT>
0

> <PUBCHEM_ISOTOPIC_ATOM_COUNT>
0

> <PUBCHEM_COMPONENT_COUNT>
1

> <PUBCHEM_CACTVS_TAUTO_COUNT>
14

> <PUBCHEM_COORDINATE_TYPE>
1
5
255

> <PUBCHEM_BONDANNOTATIONS>
11  15  8
11  18  8
12  15  8
12  19  8
13  14  8
18  20  8
19  20  8
22  25  8
22  26  8
25  27  8
26  28  8
27  29  8
28  29  8
7  10  8
7  8  8
8  13  8
9  10  8
9  14  8

$$$$

