6762
  -OEChem-06261201292D

 58 61  0     0  0  0  0  0  0999 V2000
   11.5923   -2.7085    0.0000 Cl  0  0  0  0  0  0  0  0  0  0  0  0
    8.0622   -4.7327    0.0000 S   0  0  0  0  0  0  0  0  0  0  0  0
    2.8660    3.2673    0.0000 O   0  0  0  0  0  0  0  0  0  0  0  0
    3.7320    4.7673    0.0000 O   0  0  0  0  0  0  0  0  0  0  0  0
    6.3301    0.2673    0.0000 N   0  0  0  0  0  0  0  0  0  0  0  0
    4.5981    1.2673    0.0000 N   0  0  0  0  0  0  0  0  0  0  0  0
    8.0622   -2.7327    0.0000 N   0  0  0  0  0  0  0  0  0  0  0  0
    5.4641   -0.2327    0.0000 C   0  0  0  0  0  0  0  0  0  0  0  0
    6.3301    1.2673    0.0000 C   0  0  0  0  0  0  0  0  0  0  0  0
    4.5981    0.2673    0.0000 C   0  0  0  0  0  0  0  0  0  0  0  0
    5.4641    1.7673    0.0000 C   0  0  0  0  0  0  0  0  0  0  0  0
    7.1962   -0.2327    0.0000 C   0  0  0  0  0  0  0  0  0  0  0  0
    7.1962   -1.2327    0.0000 C   0  0  0  0  0  0  0  0  0  0  0  0
    3.7320    1.7673    0.0000 C   0  0  0  0  0  0  0  0  0  0  0  0
    8.0622   -1.7327    0.0000 C   0  0  0  0  0  0  0  0  0  0  0  0
    3.7320    2.7673    0.0000 C   0  0  0  0  0  0  0  0  0  0  0  0
    8.9282   -3.2327    0.0000 C   0  0  0  0  0  0  0  0  0  0  0  0
    7.1962   -3.2327    0.0000 C   0  0  0  0  0  0  0  0  0  0  0  0
    8.9282   -4.2327    0.0000 C   0  0  0  0  0  0  0  0  0  0  0  0
    7.1962   -4.2327    0.0000 C   0  0  0  0  0  0  0  0  0  0  0  0
    9.8222   -2.6980    0.0000 C   0  0  0  0  0  0  0  0  0  0  0  0
    6.3022   -2.6980    0.0000 C   0  0  0  0  0  0  0  0  0  0  0  0
    9.8222   -4.7673    0.0000 C   0  0  0  0  0  0  0  0  0  0  0  0
    6.3022   -4.7673    0.0000 C   0  0  0  0  0  0  0  0  0  0  0  0
   10.7282   -3.2118    0.0000 C   0  0  0  0  0  0  0  0  0  0  0  0
    5.3961   -3.2118    0.0000 C   0  0  0  0  0  0  0  0  0  0  0  0
   10.7282   -4.2535    0.0000 C   0  0  0  0  0  0  0  0  0  0  0  0
    5.3961   -4.2535    0.0000 C   0  0  0  0  0  0  0  0  0  0  0  0
    2.8660    4.2673    0.0000 C   0  0  0  0  0  0  0  0  0  0  0  0
    2.0000    4.7673    0.0000 C   0  0  0  0  0  0  0  0  0  0  0  0
    5.0656   -0.7076    0.0000 H   0  0  0  0  0  0  0  0  0  0  0  0
    5.8626   -0.7076    0.0000 H   0  0  0  0  0  0  0  0  0  0  0  0
    6.9407    1.1597    0.0000 H   0  0  0  0  0  0  0  0  0  0  0  0
    6.5422    1.8499    0.0000 H   0  0  0  0  0  0  0  0  0  0  0  0
    5.8626    2.2423    0.0000 H   0  0  0  0  0  0  0  0  0  0  0  0
    5.0656    2.2423    0.0000 H   0  0  0  0  0  0  0  0  0  0  0  0
    3.9875    0.3750    0.0000 H   0  0  0  0  0  0  0  0  0  0  0  0
    4.3860   -0.3153    0.0000 H   0  0  0  0  0  0  0  0  0  0  0  0
    7.8067   -0.3403    0.0000 H   0  0  0  0  0  0  0  0  0  0  0  0
    7.4082    0.3499    0.0000 H   0  0  0  0  0  0  0  0  0  0  0  0
    6.5856   -1.1250    0.0000 H   0  0  0  0  0  0  0  0  0  0  0  0
    6.9841   -1.8153    0.0000 H   0  0  0  0  0  0  0  0  0  0  0  0
    3.1215    1.8750    0.0000 H   0  0  0  0  0  0  0  0  0  0  0  0
    3.5200    1.1847    0.0000 H   0  0  0  0  0  0  0  0  0  0  0  0
    8.6728   -1.8403    0.0000 H   0  0  0  0  0  0  0  0  0  0  0  0
    8.2742   -1.1501    0.0000 H   0  0  0  0  0  0  0  0  0  0  0  0
    4.3426    2.6597    0.0000 H   0  0  0  0  0  0  0  0  0  0  0  0
    3.9441    3.3499    0.0000 H   0  0  0  0  0  0  0  0  0  0  0  0
    9.8150   -2.0780    0.0000 H   0  0  0  0  0  0  0  0  0  0  0  0
    6.3094   -2.0780    0.0000 H   0  0  0  0  0  0  0  0  0  0  0  0
    9.8150   -5.3873    0.0000 H   0  0  0  0  0  0  0  0  0  0  0  0
    6.3094   -5.3873    0.0000 H   0  0  0  0  0  0  0  0  0  0  0  0
    4.8604   -2.8998    0.0000 H   0  0  0  0  0  0  0  0  0  0  0  0
   11.2639   -4.5656    0.0000 H   0  0  0  0  0  0  0  0  0  0  0  0
    4.8604   -4.5656    0.0000 H   0  0  0  0  0  0  0  0  0  0  0  0
    2.3100    5.3043    0.0000 H   0  0  0  0  0  0  0  0  0  0  0  0
    1.4631    5.0773    0.0000 H   0  0  0  0  0  0  0  0  0  0  0  0
    1.6900    4.2304    0.0000 H   0  0  0  0  0  0  0  0  0  0  0  0
  1 25  1  0  0  0  0
  2 19  1  0  0  0  0
  2 20  1  0  0  0  0
  3 16  1  0  0  0  0
  3 29  1  0  0  0  0
  4 29  2  0  0  0  0
  5  8  1  0  0  0  0
  5  9  1  0  0  0  0
  5 12  1  0  0  0  0
  6 10  1  0  0  0  0
  6 11  1  0  0  0  0
  6 14  1  0  0  0  0
  7 15  1  0  0  0  0
  7 17  1  0  0  0  0
  7 18  1  0  0  0  0
  8 10  1  0  0  0  0
  8 31  1  0  0  0  0
  8 32  1  0  0  0  0
  9 11  1  0  0  0  0
  9 33  1  0  0  0  0
  9 34  1  0  0  0  0
 10 37  1  0  0  0  0
 10 38  1  0  0  0  0
 11 35  1  0  0  0  0
 11 36  1  0  0  0  0
 12 13  1  0  0  0  0
 12 39  1  0  0  0  0
 12 40  1  0  0  0  0
 13 15  1  0  0  0  0
 13 41  1  0  0  0  0
 13 42  1  0  0  0  0
 14 16  1  0  0  0  0
 14 43  1  0  0  0  0
 14 44  1  0  0  0  0
 15 45  1  0  0  0  0
 15 46  1  0  0  0  0
 16 47  1  0  0  0  0
 16 48  1  0  0  0  0
 17 19  2  0  0  0  0
 17 21  1  0  0  0  0
 18 20  1  0  0  0  0
 18 22  2  0  0  0  0
 19 23  1  0  0  0  0
 20 24  2  0  0  0  0
 21 25  2  0  0  0  0
 21 49  1  0  0  0  0
 22 26  1  0  0  0  0
 22 50  1  0  0  0  0
 23 27  2  0  0  0  0
 23 51  1  0  0  0  0
 24 28  1  0  0  0  0
 24 52  1  0  0  0  0
 25 27  1  0  0  0  0
 26 28  2  0  0  0  0
 26 53  1  0  0  0  0
 27 54  1  0  0  0  0
 28 55  1  0  0  0  0
 29 30  1  0  0  0  0
 30 56  1  0  0  0  0
 30 57  1  0  0  0  0
 30 58  1  0  0  0  0
M  END
> <PUBCHEM_COMPOUND_CID>
6762

> <PUBCHEM_COMPOUND_CANONICALIZED>
1

> <PUBCHEM_CACTVS_COMPLEXITY>
561

> <PUBCHEM_CACTVS_HBOND_ACCEPTOR>
6

> <PUBCHEM_CACTVS_HBOND_DONOR>
0

> <PUBCHEM_CACTVS_ROTATABLE_BOND>
8

> <PUBCHEM_CACTVS_SUBSKEYS>
AAADceB7MABEAAAAAAAAAAAAAAAAAAAAAAA8eIEAAAAAAACxQAAAHgYAAAAACArh0CYyyYMABAiIACTSSACCAAAhDxAIiBwIZogKYGLh05GXIAhggAD4yAcQAAAAAAIAAAIAAQAABAAABAACAAAAAAAAAA==

> <PUBCHEM_IUPAC_OPENEYE_NAME>
2-[4-[3-(2-chlorophenothiazin-10-yl)propyl]piperazin-1-yl]ethyl acetate

> <PUBCHEM_IUPAC_CAS_NAME>
acetic acid 2-[4-[3-(2-chloro-10-phenothiazinyl)propyl]-1-piperazinyl]ethyl ester

> <PUBCHEM_IUPAC_NAME>
2-[4-[3-(2-chlorophenothiazin-10-yl)propyl]piperazin-1-yl]ethyl acetate

> <PUBCHEM_IUPAC_SYSTEMATIC_NAME>
2-[4-[3-(2-chloranylphenothiazin-10-yl)propyl]piperazin-1-yl]ethyl ethanoate

> <PUBCHEM_IUPAC_TRADITIONAL_NAME>
acetic acid 2-[4-[3-(2-chlorophenothiazin-10-yl)propyl]piperazino]ethyl ester

> <PUBCHEM_IUPAC_INCHI>
InChI=1S/C23H28ClN3O2S/c1-18(28)29-16-15-26-13-11-25(12-14-26)9-4-10-27-20-5-2-3-6-22(20)30-23-8-7-19(24)17-21(23)27/h2-3,5-8,17H,4,9-16H2,1H3

> <PUBCHEM_IUPAC_INCHIKEY>
AIUHRQHVWSUTGJ-UHFFFAOYSA-N

> <PUBCHEM_XLOGP3>
4.8

> <PUBCHEM_EXACT_MASS>
445.159076

> <PUBCHEM_MOLECULAR_FORMULA>
C23H28ClN3O2S

> <PUBCHEM_MOLECULAR_WEIGHT>
446.00532

> <PUBCHEM_OPENEYE_CAN_SMILES>
CC(=O)OCCN1CCN(CC1)CCCN2C3=CC=CC=C3SC4=C2C=C(C=C4)Cl

> <PUBCHEM_OPENEYE_ISO_SMILES>
CC(=O)OCCN1CCN(CC1)CCCN2C3=CC=CC=C3SC4=C2C=C(C=C4)Cl

> <PUBCHEM_CACTVS_TPSA>
61.3

> <PUBCHEM_MONOISOTOPIC_WEIGHT>
445.159076

> <PUBCHEM_TOTAL_CHARGE>
0

> <PUBCHEM_HEAVY_ATOM_COUNT>
30

> <PUBCHEM_ATOM_DEF_STEREO_COUNT>
0

> <PUBCHEM_ATOM_UDEF_STEREO_COUNT>
0

> <PUBCHEM_BOND_DEF_STEREO_COUNT>
0

> <PUBCHEM_BOND_UDEF_STEREO_COUNT>
0

> <PUBCHEM_ISOTOPIC_ATOM_COUNT>
0

> <PUBCHEM_COMPONENT_COUNT>
1

> <PUBCHEM_CACTVS_TAUTO_COUNT>
1

> <PUBCHEM_COORDINATE_TYPE>
1
5
255

> <PUBCHEM_BONDANNOTATIONS>
17  19  8
17  21  8
18  20  8
18  22  8
19  23  8
20  24  8
21  25  8
22  26  8
23  27  8
24  28  8
25  27  8
26  28  8

$$$$

