12843
  -OEChem-06261207262D

 26 26  0     1  0  0  0  0  0999 V2000
    2.8660   -3.6550    0.0000 Cl  0  0  0  0  0  0  0  0  0  0  0  0
    3.7320    1.8450    0.0000 O   0  0  0  0  0  0  0  0  0  0  0  0
    5.4641    1.8450    0.0000 O   0  0  0  0  0  0  0  0  0  0  0  0
    4.5981    3.3450    0.0000 N   0  0  0  0  0  0  0  0  0  0  0  0
    2.8660    0.3450    0.0000 C   0  0  0  0  0  0  0  0  0  0  0  0
    3.7320    0.8450    0.0000 C   0  0  3  0  0  0  0  0  0  0  0  0
    2.8660   -0.6550    0.0000 C   0  0  0  0  0  0  0  0  0  0  0  0
    4.5981    0.3450    0.0000 C   0  0  0  0  0  0  0  0  0  0  0  0
    2.0000   -1.1550    0.0000 C   0  0  0  0  0  0  0  0  0  0  0  0
    3.7320   -1.1550    0.0000 C   0  0  0  0  0  0  0  0  0  0  0  0
    2.0000   -2.1550    0.0000 C   0  0  0  0  0  0  0  0  0  0  0  0
    3.7320   -2.1550    0.0000 C   0  0  0  0  0  0  0  0  0  0  0  0
    2.8660   -2.6550    0.0000 C   0  0  0  0  0  0  0  0  0  0  0  0
    4.5981    2.3450    0.0000 C   0  0  0  0  0  0  0  0  0  0  0  0
    2.6540    0.9276    0.0000 H   0  0  0  0  0  0  0  0  0  0  0  0
    2.2554    0.2373    0.0000 H   0  0  0  0  0  0  0  0  0  0  0  0
    4.2690    1.1550    0.0000 H   0  0  0  0  0  0  0  0  0  0  0  0
    4.2881   -0.1919    0.0000 H   0  0  0  0  0  0  0  0  0  0  0  0
    5.1350    0.0350    0.0000 H   0  0  0  0  0  0  0  0  0  0  0  0
    4.9081    0.8819    0.0000 H   0  0  0  0  0  0  0  0  0  0  0  0
    1.4631   -0.8450    0.0000 H   0  0  0  0  0  0  0  0  0  0  0  0
    4.2690   -0.8450    0.0000 H   0  0  0  0  0  0  0  0  0  0  0  0
    1.4631   -2.4650    0.0000 H   0  0  0  0  0  0  0  0  0  0  0  0
    4.2690   -2.4650    0.0000 H   0  0  0  0  0  0  0  0  0  0  0  0
    5.1350    3.6550    0.0000 H   0  0  0  0  0  0  0  0  0  0  0  0
    4.0611    3.6550    0.0000 H   0  0  0  0  0  0  0  0  0  0  0  0
  1 13  1  0  0  0  0
  2  6  1  0  0  0  0
  2 14  1  0  0  0  0
  3 14  2  0  0  0  0
  4 14  1  0  0  0  0
  4 25  1  0  0  0  0
  4 26  1  0  0  0  0
  5  6  1  0  0  0  0
  5  7  1  0  0  0  0
  5 15  1  0  0  0  0
  5 16  1  0  0  0  0
  6  8  1  0  0  0  0
  6 17  1  0  0  0  0
  7  9  2  0  0  0  0
  7 10  1  0  0  0  0
  8 18  1  0  0  0  0
  8 19  1  0  0  0  0
  8 20  1  0  0  0  0
  9 11  1  0  0  0  0
  9 21  1  0  0  0  0
 10 12  2  0  0  0  0
 10 22  1  0  0  0  0
 11 13  2  0  0  0  0
 11 23  1  0  0  0  0
 12 13  1  0  0  0  0
 12 24  1  0  0  0  0
M  END
> <PUBCHEM_COMPOUND_CID>
12843

> <PUBCHEM_COMPOUND_CANONICALIZED>
1

> <PUBCHEM_CACTVS_COMPLEXITY>
191

> <PUBCHEM_CACTVS_HBOND_ACCEPTOR>
2

> <PUBCHEM_CACTVS_HBOND_DONOR>
1

> <PUBCHEM_CACTVS_ROTATABLE_BOND>
4

> <PUBCHEM_CACTVS_SUBSKEYS>
AAADccByMAAEAAAAAAAAAAAAAAAAAAAAAAAwAAAAAAAAAAABAAAAHgIQAAAADBagmCIyCIBABACIAiBCGAACAAAgBQAIiAAAAokIICKBExCIIAAkwAEIiAeAwKAOBAAAAAAAAAAIAAAAAAAAAAAAAAAAAA==

> <PUBCHEM_IUPAC_OPENEYE_NAME>
[2-(4-chlorophenyl)-1-methyl-ethyl] carbamate

> <PUBCHEM_IUPAC_CAS_NAME>
carbamic acid 1-(4-chlorophenyl)propan-2-yl ester

> <PUBCHEM_IUPAC_NAME>
1-(4-chlorophenyl)propan-2-yl carbamate

> <PUBCHEM_IUPAC_SYSTEMATIC_NAME>
1-(4-chlorophenyl)propan-2-yl carbamate

> <PUBCHEM_IUPAC_TRADITIONAL_NAME>
carbamic acid [2-(4-chlorophenyl)-1-methyl-ethyl] ester

> <PUBCHEM_IUPAC_INCHI>
InChI=1S/C10H12ClNO2/c1-7(14-10(12)13)6-8-2-4-9(11)5-3-8/h2-5,7H,6H2,1H3,(H2,12,13)

> <PUBCHEM_IUPAC_INCHIKEY>
LYBZFTSSSXEHFJ-UHFFFAOYSA-N

> <PUBCHEM_XLOGP3_AA>
2.6

> <PUBCHEM_EXACT_MASS>
213.055656

> <PUBCHEM_MOLECULAR_FORMULA>
C10H12ClNO2

> <PUBCHEM_MOLECULAR_WEIGHT>
213.66078

> <PUBCHEM_OPENEYE_CAN_SMILES>
CC(CC1=CC=C(C=C1)Cl)OC(=O)N

> <PUBCHEM_OPENEYE_ISO_SMILES>
CC(CC1=CC=C(C=C1)Cl)OC(=O)N

> <PUBCHEM_CACTVS_TPSA>
52.3

> <PUBCHEM_MONOISOTOPIC_WEIGHT>
213.055656

> <PUBCHEM_TOTAL_CHARGE>
0

> <PUBCHEM_HEAVY_ATOM_COUNT>
14

> <PUBCHEM_ATOM_DEF_STEREO_COUNT>
0

> <PUBCHEM_ATOM_UDEF_STEREO_COUNT>
1

> <PUBCHEM_BOND_DEF_STEREO_COUNT>
0

> <PUBCHEM_BOND_UDEF_STEREO_COUNT>
0

> <PUBCHEM_ISOTOPIC_ATOM_COUNT>
0

> <PUBCHEM_COMPONENT_COUNT>
1

> <PUBCHEM_CACTVS_TAUTO_COUNT>
2

> <PUBCHEM_COORDINATE_TYPE>
1
5
255

> <PUBCHEM_BONDANNOTATIONS>
10  12  8
11  13  8
12  13  8
6  8  3
7  10  8
7  9  8
9  11  8

$$$$

