12818
  -OEChem-06261207243D

 23 23  0     0  0  0  0  0  0999 V2000
    4.5800    0.0884    0.4947 Br  0  0  0  0  0  0  0  0  0  0  0  0
   -1.7180   -0.0870   -0.7684 S   0  0  0  0  0  0  0  0  0  0  0  0
   -2.0421    1.1165   -1.5117 O   0  0  0  0  0  0  0  0  0  0  0  0
   -2.0033   -1.3848   -1.3519 O   0  0  0  0  0  0  0  0  0  0  0  0
   -2.4204    0.0028    0.8040 N   0  0  0  0  0  0  0  0  0  0  0  0
    0.0177   -0.0382   -0.4196 C   0  0  0  0  0  0  0  0  0  0  0  0
    0.6949   -1.2251   -0.2101 C   0  0  0  0  0  0  0  0  0  0  0  0
    0.6586    1.1857   -0.3645 C   0  0  0  0  0  0  0  0  0  0  0  0
   -2.0859   -1.0695    1.7753 C   0  0  0  0  0  0  0  0  0  0  0  0
   -2.4966    1.3364    1.4533 C   0  0  0  0  0  0  0  0  0  0  0  0
    2.0621   -1.1868    0.0644 C   0  0  0  0  0  0  0  0  0  0  0  0
    2.0257    1.2239   -0.0900 C   0  0  0  0  0  0  0  0  0  0  0  0
    2.7274    0.0377    0.1245 C   0  0  0  0  0  0  0  0  0  0  0  0
    0.1943   -2.1875   -0.2477 H   0  0  0  0  0  0  0  0  0  0  0  0
    0.1281    2.1196   -0.5217 H   0  0  0  0  0  0  0  0  0  0  0  0
   -2.0604   -2.0447    1.2815 H   0  0  0  0  0  0  0  0  0  0  0  0
   -2.8625   -1.1186    2.5454 H   0  0  0  0  0  0  0  0  0  0  0  0
   -1.1236   -0.8755    2.2569 H   0  0  0  0  0  0  0  0  0  0  0  0
   -2.8962    2.0801    0.7588 H   0  0  0  0  0  0  0  0  0  0  0  0
   -1.5112    1.6531    1.8053 H   0  0  0  0  0  0  0  0  0  0  0  0
   -3.1796    1.2935    2.3078 H   0  0  0  0  0  0  0  0  0  0  0  0
    2.5940   -2.1201    0.2302 H   0  0  0  0  0  0  0  0  0  0  0  0
    2.5289    2.1864   -0.0453 H   0  0  0  0  0  0  0  0  0  0  0  0
  1 13  1  0  0  0  0
  2  3  2  0  0  0  0
  2  4  2  0  0  0  0
  2  5  1  0  0  0  0
  2  6  1  0  0  0  0
  5  9  1  0  0  0  0
  5 10  1  0  0  0  0
  6  7  2  0  0  0  0
  6  8  1  0  0  0  0
  7 11  1  0  0  0  0
  7 14  1  0  0  0  0
  8 12  2  0  0  0  0
  8 15  1  0  0  0  0
  9 16  1  0  0  0  0
  9 17  1  0  0  0  0
  9 18  1  0  0  0  0
 10 19  1  0  0  0  0
 10 20  1  0  0  0  0
 10 21  1  0  0  0  0
 11 13  2  0  0  0  0
 11 22  1  0  0  0  0
 12 13  1  0  0  0  0
 12 23  1  0  0  0  0
M  END
> <PUBCHEM_COMPOUND_CID>
12818

> <PUBCHEM_CONFORMER_RMSD>
0.6

> <PUBCHEM_CONFORMER_DIVERSEORDER>
1
3
2

> <PUBCHEM_MMFF94_PARTIAL_CHARGES>
17
1 -0.11
10 0.36
11 -0.15
12 -0.15
13 0.11
14 0.15
15 0.15
2 1.45
22 0.15
23 0.15
3 -0.65
4 -0.65
5 -0.85
6 -0.01
7 -0.15
8 -0.15
9 0.36

> <PUBCHEM_EFFECTIVE_ROTOR_COUNT>
2

> <PUBCHEM_PHARMACOPHORE_FEATURES>
4
1 1 hydrophobe
1 3 acceptor
1 4 acceptor
6 6 7 8 11 12 13 rings

> <PUBCHEM_HEAVY_ATOM_COUNT>
13

> <PUBCHEM_ATOM_DEF_STEREO_COUNT>
0

> <PUBCHEM_ATOM_UDEF_STEREO_COUNT>
0

> <PUBCHEM_BOND_DEF_STEREO_COUNT>
0

> <PUBCHEM_BOND_UDEF_STEREO_COUNT>
0

> <PUBCHEM_ISOTOPIC_ATOM_COUNT>
0

> <PUBCHEM_COMPONENT_COUNT>
1

> <PUBCHEM_CACTVS_TAUTO_COUNT>
1

> <PUBCHEM_CONFORMER_ID>
0000321200000001

> <PUBCHEM_MMFF94_ENERGY>
19.1522

> <PUBCHEM_FEATURE_SELFOVERLAP>
20.316

> <PUBCHEM_SHAPE_FINGERPRINT>
11769659 78 15410905050278165552
12138202 97 16414937299747598239
12251169 10 18271509945098881873
124424 183 17631750347297523204
12491281 212 17967249806263954810
12932764 1 18412267237775193358
13024252 1 17346886658596579327
13296909 8 17530689787981111648
13764800 53 15068607280504608483
13839132 238 14346340351065136841
15309172 13 18408888434264173830
15653759 3 16988844969082303720
15775835 57 17240758531744602169
16945 1 18335423486859499892
17844478 74 17846771906008178020
18186145 218 18113621162604909564
19026448 4 15698288806950765756
19026448 5 16081092576264525886
19837323 101 13985202437302883803
200 152 18189065230601756319
20279233 1 17847064406250359402
20645464 45 17989204880011467819
21061003 4 17846491530664576820
23402539 116 17274557472365181055
2748010 2 18123195872894000998
305870 269 17458897253649945094
5084963 1 18263658268061276566
568465 68 18270384023801644450

> <PUBCHEM_SHAPE_MULTIPOLES>
260.61
5.95
1.49
1.41
5.32
0.01
0.23
0.33
1.67
-0.37
0.02
-1.53
-0.05
-0.07

> <PUBCHEM_SHAPE_SELFOVERLAP>
503.268

> <PUBCHEM_SHAPE_VOLUME>
163.1

> <PUBCHEM_COORDINATE_TYPE>
2
5
10

$$$$

