17395771
  -OEChem-06241222523D

 42 44  0     0  0  0  0  0  0999 V2000
   -6.1315    1.8255    1.1501 Cl  0  0  0  0  0  0  0  0  0  0  0  0
    2.2593   -2.4381   -0.5632 O   0  0  0  0  0  0  0  0  0  0  0  0
    5.2194    0.3289    1.8020 O   0  0  0  0  0  0  0  0  0  0  0  0
    0.9605    0.0987   -1.4726 N   0  0  0  0  0  0  0  0  0  0  0  0
    3.5389    1.3382    0.5485 N   0  0  0  0  0  0  0  0  0  0  0  0
    3.7541   -1.0729    0.6298 N   0  0  0  0  0  0  0  0  0  0  0  0
    1.6737    2.1186   -0.8548 N   0  0  0  0  0  0  0  0  0  0  0  0
   -1.9416   -0.2741   -0.9831 N   0  0  0  0  0  0  0  0  0  0  0  0
    2.0351   -0.1088   -0.6562 C   0  0  0  0  0  0  0  0  0  0  0  0
    0.1494   -0.8991   -2.1283 C   0  0  0  0  0  0  0  0  0  0  0  0
    2.4519    1.1426   -0.2924 C   0  0  0  0  0  0  0  0  0  0  0  0
   -1.0390   -1.3515   -1.2868 C   0  0  0  0  0  0  0  0  0  0  0  0
    2.6493   -1.3234   -0.2269 C   0  0  0  0  0  0  0  0  0  0  0  0
    0.7820    1.4552   -1.5616 C   0  0  0  0  0  0  0  0  0  0  0  0
    4.2444    0.2160    1.0502 C   0  0  0  0  0  0  0  0  0  0  0  0
    3.9516    2.6878    0.9129 C   0  0  0  0  0  0  0  0  0  0  0  0
   -3.0918   -0.4190   -0.2182 C   0  0  0  0  0  0  0  0  0  0  0  0
    4.4665   -2.2412    1.1369 C   0  0  0  0  0  0  0  0  0  0  0  0
   -3.9240    0.6707    0.0382 C   0  0  0  0  0  0  0  0  0  0  0  0
   -3.4099   -1.6758    0.2963 C   0  0  0  0  0  0  0  0  0  0  0  0
   -5.0744    0.5035    0.8094 C   0  0  0  0  0  0  0  0  0  0  0  0
   -3.5717    2.0146   -0.5214 C   0  0  0  0  0  0  0  0  0  0  0  0
   -4.5600   -1.8431    1.0674 C   0  0  0  0  0  0  0  0  0  0  0  0
   -5.3923   -0.7534    1.3240 C   0  0  0  0  0  0  0  0  0  0  0  0
    0.7851   -1.7468   -2.4000 H   0  0  0  0  0  0  0  0  0  0  0  0
   -0.2018   -0.4591   -3.0704 H   0  0  0  0  0  0  0  0  0  0  0  0
   -1.5658   -2.1346   -1.8454 H   0  0  0  0  0  0  0  0  0  0  0  0
   -0.6586   -1.7947   -0.3580 H   0  0  0  0  0  0  0  0  0  0  0  0
   -0.0034    1.9020   -2.1561 H   0  0  0  0  0  0  0  0  0  0  0  0
   -1.8047    0.6040   -1.4675 H   0  0  0  0  0  0  0  0  0  0  0  0
    3.1215    3.1876    1.4216 H   0  0  0  0  0  0  0  0  0  0  0  0
    4.2106    3.2377    0.0028 H   0  0  0  0  0  0  0  0  0  0  0  0
    4.8187    2.6792    1.5782 H   0  0  0  0  0  0  0  0  0  0  0  0
    5.5139   -2.1735    0.8256 H   0  0  0  0  0  0  0  0  0  0  0  0
    4.0448   -3.1834    0.7801 H   0  0  0  0  0  0  0  0  0  0  0  0
    4.4337   -2.2221    2.2309 H   0  0  0  0  0  0  0  0  0  0  0  0
   -2.7946   -2.5534    0.1229 H   0  0  0  0  0  0  0  0  0  0  0  0
   -3.6864    2.0073   -1.6109 H   0  0  0  0  0  0  0  0  0  0  0  0
   -4.1706    2.8441   -0.1405 H   0  0  0  0  0  0  0  0  0  0  0  0
   -2.5358    2.2725   -0.2719 H   0  0  0  0  0  0  0  0  0  0  0  0
   -4.8083   -2.8216    1.4680 H   0  0  0  0  0  0  0  0  0  0  0  0
   -6.2849   -0.9010    1.9266 H   0  0  0  0  0  0  0  0  0  0  0  0
  1 21  1  0  0  0  0
  2 13  2  0  0  0  0
  3 15  2  0  0  0  0
  4  9  1  0  0  0  0
  4 10  1  0  0  0  0
  4 14  1  0  0  0  0
  5 11  1  0  0  0  0
  5 15  1  0  0  0  0
  5 16  1  0  0  0  0
  6 13  1  0  0  0  0
  6 15  1  0  0  0  0
  6 18  1  0  0  0  0
  7 11  1  0  0  0  0
  7 14  2  0  0  0  0
  8 12  1  0  0  0  0
  8 17  1  0  0  0  0
  8 30  1  0  0  0  0
  9 11  2  0  0  0  0
  9 13  1  0  0  0  0
 10 12  1  0  0  0  0
 10 25  1  0  0  0  0
 10 26  1  0  0  0  0
 12 27  1  0  0  0  0
 12 28  1  0  0  0  0
 14 29  1  0  0  0  0
 16 31  1  0  0  0  0
 16 32  1  0  0  0  0
 16 33  1  0  0  0  0
 17 19  2  0  0  0  0
 17 20  1  0  0  0  0
 18 34  1  0  0  0  0
 18 35  1  0  0  0  0
 18 36  1  0  0  0  0
 19 21  1  0  0  0  0
 19 22  1  0  0  0  0
 20 23  2  0  0  0  0
 20 37  1  0  0  0  0
 21 24  2  0  0  0  0
 22 38  1  0  0  0  0
 22 39  1  0  0  0  0
 22 40  1  0  0  0  0
 23 24  1  0  0  0  0
 23 41  1  0  0  0  0
 24 42  1  0  0  0  0
M  END
> <PUBCHEM_COMPOUND_CID>
17395771

> <PUBCHEM_CONFORMER_RMSD>
0.8

> <PUBCHEM_CONFORMER_DIVERSEORDER>
3
24
18
21
17
5
12
25
7
15
13
1
23
16
14
19
6
8
10
22
2
26
20
28
11
4
29
27
9

> <PUBCHEM_MMFF94_PARTIAL_CHARGES>
29
1 -0.18
10 0.26
11 0.29
12 0.37
13 0.71
14 0.04
15 0.69
16 0.3
17 0.1
18 0.3
19 -0.14
2 -0.57
20 -0.15
21 0.18
22 0.14
23 -0.15
24 -0.15
29 0.15
3 -0.57
30 0.4
37 0.15
4 0.05
41 0.15
42 0.15
5 -0.42
6 -0.42
7 -0.57
8 -0.87
9 -0.24

> <PUBCHEM_EFFECTIVE_ROTOR_COUNT>
4

> <PUBCHEM_PHARMACOPHORE_FEATURES>
8
1 2 acceptor
1 3 acceptor
1 8 cation
1 8 donor
3 4 7 14 cation
5 4 7 9 11 14 rings
6 17 19 20 21 23 24 rings
6 5 6 9 11 13 15 rings

> <PUBCHEM_HEAVY_ATOM_COUNT>
24

> <PUBCHEM_ATOM_DEF_STEREO_COUNT>
0

> <PUBCHEM_ATOM_UDEF_STEREO_COUNT>
0

> <PUBCHEM_BOND_DEF_STEREO_COUNT>
0

> <PUBCHEM_BOND_UDEF_STEREO_COUNT>
0

> <PUBCHEM_ISOTOPIC_ATOM_COUNT>
0

> <PUBCHEM_COMPONENT_COUNT>
1

> <PUBCHEM_CACTVS_TAUTO_COUNT>
1

> <PUBCHEM_CONFORMER_ID>
0109703B00000003

> <PUBCHEM_MMFF94_ENERGY>
60.4911

> <PUBCHEM_FEATURE_SELFOVERLAP>
40.709

> <PUBCHEM_SHAPE_FINGERPRINT>
10319926 262 18341883126431644291
10498660 4 5978389400324174715
10928967 22 14189572997248345513
12363563 72 14692578684671689735
12403259 118 18334009459330145845
12467345 10 18413390959933170251
12596602 18 18409448072512831131
12633257 1 17989204815719015507
12892183 10 18341616970996513237
13103583 49 18131073744341077793
13583140 156 18339375097089723437
13675066 3 18412263951998656927
14223995 32 17766840911817283013
14251764 30 15697997491465658210
14251764 38 17968931028426396913
14341114 176 18343295981308105059
14420673 8 17986670583140928635
14528608 73 7060375916454298171
14790565 3 18126004854769001356
15188451 53 17632296714804708387
15238133 3 17458351806194592440
15475509 84 18189057663028065448
15527383 91 18341050804555763814
1813 80 16343701045069170110
19377110 9 17968097452820998855
193927 3 14549023165246923245
20715895 44 18043805605962539345
20739085 24 18272092669672999940
20775530 9 15264840565324867434
21033648 29 17895205427539684155
21065199 12 18413671301101824245
21756936 100 17755584846158161676
21859007 373 17702110373240891941
23559900 14 18119782907313466399
2838139 119 4678812848603089850
312425 54 18131069350906292507
341906 21 16515406235523902519
3737641 26 17130156522724627154
4259306 186 12895078422308298969
439807 62 10519984864296520449
46194498 28 9583222951372932443
474 4 14923947838441434419
5104073 3 18411125940811495715
5924683 9 18337392635319112087
7097593 13 18270963440543776839
7970288 3 14333405653669432849
8509985 295 18113619005977445785
960060 61 11023826133196133739

> <PUBCHEM_SHAPE_MULTIPOLES>
459.13
13.43
2.63
1.66
8.7
0.35
0.28
1.61
-9.09
-0.99
-0.34
-0.56
-0.09
0.11

> <PUBCHEM_SHAPE_SELFOVERLAP>
979.989

> <PUBCHEM_SHAPE_VOLUME>
257.9

> <PUBCHEM_COORDINATE_TYPE>
2
5
10

$$$$

