11356
  -OEChem-06261205343D

 19 19  0     0  0  0  0  0  0999 V2000
    2.5908    1.4769    0.0008 O   0  5  0  0  0  0  0  0  0  0  0  0
    2.7407   -0.7132    0.0004 O   0  0  0  0  0  0  0  0  0  0  0  0
    0.7458   -2.1998    0.0003 N   0  0  0  0  0  0  0  0  0  0  0  0
    2.0622    0.3406    0.0000 N   0  3  0  0  0  0  0  0  0  0  0  0
   -2.1442    0.1092    0.0000 C   0  0  0  0  0  0  0  0  0  0  0  0
    0.0039   -0.9969   -0.0006 C   0  0  0  0  0  0  0  0  0  0  0  0
    0.6424    0.2433   -0.0008 C   0  0  0  0  0  0  0  0  0  0  0  0
   -1.3895   -1.0639   -0.0002 C   0  0  0  0  0  0  0  0  0  0  0  0
   -1.5057    1.3493   -0.0001 C   0  0  0  0  0  0  0  0  0  0  0  0
   -0.1125    1.4164   -0.0006 C   0  0  0  0  0  0  0  0  0  0  0  0
   -3.6338    0.0382    0.0009 C   0  0  0  0  0  0  0  0  0  0  0  0
   -1.8895   -2.0300   -0.0017 H   0  0  0  0  0  0  0  0  0  0  0  0
   -2.0829    2.2702   -0.0017 H   0  0  0  0  0  0  0  0  0  0  0  0
    0.3463    2.4018   -0.0011 H   0  0  0  0  0  0  0  0  0  0  0  0
   -3.9859   -0.8415    0.5504 H   0  0  0  0  0  0  0  0  0  0  0  0
   -4.0724    0.9159    0.4876 H   0  0  0  0  0  0  0  0  0  0  0  0
   -4.0079   -0.0158   -1.0263 H   0  0  0  0  0  0  0  0  0  0  0  0
    0.2528   -3.0836   -0.0009 H   0  0  0  0  0  0  0  0  0  0  0  0
    1.7543   -2.2068   -0.0034 H   0  0  0  0  0  0  0  0  0  0  0  0
  1  4  1  0  0  0  0
  2  4  2  0  0  0  0
  3  6  1  0  0  0  0
  3 18  1  0  0  0  0
  3 19  1  0  0  0  0
  4  7  1  0  0  0  0
  5  8  2  0  0  0  0
  5  9  1  0  0  0  0
  5 11  1  0  0  0  0
  6  7  2  0  0  0  0
  6  8  1  0  0  0  0
  7 10  1  0  0  0  0
  8 12  1  0  0  0  0
  9 10  2  0  0  0  0
  9 13  1  0  0  0  0
 10 14  1  0  0  0  0
 11 15  1  0  0  0  0
 11 16  1  0  0  0  0
 11 17  1  0  0  0  0
M  CHG  2   1  -1   4   1
M  END
> <PUBCHEM_COMPOUND_CID>
11356

> <PUBCHEM_CONFORMER_RMSD>
0.4

> <PUBCHEM_CONFORMER_DIVERSEORDER>
1

> <PUBCHEM_MMFF94_PARTIAL_CHARGES>
16
1 -0.52
10 -0.15
11 0.14
12 0.15
13 0.15
14 0.15
18 0.4
19 0.4
2 -0.52
3 -0.9
4 0.91
5 -0.14
6 0.1
7 0.13
8 -0.15
9 -0.15

> <PUBCHEM_EFFECTIVE_ROTOR_COUNT>
1

> <PUBCHEM_PHARMACOPHORE_FEATURES>
6
1 1 acceptor
1 1 anion
1 2 acceptor
1 3 cation
1 3 donor
6 5 6 7 8 9 10 rings

> <PUBCHEM_HEAVY_ATOM_COUNT>
11

> <PUBCHEM_ATOM_DEF_STEREO_COUNT>
0

> <PUBCHEM_ATOM_UDEF_STEREO_COUNT>
0

> <PUBCHEM_BOND_DEF_STEREO_COUNT>
0

> <PUBCHEM_BOND_UDEF_STEREO_COUNT>
0

> <PUBCHEM_ISOTOPIC_ATOM_COUNT>
0

> <PUBCHEM_COMPONENT_COUNT>
1

> <PUBCHEM_CACTVS_TAUTO_COUNT>
1

> <PUBCHEM_CONFORMER_ID>
00002C5C00000001

> <PUBCHEM_MMFF94_ENERGY>
46.5888

> <PUBCHEM_FEATURE_SELFOVERLAP>
30.528

> <PUBCHEM_SHAPE_FINGERPRINT>
10219947 1 18413386519121744785
12032990 46 18411410713848614659
12897270 3 18411701014835224245
14325111 11 18410856542676406081
16945 1 18410574032554392423
193761 8 17834113426348565189
20201158 50 18341332279426953283
20645476 183 17773580638410147758
21040471 1 18338797793297368384
23235685 24 18412268311401115497
23402655 69 18193576652098140509
23463225 33 18342178903185077578
23552423 10 18269550718352047615
241688 4 17546726414069571122
2748010 2 18194961846715067503
369184 2 18409168792185286681
5084963 1 18187646937568282640
528886 8 18337958895947916049

> <PUBCHEM_SHAPE_MULTIPOLES>
204.67
4.18
1.76
0.58
0.82
0.33
0
-0.45
0
-0.54
0
0.08
-0.01
0

> <PUBCHEM_SHAPE_SELFOVERLAP>
429.243

> <PUBCHEM_SHAPE_VOLUME>
116.5

> <PUBCHEM_COORDINATE_TYPE>
2
5
10

$$$$

