7143
  -OEChem-06261201492D

 18 18  0     0  0  0  0  0  0999 V2000
    4.5981   -2.1550    0.0000 Cl  0  0  0  0  0  0  0  0  0  0  0  0
    2.8660    0.8450    0.0000 O   0  0  0  0  0  0  0  0  0  0  0  0
    4.5981    1.8450    0.0000 N   0  0  0  0  0  0  0  0  0  0  0  0
    3.7320    0.3450    0.0000 C   0  0  0  0  0  0  0  0  0  0  0  0
    4.5981    0.8450    0.0000 C   0  0  0  0  0  0  0  0  0  0  0  0
    3.7320   -0.6550    0.0000 C   0  0  0  0  0  0  0  0  0  0  0  0
    5.4641    0.3450    0.0000 C   0  0  0  0  0  0  0  0  0  0  0  0
    4.5981   -1.1550    0.0000 C   0  0  0  0  0  0  0  0  0  0  0  0
    5.4641   -0.6550    0.0000 C   0  0  0  0  0  0  0  0  0  0  0  0
    2.0000    0.3450    0.0000 C   0  0  0  0  0  0  0  0  0  0  0  0
    3.1951   -0.9650    0.0000 H   0  0  0  0  0  0  0  0  0  0  0  0
    6.0010    0.6550    0.0000 H   0  0  0  0  0  0  0  0  0  0  0  0
    6.0010   -0.9650    0.0000 H   0  0  0  0  0  0  0  0  0  0  0  0
    5.1350    2.1550    0.0000 H   0  0  0  0  0  0  0  0  0  0  0  0
    4.0611    2.1550    0.0000 H   0  0  0  0  0  0  0  0  0  0  0  0
    1.6900    0.8819    0.0000 H   0  0  0  0  0  0  0  0  0  0  0  0
    1.4631    0.0350    0.0000 H   0  0  0  0  0  0  0  0  0  0  0  0
    2.3100   -0.1919    0.0000 H   0  0  0  0  0  0  0  0  0  0  0  0
  1  8  1  0  0  0  0
  2  4  1  0  0  0  0
  2 10  1  0  0  0  0
  3  5  1  0  0  0  0
  3 14  1  0  0  0  0
  3 15  1  0  0  0  0
  4  5  2  0  0  0  0
  4  6  1  0  0  0  0
  5  7  1  0  0  0  0
  6  8  2  0  0  0  0
  6 11  1  0  0  0  0
  7  9  2  0  0  0  0
  7 12  1  0  0  0  0
  8  9  1  0  0  0  0
  9 13  1  0  0  0  0
 10 16  1  0  0  0  0
 10 17  1  0  0  0  0
 10 18  1  0  0  0  0
M  END
> <PUBCHEM_COMPOUND_CID>
7143

> <PUBCHEM_COMPOUND_CANONICALIZED>
1

> <PUBCHEM_CACTVS_COMPLEXITY>
110

> <PUBCHEM_CACTVS_HBOND_ACCEPTOR>
2

> <PUBCHEM_CACTVS_HBOND_DONOR>
1

> <PUBCHEM_CACTVS_ROTATABLE_BOND>
1

> <PUBCHEM_CACTVS_SUBSKEYS>
AAADccBiIAAEAAAAAAAAAAAAAAAAAAAAAAAwAAAAAAAAAAABAAAAHgIQAAAACA6BkCIyxoBABACAACRCQACCCAAgJwAIiAAHbogOJiKFs5uBMCBk0BEI6AeQQAAAAABAAQAAEAAAAIACAAAgAAAAAAAAAA==

> <PUBCHEM_IUPAC_OPENEYE_NAME>
4-chloro-2-methoxy-aniline

> <PUBCHEM_IUPAC_CAS_NAME>
4-chloro-2-methoxyaniline

> <PUBCHEM_IUPAC_NAME>
4-chloro-2-methoxyaniline

> <PUBCHEM_IUPAC_SYSTEMATIC_NAME>
4-chloranyl-2-methoxy-aniline

> <PUBCHEM_IUPAC_TRADITIONAL_NAME>
(4-chloro-2-methoxy-phenyl)amine

> <PUBCHEM_IUPAC_INCHI>
InChI=1S/C7H8ClNO/c1-10-7-4-5(8)2-3-6(7)9/h2-4H,9H2,1H3

> <PUBCHEM_IUPAC_INCHIKEY>
WOXLPNAOCCIZGP-UHFFFAOYSA-N

> <PUBCHEM_XLOGP3>
1.9

> <PUBCHEM_EXACT_MASS>
157.029442

> <PUBCHEM_MOLECULAR_FORMULA>
C7H8ClNO

> <PUBCHEM_MOLECULAR_WEIGHT>
157.59752

> <PUBCHEM_OPENEYE_CAN_SMILES>
COC1=C(C=CC(=C1)Cl)N

> <PUBCHEM_OPENEYE_ISO_SMILES>
COC1=C(C=CC(=C1)Cl)N

> <PUBCHEM_CACTVS_TPSA>
35.2

> <PUBCHEM_MONOISOTOPIC_WEIGHT>
157.029442

> <PUBCHEM_TOTAL_CHARGE>
0

> <PUBCHEM_HEAVY_ATOM_COUNT>
10

> <PUBCHEM_ATOM_DEF_STEREO_COUNT>
0

> <PUBCHEM_ATOM_UDEF_STEREO_COUNT>
0

> <PUBCHEM_BOND_DEF_STEREO_COUNT>
0

> <PUBCHEM_BOND_UDEF_STEREO_COUNT>
0

> <PUBCHEM_ISOTOPIC_ATOM_COUNT>
0

> <PUBCHEM_COMPONENT_COUNT>
1

> <PUBCHEM_CACTVS_TAUTO_COUNT>
1

> <PUBCHEM_COORDINATE_TYPE>
1
5
255

> <PUBCHEM_BONDANNOTATIONS>
4  5  8
4  6  8
5  7  8
6  8  8
7  9  8
8  9  8

$$$$

