9152
  -OEChem-06261203273D

 32 36  0     0  0  0  0  0  0999 V2000
    0.5241   -0.0556   -0.0007 C   0  0  0  0  0  0  0  0  0  0  0  0
   -1.7938   -0.1275   -0.0003 C   0  0  0  0  0  0  0  0  0  0  0  0
   -0.6605   -0.9339   -0.0006 C   0  0  0  0  0  0  0  0  0  0  0  0
    0.0153    1.2817   -0.0006 C   0  0  0  0  0  0  0  0  0  0  0  0
   -1.4360    1.2082   -0.0004 C   0  0  0  0  0  0  0  0  0  0  0  0
    1.9135   -0.2880   -0.0004 C   0  0  0  0  0  0  0  0  0  0  0  0
   -3.1144   -0.5826    0.0002 C   0  0  0  0  0  0  0  0  0  0  0  0
    2.7628    0.8559   -0.0001 C   0  0  0  0  0  0  0  0  0  0  0  0
    0.8462    2.3833   -0.0004 C   0  0  0  0  0  0  0  0  0  0  0  0
   -0.8513   -2.3060   -0.0004 C   0  0  0  0  0  0  0  0  0  0  0  0
   -2.4233    2.1787    0.0002 C   0  0  0  0  0  0  0  0  0  0  0  0
    2.2204    2.1600   -0.0001 C   0  0  0  0  0  0  0  0  0  0  0  0
   -3.2874   -1.9756    0.0004 C   0  0  0  0  0  0  0  0  0  0  0  0
   -4.1174    0.4052    0.0007 C   0  0  0  0  0  0  0  0  0  0  0  0
    2.5270   -1.5606   -0.0001 C   0  0  0  0  0  0  0  0  0  0  0  0
   -2.1627   -2.8208    0.0000 C   0  0  0  0  0  0  0  0  0  0  0  0
   -3.7670    1.7699    0.0008 C   0  0  0  0  0  0  0  0  0  0  0  0
    4.1571    0.6896    0.0006 C   0  0  0  0  0  0  0  0  0  0  0  0
    3.9165   -1.7026    0.0004 C   0  0  0  0  0  0  0  0  0  0  0  0
    4.7308   -0.5793    0.0009 C   0  0  0  0  0  0  0  0  0  0  0  0
    0.4551    3.3948   -0.0003 H   0  0  0  0  0  0  0  0  0  0  0  0
   -0.0297   -3.0098   -0.0006 H   0  0  0  0  0  0  0  0  0  0  0  0
   -2.1785    3.2358    0.0004 H   0  0  0  0  0  0  0  0  0  0  0  0
    2.8813    3.0259    0.0002 H   0  0  0  0  0  0  0  0  0  0  0  0
   -4.2835   -2.4100    0.0008 H   0  0  0  0  0  0  0  0  0  0  0  0
   -5.1675    0.1243    0.0012 H   0  0  0  0  0  0  0  0  0  0  0  0
    1.9426   -2.4719   -0.0004 H   0  0  0  0  0  0  0  0  0  0  0  0
   -2.3093   -3.8985    0.0002 H   0  0  0  0  0  0  0  0  0  0  0  0
   -4.5532    2.5209    0.0013 H   0  0  0  0  0  0  0  0  0  0  0  0
    4.8169    1.5556    0.0010 H   0  0  0  0  0  0  0  0  0  0  0  0
    4.3590   -2.6946    0.0006 H   0  0  0  0  0  0  0  0  0  0  0  0
    5.8112   -0.6882    0.0014 H   0  0  0  0  0  0  0  0  0  0  0  0
  1  3  1  0  0  0  0
  1  4  2  0  0  0  0
  1  6  1  0  0  0  0
  2  3  1  0  0  0  0
  2  5  1  0  0  0  0
  2  7  2  0  0  0  0
  3 10  2  0  0  0  0
  4  5  1  0  0  0  0
  4  9  1  0  0  0  0
  5 11  2  0  0  0  0
  6  8  1  0  0  0  0
  6 15  2  0  0  0  0
  7 13  1  0  0  0  0
  7 14  1  0  0  0  0
  8 12  1  0  0  0  0
  8 18  2  0  0  0  0
  9 12  2  0  0  0  0
  9 21  1  0  0  0  0
 10 16  1  0  0  0  0
 10 22  1  0  0  0  0
 11 17  1  0  0  0  0
 11 23  1  0  0  0  0
 12 24  1  0  0  0  0
 13 16  2  0  0  0  0
 13 25  1  0  0  0  0
 14 17  2  0  0  0  0
 14 26  1  0  0  0  0
 15 19  1  0  0  0  0
 15 27  1  0  0  0  0
 16 28  1  0  0  0  0
 17 29  1  0  0  0  0
 18 20  1  0  0  0  0
 18 30  1  0  0  0  0
 19 20  2  0  0  0  0
 19 31  1  0  0  0  0
 20 32  1  0  0  0  0
M  END
> <PUBCHEM_COMPOUND_CID>
9152

> <PUBCHEM_CONFORMER_RMSD>
0.6

> <PUBCHEM_CONFORMER_DIVERSEORDER>
1

> <PUBCHEM_MMFF94_PARTIAL_CHARGES>
24
10 -0.15
11 -0.15
12 -0.15
13 -0.15
14 -0.15
15 -0.15
16 -0.15
17 -0.15
18 -0.15
19 -0.15
20 -0.15
21 0.15
22 0.15
23 0.15
24 0.15
25 0.15
26 0.15
27 0.15
28 0.15
29 0.15
30 0.15
31 0.15
32 0.15
9 -0.15

> <PUBCHEM_EFFECTIVE_ROTOR_COUNT>
0

> <PUBCHEM_PHARMACOPHORE_FEATURES>
5
5 1 2 3 4 5 rings
6 1 4 6 8 9 12 rings
6 2 3 7 10 13 16 rings
6 2 5 7 11 14 17 rings
6 6 8 15 18 19 20 rings

> <PUBCHEM_HEAVY_ATOM_COUNT>
20

> <PUBCHEM_ATOM_DEF_STEREO_COUNT>
0

> <PUBCHEM_ATOM_UDEF_STEREO_COUNT>
0

> <PUBCHEM_BOND_DEF_STEREO_COUNT>
0

> <PUBCHEM_BOND_UDEF_STEREO_COUNT>
0

> <PUBCHEM_ISOTOPIC_ATOM_COUNT>
0

> <PUBCHEM_COMPONENT_COUNT>
1

> <PUBCHEM_CACTVS_TAUTO_COUNT>
1

> <PUBCHEM_CONFORMER_ID>
000023C000000001

> <PUBCHEM_MMFF94_ENERGY>
88.5193

> <PUBCHEM_FEATURE_SELFOVERLAP>
25.692

> <PUBCHEM_SHAPE_FINGERPRINT>
10319926 262 18263386775617230266
10411042 1 18050567335700501479
10493431 412 18191015906153489705
10608611 8 18337112263304620400
10616163 171 18337668607767269054
10693767 8 17683268089461612391
10967382 1 18266740362257188135
1100329 8 18409445920787281233
11578080 2 17169566098881388507
12403259 226 18336551495537587281
12403814 3 17632295713422960365
12553582 1 17761773957860231327
13140716 1 18409720734675468961
138480 1 16825588701122463555
14178342 30 18267320758869023640
14223421 5 18265054617705921016
14790565 3 18049434039538228393
14866123 147 17035557995587697434
15042514 8 18340481167633908587
15099037 51 18339364166466370821
15196674 1 18410855451965495108
15442244 35 18410856555497816098
15536298 74 18335422352940816760
16945 1 18266458707034490213
17492 89 18339360751857393138
17804303 29 18409163303164386893
1813 80 17275103938191948316
19591789 44 18051130590258061779
200 152 17894918420919512893
20028762 73 18187368718947708631
20510252 161 18261110837175081545
20775438 99 16744572870705435871
20905425 154 18119521038160536150
21267235 1 18411128130511963218
21478907 32 18121502358779147575
21501502 16 18338794498857148333
221490 88 18268705022391002106
23184049 29 18337950078206055518
2334 1 18410854377865039945
23366157 5 18059016051983671132
23402539 116 18262246615311149276
23463225 33 18411418418951190084
23558518 356 18128534868865835603
23559900 14 18334577997141689574
238 59 17050811447501656197
2748010 2 18338515351794799717
3004659 81 18200306758366032822
335352 9 18338516455553870349
34934 24 18411986879600879250
350125 39 18411132542097445561
4214541 1 18410573998152501504
46194498 28 16834912010181863575
474 4 17273970255983869244
5104073 3 18410294692429616936
69090 78 18410014363971803023
7364860 26 18263646152333373104
7832392 63 18410858758937384264
8809292 202 18341048536364612571
9709674 26 18408318874171714694
9981440 41 17406551412165455936

> <PUBCHEM_SHAPE_MULTIPOLES>
411.59
7.98
2.96
0.62
3.54
0.4
0
0.74
0
-1.19
0
0
0
0

> <PUBCHEM_SHAPE_SELFOVERLAP>
969.588

> <PUBCHEM_SHAPE_VOLUME>
189.2

> <PUBCHEM_COORDINATE_TYPE>
2
5
10

$$$$

