47205621
  -OEChem-06241222593D

 32 34  0     0  0  0  0  0  0999 V2000
    1.7609    0.0302    0.0640 O   0  0  0  0  0  0  0  0  0  0  0  0
    0.0336    0.4938   -1.3928 O   0  0  0  0  0  0  0  0  0  0  0  0
   -3.8401   -0.7373    0.1917 N   0  0  0  0  0  0  0  0  0  0  0  0
   -2.6039   -1.2268    0.4501 N   0  0  0  0  0  0  0  0  0  0  0  0
   -2.5676    1.0531    0.4595 N   0  0  0  0  0  0  0  0  0  0  0  0
   -4.9247    1.3947   -0.0347 N   0  0  0  0  0  0  0  0  0  0  0  0
   -0.4523   -0.1518    0.9017 C   0  0  0  0  0  0  0  0  0  0  0  0
   -1.8881   -0.1153    0.6010 C   0  0  0  0  0  0  0  0  0  0  0  0
   -3.7985    0.6596    0.2011 C   0  0  0  0  0  0  0  0  0  0  0  0
    2.7091    0.3032   -0.9727 C   0  0  0  0  0  0  0  0  0  0  0  0
    4.0954    0.1114   -0.4316 C   0  0  0  0  0  0  0  0  0  0  0  0
    0.4475    0.1660   -0.2891 C   0  0  0  0  0  0  0  0  0  0  0  0
   -5.0191   -1.4287   -0.0547 C   0  0  0  0  0  0  0  0  0  0  0  0
    4.7704    1.1828    0.1532 C   0  0  0  0  0  0  0  0  0  0  0  0
    4.7092   -1.1383   -0.5135 C   0  0  0  0  0  0  0  0  0  0  0  0
   -6.1515   -0.7587   -0.2907 C   0  0  0  0  0  0  0  0  0  0  0  0
    6.0593    1.0045    0.6560 C   0  0  0  0  0  0  0  0  0  0  0  0
    5.9980   -1.3169   -0.0107 C   0  0  0  0  0  0  0  0  0  0  0  0
   -6.0107    0.7197   -0.2618 C   0  0  0  0  0  0  0  0  0  0  0  0
    6.6731   -0.2453    0.5740 C   0  0  0  0  0  0  0  0  0  0  0  0
   -0.2305    0.5806    1.6867 H   0  0  0  0  0  0  0  0  0  0  0  0
   -0.1706   -1.1437    1.2750 H   0  0  0  0  0  0  0  0  0  0  0  0
    2.5815    1.3327   -1.3298 H   0  0  0  0  0  0  0  0  0  0  0  0
    2.5368   -0.3725   -1.8198 H   0  0  0  0  0  0  0  0  0  0  0  0
   -4.9729   -2.5108   -0.0452 H   0  0  0  0  0  0  0  0  0  0  0  0
    4.3020    2.1609    0.2247 H   0  0  0  0  0  0  0  0  0  0  0  0
    4.1927   -1.9813   -0.9650 H   0  0  0  0  0  0  0  0  0  0  0  0
   -7.1071   -1.2203   -0.4903 H   0  0  0  0  0  0  0  0  0  0  0  0
    6.5848    1.8386    1.1118 H   0  0  0  0  0  0  0  0  0  0  0  0
    6.4757   -2.2902   -0.0740 H   0  0  0  0  0  0  0  0  0  0  0  0
   -6.9427    1.2753   -0.4569 H   0  0  0  0  0  0  0  0  0  0  0  0
    7.6765   -0.3844    0.9657 H   0  0  0  0  0  0  0  0  0  0  0  0
  1 10  1  0  0  0  0
  1 12  1  0  0  0  0
  2 12  2  0  0  0  0
  3  4  1  0  0  0  0
  3  9  1  0  0  0  0
  3 13  1  0  0  0  0
  4  8  2  0  0  0  0
  5  8  1  0  0  0  0
  5  9  2  0  0  0  0
  6  9  1  0  0  0  0
  6 19  2  0  0  0  0
  7  8  1  0  0  0  0
  7 12  1  0  0  0  0
  7 21  1  0  0  0  0
  7 22  1  0  0  0  0
 10 11  1  0  0  0  0
 10 23  1  0  0  0  0
 10 24  1  0  0  0  0
 11 14  2  0  0  0  0
 11 15  1  0  0  0  0
 13 16  2  0  0  0  0
 13 25  1  0  0  0  0
 14 17  1  0  0  0  0
 14 26  1  0  0  0  0
 15 18  2  0  0  0  0
 15 27  1  0  0  0  0
 16 19  1  0  0  0  0
 16 28  1  0  0  0  0
 17 20  2  0  0  0  0
 17 29  1  0  0  0  0
 18 20  1  0  0  0  0
 18 30  1  0  0  0  0
 19 31  1  0  0  0  0
 20 32  1  0  0  0  0
M  END
> <PUBCHEM_COMPOUND_CID>
47205621

> <PUBCHEM_CONFORMER_RMSD>
0.8

> <PUBCHEM_CONFORMER_DIVERSEORDER>
1
11
137
15
64
119
50
139
17
68
83
76
90
30
6
79
121
89
78
34
118
10
135
80
74
12
112
84
56
108
113
96
142
25
5
148
7
29
23
72
114
75
24
77
45
32
67
3
145
101
126
104
59
132
31
51
147
20
131
27
14
93
124
2
61
21
106
128
70
62
94
13
37
8
60
125
9
58
69
65
4
47
130
100
36
99
87
49
122
92
107
116
44
81
38
91
109
54
143
98
39
43
88
117
86
40
19
66
127
73
149
55
41
146
26
71
123
22
57
102
42
33
85
136
115
138
144
111
18
110
48
16
35
140
134
105
141
53
52
63
129
46
103
28
97
120
95
133
82

> <PUBCHEM_MMFF94_PARTIAL_CHARGES>
28
1 -0.43
10 0.42
11 -0.14
12 0.66
13 -0.18
14 -0.15
15 -0.15
16 -0.14
17 -0.15
18 -0.15
19 0.38
2 -0.57
20 -0.15
25 0.15
26 0.15
27 0.15
28 0.15
29 0.15
3 0.6
30 0.15
31 0.06
32 0.15
4 -0.71
5 -0.57
6 -0.58
7 0.24
8 0.34
9 0.31

> <PUBCHEM_EFFECTIVE_ROTOR_COUNT>
5

> <PUBCHEM_PHARMACOPHORE_FEATURES>
6
1 2 acceptor
1 6 acceptor
4 3 5 6 9 cation
5 3 4 5 8 9 rings
6 11 14 15 17 18 20 rings
6 3 6 9 13 16 19 rings

> <PUBCHEM_HEAVY_ATOM_COUNT>
20

> <PUBCHEM_ATOM_DEF_STEREO_COUNT>
0

> <PUBCHEM_ATOM_UDEF_STEREO_COUNT>
0

> <PUBCHEM_BOND_DEF_STEREO_COUNT>
0

> <PUBCHEM_BOND_UDEF_STEREO_COUNT>
0

> <PUBCHEM_ISOTOPIC_ATOM_COUNT>
0

> <PUBCHEM_COMPONENT_COUNT>
1

> <PUBCHEM_CACTVS_TAUTO_COUNT>
1

> <PUBCHEM_CONFORMER_ID>
02D04CF500000001

> <PUBCHEM_MMFF94_ENERGY>
38.952

> <PUBCHEM_FEATURE_SELFOVERLAP>
30.59

> <PUBCHEM_SHAPE_FINGERPRINT>
10 15 17894922802571995912
11089746 13 17846780697764249196
11315181 36 18259700091037405073
11719270 70 17822012038486714022
12091667 2 18273493477376990337
12107183 9 17615683377096482210
12166972 35 18271803501698043140
12236239 1 18272651238005034603
12516196 113 18260830393064277304
12596602 18 18333733516039256154
12730499 353 7997974583480590148
13288520 33 18409448077488130223
13533116 47 18338797922732391802
13914758 101 17917717928614490469
14123256 10 13984662551144389812
1420 363 6338955568229875236
14251752 14 13470414374311544318
14251764 18 18131912642196990844
14251764 46 18131350808935020891
14848160 23 18261109677581137102
15183329 4 16917351441388665646
15716309 27 17458345238741236199
17834072 8 15554446292946750774
17844677 252 18334850623963771600
18222031 100 17346876750370862788
19489759 90 18411980269498550177
21315763 129 18408886239309428472
23081809 10 18060129938492012004
23402539 116 18411982460079544861
23536379 177 18410011048167334426
23559900 14 18335990766092716985
23569943 247 17558838531562622026
29717793 49 17988921176442635414
3004659 81 18342173384774555474
3014965 18 13326586163366309280
314173 85 17060337427123448140
34797466 226 17313375691713490308
351380 180 18409728452362746248
4073 2 18059008381340795170
4325135 7 6050443712896175952
4340502 62 17894629262420669302
5283173 99 18335139846914012225
559249 180 18202002127443138131
9971528 1 17846494816789318884

> <PUBCHEM_SHAPE_MULTIPOLES>
379.93
19.29
1.31
0.88
4.64
0.11
0.09
1.3
-0.8
-0.17
-0.03
0.34
-0.04
0.32

> <PUBCHEM_SHAPE_SELFOVERLAP>
821.8

> <PUBCHEM_SHAPE_VOLUME>
206.6

> <PUBCHEM_COORDINATE_TYPE>
2
5
10

$$$$

