586271
  -OEChem-06241222462D

 44 44  0     1  0  0  0  0  0999 V2000
    8.0622    2.3100    0.0000 O   0  0  0  0  0  0  0  0  0  0  0  0
    2.8660   -1.6900    0.0000 O   0  0  0  0  0  0  0  0  0  0  0  0
    6.3301   -3.6900    0.0000 O   0  0  0  0  0  0  0  0  0  0  0  0
    6.3301    2.3100    0.0000 C   0  0  0  0  0  0  0  0  0  0  0  0
    6.3301    1.3100    0.0000 C   0  0  0  0  0  0  0  0  0  0  0  0
    7.1962    2.8100    0.0000 C   0  0  3  0  0  0  0  0  0  0  0  0
    5.4641    0.8100    0.0000 C   0  0  0  0  0  0  0  0  0  0  0  0
    5.4641   -0.1900    0.0000 C   0  0  0  0  0  0  0  0  0  0  0  0
    4.5981   -0.6900    0.0000 C   0  0  0  0  0  0  0  0  0  0  0  0
    7.1962    3.8100    0.0000 C   0  0  0  0  0  0  0  0  0  0  0  0
    4.5981   -1.6900    0.0000 C   0  0  0  0  0  0  0  0  0  0  0  0
    4.5981    1.3100    0.0000 C   0  0  0  0  0  0  0  0  0  0  0  0
    3.7321   -2.1900    0.0000 C   0  0  0  0  0  0  0  0  0  0  0  0
    8.0622    4.3100    0.0000 C   0  0  0  0  0  0  0  0  0  0  0  0
    5.4641   -2.1900    0.0000 C   0  0  0  0  0  0  0  0  0  0  0  0
    6.3301    4.3100    0.0000 C   0  0  0  0  0  0  0  0  0  0  0  0
    3.7321   -3.1900    0.0000 C   0  0  0  0  0  0  0  0  0  0  0  0
    5.4641   -3.1900    0.0000 C   0  0  0  0  0  0  0  0  0  0  0  0
    4.5981   -3.6900    0.0000 C   0  0  0  0  0  0  0  0  0  0  0  0
    2.0000   -2.1900    0.0000 C   0  0  0  0  0  0  0  0  0  0  0  0
    6.1181    2.8926    0.0000 H   0  0  0  0  0  0  0  0  0  0  0  0
    5.7195    2.2023    0.0000 H   0  0  0  0  0  0  0  0  0  0  0  0
    6.5422    0.7274    0.0000 H   0  0  0  0  0  0  0  0  0  0  0  0
    6.9407    1.4177    0.0000 H   0  0  0  0  0  0  0  0  0  0  0  0
    7.7331    3.1200    0.0000 H   0  0  0  0  0  0  0  0  0  0  0  0
    6.0010   -0.5000    0.0000 H   0  0  0  0  0  0  0  0  0  0  0  0
    4.3860   -0.1074    0.0000 H   0  0  0  0  0  0  0  0  0  0  0  0
    3.9875   -0.7977    0.0000 H   0  0  0  0  0  0  0  0  0  0  0  0
    4.9081    1.8469    0.0000 H   0  0  0  0  0  0  0  0  0  0  0  0
    4.0611    1.6200    0.0000 H   0  0  0  0  0  0  0  0  0  0  0  0
    4.2881    0.7731    0.0000 H   0  0  0  0  0  0  0  0  0  0  0  0
    8.3722    3.7731    0.0000 H   0  0  0  0  0  0  0  0  0  0  0  0
    8.5991    4.6200    0.0000 H   0  0  0  0  0  0  0  0  0  0  0  0
    7.7522    4.8469    0.0000 H   0  0  0  0  0  0  0  0  0  0  0  0
    6.0010   -1.8800    0.0000 H   0  0  0  0  0  0  0  0  0  0  0  0
    8.5991    2.6200    0.0000 H   0  0  0  0  0  0  0  0  0  0  0  0
    6.3301    4.9300    0.0000 H   0  0  0  0  0  0  0  0  0  0  0  0
    5.7932    4.0000    0.0000 H   0  0  0  0  0  0  0  0  0  0  0  0
    3.1951   -3.5000    0.0000 H   0  0  0  0  0  0  0  0  0  0  0  0
    4.5981   -4.3100    0.0000 H   0  0  0  0  0  0  0  0  0  0  0  0
    1.6900   -1.6531    0.0000 H   0  0  0  0  0  0  0  0  0  0  0  0
    1.4631   -2.5000    0.0000 H   0  0  0  0  0  0  0  0  0  0  0  0
    2.3100   -2.7269    0.0000 H   0  0  0  0  0  0  0  0  0  0  0  0
    6.3301   -4.3100    0.0000 H   0  0  0  0  0  0  0  0  0  0  0  0
  1  6  1  0  0  0  0
  1 36  1  0  0  0  0
  2 13  1  0  0  0  0
  2 20  1  0  0  0  0
  3 18  1  0  0  0  0
  3 44  1  0  0  0  0
  4  5  1  0  0  0  0
  4  6  1  0  0  0  0
  4 21  1  0  0  0  0
  4 22  1  0  0  0  0
  5  7  1  0  0  0  0
  5 23  1  0  0  0  0
  5 24  1  0  0  0  0
  6 10  1  0  0  0  0
  6 25  1  0  0  0  0
  7  8  2  3  0  0  0
  7 12  1  0  0  0  0
  8  9  1  0  0  0  0
  8 26  1  0  0  0  0
  9 11  1  0  0  0  0
  9 27  1  0  0  0  0
  9 28  1  0  0  0  0
 10 14  1  0  0  0  0
 10 16  2  0  0  0  0
 11 13  2  0  0  0  0
 11 15  1  0  0  0  0
 12 29  1  0  0  0  0
 12 30  1  0  0  0  0
 12 31  1  0  0  0  0
 13 17  1  0  0  0  0
 14 32  1  0  0  0  0
 14 33  1  0  0  0  0
 14 34  1  0  0  0  0
 15 18  2  0  0  0  0
 15 35  1  0  0  0  0
 16 37  1  0  0  0  0
 16 38  1  0  0  0  0
 17 19  2  0  0  0  0
 17 39  1  0  0  0  0
 18 19  1  0  0  0  0
 19 40  1  0  0  0  0
 20 41  1  0  0  0  0
 20 42  1  0  0  0  0
 20 43  1  0  0  0  0
M  END
> <PUBCHEM_COMPOUND_CID>
586271

> <PUBCHEM_COMPOUND_CANONICALIZED>
1

> <PUBCHEM_CACTVS_COMPLEXITY>
335

> <PUBCHEM_CACTVS_HBOND_ACCEPTOR>
3

> <PUBCHEM_CACTVS_HBOND_DONOR>
2

> <PUBCHEM_CACTVS_ROTATABLE_BOND>
7

> <PUBCHEM_CACTVS_SUBSKEYS>
AAADceB4MAAAAAAAAAAAAAAAAAAAAAAAAAAwAAAAAAAAAAABAAAAGgAACAAADBSgmAIyBoAABgCAAiBCAAACCAAgIAAIiAAGCIgMNiKGMRqAcCAkwBEIuAfAwLAOAQABAAAIAAACAAIAABAAAAAAAAAAAA==

> <PUBCHEM_IUPAC_OPENEYE_NAME>
3-(6-hydroxy-3,7-dimethyl-octa-2,7-dienyl)-4-methoxy-phenol

> <PUBCHEM_IUPAC_CAS_NAME>
3-(6-hydroxy-3,7-dimethylocta-2,7-dienyl)-4-methoxyphenol

> <PUBCHEM_IUPAC_NAME>
3-(6-hydroxy-3,7-dimethylocta-2,7-dienyl)-4-methoxyphenol

> <PUBCHEM_IUPAC_SYSTEMATIC_NAME>
3-(3,7-dimethyl-6-oxidanyl-octa-2,7-dienyl)-4-methoxy-phenol

> <PUBCHEM_IUPAC_TRADITIONAL_NAME>
3-(6-hydroxy-3,7-dimethyl-octa-2,7-dienyl)-4-methoxy-phenol

> <PUBCHEM_IUPAC_INCHI>
InChI=1S/C17H24O3/c1-12(2)16(19)9-6-13(3)5-7-14-11-15(18)8-10-17(14)20-4/h5,8,10-11,16,18-19H,1,6-7,9H2,2-4H3

> <PUBCHEM_IUPAC_INCHIKEY>
MQMCFNZDFIXNIT-UHFFFAOYSA-N

> <PUBCHEM_XLOGP3_AA>
4.3

> <PUBCHEM_EXACT_MASS>
276.172545

> <PUBCHEM_MOLECULAR_FORMULA>
C17H24O3

> <PUBCHEM_MOLECULAR_WEIGHT>
276.37066

> <PUBCHEM_OPENEYE_CAN_SMILES>
CC(=C)C(CCC(=CCC1=C(C=CC(=C1)O)OC)C)O

> <PUBCHEM_OPENEYE_ISO_SMILES>
CC(=C)C(CCC(=CCC1=C(C=CC(=C1)O)OC)C)O

> <PUBCHEM_CACTVS_TPSA>
49.7

> <PUBCHEM_MONOISOTOPIC_WEIGHT>
276.172545

> <PUBCHEM_TOTAL_CHARGE>
0

> <PUBCHEM_HEAVY_ATOM_COUNT>
20

> <PUBCHEM_ATOM_DEF_STEREO_COUNT>
0

> <PUBCHEM_ATOM_UDEF_STEREO_COUNT>
1

> <PUBCHEM_BOND_DEF_STEREO_COUNT>
0

> <PUBCHEM_BOND_UDEF_STEREO_COUNT>
1

> <PUBCHEM_ISOTOPIC_ATOM_COUNT>
0

> <PUBCHEM_COMPONENT_COUNT>
1

> <PUBCHEM_CACTVS_TAUTO_COUNT>
6

> <PUBCHEM_COORDINATE_TYPE>
1
5
255

> <PUBCHEM_BONDANNOTATIONS>
6  1  3
11  13  8
11  15  8
13  17  8
15  18  8
17  19  8
18  19  8
7  8  1

$$$$

