17396451
  -OEChem-06241222562D

 68 71  0     0  0  0  0  0  0999 V2000
    3.7320   -2.5000    0.0000 S   0  0  0  0  0  0  0  0  0  0  0  0
    2.0000   -3.5000    0.0000 F   0  0  0  0  0  0  0  0  0  0  0  0
    2.8660    2.0000    0.0000 O   0  0  0  0  0  0  0  0  0  0  0  0
    2.7320   -2.5000    0.0000 O   0  0  0  0  0  0  0  0  0  0  0  0
    4.7320   -2.5000    0.0000 O   0  0  0  0  0  0  0  0  0  0  0  0
    4.5981    4.0000    0.0000 N   0  0  0  0  0  0  0  0  0  0  0  0
    4.5981    2.0000    0.0000 N   0  0  0  0  0  0  0  0  0  0  0  0
    3.7320   -1.5000    0.0000 N   0  0  0  0  0  0  0  0  0  0  0  0
    5.4641    3.5000    0.0000 C   0  0  0  0  0  0  0  0  0  0  0  0
    5.9641    2.6340    0.0000 C   0  0  0  0  0  0  0  0  0  0  0  0
    5.9641    4.3660    0.0000 C   0  0  0  0  0  0  0  0  0  0  0  0
    4.5981    3.0000    0.0000 C   0  0  0  0  0  0  0  0  0  0  0  0
    6.9641    2.6340    0.0000 C   0  0  0  0  0  0  0  0  0  0  0  0
    6.9641    4.3660    0.0000 C   0  0  0  0  0  0  0  0  0  0  0  0
    7.4641    3.5000    0.0000 C   0  0  0  0  0  0  0  0  0  0  0  0
    4.5981    5.0000    0.0000 C   0  0  0  0  0  0  0  0  0  0  0  0
    3.7320    3.5000    0.0000 C   0  0  0  0  0  0  0  0  0  0  0  0
    2.8660    4.0000    0.0000 C   0  0  0  0  0  0  0  0  0  0  0  0
    3.7320    5.5000    0.0000 C   0  0  0  0  0  0  0  0  0  0  0  0
    2.8660    5.0000    0.0000 C   0  0  0  0  0  0  0  0  0  0  0  0
    3.7320    0.5000    0.0000 C   0  0  0  0  0  0  0  0  0  0  0  0
    3.7320    1.5000    0.0000 C   0  0  0  0  0  0  0  0  0  0  0  0
    2.8660    0.0000    0.0000 C   0  0  0  0  0  0  0  0  0  0  0  0
    4.5981    0.0000    0.0000 C   0  0  0  0  0  0  0  0  0  0  0  0
    2.8660   -1.0000    0.0000 C   0  0  0  0  0  0  0  0  0  0  0  0
    4.5981   -1.0000    0.0000 C   0  0  0  0  0  0  0  0  0  0  0  0
    3.7320   -3.5000    0.0000 C   0  0  0  0  0  0  0  0  0  0  0  0
    2.8660   -4.0000    0.0000 C   0  0  0  0  0  0  0  0  0  0  0  0
    4.5981   -4.0000    0.0000 C   0  0  0  0  0  0  0  0  0  0  0  0
    2.8660   -5.0000    0.0000 C   0  0  0  0  0  0  0  0  0  0  0  0
    4.5981   -5.0000    0.0000 C   0  0  0  0  0  0  0  0  0  0  0  0
    3.7320   -5.5000    0.0000 C   0  0  0  0  0  0  0  0  0  0  0  0
    6.0718    4.9766    0.0000 H   0  0  0  0  0  0  0  0  0  0  0  0
    5.3815    4.5781    0.0000 H   0  0  0  0  0  0  0  0  0  0  0  0
    5.3815    2.4219    0.0000 H   0  0  0  0  0  0  0  0  0  0  0  0
    6.0718    2.0234    0.0000 H   0  0  0  0  0  0  0  0  0  0  0  0
    4.3860    3.5826    0.0000 H   0  0  0  0  0  0  0  0  0  0  0  0
    3.9875    2.8923    0.0000 H   0  0  0  0  0  0  0  0  0  0  0  0
    7.5467    4.5781    0.0000 H   0  0  0  0  0  0  0  0  0  0  0  0
    6.8564    4.9766    0.0000 H   0  0  0  0  0  0  0  0  0  0  0  0
    6.8564    2.0234    0.0000 H   0  0  0  0  0  0  0  0  0  0  0  0
    7.5467    2.4219    0.0000 H   0  0  0  0  0  0  0  0  0  0  0  0
    7.9390    3.1015    0.0000 H   0  0  0  0  0  0  0  0  0  0  0  0
    7.9390    3.8985    0.0000 H   0  0  0  0  0  0  0  0  0  0  0  0
    3.3335    3.0250    0.0000 H   0  0  0  0  0  0  0  0  0  0  0  0
    4.1306    3.0250    0.0000 H   0  0  0  0  0  0  0  0  0  0  0  0
    5.2087    4.8923    0.0000 H   0  0  0  0  0  0  0  0  0  0  0  0
    4.8101    5.5826    0.0000 H   0  0  0  0  0  0  0  0  0  0  0  0
    2.2554    4.1077    0.0000 H   0  0  0  0  0  0  0  0  0  0  0  0
    2.6540    3.4174    0.0000 H   0  0  0  0  0  0  0  0  0  0  0  0
    4.1306    5.9750    0.0000 H   0  0  0  0  0  0  0  0  0  0  0  0
    3.3335    5.9750    0.0000 H   0  0  0  0  0  0  0  0  0  0  0  0
    2.6540    5.5826    0.0000 H   0  0  0  0  0  0  0  0  0  0  0  0
    2.2554    4.8923    0.0000 H   0  0  0  0  0  0  0  0  0  0  0  0
    5.1350    1.6900    0.0000 H   0  0  0  0  0  0  0  0  0  0  0  0
    4.2690    0.8100    0.0000 H   0  0  0  0  0  0  0  0  0  0  0  0
    2.6540    0.5826    0.0000 H   0  0  0  0  0  0  0  0  0  0  0  0
    2.2554   -0.1077    0.0000 H   0  0  0  0  0  0  0  0  0  0  0  0
    5.2087   -0.1077    0.0000 H   0  0  0  0  0  0  0  0  0  0  0  0
    4.8101    0.5826    0.0000 H   0  0  0  0  0  0  0  0  0  0  0  0
    2.2554   -0.8923    0.0000 H   0  0  0  0  0  0  0  0  0  0  0  0
    2.6540   -1.5826    0.0000 H   0  0  0  0  0  0  0  0  0  0  0  0
    4.8101   -1.5826    0.0000 H   0  0  0  0  0  0  0  0  0  0  0  0
    5.2087   -0.8923    0.0000 H   0  0  0  0  0  0  0  0  0  0  0  0
    5.1350   -3.6900    0.0000 H   0  0  0  0  0  0  0  0  0  0  0  0
    2.3291   -5.3100    0.0000 H   0  0  0  0  0  0  0  0  0  0  0  0
    5.1350   -5.3100    0.0000 H   0  0  0  0  0  0  0  0  0  0  0  0
    3.7320   -6.1200    0.0000 H   0  0  0  0  0  0  0  0  0  0  0  0
  1  4  2  0  0  0  0
  1  5  2  0  0  0  0
  1  8  1  0  0  0  0
  1 27  1  0  0  0  0
  2 28  1  0  0  0  0
  3 22  2  0  0  0  0
  6  9  1  0  0  0  0
  6 16  1  0  0  0  0
  6 17  1  0  0  0  0
  7 12  1  0  0  0  0
  7 22  1  0  0  0  0
  7 55  1  0  0  0  0
  8 25  1  0  0  0  0
  8 26  1  0  0  0  0
  9 10  1  0  0  0  0
  9 11  1  0  0  0  0
  9 12  1  0  0  0  0
 10 13  1  0  0  0  0
 10 35  1  0  0  0  0
 10 36  1  0  0  0  0
 11 14  1  0  0  0  0
 11 33  1  0  0  0  0
 11 34  1  0  0  0  0
 12 37  1  0  0  0  0
 12 38  1  0  0  0  0
 13 15  1  0  0  0  0
 13 41  1  0  0  0  0
 13 42  1  0  0  0  0
 14 15  1  0  0  0  0
 14 39  1  0  0  0  0
 14 40  1  0  0  0  0
 15 43  1  0  0  0  0
 15 44  1  0  0  0  0
 16 19  1  0  0  0  0
 16 47  1  0  0  0  0
 16 48  1  0  0  0  0
 17 18  1  0  0  0  0
 17 45  1  0  0  0  0
 17 46  1  0  0  0  0
 18 20  1  0  0  0  0
 18 49  1  0  0  0  0
 18 50  1  0  0  0  0
 19 20  1  0  0  0  0
 19 51  1  0  0  0  0
 19 52  1  0  0  0  0
 20 53  1  0  0  0  0
 20 54  1  0  0  0  0
 21 22  1  0  0  0  0
 21 23  1  0  0  0  0
 21 24  1  0  0  0  0
 21 56  1  0  0  0  0
 23 25  1  0  0  0  0
 23 57  1  0  0  0  0
 23 58  1  0  0  0  0
 24 26  1  0  0  0  0
 24 59  1  0  0  0  0
 24 60  1  0  0  0  0
 25 61  1  0  0  0  0
 25 62  1  0  0  0  0
 26 63  1  0  0  0  0
 26 64  1  0  0  0  0
 27 28  1  0  0  0  0
 27 29  2  0  0  0  0
 28 30  2  0  0  0  0
 29 31  1  0  0  0  0
 29 65  1  0  0  0  0
 30 32  1  0  0  0  0
 30 66  1  0  0  0  0
 31 32  2  0  0  0  0
 31 67  1  0  0  0  0
 32 68  1  0  0  0  0
M  END
> <PUBCHEM_COMPOUND_CID>
17396451

> <PUBCHEM_COMPOUND_CANONICALIZED>
1

> <PUBCHEM_CACTVS_COMPLEXITY>
721

> <PUBCHEM_CACTVS_HBOND_ACCEPTOR>
6

> <PUBCHEM_CACTVS_HBOND_DONOR>
1

> <PUBCHEM_CACTVS_ROTATABLE_BOND>
6

> <PUBCHEM_CACTVS_SUBSKEYS>
AAADcfB7MQBAAAAAAAAAAAAAAAAAAAAAAAA8eIEAAAAAAAABAAAAHwQQQAAADYjB0AwwAYPAAAKIACFSEHBCABAgAAAIiJkIAIgIYDKAkRCUIAAglgCIiAcUgAAOAAAAAAAAAAAAAAAAAAAAAAAAAAAAAA==

> <PUBCHEM_IUPAC_OPENEYE_NAME>
1-(2-fluorophenyl)sulfonyl-N-[[1-(1-piperidyl)cyclohexyl]methyl]piperidine-4-carboxamide

> <PUBCHEM_IUPAC_CAS_NAME>
1-(2-fluorophenyl)sulfonyl-N-[[1-(1-piperidinyl)cyclohexyl]methyl]-4-piperidinecarboxamide

> <PUBCHEM_IUPAC_NAME>
1-(2-fluorophenyl)sulfonyl-N-[(1-piperidin-1-ylcyclohexyl)methyl]piperidine-4-carboxamide

> <PUBCHEM_IUPAC_SYSTEMATIC_NAME>
1-(2-fluorophenyl)sulfonyl-N-[(1-piperidin-1-ylcyclohexyl)methyl]piperidine-4-carboxamide

> <PUBCHEM_IUPAC_TRADITIONAL_NAME>
1-(2-fluorophenyl)sulfonyl-N-[(1-piperidinocyclohexyl)methyl]isonipecotamide

> <PUBCHEM_IUPAC_INCHI>
InChI=1S/C24H36FN3O3S/c25-21-9-3-4-10-22(21)32(30,31)28-17-11-20(12-18-28)23(29)26-19-24(13-5-1-6-14-24)27-15-7-2-8-16-27/h3-4,9-10,20H,1-2,5-8,11-19H2,(H,26,29)

> <PUBCHEM_IUPAC_INCHIKEY>
QRUSMZSOFMKTMO-UHFFFAOYSA-N

> <PUBCHEM_XLOGP3_AA>
3.5

> <PUBCHEM_EXACT_MASS>
465.246141

> <PUBCHEM_MOLECULAR_FORMULA>
C24H36FN3O3S

> <PUBCHEM_MOLECULAR_WEIGHT>
465.624343

> <PUBCHEM_OPENEYE_CAN_SMILES>
C1CCC(CC1)(CNC(=O)C2CCN(CC2)S(=O)(=O)C3=CC=CC=C3F)N4CCCCC4

> <PUBCHEM_OPENEYE_ISO_SMILES>
C1CCC(CC1)(CNC(=O)C2CCN(CC2)S(=O)(=O)C3=CC=CC=C3F)N4CCCCC4

> <PUBCHEM_CACTVS_TPSA>
78.1

> <PUBCHEM_MONOISOTOPIC_WEIGHT>
465.246141

> <PUBCHEM_TOTAL_CHARGE>
0

> <PUBCHEM_HEAVY_ATOM_COUNT>
32

> <PUBCHEM_ATOM_DEF_STEREO_COUNT>
0

> <PUBCHEM_ATOM_UDEF_STEREO_COUNT>
0

> <PUBCHEM_BOND_DEF_STEREO_COUNT>
0

> <PUBCHEM_BOND_UDEF_STEREO_COUNT>
0

> <PUBCHEM_ISOTOPIC_ATOM_COUNT>
0

> <PUBCHEM_COMPONENT_COUNT>
1

> <PUBCHEM_CACTVS_TAUTO_COUNT>
2

> <PUBCHEM_COORDINATE_TYPE>
1
5
255

> <PUBCHEM_BONDANNOTATIONS>
27  28  8
27  29  8
28  30  8
29  31  8
30  32  8
31  32  8

$$$$

