10715
  -OEChem-06261204522D

 29 28  0     1  0  0  0  0  0999 V2000
    5.1350   -2.0000    0.0000 O   0  0  0  0  0  0  0  0  0  0  0  0
    3.4030   -2.0000    0.0000 O   0  0  0  0  0  0  0  0  0  0  0  0
    4.2690   -0.5000    0.0000 N   0  0  0  0  0  0  0  0  0  0  0  0
    2.5369   -0.5000    0.0000 N   0  0  0  0  0  0  0  0  0  0  0  0
    6.0010   -0.5000    0.0000 C   0  0  3  0  0  0  0  0  0  0  0  0
    6.8671   -1.0000    0.0000 C   0  0  0  0  0  0  0  0  0  0  0  0
    6.0010    0.5000    0.0000 C   0  0  0  0  0  0  0  0  0  0  0  0
    7.7331   -0.5000    0.0000 C   0  0  0  0  0  0  0  0  0  0  0  0
    6.8671   -2.0000    0.0000 C   0  0  0  0  0  0  0  0  0  0  0  0
    5.1350   -1.0000    0.0000 C   0  0  0  0  0  0  0  0  0  0  0  0
    6.8671    1.0000    0.0000 C   0  0  0  0  0  0  0  0  0  0  0  0
    6.8671    2.0000    0.0000 C   0  0  0  0  0  0  0  0  0  0  0  0
    3.4030   -1.0000    0.0000 C   0  0  0  0  0  0  0  0  0  0  0  0
    6.5380   -0.1900    0.0000 H   0  0  0  0  0  0  0  0  0  0  0  0
    6.3301   -1.3100    0.0000 H   0  0  0  0  0  0  0  0  0  0  0  0
    5.7890    1.0826    0.0000 H   0  0  0  0  0  0  0  0  0  0  0  0
    5.3905    0.3923    0.0000 H   0  0  0  0  0  0  0  0  0  0  0  0
    8.0431   -1.0369    0.0000 H   0  0  0  0  0  0  0  0  0  0  0  0
    8.2700   -0.1900    0.0000 H   0  0  0  0  0  0  0  0  0  0  0  0
    7.4231    0.0369    0.0000 H   0  0  0  0  0  0  0  0  0  0  0  0
    6.2471   -2.0000    0.0000 H   0  0  0  0  0  0  0  0  0  0  0  0
    6.8671   -2.6200    0.0000 H   0  0  0  0  0  0  0  0  0  0  0  0
    7.4871   -2.0000    0.0000 H   0  0  0  0  0  0  0  0  0  0  0  0
    7.4040    0.6900    0.0000 H   0  0  0  0  0  0  0  0  0  0  0  0
    4.2690    0.1200    0.0000 H   0  0  0  0  0  0  0  0  0  0  0  0
    7.4040    2.3100    0.0000 H   0  0  0  0  0  0  0  0  0  0  0  0
    6.3301    2.3100    0.0000 H   0  0  0  0  0  0  0  0  0  0  0  0
    2.0000   -0.8100    0.0000 H   0  0  0  0  0  0  0  0  0  0  0  0
    2.5369    0.1200    0.0000 H   0  0  0  0  0  0  0  0  0  0  0  0
  1 10  2  0  0  0  0
  2 13  2  0  0  0  0
  3 10  1  0  0  0  0
  3 13  1  0  0  0  0
  3 25  1  0  0  0  0
  4 13  1  0  0  0  0
  4 28  1  0  0  0  0
  4 29  1  0  0  0  0
  5  6  1  0  0  0  0
  5  7  1  0  0  0  0
  5 10  1  0  0  0  0
  5 14  1  0  0  0  0
  6  8  1  0  0  0  0
  6  9  1  0  0  0  0
  6 15  1  0  0  0  0
  7 11  1  0  0  0  0
  7 16  1  0  0  0  0
  7 17  1  0  0  0  0
  8 18  1  0  0  0  0
  8 19  1  0  0  0  0
  8 20  1  0  0  0  0
  9 21  1  0  0  0  0
  9 22  1  0  0  0  0
  9 23  1  0  0  0  0
 11 12  2  0  0  0  0
 11 24  1  0  0  0  0
 12 26  1  0  0  0  0
 12 27  1  0  0  0  0
M  END
> <PUBCHEM_COMPOUND_CID>
10715

> <PUBCHEM_COMPOUND_CANONICALIZED>
1

> <PUBCHEM_CACTVS_COMPLEXITY>
212

> <PUBCHEM_CACTVS_HBOND_ACCEPTOR>
2

> <PUBCHEM_CACTVS_HBOND_DONOR>
2

> <PUBCHEM_CACTVS_ROTATABLE_BOND>
4

> <PUBCHEM_CACTVS_SUBSKEYS>
AAADceBzMAAAAAAAAAAAAAAAAAAAAAAAAAAAAAAAAAAAAAAAAAAAHgAQAAAADQCBgAADAALAAACIACFSEAAAAAAgAAAIAAEAAAiAABIAgQAEAAAAlSIAAAAAAAAOgAAAAAAAAAAAAAAAAAAAAAAAAAAAAA==

> <PUBCHEM_IUPAC_OPENEYE_NAME>
N-carbamoyl-2-isopropyl-pent-4-enamide

> <PUBCHEM_IUPAC_CAS_NAME>
N-carbamoyl-2-propan-2-yl-4-pentenamide

> <PUBCHEM_IUPAC_NAME>
N-carbamoyl-2-propan-2-ylpent-4-enamide

> <PUBCHEM_IUPAC_SYSTEMATIC_NAME>
N-aminocarbonyl-2-propan-2-yl-pent-4-enamide

> <PUBCHEM_IUPAC_TRADITIONAL_NAME>
N-carbamoyl-2-isopropyl-pent-4-enamide

> <PUBCHEM_IUPAC_INCHI>
InChI=1S/C9H16N2O2/c1-4-5-7(6(2)3)8(12)11-9(10)13/h4,6-7H,1,5H2,2-3H3,(H3,10,11,12,13)

> <PUBCHEM_IUPAC_INCHIKEY>
KSUUMAWCGDNLFK-UHFFFAOYSA-N

> <PUBCHEM_XLOGP3_AA>
1.7

> <PUBCHEM_EXACT_MASS>
184.121178

> <PUBCHEM_MOLECULAR_FORMULA>
C9H16N2O2

> <PUBCHEM_MOLECULAR_WEIGHT>
184.23554

> <PUBCHEM_OPENEYE_CAN_SMILES>
CC(C)C(CC=C)C(=O)NC(=O)N

> <PUBCHEM_OPENEYE_ISO_SMILES>
CC(C)C(CC=C)C(=O)NC(=O)N

> <PUBCHEM_CACTVS_TPSA>
72.2

> <PUBCHEM_MONOISOTOPIC_WEIGHT>
184.121178

> <PUBCHEM_TOTAL_CHARGE>
0

> <PUBCHEM_HEAVY_ATOM_COUNT>
13

> <PUBCHEM_ATOM_DEF_STEREO_COUNT>
0

> <PUBCHEM_ATOM_UDEF_STEREO_COUNT>
1

> <PUBCHEM_BOND_DEF_STEREO_COUNT>
0

> <PUBCHEM_BOND_UDEF_STEREO_COUNT>
0

> <PUBCHEM_ISOTOPIC_ATOM_COUNT>
0

> <PUBCHEM_COMPONENT_COUNT>
1

> <PUBCHEM_CACTVS_TAUTO_COUNT>
5

> <PUBCHEM_COORDINATE_TYPE>
1
5
255

> <PUBCHEM_BONDANNOTATIONS>
5  6  3

$$$$

