9323
  -OEChem-06261203362D

 16 14  0     0  0  0  0  0  0999 V2000
    1.1345    0.8660    0.0000 S   0  0  0  0  0  0  0  0  0  0  0  0
    2.0005    1.3660    0.0000 O   0  0  0  0  0  0  0  0  0  0  0  0
    0.2685    0.3660    0.0000 O   0  5  0  0  0  0  0  0  0  0  0  0
    0.6345    1.7320    0.0000 O   0  0  0  0  0  0  0  0  0  0  0  0
    1.6345    0.0000    0.0000 O   0  0  0  0  0  0  0  0  0  0  0  0
    1.4030    4.7690    0.0000 N   0  0  0  0  0  0  0  0  0  0  0  0
    0.5369    4.2690    0.0000 N   0  3  0  0  0  0  0  0  0  0  0  0
    2.2690    4.2690    0.0000 C   0  0  0  0  0  0  0  0  0  0  0  0
    1.4030    5.3890    0.0000 H   0  0  0  0  0  0  0  0  0  0  0  0
    0.0000    3.9590    0.0000 H   0  0  0  0  0  0  0  0  0  0  0  0
    0.2269    4.8059    0.0000 H   0  0  0  0  0  0  0  0  0  0  0  0
    0.8469    3.7320    0.0000 H   0  0  0  0  0  0  0  0  0  0  0  0
    1.9590    3.7320    0.0000 H   0  0  0  0  0  0  0  0  0  0  0  0
    2.8059    3.9590    0.0000 H   0  0  0  0  0  0  0  0  0  0  0  0
    2.5790    4.8059    0.0000 H   0  0  0  0  0  0  0  0  0  0  0  0
    2.5375    1.0560    0.0000 H   0  0  0  0  0  0  0  0  0  0  0  0
  1  2  1  0  0  0  0
  1  3  1  0  0  0  0
  1  4  2  0  0  0  0
  1  5  2  0  0  0  0
  2 16  1  0  0  0  0
  6  7  1  0  0  0  0
  6  8  1  0  0  0  0
  6  9  1  0  0  0  0
  7 10  1  0  0  0  0
  7 11  1  0  0  0  0
  7 12  1  0  0  0  0
  8 13  1  0  0  0  0
  8 14  1  0  0  0  0
  8 15  1  0  0  0  0
M  CHG  2   3  -1   7   1
M  END
> <PUBCHEM_COMPOUND_CID>
9323

> <PUBCHEM_COMPOUND_CANONICALIZED>
1

> <PUBCHEM_CACTVS_COMPLEXITY>
78.7

> <PUBCHEM_CACTVS_HBOND_ACCEPTOR>
5

> <PUBCHEM_CACTVS_HBOND_DONOR>
3

> <PUBCHEM_CACTVS_ROTATABLE_BOND>
0

> <PUBCHEM_CACTVS_SUBSKEYS>
AAADccADOABAAAAAAAAAAAAAAAAAAAAAAAAAAAAAAAAAAAAAAAAAFAAYCAAAAAAAAAQCAABiAIAAAAAAADAAAAAAAAIAIIAAAAAAAAAAAAAAAAAAAAAAAAAAAAAAAAAAAAAAAAAAAAAAAAAAAAAAAAAAAA==

> <PUBCHEM_IUPAC_OPENEYE_NAME>
hydrogen sulfate; methylaminoammonium

> <PUBCHEM_IUPAC_CAS_NAME>
hydrogen sulfate; methylaminoammonium

> <PUBCHEM_IUPAC_NAME>
hydrogen sulfate; methylaminoazanium

> <PUBCHEM_IUPAC_SYSTEMATIC_NAME>
hydrogen sulfate; methylaminoazanium

> <PUBCHEM_IUPAC_TRADITIONAL_NAME>
methylaminoammonium bisulfate

> <PUBCHEM_IUPAC_INCHI>
InChI=1S/CH6N2.H2O4S/c1-3-2;1-5(2,3)4/h3H,2H2,1H3;(H2,1,2,3,4)

> <PUBCHEM_IUPAC_INCHIKEY>
KJDJPXUIZYHXEZ-UHFFFAOYSA-N

> <PUBCHEM_EXACT_MASS>
144.020478

> <PUBCHEM_MOLECULAR_FORMULA>
CH8N2O4S

> <PUBCHEM_MOLECULAR_WEIGHT>
144.15022

> <PUBCHEM_OPENEYE_CAN_SMILES>
CN[NH3+].OS(=O)(=O)[O-]

> <PUBCHEM_OPENEYE_ISO_SMILES>
CN[NH3+].OS(=O)(=O)[O-]

> <PUBCHEM_CACTVS_TPSA>
126

> <PUBCHEM_MONOISOTOPIC_WEIGHT>
144.020478

> <PUBCHEM_TOTAL_CHARGE>
0

> <PUBCHEM_HEAVY_ATOM_COUNT>
8

> <PUBCHEM_ATOM_DEF_STEREO_COUNT>
0

> <PUBCHEM_ATOM_UDEF_STEREO_COUNT>
0

> <PUBCHEM_BOND_DEF_STEREO_COUNT>
0

> <PUBCHEM_BOND_UDEF_STEREO_COUNT>
0

> <PUBCHEM_ISOTOPIC_ATOM_COUNT>
0

> <PUBCHEM_COMPONENT_COUNT>
2

> <PUBCHEM_CACTVS_TAUTO_COUNT>
1

> <PUBCHEM_COORDINATE_TYPE>
1
5
255

$$$$

