11665
  -OEChem-06261205582D

 17 16  0     0  0  0  0  0  0999 V2000
    2.0000   -0.5000    0.0000 I   0  0  0  0  0  0  0  0  0  0  0  0
    2.8660    0.0000    0.0000 C   0  0  0  0  0  0  0  0  0  0  0  0
    3.7320    0.5000    0.0000 C   0  0  0  0  0  0  0  0  0  0  0  0
    2.3660    0.8660    0.0000 C   0  0  0  0  0  0  0  0  0  0  0  0
    3.3660   -0.8660    0.0000 C   0  0  0  0  0  0  0  0  0  0  0  0
    4.5981    0.0000    0.0000 C   0  0  0  0  0  0  0  0  0  0  0  0
    4.1306    0.9749    0.0000 H   0  0  0  0  0  0  0  0  0  0  0  0
    3.3335    0.9749    0.0000 H   0  0  0  0  0  0  0  0  0  0  0  0
    2.8291   -1.1760    0.0000 H   0  0  0  0  0  0  0  0  0  0  0  0
    3.6760   -1.4030    0.0000 H   0  0  0  0  0  0  0  0  0  0  0  0
    3.9030   -0.5560    0.0000 H   0  0  0  0  0  0  0  0  0  0  0  0
    2.9030    1.1760    0.0000 H   0  0  0  0  0  0  0  0  0  0  0  0
    2.0560    1.4030    0.0000 H   0  0  0  0  0  0  0  0  0  0  0  0
    1.8291    0.5560    0.0000 H   0  0  0  0  0  0  0  0  0  0  0  0
    4.2881   -0.5369    0.0000 H   0  0  0  0  0  0  0  0  0  0  0  0
    5.1350   -0.3100    0.0000 H   0  0  0  0  0  0  0  0  0  0  0  0
    4.9081    0.5369    0.0000 H   0  0  0  0  0  0  0  0  0  0  0  0
  1  2  1  0  0  0  0
  2  3  1  0  0  0  0
  2  4  1  0  0  0  0
  2  5  1  0  0  0  0
  3  6  1  0  0  0  0
  3  7  1  0  0  0  0
  3  8  1  0  0  0  0
  4 12  1  0  0  0  0
  4 13  1  0  0  0  0
  4 14  1  0  0  0  0
  5  9  1  0  0  0  0
  5 10  1  0  0  0  0
  5 11  1  0  0  0  0
  6 15  1  0  0  0  0
  6 16  1  0  0  0  0
  6 17  1  0  0  0  0
M  END
> <PUBCHEM_COMPOUND_CID>
11665

> <PUBCHEM_COMPOUND_CANONICALIZED>
1

> <PUBCHEM_CACTVS_COMPLEXITY>
39.2

> <PUBCHEM_CACTVS_HBOND_ACCEPTOR>
0

> <PUBCHEM_CACTVS_HBOND_DONOR>
0

> <PUBCHEM_CACTVS_ROTATABLE_BOND>
1

> <PUBCHEM_CACTVS_SUBSKEYS>
AAADccBgAAAAAgAAAAAAAAAAAAAAAAAAAAAAAAAAAAAAAAAAAAAAGAAgAAAADACCAAACAAAAAAAAAAAAAAAAAAAAAAAAAAAAAAAAAAAAAAAAAAAAAAAAAAAAAAAIAAAAAAAAAAAAAAAAAAAAAAAAAAAAAA==

> <PUBCHEM_IUPAC_OPENEYE_NAME>
2-iodo-2-methyl-butane

> <PUBCHEM_IUPAC_CAS_NAME>
2-iodo-2-methylbutane

> <PUBCHEM_IUPAC_NAME>
2-iodo-2-methylbutane

> <PUBCHEM_IUPAC_SYSTEMATIC_NAME>
2-iodanyl-2-methyl-butane

> <PUBCHEM_IUPAC_TRADITIONAL_NAME>
2-iodo-2-methyl-butane

> <PUBCHEM_IUPAC_INCHI>
InChI=1S/C5H11I/c1-4-5(2,3)6/h4H2,1-3H3

> <PUBCHEM_IUPAC_INCHIKEY>
NWRZTQFWFPLHHX-UHFFFAOYSA-N

> <PUBCHEM_XLOGP3_AA>
3.2

> <PUBCHEM_EXACT_MASS>
197.990548

> <PUBCHEM_MOLECULAR_FORMULA>
C5H11I

> <PUBCHEM_MOLECULAR_WEIGHT>
198.04531

> <PUBCHEM_OPENEYE_CAN_SMILES>
CCC(C)(C)I

> <PUBCHEM_OPENEYE_ISO_SMILES>
CCC(C)(C)I

> <PUBCHEM_CACTVS_TPSA>
0

> <PUBCHEM_MONOISOTOPIC_WEIGHT>
197.990548

> <PUBCHEM_TOTAL_CHARGE>
0

> <PUBCHEM_HEAVY_ATOM_COUNT>
6

> <PUBCHEM_ATOM_DEF_STEREO_COUNT>
0

> <PUBCHEM_ATOM_UDEF_STEREO_COUNT>
0

> <PUBCHEM_BOND_DEF_STEREO_COUNT>
0

> <PUBCHEM_BOND_UDEF_STEREO_COUNT>
0

> <PUBCHEM_ISOTOPIC_ATOM_COUNT>
0

> <PUBCHEM_COMPONENT_COUNT>
1

> <PUBCHEM_CACTVS_TAUTO_COUNT>
1

> <PUBCHEM_COORDINATE_TYPE>
1
5
255

$$$$

