12219
  -OEChem-06261206402D

 13 12  0     0  0  0  0  0  0999 V2000
    2.8660    0.0600    0.0000 N   0  0  0  0  0  0  0  0  0  0  0  0
    3.7320    0.5600    0.0000 C   0  0  0  0  0  0  0  0  0  0  0  0
    4.5981    0.0600    0.0000 C   0  0  0  0  0  0  0  0  0  0  0  0
    2.0000    0.5600    0.0000 C   0  0  0  0  0  0  0  0  0  0  0  0
    4.1306    1.0350    0.0000 H   0  0  0  0  0  0  0  0  0  0  0  0
    3.3335    1.0350    0.0000 H   0  0  0  0  0  0  0  0  0  0  0  0
    2.8660   -0.5600    0.0000 H   0  0  0  0  0  0  0  0  0  0  0  0
    4.2881   -0.4769    0.0000 H   0  0  0  0  0  0  0  0  0  0  0  0
    5.1350   -0.2500    0.0000 H   0  0  0  0  0  0  0  0  0  0  0  0
    4.9081    0.5969    0.0000 H   0  0  0  0  0  0  0  0  0  0  0  0
    2.3100    1.0969    0.0000 H   0  0  0  0  0  0  0  0  0  0  0  0
    1.4631    0.8700    0.0000 H   0  0  0  0  0  0  0  0  0  0  0  0
    1.6900    0.0231    0.0000 H   0  0  0  0  0  0  0  0  0  0  0  0
  1  2  1  0  0  0  0
  1  4  1  0  0  0  0
  1  7  1  0  0  0  0
  2  3  1  0  0  0  0
  2  5  1  0  0  0  0
  2  6  1  0  0  0  0
  3  8  1  0  0  0  0
  3  9  1  0  0  0  0
  3 10  1  0  0  0  0
  4 11  1  0  0  0  0
  4 12  1  0  0  0  0
  4 13  1  0  0  0  0
M  END
> <PUBCHEM_COMPOUND_CID>
12219

> <PUBCHEM_COMPOUND_CANONICALIZED>
1

> <PUBCHEM_CACTVS_COMPLEXITY>
7.2

> <PUBCHEM_CACTVS_HBOND_ACCEPTOR>
1

> <PUBCHEM_CACTVS_HBOND_DONOR>
1

> <PUBCHEM_CACTVS_ROTATABLE_BOND>
1

> <PUBCHEM_CACTVS_SUBSKEYS>
AAADccBCAAAAAAAAAAAAAAAAAAAAAAAAAAAAAAAAAAAAAAAAAAAAHAAQAAAAAADBAAQCAALAAAAAAAAAAAAAAAAAAAAAAIAIAAAAAAAAAAAAAAAAEAAAAAAAAAAAAAAAAAAAAAAAAAAAAAAAAAAAAAAAAA==

> <PUBCHEM_IUPAC_OPENEYE_NAME>
N-methylethanamine

> <PUBCHEM_IUPAC_CAS_NAME>
N-methylethanamine

> <PUBCHEM_IUPAC_NAME>
N-methylethanamine

> <PUBCHEM_IUPAC_SYSTEMATIC_NAME>
N-methylethanamine

> <PUBCHEM_IUPAC_TRADITIONAL_NAME>
ethyl(methyl)amine

> <PUBCHEM_IUPAC_INCHI>
InChI=1S/C3H9N/c1-3-4-2/h4H,3H2,1-2H3

> <PUBCHEM_IUPAC_INCHIKEY>
LIWAQLJGPBVORC-UHFFFAOYSA-N

> <PUBCHEM_XLOGP3>
0.1

> <PUBCHEM_EXACT_MASS>
59.073499

> <PUBCHEM_MOLECULAR_FORMULA>
C3H9N

> <PUBCHEM_MOLECULAR_WEIGHT>
59.11026

> <PUBCHEM_OPENEYE_CAN_SMILES>
CCNC

> <PUBCHEM_OPENEYE_ISO_SMILES>
CCNC

> <PUBCHEM_CACTVS_TPSA>
12

> <PUBCHEM_MONOISOTOPIC_WEIGHT>
59.073499

> <PUBCHEM_TOTAL_CHARGE>
0

> <PUBCHEM_HEAVY_ATOM_COUNT>
4

> <PUBCHEM_ATOM_DEF_STEREO_COUNT>
0

> <PUBCHEM_ATOM_UDEF_STEREO_COUNT>
0

> <PUBCHEM_BOND_DEF_STEREO_COUNT>
0

> <PUBCHEM_BOND_UDEF_STEREO_COUNT>
0

> <PUBCHEM_ISOTOPIC_ATOM_COUNT>
0

> <PUBCHEM_COMPONENT_COUNT>
1

> <PUBCHEM_CACTVS_TAUTO_COUNT>
1

> <PUBCHEM_COORDINATE_TYPE>
1
5
255

$$$$

