47205727
  -OEChem-06241223003D

 46 46  0     0  0  0  0  0  0999 V2000
   -1.6312    1.0410    1.1420 O   0  0  0  0  0  0  0  0  0  0  0  0
    4.0499    1.4699    0.1355 O   0  0  0  0  0  0  0  0  0  0  0  0
    2.1192    0.2306    0.3429 N   0  0  0  0  0  0  0  0  0  0  0  0
   -2.4540   -0.3421   -0.5409 N   0  0  0  0  0  0  0  0  0  0  0  0
    4.2367   -0.8196   -0.0416 N   0  0  0  0  0  0  0  0  0  0  0  0
   -0.4244    0.9288   -0.8829 C   0  0  0  0  0  0  0  0  0  0  0  0
    0.4680    1.9743   -0.2075 C   0  0  0  0  0  0  0  0  0  0  0  0
    0.3680   -0.3087   -1.3137 C   0  0  0  0  0  0  0  0  0  0  0  0
    1.3567    1.3605    0.8709 C   0  0  0  0  0  0  0  0  0  0  0  0
    1.2988   -0.8478   -0.2218 C   0  0  0  0  0  0  0  0  0  0  0  0
   -3.6202   -0.8365    0.1547 C   0  0  0  0  0  0  0  0  0  0  0  0
   -1.5640    0.5543    0.0193 C   0  0  0  0  0  0  0  0  0  0  0  0
   -4.5654    0.3368    0.5075 C   0  0  0  0  0  0  0  0  0  0  0  0
   -4.3631   -1.8060   -0.7781 C   0  0  0  0  0  0  0  0  0  0  0  0
   -3.1750   -1.5983    1.4107 C   0  0  0  0  0  0  0  0  0  0  0  0
    3.5007    0.3606    0.1421 C   0  0  0  0  0  0  0  0  0  0  0  0
   -5.0554    1.1510   -0.6852 C   0  0  0  0  0  0  0  0  0  0  0  0
    3.8730   -2.1108    0.5390 C   0  0  0  0  0  0  0  0  0  0  0  0
    5.5818   -0.7378   -0.5929 C   0  0  0  0  0  0  0  0  0  0  0  0
   -0.8750    1.3859   -1.7742 H   0  0  0  0  0  0  0  0  0  0  0  0
    1.1136    2.4201   -0.9759 H   0  0  0  0  0  0  0  0  0  0  0  0
   -0.1214    2.7963    0.2158 H   0  0  0  0  0  0  0  0  0  0  0  0
   -0.2739   -1.1214   -1.6687 H   0  0  0  0  0  0  0  0  0  0  0  0
    0.9905   -0.0192   -2.1718 H   0  0  0  0  0  0  0  0  0  0  0  0
    1.8979   -1.6210   -0.6989 H   0  0  0  0  0  0  0  0  0  0  0  0
    2.0332    2.1248    1.2681 H   0  0  0  0  0  0  0  0  0  0  0  0
    0.7220   -1.2961    0.5945 H   0  0  0  0  0  0  0  0  0  0  0  0
    0.7723    0.9881    1.7185 H   0  0  0  0  0  0  0  0  0  0  0  0
   -2.3259   -0.6176   -1.5102 H   0  0  0  0  0  0  0  0  0  0  0  0
   -5.4445   -0.0565    1.0352 H   0  0  0  0  0  0  0  0  0  0  0  0
   -4.0850    1.0225    1.2144 H   0  0  0  0  0  0  0  0  0  0  0  0
   -4.5908   -1.3570   -1.7509 H   0  0  0  0  0  0  0  0  0  0  0  0
   -3.7501   -2.6920   -0.9848 H   0  0  0  0  0  0  0  0  0  0  0  0
   -5.3021   -2.1510   -0.3311 H   0  0  0  0  0  0  0  0  0  0  0  0
   -2.7176   -0.9428    2.1581 H   0  0  0  0  0  0  0  0  0  0  0  0
   -4.0304   -2.0844    1.8940 H   0  0  0  0  0  0  0  0  0  0  0  0
   -2.4432   -2.3768    1.1650 H   0  0  0  0  0  0  0  0  0  0  0  0
   -4.2249    1.5583   -1.2691 H   0  0  0  0  0  0  0  0  0  0  0  0
   -5.6557    1.9961   -0.3315 H   0  0  0  0  0  0  0  0  0  0  0  0
   -5.6929    0.5592   -1.3478 H   0  0  0  0  0  0  0  0  0  0  0  0
    5.7257    0.1975   -1.1409 H   0  0  0  0  0  0  0  0  0  0  0  0
    6.3025   -0.7842    0.2287 H   0  0  0  0  0  0  0  0  0  0  0  0
    4.7225   -2.4754    1.1270 H   0  0  0  0  0  0  0  0  0  0  0  0
    3.0245   -2.0375    1.2217 H   0  0  0  0  0  0  0  0  0  0  0  0
    3.6779   -2.8253   -0.2652 H   0  0  0  0  0  0  0  0  0  0  0  0
    5.7408   -1.5781   -1.2748 H   0  0  0  0  0  0  0  0  0  0  0  0
  1 12  2  0  0  0  0
  2 16  2  0  0  0  0
  3  9  1  0  0  0  0
  3 10  1  0  0  0  0
  3 16  1  0  0  0  0
  4 11  1  0  0  0  0
  4 12  1  0  0  0  0
  4 29  1  0  0  0  0
  5 16  1  0  0  0  0
  5 18  1  0  0  0  0
  5 19  1  0  0  0  0
  6  7  1  0  0  0  0
  6  8  1  0  0  0  0
  6 12  1  0  0  0  0
  6 20  1  0  0  0  0
  7  9  1  0  0  0  0
  7 21  1  0  0  0  0
  7 22  1  0  0  0  0
  8 10  1  0  0  0  0
  8 23  1  0  0  0  0
  8 24  1  0  0  0  0
  9 26  1  0  0  0  0
  9 28  1  0  0  0  0
 10 25  1  0  0  0  0
 10 27  1  0  0  0  0
 11 13  1  0  0  0  0
 11 14  1  0  0  0  0
 11 15  1  0  0  0  0
 13 17  1  0  0  0  0
 13 30  1  0  0  0  0
 13 31  1  0  0  0  0
 14 32  1  0  0  0  0
 14 33  1  0  0  0  0
 14 34  1  0  0  0  0
 15 35  1  0  0  0  0
 15 36  1  0  0  0  0
 15 37  1  0  0  0  0
 17 38  1  0  0  0  0
 17 39  1  0  0  0  0
 17 40  1  0  0  0  0
 18 43  1  0  0  0  0
 18 44  1  0  0  0  0
 18 45  1  0  0  0  0
 19 41  1  0  0  0  0
 19 42  1  0  0  0  0
 19 46  1  0  0  0  0
M  END
> <PUBCHEM_COMPOUND_CID>
47205727

> <PUBCHEM_CONFORMER_RMSD>
0.8

> <PUBCHEM_CONFORMER_DIVERSEORDER>
7
160
36
158
9
25
59
142
37
159
127
133
79
155
63
120
32
107
56
140
117
149
111
126
14
128
144
95
143
113
136
62
156
15
82
92
77
48
154
68
67
65
125
83
93
10
114
132
116
84
102
122
87
121
70
105
145
50
12
26
157
81
47
150
45
31
23
73
85
72
123
90
161
152
163
86
40
33
71
119
19
148
61
94
41
141
147
75
131
74
8
129
151
22
49
100
18
42
139
4
28
38
52
2
24
16
17
66
88
153
106
108
124
78
11
112
164
146
99
110
55
1
118
35
89
34
54
44
60
130
80
29
58
57
6
21
138
103
5
64
20
137
39
134
46
3
30
98
135
53
13
101
76
51
27
69
97
96
43
115
91
162
104
109

> <PUBCHEM_MMFF94_PARTIAL_CHARGES>
14
1 -0.57
10 0.3
11 0.3
12 0.57
16 0.69
18 0.3
19 0.3
2 -0.57
29 0.37
3 -0.66
4 -0.73
5 -0.66
6 0.06
9 0.3

> <PUBCHEM_EFFECTIVE_ROTOR_COUNT>
7.2

> <PUBCHEM_PHARMACOPHORE_FEATURES>
6
1 1 acceptor
1 17 hydrophobe
1 2 acceptor
1 4 donor
3 11 14 15 hydrophobe
6 3 6 7 8 9 10 rings

> <PUBCHEM_HEAVY_ATOM_COUNT>
19

> <PUBCHEM_ATOM_DEF_STEREO_COUNT>
0

> <PUBCHEM_ATOM_UDEF_STEREO_COUNT>
0

> <PUBCHEM_BOND_DEF_STEREO_COUNT>
0

> <PUBCHEM_BOND_UDEF_STEREO_COUNT>
0

> <PUBCHEM_ISOTOPIC_ATOM_COUNT>
0

> <PUBCHEM_COMPONENT_COUNT>
1

> <PUBCHEM_CACTVS_TAUTO_COUNT>
2

> <PUBCHEM_CONFORMER_ID>
02D04D5F00000007

> <PUBCHEM_MMFF94_ENERGY>
48.4704

> <PUBCHEM_FEATURE_SELFOVERLAP>
30.447

> <PUBCHEM_SHAPE_MULTIPOLES>
364.33
11.25
1.94
1.08
2.17
0.25
-0.04
3.37
0.57
0.05
-0.2
-0.53
0.12
0.24

> <PUBCHEM_SHAPE_SELFOVERLAP>
719.965

> <PUBCHEM_SHAPE_VOLUME>
216.2

> <PUBCHEM_COORDINATE_TYPE>
2
5
10

$$$$

