17395949
  -OEChem-06241222533D

 39 42  0     0  0  0  0  0  0999 V2000
   -3.7812    2.5857   -0.1199 S   0  0  0  0  0  0  0  0  0  0  0  0
    0.4199    0.1259    0.0007 O   0  0  0  0  0  0  0  0  0  0  0  0
    0.7885    2.4164   -0.0960 O   0  0  0  0  0  0  0  0  0  0  0  0
   -2.2563    0.5005   -0.0238 N   0  0  0  0  0  0  0  0  0  0  0  0
    5.9484   -0.5578    0.0513 N   0  0  0  0  0  0  0  0  0  0  0  0
    6.6644   -0.6950   -1.0733 N   0  0  0  0  0  0  0  0  0  0  0  0
    8.0025   -0.7869    0.7076 N   0  0  0  0  0  0  0  0  0  0  0  0
    7.9200   -0.8343   -0.6657 N   0  0  0  0  0  0  0  0  0  0  0  0
   -4.6526    0.0119   -0.0106 C   0  0  0  0  0  0  0  0  0  0  0  0
   -3.5107    0.8927   -0.0452 C   0  0  0  0  0  0  0  0  0  0  0  0
   -6.8608   -1.6915    0.0565 C   0  0  0  0  0  0  0  0  0  0  0  0
   -4.5096   -1.3296   -0.3652 C   0  0  0  0  0  0  0  0  0  0  0  0
   -5.8998    0.5017    0.3775 C   0  0  0  0  0  0  0  0  0  0  0  0
    4.5759   -0.3880    0.0388 C   0  0  0  0  0  0  0  0  0  0  0  0
   -5.6138   -2.1812   -0.3316 C   0  0  0  0  0  0  0  0  0  0  0  0
   -7.0039   -0.3500    0.4109 C   0  0  0  0  0  0  0  0  0  0  0  0
    1.8075   -0.0458    0.0133 C   0  0  0  0  0  0  0  0  0  0  0  0
   -1.4398    1.6135   -0.0696 C   0  0  0  0  0  0  0  0  0  0  0  0
    3.8791   -0.2515    1.2393 C   0  0  0  0  0  0  0  0  0  0  0  0
    3.8886   -0.3536   -1.1745 C   0  0  0  0  0  0  0  0  0  0  0  0
    2.4949   -0.0803    1.2265 C   0  0  0  0  0  0  0  0  0  0  0  0
    2.5043   -0.1825   -1.1873 C   0  0  0  0  0  0  0  0  0  0  0  0
   -8.0412   -2.6022    0.0924 C   0  0  0  0  0  0  0  0  0  0  0  0
   -2.0838    2.8317   -0.1250 C   0  0  0  0  0  0  0  0  0  0  0  0
   -0.0117    1.4648   -0.0577 C   0  0  0  0  0  0  0  0  0  0  0  0
    6.7713   -0.6148    1.1306 C   0  0  0  0  0  0  0  0  0  0  0  0
   -3.5485   -1.7340   -0.6736 H   0  0  0  0  0  0  0  0  0  0  0  0
   -6.0740    1.5263    0.6915 H   0  0  0  0  0  0  0  0  0  0  0  0
   -5.4897   -3.2247   -0.6088 H   0  0  0  0  0  0  0  0  0  0  0  0
   -7.9692    0.0406    0.7222 H   0  0  0  0  0  0  0  0  0  0  0  0
    4.3649   -0.2712    2.2096 H   0  0  0  0  0  0  0  0  0  0  0  0
    4.3951   -0.4563   -2.1307 H   0  0  0  0  0  0  0  0  0  0  0  0
    1.9564    0.0253    2.1645 H   0  0  0  0  0  0  0  0  0  0  0  0
    1.9735   -0.1567   -2.1350 H   0  0  0  0  0  0  0  0  0  0  0  0
   -7.9540   -3.3923   -0.6612 H   0  0  0  0  0  0  0  0  0  0  0  0
   -8.9672   -2.0575   -0.1210 H   0  0  0  0  0  0  0  0  0  0  0  0
   -8.1272   -3.0670    1.0795 H   0  0  0  0  0  0  0  0  0  0  0  0
   -1.6611    3.8258   -0.1668 H   0  0  0  0  0  0  0  0  0  0  0  0
    6.4763   -0.5342    2.1666 H   0  0  0  0  0  0  0  0  0  0  0  0
  1 10  1  0  0  0  0
  1 24  1  0  0  0  0
  2 17  1  0  0  0  0
  2 25  1  0  0  0  0
  3 25  2  0  0  0  0
  4 10  2  0  0  0  0
  4 18  1  0  0  0  0
  5  6  1  0  0  0  0
  5 14  1  0  0  0  0
  5 26  1  0  0  0  0
  6  8  2  0  0  0  0
  7  8  1  0  0  0  0
  7 26  2  0  0  0  0
  9 10  1  0  0  0  0
  9 12  2  0  0  0  0
  9 13  1  0  0  0  0
 11 15  2  0  0  0  0
 11 16  1  0  0  0  0
 11 23  1  0  0  0  0
 12 15  1  0  0  0  0
 12 27  1  0  0  0  0
 13 16  2  0  0  0  0
 13 28  1  0  0  0  0
 14 19  2  0  0  0  0
 14 20  1  0  0  0  0
 15 29  1  0  0  0  0
 16 30  1  0  0  0  0
 17 21  2  0  0  0  0
 17 22  1  0  0  0  0
 18 24  2  0  0  0  0
 18 25  1  0  0  0  0
 19 21  1  0  0  0  0
 19 31  1  0  0  0  0
 20 22  2  0  0  0  0
 20 32  1  0  0  0  0
 21 33  1  0  0  0  0
 22 34  1  0  0  0  0
 23 35  1  0  0  0  0
 23 36  1  0  0  0  0
 23 37  1  0  0  0  0
 24 38  1  0  0  0  0
 26 39  1  0  0  0  0
M  END
> <PUBCHEM_COMPOUND_CID>
17395949

> <PUBCHEM_CONFORMER_RMSD>
0.8

> <PUBCHEM_CONFORMER_DIVERSEORDER>
1
67
87
28
3
88
49
70
54
60
17
5
84
47
43
79
92
24
44
32
11
12
46
36
75
29
13
37
19
85
59
41
27
69
91
39
33
14
73
34
81
26
21
71
76
9
53
2
31
35
90
30
89
20
86
83
6
25
48
63
56
8
80
15
42
55
51
77
4
52
16
57
72
10
65
58
7
50
40
61
74
78
45
23
64
82
66
62
22
18
68
38

> <PUBCHEM_MMFF94_PARTIAL_CHARGES>
35
1 -0.08
10 0.33
11 -0.14
12 -0.15
13 -0.15
14 -0.02
15 -0.15
16 -0.15
17 0.08
18 0.14
19 -0.15
2 -0.23
20 -0.15
21 -0.15
22 -0.15
23 0.14
24 -0.11
25 0.81
26 0.04
27 0.15
28 0.15
29 0.15
3 -0.57
30 0.15
31 0.15
32 0.15
33 0.15
34 0.15
38 0.15
39 0.15
4 -0.57
5 0.59
6 -0.42
7 -0.34
9 0.05

> <PUBCHEM_EFFECTIVE_ROTOR_COUNT>
5

> <PUBCHEM_PHARMACOPHORE_FEATURES>
7
1 3 acceptor
1 4 acceptor
3 5 7 26 cation
5 1 4 10 18 24 rings
5 5 6 7 8 26 rings
6 14 17 19 20 21 22 rings
6 9 11 12 13 15 16 rings

> <PUBCHEM_HEAVY_ATOM_COUNT>
26

> <PUBCHEM_ATOM_DEF_STEREO_COUNT>
0

> <PUBCHEM_ATOM_UDEF_STEREO_COUNT>
0

> <PUBCHEM_BOND_DEF_STEREO_COUNT>
0

> <PUBCHEM_BOND_UDEF_STEREO_COUNT>
0

> <PUBCHEM_ISOTOPIC_ATOM_COUNT>
0

> <PUBCHEM_COMPONENT_COUNT>
1

> <PUBCHEM_CACTVS_TAUTO_COUNT>
1

> <PUBCHEM_CONFORMER_ID>
010970ED00000001

> <PUBCHEM_MMFF94_ENERGY>
68.9531

> <PUBCHEM_FEATURE_SELFOVERLAP>
35.52

> <PUBCHEM_SHAPE_FINGERPRINT>
10 15 17967259685210923114
10258705 36 17968646233672744838
10299344 5 18273494576292817859
10411042 1 18339361869350411997
11315181 36 18342455967610664017
11524674 6 16660365870484925103
11963148 33 18410863178422958502
12166972 35 17703789206572601332
12236239 1 17775283919745504736
12643181 29 18411422826410497269
12730499 353 17385726937503576390
13288520 33 18411982473228404933
13631057 29 18413110580331550681
13673619 4 18186803565042580961
13690498 29 18131639984941386461
13692114 37 18131638859913494354
14068700 675 18342454829243974701
14123256 34 18410853231726086955
14251764 18 6555406509442275196
14429380 56 16200144371263474526
14556957 393 16486963046671281015
14729087 3 9943807781101736575
14767858 380 17561082514197457386
14931854 50 17775293763763451667
15183329 4 14979963575004665917
15350500 55 6194297192189594555
15352257 5 18113615724754683902
15419008 47 17894918438126217944
15461852 350 18341888624247960444
16992779 147 15648480822474491226
1768 4 16588604019832235016
17686467 74 18342740676650386368
17780758 139 17894628176252736305
18335252 98 18114179749203861230
18608769 82 18259987063113682350
18681886 176 18343867706117446320
19427546 20 18129946809954616493
20028762 73 18334858277864817311
20105231 36 16805598179839040822
21054139 6 18131913784341897522
21130935 74 18263927812479130330
21150785 3 17775564239423362286
21267235 1 18412543185519325627
21521721 280 16153438234001908018
21623969 137 17022618702149296302
21792961 116 17313948649299043540
22002106 203 18043822987780069535
22224240 67 16587747537921418686
22864921 47 18269292269133588538
23035841 295 18411699889580159963
23081809 10 17417809608454169040
23522609 53 18125969803219294477
23622692 118 18342457032667712069
2747138 104 18040436603260531736
3004659 81 18060140903912725109
3009799 131 12967127216163972372
3178227 256 16805044017425746442
335352 9 18341337765044728557
3383291 50 18340204090730726267
3418910 222 18113893854416712232
34797466 226 18113330913368891620
351380 3 18343304747821828291
397830 11 18041293075463113720
4461854 278 17968370152705355215
474113 269 13685755952449370056
5104073 3 17678171800999553154
5283156 175 18060137669216756241
5385378 56 7493017249215422076
54039377 194 18272646819328024195
559249 180 18410575073044279943
5937810 71 13254531881307972831
5969126 39 17060344049720529941
6009941 240 17458900552765259713
6138700 20 18412826859767763795
636775 8 18411974754518254454
6700243 42 18120346981957878948
9663363 56 18410581678060415965
9953998 17 17822009826736285681
9980921 7 6915994643515376251
999808 66 17894632569080880079

> <PUBCHEM_SHAPE_MULTIPOLES>
502.27
24.21
2.43
0.98
13.56
1.06
0.03
-18.13
1.41
-5.31
-0.16
1.44
-0.15
-0.07

> <PUBCHEM_SHAPE_SELFOVERLAP>
1097.589

> <PUBCHEM_SHAPE_VOLUME>
273.4

> <PUBCHEM_COORDINATE_TYPE>
2
5
10

$$$$

