11066
  -OEChem-06261205173D

 43 47  0     0  0  0  0  0  0999 V2000
   -6.2515   -0.0162   -0.1130 O   0  0  0  0  0  0  0  0  0  0  0  0
   -5.1297   -2.1008    0.3321 O   0  0  0  0  0  0  0  0  0  0  0  0
    2.0577    2.3685    0.5007 O   0  0  0  0  0  0  0  0  0  0  0  0
    4.3252    1.2560    0.2647 O   0  0  0  0  0  0  0  0  0  0  0  0
    5.6979   -1.0561   -0.1945 O   0  0  0  0  0  0  0  0  0  0  0  0
    0.0425    1.2192    0.2261 N   0  0  0  0  0  0  0  0  0  0  0  0
   -0.7549    2.4261    0.4702 C   0  0  0  0  0  0  0  0  0  0  0  0
   -1.9894    2.4868   -0.4178 C   0  0  0  0  0  0  0  0  0  0  0  0
   -0.6218    0.0037    0.0144 C   0  0  0  0  0  0  0  0  0  0  0  0
   -2.7954    1.2307   -0.2268 C   0  0  0  0  0  0  0  0  0  0  0  0
   -2.1157    0.0020   -0.0028 C   0  0  0  0  0  0  0  0  0  0  0  0
    1.4445    1.3273    0.2734 C   0  0  0  0  0  0  0  0  0  0  0  0
    0.0759   -1.1240   -0.2137 C   0  0  0  0  0  0  0  0  0  0  0  0
    2.2181    0.0857    0.0287 C   0  0  0  0  0  0  0  0  0  0  0  0
    1.5362   -1.1097   -0.2112 C   0  0  0  0  0  0  0  0  0  0  0  0
   -4.1970    1.2856   -0.2935 C   0  0  0  0  0  0  0  0  0  0  0  0
   -2.8791   -1.1610    0.2119 C   0  0  0  0  0  0  0  0  0  0  0  0
   -4.8977    0.1172   -0.0963 C   0  0  0  0  0  0  0  0  0  0  0  0
   -4.2573   -1.0703    0.1553 C   0  0  0  0  0  0  0  0  0  0  0  0
    3.6178    0.1122    0.0362 C   0  0  0  0  0  0  0  0  0  0  0  0
    2.2649   -2.2821   -0.4450 C   0  0  0  0  0  0  0  0  0  0  0  0
    4.3350   -1.0608   -0.1978 C   0  0  0  0  0  0  0  0  0  0  0  0
    3.6602   -2.2561   -0.4381 C   0  0  0  0  0  0  0  0  0  0  0  0
   -6.3919   -1.4257    0.1574 C   0  0  0  0  0  0  0  0  0  0  0  0
    4.6622    2.0455   -0.8731 C   0  0  0  0  0  0  0  0  0  0  0  0
    6.3432   -1.3037    1.0528 C   0  0  0  0  0  0  0  0  0  0  0  0
   -0.1456    3.3215    0.3050 H   0  0  0  0  0  0  0  0  0  0  0  0
   -1.0321    2.4173    1.5326 H   0  0  0  0  0  0  0  0  0  0  0  0
   -1.7053    2.5684   -1.4738 H   0  0  0  0  0  0  0  0  0  0  0  0
   -2.5790    3.3722   -0.1544 H   0  0  0  0  0  0  0  0  0  0  0  0
   -0.3971   -2.0777   -0.4205 H   0  0  0  0  0  0  0  0  0  0  0  0
   -4.7150    2.2198   -0.4831 H   0  0  0  0  0  0  0  0  0  0  0  0
   -2.4232   -2.1221    0.4248 H   0  0  0  0  0  0  0  0  0  0  0  0
    1.7570   -3.2249   -0.6341 H   0  0  0  0  0  0  0  0  0  0  0  0
    4.2140   -3.1729   -0.6217 H   0  0  0  0  0  0  0  0  0  0  0  0
   -6.9270   -1.8920   -0.6778 H   0  0  0  0  0  0  0  0  0  0  0  0
   -6.9861   -1.5507    1.0700 H   0  0  0  0  0  0  0  0  0  0  0  0
    3.8077    2.1726   -1.5458 H   0  0  0  0  0  0  0  0  0  0  0  0
    5.4916    1.5813   -1.4157 H   0  0  0  0  0  0  0  0  0  0  0  0
    4.9830    3.0309   -0.5240 H   0  0  0  0  0  0  0  0  0  0  0  0
    6.0883   -2.3011    1.4248 H   0  0  0  0  0  0  0  0  0  0  0  0
    6.0632   -0.5446    1.7899 H   0  0  0  0  0  0  0  0  0  0  0  0
    7.4241   -1.2552    0.8947 H   0  0  0  0  0  0  0  0  0  0  0  0
  1 18  1  0  0  0  0
  1 24  1  0  0  0  0
  2 19  1  0  0  0  0
  2 24  1  0  0  0  0
  3 12  2  0  0  0  0
  4 20  1  0  0  0  0
  4 25  1  0  0  0  0
  5 22  1  0  0  0  0
  5 26  1  0  0  0  0
  6  7  1  0  0  0  0
  6  9  1  0  0  0  0
  6 12  1  0  0  0  0
  7  8  1  0  0  0  0
  7 27  1  0  0  0  0
  7 28  1  0  0  0  0
  8 10  1  0  0  0  0
  8 29  1  0  0  0  0
  8 30  1  0  0  0  0
  9 11  1  0  0  0  0
  9 13  2  0  0  0  0
 10 11  1  0  0  0  0
 10 16  2  0  0  0  0
 11 17  2  0  0  0  0
 12 14  1  0  0  0  0
 13 15  1  0  0  0  0
 13 31  1  0  0  0  0
 14 15  2  0  0  0  0
 14 20  1  0  0  0  0
 15 21  1  0  0  0  0
 16 18  1  0  0  0  0
 16 32  1  0  0  0  0
 17 19  1  0  0  0  0
 17 33  1  0  0  0  0
 18 19  2  0  0  0  0
 20 22  2  0  0  0  0
 21 23  2  0  0  0  0
 21 34  1  0  0  0  0
 22 23  1  0  0  0  0
 23 35  1  0  0  0  0
 24 36  1  0  0  0  0
 24 37  1  0  0  0  0
 25 38  1  0  0  0  0
 25 39  1  0  0  0  0
 25 40  1  0  0  0  0
 26 41  1  0  0  0  0
 26 42  1  0  0  0  0
 26 43  1  0  0  0  0
M  END
> <PUBCHEM_COMPOUND_CID>
11066

> <PUBCHEM_CONFORMER_RMSD>
0.6

> <PUBCHEM_CONFORMER_DIVERSEORDER>
1
2

> <PUBCHEM_MMFF94_PARTIAL_CHARGES>
31
1 -0.36
10 -0.14
11 0.03
12 0.54
13 -0.18
14 0.09
15 0.03
16 -0.15
17 -0.15
18 0.08
19 0.08
2 -0.36
20 0.08
21 -0.15
22 0.08
23 -0.15
24 0.56
25 0.28
26 0.28
3 -0.57
31 0.15
32 0.15
33 0.15
34 0.15
35 0.15
4 -0.36
5 -0.36
6 -0.47
7 0.3
8 0.14
9 0.08

> <PUBCHEM_EFFECTIVE_ROTOR_COUNT>
3

> <PUBCHEM_PHARMACOPHORE_FEATURES>
10
1 1 acceptor
1 2 acceptor
1 3 acceptor
1 4 acceptor
1 5 acceptor
5 1 2 18 19 24 rings
6 10 11 16 17 18 19 rings
6 14 15 20 21 22 23 rings
6 6 7 8 9 10 11 rings
6 6 9 12 13 14 15 rings

> <PUBCHEM_HEAVY_ATOM_COUNT>
26

> <PUBCHEM_ATOM_DEF_STEREO_COUNT>
0

> <PUBCHEM_ATOM_UDEF_STEREO_COUNT>
0

> <PUBCHEM_BOND_DEF_STEREO_COUNT>
0

> <PUBCHEM_BOND_UDEF_STEREO_COUNT>
0

> <PUBCHEM_ISOTOPIC_ATOM_COUNT>
0

> <PUBCHEM_COMPONENT_COUNT>
1

> <PUBCHEM_CACTVS_TAUTO_COUNT>
1

> <PUBCHEM_CONFORMER_ID>
00002B3A00000001

> <PUBCHEM_MMFF94_ENERGY>
100.5844

> <PUBCHEM_FEATURE_SELFOVERLAP>
50.994

> <PUBCHEM_SHAPE_FINGERPRINT>
10 15 18335433353022007962
10835480 77 18411708685979884525
11578080 2 13684861936934969996
11719270 70 18335707156660100278
11963148 33 18196376922381102419
12107183 9 17618221045300818187
12166972 35 17846494833584131300
12236239 1 17846779645892718646
12516196 113 18186803582417316771
12788726 201 17458330962143668953
13140716 1 18046356236330162650
13402501 40 18410573981168129507
13544653 18 18340760482020191793
13685833 64 18412539886995349179
13782708 43 17846500361070176666
13862211 1 18410014338028192298
14341114 176 18410568475183209535
14787075 74 18341611482123254331
15196674 1 18410292518917896261
15352361 1 18410009944798608567
15537594 2 18040715818756948869
15927050 60 17612594419559031812
15961568 22 17703785873873444700
17349148 13 18060413638282757326
17492 89 18192712465195531398
17844677 252 18412256259622851149
1813 80 17561081397796305901
18681886 176 18410014347614801858
200 152 18040998445127798705
20028762 73 18260550021889582318
21033648 29 17169292496326653643
21033650 10 16701746067963896373
21236236 1 18335420223017027993
21267235 1 18335696174412503998
21279426 13 18339644546590573941
21315763 129 18342459278834913300
21792934 111 18335149704217105193
221490 88 18410008849070362121
22149856 69 18335406955714987985
22393880 68 18130515244089968917
23402539 116 18343587364679655975
23522609 53 18121467277317754681
23559900 14 18338243759654122025
239999 70 18334008419895761206
3004659 81 18272932730667906194
329604 57 18411415124684919756
335352 9 18409450301489944685
350125 39 18410011044442267628
3886686 26 16683470222300771106
4073 2 18130219368462753915
4214541 1 18410855499342199061
463206 1 18263646177881884231
465052 167 18260543407354362670
5104073 3 18261958547533441425
5283173 99 18201162164989360181
7495541 125 18187367610186074376
9709674 26 18341609274895290115

> <PUBCHEM_SHAPE_MULTIPOLES>
500.74
14.33
2.71
0.74
3.68
0.71
-0.01
-6
-0.77
-0.72
0.1
-0.45
0.02
0.15

> <PUBCHEM_SHAPE_SELFOVERLAP>
1134.004

> <PUBCHEM_SHAPE_VOLUME>
261.4

> <PUBCHEM_COORDINATE_TYPE>
2
5
10

$$$$

