17396226
  -OEChem-06241222553D

 49 52  0     0  0  0  0  0  0999 V2000
   -3.4621    1.4620   -1.6909 O   0  0  0  0  0  0  0  0  0  0  0  0
    1.3170   -1.9514   -1.3770 O   0  0  0  0  0  0  0  0  0  0  0  0
   -1.7199    1.2246   -0.1722 N   0  0  0  0  0  0  0  0  0  0  0  0
    2.2714   -0.1408   -0.1665 N   0  0  0  0  0  0  0  0  0  0  0  0
    3.6213   -1.8228   -0.8612 N   0  0  0  0  0  0  0  0  0  0  0  0
    1.1132    0.6828    0.0783 C   0  0  0  0  0  0  0  0  0  0  0  0
   -3.9387    0.2559    0.2834 C   0  0  0  0  0  0  0  0  0  0  0  0
    0.4994    1.1603   -1.2418 C   0  0  0  0  0  0  0  0  0  0  0  0
    0.0741   -0.0701    0.9161 C   0  0  0  0  0  0  0  0  0  0  0  0
   -0.7696    1.9725   -0.9977 C   0  0  0  0  0  0  0  0  0  0  0  0
   -1.1874    0.7670    1.1173 C   0  0  0  0  0  0  0  0  0  0  0  0
   -5.3771    0.7542    0.1276 C   0  0  0  0  0  0  0  0  0  0  0  0
   -3.8270   -1.2384   -0.0270 C   0  0  0  0  0  0  0  0  0  0  0  0
   -3.0274    1.0347   -0.6181 C   0  0  0  0  0  0  0  0  0  0  0  0
   -6.3540   -0.0738    0.9581 C   0  0  0  0  0  0  0  0  0  0  0  0
   -4.8076   -2.0619    0.8037 C   0  0  0  0  0  0  0  0  0  0  0  0
   -6.2402   -1.5623    0.6426 C   0  0  0  0  0  0  0  0  0  0  0  0
    3.5769    0.1507    0.2494 C   0  0  0  0  0  0  0  0  0  0  0  0
    2.2691   -1.3766   -0.8678 C   0  0  0  0  0  0  0  0  0  0  0  0
    4.4012   -0.8872   -0.1808 C   0  0  0  0  0  0  0  0  0  0  0  0
    4.0784    1.2249    0.9545 C   0  0  0  0  0  0  0  0  0  0  0  0
    5.7557   -0.9064    0.0682 C   0  0  0  0  0  0  0  0  0  0  0  0
    5.4519    1.2281    1.2200 C   0  0  0  0  0  0  0  0  0  0  0  0
    6.2812    0.1741    0.7817 C   0  0  0  0  0  0  0  0  0  0  0  0
    1.4160    1.5708    0.6447 H   0  0  0  0  0  0  0  0  0  0  0  0
   -3.7071    0.4409    1.3343 H   0  0  0  0  0  0  0  0  0  0  0  0
    0.2467    0.3078   -1.8834 H   0  0  0  0  0  0  0  0  0  0  0  0
    1.2247    1.7665   -1.7978 H   0  0  0  0  0  0  0  0  0  0  0  0
    0.4999   -0.3362    1.8912 H   0  0  0  0  0  0  0  0  0  0  0  0
   -0.2081   -1.0116    0.4305 H   0  0  0  0  0  0  0  0  0  0  0  0
   -0.5341    2.9015   -0.4651 H   0  0  0  0  0  0  0  0  0  0  0  0
   -1.2195    2.2508   -1.9560 H   0  0  0  0  0  0  0  0  0  0  0  0
   -1.8856    0.1680    1.6975 H   0  0  0  0  0  0  0  0  0  0  0  0
   -0.9610    1.6624    1.7084 H   0  0  0  0  0  0  0  0  0  0  0  0
   -5.6920    0.7060   -0.9231 H   0  0  0  0  0  0  0  0  0  0  0  0
   -5.4461    1.8086    0.4232 H   0  0  0  0  0  0  0  0  0  0  0  0
   -2.8072   -1.5942    0.1601 H   0  0  0  0  0  0  0  0  0  0  0  0
   -4.0206   -1.4137   -1.0936 H   0  0  0  0  0  0  0  0  0  0  0  0
   -7.3786    0.2655    0.7688 H   0  0  0  0  0  0  0  0  0  0  0  0
   -6.1561    0.0895    2.0247 H   0  0  0  0  0  0  0  0  0  0  0  0
   -4.5202   -2.0123    1.8612 H   0  0  0  0  0  0  0  0  0  0  0  0
   -4.7490   -3.1150    0.5061 H   0  0  0  0  0  0  0  0  0  0  0  0
   -6.9055   -2.1310    1.3018 H   0  0  0  0  0  0  0  0  0  0  0  0
   -6.5765   -1.7441   -0.3855 H   0  0  0  0  0  0  0  0  0  0  0  0
    3.9725   -2.6762   -1.2779 H   0  0  0  0  0  0  0  0  0  0  0  0
    3.4586    2.0432    1.2992 H   0  0  0  0  0  0  0  0  0  0  0  0
    6.3912   -1.7165   -0.2692 H   0  0  0  0  0  0  0  0  0  0  0  0
    5.8901    2.0552    1.7729 H   0  0  0  0  0  0  0  0  0  0  0  0
    7.3448    0.2056    1.0037 H   0  0  0  0  0  0  0  0  0  0  0  0
  1 14  2  0  0  0  0
  2 19  2  0  0  0  0
  3 10  1  0  0  0  0
  3 11  1  0  0  0  0
  3 14  1  0  0  0  0
  4  6  1  0  0  0  0
  4 18  1  0  0  0  0
  4 19  1  0  0  0  0
  5 19  1  0  0  0  0
  5 20  1  0  0  0  0
  5 45  1  0  0  0  0
  6  8  1  0  0  0  0
  6  9  1  0  0  0  0
  6 25  1  0  0  0  0
  7 12  1  0  0  0  0
  7 13  1  0  0  0  0
  7 14  1  0  0  0  0
  7 26  1  0  0  0  0
  8 10  1  0  0  0  0
  8 27  1  0  0  0  0
  8 28  1  0  0  0  0
  9 11  1  0  0  0  0
  9 29  1  0  0  0  0
  9 30  1  0  0  0  0
 10 31  1  0  0  0  0
 10 32  1  0  0  0  0
 11 33  1  0  0  0  0
 11 34  1  0  0  0  0
 12 15  1  0  0  0  0
 12 35  1  0  0  0  0
 12 36  1  0  0  0  0
 13 16  1  0  0  0  0
 13 37  1  0  0  0  0
 13 38  1  0  0  0  0
 15 17  1  0  0  0  0
 15 39  1  0  0  0  0
 15 40  1  0  0  0  0
 16 17  1  0  0  0  0
 16 41  1  0  0  0  0
 16 42  1  0  0  0  0
 17 43  1  0  0  0  0
 17 44  1  0  0  0  0
 18 20  1  0  0  0  0
 18 21  2  0  0  0  0
 20 22  2  0  0  0  0
 21 23  1  0  0  0  0
 21 46  1  0  0  0  0
 22 24  1  0  0  0  0
 22 47  1  0  0  0  0
 23 24  2  0  0  0  0
 23 48  1  0  0  0  0
 24 49  1  0  0  0  0
M  END
> <PUBCHEM_COMPOUND_CID>
17396226

> <PUBCHEM_CONFORMER_RMSD>
0.8

> <PUBCHEM_CONFORMER_DIVERSEORDER>
1
14
36
40
30
8
28
21
35
24
31
42
12
37
4
18
32
3
7
17
29
26
11
38
13
27
16
9
22
10
41
23
5
34
6
39
19
33
2
25
20
15

> <PUBCHEM_MMFF94_PARTIAL_CHARGES>
22
1 -0.57
10 0.3
11 0.3
14 0.57
18 0.12
19 0.69
2 -0.57
20 0.12
21 -0.15
22 -0.15
23 -0.15
24 -0.15
3 -0.66
4 -0.48
45 0.37
46 0.15
47 0.15
48 0.15
49 0.15
5 -0.55
6 0.3
7 0.06

> <PUBCHEM_EFFECTIVE_ROTOR_COUNT>
5.4

> <PUBCHEM_PHARMACOPHORE_FEATURES>
7
1 1 acceptor
1 2 acceptor
1 5 donor
5 4 5 18 19 20 rings
6 18 20 21 22 23 24 rings
6 3 6 8 9 10 11 rings
6 7 12 13 15 16 17 rings

> <PUBCHEM_HEAVY_ATOM_COUNT>
24

> <PUBCHEM_ATOM_DEF_STEREO_COUNT>
0

> <PUBCHEM_ATOM_UDEF_STEREO_COUNT>
0

> <PUBCHEM_BOND_DEF_STEREO_COUNT>
0

> <PUBCHEM_BOND_UDEF_STEREO_COUNT>
0

> <PUBCHEM_ISOTOPIC_ATOM_COUNT>
0

> <PUBCHEM_COMPONENT_COUNT>
1

> <PUBCHEM_CACTVS_TAUTO_COUNT>
2

> <PUBCHEM_CONFORMER_ID>
0109720200000001

> <PUBCHEM_MMFF94_ENERGY>
60.306

> <PUBCHEM_FEATURE_SELFOVERLAP>
35.621

> <PUBCHEM_SHAPE_FINGERPRINT>
10 15 18337400353501508880
10670039 82 6988330416997199379
10835480 77 18261115214063513977
11089746 13 9151173125708445729
12166972 35 14908176434904347927
12236239 1 15339120169241252744
12516196 113 17894347774532397001
12596602 18 16515397452927978259
12616971 3 16877950438228979948
12730499 353 18187364342443988118
13402501 40 18409164398755931651
13782708 43 18269554013399481362
13862211 1 17418096511562556449
13911882 115 18261103084616823742
1420 363 18408603664846866256
14251751 18 18342735187723801811
14251752 14 15697728068937176727
14341114 176 17967811656579381592
146900 427 17240487979238951506
14840074 17 15719392815464176449
15183329 4 11527957763180653308
15537594 2 16515407373705826445
15927050 60 17395015349257414488
17349148 13 16343699962906163920
17834072 8 10303816488317554282
1813 80 17774997986402824461
18222031 100 17561080315564799700
19141452 34 18409725150160493679
19489759 90 17203331130081062889
21033650 10 16843589724634190540
21150785 3 15482665771855317410
21267235 1 17846774071731842723
21424621 283 17839193149170068101
21623969 137 18113052735771737350
22079108 93 17603873278158286280
22122407 14 16588015789158003715
221357 26 11095887051306932583
22224240 67 18040442066005043122
23402539 116 17846785117258982789
23557571 272 18272930565508887277
23559900 14 18408328773976328136
239999 70 18408881850274500838
26918003 58 18259984890165808825
2838139 119 10735881655922207291
3004659 81 17632570531057794453
312425 54 18335974363744177201
3178227 256 18113621197223130570
32027 91 17837498813866062674
3383291 50 18058722504334362739
4073 2 18411695487196685331
4325135 7 18202278074612049940
4340502 62 17967532363672689670
465052 167 18412266155891899098
5104073 3 18189338038355290168
6328613 192 6627458649294003810

> <PUBCHEM_SHAPE_MULTIPOLES>
467.23
16.29
1.95
1.25
3.23
0.4
-0.15
4.09
5.31
0.78
-0.46
-0.12
-0.17
1.9

> <PUBCHEM_SHAPE_SELFOVERLAP>
1001.062

> <PUBCHEM_SHAPE_VOLUME>
253.3

> <PUBCHEM_COORDINATE_TYPE>
2
5
10

$$$$

