11964
  -OEChem-06261206202D

 40 40  0     0  0  0  0  0  0999 V2000
    3.7320   -0.5950    0.0000 O   0  0  0  0  0  0  0  0  0  0  0  0
    2.0000   -0.5950    0.0000 O   0  0  0  0  0  0  0  0  0  0  0  0
    4.5981    1.9050    0.0000 N   0  0  0  0  0  0  0  0  0  0  0  0
    2.8660   -5.0950    0.0000 N   0  0  0  0  0  0  0  0  0  0  0  0
    5.4641    3.4050    0.0000 C   0  0  0  0  0  0  0  0  0  0  0  0
    6.3301    3.9050    0.0000 C   0  0  0  0  0  0  0  0  0  0  0  0
    5.4641    2.4050    0.0000 C   0  0  0  0  0  0  0  0  0  0  0  0
    6.3301    4.9050    0.0000 C   0  0  0  0  0  0  0  0  0  0  0  0
    4.5981    0.9050    0.0000 C   0  0  0  0  0  0  0  0  0  0  0  0
    7.1962    5.4050    0.0000 C   0  0  0  0  0  0  0  0  0  0  0  0
    3.7320    0.4050    0.0000 C   0  0  0  0  0  0  0  0  0  0  0  0
    2.8660   -2.0950    0.0000 C   0  0  0  0  0  0  0  0  0  0  0  0
    2.8660   -1.0950    0.0000 C   0  0  0  0  0  0  0  0  0  0  0  0
    2.0000   -2.5950    0.0000 C   0  0  0  0  0  0  0  0  0  0  0  0
    3.7320   -2.5950    0.0000 C   0  0  0  0  0  0  0  0  0  0  0  0
    2.8660   -4.0950    0.0000 C   0  0  0  0  0  0  0  0  0  0  0  0
    2.0000   -3.5950    0.0000 C   0  0  0  0  0  0  0  0  0  0  0  0
    3.7320   -3.5950    0.0000 C   0  0  0  0  0  0  0  0  0  0  0  0
    5.2520    3.9876    0.0000 H   0  0  0  0  0  0  0  0  0  0  0  0
    4.8535    3.2973    0.0000 H   0  0  0  0  0  0  0  0  0  0  0  0
    6.5422    3.3224    0.0000 H   0  0  0  0  0  0  0  0  0  0  0  0
    6.9407    4.0127    0.0000 H   0  0  0  0  0  0  0  0  0  0  0  0
    5.6762    1.8224    0.0000 H   0  0  0  0  0  0  0  0  0  0  0  0
    6.0747    2.5127    0.0000 H   0  0  0  0  0  0  0  0  0  0  0  0
    6.1181    5.4876    0.0000 H   0  0  0  0  0  0  0  0  0  0  0  0
    5.7196    4.7973    0.0000 H   0  0  0  0  0  0  0  0  0  0  0  0
    4.0611    2.2150    0.0000 H   0  0  0  0  0  0  0  0  0  0  0  0
    4.8101    0.3224    0.0000 H   0  0  0  0  0  0  0  0  0  0  0  0
    5.2087    1.0127    0.0000 H   0  0  0  0  0  0  0  0  0  0  0  0
    7.5062    4.8681    0.0000 H   0  0  0  0  0  0  0  0  0  0  0  0
    7.7331    5.7150    0.0000 H   0  0  0  0  0  0  0  0  0  0  0  0
    6.8862    5.9419    0.0000 H   0  0  0  0  0  0  0  0  0  0  0  0
    3.5200    0.9876    0.0000 H   0  0  0  0  0  0  0  0  0  0  0  0
    3.1215    0.2973    0.0000 H   0  0  0  0  0  0  0  0  0  0  0  0
    1.4631   -2.2850    0.0000 H   0  0  0  0  0  0  0  0  0  0  0  0
    4.2690   -2.2850    0.0000 H   0  0  0  0  0  0  0  0  0  0  0  0
    1.4631   -3.9050    0.0000 H   0  0  0  0  0  0  0  0  0  0  0  0
    4.2690   -3.9050    0.0000 H   0  0  0  0  0  0  0  0  0  0  0  0
    2.3291   -5.4050    0.0000 H   0  0  0  0  0  0  0  0  0  0  0  0
    3.4030   -5.4050    0.0000 H   0  0  0  0  0  0  0  0  0  0  0  0
  1 11  1  0  0  0  0
  1 13  1  0  0  0  0
  2 13  2  0  0  0  0
  3  7  1  0  0  0  0
  3  9  1  0  0  0  0
  3 27  1  0  0  0  0
  4 16  1  0  0  0  0
  4 39  1  0  0  0  0
  4 40  1  0  0  0  0
  5  6  1  0  0  0  0
  5  7  1  0  0  0  0
  5 19  1  0  0  0  0
  5 20  1  0  0  0  0
  6  8  1  0  0  0  0
  6 21  1  0  0  0  0
  6 22  1  0  0  0  0
  7 23  1  0  0  0  0
  7 24  1  0  0  0  0
  8 10  1  0  0  0  0
  8 25  1  0  0  0  0
  8 26  1  0  0  0  0
  9 11  1  0  0  0  0
  9 28  1  0  0  0  0
  9 29  1  0  0  0  0
 10 30  1  0  0  0  0
 10 31  1  0  0  0  0
 10 32  1  0  0  0  0
 11 33  1  0  0  0  0
 11 34  1  0  0  0  0
 12 13  1  0  0  0  0
 12 14  2  0  0  0  0
 12 15  1  0  0  0  0
 14 17  1  0  0  0  0
 14 35  1  0  0  0  0
 15 18  2  0  0  0  0
 15 36  1  0  0  0  0
 16 17  2  0  0  0  0
 16 18  1  0  0  0  0
 17 37  1  0  0  0  0
 18 38  1  0  0  0  0
M  END
> <PUBCHEM_COMPOUND_CID>
11964

> <PUBCHEM_COMPOUND_CANONICALIZED>
1

> <PUBCHEM_CACTVS_COMPLEXITY>
226

> <PUBCHEM_CACTVS_HBOND_ACCEPTOR>
4

> <PUBCHEM_CACTVS_HBOND_DONOR>
2

> <PUBCHEM_CACTVS_ROTATABLE_BOND>
9

> <PUBCHEM_CACTVS_SUBSKEYS>
AAADceBzMAAAAAAAAAAAAAAAAAAAAAAAAAAwAAAAAAAAAAABAAAAHgAQAAAADAjhmAYyyILABACIAiTSSACCAAAkAgAIiIEIbMgKJjKAtZmHMQBk0AGY6YeY2SGeCAAAAAAAAAAQAAAAAAAAAAAAAAAAAA==

> <PUBCHEM_IUPAC_OPENEYE_NAME>
2-(pentylamino)ethyl 4-aminobenzoate

> <PUBCHEM_IUPAC_CAS_NAME>
4-aminobenzoic acid 2-(pentylamino)ethyl ester

> <PUBCHEM_IUPAC_NAME>
2-(pentylamino)ethyl 4-aminobenzoate

> <PUBCHEM_IUPAC_SYSTEMATIC_NAME>
2-(pentylamino)ethyl 4-azanylbenzoate

> <PUBCHEM_IUPAC_TRADITIONAL_NAME>
4-aminobenzoic acid 2-(amylamino)ethyl ester

> <PUBCHEM_IUPAC_INCHI>
InChI=1S/C14H22N2O2/c1-2-3-4-9-16-10-11-18-14(17)12-5-7-13(15)8-6-12/h5-8,16H,2-4,9-11,15H2,1H3

> <PUBCHEM_IUPAC_INCHIKEY>
UYXHCVFXDBNRQW-UHFFFAOYSA-N

> <PUBCHEM_XLOGP3>
3.1

> <PUBCHEM_EXACT_MASS>
250.168128

> <PUBCHEM_MOLECULAR_FORMULA>
C14H22N2O2

> <PUBCHEM_MOLECULAR_WEIGHT>
250.33668

> <PUBCHEM_OPENEYE_CAN_SMILES>
CCCCCNCCOC(=O)C1=CC=C(C=C1)N

> <PUBCHEM_OPENEYE_ISO_SMILES>
CCCCCNCCOC(=O)C1=CC=C(C=C1)N

> <PUBCHEM_CACTVS_TPSA>
64.4

> <PUBCHEM_MONOISOTOPIC_WEIGHT>
250.168128

> <PUBCHEM_TOTAL_CHARGE>
0

> <PUBCHEM_HEAVY_ATOM_COUNT>
18

> <PUBCHEM_ATOM_DEF_STEREO_COUNT>
0

> <PUBCHEM_ATOM_UDEF_STEREO_COUNT>
0

> <PUBCHEM_BOND_DEF_STEREO_COUNT>
0

> <PUBCHEM_BOND_UDEF_STEREO_COUNT>
0

> <PUBCHEM_ISOTOPIC_ATOM_COUNT>
0

> <PUBCHEM_COMPONENT_COUNT>
1

> <PUBCHEM_CACTVS_TAUTO_COUNT>
3

> <PUBCHEM_COORDINATE_TYPE>
1
5
255

> <PUBCHEM_BONDANNOTATIONS>
12  14  8
12  15  8
14  17  8
15  18  8
16  17  8
16  18  8

$$$$

