47205650
  -OEChem-06241222592D

 32 34  0     1  0  0  0  0  0999 V2000
    6.7902   -0.4438    0.0000 S   0  0  0  0  0  0  0  0  0  0  0  0
    5.2024    0.4792    0.0000 O   0  0  0  0  0  0  0  0  0  0  0  0
    6.7902   -2.0619    0.0000 N   0  0  0  0  0  0  0  0  0  0  0  0
    5.2024   -1.2528    0.0000 N   0  0  0  0  0  0  0  0  0  0  0  0
    3.2024    0.4792    0.0000 N   0  0  0  0  0  0  0  0  0  0  0  0
    2.0000    1.5619    0.0000 N   0  0  0  0  0  0  0  0  0  0  0  0
    9.2711   -1.2528    0.0000 C   0  0  0  0  0  0  0  0  0  0  0  0
    8.6875   -0.4481    0.0000 C   0  0  0  0  0  0  0  0  0  0  0  0
    8.6875   -2.0576    0.0000 C   0  0  0  0  0  0  0  0  0  0  0  0
    7.7413   -0.7529    0.0000 C   0  0  0  0  0  0  0  0  0  0  0  0
    7.7413   -1.7528    0.0000 C   0  0  0  0  0  0  0  0  0  0  0  0
    3.7024   -0.3868    0.0000 C   0  0  3  0  0  0  0  0  0  0  0  0
    6.2024   -1.2528    0.0000 C   0  0  0  0  0  0  0  0  0  0  0  0
    4.7024   -0.3868    0.0000 C   0  0  0  0  0  0  0  0  0  0  0  0
    3.2024   -1.2528    0.0000 C   0  0  0  0  0  0  0  0  0  0  0  0
    3.6092    1.3927    0.0000 C   0  0  0  0  0  0  0  0  0  0  0  0
    2.2079    0.5837    0.0000 C   0  0  0  0  0  0  0  0  0  0  0  0
    2.8660    2.0619    0.0000 C   0  0  0  0  0  0  0  0  0  0  0  0
    9.7320   -1.6676    0.0000 H   0  0  0  0  0  0  0  0  0  0  0  0
    9.7320   -0.8381    0.0000 H   0  0  0  0  0  0  0  0  0  0  0  0
    9.2249   -0.1389    0.0000 H   0  0  0  0  0  0  0  0  0  0  0  0
    8.4365    0.1188    0.0000 H   0  0  0  0  0  0  0  0  0  0  0  0
    8.4365   -2.6245    0.0000 H   0  0  0  0  0  0  0  0  0  0  0  0
    9.2249   -2.3668    0.0000 H   0  0  0  0  0  0  0  0  0  0  0  0
    3.0824   -0.3868    0.0000 H   0  0  0  0  0  0  0  0  0  0  0  0
    4.8924   -1.7898    0.0000 H   0  0  0  0  0  0  0  0  0  0  0  0
    2.6655   -0.9429    0.0000 H   0  0  0  0  0  0  0  0  0  0  0  0
    2.8924   -1.7898    0.0000 H   0  0  0  0  0  0  0  0  0  0  0  0
    3.7394   -1.5628    0.0000 H   0  0  0  0  0  0  0  0  0  0  0  0
    4.2156    1.5216    0.0000 H   0  0  0  0  0  0  0  0  0  0  0  0
    1.7930    0.1230    0.0000 H   0  0  0  0  0  0  0  0  0  0  0  0
    2.9308    2.6785    0.0000 H   0  0  0  0  0  0  0  0  0  0  0  0
  1 10  1  0  0  0  0
  1 13  1  0  0  0  0
  2 14  2  0  0  0  0
  3 11  1  0  0  0  0
  3 13  2  0  0  0  0
  4 13  1  0  0  0  0
  4 14  1  0  0  0  0
  4 26  1  0  0  0  0
  5 12  1  0  0  0  0
  5 16  1  0  0  0  0
  5 17  1  0  0  0  0
  6 17  2  0  0  0  0
  6 18  1  0  0  0  0
  7  8  1  0  0  0  0
  7  9  1  0  0  0  0
  7 19  1  0  0  0  0
  7 20  1  0  0  0  0
  8 10  1  0  0  0  0
  8 21  1  0  0  0  0
  8 22  1  0  0  0  0
  9 11  1  0  0  0  0
  9 23  1  0  0  0  0
  9 24  1  0  0  0  0
 10 11  2  0  0  0  0
 12 14  1  0  0  0  0
 12 15  1  0  0  0  0
 12 25  1  0  0  0  0
 15 27  1  0  0  0  0
 15 28  1  0  0  0  0
 15 29  1  0  0  0  0
 16 18  2  0  0  0  0
 16 30  1  0  0  0  0
 17 31  1  0  0  0  0
 18 32  1  0  0  0  0
M  END
> <PUBCHEM_COMPOUND_CID>
47205650

> <PUBCHEM_COMPOUND_CANONICALIZED>
1

> <PUBCHEM_CACTVS_COMPLEXITY>
327

> <PUBCHEM_CACTVS_HBOND_ACCEPTOR>
4

> <PUBCHEM_CACTVS_HBOND_DONOR>
1

> <PUBCHEM_CACTVS_ROTATABLE_BOND>
3

> <PUBCHEM_CACTVS_SUBSKEYS>
AAADccBzoABAAAAAAAAAAAAAAAAAAeLEAAAAAAAAAAAWAAAB4AAAHgQQAAAACCjB1gQvkRfMEAisARV3dAAA8K1xGrkJWBW4cAiAaAJgmCCUAAAokQLISCIQAAAAAAAAAAAAAAAAAAAAAAAAAAAAAACAAA==

> <PUBCHEM_IUPAC_OPENEYE_NAME>
N-(5,6-dihydro-4H-cyclopenta[d]thiazol-2-yl)-2-imidazol-1-yl-propanamide

> <PUBCHEM_IUPAC_CAS_NAME>
N-(5,6-dihydro-4H-cyclopenta[d]thiazol-2-yl)-2-(1-imidazolyl)propanamide

> <PUBCHEM_IUPAC_NAME>
N-(5,6-dihydro-4H-cyclopenta[d][1,3]thiazol-2-yl)-2-imidazol-1-ylpropanamide

> <PUBCHEM_IUPAC_SYSTEMATIC_NAME>
N-(5,6-dihydro-4H-cyclopenta[d][1,3]thiazol-2-yl)-2-imidazol-1-yl-propanamide

> <PUBCHEM_IUPAC_TRADITIONAL_NAME>
N-(5,6-dihydro-4H-cyclopenta[d]thiazol-2-yl)-2-imidazol-1-yl-propionamide

> <PUBCHEM_IUPAC_INCHI>
InChI=1S/C12H14N4OS/c1-8(16-6-5-13-7-16)11(17)15-12-14-9-3-2-4-10(9)18-12/h5-8H,2-4H2,1H3,(H,14,15,17)

> <PUBCHEM_IUPAC_INCHIKEY>
ZEFMCNRHAPPHCF-UHFFFAOYSA-N

> <PUBCHEM_XLOGP3_AA>
1.5

> <PUBCHEM_EXACT_MASS>
262.088832

> <PUBCHEM_MOLECULAR_FORMULA>
C12H14N4OS

> <PUBCHEM_MOLECULAR_WEIGHT>
262.33076

> <PUBCHEM_OPENEYE_CAN_SMILES>
CC(C(=O)NC1=NC2=C(S1)CCC2)N3C=CN=C3

> <PUBCHEM_OPENEYE_ISO_SMILES>
CC(C(=O)NC1=NC2=C(S1)CCC2)N3C=CN=C3

> <PUBCHEM_CACTVS_TPSA>
88

> <PUBCHEM_MONOISOTOPIC_WEIGHT>
262.088832

> <PUBCHEM_TOTAL_CHARGE>
0

> <PUBCHEM_HEAVY_ATOM_COUNT>
18

> <PUBCHEM_ATOM_DEF_STEREO_COUNT>
0

> <PUBCHEM_ATOM_UDEF_STEREO_COUNT>
1

> <PUBCHEM_BOND_DEF_STEREO_COUNT>
0

> <PUBCHEM_BOND_UDEF_STEREO_COUNT>
0

> <PUBCHEM_ISOTOPIC_ATOM_COUNT>
0

> <PUBCHEM_COMPONENT_COUNT>
1

> <PUBCHEM_CACTVS_TAUTO_COUNT>
5

> <PUBCHEM_COORDINATE_TYPE>
1
5
255

> <PUBCHEM_BONDANNOTATIONS>
1  10  8
1  13  8
10  11  8
12  15  3
16  18  8
3  11  8
3  13  8
5  16  8
5  17  8
6  17  8
6  18  8

$$$$

