9244
  -OEChem-06261203322D

 14 15  0     1  0  0  0  0  0999 V2000
    4.4054    0.0000    0.0000 O   0  0  0  0  0  0  0  0  0  0  0  0
    3.5388    0.5000    0.0000 C   0  0  3  0  0  0  0  0  0  0  0  0
    3.5388   -0.5000    0.0000 C   0  0  3  0  0  0  0  0  0  0  0  0
    2.5878    0.8090    0.0000 C   0  0  0  0  0  0  0  0  0  0  0  0
    2.5878   -0.8090    0.0000 C   0  0  0  0  0  0  0  0  0  0  0  0
    2.0000    0.0000    0.0000 C   0  0  0  0  0  0  0  0  0  0  0  0
    3.7910    1.0664    0.0000 H   0  0  0  0  0  0  0  0  0  0  0  0
    3.7910   -1.0664    0.0000 H   0  0  0  0  0  0  0  0  0  0  0  0
    2.8400    1.3754    0.0000 H   0  0  0  0  0  0  0  0  0  0  0  0
    2.0508    1.1190    0.0000 H   0  0  0  0  0  0  0  0  0  0  0  0
    2.0508   -1.1190    0.0000 H   0  0  0  0  0  0  0  0  0  0  0  0
    2.8400   -1.3754    0.0000 H   0  0  0  0  0  0  0  0  0  0  0  0
    1.5392    0.4149    0.0000 H   0  0  0  0  0  0  0  0  0  0  0  0
    1.5392   -0.4149    0.0000 H   0  0  0  0  0  0  0  0  0  0  0  0
  1  2  1  0  0  0  0
  1  3  1  0  0  0  0
  2  3  1  0  0  0  0
  2  4  1  0  0  0  0
  2  7  1  0  0  0  0
  3  5  1  0  0  0  0
  3  8  1  0  0  0  0
  4  6  1  0  0  0  0
  4  9  1  0  0  0  0
  4 10  1  0  0  0  0
  5  6  1  0  0  0  0
  5 11  1  0  0  0  0
  5 12  1  0  0  0  0
  6 13  1  0  0  0  0
  6 14  1  0  0  0  0
M  END
> <PUBCHEM_COMPOUND_CID>
9244

> <PUBCHEM_COMPOUND_CANONICALIZED>
1

> <PUBCHEM_CACTVS_COMPLEXITY>
62.3

> <PUBCHEM_CACTVS_HBOND_ACCEPTOR>
1

> <PUBCHEM_CACTVS_HBOND_DONOR>
0

> <PUBCHEM_CACTVS_ROTATABLE_BOND>
0

> <PUBCHEM_CACTVS_SUBSKEYS>
AAADccBgIAAAAAAAAAAAAAAAEgAAAYAAAAAkAAAAAAAAAAAAAAAAGgAAAAAACBSggAIAAAAABAAAAAAAAAAAAAAAAAAAAAAAAAAAAAIAAAACAAAEAAAAAACAAAAAAAAAAAAAAAAAAAAAAAAAAAAAAAAAAA==

> <PUBCHEM_IUPAC_OPENEYE_NAME>
6-oxabicyclo[3.1.0]hexane

> <PUBCHEM_IUPAC_CAS_NAME>
6-oxabicyclo[3.1.0]hexane

> <PUBCHEM_IUPAC_NAME>
6-oxabicyclo[3.1.0]hexane

> <PUBCHEM_IUPAC_SYSTEMATIC_NAME>
6-oxabicyclo[3.1.0]hexane

> <PUBCHEM_IUPAC_TRADITIONAL_NAME>
6-oxabicyclo[3.1.0]hexane

> <PUBCHEM_IUPAC_INCHI>
InChI=1S/C5H8O/c1-2-4-5(3-1)6-4/h4-5H,1-3H2

> <PUBCHEM_IUPAC_INCHIKEY>
GJEZBVHHZQAEDB-UHFFFAOYSA-N

> <PUBCHEM_XLOGP3_AA>
0.8

> <PUBCHEM_EXACT_MASS>
84.057515

> <PUBCHEM_MOLECULAR_FORMULA>
C5H8O

> <PUBCHEM_MOLECULAR_WEIGHT>
84.11642

> <PUBCHEM_OPENEYE_CAN_SMILES>
C1CC2C(C1)O2

> <PUBCHEM_OPENEYE_ISO_SMILES>
C1CC2C(C1)O2

> <PUBCHEM_CACTVS_TPSA>
12.5

> <PUBCHEM_MONOISOTOPIC_WEIGHT>
84.057515

> <PUBCHEM_TOTAL_CHARGE>
0

> <PUBCHEM_HEAVY_ATOM_COUNT>
6

> <PUBCHEM_ATOM_DEF_STEREO_COUNT>
0

> <PUBCHEM_ATOM_UDEF_STEREO_COUNT>
2

> <PUBCHEM_BOND_DEF_STEREO_COUNT>
0

> <PUBCHEM_BOND_UDEF_STEREO_COUNT>
0

> <PUBCHEM_ISOTOPIC_ATOM_COUNT>
0

> <PUBCHEM_COMPONENT_COUNT>
1

> <PUBCHEM_CACTVS_TAUTO_COUNT>
1

> <PUBCHEM_COORDINATE_TYPE>
1
5
255

> <PUBCHEM_BONDANNOTATIONS>
2  4  3
3  5  3

$$$$

