17396299
  -OEChem-06241222552D

 40 43  0     1  0  0  0  0  0999 V2000
    3.7320    1.7498    0.0000 S   0  0  0  0  0  0  0  0  0  0  0  0
    2.0000   -0.2503    0.0000 O   0  0  0  0  0  0  0  0  0  0  0  0
    7.2583   -1.2744    0.0000 O   0  0  0  0  0  0  0  0  0  0  0  0
    3.7320   -0.2503    0.0000 N   0  0  0  0  0  0  0  0  0  0  0  0
    8.1301    0.2223    0.0000 N   0  0  0  0  0  0  0  0  0  0  0  0
    9.8501    1.2571    0.0000 N   0  0  0  0  0  0  0  0  0  0  0  0
    2.8660    1.2498    0.0000 C   0  0  3  0  0  0  0  0  0  0  0  0
    4.5981    0.2497    0.0000 C   0  0  0  0  0  0  0  0  0  0  0  0
    4.5981    1.2498    0.0000 C   0  0  0  0  0  0  0  0  0  0  0  0
    6.3981    0.2289    0.0000 C   0  0  0  0  0  0  0  0  0  0  0  0
    2.8660    0.2497    0.0000 C   0  0  0  0  0  0  0  0  0  0  0  0
    5.4920   -0.2849    0.0000 C   0  0  0  0  0  0  0  0  0  0  0  0
    5.4920    1.7844    0.0000 C   0  0  0  0  0  0  0  0  0  0  0  0
    6.3981    1.2706    0.0000 C   0  0  0  0  0  0  0  0  0  0  0  0
    2.0000    1.7498    0.0000 C   0  0  0  0  0  0  0  0  0  0  0  0
    8.9942   -0.2811    0.0000 C   0  0  0  0  0  0  0  0  0  0  0  0
    7.2622   -0.2744    0.0000 C   0  0  0  0  0  0  0  0  0  0  0  0
    9.8622    0.2156    0.0000 C   0  0  0  0  0  0  0  0  0  0  0  0
   10.7263   -0.2878    0.0000 C   0  0  0  0  0  0  0  0  0  0  0  0
    8.9904   -1.2811    0.0000 C   0  0  0  0  0  0  0  0  0  0  0  0
   10.7224   -1.2878    0.0000 C   0  0  0  0  0  0  0  0  0  0  0  0
    9.8544   -1.7844    0.0000 C   0  0  0  0  0  0  0  0  0  0  0  0
   11.6382    0.2156    0.0000 C   0  0  0  0  0  0  0  0  0  0  0  0
   11.6502    1.2571    0.0000 C   0  0  0  0  0  0  0  0  0  0  0  0
   10.7502    1.7814    0.0000 C   0  0  0  0  0  0  0  0  0  0  0  0
    2.8660    1.8698    0.0000 H   0  0  0  0  0  0  0  0  0  0  0  0
    5.4848   -0.9049    0.0000 H   0  0  0  0  0  0  0  0  0  0  0  0
    3.7320   -0.8703    0.0000 H   0  0  0  0  0  0  0  0  0  0  0  0
    5.4848    2.4044    0.0000 H   0  0  0  0  0  0  0  0  0  0  0  0
    6.9338    1.5826    0.0000 H   0  0  0  0  0  0  0  0  0  0  0  0
    2.3100    2.2867    0.0000 H   0  0  0  0  0  0  0  0  0  0  0  0
    1.4631    2.0598    0.0000 H   0  0  0  0  0  0  0  0  0  0  0  0
    1.6900    1.2128    0.0000 H   0  0  0  0  0  0  0  0  0  0  0  0
    8.1325    0.8422    0.0000 H   0  0  0  0  0  0  0  0  0  0  0  0
    8.4522   -1.5890    0.0000 H   0  0  0  0  0  0  0  0  0  0  0  0
   11.2581   -1.5998    0.0000 H   0  0  0  0  0  0  0  0  0  0  0  0
    9.8521   -2.4044    0.0000 H   0  0  0  0  0  0  0  0  0  0  0  0
   12.1703   -0.1027    0.0000 H   0  0  0  0  0  0  0  0  0  0  0  0
   12.1896    1.5630    0.0000 H   0  0  0  0  0  0  0  0  0  0  0  0
   10.7502    2.4014    0.0000 H   0  0  0  0  0  0  0  0  0  0  0  0
  1  7  1  0  0  0  0
  1  9  1  0  0  0  0
  2 11  2  0  0  0  0
  3 17  2  0  0  0  0
  4  8  1  0  0  0  0
  4 11  1  0  0  0  0
  4 28  1  0  0  0  0
  5 16  1  0  0  0  0
  5 17  1  0  0  0  0
  5 34  1  0  0  0  0
  6 18  1  0  0  0  0
  6 25  2  0  0  0  0
  7 11  1  0  0  0  0
  7 15  1  0  0  0  0
  7 26  1  0  0  0  0
  8  9  2  0  0  0  0
  8 12  1  0  0  0  0
  9 13  1  0  0  0  0
 10 12  2  0  0  0  0
 10 14  1  0  0  0  0
 10 17  1  0  0  0  0
 12 27  1  0  0  0  0
 13 14  2  0  0  0  0
 13 29  1  0  0  0  0
 14 30  1  0  0  0  0
 15 31  1  0  0  0  0
 15 32  1  0  0  0  0
 15 33  1  0  0  0  0
 16 18  1  0  0  0  0
 16 20  2  0  0  0  0
 18 19  2  0  0  0  0
 19 21  1  0  0  0  0
 19 23  1  0  0  0  0
 20 22  1  0  0  0  0
 20 35  1  0  0  0  0
 21 22  2  0  0  0  0
 21 36  1  0  0  0  0
 22 37  1  0  0  0  0
 23 24  2  0  0  0  0
 23 38  1  0  0  0  0
 24 25  1  0  0  0  0
 24 39  1  0  0  0  0
 25 40  1  0  0  0  0
M  END
> <PUBCHEM_COMPOUND_CID>
17396299

> <PUBCHEM_COMPOUND_CANONICALIZED>
1

> <PUBCHEM_CACTVS_COMPLEXITY>
529

> <PUBCHEM_CACTVS_HBOND_ACCEPTOR>
4

> <PUBCHEM_CACTVS_HBOND_DONOR>
2

> <PUBCHEM_CACTVS_ROTATABLE_BOND>
2

> <PUBCHEM_CACTVS_SUBSKEYS>
AAADccB7MABAAAAAAAAAAAAAAAAAAAAAAAA8eIEAAAAAAACx9AAAHgQQAAAADAjF3gS+wfLIEAioAzV3VACCgCA1GjAI2D04dNgIYPLglZGUIQhglADoyYcciICOEAAAQAACASAgAACAAAQCQAAAAAAAAA==

> <PUBCHEM_IUPAC_OPENEYE_NAME>
2-methyl-3-oxo-N-(8-quinolyl)-4H-1,4-benzothiazine-6-carboxamide

> <PUBCHEM_IUPAC_CAS_NAME>
2-methyl-3-oxo-N-(8-quinolinyl)-4H-1,4-benzothiazine-6-carboxamide

> <PUBCHEM_IUPAC_NAME>
2-methyl-3-oxo-N-quinolin-8-yl-4H-1,4-benzothiazine-6-carboxamide

> <PUBCHEM_IUPAC_SYSTEMATIC_NAME>
2-methyl-3-oxidanylidene-N-quinolin-8-yl-4H-1,4-benzothiazine-6-carboxamide

> <PUBCHEM_IUPAC_TRADITIONAL_NAME>
3-keto-2-methyl-N-(8-quinolyl)-4H-1,4-benzothiazine-6-carboxamide

> <PUBCHEM_IUPAC_INCHI>
InChI=1S/C19H15N3O2S/c1-11-18(23)22-15-10-13(7-8-16(15)25-11)19(24)21-14-6-2-4-12-5-3-9-20-17(12)14/h2-11H,1H3,(H,21,24)(H,22,23)

> <PUBCHEM_IUPAC_INCHIKEY>
CPDMWFGLGVNCBH-UHFFFAOYSA-N

> <PUBCHEM_XLOGP3_AA>
2.9

> <PUBCHEM_EXACT_MASS>
349.088498

> <PUBCHEM_MOLECULAR_FORMULA>
C19H15N3O2S

> <PUBCHEM_MOLECULAR_WEIGHT>
349.4063

> <PUBCHEM_OPENEYE_CAN_SMILES>
CC1C(=O)NC2=C(S1)C=CC(=C2)C(=O)NC3=CC=CC4=C3N=CC=C4

> <PUBCHEM_OPENEYE_ISO_SMILES>
CC1C(=O)NC2=C(S1)C=CC(=C2)C(=O)NC3=CC=CC4=C3N=CC=C4

> <PUBCHEM_CACTVS_TPSA>
96.4

> <PUBCHEM_MONOISOTOPIC_WEIGHT>
349.088498

> <PUBCHEM_TOTAL_CHARGE>
0

> <PUBCHEM_HEAVY_ATOM_COUNT>
25

> <PUBCHEM_ATOM_DEF_STEREO_COUNT>
0

> <PUBCHEM_ATOM_UDEF_STEREO_COUNT>
1

> <PUBCHEM_BOND_DEF_STEREO_COUNT>
0

> <PUBCHEM_BOND_UDEF_STEREO_COUNT>
0

> <PUBCHEM_ISOTOPIC_ATOM_COUNT>
0

> <PUBCHEM_COMPONENT_COUNT>
1

> <PUBCHEM_CACTVS_TAUTO_COUNT>
6

> <PUBCHEM_COORDINATE_TYPE>
1
5
255

> <PUBCHEM_BONDANNOTATIONS>
10  12  8
10  14  8
13  14  8
16  18  8
16  20  8
18  19  8
19  21  8
19  23  8
20  22  8
21  22  8
23  24  8
24  25  8
6  18  8
6  25  8
7  15  3
8  12  8
8  9  8
9  13  8

$$$$

