3728
  -OEChem-06251223372D

 18 19  0     0  0  0  0  0  0999 V2000
    3.7320    2.1550    0.0000 I   0  0  0  0  0  0  0  0  0  0  0  0
    2.0000   -0.8450    0.0000 I   0  0  0  0  0  0  0  0  0  0  0  0
    3.7320   -1.8450    0.0000 O   0  0  0  0  0  0  0  0  0  0  0  0
    5.4920   -0.8797    0.0000 N   0  0  0  0  0  0  0  0  0  0  0  0
    4.5981    0.6550    0.0000 C   0  0  0  0  0  0  0  0  0  0  0  0
    4.5981   -0.3450    0.0000 C   0  0  0  0  0  0  0  0  0  0  0  0
    3.7320   -0.8450    0.0000 C   0  0  0  0  0  0  0  0  0  0  0  0
    3.7320    1.1550    0.0000 C   0  0  0  0  0  0  0  0  0  0  0  0
    5.4920    1.1897    0.0000 C   0  0  0  0  0  0  0  0  0  0  0  0
    2.8660   -0.3450    0.0000 C   0  0  0  0  0  0  0  0  0  0  0  0
    2.8660    0.6550    0.0000 C   0  0  0  0  0  0  0  0  0  0  0  0
    6.3981    0.6758    0.0000 C   0  0  0  0  0  0  0  0  0  0  0  0
    6.3981   -0.3658    0.0000 C   0  0  0  0  0  0  0  0  0  0  0  0
    5.4848    1.8096    0.0000 H   0  0  0  0  0  0  0  0  0  0  0  0
    2.3291    0.9650    0.0000 H   0  0  0  0  0  0  0  0  0  0  0  0
    6.9338    0.9879    0.0000 H   0  0  0  0  0  0  0  0  0  0  0  0
    6.9338   -0.6779    0.0000 H   0  0  0  0  0  0  0  0  0  0  0  0
    3.1951   -2.1550    0.0000 H   0  0  0  0  0  0  0  0  0  0  0  0
  1  8  1  0  0  0  0
  2 10  1  0  0  0  0
  3  7  1  0  0  0  0
  3 18  1  0  0  0  0
  4  6  1  0  0  0  0
  4 13  2  0  0  0  0
  5  6  2  0  0  0  0
  5  8  1  0  0  0  0
  5  9  1  0  0  0  0
  6  7  1  0  0  0  0
  7 10  2  0  0  0  0
  8 11  2  0  0  0  0
  9 12  2  0  0  0  0
  9 14  1  0  0  0  0
 10 11  1  0  0  0  0
 11 15  1  0  0  0  0
 12 13  1  0  0  0  0
 12 16  1  0  0  0  0
 13 17  1  0  0  0  0
M  END
> <PUBCHEM_COMPOUND_CID>
3728

> <PUBCHEM_COMPOUND_CANONICALIZED>
1

> <PUBCHEM_CACTVS_COMPLEXITY>
191

> <PUBCHEM_CACTVS_HBOND_ACCEPTOR>
2

> <PUBCHEM_CACTVS_HBOND_DONOR>
1

> <PUBCHEM_CACTVS_ROTATABLE_BOND>
0

> <PUBCHEM_CACTVS_SUBSKEYS>
AAADcYByIAAAAwAAAAAAAAAAAAAAAAAAAAA8QAAAAAAAAACx8AAAHgAgCAAADAzDngQ8xvIIEgCgAzRnRASCgCAxYiAI2CA9bJgKJuLSkZOEcAhkwBHY2AeQwLAOAAABAAACEAAAAAIAAAQgAAAAAAAAAA==

> <PUBCHEM_IUPAC_OPENEYE_NAME>
5,7-diiodoquinolin-8-ol

> <PUBCHEM_IUPAC_CAS_NAME>
5,7-diiodo-8-quinolinol

> <PUBCHEM_IUPAC_NAME>
5,7-diiodoquinolin-8-ol

> <PUBCHEM_IUPAC_SYSTEMATIC_NAME>
5,7-bis(iodanyl)quinolin-8-ol

> <PUBCHEM_IUPAC_TRADITIONAL_NAME>
5,7-diiodoquinolin-8-ol

> <PUBCHEM_IUPAC_INCHI>
InChI=1S/C9H5I2NO/c10-6-4-7(11)9(13)8-5(6)2-1-3-12-8/h1-4,13H

> <PUBCHEM_IUPAC_INCHIKEY>
UXZFQZANDVDGMM-UHFFFAOYSA-N

> <PUBCHEM_XLOGP3_AA>
3.1

> <PUBCHEM_EXACT_MASS>
396.84606

> <PUBCHEM_MOLECULAR_FORMULA>
C9H5I2NO

> <PUBCHEM_MOLECULAR_WEIGHT>
396.95104

> <PUBCHEM_OPENEYE_CAN_SMILES>
C1=CC2=C(C(=C(C=C2I)I)O)N=C1

> <PUBCHEM_OPENEYE_ISO_SMILES>
C1=CC2=C(C(=C(C=C2I)I)O)N=C1

> <PUBCHEM_CACTVS_TPSA>
33.1

> <PUBCHEM_MONOISOTOPIC_WEIGHT>
396.84606

> <PUBCHEM_TOTAL_CHARGE>
0

> <PUBCHEM_HEAVY_ATOM_COUNT>
13

> <PUBCHEM_ATOM_DEF_STEREO_COUNT>
0

> <PUBCHEM_ATOM_UDEF_STEREO_COUNT>
0

> <PUBCHEM_BOND_DEF_STEREO_COUNT>
0

> <PUBCHEM_BOND_UDEF_STEREO_COUNT>
0

> <PUBCHEM_ISOTOPIC_ATOM_COUNT>
0

> <PUBCHEM_COMPONENT_COUNT>
1

> <PUBCHEM_CACTVS_TAUTO_COUNT>
2

> <PUBCHEM_COORDINATE_TYPE>
1
5
255

> <PUBCHEM_BONDANNOTATIONS>
10  11  8
12  13  8
4  13  8
4  6  8
5  6  8
5  8  8
5  9  8
6  7  8
7  10  8
8  11  8
9  12  8

$$$$

