17395341
  -OEChem-06241222493D

 42 44  0     0  0  0  0  0  0999 V2000
    0.6387   -1.7003   -1.7173 O   0  0  0  0  0  0  0  0  0  0  0  0
   -3.3716    1.2899    1.8171 O   0  0  0  0  0  0  0  0  0  0  0  0
    3.1909   -0.3837    0.2333 N   0  0  0  0  0  0  0  0  0  0  0  0
    0.3168   -3.1575    0.0620 N   0  0  0  0  0  0  0  0  0  0  0  0
    1.1705   -0.1401    1.1269 N   0  0  0  0  0  0  0  0  0  0  0  0
    2.2566   -2.3712    1.3800 C   0  0  0  0  0  0  0  0  0  0  0  0
    2.1717   -0.9688    0.9316 C   0  0  0  0  0  0  0  0  0  0  0  0
    1.7061   -3.3843    0.3576 C   0  0  0  0  0  0  0  0  0  0  0  0
    2.8233    0.9089   -0.0401 C   0  0  0  0  0  0  0  0  0  0  0  0
    1.5586    1.0362    0.5279 C   0  0  0  0  0  0  0  0  0  0  0  0
   -1.6208   -2.2703   -1.0575 C   0  0  0  0  0  0  0  0  0  0  0  0
   -0.1079   -2.3222   -0.9658 C   0  0  0  0  0  0  0  0  0  0  0  0
   -2.1826   -0.8854   -0.8732 C   0  0  0  0  0  0  0  0  0  0  0  0
    3.4686    1.9458   -0.7147 C   0  0  0  0  0  0  0  0  0  0  0  0
    0.8828    2.2640    0.4263 C   0  0  0  0  0  0  0  0  0  0  0  0
    2.7815    3.1609   -0.8061 C   0  0  0  0  0  0  0  0  0  0  0  0
   -2.5215   -0.4340    0.4023 C   0  0  0  0  0  0  0  0  0  0  0  0
    1.5116    3.3191   -0.2466 C   0  0  0  0  0  0  0  0  0  0  0  0
   -2.3639   -0.0540   -1.9784 C   0  0  0  0  0  0  0  0  0  0  0  0
   -3.0416    0.8490    0.5726 C   0  0  0  0  0  0  0  0  0  0  0  0
   -2.8840    1.2291   -1.8081 C   0  0  0  0  0  0  0  0  0  0  0  0
   -3.2228    1.6805   -0.5326 C   0  0  0  0  0  0  0  0  0  0  0  0
   -3.1607    0.3884    2.9028 C   0  0  0  0  0  0  0  0  0  0  0  0
    1.6959   -2.4729    2.3181 H   0  0  0  0  0  0  0  0  0  0  0  0
    3.2965   -2.6321    1.6110 H   0  0  0  0  0  0  0  0  0  0  0  0
    2.2839   -3.3369   -0.5726 H   0  0  0  0  0  0  0  0  0  0  0  0
    1.7928   -4.3985    0.7610 H   0  0  0  0  0  0  0  0  0  0  0  0
    4.0613   -0.8231   -0.0363 H   0  0  0  0  0  0  0  0  0  0  0  0
   -0.3685   -3.6244    0.6480 H   0  0  0  0  0  0  0  0  0  0  0  0
   -1.8999   -2.6594   -2.0452 H   0  0  0  0  0  0  0  0  0  0  0  0
   -2.0899   -2.9524   -0.3380 H   0  0  0  0  0  0  0  0  0  0  0  0
    4.4542    1.8204   -1.1482 H   0  0  0  0  0  0  0  0  0  0  0  0
   -0.1033    2.3977    0.8590 H   0  0  0  0  0  0  0  0  0  0  0  0
    3.2456    3.9973   -1.3228 H   0  0  0  0  0  0  0  0  0  0  0  0
   -2.3559   -1.1212    1.2256 H   0  0  0  0  0  0  0  0  0  0  0  0
    1.0023    4.2755   -0.3339 H   0  0  0  0  0  0  0  0  0  0  0  0
   -2.1017   -0.3933   -2.9769 H   0  0  0  0  0  0  0  0  0  0  0  0
   -3.0240    1.8770   -2.6684 H   0  0  0  0  0  0  0  0  0  0  0  0
   -3.6265    2.6813   -0.4061 H   0  0  0  0  0  0  0  0  0  0  0  0
   -3.7831   -0.5080    2.8088 H   0  0  0  0  0  0  0  0  0  0  0  0
   -2.0992    0.1469    3.0244 H   0  0  0  0  0  0  0  0  0  0  0  0
   -3.4776    0.9029    3.8160 H   0  0  0  0  0  0  0  0  0  0  0  0
  1 12  2  0  0  0  0
  2 20  1  0  0  0  0
  2 23  1  0  0  0  0
  3  7  1  0  0  0  0
  3  9  1  0  0  0  0
  3 28  1  0  0  0  0
  4  8  1  0  0  0  0
  4 12  1  0  0  0  0
  4 29  1  0  0  0  0
  5  7  2  0  0  0  0
  5 10  1  0  0  0  0
  6  7  1  0  0  0  0
  6  8  1  0  0  0  0
  6 24  1  0  0  0  0
  6 25  1  0  0  0  0
  8 26  1  0  0  0  0
  8 27  1  0  0  0  0
  9 10  1  0  0  0  0
  9 14  2  0  0  0  0
 10 15  2  0  0  0  0
 11 12  1  0  0  0  0
 11 13  1  0  0  0  0
 11 30  1  0  0  0  0
 11 31  1  0  0  0  0
 13 17  2  0  0  0  0
 13 19  1  0  0  0  0
 14 16  1  0  0  0  0
 14 32  1  0  0  0  0
 15 18  1  0  0  0  0
 15 33  1  0  0  0  0
 16 18  2  0  0  0  0
 16 34  1  0  0  0  0
 17 20  1  0  0  0  0
 17 35  1  0  0  0  0
 18 36  1  0  0  0  0
 19 21  2  0  0  0  0
 19 37  1  0  0  0  0
 20 22  2  0  0  0  0
 21 22  1  0  0  0  0
 21 38  1  0  0  0  0
 22 39  1  0  0  0  0
 23 40  1  0  0  0  0
 23 41  1  0  0  0  0
 23 42  1  0  0  0  0
M  END
> <PUBCHEM_COMPOUND_CID>
17395341

> <PUBCHEM_CONFORMER_RMSD>
0.8

> <PUBCHEM_CONFORMER_DIVERSEORDER>
1
217
222
33
109
163
78
161
182
171
183
118
93
144
145
184
166
252
112
187
28
130
192
249
142
24
155
13
121
149
35
37
117
255
134
165
168
95
50
202
200
241
88
57
116
250
105
73
36
54
191
237
52
123
209
218
196
223
242
131
85
51
174
86
129
71
53
240
236
104
29
122
101
127
34
152
197
177
67
173
119
22
205
247
148
169
38
198
238
227
228
56
261
115
159
107
23
245
138
32
146
181
256
251
19
232
6
31
201
193
18
69
189
221
162
157
253
220
21
213
58
160
156
76
62
153
210
42
94
2
141
204
66
81
68
44
194
208
176
79
47
230
216
235
41
167
257
9
244
262
179
5
77
45
225
111
206
212
113
48
99
8
140
63
12
248
224
151
234
10
82
175
30
102
199
139
154
70
7
195
17
229
83
150
172
219
258
74
97
49
143
61
27
120
84
26
215
239
103
89
133
40
125
91
231
124
11
72
226
147
64
87
25
98
137
90
214
186
211
55
108
207
135
39
92
260
80
14
170
158
100
20
126
3
114
4
16
246
110
243
65
128
180
96
164
203
254
46
106
188
15
136
185
132
43
259
60
75
190
233
59
178

> <PUBCHEM_MMFF94_PARTIAL_CHARGES>
33
1 -0.57
10 0.23
11 0.2
12 0.57
13 -0.14
14 -0.15
15 -0.15
16 -0.15
17 -0.15
18 -0.15
19 -0.15
2 -0.36
20 0.08
21 -0.15
22 -0.15
23 0.28
28 0.27
29 0.37
3 0.03
32 0.15
33 0.15
34 0.15
35 0.15
36 0.15
37 0.15
38 0.15
39 0.15
4 -0.73
5 -0.57
6 0.18
7 0.01
8 0.3
9 -0.15

> <PUBCHEM_EFFECTIVE_ROTOR_COUNT>
7

> <PUBCHEM_PHARMACOPHORE_FEATURES>
8
1 1 acceptor
1 2 acceptor
1 3 donor
1 4 donor
3 3 5 7 cation
5 3 5 7 9 10 rings
6 13 17 19 20 21 22 rings
6 9 10 14 15 16 18 rings

> <PUBCHEM_HEAVY_ATOM_COUNT>
23

> <PUBCHEM_ATOM_DEF_STEREO_COUNT>
0

> <PUBCHEM_ATOM_UDEF_STEREO_COUNT>
0

> <PUBCHEM_BOND_DEF_STEREO_COUNT>
0

> <PUBCHEM_BOND_UDEF_STEREO_COUNT>
0

> <PUBCHEM_ISOTOPIC_ATOM_COUNT>
0

> <PUBCHEM_COMPONENT_COUNT>
1

> <PUBCHEM_CACTVS_TAUTO_COUNT>
4

> <PUBCHEM_CONFORMER_ID>
01096E8D00000001

> <PUBCHEM_MMFF94_ENERGY>
48.1503

> <PUBCHEM_FEATURE_SELFOVERLAP>
40.702

> <PUBCHEM_SHAPE_FINGERPRINT>
10366900 7 17632577179925754531
10382601 240 18116981394113248154
104564 63 17542797850760867662
10498660 4 17549846390019705614
11244481 83 17630014239811997989
11640471 11 17677059061078077835
121448 382 17905336121820950760
12156800 1 16467202374578373301
12403259 327 17130436902563246011
12422481 6 17828782960198241834
12539773 59 17677352570553334245
12553582 1 18195531621661666114
12633257 1 18200866379112781667
128993 33 18338514123460786613
13965767 371 16885554892591036371
14123250 116 17902502697192935248
14251751 93 18191299386573485222
14251757 17 17679268976481411204
14468879 13 17559140716950182901
14713325 29 17478596920618235844
14840074 17 18266757950982261522
17093844 170 16897103123204678156
17357779 13 17324670141088556654
18219364 16 18341618135238573109
19930381 70 18269855202006737493
20465049 17 18337372890457101774
20510252 161 17118615670838294990
21141583 151 17112136239935414268
238 59 18055947391991254871
2637199 183 18263908978287440196
444769 64 18341894066235671264
469060 322 17196013639970026769
513202 73 17186166903543476154
513532 50 7920579671964141235
539174 4 17896598582182262913
5951187 136 4964507540645600065
6287921 2 17558810811468925564
81228 2 16830932821317473544

> <PUBCHEM_SHAPE_MULTIPOLES>
446.65
6.15
4.16
1.94
1.17
1.23
0.75
-3.46
0.65
-3.11
-0.52
2.19
-0.04
-1.3

> <PUBCHEM_SHAPE_SELFOVERLAP>
962.455

> <PUBCHEM_SHAPE_VOLUME>
246.5

> <PUBCHEM_COORDINATE_TYPE>
2
5
10

$$$$

