3734
  -OEChem-06251223373D

 53 53  0     1  0  0  0  0  0999 V2000
   -1.8745   -2.2624    1.4173 I   0  0  0  0  0  0  0  0  0  0  0  0
   -1.4187    3.6079   -0.1998 I   0  0  0  0  0  0  0  0  0  0  0  0
    3.5535    0.0684   -0.1283 I   0  0  0  0  0  0  0  0  0  0  0  0
    1.3320   -4.7385   -2.4715 O   0  0  0  0  0  0  0  0  0  0  0  0
    4.1143   -3.7626    0.6516 O   0  0  0  0  0  0  0  0  0  0  0  0
   -5.5200   -0.7430    1.5206 O   0  0  0  0  0  0  0  0  0  0  0  0
   -5.1652    0.2137   -2.6514 O   0  0  0  0  0  0  0  0  0  0  0  0
    1.7502   -2.3571    1.9457 O   0  0  0  0  0  0  0  0  0  0  0  0
   -3.1597    1.1393    1.8739 O   0  0  0  0  0  0  0  0  0  0  0  0
    4.3780    4.9697    0.1330 O   0  0  0  0  0  0  0  0  0  0  0  0
    3.2182    2.8737    1.2573 O   0  0  0  0  0  0  0  0  0  0  0  0
    1.3509   -2.9510   -0.2598 N   0  0  0  0  0  0  0  0  0  0  0  0
   -3.5419    0.5802   -0.3433 N   0  0  0  0  0  0  0  0  0  0  0  0
    1.6423    2.6396   -0.4712 N   0  0  0  0  0  0  0  0  0  0  0  0
    1.9139   -4.2797   -0.1801 C   0  0  0  0  0  0  0  0  0  0  0  0
   -4.9821    0.7311   -0.3067 C   0  0  0  0  0  0  0  0  0  0  0  0
    0.6827   -0.7703    0.5890 C   0  0  0  0  0  0  0  0  0  0  0  0
   -1.2857    0.6303    0.5596 C   0  0  0  0  0  0  0  0  0  0  0  0
   -0.6894   -0.6108    0.7828 C   0  0  0  0  0  0  0  0  0  0  0  0
    0.8622    1.5522   -0.0517 C   0  0  0  0  0  0  0  0  0  0  0  0
   -0.5099    1.7117    0.1423 C   0  0  0  0  0  0  0  0  0  0  0  0
    1.4585    0.3113    0.1718 C   0  0  0  0  0  0  0  0  0  0  0  0
    1.3086   -2.0726    0.8236 C   0  0  0  0  0  0  0  0  0  0  0  0
   -2.7467    0.8012    0.7677 C   0  0  0  0  0  0  0  0  0  0  0  0
    1.1812   -5.2153   -1.1390 C   0  0  0  0  0  0  0  0  0  0  0  0
    3.4093   -4.2392   -0.4891 C   0  0  0  0  0  0  0  0  0  0  0  0
   -5.6403   -0.5822    0.1117 C   0  0  0  0  0  0  0  0  0  0  0  0
   -5.4935    1.1908   -1.6700 C   0  0  0  0  0  0  0  0  0  0  0  0
    2.7315    3.2223    0.1853 C   0  0  0  0  0  0  0  0  0  0  0  0
    3.3128    4.3920   -0.6049 C   0  0  2  0  0  0  0  0  0  0  0  0
    3.8276    3.9493   -1.9665 C   0  0  0  0  0  0  0  0  0  0  0  0
    1.7673   -4.6458    0.8436 H   0  0  0  0  0  0  0  0  0  0  0  0
   -5.2207    1.5053    0.4331 H   0  0  0  0  0  0  0  0  0  0  0  0
    1.0042   -2.6312   -1.1602 H   0  0  0  0  0  0  0  0  0  0  0  0
   -3.1107    0.2640   -1.2076 H   0  0  0  0  0  0  0  0  0  0  0  0
    1.5824   -6.2323   -1.0816 H   0  0  0  0  0  0  0  0  0  0  0  0
    0.1111   -5.2458   -0.9073 H   0  0  0  0  0  0  0  0  0  0  0  0
    3.7888   -5.2437   -0.7043 H   0  0  0  0  0  0  0  0  0  0  0  0
    3.6358   -3.5871   -1.3395 H   0  0  0  0  0  0  0  0  0  0  0  0
   -5.1819   -1.4467   -0.3807 H   0  0  0  0  0  0  0  0  0  0  0  0
   -6.7106   -0.5713   -0.1198 H   0  0  0  0  0  0  0  0  0  0  0  0
   -6.5796    1.3271   -1.6586 H   0  0  0  0  0  0  0  0  0  0  0  0
   -5.0233    2.1365   -1.9603 H   0  0  0  0  0  0  0  0  0  0  0  0
    1.1576    3.2699   -1.1080 H   0  0  0  0  0  0  0  0  0  0  0  0
    2.5301    5.1505   -0.7190 H   0  0  0  0  0  0  0  0  0  0  0  0
    0.8526   -5.3553   -3.0504 H   0  0  0  0  0  0  0  0  0  0  0  0
    5.0587   -3.7542    0.4201 H   0  0  0  0  0  0  0  0  0  0  0  0
   -5.9516   -1.5838    1.7495 H   0  0  0  0  0  0  0  0  0  0  0  0
   -5.5030    0.5407   -3.5025 H   0  0  0  0  0  0  0  0  0  0  0  0
    4.6055    3.1853   -1.8585 H   0  0  0  0  0  0  0  0  0  0  0  0
    4.2853    4.7924   -2.4952 H   0  0  0  0  0  0  0  0  0  0  0  0
    3.0319    3.5398   -2.5958 H   0  0  0  0  0  0  0  0  0  0  0  0
    4.6535    5.7776   -0.3330 H   0  0  0  0  0  0  0  0  0  0  0  0
  1 19  1  0  0  0  0
  2 21  1  0  0  0  0
  3 22  1  0  0  0  0
  4 25  1  0  0  0  0
  4 46  1  0  0  0  0
  5 26  1  0  0  0  0
  5 47  1  0  0  0  0
  6 27  1  0  0  0  0
  6 48  1  0  0  0  0
  7 28  1  0  0  0  0
  7 49  1  0  0  0  0
  8 23  2  0  0  0  0
  9 24  2  0  0  0  0
 10 30  1  0  0  0  0
 10 53  1  0  0  0  0
 11 29  2  0  0  0  0
 12 15  1  0  0  0  0
 12 23  1  0  0  0  0
 12 34  1  0  0  0  0
 13 16  1  0  0  0  0
 13 24  1  0  0  0  0
 13 35  1  0  0  0  0
 14 20  1  0  0  0  0
 14 29  1  0  0  0  0
 14 44  1  0  0  0  0
 15 25  1  0  0  0  0
 15 26  1  0  0  0  0
 15 32  1  0  0  0  0
 16 27  1  0  0  0  0
 16 28  1  0  0  0  0
 16 33  1  0  0  0  0
 17 19  2  0  0  0  0
 17 22  1  0  0  0  0
 17 23  1  0  0  0  0
 18 19  1  0  0  0  0
 18 21  2  0  0  0  0
 18 24  1  0  0  0  0
 20 21  1  0  0  0  0
 20 22  2  0  0  0  0
 25 36  1  0  0  0  0
 25 37  1  0  0  0  0
 26 38  1  0  0  0  0
 26 39  1  0  0  0  0
 27 40  1  0  0  0  0
 27 41  1  0  0  0  0
 28 42  1  0  0  0  0
 28 43  1  0  0  0  0
 29 30  1  0  0  0  0
 30 31  1  0  0  0  0
 30 45  1  0  0  0  0
 31 50  1  0  0  0  0
 31 51  1  0  0  0  0
 31 52  1  0  0  0  0
M  END
> <PUBCHEM_COMPOUND_CID>
3734

> <PUBCHEM_CONFORMER_RMSD>
1.2

> <PUBCHEM_CONFORMER_DIVERSEORDER>
5
3
8
4
6
1
7
2

> <PUBCHEM_MMFF94_PARTIAL_CHARGES>
38
1 -0.08
10 -0.68
11 -0.57
12 -0.73
13 -0.73
14 -0.55
15 0.3
16 0.3
17 0.09
18 0.09
19 0.08
2 -0.08
20 0.12
21 0.08
22 0.08
23 0.54
24 0.54
25 0.28
26 0.28
27 0.28
28 0.28
29 0.57
3 -0.08
30 0.34
34 0.37
35 0.37
4 -0.68
44 0.37
46 0.4
47 0.4
48 0.4
49 0.4
5 -0.68
53 0.4
6 -0.68
7 -0.68
8 -0.57
9 -0.57

> <PUBCHEM_EFFECTIVE_ROTOR_COUNT>
13

> <PUBCHEM_PHARMACOPHORE_FEATURES>
20
1 1 hydrophobe
1 10 acceptor
1 10 donor
1 11 acceptor
1 12 donor
1 13 donor
1 14 donor
1 2 hydrophobe
1 3 hydrophobe
1 4 acceptor
1 4 donor
1 5 acceptor
1 5 donor
1 6 acceptor
1 6 donor
1 7 acceptor
1 7 donor
1 8 acceptor
1 9 acceptor
6 17 18 19 20 21 22 rings

> <PUBCHEM_HEAVY_ATOM_COUNT>
31

> <PUBCHEM_ATOM_DEF_STEREO_COUNT>
0

> <PUBCHEM_ATOM_UDEF_STEREO_COUNT>
1

> <PUBCHEM_BOND_DEF_STEREO_COUNT>
0

> <PUBCHEM_BOND_UDEF_STEREO_COUNT>
0

> <PUBCHEM_ISOTOPIC_ATOM_COUNT>
0

> <PUBCHEM_COMPONENT_COUNT>
1

> <PUBCHEM_CACTVS_TAUTO_COUNT>
6

> <PUBCHEM_CONFORMER_ID>
00000E9600000005

> <PUBCHEM_MMFF94_ENERGY>
101.7522

> <PUBCHEM_FEATURE_SELFOVERLAP>
101.508

> <PUBCHEM_SHAPE_FINGERPRINT>
11135926 11 18338517439755800733
11991303 11 17908976613420618428
12160290 23 17333620818510281176
12788726 201 16902711727712070368
13140716 1 18270105817268964664
13690498 29 17036116551479190118
13911987 19 18126000469375270389
140371 6 18339358677218572530
14790565 3 18122902032131743793
15775530 1 18199729406659131931
15927050 60 18121215373490634798
17980427 26 17394674719157241577
21033648 144 18129381510310750741
21304303 282 17687771353769880958
21344244 181 17972290959481605798
22182313 1 17981864389965920264
23559900 14 18412548738163005417
23929065 36 17117218724309748290
24771750 20 18199169733881522478
255183 313 17473522678292211539
3057174 1 18339355254245766700
376196 1 18201722790874500297
4017518 198 18263366907146010236
4353968 344 17616240825968243182
4409770 3 17619350905214999491
5080951 261 17029654232569586708
6669772 16 18263915554109347524
7399639 24 17684675477299074026

> <PUBCHEM_SHAPE_MULTIPOLES>
611.87
9.97
7.97
1.71
13.55
2.73
-0.7
-3.34
-2.55
-13.87
-2.93
1.1
0.77
0.73

> <PUBCHEM_SHAPE_SELFOVERLAP>
1192.635

> <PUBCHEM_SHAPE_VOLUME>
376.8

> <PUBCHEM_COORDINATE_TYPE>
2
5
10

$$$$

