585176
  -OEChem-06241222453D

 35 37  0     0  0  0  0  0  0999 V2000
    4.1257   -1.7273   -0.9342 Cl  0  0  0  0  0  0  0  0  0  0  0  0
    5.3105    0.0378    1.0602 Cl  0  0  0  0  0  0  0  0  0  0  0  0
    1.6015    0.1253    0.0447 O   0  0  0  0  0  0  0  0  0  0  0  0
    3.3197    1.5351   -0.5637 O   0  0  0  0  0  0  0  0  0  0  0  0
   -0.7474    0.4951   -0.1861 C   0  0  0  0  0  0  0  0  0  0  0  0
   -2.3285   -1.4063   -0.7419 C   0  0  0  0  0  0  0  0  0  0  0  0
   -2.3784   -0.3657    1.5528 C   0  0  0  0  0  0  0  0  0  0  0  0
   -3.2328    0.9259   -0.4354 C   0  0  0  0  0  0  0  0  0  0  0  0
   -0.9214   -0.8271   -0.9703 C   0  0  0  0  0  0  0  0  0  0  0  0
   -0.9712    0.2106    1.3181 C   0  0  0  0  0  0  0  0  0  0  0  0
   -1.8232    1.4988   -0.6644 C   0  0  0  0  0  0  0  0  0  0  0  0
   -2.5282   -1.6742    0.7591 C   0  0  0  0  0  0  0  0  0  0  0  0
   -3.3783   -0.3890   -1.2191 C   0  0  0  0  0  0  0  0  0  0  0  0
   -3.4279    0.6464    1.0640 C   0  0  0  0  0  0  0  0  0  0  0  0
    0.6535    1.0684   -0.4156 C   0  0  0  0  0  0  0  0  0  0  0  0
    2.9237    0.4802   -0.0858 C   0  0  0  0  0  0  0  0  0  0  0  0
    3.8027   -0.6339    0.4176 C   0  0  0  0  0  0  0  0  0  0  0  0
   -2.4387   -2.3414   -1.3024 H   0  0  0  0  0  0  0  0  0  0  0  0
   -2.5240   -0.5623    2.6209 H   0  0  0  0  0  0  0  0  0  0  0  0
   -3.9843    1.6458   -0.7782 H   0  0  0  0  0  0  0  0  0  0  0  0
   -0.7637   -0.6553   -2.0430 H   0  0  0  0  0  0  0  0  0  0  0  0
   -0.1750   -1.5683   -0.6576 H   0  0  0  0  0  0  0  0  0  0  0  0
   -0.8491    1.1329    1.9007 H   0  0  0  0  0  0  0  0  0  0  0  0
   -0.2268   -0.5012    1.6969 H   0  0  0  0  0  0  0  0  0  0  0  0
   -1.7204    2.4501   -0.1265 H   0  0  0  0  0  0  0  0  0  0  0  0
   -1.6855    1.7232   -1.7300 H   0  0  0  0  0  0  0  0  0  0  0  0
   -3.5214   -2.1061    0.9334 H   0  0  0  0  0  0  0  0  0  0  0  0
   -1.7948   -2.4111    1.1091 H   0  0  0  0  0  0  0  0  0  0  0  0
   -3.2566   -0.2006   -2.2929 H   0  0  0  0  0  0  0  0  0  0  0  0
   -4.3864   -0.7982   -1.0800 H   0  0  0  0  0  0  0  0  0  0  0  0
   -4.4370    0.2556    1.2438 H   0  0  0  0  0  0  0  0  0  0  0  0
   -3.3421    1.5799    1.6337 H   0  0  0  0  0  0  0  0  0  0  0  0
    0.7753    2.0096    0.1346 H   0  0  0  0  0  0  0  0  0  0  0  0
    0.8164    1.2629   -1.4829 H   0  0  0  0  0  0  0  0  0  0  0  0
    3.3098   -1.1820    1.2255 H   0  0  0  0  0  0  0  0  0  0  0  0
  1 17  1  0  0  0  0
  2 17  1  0  0  0  0
  3 15  1  0  0  0  0
  3 16  1  0  0  0  0
  4 16  2  0  0  0  0
  5  9  1  0  0  0  0
  5 10  1  0  0  0  0
  5 11  1  0  0  0  0
  5 15  1  0  0  0  0
  6  9  1  0  0  0  0
  6 12  1  0  0  0  0
  6 13  1  0  0  0  0
  6 18  1  0  0  0  0
  7 10  1  0  0  0  0
  7 12  1  0  0  0  0
  7 14  1  0  0  0  0
  7 19  1  0  0  0  0
  8 11  1  0  0  0  0
  8 13  1  0  0  0  0
  8 14  1  0  0  0  0
  8 20  1  0  0  0  0
  9 21  1  0  0  0  0
  9 22  1  0  0  0  0
 10 23  1  0  0  0  0
 10 24  1  0  0  0  0
 11 25  1  0  0  0  0
 11 26  1  0  0  0  0
 12 27  1  0  0  0  0
 12 28  1  0  0  0  0
 13 29  1  0  0  0  0
 13 30  1  0  0  0  0
 14 31  1  0  0  0  0
 14 32  1  0  0  0  0
 15 33  1  0  0  0  0
 15 34  1  0  0  0  0
 16 17  1  0  0  0  0
 17 35  1  0  0  0  0
M  END
> <PUBCHEM_COMPOUND_CID>
585176

> <PUBCHEM_CONFORMER_RMSD>
0.6

> <PUBCHEM_CONFORMER_DIVERSEORDER>
1
17
13
15
14
18
16
7
3
4
8
6
12
10
5
2
11
9

> <PUBCHEM_MMFF94_PARTIAL_CHARGES>
7
1 -0.29
15 0.28
16 0.66
17 0.64
2 -0.29
3 -0.43
4 -0.57

> <PUBCHEM_EFFECTIVE_ROTOR_COUNT>
5.2

> <PUBCHEM_PHARMACOPHORE_FEATURES>
5
1 4 acceptor
6 5 6 7 9 10 12 rings
6 5 6 8 9 11 13 rings
6 5 7 8 10 11 14 rings
6 6 7 8 12 13 14 rings

> <PUBCHEM_HEAVY_ATOM_COUNT>
17

> <PUBCHEM_ATOM_DEF_STEREO_COUNT>
0

> <PUBCHEM_ATOM_UDEF_STEREO_COUNT>
0

> <PUBCHEM_BOND_DEF_STEREO_COUNT>
0

> <PUBCHEM_BOND_UDEF_STEREO_COUNT>
0

> <PUBCHEM_ISOTOPIC_ATOM_COUNT>
0

> <PUBCHEM_COMPONENT_COUNT>
1

> <PUBCHEM_CACTVS_TAUTO_COUNT>
1

> <PUBCHEM_CONFORMER_ID>
0008EDD800000001

> <PUBCHEM_MMFF94_ENERGY>
37.583

> <PUBCHEM_FEATURE_SELFOVERLAP>
37.888

> <PUBCHEM_SHAPE_FINGERPRINT>
10366900 7 14634878522175408414
11132069 177 18334859424425230702
11315181 36 17822017493258151256
12173636 292 15123520206878689967
12592029 89 18339924930345157739
12916754 54 18408603630265659894
13024252 1 16271930389944655473
13224815 77 18130784534508029524
13296908 3 17846495898741099888
13533116 47 16950566639844986470
13675066 3 18408040728047313784
14004511 7 18411136956680078720
14289901 80 17603872165561290056
15375358 24 18342463655596446354
16945 1 18202566181329495173
18186145 218 16845294925682954132
19862831 5 16343709841568204688
200 152 17458355130029651079
20279233 1 18413390951644051806
20325693 3 15841548600143600983
20645477 70 18413394228725269478
2306618 200 18113337522569140553
23402539 116 18411706483056689925
23557571 272 14692288379416454348
23559900 14 17703515411377197380
27216 239 5184355122384373427
4921388 177 14979950367721729472
5104073 3 18342456998154753104
5281201 14 12247677201888886618
9709674 26 18411981351888610358

> <PUBCHEM_SHAPE_MULTIPOLES>
341.85
8.99
1.59
1.35
12.11
0.37
-0.31
0.96
-1.02
0.05
0.33
-0.6
0.09
0.23

> <PUBCHEM_SHAPE_SELFOVERLAP>
707.989

> <PUBCHEM_SHAPE_VOLUME>
198.5

> <PUBCHEM_COORDINATE_TYPE>
2
5
10

$$$$

