10710
  -OEChem-06261204523D

 20 20  0     0  0  0  0  0  0999 V2000
   -1.1570   -2.7153    0.7002 O   0  0  0  0  0  0  0  0  0  0  0  0
    1.7368    0.3683   -1.6325 O   0  0  0  0  0  0  0  0  0  0  0  0
    0.5085   -2.2210   -0.7654 O   0  0  0  0  0  0  0  0  0  0  0  0
    3.4563    0.3346    0.1364 O   0  0  0  0  0  0  0  0  0  0  0  0
    1.8722    0.5514    1.7891 O   0  0  0  0  0  0  0  0  0  0  0  0
   -0.2001    0.6055   -0.2700 C   0  0  0  0  0  0  0  0  0  0  0  0
   -1.0140   -0.5101   -0.0735 C   0  0  0  0  0  0  0  0  0  0  0  0
   -0.7521    1.8861   -0.2372 C   0  0  0  0  0  0  0  0  0  0  0  0
   -2.3799   -0.3451    0.1559 C   0  0  0  0  0  0  0  0  0  0  0  0
   -2.1181    2.0510   -0.0078 C   0  0  0  0  0  0  0  0  0  0  0  0
   -2.9320    0.9355    0.1886 C   0  0  0  0  0  0  0  0  0  0  0  0
    1.2302    0.4660   -0.5108 C   0  0  0  0  0  0  0  0  0  0  0  0
   -0.4672   -1.8604   -0.1021 C   0  0  0  0  0  0  0  0  0  0  0  0
    2.2162    0.4535    0.6293 C   0  0  0  0  0  0  0  0  0  0  0  0
   -0.1283    2.7634   -0.3888 H   0  0  0  0  0  0  0  0  0  0  0  0
   -3.0436   -1.1938    0.2993 H   0  0  0  0  0  0  0  0  0  0  0  0
   -2.5481    3.0480    0.0170 H   0  0  0  0  0  0  0  0  0  0  0  0
   -3.9961    1.0642    0.3639 H   0  0  0  0  0  0  0  0  0  0  0  0
   -0.7824   -3.6217    0.6756 H   0  0  0  0  0  0  0  0  0  0  0  0
    4.1377    0.3269    0.8421 H   0  0  0  0  0  0  0  0  0  0  0  0
  1 13  1  0  0  0  0
  1 19  1  0  0  0  0
  2 12  2  0  0  0  0
  3 13  2  0  0  0  0
  4 14  1  0  0  0  0
  4 20  1  0  0  0  0
  5 14  2  0  0  0  0
  6  7  1  0  0  0  0
  6  8  2  0  0  0  0
  6 12  1  0  0  0  0
  7  9  2  0  0  0  0
  7 13  1  0  0  0  0
  8 10  1  0  0  0  0
  8 15  1  0  0  0  0
  9 11  1  0  0  0  0
  9 16  1  0  0  0  0
 10 11  2  0  0  0  0
 10 17  1  0  0  0  0
 11 18  1  0  0  0  0
 12 14  1  0  0  0  0
M  END
> <PUBCHEM_COMPOUND_CID>
10710

> <PUBCHEM_CONFORMER_RMSD>
0.6

> <PUBCHEM_CONFORMER_DIVERSEORDER>
1
4
2
3

> <PUBCHEM_MMFF94_PARTIAL_CHARGES>
20
1 -0.65
10 -0.15
11 -0.15
12 0.48
13 0.63
14 0.72
15 0.15
16 0.15
17 0.15
18 0.15
19 0.5
2 -0.57
20 0.5
3 -0.57
4 -0.65
5 -0.57
6 0.09
7 0.09
8 -0.15
9 -0.15

> <PUBCHEM_EFFECTIVE_ROTOR_COUNT>
3

> <PUBCHEM_PHARMACOPHORE_FEATURES>
8
1 1 acceptor
1 2 acceptor
1 3 acceptor
1 4 acceptor
1 5 acceptor
3 1 3 13 anion
3 4 5 14 anion
6 6 7 8 9 10 11 rings

> <PUBCHEM_HEAVY_ATOM_COUNT>
14

> <PUBCHEM_ATOM_DEF_STEREO_COUNT>
0

> <PUBCHEM_ATOM_UDEF_STEREO_COUNT>
0

> <PUBCHEM_BOND_DEF_STEREO_COUNT>
0

> <PUBCHEM_BOND_UDEF_STEREO_COUNT>
0

> <PUBCHEM_ISOTOPIC_ATOM_COUNT>
0

> <PUBCHEM_COMPONENT_COUNT>
1

> <PUBCHEM_CACTVS_TAUTO_COUNT>
1

> <PUBCHEM_CONFORMER_ID>
000029D600000001

> <PUBCHEM_MMFF94_ENERGY>
45.1216

> <PUBCHEM_FEATURE_SELFOVERLAP>
40.728

> <PUBCHEM_SHAPE_FINGERPRINT>
12423570 1 15465028664341790311
13380535 76 18337393837070840703
13538477 17 17987796289557185276
14817 1 11211204251655305048
15076042 46 18342464733237436578
15775835 57 18261113023218242569
15852999 172 17842301416695357109
16945 1 18339912749754219437
20510252 161 18334293167178622001
20511035 2 17690279735014576013
20645476 183 17774989159791330743
20871998 184 18263359183629208775
21040471 1 18411410735149131141
22344851 341 18050280672281146699
23402539 116 18261970543762038703
23419403 2 16182746024796759734
23552423 10 17910381020676746965
23559900 14 18189038933223683734
27216 239 16739219403949251752
2748010 2 18196639912360740327
305870 269 18196938992028615001
5084963 1 18187070784964716053
53812653 166 18188206619183707353
54338 74 18123209917030980597
7364860 26 17756711093508559487
77492 1 17632293450086016860
81228 2 18121519963248064219

> <PUBCHEM_SHAPE_MULTIPOLES>
258.77
3.86
2.35
1.05
0.99
1.54
-0.08
-1.57
-0.56
-1.01
-0.05
0.68
-0.08
0.27

> <PUBCHEM_SHAPE_SELFOVERLAP>
554.227

> <PUBCHEM_SHAPE_VOLUME>
142

> <PUBCHEM_COORDINATE_TYPE>
2
5
10

$$$$

