12585
  -OEChem-06261207073D

 15 14  0     0  0  0  0  0  0999 V2000
    1.3537    0.5824   -0.1651 C   0  0  0  0  0  0  0  0  0  0  0  0
   -0.0436    0.4074    0.3518 C   0  0  0  0  0  0  0  0  0  0  0  0
    2.1919   -0.6649    0.0679 C   0  0  0  0  0  0  0  0  0  0  0  0
   -1.0549   -0.0777   -0.3830 C   0  0  0  0  0  0  0  0  0  0  0  0
   -2.4471   -0.2472    0.1283 C   0  0  0  0  0  0  0  0  0  0  0  0
    1.8145    1.4427    0.3334 H   0  0  0  0  0  0  0  0  0  0  0  0
    1.3375    0.8139   -1.2369 H   0  0  0  0  0  0  0  0  0  0  0  0
   -0.2186    0.6843    1.3883 H   0  0  0  0  0  0  0  0  0  0  0  0
    3.2111   -0.5085   -0.2998 H   0  0  0  0  0  0  0  0  0  0  0  0
    1.7732   -1.5303   -0.4569 H   0  0  0  0  0  0  0  0  0  0  0  0
    2.2513   -0.9085    1.1342 H   0  0  0  0  0  0  0  0  0  0  0  0
   -0.8763   -0.3637   -1.4162 H   0  0  0  0  0  0  0  0  0  0  0  0
   -3.1404    0.3465   -0.4751 H   0  0  0  0  0  0  0  0  0  0  0  0
   -2.5475    0.0676    1.1719 H   0  0  0  0  0  0  0  0  0  0  0  0
   -2.7438   -1.2981    0.0590 H   0  0  0  0  0  0  0  0  0  0  0  0
  1  2  1  0  0  0  0
  1  3  1  0  0  0  0
  1  6  1  0  0  0  0
  1  7  1  0  0  0  0
  2  4  2  0  0  0  0
  2  8  1  0  0  0  0
  3  9  1  0  0  0  0
  3 10  1  0  0  0  0
  3 11  1  0  0  0  0
  4  5  1  0  0  0  0
  4 12  1  0  0  0  0
  5 13  1  0  0  0  0
  5 14  1  0  0  0  0
  5 15  1  0  0  0  0
M  END
> <PUBCHEM_COMPOUND_CID>
12585

> <PUBCHEM_CONFORMER_RMSD>
0.4

> <PUBCHEM_CONFORMER_DIVERSEORDER>
1

> <PUBCHEM_MMFF94_PARTIAL_CHARGES>
6
1 0.14
12 0.15
2 -0.29
4 -0.29
5 0.14
8 0.15

> <PUBCHEM_EFFECTIVE_ROTOR_COUNT>
1

> <PUBCHEM_PHARMACOPHORE_FEATURES>
2
1 3 hydrophobe
1 5 hydrophobe

> <PUBCHEM_HEAVY_ATOM_COUNT>
5

> <PUBCHEM_ATOM_DEF_STEREO_COUNT>
0

> <PUBCHEM_ATOM_UDEF_STEREO_COUNT>
0

> <PUBCHEM_BOND_DEF_STEREO_COUNT>
0

> <PUBCHEM_BOND_UDEF_STEREO_COUNT>
1

> <PUBCHEM_ISOTOPIC_ATOM_COUNT>
0

> <PUBCHEM_COMPONENT_COUNT>
1

> <PUBCHEM_CACTVS_TAUTO_COUNT>
1

> <PUBCHEM_CONFORMER_ID>
0000312900000001

> <PUBCHEM_MMFF94_ENERGY>
-2.0609

> <PUBCHEM_FEATURE_SELFOVERLAP>
10.149

> <PUBCHEM_SHAPE_FINGERPRINT>
139733 1 10303809891121212960
14390081 3 9871745788890787999
16714656 1 15410892959565477219
20096714 4 17604712144804891385
29004967 10 18413388722165589760
5460574 1 9295293841211967661

> <PUBCHEM_SHAPE_MULTIPOLES>
102.9
3.36
0.82
0.68
0.56
0.01
0
0.74
0.07
-0.25
0.01
0.03
-0.01
-0.04

> <PUBCHEM_SHAPE_SELFOVERLAP>
174.079

> <PUBCHEM_SHAPE_VOLUME>
70.4

> <PUBCHEM_COORDINATE_TYPE>
2
5
10

$$$$

