17395466
  -OEChem-06241222503D

 50 52  0     0  0  0  0  0  0999 V2000
    0.1560   -2.7362   -0.8956 O   0  0  0  0  0  0  0  0  0  0  0  0
    2.7295   -2.8575   -0.1706 O   0  0  0  0  0  0  0  0  0  0  0  0
   -4.3620    0.3684    0.0531 N   0  0  0  0  0  0  0  0  0  0  0  0
   -0.9620   -1.0312    0.1810 N   0  0  0  0  0  0  0  0  0  0  0  0
   -2.2549   -1.6780    0.1640 C   0  0  0  0  0  0  0  0  0  0  0  0
   -3.0197   -1.3492   -1.1203 C   0  0  0  0  0  0  0  0  0  0  0  0
   -3.0864   -1.2822    1.3864 C   0  0  0  0  0  0  0  0  0  0  0  0
   -3.5369    0.0928   -1.1307 C   0  0  0  0  0  0  0  0  0  0  0  0
   -3.6019    0.1574    1.2923 C   0  0  0  0  0  0  0  0  0  0  0  0
   -4.8910    1.7311    0.0025 C   0  0  0  0  0  0  0  0  0  0  0  0
   -5.7153    1.9090   -1.2686 C   0  0  0  0  0  0  0  0  0  0  0  0
   -5.7295    2.0196    1.2445 C   0  0  0  0  0  0  0  0  0  0  0  0
    0.1703   -1.6265   -0.3640 C   0  0  0  0  0  0  0  0  0  0  0  0
    1.4148   -0.8552   -0.2380 C   0  0  0  0  0  0  0  0  0  0  0  0
    2.6462   -1.4973   -0.1462 C   0  0  0  0  0  0  0  0  0  0  0  0
    1.3497    0.5382   -0.2114 C   0  0  0  0  0  0  0  0  0  0  0  0
    2.5183    1.3080   -0.0925 C   0  0  0  0  0  0  0  0  0  0  0  0
    3.7704    0.6552    0.0010 C   0  0  0  0  0  0  0  0  0  0  0  0
    3.8171   -0.7481   -0.0278 C   0  0  0  0  0  0  0  0  0  0  0  0
    2.4716    2.7114   -0.0637 C   0  0  0  0  0  0  0  0  0  0  0  0
    4.9391    1.4248    0.1196 C   0  0  0  0  0  0  0  0  0  0  0  0
    3.6427    3.4602    0.0553 C   0  0  0  0  0  0  0  0  0  0  0  0
    4.8741    2.8182    0.1466 C   0  0  0  0  0  0  0  0  0  0  0  0
    2.6596   -3.5329    1.0833 C   0  0  0  0  0  0  0  0  0  0  0  0
   -2.0836   -2.7608    0.1997 H   0  0  0  0  0  0  0  0  0  0  0  0
   -2.3864   -1.5155   -2.0002 H   0  0  0  0  0  0  0  0  0  0  0  0
   -3.8737   -2.0335   -1.2115 H   0  0  0  0  0  0  0  0  0  0  0  0
   -2.4962   -1.3999    2.3035 H   0  0  0  0  0  0  0  0  0  0  0  0
   -3.9440   -1.9627    1.4705 H   0  0  0  0  0  0  0  0  0  0  0  0
   -2.6936    0.7925   -1.1974 H   0  0  0  0  0  0  0  0  0  0  0  0
   -4.1117    0.1808   -2.0574 H   0  0  0  0  0  0  0  0  0  0  0  0
   -4.2301    0.2880    2.1789 H   0  0  0  0  0  0  0  0  0  0  0  0
   -2.7690    0.8673    1.3730 H   0  0  0  0  0  0  0  0  0  0  0  0
   -4.0736    2.4651   -0.0228 H   0  0  0  0  0  0  0  0  0  0  0  0
   -0.8995   -0.1310    0.6430 H   0  0  0  0  0  0  0  0  0  0  0  0
   -6.2999    2.8354   -1.2181 H   0  0  0  0  0  0  0  0  0  0  0  0
   -5.0937    2.0016   -2.1648 H   0  0  0  0  0  0  0  0  0  0  0  0
   -6.4278    1.0886   -1.4133 H   0  0  0  0  0  0  0  0  0  0  0  0
   -6.3011    2.9460    1.1125 H   0  0  0  0  0  0  0  0  0  0  0  0
   -5.1168    2.1750    2.1384 H   0  0  0  0  0  0  0  0  0  0  0  0
   -6.4539    1.2215    1.4433 H   0  0  0  0  0  0  0  0  0  0  0  0
    0.4027    1.0625   -0.3210 H   0  0  0  0  0  0  0  0  0  0  0  0
    4.7732   -1.2642    0.0420 H   0  0  0  0  0  0  0  0  0  0  0  0
    1.5205    3.2351   -0.1334 H   0  0  0  0  0  0  0  0  0  0  0  0
    5.9125    0.9442    0.1925 H   0  0  0  0  0  0  0  0  0  0  0  0
    3.5928    4.5450    0.0764 H   0  0  0  0  0  0  0  0  0  0  0  0
    5.7855    3.4018    0.2390 H   0  0  0  0  0  0  0  0  0  0  0  0
    3.5199   -3.2687    1.7062 H   0  0  0  0  0  0  0  0  0  0  0  0
    1.7297   -3.2906    1.6074 H   0  0  0  0  0  0  0  0  0  0  0  0
    2.6830   -4.6095    0.8939 H   0  0  0  0  0  0  0  0  0  0  0  0
  1 13  2  0  0  0  0
  2 15  1  0  0  0  0
  2 24  1  0  0  0  0
  3  8  1  0  0  0  0
  3  9  1  0  0  0  0
  3 10  1  0  0  0  0
  4  5  1  0  0  0  0
  4 13  1  0  0  0  0
  4 35  1  0  0  0  0
  5  6  1  0  0  0  0
  5  7  1  0  0  0  0
  5 25  1  0  0  0  0
  6  8  1  0  0  0  0
  6 26  1  0  0  0  0
  6 27  1  0  0  0  0
  7  9  1  0  0  0  0
  7 28  1  0  0  0  0
  7 29  1  0  0  0  0
  8 30  1  0  0  0  0
  8 31  1  0  0  0  0
  9 32  1  0  0  0  0
  9 33  1  0  0  0  0
 10 11  1  0  0  0  0
 10 12  1  0  0  0  0
 10 34  1  0  0  0  0
 11 36  1  0  0  0  0
 11 37  1  0  0  0  0
 11 38  1  0  0  0  0
 12 39  1  0  0  0  0
 12 40  1  0  0  0  0
 12 41  1  0  0  0  0
 13 14  1  0  0  0  0
 14 15  1  0  0  0  0
 14 16  2  0  0  0  0
 15 19  2  0  0  0  0
 16 17  1  0  0  0  0
 16 42  1  0  0  0  0
 17 18  1  0  0  0  0
 17 20  2  0  0  0  0
 18 19  1  0  0  0  0
 18 21  2  0  0  0  0
 19 43  1  0  0  0  0
 20 22  1  0  0  0  0
 20 44  1  0  0  0  0
 21 23  1  0  0  0  0
 21 45  1  0  0  0  0
 22 23  2  0  0  0  0
 22 46  1  0  0  0  0
 23 47  1  0  0  0  0
 24 48  1  0  0  0  0
 24 49  1  0  0  0  0
 24 50  1  0  0  0  0
M  END
> <PUBCHEM_COMPOUND_CID>
17395466

> <PUBCHEM_CONFORMER_RMSD>
0.8

> <PUBCHEM_CONFORMER_DIVERSEORDER>
4
31
12
20
23
33
17
8
5
15
19
9
27
3
38
14
30
37
28
6
29
35
25
32
22
7
34
18
2
11
1
16
10
26
36
21
13
40
24
39

> <PUBCHEM_MMFF94_PARTIAL_CHARGES>
25
1 -0.57
10 0.27
13 0.54
14 0.09
15 0.08
16 -0.15
19 -0.15
2 -0.36
20 -0.15
21 -0.15
22 -0.15
23 -0.15
24 0.28
3 -0.81
35 0.37
4 -0.73
42 0.15
43 0.15
44 0.15
45 0.15
46 0.15
47 0.15
5 0.3
8 0.27
9 0.27

> <PUBCHEM_EFFECTIVE_ROTOR_COUNT>
6.2

> <PUBCHEM_PHARMACOPHORE_FEATURES>
8
1 1 acceptor
1 2 acceptor
1 3 cation
1 4 donor
3 10 11 12 hydrophobe
6 14 15 16 17 18 19 rings
6 17 18 20 21 22 23 rings
6 3 5 6 7 8 9 rings

> <PUBCHEM_HEAVY_ATOM_COUNT>
24

> <PUBCHEM_ATOM_DEF_STEREO_COUNT>
0

> <PUBCHEM_ATOM_UDEF_STEREO_COUNT>
0

> <PUBCHEM_BOND_DEF_STEREO_COUNT>
0

> <PUBCHEM_BOND_UDEF_STEREO_COUNT>
0

> <PUBCHEM_ISOTOPIC_ATOM_COUNT>
0

> <PUBCHEM_COMPONENT_COUNT>
1

> <PUBCHEM_CACTVS_TAUTO_COUNT>
2

> <PUBCHEM_CONFORMER_ID>
01096F0A00000004

> <PUBCHEM_MMFF94_ENERGY>
66.3126

> <PUBCHEM_FEATURE_SELFOVERLAP>
40.629

> <PUBCHEM_SHAPE_FINGERPRINT>
10411042 1 17833833046995535014
10595046 47 18334864883729772775
11370993 144 18272371988053570061
12107183 9 18339369655624784874
12422481 6 18130803243412613640
12549972 3 17702929448524677451
12633257 1 18129958843782235218
12769317 202 18335425642733025312
12788726 201 16951114209942755009
13103583 49 12463300245152179317
13402501 40 18343305890088606613
13583140 156 18271794757608657627
13878862 14 18127712593409402685
14178342 30 17844237441591521187
14251764 75 18334283250357760745
14790565 3 17982163419207745108
14848178 96 18335987488626702249
15295992 7 18201147875775519675
15475509 84 17769384051866917498
1601671 61 18341892953443489748
16760501 71 18410565185560345801
16994733 274 16414324829607160814
17834072 32 18408037403542322373
17868525 174 18198349644109495346
20157964 124 18410295835123005973
20511986 3 17968391086243150952
20715895 44 18336266855117388121
20739085 24 18130786720905352980
21033648 144 18342183271578151413
21033648 29 18264776454444862776
21120745 212 16259568898083189618
21279426 13 18334846196379795980
21315764 268 18199190775148241189
21421861 104 18130518538809907442
21864079 5 18335417937445300711
22122407 14 18049992583788621433
22393880 68 18041279850894597708
23559900 14 18337107985570363474
268830 7 18340214080459918871
283562 15 17835810689945105002
2838139 119 18125167289070004429
335352 9 18409448103268548990
376196 1 17970350304985612584
4058900 60 18201711805134101344
474 4 18408605885524481699
5081480 168 17244665117927464676
5104073 3 18273217473650850490
543358 83 18408322215734937282
6328613 192 18125437502685052564
633830 44 18335420115389450110
636775 72 17542507129432868824
79837 15 17911801271830562722
9981440 41 18268435620214232082

> <PUBCHEM_SHAPE_MULTIPOLES>
472.21
12.79
4.06
1.1
10.46
0.21
0.1
-10.82
0.76
-3.99
0.36
1.52
0.14
-0.15

> <PUBCHEM_SHAPE_SELFOVERLAP>
1004.294

> <PUBCHEM_SHAPE_VOLUME>
263.9

> <PUBCHEM_COORDINATE_TYPE>
2
5
10

$$$$

