17396547
  -OEChem-06241222573D

 43 45  0     0  0  0  0  0  0999 V2000
   -8.2083    2.1530    0.9040 F   0  0  0  0  0  0  0  0  0  0  0  0
    0.5219   -1.2312   -0.0293 O   0  0  0  0  0  0  0  0  0  0  0  0
    6.7872    0.5574    0.8830 O   0  0  0  0  0  0  0  0  0  0  0  0
    2.0994   -2.7067    0.7391 O   0  0  0  0  0  0  0  0  0  0  0  0
    6.5031    1.9640   -0.9049 O   0  0  0  0  0  0  0  0  0  0  0  0
   -2.1528   -1.8125   -1.5051 O   0  0  0  0  0  0  0  0  0  0  0  0
    2.4627    0.6838   -0.4572 N   0  0  0  0  0  0  0  0  0  0  0  0
   -2.6457   -0.9615    0.5072 N   0  0  0  0  0  0  0  0  0  0  0  0
   -3.3965   -1.1830   -1.6424 N   0  0  0  0  0  0  0  0  0  0  0  0
    4.1493   -0.5774    0.2476 C   0  0  0  0  0  0  0  0  0  0  0  0
    4.6613    0.6844   -0.1436 C   0  0  0  0  0  0  0  0  0  0  0  0
    3.5967    1.4446   -0.5748 C   0  0  0  0  0  0  0  0  0  0  0  0
    2.7874   -0.5500    0.0432 C   0  0  0  0  0  0  0  0  0  0  0  0
    4.9335   -1.7133    0.7767 C   0  0  0  0  0  0  0  0  0  0  0  0
    3.5329    2.8257   -1.0915 C   0  0  0  0  0  0  0  0  0  0  0  0
    1.8006   -1.6046    0.2908 C   0  0  0  0  0  0  0  0  0  0  0  0
    6.0250    1.1326   -0.1140 C   0  0  0  0  0  0  0  0  0  0  0  0
   -0.4923   -2.2146    0.1878 C   0  0  0  0  0  0  0  0  0  0  0  0
   -1.7823   -1.6353   -0.2098 C   0  0  0  0  0  0  0  0  0  0  0  0
   -4.8036    0.0318   -0.0742 C   0  0  0  0  0  0  0  0  0  0  0  0
   -3.6189   -0.7053   -0.4142 C   0  0  0  0  0  0  0  0  0  0  0  0
   -5.7771    0.2739   -1.0434 C   0  0  0  0  0  0  0  0  0  0  0  0
   -4.9804    0.5063    1.2256 C   0  0  0  0  0  0  0  0  0  0  0  0
    8.1588    0.9601    0.9695 C   0  0  0  0  0  0  0  0  0  0  0  0
   -6.9273    0.9903   -0.7130 C   0  0  0  0  0  0  0  0  0  0  0  0
   -6.1307    1.2228    1.5561 C   0  0  0  0  0  0  0  0  0  0  0  0
   -7.1041    1.4648    0.5868 C   0  0  0  0  0  0  0  0  0  0  0  0
    1.5289    0.9845   -0.7015 H   0  0  0  0  0  0  0  0  0  0  0  0
    5.9542   -1.7214    0.3822 H   0  0  0  0  0  0  0  0  0  0  0  0
    4.5058   -2.6783    0.4917 H   0  0  0  0  0  0  0  0  0  0  0  0
    4.9846   -1.6676    1.8691 H   0  0  0  0  0  0  0  0  0  0  0  0
    4.0681    3.5127   -0.4279 H   0  0  0  0  0  0  0  0  0  0  0  0
    2.5009    3.1826   -1.1730 H   0  0  0  0  0  0  0  0  0  0  0  0
    3.9873    2.8834   -2.0858 H   0  0  0  0  0  0  0  0  0  0  0  0
   -0.2725   -3.1095   -0.4054 H   0  0  0  0  0  0  0  0  0  0  0  0
   -0.5176   -2.4853    1.2492 H   0  0  0  0  0  0  0  0  0  0  0  0
   -5.6739   -0.0799   -2.0661 H   0  0  0  0  0  0  0  0  0  0  0  0
   -4.2403    0.3343    2.0031 H   0  0  0  0  0  0  0  0  0  0  0  0
    8.6197    0.4206    1.8010 H   0  0  0  0  0  0  0  0  0  0  0  0
    8.2245    2.0342    1.1661 H   0  0  0  0  0  0  0  0  0  0  0  0
    8.6859    0.7021    0.0462 H   0  0  0  0  0  0  0  0  0  0  0  0
   -7.6857    1.1793   -1.4671 H   0  0  0  0  0  0  0  0  0  0  0  0
   -6.2689    1.5926    2.5677 H   0  0  0  0  0  0  0  0  0  0  0  0
  1 27  1  0  0  0  0
  2 16  1  0  0  0  0
  2 18  1  0  0  0  0
  3 17  1  0  0  0  0
  3 24  1  0  0  0  0
  4 16  2  0  0  0  0
  5 17  2  0  0  0  0
  6  9  1  0  0  0  0
  6 19  1  0  0  0  0
  7 12  1  0  0  0  0
  7 13  1  0  0  0  0
  7 28  1  0  0  0  0
  8 19  2  0  0  0  0
  8 21  1  0  0  0  0
  9 21  2  0  0  0  0
 10 11  1  0  0  0  0
 10 13  2  0  0  0  0
 10 14  1  0  0  0  0
 11 12  2  0  0  0  0
 11 17  1  0  0  0  0
 12 15  1  0  0  0  0
 13 16  1  0  0  0  0
 14 29  1  0  0  0  0
 14 30  1  0  0  0  0
 14 31  1  0  0  0  0
 15 32  1  0  0  0  0
 15 33  1  0  0  0  0
 15 34  1  0  0  0  0
 18 19  1  0  0  0  0
 18 35  1  0  0  0  0
 18 36  1  0  0  0  0
 20 21  1  0  0  0  0
 20 22  2  0  0  0  0
 20 23  1  0  0  0  0
 22 25  1  0  0  0  0
 22 37  1  0  0  0  0
 23 26  2  0  0  0  0
 23 38  1  0  0  0  0
 24 39  1  0  0  0  0
 24 40  1  0  0  0  0
 24 41  1  0  0  0  0
 25 27  2  0  0  0  0
 25 42  1  0  0  0  0
 26 27  1  0  0  0  0
 26 43  1  0  0  0  0
M  END
> <PUBCHEM_COMPOUND_CID>
17396547

> <PUBCHEM_CONFORMER_RMSD>
1

> <PUBCHEM_CONFORMER_DIVERSEORDER>
2
113
35
77
76
24
40
63
101
130
28
82
39
134
95
91
86
97
87
81
37
116
94
122
124
4
47
59
89
78
117
126
112
80
110
142
120
105
23
85
79
129
88
114
62
32
137
131
25
17
48
64
42
138
118
99
45
102
43
26
73
38
136
10
141
127
96
125
107
57
70
74
11
31
139
22
75
44
108
67
30
18
135
29
54
133
33
72
13
83
61
93
14
12
56
140
34
90
66
9
27
128
46
60
109
103
50
106
19
20
58
8
111
6
1
100
92
7
69
119
49
84
52
68
15
104
53
132
5
65
36
41
123
16
55
3
71
98
121
115
21
51

> <PUBCHEM_MMFF94_PARTIAL_CHARGES>
32
1 -0.19
10 -0.18
11 -0.09
12 -0.33
13 -0.24
14 0.18
15 0.18
16 0.81
17 0.81
18 0.46
19 0.3
2 -0.43
20 0.05
21 0.46
22 -0.15
23 -0.15
24 0.28
25 -0.15
26 -0.15
27 0.19
28 0.27
3 -0.43
37 0.15
38 0.15
4 -0.57
42 0.15
43 0.15
5 -0.57
6 -0.02
7 0.03
8 -0.57
9 -0.41

> <PUBCHEM_EFFECTIVE_ROTOR_COUNT>
7

> <PUBCHEM_PHARMACOPHORE_FEATURES>
8
1 4 acceptor
1 5 acceptor
1 7 cation
1 7 donor
3 8 9 21 cation
5 6 8 9 19 21 rings
5 7 10 11 12 13 rings
6 20 22 23 25 26 27 rings

> <PUBCHEM_HEAVY_ATOM_COUNT>
27

> <PUBCHEM_ATOM_DEF_STEREO_COUNT>
0

> <PUBCHEM_ATOM_UDEF_STEREO_COUNT>
0

> <PUBCHEM_BOND_DEF_STEREO_COUNT>
0

> <PUBCHEM_BOND_UDEF_STEREO_COUNT>
0

> <PUBCHEM_ISOTOPIC_ATOM_COUNT>
0

> <PUBCHEM_COMPONENT_COUNT>
1

> <PUBCHEM_CACTVS_TAUTO_COUNT>
3

> <PUBCHEM_CONFORMER_ID>
0109734300000002

> <PUBCHEM_MMFF94_ENERGY>
44.1928

> <PUBCHEM_FEATURE_SELFOVERLAP>
40.594

> <PUBCHEM_SHAPE_FINGERPRINT>
10 15 17132113532935603956
10319926 262 15482671316858686967
10411042 1 17766003079799249946
11211813 128 9799419915223821956
12236239 1 18333455356761824207
12838862 33 18337124418051914985
13167372 99 18410012177875621513
13668630 136 9655578504392892793
14394314 77 18333728044547249297
15183329 4 16081084905194673851
15188451 53 12103846744053159183
15348495 7 17274813624146012665
15419008 145 18059586840294826720
15475509 35 15338290077118148682
15483637 11 17840030972049546685
1577012 14 18260552233876230511
16087824 20 18342458166681659052
20526848 3 18408601465902725401
21033650 10 15647324269676673987
21298829 104 18407761430313424264
21315759 148 14189312460421454474
21585482 111 18198903798361142309
21591340 7 18410864239189417243
21774942 28 17531239591493671760
22122407 14 18411407415598802361
23559900 14 7132132270182202799
2838139 119 18114183021441556297
306946 40 17203336672182409485
312425 54 16845849096934148443
3178227 256 17346602967918027272
3472631 163 18260544511614463199
34797466 226 15068918438517143171
3633792 109 17748821943715305198
397830 11 17916851470839890099
445580 204 18113616789652975857
44880568 143 14562530704491568235
5104073 3 17916873421816535146
5385378 56 18272374200389495738
5911458 16 18260542360136950313
6608658 132 17676209113374313649

> <PUBCHEM_SHAPE_MULTIPOLES>
504.08
23.79
2.57
1.21
7.67
0.1
-0.03
-17.03
5.33
-1.31
-0.18
1.16
-0.17
-2.38

> <PUBCHEM_SHAPE_SELFOVERLAP>
1094.324

> <PUBCHEM_SHAPE_VOLUME>
278.7

> <PUBCHEM_COORDINATE_TYPE>
2
5
10

$$$$

