7265
  -OEChem-06261201573D

 15 15  0     0  0  0  0  0  0999 V2000
    3.2165   -0.4039    0.0000 Cl  0  0  0  0  0  0  0  0  0  0  0  0
   -2.5260    0.8297    0.0006 O   0  0  0  0  0  0  0  0  0  0  0  0
   -1.6968   -1.8592   -0.0005 N   0  0  0  0  0  0  0  0  0  0  0  0
   -0.7642   -0.7990    0.0002 C   0  0  0  0  0  0  0  0  0  0  0  0
   -1.1971    0.5270   -0.0003 C   0  0  0  0  0  0  0  0  0  0  0  0
    0.6006   -1.0870    0.0004 C   0  0  0  0  0  0  0  0  0  0  0  0
   -0.2652    1.5648   -0.0004 C   0  0  0  0  0  0  0  0  0  0  0  0
    1.5325   -0.0492    0.0001 C   0  0  0  0  0  0  0  0  0  0  0  0
    1.0996    1.2768   -0.0001 C   0  0  0  0  0  0  0  0  0  0  0  0
    0.9374   -2.1216    0.0006 H   0  0  0  0  0  0  0  0  0  0  0  0
   -0.5956    2.6000   -0.0004 H   0  0  0  0  0  0  0  0  0  0  0  0
    1.8144    2.0957   -0.0002 H   0  0  0  0  0  0  0  0  0  0  0  0
   -2.6882   -1.7042    0.1011 H   0  0  0  0  0  0  0  0  0  0  0  0
   -1.3550   -2.8119    0.0043 H   0  0  0  0  0  0  0  0  0  0  0  0
   -3.0515    0.0270   -0.1363 H   0  0  0  0  0  0  0  0  0  0  0  0
  1  8  1  0  0  0  0
  2  5  1  0  0  0  0
  2 15  1  0  0  0  0
  3  4  1  0  0  0  0
  3 13  1  0  0  0  0
  3 14  1  0  0  0  0
  4  5  2  0  0  0  0
  4  6  1  0  0  0  0
  5  7  1  0  0  0  0
  6  8  2  0  0  0  0
  6 10  1  0  0  0  0
  7  9  2  0  0  0  0
  7 11  1  0  0  0  0
  8  9  1  0  0  0  0
  9 12  1  0  0  0  0
M  END
> <PUBCHEM_COMPOUND_CID>
7265

> <PUBCHEM_CONFORMER_RMSD>
0.4

> <PUBCHEM_CONFORMER_DIVERSEORDER>
1

> <PUBCHEM_MMFF94_PARTIAL_CHARGES>
15
1 -0.18
10 0.15
11 0.15
12 0.15
13 0.4
14 0.4
15 0.45
2 -0.53
3 -0.9
4 0.1
5 0.08
6 -0.15
7 -0.15
8 0.18
9 -0.15

> <PUBCHEM_EFFECTIVE_ROTOR_COUNT>
0

> <PUBCHEM_PHARMACOPHORE_FEATURES>
4
1 2 donor
1 3 cation
1 3 donor
6 4 5 6 7 8 9 rings

> <PUBCHEM_HEAVY_ATOM_COUNT>
9

> <PUBCHEM_ATOM_DEF_STEREO_COUNT>
0

> <PUBCHEM_ATOM_UDEF_STEREO_COUNT>
0

> <PUBCHEM_BOND_DEF_STEREO_COUNT>
0

> <PUBCHEM_BOND_UDEF_STEREO_COUNT>
0

> <PUBCHEM_ISOTOPIC_ATOM_COUNT>
0

> <PUBCHEM_COMPONENT_COUNT>
1

> <PUBCHEM_CACTVS_TAUTO_COUNT>
5

> <PUBCHEM_CONFORMER_ID>
00001C6100000001

> <PUBCHEM_MMFF94_ENERGY>
30.5487

> <PUBCHEM_FEATURE_SELFOVERLAP>
20.301

> <PUBCHEM_SHAPE_FINGERPRINT>
12423570 1 17917706958867050948
14128692 85 18339917100598223380
15310529 11 16630247016862680644
16714656 1 18339359776920136356
16945 1 18410856607027017028
18185500 45 18413672417650941818
193761 8 18122344571083216549
20871998 184 18187645782312043310
21040471 1 18338517563645032165
23235685 24 18336833107578575008
23402655 69 17977685409190729277
23552423 10 18200875054867376604
2748010 2 18266181638662505404
29004967 10 18200303441696095448
369184 2 18341055198275425130
5084963 1 18188486852809251042

> <PUBCHEM_SHAPE_MULTIPOLES>
176.24
3.38
1.71
0.6
1.62
0.12
0
0.37
0
-0.61
0
0.06
-0.01
0

> <PUBCHEM_SHAPE_SELFOVERLAP>
359.046

> <PUBCHEM_SHAPE_VOLUME>
103.3

> <PUBCHEM_COORDINATE_TYPE>
2
5
10

$$$$

