12142
  -OEChem-06261206353D

 16 16  0     0  0  0  0  0  0999 V2000
    4.1095    0.0043    0.0601 Cl  0  0  0  0  0  0  0  0  0  0  0  0
    0.0352    0.2153   -0.1193 C   0  0  0  0  0  0  0  0  0  0  0  0
   -0.8490    1.2885   -0.0082 C   0  0  0  0  0  0  0  0  0  0  0  0
   -0.4513   -1.0921   -0.1187 C   0  0  0  0  0  0  0  0  0  0  0  0
   -2.2195    1.0545    0.1035 C   0  0  0  0  0  0  0  0  0  0  0  0
   -1.8219   -1.3261   -0.0071 C   0  0  0  0  0  0  0  0  0  0  0  0
   -2.7060   -0.2528    0.1040 C   0  0  0  0  0  0  0  0  0  0  0  0
    1.4644    0.4596   -0.2355 C   0  0  0  0  0  0  0  0  0  0  0  0
    2.4388   -0.3512    0.2213 C   0  0  0  0  0  0  0  0  0  0  0  0
   -0.4874    2.3140   -0.0056 H   0  0  0  0  0  0  0  0  0  0  0  0
    0.2084   -1.9503   -0.2175 H   0  0  0  0  0  0  0  0  0  0  0  0
   -2.9081    1.8899    0.1902 H   0  0  0  0  0  0  0  0  0  0  0  0
   -2.2016   -2.3436   -0.0099 H   0  0  0  0  0  0  0  0  0  0  0  0
   -3.7732   -0.4350    0.1902 H   0  0  0  0  0  0  0  0  0  0  0  0
    1.7434    1.3957   -0.7154 H   0  0  0  0  0  0  0  0  0  0  0  0
    2.2774   -1.2897    0.7344 H   0  0  0  0  0  0  0  0  0  0  0  0
  1  9  1  0  0  0  0
  2  3  2  0  0  0  0
  2  4  1  0  0  0  0
  2  8  1  0  0  0  0
  3  5  1  0  0  0  0
  3 10  1  0  0  0  0
  4  6  2  0  0  0  0
  4 11  1  0  0  0  0
  5  7  2  0  0  0  0
  5 12  1  0  0  0  0
  6  7  1  0  0  0  0
  6 13  1  0  0  0  0
  7 14  1  0  0  0  0
  8  9  2  0  0  0  0
  8 15  1  0  0  0  0
  9 16  1  0  0  0  0
M  END
> <PUBCHEM_COMPOUND_CID>
12142

> <PUBCHEM_CONFORMER_RMSD>
0.4

> <PUBCHEM_CONFORMER_DIVERSEORDER>
1

> <PUBCHEM_MMFF94_PARTIAL_CHARGES>
16
1 -0.14
10 0.15
11 0.15
12 0.15
13 0.15
14 0.15
15 0.15
16 0.15
2 0.03
3 -0.15
4 -0.15
5 -0.15
6 -0.15
7 -0.15
8 -0.18
9 -0.01

> <PUBCHEM_EFFECTIVE_ROTOR_COUNT>
1

> <PUBCHEM_PHARMACOPHORE_FEATURES>
1
6 2 3 4 5 6 7 rings

> <PUBCHEM_HEAVY_ATOM_COUNT>
9

> <PUBCHEM_ATOM_DEF_STEREO_COUNT>
0

> <PUBCHEM_ATOM_UDEF_STEREO_COUNT>
0

> <PUBCHEM_BOND_DEF_STEREO_COUNT>
0

> <PUBCHEM_BOND_UDEF_STEREO_COUNT>
1

> <PUBCHEM_ISOTOPIC_ATOM_COUNT>
0

> <PUBCHEM_COMPONENT_COUNT>
1

> <PUBCHEM_CACTVS_TAUTO_COUNT>
1

> <PUBCHEM_CONFORMER_ID>
00002F6E00000001

> <PUBCHEM_MMFF94_ENERGY>
21.599

> <PUBCHEM_FEATURE_SELFOVERLAP>
5.074

> <PUBCHEM_SHAPE_FINGERPRINT>
10857977 72 18334867077677098768
12932764 1 17704080607408259588
13024252 1 15195285339429277661
14325111 11 18410292553488416804
20645464 45 17894345588077440950
20871998 184 18187360974361706647
21040471 1 18265889332047273549
23402539 116 18114472214511194157
23552423 10 18129380393281266932
29004967 10 16298097687926240005
369184 2 16370729227060351179
75552 356 18410855447433170466

> <PUBCHEM_SHAPE_MULTIPOLES>
187.09
5.35
1.3
0.64
5.62
0.03
0
0.15
-0.34
-0.8
0.01
0.03
0
-0.06

> <PUBCHEM_SHAPE_SELFOVERLAP>
374.687

> <PUBCHEM_SHAPE_VOLUME>
107.1

> <PUBCHEM_COORDINATE_TYPE>
2
5
10

$$$$

