17395628
  -OEChem-06241222512D

 51 53  0     1  0  0  0  0  0999 V2000
    5.7567   -2.0670    0.0000 O   0  0  0  0  0  0  0  0  0  0  0  0
   11.8991   -0.7623    0.0000 O   0  0  0  0  0  0  0  0  0  0  0  0
   11.8991   -2.3718    0.0000 O   0  0  0  0  0  0  0  0  0  0  0  0
    2.4067    1.6535    0.0000 O   0  0  0  0  0  0  0  0  0  0  0  0
    3.9890    2.3580    0.0000 O   0  0  0  0  0  0  0  0  0  0  0  0
    7.4888   -1.0670    0.0000 N   0  0  3  0  0  0  0  0  0  0  0  0
    3.9771   -0.9738    0.0000 N   0  0  0  0  0  0  0  0  0  0  0  0
    6.6227   -0.5670    0.0000 C   0  0  3  0  0  0  0  0  0  0  0  0
    8.3548   -0.5670    0.0000 C   0  0  0  0  0  0  0  0  0  0  0  0
    5.7567   -1.0670    0.0000 C   0  0  0  0  0  0  0  0  0  0  0  0
    4.8907   -0.5670    0.0000 C   0  0  0  0  0  0  0  0  0  0  0  0
    4.7861    0.4275    0.0000 C   0  0  0  0  0  0  0  0  0  0  0  0
    6.6227    0.4330    0.0000 C   0  0  0  0  0  0  0  0  0  0  0  0
    9.2208   -1.0670    0.0000 C   0  0  0  0  0  0  0  0  0  0  0  0
    3.8080    0.6354    0.0000 C   0  0  0  0  0  0  0  0  0  0  0  0
    3.3080   -0.2306    0.0000 C   0  0  0  0  0  0  0  0  0  0  0  0
    7.4888   -2.0670    0.0000 C   0  0  0  0  0  0  0  0  0  0  0  0
   10.0868   -0.5670    0.0000 C   0  0  0  0  0  0  0  0  0  0  0  0
    5.5293    1.0966    0.0000 C   0  0  0  0  0  0  0  0  0  0  0  0
    9.2208   -2.0670    0.0000 C   0  0  0  0  0  0  0  0  0  0  0  0
   10.9528   -1.0670    0.0000 C   0  0  0  0  0  0  0  0  0  0  0  0
    2.3135   -0.3351    0.0000 C   0  0  0  0  0  0  0  0  0  0  0  0
   10.9528   -2.0670    0.0000 C   0  0  0  0  0  0  0  0  0  0  0  0
   10.0868   -2.5670    0.0000 C   0  0  0  0  0  0  0  0  0  0  0  0
    3.4013    1.5490    0.0000 C   0  0  0  0  0  0  0  0  0  0  0  0
   12.4827   -1.5670    0.0000 C   0  0  0  0  0  0  0  0  0  0  0  0
    2.0000    2.5670    0.0000 C   0  0  0  0  0  0  0  0  0  0  0  0
    6.6227   -1.1870    0.0000 H   0  0  0  0  0  0  0  0  0  0  0  0
    8.7533   -0.0921    0.0000 H   0  0  0  0  0  0  0  0  0  0  0  0
    7.9562   -0.0921    0.0000 H   0  0  0  0  0  0  0  0  0  0  0  0
    7.2427    0.4330    0.0000 H   0  0  0  0  0  0  0  0  0  0  0  0
    6.6227    1.0530    0.0000 H   0  0  0  0  0  0  0  0  0  0  0  0
    6.0027    0.4330    0.0000 H   0  0  0  0  0  0  0  0  0  0  0  0
    3.8482   -1.5802    0.0000 H   0  0  0  0  0  0  0  0  0  0  0  0
    6.8688   -2.0670    0.0000 H   0  0  0  0  0  0  0  0  0  0  0  0
    7.4888   -2.6870    0.0000 H   0  0  0  0  0  0  0  0  0  0  0  0
    8.1088   -2.0670    0.0000 H   0  0  0  0  0  0  0  0  0  0  0  0
   10.0868    0.0530    0.0000 H   0  0  0  0  0  0  0  0  0  0  0  0
    5.9441    0.6359    0.0000 H   0  0  0  0  0  0  0  0  0  0  0  0
    5.9900    1.5115    0.0000 H   0  0  0  0  0  0  0  0  0  0  0  0
    5.1144    1.5574    0.0000 H   0  0  0  0  0  0  0  0  0  0  0  0
    8.6839   -2.3770    0.0000 H   0  0  0  0  0  0  0  0  0  0  0  0
    2.2487    0.2815    0.0000 H   0  0  0  0  0  0  0  0  0  0  0  0
    1.6969   -0.4000    0.0000 H   0  0  0  0  0  0  0  0  0  0  0  0
    2.3783   -0.9518    0.0000 H   0  0  0  0  0  0  0  0  0  0  0  0
   10.0868   -3.1870    0.0000 H   0  0  0  0  0  0  0  0  0  0  0  0
   12.9435   -1.9818    0.0000 H   0  0  0  0  0  0  0  0  0  0  0  0
   12.9435   -1.1523    0.0000 H   0  0  0  0  0  0  0  0  0  0  0  0
    2.5664    2.8192    0.0000 H   0  0  0  0  0  0  0  0  0  0  0  0
    1.7478    3.1334    0.0000 H   0  0  0  0  0  0  0  0  0  0  0  0
    1.4336    2.3148    0.0000 H   0  0  0  0  0  0  0  0  0  0  0  0
  1 10  2  0  0  0  0
  2 21  1  0  0  0  0
  2 26  1  0  0  0  0
  3 23  1  0  0  0  0
  3 26  1  0  0  0  0
  4 25  1  0  0  0  0
  4 27  1  0  0  0  0
  5 25  2  0  0  0  0
  6  8  1  0  0  0  0
  6  9  1  0  0  0  0
  6 17  1  0  0  0  0
  7 11  1  0  0  0  0
  7 16  1  0  0  0  0
  7 34  1  0  0  0  0
  8 10  1  0  0  0  0
  8 13  1  0  0  0  0
  8 28  1  0  0  0  0
  9 14  1  0  0  0  0
  9 29  1  0  0  0  0
  9 30  1  0  0  0  0
 10 11  1  0  0  0  0
 11 12  2  0  0  0  0
 12 15  1  0  0  0  0
 12 19  1  0  0  0  0
 13 31  1  0  0  0  0
 13 32  1  0  0  0  0
 13 33  1  0  0  0  0
 14 18  2  0  0  0  0
 14 20  1  0  0  0  0
 15 16  2  0  0  0  0
 15 25  1  0  0  0  0
 16 22  1  0  0  0  0
 17 35  1  0  0  0  0
 17 36  1  0  0  0  0
 17 37  1  0  0  0  0
 18 21  1  0  0  0  0
 18 38  1  0  0  0  0
 19 39  1  0  0  0  0
 19 40  1  0  0  0  0
 19 41  1  0  0  0  0
 20 24  2  0  0  0  0
 20 42  1  0  0  0  0
 21 23  2  0  0  0  0
 22 43  1  0  0  0  0
 22 44  1  0  0  0  0
 22 45  1  0  0  0  0
 23 24  1  0  0  0  0
 24 46  1  0  0  0  0
 26 47  1  0  0  0  0
 26 48  1  0  0  0  0
 27 49  1  0  0  0  0
 27 50  1  0  0  0  0
 27 51  1  0  0  0  0
M  END
> <PUBCHEM_COMPOUND_CID>
17395628

> <PUBCHEM_COMPOUND_CANONICALIZED>
1

> <PUBCHEM_CACTVS_COMPLEXITY>
557

> <PUBCHEM_CACTVS_HBOND_ACCEPTOR>
6

> <PUBCHEM_CACTVS_HBOND_DONOR>
1

> <PUBCHEM_CACTVS_ROTATABLE_BOND>
7

> <PUBCHEM_CACTVS_SUBSKEYS>
AAADceB7OAAAAAAAAAAAAAAAAAAAAWJAAAAwAAAAAAAAAEgBwAAAHgAQAAAADCzBngcyjpPJlACoA6TyTACCiCAnICAImSG+zNgdJnrE9bukMapm0BHO6Ue83/K+oAABAAAAQABAAAIAAACAAAAAAAAAAA==

> <PUBCHEM_IUPAC_OPENEYE_NAME>
methyl 5-[2-[1,3-benzodioxol-5-ylmethyl(methyl)amino]propanoyl]-2,4-dimethyl-1H-pyrrole-3-carboxylate

> <PUBCHEM_IUPAC_CAS_NAME>
5-[2-[1,3-benzodioxol-5-ylmethyl(methyl)amino]-1-oxopropyl]-2,4-dimethyl-1H-pyrrole-3-carboxylic acid methyl ester

> <PUBCHEM_IUPAC_NAME>
methyl 5-[2-[1,3-benzodioxol-5-ylmethyl(methyl)amino]propanoyl]-2,4-dimethyl-1H-pyrrole-3-carboxylate

> <PUBCHEM_IUPAC_SYSTEMATIC_NAME>
methyl 5-[2-[1,3-benzodioxol-5-ylmethyl(methyl)amino]propanoyl]-2,4-dimethyl-1H-pyrrole-3-carboxylate

> <PUBCHEM_IUPAC_TRADITIONAL_NAME>
2,4-dimethyl-5-[2-[methyl(piperonyl)amino]propanoyl]-1H-pyrrole-3-carboxylic acid methyl ester

> <PUBCHEM_IUPAC_INCHI>
InChI=1S/C20H24N2O5/c1-11-17(20(24)25-5)12(2)21-18(11)19(23)13(3)22(4)9-14-6-7-15-16(8-14)27-10-26-15/h6-8,13,21H,9-10H2,1-5H3

> <PUBCHEM_IUPAC_INCHIKEY>
PLQJMRVDJJSTGI-UHFFFAOYSA-N

> <PUBCHEM_XLOGP3_AA>
3.1

> <PUBCHEM_EXACT_MASS>
372.168522

> <PUBCHEM_MOLECULAR_FORMULA>
C20H24N2O5

> <PUBCHEM_MOLECULAR_WEIGHT>
372.41496

> <PUBCHEM_OPENEYE_CAN_SMILES>
CC1=C(NC(=C1C(=O)OC)C)C(=O)C(C)N(C)CC2=CC3=C(C=C2)OCO3

> <PUBCHEM_OPENEYE_ISO_SMILES>
CC1=C(NC(=C1C(=O)OC)C)C(=O)C(C)N(C)CC2=CC3=C(C=C2)OCO3

> <PUBCHEM_CACTVS_TPSA>
80.9

> <PUBCHEM_MONOISOTOPIC_WEIGHT>
372.168522

> <PUBCHEM_TOTAL_CHARGE>
0

> <PUBCHEM_HEAVY_ATOM_COUNT>
27

> <PUBCHEM_ATOM_DEF_STEREO_COUNT>
0

> <PUBCHEM_ATOM_UDEF_STEREO_COUNT>
1

> <PUBCHEM_BOND_DEF_STEREO_COUNT>
0

> <PUBCHEM_BOND_UDEF_STEREO_COUNT>
0

> <PUBCHEM_ISOTOPIC_ATOM_COUNT>
0

> <PUBCHEM_COMPONENT_COUNT>
1

> <PUBCHEM_CACTVS_TAUTO_COUNT>
33

> <PUBCHEM_COORDINATE_TYPE>
1
5
255

> <PUBCHEM_BONDANNOTATIONS>
11  12  8
12  15  8
14  18  8
14  20  8
15  16  8
18  21  8
20  24  8
21  23  8
23  24  8
7  11  8
7  16  8
8  13  3

$$$$

