5274
  -OEChem-06261200362D

113117  0     1  0  0  0  0  0999 V2000
    8.6173   -0.5162    0.0000 O   0  0  0  0  0  0  0  0  0  0  0  0
    4.0430   -0.5162    0.0000 O   0  0  0  0  0  0  0  0  0  0  0  0
    4.9166   -3.2049    0.0000 O   0  0  0  0  0  0  0  0  0  0  0  0
    6.3301    5.1455    0.0000 O   0  0  0  0  0  0  0  0  0  0  0  0
   10.0948   -6.4410    0.0000 O   0  0  0  0  0  0  0  0  0  0  0  0
    4.5981    4.1455    0.0000 O   0  0  0  0  0  0  0  0  0  0  0  0
   10.9083   -4.6139    0.0000 O   0  0  0  0  0  0  0  0  0  0  0  0
    7.7437   -3.2049    0.0000 N   0  0  3  0  0  0  0  0  0  0  0  0
    6.3301    1.1455    0.0000 N   0  0  3  0  0  0  0  0  0  0  0  0
    8.0901    2.1108    0.0000 N   0  0  0  0  0  0  0  0  0  0  0  0
    6.8872   -5.0204    0.0000 N   0  0  0  0  0  0  0  0  0  0  0  0
    8.4128   -2.4618    0.0000 C   0  0  0  0  0  0  0  0  0  0  0  0
    7.3083    0.9376    0.0000 C   0  0  0  0  0  0  0  0  0  0  0  0
    8.3315   -4.0140    0.0000 C   0  0  0  0  0  0  0  0  0  0  0  0
    6.3301    2.1455    0.0000 C   0  0  0  0  0  0  0  0  0  0  0  0
    5.3520    0.9376    0.0000 C   0  0  0  0  0  0  0  0  0  0  0  0
    6.8301   -3.6117    0.0000 C   0  0  0  0  0  0  0  0  0  0  0  0
    8.1173    0.3498    0.0000 C   0  0  0  0  0  0  0  0  0  0  0  0
    8.7218   -1.5107    0.0000 C   0  0  0  0  0  0  0  0  0  0  0  0
    7.1962    2.6455    0.0000 C   0  0  0  0  0  0  0  0  0  0  0  0
    7.9247   -4.9275    0.0000 C   0  0  0  0  0  0  0  0  0  0  0  0
    5.8301   -3.6117    0.0000 C   0  0  0  0  0  0  0  0  0  0  0  0
    4.5430    0.3498    0.0000 C   0  0  0  0  0  0  0  0  0  0  0  0
    7.1962    3.6455    0.0000 C   0  0  0  0  0  0  0  0  0  0  0  0
    8.5125   -5.7365    0.0000 C   0  0  0  0  0  0  0  0  0  0  0  0
    5.4641    2.6455    0.0000 C   0  0  0  0  0  0  0  0  0  0  0  0
    9.3260   -3.9094    0.0000 C   0  0  0  0  0  0  0  0  0  0  0  0
    9.5070   -5.6320    0.0000 C   0  0  0  0  0  0  0  0  0  0  0  0
    6.3301    4.1455    0.0000 C   0  0  0  0  0  0  0  0  0  0  0  0
    9.9138   -4.7184    0.0000 C   0  0  0  0  0  0  0  0  0  0  0  0
    5.4641    3.6455    0.0000 C   0  0  0  0  0  0  0  0  0  0  0  0
    3.9384   -1.5107    0.0000 C   0  0  0  0  0  0  0  0  0  0  0  0
    4.2474   -2.4618    0.0000 C   0  0  0  0  0  0  0  0  0  0  0  0
    8.0901    4.1802    0.0000 C   0  0  0  0  0  0  0  0  0  0  0  0
    8.1036   -6.6945    0.0000 C   0  0  0  0  0  0  0  0  0  0  0  0
    8.9962    2.6247    0.0000 C   0  0  0  0  0  0  0  0  0  0  0  0
    6.4562   -5.9687    0.0000 C   0  0  0  0  0  0  0  0  0  0  0  0
    8.9962    3.6663    0.0000 C   0  0  0  0  0  0  0  0  0  0  0  0
    7.0685   -6.8114    0.0000 C   0  0  0  0  0  0  0  0  0  0  0  0
    5.4641    5.6455    0.0000 C   0  0  0  0  0  0  0  0  0  0  0  0
   11.0893   -6.3365    0.0000 C   0  0  0  0  0  0  0  0  0  0  0  0
    3.7320    3.6455    0.0000 C   0  0  0  0  0  0  0  0  0  0  0  0
   11.3150   -3.7004    0.0000 C   0  0  0  0  0  0  0  0  0  0  0  0
    9.8602    2.1214    0.0000 C   0  0  0  0  0  0  0  0  0  0  0  0
    5.4613   -6.0694    0.0000 C   0  0  0  0  0  0  0  0  0  0  0  0
    5.4641    6.6455    0.0000 C   0  0  0  0  0  0  0  0  0  0  0  0
   11.6771   -7.1455    0.0000 C   0  0  0  0  0  0  0  0  0  0  0  0
    2.8660    4.1455    0.0000 C   0  0  0  0  0  0  0  0  0  0  0  0
   12.3095   -3.5958    0.0000 C   0  0  0  0  0  0  0  0  0  0  0  0
    4.5981    7.1455    0.0000 C   0  0  0  0  0  0  0  0  0  0  0  0
   12.6716   -7.0410    0.0000 C   0  0  0  0  0  0  0  0  0  0  0  0
    2.0000    3.6455    0.0000 C   0  0  0  0  0  0  0  0  0  0  0  0
   12.7163   -2.6823    0.0000 C   0  0  0  0  0  0  0  0  0  0  0  0
    7.8341    1.2661    0.0000 H   0  0  0  0  0  0  0  0  0  0  0  0
    7.0561    0.3712    0.0000 H   0  0  0  0  0  0  0  0  0  0  0  0
    8.6846   -3.0190    0.0000 H   0  0  0  0  0  0  0  0  0  0  0  0
    7.8759   -2.1518    0.0000 H   0  0  0  0  0  0  0  0  0  0  0  0
    6.5979   -4.1865    0.0000 H   0  0  0  0  0  0  0  0  0  0  0  0
    6.7012   -3.0052    0.0000 H   0  0  0  0  0  0  0  0  0  0  0  0
    5.4596    1.5482    0.0000 H   0  0  0  0  0  0  0  0  0  0  0  0
    5.6042    0.3712    0.0000 H   0  0  0  0  0  0  0  0  0  0  0  0
    8.7313    0.4361    0.0000 H   0  0  0  0  0  0  0  0  0  0  0  0
    7.6565   -0.0651    0.0000 H   0  0  0  0  0  0  0  0  0  0  0  0
    9.1968   -1.9093    0.0000 H   0  0  0  0  0  0  0  0  0  0  0  0
    8.1052   -1.4459    0.0000 H   0  0  0  0  0  0  0  0  0  0  0  0
    4.3930    0.9514    0.0000 H   0  0  0  0  0  0  0  0  0  0  0  0
    5.0037   -0.0651    0.0000 H   0  0  0  0  0  0  0  0  0  0  0  0
    5.3841   -4.0424    0.0000 H   0  0  0  0  0  0  0  0  0  0  0  0
    5.9590   -3.0052    0.0000 H   0  0  0  0  0  0  0  0  0  0  0  0
    9.5782   -3.3430    0.0000 H   0  0  0  0  0  0  0  0  0  0  0  0
    4.9272    2.3355    0.0000 H   0  0  0  0  0  0  0  0  0  0  0  0
    3.3910   -1.2197    0.0000 H   0  0  0  0  0  0  0  0  0  0  0  0
    4.5550   -1.4459    0.0000 H   0  0  0  0  0  0  0  0  0  0  0  0
    3.6290   -2.4186    0.0000 H   0  0  0  0  0  0  0  0  0  0  0  0
    4.7844   -2.1518    0.0000 H   0  0  0  0  0  0  0  0  0  0  0  0
    8.4738   -7.1919    0.0000 H   0  0  0  0  0  0  0  0  0  0  0  0
    8.0829    4.8001    0.0000 H   0  0  0  0  0  0  0  0  0  0  0  0
    6.8185   -7.3788    0.0000 H   0  0  0  0  0  0  0  0  0  0  0  0
    9.5319    3.9784    0.0000 H   0  0  0  0  0  0  0  0  0  0  0  0
    4.8535    5.7532    0.0000 H   0  0  0  0  0  0  0  0  0  0  0  0
    5.2520    5.0629    0.0000 H   0  0  0  0  0  0  0  0  0  0  0  0
   11.6466   -6.0647    0.0000 H   0  0  0  0  0  0  0  0  0  0  0  0
   10.9184   -5.7405    0.0000 H   0  0  0  0  0  0  0  0  0  0  0  0
   11.3583   -3.0819    0.0000 H   0  0  0  0  0  0  0  0  0  0  0  0
   10.7134   -3.5504    0.0000 H   0  0  0  0  0  0  0  0  0  0  0  0
    3.3335    3.1706    0.0000 H   0  0  0  0  0  0  0  0  0  0  0  0
    4.1306    3.1706    0.0000 H   0  0  0  0  0  0  0  0  0  0  0  0
    5.3989   -5.4525    0.0000 H   0  0  0  0  0  0  0  0  0  0  0  0
    4.8445   -6.1318    0.0000 H   0  0  0  0  0  0  0  0  0  0  0  0
    5.5238   -6.6862    0.0000 H   0  0  0  0  0  0  0  0  0  0  0  0
    9.5482    1.5856    0.0000 H   0  0  0  0  0  0  0  0  0  0  0  0
   10.3960    1.8093    0.0000 H   0  0  0  0  0  0  0  0  0  0  0  0
   10.1723    2.6571    0.0000 H   0  0  0  0  0  0  0  0  0  0  0  0
   11.1199   -7.4173    0.0000 H   0  0  0  0  0  0  0  0  0  0  0  0
   11.8480   -7.7415    0.0000 H   0  0  0  0  0  0  0  0  0  0  0  0
    6.0747    6.5378    0.0000 H   0  0  0  0  0  0  0  0  0  0  0  0
    5.6762    7.2281    0.0000 H   0  0  0  0  0  0  0  0  0  0  0  0
   12.2663   -4.2143    0.0000 H   0  0  0  0  0  0  0  0  0  0  0  0
   12.9111   -3.7458    0.0000 H   0  0  0  0  0  0  0  0  0  0  0  0
    3.2646    4.6204    0.0000 H   0  0  0  0  0  0  0  0  0  0  0  0
    2.4675    4.6204    0.0000 H   0  0  0  0  0  0  0  0  0  0  0  0
    4.9081    7.6824    0.0000 H   0  0  0  0  0  0  0  0  0  0  0  0
    4.0611    7.4555    0.0000 H   0  0  0  0  0  0  0  0  0  0  0  0
    4.2881    6.6086    0.0000 H   0  0  0  0  0  0  0  0  0  0  0  0
   12.7365   -7.6576    0.0000 H   0  0  0  0  0  0  0  0  0  0  0  0
   13.2882   -6.9762    0.0000 H   0  0  0  0  0  0  0  0  0  0  0  0
   12.6068   -6.4244    0.0000 H   0  0  0  0  0  0  0  0  0  0  0  0
    1.6900    4.1824    0.0000 H   0  0  0  0  0  0  0  0  0  0  0  0
   13.2827   -2.9345    0.0000 H   0  0  0  0  0  0  0  0  0  0  0  0
   12.9685   -2.1159    0.0000 H   0  0  0  0  0  0  0  0  0  0  0  0
   12.1499   -2.4301    0.0000 H   0  0  0  0  0  0  0  0  0  0  0  0
    1.4631    3.3355    0.0000 H   0  0  0  0  0  0  0  0  0  0  0  0
    2.3100    3.1086    0.0000 H   0  0  0  0  0  0  0  0  0  0  0  0
  1 18  1  0  0  0  0
  1 19  1  0  0  0  0
  2 23  1  0  0  0  0
  2 32  1  0  0  0  0
  3 22  1  0  0  0  0
  3 33  1  0  0  0  0
  4 29  1  0  0  0  0
  4 40  1  0  0  0  0
  5 28  1  0  0  0  0
  5 41  1  0  0  0  0
  6 31  1  0  0  0  0
  6 42  1  0  0  0  0
  7 30  1  0  0  0  0
  7 43  1  0  0  0  0
  8 12  1  0  0  0  0
  8 14  1  0  0  0  0
  8 17  1  0  0  0  0
  9 13  1  0  0  0  0
  9 15  1  0  0  0  0
  9 16  1  0  0  0  0
 10 20  1  0  0  0  0
 10 36  2  0  0  0  0
 11 21  1  0  0  0  0
 11 37  2  0  0  0  0
 12 19  1  0  0  0  0
 12 56  1  0  0  0  0
 12 57  1  0  0  0  0
 13 18  1  0  0  0  0
 13 54  1  0  0  0  0
 13 55  1  0  0  0  0
 14 21  1  0  0  0  0
 14 27  2  0  0  0  0
 15 20  1  0  0  0  0
 15 26  2  0  0  0  0
 16 23  1  0  0  0  0
 16 60  1  0  0  0  0
 16 61  1  0  0  0  0
 17 22  1  0  0  0  0
 17 58  1  0  0  0  0
 17 59  1  0  0  0  0
 18 62  1  0  0  0  0
 18 63  1  0  0  0  0
 19 64  1  0  0  0  0
 19 65  1  0  0  0  0
 20 24  2  0  0  0  0
 21 25  2  0  0  0  0
 22 68  1  0  0  0  0
 22 69  1  0  0  0  0
 23 66  1  0  0  0  0
 23 67  1  0  0  0  0
 24 29  1  0  0  0  0
 24 34  1  0  0  0  0
 25 28  1  0  0  0  0
 25 35  1  0  0  0  0
 26 31  1  0  0  0  0
 26 71  1  0  0  0  0
 27 30  1  0  0  0  0
 27 70  1  0  0  0  0
 28 30  2  0  0  0  0
 29 31  2  0  0  0  0
 32 33  1  0  0  0  0
 32 72  1  0  0  0  0
 32 73  1  0  0  0  0
 33 74  1  0  0  0  0
 33 75  1  0  0  0  0
 34 38  2  0  0  0  0
 34 77  1  0  0  0  0
 35 39  2  0  0  0  0
 35 76  1  0  0  0  0
 36 38  1  0  0  0  0
 36 44  1  0  0  0  0
 37 39  1  0  0  0  0
 37 45  1  0  0  0  0
 38 79  1  0  0  0  0
 39 78  1  0  0  0  0
 40 46  1  0  0  0  0
 40 80  1  0  0  0  0
 40 81  1  0  0  0  0
 41 47  1  0  0  0  0
 41 82  1  0  0  0  0
 41 83  1  0  0  0  0
 42 48  1  0  0  0  0
 42 86  1  0  0  0  0
 42 87  1  0  0  0  0
 43 49  1  0  0  0  0
 43 84  1  0  0  0  0
 43 85  1  0  0  0  0
 44 91  1  0  0  0  0
 44 92  1  0  0  0  0
 44 93  1  0  0  0  0
 45 88  1  0  0  0  0
 45 89  1  0  0  0  0
 45 90  1  0  0  0  0
 46 50  1  0  0  0  0
 46 96  1  0  0  0  0
 46 97  1  0  0  0  0
 47 51  1  0  0  0  0
 47 94  1  0  0  0  0
 47 95  1  0  0  0  0
 48 52  1  0  0  0  0
 48100  1  0  0  0  0
 48101  1  0  0  0  0
 49 53  1  0  0  0  0
 49 98  1  0  0  0  0
 49 99  1  0  0  0  0
 50102  1  0  0  0  0
 50103  1  0  0  0  0
 50104  1  0  0  0  0
 51105  1  0  0  0  0
 51106  1  0  0  0  0
 51107  1  0  0  0  0
 52108  1  0  0  0  0
 52112  1  0  0  0  0
 52113  1  0  0  0  0
 53109  1  0  0  0  0
 53110  1  0  0  0  0
 53111  1  0  0  0  0
M  END
> <PUBCHEM_COMPOUND_CID>
5274

> <PUBCHEM_COMPOUND_CANONICALIZED>
1

> <PUBCHEM_CACTVS_COMPLEXITY>
910

> <PUBCHEM_CACTVS_HBOND_ACCEPTOR>
11

> <PUBCHEM_CACTVS_HBOND_DONOR>
0

> <PUBCHEM_CACTVS_ROTATABLE_BOND>
14

> <PUBCHEM_CACTVS_SUBSKEYS>
AAADcfB/uAAAAAAAAAAAAAAAAAAAAAAAAAA8eIEAAAAAAACx/gAAHgAAAAAADAzhngYyxvMIFACgAyRiRACCiCAhMiAImCA+/JgPZuLEsZuXOCrmwBna6Aew0LMOAEABQgAKQCAAgAKEABSAQAAAAAAAAA==

> <PUBCHEM_IUPAC_OPENEYE_NAME>
7,13-bis(2-methyl-5,6-dipropoxy-8-quinolyl)-1,4,10-trioxa-7,13-diazacyclopentadecane

> <PUBCHEM_IUPAC_CAS_NAME>
7,13-bis(2-methyl-5,6-dipropoxy-8-quinolinyl)-1,4,10-trioxa-7,13-diazacyclopentadecane

> <PUBCHEM_IUPAC_NAME>
7,13-bis(2-methyl-5,6-dipropoxyquinolin-8-yl)-1,4,10-trioxa-7,13-diazacyclopentadecane

> <PUBCHEM_IUPAC_SYSTEMATIC_NAME>
7,13-bis(2-methyl-5,6-dipropoxy-quinolin-8-yl)-1,4,10-trioxa-7,13-diazacyclopentadecane

> <PUBCHEM_IUPAC_TRADITIONAL_NAME>
7,13-bis(2-methyl-5,6-dipropoxy-8-quinolyl)-1,4,10-trioxa-7,13-diazacyclopentadecane

> <PUBCHEM_IUPAC_INCHI>
InChI=1S/C42H60N4O7/c1-7-19-50-37-29-35(39-33(13-11-31(5)43-39)41(37)52-21-9-3)45-15-23-47-24-16-46(18-26-49-28-27-48-25-17-45)36-30-38(51-20-8-2)42(53-22-10-4)34-14-12-32(6)44-40(34)36/h11-14,29-30H,7-10,15-28H2,1-6H3

> <PUBCHEM_IUPAC_INCHIKEY>
FSMSNOBSMAXXCZ-UHFFFAOYSA-N

> <PUBCHEM_XLOGP3_AA>
8

> <PUBCHEM_EXACT_MASS>
732.4462

> <PUBCHEM_MOLECULAR_FORMULA>
C42H60N4O7

> <PUBCHEM_MOLECULAR_WEIGHT>
732.9484

> <PUBCHEM_OPENEYE_CAN_SMILES>
CCCOC1=C(C2=C(C(=C1)N3CCOCCN(CCOCCOCC3)C4=CC(=C(C5=C4N=C(C=C5)C)OCCC)OCCC)N=C(C=C2)C)OCCC

> <PUBCHEM_OPENEYE_ISO_SMILES>
CCCOC1=C(C2=C(C(=C1)N3CCOCCN(CCOCCOCC3)C4=CC(=C(C5=C4N=C(C=C5)C)OCCC)OCCC)N=C(C=C2)C)OCCC

> <PUBCHEM_CACTVS_TPSA>
96.9

> <PUBCHEM_MONOISOTOPIC_WEIGHT>
732.4462

> <PUBCHEM_TOTAL_CHARGE>
0

> <PUBCHEM_HEAVY_ATOM_COUNT>
53

> <PUBCHEM_ATOM_DEF_STEREO_COUNT>
0

> <PUBCHEM_ATOM_UDEF_STEREO_COUNT>
0

> <PUBCHEM_BOND_DEF_STEREO_COUNT>
0

> <PUBCHEM_BOND_UDEF_STEREO_COUNT>
0

> <PUBCHEM_ISOTOPIC_ATOM_COUNT>
0

> <PUBCHEM_COMPONENT_COUNT>
1

> <PUBCHEM_CACTVS_TAUTO_COUNT>
1

> <PUBCHEM_COORDINATE_TYPE>
1
5
255

> <PUBCHEM_BONDANNOTATIONS>
10  20  8
10  36  8
11  21  8
11  37  8
14  21  8
14  27  8
15  20  8
15  26  8
20  24  8
21  25  8
24  29  8
24  34  8
25  28  8
25  35  8
26  31  8
27  30  8
28  30  8
29  31  8
34  38  8
35  39  8
36  38  8
37  39  8

$$$$

