47205212
  -OEChem-06241222583D

 33 35  0     1  0  0  0  0  0999 V2000
   -0.2153    1.2647    1.3963 O   0  0  0  0  0  0  0  0  0  0  0  0
    0.6187    1.2143   -0.7766 N   0  0  0  0  0  0  0  0  0  0  0  0
    2.8227   -0.3046    0.9128 N   0  0  0  0  0  0  0  0  0  0  0  0
    3.6900   -1.3309    0.9423 N   0  0  0  0  0  0  0  0  0  0  0  0
   -2.7551    0.4812    0.6995 C   0  0  1  0  0  0  0  0  0  0  0  0
   -2.7040   -1.4949   -0.3278 C   0  0  2  0  0  0  0  0  0  0  0  0
   -2.5490   -0.9825    1.1017 C   0  0  0  0  0  0  0  0  0  0  0  0
   -1.6841    0.6850   -0.3928 C   0  0  2  0  0  0  0  0  0  0  0  0
   -1.6157   -0.6949   -1.0690 C   0  0  0  0  0  0  0  0  0  0  0  0
   -4.1324    0.4141    0.0161 C   0  0  0  0  0  0  0  0  0  0  0  0
   -4.0872   -0.9389   -0.7121 C   0  0  0  0  0  0  0  0  0  0  0  0
   -0.3616    1.0773    0.1912 C   0  0  0  0  0  0  0  0  0  0  0  0
    1.9767    1.6071   -0.4764 C   0  0  0  0  0  0  0  0  0  0  0  0
    2.8661    0.4205   -0.2417 C   0  0  0  0  0  0  0  0  0  0  0  0
    3.8287   -0.1726   -1.0215 C   0  0  0  0  0  0  0  0  0  0  0  0
    4.3016   -1.2451   -0.2420 C   0  0  0  0  0  0  0  0  0  0  0  0
   -2.7240    1.1963    1.5246 H   0  0  0  0  0  0  0  0  0  0  0  0
   -2.6156   -2.5755   -0.4556 H   0  0  0  0  0  0  0  0  0  0  0  0
   -1.5619   -1.1867    1.5284 H   0  0  0  0  0  0  0  0  0  0  0  0
   -3.3234   -1.3559    1.7804 H   0  0  0  0  0  0  0  0  0  0  0  0
   -1.9841    1.4646   -1.1038 H   0  0  0  0  0  0  0  0  0  0  0  0
   -1.8197   -0.6302   -2.1430 H   0  0  0  0  0  0  0  0  0  0  0  0
   -0.6417   -1.1806   -0.9372 H   0  0  0  0  0  0  0  0  0  0  0  0
   -4.3055    1.2475   -0.6720 H   0  0  0  0  0  0  0  0  0  0  0  0
   -4.9368    0.4140    0.7605 H   0  0  0  0  0  0  0  0  0  0  0  0
   -4.8865   -1.5911   -0.3426 H   0  0  0  0  0  0  0  0  0  0  0  0
   -4.2090   -0.8280   -1.7942 H   0  0  0  0  0  0  0  0  0  0  0  0
    0.3872    1.0305   -1.7487 H   0  0  0  0  0  0  0  0  0  0  0  0
    2.3425    2.1880   -1.3297 H   0  0  0  0  0  0  0  0  0  0  0  0
    1.9822    2.2595    0.4040 H   0  0  0  0  0  0  0  0  0  0  0  0
    4.1430    0.1263   -2.0108 H   0  0  0  0  0  0  0  0  0  0  0  0
    2.2275   -0.1574    1.7186 H   0  0  0  0  0  0  0  0  0  0  0  0
    5.0663   -1.9679   -0.4878 H   0  0  0  0  0  0  0  0  0  0  0  0
  1 12  2  0  0  0  0
  2 12  1  0  0  0  0
  2 13  1  0  0  0  0
  2 28  1  0  0  0  0
  3  4  1  0  0  0  0
  3 14  1  0  0  0  0
  3 32  1  0  0  0  0
  4 16  2  0  0  0  0
  5  7  1  0  0  0  0
  5  8  1  0  0  0  0
  5 10  1  0  0  0  0
  5 17  1  0  0  0  0
  6  7  1  0  0  0  0
  6  9  1  0  0  0  0
  6 11  1  0  0  0  0
  6 18  1  0  0  0  0
  7 19  1  0  0  0  0
  7 20  1  0  0  0  0
  8  9  1  0  0  0  0
  8 12  1  0  0  0  0
  8 21  1  0  0  0  0
  9 22  1  0  0  0  0
  9 23  1  0  0  0  0
 10 11  1  0  0  0  0
 10 24  1  0  0  0  0
 10 25  1  0  0  0  0
 11 26  1  0  0  0  0
 11 27  1  0  0  0  0
 13 14  1  0  0  0  0
 13 29  1  0  0  0  0
 13 30  1  0  0  0  0
 14 15  2  0  0  0  0
 15 16  1  0  0  0  0
 15 31  1  0  0  0  0
 16 33  1  0  0  0  0
M  END
> <PUBCHEM_COMPOUND_CID>
47205212

> <PUBCHEM_CONFORMER_RMSD>
0.6

> <PUBCHEM_CONFORMER_DIVERSEORDER>
1
32
181
211
110
116
152
100
143
70
131
53
150
91
144
48
126
115
105
109
141
210
151
52
149
16
222
128
33
146
132
27
218
58
180
216
140
51
136
7
174
158
59
30
145
9
19
208
57
217
86
193
15
160
154
89
17
10
139
196
26
204
106
230
213
12
34
121
188
18
29
87
206
65
214
159
11
165
220
161
31
166
6
69
182
215
228
129
80
60
122
205
125
153
92
219
67
167
195
28
133
184
94
198
8
223
103
79
221
90
138
84
197
112
75
226
20
156
93
96
88
164
85
212
157
148
25
63
229
55
37
173
5
82
202
66
111
99
183
162
142
199
54
176
98
124
45
21
227
225
35
200
23
135
38
46
120
194
178
95
186
104
118
207
40
101
224
72
130
171
169
201
209
39
175
189
44
56
187
83
73
179
147
127
47
102
172
170
137
71
123
155
114
42
192
117
163
203
191
22
24
41
168
177
14
61
97
74
190
134
76
4
36
13
185
43
78
50
68
81
3
77
2
62
64
108
113
49
107
119

> <PUBCHEM_MMFF94_PARTIAL_CHARGES>
14
1 -0.57
12 0.57
13 0.48
14 -0.33
15 -0.15
16 0.14
2 -0.73
28 0.37
3 0.3
31 0.15
32 0.27
33 0.15
4 -0.71
8 0.06

> <PUBCHEM_EFFECTIVE_ROTOR_COUNT>
5

> <PUBCHEM_PHARMACOPHORE_FEATURES>
6
1 1 acceptor
1 2 donor
1 3 donor
1 4 acceptor
5 3 4 14 15 16 rings
7 5 6 7 8 9 10 11 rings

> <PUBCHEM_HEAVY_ATOM_COUNT>
16

> <PUBCHEM_ATOM_DEF_STEREO_COUNT>
0

> <PUBCHEM_ATOM_UDEF_STEREO_COUNT>
3

> <PUBCHEM_BOND_DEF_STEREO_COUNT>
0

> <PUBCHEM_BOND_UDEF_STEREO_COUNT>
0

> <PUBCHEM_ISOTOPIC_ATOM_COUNT>
0

> <PUBCHEM_COMPONENT_COUNT>
1

> <PUBCHEM_CACTVS_TAUTO_COUNT>
4

> <PUBCHEM_CONFORMER_ID>
02D04B5C00000001

> <PUBCHEM_MMFF94_ENERGY>
30.7365

> <PUBCHEM_FEATURE_SELFOVERLAP>
30.446

> <PUBCHEM_SHAPE_FINGERPRINT>
10062212 137 18260269633871283071
10366900 7 15864064378014275342
10465860 250 17676207983053869289
10618630 7 18334011700928488996
11578080 2 18336847332695824288
11715629 250 8935008053008210824
11769659 78 18410294683433655484
12173636 292 11455905641390061427
12251169 10 15068628175499235340
12346177 29 18114470045252217653
124424 183 18040716965782547013
12553582 1 18273494598073356160
12633257 1 14923942345178574766
12670545 47 14923944509704629996
128620 24 11959727166103755109
13296908 3 18409169887555064388
15239191 94 18412543202124357198
15775835 57 9799692601610436622
17804303 29 18259983760584122061
17834072 8 18271813453606123565
1798214 20 18272373079022729278
1798214 55 10015864280091770254
18186145 218 15769776836063229420
19107657 9 9079116678590374510
19422 9 18410006598660453845
200 152 18410575084700015174
20291156 8 18411417328161261740
20645477 70 18342176626852365526
20671657 53 18343864420261730132
21250096 35 18408605863796327184
212916 134 16661191668262959819
22485316 2 18410576158515880668
2255824 54 18271238306009066932
22646028 28 18409167710038157518
22854114 59 5473140730200945964
23227448 37 11527072613560823518
23402539 116 17822014229410482493
23559900 14 18113902641417898712
23598291 2 18340753897329490292
3323516 105 17275101704423689547
351380 180 4895555151706266474
4028521 119 11887668481492495150
474 4 7204768198719298286
4921388 177 15697987501582639819
573450 72 18040995146503264025
6333272 397 6916257451191989724
633830 44 16271929298495682301
76465 3 17677624064321435031
94968 8 18273494568314540070
9882013 296 14418138391665812992

> <PUBCHEM_SHAPE_MULTIPOLES>
308.46
8.77
1.57
1.14
3.65
0
-0.14
3.42
0.5
0.3
-0.03
0.03
0.07
-0.55

> <PUBCHEM_SHAPE_SELFOVERLAP>
664.609

> <PUBCHEM_SHAPE_VOLUME>
174.7

> <PUBCHEM_COORDINATE_TYPE>
2
5
10

$$$$

