582771
  -OEChem-06241222443D

 51 54  0     0  0  0  0  0  0999 V2000
   -1.1505   -3.0957    0.4937 S   0  0  0  0  0  0  0  0  0  0  0  0
   -0.4294   -4.1849   -0.1440 O   0  0  0  0  0  0  0  0  0  0  0  0
   -1.9661   -3.3593    1.6675 O   0  0  0  0  0  0  0  0  0  0  0  0
   -2.1065   -2.3035   -0.6774 N   0  0  0  0  0  0  0  0  0  0  0  0
   -0.4909    1.5604   -1.7496 N   0  0  0  0  0  0  0  0  0  0  0  0
    3.8380    1.0528   -0.0050 N   0  0  0  0  0  0  0  0  0  0  0  0
   -3.5469   -0.3577   -1.1893 C   0  0  0  0  0  0  0  0  0  0  0  0
   -3.3030   -1.5548   -0.2672 C   0  0  0  0  0  0  0  0  0  0  0  0
   -2.3862    0.5931   -1.2011 C   0  0  0  0  0  0  0  0  0  0  0  0
    0.0065   -1.8467    0.9297 C   0  0  0  0  0  0  0  0  0  0  0  0
    1.0168   -1.4075    0.0587 C   0  0  0  0  0  0  0  0  0  0  0  0
    1.9089   -0.3959    0.4875 C   0  0  0  0  0  0  0  0  0  0  0  0
   -2.2119    1.6919   -0.3361 C   0  0  0  0  0  0  0  0  0  0  0  0
   -1.0042    2.2905   -0.7014 C   0  0  0  0  0  0  0  0  0  0  0  0
    2.9188    0.0435   -0.3837 C   0  0  0  0  0  0  0  0  0  0  0  0
   -1.3299    0.5236   -2.0586 C   0  0  0  0  0  0  0  0  0  0  0  0
   -0.1222   -1.2965    2.2053 C   0  0  0  0  0  0  0  0  0  0  0  0
    1.1611   -1.9497   -1.2288 C   0  0  0  0  0  0  0  0  0  0  0  0
    1.7644    0.1467    1.7749 C   0  0  0  0  0  0  0  0  0  0  0  0
    0.7548   -0.3017    2.6271 C   0  0  0  0  0  0  0  0  0  0  0  0
   -2.9513    2.2495    0.7258 C   0  0  0  0  0  0  0  0  0  0  0  0
    3.0476   -0.5064   -1.6595 C   0  0  0  0  0  0  0  0  0  0  0  0
    2.1703   -1.5010   -2.0812 C   0  0  0  0  0  0  0  0  0  0  0  0
   -0.4972    3.4237   -0.0555 C   0  0  0  0  0  0  0  0  0  0  0  0
   -2.4565    3.3828    1.3812 C   0  0  0  0  0  0  0  0  0  0  0  0
   -1.2480    3.9594    0.9950 C   0  0  0  0  0  0  0  0  0  0  0  0
    3.5391    2.4438   -0.2644 C   0  0  0  0  0  0  0  0  0  0  0  0
    5.0748    0.6996    0.6562 C   0  0  0  0  0  0  0  0  0  0  0  0
   -4.4582    0.1648   -0.8752 H   0  0  0  0  0  0  0  0  0  0  0  0
   -3.7300   -0.7142   -2.2115 H   0  0  0  0  0  0  0  0  0  0  0  0
   -4.1662   -2.2275   -0.3044 H   0  0  0  0  0  0  0  0  0  0  0  0
   -3.1929   -1.1986    0.7632 H   0  0  0  0  0  0  0  0  0  0  0  0
   -2.0962   -2.6548   -1.6428 H   0  0  0  0  0  0  0  0  0  0  0  0
   -1.0886   -0.1583   -2.8619 H   0  0  0  0  0  0  0  0  0  0  0  0
   -0.8954   -1.6109    2.8994 H   0  0  0  0  0  0  0  0  0  0  0  0
    0.3816    1.7590   -2.2195 H   0  0  0  0  0  0  0  0  0  0  0  0
    0.4990   -2.6975   -1.6464 H   0  0  0  0  0  0  0  0  0  0  0  0
    2.4261    0.9247    2.1473 H   0  0  0  0  0  0  0  0  0  0  0  0
    0.6530    0.1277    3.6195 H   0  0  0  0  0  0  0  0  0  0  0  0
   -3.8942    1.8118    1.0409 H   0  0  0  0  0  0  0  0  0  0  0  0
    3.8277   -0.1649   -2.3353 H   0  0  0  0  0  0  0  0  0  0  0  0
    2.2658   -1.9215   -3.0781 H   0  0  0  0  0  0  0  0  0  0  0  0
    0.4433    3.8729   -0.3555 H   0  0  0  0  0  0  0  0  0  0  0  0
   -3.0222    3.8168    2.2014 H   0  0  0  0  0  0  0  0  0  0  0  0
   -0.8820    4.8391    1.5182 H   0  0  0  0  0  0  0  0  0  0  0  0
    2.8593    2.8388    0.4973 H   0  0  0  0  0  0  0  0  0  0  0  0
    3.0685    2.5718   -1.2456 H   0  0  0  0  0  0  0  0  0  0  0  0
    4.4467    3.0570   -0.2584 H   0  0  0  0  0  0  0  0  0  0  0  0
    5.7768    0.2614   -0.0609 H   0  0  0  0  0  0  0  0  0  0  0  0
    4.9028   -0.0270    1.4577 H   0  0  0  0  0  0  0  0  0  0  0  0
    5.5556    1.5740    1.1077 H   0  0  0  0  0  0  0  0  0  0  0  0
  1  2  2  0  0  0  0
  1  3  2  0  0  0  0
  1  4  1  0  0  0  0
  1 10  1  0  0  0  0
  4  8  1  0  0  0  0
  4 33  1  0  0  0  0
  5 14  1  0  0  0  0
  5 16  1  0  0  0  0
  5 36  1  0  0  0  0
  6 15  1  0  0  0  0
  6 27  1  0  0  0  0
  6 28  1  0  0  0  0
  7  8  1  0  0  0  0
  7  9  1  0  0  0  0
  7 29  1  0  0  0  0
  7 30  1  0  0  0  0
  8 31  1  0  0  0  0
  8 32  1  0  0  0  0
  9 13  1  0  0  0  0
  9 16  2  0  0  0  0
 10 11  1  0  0  0  0
 10 17  2  0  0  0  0
 11 12  2  0  0  0  0
 11 18  1  0  0  0  0
 12 15  1  0  0  0  0
 12 19  1  0  0  0  0
 13 14  1  0  0  0  0
 13 21  2  0  0  0  0
 14 24  2  0  0  0  0
 15 22  2  0  0  0  0
 16 34  1  0  0  0  0
 17 20  1  0  0  0  0
 17 35  1  0  0  0  0
 18 23  2  0  0  0  0
 18 37  1  0  0  0  0
 19 20  2  0  0  0  0
 19 38  1  0  0  0  0
 20 39  1  0  0  0  0
 21 25  1  0  0  0  0
 21 40  1  0  0  0  0
 22 23  1  0  0  0  0
 22 41  1  0  0  0  0
 23 42  1  0  0  0  0
 24 26  1  0  0  0  0
 24 43  1  0  0  0  0
 25 26  2  0  0  0  0
 25 44  1  0  0  0  0
 26 45  1  0  0  0  0
 27 46  1  0  0  0  0
 27 47  1  0  0  0  0
 27 48  1  0  0  0  0
 28 49  1  0  0  0  0
 28 50  1  0  0  0  0
 28 51  1  0  0  0  0
M  END
> <PUBCHEM_COMPOUND_CID>
582771

> <PUBCHEM_CONFORMER_RMSD>
0.8

> <PUBCHEM_CONFORMER_DIVERSEORDER>
1
42
112
108
7
54
154
33
147
152
19
67
131
25
104
118
107
21
61
36
137
60
153
157
48
29
119
116
138
69
40
100
2
156
122
111
102
143
27
101
22
96
85
105
52
98
3
15
77
43
62
109
26
39
49
135
72
87
148
6
80
97
65
130
11
123
58
139
159
121
38
146
55
133
103
32
74
99
45
70
37
140
129
51
95
149
4
117
141
75
71
82
12
160
68
126
46
110
145
86
90
114
92
34
30
47
150
8
76
128
134
5
24
136
158
115
66
23
9
93
31
78
35
59
84
41
13
120
14
81
17
124
79
155
127
83
28
142
50
94
125
91
44
132
16
88
18
57
73
106
63
10
56
113
144
20
89
151
64
53

> <PUBCHEM_MMFF94_PARTIAL_CHARGES>
38
1 1.45
10 -0.01
14 -0.15
15 0.1
16 -0.3
17 -0.15
18 -0.15
19 -0.15
2 -0.65
20 -0.15
21 -0.15
22 -0.15
23 -0.15
24 -0.15
25 -0.15
26 -0.15
27 0.37
28 0.37
3 -0.65
33 0.42
34 0.15
35 0.15
36 0.27
37 0.15
38 0.15
39 0.15
4 -0.91
40 0.15
41 0.15
42 0.15
43 0.15
44 0.15
45 0.15
5 0.03
6 -0.84
7 0.18
8 0.36
9 -0.18

> <PUBCHEM_EFFECTIVE_ROTOR_COUNT>
6

> <PUBCHEM_PHARMACOPHORE_FEATURES>
10
1 2 acceptor
1 3 acceptor
1 4 donor
1 5 cation
1 5 donor
1 6 cation
5 5 9 13 14 16 rings
6 10 11 12 17 19 20 rings
6 11 12 15 18 22 23 rings
6 13 14 21 24 25 26 rings

> <PUBCHEM_HEAVY_ATOM_COUNT>
28

> <PUBCHEM_ATOM_DEF_STEREO_COUNT>
0

> <PUBCHEM_ATOM_UDEF_STEREO_COUNT>
0

> <PUBCHEM_BOND_DEF_STEREO_COUNT>
0

> <PUBCHEM_BOND_UDEF_STEREO_COUNT>
0

> <PUBCHEM_ISOTOPIC_ATOM_COUNT>
0

> <PUBCHEM_COMPONENT_COUNT>
1

> <PUBCHEM_CACTVS_TAUTO_COUNT>
1

> <PUBCHEM_CONFORMER_ID>
0008E47300000001

> <PUBCHEM_MMFF94_ENERGY>
78.6373

> <PUBCHEM_FEATURE_SELFOVERLAP>
50.88

> <PUBCHEM_SHAPE_FINGERPRINT>
10119406 146 18196365048141012510
10165383 225 17763997543890909052
1100329 8 18267867177530407821
11578080 2 17978751819425550294
11640471 11 17418104229645225734
12156800 1 17543295620190501369
12422481 6 17041508023809424768
12741549 16 17825942620562208115
12788726 201 18334871532202146097
128993 33 17829897881635483489
13965767 371 17556869340227357956
14713325 29 18336261263396548314
14787075 74 18267596710375412525
151778 21 17325758674985951177
15664445 248 16305204884355864317
17492 54 17844833415869838815
18981168 100 17762071225542134541
19930381 70 16462486440278669313
20465049 17 17323498061888448085
20715895 44 16621846881724477317
20905425 154 17263287233140578511
23419403 2 17478629909628923671
23557571 272 18339920394864805470
23559900 14 16971677495506950449
2818148 4 17689149437171810079
35225 105 18056229962132046910
392239 28 18411693271104330313
469060 322 17317625188153882902
5265222 85 16038017751742149597
5845 1 10902620167285183846
6287921 2 17909808161938459041
81228 2 17916567753299289598

> <PUBCHEM_SHAPE_MULTIPOLES>
553.39
5.94
4.82
2.14
3.77
0.37
-0.39
-3.35
0.83
-2.86
-1.27
0.21
0.44
-0.12

> <PUBCHEM_SHAPE_SELFOVERLAP>
1201.792

> <PUBCHEM_SHAPE_VOLUME>
305

> <PUBCHEM_COORDINATE_TYPE>
2
5
10

$$$$

