17395371
  -OEChem-06241222493D

 41 43  0     1  0  0  0  0  0999 V2000
    0.1511   -2.8916    0.8845 S   0  0  0  0  0  0  0  0  0  0  0  0
   -2.5580   -1.4082    1.3640 O   0  0  0  0  0  0  0  0  0  0  0  0
   -3.1474    3.0738   -0.6619 O   0  0  0  0  0  0  0  0  0  0  0  0
    2.4965   -1.5128    1.0720 N   0  0  0  0  0  0  0  0  0  0  0  0
    1.1395   -0.7034   -0.4914 N   0  0  0  0  0  0  0  0  0  0  0  0
   -1.9114   -0.2189   -0.5540 N   0  0  0  0  0  0  0  0  0  0  0  0
   -2.4118    2.0375   -1.2241 N   0  0  0  0  0  0  0  0  0  0  0  0
   -1.1982   -2.5103   -0.2901 C   0  0  1  0  0  0  0  0  0  0  0  0
   -2.0788   -3.7518   -0.4729 C   0  0  0  0  0  0  0  0  0  0  0  0
    3.1664   -0.4514    0.5196 C   0  0  0  0  0  0  0  0  0  0  0  0
    1.2915   -1.6229    0.4354 C   0  0  0  0  0  0  0  0  0  0  0  0
    2.2987    0.0368   -0.4536 C   0  0  0  0  0  0  0  0  0  0  0  0
   -1.9670   -1.3235    0.2907 C   0  0  0  0  0  0  0  0  0  0  0  0
   -3.2458   -3.4867   -1.4175 C   0  0  0  0  0  0  0  0  0  0  0  0
    4.4186    0.1066    0.7795 C   0  0  0  0  0  0  0  0  0  0  0  0
    4.7888    1.2109    0.0049 C   0  0  0  0  0  0  0  0  0  0  0  0
    2.6870    1.1469   -1.2226 C   0  0  0  0  0  0  0  0  0  0  0  0
    3.9399    1.7232   -0.9788 C   0  0  0  0  0  0  0  0  0  0  0  0
   -2.5183    1.0275   -0.3560 C   0  0  0  0  0  0  0  0  0  0  0  0
    6.1170    1.8539    0.2365 C   0  0  0  0  0  0  0  0  0  0  0  0
   -3.3013    1.3646    0.7615 C   0  0  0  0  0  0  0  0  0  0  0  0
   -3.6722    2.6610    0.5201 C   0  0  0  0  0  0  0  0  0  0  0  0
   -4.4848    3.6388    1.2542 C   0  0  0  0  0  0  0  0  0  0  0  0
   -0.7637   -2.2659   -1.2657 H   0  0  0  0  0  0  0  0  0  0  0  0
   -2.4887   -4.0851    0.4890 H   0  0  0  0  0  0  0  0  0  0  0  0
   -1.4823   -4.5790   -0.8776 H   0  0  0  0  0  0  0  0  0  0  0  0
    2.8326   -2.1083    1.8170 H   0  0  0  0  0  0  0  0  0  0  0  0
   -3.8150   -4.4082   -1.5772 H   0  0  0  0  0  0  0  0  0  0  0  0
   -3.9328   -2.7388   -1.0100 H   0  0  0  0  0  0  0  0  0  0  0  0
   -2.8901   -3.1360   -2.3916 H   0  0  0  0  0  0  0  0  0  0  0  0
    5.0671   -0.3002    1.5479 H   0  0  0  0  0  0  0  0  0  0  0  0
    2.0340    1.5528   -1.9887 H   0  0  0  0  0  0  0  0  0  0  0  0
    4.2433    2.5841   -1.5705 H   0  0  0  0  0  0  0  0  0  0  0  0
   -1.3826   -0.2833   -1.4198 H   0  0  0  0  0  0  0  0  0  0  0  0
    6.0117    2.6918    0.9326 H   0  0  0  0  0  0  0  0  0  0  0  0
    6.8367    1.1415    0.6538 H   0  0  0  0  0  0  0  0  0  0  0  0
    6.5423    2.2256   -0.7021 H   0  0  0  0  0  0  0  0  0  0  0  0
   -3.5754    0.7822    1.6276 H   0  0  0  0  0  0  0  0  0  0  0  0
   -4.8625    3.2156    2.1901 H   0  0  0  0  0  0  0  0  0  0  0  0
   -5.3439    3.9535    0.6538 H   0  0  0  0  0  0  0  0  0  0  0  0
   -3.8922    4.5258    1.4985 H   0  0  0  0  0  0  0  0  0  0  0  0
  1  8  1  0  0  0  0
  1 11  1  0  0  0  0
  2 13  2  0  0  0  0
  3  7  1  0  0  0  0
  3 22  1  0  0  0  0
  4 10  1  0  0  0  0
  4 11  1  0  0  0  0
  4 27  1  0  0  0  0
  5 11  2  0  0  0  0
  5 12  1  0  0  0  0
  6 13  1  0  0  0  0
  6 19  1  0  0  0  0
  6 34  1  0  0  0  0
  7 19  2  0  0  0  0
  8  9  1  0  0  0  0
  8 13  1  0  0  0  0
  8 24  1  0  0  0  0
  9 14  1  0  0  0  0
  9 25  1  0  0  0  0
  9 26  1  0  0  0  0
 10 12  2  0  0  0  0
 10 15  1  0  0  0  0
 12 17  1  0  0  0  0
 14 28  1  0  0  0  0
 14 29  1  0  0  0  0
 14 30  1  0  0  0  0
 15 16  2  0  0  0  0
 15 31  1  0  0  0  0
 16 18  1  0  0  0  0
 16 20  1  0  0  0  0
 17 18  2  0  0  0  0
 17 32  1  0  0  0  0
 18 33  1  0  0  0  0
 19 21  1  0  0  0  0
 20 35  1  0  0  0  0
 20 36  1  0  0  0  0
 20 37  1  0  0  0  0
 21 22  2  0  0  0  0
 21 38  1  0  0  0  0
 22 23  1  0  0  0  0
 23 39  1  0  0  0  0
 23 40  1  0  0  0  0
 23 41  1  0  0  0  0
M  END
> <PUBCHEM_COMPOUND_CID>
17395371

> <PUBCHEM_CONFORMER_RMSD>
0.8

> <PUBCHEM_CONFORMER_DIVERSEORDER>
1
50
71
46
93
5
89
47
111
32
86
52
107
88
82
60
124
17
44
81
84
14
100
69
128
116
127
68
33
108
113
66
98
73
114
94
9
12
20
4
49
119
25
126
45
130
22
109
65
40
112
72
120
83
31
51
15
85
28
63
80
26
97
91
103
99
117
77
70
24
79
10
11
92
115
75
90
121
106
74
58
7
8
27
42
30
36
53
87
43
29
48
56
110
3
13
41
34
54
62
105
35
67
64
55
129
37
123
122
96
6
78
2
38
76
61
102
39
125
95
19
21
59
101
118
18
16
57
23
104

> <PUBCHEM_MMFF94_PARTIAL_CHARGES>
27
1 -0.29
10 -0.15
11 0.24
12 0.23
13 0.57
15 -0.15
16 -0.14
17 -0.15
18 -0.15
19 0.35
2 -0.57
20 0.14
21 -0.15
22 -0.04
23 0.18
27 0.27
3 -0.02
31 0.15
32 0.15
33 0.15
34 0.37
38 0.15
4 0.03
5 -0.57
6 -0.49
7 -0.41
8 0.29

> <PUBCHEM_EFFECTIVE_ROTOR_COUNT>
6

> <PUBCHEM_PHARMACOPHORE_FEATURES>
8
1 14 hydrophobe
1 2 acceptor
1 4 donor
1 6 donor
3 4 5 11 cation
5 3 7 19 21 22 rings
5 4 5 10 11 12 rings
6 10 12 15 16 17 18 rings

> <PUBCHEM_HEAVY_ATOM_COUNT>
23

> <PUBCHEM_ATOM_DEF_STEREO_COUNT>
0

> <PUBCHEM_ATOM_UDEF_STEREO_COUNT>
1

> <PUBCHEM_BOND_DEF_STEREO_COUNT>
0

> <PUBCHEM_BOND_UDEF_STEREO_COUNT>
0

> <PUBCHEM_ISOTOPIC_ATOM_COUNT>
0

> <PUBCHEM_COMPONENT_COUNT>
1

> <PUBCHEM_CACTVS_TAUTO_COUNT>
6

> <PUBCHEM_CONFORMER_ID>
01096EAB00000001

> <PUBCHEM_MMFF94_ENERGY>
34.4669

> <PUBCHEM_FEATURE_SELFOVERLAP>
40.701

> <PUBCHEM_SHAPE_FINGERPRINT>
10493431 412 18411412947152825129
10670039 82 18200303305027243276
10871710 139 18340764824121585695
10937287 8 18263926708097197249
11045515 52 17839191710081262207
12107183 9 18269004257569587962
12293681 160 18054812601845805903
12390115 104 18340475712840631308
12403260 363 18126009265530777372
12788726 201 18264223447630914255
13140716 1 18199748209857109290
13583140 156 17458921331822402506
13944108 23 17187551188619146308
13965767 371 17987798664895977524
14142880 1 18343865502804160463
14251764 75 18117831316755104361
14294032 229 18333724707261818187
14363568 33 17692244561934806374
15342168 16 18192991741412399193
16988056 13 17040350792316201653
18785283 64 17906445885704337371
21033650 10 18195223569912546638
22182937 141 18411132541485444489
23402539 116 18122629353412092470
23558518 356 18343299249736922194
283562 15 18268437840897485451
445580 125 18410006655138450956
469060 322 18055614158453493747
474 4 18049163573110420633
49207404 50 17912904357039531201
5048184 11 18411698819948972660
5104073 3 18202290195584714224
633830 44 17898853719243819517
7064713 232 18341894112647095404
7808743 9 18409167701464209808

> <PUBCHEM_SHAPE_MULTIPOLES>
445.52
10.54
4.89
1.23
10.97
0.56
0.05
-9.36
-0.79
-8.11
0.03
-0.4
0.02
-2.05

> <PUBCHEM_SHAPE_SELFOVERLAP>
939.934

> <PUBCHEM_SHAPE_VOLUME>
253.4

> <PUBCHEM_COORDINATE_TYPE>
2
5
10

$$$$

