17396090
  -OEChem-06241222542D

 34 35  0     0  0  0  0  0  0999 V2000
    5.4641   -3.7694    0.0000 F   0  0  0  0  0  0  0  0  0  0  0  0
    2.0000   -3.7694    0.0000 F   0  0  0  0  0  0  0  0  0  0  0  0
    3.7320    1.2306    0.0000 O   0  0  0  0  0  0  0  0  0  0  0  0
    5.4641    1.2306    0.0000 N   0  0  0  0  0  0  0  0  0  0  0  0
    3.7320   -0.7694    0.0000 N   0  0  0  0  0  0  0  0  0  0  0  0
    5.4641    2.2306    0.0000 C   0  0  0  0  0  0  0  0  0  0  0  0
    6.2731    2.8184    0.0000 C   0  0  0  0  0  0  0  0  0  0  0  0
    4.6551    2.8184    0.0000 C   0  0  0  0  0  0  0  0  0  0  0  0
    5.9641    3.7694    0.0000 C   0  0  0  0  0  0  0  0  0  0  0  0
    4.9641    3.7694    0.0000 C   0  0  0  0  0  0  0  0  0  0  0  0
    4.5981    0.7306    0.0000 C   0  0  0  0  0  0  0  0  0  0  0  0
    4.5981   -0.2694    0.0000 C   0  0  0  0  0  0  0  0  0  0  0  0
    3.7320   -1.7694    0.0000 C   0  0  0  0  0  0  0  0  0  0  0  0
    2.8660   -2.2694    0.0000 C   0  0  0  0  0  0  0  0  0  0  0  0
    4.5981   -2.2694    0.0000 C   0  0  0  0  0  0  0  0  0  0  0  0
    4.5981   -3.2694    0.0000 C   0  0  0  0  0  0  0  0  0  0  0  0
    2.8660   -3.2694    0.0000 C   0  0  0  0  0  0  0  0  0  0  0  0
    3.7320   -3.7694    0.0000 C   0  0  0  0  0  0  0  0  0  0  0  0
    6.0165    1.9491    0.0000 H   0  0  0  0  0  0  0  0  0  0  0  0
    6.5831    2.2814    0.0000 H   0  0  0  0  0  0  0  0  0  0  0  0
    6.8395    3.0705    0.0000 H   0  0  0  0  0  0  0  0  0  0  0  0
    4.0887    3.0705    0.0000 H   0  0  0  0  0  0  0  0  0  0  0  0
    4.3451    2.2814    0.0000 H   0  0  0  0  0  0  0  0  0  0  0  0
    6.5706    3.8983    0.0000 H   0  0  0  0  0  0  0  0  0  0  0  0
    5.8993    4.3860    0.0000 H   0  0  0  0  0  0  0  0  0  0  0  0
    5.0289    4.3860    0.0000 H   0  0  0  0  0  0  0  0  0  0  0  0
    4.3576    3.8983    0.0000 H   0  0  0  0  0  0  0  0  0  0  0  0
    6.0010    0.9206    0.0000 H   0  0  0  0  0  0  0  0  0  0  0  0
    4.8101   -0.8520    0.0000 H   0  0  0  0  0  0  0  0  0  0  0  0
    5.2087   -0.1618    0.0000 H   0  0  0  0  0  0  0  0  0  0  0  0
    3.1951   -0.4594    0.0000 H   0  0  0  0  0  0  0  0  0  0  0  0
    2.3291   -1.9594    0.0000 H   0  0  0  0  0  0  0  0  0  0  0  0
    5.1350   -1.9594    0.0000 H   0  0  0  0  0  0  0  0  0  0  0  0
    3.7320   -4.3894    0.0000 H   0  0  0  0  0  0  0  0  0  0  0  0
  1 16  1  0  0  0  0
  2 17  1  0  0  0  0
  3 11  2  0  0  0  0
  4  6  1  0  0  0  0
  4 11  1  0  0  0  0
  4 28  1  0  0  0  0
  5 12  1  0  0  0  0
  5 13  1  0  0  0  0
  5 31  1  0  0  0  0
  6  7  1  0  0  0  0
  6  8  1  0  0  0  0
  6 19  1  0  0  0  0
  7  9  1  0  0  0  0
  7 20  1  0  0  0  0
  7 21  1  0  0  0  0
  8 10  1  0  0  0  0
  8 22  1  0  0  0  0
  8 23  1  0  0  0  0
  9 10  1  0  0  0  0
  9 24  1  0  0  0  0
  9 25  1  0  0  0  0
 10 26  1  0  0  0  0
 10 27  1  0  0  0  0
 11 12  1  0  0  0  0
 12 29  1  0  0  0  0
 12 30  1  0  0  0  0
 13 14  2  0  0  0  0
 13 15  1  0  0  0  0
 14 17  1  0  0  0  0
 14 32  1  0  0  0  0
 15 16  2  0  0  0  0
 15 33  1  0  0  0  0
 16 18  1  0  0  0  0
 17 18  2  0  0  0  0
 18 34  1  0  0  0  0
M  END
> <PUBCHEM_COMPOUND_CID>
17396090

> <PUBCHEM_COMPOUND_CANONICALIZED>
1

> <PUBCHEM_CACTVS_COMPLEXITY>
272

> <PUBCHEM_CACTVS_HBOND_ACCEPTOR>
4

> <PUBCHEM_CACTVS_HBOND_DONOR>
2

> <PUBCHEM_CACTVS_ROTATABLE_BOND>
4

> <PUBCHEM_CACTVS_SUBSKEYS>
AAADceBzIYAAAAAAAAAAAAAAAAAAAYAAAAAwAAAAAAAAAAABAAAAHwAQAAAACCjBkAwwwILAAACIACVSUACCAAAhAgAAiICIZIgIYCLAkbGUIAhglgDIyAcQAAAAAAAAAAAAAAAAAAAAAAAAAAAAAAAAAA==

> <PUBCHEM_IUPAC_OPENEYE_NAME>
N-cyclopentyl-2-(3,5-difluoroanilino)acetamide

> <PUBCHEM_IUPAC_CAS_NAME>
N-cyclopentyl-2-(3,5-difluoroanilino)acetamide

> <PUBCHEM_IUPAC_NAME>
N-cyclopentyl-2-(3,5-difluoroanilino)acetamide

> <PUBCHEM_IUPAC_SYSTEMATIC_NAME>
2-[[3,5-bis(fluoranyl)phenyl]amino]-N-cyclopentyl-ethanamide

> <PUBCHEM_IUPAC_TRADITIONAL_NAME>
N-cyclopentyl-2-(3,5-difluoroanilino)acetamide

> <PUBCHEM_IUPAC_INCHI>
InChI=1S/C13H16F2N2O/c14-9-5-10(15)7-12(6-9)16-8-13(18)17-11-3-1-2-4-11/h5-7,11,16H,1-4,8H2,(H,17,18)

> <PUBCHEM_IUPAC_INCHIKEY>
UIBPQIWLZOLWAO-UHFFFAOYSA-N

> <PUBCHEM_XLOGP3_AA>
2.7

> <PUBCHEM_EXACT_MASS>
254.12307

> <PUBCHEM_MOLECULAR_FORMULA>
C13H16F2N2O

> <PUBCHEM_MOLECULAR_WEIGHT>
254.275746

> <PUBCHEM_OPENEYE_CAN_SMILES>
C1CCC(C1)NC(=O)CNC2=CC(=CC(=C2)F)F

> <PUBCHEM_OPENEYE_ISO_SMILES>
C1CCC(C1)NC(=O)CNC2=CC(=CC(=C2)F)F

> <PUBCHEM_CACTVS_TPSA>
41.1

> <PUBCHEM_MONOISOTOPIC_WEIGHT>
254.12307

> <PUBCHEM_TOTAL_CHARGE>
0

> <PUBCHEM_HEAVY_ATOM_COUNT>
18

> <PUBCHEM_ATOM_DEF_STEREO_COUNT>
0

> <PUBCHEM_ATOM_UDEF_STEREO_COUNT>
0

> <PUBCHEM_BOND_DEF_STEREO_COUNT>
0

> <PUBCHEM_BOND_UDEF_STEREO_COUNT>
0

> <PUBCHEM_ISOTOPIC_ATOM_COUNT>
0

> <PUBCHEM_COMPONENT_COUNT>
1

> <PUBCHEM_CACTVS_TAUTO_COUNT>
2

> <PUBCHEM_COORDINATE_TYPE>
1
5
255

> <PUBCHEM_BONDANNOTATIONS>
13  14  8
13  15  8
14  17  8
15  16  8
16  18  8
17  18  8

$$$$

