47205660
  -OEChem-06241222593D

 38 38  0     0  0  0  0  0  0999 V2000
   -3.6170    0.4081   -1.3570 O   0  0  0  0  0  0  0  0  0  0  0  0
   -0.7487   -0.6434    0.6533 O   0  0  0  0  0  0  0  0  0  0  0  0
   -2.9839    0.8508    0.8321 N   0  0  0  0  0  0  0  0  0  0  0  0
    0.5795    1.2195    0.1202 N   0  0  0  0  0  0  0  0  0  0  0  0
   -5.0402   -0.3372    0.4543 C   0  0  0  0  0  0  0  0  0  0  0  0
    4.4105   -0.4476   -0.3542 C   0  0  0  0  0  0  0  0  0  0  0  0
   -5.9741   -0.9093   -0.6082 C   0  0  0  0  0  0  0  0  0  0  0  0
    1.8687    0.6581   -0.0392 C   0  0  0  0  0  0  0  0  0  0  0  0
    5.7691   -1.0393   -0.5232 C   0  0  0  0  0  0  0  0  0  0  0  0
   -1.7555    1.5392    0.5138 C   0  0  0  0  0  0  0  0  0  0  0  0
   -3.8207    0.3372   -0.1479 C   0  0  0  0  0  0  0  0  0  0  0  0
    3.3295   -1.2660   -0.0264 C   0  0  0  0  0  0  0  0  0  0  0  0
    4.2204    0.9238   -0.5244 C   0  0  0  0  0  0  0  0  0  0  0  0
    2.0587   -0.7133    0.1311 C   0  0  0  0  0  0  0  0  0  0  0  0
    2.9496    1.4766   -0.3669 C   0  0  0  0  0  0  0  0  0  0  0  0
   -0.6012    0.5560    0.4433 C   0  0  0  0  0  0  0  0  0  0  0  0
   -7.2030   -1.5498    0.0161 C   0  0  0  0  0  0  0  0  0  0  0  0
    6.5585   -1.0635    0.7832 C   0  0  0  0  0  0  0  0  0  0  0  0
   -5.5737    0.4029    1.0628 H   0  0  0  0  0  0  0  0  0  0  0  0
   -4.6964   -1.1373    1.1208 H   0  0  0  0  0  0  0  0  0  0  0  0
   -5.4421   -1.6553   -1.2105 H   0  0  0  0  0  0  0  0  0  0  0  0
   -6.2912   -0.1153   -1.2948 H   0  0  0  0  0  0  0  0  0  0  0  0
    6.3317   -0.4755   -1.2778 H   0  0  0  0  0  0  0  0  0  0  0  0
    5.6867   -2.0599   -0.9174 H   0  0  0  0  0  0  0  0  0  0  0  0
   -1.5655    2.2684    1.3073 H   0  0  0  0  0  0  0  0  0  0  0  0
   -1.8563    2.0576   -0.4453 H   0  0  0  0  0  0  0  0  0  0  0  0
    3.4661   -2.3356    0.1104 H   0  0  0  0  0  0  0  0  0  0  0  0
    5.0548    1.5724   -0.7781 H   0  0  0  0  0  0  0  0  0  0  0  0
    1.2725   -1.4102    0.3851 H   0  0  0  0  0  0  0  0  0  0  0  0
    2.8153    2.5468   -0.5020 H   0  0  0  0  0  0  0  0  0  0  0  0
   -3.2249    0.7285    1.8115 H   0  0  0  0  0  0  0  0  0  0  0  0
    0.5277    2.2262   -0.0212 H   0  0  0  0  0  0  0  0  0  0  0  0
   -7.7759   -0.8181    0.5946 H   0  0  0  0  0  0  0  0  0  0  0  0
   -7.8570   -1.9539   -0.7630 H   0  0  0  0  0  0  0  0  0  0  0  0
   -6.9212   -2.3711    0.6828 H   0  0  0  0  0  0  0  0  0  0  0  0
    6.6974   -0.0524    1.1807 H   0  0  0  0  0  0  0  0  0  0  0  0
    7.5472   -1.5034    0.6190 H   0  0  0  0  0  0  0  0  0  0  0  0
    6.0438   -1.6576    1.5460 H   0  0  0  0  0  0  0  0  0  0  0  0
  1 11  2  0  0  0  0
  2 16  2  0  0  0  0
  3 10  1  0  0  0  0
  3 11  1  0  0  0  0
  3 31  1  0  0  0  0
  4  8  1  0  0  0  0
  4 16  1  0  0  0  0
  4 32  1  0  0  0  0
  5  7  1  0  0  0  0
  5 11  1  0  0  0  0
  5 19  1  0  0  0  0
  5 20  1  0  0  0  0
  6  9  1  0  0  0  0
  6 12  2  0  0  0  0
  6 13  1  0  0  0  0
  7 17  1  0  0  0  0
  7 21  1  0  0  0  0
  7 22  1  0  0  0  0
  8 14  2  0  0  0  0
  8 15  1  0  0  0  0
  9 18  1  0  0  0  0
  9 23  1  0  0  0  0
  9 24  1  0  0  0  0
 10 16  1  0  0  0  0
 10 25  1  0  0  0  0
 10 26  1  0  0  0  0
 12 14  1  0  0  0  0
 12 27  1  0  0  0  0
 13 15  2  0  0  0  0
 13 28  1  0  0  0  0
 14 29  1  0  0  0  0
 15 30  1  0  0  0  0
 17 33  1  0  0  0  0
 17 34  1  0  0  0  0
 17 35  1  0  0  0  0
 18 36  1  0  0  0  0
 18 37  1  0  0  0  0
 18 38  1  0  0  0  0
M  END
> <PUBCHEM_COMPOUND_CID>
47205660

> <PUBCHEM_CONFORMER_RMSD>
0.8

> <PUBCHEM_CONFORMER_DIVERSEORDER>
1
103
24
67
89
101
32
4
12
69
96
25
107
64
38
85
53
50
55
27
59
108
110
58
109
18
94
23
39
56
43
11
88
102
79
78
28
113
80
3
45
93
61
19
29
44
10
36
106
54
46
77
100
9
105
51
70
97
20
48
13
87
8
57
82
76
49
14
66
99
65
90
104
26
111
47
33
40
41
86
37
98
95
84
21
83
81
68
91
74
7
62
112
5
35
2
22
60
15
52
92
63
34
71
31
73
42
30
16
6
72
17
75

> <PUBCHEM_MMFF94_PARTIAL_CHARGES>
21
1 -0.57
10 0.36
11 0.57
12 -0.15
13 -0.15
14 -0.15
15 -0.15
16 0.57
2 -0.57
27 0.15
28 0.15
29 0.15
3 -0.73
30 0.15
31 0.37
32 0.37
4 -0.55
5 0.06
6 -0.14
8 0.12
9 0.14

> <PUBCHEM_EFFECTIVE_ROTOR_COUNT>
8

> <PUBCHEM_PHARMACOPHORE_FEATURES>
7
1 1 acceptor
1 17 hydrophobe
1 18 hydrophobe
1 2 acceptor
1 3 donor
1 4 donor
6 6 8 12 13 14 15 rings

> <PUBCHEM_HEAVY_ATOM_COUNT>
18

> <PUBCHEM_ATOM_DEF_STEREO_COUNT>
0

> <PUBCHEM_ATOM_UDEF_STEREO_COUNT>
0

> <PUBCHEM_BOND_DEF_STEREO_COUNT>
0

> <PUBCHEM_BOND_UDEF_STEREO_COUNT>
0

> <PUBCHEM_ISOTOPIC_ATOM_COUNT>
0

> <PUBCHEM_COMPONENT_COUNT>
1

> <PUBCHEM_CACTVS_TAUTO_COUNT>
4

> <PUBCHEM_CONFORMER_ID>
02D04D1C00000001

> <PUBCHEM_MMFF94_ENERGY>
35.0452

> <PUBCHEM_FEATURE_SELFOVERLAP>
35.52

> <PUBCHEM_SHAPE_FINGERPRINT>
10 15 7348891092462465983
106641 1 18334304163333603898
10670039 82 14907908214112336359
11089746 13 12247673851118095863
117890 112 10519989253246194135
12166972 35 18131347496856411836
12236239 1 18187642517989140049
12616971 3 17022910025201601933
13167823 11 18259702324003673789
13288520 33 18260265270163274673
13533116 47 18334856091562452496
13668630 136 18409728477921651102
13862211 1 18341894138827933682
1420 363 18113053843931172526
14251764 18 18410571778187133488
14350574 20 18412262826828033885
14576447 43 18411699911144693186
15048467 5 10159697988669036327
15183329 4 15985109642832772600
17834072 33 18408319978115089444
19489759 90 15985101933456244389
200 152 18333731342406138808
20028762 73 18333449850498083230
20281389 69 9295292720305001599
20526848 3 10231757799216310471
20567600 234 18115039524278687360
20621476 66 8502360149380563074
20645477 70 18412821413242524934
21054139 6 18412547621556553762
21150785 3 17489583442175806790
21267235 1 18261385663684563198
21637258 2 17822016372493142069
221357 26 18060423512523795781
22224240 67 14562532877697527037
23035841 295 18408602548714752891
23402539 116 18337109067838668936
23559900 14 18059009463192563937
2767999 5 12319743549001468679
293599 30 10519984859457805025
29717793 49 18409443704510056604
3004659 81 18272373061805787489
312425 54 14056993906920005063
351380 3 18113338596490111239
465052 167 18041274379433148039
7495541 125 17603868870904915649

> <PUBCHEM_SHAPE_MULTIPOLES>
348.73
17.63
1.55
0.87
12.42
0.08
0.06
-9.96
1.09
-0.13
-0.04
0.15
0.02
-0.55

> <PUBCHEM_SHAPE_SELFOVERLAP>
700.263

> <PUBCHEM_SHAPE_VOLUME>
203.7

> <PUBCHEM_COORDINATE_TYPE>
2
5
10

$$$$

