9148
  -OEChem-06261203273D

 24 27  0     0  0  0  0  0  0999 V2000
    0.0000   -2.0741    0.0000 N   0  0  0  0  0  0  0  0  0  0  0  0
   -0.7009    0.0220    0.0002 C   0  0  0  0  0  0  0  0  0  0  0  0
    0.7010    0.0219    0.0002 C   0  0  0  0  0  0  0  0  0  0  0  0
   -1.1421   -1.2855    0.0001 C   0  0  0  0  0  0  0  0  0  0  0  0
    1.1420   -1.2855    0.0001 C   0  0  0  0  0  0  0  0  0  0  0  0
   -1.5369    1.1386    0.0002 C   0  0  0  0  0  0  0  0  0  0  0  0
    1.5371    1.1386   -0.0001 C   0  0  0  0  0  0  0  0  0  0  0  0
   -0.7237    2.3398    0.0001 C   0  0  0  0  0  0  0  0  0  0  0  0
    0.7239    2.3398   -0.0002 C   0  0  0  0  0  0  0  0  0  0  0  0
   -2.5093   -1.5701   -0.0002 C   0  0  0  0  0  0  0  0  0  0  0  0
    2.5091   -1.5704    0.0000 C   0  0  0  0  0  0  0  0  0  0  0  0
   -2.9318    0.8606   -0.0001 C   0  0  0  0  0  0  0  0  0  0  0  0
    2.9318    0.8604   -0.0001 C   0  0  0  0  0  0  0  0  0  0  0  0
   -3.3912   -0.4681   -0.0002 C   0  0  0  0  0  0  0  0  0  0  0  0
    3.3911   -0.4681   -0.0001 C   0  0  0  0  0  0  0  0  0  0  0  0
   -0.0001   -3.0846   -0.0002 H   0  0  0  0  0  0  0  0  0  0  0  0
   -1.2324    3.3040   -0.0001 H   0  0  0  0  0  0  0  0  0  0  0  0
    1.2327    3.3040   -0.0003 H   0  0  0  0  0  0  0  0  0  0  0  0
   -2.8820   -2.5881   -0.0004 H   0  0  0  0  0  0  0  0  0  0  0  0
    2.8818   -2.5884   -0.0001 H   0  0  0  0  0  0  0  0  0  0  0  0
   -3.6453    1.6802   -0.0003 H   0  0  0  0  0  0  0  0  0  0  0  0
    3.6453    1.6800   -0.0003 H   0  0  0  0  0  0  0  0  0  0  0  0
   -4.4632   -0.6549   -0.0004 H   0  0  0  0  0  0  0  0  0  0  0  0
    4.4630   -0.6550   -0.0002 H   0  0  0  0  0  0  0  0  0  0  0  0
  1  4  1  0  0  0  0
  1  5  1  0  0  0  0
  1 16  1  0  0  0  0
  2  3  1  0  0  0  0
  2  4  1  0  0  0  0
  2  6  2  0  0  0  0
  3  5  1  0  0  0  0
  3  7  2  0  0  0  0
  4 10  2  0  0  0  0
  5 11  2  0  0  0  0
  6  8  1  0  0  0  0
  6 12  1  0  0  0  0
  7  9  1  0  0  0  0
  7 13  1  0  0  0  0
  8  9  2  0  0  0  0
  8 17  1  0  0  0  0
  9 18  1  0  0  0  0
 10 14  1  0  0  0  0
 10 19  1  0  0  0  0
 11 15  1  0  0  0  0
 11 20  1  0  0  0  0
 12 14  2  0  0  0  0
 12 21  1  0  0  0  0
 13 15  2  0  0  0  0
 13 22  1  0  0  0  0
 14 23  1  0  0  0  0
 15 24  1  0  0  0  0
M  END
> <PUBCHEM_COMPOUND_CID>
9148

> <PUBCHEM_CONFORMER_RMSD>
0.4

> <PUBCHEM_CONFORMER_DIVERSEORDER>
1

> <PUBCHEM_MMFF94_PARTIAL_CHARGES>
20
1 0.03
10 -0.15
11 -0.15
12 -0.15
13 -0.15
14 -0.15
15 -0.15
16 0.27
17 0.15
18 0.15
19 0.15
20 0.15
21 0.15
22 0.15
23 0.15
24 0.15
4 -0.15
5 -0.15
8 -0.15
9 -0.15

> <PUBCHEM_EFFECTIVE_ROTOR_COUNT>
0

> <PUBCHEM_PHARMACOPHORE_FEATURES>
6
1 1 cation
1 1 donor
5 1 2 3 4 5 rings
6 2 3 6 7 8 9 rings
6 2 4 6 10 12 14 rings
6 3 5 7 11 13 15 rings

> <PUBCHEM_HEAVY_ATOM_COUNT>
15

> <PUBCHEM_ATOM_DEF_STEREO_COUNT>
0

> <PUBCHEM_ATOM_UDEF_STEREO_COUNT>
0

> <PUBCHEM_BOND_DEF_STEREO_COUNT>
0

> <PUBCHEM_BOND_UDEF_STEREO_COUNT>
0

> <PUBCHEM_ISOTOPIC_ATOM_COUNT>
0

> <PUBCHEM_COMPONENT_COUNT>
1

> <PUBCHEM_CACTVS_TAUTO_COUNT>
1

> <PUBCHEM_CONFORMER_ID>
000023BC00000001

> <PUBCHEM_MMFF94_ENERGY>
53.0887

> <PUBCHEM_FEATURE_SELFOVERLAP>
30.82

> <PUBCHEM_SHAPE_FINGERPRINT>
10608611 8 18410860961981605760
10967382 1 18338797818856195079
11132069 177 18409173233186635264
11471102 20 18411142424605833375
12032990 46 18410849966865289027
12382932 28 18409168817928632504
13140716 1 18410855507383365011
14614273 12 18057047023783357869
15196674 1 18410573989446463908
15442244 35 18194966476927455834
15536298 74 18333449820543276048
16945 1 18410855464423207044
193761 8 17690280834014266699
20510252 161 18188773967278689552
20588541 1 18410571790423175892
21267235 1 18410846668330535622
21501502 16 18410572889934790656
22721475 48 18410852165888369188
22802520 49 17826219985154716110
2334 1 18410575058898569383
23402539 116 18334588952933323006
23419403 2 15950845407315355275
23463225 33 18412826893282996072
23559900 14 18263083366131865566
238 59 15756861203800811349
2748010 2 18410294704903035365
335352 9 18050287264813138773
34934 24 18410584984562696192
5104073 3 18410856563934757874
528886 8 18410016541351417210
53812653 166 18334580092457969832
7364860 26 18191024495618550488
8809292 202 18272365369308747235

> <PUBCHEM_SHAPE_MULTIPOLES>
303.71
4.82
2.44
0.61
0
0.59
0
-0.89
0
0
0
0
0.01
0

> <PUBCHEM_SHAPE_SELFOVERLAP>
711.282

> <PUBCHEM_SHAPE_VOLUME>
154.2

> <PUBCHEM_COORDINATE_TYPE>
2
5
10

$$$$

