51090942
  -OEChem-06241223002D

 46 47  0     1  0  0  0  0  0999 V2000
    5.1689   -0.5999    0.0000 O   0  0  0  0  0  0  0  0  0  0  0  0
    2.8660    3.3432    0.0000 N   0  0  3  0  0  0  0  0  0  0  0  0
    3.7676    0.4182    0.0000 N   0  0  0  0  0  0  0  0  0  0  0  0
    3.0866   -2.8432    0.0000 N   0  0  0  0  0  0  0  0  0  0  0  0
    2.2776   -2.2554    0.0000 N   0  0  0  0  0  0  0  0  0  0  0  0
    3.9487    2.1408    0.0000 C   0  0  3  0  0  0  0  0  0  0  0  0
    4.4487    3.0068    0.0000 C   0  0  0  0  0  0  0  0  0  0  0  0
    2.9705    2.3487    0.0000 C   0  0  0  0  0  0  0  0  0  0  0  0
    3.7796    3.7499    0.0000 C   0  0  0  0  0  0  0  0  0  0  0  0
    4.3554    1.2272    0.0000 C   0  0  0  0  0  0  0  0  0  0  0  0
    2.0000    3.8432    0.0000 C   0  0  0  0  0  0  0  0  0  0  0  0
    2.0000    4.8432    0.0000 C   0  0  0  0  0  0  0  0  0  0  0  0
    3.0866   -3.8432    0.0000 C   0  0  0  0  0  0  0  0  0  0  0  0
    4.1744   -0.4953    0.0000 C   0  0  0  0  0  0  0  0  0  0  0  0
    3.5866   -1.3044    0.0000 C   0  0  0  0  0  0  0  0  0  0  0  0
    3.8956   -2.2554    0.0000 C   0  0  0  0  0  0  0  0  0  0  0  0
    3.0866   -4.8432    0.0000 C   0  0  0  0  0  0  0  0  0  0  0  0
    2.0866   -3.8432    0.0000 C   0  0  0  0  0  0  0  0  0  0  0  0
    4.0866   -3.8432    0.0000 C   0  0  0  0  0  0  0  0  0  0  0  0
    2.5866   -1.3044    0.0000 C   0  0  0  0  0  0  0  0  0  0  0  0
    3.5585    1.6589    0.0000 H   0  0  0  0  0  0  0  0  0  0  0  0
    4.9503    2.6424    0.0000 H   0  0  0  0  0  0  0  0  0  0  0  0
    4.8636    3.4675    0.0000 H   0  0  0  0  0  0  0  0  0  0  0  0
    2.3506    2.3487    0.0000 H   0  0  0  0  0  0  0  0  0  0  0  0
    2.9058    1.7321    0.0000 H   0  0  0  0  0  0  0  0  0  0  0  0
    4.2812    4.1144    0.0000 H   0  0  0  0  0  0  0  0  0  0  0  0
    3.4696    4.2869    0.0000 H   0  0  0  0  0  0  0  0  0  0  0  0
    4.7861    0.7812    0.0000 H   0  0  0  0  0  0  0  0  0  0  0  0
    4.8694    1.5739    0.0000 H   0  0  0  0  0  0  0  0  0  0  0  0
    1.3894    3.9509    0.0000 H   0  0  0  0  0  0  0  0  0  0  0  0
    1.7880    3.2606    0.0000 H   0  0  0  0  0  0  0  0  0  0  0  0
    3.1510    0.4830    0.0000 H   0  0  0  0  0  0  0  0  0  0  0  0
    2.6200    4.8432    0.0000 H   0  0  0  0  0  0  0  0  0  0  0  0
    2.0000    5.4632    0.0000 H   0  0  0  0  0  0  0  0  0  0  0  0
    1.3800    4.8432    0.0000 H   0  0  0  0  0  0  0  0  0  0  0  0
    4.4853   -2.4470    0.0000 H   0  0  0  0  0  0  0  0  0  0  0  0
    2.4666   -4.8432    0.0000 H   0  0  0  0  0  0  0  0  0  0  0  0
    3.0866   -5.4632    0.0000 H   0  0  0  0  0  0  0  0  0  0  0  0
    3.7066   -4.8432    0.0000 H   0  0  0  0  0  0  0  0  0  0  0  0
    2.0866   -3.2232    0.0000 H   0  0  0  0  0  0  0  0  0  0  0  0
    1.4666   -3.8432    0.0000 H   0  0  0  0  0  0  0  0  0  0  0  0
    2.0866   -4.4632    0.0000 H   0  0  0  0  0  0  0  0  0  0  0  0
    4.0866   -4.4632    0.0000 H   0  0  0  0  0  0  0  0  0  0  0  0
    4.7066   -3.8432    0.0000 H   0  0  0  0  0  0  0  0  0  0  0  0
    4.0866   -3.2232    0.0000 H   0  0  0  0  0  0  0  0  0  0  0  0
    2.2222   -0.8028    0.0000 H   0  0  0  0  0  0  0  0  0  0  0  0
  1 14  2  0  0  0  0
  2  8  1  0  0  0  0
  2  9  1  0  0  0  0
  2 11  1  0  0  0  0
  3 10  1  0  0  0  0
  3 14  1  0  0  0  0
  3 32  1  0  0  0  0
  4  5  1  0  0  0  0
  4 13  1  0  0  0  0
  4 16  1  0  0  0  0
  5 20  2  0  0  0  0
  6  7  1  0  0  0  0
  6  8  1  0  0  0  0
  6 10  1  0  0  0  0
  6 21  1  0  0  0  0
  7  9  1  0  0  0  0
  7 22  1  0  0  0  0
  7 23  1  0  0  0  0
  8 24  1  0  0  0  0
  8 25  1  0  0  0  0
  9 26  1  0  0  0  0
  9 27  1  0  0  0  0
 10 28  1  0  0  0  0
 10 29  1  0  0  0  0
 11 12  1  0  0  0  0
 11 30  1  0  0  0  0
 11 31  1  0  0  0  0
 12 33  1  0  0  0  0
 12 34  1  0  0  0  0
 12 35  1  0  0  0  0
 13 17  1  0  0  0  0
 13 18  1  0  0  0  0
 13 19  1  0  0  0  0
 14 15  1  0  0  0  0
 15 16  2  0  0  0  0
 15 20  1  0  0  0  0
 16 36  1  0  0  0  0
 17 37  1  0  0  0  0
 17 38  1  0  0  0  0
 17 39  1  0  0  0  0
 18 40  1  0  0  0  0
 18 41  1  0  0  0  0
 18 42  1  0  0  0  0
 19 43  1  0  0  0  0
 19 44  1  0  0  0  0
 19 45  1  0  0  0  0
 20 46  1  0  0  0  0
M  END
> <PUBCHEM_COMPOUND_CID>
51090942

> <PUBCHEM_COMPOUND_CANONICALIZED>
1

> <PUBCHEM_CACTVS_COMPLEXITY>
339

> <PUBCHEM_CACTVS_HBOND_ACCEPTOR>
3

> <PUBCHEM_CACTVS_HBOND_DONOR>
1

> <PUBCHEM_CACTVS_ROTATABLE_BOND>
5

> <PUBCHEM_CACTVS_SUBSKEYS>
AAADceBzoAAAAAAAAAAAAAAAAAAAAWLAAAAAAAAAAAAAAAABgAAAHgAYAAAADYjBmgQugJPIAACqAhF3VACQBAAVgAAQEKEoRFAAAIhAwUAEhIgAHgDAAMAAAAAIAAAAAAAAAAAAAAAAAAAAAAAAAAAAAA==

> <PUBCHEM_IUPAC_OPENEYE_NAME>
1-tert-butyl-N-[(1-ethylpyrrolidin-3-yl)methyl]pyrazole-4-carboxamide

> <PUBCHEM_IUPAC_CAS_NAME>
1-tert-butyl-N-[(1-ethyl-3-pyrrolidinyl)methyl]-4-pyrazolecarboxamide

> <PUBCHEM_IUPAC_NAME>
1-tert-butyl-N-[(1-ethylpyrrolidin-3-yl)methyl]pyrazole-4-carboxamide

> <PUBCHEM_IUPAC_SYSTEMATIC_NAME>
1-tert-butyl-N-[(1-ethylpyrrolidin-3-yl)methyl]pyrazole-4-carboxamide

> <PUBCHEM_IUPAC_TRADITIONAL_NAME>
1-tert-butyl-N-[(1-ethylpyrrolidin-3-yl)methyl]pyrazole-4-carboxamide

> <PUBCHEM_IUPAC_INCHI>
InChI=1S/C15H26N4O/c1-5-18-7-6-12(10-18)8-16-14(20)13-9-17-19(11-13)15(2,3)4/h9,11-12H,5-8,10H2,1-4H3,(H,16,20)

> <PUBCHEM_IUPAC_INCHIKEY>
BWUNMVCUDALMCO-UHFFFAOYSA-N

> <PUBCHEM_XLOGP3_AA>
1.2

> <PUBCHEM_EXACT_MASS>
278.210661

> <PUBCHEM_MOLECULAR_FORMULA>
C15H26N4O

> <PUBCHEM_MOLECULAR_WEIGHT>
278.39314

> <PUBCHEM_OPENEYE_CAN_SMILES>
CCN1CCC(C1)CNC(=O)C2=CN(N=C2)C(C)(C)C

> <PUBCHEM_OPENEYE_ISO_SMILES>
CCN1CCC(C1)CNC(=O)C2=CN(N=C2)C(C)(C)C

> <PUBCHEM_CACTVS_TPSA>
50.2

> <PUBCHEM_MONOISOTOPIC_WEIGHT>
278.210661

> <PUBCHEM_TOTAL_CHARGE>
0

> <PUBCHEM_HEAVY_ATOM_COUNT>
20

> <PUBCHEM_ATOM_DEF_STEREO_COUNT>
0

> <PUBCHEM_ATOM_UDEF_STEREO_COUNT>
1

> <PUBCHEM_BOND_DEF_STEREO_COUNT>
0

> <PUBCHEM_BOND_UDEF_STEREO_COUNT>
0

> <PUBCHEM_ISOTOPIC_ATOM_COUNT>
0

> <PUBCHEM_COMPONENT_COUNT>
1

> <PUBCHEM_CACTVS_TAUTO_COUNT>
2

> <PUBCHEM_COORDINATE_TYPE>
1
5
255

> <PUBCHEM_BONDANNOTATIONS>
15  16  8
15  20  8
4  16  8
4  5  8
5  20  8
6  10  3

$$$$

