17395645
  -OEChem-06241222513D

 55 59  0     1  0  0  0  0  0999 V2000
   -1.0588   -0.9093    1.1583 O   0  0  0  0  0  0  0  0  0  0  0  0
    3.0623    1.5609   -1.2126 O   0  0  0  0  0  0  0  0  0  0  0  0
    4.8838    1.5475    1.1622 O   0  0  0  0  0  0  0  0  0  0  0  0
   -0.0816   -2.2419   -0.4622 N   0  0  0  0  0  0  0  0  0  0  0  0
   -3.2960   -0.4520   -0.1822 N   0  0  0  0  0  0  0  0  0  0  0  0
    1.1034   -2.6114    0.3204 C   0  0  1  0  0  0  0  0  0  0  0  0
    1.7140   -3.7798   -0.4640 C   0  0  0  0  0  0  0  0  0  0  0  0
    1.3043   -3.5020   -1.9065 C   0  0  0  0  0  0  0  0  0  0  0  0
   -0.0889   -2.9094   -1.7619 C   0  0  0  0  0  0  0  0  0  0  0  0
    2.0879   -1.4750    0.5275 C   0  0  0  0  0  0  0  0  0  0  0  0
   -1.1009   -1.4573    0.0556 C   0  0  0  0  0  0  0  0  0  0  0  0
   -2.3078   -1.2903   -0.8325 C   0  0  0  0  0  0  0  0  0  0  0  0
    2.1909   -0.4593   -0.4226 C   0  0  0  0  0  0  0  0  0  0  0  0
    2.8819   -1.4404    1.6707 C   0  0  0  0  0  0  0  0  0  0  0  0
    3.0854    0.6004   -0.2330 C   0  0  0  0  0  0  0  0  0  0  0  0
   -3.3627    0.9185   -0.2954 C   0  0  0  0  0  0  0  0  0  0  0  0
   -4.2990   -0.9081    0.6305 C   0  0  0  0  0  0  0  0  0  0  0  0
    3.7943   -0.4015    1.8535 C   0  0  0  0  0  0  0  0  0  0  0  0
    3.9218    0.6072    0.8919 C   0  0  0  0  0  0  0  0  0  0  0  0
   -4.4482    1.3420    0.4744 C   0  0  0  0  0  0  0  0  0  0  0  0
   -5.0291    0.1788    1.0528 C   0  0  0  0  0  0  0  0  0  0  0  0
   -2.5536    1.8064   -1.0132 C   0  0  0  0  0  0  0  0  0  0  0  0
    3.2892    2.8857   -0.7317 C   0  0  0  0  0  0  0  0  0  0  0  0
   -4.4749   -2.3426    0.9380 C   0  0  0  0  0  0  0  0  0  0  0  0
    4.7770    3.1855   -0.6326 C   0  0  0  0  0  0  0  0  0  0  0  0
    5.5537    2.0427    0.0029 C   0  0  0  0  0  0  0  0  0  0  0  0
   -4.7426    2.7188    0.5323 C   0  0  0  0  0  0  0  0  0  0  0  0
   -2.8644    3.1673   -0.9404 C   0  0  0  0  0  0  0  0  0  0  0  0
   -3.9416    3.6186   -0.1803 C   0  0  0  0  0  0  0  0  0  0  0  0
    0.7543   -2.9498    1.3045 H   0  0  0  0  0  0  0  0  0  0  0  0
    1.2484   -4.7194   -0.1399 H   0  0  0  0  0  0  0  0  0  0  0  0
    2.7971   -3.8834   -0.3465 H   0  0  0  0  0  0  0  0  0  0  0  0
    1.3134   -4.3999   -2.5307 H   0  0  0  0  0  0  0  0  0  0  0  0
    1.9848   -2.7708   -2.3574 H   0  0  0  0  0  0  0  0  0  0  0  0
   -0.8535   -3.6933   -1.7327 H   0  0  0  0  0  0  0  0  0  0  0  0
   -0.3303   -2.2049   -2.5623 H   0  0  0  0  0  0  0  0  0  0  0  0
   -2.0252   -0.8214   -1.7793 H   0  0  0  0  0  0  0  0  0  0  0  0
   -2.7566   -2.2617   -1.0574 H   0  0  0  0  0  0  0  0  0  0  0  0
    1.5733   -0.4604   -1.3171 H   0  0  0  0  0  0  0  0  0  0  0  0
    2.8078   -2.2221    2.4219 H   0  0  0  0  0  0  0  0  0  0  0  0
    4.4216   -0.3955    2.7416 H   0  0  0  0  0  0  0  0  0  0  0  0
   -5.8894    0.1444    1.7079 H   0  0  0  0  0  0  0  0  0  0  0  0
   -1.7092    1.4682   -1.6039 H   0  0  0  0  0  0  0  0  0  0  0  0
    2.8299    3.5775   -1.4468 H   0  0  0  0  0  0  0  0  0  0  0  0
    2.7752    3.0526    0.2247 H   0  0  0  0  0  0  0  0  0  0  0  0
   -5.2623   -2.4860    1.6858 H   0  0  0  0  0  0  0  0  0  0  0  0
   -3.5568   -2.7795    1.3435 H   0  0  0  0  0  0  0  0  0  0  0  0
   -4.7665   -2.9016    0.0430 H   0  0  0  0  0  0  0  0  0  0  0  0
    4.9075    4.1036   -0.0483 H   0  0  0  0  0  0  0  0  0  0  0  0
    5.1925    3.3752   -1.6290 H   0  0  0  0  0  0  0  0  0  0  0  0
    5.7508    1.2350   -0.7152 H   0  0  0  0  0  0  0  0  0  0  0  0
    6.5356    2.4095    0.3228 H   0  0  0  0  0  0  0  0  0  0  0  0
   -5.5790    3.0843    1.1210 H   0  0  0  0  0  0  0  0  0  0  0  0
   -2.2546    3.8839   -1.4847 H   0  0  0  0  0  0  0  0  0  0  0  0
   -4.1634    4.6817   -0.1389 H   0  0  0  0  0  0  0  0  0  0  0  0
  1 11  2  0  0  0  0
  2 15  1  0  0  0  0
  2 23  1  0  0  0  0
  3 19  1  0  0  0  0
  3 26  1  0  0  0  0
  4  6  1  0  0  0  0
  4  9  1  0  0  0  0
  4 11  1  0  0  0  0
  5 12  1  0  0  0  0
  5 16  1  0  0  0  0
  5 17  1  0  0  0  0
  6  7  1  0  0  0  0
  6 10  1  0  0  0  0
  6 30  1  0  0  0  0
  7  8  1  0  0  0  0
  7 31  1  0  0  0  0
  7 32  1  0  0  0  0
  8  9  1  0  0  0  0
  8 33  1  0  0  0  0
  8 34  1  0  0  0  0
  9 35  1  0  0  0  0
  9 36  1  0  0  0  0
 10 13  2  0  0  0  0
 10 14  1  0  0  0  0
 11 12  1  0  0  0  0
 12 37  1  0  0  0  0
 12 38  1  0  0  0  0
 13 15  1  0  0  0  0
 13 39  1  0  0  0  0
 14 18  2  0  0  0  0
 14 40  1  0  0  0  0
 15 19  2  0  0  0  0
 16 20  1  0  0  0  0
 16 22  2  0  0  0  0
 17 21  2  0  0  0  0
 17 24  1  0  0  0  0
 18 19  1  0  0  0  0
 18 41  1  0  0  0  0
 20 21  1  0  0  0  0
 20 27  2  0  0  0  0
 21 42  1  0  0  0  0
 22 28  1  0  0  0  0
 22 43  1  0  0  0  0
 23 25  1  0  0  0  0
 23 44  1  0  0  0  0
 23 45  1  0  0  0  0
 24 46  1  0  0  0  0
 24 47  1  0  0  0  0
 24 48  1  0  0  0  0
 25 26  1  0  0  0  0
 25 49  1  0  0  0  0
 25 50  1  0  0  0  0
 26 51  1  0  0  0  0
 26 52  1  0  0  0  0
 27 29  1  0  0  0  0
 27 53  1  0  0  0  0
 28 29  2  0  0  0  0
 28 54  1  0  0  0  0
 29 55  1  0  0  0  0
M  END
> <PUBCHEM_COMPOUND_CID>
17395645

> <PUBCHEM_CONFORMER_RMSD>
0.8

> <PUBCHEM_CONFORMER_DIVERSEORDER>
1
254
104
145
113
278
92
225
172
301
230
214
34
191
298
248
124
287
141
253
193
242
245
153
33
275
281
101
114
309
168
252
136
185
165
227
201
284
149
261
190
79
292
23
48
159
140
257
174
81
57
211
127
178
75
134
236
31
299
244
49
125
130
198
146
132
202
94
180
273
93
160
311
123
44
51
161
269
274
272
232
305
238
60
268
66
11
239
186
221
215
217
300
155
95
100
13
119
181
138
229
231
203
37
71
260
43
10
76
78
207
144
256
25
289
199
271
15
41
38
139
163
295
12
237
218
209
9
210
21
166
265
263
192
89
42
46
310
188
84
115
64
102
220
270
183
69
167
8
39
40
291
286
17
59
82
208
143
162
219
98
27
247
65
308
74
96
170
285
131
110
135
241
204
302
235
129
296
128
297
288
177
56
233
226
189
187
306
246
118
258
307
108
212
117
55
97
111
267
62
99
216
282
58
120
30
196
205
14
243
176
224
126
150
35
303
137
122
280
103
85
228
283
142
304
169
184
194
90
152
83
173
72
68
52
158
88
112
293
223
262
255
61
234
133
105
86
266
151
109
116
213
87
195
67
32
19
2
16
276
107
154
77
121
63
264
70
164
171
22
249
26
251
91
4
54
53
7
20
200
250
36
157
45
156
106
240
222
5
24
279
73
197
175
294
179
147
50
6
18
3
206
80
148
47
28
277
290
29
259
182

> <PUBCHEM_MMFF94_PARTIAL_CHARGES>
33
1 -0.57
10 -0.14
11 0.57
12 0.32
13 -0.15
14 -0.15
15 0.08
16 -0.15
17 -0.33
18 -0.15
19 0.08
2 -0.36
21 -0.15
22 -0.15
23 0.28
24 0.18
26 0.28
27 -0.15
28 -0.15
29 -0.15
3 -0.36
39 0.15
4 -0.66
40 0.15
41 0.15
42 0.15
43 0.15
5 0.05
53 0.15
54 0.15
55 0.15
6 0.44
9 0.3

> <PUBCHEM_EFFECTIVE_ROTOR_COUNT>
6

> <PUBCHEM_PHARMACOPHORE_FEATURES>
9
1 1 acceptor
1 2 acceptor
1 3 acceptor
1 5 cation
5 4 6 7 8 9 rings
5 5 16 17 20 21 rings
6 10 13 14 15 18 19 rings
6 16 20 22 27 28 29 rings
7 2 3 15 19 23 25 26 rings

> <PUBCHEM_HEAVY_ATOM_COUNT>
29

> <PUBCHEM_ATOM_DEF_STEREO_COUNT>
0

> <PUBCHEM_ATOM_UDEF_STEREO_COUNT>
1

> <PUBCHEM_BOND_DEF_STEREO_COUNT>
0

> <PUBCHEM_BOND_UDEF_STEREO_COUNT>
0

> <PUBCHEM_ISOTOPIC_ATOM_COUNT>
0

> <PUBCHEM_COMPONENT_COUNT>
1

> <PUBCHEM_CACTVS_TAUTO_COUNT>
1

> <PUBCHEM_CONFORMER_ID>
01096FBD00000001

> <PUBCHEM_MMFF94_ENERGY>
83.5351

> <PUBCHEM_FEATURE_SELFOVERLAP>
45.774

> <PUBCHEM_SHAPE_FINGERPRINT>
10369192 42 17895185546088662653
10670039 82 18339917135074325020
11720765 8 17242158266756912412
12403259 118 18340219556205644035
12422481 6 18051439514961923898
12633257 1 17916311712997398219
12788726 201 17831873347559549806
12925494 130 18123188176429761673
12978246 48 18341054029644127944
14251764 38 18341897458421032473
1454969 45 18191305975565767063
14790565 3 18338514132446587360
14950920 106 17632308864428230874
15163728 17 18334003982819614622
151778 21 18334295408934843549
15961568 22 18343015563041321845
16988056 13 17830171664488986094
19309040 13 17968657258716233461
20715895 44 17908152314902881417
20764821 26 18117024137390901649
21033648 29 17970656115036195570
21133410 127 18059006302129050236
21302155 148 18411136930963483753
21756936 100 18054227631847700658
21859007 373 16842206574121334309
21860390 5 17901393603556172694
21864079 5 18410860970587046644
23559900 14 18048873284708318607
245318 6 17630312057007967196
3388396 114 16750444163776160524
3459 39 18115610161748769400
38570 142 17416106297718751028
392239 28 17845078572703250187
474144 1 17344329073907024605
5081480 168 17462828106292463495
5252454 2 17894634746919819587
5776283 40 18051099581517891180
6036956 94 18057039108729149557
6287921 2 18341320193362433695
6371009 1 18266759994700833204
6608658 132 18120661223308298023
6700243 42 16892257039164690774
6823239 73 18122614213530554726
7399639 24 18408876331257843411
7808743 9 18263927631557285994

> <PUBCHEM_SHAPE_MULTIPOLES>
569.24
11.96
5.1
1.48
1.36
0.21
0
10.49
-3.32
-0.77
2.05
-0.77
-0.73
0.25

> <PUBCHEM_SHAPE_SELFOVERLAP>
1252.593

> <PUBCHEM_SHAPE_VOLUME>
307.3

> <PUBCHEM_COORDINATE_TYPE>
2
5
10

$$$$

