47205256
  -OEChem-06241222583D

 36 37  0     1  0  0  0  0  0999 V2000
    0.5544   -1.2769   -0.1676 O   0  0  0  0  0  0  0  0  0  0  0  0
    2.4714    0.0253   -0.2499 N   0  0  0  0  0  0  0  0  0  0  0  0
   -0.2790    3.1983    0.0264 N   0  0  0  0  0  0  0  0  0  0  0  0
    3.4107   -1.0653   -0.3691 C   0  0  2  0  0  0  0  0  0  0  0  0
    4.7561   -0.7142    0.2791 C   0  0  0  0  0  0  0  0  0  0  0  0
    0.2700    1.0484   -0.0675 C   0  0  0  0  0  0  0  0  0  0  0  0
    3.5954   -1.4282   -1.8389 C   0  0  0  0  0  0  0  0  0  0  0  0
   -1.1394    1.1508    0.0353 C   0  0  0  0  0  0  0  0  0  0  0  0
    1.1032   -0.1782   -0.1580 C   0  0  0  0  0  0  0  0  0  0  0  0
    4.6209   -0.3437    1.7505 C   0  0  0  0  0  0  0  0  0  0  0  0
   -2.1407    0.1245    0.0801 C   0  0  0  0  0  0  0  0  0  0  0  0
    0.7764    2.3295   -0.0706 C   0  0  0  0  0  0  0  0  0  0  0  0
   -1.4514    2.4913    0.0916 C   0  0  0  0  0  0  0  0  0  0  0  0
   -3.1315    0.0746   -0.9003 C   0  0  0  0  0  0  0  0  0  0  0  0
   -2.1239   -0.8229    1.1035 C   0  0  0  0  0  0  0  0  0  0  0  0
   -4.1058   -0.9228   -0.8574 C   0  0  0  0  0  0  0  0  0  0  0  0
   -3.0980   -1.8203    1.1466 C   0  0  0  0  0  0  0  0  0  0  0  0
   -4.0890   -1.8702    0.1662 C   0  0  0  0  0  0  0  0  0  0  0  0
    2.9898   -1.9372    0.1471 H   0  0  0  0  0  0  0  0  0  0  0  0
    5.4388   -1.5678    0.1896 H   0  0  0  0  0  0  0  0  0  0  0  0
    5.2223    0.1260   -0.2507 H   0  0  0  0  0  0  0  0  0  0  0  0
    2.8515    0.9638   -0.2993 H   0  0  0  0  0  0  0  0  0  0  0  0
    3.9909   -0.5810   -2.4104 H   0  0  0  0  0  0  0  0  0  0  0  0
    4.2884   -2.2685   -1.9502 H   0  0  0  0  0  0  0  0  0  0  0  0
    2.6420   -1.7158   -2.2955 H   0  0  0  0  0  0  0  0  0  0  0  0
    4.1429   -1.1506    2.3151 H   0  0  0  0  0  0  0  0  0  0  0  0
    5.6101   -0.1669    2.1848 H   0  0  0  0  0  0  0  0  0  0  0  0
    4.0317    0.5687    1.8849 H   0  0  0  0  0  0  0  0  0  0  0  0
    1.7806    2.7245   -0.1308 H   0  0  0  0  0  0  0  0  0  0  0  0
   -2.3961    3.0120    0.1737 H   0  0  0  0  0  0  0  0  0  0  0  0
   -0.2044    4.2060    0.0474 H   0  0  0  0  0  0  0  0  0  0  0  0
   -3.1599    0.8005   -1.7097 H   0  0  0  0  0  0  0  0  0  0  0  0
   -1.3659   -0.7959    1.8829 H   0  0  0  0  0  0  0  0  0  0  0  0
   -4.8768   -0.9624   -1.6213 H   0  0  0  0  0  0  0  0  0  0  0  0
   -3.0863   -2.5569    1.9447 H   0  0  0  0  0  0  0  0  0  0  0  0
   -4.8476   -2.6467    0.2000 H   0  0  0  0  0  0  0  0  0  0  0  0
  1  9  2  0  0  0  0
  2  4  1  0  0  0  0
  2  9  1  0  0  0  0
  2 22  1  0  0  0  0
  3 12  1  0  0  0  0
  3 13  1  0  0  0  0
  3 31  1  0  0  0  0
  4  5  1  0  0  0  0
  4  7  1  0  0  0  0
  4 19  1  0  0  0  0
  5 10  1  0  0  0  0
  5 20  1  0  0  0  0
  5 21  1  0  0  0  0
  6  8  1  0  0  0  0
  6  9  1  0  0  0  0
  6 12  2  0  0  0  0
  7 23  1  0  0  0  0
  7 24  1  0  0  0  0
  7 25  1  0  0  0  0
  8 11  1  0  0  0  0
  8 13  2  0  0  0  0
 10 26  1  0  0  0  0
 10 27  1  0  0  0  0
 10 28  1  0  0  0  0
 11 14  2  0  0  0  0
 11 15  1  0  0  0  0
 12 29  1  0  0  0  0
 13 30  1  0  0  0  0
 14 16  1  0  0  0  0
 14 32  1  0  0  0  0
 15 17  2  0  0  0  0
 15 33  1  0  0  0  0
 16 18  2  0  0  0  0
 16 34  1  0  0  0  0
 17 18  1  0  0  0  0
 17 35  1  0  0  0  0
 18 36  1  0  0  0  0
M  END
> <PUBCHEM_COMPOUND_CID>
47205256

> <PUBCHEM_CONFORMER_RMSD>
0.6

> <PUBCHEM_CONFORMER_DIVERSEORDER>
1
87
69
26
72
17
85
2
30
41
79
4
21
61
36
40
52
58
14
3
84
35
83
25
71
82
11
6
13
43
38
74
53
81
77
18
76
50
68
66
57
56
63
28
12
90
89
7
59
88
32
23
60
19
27
39
15
86
9
16
80
34
64
51
31
62
33
54
10
22
70
67
24
37
5
8
73
29
78
44
49
55
45
46
65
20
48
75
47
42

> <PUBCHEM_MMFF94_PARTIAL_CHARGES>
24
1 -0.57
11 0.05
12 -0.3
13 -0.3
14 -0.15
15 -0.15
16 -0.15
17 -0.15
18 -0.15
2 -0.73
22 0.37
29 0.15
3 0.03
30 0.15
31 0.27
32 0.15
33 0.15
34 0.15
35 0.15
36 0.15
4 0.3
6 -0.09
8 -0.05
9 0.72

> <PUBCHEM_EFFECTIVE_ROTOR_COUNT>
5

> <PUBCHEM_PHARMACOPHORE_FEATURES>
7
1 1 acceptor
1 10 hydrophobe
1 2 donor
1 3 cation
1 3 donor
5 3 6 8 12 13 rings
6 11 14 15 16 17 18 rings

> <PUBCHEM_HEAVY_ATOM_COUNT>
18

> <PUBCHEM_ATOM_DEF_STEREO_COUNT>
0

> <PUBCHEM_ATOM_UDEF_STEREO_COUNT>
1

> <PUBCHEM_BOND_DEF_STEREO_COUNT>
0

> <PUBCHEM_BOND_UDEF_STEREO_COUNT>
0

> <PUBCHEM_ISOTOPIC_ATOM_COUNT>
0

> <PUBCHEM_COMPONENT_COUNT>
1

> <PUBCHEM_CACTVS_TAUTO_COUNT>
5

> <PUBCHEM_CONFORMER_ID>
02D04B8800000001

> <PUBCHEM_MMFF94_ENERGY>
30.5157

> <PUBCHEM_FEATURE_SELFOVERLAP>
35.52

> <PUBCHEM_SHAPE_FINGERPRINT>
10465860 250 18271814509635224178
11370993 144 17024016249910377146
11543360 7 15769484331621136534
11578080 2 17168727253657547649
12363563 72 18411692171307800550
12553582 1 18340751702643088163
13140716 1 18409443704457848305
13544653 18 17967250901169372274
14081887 123 18265341775245994608
14178342 30 18197219372210625930
14252887 29 18040712567736100934
14289901 80 16732989755781338842
14790565 3 17689998264275511629
15099037 37 18336834181694802520
17349148 13 17846217804172956122
17357779 13 18335430070675197149
17834072 14 18411706464953615529
1813 80 18042384915941305613
18222031 100 18260544489807486022
18927931 339 18337104678862114702
200 152 18059859471558834642
20645477 70 18194689164201297111
20671657 53 18342737377851239085
21304303 282 17409407243014881852
21452121 199 18341892935757471424
21728266 224 18059309758974110490
221490 88 18053939555068568355
22943178 12 17897165943330711462
23175994 123 18412258420370949383
23402539 116 18410581707518714079
23419403 2 18055946249620235644
23557571 272 18189332536571067084
23559900 14 18272660026004195848
2748010 2 18338524049336085445
3009799 131 18340225028289027335
314173 85 18334849528504043659
458136 41 17405123151076968177
5283173 99 18129959964800978341
53917941 68 18055088806776234541
5493415 88 18341894039521394401
5902787 121 18271805679382858762
6049 1 17750790142226333580
6913067 236 17896342301515586246
7615 1 17560224955784984868
81228 2 18194107736576031105
84936 182 11239180874116154047
8863177 126 17628901349884030507
9709674 26 18119527884723846150

> <PUBCHEM_SHAPE_MULTIPOLES>
354.6
8.77
2.64
1.23
5.74
2.2
0.02
-6.4
0.53
-1.21
0.04
0.88
-0.59
0.77

> <PUBCHEM_SHAPE_SELFOVERLAP>
750.585

> <PUBCHEM_SHAPE_VOLUME>
199.6

> <PUBCHEM_COORDINATE_TYPE>
2
5
10

$$$$

