582925
  -OEChem-06241222442D

 39 41  0     1  0  0  0  0  0999 V2000
    2.0000   -1.2466    0.0000 F   0  0  0  0  0  0  0  0  0  0  0  0
    5.4641   -1.2466    0.0000 F   0  0  0  0  0  0  0  0  0  0  0  0
    5.4641   -3.2466    0.0000 F   0  0  0  0  0  0  0  0  0  0  0  0
    2.0000   -3.2466    0.0000 F   0  0  0  0  0  0  0  0  0  0  0  0
    3.7320   -4.2466    0.0000 F   0  0  0  0  0  0  0  0  0  0  0  0
    5.1831    1.6012    0.0000 O   0  0  0  0  0  0  0  0  0  0  0  0
    5.4921    0.0321    0.0000 O   0  0  0  0  0  0  0  0  0  0  0  0
    4.5411    0.3412    0.0000 N   0  0  0  0  0  0  0  0  0  0  0  0
    2.9230    0.3412    0.0000 N   0  0  0  0  0  0  0  0  0  0  0  0
    3.2320    1.2922    0.0000 C   0  0  0  0  0  0  0  0  0  0  0  0
    4.2320    1.2922    0.0000 C   0  0  3  0  0  0  0  0  0  0  0  0
    4.4057    2.2770    0.0000 C   0  0  0  0  0  0  0  0  0  0  0  0
    2.2810    1.6012    0.0000 C   0  0  0  0  0  0  0  0  0  0  0  0
    3.0584    2.2770    0.0000 C   0  0  0  0  0  0  0  0  0  0  0  0
    3.7320   -0.2466    0.0000 C   0  0  0  0  0  0  0  0  0  0  0  0
    3.7320   -1.2466    0.0000 C   0  0  0  0  0  0  0  0  0  0  0  0
    5.3454    2.6190    0.0000 C   0  0  0  0  0  0  0  0  0  0  0  0
    3.6396    2.9198    0.0000 C   0  0  0  0  0  0  0  0  0  0  0  0
    2.8660   -1.7466    0.0000 C   0  0  0  0  0  0  0  0  0  0  0  0
    4.5981   -1.7466    0.0000 C   0  0  0  0  0  0  0  0  0  0  0  0
    5.5190    3.6038    0.0000 C   0  0  0  0  0  0  0  0  0  0  0  0
    3.8133    3.9046    0.0000 C   0  0  0  0  0  0  0  0  0  0  0  0
    4.7530    4.2466    0.0000 C   0  0  0  0  0  0  0  0  0  0  0  0
    4.5981   -2.7466    0.0000 C   0  0  0  0  0  0  0  0  0  0  0  0
    2.8660   -2.7466    0.0000 C   0  0  0  0  0  0  0  0  0  0  0  0
    3.7320   -3.2466    0.0000 C   0  0  0  0  0  0  0  0  0  0  0  0
    2.4726    2.1909    0.0000 H   0  0  0  0  0  0  0  0  0  0  0  0
    1.6913    1.7928    0.0000 H   0  0  0  0  0  0  0  0  0  0  0  0
    2.0894    1.0116    0.0000 H   0  0  0  0  0  0  0  0  0  0  0  0
    3.6690    2.3847    0.0000 H   0  0  0  0  0  0  0  0  0  0  0  0
    2.9507    2.8876    0.0000 H   0  0  0  0  0  0  0  0  0  0  0  0
    2.4478    2.1694    0.0000 H   0  0  0  0  0  0  0  0  0  0  0  0
    5.6439    1.1864    0.0000 H   0  0  0  0  0  0  0  0  0  0  0  0
    5.8203    2.2205    0.0000 H   0  0  0  0  0  0  0  0  0  0  0  0
    3.0570    2.7078    0.0000 H   0  0  0  0  0  0  0  0  0  0  0  0
    5.9529    0.4470    0.0000 H   0  0  0  0  0  0  0  0  0  0  0  0
    6.1016    3.8159    0.0000 H   0  0  0  0  0  0  0  0  0  0  0  0
    3.3384    4.3031    0.0000 H   0  0  0  0  0  0  0  0  0  0  0  0
    4.8607    4.8572    0.0000 H   0  0  0  0  0  0  0  0  0  0  0  0
  1 19  1  0  0  0  0
  2 20  1  0  0  0  0
  3 24  1  0  0  0  0
  4 25  1  0  0  0  0
  5 26  1  0  0  0  0
  6 11  1  0  0  0  0
  6 33  1  0  0  0  0
  7  8  1  0  0  0  0
  7 36  1  0  0  0  0
  8 11  1  0  0  0  0
  8 15  1  0  0  0  0
  9 10  1  0  0  0  0
  9 15  2  0  0  0  0
 10 11  1  0  0  0  0
 10 13  1  0  0  0  0
 10 14  1  0  0  0  0
 11 12  1  0  0  0  0
 12 17  2  0  0  0  0
 12 18  1  0  0  0  0
 13 27  1  0  0  0  0
 13 28  1  0  0  0  0
 13 29  1  0  0  0  0
 14 30  1  0  0  0  0
 14 31  1  0  0  0  0
 14 32  1  0  0  0  0
 15 16  1  0  0  0  0
 16 19  2  0  0  0  0
 16 20  1  0  0  0  0
 17 21  1  0  0  0  0
 17 34  1  0  0  0  0
 18 22  2  0  0  0  0
 18 35  1  0  0  0  0
 19 25  1  0  0  0  0
 20 24  2  0  0  0  0
 21 23  2  0  0  0  0
 21 37  1  0  0  0  0
 22 23  1  0  0  0  0
 22 38  1  0  0  0  0
 23 39  1  0  0  0  0
 24 26  1  0  0  0  0
 25 26  2  0  0  0  0
M  END
> <PUBCHEM_COMPOUND_CID>
582925

> <PUBCHEM_COMPOUND_CANONICALIZED>
1

> <PUBCHEM_CACTVS_COMPLEXITY>
555

> <PUBCHEM_CACTVS_HBOND_ACCEPTOR>
8

> <PUBCHEM_CACTVS_HBOND_DONOR>
2

> <PUBCHEM_CACTVS_ROTATABLE_BOND>
2

> <PUBCHEM_CACTVS_SUBSKEYS>
AAADccB7McAAAAAAAAAAAAAAAAAAAQAAAAAwYAAAAAAAAAABQAAAHwAECAAADIyBmAgzAIIQAgCgAiJiJACCAAEgAAApiAAgDJgKZiKAmRGUcAhkwAGImAeQwOAOAAAAAAAAAAAAAAAAAAAAAAAAAAAAAA==

> <PUBCHEM_IUPAC_OPENEYE_NAME>
3-hydroxy-5,5-dimethyl-2-(2,3,4,5,6-pentafluorophenyl)-4-phenyl-imidazol-4-ol

> <PUBCHEM_IUPAC_CAS_NAME>
3-hydroxy-5,5-dimethyl-2-(2,3,4,5,6-pentafluorophenyl)-4-phenyl-4-imidazolol

> <PUBCHEM_IUPAC_NAME>
3-hydroxy-5,5-dimethyl-2-(2,3,4,5,6-pentafluorophenyl)-4-phenylimidazol-4-ol

> <PUBCHEM_IUPAC_SYSTEMATIC_NAME>
5,5-dimethyl-3-oxidanyl-2-[2,3,4,5,6-pentakis(fluoranyl)phenyl]-4-phenyl-imidazol-4-ol

> <PUBCHEM_IUPAC_TRADITIONAL_NAME>
3-hydroxy-5,5-dimethyl-2-(2,3,4,5,6-pentafluorophenyl)-4-phenyl-2-imidazolin-4-ol

> <PUBCHEM_IUPAC_INCHI>
InChI=1S/C17H13F5N2O2/c1-16(2)17(25,8-6-4-3-5-7-8)24(26)15(23-16)9-10(18)12(20)14(22)13(21)11(9)19/h3-7,25-26H,1-2H3

> <PUBCHEM_IUPAC_INCHIKEY>
HEAXWMUSTPQGKG-UHFFFAOYSA-N

> <PUBCHEM_XLOGP3_AA>
2.4

> <PUBCHEM_EXACT_MASS>
372.089719

> <PUBCHEM_MOLECULAR_FORMULA>
C17H13F5N2O2

> <PUBCHEM_MOLECULAR_WEIGHT>
372.289336

> <PUBCHEM_OPENEYE_CAN_SMILES>
CC1(C(N(C(=N1)C2=C(C(=C(C(=C2F)F)F)F)F)O)(C3=CC=CC=C3)O)C

> <PUBCHEM_OPENEYE_ISO_SMILES>
CC1(C(N(C(=N1)C2=C(C(=C(C(=C2F)F)F)F)F)O)(C3=CC=CC=C3)O)C

> <PUBCHEM_CACTVS_TPSA>
56.1

> <PUBCHEM_MONOISOTOPIC_WEIGHT>
372.089719

> <PUBCHEM_TOTAL_CHARGE>
0

> <PUBCHEM_HEAVY_ATOM_COUNT>
26

> <PUBCHEM_ATOM_DEF_STEREO_COUNT>
0

> <PUBCHEM_ATOM_UDEF_STEREO_COUNT>
1

> <PUBCHEM_BOND_DEF_STEREO_COUNT>
0

> <PUBCHEM_BOND_UDEF_STEREO_COUNT>
0

> <PUBCHEM_ISOTOPIC_ATOM_COUNT>
0

> <PUBCHEM_COMPONENT_COUNT>
1

> <PUBCHEM_CACTVS_TAUTO_COUNT>
1

> <PUBCHEM_COORDINATE_TYPE>
1
5
255

> <PUBCHEM_BONDANNOTATIONS>
12  17  8
12  18  8
16  19  8
16  20  8
17  21  8
18  22  8
19  25  8
20  24  8
21  23  8
22  23  8
24  26  8
25  26  8
11  6  3

$$$$

