12065
  -OEChem-06261206283D

 16 16  0     0  0  0  0  0  0999 V2000
    1.9171    3.0785   -0.0004 I   0  0  0  0  0  0  0  0  0  0  0  0
    2.0649   -3.0229    0.0006 I   0  0  0  0  0  0  0  0  0  0  0  0
    3.0646    0.0535    0.0009 O   0  0  0  0  0  0  0  0  0  0  0  0
   -3.0955    1.1611    0.0014 O   0  0  0  0  0  0  0  0  0  0  0  0
   -3.2345   -1.1076   -0.0004 O   0  0  0  0  0  0  0  0  0  0  0  0
   -1.0900   -0.0471   -0.0003 C   0  0  0  0  0  0  0  0  0  0  0  0
   -0.3634   -1.2377   -0.0005 C   0  0  0  0  0  0  0  0  0  0  0  0
   -0.4220    1.1774   -0.0001 C   0  0  0  0  0  0  0  0  0  0  0  0
    1.6991    0.0206   -0.0003 C   0  0  0  0  0  0  0  0  0  0  0  0
    0.9725    1.2114   -0.0001 C   0  0  0  0  0  0  0  0  0  0  0  0
    1.0311   -1.2039   -0.0006 C   0  0  0  0  0  0  0  0  0  0  0  0
   -2.5439   -0.0834   -0.0002 C   0  0  0  0  0  0  0  0  0  0  0  0
   -0.8875   -2.1910   -0.0005 H   0  0  0  0  0  0  0  0  0  0  0  0
   -0.9704    2.1161   -0.0001 H   0  0  0  0  0  0  0  0  0  0  0  0
    3.3509    0.9831    0.0012 H   0  0  0  0  0  0  0  0  0  0  0  0
   -4.0758    1.1259    0.0019 H   0  0  0  0  0  0  0  0  0  0  0  0
  1 10  1  0  0  0  0
  2 11  1  0  0  0  0
  3  9  1  0  0  0  0
  3 15  1  0  0  0  0
  4 12  1  0  0  0  0
  4 16  1  0  0  0  0
  5 12  2  0  0  0  0
  6  7  2  0  0  0  0
  6  8  1  0  0  0  0
  6 12  1  0  0  0  0
  7 11  1  0  0  0  0
  7 13  1  0  0  0  0
  8 10  2  0  0  0  0
  8 14  1  0  0  0  0
  9 10  1  0  0  0  0
  9 11  2  0  0  0  0
M  END
> <PUBCHEM_COMPOUND_CID>
12065

> <PUBCHEM_CONFORMER_RMSD>
0.4

> <PUBCHEM_CONFORMER_DIVERSEORDER>
1
2

> <PUBCHEM_MMFF94_PARTIAL_CHARGES>
16
1 -0.08
10 0.08
11 0.08
12 0.63
13 0.15
14 0.15
15 0.45
16 0.5
2 -0.08
3 -0.53
4 -0.65
5 -0.57
6 0.09
7 -0.15
8 -0.15
9 0.08

> <PUBCHEM_EFFECTIVE_ROTOR_COUNT>
1

> <PUBCHEM_PHARMACOPHORE_FEATURES>
7
1 1 hydrophobe
1 2 hydrophobe
1 3 donor
1 4 acceptor
1 5 acceptor
3 4 5 12 anion
6 6 7 8 9 10 11 rings

> <PUBCHEM_HEAVY_ATOM_COUNT>
12

> <PUBCHEM_ATOM_DEF_STEREO_COUNT>
0

> <PUBCHEM_ATOM_UDEF_STEREO_COUNT>
0

> <PUBCHEM_BOND_DEF_STEREO_COUNT>
0

> <PUBCHEM_BOND_UDEF_STEREO_COUNT>
0

> <PUBCHEM_ISOTOPIC_ATOM_COUNT>
0

> <PUBCHEM_COMPONENT_COUNT>
1

> <PUBCHEM_CACTVS_TAUTO_COUNT>
3

> <PUBCHEM_CONFORMER_ID>
00002F2100000001

> <PUBCHEM_MMFF94_ENERGY>
32.1789

> <PUBCHEM_FEATURE_SELFOVERLAP>
35.578

> <PUBCHEM_SHAPE_FINGERPRINT>
1 1 18338797806155903254
10967382 1 18338517567976766822
13380535 76 17976824177435745740
13380536 305 18338509721430375668
14325111 11 18266458715745880513
14648413 74 18412825798135108945
14817 1 11736175355566517110
15442244 35 18120371210089433753
16945 1 18410575076110106566
17990270 104 18411702118573461931
193761 8 17689998255732068896
20645477 70 18340776940440709551
20711985 365 17763463215710181260
20871998 22 18047752886528007358
21040471 1 17978228257952808420
21524375 3 17973443204807733036
2334 1 17906171746214717730
23526114 1 18266459982603029406
23530152 11 18050283661557350606
23552423 10 18409728443772493359
23557571 272 17250898430547167438
241688 4 17978507868971423458
2748010 2 18121789588547077206
3071541 12 18410005533582651300
7364860 26 18409448081213391808
81228 2 17473538530889744018

> <PUBCHEM_SHAPE_MULTIPOLES>
253.22
4.36
3.67
0.65
3.41
0.51
0
-0.55
0
-3.73
0
-0.13
0
0

> <PUBCHEM_SHAPE_SELFOVERLAP>
490.617

> <PUBCHEM_SHAPE_VOLUME>
160.2

> <PUBCHEM_COORDINATE_TYPE>
2
5
10

$$$$

