4713
  -OEChem-06261200183D

 33 35  0     0  0  0  0  0  0999 V2000
   -0.7792    0.6539    0.5530 O   0  0  0  0  0  0  0  0  0  0  0  0
    4.5132    0.5650   -1.1397 O   0  0  0  0  0  0  0  0  0  0  0  0
   -2.7019   -2.5257   -1.1179 O   0  0  0  0  0  0  0  0  0  0  0  0
    1.7885    0.5196   -1.7561 N   0  0  0  0  0  0  0  0  0  0  0  0
    1.3543   -0.4432    0.4445 C   0  0  0  0  0  0  0  0  0  0  0  0
   -0.0988   -0.4976    0.1872 C   0  0  0  0  0  0  0  0  0  0  0  0
   -2.8545   -0.3469   -0.2160 C   0  0  0  0  0  0  0  0  0  0  0  0
   -2.1349    0.7046    0.3490 C   0  0  0  0  0  0  0  0  0  0  0  0
    2.2556    0.0508   -0.5049 C   0  0  0  0  0  0  0  0  0  0  0  0
   -0.6779   -1.5724   -0.3712 C   0  0  0  0  0  0  0  0  0  0  0  0
   -2.1348   -1.5664   -0.6137 C   0  0  0  0  0  0  0  0  0  0  0  0
    1.8357   -0.9007    1.6758 C   0  0  0  0  0  0  0  0  0  0  0  0
    3.6218    0.0870   -0.2261 C   0  0  0  0  0  0  0  0  0  0  0  0
   -4.2348   -0.2394   -0.4009 C   0  0  0  0  0  0  0  0  0  0  0  0
   -2.7933    1.8730    0.7331 C   0  0  0  0  0  0  0  0  0  0  0  0
    3.2019   -0.8647    1.9546 C   0  0  0  0  0  0  0  0  0  0  0  0
    4.0949   -0.3708    1.0036 C   0  0  0  0  0  0  0  0  0  0  0  0
   -4.8909    0.9302   -0.0153 C   0  0  0  0  0  0  0  0  0  0  0  0
   -4.1720    1.9842    0.5504 C   0  0  0  0  0  0  0  0  0  0  0  0
    4.8070    1.9593   -1.0893 C   0  0  0  0  0  0  0  0  0  0  0  0
   -0.1195   -2.4574   -0.6553 H   0  0  0  0  0  0  0  0  0  0  0  0
    1.1544   -1.2883    2.4299 H   0  0  0  0  0  0  0  0  0  0  0  0
   -4.8109   -1.0489   -0.8399 H   0  0  0  0  0  0  0  0  0  0  0  0
   -2.2414    2.6985    1.1741 H   0  0  0  0  0  0  0  0  0  0  0  0
    3.5704   -1.2210    2.9120 H   0  0  0  0  0  0  0  0  0  0  0  0
    5.1579   -0.3466    1.2279 H   0  0  0  0  0  0  0  0  0  0  0  0
   -5.9642    1.0209   -0.1560 H   0  0  0  0  0  0  0  0  0  0  0  0
   -4.6869    2.8929    0.8487 H   0  0  0  0  0  0  0  0  0  0  0  0
    2.4522    0.8568   -2.4409 H   0  0  0  0  0  0  0  0  0  0  0  0
    0.8034    0.5120   -1.9807 H   0  0  0  0  0  0  0  0  0  0  0  0
    5.2911    2.2127   -0.1409 H   0  0  0  0  0  0  0  0  0  0  0  0
    3.8978    2.5554   -1.2164 H   0  0  0  0  0  0  0  0  0  0  0  0
    5.4951    2.1939   -1.9060 H   0  0  0  0  0  0  0  0  0  0  0  0
  1  6  1  0  0  0  0
  1  8  1  0  0  0  0
  2 13  1  0  0  0  0
  2 20  1  0  0  0  0
  3 11  2  0  0  0  0
  4  9  1  0  0  0  0
  4 29  1  0  0  0  0
  4 30  1  0  0  0  0
  5  6  1  0  0  0  0
  5  9  2  0  0  0  0
  5 12  1  0  0  0  0
  6 10  2  0  0  0  0
  7  8  1  0  0  0  0
  7 11  1  0  0  0  0
  7 14  2  0  0  0  0
  8 15  2  0  0  0  0
  9 13  1  0  0  0  0
 10 11  1  0  0  0  0
 10 21  1  0  0  0  0
 12 16  2  0  0  0  0
 12 22  1  0  0  0  0
 13 17  2  0  0  0  0
 14 18  1  0  0  0  0
 14 23  1  0  0  0  0
 15 19  1  0  0  0  0
 15 24  1  0  0  0  0
 16 17  1  0  0  0  0
 16 25  1  0  0  0  0
 17 26  1  0  0  0  0
 18 19  2  0  0  0  0
 18 27  1  0  0  0  0
 19 28  1  0  0  0  0
 20 31  1  0  0  0  0
 20 32  1  0  0  0  0
 20 33  1  0  0  0  0
M  END
> <PUBCHEM_COMPOUND_CID>
4713

> <PUBCHEM_CONFORMER_RMSD>
0.6

> <PUBCHEM_CONFORMER_DIVERSEORDER>
1
6
3
4
5
2

> <PUBCHEM_MMFF94_PARTIAL_CHARGES>
30
1 -0.16
10 -0.14
11 0.47
12 -0.15
13 0.08
14 -0.15
15 -0.15
16 -0.15
17 -0.15
18 -0.15
19 -0.15
2 -0.36
20 0.28
21 0.15
22 0.15
23 0.15
24 0.15
25 0.15
26 0.15
27 0.15
28 0.15
29 0.4
3 -0.57
30 0.4
4 -0.9
5 0.03
6 0.05
7 0.09
8 0.08
9 0.1

> <PUBCHEM_EFFECTIVE_ROTOR_COUNT>
2

> <PUBCHEM_PHARMACOPHORE_FEATURES>
8
1 1 acceptor
1 2 acceptor
1 3 acceptor
1 4 cation
1 4 donor
6 1 6 7 8 10 11 rings
6 5 9 12 13 16 17 rings
6 7 8 14 15 18 19 rings

> <PUBCHEM_HEAVY_ATOM_COUNT>
20

> <PUBCHEM_ATOM_DEF_STEREO_COUNT>
0

> <PUBCHEM_ATOM_UDEF_STEREO_COUNT>
0

> <PUBCHEM_BOND_DEF_STEREO_COUNT>
0

> <PUBCHEM_BOND_UDEF_STEREO_COUNT>
0

> <PUBCHEM_ISOTOPIC_ATOM_COUNT>
0

> <PUBCHEM_COMPONENT_COUNT>
1

> <PUBCHEM_CACTVS_TAUTO_COUNT>
4

> <PUBCHEM_CONFORMER_ID>
0000126900000001

> <PUBCHEM_MMFF94_ENERGY>
83.6808

> <PUBCHEM_FEATURE_SELFOVERLAP>
40.623

> <PUBCHEM_SHAPE_FINGERPRINT>
10366900 7 16515678961652146780
10498660 4 18187084009206223273
11640471 11 18201427065296573556
11796584 16 17894907460770220134
12173636 292 18042692887046356277
12236239 1 18272938232347101650
12390115 104 17532079661659236121
12403814 3 17988649635804551061
12596602 18 17988920063835135297
12616971 3 17988935478509761650
12670546 56 17703794755559304485
12788726 201 18053949454699849195
13140716 1 18116160961482296507
13538477 17 18412553089128737555
13583140 156 17632006477836075497
13631057 29 17558259926237030827
14386348 63 16660648440398467162
14739800 52 18263660480745583216
15342168 16 16987985112403132548
15375358 24 17095251327662083163
15669948 3 18335709321059490063
15806764 133 17168422645342876146
15842332 3 18271825509268541722
16752209 62 18260841353821173911
1813 80 17628645451363694610
18186145 218 17203610380860871594
20279233 1 16877667859187146394
20645476 183 18343581815935512727
20645477 70 16486988327002174626
20715895 44 17624146292632534605
20871999 31 18114741538402932079
21065201 7 17894639136176117734
21618674 53 18343294860131899482
22079108 93 17418083291800899513
22854114 59 15913324701961457248
23402539 116 17895489105898083133
23557571 272 17749382625239763567
23559900 14 17894627097941612270
3472631 163 18409443687351676357
34797466 226 17459179703843084492
38570 142 17845066559922361628
4340502 62 16988269954913836809
474 4 17631445679571741668
5104073 3 17418373571560956584
5281201 14 15574716915012659832
542803 24 18272087209983173497
6034566 193 16197029325593470252
6049 1 17023187059197719194
633830 44 17989197128149536038
77492 1 18201447977624368914
7808743 9 18334290980918877329

> <PUBCHEM_SHAPE_MULTIPOLES>
389
10.17
1.93
1.41
1.1
0.08
0.19
4.37
-0.61
-1.01
-0.32
1.35
-0.16
-2.36

> <PUBCHEM_SHAPE_SELFOVERLAP>
860.331

> <PUBCHEM_SHAPE_VOLUME>
208.4

> <PUBCHEM_COORDINATE_TYPE>
2
5
10

$$$$

