17395774
  -OEChem-06241222523D

 30 30  0     0  0  0  0  0  0999 V2000
    2.2160   -0.0571   -0.7450 S   0  0  0  0  0  0  0  0  0  0  0  0
   -6.1407   -1.1610    0.0681 F   0  0  0  0  0  0  0  0  0  0  0  0
   -4.3971   -0.8265   -1.1978 F   0  0  0  0  0  0  0  0  0  0  0  0
   -4.2931   -2.2517    0.4562 F   0  0  0  0  0  0  0  0  0  0  0  0
   -0.0474    2.4213   -1.2104 O   0  0  0  0  0  0  0  0  0  0  0  0
   -2.7146    1.7074   -0.7153 O   0  0  0  0  0  0  0  0  0  0  0  0
    4.7194   -1.1542   -0.3884 N   0  0  0  0  0  0  0  0  0  0  0  0
   -2.9125    0.1783    1.0228 N   0  0  0  0  0  0  0  0  0  0  0  0
   -0.8241    0.9328    0.4085 N   0  0  0  0  0  0  0  0  0  0  0  0
    4.2758    0.5429    0.9737 N   0  0  0  0  0  0  0  0  0  0  0  0
    3.8112   -0.2092    0.0008 C   0  0  0  0  0  0  0  0  0  0  0  0
   -4.3513    0.0476    0.9971 C   0  0  0  0  0  0  0  0  0  0  0  0
    1.5543    1.3329    0.2045 C   0  0  0  0  0  0  0  0  0  0  0  0
    5.8342   -0.9942    0.3853 C   0  0  0  0  0  0  0  0  0  0  0  0
    0.1581    1.6390   -0.2842 C   0  0  0  0  0  0  0  0  0  0  0  0
    4.5705   -2.1552   -1.4209 C   0  0  0  0  0  0  0  0  0  0  0  0
   -2.2022    1.0059    0.1553 C   0  0  0  0  0  0  0  0  0  0  0  0
   -4.7932   -1.0581    0.0719 C   0  0  0  0  0  0  0  0  0  0  0  0
    5.5368    0.0591    1.2178 C   0  0  0  0  0  0  0  0  0  0  0  0
   -4.6779   -0.1615    2.0203 H   0  0  0  0  0  0  0  0  0  0  0  0
   -4.7928    0.9992    0.6836 H   0  0  0  0  0  0  0  0  0  0  0  0
    2.1739    2.2243    0.0614 H   0  0  0  0  0  0  0  0  0  0  0  0
    1.5384    1.0947    1.2731 H   0  0  0  0  0  0  0  0  0  0  0  0
   -2.3956   -0.3712    1.7023 H   0  0  0  0  0  0  0  0  0  0  0  0
    6.7124   -1.6168    0.2848 H   0  0  0  0  0  0  0  0  0  0  0  0
    3.7256   -2.7987   -1.1632 H   0  0  0  0  0  0  0  0  0  0  0  0
    4.4019   -1.6495   -2.3750 H   0  0  0  0  0  0  0  0  0  0  0  0
    5.4823   -2.7553   -1.4810 H   0  0  0  0  0  0  0  0  0  0  0  0
   -0.5281    0.3066    1.1523 H   0  0  0  0  0  0  0  0  0  0  0  0
    6.1663    0.4934    1.9807 H   0  0  0  0  0  0  0  0  0  0  0  0
  1 11  1  0  0  0  0
  1 13  1  0  0  0  0
  2 18  1  0  0  0  0
  3 18  1  0  0  0  0
  4 18  1  0  0  0  0
  5 15  2  0  0  0  0
  6 17  2  0  0  0  0
  7 11  1  0  0  0  0
  7 14  1  0  0  0  0
  7 16  1  0  0  0  0
  8 12  1  0  0  0  0
  8 17  1  0  0  0  0
  8 24  1  0  0  0  0
  9 15  1  0  0  0  0
  9 17  1  0  0  0  0
  9 29  1  0  0  0  0
 10 11  2  0  0  0  0
 10 19  1  0  0  0  0
 12 18  1  0  0  0  0
 12 20  1  0  0  0  0
 12 21  1  0  0  0  0
 13 15  1  0  0  0  0
 13 22  1  0  0  0  0
 13 23  1  0  0  0  0
 14 19  2  0  0  0  0
 14 25  1  0  0  0  0
 16 26  1  0  0  0  0
 16 27  1  0  0  0  0
 16 28  1  0  0  0  0
 19 30  1  0  0  0  0
M  END
> <PUBCHEM_COMPOUND_CID>
17395774

> <PUBCHEM_CONFORMER_RMSD>
1

> <PUBCHEM_CONFORMER_DIVERSEORDER>
1
126
71
150
44
176
174
121
124
101
20
78
95
167
153
151
208
80
76
41
209
132
123
169
97
173
55
191
18
81
152
178
204
125
10
185
53
104
19
189
168
79
138
23
6
161
183
93
100
62
184
117
85
2
107
172
207
82
3
118
47
86
37
98
111
16
198
206
56
17
61
40
188
154
196
35
194
106
50
91
175
87
165
70
155
141
112
182
5
77
170
29
52
42
115
63
54
134
84
74
30
109
162
147
163
119
201
180
192
45
25
33
96
39
193
48
195
89
57
67
31
131
88
148
32
137
146
190
157
51
21
46
108
120
149
49
105
58
92
203
197
27
140
199
113
200
66
75
4
179
8
60
171
187
43
69
116
28
9
186
139
14
144
143
135
122
26
36
177
114
64
130
68
38
94
181
73
34
83
13
11
136
110
103
128
99
12
15
90
156
164
133
7
142
72
24
202
160
159
145
102
127
65
22
59
129
166
205
158

> <PUBCHEM_MMFF94_PARTIAL_CHARGES>
23
1 -0.29
10 -0.57
11 0.24
12 0.3
13 0.29
14 -0.3
15 0.57
16 0.26
17 0.69
18 1.02
19 0.08
2 -0.34
24 0.37
25 0.15
29 0.37
3 -0.34
30 0.15
4 -0.34
5 -0.57
6 -0.57
7 0.05
8 -0.73
9 -0.49

> <PUBCHEM_EFFECTIVE_ROTOR_COUNT>
8

> <PUBCHEM_PHARMACOPHORE_FEATURES>
6
1 5 acceptor
1 6 acceptor
1 8 donor
1 9 donor
3 7 10 11 cation
5 7 10 11 14 19 rings

> <PUBCHEM_HEAVY_ATOM_COUNT>
19

> <PUBCHEM_ATOM_DEF_STEREO_COUNT>
0

> <PUBCHEM_ATOM_UDEF_STEREO_COUNT>
0

> <PUBCHEM_BOND_DEF_STEREO_COUNT>
0

> <PUBCHEM_BOND_UDEF_STEREO_COUNT>
0

> <PUBCHEM_ISOTOPIC_ATOM_COUNT>
0

> <PUBCHEM_COMPONENT_COUNT>
1

> <PUBCHEM_CACTVS_TAUTO_COUNT>
5

> <PUBCHEM_CONFORMER_ID>
0109703E00000001

> <PUBCHEM_MMFF94_ENERGY>
20.944

> <PUBCHEM_FEATURE_SELFOVERLAP>
30.5

> <PUBCHEM_SHAPE_FINGERPRINT>
100836 57 7853575720734484600
10354089 29 15647054859278350208
10378564 45 11383843679644713344
10447042 23 17203612588684772674
10753850 27 18202002105962572401
10803635 8 17346326994356780595
12596602 18 16587742036253279362
12892183 10 17095798918912914736
13862211 1 18202003235322933874
13911882 115 18186514428276912550
14123255 352 9007059071451162997
1420 369 18410006650242207502
14251740 57 18187071885009016334
14251752 14 17203617012437998517
14251764 75 10013659781128430471
14341114 328 15068620482880537862
14528608 73 11383831545644703288
14848160 23 18411425024626650584
14848178 5 18410572864376249927
15183329 4 13542471981292298808
15880784 105 18041274443784044890
17539 30 17845942955919872853
17834072 8 11671782689235685882
17857418 61 18411138017563303147
1813 80 18271801332976552636
18222031 100 18272927228799281228
18785283 64 17969798384456149312
193927 3 18343010086662490257
19784866 240 18341609283769853217
20281389 69 7709460511231388346
20374829 77 18202284701804681065
20403669 9 18413386535969454050
20621476 91 18340783558852982978
20645477 56 8574713511724615889
21623969 137 17967254217596502166
21673915 165 18259985976703234246
21728266 224 17559969864692341560
221357 26 12823300091349987222
22289505 5 11671776084029931486
23198884 109 14045745928574129191
23402539 116 17988645228471922317
23402655 69 11312052145698067616
23559900 14 18129385904199594145
2838139 119 10231762149595954331
2916195 48 9583508811474224812
3014063 24 18187651271712835903
312425 54 17968648436256743626
351380 3 18273214196664539339
4325135 7 18201436940254782980
49783359 22 18186803590601049867
5104073 3 17750235984013062418
5352402 22 17967528021597812668
559249 180 18411699898940175921
8863177 126 18115863174251892510

> <PUBCHEM_SHAPE_MULTIPOLES>
341.38
15.37
2.08
1.15
1.96
0.18
-0.09
9.69
2.8
0.63
-0.68
-0.5
0
1.13

> <PUBCHEM_SHAPE_SELFOVERLAP>
682.267

> <PUBCHEM_SHAPE_VOLUME>
204.1

> <PUBCHEM_COORDINATE_TYPE>
2
5
10

$$$$

