4760
  -OEChem-06261200203D

 27 29  0     0  0  0  0  0  0999 V2000
    0.2167   -2.1504    1.3412 O   0  0  0  0  0  0  0  0  0  0  0  0
    0.1495    2.5043    0.4185 O   0  0  0  0  0  0  0  0  0  0  0  0
   -0.4258    0.2051    1.0676 C   0  0  0  0  0  0  0  0  0  0  0  0
    0.4629   -1.0243    0.9517 C   0  0  0  0  0  0  0  0  0  0  0  0
    0.4285    1.3220    0.4868 C   0  0  0  0  0  0  0  0  0  0  0  0
    1.7028   -0.6294    0.2797 C   0  0  0  0  0  0  0  0  0  0  0  0
    1.6827    0.7359    0.0092 C   0  0  0  0  0  0  0  0  0  0  0  0
   -1.7045    0.0396    0.3269 C   0  0  0  0  0  0  0  0  0  0  0  0
    2.7823   -1.4211   -0.0607 C   0  0  0  0  0  0  0  0  0  0  0  0
    2.7412    1.3682   -0.6135 C   0  0  0  0  0  0  0  0  0  0  0  0
   -2.8605    0.6884    0.7686 C   0  0  0  0  0  0  0  0  0  0  0  0
   -1.7560   -0.7651   -0.8141 C   0  0  0  0  0  0  0  0  0  0  0  0
    3.8617   -0.7988   -0.6939 C   0  0  0  0  0  0  0  0  0  0  0  0
    3.8414    0.5825   -0.9677 C   0  0  0  0  0  0  0  0  0  0  0  0
   -4.0600    0.5335    0.0737 C   0  0  0  0  0  0  0  0  0  0  0  0
   -2.9555   -0.9198   -1.5089 C   0  0  0  0  0  0  0  0  0  0  0  0
   -4.1075   -0.2705   -1.0650 C   0  0  0  0  0  0  0  0  0  0  0  0
   -0.5754    0.4003    2.1361 H   0  0  0  0  0  0  0  0  0  0  0  0
    2.8020   -2.4840    0.1508 H   0  0  0  0  0  0  0  0  0  0  0  0
    2.7296    2.4316   -0.8233 H   0  0  0  0  0  0  0  0  0  0  0  0
   -2.8364    1.3191    1.6534 H   0  0  0  0  0  0  0  0  0  0  0  0
   -0.8780   -1.2724   -1.2032 H   0  0  0  0  0  0  0  0  0  0  0  0
    4.7304   -1.3869   -0.9784 H   0  0  0  0  0  0  0  0  0  0  0  0
    4.6946    1.0420   -1.4599 H   0  0  0  0  0  0  0  0  0  0  0  0
   -4.9568    1.0396    0.4189 H   0  0  0  0  0  0  0  0  0  0  0  0
   -2.9921   -1.5423   -2.3983 H   0  0  0  0  0  0  0  0  0  0  0  0
   -5.0412   -0.3901   -1.6068 H   0  0  0  0  0  0  0  0  0  0  0  0
  1  4  2  0  0  0  0
  2  5  2  0  0  0  0
  3  4  1  0  0  0  0
  3  5  1  0  0  0  0
  3  8  1  0  0  0  0
  3 18  1  0  0  0  0
  4  6  1  0  0  0  0
  5  7  1  0  0  0  0
  6  7  1  0  0  0  0
  6  9  2  0  0  0  0
  7 10  2  0  0  0  0
  8 11  2  0  0  0  0
  8 12  1  0  0  0  0
  9 13  1  0  0  0  0
  9 19  1  0  0  0  0
 10 14  1  0  0  0  0
 10 20  1  0  0  0  0
 11 15  1  0  0  0  0
 11 21  1  0  0  0  0
 12 16  2  0  0  0  0
 12 22  1  0  0  0  0
 13 14  2  0  0  0  0
 13 23  1  0  0  0  0
 14 24  1  0  0  0  0
 15 17  2  0  0  0  0
 15 25  1  0  0  0  0
 16 17  1  0  0  0  0
 16 26  1  0  0  0  0
 17 27  1  0  0  0  0
M  END
> <PUBCHEM_COMPOUND_CID>
4760

> <PUBCHEM_CONFORMER_RMSD>
0.6

> <PUBCHEM_CONFORMER_DIVERSEORDER>
1

> <PUBCHEM_MMFF94_PARTIAL_CHARGES>
26
1 -0.57
10 -0.15
11 -0.15
12 -0.15
13 -0.15
14 -0.15
15 -0.15
16 -0.15
17 -0.15
19 0.15
2 -0.57
20 0.15
21 0.15
22 0.15
23 0.15
24 0.15
25 0.15
26 0.15
27 0.15
3 0.27
4 0.42
5 0.42
6 0.09
7 0.09
8 -0.14
9 -0.15

> <PUBCHEM_EFFECTIVE_ROTOR_COUNT>
1.2

> <PUBCHEM_PHARMACOPHORE_FEATURES>
6
1 1 acceptor
1 2 acceptor
1 3 anion
5 3 4 5 6 7 rings
6 6 7 9 10 13 14 rings
6 8 11 12 15 16 17 rings

> <PUBCHEM_HEAVY_ATOM_COUNT>
17

> <PUBCHEM_ATOM_DEF_STEREO_COUNT>
0

> <PUBCHEM_ATOM_UDEF_STEREO_COUNT>
0

> <PUBCHEM_BOND_DEF_STEREO_COUNT>
0

> <PUBCHEM_BOND_UDEF_STEREO_COUNT>
0

> <PUBCHEM_ISOTOPIC_ATOM_COUNT>
0

> <PUBCHEM_COMPONENT_COUNT>
1

> <PUBCHEM_CACTVS_TAUTO_COUNT>
2

> <PUBCHEM_CONFORMER_ID>
0000129800000001

> <PUBCHEM_MMFF94_ENERGY>
48.251

> <PUBCHEM_FEATURE_SELFOVERLAP>
30.527

> <PUBCHEM_SHAPE_FINGERPRINT>
10062212 137 18261674869259800931
10465860 71 17822006488919040005
10498660 4 16414936239312546773
10646746 165 14189580744978735910
11031198 65 17918280865482426219
11471102 20 18272366486332183036
11543360 7 17458340802061170136
11578080 2 17898599667195925080
12236239 1 18187359961060238753
12730499 353 17489306430139628083
13221675 6 18408323310956788171
13296908 3 4967614961989335315
13693222 15 7565348625853325871
14115302 16 16805604746400806927
14252887 29 6844209740100474852
14289901 80 13830129490258381793
14576447 43 18187933836999231975
14911166 2 18272078410217669750
14993402 34 18187085070284191037
15210252 30 17417540201803369885
16752209 62 17749966577984110545
16945 1 18262520264873322760
17804303 29 16732987518245639887
18186145 218 18059853965336713310
19422 9 18333167280272277255
19862831 5 18408608058656412879
200 152 18335135419187052614
21634736 98 18188211991992596309
22112679 90 18189063151536690475
22182313 1 17905592325578824072
231179 274 16917073247909322596
23382010 3 18201160936185289762
23402539 116 18411135870570174628
23402655 69 18410290345564321836
23557571 272 17458912647223963448
23559900 14 16298385773327163288
25 1 18202844361417456419
2748010 2 17907560447039605504
3060560 45 18131361794796985879
3082319 5 18187364311503361487
3323516 105 18269272374675690083
474 4 18194406589270275472
549884 4 18338245872830590685
633830 44 18272364299972283389
7364860 26 17387145164867627529
74978 22 18115033996048757983
77492 1 18260264183167089027
90525 40 18041557061348383621
9981440 41 17178857942546159673

> <PUBCHEM_SHAPE_MULTIPOLES>
338.11
7.15
1.75
1.23
1.67
0.32
0.05
-0.4
3.05
-0.67
-0.26
0.37
-0.32
-0.74

> <PUBCHEM_SHAPE_SELFOVERLAP>
759.614

> <PUBCHEM_SHAPE_VOLUME>
179.9

> <PUBCHEM_COORDINATE_TYPE>
2
5
10

$$$$

