11457
  -OEChem-06261205423D

 14 14  0     0  0  0  0  0  0999 V2000
   -3.1430    1.6295    0.0008 Br  0  0  0  0  0  0  0  0  0  0  0  0
    2.9272   -0.4591    0.0018 O   0  5  0  0  0  0  0  0  0  0  0  0
    2.2172    1.6181   -0.0006 O   0  0  0  0  0  0  0  0  0  0  0  0
    1.9969    0.3829    0.0002 N   0  3  0  0  0  0  0  0  0  0  0  0
    0.6532   -0.0765   -0.0013 C   0  0  0  0  0  0  0  0  0  0  0  0
   -0.3980    0.8404   -0.0007 C   0  0  0  0  0  0  0  0  0  0  0  0
    0.3848   -1.4454   -0.0009 C   0  0  0  0  0  0  0  0  0  0  0  0
   -1.7177    0.3883    0.0002 C   0  0  0  0  0  0  0  0  0  0  0  0
   -0.9347   -1.8974    0.0000 C   0  0  0  0  0  0  0  0  0  0  0  0
   -1.9859   -0.9806    0.0005 C   0  0  0  0  0  0  0  0  0  0  0  0
   -0.2094    1.9117   -0.0006 H   0  0  0  0  0  0  0  0  0  0  0  0
    1.1781   -2.1885   -0.0010 H   0  0  0  0  0  0  0  0  0  0  0  0
   -1.1440   -2.9633    0.0003 H   0  0  0  0  0  0  0  0  0  0  0  0
   -3.0083   -1.3495    0.0012 H   0  0  0  0  0  0  0  0  0  0  0  0
  1  8  1  0  0  0  0
  2  4  1  0  0  0  0
  3  4  2  0  0  0  0
  4  5  1  0  0  0  0
  5  6  2  0  0  0  0
  5  7  1  0  0  0  0
  6  8  1  0  0  0  0
  6 11  1  0  0  0  0
  7  9  2  0  0  0  0
  7 12  1  0  0  0  0
  8 10  2  0  0  0  0
  9 10  1  0  0  0  0
  9 13  1  0  0  0  0
 10 14  1  0  0  0  0
M  CHG  2   2  -1   4   1
M  END
> <PUBCHEM_COMPOUND_CID>
11457

> <PUBCHEM_CONFORMER_RMSD>
0.4

> <PUBCHEM_CONFORMER_DIVERSEORDER>
1

> <PUBCHEM_MMFF94_PARTIAL_CHARGES>
14
1 -0.11
10 -0.15
11 0.15
12 0.15
13 0.15
14 0.15
2 -0.52
3 -0.52
4 0.91
5 0.13
6 -0.15
7 -0.15
8 0.11
9 -0.15

> <PUBCHEM_EFFECTIVE_ROTOR_COUNT>
1

> <PUBCHEM_PHARMACOPHORE_FEATURES>
5
1 1 hydrophobe
1 2 acceptor
1 2 anion
1 3 acceptor
6 5 6 7 8 9 10 rings

> <PUBCHEM_HEAVY_ATOM_COUNT>
10

> <PUBCHEM_ATOM_DEF_STEREO_COUNT>
0

> <PUBCHEM_ATOM_UDEF_STEREO_COUNT>
0

> <PUBCHEM_BOND_DEF_STEREO_COUNT>
0

> <PUBCHEM_BOND_UDEF_STEREO_COUNT>
0

> <PUBCHEM_ISOTOPIC_ATOM_COUNT>
0

> <PUBCHEM_COMPONENT_COUNT>
1

> <PUBCHEM_CACTVS_TAUTO_COUNT>
1

> <PUBCHEM_CONFORMER_ID>
00002CC100000001

> <PUBCHEM_MMFF94_ENERGY>
26.4

> <PUBCHEM_FEATURE_SELFOVERLAP>
25.453

> <PUBCHEM_SHAPE_FINGERPRINT>
13380535 76 18338519758811228791
14325111 11 18410575080389347041
16945 1 18338799038690295111
19973954 147 18267020566066224860
20653085 51 18411971464440988537
20871998 184 18044930182396910471
21040471 1 18410856576988535271
23235685 24 18338241582163608169
23402655 69 18120108427459651429
23552423 10 18200314299626666086
241688 4 16463609711887280979
2748010 2 18410007706651142581
369184 2 18263081028672669882
5084963 1 18187645777826931403
528886 8 18338241573531365281

> <PUBCHEM_SHAPE_MULTIPOLES>
195.02
4.12
1.96
0.6
0.16
0.36
0
-2.15
0
0.35
0
0.12
0
0

> <PUBCHEM_SHAPE_SELFOVERLAP>
392.784

> <PUBCHEM_SHAPE_VOLUME>
118.3

> <PUBCHEM_COORDINATE_TYPE>
2
5
10

$$$$

