10157
  -OEChem-06261204213D

 52 54  0     1  0  0  0  0  0999 V2000
   -0.9135    2.2371   -1.5697 O   0  0  0  0  0  0  0  0  0  0  0  0
   -2.2747   -0.2647   -0.8121 O   0  0  0  0  0  0  0  0  0  0  0  0
   -0.2176    0.9149    1.9043 O   0  0  0  0  0  0  0  0  0  0  0  0
    2.1962   -0.6400    0.8205 O   0  0  0  0  0  0  0  0  0  0  0  0
   -2.5496   -1.8811    0.8109 O   0  0  0  0  0  0  0  0  0  0  0  0
   -2.0941   -0.1059    2.7839 O   0  0  0  0  0  0  0  0  0  0  0  0
    3.7099   -1.9703    1.9089 O   0  0  0  0  0  0  0  0  0  0  0  0
   -1.8842    2.1303   -0.5117 C   0  0  0  0  0  0  0  0  0  0  0  0
   -1.8710    0.7272    0.1379 C   0  0  2  0  0  0  0  0  0  0  0  0
   -0.4805    0.3266    0.6347 C   0  0  1  0  0  0  0  0  0  0  0  0
    0.5922    0.7640   -0.3254 C   0  0  0  0  0  0  0  0  0  0  0  0
    0.3152    1.6736   -1.3518 C   0  0  0  0  0  0  0  0  0  0  0  0
   -3.2441    2.4051   -1.1785 C   0  0  0  0  0  0  0  0  0  0  0  0
   -1.6267    3.2567    0.5049 C   0  0  0  0  0  0  0  0  0  0  0  0
    1.9040    0.2714   -0.2225 C   0  0  0  0  0  0  0  0  0  0  0  0
    1.3157    2.0490   -2.2567 C   0  0  0  0  0  0  0  0  0  0  0  0
    2.9123    0.6464   -1.1097 C   0  0  0  0  0  0  0  0  0  0  0  0
   -2.3133   -1.5463   -0.3428 C   0  0  0  0  0  0  0  0  0  0  0  0
   -1.9859   -2.5105   -1.4704 C   0  0  1  0  0  0  0  0  0  0  0  0
    2.6098    1.5402   -2.1358 C   0  0  0  0  0  0  0  0  0  0  0  0
   -1.2638   -3.7613   -0.9490 C   0  0  0  0  0  0  0  0  0  0  0  0
   -1.1098    0.6124    2.8944 C   0  0  0  0  0  0  0  0  0  0  0  0
    4.2461    0.0934   -0.9428 C   0  0  0  0  0  0  0  0  0  0  0  0
   -3.2870   -2.8869   -2.1736 C   0  0  0  0  0  0  0  0  0  0  0  0
    3.4633   -1.1825    1.0027 C   0  0  0  0  0  0  0  0  0  0  0  0
    4.5036   -0.7639    0.0474 C   0  0  0  0  0  0  0  0  0  0  0  0
    0.0564   -3.4312   -0.2641 C   0  0  0  0  0  0  0  0  0  0  0  0
   -0.7086    1.2964    4.1661 C   0  0  0  0  0  0  0  0  0  0  0  0
   -2.6551    0.7529    0.8957 H   0  0  0  0  0  0  0  0  0  0  0  0
   -0.3667   -0.7503    0.7623 H   0  0  0  0  0  0  0  0  0  0  0  0
   -3.4389    1.6959   -1.9910 H   0  0  0  0  0  0  0  0  0  0  0  0
   -4.0659    2.3441   -0.4574 H   0  0  0  0  0  0  0  0  0  0  0  0
   -3.2605    3.4001   -1.6389 H   0  0  0  0  0  0  0  0  0  0  0  0
   -0.6119    3.2257    0.9124 H   0  0  0  0  0  0  0  0  0  0  0  0
   -1.7166    4.2380    0.0237 H   0  0  0  0  0  0  0  0  0  0  0  0
   -2.3385    3.2168    1.3358 H   0  0  0  0  0  0  0  0  0  0  0  0
    1.0929    2.7475   -3.0599 H   0  0  0  0  0  0  0  0  0  0  0  0
   -1.3214   -2.0019   -2.1806 H   0  0  0  0  0  0  0  0  0  0  0  0
    3.3699    1.8515   -2.8478 H   0  0  0  0  0  0  0  0  0  0  0  0
   -1.9006   -4.3139   -0.2475 H   0  0  0  0  0  0  0  0  0  0  0  0
   -1.0610   -4.4334   -1.7918 H   0  0  0  0  0  0  0  0  0  0  0  0
    5.0273    0.3879   -1.6350 H   0  0  0  0  0  0  0  0  0  0  0  0
   -3.7941   -1.9961   -2.5601 H   0  0  0  0  0  0  0  0  0  0  0  0
   -3.0948   -3.5584   -3.0169 H   0  0  0  0  0  0  0  0  0  0  0  0
   -3.9799   -3.3877   -1.4882 H   0  0  0  0  0  0  0  0  0  0  0  0
    5.4971   -1.1791    0.1757 H   0  0  0  0  0  0  0  0  0  0  0  0
    0.6752   -2.7767   -0.8856 H   0  0  0  0  0  0  0  0  0  0  0  0
    0.6196   -4.3527   -0.0830 H   0  0  0  0  0  0  0  0  0  0  0  0
   -0.0987   -2.9566    0.7077 H   0  0  0  0  0  0  0  0  0  0  0  0
   -0.7116    2.3794    4.0198 H   0  0  0  0  0  0  0  0  0  0  0  0
    0.2811    0.9517    4.4755 H   0  0  0  0  0  0  0  0  0  0  0  0
   -1.4264    1.0488    4.9533 H   0  0  0  0  0  0  0  0  0  0  0  0
  1  8  1  0  0  0  0
  1 12  1  0  0  0  0
  2  9  1  0  0  0  0
  2 18  1  0  0  0  0
  3 10  1  0  0  0  0
  3 22  1  0  0  0  0
  4 15  1  0  0  0  0
  4 25  1  0  0  0  0
  5 18  2  0  0  0  0
  6 22  2  0  0  0  0
  7 25  2  0  0  0  0
  8  9  1  0  0  0  0
  8 13  1  0  0  0  0
  8 14  1  0  0  0  0
  9 10  1  0  0  0  0
  9 29  1  0  0  0  0
 10 11  1  0  0  0  0
 10 30  1  0  0  0  0
 11 12  2  0  0  0  0
 11 15  1  0  0  0  0
 12 16  1  0  0  0  0
 13 31  1  0  0  0  0
 13 32  1  0  0  0  0
 13 33  1  0  0  0  0
 14 34  1  0  0  0  0
 14 35  1  0  0  0  0
 14 36  1  0  0  0  0
 15 17  2  0  0  0  0
 16 20  2  0  0  0  0
 16 37  1  0  0  0  0
 17 20  1  0  0  0  0
 17 23  1  0  0  0  0
 18 19  1  0  0  0  0
 19 21  1  0  0  0  0
 19 24  1  0  0  0  0
 19 38  1  0  0  0  0
 20 39  1  0  0  0  0
 21 27  1  0  0  0  0
 21 40  1  0  0  0  0
 21 41  1  0  0  0  0
 22 28  1  0  0  0  0
 23 26  2  0  0  0  0
 23 42  1  0  0  0  0
 24 43  1  0  0  0  0
 24 44  1  0  0  0  0
 24 45  1  0  0  0  0
 25 26  1  0  0  0  0
 26 46  1  0  0  0  0
 27 47  1  0  0  0  0
 27 48  1  0  0  0  0
 27 49  1  0  0  0  0
 28 50  1  0  0  0  0
 28 51  1  0  0  0  0
 28 52  1  0  0  0  0
M  END
> <PUBCHEM_COMPOUND_CID>
10157

> <PUBCHEM_CONFORMER_RMSD>
0.8

> <PUBCHEM_CONFORMER_DIVERSEORDER>
2
35
23
25
58
19
46
37
43
55
15
54
40
45
50
17
7
44
39
51
47
32
20
31
49
52
57
29
56
41
26
34
22
5
42
30
48
13
38
9
14
53
27
10
36
11
28
24
8
16
18
6
33
21
12
1
4
3

> <PUBCHEM_MMFF94_PARTIAL_CHARGES>
27
1 -0.36
10 0.42
11 -0.14
12 0.08
15 0.08
16 -0.15
17 0.03
18 0.66
19 0.06
2 -0.43
20 -0.15
22 0.66
23 -0.18
25 0.71
26 -0.14
28 0.06
3 -0.43
37 0.15
39 0.15
4 -0.23
42 0.15
46 0.15
5 -0.57
6 -0.57
7 -0.57
8 0.28
9 0.28

> <PUBCHEM_EFFECTIVE_ROTOR_COUNT>
6.8

> <PUBCHEM_PHARMACOPHORE_FEATURES>
10
1 1 acceptor
1 24 hydrophobe
1 27 hydrophobe
1 5 acceptor
1 6 acceptor
1 7 acceptor
3 8 13 14 hydrophobe
6 1 8 9 10 11 12 rings
6 11 12 15 16 17 20 rings
6 4 15 17 23 25 26 rings

> <PUBCHEM_HEAVY_ATOM_COUNT>
28

> <PUBCHEM_ATOM_DEF_STEREO_COUNT>
0

> <PUBCHEM_ATOM_UDEF_STEREO_COUNT>
3

> <PUBCHEM_BOND_DEF_STEREO_COUNT>
0

> <PUBCHEM_BOND_UDEF_STEREO_COUNT>
0

> <PUBCHEM_ISOTOPIC_ATOM_COUNT>
0

> <PUBCHEM_COMPONENT_COUNT>
1

> <PUBCHEM_CACTVS_TAUTO_COUNT>
1

> <PUBCHEM_CONFORMER_ID>
000027AD00000002

> <PUBCHEM_MMFF94_ENERGY>
87.1601

> <PUBCHEM_FEATURE_SELFOVERLAP>
50.805

> <PUBCHEM_SHAPE_FINGERPRINT>
11370993 70 17901973024867266642
11578080 2 18189624851729300193
12156800 1 16544755593988568022
12422481 6 18124576825239002241
12539773 59 18265308703739593162
12553582 1 18122337982608854686
12788726 201 18409725123789154397
16752209 62 18409177596905563430
16945 1 18189063134409906301
20600515 1 17749112171091339593
20602899 9 18043249239491959925
23419403 2 17098934584536433985
23559900 14 18041002882140310524
23598288 3 18270101470777696773
23728640 28 18340487867117790927
238 59 16693858948428513350
298252 57 18127698342760927565
3027735 51 18261405476179562711
3493558 16 15519847234617140136
35225 105 17606368112506229323
81228 2 16661188356337025865
90525 40 18342453789507935103

> <PUBCHEM_SHAPE_MULTIPOLES>
535.14
6
4.01
3.07
5.93
2.73
-3.03
2.33
1.1
-3.76
1.34
-0.6
-1.65
-2.09

> <PUBCHEM_SHAPE_SELFOVERLAP>
1145.899

> <PUBCHEM_SHAPE_VOLUME>
294.1

> <PUBCHEM_COORDINATE_TYPE>
2
5
10

$$$$

