3358
  -OEChem-06251223223D

 98105  0     0  0  0  0  0  0999 V2000
   -3.4768    4.6321    1.2000 O   0  0  0  0  0  0  0  0  0  0  0  0
    2.2413   -4.0949   -2.8304 O   0  0  0  0  0  0  0  0  0  0  0  0
   -5.3713   -0.4981   -1.6844 N   0  3  0  0  0  0  0  0  0  0  0  0
    1.7125    2.0619   -3.0795 N   0  3  0  0  0  0  0  0  0  0  0  0
   -4.8810   -1.9334    0.7601 N   0  3  0  0  0  0  0  0  0  0  0  0
    4.2033    2.2267   -1.6225 N   0  3  0  0  0  0  0  0  0  0  0  0
    0.1621    0.7234    2.4021 N   0  0  0  0  0  0  0  0  0  0  0  0
    3.3661   -2.2365    2.1941 N   0  0  0  0  0  0  0  0  0  0  0  0
   -3.0133    0.5118   -3.1287 C   0  0  0  0  0  0  0  0  0  0  0  0
   -2.0505    1.6360   -3.5144 C   0  0  0  0  0  0  0  0  0  0  0  0
   -4.4533    0.8559   -3.5116 C   0  0  0  0  0  0  0  0  0  0  0  0
   -0.6154    1.3062   -3.1013 C   0  0  0  0  0  0  0  0  0  0  0  0
   -5.3995   -0.2815   -3.1570 C   0  0  0  0  0  0  0  0  0  0  0  0
    0.3302    2.4439   -3.4561 C   0  0  0  0  0  0  0  0  0  0  0  0
   -6.3031   -1.5454   -1.2012 C   0  0  0  0  0  0  0  0  0  0  0  0
    2.7473    3.0736   -3.4289 C   0  0  0  0  0  0  0  0  0  0  0  0
   -6.2422   -1.6473    0.3130 C   0  0  0  0  0  0  0  0  0  0  0  0
    4.1297    2.5617   -3.0634 C   0  0  0  0  0  0  0  0  0  0  0  0
   -2.7469   -1.1379    1.4563 C   0  0  0  0  0  0  0  0  0  0  0  0
    3.9470    0.6245    0.1207 C   0  0  0  0  0  0  0  0  0  0  0  0
   -1.8263   -0.0775    1.7542 C   0  0  0  0  0  0  0  0  0  0  0  0
    3.6233   -0.6919    0.5931 C   0  0  0  0  0  0  0  0  0  0  0  0
   -4.0621   -0.9067    1.0251 C   0  0  0  0  0  0  0  0  0  0  0  0
    3.8907    0.9830   -1.2349 C   0  0  0  0  0  0  0  0  0  0  0  0
   -0.5415   -0.4337    2.1758 C   0  0  0  0  0  0  0  0  0  0  0  0
    3.7168   -0.9284    1.9681 C   0  0  0  0  0  0  0  0  0  0  0  0
   -2.3251   -2.4854    1.5987 C   0  0  0  0  0  0  0  0  0  0  0  0
    4.3431    1.6195    1.0518 C   0  0  0  0  0  0  0  0  0  0  0  0
   -1.8653    1.3676    1.7371 C   0  0  0  0  0  0  0  0  0  0  0  0
    3.1948   -1.9351   -0.0077 C   0  0  0  0  0  0  0  0  0  0  0  0
   -0.6108    1.8261    2.1456 C   0  0  0  0  0  0  0  0  0  0  0  0
    3.0460   -2.8686    1.0206 C   0  0  0  0  0  0  0  0  0  0  0  0
   -4.5053   -3.2096    0.8870 C   0  0  0  0  0  0  0  0  0  0  0  0
    4.5786    3.1792   -0.7637 C   0  0  0  0  0  0  0  0  0  0  0  0
   -3.2219   -3.5196    1.3082 C   0  0  0  0  0  0  0  0  0  0  0  0
    4.6586    2.9030    0.5920 C   0  0  0  0  0  0  0  0  0  0  0  0
   -0.1171   -1.7573    2.3191 C   0  0  0  0  0  0  0  0  0  0  0  0
    4.1060    0.0446    2.8925 C   0  0  0  0  0  0  0  0  0  0  0  0
   -1.0257   -2.7728    2.0250 C   0  0  0  0  0  0  0  0  0  0  0  0
    4.4161    1.3167    2.4141 C   0  0  0  0  0  0  0  0  0  0  0  0
   -2.8397    2.3409    1.4156 C   0  0  0  0  0  0  0  0  0  0  0  0
    2.9155   -2.3688   -1.3244 C   0  0  0  0  0  0  0  0  0  0  0  0
   -0.2836    3.1840    2.2479 C   0  0  0  0  0  0  0  0  0  0  0  0
    2.6393   -4.1916    0.8060 C   0  0  0  0  0  0  0  0  0  0  0  0
   -2.5293    3.7037    1.5127 C   0  0  0  0  0  0  0  0  0  0  0  0
    2.5077   -3.6889   -1.5570 C   0  0  0  0  0  0  0  0  0  0  0  0
   -1.2678    4.1176    1.9235 C   0  0  0  0  0  0  0  0  0  0  0  0
    2.3721   -4.5866   -0.5048 C   0  0  0  0  0  0  0  0  0  0  0  0
   -3.1033    6.0033    1.3175 C   0  0  0  0  0  0  0  0  0  0  0  0
    1.8303   -5.4492   -3.0056 C   0  0  0  0  0  0  0  0  0  0  0  0
   -2.9206    0.3570   -2.0488 H   0  0  0  0  0  0  0  0  0  0  0  0
   -2.7089   -0.4198   -3.6210 H   0  0  0  0  0  0  0  0  0  0  0  0
   -2.3647    2.5690   -3.0307 H   0  0  0  0  0  0  0  0  0  0  0  0
   -2.0933    1.8024   -4.5976 H   0  0  0  0  0  0  0  0  0  0  0  0
   -4.5130    1.0440   -4.5900 H   0  0  0  0  0  0  0  0  0  0  0  0
   -4.7651    1.7780   -3.0061 H   0  0  0  0  0  0  0  0  0  0  0  0
   -0.5763    1.1166   -2.0211 H   0  0  0  0  0  0  0  0  0  0  0  0
   -0.2953    0.3830   -3.6004 H   0  0  0  0  0  0  0  0  0  0  0  0
   -6.4280   -0.0275   -3.4327 H   0  0  0  0  0  0  0  0  0  0  0  0
   -5.1087   -1.2211   -3.6379 H   0  0  0  0  0  0  0  0  0  0  0  0
    0.3254    2.6414   -4.5332 H   0  0  0  0  0  0  0  0  0  0  0  0
    0.0800    3.3597   -2.9106 H   0  0  0  0  0  0  0  0  0  0  0  0
   -4.4202   -0.7747   -1.4195 H   0  0  0  0  0  0  0  0  0  0  0  0
   -5.5688    0.3901   -1.2031 H   0  0  0  0  0  0  0  0  0  0  0  0
    1.7213    1.8911   -2.0659 H   0  0  0  0  0  0  0  0  0  0  0  0
    1.9511    1.1661   -3.5272 H   0  0  0  0  0  0  0  0  0  0  0  0
   -7.3112   -1.2713   -1.5278 H   0  0  0  0  0  0  0  0  0  0  0  0
   -6.0063   -2.4858   -1.6771 H   0  0  0  0  0  0  0  0  0  0  0  0
    2.5008    3.9867   -2.8774 H   0  0  0  0  0  0  0  0  0  0  0  0
    2.6777    3.2625   -4.5047 H   0  0  0  0  0  0  0  0  0  0  0  0
   -6.5757   -0.7177    0.7903 H   0  0  0  0  0  0  0  0  0  0  0  0
   -6.9038   -2.4427    0.6754 H   0  0  0  0  0  0  0  0  0  0  0  0
    4.3913    1.6628   -3.6344 H   0  0  0  0  0  0  0  0  0  0  0  0
    4.8964    3.3144   -3.2796 H   0  0  0  0  0  0  0  0  0  0  0  0
   -4.4839    0.0787    0.9019 H   0  0  0  0  0  0  0  0  0  0  0  0
    3.6181    0.2980   -2.0225 H   0  0  0  0  0  0  0  0  0  0  0  0
   -5.2331   -3.9750    0.6455 H   0  0  0  0  0  0  0  0  0  0  0  0
    4.8073    4.1580   -1.1679 H   0  0  0  0  0  0  0  0  0  0  0  0
    1.1222    0.7573    2.7154 H   0  0  0  0  0  0  0  0  0  0  0  0
    3.3468   -2.6745    3.1047 H   0  0  0  0  0  0  0  0  0  0  0  0
   -2.9310   -4.5622    1.4051 H   0  0  0  0  0  0  0  0  0  0  0  0
    4.9639    3.6886    1.2779 H   0  0  0  0  0  0  0  0  0  0  0  0
    0.8641   -1.9937    2.7022 H   0  0  0  0  0  0  0  0  0  0  0  0
    4.1653   -0.1776    3.9532 H   0  0  0  0  0  0  0  0  0  0  0  0
   -0.7012   -3.8049    2.1476 H   0  0  0  0  0  0  0  0  0  0  0  0
    4.7187    2.0771    3.1323 H   0  0  0  0  0  0  0  0  0  0  0  0
   -3.8344    2.0574    1.0893 H   0  0  0  0  0  0  0  0  0  0  0  0
    3.0082   -1.6976   -2.1713 H   0  0  0  0  0  0  0  0  0  0  0  0
    0.7033    3.5024    2.5682 H   0  0  0  0  0  0  0  0  0  0  0  0
    2.5334   -4.8887    1.6310 H   0  0  0  0  0  0  0  0  0  0  0  0
   -0.9745    5.1582    2.0155 H   0  0  0  0  0  0  0  0  0  0  0  0
    2.0594   -5.6182   -0.6283 H   0  0  0  0  0  0  0  0  0  0  0  0
   -2.8624    6.2687    2.3526 H   0  0  0  0  0  0  0  0  0  0  0  0
   -2.2974    6.2629    0.6226 H   0  0  0  0  0  0  0  0  0  0  0  0
   -3.9749    6.6008    1.0307 H   0  0  0  0  0  0  0  0  0  0  0  0
    2.6160   -6.1512   -2.7060 H   0  0  0  0  0  0  0  0  0  0  0  0
    0.8782   -5.6501   -2.5026 H   0  0  0  0  0  0  0  0  0  0  0  0
    1.6616   -5.5991   -4.0771 H   0  0  0  0  0  0  0  0  0  0  0  0
  1 45  1  0  0  0  0
  1 49  1  0  0  0  0
  2 46  1  0  0  0  0
  2 50  1  0  0  0  0
  3 13  1  0  0  0  0
  3 15  1  0  0  0  0
  3 63  1  0  0  0  0
  3 64  1  0  0  0  0
  4 14  1  0  0  0  0
  4 16  1  0  0  0  0
  4 65  1  0  0  0  0
  4 66  1  0  0  0  0
  5 17  1  0  0  0  0
  5 23  2  0  0  0  0
  5 33  1  0  0  0  0
  6 18  1  0  0  0  0
  6 24  2  0  0  0  0
  6 34  1  0  0  0  0
  7 25  1  0  0  0  0
  7 31  1  0  0  0  0
  7 79  1  0  0  0  0
  8 26  1  0  0  0  0
  8 32  1  0  0  0  0
  8 80  1  0  0  0  0
  9 10  1  0  0  0  0
  9 11  1  0  0  0  0
  9 51  1  0  0  0  0
  9 52  1  0  0  0  0
 10 12  1  0  0  0  0
 10 53  1  0  0  0  0
 10 54  1  0  0  0  0
 11 13  1  0  0  0  0
 11 55  1  0  0  0  0
 11 56  1  0  0  0  0
 12 14  1  0  0  0  0
 12 57  1  0  0  0  0
 12 58  1  0  0  0  0
 13 59  1  0  0  0  0
 13 60  1  0  0  0  0
 14 61  1  0  0  0  0
 14 62  1  0  0  0  0
 15 17  1  0  0  0  0
 15 67  1  0  0  0  0
 15 68  1  0  0  0  0
 16 18  1  0  0  0  0
 16 69  1  0  0  0  0
 16 70  1  0  0  0  0
 17 71  1  0  0  0  0
 17 72  1  0  0  0  0
 18 73  1  0  0  0  0
 18 74  1  0  0  0  0
 19 21  1  0  0  0  0
 19 23  1  0  0  0  0
 19 27  2  0  0  0  0
 20 22  1  0  0  0  0
 20 24  1  0  0  0  0
 20 28  2  0  0  0  0
 21 25  2  0  0  0  0
 21 29  1  0  0  0  0
 22 26  2  0  0  0  0
 22 30  1  0  0  0  0
 23 75  1  0  0  0  0
 24 76  1  0  0  0  0
 25 37  1  0  0  0  0
 26 38  1  0  0  0  0
 27 35  1  0  0  0  0
 27 39  1  0  0  0  0
 28 36  1  0  0  0  0
 28 40  1  0  0  0  0
 29 31  2  0  0  0  0
 29 41  1  0  0  0  0
 30 32  2  0  0  0  0
 30 42  1  0  0  0  0
 31 43  1  0  0  0  0
 32 44  1  0  0  0  0
 33 35  2  0  0  0  0
 33 77  1  0  0  0  0
 34 36  2  0  0  0  0
 34 78  1  0  0  0  0
 35 81  1  0  0  0  0
 36 82  1  0  0  0  0
 37 39  2  0  0  0  0
 37 83  1  0  0  0  0
 38 40  2  0  0  0  0
 38 84  1  0  0  0  0
 39 85  1  0  0  0  0
 40 86  1  0  0  0  0
 41 45  2  0  0  0  0
 41 87  1  0  0  0  0
 42 46  2  0  0  0  0
 42 88  1  0  0  0  0
 43 47  2  0  0  0  0
 43 89  1  0  0  0  0
 44 48  2  0  0  0  0
 44 90  1  0  0  0  0
 45 47  1  0  0  0  0
 46 48  1  0  0  0  0
 47 91  1  0  0  0  0
 48 92  1  0  0  0  0
 49 93  1  0  0  0  0
 49 94  1  0  0  0  0
 49 95  1  0  0  0  0
 50 96  1  0  0  0  0
 50 97  1  0  0  0  0
 50 98  1  0  0  0  0
M  CHG  4   3   1   4   1   5   1   6   1
M  END
> <PUBCHEM_COMPOUND_CID>
3358

> <PUBCHEM_CONFORMER_RMSD>
2

> <PUBCHEM_CONFORMER_DIVERSEORDER>
1
162
94
177
129
6
141
132
146
152
104
59
198
24
101
171
121
196
147
178
39
173
12
34
20
110
99
5
200
65
15
95
43
29
109
74
36
185
117
64
158
137
86
44
123
48
155
126
143
71
112
27
60
145
91
16
28
195
148
183
18
33
125
83
69
22
19
134
169
176
90
131
156
30
107
93
89
189
124
52
184
41
192
14
172
191
73
87
133
170
47
2
46
164
118
188
115
151
181
197
193
174
49
58
119
66
77
163
116
92
11
166
114
85
61
25
149
130
136
63
187
40
179
100
7
38
31
142
140
157
167
127
153
76
10
108
182
67
8
55
160
159
45
26
13
4
161
165
194
168
106
17
105
175
98
111
84
62
190
102
9
57
32
128
88
75
199
23
78
150
53
42
72
135
3
56
120
138
70
79
154
144
103
21
113
50
37
51
81
54
97
139
96
82
35
80
186
180
122
68

> <PUBCHEM_MMFF94_PARTIAL_CHARGES>
60
1 -0.36
13 0.5
14 0.5
15 0.5
16 0.5
17 0.49
18 0.49
2 -0.36
23 0.21
24 0.21
25 -0.15
26 -0.15
3 -0.91
31 -0.15
32 -0.15
33 0.21
34 0.21
35 -0.15
36 -0.15
37 -0.15
38 -0.15
39 -0.15
4 -0.91
40 -0.15
41 -0.15
42 -0.15
43 -0.15
44 -0.15
45 0.08
46 0.08
47 -0.15
48 -0.15
49 0.28
5 -0.21
50 0.28
6 -0.21
63 0.45
64 0.45
65 0.45
66 0.45
7 0.03
75 0.15
76 0.15
77 0.15
78 0.15
79 0.27
8 0.03
80 0.27
81 0.15
82 0.15
83 0.15
84 0.15
85 0.15
86 0.15
87 0.15
88 0.15
89 0.15
90 0.15
91 0.15
92 0.15

> <PUBCHEM_EFFECTIVE_ROTOR_COUNT>
15

> <PUBCHEM_PHARMACOPHORE_FEATURES>
19
1 1 acceptor
1 2 acceptor
1 3 cation
1 3 donor
1 4 cation
1 4 donor
1 7 cation
1 7 donor
1 8 cation
1 8 donor
4 9 10 11 12 hydrophobe
5 7 21 25 29 31 rings
5 8 22 26 30 32 rings
6 19 21 25 27 37 39 rings
6 20 22 26 28 38 40 rings
6 29 31 41 43 45 47 rings
6 30 32 42 44 46 48 rings
6 5 19 23 27 33 35 rings
6 6 20 24 28 34 36 rings

> <PUBCHEM_HEAVY_ATOM_COUNT>
50

> <PUBCHEM_ATOM_DEF_STEREO_COUNT>
0

> <PUBCHEM_ATOM_UDEF_STEREO_COUNT>
0

> <PUBCHEM_BOND_DEF_STEREO_COUNT>
0

> <PUBCHEM_BOND_UDEF_STEREO_COUNT>
0

> <PUBCHEM_ISOTOPIC_ATOM_COUNT>
0

> <PUBCHEM_COMPONENT_COUNT>
1

> <PUBCHEM_CACTVS_TAUTO_COUNT>
1

> <PUBCHEM_CONFORMER_ID>
00000D1E00000001

> <PUBCHEM_MMFF94_ENERGY>
136.3192

> <PUBCHEM_FEATURE_SELFOVERLAP>
96.814

> <PUBCHEM_SHAPE_FINGERPRINT>
11513181 2 18264753532019183178
15444296 8 17605870030098501277
15975801 100 16951660602696990452
21133410 90 18122641456482499040
24771750 20 17693371141126587441
3493558 16 18273214192717673077
44426695 316 18046361746694225454
469060 322 17386588893661944221

> <PUBCHEM_SHAPE_MULTIPOLES>
987.35
11.91
7.45
4.78
7.57
0.15
-4.52
0.75
-2.65
-1
-0.38
0.46
-2.03
-0.71

> <PUBCHEM_SHAPE_SELFOVERLAP>
2183.378

> <PUBCHEM_SHAPE_VOLUME>
534.6

> <PUBCHEM_COORDINATE_TYPE>
2
5
10

$$$$

