13409
  -OEChem-06261209463D

 25 27  0     1  0  0  0  0  0999 V2000
    2.2778   -0.8592   -0.6872 O   0  0  0  0  0  0  0  0  0  0  0  0
   -0.5292    1.2786   -0.6196 C   0  0  1  0  0  0  0  0  0  0  0  0
    0.2598    1.7114    0.5745 C   0  0  2  0  0  0  0  0  0  0  0  0
    0.9788    1.1864   -0.6374 C   0  0  1  0  0  0  0  0  0  0  0  0
   -1.0887   -0.1212   -0.3525 C   0  0  0  0  0  0  0  0  0  0  0  0
    0.1159   -0.5882    0.5771 C   0  0  2  0  0  0  0  0  0  0  0  0
    0.2506    0.5954    1.6038 C   0  0  0  0  0  0  0  0  0  0  0  0
    1.3131   -0.2254   -0.3177 C   0  0  0  0  0  0  0  0  0  0  0  0
   -2.4500   -0.0626    0.3487 C   0  0  0  0  0  0  0  0  0  0  0  0
   -1.2275   -0.9401   -1.6427 C   0  0  0  0  0  0  0  0  0  0  0  0
    0.0994   -1.9752    1.1530 C   0  0  0  0  0  0  0  0  0  0  0  0
   -1.0692    1.9675   -1.2404 H   0  0  0  0  0  0  0  0  0  0  0  0
    0.3369    2.7325    0.8919 H   0  0  0  0  0  0  0  0  0  0  0  0
    1.5821    1.8215   -1.2612 H   0  0  0  0  0  0  0  0  0  0  0  0
    1.1937    0.5615    2.1607 H   0  0  0  0  0  0  0  0  0  0  0  0
   -0.5864    0.6693    2.3017 H   0  0  0  0  0  0  0  0  0  0  0  0
   -3.2172    0.3217   -0.3339 H   0  0  0  0  0  0  0  0  0  0  0  0
   -2.4571    0.6024    1.2167 H   0  0  0  0  0  0  0  0  0  0  0  0
   -2.7648   -1.0575    0.6802 H   0  0  0  0  0  0  0  0  0  0  0  0
   -1.5369   -1.9676   -1.4244 H   0  0  0  0  0  0  0  0  0  0  0  0
   -0.2978   -0.9850   -2.2187 H   0  0  0  0  0  0  0  0  0  0  0  0
   -1.9803   -0.4942   -2.3031 H   0  0  0  0  0  0  0  0  0  0  0  0
    0.0664   -2.7324    0.3630 H   0  0  0  0  0  0  0  0  0  0  0  0
    1.0038   -2.1642    1.7414 H   0  0  0  0  0  0  0  0  0  0  0  0
   -0.7648   -2.1243    1.8072 H   0  0  0  0  0  0  0  0  0  0  0  0
  1  8  2  0  0  0  0
  2  3  1  0  0  0  0
  2  4  1  0  0  0  0
  2  5  1  0  0  0  0
  2 12  1  0  0  0  0
  3  4  1  0  0  0  0
  3  7  1  0  0  0  0
  3 13  1  0  0  0  0
  4  8  1  0  0  0  0
  4 14  1  0  0  0  0
  5  6  1  0  0  0  0
  5  9  1  0  0  0  0
  5 10  1  0  0  0  0
  6  7  1  0  0  0  0
  6  8  1  0  0  0  0
  6 11  1  0  0  0  0
  7 15  1  0  0  0  0
  7 16  1  0  0  0  0
  9 17  1  0  0  0  0
  9 18  1  0  0  0  0
  9 19  1  0  0  0  0
 10 20  1  0  0  0  0
 10 21  1  0  0  0  0
 10 22  1  0  0  0  0
 11 23  1  0  0  0  0
 11 24  1  0  0  0  0
 11 25  1  0  0  0  0
M  END
> <PUBCHEM_COMPOUND_CID>
13409

> <PUBCHEM_CONFORMER_RMSD>
0.4

> <PUBCHEM_CONFORMER_DIVERSEORDER>
2
1

> <PUBCHEM_MMFF94_PARTIAL_CHARGES>
11
1 -0.57
12 0.1
13 0.1
14 0.1
2 -0.19
3 -0.19
4 -0.1
5 0.09
6 0.06
7 0.09
8 0.51

> <PUBCHEM_EFFECTIVE_ROTOR_COUNT>
0.4

> <PUBCHEM_PHARMACOPHORE_FEATURES>
3
1 1 acceptor
3 5 9 10 hydrophobe
7 2 3 4 5 6 7 8 rings

> <PUBCHEM_HEAVY_ATOM_COUNT>
11

> <PUBCHEM_ATOM_DEF_STEREO_COUNT>
0

> <PUBCHEM_ATOM_UDEF_STEREO_COUNT>
4

> <PUBCHEM_BOND_DEF_STEREO_COUNT>
0

> <PUBCHEM_BOND_UDEF_STEREO_COUNT>
0

> <PUBCHEM_ISOTOPIC_ATOM_COUNT>
0

> <PUBCHEM_COMPONENT_COUNT>
1

> <PUBCHEM_CACTVS_TAUTO_COUNT>
1

> <PUBCHEM_CONFORMER_ID>
0000346100000002

> <PUBCHEM_MMFF94_ENERGY>
64.87

> <PUBCHEM_FEATURE_SELFOVERLAP>
15.223

> <PUBCHEM_SHAPE_FINGERPRINT>
12423570 1 18114733936295019957
13024252 1 17486742390086982166
137420 1 15261722466070062816
16945 1 18261658372358709533
21040471 1 17913493428530339697
21922407 69 15651605625703743725
241688 4 18263381221269674903
29004967 10 18410285887414388856
369184 2 18197490930060461654
5084963 1 18336540517706322945
528886 8 18130785680847689481
54276843 12 18262224633731896529

> <PUBCHEM_SHAPE_MULTIPOLES>
220.51
2.06
1.73
1.42
0.61
0.27
0.03
0.19
-0.45
-0.31
0.29
0.11
0.2
0.06

> <PUBCHEM_SHAPE_SELFOVERLAP>
488.52

> <PUBCHEM_SHAPE_VOLUME>
125.9

> <PUBCHEM_COORDINATE_TYPE>
2
5
10

$$$$

