10794
  -OEChem-06261204583D

 14 13  0     0  0  0  0  0  0999 V2000
    0.9416    1.6727    0.0007 S   0  0  0  0  0  0  0  0  0  0  0  0
   -1.3684    0.4050   -0.0012 N   0  0  0  0  0  0  0  0  0  0  0  0
    0.7187   -0.8920   -0.0005 N   0  0  0  0  0  0  0  0  0  0  0  0
   -0.0107    0.1639   -0.0005 C   0  0  0  0  0  0  0  0  0  0  0  0
   -2.4455   -0.5516    0.0012 C   0  0  0  0  0  0  0  0  0  0  0  0
    2.1642   -0.7980    0.0004 C   0  0  0  0  0  0  0  0  0  0  0  0
   -1.6691    1.3759   -0.0020 H   0  0  0  0  0  0  0  0  0  0  0  0
   -2.3933   -1.1833    0.8927 H   0  0  0  0  0  0  0  0  0  0  0  0
   -2.3931   -1.1880   -0.8870 H   0  0  0  0  0  0  0  0  0  0  0  0
   -3.4098   -0.0353   -0.0002 H   0  0  0  0  0  0  0  0  0  0  0  0
    2.5634   -1.8194    0.0003 H   0  0  0  0  0  0  0  0  0  0  0  0
    2.5651   -0.3327    0.9080 H   0  0  0  0  0  0  0  0  0  0  0  0
    2.5662   -0.3320   -0.9062 H   0  0  0  0  0  0  0  0  0  0  0  0
   -0.0813    2.5383    0.0011 H   0  0  0  0  0  0  0  0  0  0  0  0
  1  4  1  0  0  0  0
  1 14  1  0  0  0  0
  2  4  1  0  0  0  0
  2  5  1  0  0  0  0
  2  7  1  0  0  0  0
  3  4  2  0  0  0  0
  3  6  1  0  0  0  0
  5  8  1  0  0  0  0
  5  9  1  0  0  0  0
  5 10  1  0  0  0  0
  6 11  1  0  0  0  0
  6 12  1  0  0  0  0
  6 13  1  0  0  0  0
M  END
> <PUBCHEM_COMPOUND_CID>
10794

> <PUBCHEM_CONFORMER_RMSD>
0.4

> <PUBCHEM_CONFORMER_DIVERSEORDER>
1
2
3
4

> <PUBCHEM_MMFF94_PARTIAL_CHARGES>
8
1 -0.32
14 0.18
2 -0.82
3 -0.7
4 0.64
5 0.37
6 0.25
7 0.4

> <PUBCHEM_EFFECTIVE_ROTOR_COUNT>
1

> <PUBCHEM_PHARMACOPHORE_FEATURES>
2
1 2 donor
3 2 3 4 cation

> <PUBCHEM_HEAVY_ATOM_COUNT>
6

> <PUBCHEM_ATOM_DEF_STEREO_COUNT>
0

> <PUBCHEM_ATOM_UDEF_STEREO_COUNT>
0

> <PUBCHEM_BOND_DEF_STEREO_COUNT>
0

> <PUBCHEM_BOND_UDEF_STEREO_COUNT>
0

> <PUBCHEM_ISOTOPIC_ATOM_COUNT>
0

> <PUBCHEM_COMPONENT_COUNT>
1

> <PUBCHEM_CACTVS_TAUTO_COUNT>
2

> <PUBCHEM_CONFORMER_ID>
00002A2A00000001

> <PUBCHEM_MMFF94_ENERGY>
20.9961

> <PUBCHEM_FEATURE_SELFOVERLAP>
10.148

> <PUBCHEM_SHAPE_FINGERPRINT>
139733 1 9222933877176165762
16714656 1 18262516038863016678
20096714 4 18192711142023292012
21040471 1 17834394523236434400
23552449 1 18050855712731127292
23552449 11 18271540718407675745
29004967 10 18410011073942562346
5460574 1 9223224152546348546
5943 1 8337385481462581344

> <PUBCHEM_SHAPE_MULTIPOLES>
117.36
2.98
1.47
0.6
1.43
0.53
0
-0.86
0
-0.83
0
-0.03
0.03
0

> <PUBCHEM_SHAPE_SELFOVERLAP>
198.311

> <PUBCHEM_SHAPE_VOLUME>
81.6

> <PUBCHEM_COORDINATE_TYPE>
2
5
10

$$$$

