8081
  -OEChem-06261202343D

 12 12  0     0  0  0  0  0  0999 V2000
   -1.2278    0.6039   -0.2213 O   0  0  0  0  0  0  0  0  0  0  0  0
    0.0909   -1.3652   -0.2213 O   0  0  0  0  0  0  0  0  0  0  0  0
    1.1368    0.7613   -0.2213 O   0  0  0  0  0  0  0  0  0  0  0  0
   -1.1187   -0.7493    0.2213 C   0  0  0  0  0  0  0  0  0  0  0  0
   -0.0894    1.3435    0.2213 C   0  0  0  0  0  0  0  0  0  0  0  0
    1.2083   -0.5942    0.2212 C   0  0  0  0  0  0  0  0  0  0  0  0
   -1.1939   -0.7996    1.3146 H   0  0  0  0  0  0  0  0  0  0  0  0
   -1.9573   -1.3109   -0.2000 H   0  0  0  0  0  0  0  0  0  0  0  0
   -0.1565    2.3505   -0.1999 H   0  0  0  0  0  0  0  0  0  0  0  0
   -0.0955    1.4337    1.3146 H   0  0  0  0  0  0  0  0  0  0  0  0
    1.2896   -0.6341    1.3145 H   0  0  0  0  0  0  0  0  0  0  0  0
    2.1139   -1.0397   -0.2001 H   0  0  0  0  0  0  0  0  0  0  0  0
  1  4  1  0  0  0  0
  1  5  1  0  0  0  0
  2  4  1  0  0  0  0
  2  6  1  0  0  0  0
  3  5  1  0  0  0  0
  3  6  1  0  0  0  0
  4  7  1  0  0  0  0
  4  8  1  0  0  0  0
  5  9  1  0  0  0  0
  5 10  1  0  0  0  0
  6 11  1  0  0  0  0
  6 12  1  0  0  0  0
M  END
> <PUBCHEM_COMPOUND_CID>
8081

> <PUBCHEM_CONFORMER_RMSD>
0.4

> <PUBCHEM_CONFORMER_DIVERSEORDER>
1

> <PUBCHEM_MMFF94_PARTIAL_CHARGES>
6
1 -0.56
2 -0.56
3 -0.56
4 0.56
5 0.56
6 0.56

> <PUBCHEM_EFFECTIVE_ROTOR_COUNT>
1.2

> <PUBCHEM_PHARMACOPHORE_FEATURES>
4
1 1 acceptor
1 2 acceptor
1 3 acceptor
6 1 2 3 4 5 6 rings

> <PUBCHEM_HEAVY_ATOM_COUNT>
6

> <PUBCHEM_ATOM_DEF_STEREO_COUNT>
0

> <PUBCHEM_ATOM_UDEF_STEREO_COUNT>
0

> <PUBCHEM_BOND_DEF_STEREO_COUNT>
0

> <PUBCHEM_BOND_UDEF_STEREO_COUNT>
0

> <PUBCHEM_ISOTOPIC_ATOM_COUNT>
0

> <PUBCHEM_COMPONENT_COUNT>
1

> <PUBCHEM_CACTVS_TAUTO_COUNT>
1

> <PUBCHEM_CONFORMER_ID>
00001F9100000001

> <PUBCHEM_MMFF94_ENERGY>
11.4008

> <PUBCHEM_FEATURE_SELFOVERLAP>
20.408

> <PUBCHEM_SHAPE_FINGERPRINT>
16714656 1 17907844116322585268
20096714 4 17688865337373865555
21015797 1 9291690745907981274
21040471 1 16681754360525264657
5943 1 17414396723601604877

> <PUBCHEM_SHAPE_MULTIPOLES>
105.87
1.48
1.48
0.61
0.06
0.07
0.04
-0.07
0.01
-0.06
0.01
0
0
0

> <PUBCHEM_SHAPE_SELFOVERLAP>
200.946

> <PUBCHEM_SHAPE_VOLUME>
62.5

> <PUBCHEM_COORDINATE_TYPE>
2
5
10

$$$$

