9805
  -OEChem-06261204053D

 12 12  0     0  0  0  0  0  0999 V2000
    2.0710   -1.7852    0.0004 F   0  0  0  0  0  0  0  0  0  0  0  0
   -0.5107   -2.6861   -0.0002 F   0  0  0  0  0  0  0  0  0  0  0  0
    2.5815    0.9010   -0.0002 F   0  0  0  0  0  0  0  0  0  0  0  0
   -2.5815   -0.9008   -0.0007 F   0  0  0  0  0  0  0  0  0  0  0  0
    0.5105    2.6860    0.0000 F   0  0  0  0  0  0  0  0  0  0  0  0
   -2.0709    1.7852    0.0004 F   0  0  0  0  0  0  0  0  0  0  0  0
    1.0566   -0.9108   -0.0001 C   0  0  0  0  0  0  0  0  0  0  0  0
   -0.2605   -1.3703    0.0004 C   0  0  0  0  0  0  0  0  0  0  0  0
    1.3170    0.4595   -0.0004 C   0  0  0  0  0  0  0  0  0  0  0  0
   -1.3170   -0.4595    0.0005 C   0  0  0  0  0  0  0  0  0  0  0  0
    0.2605    1.3703   -0.0002 C   0  0  0  0  0  0  0  0  0  0  0  0
   -1.0565    0.9107    0.0000 C   0  0  0  0  0  0  0  0  0  0  0  0
  1  7  1  0  0  0  0
  2  8  1  0  0  0  0
  3  9  1  0  0  0  0
  4 10  1  0  0  0  0
  5 11  1  0  0  0  0
  6 12  1  0  0  0  0
  7  8  2  0  0  0  0
  7  9  1  0  0  0  0
  8 10  1  0  0  0  0
  9 11  2  0  0  0  0
 10 12  2  0  0  0  0
 11 12  1  0  0  0  0
M  END
> <PUBCHEM_COMPOUND_CID>
9805

> <PUBCHEM_CONFORMER_RMSD>
0.4

> <PUBCHEM_CONFORMER_DIVERSEORDER>
1

> <PUBCHEM_MMFF94_PARTIAL_CHARGES>
12
1 -0.19
10 0.19
11 0.19
12 0.19
2 -0.19
3 -0.19
4 -0.19
5 -0.19
6 -0.19
7 0.19
8 0.19
9 0.19

> <PUBCHEM_EFFECTIVE_ROTOR_COUNT>
0

> <PUBCHEM_PHARMACOPHORE_FEATURES>
1
6 7 8 9 10 11 12 rings

> <PUBCHEM_HEAVY_ATOM_COUNT>
12

> <PUBCHEM_ATOM_DEF_STEREO_COUNT>
0

> <PUBCHEM_ATOM_UDEF_STEREO_COUNT>
0

> <PUBCHEM_BOND_DEF_STEREO_COUNT>
0

> <PUBCHEM_BOND_UDEF_STEREO_COUNT>
0

> <PUBCHEM_ISOTOPIC_ATOM_COUNT>
0

> <PUBCHEM_COMPONENT_COUNT>
1

> <PUBCHEM_CACTVS_TAUTO_COUNT>
1

> <PUBCHEM_CONFORMER_ID>
0000264D00000001

> <PUBCHEM_MMFF94_ENERGY>
13.4799

> <PUBCHEM_FEATURE_SELFOVERLAP>
5.074

> <PUBCHEM_SHAPE_FINGERPRINT>
12423570 1 10352068371176271979
16945 1 18266740181857992710
18185500 45 18194121802556722814
193761 8 18266459806392909829
21040471 1 18410575089137491716
2334 1 18410575106137915399
23552423 10 18272083958909273222
23559900 14 18262223479594100004
241688 4 18266741457463279969
2748010 2 18338517546459725951
5084963 1 18114184180549963451
66348 1 18410855490192932866

> <PUBCHEM_SHAPE_MULTIPOLES>
203.31
2.61
2.61
0.56
0
0
0
0
0
0
0
0
0
0

> <PUBCHEM_SHAPE_SELFOVERLAP>
440.582

> <PUBCHEM_SHAPE_VOLUME>
111.1

> <PUBCHEM_COORDINATE_TYPE>
2
5
10

$$$$

