7334
  -OEChem-06261202013D

 34 34  0     1  0  0  0  0  0999 V2000
   -2.7088    0.0856    0.4162 O   0  0  0  0  0  0  0  0  0  0  0  0
   -1.6547    1.5723   -1.0033 O   0  0  0  0  0  0  0  0  0  0  0  0
    0.2629   -1.0403   -0.0447 C   0  0  0  0  0  0  0  0  0  0  0  0
    0.8751    0.2963   -0.2905 C   0  0  1  0  0  0  0  0  0  0  0  0
   -0.3941    0.2001    0.4861 C   0  0  1  0  0  0  0  0  0  0  0  0
   -0.3372   -1.7315   -1.2228 C   0  0  0  0  0  0  0  0  0  0  0  0
    0.8660   -1.9751    0.9504 C   0  0  0  0  0  0  0  0  0  0  0  0
    2.1000    0.6847    0.4343 C   0  0  0  0  0  0  0  0  0  0  0  0
   -1.6299    0.7132   -0.1324 C   0  0  0  0  0  0  0  0  0  0  0  0
    3.3769    0.4281    0.0912 C   0  0  0  0  0  0  0  0  0  0  0  0
    4.5213    0.8976    0.9456 C   0  0  0  0  0  0  0  0  0  0  0  0
    3.7740   -0.3306   -1.1434 C   0  0  0  0  0  0  0  0  0  0  0  0
   -3.9823    0.4913   -0.0958 C   0  0  0  0  0  0  0  0  0  0  0  0
   -5.0693   -0.2916    0.6092 C   0  0  0  0  0  0  0  0  0  0  0  0
    0.8246    0.7049   -1.2951 H   0  0  0  0  0  0  0  0  0  0  0  0
   -0.3448    0.3654    1.5593 H   0  0  0  0  0  0  0  0  0  0  0  0
   -0.6814   -1.0399   -1.9995 H   0  0  0  0  0  0  0  0  0  0  0  0
    0.3978   -2.3963   -1.6902 H   0  0  0  0  0  0  0  0  0  0  0  0
   -1.1943   -2.3407   -0.9158 H   0  0  0  0  0  0  0  0  0  0  0  0
    1.7330   -2.4887    0.5209 H   0  0  0  0  0  0  0  0  0  0  0  0
    1.1924   -1.4757    1.8693 H   0  0  0  0  0  0  0  0  0  0  0  0
    0.1373   -2.7382    1.2461 H   0  0  0  0  0  0  0  0  0  0  0  0
    1.9340    1.2563    1.3465 H   0  0  0  0  0  0  0  0  0  0  0  0
    5.1140    0.0430    1.2878 H   0  0  0  0  0  0  0  0  0  0  0  0
    5.1728    1.5657    0.3727 H   0  0  0  0  0  0  0  0  0  0  0  0
    4.1827    1.4434    1.8325 H   0  0  0  0  0  0  0  0  0  0  0  0
    4.4034    0.2949   -1.7849 H   0  0  0  0  0  0  0  0  0  0  0  0
    4.3408   -1.2264   -0.8692 H   0  0  0  0  0  0  0  0  0  0  0  0
    2.9155   -0.6543   -1.7389 H   0  0  0  0  0  0  0  0  0  0  0  0
   -4.1229    1.5632    0.0824 H   0  0  0  0  0  0  0  0  0  0  0  0
   -4.0223    0.2931   -1.1728 H   0  0  0  0  0  0  0  0  0  0  0  0
   -6.0586   -0.0061    0.2407 H   0  0  0  0  0  0  0  0  0  0  0  0
   -4.9311   -1.3668    0.4551 H   0  0  0  0  0  0  0  0  0  0  0  0
   -5.0304   -0.1178    1.6896 H   0  0  0  0  0  0  0  0  0  0  0  0
  1  9  1  0  0  0  0
  1 13  1  0  0  0  0
  2  9  2  0  0  0  0
  3  4  1  0  0  0  0
  3  5  1  0  0  0  0
  3  6  1  0  0  0  0
  3  7  1  0  0  0  0
  4  5  1  0  0  0  0
  4  8  1  0  0  0  0
  4 15  1  0  0  0  0
  5  9  1  0  0  0  0
  5 16  1  0  0  0  0
  6 17  1  0  0  0  0
  6 18  1  0  0  0  0
  6 19  1  0  0  0  0
  7 20  1  0  0  0  0
  7 21  1  0  0  0  0
  7 22  1  0  0  0  0
  8 10  2  0  0  0  0
  8 23  1  0  0  0  0
 10 11  1  0  0  0  0
 10 12  1  0  0  0  0
 11 24  1  0  0  0  0
 11 25  1  0  0  0  0
 11 26  1  0  0  0  0
 12 27  1  0  0  0  0
 12 28  1  0  0  0  0
 12 29  1  0  0  0  0
 13 14  1  0  0  0  0
 13 30  1  0  0  0  0
 13 31  1  0  0  0  0
 14 32  1  0  0  0  0
 14 33  1  0  0  0  0
 14 34  1  0  0  0  0
M  END
> <PUBCHEM_COMPOUND_CID>
7334

> <PUBCHEM_CONFORMER_RMSD>
0.6

> <PUBCHEM_CONFORMER_DIVERSEORDER>
1
106
9
103
29
13
91
26
37
69
97
66
28
93
35
88
19
128
6
129
68
109
30
118
125
90
23
115
25
58
111
70
14
20
101
122
124
36
83
40
48
32
47
61
64
121
38
113
62
2
42
110
102
79
123
89
51
56
131
39
117
12
16
105
120
15
22
46
100
10
116
4
31
52
7
33
65
92
73
5
54
24
44
18
3
11
95
8
98
27
49
17
21
81
57
45
34
59
96
71
94
99
108
78
126
53
74
84
50
112
67
107
43
55
75
86
104
82
60
114
72
63
41
76
80
127
77
85
87
119
130

> <PUBCHEM_MMFF94_PARTIAL_CHARGES>
16
1 -0.43
10 -0.28
11 0.14
12 0.14
13 0.28
15 0.1
16 0.1
2 -0.57
23 0.15
3 -0.19
4 -0.06
5 -0.1
6 0.09
7 0.09
8 -0.19
9 0.72

> <PUBCHEM_EFFECTIVE_ROTOR_COUNT>
4.6

> <PUBCHEM_PHARMACOPHORE_FEATURES>
3
1 2 acceptor
3 10 11 12 hydrophobe
3 3 6 7 hydrophobe

> <PUBCHEM_HEAVY_ATOM_COUNT>
14

> <PUBCHEM_ATOM_DEF_STEREO_COUNT>
0

> <PUBCHEM_ATOM_UDEF_STEREO_COUNT>
2

> <PUBCHEM_BOND_DEF_STEREO_COUNT>
0

> <PUBCHEM_BOND_UDEF_STEREO_COUNT>
0

> <PUBCHEM_ISOTOPIC_ATOM_COUNT>
0

> <PUBCHEM_COMPONENT_COUNT>
1

> <PUBCHEM_CACTVS_TAUTO_COUNT>
1

> <PUBCHEM_CONFORMER_ID>
00001CA600000001

> <PUBCHEM_MMFF94_ENERGY>
22.4903

> <PUBCHEM_FEATURE_SELFOVERLAP>
15.223

> <PUBCHEM_SHAPE_FINGERPRINT>
10922049 32 18335135401506361310
11062470 55 12463569569302483533
11132069 177 18410291380788291227
12119455 92 18334861610352516331
12346645 44 18187081793134603473
14943859 89 16805041809200418671
14993402 34 17704060790281346260
15048467 5 14056719032569556312
15219456 202 18129388270541451141
15775835 57 18408609153793926034
16945 1 18273500065255455038
17834072 14 11239997845573008223
18186145 218 17894912953494820732
187816 3 16660359268877136072
19873495 37 18411420600752761766
20645477 56 18187934932780375096
20645477 70 17022893584599043134
21501502 16 18055917851269671441
21524375 3 18410013230184781058
23402539 116 17203336593928017487
23557571 272 18059283392270185173
23558518 356 17759538676442657264
23559900 14 17631173176301729394
265663 24 16988565697070381761
276578 36 18413110580326288938
3250762 1 17482567677216384148
366044 4 18187365411162876990
4047638 21 17894629240982404792
4990 188 17967807279907266022
69090 78 18040439867197994230
81228 2 17832166929863788658
81539 233 18202003265161078582

> <PUBCHEM_SHAPE_MULTIPOLES>
276.37
8.32
1.52
1.07
3.49
0.68
-0.1
-2.3
1.26
-0.22
-0.07
-0.38
0.2
0.5

> <PUBCHEM_SHAPE_SELFOVERLAP>
544.115

> <PUBCHEM_SHAPE_VOLUME>
168.9

> <PUBCHEM_COORDINATE_TYPE>
2
5
10

$$$$

