13201
  -OEChem-06261207533D

 20 20  0     0  0  0  0  0  0999 V2000
    0.7464    1.1649    0.2708 O   0  0  0  0  0  0  0  0  0  0  0  0
    0.7706   -1.1765    0.0948 O   0  0  0  0  0  0  0  0  0  0  0  0
   -1.2869    0.0026   -0.3239 C   0  0  0  0  0  0  0  0  0  0  0  0
   -0.0057   -0.0369    0.4866 C   0  0  0  0  0  0  0  0  0  0  0  0
    1.9030    0.7438   -0.4519 C   0  0  0  0  0  0  0  0  0  0  0  0
    2.1030   -0.6761    0.0022 C   0  0  0  0  0  0  0  0  0  0  0  0
   -2.1155   -1.2648   -0.0997 C   0  0  0  0  0  0  0  0  0  0  0  0
   -2.1149    1.2431    0.0212 C   0  0  0  0  0  0  0  0  0  0  0  0
   -1.0366    0.0539   -1.3917 H   0  0  0  0  0  0  0  0  0  0  0  0
   -0.2158   -0.1136    1.5600 H   0  0  0  0  0  0  0  0  0  0  0  0
    2.7539    1.3939   -0.2344 H   0  0  0  0  0  0  0  0  0  0  0  0
    1.6710    0.7951   -1.5212 H   0  0  0  0  0  0  0  0  0  0  0  0
    2.6955   -1.2754   -0.6933 H   0  0  0  0  0  0  0  0  0  0  0  0
    2.5549   -0.7217    0.9991 H   0  0  0  0  0  0  0  0  0  0  0  0
   -2.3814   -1.3836    0.9563 H   0  0  0  0  0  0  0  0  0  0  0  0
   -3.0446   -1.2270   -0.6786 H   0  0  0  0  0  0  0  0  0  0  0  0
   -1.5692   -2.1592   -0.4158 H   0  0  0  0  0  0  0  0  0  0  0  0
   -2.3726    1.2646    1.0856 H   0  0  0  0  0  0  0  0  0  0  0  0
   -3.0485    1.2566   -0.5517 H   0  0  0  0  0  0  0  0  0  0  0  0
   -1.5727    2.1638   -0.2169 H   0  0  0  0  0  0  0  0  0  0  0  0
  1  4  1  0  0  0  0
  1  5  1  0  0  0  0
  2  4  1  0  0  0  0
  2  6  1  0  0  0  0
  3  4  1  0  0  0  0
  3  7  1  0  0  0  0
  3  8  1  0  0  0  0
  3  9  1  0  0  0  0
  4 10  1  0  0  0  0
  5  6  1  0  0  0  0
  5 11  1  0  0  0  0
  5 12  1  0  0  0  0
  6 13  1  0  0  0  0
  6 14  1  0  0  0  0
  7 15  1  0  0  0  0
  7 16  1  0  0  0  0
  7 17  1  0  0  0  0
  8 18  1  0  0  0  0
  8 19  1  0  0  0  0
  8 20  1  0  0  0  0
M  END
> <PUBCHEM_COMPOUND_CID>
13201

> <PUBCHEM_CONFORMER_RMSD>
0.4

> <PUBCHEM_CONFORMER_DIVERSEORDER>
1
2
3

> <PUBCHEM_MMFF94_PARTIAL_CHARGES>
5
1 -0.56
2 -0.56
4 0.56
5 0.28
6 0.28

> <PUBCHEM_EFFECTIVE_ROTOR_COUNT>
2

> <PUBCHEM_PHARMACOPHORE_FEATURES>
4
1 1 acceptor
1 2 acceptor
3 3 7 8 hydrophobe
5 1 2 4 5 6 rings

> <PUBCHEM_HEAVY_ATOM_COUNT>
8

> <PUBCHEM_ATOM_DEF_STEREO_COUNT>
0

> <PUBCHEM_ATOM_UDEF_STEREO_COUNT>
0

> <PUBCHEM_BOND_DEF_STEREO_COUNT>
0

> <PUBCHEM_BOND_UDEF_STEREO_COUNT>
0

> <PUBCHEM_ISOTOPIC_ATOM_COUNT>
0

> <PUBCHEM_COMPONENT_COUNT>
1

> <PUBCHEM_CACTVS_TAUTO_COUNT>
1

> <PUBCHEM_CONFORMER_ID>
0000339100000001

> <PUBCHEM_MMFF94_ENERGY>
14.4064

> <PUBCHEM_FEATURE_SELFOVERLAP>
20.338

> <PUBCHEM_SHAPE_FINGERPRINT>
12897270 3 18267869389079635503
18185500 45 18338519767005388146
20096714 4 18413107290054201313
21040471 1 18265337385557438985
23552423 10 18343863329150054694
24536 1 18340225028083305149
29004967 10 16153420632387048390
5084963 1 17703800167070151030

> <PUBCHEM_SHAPE_MULTIPOLES>
152.9
3.21
1.42
0.68
0.17
0
-0.01
0.05
-0.29
0.39
0
-0.02
-0.02
-0.12

> <PUBCHEM_SHAPE_SELFOVERLAP>
293.96

> <PUBCHEM_SHAPE_VOLUME>
94.9

> <PUBCHEM_COORDINATE_TYPE>
2
5
10

$$$$

