17396240
  -OEChem-06241222553D

 42 43  0     0  0  0  0  0  0999 V2000
   -1.9175    2.5800    1.0722 Cl  0  0  0  0  0  0  0  0  0  0  0  0
   -1.2646    0.5537   -1.0366 O   0  0  0  0  0  0  0  0  0  0  0  0
    4.2020   -1.4783    1.2406 O   0  0  0  0  0  0  0  0  0  0  0  0
   -2.9274   -1.4805   -1.8706 O   0  0  0  0  0  0  0  0  0  0  0  0
    1.0749    1.6967   -1.2466 O   0  0  0  0  0  0  0  0  0  0  0  0
    2.1773    0.0069   -0.0376 N   0  0  0  0  0  0  0  0  0  0  0  0
   -7.3744   -0.1837    1.7207 N   0  0  0  0  0  0  0  0  0  0  0  0
    3.5234    0.4427   -0.0274 C   0  0  0  0  0  0  0  0  0  0  0  0
    4.5096   -0.3087    0.6118 C   0  0  0  0  0  0  0  0  0  0  0  0
   -2.4989    0.4159   -0.4714 C   0  0  0  0  0  0  0  0  0  0  0  0
   -0.1888   -0.1462   -0.4172 C   0  0  0  0  0  0  0  0  0  0  0  0
    3.8601    1.6368   -0.6650 C   0  0  0  0  0  0  0  0  0  0  0  0
    1.0886    0.6378   -0.6261 C   0  0  0  0  0  0  0  0  0  0  0  0
   -3.3340   -0.6164   -0.8988 C   0  0  0  0  0  0  0  0  0  0  0  0
    5.8324    0.1340    0.6133 C   0  0  0  0  0  0  0  0  0  0  0  0
    5.1828    2.0795   -0.6635 C   0  0  0  0  0  0  0  0  0  0  0  0
   -2.9282    1.2933    0.5243 C   0  0  0  0  0  0  0  0  0  0  0  0
    6.1690    1.3281   -0.0244 C   0  0  0  0  0  0  0  0  0  0  0  0
   -4.5984   -0.7713   -0.3304 C   0  0  0  0  0  0  0  0  0  0  0  0
    4.8510   -2.6570    0.7690 C   0  0  0  0  0  0  0  0  0  0  0  0
   -5.0276    0.1062    0.6654 C   0  0  0  0  0  0  0  0  0  0  0  0
   -4.1926    1.1384    1.0927 C   0  0  0  0  0  0  0  0  0  0  0  0
    3.9458   -3.8470    1.0066 C   0  0  0  0  0  0  0  0  0  0  0  0
   -3.8422   -2.5071   -2.2489 C   0  0  0  0  0  0  0  0  0  0  0  0
   -6.3225   -0.0538    1.2477 C   0  0  0  0  0  0  0  0  0  0  0  0
    2.0070   -0.8729    0.4451 H   0  0  0  0  0  0  0  0  0  0  0  0
   -0.0877   -1.1304   -0.8873 H   0  0  0  0  0  0  0  0  0  0  0  0
   -0.3552   -0.2714    0.6599 H   0  0  0  0  0  0  0  0  0  0  0  0
    3.1580    2.2752   -1.1815 H   0  0  0  0  0  0  0  0  0  0  0  0
    6.6105   -0.4354    1.1142 H   0  0  0  0  0  0  0  0  0  0  0  0
    5.4463    3.0093   -1.1592 H   0  0  0  0  0  0  0  0  0  0  0  0
    7.1985    1.6738   -0.0216 H   0  0  0  0  0  0  0  0  0  0  0  0
   -5.2898   -1.5554   -0.6230 H   0  0  0  0  0  0  0  0  0  0  0  0
    5.7905   -2.7897    1.3163 H   0  0  0  0  0  0  0  0  0  0  0  0
    5.0731   -2.5819   -0.3029 H   0  0  0  0  0  0  0  0  0  0  0  0
   -4.5280    1.8228    1.8698 H   0  0  0  0  0  0  0  0  0  0  0  0
    3.7072   -3.9436    2.0709 H   0  0  0  0  0  0  0  0  0  0  0  0
    2.9953   -3.7191    0.4779 H   0  0  0  0  0  0  0  0  0  0  0  0
    4.4183   -4.7723    0.6654 H   0  0  0  0  0  0  0  0  0  0  0  0
   -3.3552   -3.0995   -3.0307 H   0  0  0  0  0  0  0  0  0  0  0  0
   -4.7558   -2.0926   -2.6886 H   0  0  0  0  0  0  0  0  0  0  0  0
   -4.0499   -3.1897   -1.4179 H   0  0  0  0  0  0  0  0  0  0  0  0
  1 17  1  0  0  0  0
  2 10  1  0  0  0  0
  2 11  1  0  0  0  0
  3  9  1  0  0  0  0
  3 20  1  0  0  0  0
  4 14  1  0  0  0  0
  4 24  1  0  0  0  0
  5 13  2  0  0  0  0
  6  8  1  0  0  0  0
  6 13  1  0  0  0  0
  6 26  1  0  0  0  0
  7 25  3  0  0  0  0
  8  9  1  0  0  0  0
  8 12  2  0  0  0  0
  9 15  2  0  0  0  0
 10 14  2  0  0  0  0
 10 17  1  0  0  0  0
 11 13  1  0  0  0  0
 11 27  1  0  0  0  0
 11 28  1  0  0  0  0
 12 16  1  0  0  0  0
 12 29  1  0  0  0  0
 14 19  1  0  0  0  0
 15 18  1  0  0  0  0
 15 30  1  0  0  0  0
 16 18  2  0  0  0  0
 16 31  1  0  0  0  0
 17 22  2  0  0  0  0
 18 32  1  0  0  0  0
 19 21  2  0  0  0  0
 19 33  1  0  0  0  0
 20 23  1  0  0  0  0
 20 34  1  0  0  0  0
 20 35  1  0  0  0  0
 21 22  1  0  0  0  0
 21 25  1  0  0  0  0
 22 36  1  0  0  0  0
 23 37  1  0  0  0  0
 23 38  1  0  0  0  0
 23 39  1  0  0  0  0
 24 40  1  0  0  0  0
 24 41  1  0  0  0  0
 24 42  1  0  0  0  0
M  END
> <PUBCHEM_COMPOUND_CID>
17396240

> <PUBCHEM_CONFORMER_RMSD>
1

> <PUBCHEM_CONFORMER_DIVERSEORDER>
2
52
70
48
35
93
49
36
18
16
24
99
31
67
102
64
75
53
23
46
47
42
106
91
57
76
95
92
97
84
1
82
101
20
56
87
89
12
90
69
98
50
72
78
83
37
11
27
38
40
59
51
71
39
3
41
33
44
15
74
104
68
14
81
66
30
22
7
100
103
29
61
6
62
105
77
26
17
88
60
19
45
5
9
43
79
4
63
8
21
73
54
34
65
86
25
28
13
55
94
32
80
85
96
10
58

> <PUBCHEM_MMFF94_PARTIAL_CHARGES>
31
1 -0.18
10 0.08
11 0.34
12 -0.15
13 0.57
14 0.08
15 -0.15
16 -0.15
17 0.18
18 -0.15
19 -0.15
2 -0.36
20 0.28
21 0.07
22 -0.15
24 0.28
25 0.48
26 0.37
29 0.15
3 -0.36
30 0.15
31 0.15
32 0.15
33 0.15
36 0.15
4 -0.36
5 -0.57
6 -0.55
7 -0.56
8 0.12
9 0.08

> <PUBCHEM_EFFECTIVE_ROTOR_COUNT>
8

> <PUBCHEM_PHARMACOPHORE_FEATURES>
8
1 2 acceptor
1 3 acceptor
1 4 acceptor
1 5 acceptor
1 6 donor
1 7 acceptor
6 10 14 17 19 21 22 rings
6 8 9 12 15 16 18 rings

> <PUBCHEM_HEAVY_ATOM_COUNT>
25

> <PUBCHEM_ATOM_DEF_STEREO_COUNT>
0

> <PUBCHEM_ATOM_UDEF_STEREO_COUNT>
0

> <PUBCHEM_BOND_DEF_STEREO_COUNT>
0

> <PUBCHEM_BOND_UDEF_STEREO_COUNT>
0

> <PUBCHEM_ISOTOPIC_ATOM_COUNT>
0

> <PUBCHEM_COMPONENT_COUNT>
1

> <PUBCHEM_CACTVS_TAUTO_COUNT>
2

> <PUBCHEM_CONFORMER_ID>
0109721000000002

> <PUBCHEM_MMFF94_ENERGY>
87.2691

> <PUBCHEM_FEATURE_SELFOVERLAP>
40.611

> <PUBCHEM_SHAPE_FINGERPRINT>
10912923 1 18334583412662667012
11059845 2 17101714459437960994
12107183 9 17833269005977340144
12236239 1 18410292484447511725
12596602 18 18342173401210912593
12616971 3 18411707581834945238
12623949 98 18270955877650025238
12633257 1 17458064850517975457
13073987 5 18341893034504679296
13167823 11 18409452513783333998
13533116 47 18412543227973178738
13685833 64 17203325594095136617
13782708 43 15697993025200862673
14341114 176 18410290337258963808
14341114 328 18187080654641183156
14849402 71 18264494980259923640
15250474 111 18262534623287383142
15537594 2 18408040688923219971
17492 89 18198625639061188784
17844677 252 18271243945163891828
1813 80 17632005455375208364
19377110 9 18409175402630520528
20554085 129 16371008563934970519
20645477 70 17775571953216183434
21065198 48 18409447033262912520
21267235 1 18201718479745517772
21315763 178 18409173181995219820
21623969 137 17632577145613437370
220451 1 18334577919293980974
239999 70 17060338518467186112
29717793 49 10519991465270675720
314194 84 18342183237017984908
5104073 3 18337105790762720537
5758199 1 18339082580628080136
86090 222 17131823313664377706

> <PUBCHEM_SHAPE_MULTIPOLES>
482.92
17.69
2.92
1.55
2.18
2.41
-0.32
1.73
6.15
-3.53
0.27
1.84
0.7
-3.77

> <PUBCHEM_SHAPE_SELFOVERLAP>
1009.577

> <PUBCHEM_SHAPE_VOLUME>
273

> <PUBCHEM_COORDINATE_TYPE>
2
5
10

$$$$

