17395538
  -OEChem-06241222513D

 39 40  0     0  0  0  0  0  0999 V2000
    5.0515   -2.3805   -0.0039 F   0  0  0  0  0  0  0  0  0  0  0  0
   -0.7118    2.1343    0.0060 O   0  0  0  0  0  0  0  0  0  0  0  0
   -2.7218   -2.4357   -0.5911 O   0  0  0  0  0  0  0  0  0  0  0  0
    1.7333    1.0561    0.0201 N   0  0  0  0  0  0  0  0  0  0  0  0
   -1.7527    0.0236   -0.0053 N   0  0  0  0  0  0  0  0  0  0  0  0
    0.6309    0.1404    0.0133 C   0  0  0  0  0  0  0  0  0  0  0  0
    3.0696    0.6676    0.0177 C   0  0  0  0  0  0  0  0  0  0  0  0
   -3.1062    0.3730   -0.0081 C   0  0  0  0  0  0  0  0  0  0  0  0
   -4.1008   -0.6048   -0.0346 C   0  0  0  0  0  0  0  0  0  0  0  0
   -0.6789    0.9081    0.0184 C   0  0  0  0  0  0  0  0  0  0  0  0
    5.7484   -0.1111    0.0127 C   0  0  0  0  0  0  0  0  0  0  0  0
    3.4021   -0.6871    0.0078 C   0  0  0  0  0  0  0  0  0  0  0  0
    4.0765    1.6329    0.0249 C   0  0  0  0  0  0  0  0  0  0  0  0
   -3.4561    1.7232    0.0142 C   0  0  0  0  0  0  0  0  0  0  0  0
    4.7416   -1.0764    0.0054 C   0  0  0  0  0  0  0  0  0  0  0  0
    5.4158    1.2436    0.0225 C   0  0  0  0  0  0  0  0  0  0  0  0
   -5.4450   -0.2323   -0.0384 C   0  0  0  0  0  0  0  0  0  0  0  0
   -3.7701   -2.0242   -0.0592 C   0  0  0  0  0  0  0  0  0  0  0  0
   -4.8003    2.0956    0.0106 C   0  0  0  0  0  0  0  0  0  0  0  0
   -5.7947    1.1180   -0.0158 C   0  0  0  0  0  0  0  0  0  0  0  0
    7.1816   -0.5238    0.0107 C   0  0  0  0  0  0  0  0  0  0  0  0
   -4.7127   -3.0406    0.5721 C   0  0  0  0  0  0  0  0  0  0  0  0
    0.6510   -0.4864   -0.8861 H   0  0  0  0  0  0  0  0  0  0  0  0
    0.6495   -0.4987    0.9041 H   0  0  0  0  0  0  0  0  0  0  0  0
    1.5413    2.0523    0.0282 H   0  0  0  0  0  0  0  0  0  0  0  0
   -1.5371   -0.9696   -0.0109 H   0  0  0  0  0  0  0  0  0  0  0  0
    2.6493   -1.4696    0.0020 H   0  0  0  0  0  0  0  0  0  0  0  0
    3.8313    2.6920    0.0328 H   0  0  0  0  0  0  0  0  0  0  0  0
   -2.7659    2.5519    0.0393 H   0  0  0  0  0  0  0  0  0  0  0  0
    6.1892    2.0071    0.0296 H   0  0  0  0  0  0  0  0  0  0  0  0
   -6.2432   -0.9684   -0.0739 H   0  0  0  0  0  0  0  0  0  0  0  0
   -5.0747    3.1465    0.0282 H   0  0  0  0  0  0  0  0  0  0  0  0
   -6.8412    1.4084   -0.0220 H   0  0  0  0  0  0  0  0  0  0  0  0
    7.8508    0.3280   -0.1508 H   0  0  0  0  0  0  0  0  0  0  0  0
    7.3711   -1.2438   -0.7925 H   0  0  0  0  0  0  0  0  0  0  0  0
    7.4428   -0.9824    0.9698 H   0  0  0  0  0  0  0  0  0  0  0  0
   -4.1301   -3.9015    0.9140 H   0  0  0  0  0  0  0  0  0  0  0  0
   -5.2135   -2.6168    1.4467 H   0  0  0  0  0  0  0  0  0  0  0  0
   -5.4472   -3.3692   -0.1671 H   0  0  0  0  0  0  0  0  0  0  0  0
  1 15  1  0  0  0  0
  2 10  2  0  0  0  0
  3 18  2  0  0  0  0
  4  6  1  0  0  0  0
  4  7  1  0  0  0  0
  4 25  1  0  0  0  0
  5  8  1  0  0  0  0
  5 10  1  0  0  0  0
  5 26  1  0  0  0  0
  6 10  1  0  0  0  0
  6 23  1  0  0  0  0
  6 24  1  0  0  0  0
  7 12  2  0  0  0  0
  7 13  1  0  0  0  0
  8  9  1  0  0  0  0
  8 14  2  0  0  0  0
  9 17  2  0  0  0  0
  9 18  1  0  0  0  0
 11 15  2  0  0  0  0
 11 16  1  0  0  0  0
 11 21  1  0  0  0  0
 12 15  1  0  0  0  0
 12 27  1  0  0  0  0
 13 16  2  0  0  0  0
 13 28  1  0  0  0  0
 14 19  1  0  0  0  0
 14 29  1  0  0  0  0
 16 30  1  0  0  0  0
 17 20  1  0  0  0  0
 17 31  1  0  0  0  0
 18 22  1  0  0  0  0
 19 20  2  0  0  0  0
 19 32  1  0  0  0  0
 20 33  1  0  0  0  0
 21 34  1  0  0  0  0
 21 35  1  0  0  0  0
 21 36  1  0  0  0  0
 22 37  1  0  0  0  0
 22 38  1  0  0  0  0
 22 39  1  0  0  0  0
M  END
> <PUBCHEM_COMPOUND_CID>
17395538

> <PUBCHEM_CONFORMER_RMSD>
0.8

> <PUBCHEM_CONFORMER_DIVERSEORDER>
1
28
204
138
168
263
127
78
190
55
80
236
109
65
183
171
13
222
140
237
152
251
253
256
121
46
60
82
209
6
248
99
64
231
49
166
170
142
72
224
32
246
90
218
2
98
211
153
40
162
197
52
206
135
43
26
68
212
83
178
210
201
100
79
232
187
16
214
71
141
10
175
125
59
219
25
89
260
139
161
115
191
233
57
107
254
215
262
144
182
50
35
184
29
21
257
149
160
225
213
66
223
105
36
177
186
44
169
220
165
63
23
227
7
193
54
180
14
238
264
156
261
39
239
241
163
228
88
12
33
134
45
133
143
111
146
194
200
8
205
42
69
119
96
41
249
122
75
20
240
112
235
159
53
185
86
242
103
61
118
217
56
181
91
154
97
85
24
128
17
137
22
226
221
67
113
147
124
199
172
192
252
196
150
48
93
19
51
102
15
255
151
158
202
203
116
92
34
247
38
230
250
30
188
117
148
106
94
5
74
174
123
195
77
189
70
108
243
258
179
173
37
11
3
234
145
245
131
101
208
81
198
58
114
18
136
129
259
47
110
155
120
95
157
167
9
4
132
207
31
27
76
164
130
73
126
84
216
104
244
176
229
62
87

> <PUBCHEM_MMFF94_PARTIAL_CHARGES>
31
1 -0.19
10 0.57
11 -0.14
12 -0.15
13 -0.15
14 -0.15
15 0.19
16 -0.15
17 -0.15
18 0.42
19 -0.15
2 -0.57
20 -0.15
21 0.14
22 0.06
25 0.4
26 0.37
27 0.15
28 0.15
29 0.15
3 -0.57
30 0.15
31 0.15
32 0.15
33 0.15
4 -0.87
5 -0.55
6 0.43
7 0.1
8 0.12
9 0.09

> <PUBCHEM_EFFECTIVE_ROTOR_COUNT>
6

> <PUBCHEM_PHARMACOPHORE_FEATURES>
7
1 2 acceptor
1 3 acceptor
1 4 cation
1 4 donor
1 5 donor
6 7 11 12 13 15 16 rings
6 8 9 14 17 19 20 rings

> <PUBCHEM_HEAVY_ATOM_COUNT>
22

> <PUBCHEM_ATOM_DEF_STEREO_COUNT>
0

> <PUBCHEM_ATOM_UDEF_STEREO_COUNT>
0

> <PUBCHEM_BOND_DEF_STEREO_COUNT>
0

> <PUBCHEM_BOND_UDEF_STEREO_COUNT>
0

> <PUBCHEM_ISOTOPIC_ATOM_COUNT>
0

> <PUBCHEM_COMPONENT_COUNT>
1

> <PUBCHEM_CACTVS_TAUTO_COUNT>
9

> <PUBCHEM_CONFORMER_ID>
01096F5200000001

> <PUBCHEM_MMFF94_ENERGY>
73.757

> <PUBCHEM_FEATURE_SELFOVERLAP>
35.52

> <PUBCHEM_SHAPE_FINGERPRINT>
10411042 1 18122624947777868819
10595046 47 18341048519464480604
10835480 77 18335710411928949136
11045977 3 18113623360937211904
11315181 36 17458345234694370737
11524674 6 17312824879100148031
11796584 16 18335137618105053358
12107183 9 17689716780470697760
12236239 1 18202562865140164476
12516196 113 18040438793266623464
12616971 3 17203322295444111684
13167823 11 18412547591538807122
14251764 18 18187362130409204097
14341114 176 18410007740969098533
14420673 8 18410570734056854639
14461889 52 18336836273797524608
14933364 13 18410572890325596524
15042514 8 18341046308426527403
15183329 4 18412829100716929322
15196674 1 18410856538175522082
15250474 111 18270414844266219826
15348495 7 18115032909332680088
15537594 2 17775569766302584491
17492 89 18124875647504354771
17844677 252 18409161082793265720
17857418 61 18410014347061050170
1813 80 17203889669097790621
19489759 90 17240482533294532817
21065198 57 18335704905643394209
21236236 1 18409730634591117995
21267235 1 18341609283870034705
21623969 137 17675920997955878046
220451 1 18131631205611144328
23035841 295 18413108368064716465
23402539 116 18413673499967051652
23522609 53 17986083371460779324
23536379 177 18410574015353762256
23559900 14 18335428932704529801
239999 70 18259699013517559054
3004659 81 18342176687593895560
335352 9 18410577288989195565
338550 245 18341327812782538486
4073 2 18201996591235341378
4214541 1 18410293609881871877
5104073 3 18334577936442332112
559249 180 18411984671940170783
7226269 152 17895191164697645001
7495541 125 17967817098645915240
7970288 3 17834115247932637775
999808 66 17988912354880522819

> <PUBCHEM_SHAPE_MULTIPOLES>
423.78
18.21
2.63
0.62
14.84
1.39
-0.01
2.88
-0.3
-3.05
-0.1
-0.11
0.07
0.21

> <PUBCHEM_SHAPE_SELFOVERLAP>
902.325

> <PUBCHEM_SHAPE_VOLUME>
235.9

> <PUBCHEM_COORDINATE_TYPE>
2
5
10

$$$$

