9707
  -OEChem-06261203583D

 13 13  0     0  0  0  0  0  0999 V2000
    1.7600   -1.3883   -0.0002 F   0  0  0  0  0  0  0  0  0  0  0  0
    1.8033    1.3634    0.0002 O   0  0  0  0  0  0  0  0  0  0  0  0
    0.6199    0.6915   -0.0001 C   0  0  0  0  0  0  0  0  0  0  0  0
    0.6083   -0.7033    0.0002 C   0  0  0  0  0  0  0  0  0  0  0  0
   -0.5823    1.3990   -0.0001 C   0  0  0  0  0  0  0  0  0  0  0  0
   -0.6054   -1.3907    0.0001 C   0  0  0  0  0  0  0  0  0  0  0  0
   -1.7961    0.7116    0.0000 C   0  0  0  0  0  0  0  0  0  0  0  0
   -1.8076   -0.6832    0.0000 C   0  0  0  0  0  0  0  0  0  0  0  0
   -0.5798    2.4855   -0.0002 H   0  0  0  0  0  0  0  0  0  0  0  0
   -0.6142   -2.4766    0.0001 H   0  0  0  0  0  0  0  0  0  0  0  0
   -2.7321    1.2625   -0.0001 H   0  0  0  0  0  0  0  0  0  0  0  0
   -2.7526   -1.2184    0.0000 H   0  0  0  0  0  0  0  0  0  0  0  0
    2.5262    0.7121    0.0004 H   0  0  0  0  0  0  0  0  0  0  0  0
  1  4  1  0  0  0  0
  2  3  1  0  0  0  0
  2 13  1  0  0  0  0
  3  4  1  0  0  0  0
  3  5  2  0  0  0  0
  4  6  2  0  0  0  0
  5  7  1  0  0  0  0
  5  9  1  0  0  0  0
  6  8  1  0  0  0  0
  6 10  1  0  0  0  0
  7  8  2  0  0  0  0
  7 11  1  0  0  0  0
  8 12  1  0  0  0  0
M  END
> <PUBCHEM_COMPOUND_CID>
9707

> <PUBCHEM_CONFORMER_RMSD>
0.4

> <PUBCHEM_CONFORMER_DIVERSEORDER>
1

> <PUBCHEM_MMFF94_PARTIAL_CHARGES>
13
1 -0.19
10 0.15
11 0.15
12 0.15
13 0.45
2 -0.53
3 0.08
4 0.19
5 -0.15
6 -0.15
7 -0.15
8 -0.15
9 0.15

> <PUBCHEM_EFFECTIVE_ROTOR_COUNT>
0

> <PUBCHEM_PHARMACOPHORE_FEATURES>
2
1 2 donor
6 3 4 5 6 7 8 rings

> <PUBCHEM_HEAVY_ATOM_COUNT>
8

> <PUBCHEM_ATOM_DEF_STEREO_COUNT>
0

> <PUBCHEM_ATOM_UDEF_STEREO_COUNT>
0

> <PUBCHEM_BOND_DEF_STEREO_COUNT>
0

> <PUBCHEM_BOND_UDEF_STEREO_COUNT>
0

> <PUBCHEM_ISOTOPIC_ATOM_COUNT>
0

> <PUBCHEM_COMPONENT_COUNT>
1

> <PUBCHEM_CACTVS_TAUTO_COUNT>
3

> <PUBCHEM_CONFORMER_ID>
000025EB00000001

> <PUBCHEM_MMFF94_ENERGY>
15.1302

> <PUBCHEM_FEATURE_SELFOVERLAP>
10.148

> <PUBCHEM_SHAPE_FINGERPRINT>
16714656 1 17907010677760586260
18185500 45 18120657933305053527
21040471 1 18338517443512580901
23552423 10 18271803501823993998
29004967 10 18128247892247015401

> <PUBCHEM_SHAPE_MULTIPOLES>
151.49
2.24
1.73
0.59
0.09
0.06
0
-0.07
0
0.27
0
-0.05
-0.01
0

> <PUBCHEM_SHAPE_SELFOVERLAP>
316.978

> <PUBCHEM_SHAPE_VOLUME>
86.1

> <PUBCHEM_COORDINATE_TYPE>
2
5
10

$$$$

