14338
  -OEChem-06241222433D

 26 27  0     0  0  0  0  0  0999 V2000
   -1.0086   -1.4338    0.3936 N   0  0  0  0  0  0  0  0  0  0  0  0
    1.0086    1.4339    0.3935 N   0  0  0  0  0  0  0  0  0  0  0  0
   -0.7051   -0.1551    0.0764 C   0  0  0  0  0  0  0  0  0  0  0  0
    0.7051    0.1551    0.0763 C   0  0  0  0  0  0  0  0  0  0  0  0
   -2.9885    0.4438   -0.2130 C   0  0  0  0  0  0  0  0  0  0  0  0
    2.9886   -0.4438   -0.2130 C   0  0  0  0  0  0  0  0  0  0  0  0
   -1.6480    0.8123   -0.2316 C   0  0  0  0  0  0  0  0  0  0  0  0
    1.6480   -0.8123   -0.2316 C   0  0  0  0  0  0  0  0  0  0  0  0
   -3.3404   -0.8624    0.1087 C   0  0  0  0  0  0  0  0  0  0  0  0
    3.3403    0.8625    0.1087 C   0  0  0  0  0  0  0  0  0  0  0  0
   -4.0447    1.4454   -0.5353 C   0  0  0  0  0  0  0  0  0  0  0  0
    4.0447   -1.4454   -0.5353 C   0  0  0  0  0  0  0  0  0  0  0  0
   -2.3218   -1.7550    0.4013 C   0  0  0  0  0  0  0  0  0  0  0  0
    2.3217    1.7550    0.4014 C   0  0  0  0  0  0  0  0  0  0  0  0
   -1.3691    1.8296   -0.4899 H   0  0  0  0  0  0  0  0  0  0  0  0
    1.3690   -1.8286   -0.4931 H   0  0  0  0  0  0  0  0  0  0  0  0
   -4.3759   -1.1840    0.1347 H   0  0  0  0  0  0  0  0  0  0  0  0
    4.3756    1.1850    0.1314 H   0  0  0  0  0  0  0  0  0  0  0  0
   -3.7070    2.1326   -1.3185 H   0  0  0  0  0  0  0  0  0  0  0  0
   -4.9546    0.9603   -0.9050 H   0  0  0  0  0  0  0  0  0  0  0  0
   -4.2979    2.0253    0.3578 H   0  0  0  0  0  0  0  0  0  0  0  0
    3.7739   -2.4364   -0.1553 H   0  0  0  0  0  0  0  0  0  0  0  0
    4.1842   -1.5090   -1.6191 H   0  0  0  0  0  0  0  0  0  0  0  0
    5.0023   -1.1768   -0.0763 H   0  0  0  0  0  0  0  0  0  0  0  0
   -2.5431   -2.7855    0.6589 H   0  0  0  0  0  0  0  0  0  0  0  0
    2.5431    2.7858    0.6578 H   0  0  0  0  0  0  0  0  0  0  0  0
  1  3  2  0  0  0  0
  1 13  1  0  0  0  0
  2  4  2  0  0  0  0
  2 14  1  0  0  0  0
  3  4  1  0  0  0  0
  3  7  1  0  0  0  0
  4  8  1  0  0  0  0
  5  7  2  0  0  0  0
  5  9  1  0  0  0  0
  5 11  1  0  0  0  0
  6  8  2  0  0  0  0
  6 10  1  0  0  0  0
  6 12  1  0  0  0  0
  7 15  1  0  0  0  0
  8 16  1  0  0  0  0
  9 13  2  0  0  0  0
  9 17  1  0  0  0  0
 10 14  2  0  0  0  0
 10 18  1  0  0  0  0
 11 19  1  0  0  0  0
 11 20  1  0  0  0  0
 11 21  1  0  0  0  0
 12 22  1  0  0  0  0
 12 23  1  0  0  0  0
 12 24  1  0  0  0  0
 13 25  1  0  0  0  0
 14 26  1  0  0  0  0
M  END
> <PUBCHEM_COMPOUND_CID>
14338

> <PUBCHEM_CONFORMER_RMSD>
0.4

> <PUBCHEM_CONFORMER_DIVERSEORDER>
2
3
1
4

> <PUBCHEM_MMFF94_PARTIAL_CHARGES>
20
1 -0.62
10 -0.15
11 0.14
12 0.14
13 0.16
14 0.16
15 0.15
16 0.15
17 0.15
18 0.15
2 -0.62
25 0.15
26 0.15
3 0.31
4 0.31
5 -0.14
6 -0.14
7 -0.15
8 -0.15
9 -0.15

> <PUBCHEM_EFFECTIVE_ROTOR_COUNT>
1

> <PUBCHEM_PHARMACOPHORE_FEATURES>
4
1 1 acceptor
1 2 acceptor
6 1 3 5 7 9 13 rings
6 2 4 6 8 10 14 rings

> <PUBCHEM_HEAVY_ATOM_COUNT>
14

> <PUBCHEM_ATOM_DEF_STEREO_COUNT>
0

> <PUBCHEM_ATOM_UDEF_STEREO_COUNT>
0

> <PUBCHEM_BOND_DEF_STEREO_COUNT>
0

> <PUBCHEM_BOND_UDEF_STEREO_COUNT>
0

> <PUBCHEM_ISOTOPIC_ATOM_COUNT>
0

> <PUBCHEM_COMPONENT_COUNT>
1

> <PUBCHEM_CACTVS_TAUTO_COUNT>
1

> <PUBCHEM_CONFORMER_ID>
0000380200000002

> <PUBCHEM_MMFF94_ENERGY>
40.1802

> <PUBCHEM_FEATURE_SELFOVERLAP>
20.297

> <PUBCHEM_SHAPE_FINGERPRINT>
10130415 120 18336829787964234504
10608611 8 18338802216992740801
10922523 26 18411136909340343621
11471102 20 18334861636212120868
12032990 46 18410849949695826474
124424 183 18408323319283076126
12500047 106 18343587347478687767
12932764 1 17604429565995068916
13296908 3 18409727335591959050
13571099 22 18260266365021109060
14115302 16 18200863071892868334
14144814 61 18410575076073144554
14325111 11 18411139108500891953
14648413 74 18339081463013345784
14911166 2 18338517555049660663
15196674 1 18410856555344822300
15219456 202 18409167675456769040
15442244 35 18335979882524191360
15775835 57 17988363766659298699
16945 1 18338516451243065490
17804303 29 18413101783858707199
18175812 5 18410573980856490742
18186145 218 18343026622328803845
200 152 17530971293244028991
20201158 50 18334292101931520438
20279233 1 18408886209222954298
20510252 161 18410291368372953113
20645477 56 18343023263933695909
20645477 70 18113619010288270110
21501502 16 18338798909767286821
221490 88 18339071584815288218
22943178 12 18410577240773630387
23402539 116 18261966244463079413
23402655 69 18260833712873660493
23559900 14 18409450319455913906
25 1 18268153239489752381
2748010 2 18338517434790576159
474 4 15481245099684509916
495365 180 17750253485398261640
5104073 3 18410856546754888664
6333449 129 18341335513679576583
69090 78 18335144159466943335
7364860 26 18261672559158135536
74978 22 18410573980856484008
8809292 202 18413384349857422258
93112 12 18410575088958046317
9709674 26 18339359647828868642

> <PUBCHEM_SHAPE_MULTIPOLES>
278.15
7.39
1.84
0.71
0
0
0.02
0
1.05
0
-0.12
0
0
0.89

> <PUBCHEM_SHAPE_SELFOVERLAP>
600.121

> <PUBCHEM_SHAPE_VOLUME>
153

> <PUBCHEM_COORDINATE_TYPE>
2
5
10

$$$$

