854102
  -OEChem-06241222473D

 47 49  0     1  0  0  0  0  0999 V2000
   -0.7087    1.0592   -0.0890 O   0  0  0  0  0  0  0  0  0  0  0  0
    0.4497   -0.0341    1.5748 O   0  0  0  0  0  0  0  0  0  0  0  0
   -3.3916   -1.2038    0.0272 N   0  3  0  0  0  0  0  0  0  0  0  0
   -3.1241    1.3494   -0.2094 C   0  0  0  0  0  0  0  0  0  0  0  0
   -2.0987   -0.7561    0.7315 C   0  0  0  0  0  0  0  0  0  0  0  0
   -1.9374    0.7584    0.5665 C   0  0  1  0  0  0  0  0  0  0  0  0
   -3.3170   -0.8307   -1.4591 C   0  0  0  0  0  0  0  0  0  0  0  0
   -4.5930   -0.4955    0.6716 C   0  0  0  0  0  0  0  0  0  0  0  0
   -3.2096    0.6878   -1.5925 C   0  0  0  0  0  0  0  0  0  0  0  0
   -4.4089    1.0186    0.5561 C   0  0  0  0  0  0  0  0  0  0  0  0
   -3.5525   -2.7101    0.1673 C   0  0  0  0  0  0  0  0  0  0  0  0
    0.4255    0.5996    0.5277 C   0  0  0  0  0  0  0  0  0  0  0  0
    1.6514    1.0063   -0.2844 C   0  0  1  0  0  0  0  0  0  0  0  0
    2.0913    2.4254    0.1287 C   0  0  0  0  0  0  0  0  0  0  0  0
    2.7552   -0.0356   -0.1865 C   0  0  0  0  0  0  0  0  0  0  0  0
    3.2262    2.9710   -0.7293 C   0  0  0  0  0  0  0  0  0  0  0  0
    3.6907    0.0754    0.8225 C   0  0  0  0  0  0  0  0  0  0  0  0
    2.7890   -1.0618   -1.1092 C   0  0  0  0  0  0  0  0  0  0  0  0
    4.7030   -0.8800    0.9125 C   0  0  0  0  0  0  0  0  0  0  0  0
    3.8013   -2.0173   -1.0189 C   0  0  0  0  0  0  0  0  0  0  0  0
    4.7582   -1.9263   -0.0080 C   0  0  0  0  0  0  0  0  0  0  0  0
   -3.0056    2.4320   -0.3289 H   0  0  0  0  0  0  0  0  0  0  0  0
   -1.2891   -1.3433    0.2850 H   0  0  0  0  0  0  0  0  0  0  0  0
   -2.2059   -1.0295    1.7876 H   0  0  0  0  0  0  0  0  0  0  0  0
   -1.9018    1.2306    1.5578 H   0  0  0  0  0  0  0  0  0  0  0  0
   -4.2212   -1.2122   -1.9466 H   0  0  0  0  0  0  0  0  0  0  0  0
   -2.4409   -1.3344   -1.8834 H   0  0  0  0  0  0  0  0  0  0  0  0
   -4.6465   -0.8138    1.7189 H   0  0  0  0  0  0  0  0  0  0  0  0
   -5.4952   -0.8315    0.1480 H   0  0  0  0  0  0  0  0  0  0  0  0
   -2.3327    0.9429   -2.1993 H   0  0  0  0  0  0  0  0  0  0  0  0
   -4.0788    1.0714   -2.1409 H   0  0  0  0  0  0  0  0  0  0  0  0
   -5.2783    1.4561    0.0507 H   0  0  0  0  0  0  0  0  0  0  0  0
   -4.3817    1.4648    1.5577 H   0  0  0  0  0  0  0  0  0  0  0  0
   -3.5928   -2.9561    1.2324 H   0  0  0  0  0  0  0  0  0  0  0  0
   -4.4811   -3.0063   -0.3292 H   0  0  0  0  0  0  0  0  0  0  0  0
   -2.6942   -3.1957   -0.3059 H   0  0  0  0  0  0  0  0  0  0  0  0
    1.3416    1.0503   -1.3390 H   0  0  0  0  0  0  0  0  0  0  0  0
    2.3551    2.4855    1.1905 H   0  0  0  0  0  0  0  0  0  0  0  0
    1.2321    3.1002    0.0135 H   0  0  0  0  0  0  0  0  0  0  0  0
    4.1606    2.4225   -0.5859 H   0  0  0  0  0  0  0  0  0  0  0  0
    3.4181    4.0171   -0.4686 H   0  0  0  0  0  0  0  0  0  0  0  0
    2.9651    2.9347   -1.7919 H   0  0  0  0  0  0  0  0  0  0  0  0
    3.6663    0.8587    1.5711 H   0  0  0  0  0  0  0  0  0  0  0  0
    2.0465   -1.1424   -1.8975 H   0  0  0  0  0  0  0  0  0  0  0  0
    5.4450   -0.8129    1.7029 H   0  0  0  0  0  0  0  0  0  0  0  0
    3.8438   -2.8328   -1.7350 H   0  0  0  0  0  0  0  0  0  0  0  0
    5.5453   -2.6711    0.0631 H   0  0  0  0  0  0  0  0  0  0  0  0
  1  6  1  0  0  0  0
  1 12  1  0  0  0  0
  2 12  2  0  0  0  0
  3  5  1  0  0  0  0
  3  7  1  0  0  0  0
  3  8  1  0  0  0  0
  3 11  1  0  0  0  0
  4  6  1  0  0  0  0
  4  9  1  0  0  0  0
  4 10  1  0  0  0  0
  4 22  1  0  0  0  0
  5  6  1  0  0  0  0
  5 23  1  0  0  0  0
  5 24  1  0  0  0  0
  6 25  1  0  0  0  0
  7  9  1  0  0  0  0
  7 26  1  0  0  0  0
  7 27  1  0  0  0  0
  8 10  1  0  0  0  0
  8 28  1  0  0  0  0
  8 29  1  0  0  0  0
  9 30  1  0  0  0  0
  9 31  1  0  0  0  0
 10 32  1  0  0  0  0
 10 33  1  0  0  0  0
 11 34  1  0  0  0  0
 11 35  1  0  0  0  0
 11 36  1  0  0  0  0
 12 13  1  0  0  0  0
 13 14  1  0  0  0  0
 13 15  1  0  0  0  0
 13 37  1  0  0  0  0
 14 16  1  0  0  0  0
 14 38  1  0  0  0  0
 14 39  1  0  0  0  0
 15 17  2  0  0  0  0
 15 18  1  0  0  0  0
 16 40  1  0  0  0  0
 16 41  1  0  0  0  0
 16 42  1  0  0  0  0
 17 19  1  0  0  0  0
 17 43  1  0  0  0  0
 18 20  2  0  0  0  0
 18 44  1  0  0  0  0
 19 21  2  0  0  0  0
 19 45  1  0  0  0  0
 20 21  1  0  0  0  0
 20 46  1  0  0  0  0
 21 47  1  0  0  0  0
M  CHG  1   3   1
M  END
> <PUBCHEM_COMPOUND_CID>
854102

> <PUBCHEM_CONFORMER_RMSD>
0.8

> <PUBCHEM_CONFORMER_DIVERSEORDER>
1
35
32
39
15
22
28
25
27
44
42
10
16
12
45
8
41
34
23
19
7
4
11
13
18
36
38
37
26
6
17
2
3
5
29
43
31
24
30
40
14
9
20
21
33

> <PUBCHEM_MMFF94_PARTIAL_CHARGES>
21
1 -0.43
11 0.5
12 0.66
13 0.2
15 -0.14
17 -0.15
18 -0.15
19 -0.15
2 -0.57
20 -0.15
21 -0.15
3 -1.01
43 0.15
44 0.15
45 0.15
46 0.15
47 0.15
5 0.5
6 0.28
7 0.5
8 0.5

> <PUBCHEM_EFFECTIVE_ROTOR_COUNT>
6.2

> <PUBCHEM_PHARMACOPHORE_FEATURES>
5
1 16 hydrophobe
1 2 acceptor
1 3 cation
6 15 17 18 19 20 21 rings
8 3 4 5 6 7 8 9 10 rings

> <PUBCHEM_HEAVY_ATOM_COUNT>
21

> <PUBCHEM_ATOM_DEF_STEREO_COUNT>
2

> <PUBCHEM_ATOM_UDEF_STEREO_COUNT>
0

> <PUBCHEM_BOND_DEF_STEREO_COUNT>
0

> <PUBCHEM_BOND_UDEF_STEREO_COUNT>
0

> <PUBCHEM_ISOTOPIC_ATOM_COUNT>
0

> <PUBCHEM_COMPONENT_COUNT>
1

> <PUBCHEM_CACTVS_TAUTO_COUNT>
1

> <PUBCHEM_CONFORMER_ID>
000D085600000001

> <PUBCHEM_MMFF94_ENERGY>
60.4417

> <PUBCHEM_FEATURE_SELFOVERLAP>
25.371

> <PUBCHEM_SHAPE_FINGERPRINT>
10498660 4 10231755574033094918
10616163 171 18119241762217981279
11405975 8 18409726261961061105
116883 192 18265893734526408772
12363563 72 18339635741712191158
12553582 1 18270405026091546730
12596602 18 13985246391893085766
12633257 1 18410004459845809879
12916754 54 18341895152186832433
13167823 11 18412544292861362771
13224815 77 17313100834816827876
13533116 47 18261956237574193447
13544653 18 17822015354137571330
13583140 156 17458921339626191560
13675066 3 17894914048336746497
13899415 180 18201731682016251524
14251751 93 18271812345409836171
14341114 328 14851896858859124090
15163728 17 16053750896099882588
15239154 128 9655575223180446074
15375358 24 4823211693472512729
15420108 30 15031132286334661609
15502722 9 18339073775290911188
15788980 27 17894917355530149138
15880784 105 16009041600270574142
17349148 13 18187649119675465082
17492 89 18338514136266956874
1813 80 18339917238227327860
18186145 218 17703792509096229841
19141452 34 18336262431358562545
19784866 170 7060373730326480930
19862831 5 17561085821206256521
200 152 17894638075192023498
20281475 54 18261673679801500497
20645477 70 18341610387165017800
20775530 9 16450684377457277975
21250096 35 18040437736888921106
21403212 168 18116986901131805537
221490 88 18340761546903094970
22646028 28 18334294270863475150
22854114 59 8430305836175091434
231179 274 11167936970506983462
23402539 116 18340210812216354690
23559900 14 18407762542963044840
2637199 183 11959722811587230792
26918003 58 17894916277767820570
2916195 48 11167355294786679118
312423 11 18340476790471299209
314173 41 18339072800349016286
4921388 177 18272087197631443939
5104073 3 18336540534780866841
5161694 15 18131634499439597165
5281201 14 18131069316187967956
53777708 50 18337664213947244377
5924683 9 17168439190089916599
633830 44 17846780693685605377
7399639 24 17688033011609576785
9709674 26 18270394979989130515
9971528 1 18335706078728381856
9981440 41 17691127033025226064

> <PUBCHEM_SHAPE_MULTIPOLES>
415.45
10.88
2.61
1.24
0.37
0.38
-0.21
-3.96
0.08
1.6
-0.46
-0.21
-0.12
0.12

> <PUBCHEM_SHAPE_SELFOVERLAP>
872.52

> <PUBCHEM_SHAPE_VOLUME>
232.4

> <PUBCHEM_COORDINATE_TYPE>
2
5
10

$$$$

