854143
  -OEChem-06241222473D

 17 17  0     1  0  0  0  0  0999 V2000
    2.6991    0.7872   -0.0978 O   0  0  0  0  0  0  0  0  0  0  0  0
   -2.8024   -0.1791    0.0997 O   0  0  0  0  0  0  0  0  0  0  0  0
   -1.3203    1.2820   -0.8299 O   0  0  0  0  0  0  0  0  0  0  0  0
   -0.5473   -0.4040    0.7219 C   0  0  1  0  0  0  0  0  0  0  0  0
    0.0583   -1.5560   -0.0730 C   0  0  0  0  0  0  0  0  0  0  0  0
    0.6253    0.4958    1.1015 C   0  0  0  0  0  0  0  0  0  0  0  0
    1.2088   -0.9451   -0.8634 C   0  0  0  0  0  0  0  0  0  0  0  0
    1.6431    0.1810    0.0341 C   0  0  0  0  0  0  0  0  0  0  0  0
   -1.5645    0.3383   -0.0930 C   0  0  0  0  0  0  0  0  0  0  0  0
   -1.0423   -0.7599    1.6334 H   0  0  0  0  0  0  0  0  0  0  0  0
   -0.6591   -2.0544   -0.7331 H   0  0  0  0  0  0  0  0  0  0  0  0
    0.4530   -2.3092    0.6206 H   0  0  0  0  0  0  0  0  0  0  0  0
    1.0458    0.1991    2.0675 H   0  0  0  0  0  0  0  0  0  0  0  0
    0.3843    1.5616    1.1048 H   0  0  0  0  0  0  0  0  0  0  0  0
    0.8669   -0.5308   -1.8160 H   0  0  0  0  0  0  0  0  0  0  0  0
    2.0179   -1.6615   -1.0216 H   0  0  0  0  0  0  0  0  0  0  0  0
   -3.4829    0.2940   -0.4250 H   0  0  0  0  0  0  0  0  0  0  0  0
  1  8  2  0  0  0  0
  2  9  1  0  0  0  0
  2 17  1  0  0  0  0
  3  9  2  0  0  0  0
  4  5  1  0  0  0  0
  4  6  1  0  0  0  0
  4  9  1  0  0  0  0
  4 10  1  0  0  0  0
  5  7  1  0  0  0  0
  5 11  1  0  0  0  0
  5 12  1  0  0  0  0
  6  8  1  0  0  0  0
  6 13  1  0  0  0  0
  6 14  1  0  0  0  0
  7  8  1  0  0  0  0
  7 15  1  0  0  0  0
  7 16  1  0  0  0  0
M  END
> <PUBCHEM_COMPOUND_CID>
854143

> <PUBCHEM_CONFORMER_RMSD>
0.4

> <PUBCHEM_CONFORMER_DIVERSEORDER>
1
3
5
2
4

> <PUBCHEM_MMFF94_PARTIAL_CHARGES>
9
1 -0.57
17 0.5
2 -0.65
3 -0.57
4 0.06
6 0.06
7 0.06
8 0.45
9 0.66

> <PUBCHEM_EFFECTIVE_ROTOR_COUNT>
1.8

> <PUBCHEM_PHARMACOPHORE_FEATURES>
5
1 1 acceptor
1 2 acceptor
1 3 acceptor
3 2 3 9 anion
5 4 5 6 7 8 rings

> <PUBCHEM_HEAVY_ATOM_COUNT>
9

> <PUBCHEM_ATOM_DEF_STEREO_COUNT>
1

> <PUBCHEM_ATOM_UDEF_STEREO_COUNT>
0

> <PUBCHEM_BOND_DEF_STEREO_COUNT>
0

> <PUBCHEM_BOND_UDEF_STEREO_COUNT>
0

> <PUBCHEM_ISOTOPIC_ATOM_COUNT>
0

> <PUBCHEM_COMPONENT_COUNT>
1

> <PUBCHEM_CACTVS_TAUTO_COUNT>
3

> <PUBCHEM_CONFORMER_ID>
000D087F00000001

> <PUBCHEM_MMFF94_ENERGY>
8.6196

> <PUBCHEM_FEATURE_SELFOVERLAP>
25.428

> <PUBCHEM_SHAPE_FINGERPRINT>
12423570 1 10121544076144257858
12897270 3 18411419544206157085
137420 1 16550827930288732058
21040471 1 18334583416730910834
23235685 24 18113900433635559160
24536 1 18045797933294030545
29004967 10 17240202157307086827
5084963 1 18412546530607863186

> <PUBCHEM_SHAPE_MULTIPOLES>
167.61
2.96
1.26
0.95
0.44
0.32
0.05
-0.65
-0.38
-0.18
-0.13
0
-0.1
0.29

> <PUBCHEM_SHAPE_SELFOVERLAP>
341.044

> <PUBCHEM_SHAPE_VOLUME>
98.8

> <PUBCHEM_COORDINATE_TYPE>
2
5
10

$$$$

