13532
  -OEChem-06241222393D

  9  8  0     0  0  0  0  0  0999 V2000
    0.0003   -2.0195    0.5372 Cl  0  0  0  0  0  0  0  0  0  0  0  0
   -2.0258    0.9360    0.6281 O   0  5  0  0  0  0  0  0  0  0  0  0
    2.0255    0.9364    0.6280 O   0  5  0  0  0  0  0  0  0  0  0  0
   -1.3368   -0.0422   -1.2150 O   0  0  0  0  0  0  0  0  0  0  0  0
    1.3369   -0.0423   -1.2149 O   0  0  0  0  0  0  0  0  0  0  0  0
   -1.2187    0.2527   -0.0183 N   0  3  0  0  0  0  0  0  0  0  0  0
    1.2187    0.2529   -0.0183 N   0  3  0  0  0  0  0  0  0  0  0  0
    0.0001   -0.2740    0.6732 C   0  0  0  0  0  0  0  0  0  0  0  0
   -0.0001    0.0517    1.7171 H   0  0  0  0  0  0  0  0  0  0  0  0
  1  8  1  0  0  0  0
  2  6  1  0  0  0  0
  3  7  1  0  0  0  0
  4  6  2  0  0  0  0
  5  7  2  0  0  0  0
  6  8  1  0  0  0  0
  7  8  1  0  0  0  0
  8  9  1  0  0  0  0
M  CHG  4   2  -1   3  -1   6   1   7   1
M  END
> <PUBCHEM_COMPOUND_CID>
13532

> <PUBCHEM_CONFORMER_RMSD>
0.4

> <PUBCHEM_CONFORMER_DIVERSEORDER>
1
4
5
3
7
6
2

> <PUBCHEM_MMFF94_PARTIAL_CHARGES>
8
1 -0.29
2 -0.52
3 -0.52
4 -0.52
5 -0.52
6 0.8
7 0.8
8 0.77

> <PUBCHEM_EFFECTIVE_ROTOR_COUNT>
2

> <PUBCHEM_PHARMACOPHORE_FEATURES>
6
1 2 acceptor
1 2 anion
1 3 acceptor
1 3 anion
1 4 acceptor
1 5 acceptor

> <PUBCHEM_HEAVY_ATOM_COUNT>
8

> <PUBCHEM_ATOM_DEF_STEREO_COUNT>
0

> <PUBCHEM_ATOM_UDEF_STEREO_COUNT>
0

> <PUBCHEM_BOND_DEF_STEREO_COUNT>
0

> <PUBCHEM_BOND_UDEF_STEREO_COUNT>
0

> <PUBCHEM_ISOTOPIC_ATOM_COUNT>
0

> <PUBCHEM_COMPONENT_COUNT>
1

> <PUBCHEM_CACTVS_TAUTO_COUNT>
2

> <PUBCHEM_CONFORMER_ID>
000034DC00000001

> <PUBCHEM_MMFF94_ENERGY>
15.3995

> <PUBCHEM_FEATURE_SELFOVERLAP>
30.616

> <PUBCHEM_SHAPE_FINGERPRINT>
137420 1 11180912676039843163
20096714 4 18187925135516711889
21040471 1 18271515442519896370
23552449 1 17832993745517346704
24536 1 18264762160661351780
29004967 10 16153706462244416867
5084963 1 17632859724011627579
5943 1 11333842073420679247

> <PUBCHEM_SHAPE_MULTIPOLES>
133.07
2.19
1.45
1.06
0
1.2
-0.26
-1.06
0.19
0
0.24
0
-0.14
0

> <PUBCHEM_SHAPE_SELFOVERLAP>
243.341

> <PUBCHEM_SHAPE_VOLUME>
85.9

> <PUBCHEM_COORDINATE_TYPE>
2
5
10

$$$$

