3774
  -OEChem-06251223402D

 32 33  0     1  0  0  0  0  0999 V2000
    5.0032   -1.9467    0.0000 O   0  0  0  0  0  0  0  0  0  0  0  0
    3.4154   -2.7558    0.0000 O   0  0  0  0  0  0  0  0  0  0  0  0
    5.4738    2.0866    0.0000 N   0  0  0  0  0  0  0  0  0  0  0  0
    4.5032   -0.4079    0.0000 C   0  0  3  0  0  0  0  0  0  0  0  0
    3.6942   -0.9957    0.0000 C   0  0  3  0  0  0  0  0  0  0  0  0
    4.5032    0.5921    0.0000 C   0  0  0  0  0  0  0  0  0  0  0  0
    5.3122   -0.9957    0.0000 C   0  0  0  0  0  0  0  0  0  0  0  0
    2.7431   -0.6867    0.0000 C   0  0  0  0  0  0  0  0  0  0  0  0
    4.0032   -1.9467    0.0000 C   0  0  0  0  0  0  0  0  0  0  0  0
    5.3692    1.0921    0.0000 C   0  0  0  0  0  0  0  0  0  0  0  0
    2.0000   -1.3558    0.0000 C   0  0  0  0  0  0  0  0  0  0  0  0
    6.2828    0.6854    0.0000 C   0  0  0  0  0  0  0  0  0  0  0  0
    6.4519    2.2945    0.0000 C   0  0  0  0  0  0  0  0  0  0  0  0
    6.9519    1.4285    0.0000 C   0  0  0  0  0  0  0  0  0  0  0  0
    4.7306    2.7558    0.0000 C   0  0  0  0  0  0  0  0  0  0  0  0
    3.9508   -0.1264    0.0000 H   0  0  0  0  0  0  0  0  0  0  0  0
    3.2558   -1.4341    0.0000 H   0  0  0  0  0  0  0  0  0  0  0  0
    4.2912    1.1747    0.0000 H   0  0  0  0  0  0  0  0  0  0  0  0
    3.8926    0.4844    0.0000 H   0  0  0  0  0  0  0  0  0  0  0  0
    5.8786   -1.2479    0.0000 H   0  0  0  0  0  0  0  0  0  0  0  0
    5.6222   -0.4587    0.0000 H   0  0  0  0  0  0  0  0  0  0  0  0
    3.0342   -0.1392    0.0000 H   0  0  0  0  0  0  0  0  0  0  0  0
    2.2546   -0.3050    0.0000 H   0  0  0  0  0  0  0  0  0  0  0  0
    1.5851   -0.8950    0.0000 H   0  0  0  0  0  0  0  0  0  0  0  0
    1.5392   -1.7707    0.0000 H   0  0  0  0  0  0  0  0  0  0  0  0
    2.4149   -1.8166    0.0000 H   0  0  0  0  0  0  0  0  0  0  0  0
    6.4117    0.0789    0.0000 H   0  0  0  0  0  0  0  0  0  0  0  0
    6.7041    2.8609    0.0000 H   0  0  0  0  0  0  0  0  0  0  0  0
    7.5685    1.3637    0.0000 H   0  0  0  0  0  0  0  0  0  0  0  0
    5.1455    3.2165    0.0000 H   0  0  0  0  0  0  0  0  0  0  0  0
    4.2699    3.1706    0.0000 H   0  0  0  0  0  0  0  0  0  0  0  0
    4.3158    2.2950    0.0000 H   0  0  0  0  0  0  0  0  0  0  0  0
  1  7  1  0  0  0  0
  1  9  1  0  0  0  0
  2  9  2  0  0  0  0
  3 10  1  0  0  0  0
  3 13  1  0  0  0  0
  3 15  1  0  0  0  0
  4  5  1  0  0  0  0
  4  6  1  0  0  0  0
  4  7  1  0  0  0  0
  4 16  1  0  0  0  0
  5  8  1  0  0  0  0
  5  9  1  0  0  0  0
  5 17  1  0  0  0  0
  6 10  1  0  0  0  0
  6 18  1  0  0  0  0
  6 19  1  0  0  0  0
  7 20  1  0  0  0  0
  7 21  1  0  0  0  0
  8 11  1  0  0  0  0
  8 22  1  0  0  0  0
  8 23  1  0  0  0  0
 10 12  2  0  0  0  0
 11 24  1  0  0  0  0
 11 25  1  0  0  0  0
 11 26  1  0  0  0  0
 12 14  1  0  0  0  0
 12 27  1  0  0  0  0
 13 14  2  0  0  0  0
 13 28  1  0  0  0  0
 14 29  1  0  0  0  0
 15 30  1  0  0  0  0
 15 31  1  0  0  0  0
 15 32  1  0  0  0  0
M  END
> <PUBCHEM_COMPOUND_CID>
3774

> <PUBCHEM_COMPOUND_CANONICALIZED>
1

> <PUBCHEM_CACTVS_COMPLEXITY>
242

> <PUBCHEM_CACTVS_HBOND_ACCEPTOR>
2

> <PUBCHEM_CACTVS_HBOND_DONOR>
0

> <PUBCHEM_CACTVS_ROTATABLE_BOND>
3

> <PUBCHEM_CACTVS_SUBSKEYS>
AAADceByMAAAAAAAAAAAAAAAAAAAAWJAAAAAAAAAAAAAAAABgAAAHgAAAAAADQjhlgY+iJMMFACoATT3TACCgCAxAiAI2CE4ZJgIIPLAkZGGAAhkgADIyAe62eOegAAAAAAAAAAAAAAAAAAAAAAAAAAAAA==

> <PUBCHEM_IUPAC_OPENEYE_NAME>
3-ethyl-4-[(1-methylpyrrol-2-yl)methyl]tetrahydrofuran-2-one

> <PUBCHEM_IUPAC_CAS_NAME>
3-ethyl-4-[(1-methyl-2-pyrrolyl)methyl]-2-oxolanone

> <PUBCHEM_IUPAC_NAME>
3-ethyl-4-[(1-methylpyrrol-2-yl)methyl]oxolan-2-one

> <PUBCHEM_IUPAC_SYSTEMATIC_NAME>
3-ethyl-4-[(1-methylpyrrol-2-yl)methyl]oxolan-2-one

> <PUBCHEM_IUPAC_TRADITIONAL_NAME>
3-ethyl-4-[(1-methylpyrrol-2-yl)methyl]tetrahydrofuran-2-one

> <PUBCHEM_IUPAC_INCHI>
InChI=1S/C12H17NO2/c1-3-11-9(8-15-12(11)14)7-10-5-4-6-13(10)2/h4-6,9,11H,3,7-8H2,1-2H3

> <PUBCHEM_IUPAC_INCHIKEY>
KQKSLWXYBGGZDU-UHFFFAOYSA-N

> <PUBCHEM_XLOGP3_AA>
1.7

> <PUBCHEM_EXACT_MASS>
207.125929

> <PUBCHEM_MOLECULAR_FORMULA>
C12H17NO2

> <PUBCHEM_MOLECULAR_WEIGHT>
207.26888

> <PUBCHEM_OPENEYE_CAN_SMILES>
CCC1C(COC1=O)CC2=CC=CN2C

> <PUBCHEM_OPENEYE_ISO_SMILES>
CCC1C(COC1=O)CC2=CC=CN2C

> <PUBCHEM_CACTVS_TPSA>
31.2

> <PUBCHEM_MONOISOTOPIC_WEIGHT>
207.125929

> <PUBCHEM_TOTAL_CHARGE>
0

> <PUBCHEM_HEAVY_ATOM_COUNT>
15

> <PUBCHEM_ATOM_DEF_STEREO_COUNT>
0

> <PUBCHEM_ATOM_UDEF_STEREO_COUNT>
2

> <PUBCHEM_BOND_DEF_STEREO_COUNT>
0

> <PUBCHEM_BOND_UDEF_STEREO_COUNT>
0

> <PUBCHEM_ISOTOPIC_ATOM_COUNT>
0

> <PUBCHEM_COMPONENT_COUNT>
1

> <PUBCHEM_CACTVS_TAUTO_COUNT>
2

> <PUBCHEM_COORDINATE_TYPE>
1
5
255

> <PUBCHEM_BONDANNOTATIONS>
10  12  8
12  14  8
13  14  8
3  10  8
3  13  8
4  6  3
5  8  3

$$$$

