13916
  -OEChem-06241222403D

 22 23  0     0  0  0  0  0  0999 V2000
    1.9870   -0.3504    2.4458 Cl  0  0  0  0  0  0  0  0  0  0  0  0
   -3.6925    1.0816    0.1398 Cl  0  0  0  0  0  0  0  0  0  0  0  0
    0.4967    1.9560   -0.1046 O   0  5  0  0  0  0  0  0  0  0  0  0
   -1.6195    2.5169    0.0573 O   0  0  0  0  0  0  0  0  0  0  0  0
    3.2411    0.1484   -1.1873 N   0  0  0  0  0  0  0  0  0  0  0  0
   -0.7159    1.6569   -0.0356 N   0  3  0  0  0  0  0  0  0  0  0  0
   -0.0970   -0.7031   -0.1681 C   0  0  0  0  0  0  0  0  0  0  0  0
    1.3011   -0.3653   -0.2478 C   0  0  0  0  0  0  0  0  0  0  0  0
   -1.0839    0.2773   -0.0646 C   0  0  0  0  0  0  0  0  0  0  0  0
   -0.4536   -2.0513   -0.1965 C   0  0  0  0  0  0  0  0  0  0  0  0
    2.2605   -0.1930    0.7758 C   0  0  0  0  0  0  0  0  0  0  0  0
    1.9297   -0.1499   -1.4511 C   0  0  0  0  0  0  0  0  0  0  0  0
   -2.4272   -0.0906    0.0104 C   0  0  0  0  0  0  0  0  0  0  0  0
    3.4542    0.1246    0.1662 C   0  0  0  0  0  0  0  0  0  0  0  0
   -1.7970   -2.4192   -0.1214 C   0  0  0  0  0  0  0  0  0  0  0  0
   -2.7838   -1.4388   -0.0181 C   0  0  0  0  0  0  0  0  0  0  0  0
    0.3012   -2.8303   -0.2759 H   0  0  0  0  0  0  0  0  0  0  0  0
    1.5716   -0.1792   -2.4715 H   0  0  0  0  0  0  0  0  0  0  0  0
    4.4346    0.3360    0.5703 H   0  0  0  0  0  0  0  0  0  0  0  0
    3.9435    0.3541   -1.8844 H   0  0  0  0  0  0  0  0  0  0  0  0
   -2.0746   -3.4690   -0.1432 H   0  0  0  0  0  0  0  0  0  0  0  0
   -3.8259   -1.7431    0.0394 H   0  0  0  0  0  0  0  0  0  0  0  0
  1 11  1  0  0  0  0
  2 13  1  0  0  0  0
  3  6  1  0  0  0  0
  4  6  2  0  0  0  0
  5 12  1  0  0  0  0
  5 14  1  0  0  0  0
  5 20  1  0  0  0  0
  6  9  1  0  0  0  0
  7  8  1  0  0  0  0
  7  9  2  0  0  0  0
  7 10  1  0  0  0  0
  8 11  1  0  0  0  0
  8 12  2  0  0  0  0
  9 13  1  0  0  0  0
 10 15  2  0  0  0  0
 10 17  1  0  0  0  0
 11 14  2  0  0  0  0
 12 18  1  0  0  0  0
 13 16  2  0  0  0  0
 14 19  1  0  0  0  0
 15 16  1  0  0  0  0
 15 21  1  0  0  0  0
 16 22  1  0  0  0  0
M  CHG  2   3  -1   6   1
M  END
> <PUBCHEM_COMPOUND_CID>
13916

> <PUBCHEM_CONFORMER_RMSD>
0.6

> <PUBCHEM_CONFORMER_DIVERSEORDER>
1
2

> <PUBCHEM_MMFF94_PARTIAL_CHARGES>
22
1 -0.12
10 -0.15
11 0.12
12 -0.3
13 0.18
14 -0.3
15 -0.15
16 -0.15
17 0.15
18 0.15
19 0.15
2 -0.18
20 0.27
21 0.15
22 0.15
3 -0.52
4 -0.52
5 0.03
6 0.91
7 0.05
8 -0.05
9 0.13

> <PUBCHEM_EFFECTIVE_ROTOR_COUNT>
2

> <PUBCHEM_PHARMACOPHORE_FEATURES>
7
1 3 acceptor
1 3 anion
1 4 acceptor
1 5 cation
1 5 donor
5 5 8 11 12 14 rings
6 7 9 10 13 15 16 rings

> <PUBCHEM_HEAVY_ATOM_COUNT>
16

> <PUBCHEM_ATOM_DEF_STEREO_COUNT>
0

> <PUBCHEM_ATOM_UDEF_STEREO_COUNT>
0

> <PUBCHEM_BOND_DEF_STEREO_COUNT>
0

> <PUBCHEM_BOND_UDEF_STEREO_COUNT>
0

> <PUBCHEM_ISOTOPIC_ATOM_COUNT>
0

> <PUBCHEM_COMPONENT_COUNT>
1

> <PUBCHEM_CACTVS_TAUTO_COUNT>
1

> <PUBCHEM_CONFORMER_ID>
0000365C00000001

> <PUBCHEM_MMFF94_ENERGY>
56.3777

> <PUBCHEM_FEATURE_SELFOVERLAP>
35.602

> <PUBCHEM_SHAPE_FINGERPRINT>
10967382 1 18337949112165416023
11132069 177 18335420166396138221
12236239 1 17847059991377316126
12382932 28 18409448094140647795
12423570 1 9105702684708026659
12716301 132 18262811764282558138
13140716 1 18337948979195711257
13172582 1 18411980252260522211
13538477 17 18201725050143413562
13583140 156 16845566539710373165
13898156 1 18060149759887415250
14614273 12 18199468951294435677
14787075 74 16980948053106768650
14817 1 10917055195900474978
15375462 175 18337104661217553971
15375462 189 17989209209401903547
15669948 3 18412827966840450719
15775835 57 18060416923727036508
16752209 62 18341624753825289677
16945 1 18410013243011738575
18175812 5 17676207939998499846
19049666 15 17677044775932552666
193761 8 17905324031650977437
19765921 60 17415825921536099916
19868273 325 18339641135827274111
20510252 161 18333446564699739577
20645476 183 17774995782836811119
21501502 16 18121775032934748045
22112679 90 18202015312723419258
22802520 49 18042384989061569430
22892500 29 16443066092756715274
23175994 123 16805313432017992026
23236772 104 17917142815028583842
2334 1 18121779418207094445
23402539 116 18334864921867305982
23419403 2 16601886016631088117
23493267 7 17916285281874270811
23526113 38 17385998537717418558
23557571 272 18189044305642220868
23559900 14 18333724737595497638
23598294 1 18341895156128807403
25610 171 18262533514836952962
2748010 2 18192716644266548085
3286 77 16587740906497408726
350125 39 17833541680381223461
4072396 5 18127145267248160033
528886 8 18408880754688406327
53812653 166 18259984907266465787
53812653 8 18342171223736112053
7364860 26 17540249848369208745
77492 1 17775288240065931614
81228 2 18408318887098327265

> <PUBCHEM_SHAPE_MULTIPOLES>
311.31
5.25
2.15
1.29
0.09
0.17
0.67
0.49
0.09
-1.95
-0.08
1.46
-0.14
-0.23

> <PUBCHEM_SHAPE_SELFOVERLAP>
669.031

> <PUBCHEM_SHAPE_VOLUME>
173.5

> <PUBCHEM_COORDINATE_TYPE>
2
5
10

$$$$

