17395785
  -OEChem-06241222523D

 49 51  0     1  0  0  0  0  0999 V2000
    0.1617   -2.0925    1.3862 O   0  0  0  0  0  0  0  0  0  0  0  0
    2.4990    2.8067    0.1404 O   0  0  0  0  0  0  0  0  0  0  0  0
    6.1219   -0.3013    0.1481 O   0  0  0  0  0  0  0  0  0  0  0  0
   -1.4862   -0.6916    0.5281 N   0  0  0  0  0  0  0  0  0  0  0  0
    1.6678   -1.8308   -0.7664 N   0  0  0  0  0  0  0  0  0  0  0  0
   -2.0334   -0.3685    1.8451 C   0  0  0  0  0  0  0  0  0  0  0  0
   -2.0940    0.0092   -0.6124 C   0  0  0  0  0  0  0  0  0  0  0  0
   -3.5309   -0.6461    1.8860 C   0  0  0  0  0  0  0  0  0  0  0  0
   -3.5577    0.3364   -0.4401 C   0  0  0  0  0  0  0  0  0  0  0  0
   -4.2429    0.0412    0.7515 C   0  0  0  0  0  0  0  0  0  0  0  0
   -0.3525   -1.5024    0.4329 C   0  0  0  0  0  0  0  0  0  0  0  0
    0.2523   -1.6488   -0.9419 C   0  0  2  0  0  0  0  0  0  0  0  0
   -4.2461    0.9575   -1.4922 C   0  0  0  0  0  0  0  0  0  0  0  0
   -5.6070    0.3430    0.8611 C   0  0  0  0  0  0  0  0  0  0  0  0
   -0.3520   -2.8401   -1.6508 C   0  0  0  0  0  0  0  0  0  0  0  0
   -5.6004    1.2666   -1.3686 C   0  0  0  0  0  0  0  0  0  0  0  0
   -6.2809    0.9571   -0.1938 C   0  0  0  0  0  0  0  0  0  0  0  0
    2.5497   -0.8017   -0.4620 C   0  0  0  0  0  0  0  0  0  0  0  0
    3.9095   -1.0713   -0.3079 C   0  0  0  0  0  0  0  0  0  0  0  0
    2.0755    0.5014   -0.3111 C   0  0  0  0  0  0  0  0  0  0  0  0
    2.9611    1.5348   -0.0060 C   0  0  0  0  0  0  0  0  0  0  0  0
    4.7951   -0.0378   -0.0027 C   0  0  0  0  0  0  0  0  0  0  0  0
    4.3210    1.2653    0.1482 C   0  0  0  0  0  0  0  0  0  0  0  0
    1.0978    3.0123   -0.0315 C   0  0  0  0  0  0  0  0  0  0  0  0
    6.9717    0.8016    0.4597 C   0  0  0  0  0  0  0  0  0  0  0  0
   -1.8257    0.6932    2.0293 H   0  0  0  0  0  0  0  0  0  0  0  0
   -1.5285   -0.9398    2.6306 H   0  0  0  0  0  0  0  0  0  0  0  0
   -1.5322    0.9414   -0.7438 H   0  0  0  0  0  0  0  0  0  0  0  0
   -1.9950   -0.5893   -1.5202 H   0  0  0  0  0  0  0  0  0  0  0  0
   -3.7147   -1.7244    1.8043 H   0  0  0  0  0  0  0  0  0  0  0  0
   -3.9303   -0.3055    2.8482 H   0  0  0  0  0  0  0  0  0  0  0  0
    0.0813   -0.7779   -1.5790 H   0  0  0  0  0  0  0  0  0  0  0  0
   -3.7284    1.2001   -2.4170 H   0  0  0  0  0  0  0  0  0  0  0  0
   -6.1512    0.1023    1.7709 H   0  0  0  0  0  0  0  0  0  0  0  0
    2.0454   -2.7717   -0.8049 H   0  0  0  0  0  0  0  0  0  0  0  0
   -0.1688   -3.7692   -1.0973 H   0  0  0  0  0  0  0  0  0  0  0  0
   -1.4362   -2.7460   -1.7661 H   0  0  0  0  0  0  0  0  0  0  0  0
    0.0856   -2.9640   -2.6476 H   0  0  0  0  0  0  0  0  0  0  0  0
   -6.1250    1.7453   -2.1903 H   0  0  0  0  0  0  0  0  0  0  0  0
   -7.3370    1.1925   -0.0995 H   0  0  0  0  0  0  0  0  0  0  0  0
    4.2868   -2.0847   -0.4241 H   0  0  0  0  0  0  0  0  0  0  0  0
    1.0205    0.6982   -0.4314 H   0  0  0  0  0  0  0  0  0  0  0  0
    4.9587    2.1107    0.3849 H   0  0  0  0  0  0  0  0  0  0  0  0
    0.7767    2.7760   -1.0518 H   0  0  0  0  0  0  0  0  0  0  0  0
    0.5145    2.4760    0.7251 H   0  0  0  0  0  0  0  0  0  0  0  0
    0.9083    4.0800    0.1208 H   0  0  0  0  0  0  0  0  0  0  0  0
    6.9796    1.5438   -0.3459 H   0  0  0  0  0  0  0  0  0  0  0  0
    6.7184    1.2435    1.4293 H   0  0  0  0  0  0  0  0  0  0  0  0
    7.9910    0.4105    0.5435 H   0  0  0  0  0  0  0  0  0  0  0  0
  1 11  2  0  0  0  0
  2 21  1  0  0  0  0
  2 24  1  0  0  0  0
  3 22  1  0  0  0  0
  3 25  1  0  0  0  0
  4  6  1  0  0  0  0
  4  7  1  0  0  0  0
  4 11  1  0  0  0  0
  5 12  1  0  0  0  0
  5 18  1  0  0  0  0
  5 35  1  0  0  0  0
  6  8  1  0  0  0  0
  6 26  1  0  0  0  0
  6 27  1  0  0  0  0
  7  9  1  0  0  0  0
  7 28  1  0  0  0  0
  7 29  1  0  0  0  0
  8 10  1  0  0  0  0
  8 30  1  0  0  0  0
  8 31  1  0  0  0  0
  9 10  1  0  0  0  0
  9 13  2  0  0  0  0
 10 14  2  0  0  0  0
 11 12  1  0  0  0  0
 12 15  1  0  0  0  0
 12 32  1  0  0  0  0
 13 16  1  0  0  0  0
 13 33  1  0  0  0  0
 14 17  1  0  0  0  0
 14 34  1  0  0  0  0
 15 36  1  0  0  0  0
 15 37  1  0  0  0  0
 15 38  1  0  0  0  0
 16 17  2  0  0  0  0
 16 39  1  0  0  0  0
 17 40  1  0  0  0  0
 18 19  2  0  0  0  0
 18 20  1  0  0  0  0
 19 22  1  0  0  0  0
 19 41  1  0  0  0  0
 20 21  2  0  0  0  0
 20 42  1  0  0  0  0
 21 23  1  0  0  0  0
 22 23  2  0  0  0  0
 23 43  1  0  0  0  0
 24 44  1  0  0  0  0
 24 45  1  0  0  0  0
 24 46  1  0  0  0  0
 25 47  1  0  0  0  0
 25 48  1  0  0  0  0
 25 49  1  0  0  0  0
M  END
> <PUBCHEM_COMPOUND_CID>
17395785

> <PUBCHEM_CONFORMER_RMSD>
0.8

> <PUBCHEM_CONFORMER_DIVERSEORDER>
4
323
328
111
167
327
27
250
116
115
238
303
147
74
282
237
202
110
230
320
166
127
262
273
318
306
41
183
37
244
198
70
118
162
310
134
75
274
163
288
165
342
280
337
84
56
211
258
103
213
122
121
255
1
220
325
308
199
233
9
79
326
240
207
76
117
54
248
316
51
312
346
343
232
97
290
186
60
334
17
10
62
123
209
59
309
335
8
159
191
148
243
304
175
139
25
295
267
270
155
340
206
179
339
194
227
307
88
301
253
22
35
205
154
200
314
332
49
3
187
236
217
87
215
77
94
297
168
214
99
331
263
204
5
347
210
299
245
112
264
218
293
109
29
260
189
298
137
265
64
284
86
294
93
296
313
300
177
19
171
190
182
42
259
83
157
108
107
141
221
208
102
172
90
44
38
283
302
180
321
14
315
138
136
286
322
124
291
324
82
156
120
169
305
338
2
257
46
150
69
193
276
125
278
61
234
36
228
229
7
96
80
256
285
23
251
140
281
106
53
57
91
333
126
78
135
249
13
242
85
33
176
15
225
152
71
145
28
65
68
235
311
20
224
277
222
239
192
178
174
113
261
131
11
188
52
219
223
26
231
132
100
105
292
48
12
58
31
266
164
73
330
196
319
89
104
142
287
66
18
133
45
279
30
92
185
344
130
329
146
268
271
181
16
252
128
226
336
241
247
269
149
197
40
34
184
21
39
275
153
144
203
216
24
101
341
158
195
173
161
246
114
143
129
201
345
254
212
67
81
72
272
170
50
289
32
317
98
47
160
63
6
151
55
43
119
95

> <PUBCHEM_MMFF94_PARTIAL_CHARGES>
32
1 -0.57
10 -0.14
11 0.57
12 0.43
13 -0.15
14 -0.15
16 -0.15
17 -0.15
18 0.1
19 -0.15
2 -0.36
20 -0.15
21 0.08
22 0.08
23 -0.15
24 0.28
25 0.28
3 -0.36
33 0.15
34 0.15
35 0.4
39 0.15
4 -0.66
40 0.15
41 0.15
42 0.15
43 0.15
5 -0.87
6 0.3
7 0.44
8 0.14
9 -0.14

> <PUBCHEM_EFFECTIVE_ROTOR_COUNT>
6.8

> <PUBCHEM_PHARMACOPHORE_FEATURES>
8
1 1 acceptor
1 2 acceptor
1 3 acceptor
1 5 cation
1 5 donor
6 18 19 20 21 22 23 rings
6 4 6 7 8 9 10 rings
6 9 10 13 14 16 17 rings

> <PUBCHEM_HEAVY_ATOM_COUNT>
25

> <PUBCHEM_ATOM_DEF_STEREO_COUNT>
0

> <PUBCHEM_ATOM_UDEF_STEREO_COUNT>
1

> <PUBCHEM_BOND_DEF_STEREO_COUNT>
0

> <PUBCHEM_BOND_UDEF_STEREO_COUNT>
0

> <PUBCHEM_ISOTOPIC_ATOM_COUNT>
0

> <PUBCHEM_COMPONENT_COUNT>
1

> <PUBCHEM_CACTVS_TAUTO_COUNT>
1

> <PUBCHEM_CONFORMER_ID>
0109704900000004

> <PUBCHEM_MMFF94_ENERGY>
94.3943

> <PUBCHEM_FEATURE_SELFOVERLAP>
40.617

> <PUBCHEM_SHAPE_FINGERPRINT>
10090160 65 18040710411667877435
10319926 262 17560799892338008336
10763959 59 18342734131003773748
11045977 3 18131908261029798483
11545043 162 17346307168523764889
11578080 2 17170416017639148768
11595378 159 14764355972254142269
11646440 116 18335416867898685432
11725454 13 18202285814422977647
12011746 2 18408880750815503924
12236239 1 17022901293801705215
12507557 5 18410004416774843811
12596602 18 14261055559457862149
12838862 33 18263381264837039600
13103583 49 13326847851407379819
13402501 40 18272936041777066021
13533116 47 16732980985875124966
13583140 156 18201432558655210643
13631057 29 17822585898189973375
14251764 38 18343013411236858957
15003188 100 18340773663280247765
15238133 3 18131062702718631604
19489759 90 17203888557402652931
20554085 129 16988571247207410001
20567600 254 17775015600253407701
21033648 29 18130230367341183768
21033650 10 15358791497266115434
21279426 13 17986115338110104478
21298829 104 18041274452100101673
21475661 188 18202565051278414093
21792961 116 18201715211333415014
23227448 37 18337671915219141271
2838139 119 18412835680807449541
335352 9 18335139778948214548
3459 39 16486987240944959725
351380 180 18342174470736526097
4325135 7 13912325676858098304
474 4 18259979383917638327
8509985 295 18201443592726270000

> <PUBCHEM_SHAPE_MULTIPOLES>
486.92
14.69
2.49
1.42
2.67
0.26
0.23
6.44
0.35
1.49
-0.61
-1.89
-0.49
1.12

> <PUBCHEM_SHAPE_SELFOVERLAP>
1038.016

> <PUBCHEM_SHAPE_VOLUME>
270.2

> <PUBCHEM_COORDINATE_TYPE>
2
5
10

$$$$

