12963
  -OEChem-06261207363D

  6  5  0     0  0  0  0  0  0999 V2000
    1.7918   -1.3243   -0.0001 Br  0  0  0  0  0  0  0  0  0  0  0  0
    1.2362    1.6921    0.0001 Cl  0  0  0  0  0  0  0  0  0  0  0  0
   -1.2695   -1.3372    0.0001 F   0  0  0  0  0  0  0  0  0  0  0  0
   -1.5865    0.9688   -0.0002 F   0  0  0  0  0  0  0  0  0  0  0  0
    0.5765    0.0913   -0.0001 C   0  0  0  0  0  0  0  0  0  0  0  0
   -0.7486   -0.0908    0.0002 C   0  0  0  0  0  0  0  0  0  0  0  0
  1  5  1  0  0  0  0
  2  5  1  0  0  0  0
  3  6  1  0  0  0  0
  4  6  1  0  0  0  0
  5  6  2  0  0  0  0
M  END
> <PUBCHEM_COMPOUND_CID>
12963

> <PUBCHEM_CONFORMER_RMSD>
0.4

> <PUBCHEM_CONFORMER_DIVERSEORDER>
1

> <PUBCHEM_MMFF94_PARTIAL_CHARGES>
6
1 -0.11
2 -0.14
3 -0.15
4 -0.15
5 0.25
6 0.3

> <PUBCHEM_EFFECTIVE_ROTOR_COUNT>
0

> <PUBCHEM_PHARMACOPHORE_FEATURES>
1
1 1 hydrophobe

> <PUBCHEM_HEAVY_ATOM_COUNT>
6

> <PUBCHEM_ATOM_DEF_STEREO_COUNT>
0

> <PUBCHEM_ATOM_UDEF_STEREO_COUNT>
0

> <PUBCHEM_BOND_DEF_STEREO_COUNT>
0

> <PUBCHEM_BOND_UDEF_STEREO_COUNT>
0

> <PUBCHEM_ISOTOPIC_ATOM_COUNT>
0

> <PUBCHEM_COMPONENT_COUNT>
1

> <PUBCHEM_CACTVS_TAUTO_COUNT>
1

> <PUBCHEM_CONFORMER_ID>
000032A300000001

> <PUBCHEM_MMFF94_ENERGY>
1.6941

> <PUBCHEM_FEATURE_SELFOVERLAP>
5.074

> <PUBCHEM_SHAPE_FINGERPRINT>
139733 1 9294701200476858594
16714656 1 17905886229763601782
20096714 4 18410571777570175856
21040471 1 18122625225810649570
24536 1 18338815423942926672
29004967 10 18268704086035546538
5943 1 6080677207531912900

> <PUBCHEM_SHAPE_MULTIPOLES>
116.74
2.21
1.85
0.61
0.31
0.67
0
-0.63
0
0.28
0
0.11
0.01
0

> <PUBCHEM_SHAPE_SELFOVERLAP>
196.022

> <PUBCHEM_SHAPE_VOLUME>
81.4

> <PUBCHEM_COORDINATE_TYPE>
2
5
10

$$$$

