47205207
  -OEChem-06241222582D

 26 27  0     0  0  0  0  0  0999 V2000
    2.0000   -0.7047    0.0000 Cl  0  0  0  0  0  0  0  0  0  0  0  0
    3.7320   -3.7047    0.0000 Cl  0  0  0  0  0  0  0  0  0  0  0  0
    5.4641   -2.7047    0.0000 F   0  0  0  0  0  0  0  0  0  0  0  0
    2.8660    0.7953    0.0000 O   0  0  0  0  0  0  0  0  0  0  0  0
    4.5981    0.7953    0.0000 N   0  0  0  0  0  0  0  0  0  0  0  0
    5.5686    3.2898    0.0000 N   0  0  0  0  0  0  0  0  0  0  0  0
    6.5468    3.4977    0.0000 N   0  0  0  0  0  0  0  0  0  0  0  0
    4.5981    1.7953    0.0000 C   0  0  0  0  0  0  0  0  0  0  0  0
    5.4641    2.2953    0.0000 C   0  0  0  0  0  0  0  0  0  0  0  0
    3.7320   -0.7047    0.0000 C   0  0  0  0  0  0  0  0  0  0  0  0
    3.7320    0.2953    0.0000 C   0  0  0  0  0  0  0  0  0  0  0  0
    6.3776    1.8886    0.0000 C   0  0  0  0  0  0  0  0  0  0  0  0
    2.8660   -1.2047    0.0000 C   0  0  0  0  0  0  0  0  0  0  0  0
    4.5981   -1.2047    0.0000 C   0  0  0  0  0  0  0  0  0  0  0  0
    2.8660   -2.2047    0.0000 C   0  0  0  0  0  0  0  0  0  0  0  0
    4.5981   -2.2047    0.0000 C   0  0  0  0  0  0  0  0  0  0  0  0
    3.7320   -2.7047    0.0000 C   0  0  0  0  0  0  0  0  0  0  0  0
    7.0468    2.6317    0.0000 C   0  0  0  0  0  0  0  0  0  0  0  0
    4.3860    2.3779    0.0000 H   0  0  0  0  0  0  0  0  0  0  0  0
    3.9875    1.6876    0.0000 H   0  0  0  0  0  0  0  0  0  0  0  0
    5.1350    0.4853    0.0000 H   0  0  0  0  0  0  0  0  0  0  0  0
    5.1350   -0.8947    0.0000 H   0  0  0  0  0  0  0  0  0  0  0  0
    6.5066    1.2821    0.0000 H   0  0  0  0  0  0  0  0  0  0  0  0
    5.1079    3.7047    0.0000 H   0  0  0  0  0  0  0  0  0  0  0  0
    2.3291   -2.5147    0.0000 H   0  0  0  0  0  0  0  0  0  0  0  0
    7.6634    2.5669    0.0000 H   0  0  0  0  0  0  0  0  0  0  0  0
  1 13  1  0  0  0  0
  2 17  1  0  0  0  0
  3 16  1  0  0  0  0
  4 11  2  0  0  0  0
  5  8  1  0  0  0  0
  5 11  1  0  0  0  0
  5 21  1  0  0  0  0
  6  7  1  0  0  0  0
  6  9  1  0  0  0  0
  6 24  1  0  0  0  0
  7 18  2  0  0  0  0
  8  9  1  0  0  0  0
  8 19  1  0  0  0  0
  8 20  1  0  0  0  0
  9 12  2  0  0  0  0
 10 11  1  0  0  0  0
 10 13  1  0  0  0  0
 10 14  2  0  0  0  0
 12 18  1  0  0  0  0
 12 23  1  0  0  0  0
 13 15  2  0  0  0  0
 14 16  1  0  0  0  0
 14 22  1  0  0  0  0
 15 17  1  0  0  0  0
 15 25  1  0  0  0  0
 16 17  2  0  0  0  0
 18 26  1  0  0  0  0
M  END
> <PUBCHEM_COMPOUND_CID>
47205207

> <PUBCHEM_COMPOUND_CANONICALIZED>
1

> <PUBCHEM_CACTVS_COMPLEXITY>
308

> <PUBCHEM_CACTVS_HBOND_ACCEPTOR>
3

> <PUBCHEM_CACTVS_HBOND_DONOR>
2

> <PUBCHEM_CACTVS_ROTATABLE_BOND>
3

> <PUBCHEM_CACTVS_SUBSKEYS>
AAADccBzIQAGAAAAAAAAAAAAAAAAAWAAAAAwAAAAAAAAAAABwAAAHwIYAAAADArBniw8gJLjAACqAzV3UACSBAAkhwAYuaE4ZtgIYLKB19GUpQhgngCIzYcYiACOBAAAAACBAAAIAAAAAQIAAAAAAAAAAA==

> <PUBCHEM_IUPAC_OPENEYE_NAME>
2,4-dichloro-5-fluoro-N-(1H-pyrazol-5-ylmethyl)benzamide

> <PUBCHEM_IUPAC_CAS_NAME>
2,4-dichloro-5-fluoro-N-(1H-pyrazol-5-ylmethyl)benzamide

> <PUBCHEM_IUPAC_NAME>
2,4-dichloro-5-fluoro-N-(1H-pyrazol-5-ylmethyl)benzamide

> <PUBCHEM_IUPAC_SYSTEMATIC_NAME>
2,4-bis(chloranyl)-5-fluoranyl-N-(1H-pyrazol-5-ylmethyl)benzamide

> <PUBCHEM_IUPAC_TRADITIONAL_NAME>
2,4-dichloro-5-fluoro-N-(1H-pyrazol-5-ylmethyl)benzamide

> <PUBCHEM_IUPAC_INCHI>
InChI=1S/C11H8Cl2FN3O/c12-8-4-9(13)10(14)3-7(8)11(18)15-5-6-1-2-16-17-6/h1-4H,5H2,(H,15,18)(H,16,17)

> <PUBCHEM_IUPAC_INCHIKEY>
ILXCMOCDMBHIHI-UHFFFAOYSA-N

> <PUBCHEM_XLOGP3_AA>
2.4

> <PUBCHEM_EXACT_MASS>
287.002845

> <PUBCHEM_MOLECULAR_FORMULA>
C11H8Cl2FN3O

> <PUBCHEM_MOLECULAR_WEIGHT>
288.105123

> <PUBCHEM_OPENEYE_CAN_SMILES>
C1=C(NN=C1)CNC(=O)C2=CC(=C(C=C2Cl)Cl)F

> <PUBCHEM_OPENEYE_ISO_SMILES>
C1=C(NN=C1)CNC(=O)C2=CC(=C(C=C2Cl)Cl)F

> <PUBCHEM_CACTVS_TPSA>
57.8

> <PUBCHEM_MONOISOTOPIC_WEIGHT>
287.002845

> <PUBCHEM_TOTAL_CHARGE>
0

> <PUBCHEM_HEAVY_ATOM_COUNT>
18

> <PUBCHEM_ATOM_DEF_STEREO_COUNT>
0

> <PUBCHEM_ATOM_UDEF_STEREO_COUNT>
0

> <PUBCHEM_BOND_DEF_STEREO_COUNT>
0

> <PUBCHEM_BOND_UDEF_STEREO_COUNT>
0

> <PUBCHEM_ISOTOPIC_ATOM_COUNT>
0

> <PUBCHEM_COMPONENT_COUNT>
1

> <PUBCHEM_CACTVS_TAUTO_COUNT>
4

> <PUBCHEM_COORDINATE_TYPE>
1
5
255

> <PUBCHEM_BONDANNOTATIONS>
10  13  8
10  14  8
12  18  8
13  15  8
14  16  8
15  17  8
16  17  8
6  7  8
6  9  8
7  18  8
9  12  8

$$$$

