11744
  -OEChem-06261206043D

 14 13  0     0  0  0  0  0  0999 V2000
   -2.9503    1.4220    0.0003 Br  0  0  0  0  0  0  0  0  0  0  0  0
   -1.8067   -1.1144    1.6171 Br  0  0  0  0  0  0  0  0  0  0  0  0
   -1.8069   -1.1142   -1.6173 Br  0  0  0  0  0  0  0  0  0  0  0  0
    0.8204   -0.3390   -0.0002 O   0  0  0  0  0  0  0  0  0  0  0  0
    2.4075    1.3396    0.0000 O   0  0  0  0  0  0  0  0  0  0  0  0
   -0.2233    0.6403    0.0000 C   0  0  0  0  0  0  0  0  0  0  0  0
   -1.6021   -0.0175    0.0000 C   0  0  0  0  0  0  0  0  0  0  0  0
    2.0900    0.1580   -0.0002 C   0  0  0  0  0  0  0  0  0  0  0  0
    3.0715   -0.9747    0.0002 C   0  0  0  0  0  0  0  0  0  0  0  0
   -0.1023    1.2760   -0.8876 H   0  0  0  0  0  0  0  0  0  0  0  0
   -0.1021    1.2757    0.8878 H   0  0  0  0  0  0  0  0  0  0  0  0
    2.9364   -1.5825   -0.8980 H   0  0  0  0  0  0  0  0  0  0  0  0
    2.9372   -1.5811    0.8995 H   0  0  0  0  0  0  0  0  0  0  0  0
    4.0888   -0.5732   -0.0006 H   0  0  0  0  0  0  0  0  0  0  0  0
  1  7  1  0  0  0  0
  2  7  1  0  0  0  0
  3  7  1  0  0  0  0
  4  6  1  0  0  0  0
  4  8  1  0  0  0  0
  5  8  2  0  0  0  0
  6  7  1  0  0  0  0
  6 10  1  0  0  0  0
  6 11  1  0  0  0  0
  8  9  1  0  0  0  0
  9 12  1  0  0  0  0
  9 13  1  0  0  0  0
  9 14  1  0  0  0  0
M  END
> <PUBCHEM_COMPOUND_CID>
11744

> <PUBCHEM_CONFORMER_RMSD>
0.6

> <PUBCHEM_CONFORMER_DIVERSEORDER>
1
2
3

> <PUBCHEM_MMFF94_PARTIAL_CHARGES>
9
1 -0.23
2 -0.23
3 -0.23
4 -0.43
5 -0.57
6 0.28
7 0.69
8 0.66
9 0.06

> <PUBCHEM_EFFECTIVE_ROTOR_COUNT>
3

> <PUBCHEM_PHARMACOPHORE_FEATURES>
5
1 1 hydrophobe
1 2 hydrophobe
1 3 hydrophobe
1 5 acceptor
4 1 2 3 7 hydrophobe

> <PUBCHEM_HEAVY_ATOM_COUNT>
9

> <PUBCHEM_ATOM_DEF_STEREO_COUNT>
0

> <PUBCHEM_ATOM_UDEF_STEREO_COUNT>
0

> <PUBCHEM_BOND_DEF_STEREO_COUNT>
0

> <PUBCHEM_BOND_UDEF_STEREO_COUNT>
0

> <PUBCHEM_ISOTOPIC_ATOM_COUNT>
0

> <PUBCHEM_COMPONENT_COUNT>
1

> <PUBCHEM_CACTVS_TAUTO_COUNT>
1

> <PUBCHEM_CONFORMER_ID>
00002DE000000001

> <PUBCHEM_MMFF94_ENERGY>
9.3008

> <PUBCHEM_FEATURE_SELFOVERLAP>
26.301

> <PUBCHEM_SHAPE_FINGERPRINT>
12932741 1 17775571901175552326
12932764 1 18041273266867955848
14577589 140 18334573593982507871
15310529 11 18336543824498811939
18342897 137 18114455781312289366
20653085 51 18334012834863294969
23552423 10 18335428949810136574
3248919 1 18059582343104695860
9939556 21 18260556631653482604

> <PUBCHEM_SHAPE_MULTIPOLES>
191.3
4.93
1.56
1.37
3.06
0.15
0
0.67
0
-0.63
0
-1.19
-0.83
0

> <PUBCHEM_SHAPE_SELFOVERLAP>
316.283

> <PUBCHEM_SHAPE_VOLUME>
134.6

> <PUBCHEM_COORDINATE_TYPE>
2
5
10

$$$$

