13899
  -OEChem-06241222402D

 29 29  0     1  0  0  0  0  0999 V2000
    1.4030    5.5013    0.0000 Cl  0  0  0  0  0  0  0  0  0  0  0  0
    2.5672    7.4982    0.0000 Cl  0  5  0  0  0  0  0  0  0  0  0  0
    4.8150    0.5893    0.0000 N   0  3  0  0  0  0  0  0  0  0  0  0
    3.2152    4.3060    0.0000 N   0  0  0  0  0  0  0  0  0  0  0  0
    3.5259    1.7461    0.0000 C   0  0  0  0  0  0  0  0  0  0  0  0
    4.5044    1.5398    0.0000 C   0  0  3  0  0  0  0  0  0  0  0  0
    3.2152    2.6966    0.0000 C   0  0  0  0  0  0  0  0  0  0  0  0
    2.2690    3.0013    0.0000 C   0  0  0  0  0  0  0  0  0  0  0  0
    2.2690    4.0013    0.0000 C   0  0  0  0  0  0  0  0  0  0  0  0
    3.7988    3.5013    0.0000 C   0  0  0  0  0  0  0  0  0  0  0  0
    5.1722    2.2841    0.0000 C   0  0  0  0  0  0  0  0  0  0  0  0
    1.4030    2.5013    0.0000 C   0  0  0  0  0  0  0  0  0  0  0  0
    1.4030    4.5013    0.0000 C   0  0  0  0  0  0  0  0  0  0  0  0
    0.5369    3.0013    0.0000 C   0  0  0  0  0  0  0  0  0  0  0  0
    0.5369    4.0013    0.0000 C   0  0  0  0  0  0  0  0  0  0  0  0
    2.9120    1.6587    0.0000 H   0  0  0  0  0  0  0  0  0  0  0  0
    3.5053    1.1264    0.0000 H   0  0  0  0  0  0  0  0  0  0  0  0
    4.0903    1.0784    0.0000 H   0  0  0  0  0  0  0  0  0  0  0  0
    4.4188    3.5013    0.0000 H   0  0  0  0  0  0  0  0  0  0  0  0
    5.0076    0.0000    0.0000 H   0  0  0  0  0  0  0  0  0  0  0  0
    5.4044    0.7819    0.0000 H   0  0  0  0  0  0  0  0  0  0  0  0
    4.2257    0.3967    0.0000 H   0  0  0  0  0  0  0  0  0  0  0  0
    5.6337    1.8701    0.0000 H   0  0  0  0  0  0  0  0  0  0  0  0
    5.5863    2.7456    0.0000 H   0  0  0  0  0  0  0  0  0  0  0  0
    4.7108    2.6982    0.0000 H   0  0  0  0  0  0  0  0  0  0  0  0
    3.4078    4.8954    0.0000 H   0  0  0  0  0  0  0  0  0  0  0  0
    1.4030    1.8813    0.0000 H   0  0  0  0  0  0  0  0  0  0  0  0
    0.0000    2.6913    0.0000 H   0  0  0  0  0  0  0  0  0  0  0  0
    0.0000    4.3113    0.0000 H   0  0  0  0  0  0  0  0  0  0  0  0
  1 13  1  0  0  0  0
  3  6  1  0  0  0  0
  3 20  1  0  0  0  0
  3 21  1  0  0  0  0
  3 22  1  0  0  0  0
  4  9  1  0  0  0  0
  4 10  1  0  0  0  0
  4 26  1  0  0  0  0
  5  6  1  0  0  0  0
  5  7  1  0  0  0  0
  5 16  1  0  0  0  0
  5 17  1  0  0  0  0
  6 11  1  0  0  0  0
  6 18  1  0  0  0  0
  7  8  1  0  0  0  0
  7 10  2  0  0  0  0
  8  9  2  0  0  0  0
  8 12  1  0  0  0  0
  9 13  1  0  0  0  0
 10 19  1  0  0  0  0
 11 23  1  0  0  0  0
 11 24  1  0  0  0  0
 11 25  1  0  0  0  0
 12 14  2  0  0  0  0
 12 27  1  0  0  0  0
 13 15  2  0  0  0  0
 14 15  1  0  0  0  0
 14 28  1  0  0  0  0
 15 29  1  0  0  0  0
M  CHG  2   2  -1   3   1
M  END
> <PUBCHEM_COMPOUND_CID>
13899

> <PUBCHEM_COMPOUND_CANONICALIZED>
1

> <PUBCHEM_CACTVS_COMPLEXITY>
198

> <PUBCHEM_CACTVS_HBOND_ACCEPTOR>
1

> <PUBCHEM_CACTVS_HBOND_DONOR>
2

> <PUBCHEM_CACTVS_ROTATABLE_BOND>
2

> <PUBCHEM_CACTVS_SUBSKEYS>
AAADccBzAAAGAAAAAAAAAAAAAAAAAWAAAAAwAAAAAAAAAFgB8AAAHAIQAAAADCrBHiQ+wPLJkACgAzRnRACCgCAxBSAI2aAoRpgIIOLBk5HEIAhgkADIyAcQgMAOgAAAIAACABAAAABAAAQAIAAAAAAAAA==

> <PUBCHEM_IUPAC_OPENEYE_NAME>
[2-(7-chloro-1H-indol-3-yl)-1-methyl-ethyl]ammonium chloride

> <PUBCHEM_IUPAC_CAS_NAME>
1-(7-chloro-1H-indol-3-yl)propan-2-ylammonium chloride

> <PUBCHEM_IUPAC_NAME>
1-(7-chloro-1H-indol-3-yl)propan-2-ylazanium chloride

> <PUBCHEM_IUPAC_SYSTEMATIC_NAME>
1-(7-chloranyl-1H-indol-3-yl)propan-2-ylazanium chloride

> <PUBCHEM_IUPAC_TRADITIONAL_NAME>
[2-(7-chloro-1H-indol-3-yl)-1-methyl-ethyl]ammonium chloride

> <PUBCHEM_IUPAC_INCHI>
InChI=1S/C11H13ClN2.ClH/c1-7(13)5-8-6-14-11-9(8)3-2-4-10(11)12;/h2-4,6-7,14H,5,13H2,1H3;1H

> <PUBCHEM_IUPAC_INCHIKEY>
BGWCMYGFCSQGBA-UHFFFAOYSA-N

> <PUBCHEM_EXACT_MASS>
244.053404

> <PUBCHEM_MOLECULAR_FORMULA>
C11H14Cl2N2

> <PUBCHEM_MOLECULAR_WEIGHT>
245.14826

> <PUBCHEM_OPENEYE_CAN_SMILES>
CC(CC1=CNC2=C1C=CC=C2Cl)[NH3+].[Cl-]

> <PUBCHEM_OPENEYE_ISO_SMILES>
CC(CC1=CNC2=C1C=CC=C2Cl)[NH3+].[Cl-]

> <PUBCHEM_CACTVS_TPSA>
43.4

> <PUBCHEM_MONOISOTOPIC_WEIGHT>
244.053404

> <PUBCHEM_TOTAL_CHARGE>
0

> <PUBCHEM_HEAVY_ATOM_COUNT>
15

> <PUBCHEM_ATOM_DEF_STEREO_COUNT>
0

> <PUBCHEM_ATOM_UDEF_STEREO_COUNT>
1

> <PUBCHEM_BOND_DEF_STEREO_COUNT>
0

> <PUBCHEM_BOND_UDEF_STEREO_COUNT>
0

> <PUBCHEM_ISOTOPIC_ATOM_COUNT>
0

> <PUBCHEM_COMPONENT_COUNT>
2

> <PUBCHEM_CACTVS_TAUTO_COUNT>
1

> <PUBCHEM_COORDINATE_TYPE>
1
5
255

> <PUBCHEM_BONDANNOTATIONS>
12  14  8
13  15  8
14  15  8
6  3  3
4  10  8
4  9  8
7  10  8
7  8  8
8  12  8
8  9  8
9  13  8

$$$$

