4298
  -OEChem-06261200012D

 37 38  0     0  0  0  0  0  0999 V2000
    7.7331   -0.4573    0.0000 S   0  0  0  0  0  0  0  0  0  0  0  0
    7.2331    0.4087    0.0000 O   0  0  0  0  0  0  0  0  0  0  0  0
    8.2331   -1.3234    0.0000 O   0  0  0  0  0  0  0  0  0  0  0  0
    6.8671   -0.9573    0.0000 N   0  0  0  0  0  0  0  0  0  0  0  0
    2.5369   -0.4573    0.0000 N   0  0  0  0  0  0  0  0  0  0  0  0
    5.1350   -0.9573    0.0000 C   0  0  0  0  0  0  0  0  0  0  0  0
    6.0010   -0.4573    0.0000 C   0  0  0  0  0  0  0  0  0  0  0  0
    4.2690   -0.4573    0.0000 C   0  0  0  0  0  0  0  0  0  0  0  0
    8.5991    0.0427    0.0000 C   0  0  0  0  0  0  0  0  0  0  0  0
   10.3312    0.0427    0.0000 C   0  0  0  0  0  0  0  0  0  0  0  0
    9.4651   -0.4573    0.0000 C   0  0  0  0  0  0  0  0  0  0  0  0
    3.4030   -0.9573    0.0000 C   0  0  0  0  0  0  0  0  0  0  0  0
   10.3312    1.0427    0.0000 C   0  0  0  0  0  0  0  0  0  0  0  0
    8.5991    1.0427    0.0000 C   0  0  0  0  0  0  0  0  0  0  0  0
    9.4651    1.5427    0.0000 C   0  0  0  0  0  0  0  0  0  0  0  0
   11.2251   -0.4920    0.0000 C   0  0  0  0  0  0  0  0  0  0  0  0
   11.2251    1.5773    0.0000 C   0  0  0  0  0  0  0  0  0  0  0  0
   12.1312    0.0219    0.0000 C   0  0  0  0  0  0  0  0  0  0  0  0
   12.1312    1.0635    0.0000 C   0  0  0  0  0  0  0  0  0  0  0  0
    4.7365   -1.4323    0.0000 H   0  0  0  0  0  0  0  0  0  0  0  0
    5.5335   -1.4323    0.0000 H   0  0  0  0  0  0  0  0  0  0  0  0
    6.3996    0.0176    0.0000 H   0  0  0  0  0  0  0  0  0  0  0  0
    5.6025    0.0176    0.0000 H   0  0  0  0  0  0  0  0  0  0  0  0
    4.6675    0.0176    0.0000 H   0  0  0  0  0  0  0  0  0  0  0  0
    3.8705    0.0176    0.0000 H   0  0  0  0  0  0  0  0  0  0  0  0
    6.8671   -1.5773    0.0000 H   0  0  0  0  0  0  0  0  0  0  0  0
    9.4651   -1.0773    0.0000 H   0  0  0  0  0  0  0  0  0  0  0  0
    3.0044   -1.4323    0.0000 H   0  0  0  0  0  0  0  0  0  0  0  0
    3.8015   -1.4323    0.0000 H   0  0  0  0  0  0  0  0  0  0  0  0
    8.0622    1.3527    0.0000 H   0  0  0  0  0  0  0  0  0  0  0  0
    9.4651    2.1627    0.0000 H   0  0  0  0  0  0  0  0  0  0  0  0
   11.2179   -1.1120    0.0000 H   0  0  0  0  0  0  0  0  0  0  0  0
   11.2179    2.1973    0.0000 H   0  0  0  0  0  0  0  0  0  0  0  0
   12.6669   -0.2902    0.0000 H   0  0  0  0  0  0  0  0  0  0  0  0
   12.6669    1.3756    0.0000 H   0  0  0  0  0  0  0  0  0  0  0  0
    2.0000   -0.7673    0.0000 H   0  0  0  0  0  0  0  0  0  0  0  0
    2.5369    0.1627    0.0000 H   0  0  0  0  0  0  0  0  0  0  0  0
  1  2  2  0  0  0  0
  1  3  2  0  0  0  0
  1  4  1  0  0  0  0
  1  9  1  0  0  0  0
  4  7  1  0  0  0  0
  4 26  1  0  0  0  0
  5 12  1  0  0  0  0
  5 36  1  0  0  0  0
  5 37  1  0  0  0  0
  6  7  1  0  0  0  0
  6  8  1  0  0  0  0
  6 20  1  0  0  0  0
  6 21  1  0  0  0  0
  7 22  1  0  0  0  0
  7 23  1  0  0  0  0
  8 12  1  0  0  0  0
  8 24  1  0  0  0  0
  8 25  1  0  0  0  0
  9 11  2  0  0  0  0
  9 14  1  0  0  0  0
 10 11  1  0  0  0  0
 10 13  1  0  0  0  0
 10 16  2  0  0  0  0
 11 27  1  0  0  0  0
 12 28  1  0  0  0  0
 12 29  1  0  0  0  0
 13 15  1  0  0  0  0
 13 17  2  0  0  0  0
 14 15  2  0  0  0  0
 14 30  1  0  0  0  0
 15 31  1  0  0  0  0
 16 18  1  0  0  0  0
 16 32  1  0  0  0  0
 17 19  1  0  0  0  0
 17 33  1  0  0  0  0
 18 19  2  0  0  0  0
 18 34  1  0  0  0  0
 19 35  1  0  0  0  0
M  END
> <PUBCHEM_COMPOUND_CID>
4298

> <PUBCHEM_COMPOUND_CANONICALIZED>
1

> <PUBCHEM_CACTVS_COMPLEXITY>
364

> <PUBCHEM_CACTVS_HBOND_ACCEPTOR>
4

> <PUBCHEM_CACTVS_HBOND_DONOR>
2

> <PUBCHEM_CACTVS_ROTATABLE_BOND>
6

> <PUBCHEM_CACTVS_SUBSKEYS>
AAADceBzMABAAAAAAAAAAAAAAAAAAAAAAAAwYAAAAAAAAADBUAAAHAQQQAAADADBWAQwAcBAAAKAAiBCAHBCABAgAAAIiJgAAIgIICKAkRCAIAAgkAAIiAcAgIAOkAAAgAAQAAAgAAEAACAAAAAAAAAAAA==

> <PUBCHEM_IUPAC_OPENEYE_NAME>
N-(4-aminobutyl)naphthalene-2-sulfonamide

> <PUBCHEM_IUPAC_CAS_NAME>
N-(4-aminobutyl)-2-naphthalenesulfonamide

> <PUBCHEM_IUPAC_NAME>
N-(4-aminobutyl)naphthalene-2-sulfonamide

> <PUBCHEM_IUPAC_SYSTEMATIC_NAME>
N-(4-azanylbutyl)naphthalene-2-sulfonamide

> <PUBCHEM_IUPAC_TRADITIONAL_NAME>
N-(4-aminobutyl)naphthalene-2-sulfonamide

> <PUBCHEM_IUPAC_INCHI>
InChI=1S/C14H18N2O2S/c15-9-3-4-10-16-19(17,18)14-8-7-12-5-1-2-6-13(12)11-14/h1-2,5-8,11,16H,3-4,9-10,15H2

> <PUBCHEM_IUPAC_INCHIKEY>
BUGAJERDTXSWQA-UHFFFAOYSA-N

> <PUBCHEM_XLOGP3>
0.6

> <PUBCHEM_EXACT_MASS>
278.108899

> <PUBCHEM_MOLECULAR_FORMULA>
C14H18N2O2S

> <PUBCHEM_MOLECULAR_WEIGHT>
278.36992

> <PUBCHEM_OPENEYE_CAN_SMILES>
C1=CC=C2C=C(C=CC2=C1)S(=O)(=O)NCCCCN

> <PUBCHEM_OPENEYE_ISO_SMILES>
C1=CC=C2C=C(C=CC2=C1)S(=O)(=O)NCCCCN

> <PUBCHEM_CACTVS_TPSA>
80.6

> <PUBCHEM_MONOISOTOPIC_WEIGHT>
278.108899

> <PUBCHEM_TOTAL_CHARGE>
0

> <PUBCHEM_HEAVY_ATOM_COUNT>
19

> <PUBCHEM_ATOM_DEF_STEREO_COUNT>
0

> <PUBCHEM_ATOM_UDEF_STEREO_COUNT>
0

> <PUBCHEM_BOND_DEF_STEREO_COUNT>
0

> <PUBCHEM_BOND_UDEF_STEREO_COUNT>
0

> <PUBCHEM_ISOTOPIC_ATOM_COUNT>
0

> <PUBCHEM_COMPONENT_COUNT>
1

> <PUBCHEM_CACTVS_TAUTO_COUNT>
1

> <PUBCHEM_COORDINATE_TYPE>
1
5
255

> <PUBCHEM_BONDANNOTATIONS>
10  11  8
10  13  8
10  16  8
13  15  8
13  17  8
14  15  8
16  18  8
17  19  8
18  19  8
9  11  8
9  14  8

$$$$

