4358
  -OEChem-06261200043D

 43 44  0     0  0  0  0  0  0999 V2000
   -1.5425   -1.8494    1.5635 O   0  0  0  0  0  0  0  0  0  0  0  0
   -2.6062   -0.7460   -0.1807 N   0  0  0  0  0  0  0  0  0  0  0  0
   -0.6137   -1.8267   -0.5626 N   0  0  0  0  0  0  0  0  0  0  0  0
   -3.7465   -0.2715    0.5714 C   0  0  0  0  0  0  0  0  0  0  0  0
   -4.9973   -0.1998   -0.3110 C   0  0  0  0  0  0  0  0  0  0  0  0
   -3.4500    1.0821    1.2258 C   0  0  0  0  0  0  0  0  0  0  0  0
   -4.9330    0.9424   -1.3250 C   0  0  0  0  0  0  0  0  0  0  0  0
   -3.3883    2.2221    0.2093 C   0  0  0  0  0  0  0  0  0  0  0  0
   -4.6484    2.2801   -0.6490 C   0  0  0  0  0  0  0  0  0  0  0  0
   -1.5842   -1.5053    0.3830 C   0  0  0  0  0  0  0  0  0  0  0  0
    0.5584   -2.6084   -0.2464 C   0  0  0  0  0  0  0  0  0  0  0  0
    1.7372   -1.7463    0.2009 C   0  0  0  0  0  0  0  0  0  0  0  0
    2.2243   -0.7406   -0.8509 C   0  0  0  0  0  0  0  0  0  0  0  0
    3.4112    0.0779   -0.4091 C   0  0  0  0  0  0  0  0  0  0  0  0
    3.2022    1.2834    0.2438 C   0  0  0  0  0  0  0  0  0  0  0  0
    4.6924   -0.3879   -0.6632 C   0  0  0  0  0  0  0  0  0  0  0  0
    4.3001    2.0408    0.6521 C   0  0  0  0  0  0  0  0  0  0  0  0
    5.7903    0.3694   -0.2548 C   0  0  0  0  0  0  0  0  0  0  0  0
    5.5941    1.5837    0.4028 C   0  0  0  0  0  0  0  0  0  0  0  0
   -3.9338   -1.0007    1.3695 H   0  0  0  0  0  0  0  0  0  0  0  0
   -5.1440   -1.1484   -0.8414 H   0  0  0  0  0  0  0  0  0  0  0  0
   -5.8770   -0.0537    0.3288 H   0  0  0  0  0  0  0  0  0  0  0  0
   -4.2392    1.3045    1.9555 H   0  0  0  0  0  0  0  0  0  0  0  0
   -2.5065    1.0423    1.7832 H   0  0  0  0  0  0  0  0  0  0  0  0
   -5.8844    1.0024   -1.8661 H   0  0  0  0  0  0  0  0  0  0  0  0
   -4.1595    0.7377   -2.0744 H   0  0  0  0  0  0  0  0  0  0  0  0
   -2.5110    2.0951   -0.4364 H   0  0  0  0  0  0  0  0  0  0  0  0
   -3.2587    3.1749    0.7351 H   0  0  0  0  0  0  0  0  0  0  0  0
   -5.5035    2.5600   -0.0214 H   0  0  0  0  0  0  0  0  0  0  0  0
   -4.5416    3.0622   -1.4089 H   0  0  0  0  0  0  0  0  0  0  0  0
   -2.5039   -0.4556   -1.1480 H   0  0  0  0  0  0  0  0  0  0  0  0
   -0.7290   -1.4928   -1.5144 H   0  0  0  0  0  0  0  0  0  0  0  0
    0.3072   -3.3265    0.5418 H   0  0  0  0  0  0  0  0  0  0  0  0
    0.8224   -3.1744   -1.1459 H   0  0  0  0  0  0  0  0  0  0  0  0
    2.5662   -2.4106    0.4759 H   0  0  0  0  0  0  0  0  0  0  0  0
    1.4609   -1.2036    1.1144 H   0  0  0  0  0  0  0  0  0  0  0  0
    1.4078   -0.0603   -1.1254 H   0  0  0  0  0  0  0  0  0  0  0  0
    2.4790   -1.2745   -1.7761 H   0  0  0  0  0  0  0  0  0  0  0  0
    2.1983    1.6467    0.4445 H   0  0  0  0  0  0  0  0  0  0  0  0
    4.8554   -1.3333   -1.1728 H   0  0  0  0  0  0  0  0  0  0  0  0
    4.1474    2.9860    1.1648 H   0  0  0  0  0  0  0  0  0  0  0  0
    6.7980    0.0133   -0.4484 H   0  0  0  0  0  0  0  0  0  0  0  0
    6.4490    2.1733    0.7210 H   0  0  0  0  0  0  0  0  0  0  0  0
  1 10  2  0  0  0  0
  2  4  1  0  0  0  0
  2 10  1  0  0  0  0
  2 31  1  0  0  0  0
  3 10  1  0  0  0  0
  3 11  1  0  0  0  0
  3 32  1  0  0  0  0
  4  5  1  0  0  0  0
  4  6  1  0  0  0  0
  4 20  1  0  0  0  0
  5  7  1  0  0  0  0
  5 21  1  0  0  0  0
  5 22  1  0  0  0  0
  6  8  1  0  0  0  0
  6 23  1  0  0  0  0
  6 24  1  0  0  0  0
  7  9  1  0  0  0  0
  7 25  1  0  0  0  0
  7 26  1  0  0  0  0
  8  9  1  0  0  0  0
  8 27  1  0  0  0  0
  8 28  1  0  0  0  0
  9 29  1  0  0  0  0
  9 30  1  0  0  0  0
 11 12  1  0  0  0  0
 11 33  1  0  0  0  0
 11 34  1  0  0  0  0
 12 13  1  0  0  0  0
 12 35  1  0  0  0  0
 12 36  1  0  0  0  0
 13 14  1  0  0  0  0
 13 37  1  0  0  0  0
 13 38  1  0  0  0  0
 14 15  2  0  0  0  0
 14 16  1  0  0  0  0
 15 17  1  0  0  0  0
 15 39  1  0  0  0  0
 16 18  2  0  0  0  0
 16 40  1  0  0  0  0
 17 19  2  0  0  0  0
 17 41  1  0  0  0  0
 18 19  1  0  0  0  0
 18 42  1  0  0  0  0
 19 43  1  0  0  0  0
M  END
> <PUBCHEM_COMPOUND_CID>
4358

> <PUBCHEM_CONFORMER_RMSD>
0.8

> <PUBCHEM_CONFORMER_DIVERSEORDER>
1
63
243
111
83
35
245
140
136
116
28
167
112
201
208
80
103
228
42
200
68
180
250
97
161
115
221
255
134
145
227
16
166
64
114
10
206
30
102
242
47
22
48
82
93
138
241
148
240
257
79
231
87
61
141
220
54
144
43
158
122
186
66
203
236
258
168
190
188
215
154
7
70
94
127
234
88
204
53
107
196
187
172
101
143
171
233
37
147
92
73
239
163
51
137
216
67
214
58
100
27
81
261
262
230
23
185
75
165
205
89
210
128
52
202
184
117
146
106
189
150
46
177
104
33
192
160
124
4
212
152
225
3
72
263
175
183
235
6
105
169
207
109
139
18
71
78
123
142
178
191
17
39
159
223
164
194
149
38
213
119
253
65
252
91
49
55
29
113
244
226
224
174
238
259
254
40
181
41
57
62
84
135
5
182
13
77
60
121
21
25
131
132
229
118
219
162
251
34
19
156
76
260
44
9
98
153
99
36
195
129
170
74
96
237
14
110
247
248
8
209
193
199
86
125
56
45
232
151
133
15
218
108
157
26
197
173
126
85
95
256
217
31
198
246
50
176
59
120
20
130
179
11
249
155
2
222
12
69
90
211
32
24

> <PUBCHEM_MMFF94_PARTIAL_CHARGES>
20
1 -0.57
10 0.69
11 0.3
13 0.14
14 -0.14
15 -0.15
16 -0.15
17 -0.15
18 -0.15
19 -0.15
2 -0.73
3 -0.73
31 0.37
32 0.37
39 0.15
4 0.3
40 0.15
41 0.15
42 0.15
43 0.15

> <PUBCHEM_EFFECTIVE_ROTOR_COUNT>
8.2

> <PUBCHEM_PHARMACOPHORE_FEATURES>
5
1 1 acceptor
1 2 donor
1 3 donor
6 14 15 16 17 18 19 rings
6 4 5 6 7 8 9 rings

> <PUBCHEM_HEAVY_ATOM_COUNT>
19

> <PUBCHEM_ATOM_DEF_STEREO_COUNT>
0

> <PUBCHEM_ATOM_UDEF_STEREO_COUNT>
0

> <PUBCHEM_BOND_DEF_STEREO_COUNT>
0

> <PUBCHEM_BOND_UDEF_STEREO_COUNT>
0

> <PUBCHEM_ISOTOPIC_ATOM_COUNT>
0

> <PUBCHEM_COMPONENT_COUNT>
1

> <PUBCHEM_CACTVS_TAUTO_COUNT>
3

> <PUBCHEM_CONFORMER_ID>
0000110600000001

> <PUBCHEM_MMFF94_ENERGY>
21.7179

> <PUBCHEM_FEATURE_SELFOVERLAP>
25.423

> <PUBCHEM_SHAPE_FINGERPRINT>
10498660 4 18408885169878006401
10968037 57 9079106761827321253
11089746 13 18408327692134926390
12596602 18 16343414008357944704
12633257 1 16128655215345493654
12769317 202 18260270776084423570
13103583 49 14189569754252273439
13402501 40 18409731759324352148
13941219 33 10591769809209133981
14123255 352 18411982468215733644
14123255 52 18409167705685414718
1420 369 9583517624720735934
14251764 30 7925625622607818133
14251764 38 18335695010107504260
14739800 52 18271540752867621922
14848178 96 18408885152750852208
15003188 100 18334298630239593044
17780758 139 11743843568765489583
1813 80 6122495809397298147
21033648 29 17202764933686156767
21095088 737 18259701229082562249
21279426 13 18335691781030199550
21315764 268 18411704249135969812
21401589 2 18271516564007423707
22950370 63 9295283962829677198
23559900 14 18122348149166235307
2838139 119 18336270114685874596
312425 83 17024297737904034189
341906 21 18130784546923582350
351380 180 18334011679353380236
351380 3 8646772187872516028
5104073 3 18130219480100027987
6328613 192 18270389496418596276
9981440 41 18272928328269101379

> <PUBCHEM_SHAPE_MULTIPOLES>
375.18
14.5
2.74
1.07
4.9
0.17
-0.09
-9.38
1.71
-0.51
-0.24
-0.77
-0.01
1.19

> <PUBCHEM_SHAPE_SELFOVERLAP>
760.552

> <PUBCHEM_SHAPE_VOLUME>
216.5

> <PUBCHEM_COORDINATE_TYPE>
2
5
10

$$$$

