13862
  -OEChem-06241222403D

 17 17  0     0  0  0  0  0  0999 V2000
   -0.0256    1.3346   -0.0011 O   0  0  0  0  0  0  0  0  0  0  0  0
    0.0520   -2.7063   -0.0001 O   0  0  0  0  0  0  0  0  0  0  0  0
   -1.2062    0.6091   -0.0002 C   0  0  0  0  0  0  0  0  0  0  0  0
    1.1818    0.6549   -0.0002 C   0  0  0  0  0  0  0  0  0  0  0  0
   -1.2437   -0.7307    0.0006 C   0  0  0  0  0  0  0  0  0  0  0  0
    1.2709   -0.6824    0.0002 C   0  0  0  0  0  0  0  0  0  0  0  0
    0.0284   -1.4814   -0.0003 C   0  0  0  0  0  0  0  0  0  0  0  0
   -2.4387    1.4548    0.0004 C   0  0  0  0  0  0  0  0  0  0  0  0
    2.3810    1.5473    0.0006 C   0  0  0  0  0  0  0  0  0  0  0  0
   -2.1709   -1.2911    0.0014 H   0  0  0  0  0  0  0  0  0  0  0  0
    2.2189   -1.2068    0.0008 H   0  0  0  0  0  0  0  0  0  0  0  0
   -2.4570    2.0953    0.8880 H   0  0  0  0  0  0  0  0  0  0  0  0
   -3.3526    0.8519    0.0015 H   0  0  0  0  0  0  0  0  0  0  0  0
   -2.4585    2.0945   -0.8878 H   0  0  0  0  0  0  0  0  0  0  0  0
    3.3175    0.9800    0.0015 H   0  0  0  0  0  0  0  0  0  0  0  0
    2.3748    2.1879    0.8884 H   0  0  0  0  0  0  0  0  0  0  0  0
    2.3761    2.1876   -0.8873 H   0  0  0  0  0  0  0  0  0  0  0  0
  1  3  1  0  0  0  0
  1  4  1  0  0  0  0
  2  7  2  0  0  0  0
  3  5  2  0  0  0  0
  3  8  1  0  0  0  0
  4  6  2  0  0  0  0
  4  9  1  0  0  0  0
  5  7  1  0  0  0  0
  5 10  1  0  0  0  0
  6  7  1  0  0  0  0
  6 11  1  0  0  0  0
  8 12  1  0  0  0  0
  8 13  1  0  0  0  0
  8 14  1  0  0  0  0
  9 15  1  0  0  0  0
  9 16  1  0  0  0  0
  9 17  1  0  0  0  0
M  END
> <PUBCHEM_COMPOUND_CID>
13862

> <PUBCHEM_CONFORMER_RMSD>
0.4

> <PUBCHEM_CONFORMER_DIVERSEORDER>
1

> <PUBCHEM_MMFF94_PARTIAL_CHARGES>
11
1 -0.15
10 0.15
11 0.15
2 -0.57
3 -0.06
4 -0.06
5 -0.14
6 -0.14
7 0.54
8 0.14
9 0.14

> <PUBCHEM_EFFECTIVE_ROTOR_COUNT>
0

> <PUBCHEM_PHARMACOPHORE_FEATURES>
3
1 1 acceptor
1 2 acceptor
6 1 3 4 5 6 7 rings

> <PUBCHEM_HEAVY_ATOM_COUNT>
9

> <PUBCHEM_ATOM_DEF_STEREO_COUNT>
0

> <PUBCHEM_ATOM_UDEF_STEREO_COUNT>
0

> <PUBCHEM_BOND_DEF_STEREO_COUNT>
0

> <PUBCHEM_BOND_UDEF_STEREO_COUNT>
0

> <PUBCHEM_ISOTOPIC_ATOM_COUNT>
0

> <PUBCHEM_COMPONENT_COUNT>
1

> <PUBCHEM_CACTVS_TAUTO_COUNT>
5

> <PUBCHEM_CONFORMER_ID>
0000362600000001

> <PUBCHEM_MMFF94_ENERGY>
12.9322

> <PUBCHEM_FEATURE_SELFOVERLAP>
15.223

> <PUBCHEM_SHAPE_FINGERPRINT>
12423570 1 9653853280470429709
12716758 59 18264200323394662388
16945 1 18122344845981982149
18185500 45 17616815873819870151
21040471 1 18410855421642482048
23552423 10 18193557989668231533
23552449 1 17689156708108278376
241688 4 16897364811002688608
2748010 2 18411412908239046077
29004967 10 17836360828120851915

> <PUBCHEM_SHAPE_MULTIPOLES>
173.48
2.69
2.37
0.6
0
1.29
0
-1.94
0
0
0
0
-0.02
0

> <PUBCHEM_SHAPE_SELFOVERLAP>
352.605

> <PUBCHEM_SHAPE_VOLUME>
101.7

> <PUBCHEM_COORDINATE_TYPE>
2
5
10

$$$$

