14071
  -OEChem-06241222413D

 47 46  0     0  0  0  0  0  0999 V2000
   -6.3958    0.4903    0.0461 O   0  0  0  0  0  0  0  0  0  0  0  0
   -7.8128   -1.3343    0.0446 O   0  0  0  0  0  0  0  0  0  0  0  0
    2.3404   -0.3612   -0.0804 C   0  0  0  0  0  0  0  0  0  0  0  0
    1.0467    0.4579   -0.0934 C   0  0  0  0  0  0  0  0  0  0  0  0
    3.6062    0.5001   -0.0657 C   0  0  0  0  0  0  0  0  0  0  0  0
   -0.2188   -0.4025   -0.0831 C   0  0  0  0  0  0  0  0  0  0  0  0
    4.8653   -0.3703   -0.0411 C   0  0  0  0  0  0  0  0  0  0  0  0
   -1.4788    0.4661   -0.0652 C   0  0  0  0  0  0  0  0  0  0  0  0
    6.1644    0.4396    0.0047 C   0  0  0  0  0  0  0  0  0  0  0  0
   -2.7457   -0.3905   -0.0887 C   0  0  0  0  0  0  0  0  0  0  0  0
    7.4585   -0.3795    0.0522 C   0  0  0  0  0  0  0  0  0  0  0  0
   -4.0027    0.4752   -0.0373 C   0  0  0  0  0  0  0  0  0  0  0  0
    8.7563    0.4315    0.0417 C   0  0  0  0  0  0  0  0  0  0  0  0
   -5.2675   -0.3713   -0.0169 C   0  0  0  0  0  0  0  0  0  0  0  0
   10.0067   -0.4239    0.1731 C   0  0  0  0  0  0  0  0  0  0  0  0
   -7.6162   -0.1269    0.0713 C   0  0  0  0  0  0  0  0  0  0  0  0
   -8.7061    0.8996    0.1381 C   0  0  0  0  0  0  0  0  0  0  0  0
    2.3578   -1.0158   -0.9606 H   0  0  0  0  0  0  0  0  0  0  0  0
    2.3391   -1.0154    0.8004 H   0  0  0  0  0  0  0  0  0  0  0  0
    1.0399    1.1023   -0.9814 H   0  0  0  0  0  0  0  0  0  0  0  0
    1.0377    1.1224    0.7796 H   0  0  0  0  0  0  0  0  0  0  0  0
    3.5943    1.1543    0.8142 H   0  0  0  0  0  0  0  0  0  0  0  0
    3.6226    1.1469   -0.9509 H   0  0  0  0  0  0  0  0  0  0  0  0
   -0.2105   -1.0573    0.7965 H   0  0  0  0  0  0  0  0  0  0  0  0
   -0.2271   -1.0493   -0.9687 H   0  0  0  0  0  0  0  0  0  0  0  0
    4.8311   -1.0330    0.8324 H   0  0  0  0  0  0  0  0  0  0  0  0
    4.8786   -1.0160   -0.9278 H   0  0  0  0  0  0  0  0  0  0  0  0
   -1.4761    1.0960    0.8328 H   0  0  0  0  0  0  0  0  0  0  0  0
   -1.4758    1.1384   -0.9318 H   0  0  0  0  0  0  0  0  0  0  0  0
    6.1388    1.1002    0.8806 H   0  0  0  0  0  0  0  0  0  0  0  0
    6.1990    1.0949   -0.8749 H   0  0  0  0  0  0  0  0  0  0  0  0
   -2.7384   -1.0771    0.7667 H   0  0  0  0  0  0  0  0  0  0  0  0
   -2.7586   -1.0054   -0.9967 H   0  0  0  0  0  0  0  0  0  0  0  0
    7.4692   -1.0692   -0.8012 H   0  0  0  0  0  0  0  0  0  0  0  0
    7.4385   -1.0048    0.9538 H   0  0  0  0  0  0  0  0  0  0  0  0
   -3.9845    1.1186    0.8514 H   0  0  0  0  0  0  0  0  0  0  0  0
   -4.0320    1.1544   -0.8985 H   0  0  0  0  0  0  0  0  0  0  0  0
    8.8137    1.0098   -0.8880 H   0  0  0  0  0  0  0  0  0  0  0  0
    8.7362    1.1550    0.8652 H   0  0  0  0  0  0  0  0  0  0  0  0
   -5.3244   -0.9822   -0.9256 H   0  0  0  0  0  0  0  0  0  0  0  0
   -5.2637   -1.0308    0.8589 H   0  0  0  0  0  0  0  0  0  0  0  0
    9.9995   -0.9843    1.1134 H   0  0  0  0  0  0  0  0  0  0  0  0
   10.9017    0.2057    0.1582 H   0  0  0  0  0  0  0  0  0  0  0  0
   10.0784   -1.1390   -0.6525 H   0  0  0  0  0  0  0  0  0  0  0  0
   -8.6026    1.4907    1.0514 H   0  0  0  0  0  0  0  0  0  0  0  0
   -9.6774    0.3969    0.1562 H   0  0  0  0  0  0  0  0  0  0  0  0
   -8.6635    1.5430   -0.7443 H   0  0  0  0  0  0  0  0  0  0  0  0
  1 14  1  0  0  0  0
  1 16  1  0  0  0  0
  2 16  2  0  0  0  0
  3  4  1  0  0  0  0
  3  5  1  0  0  0  0
  3 18  1  0  0  0  0
  3 19  1  0  0  0  0
  4  6  1  0  0  0  0
  4 20  1  0  0  0  0
  4 21  1  0  0  0  0
  5  7  1  0  0  0  0
  5 22  1  0  0  0  0
  5 23  1  0  0  0  0
  6  8  1  0  0  0  0
  6 24  1  0  0  0  0
  6 25  1  0  0  0  0
  7  9  1  0  0  0  0
  7 26  1  0  0  0  0
  7 27  1  0  0  0  0
  8 10  1  0  0  0  0
  8 28  1  0  0  0  0
  8 29  1  0  0  0  0
  9 11  1  0  0  0  0
  9 30  1  0  0  0  0
  9 31  1  0  0  0  0
 10 12  1  0  0  0  0
 10 32  1  0  0  0  0
 10 33  1  0  0  0  0
 11 13  1  0  0  0  0
 11 34  1  0  0  0  0
 11 35  1  0  0  0  0
 12 14  1  0  0  0  0
 12 36  1  0  0  0  0
 12 37  1  0  0  0  0
 13 15  1  0  0  0  0
 13 38  1  0  0  0  0
 13 39  1  0  0  0  0
 14 40  1  0  0  0  0
 14 41  1  0  0  0  0
 15 42  1  0  0  0  0
 15 43  1  0  0  0  0
 15 44  1  0  0  0  0
 16 17  1  0  0  0  0
 17 45  1  0  0  0  0
 17 46  1  0  0  0  0
 17 47  1  0  0  0  0
M  END
> <PUBCHEM_COMPOUND_CID>
14071

> <PUBCHEM_CONFORMER_RMSD>
1.2

> <PUBCHEM_CONFORMER_DIVERSEORDER>
1
68
27
67
35
91
119
71
64
63
122
3
23
130
120
109
41
39
126
38
32
52
112
12
29
115
59
95
51
6
60
97
17
45
98
30
61
93
46
76
42
4
69
19
48
57
111
21
25
7
40
107
9
88
101
2
58
94
89
55
75
49
13
85
106
100
56
116
43
22
125
74
72
105
121
86
79
78
102
103
10
70
8
36
128
16
114
81
133
44
73
82
124
110
108
77
18
28
84
50
117
123
37
127
26
132
62
87
15
47
118
54
14
129
96
24
31
53
20
90
80
66
83
113
104
33
5
92
11
65
34
99
131

> <PUBCHEM_MMFF94_PARTIAL_CHARGES>
5
1 -0.43
14 0.28
16 0.66
17 0.06
2 -0.57

> <PUBCHEM_EFFECTIVE_ROTOR_COUNT>
13

> <PUBCHEM_PHARMACOPHORE_FEATURES>
2
1 15 hydrophobe
1 2 acceptor

> <PUBCHEM_HEAVY_ATOM_COUNT>
17

> <PUBCHEM_ATOM_DEF_STEREO_COUNT>
0

> <PUBCHEM_ATOM_UDEF_STEREO_COUNT>
0

> <PUBCHEM_BOND_DEF_STEREO_COUNT>
0

> <PUBCHEM_BOND_UDEF_STEREO_COUNT>
0

> <PUBCHEM_ISOTOPIC_ATOM_COUNT>
0

> <PUBCHEM_COMPONENT_COUNT>
1

> <PUBCHEM_CACTVS_TAUTO_COUNT>
1

> <PUBCHEM_CONFORMER_ID>
000036F700000001

> <PUBCHEM_MMFF94_ENERGY>
1.4197

> <PUBCHEM_FEATURE_SELFOVERLAP>
10.148

> <PUBCHEM_SHAPE_FINGERPRINT>
11315181 36 18040712568352883465
14123256 10 18410855468718096384
14251764 18 17561368391494553777
14251764 46 18410855464423129091
16120349 18 17703506602726263060
22224240 67 17989208131460219994
232437 2 18343865524506077482
23521765 1 18335420166374987244
23581129 1 18411981364329978212
33684 2 18410856563934756864
67123 10 18410855451538227204
8209 1 18410573989451706188

> <PUBCHEM_SHAPE_MULTIPOLES>
338.11
35.48
0.88
0.61
13.07
0.05
0
0.7
-2.31
-0.77
-0.01
0.08
-0.01
-0.08

> <PUBCHEM_SHAPE_SELFOVERLAP>
612.391

> <PUBCHEM_SHAPE_VOLUME>
216.6

> <PUBCHEM_COORDINATE_TYPE>
2
5
10

$$$$

