6603
  -OEChem-06261201243D

 32 32  0     0  0  0  0  0  0999 V2000
   -0.0001    0.7809   -0.3441 N   0  0  0  0  0  0  0  0  0  0  0  0
    1.2809    0.0839   -0.0299 C   0  0  0  0  0  0  0  0  0  0  0  0
   -1.2808    0.0838   -0.0298 C   0  0  0  0  0  0  0  0  0  0  0  0
    1.2278   -1.4200   -0.4031 C   0  0  0  0  0  0  0  0  0  0  0  0
   -1.2275   -1.4201   -0.4030 C   0  0  0  0  0  0  0  0  0  0  0  0
    0.0002   -2.1246    0.1394 C   0  0  0  0  0  0  0  0  0  0  0  0
    1.7373    0.2239    1.4406 C   0  0  0  0  0  0  0  0  0  0  0  0
    2.4138    0.6816   -0.9099 C   0  0  0  0  0  0  0  0  0  0  0  0
   -2.4140    0.6812   -0.9100 C   0  0  0  0  0  0  0  0  0  0  0  0
   -1.7373    0.2239    1.4407 C   0  0  0  0  0  0  0  0  0  0  0  0
   -0.0002    2.2056    0.0091 C   0  0  0  0  0  0  0  0  0  0  0  0
    2.1257   -1.9375   -0.0415 H   0  0  0  0  0  0  0  0  0  0  0  0
    1.2344   -1.5310   -1.4968 H   0  0  0  0  0  0  0  0  0  0  0  0
   -1.2343   -1.5311   -1.4967 H   0  0  0  0  0  0  0  0  0  0  0  0
   -2.1254   -1.9378   -0.0413 H   0  0  0  0  0  0  0  0  0  0  0  0
    0.0002   -3.1701   -0.1894 H   0  0  0  0  0  0  0  0  0  0  0  0
    0.0002   -2.1376    1.2338 H   0  0  0  0  0  0  0  0  0  0  0  0
    1.0393   -0.2278    2.1465 H   0  0  0  0  0  0  0  0  0  0  0  0
    2.7026   -0.2747    1.5934 H   0  0  0  0  0  0  0  0  0  0  0  0
    1.8808    1.2702    1.7302 H   0  0  0  0  0  0  0  0  0  0  0  0
    3.3238    0.0722   -0.8448 H   0  0  0  0  0  0  0  0  0  0  0  0
    2.1204    0.7162   -1.9658 H   0  0  0  0  0  0  0  0  0  0  0  0
    2.6964    1.6936   -0.6026 H   0  0  0  0  0  0  0  0  0  0  0  0
   -2.6967    1.6931   -0.6026 H   0  0  0  0  0  0  0  0  0  0  0  0
   -2.1205    0.7156   -1.9659 H   0  0  0  0  0  0  0  0  0  0  0  0
   -3.3238    0.0716   -0.8448 H   0  0  0  0  0  0  0  0  0  0  0  0
   -2.7025   -0.2749    1.5936 H   0  0  0  0  0  0  0  0  0  0  0  0
   -1.0392   -0.2275    2.1467 H   0  0  0  0  0  0  0  0  0  0  0  0
   -1.8810    1.2702    1.7301 H   0  0  0  0  0  0  0  0  0  0  0  0
    0.8620    2.7311   -0.4103 H   0  0  0  0  0  0  0  0  0  0  0  0
    0.0000    2.3716    1.0906 H   0  0  0  0  0  0  0  0  0  0  0  0
   -0.8627    2.7310   -0.4099 H   0  0  0  0  0  0  0  0  0  0  0  0
  1  2  1  0  0  0  0
  1  3  1  0  0  0  0
  1 11  1  0  0  0  0
  2  4  1  0  0  0  0
  2  7  1  0  0  0  0
  2  8  1  0  0  0  0
  3  5  1  0  0  0  0
  3  9  1  0  0  0  0
  3 10  1  0  0  0  0
  4  6  1  0  0  0  0
  4 12  1  0  0  0  0
  4 13  1  0  0  0  0
  5  6  1  0  0  0  0
  5 14  1  0  0  0  0
  5 15  1  0  0  0  0
  6 16  1  0  0  0  0
  6 17  1  0  0  0  0
  7 18  1  0  0  0  0
  7 19  1  0  0  0  0
  7 20  1  0  0  0  0
  8 21  1  0  0  0  0
  8 22  1  0  0  0  0
  8 23  1  0  0  0  0
  9 24  1  0  0  0  0
  9 25  1  0  0  0  0
  9 26  1  0  0  0  0
 10 27  1  0  0  0  0
 10 28  1  0  0  0  0
 10 29  1  0  0  0  0
 11 30  1  0  0  0  0
 11 31  1  0  0  0  0
 11 32  1  0  0  0  0
M  END
> <PUBCHEM_COMPOUND_CID>
6603

> <PUBCHEM_CONFORMER_RMSD>
0.4

> <PUBCHEM_CONFORMER_DIVERSEORDER>
2
1
4
3

> <PUBCHEM_MMFF94_PARTIAL_CHARGES>
4
1 -0.81
11 0.27
2 0.27
3 0.27

> <PUBCHEM_EFFECTIVE_ROTOR_COUNT>
1.2

> <PUBCHEM_PHARMACOPHORE_FEATURES>
4
1 1 cation
3 2 7 8 hydrophobe
3 3 9 10 hydrophobe
6 1 2 3 4 5 6 rings

> <PUBCHEM_HEAVY_ATOM_COUNT>
11

> <PUBCHEM_ATOM_DEF_STEREO_COUNT>
0

> <PUBCHEM_ATOM_UDEF_STEREO_COUNT>
0

> <PUBCHEM_BOND_DEF_STEREO_COUNT>
0

> <PUBCHEM_BOND_UDEF_STEREO_COUNT>
0

> <PUBCHEM_ISOTOPIC_ATOM_COUNT>
0

> <PUBCHEM_COMPONENT_COUNT>
1

> <PUBCHEM_CACTVS_TAUTO_COUNT>
1

> <PUBCHEM_CONFORMER_ID>
000019CB00000002

> <PUBCHEM_MMFF94_ENERGY>
27.8146

> <PUBCHEM_FEATURE_SELFOVERLAP>
20.297

> <PUBCHEM_SHAPE_FINGERPRINT>
12423570 1 15746687826271829171
13024252 1 15696306249556367228
14817 1 14351721584246878011
15310529 11 17131834222543425461
16945 1 17603585226922156338
18185500 45 18408608062751095495
21040471 1 18410582776991853590
21922407 69 16414078465096530738
23235685 24 18335973199343945641
23552423 10 18053102014749024221
241688 4 18335701680006696019
2748010 2 18409727361203760862
29004967 10 18271791454287715537
5084963 1 18260829297541525199
528886 8 18337655477935908168

> <PUBCHEM_SHAPE_MULTIPOLES>
221.39
2.84
2
1.19
0
0.28
0.39
-0.52
-0.32
0
-0.17
0
-0.16
0

> <PUBCHEM_SHAPE_SELFOVERLAP>
429.484

> <PUBCHEM_SHAPE_VOLUME>
137.3

> <PUBCHEM_COORDINATE_TYPE>
2
5
10

$$$$

