11639
  -OEChem-06261205562D

 10  8  0     0  0  0  0  0  0999 V2000
    1.1530    0.0000    0.0000 Cl  0  5  0  0  0  0  0  0  0  0  0  0
    1.4030    3.5369    0.0000 O   0  0  0  0  0  0  0  0  0  0  0  0
    0.5369    3.0369    0.0000 N   0  3  0  0  0  0  0  0  0  0  0  0
    2.2690    3.0369    0.0000 C   0  0  0  0  0  0  0  0  0  0  0  0
    0.0000    2.7269    0.0000 H   0  0  0  0  0  0  0  0  0  0  0  0
    0.2269    3.5739    0.0000 H   0  0  0  0  0  0  0  0  0  0  0  0
    0.8469    2.5000    0.0000 H   0  0  0  0  0  0  0  0  0  0  0  0
    1.9590    2.5000    0.0000 H   0  0  0  0  0  0  0  0  0  0  0  0
    2.8059    2.7269    0.0000 H   0  0  0  0  0  0  0  0  0  0  0  0
    2.5790    3.5739    0.0000 H   0  0  0  0  0  0  0  0  0  0  0  0
  2  3  1  0  0  0  0
  2  4  1  0  0  0  0
  3  5  1  0  0  0  0
  3  6  1  0  0  0  0
  3  7  1  0  0  0  0
  4  8  1  0  0  0  0
  4  9  1  0  0  0  0
  4 10  1  0  0  0  0
M  CHG  2   1  -1   3   1
M  END
> <PUBCHEM_COMPOUND_CID>
11639

> <PUBCHEM_COMPOUND_CANONICALIZED>
1

> <PUBCHEM_CACTVS_COMPLEXITY>
4.8

> <PUBCHEM_CACTVS_HBOND_ACCEPTOR>
2

> <PUBCHEM_CACTVS_HBOND_DONOR>
1

> <PUBCHEM_CACTVS_ROTATABLE_BOND>
0

> <PUBCHEM_CACTVS_SUBSKEYS>
AAADcYACIAAEAAAAAAAAAAAAAAAAAAAAAAAAAAAAAAAAAAAAAAAAEgAUAAAAAAAAAAICAAAAAAAAAAAAAAAAAAAAAAAAAAAAAAAAAAAAAAAAAAAAAAAAAAAAAAAAAAAAAAAAAAAAAAAAAAAAAAAAAAAAAA==

> <PUBCHEM_IUPAC_OPENEYE_NAME>
methoxyammonium chloride

> <PUBCHEM_IUPAC_CAS_NAME>
methoxyammonium chloride

> <PUBCHEM_IUPAC_NAME>
methoxyazanium chloride

> <PUBCHEM_IUPAC_SYSTEMATIC_NAME>
methoxyazanium chloride

> <PUBCHEM_IUPAC_TRADITIONAL_NAME>
methoxyammonium chloride

> <PUBCHEM_IUPAC_INCHI>
InChI=1S/CH6NO.ClH/c1-3-2;/h1-2H3;1H/q+1;/p-1

> <PUBCHEM_IUPAC_INCHIKEY>
SPUACDWLOLSOQO-UHFFFAOYSA-M

> <PUBCHEM_EXACT_MASS>
83.013791

> <PUBCHEM_MOLECULAR_FORMULA>
CH6ClNO

> <PUBCHEM_MOLECULAR_WEIGHT>
83.51744

> <PUBCHEM_OPENEYE_CAN_SMILES>
CO[NH3+].[Cl-]

> <PUBCHEM_OPENEYE_ISO_SMILES>
CO[NH3+].[Cl-]

> <PUBCHEM_CACTVS_TPSA>
36.9

> <PUBCHEM_MONOISOTOPIC_WEIGHT>
83.013791

> <PUBCHEM_TOTAL_CHARGE>
0

> <PUBCHEM_HEAVY_ATOM_COUNT>
4

> <PUBCHEM_ATOM_DEF_STEREO_COUNT>
0

> <PUBCHEM_ATOM_UDEF_STEREO_COUNT>
0

> <PUBCHEM_BOND_DEF_STEREO_COUNT>
0

> <PUBCHEM_BOND_UDEF_STEREO_COUNT>
0

> <PUBCHEM_ISOTOPIC_ATOM_COUNT>
0

> <PUBCHEM_COMPONENT_COUNT>
2

> <PUBCHEM_CACTVS_TAUTO_COUNT>
1

> <PUBCHEM_COORDINATE_TYPE>
1
5
255

$$$$

