4152
  -OEChem-06251223552D

 39 40  0     0  0  0  0  0  0999 V2000
    5.1350    2.9050    0.0000 S   0  0  0  0  0  0  0  0  0  0  0  0
    4.6350    3.7710    0.0000 O   0  0  0  0  0  0  0  0  0  0  0  0
    5.6350    2.0390    0.0000 O   0  0  0  0  0  0  0  0  0  0  0  0
    4.2690   -3.5950    0.0000 O   0  0  0  0  0  0  0  0  0  0  0  0
    2.5369   -4.5950    0.0000 O   0  0  0  0  0  0  0  0  0  0  0  0
    4.2690    2.4050    0.0000 N   0  0  0  0  0  0  0  0  0  0  0  0
    2.5369   -3.5950    0.0000 N   0  0  0  0  0  0  0  0  0  0  0  0
    4.2690    1.4050    0.0000 C   0  0  0  0  0  0  0  0  0  0  0  0
    6.0010    3.4050    0.0000 C   0  0  0  0  0  0  0  0  0  0  0  0
    4.2690   -0.5950    0.0000 C   0  0  0  0  0  0  0  0  0  0  0  0
    3.4030    0.9050    0.0000 C   0  0  0  0  0  0  0  0  0  0  0  0
    5.1350    0.9050    0.0000 C   0  0  0  0  0  0  0  0  0  0  0  0
    3.4030   -0.0950    0.0000 C   0  0  0  0  0  0  0  0  0  0  0  0
    5.1350   -0.0950    0.0000 C   0  0  0  0  0  0  0  0  0  0  0  0
    6.8671    2.9050    0.0000 C   0  0  0  0  0  0  0  0  0  0  0  0
    6.0010    4.4050    0.0000 C   0  0  0  0  0  0  0  0  0  0  0  0
    4.2690   -1.5950    0.0000 C   0  0  0  0  0  0  0  0  0  0  0  0
    3.4030   -2.0950    0.0000 C   0  0  0  0  0  0  0  0  0  0  0  0
    7.7331    3.4050    0.0000 C   0  0  0  0  0  0  0  0  0  0  0  0
    6.8671    4.9050    0.0000 C   0  0  0  0  0  0  0  0  0  0  0  0
    7.7331    4.4050    0.0000 C   0  0  0  0  0  0  0  0  0  0  0  0
    2.5369   -1.5950    0.0000 C   0  0  0  0  0  0  0  0  0  0  0  0
    3.4030   -3.0950    0.0000 C   0  0  0  0  0  0  0  0  0  0  0  0
    3.7320    2.7150    0.0000 H   0  0  0  0  0  0  0  0  0  0  0  0
    2.8660    1.2150    0.0000 H   0  0  0  0  0  0  0  0  0  0  0  0
    5.6720    1.2150    0.0000 H   0  0  0  0  0  0  0  0  0  0  0  0
    2.8660   -0.4050    0.0000 H   0  0  0  0  0  0  0  0  0  0  0  0
    5.6720   -0.4050    0.0000 H   0  0  0  0  0  0  0  0  0  0  0  0
    6.8671    2.2850    0.0000 H   0  0  0  0  0  0  0  0  0  0  0  0
    5.4641    4.7150    0.0000 H   0  0  0  0  0  0  0  0  0  0  0  0
    4.8059   -1.9050    0.0000 H   0  0  0  0  0  0  0  0  0  0  0  0
    8.2700    3.0950    0.0000 H   0  0  0  0  0  0  0  0  0  0  0  0
    6.8671    5.5250    0.0000 H   0  0  0  0  0  0  0  0  0  0  0  0
    8.2700    4.7150    0.0000 H   0  0  0  0  0  0  0  0  0  0  0  0
    2.8469   -1.0581    0.0000 H   0  0  0  0  0  0  0  0  0  0  0  0
    2.0000   -1.2850    0.0000 H   0  0  0  0  0  0  0  0  0  0  0  0
    2.2269   -2.1319    0.0000 H   0  0  0  0  0  0  0  0  0  0  0  0
    2.0000   -3.2850    0.0000 H   0  0  0  0  0  0  0  0  0  0  0  0
    2.0000   -4.9050    0.0000 H   0  0  0  0  0  0  0  0  0  0  0  0
  1  2  2  0  0  0  0
  1  3  2  0  0  0  0
  1  6  1  0  0  0  0
  1  9  1  0  0  0  0
  4 23  2  0  0  0  0
  5  7  1  0  0  0  0
  5 39  1  0  0  0  0
  6  8  1  0  0  0  0
  6 24  1  0  0  0  0
  7 23  1  0  0  0  0
  7 38  1  0  0  0  0
  8 11  2  0  0  0  0
  8 12  1  0  0  0  0
  9 15  2  0  0  0  0
  9 16  1  0  0  0  0
 10 13  2  0  0  0  0
 10 14  1  0  0  0  0
 10 17  1  0  0  0  0
 11 13  1  0  0  0  0
 11 25  1  0  0  0  0
 12 14  2  0  0  0  0
 12 26  1  0  0  0  0
 13 27  1  0  0  0  0
 14 28  1  0  0  0  0
 15 19  1  0  0  0  0
 15 29  1  0  0  0  0
 16 20  2  0  0  0  0
 16 30  1  0  0  0  0
 17 18  2  3  0  0  0
 17 31  1  0  0  0  0
 18 22  1  0  0  0  0
 18 23  1  0  0  0  0
 19 21  2  0  0  0  0
 19 32  1  0  0  0  0
 20 21  1  0  0  0  0
 20 33  1  0  0  0  0
 21 34  1  0  0  0  0
 22 35  1  0  0  0  0
 22 36  1  0  0  0  0
 22 37  1  0  0  0  0
M  END
> <PUBCHEM_COMPOUND_CID>
4152

> <PUBCHEM_COMPOUND_CANONICALIZED>
1

> <PUBCHEM_CACTVS_COMPLEXITY>
525

> <PUBCHEM_CACTVS_HBOND_ACCEPTOR>
5

> <PUBCHEM_CACTVS_HBOND_DONOR>
3

> <PUBCHEM_CACTVS_ROTATABLE_BOND>
5

> <PUBCHEM_CACTVS_SUBSKEYS>
AAADceB7OABAAAAAAAAAAAAAAAAAAAAAAAAwYAAAAAAAAAABQAAAHgQUSAAADAiB2AAywYBQAAKIAiVSUHDCABAgAgAoiBkAZMgIICKAkZGAIABgkAAIyYcQgAAOCAAAAAAAAAAQAAAAAAAAAAAAAAAAAA==

> <PUBCHEM_IUPAC_OPENEYE_NAME>
3-[4-(benzenesulfonamido)phenyl]-2-methyl-prop-2-enehydroxamic acid

> <PUBCHEM_IUPAC_CAS_NAME>
3-[4-(benzenesulfonamido)phenyl]-N-hydroxy-2-methyl-2-propenamide

> <PUBCHEM_IUPAC_NAME>
3-[4-(benzenesulfonamido)phenyl]-N-hydroxy-2-methylprop-2-enamide

> <PUBCHEM_IUPAC_SYSTEMATIC_NAME>
2-methyl-N-oxidanyl-3-[4-(phenylsulfonylamino)phenyl]prop-2-enamide

> <PUBCHEM_IUPAC_TRADITIONAL_NAME>
3-[4-(benzenesulfonamido)phenyl]-2-methyl-prop-2-enehydroxamic acid

> <PUBCHEM_IUPAC_INCHI>
InChI=1S/C16H16N2O4S/c1-12(16(19)17-20)11-13-7-9-14(10-8-13)18-23(21,22)15-5-3-2-4-6-15/h2-11,18,20H,1H3,(H,17,19)

> <PUBCHEM_IUPAC_INCHIKEY>
RCHSCTGFXSOIJV-UHFFFAOYSA-N

> <PUBCHEM_XLOGP3_AA>
2

> <PUBCHEM_EXACT_MASS>
332.083078

> <PUBCHEM_MOLECULAR_FORMULA>
C16H16N2O4S

> <PUBCHEM_MOLECULAR_WEIGHT>
332.37424

> <PUBCHEM_OPENEYE_CAN_SMILES>
CC(=CC1=CC=C(C=C1)NS(=O)(=O)C2=CC=CC=C2)C(=O)NO

> <PUBCHEM_OPENEYE_ISO_SMILES>
CC(=CC1=CC=C(C=C1)NS(=O)(=O)C2=CC=CC=C2)C(=O)NO

> <PUBCHEM_CACTVS_TPSA>
104

> <PUBCHEM_MONOISOTOPIC_WEIGHT>
332.083078

> <PUBCHEM_TOTAL_CHARGE>
0

> <PUBCHEM_HEAVY_ATOM_COUNT>
23

> <PUBCHEM_ATOM_DEF_STEREO_COUNT>
0

> <PUBCHEM_ATOM_UDEF_STEREO_COUNT>
0

> <PUBCHEM_BOND_DEF_STEREO_COUNT>
0

> <PUBCHEM_BOND_UDEF_STEREO_COUNT>
1

> <PUBCHEM_ISOTOPIC_ATOM_COUNT>
0

> <PUBCHEM_COMPONENT_COUNT>
1

> <PUBCHEM_CACTVS_TAUTO_COUNT>
14

> <PUBCHEM_COORDINATE_TYPE>
1
5
255

> <PUBCHEM_BONDANNOTATIONS>
10  13  8
10  14  8
11  13  8
12  14  8
15  19  8
16  20  8
17  18  1
19  21  8
20  21  8
8  11  8
8  12  8
9  15  8
9  16  8

$$$$

