6191
  -OEChem-06261201103D

 17 17  0     0  0  0  0  0  0999 V2000
   -2.5865   -1.2368    0.0000 O   0  0  0  0  0  0  0  0  0  0  0  0
    0.4107   -2.2263   -1.0977 O   0  5  0  0  0  0  0  0  0  0  0  0
    0.4103   -2.2267    1.0975 O   0  0  0  0  0  0  0  0  0  0  0  0
    2.5097    0.5537    1.0977 O   0  5  0  0  0  0  0  0  0  0  0  0
    2.5099    0.5543   -1.0976 O   0  0  0  0  0  0  0  0  0  0  0  0
    0.1837   -1.6689    0.0000 N   0  3  0  0  0  0  0  0  0  0  0  0
    1.9089    0.6160    0.0001 N   0  3  0  0  0  0  0  0  0  0  0  0
   -0.3532   -0.3478    0.0000 C   0  0  0  0  0  0  0  0  0  0  0  0
    0.4924    0.7615    0.0000 C   0  0  0  0  0  0  0  0  0  0  0  0
   -1.7367   -0.1703   -0.0001 C   0  0  0  0  0  0  0  0  0  0  0  0
   -0.0456    2.0485    0.0001 C   0  0  0  0  0  0  0  0  0  0  0  0
   -2.2746    1.1168    0.0000 C   0  0  0  0  0  0  0  0  0  0  0  0
   -1.4290    2.2261    0.0000 C   0  0  0  0  0  0  0  0  0  0  0  0
    0.6003    2.9233    0.0002 H   0  0  0  0  0  0  0  0  0  0  0  0
   -3.3504    1.2709   -0.0001 H   0  0  0  0  0  0  0  0  0  0  0  0
   -1.8478    3.2282    0.0000 H   0  0  0  0  0  0  0  0  0  0  0  0
   -3.5038   -0.9137    0.0000 H   0  0  0  0  0  0  0  0  0  0  0  0
  1 10  1  0  0  0  0
  1 17  1  0  0  0  0
  2  6  1  0  0  0  0
  3  6  2  0  0  0  0
  4  7  1  0  0  0  0
  5  7  2  0  0  0  0
  6  8  1  0  0  0  0
  7  9  1  0  0  0  0
  8  9  2  0  0  0  0
  8 10  1  0  0  0  0
  9 11  1  0  0  0  0
 10 12  2  0  0  0  0
 11 13  2  0  0  0  0
 11 14  1  0  0  0  0
 12 13  1  0  0  0  0
 12 15  1  0  0  0  0
 13 16  1  0  0  0  0
M  CHG  4   2  -1   4  -1   6   1   7   1
M  END
> <PUBCHEM_COMPOUND_CID>
6191

> <PUBCHEM_CONFORMER_RMSD>
0.6

> <PUBCHEM_CONFORMER_DIVERSEORDER>
1

> <PUBCHEM_MMFF94_PARTIAL_CHARGES>
17
1 -0.53
10 0.08
11 -0.15
12 -0.15
13 -0.15
14 0.15
15 0.15
16 0.15
17 0.45
2 -0.52
3 -0.52
4 -0.52
5 -0.52
6 0.91
7 0.91
8 0.13
9 0.13

> <PUBCHEM_EFFECTIVE_ROTOR_COUNT>
2

> <PUBCHEM_PHARMACOPHORE_FEATURES>
8
1 1 donor
1 2 acceptor
1 2 anion
1 3 acceptor
1 4 acceptor
1 4 anion
1 5 acceptor
6 8 9 10 11 12 13 rings

> <PUBCHEM_HEAVY_ATOM_COUNT>
13

> <PUBCHEM_ATOM_DEF_STEREO_COUNT>
0

> <PUBCHEM_ATOM_UDEF_STEREO_COUNT>
0

> <PUBCHEM_BOND_DEF_STEREO_COUNT>
0

> <PUBCHEM_BOND_UDEF_STEREO_COUNT>
0

> <PUBCHEM_ISOTOPIC_ATOM_COUNT>
0

> <PUBCHEM_COMPONENT_COUNT>
1

> <PUBCHEM_CACTVS_TAUTO_COUNT>
4

> <PUBCHEM_CONFORMER_ID>
0000182F00000001

> <PUBCHEM_MMFF94_ENERGY>
44.3673

> <PUBCHEM_FEATURE_SELFOVERLAP>
40.758

> <PUBCHEM_SHAPE_FINGERPRINT>
12423570 1 7771191655122308385
12524768 44 17399243434905196223
13380535 21 18192131905960020737
13380535 76 18266472081789418845
161256 15 18120922065351567925
16945 1 18338797806182270279
193761 8 18122343742497205409
20511035 2 17833840743164764693
20645476 183 17631445675023111974
20871998 184 18118403947453117974
21040471 1 18410574019674992640
23419403 2 12882742223962067541
23552423 10 18055344996989731765
23559900 14 18116426124505299094
2748010 2 18409165540889665101
5084963 1 18114451271638858745
53812654 25 17976551506809461664
7364860 26 17827928643245496958

> <PUBCHEM_SHAPE_MULTIPOLES>
228.23
3.04
2.52
0.87
0.01
0.74
0
-0.74
0
0.03
0
-0.49
0.15
0

> <PUBCHEM_SHAPE_SELFOVERLAP>
483.615

> <PUBCHEM_SHAPE_VOLUME>
127.6

> <PUBCHEM_COORDINATE_TYPE>
2
5
10

$$$$

