854338
  -OEChem-06241222483D

 44 45  0     1  0  0  0  0  0999 V2000
    2.3377    0.5056    1.4005 O   0  0  0  0  0  0  0  0  0  0  0  0
   -0.9402    0.0894   -2.4913 O   0  0  0  0  0  0  0  0  0  0  0  0
   -0.6405    0.7969    2.0778 O   0  0  0  0  0  0  0  0  0  0  0  0
   -0.3914    0.6157   -0.2605 N   0  0  0  0  0  0  0  0  0  0  0  0
    2.3029   -0.7821   -0.5300 N   0  0  0  0  0  0  0  0  0  0  0  0
    0.9145    1.1985   -0.4377 C   0  0  1  0  0  0  0  0  0  0  0  0
    0.9967    2.6598    0.0519 C   0  0  0  0  0  0  0  0  0  0  0  0
    3.2242   -1.8024   -0.0855 C   0  0  0  0  0  0  0  0  0  0  0  0
    1.9327    0.2979    0.2585 C   0  0  0  0  0  0  0  0  0  0  0  0
    2.3773    3.2894   -0.1621 C   0  0  0  0  0  0  0  0  0  0  0  0
   -0.0778    3.5247   -0.6143 C   0  0  0  0  0  0  0  0  0  0  0  0
   -1.1680    0.1270   -1.2964 C   0  0  0  0  0  0  0  0  0  0  0  0
   -1.0176    0.4781    0.9655 C   0  0  0  0  0  0  0  0  0  0  0  0
   -2.3938   -0.3755   -0.6773 C   0  0  0  0  0  0  0  0  0  0  0  0
   -2.3030   -0.1633    0.6904 C   0  0  0  0  0  0  0  0  0  0  0  0
    3.3763   -2.8611   -1.1838 C   0  0  0  0  0  0  0  0  0  0  0  0
    4.5834   -1.1576    0.2053 C   0  0  0  0  0  0  0  0  0  0  0  0
    2.6780   -2.4584    1.1879 C   0  0  0  0  0  0  0  0  0  0  0  0
   -3.4994   -0.9675   -1.2526 C   0  0  0  0  0  0  0  0  0  0  0  0
   -3.3132   -0.5317    1.5550 C   0  0  0  0  0  0  0  0  0  0  0  0
   -4.5354   -1.3497   -0.3957 C   0  0  0  0  0  0  0  0  0  0  0  0
   -4.4433   -1.1338    0.9946 C   0  0  0  0  0  0  0  0  0  0  0  0
    1.1472    1.1970   -1.5115 H   0  0  0  0  0  0  0  0  0  0  0  0
    0.8078    2.6932    1.1326 H   0  0  0  0  0  0  0  0  0  0  0  0
    1.8990   -0.8708   -1.4583 H   0  0  0  0  0  0  0  0  0  0  0  0
    3.1586    2.7569    0.3875 H   0  0  0  0  0  0  0  0  0  0  0  0
    2.6482    3.2860   -1.2235 H   0  0  0  0  0  0  0  0  0  0  0  0
    2.3877    4.3287    0.1841 H   0  0  0  0  0  0  0  0  0  0  0  0
   -1.0869    3.1856   -0.3604 H   0  0  0  0  0  0  0  0  0  0  0  0
    0.0033    4.5662   -0.2844 H   0  0  0  0  0  0  0  0  0  0  0  0
    0.0236    3.5093   -1.7049 H   0  0  0  0  0  0  0  0  0  0  0  0
    3.7547   -2.4164   -2.1116 H   0  0  0  0  0  0  0  0  0  0  0  0
    4.0711   -3.6530   -0.8831 H   0  0  0  0  0  0  0  0  0  0  0  0
    2.4129   -3.3293   -1.4174 H   0  0  0  0  0  0  0  0  0  0  0  0
    4.5551   -0.4567    1.0450 H   0  0  0  0  0  0  0  0  0  0  0  0
    4.9529   -0.6064   -0.6677 H   0  0  0  0  0  0  0  0  0  0  0  0
    5.3300   -1.9207    0.4549 H   0  0  0  0  0  0  0  0  0  0  0  0
    1.6554   -2.8240    1.0359 H   0  0  0  0  0  0  0  0  0  0  0  0
    3.2961   -3.3166    1.4772 H   0  0  0  0  0  0  0  0  0  0  0  0
    2.6599   -1.7833    2.0484 H   0  0  0  0  0  0  0  0  0  0  0  0
   -3.5708   -1.1330   -2.3211 H   0  0  0  0  0  0  0  0  0  0  0  0
   -3.2428   -0.3656    2.6236 H   0  0  0  0  0  0  0  0  0  0  0  0
   -5.4260   -1.8199   -0.8046 H   0  0  0  0  0  0  0  0  0  0  0  0
   -5.2640   -1.4407    1.6377 H   0  0  0  0  0  0  0  0  0  0  0  0
  1  9  2  0  0  0  0
  2 12  2  0  0  0  0
  3 13  2  0  0  0  0
  4  6  1  0  0  0  0
  4 12  1  0  0  0  0
  4 13  1  0  0  0  0
  5  8  1  0  0  0  0
  5  9  1  0  0  0  0
  5 25  1  0  0  0  0
  6  7  1  0  0  0  0
  6  9  1  0  0  0  0
  6 23  1  0  0  0  0
  7 10  1  0  0  0  0
  7 11  1  0  0  0  0
  7 24  1  0  0  0  0
  8 16  1  0  0  0  0
  8 17  1  0  0  0  0
  8 18  1  0  0  0  0
 10 26  1  0  0  0  0
 10 27  1  0  0  0  0
 10 28  1  0  0  0  0
 11 29  1  0  0  0  0
 11 30  1  0  0  0  0
 11 31  1  0  0  0  0
 12 14  1  0  0  0  0
 13 15  1  0  0  0  0
 14 15  1  0  0  0  0
 14 19  2  0  0  0  0
 15 20  2  0  0  0  0
 16 32  1  0  0  0  0
 16 33  1  0  0  0  0
 16 34  1  0  0  0  0
 17 35  1  0  0  0  0
 17 36  1  0  0  0  0
 17 37  1  0  0  0  0
 18 38  1  0  0  0  0
 18 39  1  0  0  0  0
 18 40  1  0  0  0  0
 19 21  1  0  0  0  0
 19 41  1  0  0  0  0
 20 22  1  0  0  0  0
 20 42  1  0  0  0  0
 21 22  2  0  0  0  0
 21 43  1  0  0  0  0
 22 44  1  0  0  0  0
M  END
> <PUBCHEM_COMPOUND_CID>
854338

> <PUBCHEM_CONFORMER_RMSD>
0.8

> <PUBCHEM_CONFORMER_DIVERSEORDER>
1
6
2
4
3
5

> <PUBCHEM_MMFF94_PARTIAL_CHARGES>
21
1 -0.57
12 0.54
13 0.54
14 0.09
15 0.09
19 -0.15
2 -0.57
20 -0.15
21 -0.15
22 -0.15
25 0.37
3 -0.57
4 -0.42
41 0.15
42 0.15
43 0.15
44 0.15
5 -0.73
6 0.36
8 0.3
9 0.57

> <PUBCHEM_EFFECTIVE_ROTOR_COUNT>
5.2

> <PUBCHEM_PHARMACOPHORE_FEATURES>
8
1 1 acceptor
1 2 acceptor
1 3 acceptor
1 5 donor
3 7 10 11 hydrophobe
4 8 16 17 18 hydrophobe
5 4 12 13 14 15 rings
6 14 15 19 20 21 22 rings

> <PUBCHEM_HEAVY_ATOM_COUNT>
22

> <PUBCHEM_ATOM_DEF_STEREO_COUNT>
1

> <PUBCHEM_ATOM_UDEF_STEREO_COUNT>
0

> <PUBCHEM_BOND_DEF_STEREO_COUNT>
0

> <PUBCHEM_BOND_UDEF_STEREO_COUNT>
0

> <PUBCHEM_ISOTOPIC_ATOM_COUNT>
0

> <PUBCHEM_COMPONENT_COUNT>
1

> <PUBCHEM_CACTVS_TAUTO_COUNT>
2

> <PUBCHEM_CONFORMER_ID>
000D094200000001

> <PUBCHEM_MMFF94_ENERGY>
57.9342

> <PUBCHEM_FEATURE_SELFOVERLAP>
40.687

> <PUBCHEM_SHAPE_FINGERPRINT>
10764073 3 15255218940791737433
11578080 2 17678206890809145657
12236239 1 17750224807806953236
12363563 72 18271245023026759330
12553582 1 18409726296373709246
12707595 3 18273498974386840842
12714826 92 17972599059361484270
12788726 201 17838621410984648808
13533116 47 18267575824524718083
13583140 156 17824272492869879841
13681431 1 18201436952485791068
13911987 19 17916001526902961446
15422964 175 18411141376365047526
16945 1 18267300928846891909
17818456 19 17823122588296316625
1813 80 18261661662435631422
18915476 22 18197792015393999453
19862831 5 13470685949156749702
20645477 70 18198919019413119079
20832881 197 18130228271892690851
20905425 154 12859896743217293902
21475661 188 6122232974758520083
21731516 1 18340198712945445526
2255824 54 18263919939118007996
23557571 272 16845300392917859501
23559900 14 18269559347289414169
23598288 3 17908684469961382924
23598291 2 18187633679062580353
23728640 28 17044309025660198242
3286 77 18272929401778270431
394222 165 17607232173910982289
463206 1 17988932205439585267
7097593 13 18187642466818693687
7364860 26 18339078164541596856
7808743 9 7780073407431769266
7970288 3 18336543931837344574
81228 2 17907321066768824728
8272917 22 18266454313567796093
84936 31 18196653986462504949

> <PUBCHEM_SHAPE_MULTIPOLES>
425.18
7.72
3.35
1.63
2.39
2.51
0.1
-6.68
-0.51
-3.81
0.45
0.79
-0.3
0.2

> <PUBCHEM_SHAPE_SELFOVERLAP>
900.631

> <PUBCHEM_SHAPE_VOLUME>
240.1

> <PUBCHEM_COORDINATE_TYPE>
2
5
10

$$$$

