47205751
  -OEChem-06241223003D

 41 41  0     0  0  0  0  0  0999 V2000
   -3.1719   -0.7040    1.5471 O   0  0  0  0  0  0  0  0  0  0  0  0
    3.5013   -1.3635   -0.0180 O   0  0  0  0  0  0  0  0  0  0  0  0
   -0.8303    1.2850   -0.4076 O   0  0  0  0  0  0  0  0  0  0  0  0
   -2.6899   -0.6421   -0.7100 N   0  0  0  0  0  0  0  0  0  0  0  0
    0.9191   -0.2775   -0.2757 N   0  0  0  0  0  0  0  0  0  0  0  0
    4.4538    0.7308    0.2021 N   0  0  0  0  0  0  0  0  0  0  0  0
   -4.9538   -0.0263    0.0342 C   0  0  0  0  0  0  0  0  0  0  0  0
   -5.6263   -1.0467   -0.8968 C   0  0  0  0  0  0  0  0  0  0  0  0
   -5.7877    0.0848    1.3235 C   0  0  0  0  0  0  0  0  0  0  0  0
   -4.9073    1.3537   -0.6393 C   0  0  0  0  0  0  0  0  0  0  0  0
   -3.5253   -0.4915    0.3869 C   0  0  0  0  0  0  0  0  0  0  0  0
   -1.3150   -1.0669   -0.5839 C   0  0  0  0  0  0  0  0  0  0  0  0
   -0.4036    0.1349   -0.4134 C   0  0  0  0  0  0  0  0  0  0  0  0
    2.0626    0.5370   -0.0970 C   0  0  0  0  0  0  0  0  0  0  0  0
    3.3321   -0.0037    0.0289 C   0  0  0  0  0  0  0  0  0  0  0  0
    1.9359    1.9206   -0.0417 C   0  0  0  0  0  0  0  0  0  0  0  0
    3.0668    2.7100    0.1354 C   0  0  0  0  0  0  0  0  0  0  0  0
    4.8320   -1.8470    0.1181 C   0  0  0  0  0  0  0  0  0  0  0  0
    4.2915    2.0721    0.2509 C   0  0  0  0  0  0  0  0  0  0  0  0
    4.8159   -3.3594    0.0565 C   0  0  0  0  0  0  0  0  0  0  0  0
   -4.3977    1.3202   -1.6082 H   0  0  0  0  0  0  0  0  0  0  0  0
   -4.3697    2.0765   -0.0148 H   0  0  0  0  0  0  0  0  0  0  0  0
   -5.9165    1.7432   -0.8144 H   0  0  0  0  0  0  0  0  0  0  0  0
   -5.8477   -0.8793    1.8419 H   0  0  0  0  0  0  0  0  0  0  0  0
   -5.3460    0.8056    2.0214 H   0  0  0  0  0  0  0  0  0  0  0  0
   -6.8112    0.4126    1.1094 H   0  0  0  0  0  0  0  0  0  0  0  0
   -5.6020   -2.0517   -0.4599 H   0  0  0  0  0  0  0  0  0  0  0  0
   -5.1294   -1.1039   -1.8712 H   0  0  0  0  0  0  0  0  0  0  0  0
   -6.6741   -0.7840   -1.0808 H   0  0  0  0  0  0  0  0  0  0  0  0
   -3.0322   -0.4320   -1.6419 H   0  0  0  0  0  0  0  0  0  0  0  0
   -1.0453   -1.6015   -1.4999 H   0  0  0  0  0  0  0  0  0  0  0  0
   -1.2077   -1.7357    0.2762 H   0  0  0  0  0  0  0  0  0  0  0  0
    1.1071   -1.2775   -0.3041 H   0  0  0  0  0  0  0  0  0  0  0  0
    0.9983    2.4512   -0.1278 H   0  0  0  0  0  0  0  0  0  0  0  0
    2.9934    3.7906    0.1817 H   0  0  0  0  0  0  0  0  0  0  0  0
    5.2520   -1.5361    1.0823 H   0  0  0  0  0  0  0  0  0  0  0  0
    5.4588   -1.4639   -0.6962 H   0  0  0  0  0  0  0  0  0  0  0  0
    5.2038    2.6425    0.3905 H   0  0  0  0  0  0  0  0  0  0  0  0
    4.1874   -3.7711    0.8532 H   0  0  0  0  0  0  0  0  0  0  0  0
    4.3908   -3.7023   -0.8926 H   0  0  0  0  0  0  0  0  0  0  0  0
    5.8259   -3.7662    0.1581 H   0  0  0  0  0  0  0  0  0  0  0  0
  1 11  2  0  0  0  0
  2 15  1  0  0  0  0
  2 18  1  0  0  0  0
  3 13  2  0  0  0  0
  4 11  1  0  0  0  0
  4 12  1  0  0  0  0
  4 30  1  0  0  0  0
  5 13  1  0  0  0  0
  5 14  1  0  0  0  0
  5 33  1  0  0  0  0
  6 15  1  0  0  0  0
  6 19  2  0  0  0  0
  7  8  1  0  0  0  0
  7  9  1  0  0  0  0
  7 10  1  0  0  0  0
  7 11  1  0  0  0  0
  8 27  1  0  0  0  0
  8 28  1  0  0  0  0
  8 29  1  0  0  0  0
  9 24  1  0  0  0  0
  9 25  1  0  0  0  0
  9 26  1  0  0  0  0
 10 21  1  0  0  0  0
 10 22  1  0  0  0  0
 10 23  1  0  0  0  0
 12 13  1  0  0  0  0
 12 31  1  0  0  0  0
 12 32  1  0  0  0  0
 14 15  2  0  0  0  0
 14 16  1  0  0  0  0
 16 17  2  0  0  0  0
 16 34  1  0  0  0  0
 17 19  1  0  0  0  0
 17 35  1  0  0  0  0
 18 20  1  0  0  0  0
 18 36  1  0  0  0  0
 18 37  1  0  0  0  0
 19 38  1  0  0  0  0
 20 39  1  0  0  0  0
 20 40  1  0  0  0  0
 20 41  1  0  0  0  0
M  END
> <PUBCHEM_COMPOUND_CID>
47205751

> <PUBCHEM_CONFORMER_RMSD>
0.8

> <PUBCHEM_CONFORMER_DIVERSEORDER>
1
2
44
40
45
34
39
55
41
103
116
84
36
37
67
4
77
12
9
15
97
20
62
111
26
120
114
51
66
110
42
72
109
78
11
21
70
90
98
43
28
117
106
16
115
69
102
65
94
14
27
17
59
3
31
64
108
32
23
96
80
53
10
95
107
56
6
68
85
79
105
46
113
73
119
63
5
88
13
118
91
61
33
8
104
81
121
75
60
19
38
99
101
22
25
86
100
82
112
58
93
48
18
74
50
92
30
49
89
87
29
24
83
52
47
71
76
35
7
54
57

> <PUBCHEM_MMFF94_PARTIAL_CHARGES>
21
1 -0.57
11 0.57
12 0.36
13 0.57
14 0.12
15 0.39
16 -0.15
17 -0.15
18 0.28
19 0.16
2 -0.36
3 -0.57
30 0.37
33 0.37
34 0.15
35 0.15
38 0.15
4 -0.73
5 -0.55
6 -0.62
7 0.06

> <PUBCHEM_EFFECTIVE_ROTOR_COUNT>
8

> <PUBCHEM_PHARMACOPHORE_FEATURES>
8
1 1 acceptor
1 2 acceptor
1 3 acceptor
1 4 donor
1 5 donor
1 6 acceptor
4 7 8 9 10 hydrophobe
6 6 14 15 16 17 19 rings

> <PUBCHEM_HEAVY_ATOM_COUNT>
20

> <PUBCHEM_ATOM_DEF_STEREO_COUNT>
0

> <PUBCHEM_ATOM_UDEF_STEREO_COUNT>
0

> <PUBCHEM_BOND_DEF_STEREO_COUNT>
0

> <PUBCHEM_BOND_UDEF_STEREO_COUNT>
0

> <PUBCHEM_ISOTOPIC_ATOM_COUNT>
0

> <PUBCHEM_COMPONENT_COUNT>
1

> <PUBCHEM_CACTVS_TAUTO_COUNT>
4

> <PUBCHEM_CONFORMER_ID>
02D04D7700000001

> <PUBCHEM_MMFF94_ENERGY>
54.9279

> <PUBCHEM_FEATURE_SELFOVERLAP>
40.643

> <PUBCHEM_SHAPE_FINGERPRINT>
10595046 47 18189338974753131767
10912923 1 17894347748820595571
11089746 13 17386288688454590992
11370993 144 18342457049862892173
11405975 8 18409446964490584371
114674 6 18202003248625009130
12107183 9 18045775951735838633
12236239 1 17748824085848405269
12616971 3 18040998449449191879
13073987 5 18334575711992105025
13167372 99 18187357775222981449
13167823 11 18334862680089971847
13533116 47 18408603664725657586
13544592 145 17988921180241990482
13583140 156 18118398449958425739
13675066 3 18131349674799917245
13785724 45 17827345893847172486
13911852 28 18121782996058043374
13955234 65 18409170979030477120
14341114 176 18342733022875804737
14739800 52 17023758809945345088
15196674 1 18410014338534685573
15250474 111 18042139668956650231
15475509 84 17895756326374783104
17349148 13 17095521781963682893
17834072 33 18187650141967280959
17844677 252 18410853287302270469
20645477 70 18411989065607533134
20832881 197 18199749309658906994
21065198 57 18341048532217279719
21267235 1 18337388344783615158
21279426 13 18199755906638840413
220451 1 18334006164699924247
2303208 19 17704064101886001139
23402539 116 15791447124326746125
23557571 272 17418105320867710476
23559900 14 17703783717403553110
239999 70 17775286037201175304
2838139 119 18264776627019118485
3421961 26 18410295843866116194
345986 75 18041845137763824866
351380 180 18410857646894542249
4073 2 18201154330483663659
5104073 3 18187925049981519227
542803 24 17385719163053620493
8272917 22 18335136471496381262
8863177 126 18131058325419769106
90127 26 18131351916804753969
9971528 1 18131351890681483901

> <PUBCHEM_SHAPE_MULTIPOLES>
379.04
14.66
2.67
0.92
10.37
0.54
0.2
3.64
1.49
-5.78
0
1.29
0.09
0.04

> <PUBCHEM_SHAPE_SELFOVERLAP>
766.196

> <PUBCHEM_SHAPE_VOLUME>
221

> <PUBCHEM_COORDINATE_TYPE>
2
5
10

$$$$

