11688
  -OEChem-06261205593D

 14 13  0     0  0  0  0  0  0999 V2000
    0.8288    2.1902   -0.2920 O   0  5  0  0  0  0  0  0  0  0  0  0
    1.8254   -1.5455   -0.4804 O   0  5  0  0  0  0  0  0  0  0  0  0
   -2.2225   -0.8428   -0.5306 O   0  5  0  0  0  0  0  0  0  0  0  0
   -1.0663    1.7731    0.7322 O   0  0  0  0  0  0  0  0  0  0  0  0
    1.6820   -0.2015    1.2481 O   0  0  0  0  0  0  0  0  0  0  0  0
   -1.0674   -1.2769    1.2838 O   0  0  0  0  0  0  0  0  0  0  0  0
   -0.0837    1.4289    0.0599 N   0  3  0  0  0  0  0  0  0  0  0  0
    1.2796   -0.6347    0.1588 N   0  3  0  0  0  0  0  0  0  0  0  0
   -1.1911   -0.7827    0.1540 N   0  3  0  0  0  0  0  0  0  0  0  0
    0.0041   -0.0198   -0.4039 C   0  0  0  0  0  0  0  0  0  0  0  0
    0.0111   -0.0883   -1.9300 C   0  0  0  0  0  0  0  0  0  0  0  0
   -0.0330   -1.1216   -2.2950 H   0  0  0  0  0  0  0  0  0  0  0  0
   -0.8437    0.4468   -2.3617 H   0  0  0  0  0  0  0  0  0  0  0  0
    0.9158    0.3686   -2.3498 H   0  0  0  0  0  0  0  0  0  0  0  0
  1  7  1  0  0  0  0
  2  8  1  0  0  0  0
  3  9  1  0  0  0  0
  4  7  2  0  0  0  0
  5  8  2  0  0  0  0
  6  9  2  0  0  0  0
  7 10  1  0  0  0  0
  8 10  1  0  0  0  0
  9 10  1  0  0  0  0
 10 11  1  0  0  0  0
 11 12  1  0  0  0  0
 11 13  1  0  0  0  0
 11 14  1  0  0  0  0
M  CHG  6   1  -1   2  -1   3  -1   7   1   8   1   9   1
M  END
> <PUBCHEM_COMPOUND_CID>
11688

> <PUBCHEM_CONFORMER_RMSD>
0.6

> <PUBCHEM_CONFORMER_DIVERSEORDER>
2
1
4
3

> <PUBCHEM_MMFF94_PARTIAL_CHARGES>
10
1 -0.52
10 0.72
2 -0.52
3 -0.52
4 -0.52
5 -0.52
6 -0.52
7 0.8
8 0.8
9 0.8

> <PUBCHEM_EFFECTIVE_ROTOR_COUNT>
3

> <PUBCHEM_PHARMACOPHORE_FEATURES>
9
1 1 acceptor
1 1 anion
1 2 acceptor
1 2 anion
1 3 acceptor
1 3 anion
1 4 acceptor
1 5 acceptor
1 6 acceptor

> <PUBCHEM_HEAVY_ATOM_COUNT>
11

> <PUBCHEM_ATOM_DEF_STEREO_COUNT>
0

> <PUBCHEM_ATOM_UDEF_STEREO_COUNT>
0

> <PUBCHEM_BOND_DEF_STEREO_COUNT>
0

> <PUBCHEM_BOND_UDEF_STEREO_COUNT>
0

> <PUBCHEM_ISOTOPIC_ATOM_COUNT>
0

> <PUBCHEM_COMPONENT_COUNT>
1

> <PUBCHEM_CACTVS_TAUTO_COUNT>
1

> <PUBCHEM_CONFORMER_ID>
00002DA800000002

> <PUBCHEM_MMFF94_ENERGY>
29.7492

> <PUBCHEM_FEATURE_SELFOVERLAP>
45.92

> <PUBCHEM_SHAPE_FINGERPRINT>
12423570 1 7775022503957172764
137420 1 15609427281456828798
16945 1 17556880030268815449
21040471 1 17402054894774651418
29004967 10 18263104157076995991
5084963 1 17323812530682529108
5943 1 12428048119400280198

> <PUBCHEM_SHAPE_MULTIPOLES>
176.22
1.97
1.86
1.34
0.13
1.02
0.4
-0.84
-0.25
-0.11
-0.21
-0.02
-0.2
-0.02

> <PUBCHEM_SHAPE_SELFOVERLAP>
343.232

> <PUBCHEM_SHAPE_VOLUME>
104.3

> <PUBCHEM_COORDINATE_TYPE>
2
5
10

$$$$

