17395582
  -OEChem-06241222512D

 48 50  0     1  0  0  0  0  0999 V2000
    4.5981    1.5945    0.0000 S   0  0  0  0  0  0  0  0  0  0  0  0
    2.8660    0.5945    0.0000 O   0  0  0  0  0  0  0  0  0  0  0  0
    3.7320   -0.9055    0.0000 N   0  0  0  0  0  0  0  0  0  0  0  0
    5.5686    3.0891    0.0000 N   0  0  0  0  0  0  0  0  0  0  0  0
    6.3776    1.6878    0.0000 N   0  0  0  0  0  0  0  0  0  0  0  0
    7.0468    2.4309    0.0000 N   0  0  0  0  0  0  0  0  0  0  0  0
    2.8660   -1.4055    0.0000 C   0  0  3  0  0  0  0  0  0  0  0  0
    2.0000   -0.9055    0.0000 C   0  0  0  0  0  0  0  0  0  0  0  0
    2.8660   -2.4055    0.0000 C   0  0  0  0  0  0  0  0  0  0  0  0
    2.0000    0.0945    0.0000 C   0  0  0  0  0  0  0  0  0  0  0  0
    2.0000   -2.9055    0.0000 C   0  0  0  0  0  0  0  0  0  0  0  0
    3.7320   -2.9055    0.0000 C   0  0  0  0  0  0  0  0  0  0  0  0
    3.7320    0.0945    0.0000 C   0  0  0  0  0  0  0  0  0  0  0  0
    2.8660   -4.4055    0.0000 C   0  0  0  0  0  0  0  0  0  0  0  0
    2.0000   -3.9055    0.0000 C   0  0  0  0  0  0  0  0  0  0  0  0
    3.7320   -3.9055    0.0000 C   0  0  0  0  0  0  0  0  0  0  0  0
    4.5981    0.5945    0.0000 C   0  0  0  0  0  0  0  0  0  0  0  0
    2.8660   -5.4055    0.0000 C   0  0  0  0  0  0  0  0  0  0  0  0
    5.4641    2.0945    0.0000 C   0  0  0  0  0  0  0  0  0  0  0  0
    4.8255    3.7582    0.0000 C   0  0  0  0  0  0  0  0  0  0  0  0
    6.5468    3.2970    0.0000 C   0  0  0  0  0  0  0  0  0  0  0  0
    5.0334    4.7363    0.0000 C   0  0  0  0  0  0  0  0  0  0  0  0
    3.8744    3.4492    0.0000 C   0  0  0  0  0  0  0  0  0  0  0  0
    4.2902    5.4055    0.0000 C   0  0  0  0  0  0  0  0  0  0  0  0
    3.1313    4.1183    0.0000 C   0  0  0  0  0  0  0  0  0  0  0  0
    3.3392    5.0964    0.0000 C   0  0  0  0  0  0  0  0  0  0  0  0
    2.8660   -0.7855    0.0000 H   0  0  0  0  0  0  0  0  0  0  0  0
    1.3894   -0.7978    0.0000 H   0  0  0  0  0  0  0  0  0  0  0  0
    1.7880   -1.4881    0.0000 H   0  0  0  0  0  0  0  0  0  0  0  0
    4.2690   -1.2155    0.0000 H   0  0  0  0  0  0  0  0  0  0  0  0
    2.6200    0.0945    0.0000 H   0  0  0  0  0  0  0  0  0  0  0  0
    2.0000    0.7145    0.0000 H   0  0  0  0  0  0  0  0  0  0  0  0
    1.3800    0.0945    0.0000 H   0  0  0  0  0  0  0  0  0  0  0  0
    1.4631   -2.5955    0.0000 H   0  0  0  0  0  0  0  0  0  0  0  0
    4.2690   -2.5955    0.0000 H   0  0  0  0  0  0  0  0  0  0  0  0
    1.4631   -4.2155    0.0000 H   0  0  0  0  0  0  0  0  0  0  0  0
    4.2690   -4.2155    0.0000 H   0  0  0  0  0  0  0  0  0  0  0  0
    4.8101    0.0119    0.0000 H   0  0  0  0  0  0  0  0  0  0  0  0
    5.2087    0.7022    0.0000 H   0  0  0  0  0  0  0  0  0  0  0  0
    2.2460   -5.4055    0.0000 H   0  0  0  0  0  0  0  0  0  0  0  0
    2.8660   -6.0255    0.0000 H   0  0  0  0  0  0  0  0  0  0  0  0
    3.4860   -5.4055    0.0000 H   0  0  0  0  0  0  0  0  0  0  0  0
    6.7990    3.8634    0.0000 H   0  0  0  0  0  0  0  0  0  0  0  0
    5.6230    4.9279    0.0000 H   0  0  0  0  0  0  0  0  0  0  0  0
    3.7455    2.8427    0.0000 H   0  0  0  0  0  0  0  0  0  0  0  0
    4.4192    6.0119    0.0000 H   0  0  0  0  0  0  0  0  0  0  0  0
    2.5416    3.9267    0.0000 H   0  0  0  0  0  0  0  0  0  0  0  0
    2.8784    5.5113    0.0000 H   0  0  0  0  0  0  0  0  0  0  0  0
  1 17  1  0  0  0  0
  1 19  1  0  0  0  0
  2 13  2  0  0  0  0
  3  7  1  0  0  0  0
  3 13  1  0  0  0  0
  3 30  1  0  0  0  0
  4 19  1  0  0  0  0
  4 20  1  0  0  0  0
  4 21  1  0  0  0  0
  5  6  1  0  0  0  0
  5 19  2  0  0  0  0
  6 21  2  0  0  0  0
  7  8  1  0  0  0  0
  7  9  1  0  0  0  0
  7 27  1  0  0  0  0
  8 10  1  0  0  0  0
  8 28  1  0  0  0  0
  8 29  1  0  0  0  0
  9 11  2  0  0  0  0
  9 12  1  0  0  0  0
 10 31  1  0  0  0  0
 10 32  1  0  0  0  0
 10 33  1  0  0  0  0
 11 15  1  0  0  0  0
 11 34  1  0  0  0  0
 12 16  2  0  0  0  0
 12 35  1  0  0  0  0
 13 17  1  0  0  0  0
 14 15  2  0  0  0  0
 14 16  1  0  0  0  0
 14 18  1  0  0  0  0
 15 36  1  0  0  0  0
 16 37  1  0  0  0  0
 17 38  1  0  0  0  0
 17 39  1  0  0  0  0
 18 40  1  0  0  0  0
 18 41  1  0  0  0  0
 18 42  1  0  0  0  0
 20 22  2  0  0  0  0
 20 23  1  0  0  0  0
 21 43  1  0  0  0  0
 22 24  1  0  0  0  0
 22 44  1  0  0  0  0
 23 25  2  0  0  0  0
 23 45  1  0  0  0  0
 24 26  2  0  0  0  0
 24 46  1  0  0  0  0
 25 26  1  0  0  0  0
 25 47  1  0  0  0  0
 26 48  1  0  0  0  0
M  END
> <PUBCHEM_COMPOUND_CID>
17395582

> <PUBCHEM_COMPOUND_CANONICALIZED>
1

> <PUBCHEM_CACTVS_COMPLEXITY>
436

> <PUBCHEM_CACTVS_HBOND_ACCEPTOR>
4

> <PUBCHEM_CACTVS_HBOND_DONOR>
1

> <PUBCHEM_CACTVS_ROTATABLE_BOND>
7

> <PUBCHEM_CACTVS_SUBSKEYS>
AAADceB7oABAAAAAAAAAAAAAAAAAAWAAAAAwYAAAAAAAAAAB0AAAHgQYAAAADCjF2AS30IfMEAiqAiVTdACSUCtxgpANyIAIZIiIKCLAmZGEIAhglgLIyCcQgMAOQAAAAAAAAACAAAAAAAAAAAAAAAAAAA==

> <PUBCHEM_IUPAC_OPENEYE_NAME>
2-[(4-phenyl-1,2,4-triazol-3-yl)sulfanyl]-N-[1-(p-tolyl)propyl]acetamide

> <PUBCHEM_IUPAC_CAS_NAME>
N-[1-(4-methylphenyl)propyl]-2-[(4-phenyl-1,2,4-triazol-3-yl)thio]acetamide

> <PUBCHEM_IUPAC_NAME>
N-[1-(4-methylphenyl)propyl]-2-[(4-phenyl-1,2,4-triazol-3-yl)sulfanyl]acetamide

> <PUBCHEM_IUPAC_SYSTEMATIC_NAME>
N-[1-(4-methylphenyl)propyl]-2-[(4-phenyl-1,2,4-triazol-3-yl)sulfanyl]ethanamide

> <PUBCHEM_IUPAC_TRADITIONAL_NAME>
2-[(4-phenyl-1,2,4-triazol-3-yl)thio]-N-[1-(p-tolyl)propyl]acetamide

> <PUBCHEM_IUPAC_INCHI>
InChI=1S/C20H22N4OS/c1-3-18(16-11-9-15(2)10-12-16)22-19(25)13-26-20-23-21-14-24(20)17-7-5-4-6-8-17/h4-12,14,18H,3,13H2,1-2H3,(H,22,25)

> <PUBCHEM_IUPAC_INCHIKEY>
KCSYKISWEAYBOK-UHFFFAOYSA-N

> <PUBCHEM_XLOGP3_AA>
4.1

> <PUBCHEM_EXACT_MASS>
366.151432

> <PUBCHEM_MOLECULAR_FORMULA>
C20H22N4OS

> <PUBCHEM_MOLECULAR_WEIGHT>
366.47988

> <PUBCHEM_OPENEYE_CAN_SMILES>
CCC(C1=CC=C(C=C1)C)NC(=O)CSC2=NN=CN2C3=CC=CC=C3

> <PUBCHEM_OPENEYE_ISO_SMILES>
CCC(C1=CC=C(C=C1)C)NC(=O)CSC2=NN=CN2C3=CC=CC=C3

> <PUBCHEM_CACTVS_TPSA>
85.1

> <PUBCHEM_MONOISOTOPIC_WEIGHT>
366.151432

> <PUBCHEM_TOTAL_CHARGE>
0

> <PUBCHEM_HEAVY_ATOM_COUNT>
26

> <PUBCHEM_ATOM_DEF_STEREO_COUNT>
0

> <PUBCHEM_ATOM_UDEF_STEREO_COUNT>
1

> <PUBCHEM_BOND_DEF_STEREO_COUNT>
0

> <PUBCHEM_BOND_UDEF_STEREO_COUNT>
0

> <PUBCHEM_ISOTOPIC_ATOM_COUNT>
0

> <PUBCHEM_COMPONENT_COUNT>
1

> <PUBCHEM_CACTVS_TAUTO_COUNT>
2

> <PUBCHEM_COORDINATE_TYPE>
1
5
255

> <PUBCHEM_BONDANNOTATIONS>
11  15  8
12  16  8
14  15  8
14  16  8
20  22  8
20  23  8
22  24  8
23  25  8
24  26  8
25  26  8
4  19  8
4  21  8
5  19  8
5  6  8
6  21  8
7  8  3
9  11  8
9  12  8

$$$$

