11867
  -OEChem-06261206133D

 17 17  0     0  0  0  0  0  0999 V2000
    1.7579    0.2456    0.0895 S   0  0  0  0  0  0  0  0  0  0  0  0
    2.2334   -0.2696   -1.3866 O   0  0  0  0  0  0  0  0  0  0  0  0
   -0.0278   -2.1802    0.0083 O   0  0  0  0  0  0  0  0  0  0  0  0
    2.1801    1.6322    0.2136 O   0  0  0  0  0  0  0  0  0  0  0  0
    2.1663   -0.7473    1.0696 O   0  0  0  0  0  0  0  0  0  0  0  0
    0.0094    0.2192    0.0403 C   0  0  0  0  0  0  0  0  0  0  0  0
   -0.6879   -0.9885    0.0057 C   0  0  0  0  0  0  0  0  0  0  0  0
   -0.6878    1.4275    0.0354 C   0  0  0  0  0  0  0  0  0  0  0  0
   -2.0823   -0.9877   -0.0336 C   0  0  0  0  0  0  0  0  0  0  0  0
   -2.0820    1.4281   -0.0039 C   0  0  0  0  0  0  0  0  0  0  0  0
   -2.7792    0.2206   -0.0384 C   0  0  0  0  0  0  0  0  0  0  0  0
   -0.1751    2.3844    0.0593 H   0  0  0  0  0  0  0  0  0  0  0  0
   -2.6318   -1.9247   -0.0610 H   0  0  0  0  0  0  0  0  0  0  0  0
   -2.6252    2.3687   -0.0082 H   0  0  0  0  0  0  0  0  0  0  0  0
   -3.8648    0.2212   -0.0693 H   0  0  0  0  0  0  0  0  0  0  0  0
    1.9481    0.2943   -2.1435 H   0  0  0  0  0  0  0  0  0  0  0  0
    0.9316   -2.0479   -0.0362 H   0  0  0  0  0  0  0  0  0  0  0  0
  1  2  1  0  0  0  0
  1  4  2  0  0  0  0
  1  5  2  0  0  0  0
  1  6  1  0  0  0  0
  2 16  1  0  0  0  0
  3  7  1  0  0  0  0
  3 17  1  0  0  0  0
  6  7  1  0  0  0  0
  6  8  2  0  0  0  0
  7  9  2  0  0  0  0
  8 10  1  0  0  0  0
  8 12  1  0  0  0  0
  9 11  1  0  0  0  0
  9 13  1  0  0  0  0
 10 11  2  0  0  0  0
 10 14  1  0  0  0  0
 11 15  1  0  0  0  0
M  END
> <PUBCHEM_COMPOUND_CID>
11867

> <PUBCHEM_CONFORMER_RMSD>
0.4

> <PUBCHEM_CONFORMER_DIVERSEORDER>
1
2
3

> <PUBCHEM_MMFF94_PARTIAL_CHARGES>
17
1 1.49
10 -0.15
11 -0.15
12 0.15
13 0.15
14 0.15
15 0.15
16 0.5
17 0.45
2 -0.68
3 -0.53
4 -0.65
5 -0.65
6 -0.01
7 0.08
8 -0.15
9 -0.15

> <PUBCHEM_EFFECTIVE_ROTOR_COUNT>
1

> <PUBCHEM_PHARMACOPHORE_FEATURES>
6
1 2 acceptor
1 3 donor
1 4 acceptor
1 5 acceptor
4 1 2 4 5 anion
6 6 7 8 9 10 11 rings

> <PUBCHEM_HEAVY_ATOM_COUNT>
11

> <PUBCHEM_ATOM_DEF_STEREO_COUNT>
0

> <PUBCHEM_ATOM_UDEF_STEREO_COUNT>
0

> <PUBCHEM_BOND_DEF_STEREO_COUNT>
0

> <PUBCHEM_BOND_UDEF_STEREO_COUNT>
0

> <PUBCHEM_ISOTOPIC_ATOM_COUNT>
0

> <PUBCHEM_COMPONENT_COUNT>
1

> <PUBCHEM_CACTVS_TAUTO_COUNT>
3

> <PUBCHEM_CONFORMER_ID>
00002E5B00000001

> <PUBCHEM_MMFF94_ENERGY>
18.8664

> <PUBCHEM_FEATURE_SELFOVERLAP>
30.503

> <PUBCHEM_SHAPE_FINGERPRINT>
12524768 44 18262233296644028861
12897270 3 18410572911684076813
12932764 1 18201716271256757661
14325111 11 18410858758942899353
15775835 57 18273210928189242908
16945 1 18337391664091500505
18185500 45 18054513495473658194
20645464 45 18113908134559322248
20645476 183 17774710983376104447
20871998 184 17899693462263959759
21040471 1 18338516468607557353
23552423 10 18200592484320733501
23559900 14 18116705421876029782
241688 4 17113256101070759795
2748010 2 18338518538929649557
29004967 10 16225769613969850488
369184 2 18342747299215097969
5084963 1 17968090958101946473

> <PUBCHEM_SHAPE_MULTIPOLES>
206.75
3.69
1.78
0.81
0.16
0.2
0.11
-0.54
0.08
-0.18
-0.08
0.48
0.08
-0.01

> <PUBCHEM_SHAPE_SELFOVERLAP>
420.91

> <PUBCHEM_SHAPE_VOLUME>
120

> <PUBCHEM_COORDINATE_TYPE>
2
5
10

$$$$

