11064
  -OEChem-06261205173D

 43 46  0     1  0  0  0  0  0999 V2000
    1.2295   -0.2763    2.0342 O   0  0  0  0  0  0  0  0  0  0  0  0
   -4.1073   -1.2496    1.1704 O   0  0  0  0  0  0  0  0  0  0  0  0
    5.4068   -0.2033   -0.9378 O   0  0  0  0  0  0  0  0  0  0  0  0
   -1.9902    0.7976   -0.8094 C   0  0  1  0  0  0  0  0  0  0  0  0
   -0.6664    0.8508    0.0093 C   0  0  1  0  0  0  0  0  0  0  0  0
   -2.7547   -0.5492   -0.7338 C   0  0  1  0  0  0  0  0  0  0  0  0
    0.2004   -0.4293   -0.1667 C   0  0  2  0  0  0  0  0  0  0  0  0
   -1.8621   -1.7881   -0.6785 C   0  0  0  0  0  0  0  0  0  0  0  0
   -0.6554   -1.6428    0.2377 C   0  0  0  0  0  0  0  0  0  0  0  0
   -3.0175    1.8109   -0.2633 C   0  0  0  0  0  0  0  0  0  0  0  0
    1.5425   -0.3337    0.6354 C   0  0  1  0  0  0  0  0  0  0  0  0
    0.1460    2.1090   -0.3685 C   0  0  0  0  0  0  0  0  0  0  0  0
   -3.5781   -0.3472    0.5328 C   0  0  0  0  0  0  0  0  0  0  0  0
   -3.6899    1.1079    0.9128 C   0  0  0  0  0  0  0  0  0  0  0  0
    1.4461    2.2119    0.4223 C   0  0  0  0  0  0  0  0  0  0  0  0
   -3.7517   -0.7077   -1.8970 C   0  0  0  0  0  0  0  0  0  0  0  0
    2.2529    0.9540    0.2516 C   0  0  0  0  0  0  0  0  0  0  0  0
    2.4184   -1.5491    0.4312 C   0  0  0  0  0  0  0  0  0  0  0  0
    3.4955    0.9961   -0.2522 C   0  0  0  0  0  0  0  0  0  0  0  0
    3.6576   -1.5213   -0.0697 C   0  0  0  0  0  0  0  0  0  0  0  0
    4.2777   -0.2407   -0.4607 C   0  0  0  0  0  0  0  0  0  0  0  0
   -1.7567    1.0334   -1.8557 H   0  0  0  0  0  0  0  0  0  0  0  0
   -0.9187    0.9351    1.0754 H   0  0  0  0  0  0  0  0  0  0  0  0
    0.4505   -0.5279   -1.2343 H   0  0  0  0  0  0  0  0  0  0  0  0
   -1.4951   -2.0169   -1.6882 H   0  0  0  0  0  0  0  0  0  0  0  0
   -2.4419   -2.6630   -0.3583 H   0  0  0  0  0  0  0  0  0  0  0  0
   -0.9857   -1.5535    1.2797 H   0  0  0  0  0  0  0  0  0  0  0  0
   -0.0794   -2.5705    0.1672 H   0  0  0  0  0  0  0  0  0  0  0  0
   -3.7632    2.0401   -1.0342 H   0  0  0  0  0  0  0  0  0  0  0  0
   -2.5844    2.7663    0.0433 H   0  0  0  0  0  0  0  0  0  0  0  0
   -0.4378    3.0172   -0.1873 H   0  0  0  0  0  0  0  0  0  0  0  0
    0.3732    2.0914   -1.4429 H   0  0  0  0  0  0  0  0  0  0  0  0
   -4.7355    1.4068    1.0152 H   0  0  0  0  0  0  0  0  0  0  0  0
   -3.1479    1.2769    1.8470 H   0  0  0  0  0  0  0  0  0  0  0  0
    1.2286    2.3674    1.4859 H   0  0  0  0  0  0  0  0  0  0  0  0
    2.0016    3.0952    0.0851 H   0  0  0  0  0  0  0  0  0  0  0  0
   -3.2329   -0.6985   -2.8619 H   0  0  0  0  0  0  0  0  0  0  0  0
   -4.2957   -1.6564   -1.8169 H   0  0  0  0  0  0  0  0  0  0  0  0
   -4.5077    0.0843   -1.9146 H   0  0  0  0  0  0  0  0  0  0  0  0
    2.0274   -2.5163    0.7360 H   0  0  0  0  0  0  0  0  0  0  0  0
    2.0589   -0.1497    2.5270 H   0  0  0  0  0  0  0  0  0  0  0  0
    3.9681    1.9309   -0.5344 H   0  0  0  0  0  0  0  0  0  0  0  0
    4.2398   -2.4279   -0.1867 H   0  0  0  0  0  0  0  0  0  0  0  0
  1 11  1  0  0  0  0
  1 41  1  0  0  0  0
  2 13  2  0  0  0  0
  3 21  2  0  0  0  0
  4  5  1  0  0  0  0
  4  6  1  0  0  0  0
  4 10  1  0  0  0  0
  4 22  1  0  0  0  0
  5  7  1  0  0  0  0
  5 12  1  0  0  0  0
  5 23  1  0  0  0  0
  6  8  1  0  0  0  0
  6 13  1  0  0  0  0
  6 16  1  0  0  0  0
  7  9  1  0  0  0  0
  7 11  1  0  0  0  0
  7 24  1  0  0  0  0
  8  9  1  0  0  0  0
  8 25  1  0  0  0  0
  8 26  1  0  0  0  0
  9 27  1  0  0  0  0
  9 28  1  0  0  0  0
 10 14  1  0  0  0  0
 10 29  1  0  0  0  0
 10 30  1  0  0  0  0
 11 17  1  0  0  0  0
 11 18  1  0  0  0  0
 12 15  1  0  0  0  0
 12 31  1  0  0  0  0
 12 32  1  0  0  0  0
 13 14  1  0  0  0  0
 14 33  1  0  0  0  0
 14 34  1  0  0  0  0
 15 17  1  0  0  0  0
 15 35  1  0  0  0  0
 15 36  1  0  0  0  0
 16 37  1  0  0  0  0
 16 38  1  0  0  0  0
 16 39  1  0  0  0  0
 17 19  2  0  0  0  0
 18 20  2  0  0  0  0
 18 40  1  0  0  0  0
 19 21  1  0  0  0  0
 19 42  1  0  0  0  0
 20 21  1  0  0  0  0
 20 43  1  0  0  0  0
M  END
> <PUBCHEM_COMPOUND_CID>
11064

> <PUBCHEM_CONFORMER_RMSD>
0.6

> <PUBCHEM_CONFORMER_DIVERSEORDER>
4
24
15
29
7
26
10
20
28
14
13
23
25
5
21
18
17
8
19
3
27
16
11
2
12
9
6
22
1

> <PUBCHEM_MMFF94_PARTIAL_CHARGES>
17
1 -0.68
11 0.56
13 0.45
14 0.06
15 0.14
17 -0.28
18 -0.29
19 -0.14
2 -0.57
20 -0.14
21 0.54
3 -0.57
40 0.15
41 0.4
42 0.15
43 0.15
6 0.06

> <PUBCHEM_EFFECTIVE_ROTOR_COUNT>
1.2

> <PUBCHEM_PHARMACOPHORE_FEATURES>
8
1 1 acceptor
1 1 donor
1 2 acceptor
1 3 acceptor
5 4 6 10 13 14 rings
6 11 17 18 19 20 21 rings
6 4 5 6 7 8 9 rings
6 5 7 11 12 15 17 rings

> <PUBCHEM_HEAVY_ATOM_COUNT>
21

> <PUBCHEM_ATOM_DEF_STEREO_COUNT>
0

> <PUBCHEM_ATOM_UDEF_STEREO_COUNT>
5

> <PUBCHEM_BOND_DEF_STEREO_COUNT>
0

> <PUBCHEM_BOND_UDEF_STEREO_COUNT>
0

> <PUBCHEM_ISOTOPIC_ATOM_COUNT>
0

> <PUBCHEM_COMPONENT_COUNT>
1

> <PUBCHEM_CACTVS_TAUTO_COUNT>
6

> <PUBCHEM_CONFORMER_ID>
00002B3800000004

> <PUBCHEM_MMFF94_ENERGY>
51.4007

> <PUBCHEM_FEATURE_SELFOVERLAP>
40.809

> <PUBCHEM_SHAPE_FINGERPRINT>
10062212 137 18261680358269982591
10366900 7 17632013061799167155
10498660 4 17060350625141035589
11132069 177 18336277815715320912
11578080 2 17532966898227672049
12011746 2 18342739620235429535
121448 382 16271924883068614992
12236239 1 17822291241651947767
12553582 1 18410300215557144032
12788726 201 17604688058982269616
128620 24 15123504817688997931
13140716 1 18267876157832231553
13221675 6 18342179946703809960
13224815 77 17703795820499963376
13296908 3 18060144249354547659
14004511 7 17821447962887317995
14787075 74 17560224830597826456
14790565 3 17975970191698189448
15196674 1 18411699915471243996
15209289 33 18343858905407456715
15309172 13 18408887330457572231
15375462 189 18343023332404830864
15536298 74 18261117331371315592
16752209 62 18266198251859750509
16945 1 18267316347631661561
17804303 29 18334290963775736397
17980427 23 8574422141064212386
18186145 218 17749116590369639106
19591789 44 18412823594674766578
19862831 5 18271539631870607757
200 152 18334290985777781786
20871999 31 18412547630209148956
21029758 27 18343857810154028805
21267235 1 18410283705597590614
23175994 123 16877938352132798624
2334 1 18411992368220995277
23402539 116 18408888473082143676
23493267 7 17845378906654503593
23559900 14 17969237667109884376
23566358 27 18053932953545351637
2748010 2 18269294454891601261
296302 2 14345801534918015024
312423 11 17677335979068003341
3323516 105 18341610395802425120
350125 39 18409444800344038177
474 4 17417241027740535884
5104073 3 18412266168349533800
633830 44 17632291336930335164
7364860 26 18117005390222293720
74978 22 18335430019209357871
7832392 63 18408045091386225608
90525 40 18259708916989424639
9709674 26 18191876625608890982
9981440 41 17256534019917732224

> <PUBCHEM_SHAPE_MULTIPOLES>
414.56
8.49
2.1
1.21
3.51
0.46
0.06
-1.34
-1.29
-0.16
0
-0.72
-0.21
-0.22

> <PUBCHEM_SHAPE_SELFOVERLAP>
905.845

> <PUBCHEM_SHAPE_VOLUME>
222.5

> <PUBCHEM_COORDINATE_TYPE>
2
5
10

$$$$

