586323
  -OEChem-06241222462D

 32 33  0     0  0  0  0  0  0999 V2000
    4.5981    4.7500    0.0000 O   0  0  0  0  0  0  0  0  0  0  0  0
    2.0000   -4.7500    0.0000 O   0  0  0  0  0  0  0  0  0  0  0  0
    2.8660    4.7500    0.0000 O   0  0  0  0  0  0  0  0  0  0  0  0
    3.7320   -4.7500    0.0000 O   0  0  0  0  0  0  0  0  0  0  0  0
    2.8660   -0.2500    0.0000 N   0  0  0  0  0  0  0  0  0  0  0  0
    3.7320    0.2500    0.0000 N   0  0  0  0  0  0  0  0  0  0  0  0
    2.8660   -1.2500    0.0000 C   0  0  0  0  0  0  0  0  0  0  0  0
    3.7320    1.2500    0.0000 C   0  0  0  0  0  0  0  0  0  0  0  0
    2.0000   -1.7500    0.0000 C   0  0  0  0  0  0  0  0  0  0  0  0
    4.5981    1.7500    0.0000 C   0  0  0  0  0  0  0  0  0  0  0  0
    3.7320   -1.7500    0.0000 C   0  0  0  0  0  0  0  0  0  0  0  0
    2.8660    1.7500    0.0000 C   0  0  0  0  0  0  0  0  0  0  0  0
    2.8660   -3.2500    0.0000 C   0  0  0  0  0  0  0  0  0  0  0  0
    3.7320    3.2500    0.0000 C   0  0  0  0  0  0  0  0  0  0  0  0
    4.5981    2.7500    0.0000 C   0  0  0  0  0  0  0  0  0  0  0  0
    2.0000   -2.7500    0.0000 C   0  0  0  0  0  0  0  0  0  0  0  0
    2.8660    2.7500    0.0000 C   0  0  0  0  0  0  0  0  0  0  0  0
    3.7320   -2.7500    0.0000 C   0  0  0  0  0  0  0  0  0  0  0  0
    2.8660   -4.2500    0.0000 C   0  0  0  0  0  0  0  0  0  0  0  0
    3.7320    4.2500    0.0000 C   0  0  0  0  0  0  0  0  0  0  0  0
    2.3291    0.0600    0.0000 H   0  0  0  0  0  0  0  0  0  0  0  0
    4.2690   -0.0600    0.0000 H   0  0  0  0  0  0  0  0  0  0  0  0
    1.4631   -1.4400    0.0000 H   0  0  0  0  0  0  0  0  0  0  0  0
    5.1350    1.4400    0.0000 H   0  0  0  0  0  0  0  0  0  0  0  0
    4.2690   -1.4400    0.0000 H   0  0  0  0  0  0  0  0  0  0  0  0
    2.3291    1.4400    0.0000 H   0  0  0  0  0  0  0  0  0  0  0  0
    1.4631   -3.0600    0.0000 H   0  0  0  0  0  0  0  0  0  0  0  0
    5.1350    3.0600    0.0000 H   0  0  0  0  0  0  0  0  0  0  0  0
    4.2690   -3.0600    0.0000 H   0  0  0  0  0  0  0  0  0  0  0  0
    2.3291    3.0600    0.0000 H   0  0  0  0  0  0  0  0  0  0  0  0
    2.0000   -5.3700    0.0000 H   0  0  0  0  0  0  0  0  0  0  0  0
    4.5981    5.3700    0.0000 H   0  0  0  0  0  0  0  0  0  0  0  0
  1 20  1  0  0  0  0
  1 32  1  0  0  0  0
  2 19  1  0  0  0  0
  2 31  1  0  0  0  0
  3 20  2  0  0  0  0
  4 19  2  0  0  0  0
  5  6  1  0  0  0  0
  5  7  1  0  0  0  0
  5 21  1  0  0  0  0
  6  8  1  0  0  0  0
  6 22  1  0  0  0  0
  7  9  2  0  0  0  0
  7 11  1  0  0  0  0
  8 10  2  0  0  0  0
  8 12  1  0  0  0  0
  9 16  1  0  0  0  0
  9 23  1  0  0  0  0
 10 15  1  0  0  0  0
 10 24  1  0  0  0  0
 11 18  2  0  0  0  0
 11 25  1  0  0  0  0
 12 17  2  0  0  0  0
 12 26  1  0  0  0  0
 13 16  2  0  0  0  0
 13 18  1  0  0  0  0
 13 19  1  0  0  0  0
 14 15  2  0  0  0  0
 14 17  1  0  0  0  0
 14 20  1  0  0  0  0
 15 28  1  0  0  0  0
 16 27  1  0  0  0  0
 17 30  1  0  0  0  0
 18 29  1  0  0  0  0
M  END
> <PUBCHEM_COMPOUND_CID>
586323

> <PUBCHEM_COMPOUND_CANONICALIZED>
1

> <PUBCHEM_CACTVS_COMPLEXITY>
311

> <PUBCHEM_CACTVS_HBOND_ACCEPTOR>
6

> <PUBCHEM_CACTVS_HBOND_DONOR>
4

> <PUBCHEM_CACTVS_ROTATABLE_BOND>
5

> <PUBCHEM_CACTVS_SUBSKEYS>
AAADccBzOAAAAAAAAAAAAAAAAAAAAAAAAAAwYAAAAAAAAAABQAAAHgAYCAAADAiBmAAwyIBiAgCIAiTSSACCBAAkAgIYqAEAbMgIJjKAlZGAcQBk0AEI2YeY2SGeCAAAAAAAAAAQAAAAAAAAAAAAAAAAAA==

> <PUBCHEM_IUPAC_OPENEYE_NAME>
4-[2-(4-carboxyphenyl)hydrazino]benzoic acid

> <PUBCHEM_IUPAC_CAS_NAME>
4-[(4-carboxyphenyl)hydrazo]benzoic acid

> <PUBCHEM_IUPAC_NAME>
4-[2-(4-carboxyphenyl)hydrazinyl]benzoic acid

> <PUBCHEM_IUPAC_SYSTEMATIC_NAME>
4-[2-(4-carboxyphenyl)hydrazinyl]benzoic acid

> <PUBCHEM_IUPAC_TRADITIONAL_NAME>
4-[N'-(4-carboxyphenyl)hydrazino]benzoic acid

> <PUBCHEM_IUPAC_INCHI>
InChI=1S/C14H12N2O4/c17-13(18)9-1-5-11(6-2-9)15-16-12-7-3-10(4-8-12)14(19)20/h1-8,15-16H,(H,17,18)(H,19,20)

> <PUBCHEM_IUPAC_INCHIKEY>
BSFRZXRXRVEMGS-UHFFFAOYSA-N

> <PUBCHEM_XLOGP3_AA>
2.8

> <PUBCHEM_EXACT_MASS>
272.079707

> <PUBCHEM_MOLECULAR_FORMULA>
C14H12N2O4

> <PUBCHEM_MOLECULAR_WEIGHT>
272.25608

> <PUBCHEM_OPENEYE_CAN_SMILES>
C1=CC(=CC=C1C(=O)O)NNC2=CC=C(C=C2)C(=O)O

> <PUBCHEM_OPENEYE_ISO_SMILES>
C1=CC(=CC=C1C(=O)O)NNC2=CC=C(C=C2)C(=O)O

> <PUBCHEM_CACTVS_TPSA>
98.7

> <PUBCHEM_MONOISOTOPIC_WEIGHT>
272.079707

> <PUBCHEM_TOTAL_CHARGE>
0

> <PUBCHEM_HEAVY_ATOM_COUNT>
20

> <PUBCHEM_ATOM_DEF_STEREO_COUNT>
0

> <PUBCHEM_ATOM_UDEF_STEREO_COUNT>
0

> <PUBCHEM_BOND_DEF_STEREO_COUNT>
0

> <PUBCHEM_BOND_UDEF_STEREO_COUNT>
0

> <PUBCHEM_ISOTOPIC_ATOM_COUNT>
0

> <PUBCHEM_COMPONENT_COUNT>
1

> <PUBCHEM_CACTVS_TAUTO_COUNT>
6

> <PUBCHEM_COORDINATE_TYPE>
1
5
255

> <PUBCHEM_BONDANNOTATIONS>
10  15  8
11  18  8
12  17  8
13  16  8
13  18  8
14  15  8
14  17  8
7  11  8
7  9  8
8  10  8
8  12  8
9  16  8

$$$$

