10876
  -OEChem-06261205043D

 16 16  0     0  0  0  0  0  0999 V2000
    1.5395   -1.0321    0.0236 O   0  0  0  0  0  0  0  0  0  0  0  0
   -3.4833   -1.0904   -0.0311 O   0  0  0  0  0  0  0  0  0  0  0  0
   -3.1281    1.1624    0.0159 O   0  0  0  0  0  0  0  0  0  0  0  0
    1.0714    0.2433    0.0072 C   0  0  0  0  0  0  0  0  0  0  0  0
    2.1138    1.1403   -0.0204 C   0  0  0  0  0  0  0  0  0  0  0  0
   -0.3116    0.5375    0.0165 C   0  0  0  0  0  0  0  0  0  0  0  0
    3.2987    0.3662   -0.0211 C   0  0  0  0  0  0  0  0  0  0  0  0
    2.8958   -0.9486    0.0060 C   0  0  0  0  0  0  0  0  0  0  0  0
   -1.2890   -0.3967    0.0050 C   0  0  0  0  0  0  0  0  0  0  0  0
   -2.7072    0.0181   -0.0017 C   0  0  0  0  0  0  0  0  0  0  0  0
    2.0400    2.2189   -0.0384 H   0  0  0  0  0  0  0  0  0  0  0  0
   -0.5869    1.5899    0.0239 H   0  0  0  0  0  0  0  0  0  0  0  0
    4.3186    0.7220   -0.0393 H   0  0  0  0  0  0  0  0  0  0  0  0
    3.4221   -1.8919    0.0159 H   0  0  0  0  0  0  0  0  0  0  0  0
   -1.0665   -1.4589   -0.0073 H   0  0  0  0  0  0  0  0  0  0  0  0
   -4.4392   -0.8696   -0.0368 H   0  0  0  0  0  0  0  0  0  0  0  0
  1  4  1  0  0  0  0
  1  8  1  0  0  0  0
  2 10  1  0  0  0  0
  2 16  1  0  0  0  0
  3 10  2  0  0  0  0
  4  5  2  0  0  0  0
  4  6  1  0  0  0  0
  5  7  1  0  0  0  0
  5 11  1  0  0  0  0
  6  9  2  0  0  0  0
  6 12  1  0  0  0  0
  7  8  2  0  0  0  0
  7 13  1  0  0  0  0
  8 14  1  0  0  0  0
  9 10  1  0  0  0  0
  9 15  1  0  0  0  0
M  END
> <PUBCHEM_COMPOUND_CID>
10876

> <PUBCHEM_CONFORMER_RMSD>
0.4

> <PUBCHEM_CONFORMER_DIVERSEORDER>
1
2
3

> <PUBCHEM_MMFF94_PARTIAL_CHARGES>
16
1 -0.28
10 0.71
11 0.15
12 0.15
13 0.15
14 0.15
15 0.15
16 0.5
2 -0.65
3 -0.57
4 0.09
5 -0.15
6 -0.11
7 -0.15
8 -0.01
9 -0.14

> <PUBCHEM_EFFECTIVE_ROTOR_COUNT>
2

> <PUBCHEM_PHARMACOPHORE_FEATURES>
5
1 1 acceptor
1 2 acceptor
1 3 acceptor
3 2 3 10 anion
5 1 4 5 7 8 rings

> <PUBCHEM_HEAVY_ATOM_COUNT>
10

> <PUBCHEM_ATOM_DEF_STEREO_COUNT>
0

> <PUBCHEM_ATOM_UDEF_STEREO_COUNT>
0

> <PUBCHEM_BOND_DEF_STEREO_COUNT>
0

> <PUBCHEM_BOND_UDEF_STEREO_COUNT>
1

> <PUBCHEM_ISOTOPIC_ATOM_COUNT>
0

> <PUBCHEM_COMPONENT_COUNT>
1

> <PUBCHEM_CACTVS_TAUTO_COUNT>
1

> <PUBCHEM_CONFORMER_ID>
00002A7C00000001

> <PUBCHEM_MMFF94_ENERGY>
11.918

> <PUBCHEM_FEATURE_SELFOVERLAP>
25.427

> <PUBCHEM_SHAPE_FINGERPRINT>
11062470 55 18408323297802997296
12932764 1 17458633280622604941
14144814 61 18409167722754143921
14325111 11 18410573985262266401
190213 19 17894348886527915144
20201158 50 18342175574485384842
20645477 70 18338240465572747559
20871998 22 17973723872868974214
23402655 69 18410298025250592901
3248919 1 17489863813129592281

> <PUBCHEM_SHAPE_MULTIPOLES>
188.19
6.18
1.18
0.59
2.57
0
0
0.38
-0.04
-0.05
0
-0.05
-0.01
-0.03

> <PUBCHEM_SHAPE_SELFOVERLAP>
390.86

> <PUBCHEM_SHAPE_VOLUME>
108.2

> <PUBCHEM_COORDINATE_TYPE>
2
5
10

$$$$

