17396189
  -OEChem-06241222552D

 42 43  0     1  0  0  0  0  0999 V2000
    5.4641   -4.6307    0.0000 F   0  0  0  0  0  0  0  0  0  0  0  0
    2.0000   -4.6307    0.0000 F   0  0  0  0  0  0  0  0  0  0  0  0
    4.5981   -1.1307    0.0000 O   0  0  0  0  0  0  0  0  0  0  0  0
    6.3301   -0.1307    0.0000 O   0  0  0  0  0  0  0  0  0  0  0  0
    7.5464    3.6126    0.0000 O   0  0  0  0  0  0  0  0  0  0  0  0
    2.8660   -1.1307    0.0000 O   0  0  0  0  0  0  0  0  0  0  0  0
    4.6551    1.9571    0.0000 N   0  0  0  0  0  0  0  0  0  0  0  0
    5.4641    1.3693    0.0000 C   0  0  0  0  0  0  0  0  0  0  0  0
    6.2731    1.9571    0.0000 C   0  0  0  0  0  0  0  0  0  0  0  0
    5.9641    2.9081    0.0000 C   0  0  0  0  0  0  0  0  0  0  0  0
    4.9641    2.9081    0.0000 C   0  0  0  0  0  0  0  0  0  0  0  0
    5.4641    0.3693    0.0000 C   0  0  0  0  0  0  0  0  0  0  0  0
    4.5981   -0.1307    0.0000 C   0  0  3  0  0  0  0  0  0  0  0  0
    7.2242    1.6481    0.0000 C   0  0  0  0  0  0  0  0  0  0  0  0
    4.3763    3.7172    0.0000 C   0  0  0  0  0  0  0  0  0  0  0  0
    6.5519    3.7172    0.0000 C   0  0  0  0  0  0  0  0  0  0  0  0
    3.7320    0.3693    0.0000 C   0  0  0  0  0  0  0  0  0  0  0  0
    6.1452    4.6307    0.0000 C   0  0  0  0  0  0  0  0  0  0  0  0
    3.7320   -1.6307    0.0000 C   0  0  0  0  0  0  0  0  0  0  0  0
    3.7320   -2.6307    0.0000 C   0  0  0  0  0  0  0  0  0  0  0  0
    2.8660   -3.1307    0.0000 C   0  0  0  0  0  0  0  0  0  0  0  0
    4.5981   -3.1307    0.0000 C   0  0  0  0  0  0  0  0  0  0  0  0
    4.5981   -4.1307    0.0000 C   0  0  0  0  0  0  0  0  0  0  0  0
    2.8660   -4.1307    0.0000 C   0  0  0  0  0  0  0  0  0  0  0  0
    3.7320   -4.6307    0.0000 C   0  0  0  0  0  0  0  0  0  0  0  0
    4.0654    1.7655    0.0000 H   0  0  0  0  0  0  0  0  0  0  0  0
    5.1350   -0.4407    0.0000 H   0  0  0  0  0  0  0  0  0  0  0  0
    7.0326    1.0584    0.0000 H   0  0  0  0  0  0  0  0  0  0  0  0
    7.8138    1.4565    0.0000 H   0  0  0  0  0  0  0  0  0  0  0  0
    7.4158    2.2377    0.0000 H   0  0  0  0  0  0  0  0  0  0  0  0
    4.8779    4.0816    0.0000 H   0  0  0  0  0  0  0  0  0  0  0  0
    4.0119    4.2188    0.0000 H   0  0  0  0  0  0  0  0  0  0  0  0
    3.8747    3.3527    0.0000 H   0  0  0  0  0  0  0  0  0  0  0  0
    4.0420    0.9062    0.0000 H   0  0  0  0  0  0  0  0  0  0  0  0
    3.1951    0.6793    0.0000 H   0  0  0  0  0  0  0  0  0  0  0  0
    3.4220   -0.1676    0.0000 H   0  0  0  0  0  0  0  0  0  0  0  0
    6.7116    4.8829    0.0000 H   0  0  0  0  0  0  0  0  0  0  0  0
    5.8930    5.1971    0.0000 H   0  0  0  0  0  0  0  0  0  0  0  0
    5.5788    4.3785    0.0000 H   0  0  0  0  0  0  0  0  0  0  0  0
    2.3291   -2.8207    0.0000 H   0  0  0  0  0  0  0  0  0  0  0  0
    5.1350   -2.8207    0.0000 H   0  0  0  0  0  0  0  0  0  0  0  0
    3.7320   -5.2507    0.0000 H   0  0  0  0  0  0  0  0  0  0  0  0
  1 23  1  0  0  0  0
  2 24  1  0  0  0  0
  3 13  1  0  0  0  0
  3 19  1  0  0  0  0
  4 12  2  0  0  0  0
  5 16  2  0  0  0  0
  6 19  2  0  0  0  0
  7  8  1  0  0  0  0
  7 11  1  0  0  0  0
  7 26  1  0  0  0  0
  8  9  2  0  0  0  0
  8 12  1  0  0  0  0
  9 10  1  0  0  0  0
  9 14  1  0  0  0  0
 10 11  2  0  0  0  0
 10 16  1  0  0  0  0
 11 15  1  0  0  0  0
 12 13  1  0  0  0  0
 13 17  1  0  0  0  0
 13 27  1  0  0  0  0
 14 28  1  0  0  0  0
 14 29  1  0  0  0  0
 14 30  1  0  0  0  0
 15 31  1  0  0  0  0
 15 32  1  0  0  0  0
 15 33  1  0  0  0  0
 16 18  1  0  0  0  0
 17 34  1  0  0  0  0
 17 35  1  0  0  0  0
 17 36  1  0  0  0  0
 18 37  1  0  0  0  0
 18 38  1  0  0  0  0
 18 39  1  0  0  0  0
 19 20  1  0  0  0  0
 20 21  2  0  0  0  0
 20 22  1  0  0  0  0
 21 24  1  0  0  0  0
 21 40  1  0  0  0  0
 22 23  2  0  0  0  0
 22 41  1  0  0  0  0
 23 25  1  0  0  0  0
 24 25  2  0  0  0  0
 25 42  1  0  0  0  0
M  END
> <PUBCHEM_COMPOUND_CID>
17396189

> <PUBCHEM_COMPOUND_CANONICALIZED>
1

> <PUBCHEM_CACTVS_COMPLEXITY>
531

> <PUBCHEM_CACTVS_HBOND_ACCEPTOR>
6

> <PUBCHEM_CACTVS_HBOND_DONOR>
1

> <PUBCHEM_CACTVS_ROTATABLE_BOND>
6

> <PUBCHEM_CACTVS_SUBSKEYS>
AAADceB6OYAAAAAAAAAAAAAAAAAAAWAAAAAwAAAAAAAAAAABwAAAHwAQAAAADByhngoyiJLJlACoA6TyTAKCgCAnACAAmSHwTNgIJnrAtb2GMYhm0AHI6cecy/C+gAAAAAAAAAAAAAAAAAAAAAAAAAAAAA==

> <PUBCHEM_IUPAC_OPENEYE_NAME>
[2-(4-acetyl-3,5-dimethyl-1H-pyrrol-2-yl)-1-methyl-2-oxo-ethyl] 3,5-difluorobenzoate

> <PUBCHEM_IUPAC_CAS_NAME>
3,5-difluorobenzoic acid [1-(4-acetyl-3,5-dimethyl-1H-pyrrol-2-yl)-1-oxopropan-2-yl] ester

> <PUBCHEM_IUPAC_NAME>
[1-(4-acetyl-3,5-dimethyl-1H-pyrrol-2-yl)-1-oxopropan-2-yl] 3,5-difluorobenzoate

> <PUBCHEM_IUPAC_SYSTEMATIC_NAME>
[1-(4-ethanoyl-3,5-dimethyl-1H-pyrrol-2-yl)-1-oxidanylidene-propan-2-yl] 3,5-bis(fluoranyl)benzoate

> <PUBCHEM_IUPAC_TRADITIONAL_NAME>
3,5-difluorobenzoic acid [2-(4-acetyl-3,5-dimethyl-1H-pyrrol-2-yl)-2-keto-1-methyl-ethyl] ester

> <PUBCHEM_IUPAC_INCHI>
InChI=1S/C18H17F2NO4/c1-8-15(10(3)22)9(2)21-16(8)17(23)11(4)25-18(24)12-5-13(19)7-14(20)6-12/h5-7,11,21H,1-4H3

> <PUBCHEM_IUPAC_INCHIKEY>
MVCFJOUDPSNFLB-UHFFFAOYSA-N

> <PUBCHEM_XLOGP3_AA>
3.4

> <PUBCHEM_EXACT_MASS>
349.112564

> <PUBCHEM_MOLECULAR_FORMULA>
C18H17F2NO4

> <PUBCHEM_MOLECULAR_WEIGHT>
349.328686

> <PUBCHEM_OPENEYE_CAN_SMILES>
CC1=C(NC(=C1C(=O)C)C)C(=O)C(C)OC(=O)C2=CC(=CC(=C2)F)F

> <PUBCHEM_OPENEYE_ISO_SMILES>
CC1=C(NC(=C1C(=O)C)C)C(=O)C(C)OC(=O)C2=CC(=CC(=C2)F)F

> <PUBCHEM_CACTVS_TPSA>
76.2

> <PUBCHEM_MONOISOTOPIC_WEIGHT>
349.112564

> <PUBCHEM_TOTAL_CHARGE>
0

> <PUBCHEM_HEAVY_ATOM_COUNT>
25

> <PUBCHEM_ATOM_DEF_STEREO_COUNT>
0

> <PUBCHEM_ATOM_UDEF_STEREO_COUNT>
1

> <PUBCHEM_BOND_DEF_STEREO_COUNT>
0

> <PUBCHEM_BOND_UDEF_STEREO_COUNT>
0

> <PUBCHEM_ISOTOPIC_ATOM_COUNT>
0

> <PUBCHEM_COMPONENT_COUNT>
1

> <PUBCHEM_CACTVS_TAUTO_COUNT>
62

> <PUBCHEM_COORDINATE_TYPE>
1
5
255

> <PUBCHEM_BONDANNOTATIONS>
10  11  8
13  17  3
20  21  8
20  22  8
21  24  8
22  23  8
23  25  8
24  25  8
7  11  8
7  8  8
8  9  8
9  10  8

$$$$

