7847050
  -OEChem-06241222483D

 46 48  0     0  0  0  0  0  0999 V2000
    6.0486   -0.3744   -3.3879 Cl  0  0  0  0  0  0  0  0  0  0  0  0
    5.6487    0.3083    2.4103 F   0  0  0  0  0  0  0  0  0  0  0  0
   -0.2975    0.2056    0.5826 O   0  0  0  0  0  0  0  0  0  0  0  0
   -1.4400    0.4536    2.5656 O   0  0  0  0  0  0  0  0  0  0  0  0
    1.8374   -0.0065   -0.9125 O   0  0  0  0  0  0  0  0  0  0  0  0
   -4.9165    0.1815   -1.0748 N   0  0  0  0  0  0  0  0  0  0  0  0
    3.3192    0.1732    0.9050 N   0  0  0  0  0  0  0  0  0  0  0  0
   -3.1485    1.4258   -0.0001 C   0  0  0  0  0  0  0  0  0  0  0  0
   -2.6308    0.2442    0.5106 C   0  0  0  0  0  0  0  0  0  0  0  0
   -4.2835    1.3402   -0.7806 C   0  0  0  0  0  0  0  0  0  0  0  0
   -3.2555   -0.9785    0.2302 C   0  0  0  0  0  0  0  0  0  0  0  0
   -4.4118   -0.9636   -0.5778 C   0  0  0  0  0  0  0  0  0  0  0  0
   -4.8951    2.5725   -1.3631 C   0  0  0  0  0  0  0  0  0  0  0  0
   -2.5075    2.7442    0.2792 C   0  0  0  0  0  0  0  0  0  0  0  0
   -2.7562   -2.1923    0.7322 C   0  0  0  0  0  0  0  0  0  0  0  0
   -5.0319   -2.1785   -0.8561 C   0  0  0  0  0  0  0  0  0  0  0  0
   -1.4280    0.3146    1.3402 C   0  0  0  0  0  0  0  0  0  0  0  0
   -5.9350    3.1952   -0.4367 C   0  0  0  0  0  0  0  0  0  0  0  0
   -3.3964   -3.3927    0.4380 C   0  0  0  0  0  0  0  0  0  0  0  0
   -4.5356   -3.3854   -0.3572 C   0  0  0  0  0  0  0  0  0  0  0  0
    0.9497    0.2591    1.2834 C   0  0  0  0  0  0  0  0  0  0  0  0
    2.0777    0.1227    0.2840 C   0  0  0  0  0  0  0  0  0  0  0  0
    4.5923    0.0795    0.2945 C   0  0  0  0  0  0  0  0  0  0  0  0
    4.6726   -0.0819   -1.0789 C   0  0  0  0  0  0  0  0  0  0  0  0
    5.7303    0.1520    1.0811 C   0  0  0  0  0  0  0  0  0  0  0  0
    5.9266   -0.1740   -1.6829 C   0  0  0  0  0  0  0  0  0  0  0  0
    6.9842    0.0595    0.4768 C   0  0  0  0  0  0  0  0  0  0  0  0
    7.0824   -0.1035   -0.9051 C   0  0  0  0  0  0  0  0  0  0  0  0
   -5.3910    2.3051   -2.3056 H   0  0  0  0  0  0  0  0  0  0  0  0
   -4.1392    3.3141   -1.6423 H   0  0  0  0  0  0  0  0  0  0  0  0
   -1.7647    2.7129    1.0810 H   0  0  0  0  0  0  0  0  0  0  0  0
   -1.9963    3.1095   -0.6180 H   0  0  0  0  0  0  0  0  0  0  0  0
   -3.2408    3.4889    0.6011 H   0  0  0  0  0  0  0  0  0  0  0  0
   -1.8672   -2.2315    1.3568 H   0  0  0  0  0  0  0  0  0  0  0  0
   -5.9259   -2.1997   -1.4766 H   0  0  0  0  0  0  0  0  0  0  0  0
   -5.5051    3.4916    0.5246 H   0  0  0  0  0  0  0  0  0  0  0  0
   -6.3693    4.0853   -0.9030 H   0  0  0  0  0  0  0  0  0  0  0  0
   -6.7486    2.4905   -0.2321 H   0  0  0  0  0  0  0  0  0  0  0  0
   -3.0079   -4.3288    0.8274 H   0  0  0  0  0  0  0  0  0  0  0  0
   -5.0416   -4.3175   -0.5918 H   0  0  0  0  0  0  0  0  0  0  0  0
    1.0056   -0.5673    2.0003 H   0  0  0  0  0  0  0  0  0  0  0  0
    1.0423    1.2218    1.7981 H   0  0  0  0  0  0  0  0  0  0  0  0
    3.3336    0.2897    1.9162 H   0  0  0  0  0  0  0  0  0  0  0  0
    3.8169   -0.1442   -1.7350 H   0  0  0  0  0  0  0  0  0  0  0  0
    7.8839    0.1146    1.0826 H   0  0  0  0  0  0  0  0  0  0  0  0
    8.0661   -0.1739   -1.3621 H   0  0  0  0  0  0  0  0  0  0  0  0
  1 26  1  0  0  0  0
  2 25  1  0  0  0  0
  3 17  1  0  0  0  0
  3 21  1  0  0  0  0
  4 17  2  0  0  0  0
  5 22  2  0  0  0  0
  6 10  2  0  0  0  0
  6 12  1  0  0  0  0
  7 22  1  0  0  0  0
  7 23  1  0  0  0  0
  7 43  1  0  0  0  0
  8  9  2  0  0  0  0
  8 10  1  0  0  0  0
  8 14  1  0  0  0  0
  9 11  1  0  0  0  0
  9 17  1  0  0  0  0
 10 13  1  0  0  0  0
 11 12  1  0  0  0  0
 11 15  2  0  0  0  0
 12 16  2  0  0  0  0
 13 18  1  0  0  0  0
 13 29  1  0  0  0  0
 13 30  1  0  0  0  0
 14 31  1  0  0  0  0
 14 32  1  0  0  0  0
 14 33  1  0  0  0  0
 15 19  1  0  0  0  0
 15 34  1  0  0  0  0
 16 20  1  0  0  0  0
 16 35  1  0  0  0  0
 18 36  1  0  0  0  0
 18 37  1  0  0  0  0
 18 38  1  0  0  0  0
 19 20  2  0  0  0  0
 19 39  1  0  0  0  0
 20 40  1  0  0  0  0
 21 22  1  0  0  0  0
 21 41  1  0  0  0  0
 21 42  1  0  0  0  0
 23 24  1  0  0  0  0
 23 25  2  0  0  0  0
 24 26  2  0  0  0  0
 24 44  1  0  0  0  0
 25 27  1  0  0  0  0
 26 28  1  0  0  0  0
 27 28  2  0  0  0  0
 27 45  1  0  0  0  0
 28 46  1  0  0  0  0
M  END
> <PUBCHEM_COMPOUND_CID>
7847050

> <PUBCHEM_CONFORMER_RMSD>
1

> <PUBCHEM_CONFORMER_DIVERSEORDER>
1
266
430
307
68
400
315
147
365
369
461
446
523
6
533
145
13
415
225
36
243
302
180
459
270
238
108
197
149
298
43
205
175
119
148
59
473
513
3
104
340
50
40
99
281
261
172
134
221
196
519
83
372
478
44
335
317
70
203
79
31
69
455
138
15
125
27
316
489
157
441
277
91
160
164
469
394
249
399
444
234
106
389
65
26
45
37
279
278
267
39
2
177
439
181
490
232
110
75
384
4
179
22
407
413
322
7
14
269
313
167
398
280
117
154
24
362
19
73
370
35
25
129
178
47
331
136
142
9
217
18
109
378
42
5
11
114
74
94
209
354
10
159

> <PUBCHEM_MMFF94_PARTIAL_CHARGES>
34
1 -0.18
10 0.17
12 0.31
13 0.14
14 0.14
15 -0.15
16 -0.15
17 0.63
19 -0.15
2 -0.19
20 -0.15
21 0.34
22 0.57
23 0.12
24 -0.15
25 0.19
26 0.18
27 -0.15
28 -0.15
3 -0.43
34 0.15
35 0.15
39 0.15
4 -0.57
40 0.15
43 0.37
44 0.15
45 0.15
46 0.15
5 -0.57
6 -0.62
7 -0.55
8 -0.14
9 0.09

> <PUBCHEM_EFFECTIVE_ROTOR_COUNT>
7

> <PUBCHEM_PHARMACOPHORE_FEATURES>
8
1 18 hydrophobe
1 4 acceptor
1 5 acceptor
1 6 acceptor
1 7 donor
6 11 12 15 16 19 20 rings
6 23 24 25 26 27 28 rings
6 6 8 9 10 11 12 rings

> <PUBCHEM_HEAVY_ATOM_COUNT>
28

> <PUBCHEM_ATOM_DEF_STEREO_COUNT>
0

> <PUBCHEM_ATOM_UDEF_STEREO_COUNT>
0

> <PUBCHEM_BOND_DEF_STEREO_COUNT>
0

> <PUBCHEM_BOND_UDEF_STEREO_COUNT>
0

> <PUBCHEM_ISOTOPIC_ATOM_COUNT>
0

> <PUBCHEM_COMPONENT_COUNT>
1

> <PUBCHEM_CACTVS_TAUTO_COUNT>
4

> <PUBCHEM_CONFORMER_ID>
0077BC8A00000001

> <PUBCHEM_MMFF94_ENERGY>
83.4512

> <PUBCHEM_FEATURE_SELFOVERLAP>
40.626

> <PUBCHEM_SHAPE_FINGERPRINT>
10 15 11239990149276242452
10076449 9 18272371933284774251
10165383 225 18335701694210533097
10554248 39 16415761934275714170
11089746 13 17704354351739379484
11315181 36 17821447954324004488
12342043 65 17824828832758486819
13782708 43 17968661514580021326
15183329 4 16845580794654048594
15461852 350 18413106140089493492
1577012 14 17632859746261962920
16990350 14 17184468157841276137
16992828 155 17058943340837704453
17844677 252 18339922615415599568
17870717 6 18334009489062717871
18643901 69 18334292025397822663
18927931 339 18411697647955780763
19489759 90 18412266129367779714
20505436 4 17774165738063640409
21033650 10 18343866615169178577
21623969 137 16732976506202895822
21756936 100 17275101765170832369
22061861 79 17458060482720663372
22393880 68 18409737244054968600
2303208 19 17676196966958516870
23081809 10 17561086904123512688
23522609 53 17417514904814819700
23559900 14 18188220843962515337
23569914 152 16377190197988137868
24771293 8 17774440483164884004
249057 3 18411985763152612221
25122255 55 17894620436199559230
255183 451 17762058740763944663
2838139 119 16343706543028163916
328310 630 16128646436664339286
34797466 226 18261107427393028400
3610482 184 17632282497687128412
4015057 19 16588318128711356555
4073 2 17603855724690439530
4169191 19 15769197334244528916
44880568 143 18335419063175846132
484985 159 17240477001756671319
5104073 3 15936676173648412106
531348 171 18271807972806100874
6608658 132 17918270974204763124
9896288 288 8502376672278344669

> <PUBCHEM_SHAPE_MULTIPOLES>
543.25
19.69
3
2.03
30.13
0.85
0.59
-1.11
7.44
-9.8
0.51
3.75
-0.12
1.05

> <PUBCHEM_SHAPE_SELFOVERLAP>
1172.574

> <PUBCHEM_SHAPE_VOLUME>
300.3

> <PUBCHEM_COORDINATE_TYPE>
2
5
10

$$$$

