47205658
  -OEChem-06241222593D

 34 34  0     0  0  0  0  0  0999 V2000
    4.9391    1.9122    0.2040 F   0  0  0  0  0  0  0  0  0  0  0  0
   -4.0197   -0.6424    1.3587 O   0  0  0  0  0  0  0  0  0  0  0  0
   -1.4094    0.9100   -0.6786 O   0  0  0  0  0  0  0  0  0  0  0  0
    4.9250   -2.1298    0.3610 O   0  5  0  0  0  0  0  0  0  0  0  0
    6.0447   -0.2436    0.4487 O   0  0  0  0  0  0  0  0  0  0  0  0
   -3.4672   -0.8169   -0.8893 N   0  0  0  0  0  0  0  0  0  0  0  0
    0.1500   -0.8220   -0.3828 N   0  0  0  0  0  0  0  0  0  0  0  0
    4.9694   -0.8767    0.3179 N   0  3  0  0  0  0  0  0  0  0  0  0
   -5.6199    0.0828   -0.3072 C   0  0  0  0  0  0  0  0  0  0  0  0
   -6.5501    0.4468    0.8463 C   0  0  0  0  0  0  0  0  0  0  0  0
   -2.1524   -1.3802   -0.6939 C   0  0  0  0  0  0  0  0  0  0  0  0
   -4.2992   -0.4922    0.1722 C   0  0  0  0  0  0  0  0  0  0  0  0
    1.3742   -0.1280   -0.2330 C   0  0  0  0  0  0  0  0  0  0  0  0
   -1.1149   -0.2773   -0.5874 C   0  0  0  0  0  0  0  0  0  0  0  0
   -7.8776    0.9890    0.3423 C   0  0  0  0  0  0  0  0  0  0  0  0
    2.5588   -0.8370   -0.0331 C   0  0  0  0  0  0  0  0  0  0  0  0
    1.3959    1.2657   -0.2850 C   0  0  0  0  0  0  0  0  0  0  0  0
    3.7650   -0.1522    0.1144 C   0  0  0  0  0  0  0  0  0  0  0  0
    2.6019    1.9505   -0.1374 C   0  0  0  0  0  0  0  0  0  0  0  0
    3.7865    1.2415    0.0623 C   0  0  0  0  0  0  0  0  0  0  0  0
   -6.1000   -0.6600   -0.9556 H   0  0  0  0  0  0  0  0  0  0  0  0
   -5.4080    0.9723   -0.9124 H   0  0  0  0  0  0  0  0  0  0  0  0
   -6.0725    1.1957    1.4892 H   0  0  0  0  0  0  0  0  0  0  0  0
   -6.7351   -0.4354    1.4709 H   0  0  0  0  0  0  0  0  0  0  0  0
   -1.9267   -2.0107   -1.5594 H   0  0  0  0  0  0  0  0  0  0  0  0
   -2.1385   -1.9876    0.2168 H   0  0  0  0  0  0  0  0  0  0  0  0
   -3.7763   -0.6400   -1.8408 H   0  0  0  0  0  0  0  0  0  0  0  0
   -8.3960    0.2474   -0.2738 H   0  0  0  0  0  0  0  0  0  0  0  0
   -8.5274    1.2444    1.1852 H   0  0  0  0  0  0  0  0  0  0  0  0
   -7.7296    1.8922   -0.2583 H   0  0  0  0  0  0  0  0  0  0  0  0
    0.2205   -1.8362   -0.3327 H   0  0  0  0  0  0  0  0  0  0  0  0
    2.5175   -1.9235    0.0040 H   0  0  0  0  0  0  0  0  0  0  0  0
    0.5222    1.8837   -0.4358 H   0  0  0  0  0  0  0  0  0  0  0  0
    2.6204    3.0357   -0.1774 H   0  0  0  0  0  0  0  0  0  0  0  0
  1 20  1  0  0  0  0
  2 12  2  0  0  0  0
  3 14  2  0  0  0  0
  4  8  1  0  0  0  0
  5  8  2  0  0  0  0
  6 11  1  0  0  0  0
  6 12  1  0  0  0  0
  6 27  1  0  0  0  0
  7 13  1  0  0  0  0
  7 14  1  0  0  0  0
  7 31  1  0  0  0  0
  8 18  1  0  0  0  0
  9 10  1  0  0  0  0
  9 12  1  0  0  0  0
  9 21  1  0  0  0  0
  9 22  1  0  0  0  0
 10 15  1  0  0  0  0
 10 23  1  0  0  0  0
 10 24  1  0  0  0  0
 11 14  1  0  0  0  0
 11 25  1  0  0  0  0
 11 26  1  0  0  0  0
 13 16  2  0  0  0  0
 13 17  1  0  0  0  0
 15 28  1  0  0  0  0
 15 29  1  0  0  0  0
 15 30  1  0  0  0  0
 16 18  1  0  0  0  0
 16 32  1  0  0  0  0
 17 19  2  0  0  0  0
 17 33  1  0  0  0  0
 18 20  2  0  0  0  0
 19 20  1  0  0  0  0
 19 34  1  0  0  0  0
M  CHG  2   4  -1   8   1
M  END
> <PUBCHEM_COMPOUND_CID>
47205658

> <PUBCHEM_CONFORMER_RMSD>
0.8

> <PUBCHEM_CONFORMER_DIVERSEORDER>
1
204
83
139
37
173
129
161
21
77
45
29
131
57
130
3
170
155
149
184
143
13
119
46
154
67
148
82
12
165
15
150
140
39
186
96
23
124
200
195
177
47
65
17
24
191
141
106
73
103
159
111
181
31
56
90
6
122
80
11
134
151
64
98
138
174
136
107
68
95
54
92
118
163
60
188
40
179
33
169
26
121
205
22
44
104
187
168
58
202
137
146
132
55
192
197
160
113
28
7
14
207
125
162
41
153
9
100
194
108
71
193
66
114
10
81
167
180
86
4
75
79
144
198
135
18
84
78
182
62
48
20
16
128
19
183
91
126
164
88
199
203
94
69
36
93
34
115
97
172
87
102
32
189
201
176
25
53
158
50
145
105
52
206
99
178
85
2
76
27
133
30
120
74
8
89
166
38
190
5
127
61
101
147
196
152
171
51
112
72
123
43
109
156
185
117
175
142
59
110
116
70
63
49
157
35
42

> <PUBCHEM_MMFF94_PARTIAL_CHARGES>
23
1 -0.19
11 0.36
12 0.57
13 0.12
14 0.57
16 -0.15
17 -0.15
18 0.13
19 -0.15
2 -0.57
20 0.19
27 0.37
3 -0.57
31 0.37
32 0.15
33 0.15
34 0.15
4 -0.52
5 -0.52
6 -0.73
7 -0.55
8 0.91
9 0.06

> <PUBCHEM_EFFECTIVE_ROTOR_COUNT>
8

> <PUBCHEM_PHARMACOPHORE_FEATURES>
9
1 15 hydrophobe
1 2 acceptor
1 3 acceptor
1 4 acceptor
1 4 anion
1 5 acceptor
1 6 donor
1 7 donor
6 13 16 17 18 19 20 rings

> <PUBCHEM_HEAVY_ATOM_COUNT>
20

> <PUBCHEM_ATOM_DEF_STEREO_COUNT>
0

> <PUBCHEM_ATOM_UDEF_STEREO_COUNT>
0

> <PUBCHEM_BOND_DEF_STEREO_COUNT>
0

> <PUBCHEM_BOND_UDEF_STEREO_COUNT>
0

> <PUBCHEM_ISOTOPIC_ATOM_COUNT>
0

> <PUBCHEM_COMPONENT_COUNT>
1

> <PUBCHEM_CACTVS_TAUTO_COUNT>
4

> <PUBCHEM_CONFORMER_ID>
02D04D1A00000001

> <PUBCHEM_MMFF94_ENERGY>
46.0781

> <PUBCHEM_FEATURE_SELFOVERLAP>
45.75

> <PUBCHEM_SHAPE_FINGERPRINT>
10299344 5 11455889170660012005
10688039 33 18202846573405443557
11089746 13 17603309237267542145
12236239 1 18186803556726764167
12596602 18 18341046333753220115
12616971 3 18334861593531291727
13167372 99 18261390083443612497
13533116 47 18272372009639507730
13785724 45 17973436900060182126
1420 363 16917349242602650475
14251718 22 8430597211410095981
14251764 18 18335139765984067605
14341114 176 18131068234104031613
14617045 38 16056879148024279779
15048467 5 18113899343035716649
15142383 8 18342460365118877645
15348495 7 17988636338517094649
15475509 35 16701477748703726312
15527383 91 18413670205610961172
17844677 252 16487257672658685301
19141452 34 18411140199496808783
19489759 90 15647050461015755767
20281389 69 18408886239878926353
21150785 3 7204768190245414763
21267235 1 18340205289210366710
212847 35 18040153993879366784
22956985 138 13972030356563635712
2297311 6 15769775780060437663
23035841 295 15123790686839180801
23081809 10 18187370891862842071
23402539 116 17458632198776097957
26918003 58 18273494559513628563
2767999 5 17240481421092883057
2838139 119 18261116296986057629
300161 21 17821730498562669301
312425 54 17703789198298840091
4072396 5 17313105271623604758
4073 2 18059008367817609251
5104073 3 18339088064293599666
5207 217 7853565816961938629
602551 16 15912762774194500218

> <PUBCHEM_SHAPE_MULTIPOLES>
365.9
17.78
1.66
0.84
20.77
0.25
-0.06
2.44
-4.63
-1.96
0.02
0.7
-0.09
-0.58

> <PUBCHEM_SHAPE_SELFOVERLAP>
751.295

> <PUBCHEM_SHAPE_VOLUME>
210.3

> <PUBCHEM_COORDINATE_TYPE>
2
5
10

$$$$

