3759
  -OEChem-06251223393D

 30 31  0     0  0  0  0  0  0999 V2000
    4.4542    1.2027   -0.3240 O   0  0  0  0  0  0  0  0  0  0  0  0
    1.2058   -1.7312    0.6391 O   0  0  0  0  0  0  0  0  0  0  0  0
   -0.8024    0.1314    0.6104 N   0  0  0  0  0  0  0  0  0  0  0  0
    0.5245    0.4594    0.3842 N   0  0  0  0  0  0  0  0  0  0  0  0
    3.0818    1.1503   -0.1124 N   0  0  0  0  0  0  0  0  0  0  0  0
   -1.6165    0.5282   -0.5397 C   0  0  0  0  0  0  0  0  0  0  0  0
   -3.0686    0.2620   -0.3266 C   0  0  0  0  0  0  0  0  0  0  0  0
   -3.6150   -0.9653   -0.7017 C   0  0  0  0  0  0  0  0  0  0  0  0
   -3.8803    1.2404    0.2474 C   0  0  0  0  0  0  0  0  0  0  0  0
    2.8550   -0.1234    0.1407 C   0  0  0  0  0  0  0  0  0  0  0  0
    1.4756   -0.5508    0.4180 C   0  0  0  0  0  0  0  0  0  0  0  0
   -4.9728   -1.2144   -0.5026 C   0  0  0  0  0  0  0  0  0  0  0  0
   -5.2382    0.9914    0.4465 C   0  0  0  0  0  0  0  0  0  0  0  0
    3.9782   -0.9310    0.1141 C   0  0  0  0  0  0  0  0  0  0  0  0
    4.9767   -0.0428   -0.1865 C   0  0  0  0  0  0  0  0  0  0  0  0
   -5.7845   -0.2360    0.0716 C   0  0  0  0  0  0  0  0  0  0  0  0
    6.4266   -0.1708   -0.3787 C   0  0  0  0  0  0  0  0  0  0  0  0
   -1.2785   -0.0078   -1.4369 H   0  0  0  0  0  0  0  0  0  0  0  0
   -1.4747    1.5957   -0.7580 H   0  0  0  0  0  0  0  0  0  0  0  0
   -1.0949    0.6604    1.4319 H   0  0  0  0  0  0  0  0  0  0  0  0
   -2.9933   -1.7368   -1.1484 H   0  0  0  0  0  0  0  0  0  0  0  0
   -3.4668    2.2003    0.5457 H   0  0  0  0  0  0  0  0  0  0  0  0
    0.7630    1.4308    0.2086 H   0  0  0  0  0  0  0  0  0  0  0  0
    4.0744   -1.9932    0.2829 H   0  0  0  0  0  0  0  0  0  0  0  0
   -5.3983   -2.1702   -0.7941 H   0  0  0  0  0  0  0  0  0  0  0  0
   -5.8702    1.7529    0.8941 H   0  0  0  0  0  0  0  0  0  0  0  0
   -6.8418   -0.4300    0.2269 H   0  0  0  0  0  0  0  0  0  0  0  0
    6.9667    0.4478    0.3446 H   0  0  0  0  0  0  0  0  0  0  0  0
    6.7525   -1.2075   -0.2481 H   0  0  0  0  0  0  0  0  0  0  0  0
    6.7111    0.1494   -1.3858 H   0  0  0  0  0  0  0  0  0  0  0  0
  1  5  1  0  0  0  0
  1 15  1  0  0  0  0
  2 11  2  0  0  0  0
  3  4  1  0  0  0  0
  3  6  1  0  0  0  0
  3 20  1  0  0  0  0
  4 11  1  0  0  0  0
  4 23  1  0  0  0  0
  5 10  2  0  0  0  0
  6  7  1  0  0  0  0
  6 18  1  0  0  0  0
  6 19  1  0  0  0  0
  7  8  2  0  0  0  0
  7  9  1  0  0  0  0
  8 12  1  0  0  0  0
  8 21  1  0  0  0  0
  9 13  2  0  0  0  0
  9 22  1  0  0  0  0
 10 11  1  0  0  0  0
 10 14  1  0  0  0  0
 12 16  2  0  0  0  0
 12 25  1  0  0  0  0
 13 16  1  0  0  0  0
 13 26  1  0  0  0  0
 14 15  2  0  0  0  0
 14 24  1  0  0  0  0
 15 17  1  0  0  0  0
 16 27  1  0  0  0  0
 17 28  1  0  0  0  0
 17 29  1  0  0  0  0
 17 30  1  0  0  0  0
M  END
> <PUBCHEM_COMPOUND_CID>
3759

> <PUBCHEM_CONFORMER_RMSD>
0.6

> <PUBCHEM_CONFORMER_DIVERSEORDER>
1
52
49
4
6
21
43
12
45
7
29
32
30
39
42
31
41
27
25
11
8
2
33
24
51
3
28
36
34
26
5
35
40
46
19
13
44
38
48
16
14
23
15
22
20
37
47
50
10
9
17
18

> <PUBCHEM_MMFF94_PARTIAL_CHARGES>
25
1 -0.02
10 0.2
11 0.72
12 -0.15
13 -0.15
14 -0.15
15 -0.04
16 -0.15
17 0.18
2 -0.57
20 0.36
21 0.15
22 0.15
23 0.37
24 0.15
25 0.15
26 0.15
27 0.15
3 -0.64
4 -0.42
5 -0.41
6 0.41
7 -0.14
8 -0.15
9 -0.15

> <PUBCHEM_EFFECTIVE_ROTOR_COUNT>
5

> <PUBCHEM_PHARMACOPHORE_FEATURES>
6
1 2 acceptor
1 3 donor
1 4 donor
1 5 acceptor
5 1 5 10 14 15 rings
6 7 8 9 12 13 16 rings

> <PUBCHEM_HEAVY_ATOM_COUNT>
17

> <PUBCHEM_ATOM_DEF_STEREO_COUNT>
0

> <PUBCHEM_ATOM_UDEF_STEREO_COUNT>
0

> <PUBCHEM_BOND_DEF_STEREO_COUNT>
0

> <PUBCHEM_BOND_UDEF_STEREO_COUNT>
0

> <PUBCHEM_ISOTOPIC_ATOM_COUNT>
0

> <PUBCHEM_COMPONENT_COUNT>
1

> <PUBCHEM_CACTVS_TAUTO_COUNT>
2

> <PUBCHEM_CONFORMER_ID>
00000EAF00000001

> <PUBCHEM_MMFF94_ENERGY>
26.1811

> <PUBCHEM_FEATURE_SELFOVERLAP>
31.933

> <PUBCHEM_SHAPE_FINGERPRINT>
10595046 47 18409730651153685308
10912923 1 18341898514887743249
10968037 39 18341895186952804703
11287383 113 18411980247670129864
11315181 36 17894910716043628673
12091667 2 17988923388076583369
12107183 9 17616532200062471777
12236239 1 18260828206788695400
13167823 11 18409451405449825479
13288520 33 18260268530364997927
13533116 47 16630538366480941120
14123238 8 17632577158324181105
14123256 10 18059857255292211495
1420 363 17703785925090511859
14528608 73 18341894069507057220
17834072 33 18335422352803569189
17834076 25 18060418018938402626
17844677 252 17385722474257258433
19489759 90 15430034370916330379
200 152 18407478868577807329
20645477 70 18341049735325620066
21054139 6 18341056228683266239
21150785 3 18334003988000701652
21267235 1 18335980883847553139
21709351 56 18342462538456751941
2297311 6 17749104492016692681
23035841 295 18260547835449846211
23402539 116 18409169917477306892
23402655 69 18411140280921462256
23536379 177 18186800296619564232
23559900 14 18040725722756594913
26918003 58 6844200956581066151
300161 21 18341902913298263749
3004659 81 18261671562868245222
314173 85 13840260381737996002
3545911 37 16917065564313031010
4214541 1 18334295383719096633
42788 4 18408603664646477548
4325135 7 18413671313944651735
4990 188 18113614595098624358
542803 24 18131351920846286353
54446538 1 18408041809941690093
7062679 117 18341331111396503699
7495541 125 17676773076143113432
77779 3 18408324401968191009

> <PUBCHEM_SHAPE_MULTIPOLES>
323.17
15.92
1.28
0.75
4.36
0.11
0.01
-0.06
1.52
-0.55
-0.03
-0.15
0.06
-0.7

> <PUBCHEM_SHAPE_SELFOVERLAP>
682.232

> <PUBCHEM_SHAPE_VOLUME>
182.2

> <PUBCHEM_COORDINATE_TYPE>
2
5
10

$$$$

