14031
  -OEChem-06241222412D

 24 23  0     0  0  0  0  0  0999 V2000
    3.7320   -0.1160    0.0000 P   0  0  0  0  0  0  0  0  0  0  0  0
    5.4641   -0.1160    0.0000 P   0  0  0  0  0  0  0  0  0  0  0  0
    4.5981    0.3840    0.0000 O   0  0  0  0  0  0  0  0  0  0  0  0
    2.8660   -0.6160    0.0000 O   0  0  0  0  0  0  0  0  0  0  0  0
    3.2320    0.7500    0.0000 O   0  0  0  0  0  0  0  0  0  0  0  0
    6.3301    0.3840    0.0000 O   0  0  0  0  0  0  0  0  0  0  0  0
    5.4641   -1.1160    0.0000 O   0  0  0  0  0  0  0  0  0  0  0  0
    4.2320   -0.9821    0.0000 O   0  0  0  0  0  0  0  0  0  0  0  0
    2.0000   -0.1160    0.0000 C   0  0  0  0  0  0  0  0  0  0  0  0
    3.7320    1.6160    0.0000 C   0  0  0  0  0  0  0  0  0  0  0  0
    7.1962   -0.1160    0.0000 C   0  0  0  0  0  0  0  0  0  0  0  0
    6.3301   -1.6160    0.0000 C   0  0  0  0  0  0  0  0  0  0  0  0
    4.2690    1.3060    0.0000 H   0  0  0  0  0  0  0  0  0  0  0  0
    4.0420    2.1530    0.0000 H   0  0  0  0  0  0  0  0  0  0  0  0
    3.1951    1.9260    0.0000 H   0  0  0  0  0  0  0  0  0  0  0  0
    2.3100    0.4209    0.0000 H   0  0  0  0  0  0  0  0  0  0  0  0
    1.4631    0.1940    0.0000 H   0  0  0  0  0  0  0  0  0  0  0  0
    1.6900   -0.6530    0.0000 H   0  0  0  0  0  0  0  0  0  0  0  0
    6.8862   -0.6530    0.0000 H   0  0  0  0  0  0  0  0  0  0  0  0
    7.7331   -0.4260    0.0000 H   0  0  0  0  0  0  0  0  0  0  0  0
    7.5062    0.4209    0.0000 H   0  0  0  0  0  0  0  0  0  0  0  0
    6.0201   -2.1530    0.0000 H   0  0  0  0  0  0  0  0  0  0  0  0
    6.8671   -1.9260    0.0000 H   0  0  0  0  0  0  0  0  0  0  0  0
    6.6401   -1.0791    0.0000 H   0  0  0  0  0  0  0  0  0  0  0  0
  1  3  1  0  0  0  0
  1  4  1  0  0  0  0
  1  5  1  0  0  0  0
  1  8  2  0  0  0  0
  2  3  1  0  0  0  0
  2  6  1  0  0  0  0
  2  7  1  0  0  0  0
  4  9  1  0  0  0  0
  5 10  1  0  0  0  0
  6 11  1  0  0  0  0
  7 12  1  0  0  0  0
  9 16  1  0  0  0  0
  9 17  1  0  0  0  0
  9 18  1  0  0  0  0
 10 13  1  0  0  0  0
 10 14  1  0  0  0  0
 10 15  1  0  0  0  0
 11 19  1  0  0  0  0
 11 20  1  0  0  0  0
 11 21  1  0  0  0  0
 12 22  1  0  0  0  0
 12 23  1  0  0  0  0
 12 24  1  0  0  0  0
M  END
> <PUBCHEM_COMPOUND_CID>
14031

> <PUBCHEM_COMPOUND_CANONICALIZED>
1

> <PUBCHEM_CACTVS_COMPLEXITY>
150

> <PUBCHEM_CACTVS_HBOND_ACCEPTOR>
6

> <PUBCHEM_CACTVS_HBOND_DONOR>
0

> <PUBCHEM_CACTVS_ROTATABLE_BOND>
6

> <PUBCHEM_CACTVS_SUBSKEYS>
AAADccBgOAMAAAAAAAAAAAAAAAAAAAAAAAAAAAAAAAAAAAAAAAAAEgAAACAAAAAAAAICAAAAARAAQAAAAIAAAAAAAAAAAAAAAAAAAAAAAAAAAAAAAAAAAAAAAAAAAAAAAAAAAAAAAAAAAAAAAAAAAAAAAA==

> <PUBCHEM_IUPAC_OPENEYE_NAME>
dimethoxyphosphanyl dimethyl phosphate

> <PUBCHEM_IUPAC_CAS_NAME>
phosphoric acid dimethoxyphosphino dimethyl ester

> <PUBCHEM_IUPAC_NAME>
dimethoxyphosphanyl dimethyl phosphate

> <PUBCHEM_IUPAC_SYSTEMATIC_NAME>
dimethoxyphosphanyl dimethyl phosphate

> <PUBCHEM_IUPAC_TRADITIONAL_NAME>
phosphoric acid dimethoxyphosphino dimethyl ester

> <PUBCHEM_IUPAC_INCHI>
InChI=1S/C4H12O6P2/c1-6-11(7-2)10-12(5,8-3)9-4/h1-4H3

> <PUBCHEM_IUPAC_INCHIKEY>
GZUJNAIOINJUIH-UHFFFAOYSA-N

> <PUBCHEM_XLOGP3_AA>
-0.5

> <PUBCHEM_EXACT_MASS>
218.010911

> <PUBCHEM_MOLECULAR_FORMULA>
C4H12O6P2

> <PUBCHEM_MOLECULAR_WEIGHT>
218.082004

> <PUBCHEM_OPENEYE_CAN_SMILES>
COP(OC)OP(=O)(OC)OC

> <PUBCHEM_OPENEYE_ISO_SMILES>
COP(OC)OP(=O)(OC)OC

> <PUBCHEM_CACTVS_TPSA>
63.2

> <PUBCHEM_MONOISOTOPIC_WEIGHT>
218.010911

> <PUBCHEM_TOTAL_CHARGE>
0

> <PUBCHEM_HEAVY_ATOM_COUNT>
12

> <PUBCHEM_ATOM_DEF_STEREO_COUNT>
0

> <PUBCHEM_ATOM_UDEF_STEREO_COUNT>
0

> <PUBCHEM_BOND_DEF_STEREO_COUNT>
0

> <PUBCHEM_BOND_UDEF_STEREO_COUNT>
0

> <PUBCHEM_ISOTOPIC_ATOM_COUNT>
0

> <PUBCHEM_COMPONENT_COUNT>
1

> <PUBCHEM_CACTVS_TAUTO_COUNT>
1

> <PUBCHEM_COORDINATE_TYPE>
1
5
255

$$$$

