10275
  -OEChem-06261204253D

 22 23  0     0  0  0  0  0  0999 V2000
    1.4308   -1.4713    0.0008 S   0  0  0  0  0  0  0  0  0  0  0  0
    2.7161    0.7717   -0.0004 N   0  0  0  0  0  0  0  0  0  0  0  0
    0.9496    2.3534   -0.0010 N   0  0  0  0  0  0  0  0  0  0  0  0
    4.0728   -1.1648    0.0002 N   0  0  0  0  0  0  0  0  0  0  0  0
   -0.9265   -0.0955    0.0007 C   0  0  0  0  0  0  0  0  0  0  0  0
    0.5142   -0.0214    0.0004 C   0  0  0  0  0  0  0  0  0  0  0  0
    1.3660    1.0636   -0.0003 C   0  0  0  0  0  0  0  0  0  0  0  0
   -1.6226   -0.1318   -1.2076 C   0  0  0  0  0  0  0  0  0  0  0  0
   -1.6237   -0.1299    1.2085 C   0  0  0  0  0  0  0  0  0  0  0  0
    2.8683   -0.5340    0.0001 C   0  0  0  0  0  0  0  0  0  0  0  0
   -3.0156   -0.2024   -1.2084 C   0  0  0  0  0  0  0  0  0  0  0  0
   -3.0168   -0.2006    1.2077 C   0  0  0  0  0  0  0  0  0  0  0  0
   -3.7127   -0.2369   -0.0007 C   0  0  0  0  0  0  0  0  0  0  0  0
   -1.0948   -0.1045   -2.1581 H   0  0  0  0  0  0  0  0  0  0  0  0
   -1.0967   -0.1011    2.1593 H   0  0  0  0  0  0  0  0  0  0  0  0
   -3.5577   -0.2303   -2.1491 H   0  0  0  0  0  0  0  0  0  0  0  0
   -3.5598   -0.2271    2.1479 H   0  0  0  0  0  0  0  0  0  0  0  0
   -4.7973   -0.2917   -0.0012 H   0  0  0  0  0  0  0  0  0  0  0  0
    1.6055    3.1282   -0.0013 H   0  0  0  0  0  0  0  0  0  0  0  0
   -0.0306    2.6192   -0.0008 H   0  0  0  0  0  0  0  0  0  0  0  0
    4.1462   -2.1768    0.0002 H   0  0  0  0  0  0  0  0  0  0  0  0
    4.9463   -0.6485   -0.0005 H   0  0  0  0  0  0  0  0  0  0  0  0
  1  6  1  0  0  0  0
  1 10  1  0  0  0  0
  2  7  1  0  0  0  0
  2 10  2  0  0  0  0
  3  7  1  0  0  0  0
  3 19  1  0  0  0  0
  3 20  1  0  0  0  0
  4 10  1  0  0  0  0
  4 21  1  0  0  0  0
  4 22  1  0  0  0  0
  5  6  1  0  0  0  0
  5  8  2  0  0  0  0
  5  9  1  0  0  0  0
  6  7  2  0  0  0  0
  8 11  1  0  0  0  0
  8 14  1  0  0  0  0
  9 12  2  0  0  0  0
  9 15  1  0  0  0  0
 11 13  2  0  0  0  0
 11 16  1  0  0  0  0
 12 13  1  0  0  0  0
 12 17  1  0  0  0  0
 13 18  1  0  0  0  0
M  END
> <PUBCHEM_COMPOUND_CID>
10275

> <PUBCHEM_CONFORMER_RMSD>
0.4

> <PUBCHEM_CONFORMER_DIVERSEORDER>
1
2
3

> <PUBCHEM_MMFF94_PARTIAL_CHARGES>
22
1 -0.08
10 0.46
11 -0.15
12 -0.15
13 -0.15
14 0.15
15 0.15
16 0.15
17 0.15
18 0.15
19 0.4
2 -0.57
20 0.4
21 0.4
22 0.4
3 -0.88
4 -0.88
5 0.05
6 -0.01
7 0.31
8 -0.15
9 -0.15

> <PUBCHEM_EFFECTIVE_ROTOR_COUNT>
1

> <PUBCHEM_PHARMACOPHORE_FEATURES>
6
1 3 cation
1 3 donor
1 4 donor
3 2 4 10 cation
5 1 2 6 7 10 rings
6 5 8 9 11 12 13 rings

> <PUBCHEM_HEAVY_ATOM_COUNT>
13

> <PUBCHEM_ATOM_DEF_STEREO_COUNT>
0

> <PUBCHEM_ATOM_UDEF_STEREO_COUNT>
0

> <PUBCHEM_BOND_DEF_STEREO_COUNT>
0

> <PUBCHEM_BOND_UDEF_STEREO_COUNT>
0

> <PUBCHEM_ISOTOPIC_ATOM_COUNT>
0

> <PUBCHEM_COMPONENT_COUNT>
1

> <PUBCHEM_CACTVS_TAUTO_COUNT>
5

> <PUBCHEM_CONFORMER_ID>
0000282300000001

> <PUBCHEM_MMFF94_ENERGY>
28.7558

> <PUBCHEM_FEATURE_SELFOVERLAP>
30.446

> <PUBCHEM_SHAPE_FINGERPRINT>
10219947 1 18408322189959897782
10465860 250 17775016712518120544
11471102 20 18412829074931281700
11578080 2 17316237793284325121
12032990 46 18341327881396376818
124424 183 17846506949560070874
12932764 1 17560809801070211403
13296909 8 16950848118894865040
13538477 17 17385729037114758527
14144814 61 18113617880537602503
14993402 34 18187082849601547830
15219456 202 17846215518690918941
15775835 57 17458338615796118817
16945 1 18410856546786568678
17357990 137 17387102352733802169
17844478 74 17846493738356732405
18175812 5 17775281634358757711
19422 9 17822010878465371847
200 152 18260836994671545807
20201158 50 18131632313306843146
20279233 1 17775289347887815355
20361792 2 18335143115420378484
20645477 70 18411707607494362598
20711985 327 18113617902281529324
20715346 28 17703228399712505161
20871998 22 18116705416979577958
21061003 4 18343294885917455697
21639500 275 18265621982896454005
23175994 123 18201432623137131356
232386 152 16588030078118473095
23559900 14 16845578638828093578
3286 77 18271240526311674455
474 4 17607822607735008904
74978 22 18263081032999259743
77492 1 17676485025534412549
81228 2 18053663865444609824

> <PUBCHEM_SHAPE_MULTIPOLES>
256.44
6.19
1.39
1.07
0.57
0.6
0
-1.51
0
1.23
0
-1.07
-0.08
0

> <PUBCHEM_SHAPE_SELFOVERLAP>
543.588

> <PUBCHEM_SHAPE_VOLUME>
145.4

> <PUBCHEM_COORDINATE_TYPE>
2
5
10

$$$$

