51090933
  -OEChem-06241223002D

 38 39  0     1  0  0  0  0  0999 V2000
    2.2212    1.6750    0.0000 F   0  0  0  0  0  0  0  0  0  0  0  0
    2.0000    0.2782    0.0000 F   0  0  0  0  0  0  0  0  0  0  0  0
    3.6180    1.4537    0.0000 F   0  0  0  0  0  0  0  0  0  0  0  0
    8.5721   -1.6750    0.0000 O   0  0  0  0  0  0  0  0  0  0  0  0
    4.3913    0.1615    0.0000 N   0  0  3  0  0  0  0  0  0  0  0  0
    7.7060   -0.1750    0.0000 N   0  0  0  0  0  0  0  0  0  0  0  0
   10.3041   -0.6750    0.0000 N   0  0  0  0  0  0  0  0  0  0  0  0
   10.3041    1.3250    0.0000 N   0  0  0  0  0  0  0  0  0  0  0  0
    5.9740   -0.1750    0.0000 C   0  0  3  0  0  0  0  0  0  0  0  0
    5.8695    0.8196    0.0000 C   0  0  0  0  0  0  0  0  0  0  0  0
    5.0604   -0.5817    0.0000 C   0  0  0  0  0  0  0  0  0  0  0  0
    4.8913    1.0275    0.0000 C   0  0  0  0  0  0  0  0  0  0  0  0
    6.8400   -0.6750    0.0000 C   0  0  0  0  0  0  0  0  0  0  0  0
    3.3968    0.0569    0.0000 C   0  0  0  0  0  0  0  0  0  0  0  0
    2.8090    0.8659    0.0000 C   0  0  0  0  0  0  0  0  0  0  0  0
    8.5721   -0.6750    0.0000 C   0  0  0  0  0  0  0  0  0  0  0  0
    9.4381   -0.1750    0.0000 C   0  0  0  0  0  0  0  0  0  0  0  0
    9.4381    0.8250    0.0000 C   0  0  0  0  0  0  0  0  0  0  0  0
   11.1702   -0.1750    0.0000 C   0  0  0  0  0  0  0  0  0  0  0  0
   11.1702    0.8250    0.0000 C   0  0  0  0  0  0  0  0  0  0  0  0
   12.0362    1.3250    0.0000 C   0  0  0  0  0  0  0  0  0  0  0  0
    6.4940    0.1627    0.0000 H   0  0  0  0  0  0  0  0  0  0  0  0
    6.4895    0.8196    0.0000 H   0  0  0  0  0  0  0  0  0  0  0  0
    5.9343    1.4362    0.0000 H   0  0  0  0  0  0  0  0  0  0  0  0
    4.5589   -0.9461    0.0000 H   0  0  0  0  0  0  0  0  0  0  0  0
    5.3704   -1.1186    0.0000 H   0  0  0  0  0  0  0  0  0  0  0  0
    5.0829    1.6171    0.0000 H   0  0  0  0  0  0  0  0  0  0  0  0
    4.3249    1.2796    0.0000 H   0  0  0  0  0  0  0  0  0  0  0  0
    6.4415   -1.1499    0.0000 H   0  0  0  0  0  0  0  0  0  0  0  0
    7.2386   -1.1499    0.0000 H   0  0  0  0  0  0  0  0  0  0  0  0
    2.8396   -0.2149    0.0000 H   0  0  0  0  0  0  0  0  0  0  0  0
    3.5677   -0.5391    0.0000 H   0  0  0  0  0  0  0  0  0  0  0  0
    7.7060    0.4450    0.0000 H   0  0  0  0  0  0  0  0  0  0  0  0
    8.9012    1.1350    0.0000 H   0  0  0  0  0  0  0  0  0  0  0  0
   11.7071   -0.4850    0.0000 H   0  0  0  0  0  0  0  0  0  0  0  0
   12.3462    0.7881    0.0000 H   0  0  0  0  0  0  0  0  0  0  0  0
   12.5731    1.6350    0.0000 H   0  0  0  0  0  0  0  0  0  0  0  0
   11.7262    1.8620    0.0000 H   0  0  0  0  0  0  0  0  0  0  0  0
  1 15  1  0  0  0  0
  2 15  1  0  0  0  0
  3 15  1  0  0  0  0
  4 16  2  0  0  0  0
  5 11  1  0  0  0  0
  5 12  1  0  0  0  0
  5 14  1  0  0  0  0
  6 13  1  0  0  0  0
  6 16  1  0  0  0  0
  6 33  1  0  0  0  0
  7 17  2  0  0  0  0
  7 19  1  0  0  0  0
  8 18  2  0  0  0  0
  8 20  1  0  0  0  0
  9 10  1  0  0  0  0
  9 11  1  0  0  0  0
  9 13  1  0  0  0  0
  9 22  1  0  0  0  0
 10 12  1  0  0  0  0
 10 23  1  0  0  0  0
 10 24  1  0  0  0  0
 11 25  1  0  0  0  0
 11 26  1  0  0  0  0
 12 27  1  0  0  0  0
 12 28  1  0  0  0  0
 13 29  1  0  0  0  0
 13 30  1  0  0  0  0
 14 15  1  0  0  0  0
 14 31  1  0  0  0  0
 14 32  1  0  0  0  0
 16 17  1  0  0  0  0
 17 18  1  0  0  0  0
 18 34  1  0  0  0  0
 19 20  2  0  0  0  0
 19 35  1  0  0  0  0
 20 21  1  0  0  0  0
 21 36  1  0  0  0  0
 21 37  1  0  0  0  0
 21 38  1  0  0  0  0
M  END
> <PUBCHEM_COMPOUND_CID>
51090933

> <PUBCHEM_COMPOUND_CANONICALIZED>
1

> <PUBCHEM_CACTVS_COMPLEXITY>
364

> <PUBCHEM_CACTVS_HBOND_ACCEPTOR>
7

> <PUBCHEM_CACTVS_HBOND_DONOR>
1

> <PUBCHEM_CACTVS_ROTATABLE_BOND>
4

> <PUBCHEM_CACTVS_SUBSKEYS>
AAADceBzoYAAAAAAAAAAAAAAAAAAAWAAAAAsAAAAAAAAAAABgAAAHwAQAAAADQjBlhQugBPIEACoARV3VACAgCQXEiAAUIG4dEAAQEhAwSAUAIgAFgDAAMAAAAAIAAAAAAAAAAAAAAAAAAAAAAAAAAAAAA==

> <PUBCHEM_IUPAC_OPENEYE_NAME>
5-methyl-N-[[1-(2,2,2-trifluoroethyl)pyrrolidin-3-yl]methyl]pyrazine-2-carboxamide

> <PUBCHEM_IUPAC_CAS_NAME>
5-methyl-N-[[1-(2,2,2-trifluoroethyl)-3-pyrrolidinyl]methyl]-2-pyrazinecarboxamide

> <PUBCHEM_IUPAC_NAME>
5-methyl-N-[[1-(2,2,2-trifluoroethyl)pyrrolidin-3-yl]methyl]pyrazine-2-carboxamide

> <PUBCHEM_IUPAC_SYSTEMATIC_NAME>
5-methyl-N-[[1-[2,2,2-tris(fluoranyl)ethyl]pyrrolidin-3-yl]methyl]pyrazine-2-carboxamide

> <PUBCHEM_IUPAC_TRADITIONAL_NAME>
5-methyl-N-[[1-(2,2,2-trifluoroethyl)pyrrolidin-3-yl]methyl]pyrazinamide

> <PUBCHEM_IUPAC_INCHI>
InChI=1S/C13H17F3N4O/c1-9-4-18-11(6-17-9)12(21)19-5-10-2-3-20(7-10)8-13(14,15)16/h4,6,10H,2-3,5,7-8H2,1H3,(H,19,21)

> <PUBCHEM_IUPAC_INCHIKEY>
LCAZBDROAKWMDH-UHFFFAOYSA-N

> <PUBCHEM_XLOGP3_AA>
1.3

> <PUBCHEM_EXACT_MASS>
302.135446

> <PUBCHEM_MOLECULAR_FORMULA>
C13H17F3N4O

> <PUBCHEM_MOLECULAR_WEIGHT>
302.29549

> <PUBCHEM_OPENEYE_CAN_SMILES>
CC1=NC=C(N=C1)C(=O)NCC2CCN(C2)CC(F)(F)F

> <PUBCHEM_OPENEYE_ISO_SMILES>
CC1=NC=C(N=C1)C(=O)NCC2CCN(C2)CC(F)(F)F

> <PUBCHEM_CACTVS_TPSA>
58.1

> <PUBCHEM_MONOISOTOPIC_WEIGHT>
302.135446

> <PUBCHEM_TOTAL_CHARGE>
0

> <PUBCHEM_HEAVY_ATOM_COUNT>
21

> <PUBCHEM_ATOM_DEF_STEREO_COUNT>
0

> <PUBCHEM_ATOM_UDEF_STEREO_COUNT>
1

> <PUBCHEM_BOND_DEF_STEREO_COUNT>
0

> <PUBCHEM_BOND_UDEF_STEREO_COUNT>
0

> <PUBCHEM_ISOTOPIC_ATOM_COUNT>
0

> <PUBCHEM_COMPONENT_COUNT>
1

> <PUBCHEM_CACTVS_TAUTO_COUNT>
7

> <PUBCHEM_COORDINATE_TYPE>
1
5
255

> <PUBCHEM_BONDANNOTATIONS>
17  18  8
19  20  8
7  17  8
7  19  8
8  18  8
8  20  8
9  13  3

$$$$

