17395689
  -OEChem-06241222513D

 45 46  0     1  0  0  0  0  0999 V2000
   -1.0451    0.1721    0.6843 O   0  0  0  0  0  0  0  0  0  0  0  0
   -3.0213    1.8971    0.4687 O   0  0  0  0  0  0  0  0  0  0  0  0
   -0.2510   -1.9369    0.2633 O   0  0  0  0  0  0  0  0  0  0  0  0
    5.3867   -1.0664   -0.0667 O   0  0  0  0  0  0  0  0  0  0  0  0
    5.5421    1.0196   -1.0052 O   0  0  0  0  0  0  0  0  0  0  0  0
   -4.4603    0.2246   -0.2165 N   0  0  0  0  0  0  0  0  0  0  0  0
    1.4992    1.2240    0.3278 N   0  0  0  0  0  0  0  0  0  0  0  0
   -6.3055   -1.1206   -0.8000 C   0  0  0  0  0  0  0  0  0  0  0  0
   -6.3964    0.1997   -1.5546 C   0  0  0  0  0  0  0  0  0  0  0  0
   -4.8432   -1.1743   -0.3808 C   0  0  0  0  0  0  0  0  0  0  0  0
   -5.4829    1.1121   -0.7506 C   0  0  0  0  0  0  0  0  0  0  0  0
   -3.2960    0.7012    0.3578 C   0  0  0  0  0  0  0  0  0  0  0  0
   -2.3446   -0.3514    0.8679 C   0  0  2  0  0  0  0  0  0  0  0  0
   -2.6056   -0.6513    2.3258 C   0  0  0  0  0  0  0  0  0  0  0  0
    1.2679   -0.1210    0.2014 C   0  0  0  0  0  0  0  0  0  0  0  0
    2.4654   -0.7279   -0.1068 C   0  0  0  0  0  0  0  0  0  0  0  0
    3.4513    0.2878   -0.1674 C   0  0  0  0  0  0  0  0  0  0  0  0
    2.8264    1.4844    0.1058 C   0  0  0  0  0  0  0  0  0  0  0  0
   -0.0522   -0.7319    0.3781 C   0  0  0  0  0  0  0  0  0  0  0  0
    2.6832   -2.1723   -0.3333 C   0  0  0  0  0  0  0  0  0  0  0  0
    3.3516    2.8618    0.1806 C   0  0  0  0  0  0  0  0  0  0  0  0
    4.8507    0.1451   -0.4552 C   0  0  0  0  0  0  0  0  0  0  0  0
    6.7797   -1.2756   -0.3246 C   0  0  0  0  0  0  0  0  0  0  0  0
   -6.6027   -1.9814   -1.4050 H   0  0  0  0  0  0  0  0  0  0  0  0
   -6.9493   -1.0843    0.0872 H   0  0  0  0  0  0  0  0  0  0  0  0
   -7.4179    0.5827   -1.6268 H   0  0  0  0  0  0  0  0  0  0  0  0
   -6.0026    0.0734   -2.5703 H   0  0  0  0  0  0  0  0  0  0  0  0
   -4.6998   -1.7447    0.5398 H   0  0  0  0  0  0  0  0  0  0  0  0
   -4.2217   -1.6025   -1.1750 H   0  0  0  0  0  0  0  0  0  0  0  0
   -6.0093    1.5619    0.0985 H   0  0  0  0  0  0  0  0  0  0  0  0
   -5.0339    1.9091   -1.3505 H   0  0  0  0  0  0  0  0  0  0  0  0
   -2.4621   -1.2630    0.2760 H   0  0  0  0  0  0  0  0  0  0  0  0
   -2.4422    0.2399    2.9430 H   0  0  0  0  0  0  0  0  0  0  0  0
   -1.9140   -1.4167    2.6934 H   0  0  0  0  0  0  0  0  0  0  0  0
   -3.6293   -0.9954    2.4992 H   0  0  0  0  0  0  0  0  0  0  0  0
    0.7967    1.9161    0.5509 H   0  0  0  0  0  0  0  0  0  0  0  0
    3.5042   -2.3546   -1.0335 H   0  0  0  0  0  0  0  0  0  0  0  0
    1.8100   -2.6564   -0.7791 H   0  0  0  0  0  0  0  0  0  0  0  0
    2.9136   -2.6775    0.6099 H   0  0  0  0  0  0  0  0  0  0  0  0
    3.6231    3.2222   -0.8167 H   0  0  0  0  0  0  0  0  0  0  0  0
    2.6153    3.5560    0.5993 H   0  0  0  0  0  0  0  0  0  0  0  0
    4.2422    2.9030    0.8160 H   0  0  0  0  0  0  0  0  0  0  0  0
    6.9748   -1.2284   -1.3999 H   0  0  0  0  0  0  0  0  0  0  0  0
    7.3778   -0.5325    0.2109 H   0  0  0  0  0  0  0  0  0  0  0  0
    7.0469   -2.2714    0.0387 H   0  0  0  0  0  0  0  0  0  0  0  0
  1 13  1  0  0  0  0
  1 19  1  0  0  0  0
  2 12  2  0  0  0  0
  3 19  2  0  0  0  0
  4 22  1  0  0  0  0
  4 23  1  0  0  0  0
  5 22  2  0  0  0  0
  6 10  1  0  0  0  0
  6 11  1  0  0  0  0
  6 12  1  0  0  0  0
  7 15  1  0  0  0  0
  7 18  1  0  0  0  0
  7 36  1  0  0  0  0
  8  9  1  0  0  0  0
  8 10  1  0  0  0  0
  8 24  1  0  0  0  0
  8 25  1  0  0  0  0
  9 11  1  0  0  0  0
  9 26  1  0  0  0  0
  9 27  1  0  0  0  0
 10 28  1  0  0  0  0
 10 29  1  0  0  0  0
 11 30  1  0  0  0  0
 11 31  1  0  0  0  0
 12 13  1  0  0  0  0
 13 14  1  0  0  0  0
 13 32  1  0  0  0  0
 14 33  1  0  0  0  0
 14 34  1  0  0  0  0
 14 35  1  0  0  0  0
 15 16  2  0  0  0  0
 15 19  1  0  0  0  0
 16 17  1  0  0  0  0
 16 20  1  0  0  0  0
 17 18  2  0  0  0  0
 17 22  1  0  0  0  0
 18 21  1  0  0  0  0
 20 37  1  0  0  0  0
 20 38  1  0  0  0  0
 20 39  1  0  0  0  0
 21 40  1  0  0  0  0
 21 41  1  0  0  0  0
 21 42  1  0  0  0  0
 23 43  1  0  0  0  0
 23 44  1  0  0  0  0
 23 45  1  0  0  0  0
M  END
> <PUBCHEM_COMPOUND_CID>
17395689

> <PUBCHEM_CONFORMER_RMSD>
1.2

> <PUBCHEM_CONFORMER_DIVERSEORDER>
1
14
11
36
20
42
17
35
44
47
6
12
10
38
46
27
29
21
18
3
5
9
13
8
32
30
40
25
31
41
7
24
15
37
34
23
45
2
33
28
26
16
4
43
22
19
39

> <PUBCHEM_MMFF94_PARTIAL_CHARGES>
21
1 -0.43
10 0.3
11 0.3
12 0.57
13 0.34
15 -0.24
16 -0.18
17 -0.09
18 -0.33
19 0.81
2 -0.57
20 0.18
21 0.18
22 0.81
23 0.28
3 -0.57
36 0.27
4 -0.43
5 -0.57
6 -0.66
7 0.03

> <PUBCHEM_EFFECTIVE_ROTOR_COUNT>
8

> <PUBCHEM_PHARMACOPHORE_FEATURES>
7
1 2 acceptor
1 3 acceptor
1 5 acceptor
1 7 cation
1 7 donor
5 6 8 9 10 11 rings
5 7 15 16 17 18 rings

> <PUBCHEM_HEAVY_ATOM_COUNT>
23

> <PUBCHEM_ATOM_DEF_STEREO_COUNT>
0

> <PUBCHEM_ATOM_UDEF_STEREO_COUNT>
1

> <PUBCHEM_BOND_DEF_STEREO_COUNT>
0

> <PUBCHEM_BOND_UDEF_STEREO_COUNT>
0

> <PUBCHEM_ISOTOPIC_ATOM_COUNT>
0

> <PUBCHEM_COMPONENT_COUNT>
1

> <PUBCHEM_CACTVS_TAUTO_COUNT>
3

> <PUBCHEM_CONFORMER_ID>
01096FE900000001

> <PUBCHEM_MMFF94_ENERGY>
41.035

> <PUBCHEM_FEATURE_SELFOVERLAP>
35.52

> <PUBCHEM_SHAPE_FINGERPRINT>
10366900 7 18201998837044437472
10693767 8 18041555970723032310
10763959 59 17775567524477752068
11089746 13 18202004330428603314
11545043 162 17346303865567235880
12011746 2 17988926677858015101
12166972 35 17894914027278973352
12236239 1 17530963596319801585
12403260 363 18334009506037086392
12616971 3 17822555149837988921
12645989 146 18408320012574957494
13073987 5 14201387339856626862
13533116 47 17346333634080640027
13668630 136 17458340853458275566
13862211 1 18335418015461769090
14528608 73 18411986836593164645
14849402 71 9654988075740852510
15003188 100 18270965648230949757
15048467 5 12679460889192518606
15183329 4 18272654583800395482
15475509 84 12319199311767239926
17349148 13 17458333148582241418
18681886 176 18113626681258116106
200 152 17894629258061988897
20028762 73 17967814959784116990
20645477 70 18336825394070837478
21033648 29 17917430865347413544
21054139 6 17748831808210640791
21150785 3 17095236987436532748
21267235 1 18334007289786209219
21521239 73 18259707795734298742
21521721 280 10015566308789442542
21709351 56 18408890654582957085
221357 26 18410296925480859381
22224240 67 9223220833074621252
23402539 116 17603861230300475329
23557571 272 5112013806848677491
23559900 14 18338240353871819529
23576562 1 18198332967073109164
2838139 119 18060137665249194181
29717793 49 17749103396172336860
3004659 81 18409455786405878473
312425 54 7925639946951030405
314173 85 4823216126485099227
335352 9 18411415117039419518
351380 180 18411982455331065593
3545911 37 18131630080477444843
4325135 7 18259705605991671471
5283156 175 17530963605490134271
5283173 99 18202289095946556517
542803 24 13254795724446075378
7495541 125 16877949295572169417

> <PUBCHEM_SHAPE_MULTIPOLES>
434.02
16.69
2.05
1.16
4.43
0.65
-0.41
-1.54
7.11
-1.79
0.01
1.52
-0.12
0.23

> <PUBCHEM_SHAPE_SELFOVERLAP>
907.015

> <PUBCHEM_SHAPE_VOLUME>
249

> <PUBCHEM_COORDINATE_TYPE>
2
5
10

$$$$

