9398
  -OEChem-06261203402D

 29 30  0     0  0  0  0  0  0999 V2000
    4.5981    0.0000    0.0000 S   0  0  0  0  0  0  0  0  0  0  0  0
    4.5981    4.0000    0.0000 F   0  0  0  0  0  0  0  0  0  0  0  0
    4.5981   -4.0000    0.0000 F   0  0  0  0  0  0  0  0  0  0  0  0
    5.5981    0.0000    0.0000 O   0  0  0  0  0  0  0  0  0  0  0  0
    3.5981    0.0000    0.0000 O   0  0  0  0  0  0  0  0  0  0  0  0
    2.0000   -2.5000    0.0000 O   0  5  0  0  0  0  0  0  0  0  0  0
    6.3301    4.0000    0.0000 O   0  5  0  0  0  0  0  0  0  0  0  0
    2.8660   -4.0000    0.0000 O   0  0  0  0  0  0  0  0  0  0  0  0
    7.1962    2.5000    0.0000 O   0  0  0  0  0  0  0  0  0  0  0  0
    2.8660   -3.0000    0.0000 N   0  3  0  0  0  0  0  0  0  0  0  0
    6.3301    3.0000    0.0000 N   0  3  0  0  0  0  0  0  0  0  0  0
    4.5981   -1.0000    0.0000 C   0  0  0  0  0  0  0  0  0  0  0  0
    4.5981    1.0000    0.0000 C   0  0  0  0  0  0  0  0  0  0  0  0
    3.7320   -1.5000    0.0000 C   0  0  0  0  0  0  0  0  0  0  0  0
    5.4641    1.5000    0.0000 C   0  0  0  0  0  0  0  0  0  0  0  0
    3.7320    1.5000    0.0000 C   0  0  0  0  0  0  0  0  0  0  0  0
    5.4641   -1.5000    0.0000 C   0  0  0  0  0  0  0  0  0  0  0  0
    3.7320   -2.5000    0.0000 C   0  0  0  0  0  0  0  0  0  0  0  0
    5.4641    2.5000    0.0000 C   0  0  0  0  0  0  0  0  0  0  0  0
    3.7320    2.5000    0.0000 C   0  0  0  0  0  0  0  0  0  0  0  0
    5.4641   -2.5000    0.0000 C   0  0  0  0  0  0  0  0  0  0  0  0
    4.5981   -3.0000    0.0000 C   0  0  0  0  0  0  0  0  0  0  0  0
    4.5981    3.0000    0.0000 C   0  0  0  0  0  0  0  0  0  0  0  0
    3.1951   -1.1900    0.0000 H   0  0  0  0  0  0  0  0  0  0  0  0
    6.0010    1.1900    0.0000 H   0  0  0  0  0  0  0  0  0  0  0  0
    6.0010   -1.1900    0.0000 H   0  0  0  0  0  0  0  0  0  0  0  0
    3.1951    1.1900    0.0000 H   0  0  0  0  0  0  0  0  0  0  0  0
    6.0010   -2.8100    0.0000 H   0  0  0  0  0  0  0  0  0  0  0  0
    3.1951    2.8100    0.0000 H   0  0  0  0  0  0  0  0  0  0  0  0
  1  4  2  0  0  0  0
  1  5  2  0  0  0  0
  1 12  1  0  0  0  0
  1 13  1  0  0  0  0
  2 23  1  0  0  0  0
  3 22  1  0  0  0  0
  6 10  1  0  0  0  0
  7 11  1  0  0  0  0
  8 10  2  0  0  0  0
  9 11  2  0  0  0  0
 10 18  1  0  0  0  0
 11 19  1  0  0  0  0
 12 14  2  0  0  0  0
 12 17  1  0  0  0  0
 13 15  2  0  0  0  0
 13 16  1  0  0  0  0
 14 18  1  0  0  0  0
 14 24  1  0  0  0  0
 15 19  1  0  0  0  0
 15 25  1  0  0  0  0
 16 20  2  0  0  0  0
 16 27  1  0  0  0  0
 17 21  2  0  0  0  0
 17 26  1  0  0  0  0
 18 22  2  0  0  0  0
 19 23  2  0  0  0  0
 20 23  1  0  0  0  0
 20 29  1  0  0  0  0
 21 22  1  0  0  0  0
 21 28  1  0  0  0  0
M  CHG  4   6  -1   7  -1  10   1  11   1
M  END
> <PUBCHEM_COMPOUND_CID>
9398

> <PUBCHEM_COMPOUND_CANONICALIZED>
1

> <PUBCHEM_CACTVS_COMPLEXITY>
526

> <PUBCHEM_CACTVS_HBOND_ACCEPTOR>
8

> <PUBCHEM_CACTVS_HBOND_DONOR>
0

> <PUBCHEM_CACTVS_ROTATABLE_BOND>
2

> <PUBCHEM_CACTVS_SUBSKEYS>
AAADcYBzOYBAAAAAAAAAAAAAAAAAAAAAAAAwYAAAAAAAAAABQAAAHQQEAAAACAiBUAgwwYAQQAqBACRCQ3DCAAAgChAoiBgAZIoIICKgkZGAIARggAAoyAcQAAAAAAAAACAAAAAAAAAAQAAAAAAAAAAAAA==

> <PUBCHEM_IUPAC_OPENEYE_NAME>
1-fluoro-4-(4-fluoro-3-nitro-phenyl)sulfonyl-2-nitro-benzene

> <PUBCHEM_IUPAC_CAS_NAME>
1-fluoro-4-(4-fluoro-3-nitrophenyl)sulfonyl-2-nitrobenzene

> <PUBCHEM_IUPAC_NAME>
1-fluoro-4-(4-fluoro-3-nitrophenyl)sulfonyl-2-nitrobenzene

> <PUBCHEM_IUPAC_SYSTEMATIC_NAME>
1-fluoranyl-4-(4-fluoranyl-3-nitro-phenyl)sulfonyl-2-nitro-benzene

> <PUBCHEM_IUPAC_TRADITIONAL_NAME>
1-fluoro-4-(4-fluoro-3-nitro-phenyl)sulfonyl-2-nitro-benzene

> <PUBCHEM_IUPAC_INCHI>
InChI=1S/C12H6F2N2O6S/c13-9-3-1-7(5-11(9)15(17)18)23(21,22)8-2-4-10(14)12(6-8)16(19)20/h1-6H

> <PUBCHEM_IUPAC_INCHIKEY>
KHAWDEWNXJIVCJ-UHFFFAOYSA-N

> <PUBCHEM_XLOGP3_AA>
2.6

> <PUBCHEM_EXACT_MASS>
343.991463

> <PUBCHEM_MOLECULAR_FORMULA>
C12H6F2N2O6S

> <PUBCHEM_MOLECULAR_WEIGHT>
344.247646

> <PUBCHEM_OPENEYE_CAN_SMILES>
C1=CC(=C(C=C1S(=O)(=O)C2=CC(=C(C=C2)F)[N+](=O)[O-])[N+](=O)[O-])F

> <PUBCHEM_OPENEYE_ISO_SMILES>
C1=CC(=C(C=C1S(=O)(=O)C2=CC(=C(C=C2)F)[N+](=O)[O-])[N+](=O)[O-])F

> <PUBCHEM_CACTVS_TPSA>
134

> <PUBCHEM_MONOISOTOPIC_WEIGHT>
343.991463

> <PUBCHEM_TOTAL_CHARGE>
0

> <PUBCHEM_HEAVY_ATOM_COUNT>
23

> <PUBCHEM_ATOM_DEF_STEREO_COUNT>
0

> <PUBCHEM_ATOM_UDEF_STEREO_COUNT>
0

> <PUBCHEM_BOND_DEF_STEREO_COUNT>
0

> <PUBCHEM_BOND_UDEF_STEREO_COUNT>
0

> <PUBCHEM_ISOTOPIC_ATOM_COUNT>
0

> <PUBCHEM_COMPONENT_COUNT>
1

> <PUBCHEM_CACTVS_TAUTO_COUNT>
1

> <PUBCHEM_COORDINATE_TYPE>
1
5
255

> <PUBCHEM_BONDANNOTATIONS>
12  14  8
12  17  8
13  15  8
13  16  8
14  18  8
15  19  8
16  20  8
17  21  8
18  22  8
19  23  8
20  23  8
21  22  8

$$$$

