10959
  -OEChem-06261205103D

 14 13  0     0  0  0  0  0  0999 V2000
   -2.7459   -0.8890    0.5547 Cl  0  0  0  0  0  0  0  0  0  0  0  0
    0.1249   -0.2426   -0.2737 O   0  0  0  0  0  0  0  0  0  0  0  0
    1.8939    1.0560    0.4478 O   0  0  0  0  0  0  0  0  0  0  0  0
   -0.7669    0.8619   -0.0923 C   0  0  0  0  0  0  0  0  0  0  0  0
   -2.1766    0.4499   -0.4743 C   0  0  0  0  0  0  0  0  0  0  0  0
    1.4298    0.0009    0.0372 C   0  0  0  0  0  0  0  0  0  0  0  0
    2.2408   -1.2370   -0.1995 C   0  0  0  0  0  0  0  0  0  0  0  0
   -0.4463    1.6904   -0.7343 H   0  0  0  0  0  0  0  0  0  0  0  0
   -0.7356    1.1902    0.9535 H   0  0  0  0  0  0  0  0  0  0  0  0
   -2.8745    1.2841   -0.3621 H   0  0  0  0  0  0  0  0  0  0  0  0
   -2.2097    0.0896   -1.5065 H   0  0  0  0  0  0  0  0  0  0  0  0
    2.1840   -1.5217   -1.2531 H   0  0  0  0  0  0  0  0  0  0  0  0
    1.8770   -2.0462    0.4387 H   0  0  0  0  0  0  0  0  0  0  0  0
    3.2867   -1.0389    0.0518 H   0  0  0  0  0  0  0  0  0  0  0  0
  1  5  1  0  0  0  0
  2  4  1  0  0  0  0
  2  6  1  0  0  0  0
  3  6  2  0  0  0  0
  4  5  1  0  0  0  0
  4  8  1  0  0  0  0
  4  9  1  0  0  0  0
  5 10  1  0  0  0  0
  5 11  1  0  0  0  0
  6  7  1  0  0  0  0
  7 12  1  0  0  0  0
  7 13  1  0  0  0  0
  7 14  1  0  0  0  0
M  END
> <PUBCHEM_COMPOUND_CID>
10959

> <PUBCHEM_CONFORMER_RMSD>
0.4

> <PUBCHEM_CONFORMER_DIVERSEORDER>
1
29
12
4
25
22
13
26
3
17
27
16
23
21
6
2
28
19
7
10
8
24
9
20
18
11
15
14
5

> <PUBCHEM_MMFF94_PARTIAL_CHARGES>
7
1 -0.29
2 -0.43
3 -0.57
4 0.28
5 0.29
6 0.66
7 0.06

> <PUBCHEM_EFFECTIVE_ROTOR_COUNT>
3

> <PUBCHEM_PHARMACOPHORE_FEATURES>
1
1 3 acceptor

> <PUBCHEM_HEAVY_ATOM_COUNT>
7

> <PUBCHEM_ATOM_DEF_STEREO_COUNT>
0

> <PUBCHEM_ATOM_UDEF_STEREO_COUNT>
0

> <PUBCHEM_BOND_DEF_STEREO_COUNT>
0

> <PUBCHEM_BOND_UDEF_STEREO_COUNT>
0

> <PUBCHEM_ISOTOPIC_ATOM_COUNT>
0

> <PUBCHEM_COMPONENT_COUNT>
1

> <PUBCHEM_CACTVS_TAUTO_COUNT>
1

> <PUBCHEM_CONFORMER_ID>
00002ACF00000001

> <PUBCHEM_MMFF94_ENERGY>
3.8675

> <PUBCHEM_FEATURE_SELFOVERLAP>
5.074

> <PUBCHEM_SHAPE_FINGERPRINT>
10857977 72 18270971128667053257
12932741 1 18343309192527371885
23552423 10 18060696216913238135
29004967 10 18410293588359374385
5460574 1 9079115570166980861

> <PUBCHEM_SHAPE_MULTIPOLES>
134.19
4.14
1.23
0.72
0.94
0.13
0.01
1.18
0.27
-0.17
0.07
0.12
0.01
0.49

> <PUBCHEM_SHAPE_SELFOVERLAP>
233.065

> <PUBCHEM_SHAPE_VOLUME>
89.6

> <PUBCHEM_COORDINATE_TYPE>
2
5
10

$$$$

