11795
  -OEChem-06261206073D

 28 30  0     0  0  0  0  0  0999 V2000
    1.0087    0.1548   -0.0005 C   0  0  0  0  0  0  0  0  0  0  0  0
   -0.0826   -0.7292   -0.0008 C   0  0  0  0  0  0  0  0  0  0  0  0
    2.3235   -0.3689    0.0001 C   0  0  0  0  0  0  0  0  0  0  0  0
   -1.4605   -0.2653   -0.0004 C   0  0  0  0  0  0  0  0  0  0  0  0
    0.1196   -2.1096   -0.0004 C   0  0  0  0  0  0  0  0  0  0  0  0
    0.8240    1.5470   -0.0006 C   0  0  0  0  0  0  0  0  0  0  0  0
    2.5083   -1.7611    0.0005 C   0  0  0  0  0  0  0  0  0  0  0  0
    3.4148    0.5150    0.0006 C   0  0  0  0  0  0  0  0  0  0  0  0
    1.4125   -2.6246    0.0002 C   0  0  0  0  0  0  0  0  0  0  0  0
   -2.1144   -0.0446    1.2079 C   0  0  0  0  0  0  0  0  0  0  0  0
   -2.1154   -0.0447   -1.2082 C   0  0  0  0  0  0  0  0  0  0  0  0
    1.9197    2.4105   -0.0003 C   0  0  0  0  0  0  0  0  0  0  0  0
    3.2127    1.8955    0.0002 C   0  0  0  0  0  0  0  0  0  0  0  0
   -3.4361    0.4008    1.2084 C   0  0  0  0  0  0  0  0  0  0  0  0
   -3.4372    0.4008   -1.2075 C   0  0  0  0  0  0  0  0  0  0  0  0
   -4.0976    0.6235    0.0008 C   0  0  0  0  0  0  0  0  0  0  0  0
   -0.7200   -2.8013   -0.0005 H   0  0  0  0  0  0  0  0  0  0  0  0
   -0.1640    2.0002   -0.0010 H   0  0  0  0  0  0  0  0  0  0  0  0
    3.5100   -2.1858    0.0010 H   0  0  0  0  0  0  0  0  0  0  0  0
    4.4343    0.1348    0.0011 H   0  0  0  0  0  0  0  0  0  0  0  0
    1.5694   -3.6994    0.0004 H   0  0  0  0  0  0  0  0  0  0  0  0
   -1.6124   -0.2130    2.1575 H   0  0  0  0  0  0  0  0  0  0  0  0
   -1.6143   -0.2131   -2.1583 H   0  0  0  0  0  0  0  0  0  0  0  0
    1.7636    3.4853   -0.0005 H   0  0  0  0  0  0  0  0  0  0  0  0
    4.0654    2.5683    0.0005 H   0  0  0  0  0  0  0  0  0  0  0  0
   -3.9503    0.5744    2.1491 H   0  0  0  0  0  0  0  0  0  0  0  0
   -3.9523    0.5746   -2.1477 H   0  0  0  0  0  0  0  0  0  0  0  0
   -5.1267    0.9705    0.0013 H   0  0  0  0  0  0  0  0  0  0  0  0
  1  2  1  0  0  0  0
  1  3  1  0  0  0  0
  1  6  2  0  0  0  0
  2  4  1  0  0  0  0
  2  5  2  0  0  0  0
  3  7  1  0  0  0  0
  3  8  2  0  0  0  0
  4 10  2  0  0  0  0
  4 11  1  0  0  0  0
  5  9  1  0  0  0  0
  5 17  1  0  0  0  0
  6 12  1  0  0  0  0
  6 18  1  0  0  0  0
  7  9  2  0  0  0  0
  7 19  1  0  0  0  0
  8 13  1  0  0  0  0
  8 20  1  0  0  0  0
  9 21  1  0  0  0  0
 10 14  1  0  0  0  0
 10 22  1  0  0  0  0
 11 15  2  0  0  0  0
 11 23  1  0  0  0  0
 12 13  2  0  0  0  0
 12 24  1  0  0  0  0
 13 25  1  0  0  0  0
 14 16  2  0  0  0  0
 14 26  1  0  0  0  0
 15 16  1  0  0  0  0
 15 27  1  0  0  0  0
 16 28  1  0  0  0  0
M  END
> <PUBCHEM_COMPOUND_CID>
11795

> <PUBCHEM_CONFORMER_RMSD>
0.6

> <PUBCHEM_CONFORMER_DIVERSEORDER>
1

> <PUBCHEM_MMFF94_PARTIAL_CHARGES>
24
10 -0.15
11 -0.15
12 -0.15
13 -0.15
14 -0.15
15 -0.15
16 -0.15
17 0.15
18 0.15
19 0.15
20 0.15
21 0.15
22 0.15
23 0.15
24 0.15
25 0.15
26 0.15
27 0.15
28 0.15
5 -0.15
6 -0.15
7 -0.15
8 -0.15
9 -0.15

> <PUBCHEM_EFFECTIVE_ROTOR_COUNT>
1

> <PUBCHEM_PHARMACOPHORE_FEATURES>
3
6 1 2 3 5 7 9 rings
6 1 3 6 8 12 13 rings
6 4 10 11 14 15 16 rings

> <PUBCHEM_HEAVY_ATOM_COUNT>
16

> <PUBCHEM_ATOM_DEF_STEREO_COUNT>
0

> <PUBCHEM_ATOM_UDEF_STEREO_COUNT>
0

> <PUBCHEM_BOND_DEF_STEREO_COUNT>
0

> <PUBCHEM_BOND_UDEF_STEREO_COUNT>
0

> <PUBCHEM_ISOTOPIC_ATOM_COUNT>
0

> <PUBCHEM_COMPONENT_COUNT>
1

> <PUBCHEM_CACTVS_TAUTO_COUNT>
1

> <PUBCHEM_CONFORMER_ID>
00002E1300000001

> <PUBCHEM_MMFF94_ENERGY>
56.397

> <PUBCHEM_FEATURE_SELFOVERLAP>
15.249

> <PUBCHEM_SHAPE_FINGERPRINT>
104564 63 17975406129526813444
10608611 8 18272936063462515629
10967382 1 18410856572799114980
10980938 120 18410575097648207606
11471102 20 18411420639222389852
11543360 7 15502654832839486456
11640471 11 17604415397209306817
11725454 13 16914015497693481735
12236239 1 17676489471126198787
12553582 1 17976816815672572022
12654215 9 18271531995619254316
13009979 54 17532089586574536027
13134695 92 18197506327217771542
13140716 1 18339365137376834842
13583140 156 16700919097358653872
14251717 144 18409173228865417559
15219456 202 18131068255636643339
15309172 13 18340767044223785425
15342168 16 18269827632390332581
15442244 35 18047468112794523209
15653759 3 17203608185736846977
15775835 57 18260266322066356389
16752209 62 16515982414720147831
16945 1 18410574019727655718
1813 80 17608919125665188390
18186145 218 18334852801327152052
18219364 16 18342171124904404569
19049666 15 17773602821937109373
204376 136 18268146470457958320
20510252 161 17542787504057700400
20645476 183 17894920615995948311
20645477 70 18338243772760589799
21041028 32 18121212349058321976
21499 59 18337112258935650709
21524375 3 18268151950709614490
21639500 275 18410022026188190981
22112679 90 17240485848866652577
2255824 54 18335420213799475918
22854114 111 18410572890103673673
23175994 123 18053940929067842854
2334 1 17978510836888789652
23419403 2 17126527048042640550
23557571 272 17418369186942366573
23558518 356 17910677562399076202
23559900 14 16629963355563363930
23598291 2 17968383445733572127
238 59 17910155469989215469
25 1 18411699868142214252
2748010 2 18194955250035736414
3060560 45 18334576871390903094
350125 39 17907571437428217296
474 4 18408604729851303025
6049 1 17845646075168874469
633830 44 18115291319976431660
7364860 26 18336263530722633654
77492 1 17676491678686751847
81228 2 17041488778155435562
8272917 22 18335696204440059455
84936 182 18041286469418524528
9981440 41 16594807283462432600

> <PUBCHEM_SHAPE_MULTIPOLES>
329.27
6.4
2.37
0.98
3.7
0.52
0
-2.27
0
-2.57
0
1.01
-0.06
0

> <PUBCHEM_SHAPE_SELFOVERLAP>
739.062

> <PUBCHEM_SHAPE_VOLUME>
160.9

> <PUBCHEM_COORDINATE_TYPE>
2
5
10

$$$$

