6480
  -OEChem-06261201203D

 18 17  0     0  0  0  0  0  0999 V2000
   -2.4323    0.4228   -0.0887 O   0  0  0  0  0  0  0  0  0  0  0  0
    2.4394    0.4020   -0.0993 O   0  0  0  0  0  0  0  0  0  0  0  0
   -0.0025   -1.6236    1.0449 O   0  5  0  0  0  0  0  0  0  0  0  0
   -0.0246   -1.4865   -1.1540 O   0  0  0  0  0  0  0  0  0  0  0  0
   -0.0021   -0.9980   -0.0199 N   0  3  0  0  0  0  0  0  0  0  0  0
    0.0041    0.4906    0.0698 C   0  0  0  0  0  0  0  0  0  0  0  0
   -1.2544    0.9871   -0.6540 C   0  0  0  0  0  0  0  0  0  0  0  0
    1.2637    0.9765   -0.6596 C   0  0  0  0  0  0  0  0  0  0  0  0
    0.0086    0.8290    1.5607 C   0  0  0  0  0  0  0  0  0  0  0  0
   -1.3298    2.0774   -0.5711 H   0  0  0  0  0  0  0  0  0  0  0  0
   -1.2413    0.7359   -1.7211 H   0  0  0  0  0  0  0  0  0  0  0  0
    1.3538    2.0673   -0.6001 H   0  0  0  0  0  0  0  0  0  0  0  0
    1.2487    0.7131   -1.7233 H   0  0  0  0  0  0  0  0  0  0  0  0
    0.0348    1.9177    1.6920 H   0  0  0  0  0  0  0  0  0  0  0  0
    0.8787    0.4294    2.0952 H   0  0  0  0  0  0  0  0  0  0  0  0
   -0.8925    0.4759    2.0774 H   0  0  0  0  0  0  0  0  0  0  0  0
   -3.1878    0.7879   -0.5800 H   0  0  0  0  0  0  0  0  0  0  0  0
    2.5915    0.8222    0.7638 H   0  0  0  0  0  0  0  0  0  0  0  0
  1  7  1  0  0  0  0
  1 17  1  0  0  0  0
  2  8  1  0  0  0  0
  2 18  1  0  0  0  0
  3  5  1  0  0  0  0
  4  5  2  0  0  0  0
  5  6  1  0  0  0  0
  6  7  1  0  0  0  0
  6  8  1  0  0  0  0
  6  9  1  0  0  0  0
  7 10  1  0  0  0  0
  7 11  1  0  0  0  0
  8 12  1  0  0  0  0
  8 13  1  0  0  0  0
  9 14  1  0  0  0  0
  9 15  1  0  0  0  0
  9 16  1  0  0  0  0
M  CHG  2   3  -1   5   1
M  END
> <PUBCHEM_COMPOUND_CID>
6480

> <PUBCHEM_CONFORMER_RMSD>
0.6

> <PUBCHEM_CONFORMER_DIVERSEORDER>
1
10
6
11
12
4
13
3
14
15
16
5
2
9
7
8

> <PUBCHEM_MMFF94_PARTIAL_CHARGES>
10
1 -0.68
17 0.4
18 0.4
2 -0.68
3 -0.52
4 -0.52
5 0.8
6 0.24
7 0.28
8 0.28

> <PUBCHEM_EFFECTIVE_ROTOR_COUNT>
3

> <PUBCHEM_PHARMACOPHORE_FEATURES>
7
1 1 acceptor
1 1 donor
1 2 acceptor
1 2 donor
1 3 acceptor
1 3 anion
1 4 acceptor

> <PUBCHEM_HEAVY_ATOM_COUNT>
9

> <PUBCHEM_ATOM_DEF_STEREO_COUNT>
0

> <PUBCHEM_ATOM_UDEF_STEREO_COUNT>
0

> <PUBCHEM_BOND_DEF_STEREO_COUNT>
0

> <PUBCHEM_BOND_UDEF_STEREO_COUNT>
0

> <PUBCHEM_ISOTOPIC_ATOM_COUNT>
0

> <PUBCHEM_COMPONENT_COUNT>
1

> <PUBCHEM_CACTVS_TAUTO_COUNT>
1

> <PUBCHEM_CONFORMER_ID>
0000195000000001

> <PUBCHEM_MMFF94_ENERGY>
23.3926

> <PUBCHEM_FEATURE_SELFOVERLAP>
35.6

> <PUBCHEM_SHAPE_FINGERPRINT>
12423570 1 15213017154518017617
137420 1 13141468846270337029
21040471 1 18343021060267131644
29004967 10 17625825237790843553
5084963 1 18413107264237093725
5943 1 5519815449682088504

> <PUBCHEM_SHAPE_MULTIPOLES>
156.76
2.09
1.51
1.22
0.02
0.66
-0.38
-0.73
0.39
-0.01
0.02
0
0.01
0

> <PUBCHEM_SHAPE_SELFOVERLAP>
297.125

> <PUBCHEM_SHAPE_VOLUME>
97.6

> <PUBCHEM_COORDINATE_TYPE>
2
5
10

$$$$

