11544
  -OEChem-06261205483D

 16 15  0     0  0  0  0  0  0999 V2000
    2.8077    0.2102   -0.0007 S   0  0  0  0  0  0  0  0  0  0  0  0
    0.2797   -0.9097    0.0029 N   0  0  0  0  0  0  0  0  0  0  0  0
   -0.8343    0.0489   -0.0001 C   0  0  0  0  0  0  0  0  0  0  0  0
   -0.7272    0.9092   -1.2587 C   0  0  0  0  0  0  0  0  0  0  0  0
   -2.1383   -0.7482   -0.0029 C   0  0  0  0  0  0  0  0  0  0  0  0
   -0.7331    0.9106    1.2581 C   0  0  0  0  0  0  0  0  0  0  0  0
    1.3454   -0.4209    0.0013 C   0  0  0  0  0  0  0  0  0  0  0  0
   -0.6596    0.2898   -2.1610 H   0  0  0  0  0  0  0  0  0  0  0  0
   -1.6131    1.5467   -1.3639 H   0  0  0  0  0  0  0  0  0  0  0  0
    0.1386    1.5799   -1.2507 H   0  0  0  0  0  0  0  0  0  0  0  0
   -2.2072   -1.3951    0.8793 H   0  0  0  0  0  0  0  0  0  0  0  0
   -2.2030   -1.3957   -0.8850 H   0  0  0  0  0  0  0  0  0  0  0  0
   -3.0110   -0.0861   -0.0052 H   0  0  0  0  0  0  0  0  0  0  0  0
    0.1342    1.5795    1.2542 H   0  0  0  0  0  0  0  0  0  0  0  0
   -1.6185    1.5497    1.3576 H   0  0  0  0  0  0  0  0  0  0  0  0
   -0.6716    0.2920    2.1614 H   0  0  0  0  0  0  0  0  0  0  0  0
  1  7  2  0  0  0  0
  2  3  1  0  0  0  0
  2  7  2  0  0  0  0
  3  4  1  0  0  0  0
  3  5  1  0  0  0  0
  3  6  1  0  0  0  0
  4  8  1  0  0  0  0
  4  9  1  0  0  0  0
  4 10  1  0  0  0  0
  5 11  1  0  0  0  0
  5 12  1  0  0  0  0
  5 13  1  0  0  0  0
  6 14  1  0  0  0  0
  6 15  1  0  0  0  0
  6 16  1  0  0  0  0
M  END
> <PUBCHEM_COMPOUND_CID>
11544

> <PUBCHEM_CONFORMER_RMSD>
0.4

> <PUBCHEM_CONFORMER_DIVERSEORDER>
1
2

> <PUBCHEM_MMFF94_PARTIAL_CHARGES>
4
1 -0.27
2 -0.55
3 0.25
7 0.57

> <PUBCHEM_EFFECTIVE_ROTOR_COUNT>
1

> <PUBCHEM_PHARMACOPHORE_FEATURES>
3
1 1 acceptor
1 2 acceptor
4 3 4 5 6 hydrophobe

> <PUBCHEM_HEAVY_ATOM_COUNT>
7

> <PUBCHEM_ATOM_DEF_STEREO_COUNT>
0

> <PUBCHEM_ATOM_UDEF_STEREO_COUNT>
0

> <PUBCHEM_BOND_DEF_STEREO_COUNT>
0

> <PUBCHEM_BOND_UDEF_STEREO_COUNT>
0

> <PUBCHEM_ISOTOPIC_ATOM_COUNT>
0

> <PUBCHEM_COMPONENT_COUNT>
1

> <PUBCHEM_CACTVS_TAUTO_COUNT>
1

> <PUBCHEM_CONFORMER_ID>
00002D1800000001

> <PUBCHEM_MMFF94_ENERGY>
15.6789

> <PUBCHEM_FEATURE_SELFOVERLAP>
15.228

> <PUBCHEM_SHAPE_FINGERPRINT>
14128692 85 18052813650687352047
16714656 1 18272654510812422694
20096714 4 17679291125369260504
23552449 1 17846225487452600548
24536 1 17898018060062148986
29004967 10 17703781501290047211
369184 2 16200435762486201568
5084963 1 18342738524828923306
5460574 1 9223237347049768290
5943 1 17909225253403777957

> <PUBCHEM_SHAPE_MULTIPOLES>
142.93
3.14
1.07
1.06
2.12
0.01
-0.06
0
0.3
-0.33
-0.41
-0.26
0
0

> <PUBCHEM_SHAPE_SELFOVERLAP>
257.545

> <PUBCHEM_SHAPE_VOLUME>
95

> <PUBCHEM_COORDINATE_TYPE>
2
5
10

$$$$

