11816
  -OEChem-06261206092D

 30 31  0     0  0  0  0  0  0999 V2000
    4.5981    1.0000    0.0000 O   0  0  0  0  0  0  0  0  0  0  0  0
    2.8660   -1.0000    0.0000 O   0  0  0  0  0  0  0  0  0  0  0  0
    3.7320    0.5000    0.0000 O   0  0  0  0  0  0  0  0  0  0  0  0
    5.4641   -0.5000    0.0000 C   0  0  0  0  0  0  0  0  0  0  0  0
    4.5981   -1.0000    0.0000 C   0  0  0  0  0  0  0  0  0  0  0  0
    5.4641    0.5000    0.0000 C   0  0  0  0  0  0  0  0  0  0  0  0
    6.3301    1.0000    0.0000 C   0  0  0  0  0  0  0  0  0  0  0  0
    6.3301   -1.0000    0.0000 C   0  0  0  0  0  0  0  0  0  0  0  0
    4.5981   -2.0000    0.0000 C   0  0  0  0  0  0  0  0  0  0  0  0
    6.3301   -2.0000    0.0000 C   0  0  0  0  0  0  0  0  0  0  0  0
    5.4641   -2.5000    0.0000 C   0  0  0  0  0  0  0  0  0  0  0  0
    7.1962    0.5000    0.0000 C   0  0  0  0  0  0  0  0  0  0  0  0
    6.3301    2.0000    0.0000 C   0  0  0  0  0  0  0  0  0  0  0  0
    3.7320   -0.5000    0.0000 C   0  0  0  0  0  0  0  0  0  0  0  0
    8.0622    1.0000    0.0000 C   0  0  0  0  0  0  0  0  0  0  0  0
    7.1962    2.5000    0.0000 C   0  0  0  0  0  0  0  0  0  0  0  0
    8.0622    2.0000    0.0000 C   0  0  0  0  0  0  0  0  0  0  0  0
    2.0000   -0.5000    0.0000 C   0  0  0  0  0  0  0  0  0  0  0  0
    6.8671   -0.6900    0.0000 H   0  0  0  0  0  0  0  0  0  0  0  0
    4.0611   -2.3100    0.0000 H   0  0  0  0  0  0  0  0  0  0  0  0
    6.8671   -2.3100    0.0000 H   0  0  0  0  0  0  0  0  0  0  0  0
    5.4641   -3.1200    0.0000 H   0  0  0  0  0  0  0  0  0  0  0  0
    7.1962   -0.1200    0.0000 H   0  0  0  0  0  0  0  0  0  0  0  0
    5.7932    2.3100    0.0000 H   0  0  0  0  0  0  0  0  0  0  0  0
    8.5991    0.6900    0.0000 H   0  0  0  0  0  0  0  0  0  0  0  0
    7.1962    3.1200    0.0000 H   0  0  0  0  0  0  0  0  0  0  0  0
    8.5991    2.3100    0.0000 H   0  0  0  0  0  0  0  0  0  0  0  0
    2.3100    0.0369    0.0000 H   0  0  0  0  0  0  0  0  0  0  0  0
    1.4631   -0.1900    0.0000 H   0  0  0  0  0  0  0  0  0  0  0  0
    1.6900   -1.0369    0.0000 H   0  0  0  0  0  0  0  0  0  0  0  0
  1  6  2  0  0  0  0
  2 14  1  0  0  0  0
  2 18  1  0  0  0  0
  3 14  2  0  0  0  0
  4  5  1  0  0  0  0
  4  6  1  0  0  0  0
  4  8  2  0  0  0  0
  5  9  2  0  0  0  0
  5 14  1  0  0  0  0
  6  7  1  0  0  0  0
  7 12  2  0  0  0  0
  7 13  1  0  0  0  0
  8 10  1  0  0  0  0
  8 19  1  0  0  0  0
  9 11  1  0  0  0  0
  9 20  1  0  0  0  0
 10 11  2  0  0  0  0
 10 21  1  0  0  0  0
 11 22  1  0  0  0  0
 12 15  1  0  0  0  0
 12 23  1  0  0  0  0
 13 16  2  0  0  0  0
 13 24  1  0  0  0  0
 15 17  2  0  0  0  0
 15 25  1  0  0  0  0
 16 17  1  0  0  0  0
 16 26  1  0  0  0  0
 17 27  1  0  0  0  0
 18 28  1  0  0  0  0
 18 29  1  0  0  0  0
 18 30  1  0  0  0  0
M  END
> <PUBCHEM_COMPOUND_CID>
11816

> <PUBCHEM_COMPOUND_CANONICALIZED>
1

> <PUBCHEM_CACTVS_COMPLEXITY>
305

> <PUBCHEM_CACTVS_HBOND_ACCEPTOR>
3

> <PUBCHEM_CACTVS_HBOND_DONOR>
0

> <PUBCHEM_CACTVS_ROTATABLE_BOND>
4

> <PUBCHEM_CACTVS_SUBSKEYS>
AAADccBwMAAAAAAAAAAAAAAAAAAAAAAAAAAwYAAAAAAAAAABQAAAGgAAAAAADASAmAIyCIAABACIAqDSCAACAAAkAAAIiAEACMgIJjKANRiAMQAkwAEIqYeLyPCOgAAAAAAQAAAAAAAAACAAAAAAAAAAAA==

> <PUBCHEM_IUPAC_OPENEYE_NAME>
methyl 2-benzoylbenzoate

> <PUBCHEM_IUPAC_CAS_NAME>
2-benzoylbenzoic acid methyl ester

> <PUBCHEM_IUPAC_NAME>
methyl 2-benzoylbenzoate

> <PUBCHEM_IUPAC_SYSTEMATIC_NAME>
methyl 2-(phenylcarbonyl)benzoate

> <PUBCHEM_IUPAC_TRADITIONAL_NAME>
2-benzoylbenzoic acid methyl ester

> <PUBCHEM_IUPAC_INCHI>
InChI=1S/C15H12O3/c1-18-15(17)13-10-6-5-9-12(13)14(16)11-7-3-2-4-8-11/h2-10H,1H3

> <PUBCHEM_IUPAC_INCHIKEY>
NQSMEZJWJJVYOI-UHFFFAOYSA-N

> <PUBCHEM_XLOGP3>
2.7

> <PUBCHEM_EXACT_MASS>
240.078644

> <PUBCHEM_MOLECULAR_FORMULA>
C15H12O3

> <PUBCHEM_MOLECULAR_WEIGHT>
240.25398

> <PUBCHEM_OPENEYE_CAN_SMILES>
COC(=O)C1=CC=CC=C1C(=O)C2=CC=CC=C2

> <PUBCHEM_OPENEYE_ISO_SMILES>
COC(=O)C1=CC=CC=C1C(=O)C2=CC=CC=C2

> <PUBCHEM_CACTVS_TPSA>
43.4

> <PUBCHEM_MONOISOTOPIC_WEIGHT>
240.078644

> <PUBCHEM_TOTAL_CHARGE>
0

> <PUBCHEM_HEAVY_ATOM_COUNT>
18

> <PUBCHEM_ATOM_DEF_STEREO_COUNT>
0

> <PUBCHEM_ATOM_UDEF_STEREO_COUNT>
0

> <PUBCHEM_BOND_DEF_STEREO_COUNT>
0

> <PUBCHEM_BOND_UDEF_STEREO_COUNT>
0

> <PUBCHEM_ISOTOPIC_ATOM_COUNT>
0

> <PUBCHEM_COMPONENT_COUNT>
1

> <PUBCHEM_CACTVS_TAUTO_COUNT>
1

> <PUBCHEM_COORDINATE_TYPE>
1
5
255

> <PUBCHEM_BONDANNOTATIONS>
10  11  8
12  15  8
13  16  8
15  17  8
16  17  8
4  5  8
4  8  8
5  9  8
7  12  8
7  13  8
8  10  8
9  11  8

$$$$

