11089
  -OEChem-06261205183D

 18 19  0     0  0  0  0  0  0999 V2000
   -2.8459   -0.5629    0.0002 O   0  0  0  0  0  0  0  0  0  0  0  0
   -1.7841   -2.6233    0.0002 O   0  0  0  0  0  0  0  0  0  0  0  0
   -3.2299    1.7227    0.0015 O   0  0  0  0  0  0  0  0  0  0  0  0
    3.3363   -1.4293    0.0011 O   0  0  0  0  0  0  0  0  0  0  0  0
    3.9684    0.7541    0.0008 O   0  0  0  0  0  0  0  0  0  0  0  0
   -0.6132   -0.5428   -0.0006 C   0  0  0  0  0  0  0  0  0  0  0  0
   -1.0460    0.7582   -0.0004 C   0  0  0  0  0  0  0  0  0  0  0  0
    0.7289   -0.8678   -0.0008 C   0  0  0  0  0  0  0  0  0  0  0  0
    1.6437    0.1886   -0.0007 C   0  0  0  0  0  0  0  0  0  0  0  0
   -0.1659    1.8224   -0.0005 C   0  0  0  0  0  0  0  0  0  0  0  0
    1.1994    1.5246   -0.0007 C   0  0  0  0  0  0  0  0  0  0  0  0
   -1.7704   -1.4095   -0.0003 C   0  0  0  0  0  0  0  0  0  0  0  0
   -2.4918    0.7591    0.0000 C   0  0  0  0  0  0  0  0  0  0  0  0
    3.0705   -0.0943    0.0001 C   0  0  0  0  0  0  0  0  0  0  0  0
    1.0256   -1.9106   -0.0007 H   0  0  0  0  0  0  0  0  0  0  0  0
   -0.5107    2.8499   -0.0003 H   0  0  0  0  0  0  0  0  0  0  0  0
    1.9115    2.3465   -0.0006 H   0  0  0  0  0  0  0  0  0  0  0  0
    4.3006   -1.6094    0.0021 H   0  0  0  0  0  0  0  0  0  0  0  0
  1 12  1  0  0  0  0
  1 13  1  0  0  0  0
  2 12  2  0  0  0  0
  3 13  2  0  0  0  0
  4 14  1  0  0  0  0
  4 18  1  0  0  0  0
  5 14  2  0  0  0  0
  6  7  2  0  0  0  0
  6  8  1  0  0  0  0
  6 12  1  0  0  0  0
  7 10  1  0  0  0  0
  7 13  1  0  0  0  0
  8  9  2  0  0  0  0
  8 15  1  0  0  0  0
  9 11  1  0  0  0  0
  9 14  1  0  0  0  0
 10 11  2  0  0  0  0
 10 16  1  0  0  0  0
 11 17  1  0  0  0  0
M  END
> <PUBCHEM_COMPOUND_CID>
11089

> <PUBCHEM_CONFORMER_RMSD>
0.4

> <PUBCHEM_CONFORMER_DIVERSEORDER>
1
2

> <PUBCHEM_MMFF94_PARTIAL_CHARGES>
18
1 -0.3
10 -0.15
11 -0.15
12 0.63
13 0.63
14 0.63
15 0.15
16 0.15
17 0.15
18 0.5
2 -0.57
3 -0.57
4 -0.65
5 -0.57
6 0.09
7 0.09
8 -0.15
9 0.09

> <PUBCHEM_EFFECTIVE_ROTOR_COUNT>
1.2

> <PUBCHEM_PHARMACOPHORE_FEATURES>
7
1 2 acceptor
1 3 acceptor
1 4 acceptor
1 5 acceptor
3 4 5 14 anion
5 1 6 7 12 13 rings
6 6 7 8 9 10 11 rings

> <PUBCHEM_HEAVY_ATOM_COUNT>
14

> <PUBCHEM_ATOM_DEF_STEREO_COUNT>
0

> <PUBCHEM_ATOM_UDEF_STEREO_COUNT>
0

> <PUBCHEM_BOND_DEF_STEREO_COUNT>
0

> <PUBCHEM_BOND_UDEF_STEREO_COUNT>
0

> <PUBCHEM_ISOTOPIC_ATOM_COUNT>
0

> <PUBCHEM_COMPONENT_COUNT>
1

> <PUBCHEM_CACTVS_TAUTO_COUNT>
1

> <PUBCHEM_CONFORMER_ID>
00002B5100000001

> <PUBCHEM_MMFF94_ENERGY>
37.2964

> <PUBCHEM_FEATURE_SELFOVERLAP>
35.676

> <PUBCHEM_SHAPE_FINGERPRINT>
10608611 8 18335988584107080824
10967382 1 18266458887306844742
11132069 177 18410580599860178976
12032990 46 18411411821607175251
12382932 28 18408321103206487066
13024252 1 15339120143529250309
13214271 11 18261682476211111868
13380535 76 18335140955073115967
14144814 61 18411419518330871170
14325111 11 18410855477577231712
15669948 3 18410016511566506702
16945 1 18410855434506219973
193761 8 18122624946769936449
20510252 161 18260827133147274073
20588541 1 18335418027523543412
20645476 183 17916280845104664318
20871998 184 18187642458039037231
21267235 1 18411409609878651682
21501502 16 18267861675160330589
2334 1 18194401087174004484
23402539 116 18189347912195310237
23402655 69 18192165999964798597
23463225 33 18412826923537723214
23552423 10 18127691521893457964
23559900 14 18334859455159810782
2748010 2 18265338304538093501
3312278 4 18409444761356724400
528886 8 18410017671012348513
53812653 166 18335706073805706217
6333449 129 18409451388275016677
69090 78 18408609179795825423
7364860 26 18048035168868879464
75552 356 18409729551652509596
8809292 202 18412258463125722762

> <PUBCHEM_SHAPE_MULTIPOLES>
258.77
5.33
2.09
0.58
2.99
0.49
0
0.01
0
-1.03
0
0
-0.02
0

> <PUBCHEM_SHAPE_SELFOVERLAP>
580.218

> <PUBCHEM_SHAPE_VOLUME>
138.7

> <PUBCHEM_COORDINATE_TYPE>
2
5
10

$$$$

