13516
  -OEChem-06241222392D

 13 12  0     1  0  0  0  0  0999 V2000
    3.4030   -0.3170    0.0000 S   0  0  0  0  0  0  0  0  0  0  0  0
    5.1350   -0.3170    0.0000 O   0  0  0  0  0  0  0  0  0  0  0  0
    2.5369   -0.8170    0.0000 O   0  0  0  0  0  0  0  0  0  0  0  0
    2.9030    0.5490    0.0000 O   0  0  0  0  0  0  0  0  0  0  0  0
    3.9030   -1.1830    0.0000 O   0  0  0  0  0  0  0  0  0  0  0  0
    4.2690    0.1830    0.0000 C   0  0  3  0  0  0  0  0  0  0  0  0
    4.2690    1.1830    0.0000 C   0  0  0  0  0  0  0  0  0  0  0  0
    4.2690   -0.4370    0.0000 H   0  0  0  0  0  0  0  0  0  0  0  0
    4.8890    1.1830    0.0000 H   0  0  0  0  0  0  0  0  0  0  0  0
    4.2690    1.8030    0.0000 H   0  0  0  0  0  0  0  0  0  0  0  0
    3.6490    1.1830    0.0000 H   0  0  0  0  0  0  0  0  0  0  0  0
    5.6720   -0.0070    0.0000 H   0  0  0  0  0  0  0  0  0  0  0  0
    2.0000   -0.5070    0.0000 H   0  0  0  0  0  0  0  0  0  0  0  0
  1  3  1  0  0  0  0
  1  4  2  0  0  0  0
  1  5  2  0  0  0  0
  1  6  1  0  0  0  0
  2  6  1  0  0  0  0
  2 12  1  0  0  0  0
  3 13  1  0  0  0  0
  6  7  1  0  0  0  0
  6  8  1  0  0  0  0
  7  9  1  0  0  0  0
  7 10  1  0  0  0  0
  7 11  1  0  0  0  0
M  END
> <PUBCHEM_COMPOUND_CID>
13516

> <PUBCHEM_COMPOUND_CANONICALIZED>
1

> <PUBCHEM_CACTVS_COMPLEXITY>
128

> <PUBCHEM_CACTVS_HBOND_ACCEPTOR>
4

> <PUBCHEM_CACTVS_HBOND_DONOR>
2

> <PUBCHEM_CACTVS_ROTATABLE_BOND>
1

> <PUBCHEM_CACTVS_SUBSKEYS>
AAADcYBAOABAAAAAAAAAAAAAAAAAAAAAAAAAAAAAAAAAAAAAAAAAGgQACAAAAACkwAKCAAAAAoIAAAAAAHBAAAAAAAAAAAAAAAAAEAAAAAAAAAAAAAAAAAAAAAAAAAAAAAAAAAAAAAAAAAAAAAAAAAAAAA==

> <PUBCHEM_IUPAC_OPENEYE_NAME>
1-hydroxyethanesulfonic acid

> <PUBCHEM_IUPAC_CAS_NAME>
1-hydroxyethanesulfonic acid

> <PUBCHEM_IUPAC_NAME>
1-hydroxyethanesulfonic acid

> <PUBCHEM_IUPAC_SYSTEMATIC_NAME>
1-oxidanylethanesulfonic acid

> <PUBCHEM_IUPAC_TRADITIONAL_NAME>
1-hydroxyethanesulfonic acid

> <PUBCHEM_IUPAC_INCHI>
InChI=1S/C2H6O4S/c1-2(3)7(4,5)6/h2-3H,1H3,(H,4,5,6)

> <PUBCHEM_IUPAC_INCHIKEY>
WLXGQMVCYPUOLM-UHFFFAOYSA-N

> <PUBCHEM_XLOGP3_AA>
-1

> <PUBCHEM_EXACT_MASS>
125.99868

> <PUBCHEM_MOLECULAR_FORMULA>
C2H6O4S

> <PUBCHEM_MOLECULAR_WEIGHT>
126.13164

> <PUBCHEM_OPENEYE_CAN_SMILES>
CC(O)S(=O)(=O)O

> <PUBCHEM_OPENEYE_ISO_SMILES>
CC(O)S(=O)(=O)O

> <PUBCHEM_CACTVS_TPSA>
83

> <PUBCHEM_MONOISOTOPIC_WEIGHT>
125.99868

> <PUBCHEM_TOTAL_CHARGE>
0

> <PUBCHEM_HEAVY_ATOM_COUNT>
7

> <PUBCHEM_ATOM_DEF_STEREO_COUNT>
0

> <PUBCHEM_ATOM_UDEF_STEREO_COUNT>
1

> <PUBCHEM_BOND_DEF_STEREO_COUNT>
0

> <PUBCHEM_BOND_UDEF_STEREO_COUNT>
0

> <PUBCHEM_ISOTOPIC_ATOM_COUNT>
0

> <PUBCHEM_COMPONENT_COUNT>
1

> <PUBCHEM_CACTVS_TAUTO_COUNT>
1

> <PUBCHEM_COORDINATE_TYPE>
1
5
255

> <PUBCHEM_BONDANNOTATIONS>
6  2  3

$$$$

