5220
  -OEChem-06261200352D

 56 58  0     1  0  0  0  0  0999 V2000
    6.7673   -0.6150    0.0000 O   0  0  0  0  0  0  0  0  0  0  0  0
    8.0313    1.6429    0.0000 O   0  0  0  0  0  0  0  0  0  0  0  0
    9.3070   -0.1194    0.0000 O   0  0  0  0  0  0  0  0  0  0  0  0
    2.6062    4.8202    0.0000 O   0  0  0  0  0  0  0  0  0  0  0  0
    2.2432    3.1266    0.0000 O   0  0  0  0  0  0  0  0  0  0  0  0
    7.4072   -1.8762    0.0000 N   0  0  0  0  0  0  0  0  0  0  0  0
    4.8135    0.8042    0.0000 N   0  0  0  0  0  0  0  0  0  0  0  0
    7.4072   -3.4857    0.0000 N   0  0  0  0  0  0  0  0  0  0  0  0
    5.5950   -1.6809    0.0000 N   0  0  0  0  0  0  0  0  0  0  0  0
    4.5618    4.4010    0.0000 N   0  0  0  0  0  0  0  0  0  0  0  0
    4.7289   -3.1809    0.0000 N   0  0  0  0  0  0  0  0  0  0  0  0
    5.5950   -4.6809    0.0000 N   0  0  0  0  0  0  0  0  0  0  0  0
    6.7691    0.3850    0.0000 C   0  0  3  0  0  0  0  0  0  0  0  0
    7.7179   -0.9257    0.0000 C   0  0  3  0  0  0  0  0  0  0  0  0
    7.7207    0.6924    0.0000 C   0  0  3  0  0  0  0  0  0  0  0  0
    8.3070   -0.1177    0.0000 C   0  0  3  0  0  0  0  0  0  0  0  0
    6.4617    1.3366    0.0000 C   0  0  0  0  0  0  0  0  0  0  0  0
    5.7691    0.3867    0.0000 C   0  0  0  0  0  0  0  0  0  0  0  0
    5.4839    1.5462    0.0000 C   0  0  3  0  0  0  0  0  0  0  0  0
    8.5259   -1.5149    0.0000 C   0  0  0  0  0  0  0  0  0  0  0  0
    5.1765    2.4978    0.0000 C   0  0  0  0  0  0  0  0  0  0  0  0
    6.4610   -2.1809    0.0000 C   0  0  0  0  0  0  0  0  0  0  0  0
    7.9908   -2.6809    0.0000 C   0  0  0  0  0  0  0  0  0  0  0  0
    4.1988    2.7074    0.0000 C   0  0  0  0  0  0  0  0  0  0  0  0
    6.4610   -3.1809    0.0000 C   0  0  0  0  0  0  0  0  0  0  0  0
    3.8914    3.6590    0.0000 C   0  0  3  0  0  0  0  0  0  0  0  0
    5.5950   -3.6809    0.0000 C   0  0  0  0  0  0  0  0  0  0  0  0
    4.7289   -2.1809    0.0000 C   0  0  0  0  0  0  0  0  0  0  0  0
    2.9136    3.8686    0.0000 C   0  0  0  0  0  0  0  0  0  0  0  0
    7.2830    1.1315    0.0000 H   0  0  0  0  0  0  0  0  0  0  0  0
    8.5876   -0.6706    0.0000 H   0  0  0  0  0  0  0  0  0  0  0  0
    7.0758    1.4218    0.0000 H   0  0  0  0  0  0  0  0  0  0  0  0
    6.4844    1.9562    0.0000 H   0  0  0  0  0  0  0  0  0  0  0  0
    5.7701    1.0067    0.0000 H   0  0  0  0  0  0  0  0  0  0  0  0
    5.1491    0.3878    0.0000 H   0  0  0  0  0  0  0  0  0  0  0  0
    5.7680   -0.2333    0.0000 H   0  0  0  0  0  0  0  0  0  0  0  0
    4.8777    1.6761    0.0000 H   0  0  0  0  0  0  0  0  0  0  0  0
    8.1606   -2.0158    0.0000 H   0  0  0  0  0  0  0  0  0  0  0  0
    9.0268   -1.8802    0.0000 H   0  0  0  0  0  0  0  0  0  0  0  0
    8.8912   -1.0139    0.0000 H   0  0  0  0  0  0  0  0  0  0  0  0
    5.7907    2.5830    0.0000 H   0  0  0  0  0  0  0  0  0  0  0  0
    5.1992    3.1174    0.0000 H   0  0  0  0  0  0  0  0  0  0  0  0
    8.6380    1.7707    0.0000 H   0  0  0  0  0  0  0  0  0  0  0  0
    9.6180    0.4170    0.0000 H   0  0  0  0  0  0  0  0  0  0  0  0
    8.6108   -2.6809    0.0000 H   0  0  0  0  0  0  0  0  0  0  0  0
    3.5846    2.6222    0.0000 H   0  0  0  0  0  0  0  0  0  0  0  0
    4.1760    2.0878    0.0000 H   0  0  0  0  0  0  0  0  0  0  0  0
    4.2073    0.9341    0.0000 H   0  0  0  0  0  0  0  0  0  0  0  0
    5.0041    0.2142    0.0000 H   0  0  0  0  0  0  0  0  0  0  0  0
    4.4976    3.5290    0.0000 H   0  0  0  0  0  0  0  0  0  0  0  0
    4.1920   -1.8709    0.0000 H   0  0  0  0  0  0  0  0  0  0  0  0
    4.3712    4.9909    0.0000 H   0  0  0  0  0  0  0  0  0  0  0  0
    5.1680    4.2710    0.0000 H   0  0  0  0  0  0  0  0  0  0  0  0
    5.0580   -4.9909    0.0000 H   0  0  0  0  0  0  0  0  0  0  0  0
    6.1319   -4.9909    0.0000 H   0  0  0  0  0  0  0  0  0  0  0  0
    2.0000    4.9501    0.0000 H   0  0  0  0  0  0  0  0  0  0  0  0
  1 13  1  0  0  0  0
  1 14  1  0  0  0  0
  2 15  1  0  0  0  0
  2 43  1  0  0  0  0
  3 16  1  0  0  0  0
  3 44  1  0  0  0  0
  4 29  1  0  0  0  0
  4 56  1  0  0  0  0
  5 29  2  0  0  0  0
  6 14  1  0  0  0  0
  6 22  1  0  0  0  0
  6 23  1  0  0  0  0
  7 19  1  0  0  0  0
  7 48  1  0  0  0  0
  7 49  1  0  0  0  0
  8 23  2  0  0  0  0
  8 25  1  0  0  0  0
  9 22  2  0  0  0  0
  9 28  1  0  0  0  0
 10 26  1  0  0  0  0
 10 52  1  0  0  0  0
 10 53  1  0  0  0  0
 11 27  1  0  0  0  0
 11 28  2  0  0  0  0
 12 27  1  0  0  0  0
 12 54  1  0  0  0  0
 12 55  1  0  0  0  0
 13 15  1  0  0  0  0
 13 17  1  0  0  0  0
 13 18  1  0  0  0  0
 14 16  1  0  0  0  0
 14 20  1  0  0  0  0
 15 16  1  0  0  0  0
 15 30  1  0  0  0  0
 16 31  1  0  0  0  0
 17 19  1  0  0  0  0
 17 32  1  0  0  0  0
 17 33  1  0  0  0  0
 18 34  1  0  0  0  0
 18 35  1  0  0  0  0
 18 36  1  0  0  0  0
 19 21  1  0  0  0  0
 19 37  1  0  0  0  0
 20 38  1  0  0  0  0
 20 39  1  0  0  0  0
 20 40  1  0  0  0  0
 21 24  1  0  0  0  0
 21 41  1  0  0  0  0
 21 42  1  0  0  0  0
 22 25  1  0  0  0  0
 23 45  1  0  0  0  0
 24 26  1  0  0  0  0
 24 46  1  0  0  0  0
 24 47  1  0  0  0  0
 25 27  2  0  0  0  0
 26 29  1  0  0  0  0
 26 50  1  0  0  0  0
 28 51  1  0  0  0  0
M  END
> <PUBCHEM_COMPOUND_CID>
5220

> <PUBCHEM_COMPOUND_CANONICALIZED>
1

> <PUBCHEM_CACTVS_COMPLEXITY>
615

> <PUBCHEM_CACTVS_HBOND_ACCEPTOR>
11

> <PUBCHEM_CACTVS_HBOND_DONOR>
6

> <PUBCHEM_CACTVS_ROTATABLE_BOND>
7

> <PUBCHEM_CACTVS_SUBSKEYS>
AAADceB7uAAAAAAAAAAAAAAAAAAAAWJAAAAsAAAAAAAAAFgB+AAAHgAQCAAADHzhlwYH+L9MFgCoAQbxbACAgC0REKABUKGoVBCDWBJAyEAeRAgPEALTACG42eGeAAAAAAAAAAAAAAAAAAAAAAAAAAAAAA==

> <PUBCHEM_IUPAC_OPENEYE_NAME>
2,5-diamino-6-[5-(6-aminopurin-9-yl)-3,4-dihydroxy-2,5-dimethyl-tetrahydrofuran-2-yl]hexanoic acid

> <PUBCHEM_IUPAC_CAS_NAME>
2,5-diamino-6-[5-(6-aminopurin-9-yl)-3,4-dihydroxy-2,5-dimethyl-2-oxolanyl]hexanoic acid

> <PUBCHEM_IUPAC_NAME>
2,5-diamino-6-[5-(6-aminopurin-9-yl)-3,4-dihydroxy-2,5-dimethyloxolan-2-yl]hexanoic acid

> <PUBCHEM_IUPAC_SYSTEMATIC_NAME>
6-[5-(6-aminopurin-9-yl)-2,5-dimethyl-3,4-bis(oxidanyl)oxolan-2-yl]-2,5-bis(azanyl)hexanoic acid

> <PUBCHEM_IUPAC_TRADITIONAL_NAME>
6-(5-adenin-9-yl-3,4-dihydroxy-2,5-dimethyl-tetrahydrofuran-2-yl)-2,5-diamino-hexanoic acid

> <PUBCHEM_IUPAC_INCHI>
InChI=1S/C17H27N7O5/c1-16(5-8(18)3-4-9(19)15(27)28)11(25)12(26)17(2,29-16)24-7-23-10-13(20)21-6-22-14(10)24/h6-9,11-12,25-26H,3-5,18-19H2,1-2H3,(H,27,28)(H2,20,21,22)

> <PUBCHEM_IUPAC_INCHIKEY>
UAFLJIXGDUIQEM-UHFFFAOYSA-N

> <PUBCHEM_XLOGP3_AA>
-4.8

> <PUBCHEM_EXACT_MASS>
409.207367

> <PUBCHEM_MOLECULAR_FORMULA>
C17H27N7O5

> <PUBCHEM_MOLECULAR_WEIGHT>
409.44018

> <PUBCHEM_OPENEYE_CAN_SMILES>
CC1(C(C(C(O1)(C)N2C=NC3=C2N=CN=C3N)O)O)CC(CCC(C(=O)O)N)N

> <PUBCHEM_OPENEYE_ISO_SMILES>
CC1(C(C(C(O1)(C)N2C=NC3=C2N=CN=C3N)O)O)CC(CCC(C(=O)O)N)N

> <PUBCHEM_CACTVS_TPSA>
209

> <PUBCHEM_MONOISOTOPIC_WEIGHT>
409.207367

> <PUBCHEM_TOTAL_CHARGE>
0

> <PUBCHEM_HEAVY_ATOM_COUNT>
29

> <PUBCHEM_ATOM_DEF_STEREO_COUNT>
0

> <PUBCHEM_ATOM_UDEF_STEREO_COUNT>
6

> <PUBCHEM_BOND_DEF_STEREO_COUNT>
0

> <PUBCHEM_BOND_UDEF_STEREO_COUNT>
0

> <PUBCHEM_ISOTOPIC_ATOM_COUNT>
0

> <PUBCHEM_COMPONENT_COUNT>
1

> <PUBCHEM_CACTVS_TAUTO_COUNT>
3

> <PUBCHEM_COORDINATE_TYPE>
1
5
255

> <PUBCHEM_BONDANNOTATIONS>
26  10  3
11  27  8
11  28  8
13  18  3
14  20  3
15  2  3
22  25  8
25  27  8
16  3  3
6  22  8
6  23  8
19  7  3
8  23  8
8  25  8
9  22  8
9  28  8

$$$$

