17395267
  -OEChem-06241222493D

 46 48  0     0  0  0  0  0  0999 V2000
   -6.3258   -2.9142   -0.0277 Br  0  0  0  0  0  0  0  0  0  0  0  0
   -3.1883    1.6124   -0.9530 S   0  0  0  0  0  0  0  0  0  0  0  0
    7.3147    1.2047    0.9190 O   0  0  0  0  0  0  0  0  0  0  0  0
   -3.3604    1.1409   -2.3139 O   0  0  0  0  0  0  0  0  0  0  0  0
   -3.3398    3.0213   -0.6442 O   0  0  0  0  0  0  0  0  0  0  0  0
    5.0942   -0.4290    0.2106 N   0  0  0  0  0  0  0  0  0  0  0  0
   -1.6864    1.0607   -0.3562 N   0  0  0  0  0  0  0  0  0  0  0  0
    6.4112   -1.0089    0.5081 C   0  0  0  0  0  0  0  0  0  0  0  0
    5.2522    0.9289   -0.3287 C   0  0  0  0  0  0  0  0  0  0  0  0
    4.3535   -1.2751   -0.7229 C   0  0  0  0  0  0  0  0  0  0  0  0
    7.1693   -0.1030    1.4742 C   0  0  0  0  0  0  0  0  0  0  0  0
    6.0385    1.7893    0.6562 C   0  0  0  0  0  0  0  0  0  0  0  0
    2.8691   -1.0385   -0.6377 C   0  0  0  0  0  0  0  0  0  0  0  0
    2.1155   -0.9093   -1.8044 C   0  0  0  0  0  0  0  0  0  0  0  0
    2.2473   -0.9482    0.6077 C   0  0  0  0  0  0  0  0  0  0  0  0
    0.1186   -0.5996   -0.4804 C   0  0  0  0  0  0  0  0  0  0  0  0
   -1.3516   -0.3637   -0.3966 C   0  0  0  0  0  0  0  0  0  0  0  0
    0.7404   -0.6898   -1.7257 C   0  0  0  0  0  0  0  0  0  0  0  0
    0.8721   -0.7287    0.6864 C   0  0  0  0  0  0  0  0  0  0  0  0
   -4.3258    0.7339    0.0762 C   0  0  0  0  0  0  0  0  0  0  0  0
   -4.7933   -0.5213   -0.3132 C   0  0  0  0  0  0  0  0  0  0  0  0
   -4.7566    1.2969    1.2776 C   0  0  0  0  0  0  0  0  0  0  0  0
   -5.6914   -1.2136    0.4989 C   0  0  0  0  0  0  0  0  0  0  0  0
   -5.6548    0.6046    2.0896 C   0  0  0  0  0  0  0  0  0  0  0  0
   -6.1224   -0.6507    1.7003 C   0  0  0  0  0  0  0  0  0  0  0  0
    6.2988   -1.9973    0.9682 H   0  0  0  0  0  0  0  0  0  0  0  0
    6.9915   -1.1266   -0.4164 H   0  0  0  0  0  0  0  0  0  0  0  0
    5.7871    0.8992   -1.2872 H   0  0  0  0  0  0  0  0  0  0  0  0
    4.2774    1.3989   -0.5001 H   0  0  0  0  0  0  0  0  0  0  0  0
    4.4980   -2.3352   -0.4717 H   0  0  0  0  0  0  0  0  0  0  0  0
    4.7221   -1.1539   -1.7501 H   0  0  0  0  0  0  0  0  0  0  0  0
    6.6643   -0.0344    2.4455 H   0  0  0  0  0  0  0  0  0  0  0  0
    8.1729   -0.5030    1.6503 H   0  0  0  0  0  0  0  0  0  0  0  0
    6.2096    2.7827    0.2294 H   0  0  0  0  0  0  0  0  0  0  0  0
    5.4954    1.9228    1.5999 H   0  0  0  0  0  0  0  0  0  0  0  0
    2.5868   -0.9774   -2.7812 H   0  0  0  0  0  0  0  0  0  0  0  0
    2.8126   -1.0574    1.5293 H   0  0  0  0  0  0  0  0  0  0  0  0
   -1.8397   -0.8491   -1.2496 H   0  0  0  0  0  0  0  0  0  0  0  0
   -1.7492   -0.8456    0.5047 H   0  0  0  0  0  0  0  0  0  0  0  0
    0.1646   -0.5886   -2.6419 H   0  0  0  0  0  0  0  0  0  0  0  0
    0.3994   -0.6608    1.6627 H   0  0  0  0  0  0  0  0  0  0  0  0
   -1.2399    1.6057    0.3922 H   0  0  0  0  0  0  0  0  0  0  0  0
   -4.4588   -0.9662   -1.2469 H   0  0  0  0  0  0  0  0  0  0  0  0
   -4.4000    2.2696    1.6038 H   0  0  0  0  0  0  0  0  0  0  0  0
   -5.9889    1.0420    3.0258 H   0  0  0  0  0  0  0  0  0  0  0  0
   -6.8217   -1.1769    2.3448 H   0  0  0  0  0  0  0  0  0  0  0  0
  1 23  1  0  0  0  0
  2  4  2  0  0  0  0
  2  5  2  0  0  0  0
  2  7  1  0  0  0  0
  2 20  1  0  0  0  0
  3 11  1  0  0  0  0
  3 12  1  0  0  0  0
  6  8  1  0  0  0  0
  6  9  1  0  0  0  0
  6 10  1  0  0  0  0
  7 17  1  0  0  0  0
  7 42  1  0  0  0  0
  8 11  1  0  0  0  0
  8 26  1  0  0  0  0
  8 27  1  0  0  0  0
  9 12  1  0  0  0  0
  9 28  1  0  0  0  0
  9 29  1  0  0  0  0
 10 13  1  0  0  0  0
 10 30  1  0  0  0  0
 10 31  1  0  0  0  0
 11 32  1  0  0  0  0
 11 33  1  0  0  0  0
 12 34  1  0  0  0  0
 12 35  1  0  0  0  0
 13 14  2  0  0  0  0
 13 15  1  0  0  0  0
 14 18  1  0  0  0  0
 14 36  1  0  0  0  0
 15 19  2  0  0  0  0
 15 37  1  0  0  0  0
 16 17  1  0  0  0  0
 16 18  2  0  0  0  0
 16 19  1  0  0  0  0
 17 38  1  0  0  0  0
 17 39  1  0  0  0  0
 18 40  1  0  0  0  0
 19 41  1  0  0  0  0
 20 21  2  0  0  0  0
 20 22  1  0  0  0  0
 21 23  1  0  0  0  0
 21 43  1  0  0  0  0
 22 24  2  0  0  0  0
 22 44  1  0  0  0  0
 23 25  2  0  0  0  0
 24 25  1  0  0  0  0
 24 45  1  0  0  0  0
 25 46  1  0  0  0  0
M  END
> <PUBCHEM_COMPOUND_CID>
17395267

> <PUBCHEM_CONFORMER_RMSD>
0.8

> <PUBCHEM_CONFORMER_DIVERSEORDER>
1
239
247
222
257
291
30
167
5
168
59
70
158
284
252
90
295
143
286
211
308
305
274
244
132
10
190
50
294
73
208
193
277
4
33
23
151
261
243
210
310
134
191
155
213
31
95
144
118
96
116
306
32
233
22
141
182
119
289
209
85
112
302
72
195
184
39
156
49
79
278
94
16
177
128
268
162
301
41
165
260
253
280
115
80
186
87
183
77
36
235
133
111
179
54
276
267
17
189
279
224
180
205
231
230
166
14
200
62
194
15
139
272
254
282
60
275
122
178
89
98
281
9
242
263
309
103
216
129
250
236
303
47
214
38
3
221
29
81
240
212
130
78
270
114
125
2
185
51
110
297
300
299
124
83
24
64
198
293
26
204
229
46
173
150
92
7
45
97
196
100
170
175
149
146
215
75
202
256
13
161
223
93
105
42
159
145
197
217
18
148
249
287
28
218
285
55
238
113
136
304
82
220
74
292
290
121
307
234
225
153
66
207
226
201
266
298
265
203
199
58
35
169
131
69
108
255
174
126
160
171
120
117
142
44
206
84
99
104
67
61
181
8
246
86
269
232
48
283
219
27
34
57
147
53
56
245
137
228
135
187
40
109
248
52
262
68
296
12
259
157
88
188
154
102
227
273
172
19
63
37
6
258
192
176
237
271
106
288
163
21
71
127
264
25
107
138
43
123
251
65
152
11
101
76
241
140
91
20
164

> <PUBCHEM_MMFF94_PARTIAL_CHARGES>
34
1 -0.11
10 0.41
11 0.28
12 0.28
13 -0.14
14 -0.15
15 -0.15
16 -0.14
17 0.5
18 -0.15
19 -0.15
2 1.45
20 -0.01
21 -0.15
22 -0.15
23 0.11
24 -0.15
25 -0.15
3 -0.56
36 0.15
37 0.15
4 -0.65
40 0.15
41 0.15
42 0.42
43 0.15
44 0.15
45 0.15
46 0.15
5 -0.65
6 -0.81
7 -0.91
8 0.27
9 0.27

> <PUBCHEM_EFFECTIVE_ROTOR_COUNT>
7.2

> <PUBCHEM_PHARMACOPHORE_FEATURES>
9
1 1 hydrophobe
1 3 acceptor
1 4 acceptor
1 5 acceptor
1 6 cation
1 7 donor
6 13 14 15 16 18 19 rings
6 20 21 22 23 24 25 rings
6 3 6 8 9 11 12 rings

> <PUBCHEM_HEAVY_ATOM_COUNT>
25

> <PUBCHEM_ATOM_DEF_STEREO_COUNT>
0

> <PUBCHEM_ATOM_UDEF_STEREO_COUNT>
0

> <PUBCHEM_BOND_DEF_STEREO_COUNT>
0

> <PUBCHEM_BOND_UDEF_STEREO_COUNT>
0

> <PUBCHEM_ISOTOPIC_ATOM_COUNT>
0

> <PUBCHEM_COMPONENT_COUNT>
1

> <PUBCHEM_CACTVS_TAUTO_COUNT>
1

> <PUBCHEM_CONFORMER_ID>
01096E4300000001

> <PUBCHEM_MMFF94_ENERGY>
43.9439

> <PUBCHEM_FEATURE_SELFOVERLAP>
45.687

> <PUBCHEM_SHAPE_FINGERPRINT>
10 15 18413670197595974504
10066227 112 5400798362746636482
10369192 42 17240480277935510237
10669705 162 12175355733222771168
11315181 36 14117793626780619119
11646440 116 18334856117664929656
11719270 70 15195570095713745026
11724838 91 18342176618863694028
12166972 35 16773789299477920156
12596602 18 18411138069155743194
12760667 363 12391517511751616196
13782708 43 17489028279320288354
13862211 1 14836402545237248210
13914758 101 13039194710238660967
14251732 16 18334293136907855914
14251752 14 11023833855194027603
14461889 52 18334293137446420058
14849402 71 18115588128334990888
14856354 85 16660647315459901461
14932701 244 18336823190752836121
15064981 113 11887410027999733131
15183329 4 7132440094423941440
15188451 53 16558747905853911245
15475509 8 6266910086316473730
15537594 2 14996282552253739967
17349148 13 15841255017843772893
1768 4 17386294182181506072
17857418 61 13542462072834551272
18222031 100 14476956801149690174
19377110 9 18273491273452203311
20028762 73 15698277820271553194
20567600 234 17917424290469771740
20567600 75 10303809882573444106
21304303 64 17603586318123736912
21315759 148 17749936852273226095
21315764 119 7709463840147547496
2215653 11 9943805582421274972
23081809 10 15338828811618634614
23198884 109 8646767777558333387
2838139 119 18187379735580754044
3004659 81 10015865375772394588
3663271 9 18333729134714120091
392239 28 18343575240161312417
397830 11 18407758144695065622
4325135 7 18335421244775736549
4340502 62 18411417332810403930
5104073 3 17986956447399421512
531348 171 11887955432895230953
6126387 218 12247408860826981564
6328613 192 6699805388782583642
9953998 17 18335415777773057547
9996256 80 18412266116609530434

> <PUBCHEM_SHAPE_MULTIPOLES>
496.71
21.41
2.23
1.7
16.07
0.25
-0.18
-0.48
10.54
-2.78
-0.29
-1.13
0.29
1.02

> <PUBCHEM_SHAPE_SELFOVERLAP>
1019.41

> <PUBCHEM_SHAPE_VOLUME>
291.8

> <PUBCHEM_COORDINATE_TYPE>
2
5
10

$$$$

