9852
  -OEChem-06261204083D

 22 21  0     0  0  0  0  0  0999 V2000
   -4.2505   -1.2172   -0.1655 F   0  0  0  0  0  0  0  0  0  0  0  0
    3.6332   -1.1703    0.5416 O   0  5  0  0  0  0  0  0  0  0  0  0
    3.7821    0.3461   -1.0498 O   0  0  0  0  0  0  0  0  0  0  0  0
    3.2571   -0.1315   -0.0288 N   0  3  0  0  0  0  0  0  0  0  0  0
   -0.4508    0.6553    0.4576 C   0  0  0  0  0  0  0  0  0  0  0  0
   -1.6979    0.0900   -0.2260 C   0  0  0  0  0  0  0  0  0  0  0  0
    0.8278    0.0386   -0.1214 C   0  0  0  0  0  0  0  0  0  0  0  0
   -2.9759    0.6803    0.3725 C   0  0  0  0  0  0  0  0  0  0  0  0
    2.0922    0.5748    0.5312 C   0  0  0  0  0  0  0  0  0  0  0  0
   -4.2173    0.1338   -0.3114 C   0  0  0  0  0  0  0  0  0  0  0  0
   -0.4965    0.4541    1.5346 H   0  0  0  0  0  0  0  0  0  0  0  0
   -0.4216    1.7442    0.3315 H   0  0  0  0  0  0  0  0  0  0  0  0
   -1.6591    0.3095   -1.2999 H   0  0  0  0  0  0  0  0  0  0  0  0
   -1.7115   -1.0016   -0.1198 H   0  0  0  0  0  0  0  0  0  0  0  0
    0.7824   -1.0519   -0.0008 H   0  0  0  0  0  0  0  0  0  0  0  0
    0.8624    0.2268   -1.2025 H   0  0  0  0  0  0  0  0  0  0  0  0
   -3.0186    0.4316    1.4394 H   0  0  0  0  0  0  0  0  0  0  0  0
   -2.9632    1.7726    0.2852 H   0  0  0  0  0  0  0  0  0  0  0  0
    2.0946    0.4075    1.6133 H   0  0  0  0  0  0  0  0  0  0  0  0
    2.2269    1.6447    0.3417 H   0  0  0  0  0  0  0  0  0  0  0  0
   -4.2211    0.3603   -1.3816 H   0  0  0  0  0  0  0  0  0  0  0  0
   -5.1248    0.5445    0.1401 H   0  0  0  0  0  0  0  0  0  0  0  0
  1 10  1  0  0  0  0
  2  4  1  0  0  0  0
  3  4  2  0  0  0  0
  4  9  1  0  0  0  0
  5  6  1  0  0  0  0
  5  7  1  0  0  0  0
  5 11  1  0  0  0  0
  5 12  1  0  0  0  0
  6  8  1  0  0  0  0
  6 13  1  0  0  0  0
  6 14  1  0  0  0  0
  7  9  1  0  0  0  0
  7 15  1  0  0  0  0
  7 16  1  0  0  0  0
  8 10  1  0  0  0  0
  8 17  1  0  0  0  0
  8 18  1  0  0  0  0
  9 19  1  0  0  0  0
  9 20  1  0  0  0  0
 10 21  1  0  0  0  0
 10 22  1  0  0  0  0
M  CHG  2   2  -1   4   1
M  END
> <PUBCHEM_COMPOUND_CID>
9852

> <PUBCHEM_CONFORMER_RMSD>
0.6

> <PUBCHEM_CONFORMER_DIVERSEORDER>
1
154
89
90
77
129
123
134
56
132
20
64
144
164
153
139
13
61
12
84
65
3
127
142
17
78
79
52
73
122
162
145
4
35
119
11
85
24
156
150
58
109
136
57
83
37
48
130
115
42
103
165
49
62
124
151
66
31
87
163
105
95
30
19
111
158
140
53
75
146
98
46
88
23
74
102
68
47
26
135
22
16
138
72
125
121
40
92
160
110
71
101
54
63
82
159
39
43
67
5
97
143
45
106
107
148
76
9
131
93
104
27
70
96
60
155
28
113
86
36
100
137
10
152
18
141
15
69
114
94
8
147
2
112
120
128
41
157
99
14
161
81
29
51
21
50
126
32
59
149
44
6
91
108
133
116
55
25
38
80
33
7
117
118
34

> <PUBCHEM_MMFF94_PARTIAL_CHARGES>
6
1 -0.34
10 0.34
2 -0.52
3 -0.52
4 0.8
9 0.24

> <PUBCHEM_EFFECTIVE_ROTOR_COUNT>
6

> <PUBCHEM_PHARMACOPHORE_FEATURES>
4
1 2 acceptor
1 2 anion
1 3 acceptor
4 5 6 7 8 hydrophobe

> <PUBCHEM_HEAVY_ATOM_COUNT>
10

> <PUBCHEM_ATOM_DEF_STEREO_COUNT>
0

> <PUBCHEM_ATOM_UDEF_STEREO_COUNT>
0

> <PUBCHEM_BOND_DEF_STEREO_COUNT>
0

> <PUBCHEM_BOND_UDEF_STEREO_COUNT>
0

> <PUBCHEM_ISOTOPIC_ATOM_COUNT>
0

> <PUBCHEM_COMPONENT_COUNT>
1

> <PUBCHEM_CACTVS_TAUTO_COUNT>
2

> <PUBCHEM_CONFORMER_ID>
0000267C00000001

> <PUBCHEM_MMFF94_ENERGY>
2.7142

> <PUBCHEM_FEATURE_SELFOVERLAP>
20.376

> <PUBCHEM_SHAPE_FINGERPRINT>
11062470 55 10447928377800562961
11987891 27 18412268341291819879
11987891 38 18410292531834563627
12032990 46 17603580824781118477
14252887 29 16443061716659813598
14325111 11 18334859419892919105
177051 138 17894911832138954872
190213 19 16732984236579415417
1986462 14 18408323311110048285
20645477 70 17060060393048099650
20828058 21 18040431100858519589
21293036 1 17132114636636846709
22485316 2 18411705387117147809
42 15 14056996135306475940

> <PUBCHEM_SHAPE_MULTIPOLES>
181.8
8.95
0.94
0.78
1.49
0.14
-0.07
2.11
-0.82
0.24
0.12
-0.44
-0.03
-0.28

> <PUBCHEM_SHAPE_SELFOVERLAP>
329.372

> <PUBCHEM_SHAPE_VOLUME>
116.8

> <PUBCHEM_COORDINATE_TYPE>
2
5
10

$$$$

