14368
  -OEChem-06241222433D

 35 35  0     0  0  0  0  0  0999 V2000
   -2.7885    2.0631   -0.8799 O   0  0  0  0  0  0  0  0  0  0  0  0
    0.1627   -0.6860    1.5250 O   0  0  0  0  0  0  0  0  0  0  0  0
   -3.9461   -2.2434    0.2027 O   0  0  0  0  0  0  0  0  0  0  0  0
   -3.3244   -0.1205   -0.4238 N   0  0  0  0  0  0  0  0  0  0  0  0
   -1.8504   -1.4935    0.7780 N   0  0  0  0  0  0  0  0  0  0  0  0
    4.1315   -0.3206    0.3542 N   0  0  0  0  0  0  0  0  0  0  0  0
   -0.9898    0.5942   -0.1818 C   0  0  0  0  0  0  0  0  0  0  0  0
   -0.2704    1.8388    0.3581 C   0  0  0  0  0  0  0  0  0  0  0  0
   -0.3259    0.1543   -1.4989 C   0  0  0  0  0  0  0  0  0  0  0  0
   -2.4387    0.9435   -0.5068 C   0  0  0  0  0  0  0  0  0  0  0  0
   -0.8279   -0.5569    0.8061 C   0  0  0  0  0  0  0  0  0  0  0  0
   -0.9182    2.3315    1.6340 C   0  0  0  0  0  0  0  0  0  0  0  0
   -3.0934   -1.3543    0.1724 C   0  0  0  0  0  0  0  0  0  0  0  0
    1.0733   -0.2002   -1.2745 C   0  0  0  0  0  0  0  0  0  0  0  0
    3.6312   -0.8587   -0.9043 C   0  0  0  0  0  0  0  0  0  0  0  0
    2.2255   -0.4953   -1.1062 C   0  0  0  0  0  0  0  0  0  0  0  0
    4.0319    1.1401    0.3670 C   0  0  0  0  0  0  0  0  0  0  0  0
    5.5175   -0.7362    0.5787 C   0  0  0  0  0  0  0  0  0  0  0  0
   -0.2836    2.6492   -0.3819 H   0  0  0  0  0  0  0  0  0  0  0  0
    0.7811    1.6393    0.5833 H   0  0  0  0  0  0  0  0  0  0  0  0
   -0.3918    0.9543   -2.2473 H   0  0  0  0  0  0  0  0  0  0  0  0
   -0.8509   -0.7084   -1.9293 H   0  0  0  0  0  0  0  0  0  0  0  0
   -1.9558    2.6448    1.4894 H   0  0  0  0  0  0  0  0  0  0  0  0
   -0.8974    1.5824    2.4309 H   0  0  0  0  0  0  0  0  0  0  0  0
   -0.3728    3.2066    2.0052 H   0  0  0  0  0  0  0  0  0  0  0  0
   -4.2673    0.0460   -0.7644 H   0  0  0  0  0  0  0  0  0  0  0  0
   -1.7067   -2.3390    1.3231 H   0  0  0  0  0  0  0  0  0  0  0  0
    3.7036   -1.9534   -0.8923 H   0  0  0  0  0  0  0  0  0  0  0  0
    4.2297   -0.5080   -1.7550 H   0  0  0  0  0  0  0  0  0  0  0  0
    4.4533    1.5388    1.2976 H   0  0  0  0  0  0  0  0  0  0  0  0
    4.5740    1.5991   -0.4684 H   0  0  0  0  0  0  0  0  0  0  0  0
    2.9973    1.4892    0.3440 H   0  0  0  0  0  0  0  0  0  0  0  0
    5.8761   -0.3729    1.5483 H   0  0  0  0  0  0  0  0  0  0  0  0
    5.5916   -1.8291    0.6075 H   0  0  0  0  0  0  0  0  0  0  0  0
    6.1928   -0.3646   -0.2006 H   0  0  0  0  0  0  0  0  0  0  0  0
  1 10  2  0  0  0  0
  2 11  2  0  0  0  0
  3 13  2  0  0  0  0
  4 10  1  0  0  0  0
  4 13  1  0  0  0  0
  4 26  1  0  0  0  0
  5 11  1  0  0  0  0
  5 13  1  0  0  0  0
  5 27  1  0  0  0  0
  6 15  1  0  0  0  0
  6 17  1  0  0  0  0
  6 18  1  0  0  0  0
  7  8  1  0  0  0  0
  7  9  1  0  0  0  0
  7 10  1  0  0  0  0
  7 11  1  0  0  0  0
  8 12  1  0  0  0  0
  8 19  1  0  0  0  0
  8 20  1  0  0  0  0
  9 14  1  0  0  0  0
  9 21  1  0  0  0  0
  9 22  1  0  0  0  0
 12 23  1  0  0  0  0
 12 24  1  0  0  0  0
 12 25  1  0  0  0  0
 14 16  3  0  0  0  0
 15 16  1  0  0  0  0
 15 28  1  0  0  0  0
 15 29  1  0  0  0  0
 17 30  1  0  0  0  0
 17 31  1  0  0  0  0
 17 32  1  0  0  0  0
 18 33  1  0  0  0  0
 18 34  1  0  0  0  0
 18 35  1  0  0  0  0
M  END
> <PUBCHEM_COMPOUND_CID>
14368

> <PUBCHEM_CONFORMER_RMSD>
0.6

> <PUBCHEM_CONFORMER_DIVERSEORDER>
1
3
12
6
9
4
10
5
2
11
8
7

> <PUBCHEM_MMFF94_PARTIAL_CHARGES>
18
1 -0.57
10 0.57
11 0.57
13 0.69
14 -0.2
15 0.47
16 -0.2
17 0.27
18 0.27
2 -0.57
26 0.37
27 0.37
3 -0.57
4 -0.49
5 -0.49
6 -0.81
7 0.12
9 0.2

> <PUBCHEM_EFFECTIVE_ROTOR_COUNT>
3.6

> <PUBCHEM_PHARMACOPHORE_FEATURES>
8
1 1 acceptor
1 12 hydrophobe
1 2 acceptor
1 3 acceptor
1 4 donor
1 5 donor
1 6 cation
6 4 5 7 10 11 13 rings

> <PUBCHEM_HEAVY_ATOM_COUNT>
18

> <PUBCHEM_ATOM_DEF_STEREO_COUNT>
0

> <PUBCHEM_ATOM_UDEF_STEREO_COUNT>
0

> <PUBCHEM_BOND_DEF_STEREO_COUNT>
0

> <PUBCHEM_BOND_UDEF_STEREO_COUNT>
0

> <PUBCHEM_ISOTOPIC_ATOM_COUNT>
0

> <PUBCHEM_COMPONENT_COUNT>
1

> <PUBCHEM_CACTVS_TAUTO_COUNT>
5

> <PUBCHEM_CONFORMER_ID>
0000382000000001

> <PUBCHEM_MMFF94_ENERGY>
45.3571

> <PUBCHEM_FEATURE_SELFOVERLAP>
40.636

> <PUBCHEM_SHAPE_FINGERPRINT>
10062212 137 17346601893311117875
10366900 7 18335690616951637226
10465860 250 18408040693297295591
10922049 32 10951777352288581395
11315181 36 18201999946053016686
12403814 3 17385448734321208668
14787075 74 18192431870733881038
16945 1 18130775742667880655
17834072 14 18409728448062218516
192875 21 17632572713085959670
200 152 18342177748087061166
20671657 53 17775281608367239462
21069387 34 16415190153225739662
21339142 149 18116145743780189609
21452121 199 17483666802545198419
23402539 116 18342182171544491782
23419403 2 18192165818958792093
23557571 272 18334853930940604082
23559900 14 18264772232855663054
26918003 58 18409172125343496780
3286 77 18201162070642049644
347723 3 17060345102377789807
6049 1 17242427620913998564
76465 3 18266462005712155919
81228 2 18046874286463525257
9862522 239 16126986319855971117

> <PUBCHEM_SHAPE_MULTIPOLES>
337.88
8.17
2.04
1.37
10
0.78
-0.03
-2.79
0.91
-1.82
0.58
-0.01
0.11
0.7

> <PUBCHEM_SHAPE_SELFOVERLAP>
687.514

> <PUBCHEM_SHAPE_VOLUME>
192.7

> <PUBCHEM_COORDINATE_TYPE>
2
5
10

$$$$

