17395843
  -OEChem-06241222523D

 47 48  0     1  0  0  0  0  0999 V2000
   -0.8049    0.4901    1.0559 O   0  0  0  0  0  0  0  0  0  0  0  0
    5.7153    1.9500    0.7697 O   0  0  0  0  0  0  0  0  0  0  0  0
   -3.3210   -0.3091    0.2489 N   0  0  0  0  0  0  0  0  0  0  0  0
    0.1016   -1.3632   -0.0646 N   0  0  0  0  0  0  0  0  0  0  0  0
    5.5618   -0.1431   -0.3045 N   0  0  0  0  0  0  0  0  0  0  0  0
   -4.4108    1.3965   -1.2082 C   0  0  2  0  0  0  0  0  0  0  0  0
   -5.7506    0.1240    0.5415 C   0  0  2  0  0  0  0  0  0  0  0  0
   -5.7879    0.8455   -0.8127 C   0  0  0  0  0  0  0  0  0  0  0  0
   -3.3438    0.2946   -1.0913 C   0  0  0  0  0  0  0  0  0  0  0  0
   -4.6198   -0.9178    0.5731 C   0  0  0  0  0  0  0  0  0  0  0  0
   -4.0383    2.6344   -0.3856 C   0  0  0  0  0  0  0  0  0  0  0  0
   -7.0983   -0.5341    0.8362 C   0  0  0  0  0  0  0  0  0  0  0  0
   -2.2526   -1.3038    0.3438 C   0  0  0  0  0  0  0  0  0  0  0  0
   -0.9169   -0.5973    0.4992 C   0  0  0  0  0  0  0  0  0  0  0  0
    1.4815   -1.0549   -0.1244 C   0  0  0  0  0  0  0  0  0  0  0  0
    1.9546    0.1375    0.4236 C   0  0  0  0  0  0  0  0  0  0  0  0
    2.3685   -1.9433   -0.7324 C   0  0  0  0  0  0  0  0  0  0  0  0
    3.3146    0.4413    0.3636 C   0  0  0  0  0  0  0  0  0  0  0  0
    3.7285   -1.6394   -0.7925 C   0  0  0  0  0  0  0  0  0  0  0  0
    4.2016   -0.4471   -0.2444 C   0  0  0  0  0  0  0  0  0  0  0  0
    6.2166    0.9949    0.1854 C   0  0  0  0  0  0  0  0  0  0  0  0
    7.7003    0.9443   -0.0802 C   0  0  0  0  0  0  0  0  0  0  0  0
   -4.4624    1.7109   -2.2588 H   0  0  0  0  0  0  0  0  0  0  0  0
   -5.5661    0.8636    1.3314 H   0  0  0  0  0  0  0  0  0  0  0  0
   -6.5294    1.6534   -0.7912 H   0  0  0  0  0  0  0  0  0  0  0  0
   -6.1171    0.1413   -1.5887 H   0  0  0  0  0  0  0  0  0  0  0  0
   -2.3685    0.7346   -1.3334 H   0  0  0  0  0  0  0  0  0  0  0  0
   -3.5401   -0.4732   -1.8525 H   0  0  0  0  0  0  0  0  0  0  0  0
   -4.8438   -1.7397   -0.1207 H   0  0  0  0  0  0  0  0  0  0  0  0
   -4.5802   -1.3485    1.5818 H   0  0  0  0  0  0  0  0  0  0  0  0
   -4.7994    3.4140   -0.4964 H   0  0  0  0  0  0  0  0  0  0  0  0
   -3.9364    2.4125    0.6809 H   0  0  0  0  0  0  0  0  0  0  0  0
   -3.0853    3.0499   -0.7307 H   0  0  0  0  0  0  0  0  0  0  0  0
   -7.3448   -1.2926    0.0855 H   0  0  0  0  0  0  0  0  0  0  0  0
   -7.0861   -1.0206    1.8173 H   0  0  0  0  0  0  0  0  0  0  0  0
   -7.9008    0.2110    0.8415 H   0  0  0  0  0  0  0  0  0  0  0  0
   -2.2599   -1.9887   -0.5126 H   0  0  0  0  0  0  0  0  0  0  0  0
   -2.3654   -1.9105    1.2518 H   0  0  0  0  0  0  0  0  0  0  0  0
   -0.1532   -2.2546   -0.4840 H   0  0  0  0  0  0  0  0  0  0  0  0
    1.3298    0.8740    0.9089 H   0  0  0  0  0  0  0  0  0  0  0  0
    2.0130   -2.8757   -1.1635 H   0  0  0  0  0  0  0  0  0  0  0  0
    3.6070    1.3822    0.8087 H   0  0  0  0  0  0  0  0  0  0  0  0
    4.4083   -2.3409   -1.2694 H   0  0  0  0  0  0  0  0  0  0  0  0
    6.1429   -0.8413   -0.7640 H   0  0  0  0  0  0  0  0  0  0  0  0
    8.1745    1.8576    0.2897 H   0  0  0  0  0  0  0  0  0  0  0  0
    8.1381    0.0833    0.4326 H   0  0  0  0  0  0  0  0  0  0  0  0
    7.8823    0.8611   -1.1554 H   0  0  0  0  0  0  0  0  0  0  0  0
  1 14  2  0  0  0  0
  2 21  2  0  0  0  0
  3  9  1  0  0  0  0
  3 10  1  0  0  0  0
  3 13  1  0  0  0  0
  4 14  1  0  0  0  0
  4 15  1  0  0  0  0
  4 39  1  0  0  0  0
  5 20  1  0  0  0  0
  5 21  1  0  0  0  0
  5 44  1  0  0  0  0
  6  8  1  0  0  0  0
  6  9  1  0  0  0  0
  6 11  1  0  0  0  0
  6 23  1  0  0  0  0
  7  8  1  0  0  0  0
  7 10  1  0  0  0  0
  7 12  1  0  0  0  0
  7 24  1  0  0  0  0
  8 25  1  0  0  0  0
  8 26  1  0  0  0  0
  9 27  1  0  0  0  0
  9 28  1  0  0  0  0
 10 29  1  0  0  0  0
 10 30  1  0  0  0  0
 11 31  1  0  0  0  0
 11 32  1  0  0  0  0
 11 33  1  0  0  0  0
 12 34  1  0  0  0  0
 12 35  1  0  0  0  0
 12 36  1  0  0  0  0
 13 14  1  0  0  0  0
 13 37  1  0  0  0  0
 13 38  1  0  0  0  0
 15 16  2  0  0  0  0
 15 17  1  0  0  0  0
 16 18  1  0  0  0  0
 16 40  1  0  0  0  0
 17 19  2  0  0  0  0
 17 41  1  0  0  0  0
 18 20  2  0  0  0  0
 18 42  1  0  0  0  0
 19 20  1  0  0  0  0
 19 43  1  0  0  0  0
 21 22  1  0  0  0  0
 22 45  1  0  0  0  0
 22 46  1  0  0  0  0
 22 47  1  0  0  0  0
M  END
> <PUBCHEM_COMPOUND_CID>
17395843

> <PUBCHEM_CONFORMER_RMSD>
0.8

> <PUBCHEM_CONFORMER_DIVERSEORDER>
1
68
64
62
42
65
52
12
57
10
44
21
53
39
7
38
37
25
71
35
74
73
48
19
60
13
63
9
46
70
56
41
16
49
45
69
72
8
36
47
22
34
11
54
31
14
61
40
58
20
3
67
2
33
15
32
75
55
23
50
27
43
76
59
30
5
4
28
24
26
18
51
66
6
29
17

> <PUBCHEM_MMFF94_PARTIAL_CHARGES>
23
1 -0.57
10 0.27
13 0.33
14 0.57
15 0.12
16 -0.15
17 -0.15
18 -0.15
19 -0.15
2 -0.57
20 0.12
21 0.57
22 0.06
3 -0.81
39 0.37
4 -0.55
40 0.15
41 0.15
42 0.15
43 0.15
44 0.37
5 -0.55
9 0.27

> <PUBCHEM_EFFECTIVE_ROTOR_COUNT>
7.2

> <PUBCHEM_PHARMACOPHORE_FEATURES>
7
1 1 acceptor
1 2 acceptor
1 3 cation
1 4 donor
1 5 donor
6 15 16 17 18 19 20 rings
6 3 6 7 8 9 10 rings

> <PUBCHEM_HEAVY_ATOM_COUNT>
22

> <PUBCHEM_ATOM_DEF_STEREO_COUNT>
0

> <PUBCHEM_ATOM_UDEF_STEREO_COUNT>
2

> <PUBCHEM_BOND_DEF_STEREO_COUNT>
0

> <PUBCHEM_BOND_UDEF_STEREO_COUNT>
0

> <PUBCHEM_ISOTOPIC_ATOM_COUNT>
0

> <PUBCHEM_COMPONENT_COUNT>
1

> <PUBCHEM_CACTVS_TAUTO_COUNT>
4

> <PUBCHEM_CONFORMER_ID>
0109708300000001

> <PUBCHEM_MMFF94_ENERGY>
53.9675

> <PUBCHEM_FEATURE_SELFOVERLAP>
35.52

> <PUBCHEM_SHAPE_FINGERPRINT>
10 15 18202282481016373946
10087517 78 17917996091823490621
10763959 59 18412542090556405580
10835480 77 18338520841037661461
11315181 36 7925912599637828343
11719270 70 18187932815773435510
12236239 1 16443062815992301107
12596602 18 17131840888433175481
12643181 29 7781515906209397493
12730499 353 18408601483236049718
12916748 109 18131064965797332571
13073987 5 17988645245883718483
13288520 33 6699806488779111515
13402501 40 18413111653857538396
13403585 85 18130787854523063029
13533116 47 17240760739769839942
14123256 10 17385441016781819128
14251764 18 15339115728440117654
14840074 17 16877943849738592197
14933364 13 18410291414958093009
15183329 4 16588027921886777973
15537594 2 14201397209627968663
16079462 125 18411706478149597834
17844677 252 18339917225173386901
18222031 100 4895550775541014426
18335252 98 18408599237253152899
18608769 82 18338796719946324579
18927931 339 6627746695918342565
19489759 90 17418372498072021155
200 152 17168145675829283915
20157964 124 18260545637360423326
20281389 69 18272089400843729920
20645477 56 18412548704272972871
20645477 70 17968651747840578606
21150785 3 17603872182894302511
21315759 40 14979956951990938139
220451 1 15719392858587922543
23035841 295 6122505700595924767
23402655 69 18040437715424744526
23559900 14 17894919477323141282
23622692 88 13182735953223835994
2838139 119 18336555941055462260
2916195 48 18343867722832812327
29717793 49 16588015836629450950
34797466 226 17894905235406720844
3545911 37 18407758127346313170
4073 2 18342450409369433267
4325135 7 18336266761012917695
4340502 62 17775284963248978666
5104073 3 17917148432951413107
5283173 99 18340771549840229472
542803 24 16877663482968867159

> <PUBCHEM_SHAPE_MULTIPOLES>
426.07
19.86
1.91
0.99
8.95
0.58
-0.1
7.39
0.99
0.05
-0.27
-0.67
0.06
1.94

> <PUBCHEM_SHAPE_SELFOVERLAP>
873.584

> <PUBCHEM_SHAPE_VOLUME>
244.7

> <PUBCHEM_COORDINATE_TYPE>
2
5
10

$$$$

