10963
  -OEChem-06261205102D

  9  8  0     0  0  0  0  0  0999 V2000
    5.4641   -0.5000    0.0000 Cl  0  0  0  0  0  0  0  0  0  0  0  0
    2.0000    0.5000    0.0000 N   0  0  0  0  0  0  0  0  0  0  0  0
    3.7320   -0.5000    0.0000 C   0  0  0  0  0  0  0  0  0  0  0  0
    4.5981    0.0000    0.0000 C   0  0  0  0  0  0  0  0  0  0  0  0
    2.8660    0.0000    0.0000 C   0  0  0  0  0  0  0  0  0  0  0  0
    3.3335   -0.9749    0.0000 H   0  0  0  0  0  0  0  0  0  0  0  0
    4.1306   -0.9749    0.0000 H   0  0  0  0  0  0  0  0  0  0  0  0
    4.9966    0.4749    0.0000 H   0  0  0  0  0  0  0  0  0  0  0  0
    4.1996    0.4749    0.0000 H   0  0  0  0  0  0  0  0  0  0  0  0
  1  4  1  0  0  0  0
  2  5  3  0  0  0  0
  3  4  1  0  0  0  0
  3  5  1  0  0  0  0
  3  6  1  0  0  0  0
  3  7  1  0  0  0  0
  4  8  1  0  0  0  0
  4  9  1  0  0  0  0
M  END
> <PUBCHEM_COMPOUND_CID>
10963

> <PUBCHEM_COMPOUND_CANONICALIZED>
1

> <PUBCHEM_CACTVS_COMPLEXITY>
51.2

> <PUBCHEM_CACTVS_HBOND_ACCEPTOR>
1

> <PUBCHEM_CACTVS_HBOND_DONOR>
0

> <PUBCHEM_CACTVS_ROTATABLE_BOND>
1

> <PUBCHEM_CACTVS_SUBSKEYS>
AAADcYBCAAAEAAAAAAAAAAAAAAAAAAAAAAAAAAAAAAAAAAAAAAAAHAIAAAAACAOBAEAAAAAAAAAQBAAAAAAAAAAAAAAAAAAAAgAAgAAAAAAAAAAAAAAAAAAAAAAAAAAAAAAAAAAAAAAAAAAAAAAAAAAAAA==

> <PUBCHEM_IUPAC_OPENEYE_NAME>
3-chloropropanenitrile

> <PUBCHEM_IUPAC_CAS_NAME>
3-chloropropanenitrile

> <PUBCHEM_IUPAC_NAME>
3-chloropropanenitrile

> <PUBCHEM_IUPAC_SYSTEMATIC_NAME>
3-chloranylpropanenitrile

> <PUBCHEM_IUPAC_TRADITIONAL_NAME>
3-chloropropionitrile

> <PUBCHEM_IUPAC_INCHI>
InChI=1S/C3H4ClN/c4-2-1-3-5/h1-2H2

> <PUBCHEM_IUPAC_INCHIKEY>
GNHMRTZZNHZDDM-UHFFFAOYSA-N

> <PUBCHEM_XLOGP3>
0.2

> <PUBCHEM_EXACT_MASS>
89.003227

> <PUBCHEM_MOLECULAR_FORMULA>
C3H4ClN

> <PUBCHEM_MOLECULAR_WEIGHT>
89.52356

> <PUBCHEM_OPENEYE_CAN_SMILES>
C(CCl)C#N

> <PUBCHEM_OPENEYE_ISO_SMILES>
C(CCl)C#N

> <PUBCHEM_CACTVS_TPSA>
23.8

> <PUBCHEM_MONOISOTOPIC_WEIGHT>
89.003227

> <PUBCHEM_TOTAL_CHARGE>
0

> <PUBCHEM_HEAVY_ATOM_COUNT>
5

> <PUBCHEM_ATOM_DEF_STEREO_COUNT>
0

> <PUBCHEM_ATOM_UDEF_STEREO_COUNT>
0

> <PUBCHEM_BOND_DEF_STEREO_COUNT>
0

> <PUBCHEM_BOND_UDEF_STEREO_COUNT>
0

> <PUBCHEM_ISOTOPIC_ATOM_COUNT>
0

> <PUBCHEM_COMPONENT_COUNT>
1

> <PUBCHEM_CACTVS_TAUTO_COUNT>
1

> <PUBCHEM_COORDINATE_TYPE>
1
5
255

$$$$

