51090913
  -OEChem-06241223003D

 48 50  0     1  0  0  0  0  0999 V2000
   -6.2852   -0.6116    1.8849 O   0  0  0  0  0  0  0  0  0  0  0  0
   -0.9967   -0.2101    0.6375 O   0  0  0  0  0  0  0  0  0  0  0  0
   -0.0275    3.4557   -0.5370 O   0  0  0  0  0  0  0  0  0  0  0  0
   -2.4917   -0.5943   -1.0944 N   0  0  0  0  0  0  0  0  0  0  0  0
    0.7063    1.2651   -0.7852 N   0  0  0  0  0  0  0  0  0  0  0  0
    1.6663    0.3169   -0.5736 N   0  0  0  0  0  0  0  0  0  0  0  0
   -4.4892   -0.5784    0.3431 C   0  0  1  0  0  0  0  0  0  0  0  0
   -4.0437    0.1055    1.6173 C   0  0  0  0  0  0  0  0  0  0  0  0
   -3.4151   -1.4195   -0.3195 C   0  0  0  0  0  0  0  0  0  0  0  0
   -5.6801   -1.3823    0.8353 C   0  0  0  0  0  0  0  0  0  0  0  0
   -5.3704    0.4236    2.2744 C   0  0  0  0  0  0  0  0  0  0  0  0
   -2.8654   -0.3843   -2.4876 C   0  0  0  0  0  0  0  0  0  0  0  0
   -1.3310   -0.0446   -0.5388 C   0  0  0  0  0  0  0  0  0  0  0  0
   -0.4771    0.7870   -1.4796 C   0  0  0  0  0  0  0  0  0  0  0  0
   -2.2853   -1.4576   -3.3851 C   0  0  0  0  0  0  0  0  0  0  0  0
    0.8245    2.5832   -0.3712 C   0  0  0  0  0  0  0  0  0  0  0  0
    2.7474    0.6676    0.0468 C   0  0  0  0  0  0  0  0  0  0  0  0
    2.0830    2.9466    0.3137 C   0  0  0  0  0  0  0  0  0  0  0  0
    3.0292    2.0350    0.5253 C   0  0  0  0  0  0  0  0  0  0  0  0
    3.7987   -0.3560    0.2884 C   0  0  0  0  0  0  0  0  0  0  0  0
    4.6356   -0.2481    1.3991 C   0  0  0  0  0  0  0  0  0  0  0  0
    3.9466   -1.4252   -0.5950 C   0  0  0  0  0  0  0  0  0  0  0  0
    5.6207   -1.2094    1.6263 C   0  0  0  0  0  0  0  0  0  0  0  0
    4.9314   -2.3865   -0.3679 C   0  0  0  0  0  0  0  0  0  0  0  0
    5.7685   -2.2785    0.7428 C   0  0  0  0  0  0  0  0  0  0  0  0
   -4.8586    0.1888   -0.3514 H   0  0  0  0  0  0  0  0  0  0  0  0
   -3.4733   -0.5823    2.2531 H   0  0  0  0  0  0  0  0  0  0  0  0
   -3.4392    1.0014    1.4513 H   0  0  0  0  0  0  0  0  0  0  0  0
   -3.8599   -2.1667   -0.9870 H   0  0  0  0  0  0  0  0  0  0  0  0
   -2.8409   -1.9705    0.4348 H   0  0  0  0  0  0  0  0  0  0  0  0
   -6.4165   -1.5653    0.0472 H   0  0  0  0  0  0  0  0  0  0  0  0
   -5.3791   -2.3458    1.2615 H   0  0  0  0  0  0  0  0  0  0  0  0
   -5.7728    1.3768    1.9153 H   0  0  0  0  0  0  0  0  0  0  0  0
   -5.3005    0.4628    3.3650 H   0  0  0  0  0  0  0  0  0  0  0  0
   -2.5421    0.5981   -2.8383 H   0  0  0  0  0  0  0  0  0  0  0  0
   -3.9589   -0.3848   -2.5667 H   0  0  0  0  0  0  0  0  0  0  0  0
   -1.0535    1.6492   -1.8261 H   0  0  0  0  0  0  0  0  0  0  0  0
   -0.1464    0.1956   -2.3368 H   0  0  0  0  0  0  0  0  0  0  0  0
   -2.5621   -1.2700   -4.4274 H   0  0  0  0  0  0  0  0  0  0  0  0
   -2.6647   -2.4476   -3.1110 H   0  0  0  0  0  0  0  0  0  0  0  0
   -1.1943   -1.5003   -3.3267 H   0  0  0  0  0  0  0  0  0  0  0  0
    2.2167    3.9771    0.6222 H   0  0  0  0  0  0  0  0  0  0  0  0
    3.9652    2.3120    0.9901 H   0  0  0  0  0  0  0  0  0  0  0  0
    4.5321    0.5472    2.1310 H   0  0  0  0  0  0  0  0  0  0  0  0
    3.3110   -1.5268   -1.4707 H   0  0  0  0  0  0  0  0  0  0  0  0
    6.2673   -1.1304    2.4954 H   0  0  0  0  0  0  0  0  0  0  0  0
    5.0476   -3.2185   -1.0563 H   0  0  0  0  0  0  0  0  0  0  0  0
    6.5343   -3.0278    0.9204 H   0  0  0  0  0  0  0  0  0  0  0  0
  1 10  1  0  0  0  0
  1 11  1  0  0  0  0
  2 13  2  0  0  0  0
  3 16  2  0  0  0  0
  4  9  1  0  0  0  0
  4 12  1  0  0  0  0
  4 13  1  0  0  0  0
  5  6  1  0  0  0  0
  5 14  1  0  0  0  0
  5 16  1  0  0  0  0
  6 17  2  0  0  0  0
  7  8  1  0  0  0  0
  7  9  1  0  0  0  0
  7 10  1  0  0  0  0
  7 26  1  0  0  0  0
  8 11  1  0  0  0  0
  8 27  1  0  0  0  0
  8 28  1  0  0  0  0
  9 29  1  0  0  0  0
  9 30  1  0  0  0  0
 10 31  1  0  0  0  0
 10 32  1  0  0  0  0
 11 33  1  0  0  0  0
 11 34  1  0  0  0  0
 12 15  1  0  0  0  0
 12 35  1  0  0  0  0
 12 36  1  0  0  0  0
 13 14  1  0  0  0  0
 14 37  1  0  0  0  0
 14 38  1  0  0  0  0
 15 39  1  0  0  0  0
 15 40  1  0  0  0  0
 15 41  1  0  0  0  0
 16 18  1  0  0  0  0
 17 19  1  0  0  0  0
 17 20  1  0  0  0  0
 18 19  2  0  0  0  0
 18 42  1  0  0  0  0
 19 43  1  0  0  0  0
 20 21  2  0  0  0  0
 20 22  1  0  0  0  0
 21 23  1  0  0  0  0
 21 44  1  0  0  0  0
 22 24  2  0  0  0  0
 22 45  1  0  0  0  0
 23 25  2  0  0  0  0
 23 46  1  0  0  0  0
 24 25  1  0  0  0  0
 24 47  1  0  0  0  0
 25 48  1  0  0  0  0
M  END
> <PUBCHEM_COMPOUND_CID>
51090913

> <PUBCHEM_CONFORMER_RMSD>
1.2

> <PUBCHEM_CONFORMER_DIVERSEORDER>
1
76
53
24
30
20
57
39
46
79
31
51
68
2
49
84
63
34
58
33
7
11
88
71
60
13
29
61
26
16
9
47
10
66
14
35
89
6
23
70
64
56
4
74
67
43
27
87
62
83
32
69
48
78
15
17
44
36
80
59
5
38
65
37
3
25
41
86
28
81
72
75
52
77
42
40
73
45
12
85
19
55
54
22
18
21
50
82
8

> <PUBCHEM_MMFF94_PARTIAL_CHARGES>
29
1 -0.56
10 0.28
11 0.28
12 0.3
13 0.57
14 0.36
16 0.62
17 0.35
18 -0.14
19 -0.14
2 -0.57
20 0.09
21 -0.15
22 -0.15
23 -0.15
24 -0.15
25 -0.15
3 -0.57
4 -0.66
42 0.15
43 0.15
44 0.15
45 0.15
46 0.15
47 0.15
48 0.15
5 -0.3
6 -0.51
9 0.3

> <PUBCHEM_EFFECTIVE_ROTOR_COUNT>
8

> <PUBCHEM_PHARMACOPHORE_FEATURES>
7
1 1 acceptor
1 2 acceptor
1 3 acceptor
1 6 acceptor
5 1 7 8 10 11 rings
6 20 21 22 23 24 25 rings
6 5 6 16 17 18 19 rings

> <PUBCHEM_HEAVY_ATOM_COUNT>
25

> <PUBCHEM_ATOM_DEF_STEREO_COUNT>
0

> <PUBCHEM_ATOM_UDEF_STEREO_COUNT>
1

> <PUBCHEM_BOND_DEF_STEREO_COUNT>
0

> <PUBCHEM_BOND_UDEF_STEREO_COUNT>
0

> <PUBCHEM_ISOTOPIC_ATOM_COUNT>
0

> <PUBCHEM_COMPONENT_COUNT>
1

> <PUBCHEM_CACTVS_TAUTO_COUNT>
1

> <PUBCHEM_CONFORMER_ID>
030B95E100000001

> <PUBCHEM_MMFF94_ENERGY>
69.1487

> <PUBCHEM_FEATURE_SELFOVERLAP>
35.522

> <PUBCHEM_SHAPE_FINGERPRINT>
10369192 42 16842185356798087612
10498660 4 8646480847725243438
10692045 39 16009858597291686359
10928967 22 17489317360125125931
11135926 11 18197505022138875732
11545043 162 17632585963044035493
11796584 16 17058954318947554818
11991303 11 17342942864886173301
12107183 9 18335691789356227937
12363563 72 18340496646695666662
12403259 118 14129641916836938490
12422481 6 17968929915881686373
12553582 1 18408326592681236862
12633257 1 18410012109082818038
13103583 49 18260827089975840211
13533116 47 18269267968329096219
13673619 4 17274818056494187471
13782708 43 17560803200027627339
13914758 101 18411702102469421289
14251732 14 14476954580377161467
14251757 5 13398333647828024961
14251758 9 18334573585793467317
14251764 30 17131824357372922555
14347424 109 18408884035832801241
14528608 73 9943806668541722435
14739800 52 16807304492419658584
14951699 99 16081093641189614824
15475509 84 18040430027360192544
15728490 83 17838058457301503618
15842332 3 17679589939129283445
173720 79 17313379003459913919
17818456 19 17458334247877792617
17980427 23 16443075971250587237
1813 80 18410284839811718532
193927 3 17988925600037332510
20554085 129 15647329793231372163
20567600 254 7204771488901643394
20642791 268 17459203901931384368
20739085 24 18337382760482358628
212916 134 16298376960075319071
21304303 282 14851901274402250381
21421861 104 18260823774788965668
341906 21 15357972322322141577
3421961 26 18411702050270703656
445580 182 17822578320901720784
46194498 28 16486970649143241454
5104073 3 18115858621422586931
56633871 153 18187646950448566126
621550 5 17275383184059728469
6327066 14 7853274442202045386
7064713 232 16950573164121803438
7918774 8 17060048233963730659
8509985 295 17168134633447273809
8863177 126 17845927429702339699

> <PUBCHEM_SHAPE_MULTIPOLES>
481.94
14.39
2.83
2.29
2.91
2.05
0.96
-9.56
-10.5
-3.14
0.66
3.42
-0.87
-1.27

> <PUBCHEM_SHAPE_SELFOVERLAP>
1015.4

> <PUBCHEM_SHAPE_VOLUME>
269.8

> <PUBCHEM_COORDINATE_TYPE>
2
5
10

$$$$

