17396611
  -OEChem-06241222573D

 41 42  0     1  0  0  0  0  0999 V2000
   -6.7474    1.5965   -0.6313 Cl  0  0  0  0  0  0  0  0  0  0  0  0
    1.9844   -0.5793    1.4977 O   0  0  0  0  0  0  0  0  0  0  0  0
   -3.2817   -1.9699   -1.5895 O   0  0  0  0  0  0  0  0  0  0  0  0
   -0.3030    0.7507    1.5258 O   0  0  0  0  0  0  0  0  0  0  0  0
   -1.3408   -0.7461    0.0442 N   0  0  0  0  0  0  0  0  0  0  0  0
    7.5856    1.2138   -1.8165 N   0  0  0  0  0  0  0  0  0  0  0  0
    0.9369   -1.1494    0.7293 C   0  0  2  0  0  0  0  0  0  0  0  0
   -2.6316   -0.1890   -0.1189 C   0  0  0  0  0  0  0  0  0  0  0  0
   -0.2968   -0.2548    0.8213 C   0  0  0  0  0  0  0  0  0  0  0  0
   -3.5770   -0.8121   -0.9336 C   0  0  0  0  0  0  0  0  0  0  0  0
   -2.9546    0.9946    0.5449 C   0  0  0  0  0  0  0  0  0  0  0  0
   -4.2230    1.5550    0.3942 C   0  0  0  0  0  0  0  0  0  0  0  0
    0.6504   -2.5551    1.2362 C   0  0  0  0  0  0  0  0  0  0  0  0
   -4.8455   -0.2518   -1.0843 C   0  0  0  0  0  0  0  0  0  0  0  0
   -5.1684    0.9317   -0.4204 C   0  0  0  0  0  0  0  0  0  0  0  0
    3.1223   -0.2162    0.8231 C   0  0  0  0  0  0  0  0  0  0  0  0
   -4.5300    2.8232    1.1232 C   0  0  0  0  0  0  0  0  0  0  0  0
    3.0549    0.7305   -0.1992 C   0  0  0  0  0  0  0  0  0  0  0  0
    4.3470   -0.7922    1.1606 C   0  0  0  0  0  0  0  0  0  0  0  0
    4.2121    1.1011   -0.8838 C   0  0  0  0  0  0  0  0  0  0  0  0
    5.5043   -0.4217    0.4758 C   0  0  0  0  0  0  0  0  0  0  0  0
    5.4369    0.5251   -0.5463 C   0  0  0  0  0  0  0  0  0  0  0  0
   -3.5576   -3.1900   -0.9053 C   0  0  0  0  0  0  0  0  0  0  0  0
    6.6226    0.9051   -1.2473 C   0  0  0  0  0  0  0  0  0  0  0  0
    1.2122   -1.2249   -0.3321 H   0  0  0  0  0  0  0  0  0  0  0  0
   -1.1733   -1.5908   -0.4971 H   0  0  0  0  0  0  0  0  0  0  0  0
   -2.2664    1.5251    1.1862 H   0  0  0  0  0  0  0  0  0  0  0  0
    0.2786   -2.5261    2.2669 H   0  0  0  0  0  0  0  0  0  0  0  0
    1.5693   -3.1514    1.2482 H   0  0  0  0  0  0  0  0  0  0  0  0
   -0.0893   -3.0804    0.6254 H   0  0  0  0  0  0  0  0  0  0  0  0
   -5.5764   -0.7439   -1.7219 H   0  0  0  0  0  0  0  0  0  0  0  0
   -4.7812    3.6210    0.4165 H   0  0  0  0  0  0  0  0  0  0  0  0
   -5.3643    2.6748    1.8169 H   0  0  0  0  0  0  0  0  0  0  0  0
   -3.6786    3.1757    1.7158 H   0  0  0  0  0  0  0  0  0  0  0  0
    2.1097    1.1950   -0.4668 H   0  0  0  0  0  0  0  0  0  0  0  0
    4.4050   -1.5303    1.9559 H   0  0  0  0  0  0  0  0  0  0  0  0
    4.1440    1.8421   -1.6768 H   0  0  0  0  0  0  0  0  0  0  0  0
    6.4516   -0.8797    0.7504 H   0  0  0  0  0  0  0  0  0  0  0  0
   -3.0107   -3.2386    0.0416 H   0  0  0  0  0  0  0  0  0  0  0  0
   -4.6322   -3.2905   -0.7228 H   0  0  0  0  0  0  0  0  0  0  0  0
   -3.2319   -4.0192   -1.5392 H   0  0  0  0  0  0  0  0  0  0  0  0
  1 15  1  0  0  0  0
  2  7  1  0  0  0  0
  2 16  1  0  0  0  0
  3 10  1  0  0  0  0
  3 23  1  0  0  0  0
  4  9  2  0  0  0  0
  5  8  1  0  0  0  0
  5  9  1  0  0  0  0
  5 26  1  0  0  0  0
  6 24  3  0  0  0  0
  7  9  1  0  0  0  0
  7 13  1  0  0  0  0
  7 25  1  0  0  0  0
  8 10  2  0  0  0  0
  8 11  1  0  0  0  0
 10 14  1  0  0  0  0
 11 12  2  0  0  0  0
 11 27  1  0  0  0  0
 12 15  1  0  0  0  0
 12 17  1  0  0  0  0
 13 28  1  0  0  0  0
 13 29  1  0  0  0  0
 13 30  1  0  0  0  0
 14 15  2  0  0  0  0
 14 31  1  0  0  0  0
 16 18  2  0  0  0  0
 16 19  1  0  0  0  0
 17 32  1  0  0  0  0
 17 33  1  0  0  0  0
 17 34  1  0  0  0  0
 18 20  1  0  0  0  0
 18 35  1  0  0  0  0
 19 21  2  0  0  0  0
 19 36  1  0  0  0  0
 20 22  2  0  0  0  0
 20 37  1  0  0  0  0
 21 22  1  0  0  0  0
 21 38  1  0  0  0  0
 22 24  1  0  0  0  0
 23 39  1  0  0  0  0
 23 40  1  0  0  0  0
 23 41  1  0  0  0  0
M  END
> <PUBCHEM_COMPOUND_CID>
17396611

> <PUBCHEM_CONFORMER_RMSD>
0.8

> <PUBCHEM_CONFORMER_DIVERSEORDER>
1
68
48
8
71
53
142
62
73
32
97
45
22
93
127
26
15
106
78
43
129
24
4
122
79
36
25
64
86
100
117
80
67
19
17
143
123
23
140
77
61
66
13
125
52
133
11
46
113
136
55
134
116
141
138
33
65
3
44
102
91
81
105
37
112
90
94
132
18
63
109
20
51
41
47
58
95
131
49
139
119
110
126
89
135
54
104
39
111
83
5
21
82
85
115
2
76
96
7
128
9
144
38
40
14
74
87
72
31
42
57
88
101
98
84
12
114
60
107
29
28
75
50
118
103
27
92
59
99
108
35
137
56
69
130
10
6
120
16
70
34
124
30
121

> <PUBCHEM_MMFF94_PARTIAL_CHARGES>
30
1 -0.18
10 0.08
11 -0.15
12 -0.14
14 -0.15
15 0.18
16 0.08
17 0.14
18 -0.15
19 -0.15
2 -0.36
20 -0.15
21 -0.15
22 0.07
23 0.28
24 0.48
26 0.37
27 0.15
3 -0.36
31 0.15
35 0.15
36 0.15
37 0.15
38 0.15
4 -0.57
5 -0.55
6 -0.56
7 0.34
8 0.12
9 0.57

> <PUBCHEM_EFFECTIVE_ROTOR_COUNT>
6

> <PUBCHEM_PHARMACOPHORE_FEATURES>
7
1 2 acceptor
1 3 acceptor
1 4 acceptor
1 5 donor
1 6 acceptor
6 16 18 19 20 21 22 rings
6 8 10 11 12 14 15 rings

> <PUBCHEM_HEAVY_ATOM_COUNT>
24

> <PUBCHEM_ATOM_DEF_STEREO_COUNT>
0

> <PUBCHEM_ATOM_UDEF_STEREO_COUNT>
1

> <PUBCHEM_BOND_DEF_STEREO_COUNT>
0

> <PUBCHEM_BOND_UDEF_STEREO_COUNT>
0

> <PUBCHEM_ISOTOPIC_ATOM_COUNT>
0

> <PUBCHEM_COMPONENT_COUNT>
1

> <PUBCHEM_CACTVS_TAUTO_COUNT>
2

> <PUBCHEM_CONFORMER_ID>
0109738300000001

> <PUBCHEM_MMFF94_ENERGY>
81.4051

> <PUBCHEM_FEATURE_SELFOVERLAP>
35.529

> <PUBCHEM_SHAPE_FINGERPRINT>
10 15 13973959883980706188
10670039 82 18187644760078535569
12236239 1 18343308080188896763
12403259 118 11167945766357795922
12516196 113 7132428025829713826
12616971 3 17988656219556912226
12760667 363 5112016023452416406
13583140 156 13326583916671067075
13668630 136 14490479681453149437
13685833 64 13912330070757412837
13690498 29 17969789575214182031
13862211 1 6266900160678564492
14251757 5 18040152929218321833
14840074 17 17989489636485702461
15064981 194 18337662024125917981
15081414 286 16988559113792755308
15183329 4 18259701224687367764
15575132 122 18200317753081514165
1577012 14 18202567259429524982
17844677 252 17968664821593706168
17870717 6 17458063755285243687
21033648 144 17275110496480596630
21033648 29 14692582038682620279
21033650 10 17968365836167322072
21304303 64 17346596369962479533
21315764 119 17968085478240642012
21637258 2 5328464766036998310
22061861 79 15647055966910589156
22393880 68 18260556580092704552
2297311 6 17676491627579700025
23081809 10 18201445761811549906
23198884 109 18186801400484499845
23559900 14 17531259317771832824
2838139 119 17346323674531521652
34797466 226 16805614633178425344
3610482 184 18341325626332941974
38570 142 18272078444197911818
465052 167 7060367154615883008
474 4 18131353041785330235
497634 4 17988932120046192735
5104073 3 17203047379715951256
543368 44 18202001001655213389
5718773 13 14346343663487450356
6608658 132 18338795718966256485

> <PUBCHEM_SHAPE_MULTIPOLES>
468.21
17.99
2.47
1.5
14.41
1.18
0.09
-9.93
7.94
-3.38
0.06
0.78
0.08
-3.2

> <PUBCHEM_SHAPE_SELFOVERLAP>
981.692

> <PUBCHEM_SHAPE_VOLUME>
264.6

> <PUBCHEM_COORDINATE_TYPE>
2
5
10

$$$$

