8269
  -OEChem-06261202423D

 49 52  0     0  0  0  0  0  0999 V2000
   -0.3529    1.1646   -2.9214 O   0  0  0  0  0  0  0  0  0  0  0  0
    4.6078   -2.1273   -0.4064 O   0  0  0  0  0  0  0  0  0  0  0  0
   -4.6063   -1.7812    0.9410 O   0  0  0  0  0  0  0  0  0  0  0  0
    3.6144   -3.4287    1.2666 O   0  0  0  0  0  0  0  0  0  0  0  0
   -4.2276   -3.1773   -0.8994 O   0  0  0  0  0  0  0  0  0  0  0  0
   -0.0894    3.1716   -1.7422 N   0  0  0  0  0  0  0  0  0  0  0  0
    0.0119    1.1446   -0.4532 C   0  0  0  0  0  0  0  0  0  0  0  0
    0.1819    2.4086    0.3903 C   0  0  0  0  0  0  0  0  0  0  0  0
    1.2275    0.2795   -0.4409 C   0  0  0  0  0  0  0  0  0  0  0  0
   -1.2096    0.3710   -0.0844 C   0  0  0  0  0  0  0  0  0  0  0  0
   -0.1725    1.7845   -1.8825 C   0  0  0  0  0  0  0  0  0  0  0  0
    0.1131    3.5402   -0.4208 C   0  0  0  0  0  0  0  0  0  0  0  0
    0.3650    2.5515    1.7585 C   0  0  0  0  0  0  0  0  0  0  0  0
    0.2289    4.8251    0.0734 C   0  0  0  0  0  0  0  0  0  0  0  0
    1.3003   -0.8312   -1.2805 C   0  0  0  0  0  0  0  0  0  0  0  0
   -1.1093   -0.7185    0.7798 C   0  0  0  0  0  0  0  0  0  0  0  0
    2.2895    0.5826    0.4104 C   0  0  0  0  0  0  0  0  0  0  0  0
   -2.4501    0.7385   -0.6047 C   0  0  0  0  0  0  0  0  0  0  0  0
    0.4850    3.8420    2.2843 C   0  0  0  0  0  0  0  0  0  0  0  0
    0.4183    4.9694    1.4480 C   0  0  0  0  0  0  0  0  0  0  0  0
    2.4366   -1.6402   -1.2687 C   0  0  0  0  0  0  0  0  0  0  0  0
   -2.2512   -1.4418    1.1244 C   0  0  0  0  0  0  0  0  0  0  0  0
    3.4258   -0.2261    0.4222 C   0  0  0  0  0  0  0  0  0  0  0  0
   -3.5920    0.0152   -0.2601 C   0  0  0  0  0  0  0  0  0  0  0  0
    3.4995   -1.3377   -0.4175 C   0  0  0  0  0  0  0  0  0  0  0  0
   -3.4926   -1.0749    0.6046 C   0  0  0  0  0  0  0  0  0  0  0  0
    4.5487   -3.1866    0.5141 C   0  0  0  0  0  0  0  0  0  0  0  0
   -4.8860   -2.8558    0.0808 C   0  0  0  0  0  0  0  0  0  0  0  0
    5.8111   -3.9941    0.4501 C   0  0  0  0  0  0  0  0  0  0  0  0
   -6.1262   -3.5673    0.5341 C   0  0  0  0  0  0  0  0  0  0  0  0
   -0.1728    3.8358   -2.5028 H   0  0  0  0  0  0  0  0  0  0  0  0
    0.3957    1.6927    2.4212 H   0  0  0  0  0  0  0  0  0  0  0  0
    0.1729    5.6929   -0.5738 H   0  0  0  0  0  0  0  0  0  0  0  0
    0.4853   -1.0962   -1.9485 H   0  0  0  0  0  0  0  0  0  0  0  0
   -0.1731   -1.0215    1.2391 H   0  0  0  0  0  0  0  0  0  0  0  0
    2.3491    1.4407    1.0622 H   0  0  0  0  0  0  0  0  0  0  0  0
   -2.5791    1.5940   -1.2605 H   0  0  0  0  0  0  0  0  0  0  0  0
    0.6260    3.9760    3.3535 H   0  0  0  0  0  0  0  0  0  0  0  0
    0.5123    5.9626    1.8787 H   0  0  0  0  0  0  0  0  0  0  0  0
    2.4869   -2.5054   -1.9242 H   0  0  0  0  0  0  0  0  0  0  0  0
   -2.1685   -2.2849    1.8049 H   0  0  0  0  0  0  0  0  0  0  0  0
    4.2554    0.0195    1.0800 H   0  0  0  0  0  0  0  0  0  0  0  0
   -4.5570    0.3095   -0.6637 H   0  0  0  0  0  0  0  0  0  0  0  0
    5.9319   -4.4109   -0.5528 H   0  0  0  0  0  0  0  0  0  0  0  0
    5.7513   -4.8185    1.1663 H   0  0  0  0  0  0  0  0  0  0  0  0
    6.6653   -3.3647    0.7115 H   0  0  0  0  0  0  0  0  0  0  0  0
   -5.9788   -3.9588    1.5436 H   0  0  0  0  0  0  0  0  0  0  0  0
   -6.3307   -4.4047   -0.1390 H   0  0  0  0  0  0  0  0  0  0  0  0
   -6.9760   -2.8810    0.5068 H   0  0  0  0  0  0  0  0  0  0  0  0
  1 11  2  0  0  0  0
  2 25  1  0  0  0  0
  2 27  1  0  0  0  0
  3 26  1  0  0  0  0
  3 28  1  0  0  0  0
  4 27  2  0  0  0  0
  5 28  2  0  0  0  0
  6 11  1  0  0  0  0
  6 12  1  0  0  0  0
  6 31  1  0  0  0  0
  7  8  1  0  0  0  0
  7  9  1  0  0  0  0
  7 10  1  0  0  0  0
  7 11  1  0  0  0  0
  8 12  1  0  0  0  0
  8 13  2  0  0  0  0
  9 15  2  0  0  0  0
  9 17  1  0  0  0  0
 10 16  2  0  0  0  0
 10 18  1  0  0  0  0
 12 14  2  0  0  0  0
 13 19  1  0  0  0  0
 13 32  1  0  0  0  0
 14 20  1  0  0  0  0
 14 33  1  0  0  0  0
 15 21  1  0  0  0  0
 15 34  1  0  0  0  0
 16 22  1  0  0  0  0
 16 35  1  0  0  0  0
 17 23  2  0  0  0  0
 17 36  1  0  0  0  0
 18 24  2  0  0  0  0
 18 37  1  0  0  0  0
 19 20  2  0  0  0  0
 19 38  1  0  0  0  0
 20 39  1  0  0  0  0
 21 25  2  0  0  0  0
 21 40  1  0  0  0  0
 22 26  2  0  0  0  0
 22 41  1  0  0  0  0
 23 25  1  0  0  0  0
 23 42  1  0  0  0  0
 24 26  1  0  0  0  0
 24 43  1  0  0  0  0
 27 29  1  0  0  0  0
 28 30  1  0  0  0  0
 29 44  1  0  0  0  0
 29 45  1  0  0  0  0
 29 46  1  0  0  0  0
 30 47  1  0  0  0  0
 30 48  1  0  0  0  0
 30 49  1  0  0  0  0
M  END
> <PUBCHEM_COMPOUND_CID>
8269

> <PUBCHEM_CONFORMER_RMSD>
0.8

> <PUBCHEM_CONFORMER_DIVERSEORDER>
1
23
39
8
38
30
4
18
32
21
10
12
31
40
19
3
13
34
25
14
27
16
15
24
17
5
11
6
35
37
2
9
22
26
7
33
41
20
28
29
36

> <PUBCHEM_MMFF94_PARTIAL_CHARGES>
43
1 -0.57
10 -0.14
11 0.57
12 0.12
13 -0.15
14 -0.15
15 -0.15
16 -0.15
17 -0.15
18 -0.15
19 -0.15
2 -0.23
20 -0.15
21 -0.15
22 -0.15
23 -0.15
24 -0.15
25 0.08
26 0.08
27 0.66
28 0.66
29 0.06
3 -0.23
30 0.06
31 0.37
32 0.15
33 0.15
34 0.15
35 0.15
36 0.15
37 0.15
38 0.15
39 0.15
4 -0.57
40 0.15
41 0.15
42 0.15
43 0.15
5 -0.57
6 -0.55
7 0.49
8 -0.14
9 -0.14

> <PUBCHEM_EFFECTIVE_ROTOR_COUNT>
6.4

> <PUBCHEM_PHARMACOPHORE_FEATURES>
8
1 1 acceptor
1 4 acceptor
1 5 acceptor
1 6 donor
5 6 7 8 11 12 rings
6 10 16 18 22 24 26 rings
6 8 12 13 14 19 20 rings
6 9 15 17 21 23 25 rings

> <PUBCHEM_HEAVY_ATOM_COUNT>
30

> <PUBCHEM_ATOM_DEF_STEREO_COUNT>
0

> <PUBCHEM_ATOM_UDEF_STEREO_COUNT>
0

> <PUBCHEM_BOND_DEF_STEREO_COUNT>
0

> <PUBCHEM_BOND_UDEF_STEREO_COUNT>
0

> <PUBCHEM_ISOTOPIC_ATOM_COUNT>
0

> <PUBCHEM_COMPONENT_COUNT>
1

> <PUBCHEM_CACTVS_TAUTO_COUNT>
2

> <PUBCHEM_CONFORMER_ID>
0000204D00000001

> <PUBCHEM_MMFF94_ENERGY>
111.6893

> <PUBCHEM_FEATURE_SELFOVERLAP>
40.681

> <PUBCHEM_SHAPE_FINGERPRINT>
10074138 170 17900543685479037257
10622 236 17487069000950094570
11135609 149 18123494716861563983
11552529 35 18124597745940746258
12107183 9 18262782044132308419
12160290 23 17694188442515246885
12293681 25 18053699990197713525
12788726 201 18195228139161741434
12969540 37 18195813959605192847
13004483 165 18337103583122759944
13134695 92 18334860485245613085
13140716 1 18336261357215837920
13533116 47 18121210984108405283
13631057 29 18270958059709909986
13955234 65 17976813195351888091
14068700 675 18200874084437506398
14468879 13 16522179485329017180
14863182 85 17621880886129573837
14955137 171 17897429606740883716
15131766 46 15939266554186495050
15163728 17 9799410061482206907
15219462 58 15158985658776730032
15878777 1 10142279984891967709
18681886 176 15866853714486759029
20602899 9 17409384196209614124
20775530 9 18272368693613726731
21033648 29 16153980365716251859
21120745 212 18120625124488288236
21796203 349 17977906203893594355
22956985 138 18267030444580761066
23419403 2 18125184678490668141
23559900 14 18200039585329133254
23845131 108 17038953837054983033
244849 19 18125187994764096533
32027 91 18339649919758977251
3380486 145 17898605083481389956
376196 1 15730379475394747168
4409770 3 17982172519979226861
4616759 239 17686649109498211666
463206 1 18272082786400046083
484985 159 17908143527114489514
497634 4 18055625373203830086
6679774 75 17764605222588929840
77188 2 18409726248918117816
81228 2 18050828207423226516
9981440 41 16740892143582119566

> <PUBCHEM_SHAPE_MULTIPOLES>
583.06
9.29
6.91
1.75
3.43
4.59
0.48
-20.79
-2.07
-2.11
-2.57
-0.13
1.38
0.23

> <PUBCHEM_SHAPE_SELFOVERLAP>
1297.484

> <PUBCHEM_SHAPE_VOLUME>
307.8

> <PUBCHEM_COORDINATE_TYPE>
2
5
10

$$$$

