11218
  -OEChem-06261205242D

104110  0     1  0  0  0  0  0999 V2000
   14.3352   -0.2517    0.0000 O   0  0  0  0  0  0  0  0  0  0  0  0
   11.6774   -1.8001    0.0000 O   0  0  0  0  0  0  0  0  0  0  0  0
    8.9421   -1.3040    0.0000 O   0  0  0  0  0  0  0  0  0  0  0  0
   10.8387    1.7481    0.0000 O   0  0  0  0  0  0  0  0  0  0  0  0
   15.5949    4.6216    0.0000 O   0  0  0  0  0  0  0  0  0  0  0  0
    7.2101   -1.2974    0.0000 O   0  0  0  0  0  0  0  0  0  0  0  0
   17.3554    4.8973    0.0000 O   0  0  0  0  0  0  0  0  0  0  0  0
    8.9498    0.6960    0.0000 O   0  0  0  0  0  0  0  0  0  0  0  0
    7.2216    1.7026    0.0000 O   0  0  0  0  0  0  0  0  0  0  0  0
    5.4857    0.7093    0.0000 O   0  0  0  0  0  0  0  0  0  0  0  0
    5.4742   -2.2907    0.0000 O   0  0  0  0  0  0  0  0  0  0  0  0
    3.7344   -4.2840    0.0000 O   0  0  0  0  0  0  0  0  0  0  0  0
    3.7460   -1.2840    0.0000 O   0  0  0  0  0  0  0  0  0  0  0  0
    2.0024   -4.2773    0.0000 O   0  0  0  0  0  0  0  0  0  0  0  0
   14.3352    0.7483    0.0000 C   0  0  1  0  0  0  0  0  0  0  0  0
   13.4692    0.2483    0.0000 C   0  0  3  0  0  0  0  0  0  0  0  0
   14.3352    1.7483    0.0000 C   0  0  1  0  0  0  0  0  0  0  0  0
   12.6031    0.7483    0.0000 C   0  0  3  0  0  0  0  0  0  0  0  0
   11.6931    0.2415    0.0000 C   0  0  2  0  0  0  0  0  0  0  0  0
   11.6851   -0.8001    0.0000 C   0  0  1  0  0  0  0  0  0  0  0  0
   15.2814    2.0530    0.0000 C   0  0  2  0  0  0  0  0  0  0  0  0
   13.4692    2.2483    0.0000 C   0  0  0  0  0  0  0  0  0  0  0  0
   12.6031    1.7483    0.0000 C   0  0  0  0  0  0  0  0  0  0  0  0
   15.2814    0.4436    0.0000 C   0  0  0  0  0  0  0  0  0  0  0  0
   13.4852   -0.7932    0.0000 C   0  0  0  0  0  0  0  0  0  0  0  0
   12.5872   -1.3210    0.0000 C   0  0  0  0  0  0  0  0  0  0  0  0
   15.8650    1.2483    0.0000 C   0  0  0  0  0  0  0  0  0  0  0  0
   10.7663    0.8055    0.0000 C   0  0  0  0  0  0  0  0  0  0  0  0
   10.7497   -1.3499    0.0000 C   0  0  0  0  0  0  0  0  0  0  0  0
   14.3352    2.7483    0.0000 C   0  0  0  0  0  0  0  0  0  0  0  0
    9.8184    0.2776    0.0000 C   0  0  0  0  0  0  0  0  0  0  0  0
    9.8100   -0.8074    0.0000 C   0  0  2  0  0  0  0  0  0  0  0  0
   11.7008    1.2414    0.0000 C   0  0  0  0  0  0  0  0  0  0  0  0
   15.5921    3.0036    0.0000 C   0  0  0  0  0  0  0  0  0  0  0  0
   15.0057    3.8136    0.0000 C   0  0  0  0  0  0  0  0  0  0  0  0
   16.5437    3.3109    0.0000 C   0  0  0  0  0  0  0  0  0  0  0  0
    8.0780   -0.8007    0.0000 C   0  0  2  0  0  0  0  0  0  0  0  0
   16.5454    4.3109    0.0000 C   0  0  0  0  0  0  0  0  0  0  0  0
    8.0819    0.1993    0.0000 C   0  0  3  0  0  0  0  0  0  0  0  0
    7.2178    0.7026    0.0000 C   0  0  3  0  0  0  0  0  0  0  0  0
    6.3460   -0.7940    0.0000 C   0  0  3  0  0  0  0  0  0  0  0  0
    6.3498    0.2060    0.0000 C   0  0  1  0  0  0  0  0  0  0  0  0
    5.4780   -1.2907    0.0000 C   0  0  0  0  0  0  0  0  0  0  0  0
    6.3575    2.2060    0.0000 C   0  0  0  0  0  0  0  0  0  0  0  0
    4.6062   -2.7873    0.0000 C   0  0  2  0  0  0  0  0  0  0  0  0
    3.7421   -2.2840    0.0000 C   0  0  3  0  0  0  0  0  0  0  0  0
    4.6024   -3.7873    0.0000 C   0  0  3  0  0  0  0  0  0  0  0  0
    2.8742   -2.7807    0.0000 C   0  0  0  0  0  0  0  0  0  0  0  0
    2.8703   -3.7806    0.0000 C   0  0  2  0  0  0  0  0  0  0  0  0
    5.4665   -4.2907    0.0000 C   0  0  0  0  0  0  0  0  0  0  0  0
   14.2085   -0.1710    0.0000 H   0  0  0  0  0  0  0  0  0  0  0  0
   13.3393    1.1733    0.0000 H   0  0  0  0  0  0  0  0  0  0  0  0
   15.8939    2.1492    0.0000 H   0  0  0  0  0  0  0  0  0  0  0  0
   13.8677    2.7232    0.0000 H   0  0  0  0  0  0  0  0  0  0  0  0
   13.0706    2.7232    0.0000 H   0  0  0  0  0  0  0  0  0  0  0  0
   12.3911    2.3309    0.0000 H   0  0  0  0  0  0  0  0  0  0  0  0
   11.9926    1.6406    0.0000 H   0  0  0  0  0  0  0  0  0  0  0  0
   15.0304   -0.1233    0.0000 H   0  0  0  0  0  0  0  0  0  0  0  0
   15.8188    0.1343    0.0000 H   0  0  0  0  0  0  0  0  0  0  0  0
   13.7033   -1.3736    0.0000 H   0  0  0  0  0  0  0  0  0  0  0  0
   14.0944   -0.6777    0.0000 H   0  0  0  0  0  0  0  0  0  0  0  0
   12.1899   -1.7969    0.0000 H   0  0  0  0  0  0  0  0  0  0  0  0
   12.9881   -1.7939    0.0000 H   0  0  0  0  0  0  0  0  0  0  0  0
   16.3259    0.8336    0.0000 H   0  0  0  0  0  0  0  0  0  0  0  0
   16.3259    1.6630    0.0000 H   0  0  0  0  0  0  0  0  0  0  0  0
   11.1745    1.2722    0.0000 H   0  0  0  0  0  0  0  0  0  0  0  0
   10.3764    1.2876    0.0000 H   0  0  0  0  0  0  0  0  0  0  0  0
   10.3524   -1.8258    0.0000 H   0  0  0  0  0  0  0  0  0  0  0  0
   11.1506   -1.8228    0.0000 H   0  0  0  0  0  0  0  0  0  0  0  0
   14.9552    2.7483    0.0000 H   0  0  0  0  0  0  0  0  0  0  0  0
   14.3352    3.3683    0.0000 H   0  0  0  0  0  0  0  0  0  0  0  0
   13.7152    2.7483    0.0000 H   0  0  0  0  0  0  0  0  0  0  0  0
    9.6139    0.8629    0.0000 H   0  0  0  0  0  0  0  0  0  0  0  0
    9.2068    0.1762    0.0000 H   0  0  0  0  0  0  0  0  0  0  0  0
    9.2749   -0.4943    0.0000 H   0  0  0  0  0  0  0  0  0  0  0  0
   14.8721   -0.5617    0.0000 H   0  0  0  0  0  0  0  0  0  0  0  0
   11.7056    1.8614    0.0000 H   0  0  0  0  0  0  0  0  0  0  0  0
   12.2119   -2.1143    0.0000 H   0  0  0  0  0  0  0  0  0  0  0  0
   14.5457    4.2292    0.0000 H   0  0  0  0  0  0  0  0  0  0  0  0
   14.5442    3.3995    0.0000 H   0  0  0  0  0  0  0  0  0  0  0  0
   17.0446    2.9456    0.0000 H   0  0  0  0  0  0  0  0  0  0  0  0
    8.0756   -1.4207    0.0000 H   0  0  0  0  0  0  0  0  0  0  0  0
    8.8164   -0.2285    0.0000 H   0  0  0  0  0  0  0  0  0  0  0  0
    7.9555    1.1248    0.0000 H   0  0  0  0  0  0  0  0  0  0  0  0
    6.3427   -1.6440    0.0000 H   0  0  0  0  0  0  0  0  0  0  0  0
    6.3522    0.8260    0.0000 H   0  0  0  0  0  0  0  0  0  0  0  0
    8.9522    1.3160    0.0000 H   0  0  0  0  0  0  0  0  0  0  0  0
    5.2682   -0.7073    0.0000 H   0  0  0  0  0  0  0  0  0  0  0  0
    4.8670   -1.3960    0.0000 H   0  0  0  0  0  0  0  0  0  0  0  0
    4.9476    0.4014    0.0000 H   0  0  0  0  0  0  0  0  0  0  0  0
    6.6696    2.7417    0.0000 H   0  0  0  0  0  0  0  0  0  0  0  0
    5.8218    2.5180    0.0000 H   0  0  0  0  0  0  0  0  0  0  0  0
    6.0455    1.6702    0.0000 H   0  0  0  0  0  0  0  0  0  0  0  0
    4.6086   -2.1673    0.0000 H   0  0  0  0  0  0  0  0  0  0  0  0
    3.0077   -1.8562    0.0000 H   0  0  0  0  0  0  0  0  0  0  0  0
    4.5991   -4.6373    0.0000 H   0  0  0  0  0  0  0  0  0  0  0  0
    2.6644   -2.1972    0.0000 H   0  0  0  0  0  0  0  0  0  0  0  0
    2.2632   -2.8860    0.0000 H   0  0  0  0  0  0  0  0  0  0  0  0
    2.8680   -4.4006    0.0000 H   0  0  0  0  0  0  0  0  0  0  0  0
    5.1544   -4.8264    0.0000 H   0  0  0  0  0  0  0  0  0  0  0  0
    6.0022   -4.6027    0.0000 H   0  0  0  0  0  0  0  0  0  0  0  0
    5.7785   -3.7549    0.0000 H   0  0  0  0  0  0  0  0  0  0  0  0
    3.2102   -0.9719    0.0000 H   0  0  0  0  0  0  0  0  0  0  0  0
    2.0000   -4.8973    0.0000 H   0  0  0  0  0  0  0  0  0  0  0  0
 15  1  1  1  0  0  0
  1 76  1  0  0  0  0
 20  2  1  1  0  0  0
  2 78  1  0  0  0  0
 32  3  1  1  0  0  0
 37  3  1  6  0  0  0
  4 33  2  0  0  0  0
  5 35  1  0  0  0  0
  5 38  1  0  0  0  0
  6 37  1  0  0  0  0
  6 41  1  0  0  0  0
  7 38  2  0  0  0  0
  8 39  1  0  0  0  0
  8 87  1  0  0  0  0
  9 40  1  0  0  0  0
  9 44  1  0  0  0  0
 42 10  1  1  0  0  0
 10 90  1  0  0  0  0
 11 43  1  0  0  0  0
 45 11  1  1  0  0  0
 12 47  1  0  0  0  0
 12 49  1  0  0  0  0
 13 46  1  0  0  0  0
 13103  1  0  0  0  0
 49 14  1  6  0  0  0
 14104  1  0  0  0  0
 15 16  1  0  0  0  0
 15 17  1  0  0  0  0
 15 24  1  0  0  0  0
 16 18  1  0  0  0  0
 16 25  1  0  0  0  0
 16 51  1  0  0  0  0
 17 21  1  0  0  0  0
 17 22  1  0  0  0  0
 17 30  1  1  0  0  0
 18 19  1  0  0  0  0
 18 23  1  0  0  0  0
 18 52  1  0  0  0  0
 19 20  1  0  0  0  0
 19 28  1  0  0  0  0
 19 33  1  1  0  0  0
 20 26  1  0  0  0  0
 20 29  1  0  0  0  0
 21 27  1  0  0  0  0
 21 34  1  1  0  0  0
 21 53  1  0  0  0  0
 22 23  1  0  0  0  0
 22 54  1  0  0  0  0
 22 55  1  0  0  0  0
 23 56  1  0  0  0  0
 23 57  1  0  0  0  0
 24 27  1  0  0  0  0
 24 58  1  0  0  0  0
 24 59  1  0  0  0  0
 25 26  1  0  0  0  0
 25 60  1  0  0  0  0
 25 61  1  0  0  0  0
 26 62  1  0  0  0  0
 26 63  1  0  0  0  0
 27 64  1  0  0  0  0
 27 65  1  0  0  0  0
 28 31  1  0  0  0  0
 28 66  1  0  0  0  0
 28 67  1  0  0  0  0
 29 32  1  0  0  0  0
 29 68  1  0  0  0  0
 29 69  1  0  0  0  0
 30 70  1  0  0  0  0
 30 71  1  0  0  0  0
 30 72  1  0  0  0  0
 31 32  1  0  0  0  0
 31 73  1  0  0  0  0
 31 74  1  0  0  0  0
 32 75  1  0  0  0  0
 33 77  1  0  0  0  0
 34 35  1  0  0  0  0
 34 36  2  0  0  0  0
 35 79  1  0  0  0  0
 35 80  1  0  0  0  0
 36 38  1  0  0  0  0
 36 81  1  0  0  0  0
 37 39  1  0  0  0  0
 37 82  1  0  0  0  0
 39 40  1  0  0  0  0
 39 83  1  0  0  0  0
 40 42  1  0  0  0  0
 40 84  1  0  0  0  0
 41 42  1  0  0  0  0
 41 43  1  0  0  0  0
 41 85  1  0  0  0  0
 42 86  1  0  0  0  0
 43 88  1  0  0  0  0
 43 89  1  0  0  0  0
 44 91  1  0  0  0  0
 44 92  1  0  0  0  0
 44 93  1  0  0  0  0
 45 46  1  0  0  0  0
 45 47  1  0  0  0  0
 45 94  1  0  0  0  0
 46 48  1  0  0  0  0
 46 95  1  0  0  0  0
 47 50  1  0  0  0  0
 47 96  1  0  0  0  0
 48 49  1  0  0  0  0
 48 97  1  0  0  0  0
 48 98  1  0  0  0  0
 49 99  1  0  0  0  0
 50100  1  0  0  0  0
 50101  1  0  0  0  0
 50102  1  0  0  0  0
M  END
> <PUBCHEM_COMPOUND_CID>
11218

> <PUBCHEM_COMPOUND_CANONICALIZED>
1

> <PUBCHEM_CACTVS_COMPLEXITY>
1330

> <PUBCHEM_CACTVS_HBOND_ACCEPTOR>
14

> <PUBCHEM_CACTVS_HBOND_DONOR>
6

> <PUBCHEM_CACTVS_ROTATABLE_BOND>
8

> <PUBCHEM_CACTVS_SUBSKEYS>
AAADcfB8PAAAAAAAAAAAAAAAAAAAAYIAAAA0aMECAAAAAGDAAAAAGgAACAAAD1SwgAMCCAAABgCIAijSiAAAAAAgAAAACAEAAEgRFBYAIQAiUAAFoAAPIQPI7PzPgAAAAAAAAADAAAYQADAAAYAADAAAAA==

> <PUBCHEM_IUPAC_OPENEYE_NAME>
(3S,5S,10S,13R,14S,17R)-3-[(2R,5R)-6-[[(3R,6S)-4,6-dihydroxy-2-methyl-tetrahydropyran-3-yl]oxymethyl]-3,5-dihydroxy-4-methoxy-tetrahydropyran-2-yl]oxy-5,14-dihydroxy-13-methyl-17-(5-oxo-2H-furan-3-yl)-2,3,4,6,7,8,9,11,12,15,16,17-dodecahydro-1H-cyclopenta[a]phenanthrene-10-carbaldehyde

> <PUBCHEM_IUPAC_CAS_NAME>
(3S,5S,10S,13R,14S,17R)-3-[[(2R,5R)-6-[[(3R,6S)-4,6-dihydroxy-2-methyl-3-oxanyl]oxymethyl]-3,5-dihydroxy-4-methoxy-2-oxanyl]oxy]-5,14-dihydroxy-13-methyl-17-(5-oxo-2H-furan-3-yl)-2,3,4,6,7,8,9,11,12,15,16,17-dodecahydro-1H-cyclopenta[a]phenanthrene-10-carboxaldehyde

> <PUBCHEM_IUPAC_NAME>
(3S,5S,10S,13R,14S,17R)-3-[(2R,5R)-6-[[(3R,6S)-4,6-dihydroxy-2-methyloxan-3-yl]oxymethyl]-3,5-dihydroxy-4-methoxyoxan-2-yl]oxy-5,14-dihydroxy-13-methyl-17-(5-oxo-2H-furan-3-yl)-2,3,4,6,7,8,9,11,12,15,16,17-dodecahydro-1H-cyclopenta[a]phenanthrene-10-carbaldehyde

> <PUBCHEM_IUPAC_SYSTEMATIC_NAME>
(3S,5S,10S,13R,14S,17R)-3-[(2R,5R)-4-methoxy-6-[[(3R,6S)-2-methyl-4,6-bis(oxidanyl)oxan-3-yl]oxymethyl]-3,5-bis(oxidanyl)oxan-2-yl]oxy-13-methyl-5,14-bis(oxidanyl)-17-(5-oxidanylidene-2H-furan-3-yl)-2,3,4,6,7,8,9,11,12,15,16,17-dodecahydro-1H-cyclopenta[a]phenanthrene-10-carbaldehyde

> <PUBCHEM_IUPAC_TRADITIONAL_NAME>
(3S,5S,10S,13R,14S,17R)-3-[(2R,5R)-6-[[(3R,6S)-4,6-dihydroxy-2-methyl-tetrahydropyran-3-yl]oxymethyl]-3,5-dihydroxy-4-methoxy-tetrahydropyran-2-yl]oxy-5,14-dihydroxy-17-(5-keto-2H-furan-3-yl)-13-methyl-2,3,4,6,7,8,9,11,12,15,16,17-dodecahydro-1H-cyclopenta[a]phenanthrene-10-carbaldehyde

> <PUBCHEM_IUPAC_INCHI>
InChI=1S/C36H54O14/c1-18-30(24(38)13-27(40)48-18)47-16-25-28(41)31(45-3)29(42)32(50-25)49-20-4-9-34(17-37)22-5-8-33(2)21(19-12-26(39)46-15-19)7-11-36(33,44)23(22)6-10-35(34,43)14-20/h12,17-18,20-25,27-32,38,40-44H,4-11,13-16H2,1-3H3/t18?,20-,21+,22?,23?,24?,25?,27-,28+,29?,30-,31?,32+,33+,34-,35-,36-/m0/s1

> <PUBCHEM_IUPAC_INCHIKEY>
WEDKAKRDVPRQSU-AWRXHTBRSA-N

> <PUBCHEM_XLOGP3>
-1.3

> <PUBCHEM_EXACT_MASS>
710.351356

> <PUBCHEM_MOLECULAR_FORMULA>
C36H54O14

> <PUBCHEM_MOLECULAR_WEIGHT>
710.80556

> <PUBCHEM_OPENEYE_CAN_SMILES>
CC1C(C(CC(O1)O)O)OCC2C(C(C(C(O2)OC3CCC4(C5CCC6(C(CCC6(C5CCC4(C3)O)O)C7=CC(=O)OC7)C)C=O)O)OC)O

> <PUBCHEM_OPENEYE_ISO_SMILES>
CC1[C@@H](C(C[C@H](O1)O)O)OCC2[C@H](C(C([C@@H](O2)O[C@H]3CC[C@@]4(C5CC[C@@]6([C@H](CC[C@@]6(C5CC[C@@]4(C3)O)O)C7=CC(=O)OC7)C)C=O)O)OC)O

> <PUBCHEM_CACTVS_TPSA>
211

> <PUBCHEM_MONOISOTOPIC_WEIGHT>
710.351356

> <PUBCHEM_TOTAL_CHARGE>
0

> <PUBCHEM_HEAVY_ATOM_COUNT>
50

> <PUBCHEM_ATOM_DEF_STEREO_COUNT>
10

> <PUBCHEM_ATOM_UDEF_STEREO_COUNT>
7

> <PUBCHEM_BOND_DEF_STEREO_COUNT>
0

> <PUBCHEM_BOND_UDEF_STEREO_COUNT>
0

> <PUBCHEM_ISOTOPIC_ATOM_COUNT>
0

> <PUBCHEM_COMPONENT_COUNT>
1

> <PUBCHEM_CACTVS_TAUTO_COUNT>
1

> <PUBCHEM_COORDINATE_TYPE>
1
5
255

> <PUBCHEM_BONDANNOTATIONS>
15  1  5
42  10  5
45  11  5
49  14  6
16  51  3
17  30  5
18  52  3
19  33  5
20  2  5
21  34  5
32  3  5
37  3  6
39  83  3
40  84  3
41  85  3
46  95  3
47  96  3

$$$$

