11985
  -OEChem-06261206223D

 16 17  0     0  0  0  0  0  0999 V2000
    3.2863    0.0000    0.0004 O   0  0  0  0  0  0  0  0  0  0  0  0
    1.2060    1.1362   -0.0001 N   0  0  0  0  0  0  0  0  0  0  0  0
    1.2059   -1.1363   -0.0001 N   0  0  0  0  0  0  0  0  0  0  0  0
   -0.1176    0.6958   -0.0001 C   0  0  0  0  0  0  0  0  0  0  0  0
   -0.1176   -0.6959   -0.0001 C   0  0  0  0  0  0  0  0  0  0  0  0
   -1.2829    1.4282    0.0000 C   0  0  0  0  0  0  0  0  0  0  0  0
   -1.2829   -1.4283    0.0000 C   0  0  0  0  0  0  0  0  0  0  0  0
    2.0636    0.0000   -0.0002 C   0  0  0  0  0  0  0  0  0  0  0  0
   -2.4803    0.7062    0.0001 C   0  0  0  0  0  0  0  0  0  0  0  0
   -2.4804   -0.7061    0.0001 C   0  0  0  0  0  0  0  0  0  0  0  0
    1.4947    2.1066    0.0002 H   0  0  0  0  0  0  0  0  0  0  0  0
    1.4946   -2.1068    0.0000 H   0  0  0  0  0  0  0  0  0  0  0  0
   -1.2821    2.5116    0.0001 H   0  0  0  0  0  0  0  0  0  0  0  0
   -1.2823   -2.5116    0.0001 H   0  0  0  0  0  0  0  0  0  0  0  0
   -3.4284    1.2382    0.0002 H   0  0  0  0  0  0  0  0  0  0  0  0
   -3.4284   -1.2380    0.0002 H   0  0  0  0  0  0  0  0  0  0  0  0
  1  8  2  0  0  0  0
  2  4  1  0  0  0  0
  2  8  1  0  0  0  0
  2 11  1  0  0  0  0
  3  5  1  0  0  0  0
  3  8  1  0  0  0  0
  3 12  1  0  0  0  0
  4  5  1  0  0  0  0
  4  6  2  0  0  0  0
  5  7  2  0  0  0  0
  6  9  1  0  0  0  0
  6 13  1  0  0  0  0
  7 10  1  0  0  0  0
  7 14  1  0  0  0  0
  9 10  2  0  0  0  0
  9 15  1  0  0  0  0
 10 16  1  0  0  0  0
M  END
> <PUBCHEM_COMPOUND_CID>
11985

> <PUBCHEM_CONFORMER_RMSD>
0.4

> <PUBCHEM_CONFORMER_DIVERSEORDER>
1

> <PUBCHEM_MMFF94_PARTIAL_CHARGES>
16
1 -0.57
10 -0.15
11 0.37
12 0.37
13 0.15
14 0.15
15 0.15
16 0.15
2 -0.55
3 -0.55
4 0.12
5 0.12
6 -0.15
7 -0.15
8 0.69
9 -0.15

> <PUBCHEM_EFFECTIVE_ROTOR_COUNT>
0

> <PUBCHEM_PHARMACOPHORE_FEATURES>
5
1 1 acceptor
1 2 donor
1 3 donor
5 2 3 4 5 8 rings
6 4 5 6 7 9 10 rings

> <PUBCHEM_HEAVY_ATOM_COUNT>
10

> <PUBCHEM_ATOM_DEF_STEREO_COUNT>
0

> <PUBCHEM_ATOM_UDEF_STEREO_COUNT>
0

> <PUBCHEM_BOND_DEF_STEREO_COUNT>
0

> <PUBCHEM_BOND_UDEF_STEREO_COUNT>
0

> <PUBCHEM_ISOTOPIC_ATOM_COUNT>
0

> <PUBCHEM_COMPONENT_COUNT>
1

> <PUBCHEM_CACTVS_TAUTO_COUNT>
2

> <PUBCHEM_CONFORMER_ID>
00002ED100000001

> <PUBCHEM_MMFF94_ENERGY>
34.206

> <PUBCHEM_FEATURE_SELFOVERLAP>
25.533

> <PUBCHEM_SHAPE_FINGERPRINT>
10857977 72 18337401447678828481
12897270 3 18410294700660828573
13024252 1 15769775758226651201
14325111 11 18410856581362701792
16945 1 18410573989578287239
193761 8 17329992906906136289
20871998 184 18115303376160667215
21040471 1 18338517567982132517
23235685 24 18337114561291419793
23402655 69 18193294094668397413
23552423 10 18200876154046681998
2748010 2 18122065290934787165
29004967 10 18409726244533025035
369184 2 18410578391814283675
5084963 1 18261110746837998969
528886 8 18410017658322437027

> <PUBCHEM_SHAPE_MULTIPOLES>
189.96
3.79
1.46
0.59
1.64
0
0
0
0
-0.51
0
-0.06
0
0

> <PUBCHEM_SHAPE_SELFOVERLAP>
417.082

> <PUBCHEM_SHAPE_VOLUME>
102.3

> <PUBCHEM_COORDINATE_TYPE>
2
5
10

$$$$

