11778
  -OEChem-06261206063D

 39 41  0     0  0  0  0  0  0999 V2000
    0.8783    0.0052    0.1536 N   0  0  0  0  0  0  0  0  0  0  0  0
   -1.4206   -0.3948   -0.3365 N   0  0  0  0  0  0  0  0  0  0  0  0
   -0.7424    1.5073    0.9579 N   0  0  0  0  0  0  0  0  0  0  0  0
    1.2696   -1.3763    0.0297 C   0  0  0  0  0  0  0  0  0  0  0  0
    1.8433    1.0752    0.1012 C   0  0  0  0  0  0  0  0  0  0  0  0
   -0.4953    0.3445    0.2434 C   0  0  0  0  0  0  0  0  0  0  0  0
    2.3801   -1.6898   -0.7269 C   0  0  0  0  0  0  0  0  0  0  0  0
    2.1491    1.6375   -1.1209 C   0  0  0  0  0  0  0  0  0  0  0  0
    0.5207   -2.3412    0.6715 C   0  0  0  0  0  0  0  0  0  0  0  0
    2.4293    1.5015    1.2751 C   0  0  0  0  0  0  0  0  0  0  0  0
    2.7582   -3.0270   -0.8472 C   0  0  0  0  0  0  0  0  0  0  0  0
    3.0831    2.6723   -1.1714 C   0  0  0  0  0  0  0  0  0  0  0  0
    0.8990   -3.6784    0.5513 C   0  0  0  0  0  0  0  0  0  0  0  0
    3.3632    2.5364    1.2245 C   0  0  0  0  0  0  0  0  0  0  0  0
    2.0177   -4.0213   -0.2082 C   0  0  0  0  0  0  0  0  0  0  0  0
    3.6900    3.1217    0.0012 C   0  0  0  0  0  0  0  0  0  0  0  0
   -2.7641   -0.0201   -0.2346 C   0  0  0  0  0  0  0  0  0  0  0  0
   -3.3270    0.8238   -1.1922 C   0  0  0  0  0  0  0  0  0  0  0  0
   -3.5411   -0.4895    0.8245 C   0  0  0  0  0  0  0  0  0  0  0  0
   -4.6667    1.1986   -1.0904 C   0  0  0  0  0  0  0  0  0  0  0  0
   -4.8809   -0.1148    0.9260 C   0  0  0  0  0  0  0  0  0  0  0  0
   -5.4437    0.7292   -0.0316 C   0  0  0  0  0  0  0  0  0  0  0  0
    2.9771   -0.9488   -1.2460 H   0  0  0  0  0  0  0  0  0  0  0  0
    1.6775    1.2955   -2.0375 H   0  0  0  0  0  0  0  0  0  0  0  0
   -0.3319   -2.1038    1.3001 H   0  0  0  0  0  0  0  0  0  0  0  0
    2.1823    1.0477    2.2305 H   0  0  0  0  0  0  0  0  0  0  0  0
    3.6284   -3.2947   -1.4396 H   0  0  0  0  0  0  0  0  0  0  0  0
    3.3369    3.1287   -2.1237 H   0  0  0  0  0  0  0  0  0  0  0  0
    0.3278   -4.4523    1.0558 H   0  0  0  0  0  0  0  0  0  0  0  0
    3.8366    2.8858    2.1374 H   0  0  0  0  0  0  0  0  0  0  0  0
    2.3131   -5.0623   -0.3005 H   0  0  0  0  0  0  0  0  0  0  0  0
    4.4172    3.9275   -0.0381 H   0  0  0  0  0  0  0  0  0  0  0  0
   -0.0260    1.9921    1.4835 H   0  0  0  0  0  0  0  0  0  0  0  0
   -1.6839    1.8671    1.0714 H   0  0  0  0  0  0  0  0  0  0  0  0
   -2.7297    1.1946   -2.0211 H   0  0  0  0  0  0  0  0  0  0  0  0
   -3.1116   -1.1477    1.5753 H   0  0  0  0  0  0  0  0  0  0  0  0
   -5.1049    1.8558   -1.8358 H   0  0  0  0  0  0  0  0  0  0  0  0
   -5.4860   -0.4802    1.7505 H   0  0  0  0  0  0  0  0  0  0  0  0
   -6.4868    1.0210    0.0477 H   0  0  0  0  0  0  0  0  0  0  0  0
  1  4  1  0  0  0  0
  1  5  1  0  0  0  0
  1  6  1  0  0  0  0
  2  6  2  0  0  0  0
  2 17  1  0  0  0  0
  3  6  1  0  0  0  0
  3 33  1  0  0  0  0
  3 34  1  0  0  0  0
  4  7  2  0  0  0  0
  4  9  1  0  0  0  0
  5  8  2  0  0  0  0
  5 10  1  0  0  0  0
  7 11  1  0  0  0  0
  7 23  1  0  0  0  0
  8 12  1  0  0  0  0
  8 24  1  0  0  0  0
  9 13  2  0  0  0  0
  9 25  1  0  0  0  0
 10 14  2  0  0  0  0
 10 26  1  0  0  0  0
 11 15  2  0  0  0  0
 11 27  1  0  0  0  0
 12 16  2  0  0  0  0
 12 28  1  0  0  0  0
 13 15  1  0  0  0  0
 13 29  1  0  0  0  0
 14 16  1  0  0  0  0
 14 30  1  0  0  0  0
 15 31  1  0  0  0  0
 16 32  1  0  0  0  0
 17 18  2  0  0  0  0
 17 19  1  0  0  0  0
 18 20  1  0  0  0  0
 18 35  1  0  0  0  0
 19 21  2  0  0  0  0
 19 36  1  0  0  0  0
 20 22  2  0  0  0  0
 20 37  1  0  0  0  0
 21 22  1  0  0  0  0
 21 38  1  0  0  0  0
 22 39  1  0  0  0  0
M  END
> <PUBCHEM_COMPOUND_CID>
11778

> <PUBCHEM_CONFORMER_RMSD>
0.6

> <PUBCHEM_CONFORMER_DIVERSEORDER>
1
4
6
3
2
5
7

> <PUBCHEM_MMFF94_PARTIAL_CHARGES>
39
1 -0.25
10 -0.15
11 -0.15
12 -0.15
13 -0.15
14 -0.15
15 -0.15
16 -0.15
17 0.18
18 -0.15
19 -0.15
2 -0.63
20 -0.15
21 -0.15
22 -0.15
23 0.15
24 0.15
25 0.15
26 0.15
27 0.15
28 0.15
29 0.15
3 -0.85
30 0.15
31 0.15
32 0.15
33 0.4
34 0.4
35 0.15
36 0.15
37 0.15
38 0.15
39 0.15
4 0.1
5 0.1
6 0.55
7 -0.15
8 -0.15
9 -0.15

> <PUBCHEM_EFFECTIVE_ROTOR_COUNT>
4

> <PUBCHEM_PHARMACOPHORE_FEATURES>
5
1 3 donor
4 1 2 3 6 cation
6 17 18 19 20 21 22 rings
6 4 7 9 11 13 15 rings
6 5 8 10 12 14 16 rings

> <PUBCHEM_HEAVY_ATOM_COUNT>
22

> <PUBCHEM_ATOM_DEF_STEREO_COUNT>
0

> <PUBCHEM_ATOM_UDEF_STEREO_COUNT>
0

> <PUBCHEM_BOND_DEF_STEREO_COUNT>
0

> <PUBCHEM_BOND_UDEF_STEREO_COUNT>
0

> <PUBCHEM_ISOTOPIC_ATOM_COUNT>
0

> <PUBCHEM_COMPONENT_COUNT>
1

> <PUBCHEM_CACTVS_TAUTO_COUNT>
2

> <PUBCHEM_CONFORMER_ID>
00002E0200000001

> <PUBCHEM_MMFF94_ENERGY>
98.5916

> <PUBCHEM_FEATURE_SELFOVERLAP>
25.371

> <PUBCHEM_SHAPE_FINGERPRINT>
1100329 8 18408604751869900018
11582403 64 16662926542908676896
12035758 1 18341063964783815610
12293681 160 17895465909070446656
12553582 1 17906442582552759403
12707595 3 18194965377416139815
12730499 353 18339631266351078595
12788726 201 16684580736737667355
12895836 83 17840009763970394620
13140716 1 18410858715946091738
13533116 47 18335698382479017617
13955234 65 18410007762707491195
15502722 9 18411417319323426869
15664445 248 17899400172064638662
17492 54 18128231529097156478
17868525 174 17977947109615450977
17913733 40 18336253536302055651
1813 80 17680139969583941735
18785283 64 18343021090527029466
18915476 22 18339911671664706907
19784866 34 18262523576520415937
20369508 70 18267870673391395151
20600515 1 17031623917171597584
20645477 70 18335708286283543471
20671657 53 18049442835804700231
21049683 271 18198892781626901646
21120745 212 17469305394455017078
22149856 69 18199727212969645115
2255824 54 18335982064072425398
22907989 373 17333375593210270182
23557571 272 17489303109982338781
23559900 14 18271247248030457711
23598288 3 17552075100811711856
283562 15 17686352975106976727
3091708 16 8970325487653147282
312423 11 18041552663497291833
458136 41 18338507556418542993
474 4 18410015411796169345
495365 180 18410015424749565081
6025842 7 18409732863515491223
6049 1 18059011821445698453
633830 44 17823408314763388697
6442390 28 18194394485772327839
6443956 14 18265618865203604880
6669772 16 18335132052170199934
7364860 26 18335143136900573954
7471813 234 17896892151512500937
7808743 9 17765993896620847284
81228 2 17111850921137242066
81539 233 18411704253050726249
84936 182 18261108577938024224
90316 7 16825586987467656746
9709674 26 18272087232249619187
9841814 1 18199191878300682786

> <PUBCHEM_SHAPE_MULTIPOLES>
437.81
8.96
4.52
1.21
13.96
3.79
-0.02
-5.31
-0.49
-7.48
-0.14
-0.11
-0.46
1.03

> <PUBCHEM_SHAPE_SELFOVERLAP>
955.034

> <PUBCHEM_SHAPE_VOLUME>
232.6

> <PUBCHEM_COORDINATE_TYPE>
2
5
10

$$$$

