12302
  -OEChem-06261206473D

 16 15  0     0  0  0  0  0  0999 V2000
    2.1070   -1.1167    0.2572 O   0  5  0  0  0  0  0  0  0  0  0  0
    2.1327    1.0863    0.2791 O   0  0  0  0  0  0  0  0  0  0  0  0
    1.6198   -0.0065   -0.0197 N   0  3  0  0  0  0  0  0  0  0  0  0
   -0.7862    0.0402    0.2279 C   0  0  0  0  0  0  0  0  0  0  0  0
   -2.1389   -0.0004   -0.4820 C   0  0  0  0  0  0  0  0  0  0  0  0
    0.3554    0.0186   -0.7738 C   0  0  0  0  0  0  0  0  0  0  0  0
   -3.2897   -0.0216    0.5113 C   0  0  0  0  0  0  0  0  0  0  0  0
   -0.7254    0.9409    0.8523 H   0  0  0  0  0  0  0  0  0  0  0  0
   -0.7077   -0.8179    0.9082 H   0  0  0  0  0  0  0  0  0  0  0  0
   -2.1996   -0.8911   -1.1182 H   0  0  0  0  0  0  0  0  0  0  0  0
   -2.2421    0.8734   -1.1359 H   0  0  0  0  0  0  0  0  0  0  0  0
    0.3305   -0.8726   -1.4093 H   0  0  0  0  0  0  0  0  0  0  0  0
    0.3619    0.9084   -1.4114 H   0  0  0  0  0  0  0  0  0  0  0  0
   -4.2471   -0.0487   -0.0184 H   0  0  0  0  0  0  0  0  0  0  0  0
   -3.2342   -0.9033    1.1577 H   0  0  0  0  0  0  0  0  0  0  0  0
   -3.2772    0.8708    1.1451 H   0  0  0  0  0  0  0  0  0  0  0  0
  1  3  1  0  0  0  0
  2  3  2  0  0  0  0
  3  6  1  0  0  0  0
  4  5  1  0  0  0  0
  4  6  1  0  0  0  0
  4  8  1  0  0  0  0
  4  9  1  0  0  0  0
  5  7  1  0  0  0  0
  5 10  1  0  0  0  0
  5 11  1  0  0  0  0
  6 12  1  0  0  0  0
  6 13  1  0  0  0  0
  7 14  1  0  0  0  0
  7 15  1  0  0  0  0
  7 16  1  0  0  0  0
M  CHG  2   1  -1   3   1
M  END
> <PUBCHEM_COMPOUND_CID>
12302

> <PUBCHEM_CONFORMER_RMSD>
0.4

> <PUBCHEM_CONFORMER_DIVERSEORDER>
1
18
17
6
9
15
10
5
19
16
2
8
7
20
14
4
3
12
13
11

> <PUBCHEM_MMFF94_PARTIAL_CHARGES>
4
1 -0.52
2 -0.52
3 0.8
6 0.24

> <PUBCHEM_EFFECTIVE_ROTOR_COUNT>
3

> <PUBCHEM_PHARMACOPHORE_FEATURES>
4
1 1 acceptor
1 1 anion
1 2 acceptor
1 7 hydrophobe

> <PUBCHEM_HEAVY_ATOM_COUNT>
7

> <PUBCHEM_ATOM_DEF_STEREO_COUNT>
0

> <PUBCHEM_ATOM_UDEF_STEREO_COUNT>
0

> <PUBCHEM_BOND_DEF_STEREO_COUNT>
0

> <PUBCHEM_BOND_UDEF_STEREO_COUNT>
0

> <PUBCHEM_ISOTOPIC_ATOM_COUNT>
0

> <PUBCHEM_COMPONENT_COUNT>
1

> <PUBCHEM_CACTVS_TAUTO_COUNT>
2

> <PUBCHEM_CONFORMER_ID>
0000300E00000001

> <PUBCHEM_MMFF94_ENERGY>
0.879

> <PUBCHEM_FEATURE_SELFOVERLAP>
20.376

> <PUBCHEM_SHAPE_FINGERPRINT>
12932764 1 18410293609976492885
14390081 3 4895554052621867795
29004967 10 17917712396232265981
3248919 1 17167863075850476207
5460574 1 15502090860672870429

> <PUBCHEM_SHAPE_MULTIPOLES>
127.34
4.48
0.86
0.78
1.95
0.02
-0.08
0.05
0.85
-0.57
0.08
0.17
-0.01
0.01

> <PUBCHEM_SHAPE_SELFOVERLAP>
225.062

> <PUBCHEM_SHAPE_VOLUME>
84.2

> <PUBCHEM_COORDINATE_TYPE>
2
5
10

$$$$

