17395357
  -OEChem-06241222492D

 49 52  0     1  0  0  0  0  0999 V2000
    5.4050   -0.5699    0.0000 O   0  0  0  0  0  0  0  0  0  0  0  0
    6.2711    3.9301    0.0000 O   0  0  0  0  0  0  0  0  0  0  0  0
    3.6730   -0.5699    0.0000 N   0  0  0  0  0  0  0  0  0  0  0  0
    5.4050    1.4301    0.0000 N   0  0  3  0  0  0  0  0  0  0  0  0
    7.1371    2.4301    0.0000 N   0  0  0  0  0  0  0  0  0  0  0  0
    3.6730   -1.5699    0.0000 C   0  0  0  0  0  0  0  0  0  0  0  0
    4.5092   -3.0182    0.0000 C   0  0  0  0  0  0  0  0  0  0  0  0
    2.9819   -3.4533    0.0000 C   0  0  0  0  0  0  0  0  0  0  0  0
    2.8368   -3.0182    0.0000 C   0  0  0  0  0  0  0  0  0  0  0  0
    4.5092   -2.0527    0.0000 C   0  0  0  0  0  0  0  0  0  0  0  0
    2.8368   -2.0527    0.0000 C   0  0  0  0  0  0  0  0  0  0  0  0
    2.9819   -2.4080    0.0000 C   0  0  0  0  0  0  0  0  0  0  0  0
    3.6730   -3.3210    0.0000 C   0  0  0  0  0  0  0  0  0  0  0  0
    2.0000   -3.5010    0.0000 C   0  0  0  0  0  0  0  0  0  0  0  0
    3.8876   -3.9301    0.0000 C   0  0  0  0  0  0  0  0  0  0  0  0
    4.5390   -0.0699    0.0000 C   0  0  0  0  0  0  0  0  0  0  0  0
    4.5390    0.9301    0.0000 C   0  0  3  0  0  0  0  0  0  0  0  0
    3.6730    1.4301    0.0000 C   0  0  0  0  0  0  0  0  0  0  0  0
    6.2711    0.9301    0.0000 C   0  0  0  0  0  0  0  0  0  0  0  0
    5.4050    2.4301    0.0000 C   0  0  0  0  0  0  0  0  0  0  0  0
    7.1371    1.4301    0.0000 C   0  0  0  0  0  0  0  0  0  0  0  0
    6.2711    2.9301    0.0000 C   0  0  0  0  0  0  0  0  0  0  0  0
    5.1016   -3.2009    0.0000 H   0  0  0  0  0  0  0  0  0  0  0  0
    2.8478   -4.0586    0.0000 H   0  0  0  0  0  0  0  0  0  0  0  0
    2.8912   -3.6358    0.0000 H   0  0  0  0  0  0  0  0  0  0  0  0
    5.1198   -2.1603    0.0000 H   0  0  0  0  0  0  0  0  0  0  0  0
    2.6383   -1.8920    0.0000 H   0  0  0  0  0  0  0  0  0  0  0  0
    2.3885   -2.5875    0.0000 H   0  0  0  0  0  0  0  0  0  0  0  0
    2.6247   -1.4701    0.0000 H   0  0  0  0  0  0  0  0  0  0  0  0
    2.2262   -2.1603    0.0000 H   0  0  0  0  0  0  0  0  0  0  0  0
    4.7212   -1.4701    0.0000 H   0  0  0  0  0  0  0  0  0  0  0  0
    1.5188   -3.1101    0.0000 H   0  0  0  0  0  0  0  0  0  0  0  0
    3.3030   -3.8185    0.0000 H   0  0  0  0  0  0  0  0  0  0  0  0
    4.0430   -3.8185    0.0000 H   0  0  0  0  0  0  0  0  0  0  0  0
    1.8068   -4.0901    0.0000 H   0  0  0  0  0  0  0  0  0  0  0  0
    3.5782   -4.4674    0.0000 H   0  0  0  0  0  0  0  0  0  0  0  0
    4.4127   -4.2597    0.0000 H   0  0  0  0  0  0  0  0  0  0  0  0
    3.1361   -0.2599    0.0000 H   0  0  0  0  0  0  0  0  0  0  0  0
    4.5390    1.5501    0.0000 H   0  0  0  0  0  0  0  0  0  0  0  0
    3.9830    1.9670    0.0000 H   0  0  0  0  0  0  0  0  0  0  0  0
    3.1360    1.7401    0.0000 H   0  0  0  0  0  0  0  0  0  0  0  0
    3.3630    0.8932    0.0000 H   0  0  0  0  0  0  0  0  0  0  0  0
    5.8725    0.4552    0.0000 H   0  0  0  0  0  0  0  0  0  0  0  0
    6.6696    0.4552    0.0000 H   0  0  0  0  0  0  0  0  0  0  0  0
    5.1930    3.0127    0.0000 H   0  0  0  0  0  0  0  0  0  0  0  0
    4.7945    2.3224    0.0000 H   0  0  0  0  0  0  0  0  0  0  0  0
    7.3492    0.8475    0.0000 H   0  0  0  0  0  0  0  0  0  0  0  0
    7.7477    1.5378    0.0000 H   0  0  0  0  0  0  0  0  0  0  0  0
    7.6740    2.7401    0.0000 H   0  0  0  0  0  0  0  0  0  0  0  0
  1 16  2  0  0  0  0
  2 22  2  0  0  0  0
  3  6  1  0  0  0  0
  3 16  1  0  0  0  0
  3 38  1  0  0  0  0
  4 17  1  0  0  0  0
  4 19  1  0  0  0  0
  4 20  1  0  0  0  0
  5 21  1  0  0  0  0
  5 22  1  0  0  0  0
  5 49  1  0  0  0  0
  6 10  1  0  0  0  0
  6 11  1  0  0  0  0
  6 12  1  0  0  0  0
  7 10  1  0  0  0  0
  7 13  1  0  0  0  0
  7 15  1  0  0  0  0
  7 23  1  0  0  0  0
  8 12  1  0  0  0  0
  8 14  1  0  0  0  0
  8 15  1  0  0  0  0
  8 24  1  0  0  0  0
  9 11  1  0  0  0  0
  9 13  1  0  0  0  0
  9 14  1  0  0  0  0
  9 25  1  0  0  0  0
 10 26  1  0  0  0  0
 10 31  1  0  0  0  0
 11 29  1  0  0  0  0
 11 30  1  0  0  0  0
 12 27  1  0  0  0  0
 12 28  1  0  0  0  0
 13 33  1  0  0  0  0
 13 34  1  0  0  0  0
 14 32  1  0  0  0  0
 14 35  1  0  0  0  0
 15 36  1  0  0  0  0
 15 37  1  0  0  0  0
 16 17  1  0  0  0  0
 17 18  1  0  0  0  0
 17 39  1  0  0  0  0
 18 40  1  0  0  0  0
 18 41  1  0  0  0  0
 18 42  1  0  0  0  0
 19 21  1  0  0  0  0
 19 43  1  0  0  0  0
 19 44  1  0  0  0  0
 20 22  1  0  0  0  0
 20 45  1  0  0  0  0
 20 46  1  0  0  0  0
 21 47  1  0  0  0  0
 21 48  1  0  0  0  0
M  END
> <PUBCHEM_COMPOUND_CID>
17395357

> <PUBCHEM_COMPOUND_CANONICALIZED>
1

> <PUBCHEM_CACTVS_COMPLEXITY>
449

> <PUBCHEM_CACTVS_HBOND_ACCEPTOR>
3

> <PUBCHEM_CACTVS_HBOND_DONOR>
2

> <PUBCHEM_CACTVS_ROTATABLE_BOND>
3

> <PUBCHEM_CACTVS_SUBSKEYS>
AAADceB7MAAAAAAAAAAAAAAAAAAAAAAAAAA8YMGCAAAAAAAAAAAAHgAQAAAADajBgAQCAAPAAAAIAAEQEAAAAAAAAAAAAIGIAAAAQAIAgCAUAAAAFgCAAAEQgMAOAAAAAAAAAAAAAASAAAAAAAAAAAAAAA==

> <PUBCHEM_IUPAC_OPENEYE_NAME>
N-(1-adamantyl)-2-(3-oxopiperazin-1-yl)propanamide

> <PUBCHEM_IUPAC_CAS_NAME>
N-(1-adamantyl)-2-(3-oxo-1-piperazinyl)propanamide

> <PUBCHEM_IUPAC_NAME>
N-(1-adamantyl)-2-(3-oxopiperazin-1-yl)propanamide

> <PUBCHEM_IUPAC_SYSTEMATIC_NAME>
N-(1-adamantyl)-2-(3-oxidanylidenepiperazin-1-yl)propanamide

> <PUBCHEM_IUPAC_TRADITIONAL_NAME>
N-(1-adamantyl)-2-(3-ketopiperazino)propionamide

> <PUBCHEM_IUPAC_INCHI>
InChI=1S/C17H27N3O2/c1-11(20-3-2-18-15(21)10-20)16(22)19-17-7-12-4-13(8-17)6-14(5-12)9-17/h11-14H,2-10H2,1H3,(H,18,21)(H,19,22)

> <PUBCHEM_IUPAC_INCHIKEY>
PFZMCKQBJCRRGU-UHFFFAOYSA-N

> <PUBCHEM_XLOGP3_AA>
1.8

> <PUBCHEM_EXACT_MASS>
305.210327

> <PUBCHEM_MOLECULAR_FORMULA>
C17H27N3O2

> <PUBCHEM_MOLECULAR_WEIGHT>
305.41518

> <PUBCHEM_OPENEYE_CAN_SMILES>
CC(C(=O)NC12CC3CC(C1)CC(C3)C2)N4CCNC(=O)C4

> <PUBCHEM_OPENEYE_ISO_SMILES>
CC(C(=O)NC12CC3CC(C1)CC(C3)C2)N4CCNC(=O)C4

> <PUBCHEM_CACTVS_TPSA>
61.4

> <PUBCHEM_MONOISOTOPIC_WEIGHT>
305.210327

> <PUBCHEM_TOTAL_CHARGE>
0

> <PUBCHEM_HEAVY_ATOM_COUNT>
22

> <PUBCHEM_ATOM_DEF_STEREO_COUNT>
0

> <PUBCHEM_ATOM_UDEF_STEREO_COUNT>
1

> <PUBCHEM_BOND_DEF_STEREO_COUNT>
0

> <PUBCHEM_BOND_UDEF_STEREO_COUNT>
0

> <PUBCHEM_ISOTOPIC_ATOM_COUNT>
0

> <PUBCHEM_COMPONENT_COUNT>
1

> <PUBCHEM_CACTVS_TAUTO_COUNT>
6

> <PUBCHEM_COORDINATE_TYPE>
1
5
255

> <PUBCHEM_BONDANNOTATIONS>
17  18  3

$$$$

