7846959
  -OEChem-06241222483D

 49 51  0     1  0  0  0  0  0999 V2000
   -3.8096    1.2458    1.3053 S   0  0  0  0  0  0  0  0  0  0  0  0
   -1.5818   -1.9211    0.6055 O   0  0  0  0  0  0  0  0  0  0  0  0
    0.3476   -0.1019    1.0673 O   0  0  0  0  0  0  0  0  0  0  0  0
   -2.4916   -3.4975   -0.8118 O   0  0  0  0  0  0  0  0  0  0  0  0
    1.4423   -0.6500   -0.8990 N   0  0  0  0  0  0  0  0  0  0  0  0
   -2.8498    0.4070   -0.9370 N   0  0  0  0  0  0  0  0  0  0  0  0
   -0.2875   -2.1776    0.0702 C   0  0  1  0  0  0  0  0  0  0  0  0
    2.2763    0.5486   -0.9496 C   0  0  0  0  0  0  0  0  0  0  0  0
    0.5239   -0.8854    0.1279 C   0  0  0  0  0  0  0  0  0  0  0  0
   -4.5855   -1.0987    0.0363 C   0  0  0  0  0  0  0  0  0  0  0  0
   -3.9009   -2.2690    0.7440 C   0  0  0  0  0  0  0  0  0  0  0  0
    3.6031    0.3385   -0.2790 C   0  0  0  0  0  0  0  0  0  0  0  0
   -3.7075    0.1262    0.0161 C   0  0  0  0  0  0  0  0  0  0  0  0
    0.3645   -3.2840    0.8867 C   0  0  0  0  0  0  0  0  0  0  0  0
   -2.6046   -2.6573    0.0699 C   0  0  0  0  0  0  0  0  0  0  0  0
    1.6423   -1.5817   -2.0030 C   0  0  0  0  0  0  0  0  0  0  0  0
   -2.6011    2.2141    0.5468 C   0  0  0  0  0  0  0  0  0  0  0  0
   -2.2074    1.6019   -0.6468 C   0  0  0  0  0  0  0  0  0  0  0  0
    3.7483    0.6125    1.0811 C   0  0  0  0  0  0  0  0  0  0  0  0
    4.6906   -0.1310   -1.0158 C   0  0  0  0  0  0  0  0  0  0  0  0
   -2.0418    3.4280    0.9772 C   0  0  0  0  0  0  0  0  0  0  0  0
   -1.2187    2.2288   -1.4359 C   0  0  0  0  0  0  0  0  0  0  0  0
    4.9809    0.4173    1.7042 C   0  0  0  0  0  0  0  0  0  0  0  0
    5.9231   -0.3264   -0.3925 C   0  0  0  0  0  0  0  0  0  0  0  0
    6.0681   -0.0522    0.9675 C   0  0  0  0  0  0  0  0  0  0  0  0
   -1.0655    4.0276    0.1778 C   0  0  0  0  0  0  0  0  0  0  0  0
   -0.6577    3.4375   -1.0134 C   0  0  0  0  0  0  0  0  0  0  0  0
   -0.3864   -2.4937   -0.9709 H   0  0  0  0  0  0  0  0  0  0  0  0
    1.7472    1.3647   -0.4424 H   0  0  0  0  0  0  0  0  0  0  0  0
    2.3972    0.8720   -1.9907 H   0  0  0  0  0  0  0  0  0  0  0  0
   -5.5451   -0.8827    0.5203 H   0  0  0  0  0  0  0  0  0  0  0  0
   -4.8096   -1.3775   -1.0010 H   0  0  0  0  0  0  0  0  0  0  0  0
   -4.5564   -3.1477    0.7373 H   0  0  0  0  0  0  0  0  0  0  0  0
   -3.7031   -2.0435    1.7989 H   0  0  0  0  0  0  0  0  0  0  0  0
    0.4059   -3.0097    1.9470 H   0  0  0  0  0  0  0  0  0  0  0  0
    1.3864   -3.4851    0.5518 H   0  0  0  0  0  0  0  0  0  0  0  0
   -0.2137   -4.2115    0.8222 H   0  0  0  0  0  0  0  0  0  0  0  0
    2.5257   -1.3267   -2.5929 H   0  0  0  0  0  0  0  0  0  0  0  0
    1.7640   -2.5989   -1.6232 H   0  0  0  0  0  0  0  0  0  0  0  0
    0.7650   -1.5382   -2.6556 H   0  0  0  0  0  0  0  0  0  0  0  0
    2.9112    0.9808    1.6677 H   0  0  0  0  0  0  0  0  0  0  0  0
    4.5978   -0.3404   -2.0775 H   0  0  0  0  0  0  0  0  0  0  0  0
   -2.3550    3.8943    1.9063 H   0  0  0  0  0  0  0  0  0  0  0  0
   -0.8907    1.7750   -2.3668 H   0  0  0  0  0  0  0  0  0  0  0  0
    5.0941    0.6313    2.7629 H   0  0  0  0  0  0  0  0  0  0  0  0
    6.7704   -0.6899   -0.9664 H   0  0  0  0  0  0  0  0  0  0  0  0
    7.0280   -0.2038    1.4525 H   0  0  0  0  0  0  0  0  0  0  0  0
   -0.6192    4.9671    0.4930 H   0  0  0  0  0  0  0  0  0  0  0  0
    0.1045    3.9171   -1.6213 H   0  0  0  0  0  0  0  0  0  0  0  0
  1 13  1  0  0  0  0
  1 17  1  0  0  0  0
  2  7  1  0  0  0  0
  2 15  1  0  0  0  0
  3  9  2  0  0  0  0
  4 15  2  0  0  0  0
  5  8  1  0  0  0  0
  5  9  1  0  0  0  0
  5 16  1  0  0  0  0
  6 13  2  0  0  0  0
  6 18  1  0  0  0  0
  7  9  1  0  0  0  0
  7 14  1  0  0  0  0
  7 28  1  0  0  0  0
  8 12  1  0  0  0  0
  8 29  1  0  0  0  0
  8 30  1  0  0  0  0
 10 11  1  0  0  0  0
 10 13  1  0  0  0  0
 10 31  1  0  0  0  0
 10 32  1  0  0  0  0
 11 15  1  0  0  0  0
 11 33  1  0  0  0  0
 11 34  1  0  0  0  0
 12 19  2  0  0  0  0
 12 20  1  0  0  0  0
 14 35  1  0  0  0  0
 14 36  1  0  0  0  0
 14 37  1  0  0  0  0
 16 38  1  0  0  0  0
 16 39  1  0  0  0  0
 16 40  1  0  0  0  0
 17 18  1  0  0  0  0
 17 21  2  0  0  0  0
 18 22  2  0  0  0  0
 19 23  1  0  0  0  0
 19 41  1  0  0  0  0
 20 24  2  0  0  0  0
 20 42  1  0  0  0  0
 21 26  1  0  0  0  0
 21 43  1  0  0  0  0
 22 27  1  0  0  0  0
 22 44  1  0  0  0  0
 23 25  2  0  0  0  0
 23 45  1  0  0  0  0
 24 25  1  0  0  0  0
 24 46  1  0  0  0  0
 25 47  1  0  0  0  0
 26 27  2  0  0  0  0
 26 48  1  0  0  0  0
 27 49  1  0  0  0  0
M  END
> <PUBCHEM_COMPOUND_CID>
7846959

> <PUBCHEM_CONFORMER_RMSD>
1.2

> <PUBCHEM_CONFORMER_DIVERSEORDER>
1
101
167
95
232
224
254
41
248
154
214
197
277
21
52
253
175
70
30
112
249
186
6
189
137
211
38
134
16
273
74
23
103
94
106
58
219
208
14
163
120
125
261
36
31
7
190
158
217
257
246
54
128
155
177
150
50
213
174
57
59
117
263
159
13
10
135
75
275
12
156
145
166
183
147
63
83
266
19
108
67
97
239
255
2
109
79
40
272
234
32
271
116
178
86
56
181
237
53
22
37
164
121
72
259
146
169
142
119
100
274
179
151
45
173
264
91
141
256
195
89
5
200
27
49
26
241
207
262
28
209
66
161
242
9
160
172
199
270
152
165
126
204
55
231
124
24
114
105
69
202
230
33
220
247
29
269
60
84
15
4
245
201
93
203
47
180
20
215
236
149
104
153
122
258
140
185
65
210
212
68
42
260
123
77
132
118
238
85
8
244
3
182
228
88
111
98
267
226
225
229
62
39
143
78
198
193
251
80
268
48
252
170
176
99
188
18
71
206
61
148
43
96
192
82
276
235
115
168
46
17
250
130
194
222
87
139
73
131
51
171
221
107
34
162
127
81
265
233
191
92
133
11
25
138
64
205
216
136
144
76
110
196
223
113
240
187
184
102
35
218
90
129
243
157
227
44

> <PUBCHEM_MMFF94_PARTIAL_CHARGES>
35
1 -0.08
10 0.18
11 0.06
12 -0.14
13 0.2
15 0.66
16 0.3
17 0.04
18 0.23
19 -0.15
2 -0.43
20 -0.15
21 -0.15
22 -0.15
23 -0.15
24 -0.15
25 -0.15
26 -0.15
27 -0.15
3 -0.57
4 -0.57
41 0.15
42 0.15
43 0.15
44 0.15
45 0.15
46 0.15
47 0.15
48 0.15
49 0.15
5 -0.66
6 -0.57
7 0.34
8 0.44
9 0.57

> <PUBCHEM_EFFECTIVE_ROTOR_COUNT>
9

> <PUBCHEM_PHARMACOPHORE_FEATURES>
6
1 3 acceptor
1 4 acceptor
1 6 acceptor
5 1 6 13 17 18 rings
6 12 19 20 23 24 25 rings
6 17 18 21 22 26 27 rings

> <PUBCHEM_HEAVY_ATOM_COUNT>
27

> <PUBCHEM_ATOM_DEF_STEREO_COUNT>
1

> <PUBCHEM_ATOM_UDEF_STEREO_COUNT>
0

> <PUBCHEM_BOND_DEF_STEREO_COUNT>
0

> <PUBCHEM_BOND_UDEF_STEREO_COUNT>
0

> <PUBCHEM_ISOTOPIC_ATOM_COUNT>
0

> <PUBCHEM_COMPONENT_COUNT>
1

> <PUBCHEM_CACTVS_TAUTO_COUNT>
2

> <PUBCHEM_CONFORMER_ID>
0077BC2F00000001

> <PUBCHEM_MMFF94_ENERGY>
55.6429

> <PUBCHEM_FEATURE_SELFOVERLAP>
30.517

> <PUBCHEM_SHAPE_FINGERPRINT>
10006869 2 18267025140939728595
10256941 240 17769686378884503140
10670039 82 18341611551449372978
1100329 8 18195519304149278195
11595378 159 18202289129905388178
11646440 116 18338224978305410339
12128747 34 18336547235505380534
12156800 1 6867971376140840565
12166972 35 17488181491957670575
12596602 18 17203324456192333074
12633257 1 18411411804659778384
12788726 201 18199739268188548158
13140716 1 18340200774382262457
13402501 40 18259705601100800040
13773456 30 17553499371564488109
14068700 675 18189621545321042735
14081887 123 18409445912123220557
14117953 113 18271525411572079501
14142880 1 18336538400577538233
14178342 30 18196083563287542372
14251757 17 18041553762871912362
14279260 333 16808124999451793766
14784336 7 17911819984739814674
14910302 57 18188759652258018230
14955137 171 18196641901152586619
15021287 119 17060057103841316750
16728300 4 15748145821750697408
17349148 13 17417804054686635974
17818456 19 18343017770907764926
20775438 99 16677283776629277431
21033648 29 17531540819282919954
21591340 35 17036134152592629688
21796203 349 17695861689018619617
23402539 116 18338521841596281975
23557571 272 18336816541900244710
23559900 14 18263069050805791758
25019877 29 16878496814062362967
392239 28 18409726248944342393
460360 51 17201658859391056578
469060 322 18270945908777464121
508706 21 18336823208032418468

> <PUBCHEM_SHAPE_MULTIPOLES>
531.93
10.71
4.43
1.46
15.26
1.07
-0.11
-0.82
2.67
-5.55
0.01
0.81
0.18
0.23

> <PUBCHEM_SHAPE_SELFOVERLAP>
1117.572

> <PUBCHEM_SHAPE_VOLUME>
301

> <PUBCHEM_COORDINATE_TYPE>
2
5
10

$$$$

