12173
  -OEChem-06261206373D

 16 16  0     0  0  0  0  0  0999 V2000
   -3.6508   -0.3899    0.0001 O   0  0  0  0  0  0  0  0  0  0  0  0
    3.6509    0.3896    0.0006 O   0  0  0  0  0  0  0  0  0  0  0  0
   -1.3726    0.2486    0.0002 C   0  0  0  0  0  0  0  0  0  0  0  0
    1.3725   -0.2484   -0.0006 C   0  0  0  0  0  0  0  0  0  0  0  0
   -0.4712    1.3130    0.0000 C   0  0  0  0  0  0  0  0  0  0  0  0
    0.9014    1.0645   -0.0006 C   0  0  0  0  0  0  0  0  0  0  0  0
   -0.9015   -1.0644    0.0001 C   0  0  0  0  0  0  0  0  0  0  0  0
    0.4711   -1.3128   -0.0003 C   0  0  0  0  0  0  0  0  0  0  0  0
   -2.8033    0.5075    0.0003 C   0  0  0  0  0  0  0  0  0  0  0  0
    2.8034   -0.5076    0.0002 C   0  0  0  0  0  0  0  0  0  0  0  0
   -0.8230    2.3415    0.0000 H   0  0  0  0  0  0  0  0  0  0  0  0
    1.5854    1.9091   -0.0006 H   0  0  0  0  0  0  0  0  0  0  0  0
   -1.5854   -1.9091    0.0003 H   0  0  0  0  0  0  0  0  0  0  0  0
    0.8229   -2.3413    0.0000 H   0  0  0  0  0  0  0  0  0  0  0  0
   -3.1151    1.5658    0.0005 H   0  0  0  0  0  0  0  0  0  0  0  0
    3.1149   -1.5660    0.0008 H   0  0  0  0  0  0  0  0  0  0  0  0
  1  9  2  0  0  0  0
  2 10  2  0  0  0  0
  3  5  2  0  0  0  0
  3  7  1  0  0  0  0
  3  9  1  0  0  0  0
  4  6  2  0  0  0  0
  4  8  1  0  0  0  0
  4 10  1  0  0  0  0
  5  6  1  0  0  0  0
  5 11  1  0  0  0  0
  6 12  1  0  0  0  0
  7  8  2  0  0  0  0
  7 13  1  0  0  0  0
  8 14  1  0  0  0  0
  9 15  1  0  0  0  0
 10 16  1  0  0  0  0
M  END
> <PUBCHEM_COMPOUND_CID>
12173

> <PUBCHEM_CONFORMER_RMSD>
0.4

> <PUBCHEM_CONFORMER_DIVERSEORDER>
1
4
2
3

> <PUBCHEM_MMFF94_PARTIAL_CHARGES>
16
1 -0.57
10 0.42
11 0.15
12 0.15
13 0.15
14 0.15
15 0.06
16 0.06
2 -0.57
3 0.09
4 0.09
5 -0.15
6 -0.15
7 -0.15
8 -0.15
9 0.42

> <PUBCHEM_EFFECTIVE_ROTOR_COUNT>
2

> <PUBCHEM_PHARMACOPHORE_FEATURES>
3
1 1 acceptor
1 2 acceptor
6 3 4 5 6 7 8 rings

> <PUBCHEM_HEAVY_ATOM_COUNT>
10

> <PUBCHEM_ATOM_DEF_STEREO_COUNT>
0

> <PUBCHEM_ATOM_UDEF_STEREO_COUNT>
0

> <PUBCHEM_BOND_DEF_STEREO_COUNT>
0

> <PUBCHEM_BOND_UDEF_STEREO_COUNT>
0

> <PUBCHEM_ISOTOPIC_ATOM_COUNT>
0

> <PUBCHEM_COMPONENT_COUNT>
1

> <PUBCHEM_CACTVS_TAUTO_COUNT>
1

> <PUBCHEM_CONFORMER_ID>
00002F8D00000001

> <PUBCHEM_MMFF94_ENERGY>
22.9921

> <PUBCHEM_FEATURE_SELFOVERLAP>
15.223

> <PUBCHEM_SHAPE_FINGERPRINT>
10219947 1 18410571803313346031
10857977 72 18411145739951405305
11062470 55 18411982468152494989
12032990 46 18410284830789344831
12932764 1 15647347384462082061
14325111 11 18410574028116987328
14993402 34 18410575076073144583
15310529 11 16701751526318157216
16945 1 18410855473013063686
193761 8 17690279313590452231
20201158 50 18341893008840117091
21040471 1 18338516335321172355
21293036 1 18411982455278058316
23235685 24 18410298016333363456
23402539 116 18260559938857343900
23402655 69 18193294103237258973
23552423 10 18128256675412944004
2748010 2 18122343475855753271
29004967 10 18342451577826487873
369184 2 16487257681575523800
5084963 1 18333732433348742649
528886 8 18409735053489902074

> <PUBCHEM_SHAPE_MULTIPOLES>
194.06
4.91
1.29
0.6
0
0
0
0
0
0
0
0
0
0

> <PUBCHEM_SHAPE_SELFOVERLAP>
406.941

> <PUBCHEM_SHAPE_VOLUME>
108.7

> <PUBCHEM_COORDINATE_TYPE>
2
5
10

$$$$

