5084
  -OEChem-06261200302D

 62 67  0     1  0  0  0  0  0999 V2000
    8.1524    0.9075    0.0000 O   0  0  0  0  0  0  0  0  0  0  0  0
    5.3045    2.9766    0.0000 O   0  0  0  0  0  0  0  0  0  0  0  0
    6.8923   -1.9101    0.0000 N   0  0  0  0  0  0  0  0  0  0  0  0
   10.5690   -2.0244    0.0000 N   0  0  0  0  0  0  0  0  0  0  0  0
    6.8923    2.1676    0.0000 N   0  0  0  0  0  0  0  0  0  0  0  0
    3.3318   -0.0408    0.0000 N   0  0  0  0  0  0  0  0  0  0  0  0
    8.9197   -1.4955    0.0000 C   0  0  3  0  0  0  0  0  0  0  0  0
    8.2167   -0.7268    0.0000 C   0  0  0  0  0  0  0  0  0  0  0  0
    8.5978   -2.4861    0.0000 C   0  0  0  0  0  0  0  0  0  0  0  0
    7.2013   -0.9590    0.0000 C   0  0  0  0  0  0  0  0  0  0  0  0
    7.5773   -2.6948    0.0000 C   0  0  0  0  0  0  0  0  0  0  0  0
    6.3923   -0.3713    0.0000 C   0  0  0  0  0  0  0  0  0  0  0  0
    9.8970   -1.2838    0.0000 C   0  0  0  0  0  0  0  0  0  0  0  0
    5.8923   -1.9101    0.0000 C   0  0  0  0  0  0  0  0  0  0  0  0
    5.5833   -0.9590    0.0000 C   0  0  0  0  0  0  0  0  0  0  0  0
    6.3923    0.6287    0.0000 C   0  0  0  0  0  0  0  0  0  0  0  0
    5.2073   -2.6948    0.0000 C   0  0  0  0  0  0  0  0  0  0  0  0
    4.5679   -0.7268    0.0000 C   0  0  0  0  0  0  0  0  0  0  0  0
    5.5833    1.2165    0.0000 C   0  0  0  0  0  0  0  0  0  0  0  0
    7.2013    1.2165    0.0000 C   0  0  0  0  0  0  0  0  0  0  0  0
    4.1868   -2.4861    0.0000 C   0  0  0  0  0  0  0  0  0  0  0  0
    4.6322    0.9075    0.0000 C   0  0  0  0  0  0  0  0  0  0  0  0
    3.8649   -1.4955    0.0000 C   0  0  0  0  0  0  0  0  0  0  0  0
   11.5463   -1.8127    0.0000 C   0  0  0  0  0  0  0  0  0  0  0  0
   10.2636   -2.9766    0.0000 C   0  0  0  0  0  0  0  0  0  0  0  0
    5.8923    2.1676    0.0000 C   0  0  0  0  0  0  0  0  0  0  0  0
    3.8285    1.4925    0.0000 C   0  0  0  0  0  0  0  0  0  0  0  0
    4.3258   -0.0382    0.0000 C   0  0  0  0  0  0  0  0  0  0  0  0
    3.0205    0.9033    0.0000 C   0  0  0  0  0  0  0  0  0  0  0  0
    3.7222    2.4868    0.0000 C   0  0  0  0  0  0  0  0  0  0  0  0
    2.1062    1.3085    0.0000 C   0  0  0  0  0  0  0  0  0  0  0  0
    2.7468   -0.8518    0.0000 C   0  0  0  0  0  0  0  0  0  0  0  0
    2.8080    2.8920    0.0000 C   0  0  0  0  0  0  0  0  0  0  0  0
    2.0000    2.3028    0.0000 C   0  0  0  0  0  0  0  0  0  0  0  0
    9.1078   -0.9047    0.0000 H   0  0  0  0  0  0  0  0  0  0  0  0
    8.7391   -0.3929    0.0000 H   0  0  0  0  0  0  0  0  0  0  0  0
    7.9771   -0.1550    0.0000 H   0  0  0  0  0  0  0  0  0  0  0  0
    8.6162   -3.1059    0.0000 H   0  0  0  0  0  0  0  0  0  0  0  0
    9.2115   -2.5740    0.0000 H   0  0  0  0  0  0  0  0  0  0  0  0
    7.0473   -3.0166    0.0000 H   0  0  0  0  0  0  0  0  0  0  0  0
    7.8036   -3.2720    0.0000 H   0  0  0  0  0  0  0  0  0  0  0  0
   10.4215   -0.9532    0.0000 H   0  0  0  0  0  0  0  0  0  0  0  0
    9.6625   -0.7098    0.0000 H   0  0  0  0  0  0  0  0  0  0  0  0
    5.4057   -3.2822    0.0000 H   0  0  0  0  0  0  0  0  0  0  0  0
    4.3831   -0.1350    0.0000 H   0  0  0  0  0  0  0  0  0  0  0  0
    3.7737   -2.9485    0.0000 H   0  0  0  0  0  0  0  0  0  0  0  0
    3.2590   -1.3642    0.0000 H   0  0  0  0  0  0  0  0  0  0  0  0
   11.6776   -2.4186    0.0000 H   0  0  0  0  0  0  0  0  0  0  0  0
   12.1523   -1.6814    0.0000 H   0  0  0  0  0  0  0  0  0  0  0  0
   11.4151   -1.2067    0.0000 H   0  0  0  0  0  0  0  0  0  0  0  0
    9.6732   -2.7873    0.0000 H   0  0  0  0  0  0  0  0  0  0  0  0
   10.0743   -3.5670    0.0000 H   0  0  0  0  0  0  0  0  0  0  0  0
   10.8540   -3.1659    0.0000 H   0  0  0  0  0  0  0  0  0  0  0  0
    7.2567    2.6692    0.0000 H   0  0  0  0  0  0  0  0  0  0  0  0
    4.6911   -0.5391    0.0000 H   0  0  0  0  0  0  0  0  0  0  0  0
    4.2232    2.8521    0.0000 H   0  0  0  0  0  0  0  0  0  0  0  0
    1.6053    0.9432    0.0000 H   0  0  0  0  0  0  0  0  0  0  0  0
    2.2439   -0.4891    0.0000 H   0  0  0  0  0  0  0  0  0  0  0  0
    2.3841   -1.3547    0.0000 H   0  0  0  0  0  0  0  0  0  0  0  0
    3.2496   -1.2145    0.0000 H   0  0  0  0  0  0  0  0  0  0  0  0
    2.7421    3.5085    0.0000 H   0  0  0  0  0  0  0  0  0  0  0  0
    1.4332    2.5540    0.0000 H   0  0  0  0  0  0  0  0  0  0  0  0
  1 20  2  0  0  0  0
  2 26  2  0  0  0  0
  3 10  1  0  0  0  0
  3 11  1  0  0  0  0
  3 14  1  0  0  0  0
  4 13  1  0  0  0  0
  4 24  1  0  0  0  0
  4 25  1  0  0  0  0
  5 20  1  0  0  0  0
  5 26  1  0  0  0  0
  5 54  1  0  0  0  0
  6 28  1  0  0  0  0
  6 29  1  0  0  0  0
  6 32  1  0  0  0  0
  7  8  1  0  0  0  0
  7  9  1  0  0  0  0
  7 13  1  0  0  0  0
  7 35  1  0  0  0  0
  8 10  1  0  0  0  0
  8 36  1  0  0  0  0
  8 37  1  0  0  0  0
  9 11  1  0  0  0  0
  9 38  1  0  0  0  0
  9 39  1  0  0  0  0
 10 12  2  0  0  0  0
 11 40  1  0  0  0  0
 11 41  1  0  0  0  0
 12 15  1  0  0  0  0
 12 16  1  0  0  0  0
 13 42  1  0  0  0  0
 13 43  1  0  0  0  0
 14 15  1  0  0  0  0
 14 17  2  0  0  0  0
 15 18  2  0  0  0  0
 16 19  2  0  0  0  0
 16 20  1  0  0  0  0
 17 21  1  0  0  0  0
 17 44  1  0  0  0  0
 18 23  1  0  0  0  0
 18 45  1  0  0  0  0
 19 22  1  0  0  0  0
 19 26  1  0  0  0  0
 21 23  2  0  0  0  0
 21 46  1  0  0  0  0
 22 27  1  0  0  0  0
 22 28  2  0  0  0  0
 23 47  1  0  0  0  0
 24 48  1  0  0  0  0
 24 49  1  0  0  0  0
 24 50  1  0  0  0  0
 25 51  1  0  0  0  0
 25 52  1  0  0  0  0
 25 53  1  0  0  0  0
 27 29  1  0  0  0  0
 27 30  2  0  0  0  0
 28 55  1  0  0  0  0
 29 31  2  0  0  0  0
 30 33  1  0  0  0  0
 30 56  1  0  0  0  0
 31 34  1  0  0  0  0
 31 57  1  0  0  0  0
 32 58  1  0  0  0  0
 32 59  1  0  0  0  0
 32 60  1  0  0  0  0
 33 34  2  0  0  0  0
 33 61  1  0  0  0  0
 34 62  1  0  0  0  0
M  END
> <PUBCHEM_COMPOUND_CID>
5084

> <PUBCHEM_COMPOUND_CANONICALIZED>
1

> <PUBCHEM_CACTVS_COMPLEXITY>
869

> <PUBCHEM_CACTVS_HBOND_ACCEPTOR>
3

> <PUBCHEM_CACTVS_HBOND_DONOR>
1

> <PUBCHEM_CACTVS_ROTATABLE_BOND>
4

> <PUBCHEM_CACTVS_SUBSKEYS>
AAADceB7sAAAAAAAAAAAAAAAAAAAAWLEAAA8YIAAAAAAAFgB/gAAHgAQAAAADQjBngQ+wPPMEACoAzV3VACCgCAxAiAI2CE4ZNgIIPLAlZGEIAhghCDIyQccicCegAAAAAACAAAAAAAAAAQAAAAAAAAAAA==

> <PUBCHEM_IUPAC_OPENEYE_NAME>
3-[8-[(dimethylamino)methyl]-6,7,8,9-tetrahydropyrido[1,2-a]indol-10-yl]-4-(1-methylindol-3-yl)pyrrole-2,5-dione

> <PUBCHEM_IUPAC_CAS_NAME>
3-[8-[(dimethylamino)methyl]-6,7,8,9-tetrahydropyrido[1,2-a]indol-10-yl]-4-(1-methyl-3-indolyl)pyrrole-2,5-dione

> <PUBCHEM_IUPAC_NAME>
3-[8-[(dimethylamino)methyl]-6,7,8,9-tetrahydropyrido[1,2-a]indol-10-yl]-4-(1-methylindol-3-yl)pyrrole-2,5-dione

> <PUBCHEM_IUPAC_SYSTEMATIC_NAME>
3-[8-[(dimethylamino)methyl]-6,7,8,9-tetrahydropyrido[1,2-a]indol-10-yl]-4-(1-methylindol-3-yl)pyrrole-2,5-dione

> <PUBCHEM_IUPAC_TRADITIONAL_NAME>
3-[8-[(dimethylamino)methyl]-6,7,8,9-tetrahydropyrid[1,2-a]indol-10-yl]-4-(1-methylindol-3-yl)-3-pyrroline-2,5-quinone

> <PUBCHEM_IUPAC_INCHI>
InChI=1S/C28H28N4O2/c1-30(2)15-17-12-13-32-22-11-7-5-9-19(22)24(23(32)14-17)26-25(27(33)29-28(26)34)20-16-31(3)21-10-6-4-8-18(20)21/h4-11,16-17H,12-15H2,1-3H3,(H,29,33,34)

> <PUBCHEM_IUPAC_INCHIKEY>
FXGHOAZJQNLNFD-UHFFFAOYSA-N

> <PUBCHEM_XLOGP3_AA>
3.4

> <PUBCHEM_EXACT_MASS>
452.221226

> <PUBCHEM_MOLECULAR_FORMULA>
C28H28N4O2

> <PUBCHEM_MOLECULAR_WEIGHT>
452.54752

> <PUBCHEM_OPENEYE_CAN_SMILES>
CN1C=C(C2=CC=CC=C21)C3=C(C(=O)NC3=O)C4=C5CC(CCN5C6=CC=CC=C64)CN(C)C

> <PUBCHEM_OPENEYE_ISO_SMILES>
CN1C=C(C2=CC=CC=C21)C3=C(C(=O)NC3=O)C4=C5CC(CCN5C6=CC=CC=C64)CN(C)C

> <PUBCHEM_CACTVS_TPSA>
59.3

> <PUBCHEM_MONOISOTOPIC_WEIGHT>
452.221226

> <PUBCHEM_TOTAL_CHARGE>
0

> <PUBCHEM_HEAVY_ATOM_COUNT>
34

> <PUBCHEM_ATOM_DEF_STEREO_COUNT>
0

> <PUBCHEM_ATOM_UDEF_STEREO_COUNT>
1

> <PUBCHEM_BOND_DEF_STEREO_COUNT>
0

> <PUBCHEM_BOND_UDEF_STEREO_COUNT>
0

> <PUBCHEM_ISOTOPIC_ATOM_COUNT>
0

> <PUBCHEM_COMPONENT_COUNT>
1

> <PUBCHEM_CACTVS_TAUTO_COUNT>
19

> <PUBCHEM_COORDINATE_TYPE>
1
5
255

> <PUBCHEM_BONDANNOTATIONS>
10  12  8
12  15  8
14  15  8
14  17  8
15  18  8
17  21  8
18  23  8
21  23  8
22  27  8
22  28  8
27  29  8
27  30  8
29  31  8
3  10  8
3  14  8
30  33  8
31  34  8
33  34  8
6  28  8
6  29  8
7  13  3

$$$$

