7081
  -OEChem-06261201452D

 33 35  0     0  0  0  0  0  0999 V2000
    6.0682    0.6953    0.0000 N   0  0  0  0  0  0  0  0  0  0  0  0
    9.5984    0.7194    0.0000 N   0  0  0  0  0  0  0  0  0  0  0  0
    2.5381    0.7194    0.0000 N   0  0  0  0  0  0  0  0  0  0  0  0
    6.9343   -0.8047    0.0000 C   0  0  0  0  0  0  0  0  0  0  0  0
    5.2022   -0.8047    0.0000 C   0  0  0  0  0  0  0  0  0  0  0  0
    6.9343    0.1953    0.0000 C   0  0  0  0  0  0  0  0  0  0  0  0
    5.2022    0.1953    0.0000 C   0  0  0  0  0  0  0  0  0  0  0  0
    6.0682   -1.3047    0.0000 C   0  0  0  0  0  0  0  0  0  0  0  0
    7.8282   -1.3394    0.0000 C   0  0  0  0  0  0  0  0  0  0  0  0
    4.3083   -1.3394    0.0000 C   0  0  0  0  0  0  0  0  0  0  0  0
    8.7343   -0.8256    0.0000 C   0  0  0  0  0  0  0  0  0  0  0  0
    3.4022   -0.8256    0.0000 C   0  0  0  0  0  0  0  0  0  0  0  0
    7.8282    0.7299    0.0000 C   0  0  0  0  0  0  0  0  0  0  0  0
    4.3083    0.7299    0.0000 C   0  0  0  0  0  0  0  0  0  0  0  0
    8.7343    0.2161    0.0000 C   0  0  0  0  0  0  0  0  0  0  0  0
    3.4022    0.2161    0.0000 C   0  0  0  0  0  0  0  0  0  0  0  0
    9.5984   -1.3289    0.0000 C   0  0  0  0  0  0  0  0  0  0  0  0
    2.5381   -1.3289    0.0000 C   0  0  0  0  0  0  0  0  0  0  0  0
    6.0682   -1.9247    0.0000 H   0  0  0  0  0  0  0  0  0  0  0  0
    7.8210   -1.9594    0.0000 H   0  0  0  0  0  0  0  0  0  0  0  0
    4.3154   -1.9594    0.0000 H   0  0  0  0  0  0  0  0  0  0  0  0
    7.8210    1.3499    0.0000 H   0  0  0  0  0  0  0  0  0  0  0  0
    4.3154    1.3499    0.0000 H   0  0  0  0  0  0  0  0  0  0  0  0
    9.2863   -1.8646    0.0000 H   0  0  0  0  0  0  0  0  0  0  0  0
   10.1341   -1.6410    0.0000 H   0  0  0  0  0  0  0  0  0  0  0  0
    9.9105   -0.7932    0.0000 H   0  0  0  0  0  0  0  0  0  0  0  0
    2.2261   -0.7932    0.0000 H   0  0  0  0  0  0  0  0  0  0  0  0
    2.0024   -1.6410    0.0000 H   0  0  0  0  0  0  0  0  0  0  0  0
    2.8502   -1.8646    0.0000 H   0  0  0  0  0  0  0  0  0  0  0  0
    9.5960    1.3394    0.0000 H   0  0  0  0  0  0  0  0  0  0  0  0
   10.1365    0.4115    0.0000 H   0  0  0  0  0  0  0  0  0  0  0  0
    2.5405    1.3394    0.0000 H   0  0  0  0  0  0  0  0  0  0  0  0
    2.0000    0.4115    0.0000 H   0  0  0  0  0  0  0  0  0  0  0  0
  1  6  2  0  0  0  0
  1  7  1  0  0  0  0
  2 15  1  0  0  0  0
  2 30  1  0  0  0  0
  2 31  1  0  0  0  0
  3 16  1  0  0  0  0
  3 32  1  0  0  0  0
  3 33  1  0  0  0  0
  4  6  1  0  0  0  0
  4  8  2  0  0  0  0
  4  9  1  0  0  0  0
  5  7  1  0  0  0  0
  5  8  1  0  0  0  0
  5 10  2  0  0  0  0
  6 13  1  0  0  0  0
  7 14  2  0  0  0  0
  8 19  1  0  0  0  0
  9 11  2  0  0  0  0
  9 20  1  0  0  0  0
 10 12  1  0  0  0  0
 10 21  1  0  0  0  0
 11 15  1  0  0  0  0
 11 17  1  0  0  0  0
 12 16  2  0  0  0  0
 12 18  1  0  0  0  0
 13 15  2  0  0  0  0
 13 22  1  0  0  0  0
 14 16  1  0  0  0  0
 14 23  1  0  0  0  0
 17 24  1  0  0  0  0
 17 25  1  0  0  0  0
 17 26  1  0  0  0  0
 18 27  1  0  0  0  0
 18 28  1  0  0  0  0
 18 29  1  0  0  0  0
M  END
> <PUBCHEM_COMPOUND_CID>
7081

> <PUBCHEM_COMPOUND_CANONICALIZED>
1

> <PUBCHEM_CACTVS_COMPLEXITY>
278

> <PUBCHEM_CACTVS_HBOND_ACCEPTOR>
3

> <PUBCHEM_CACTVS_HBOND_DONOR>
2

> <PUBCHEM_CACTVS_ROTATABLE_BOND>
0

> <PUBCHEM_CACTVS_SUBSKEYS>
AAADccBzAAAAAAAAAAAAAAAAAAAAAAAAAAA8YIAAAAAAAACx/AAAHAAQAAAADAiBHgAywPJIEACgAyRiRACCgCAhAiAAmCAwZJgIIOLA0dGEJAhgkADIyAcQgMAOCAACAAQCAAAQAAQACAQAAAAAAAAAAA==

> <PUBCHEM_IUPAC_OPENEYE_NAME>
2,7-dimethylacridine-3,6-diamine

> <PUBCHEM_IUPAC_CAS_NAME>
2,7-dimethylacridine-3,6-diamine

> <PUBCHEM_IUPAC_NAME>
2,7-dimethylacridine-3,6-diamine

> <PUBCHEM_IUPAC_SYSTEMATIC_NAME>
2,7-dimethylacridine-3,6-diamine

> <PUBCHEM_IUPAC_TRADITIONAL_NAME>
(6-amino-2,7-dimethyl-acridin-3-yl)amine

> <PUBCHEM_IUPAC_INCHI>
InChI=1S/C15H15N3/c1-8-3-10-5-11-4-9(2)13(17)7-15(11)18-14(10)6-12(8)16/h3-7H,16-17H2,1-2H3

> <PUBCHEM_IUPAC_INCHIKEY>
HGHJYCKSBMCGRK-UHFFFAOYSA-N

> <PUBCHEM_XLOGP3_AA>
2.9

> <PUBCHEM_EXACT_MASS>
237.126597

> <PUBCHEM_MOLECULAR_FORMULA>
C15H15N3

> <PUBCHEM_MOLECULAR_WEIGHT>
237.2997

> <PUBCHEM_OPENEYE_CAN_SMILES>
CC1=CC2=CC3=CC(=C(C=C3N=C2C=C1N)N)C

> <PUBCHEM_OPENEYE_ISO_SMILES>
CC1=CC2=CC3=CC(=C(C=C3N=C2C=C1N)N)C

> <PUBCHEM_CACTVS_TPSA>
64.9

> <PUBCHEM_MONOISOTOPIC_WEIGHT>
237.126597

> <PUBCHEM_TOTAL_CHARGE>
0

> <PUBCHEM_HEAVY_ATOM_COUNT>
18

> <PUBCHEM_ATOM_DEF_STEREO_COUNT>
0

> <PUBCHEM_ATOM_UDEF_STEREO_COUNT>
0

> <PUBCHEM_BOND_DEF_STEREO_COUNT>
0

> <PUBCHEM_BOND_UDEF_STEREO_COUNT>
0

> <PUBCHEM_ISOTOPIC_ATOM_COUNT>
0

> <PUBCHEM_COMPONENT_COUNT>
1

> <PUBCHEM_CACTVS_TAUTO_COUNT>
16

> <PUBCHEM_COORDINATE_TYPE>
1
5
255

> <PUBCHEM_BONDANNOTATIONS>
1  6  8
1  7  8
10  12  8
11  15  8
12  16  8
13  15  8
14  16  8
4  6  8
4  8  8
4  9  8
5  10  8
5  7  8
5  8  8
6  13  8
7  14  8
9  11  8

$$$$

