17395873
  -OEChem-06241222523D

 45 47  0     1  0  0  0  0  0999 V2000
    1.3041    3.2121    0.1475 O   0  0  0  0  0  0  0  0  0  0  0  0
    0.1410   -1.1345    1.1309 O   0  0  0  0  0  0  0  0  0  0  0  0
    3.0323   -0.3464    0.4007 N   0  0  0  0  0  0  0  0  0  0  0  0
    1.1027    0.9646    0.7452 N   0  0  0  0  0  0  0  0  0  0  0  0
   -1.0758    0.6597    0.1952 N   0  0  0  0  0  0  0  0  0  0  0  0
    4.1532   -0.9710    1.1172 C   0  0  0  0  0  0  0  0  0  0  0  0
    3.4634    0.1849   -0.9000 C   0  0  0  0  0  0  0  0  0  0  0  0
    4.7609   -2.1139    0.3024 C   0  0  0  0  0  0  0  0  0  0  0  0
    4.0487   -0.9201   -1.7807 C   0  0  0  0  0  0  0  0  0  0  0  0
    5.1954   -1.6394   -1.0795 C   0  0  0  0  0  0  0  0  0  0  0  0
    2.4325    0.7122    1.2122 C   0  0  0  0  0  0  0  0  0  0  0  0
   -0.7794    2.0277   -0.2147 C   0  0  1  0  0  0  0  0  0  0  0  0
    0.6602    2.1756    0.2458 C   0  0  0  0  0  0  0  0  0  0  0  0
    0.0724    0.0216    0.7309 C   0  0  0  0  0  0  0  0  0  0  0  0
   -0.8901    2.2391   -1.7154 C   0  0  0  0  0  0  0  0  0  0  0  0
   -2.3242    0.0579    0.0762 C   0  0  0  0  0  0  0  0  0  0  0  0
   -2.4181   -1.3202   -0.1178 C   0  0  0  0  0  0  0  0  0  0  0  0
   -3.4820    0.8321    0.1520 C   0  0  0  0  0  0  0  0  0  0  0  0
   -3.6698   -1.9242   -0.2360 C   0  0  0  0  0  0  0  0  0  0  0  0
   -4.7337    0.2281    0.0336 C   0  0  0  0  0  0  0  0  0  0  0  0
   -4.8276   -1.1500   -0.1603 C   0  0  0  0  0  0  0  0  0  0  0  0
   -6.1662   -1.7961   -0.2854 C   0  0  0  0  0  0  0  0  0  0  0  0
    3.8024   -1.3861    2.0700 H   0  0  0  0  0  0  0  0  0  0  0  0
    4.9287   -0.2292    1.3496 H   0  0  0  0  0  0  0  0  0  0  0  0
    4.2084    0.9812   -0.7701 H   0  0  0  0  0  0  0  0  0  0  0  0
    2.6134    0.6209   -1.4382 H   0  0  0  0  0  0  0  0  0  0  0  0
    4.0252   -2.9214    0.1970 H   0  0  0  0  0  0  0  0  0  0  0  0
    5.6210   -2.5329    0.8366 H   0  0  0  0  0  0  0  0  0  0  0  0
    4.4039   -0.4920   -2.7249 H   0  0  0  0  0  0  0  0  0  0  0  0
    3.2628   -1.6435   -2.0329 H   0  0  0  0  0  0  0  0  0  0  0  0
    6.0493   -0.9579   -0.9810 H   0  0  0  0  0  0  0  0  0  0  0  0
    5.5301   -2.4910   -1.6820 H   0  0  0  0  0  0  0  0  0  0  0  0
    2.3210    0.3706    2.2487 H   0  0  0  0  0  0  0  0  0  0  0  0
    3.0323    1.6299    1.2229 H   0  0  0  0  0  0  0  0  0  0  0  0
   -1.3910    2.7338    0.3557 H   0  0  0  0  0  0  0  0  0  0  0  0
   -0.2471    1.5416   -2.2646 H   0  0  0  0  0  0  0  0  0  0  0  0
   -1.9159    2.0928   -2.0670 H   0  0  0  0  0  0  0  0  0  0  0  0
   -0.5813    3.2540   -1.9873 H   0  0  0  0  0  0  0  0  0  0  0  0
   -1.5475   -1.9570   -0.2332 H   0  0  0  0  0  0  0  0  0  0  0  0
   -3.4466    1.9053    0.3131 H   0  0  0  0  0  0  0  0  0  0  0  0
   -3.7304   -2.9976   -0.3958 H   0  0  0  0  0  0  0  0  0  0  0  0
   -5.6289    0.8411    0.0985 H   0  0  0  0  0  0  0  0  0  0  0  0
   -6.5295   -2.1015    0.7009 H   0  0  0  0  0  0  0  0  0  0  0  0
   -6.8954   -1.1112   -0.7314 H   0  0  0  0  0  0  0  0  0  0  0  0
   -6.1198   -2.6792   -0.9315 H   0  0  0  0  0  0  0  0  0  0  0  0
  1 13  2  0  0  0  0
  2 14  2  0  0  0  0
  3  6  1  0  0  0  0
  3  7  1  0  0  0  0
  3 11  1  0  0  0  0
  4 11  1  0  0  0  0
  4 13  1  0  0  0  0
  4 14  1  0  0  0  0
  5 12  1  0  0  0  0
  5 14  1  0  0  0  0
  5 16  1  0  0  0  0
  6  8  1  0  0  0  0
  6 23  1  0  0  0  0
  6 24  1  0  0  0  0
  7  9  1  0  0  0  0
  7 25  1  0  0  0  0
  7 26  1  0  0  0  0
  8 10  1  0  0  0  0
  8 27  1  0  0  0  0
  8 28  1  0  0  0  0
  9 10  1  0  0  0  0
  9 29  1  0  0  0  0
  9 30  1  0  0  0  0
 10 31  1  0  0  0  0
 10 32  1  0  0  0  0
 11 33  1  0  0  0  0
 11 34  1  0  0  0  0
 12 13  1  0  0  0  0
 12 15  1  0  0  0  0
 12 35  1  0  0  0  0
 15 36  1  0  0  0  0
 15 37  1  0  0  0  0
 15 38  1  0  0  0  0
 16 17  2  0  0  0  0
 16 18  1  0  0  0  0
 17 19  1  0  0  0  0
 17 39  1  0  0  0  0
 18 20  2  0  0  0  0
 18 40  1  0  0  0  0
 19 21  2  0  0  0  0
 19 41  1  0  0  0  0
 20 21  1  0  0  0  0
 20 42  1  0  0  0  0
 21 22  1  0  0  0  0
 22 43  1  0  0  0  0
 22 44  1  0  0  0  0
 22 45  1  0  0  0  0
M  END
> <PUBCHEM_COMPOUND_CID>
17395873

> <PUBCHEM_CONFORMER_RMSD>
0.8

> <PUBCHEM_CONFORMER_DIVERSEORDER>
1
5
19
12
16
4
9
10
14
18
11
8
13
7
6
3
2
17
15

> <PUBCHEM_MMFF94_PARTIAL_CHARGES>
22
1 -0.57
11 0.57
12 0.36
13 0.57
14 0.69
16 0.12
17 -0.15
18 -0.15
19 -0.15
2 -0.57
20 -0.15
21 -0.14
22 0.14
3 -0.81
39 0.15
4 -0.42
40 0.15
41 0.15
42 0.15
5 -0.48
6 0.27
7 0.27

> <PUBCHEM_EFFECTIVE_ROTOR_COUNT>
4.8

> <PUBCHEM_PHARMACOPHORE_FEATURES>
6
1 1 acceptor
1 2 acceptor
1 3 cation
5 4 5 12 13 14 rings
6 16 17 18 19 20 21 rings
6 3 6 7 8 9 10 rings

> <PUBCHEM_HEAVY_ATOM_COUNT>
22

> <PUBCHEM_ATOM_DEF_STEREO_COUNT>
0

> <PUBCHEM_ATOM_UDEF_STEREO_COUNT>
1

> <PUBCHEM_BOND_DEF_STEREO_COUNT>
0

> <PUBCHEM_BOND_UDEF_STEREO_COUNT>
0

> <PUBCHEM_ISOTOPIC_ATOM_COUNT>
0

> <PUBCHEM_COMPONENT_COUNT>
1

> <PUBCHEM_CACTVS_TAUTO_COUNT>
1

> <PUBCHEM_CONFORMER_ID>
010970A100000001

> <PUBCHEM_MMFF94_ENERGY>
46.513

> <PUBCHEM_FEATURE_SELFOVERLAP>
30.446

> <PUBCHEM_SHAPE_FINGERPRINT>
10369192 42 17972898964450071056
10622 236 17342675670986977842
10692045 39 10519717627284193284
11128504 68 17418086620485047054
12403259 327 15213306270283706862
12553582 1 18342751735921687235
12596602 18 5111995140926285038
12892183 10 15936403481045806466
13402501 40 18040991886623827510
13533116 47 18116716214780203827
13583140 156 15647344085979959928
13955234 65 17972880263354855521
14178000 29 18408039602349423564
14251751 18 18339648953174473170
14251764 30 18410009948761793007
14347332 77 18128256899179128426
14739800 52 11527678418444568191
14790565 3 17400358339664989761
14848178 96 10375879592630114270
14866123 147 17827913245999056217
15342816 4 18411133658646251366
15536298 74 18265901259271908889
15848702 151 18334298639082540017
16752209 62 17988365987299854816
17492 89 18121501250577403847
17804303 29 18408604751832457153
17980427 23 7276535517508551851
1813 80 18202568358392845173
18222031 100 18335421257365356195
19141452 34 18040721363670815655
193927 3 18337949000744420171
20374829 77 18408885174141299090
20388580 30 18412540981563254116
20403669 9 18333730229957102126
20645477 70 18337675187704327341
21267235 1 18412260611168520627
212916 134 9871458782375690156
221490 88 18198059171171167867
22182313 1 18196680490859019904
22950370 63 18411414033552106595
23557571 272 18262522610547945640
23559900 14 18261682484711525329
2838139 119 12463571738266600302
29717793 49 18261119513752428135
3004659 81 18272367594692591646
314173 41 18408882923715592498
335352 9 18410295848282519901
3421961 26 18334580096821560896
394222 165 13841691830251094210
4072396 5 5328472479645346131
4325135 7 18410856530561663612
463206 1 18341896307344138338
465052 167 18260543394596288719
5104073 3 18188205391471602651
5207 123 18334294271116520589
7164475 11 17987240113357948980
7237137 82 17988082308657171116
7808743 9 9150588211751578734
7970288 3 18410014368267751214
86090 222 16516505799008246886
8863177 126 17914602874956153051
960060 61 18131346384654567078
9709674 26 18194967336110884187

> <PUBCHEM_SHAPE_MULTIPOLES>
426.07
11.88
2.7
1.24
3.17
1.3
0.33
-10.37
2.01
-0.13
0.38
-1.37
0.07
0.34

> <PUBCHEM_SHAPE_SELFOVERLAP>
901.328

> <PUBCHEM_SHAPE_VOLUME>
241.3

> <PUBCHEM_COORDINATE_TYPE>
2
5
10

$$$$

