8494
  -OEChem-06261202533D

 19 19  0     0  0  0  0  0  0999 V2000
   -2.4615   -1.8793   -0.0002 O   0  0  0  0  0  0  0  0  0  0  0  0
    3.5456    0.0508   -0.0017 O   0  5  0  0  0  0  0  0  0  0  0  0
    2.4553   -1.8546    0.0006 O   0  0  0  0  0  0  0  0  0  0  0  0
    2.4727   -0.6000   -0.0004 N   0  3  0  0  0  0  0  0  0  0  0  0
   -1.1758    0.0982    0.0011 C   0  0  0  0  0  0  0  0  0  0  0  0
    0.0343   -0.5958    0.0010 C   0  0  0  0  0  0  0  0  0  0  0  0
    1.2402    0.1054    0.0005 C   0  0  0  0  0  0  0  0  0  0  0  0
   -1.1799    1.4931    0.0006 C   0  0  0  0  0  0  0  0  0  0  0  0
    1.2359    1.5003    0.0000 C   0  0  0  0  0  0  0  0  0  0  0  0
    0.0259    2.1942    0.0001 C   0  0  0  0  0  0  0  0  0  0  0  0
   -2.4332   -0.6324    0.0000 C   0  0  0  0  0  0  0  0  0  0  0  0
   -3.7595    0.1202   -0.0017 C   0  0  0  0  0  0  0  0  0  0  0  0
    0.0254   -1.6833    0.0010 H   0  0  0  0  0  0  0  0  0  0  0  0
   -2.0981    2.0722    0.0004 H   0  0  0  0  0  0  0  0  0  0  0  0
    2.1556    2.0798   -0.0006 H   0  0  0  0  0  0  0  0  0  0  0  0
    0.0228    3.2803   -0.0004 H   0  0  0  0  0  0  0  0  0  0  0  0
   -3.8468    0.7308   -0.9040 H   0  0  0  0  0  0  0  0  0  0  0  0
   -3.8487    0.7312    0.9003 H   0  0  0  0  0  0  0  0  0  0  0  0
   -4.5812   -0.6031   -0.0024 H   0  0  0  0  0  0  0  0  0  0  0  0
  1 11  2  0  0  0  0
  2  4  1  0  0  0  0
  3  4  2  0  0  0  0
  4  7  1  0  0  0  0
  5  6  2  0  0  0  0
  5  8  1  0  0  0  0
  5 11  1  0  0  0  0
  6  7  1  0  0  0  0
  6 13  1  0  0  0  0
  7  9  2  0  0  0  0
  8 10  2  0  0  0  0
  8 14  1  0  0  0  0
  9 10  1  0  0  0  0
  9 15  1  0  0  0  0
 10 16  1  0  0  0  0
 11 12  1  0  0  0  0
 12 17  1  0  0  0  0
 12 18  1  0  0  0  0
 12 19  1  0  0  0  0
M  CHG  2   2  -1   4   1
M  END
> <PUBCHEM_COMPOUND_CID>
8494

> <PUBCHEM_CONFORMER_RMSD>
0.6

> <PUBCHEM_CONFORMER_DIVERSEORDER>
1
3
2
4

> <PUBCHEM_MMFF94_PARTIAL_CHARGES>
16
1 -0.57
10 -0.15
11 0.42
12 0.06
13 0.15
14 0.15
15 0.15
16 0.15
2 -0.52
3 -0.52
4 0.91
5 0.09
6 -0.15
7 0.13
8 -0.15
9 -0.15

> <PUBCHEM_EFFECTIVE_ROTOR_COUNT>
2

> <PUBCHEM_PHARMACOPHORE_FEATURES>
5
1 1 acceptor
1 2 acceptor
1 2 anion
1 3 acceptor
6 5 6 7 8 9 10 rings

> <PUBCHEM_HEAVY_ATOM_COUNT>
12

> <PUBCHEM_ATOM_DEF_STEREO_COUNT>
0

> <PUBCHEM_ATOM_UDEF_STEREO_COUNT>
0

> <PUBCHEM_BOND_DEF_STEREO_COUNT>
0

> <PUBCHEM_BOND_UDEF_STEREO_COUNT>
0

> <PUBCHEM_ISOTOPIC_ATOM_COUNT>
0

> <PUBCHEM_COMPONENT_COUNT>
1

> <PUBCHEM_CACTVS_TAUTO_COUNT>
2

> <PUBCHEM_CONFORMER_ID>
0000212E00000001

> <PUBCHEM_MMFF94_ENERGY>
35.4847

> <PUBCHEM_FEATURE_SELFOVERLAP>
25.453

> <PUBCHEM_SHAPE_FINGERPRINT>
10130415 120 18412263939161292665
12032990 46 18411975880005050299
12932764 1 17274558541769650819
14128692 85 18411133597926034428
16945 1 18410855460223367169
17990270 104 18196656194270536011
20201158 50 18412827975472563755
20281407 28 18409445890579662906
20645477 70 18196097638528224559
20711985 365 18196092380865242246
20871998 184 18115311218591211876
20871998 22 18334565875973749726
21501502 16 18195524797053474269
21501925 9 18264780860959423659
23463225 33 18410290336968800559
23552423 10 18270116782346597677
23559900 14 18337679736681322810
2748010 2 18195247719827947061
3312278 4 18412540998600451531
7364860 26 18191305966184333777
81228 2 18268421524163370480
8809292 202 18272929384493172755

> <PUBCHEM_SHAPE_MULTIPOLES>
224.37
4.98
1.98
0.58
0.47
0.32
0
-1.88
0
-0.18
0
0.05
0.04
0

> <PUBCHEM_SHAPE_SELFOVERLAP>
470.012

> <PUBCHEM_SHAPE_VOLUME>
127.8

> <PUBCHEM_COORDINATE_TYPE>
2
5
10

$$$$

