17396572
  -OEChem-06241222572D

 53 55  0     1  0  0  0  0  0999 V2000
   11.5263   -0.7073    0.0000 O   0  0  0  0  0  0  0  0  0  0  0  0
   11.5263    1.2927    0.0000 O   0  0  0  0  0  0  0  0  0  0  0  0
    5.4641    0.7927    0.0000 O   0  0  0  0  0  0  0  0  0  0  0  0
    7.1962    0.7927    0.0000 O   0  0  0  0  0  0  0  0  0  0  0  0
    4.5981   -0.7073    0.0000 N   0  0  0  0  0  0  0  0  0  0  0  0
    8.9282   -0.2073    0.0000 N   0  0  3  0  0  0  0  0  0  0  0  0
    6.3301   -0.7073    0.0000 N   0  0  0  0  0  0  0  0  0  0  0  0
    3.7320   -0.2073    0.0000 C   0  0  0  0  0  0  0  0  0  0  0  0
    3.7320    0.7927    0.0000 C   0  0  0  0  0  0  0  0  0  0  0  0
    2.8660   -0.7073    0.0000 C   0  0  0  0  0  0  0  0  0  0  0  0
    2.8660    1.2927    0.0000 C   0  0  0  0  0  0  0  0  0  0  0  0
    2.0000   -0.2073    0.0000 C   0  0  0  0  0  0  0  0  0  0  0  0
    2.0000    0.7927    0.0000 C   0  0  0  0  0  0  0  0  0  0  0  0
   10.6603   -0.2073    0.0000 C   0  0  3  0  0  0  0  0  0  0  0  0
    5.4641   -0.2073    0.0000 C   0  0  0  0  0  0  0  0  0  0  0  0
    9.7942   -0.7073    0.0000 C   0  0  0  0  0  0  0  0  0  0  0  0
   10.6603    0.7927    0.0000 C   0  0  0  0  0  0  0  0  0  0  0  0
    8.0622   -0.7073    0.0000 C   0  0  0  0  0  0  0  0  0  0  0  0
    7.1962   -0.2073    0.0000 C   0  0  0  0  0  0  0  0  0  0  0  0
   12.3923   -0.2073    0.0000 C   0  0  0  0  0  0  0  0  0  0  0  0
    8.9282    0.7927    0.0000 C   0  0  0  0  0  0  0  0  0  0  0  0
   12.3923    0.7927    0.0000 C   0  0  0  0  0  0  0  0  0  0  0  0
   13.2862   -0.7420    0.0000 C   0  0  0  0  0  0  0  0  0  0  0  0
   13.2862    1.3273    0.0000 C   0  0  0  0  0  0  0  0  0  0  0  0
   14.1923   -0.2281    0.0000 C   0  0  0  0  0  0  0  0  0  0  0  0
   14.1923    0.8135    0.0000 C   0  0  0  0  0  0  0  0  0  0  0  0
    3.7320   -0.8273    0.0000 H   0  0  0  0  0  0  0  0  0  0  0  0
    2.4675   -1.1823    0.0000 H   0  0  0  0  0  0  0  0  0  0  0  0
    3.2646   -1.1823    0.0000 H   0  0  0  0  0  0  0  0  0  0  0  0
    4.3426    0.6850    0.0000 H   0  0  0  0  0  0  0  0  0  0  0  0
    3.9441    1.3753    0.0000 H   0  0  0  0  0  0  0  0  0  0  0  0
    3.2646    1.7676    0.0000 H   0  0  0  0  0  0  0  0  0  0  0  0
    2.4675    1.7676    0.0000 H   0  0  0  0  0  0  0  0  0  0  0  0
    1.3894   -0.0997    0.0000 H   0  0  0  0  0  0  0  0  0  0  0  0
    1.7880   -0.7899    0.0000 H   0  0  0  0  0  0  0  0  0  0  0  0
    1.7880    1.3753    0.0000 H   0  0  0  0  0  0  0  0  0  0  0  0
    1.3894    0.6850    0.0000 H   0  0  0  0  0  0  0  0  0  0  0  0
    4.5981   -1.3273    0.0000 H   0  0  0  0  0  0  0  0  0  0  0  0
   10.6603   -0.8273    0.0000 H   0  0  0  0  0  0  0  0  0  0  0  0
    9.3957   -1.1823    0.0000 H   0  0  0  0  0  0  0  0  0  0  0  0
   10.1928   -1.1823    0.0000 H   0  0  0  0  0  0  0  0  0  0  0  0
   10.4482    1.3753    0.0000 H   0  0  0  0  0  0  0  0  0  0  0  0
   10.0497    0.6850    0.0000 H   0  0  0  0  0  0  0  0  0  0  0  0
    7.6636   -1.1823    0.0000 H   0  0  0  0  0  0  0  0  0  0  0  0
    8.4607   -1.1823    0.0000 H   0  0  0  0  0  0  0  0  0  0  0  0
    6.3301   -1.3273    0.0000 H   0  0  0  0  0  0  0  0  0  0  0  0
    9.5482    0.7927    0.0000 H   0  0  0  0  0  0  0  0  0  0  0  0
    8.9282    1.4127    0.0000 H   0  0  0  0  0  0  0  0  0  0  0  0
    8.3082    0.7927    0.0000 H   0  0  0  0  0  0  0  0  0  0  0  0
   13.2791   -1.3620    0.0000 H   0  0  0  0  0  0  0  0  0  0  0  0
   13.2791    1.9473    0.0000 H   0  0  0  0  0  0  0  0  0  0  0  0
   14.7281   -0.5402    0.0000 H   0  0  0  0  0  0  0  0  0  0  0  0
   14.7281    1.1256    0.0000 H   0  0  0  0  0  0  0  0  0  0  0  0
  1 14  1  0  0  0  0
  1 20  1  0  0  0  0
  2 17  1  0  0  0  0
  2 22  1  0  0  0  0
  3 15  2  0  0  0  0
  4 19  2  0  0  0  0
  5  8  1  0  0  0  0
  5 15  1  0  0  0  0
  5 38  1  0  0  0  0
  6 16  1  0  0  0  0
  6 18  1  0  0  0  0
  6 21  1  0  0  0  0
  7 15  1  0  0  0  0
  7 19  1  0  0  0  0
  7 46  1  0  0  0  0
  8  9  1  0  0  0  0
  8 10  1  0  0  0  0
  8 27  1  0  0  0  0
  9 11  1  0  0  0  0
  9 30  1  0  0  0  0
  9 31  1  0  0  0  0
 10 12  1  0  0  0  0
 10 28  1  0  0  0  0
 10 29  1  0  0  0  0
 11 13  1  0  0  0  0
 11 32  1  0  0  0  0
 11 33  1  0  0  0  0
 12 13  1  0  0  0  0
 12 34  1  0  0  0  0
 12 35  1  0  0  0  0
 13 36  1  0  0  0  0
 13 37  1  0  0  0  0
 14 16  1  0  0  0  0
 14 17  1  0  0  0  0
 14 39  1  0  0  0  0
 16 40  1  0  0  0  0
 16 41  1  0  0  0  0
 17 42  1  0  0  0  0
 17 43  1  0  0  0  0
 18 19  1  0  0  0  0
 18 44  1  0  0  0  0
 18 45  1  0  0  0  0
 20 22  1  0  0  0  0
 20 23  2  0  0  0  0
 21 47  1  0  0  0  0
 21 48  1  0  0  0  0
 21 49  1  0  0  0  0
 22 24  2  0  0  0  0
 23 25  1  0  0  0  0
 23 50  1  0  0  0  0
 24 26  1  0  0  0  0
 24 51  1  0  0  0  0
 25 26  2  0  0  0  0
 25 52  1  0  0  0  0
 26 53  1  0  0  0  0
M  END
> <PUBCHEM_COMPOUND_CID>
17396572

> <PUBCHEM_COMPOUND_CANONICALIZED>
1

> <PUBCHEM_CACTVS_COMPLEXITY>
481

> <PUBCHEM_CACTVS_HBOND_ACCEPTOR>
5

> <PUBCHEM_CACTVS_HBOND_DONOR>
2

> <PUBCHEM_CACTVS_ROTATABLE_BOND>
5

> <PUBCHEM_CACTVS_SUBSKEYS>
AAADceB7OAAAAAAAAAAAAAAAAAAAAAAAAAA0YIAAAAAAAACRAAAAHgAQAAAACDzhkAYzBoPABACIACFSEAACCAAgIAAIiICOiIiPZiKEsTqXOCKu1zOaqAeQQAAAAAAAAAAAQAAAAAAAAACAAAAAAAAAAA==

> <PUBCHEM_IUPAC_OPENEYE_NAME>
N-(cyclohexylcarbamoyl)-2-[2,3-dihydro-1,4-benzodioxin-3-ylmethyl(methyl)amino]acetamide

> <PUBCHEM_IUPAC_CAS_NAME>
N-[(cyclohexylamino)-oxomethyl]-2-[2,3-dihydro-1,4-benzodioxin-3-ylmethyl(methyl)amino]acetamide

> <PUBCHEM_IUPAC_NAME>
N-(cyclohexylcarbamoyl)-2-[2,3-dihydro-1,4-benzodioxin-3-ylmethyl(methyl)amino]acetamide

> <PUBCHEM_IUPAC_SYSTEMATIC_NAME>
N-(cyclohexylcarbamoyl)-2-[2,3-dihydro-1,4-benzodioxin-3-ylmethyl(methyl)amino]ethanamide

> <PUBCHEM_IUPAC_TRADITIONAL_NAME>
N-(cyclohexylcarbamoyl)-2-[2,3-dihydro-1,4-benzodioxin-3-ylmethyl(methyl)amino]acetamide

> <PUBCHEM_IUPAC_INCHI>
InChI=1S/C19H27N3O4/c1-22(11-15-13-25-16-9-5-6-10-17(16)26-15)12-18(23)21-19(24)20-14-7-3-2-4-8-14/h5-6,9-10,14-15H,2-4,7-8,11-13H2,1H3,(H2,20,21,23,24)

> <PUBCHEM_IUPAC_INCHIKEY>
PEVXCPGSHYZLGS-UHFFFAOYSA-N

> <PUBCHEM_XLOGP3_AA>
3.1

> <PUBCHEM_EXACT_MASS>
361.200156

> <PUBCHEM_MOLECULAR_FORMULA>
C19H27N3O4

> <PUBCHEM_MOLECULAR_WEIGHT>
361.43538

> <PUBCHEM_OPENEYE_CAN_SMILES>
CN(CC1COC2=CC=CC=C2O1)CC(=O)NC(=O)NC3CCCCC3

> <PUBCHEM_OPENEYE_ISO_SMILES>
CN(CC1COC2=CC=CC=C2O1)CC(=O)NC(=O)NC3CCCCC3

> <PUBCHEM_CACTVS_TPSA>
79.9

> <PUBCHEM_MONOISOTOPIC_WEIGHT>
361.200156

> <PUBCHEM_TOTAL_CHARGE>
0

> <PUBCHEM_HEAVY_ATOM_COUNT>
26

> <PUBCHEM_ATOM_DEF_STEREO_COUNT>
0

> <PUBCHEM_ATOM_UDEF_STEREO_COUNT>
1

> <PUBCHEM_BOND_DEF_STEREO_COUNT>
0

> <PUBCHEM_BOND_UDEF_STEREO_COUNT>
0

> <PUBCHEM_ISOTOPIC_ATOM_COUNT>
0

> <PUBCHEM_COMPONENT_COUNT>
1

> <PUBCHEM_CACTVS_TAUTO_COUNT>
5

> <PUBCHEM_COORDINATE_TYPE>
1
5
255

> <PUBCHEM_BONDANNOTATIONS>
14  16  3
20  22  8
20  23  8
22  24  8
23  25  8
24  26  8
25  26  8

$$$$

