586244
  -OEChem-06241222463D

 21 21  0     0  0  0  0  0  0999 V2000
    0.8669   -2.4226    0.0027 O   0  0  0  0  0  0  0  0  0  0  0  0
    1.1197   -0.0929   -0.0008 N   0  0  0  0  0  0  0  0  0  0  0  0
    0.4934    1.1590    0.0002 C   0  0  0  0  0  0  0  0  0  0  0  0
   -1.6719    0.0559   -0.0005 C   0  0  0  0  0  0  0  0  0  0  0  0
   -0.8483    1.2416    0.0003 C   0  0  0  0  0  0  0  0  0  0  0  0
    0.3851   -1.2898    0.0001 C   0  0  0  0  0  0  0  0  0  0  0  0
   -1.0993   -1.1548   -0.0007 C   0  0  0  0  0  0  0  0  0  0  0  0
    1.3309    2.4076    0.0020 C   0  0  0  0  0  0  0  0  0  0  0  0
    2.5799   -0.1560   -0.0028 C   0  0  0  0  0  0  0  0  0  0  0  0
   -3.1565    0.2520   -0.0005 C   0  0  0  0  0  0  0  0  0  0  0  0
   -1.3489    2.2053    0.0013 H   0  0  0  0  0  0  0  0  0  0  0  0
   -1.6833   -2.0687   -0.0009 H   0  0  0  0  0  0  0  0  0  0  0  0
    1.9645    2.4524    0.8936 H   0  0  0  0  0  0  0  0  0  0  0  0
    0.7132    3.3129    0.0035 H   0  0  0  0  0  0  0  0  0  0  0  0
    1.9641    2.4551   -0.8898 H   0  0  0  0  0  0  0  0  0  0  0  0
    2.9665    0.3335   -0.9016 H   0  0  0  0  0  0  0  0  0  0  0  0
    2.9311   -1.1919   -0.0048 H   0  0  0  0  0  0  0  0  0  0  0  0
    2.9688    0.3310    0.8964 H   0  0  0  0  0  0  0  0  0  0  0  0
   -3.4718    0.8088    0.8886 H   0  0  0  0  0  0  0  0  0  0  0  0
   -3.6943   -0.7023   -0.0009 H   0  0  0  0  0  0  0  0  0  0  0  0
   -3.4718    0.8095   -0.8892 H   0  0  0  0  0  0  0  0  0  0  0  0
  1  6  2  0  0  0  0
  2  3  1  0  0  0  0
  2  6  1  0  0  0  0
  2  9  1  0  0  0  0
  3  5  2  0  0  0  0
  3  8  1  0  0  0  0
  4  5  1  0  0  0  0
  4  7  2  0  0  0  0
  4 10  1  0  0  0  0
  5 11  1  0  0  0  0
  6  7  1  0  0  0  0
  7 12  1  0  0  0  0
  8 13  1  0  0  0  0
  8 14  1  0  0  0  0
  8 15  1  0  0  0  0
  9 16  1  0  0  0  0
  9 17  1  0  0  0  0
  9 18  1  0  0  0  0
 10 19  1  0  0  0  0
 10 20  1  0  0  0  0
 10 21  1  0  0  0  0
M  END
> <PUBCHEM_COMPOUND_CID>
586244

> <PUBCHEM_CONFORMER_RMSD>
0.4

> <PUBCHEM_CONFORMER_DIVERSEORDER>
1

> <PUBCHEM_MMFF94_PARTIAL_CHARGES>
12
1 -0.57
10 0.14
11 0.15
12 0.15
2 -0.47
3 -0.03
4 -0.14
5 -0.15
6 0.62
7 -0.14
8 0.14
9 0.3

> <PUBCHEM_EFFECTIVE_ROTOR_COUNT>
0

> <PUBCHEM_PHARMACOPHORE_FEATURES>
2
1 1 acceptor
6 2 3 4 5 6 7 rings

> <PUBCHEM_HEAVY_ATOM_COUNT>
10

> <PUBCHEM_ATOM_DEF_STEREO_COUNT>
0

> <PUBCHEM_ATOM_UDEF_STEREO_COUNT>
0

> <PUBCHEM_BOND_DEF_STEREO_COUNT>
0

> <PUBCHEM_BOND_UDEF_STEREO_COUNT>
0

> <PUBCHEM_ISOTOPIC_ATOM_COUNT>
0

> <PUBCHEM_COMPONENT_COUNT>
1

> <PUBCHEM_CACTVS_TAUTO_COUNT>
1

> <PUBCHEM_CONFORMER_ID>
0008F20400000001

> <PUBCHEM_MMFF94_ENERGY>
22.4626

> <PUBCHEM_FEATURE_SELFOVERLAP>
10.148

> <PUBCHEM_SHAPE_FINGERPRINT>
16945 1 18410575106354232197
18185500 45 18337110184556104455
193761 8 17834394523325832358
21040471 1 18050567335362202785
23402655 69 18193857048906243021
23552423 10 18197783202025739813
241688 4 17834392706412196257
2748010 2 18195806258791887661
29004967 10 18341888649347870603
5084963 1 18114180787493819745

> <PUBCHEM_SHAPE_MULTIPOLES>
194.94
3.24
2.27
0.6
1.31
0.16
0
-0.52
0
-1.03
0
0.02
-0.03
0

> <PUBCHEM_SHAPE_SELFOVERLAP>
396.236

> <PUBCHEM_SHAPE_VOLUME>
115.5

> <PUBCHEM_COORDINATE_TYPE>
2
5
10

$$$$

