13890
  -OEChem-06241222402D

 27 27  0     0  0  0  0  0  0999 V2000
    3.8660    2.5950    0.0000 O   0  0  0  0  0  0  0  0  0  0  0  0
    4.7320    1.0950    0.0000 O   0  0  0  0  0  0  0  0  0  0  0  0
    3.0000    0.0950    0.0000 C   0  0  0  0  0  0  0  0  0  0  0  0
    3.0000    1.0950    0.0000 C   0  0  0  0  0  0  0  0  0  0  0  0
    3.0000   -0.9050    0.0000 C   0  0  0  0  0  0  0  0  0  0  0  0
    4.0000    0.0950    0.0000 C   0  0  0  0  0  0  0  0  0  0  0  0
    2.0000    0.0950    0.0000 C   0  0  0  0  0  0  0  0  0  0  0  0
    2.1340   -1.4050    0.0000 C   0  0  0  0  0  0  0  0  0  0  0  0
    3.8660   -1.4050    0.0000 C   0  0  0  0  0  0  0  0  0  0  0  0
    3.8660    1.5950    0.0000 C   0  0  0  0  0  0  0  0  0  0  0  0
    2.1340   -2.4050    0.0000 C   0  0  0  0  0  0  0  0  0  0  0  0
    3.8660   -2.4050    0.0000 C   0  0  0  0  0  0  0  0  0  0  0  0
    3.0000   -2.9050    0.0000 C   0  0  0  0  0  0  0  0  0  0  0  0
    2.7880    1.6776    0.0000 H   0  0  0  0  0  0  0  0  0  0  0  0
    2.3894    0.9873    0.0000 H   0  0  0  0  0  0  0  0  0  0  0  0
    4.0000   -0.5250    0.0000 H   0  0  0  0  0  0  0  0  0  0  0  0
    4.6200    0.0950    0.0000 H   0  0  0  0  0  0  0  0  0  0  0  0
    4.0000    0.7150    0.0000 H   0  0  0  0  0  0  0  0  0  0  0  0
    2.0000    0.7150    0.0000 H   0  0  0  0  0  0  0  0  0  0  0  0
    1.3800    0.0950    0.0000 H   0  0  0  0  0  0  0  0  0  0  0  0
    2.0000   -0.5250    0.0000 H   0  0  0  0  0  0  0  0  0  0  0  0
    1.5970   -1.0950    0.0000 H   0  0  0  0  0  0  0  0  0  0  0  0
    4.4030   -1.0950    0.0000 H   0  0  0  0  0  0  0  0  0  0  0  0
    1.5970   -2.7150    0.0000 H   0  0  0  0  0  0  0  0  0  0  0  0
    4.4030   -2.7150    0.0000 H   0  0  0  0  0  0  0  0  0  0  0  0
    3.0000   -3.5250    0.0000 H   0  0  0  0  0  0  0  0  0  0  0  0
    4.4030    2.9050    0.0000 H   0  0  0  0  0  0  0  0  0  0  0  0
  1 10  1  0  0  0  0
  1 27  1  0  0  0  0
  2 10  2  0  0  0  0
  3  4  1  0  0  0  0
  3  5  1  0  0  0  0
  3  6  1  0  0  0  0
  3  7  1  0  0  0  0
  4 10  1  0  0  0  0
  4 14  1  0  0  0  0
  4 15  1  0  0  0  0
  5  8  2  0  0  0  0
  5  9  1  0  0  0  0
  6 16  1  0  0  0  0
  6 17  1  0  0  0  0
  6 18  1  0  0  0  0
  7 19  1  0  0  0  0
  7 20  1  0  0  0  0
  7 21  1  0  0  0  0
  8 11  1  0  0  0  0
  8 22  1  0  0  0  0
  9 12  2  0  0  0  0
  9 23  1  0  0  0  0
 11 13  2  0  0  0  0
 11 24  1  0  0  0  0
 12 13  1  0  0  0  0
 12 25  1  0  0  0  0
 13 26  1  0  0  0  0
M  END
> <PUBCHEM_COMPOUND_CID>
13890

> <PUBCHEM_COMPOUND_CANONICALIZED>
1

> <PUBCHEM_CACTVS_COMPLEXITY>
179

> <PUBCHEM_CACTVS_HBOND_ACCEPTOR>
2

> <PUBCHEM_CACTVS_HBOND_DONOR>
1

> <PUBCHEM_CACTVS_ROTATABLE_BOND>
3

> <PUBCHEM_CACTVS_SUBSKEYS>
AAADccBwMAAAAAAAAAAAAAAAAAAAAAAAAAAwAAAAAAAAAAABAAAAGgAACAAADgCAmAAyCIAAAgCIAiDSCAACAAAgAAAIiAEAAIgIIDKAERCAYAAkgAAIiAeIyOCPgAAAAAAAAAAAAAAAAAAAAAAAAAAAAA==

> <PUBCHEM_IUPAC_OPENEYE_NAME>
3-methyl-3-phenyl-butanoic acid

> <PUBCHEM_IUPAC_CAS_NAME>
3-methyl-3-phenylbutanoic acid

> <PUBCHEM_IUPAC_NAME>
3-methyl-3-phenylbutanoic acid

> <PUBCHEM_IUPAC_SYSTEMATIC_NAME>
3-methyl-3-phenyl-butanoic acid

> <PUBCHEM_IUPAC_TRADITIONAL_NAME>
3-methyl-3-phenyl-butyric acid

> <PUBCHEM_IUPAC_INCHI>
InChI=1S/C11H14O2/c1-11(2,8-10(12)13)9-6-4-3-5-7-9/h3-7H,8H2,1-2H3,(H,12,13)

> <PUBCHEM_IUPAC_INCHIKEY>
JTZZMXVIHNHASS-UHFFFAOYSA-N

> <PUBCHEM_XLOGP3_AA>
2.6

> <PUBCHEM_EXACT_MASS>
178.09938

> <PUBCHEM_MOLECULAR_FORMULA>
C11H14O2

> <PUBCHEM_MOLECULAR_WEIGHT>
178.22766

> <PUBCHEM_OPENEYE_CAN_SMILES>
CC(C)(CC(=O)O)C1=CC=CC=C1

> <PUBCHEM_OPENEYE_ISO_SMILES>
CC(C)(CC(=O)O)C1=CC=CC=C1

> <PUBCHEM_CACTVS_TPSA>
37.3

> <PUBCHEM_MONOISOTOPIC_WEIGHT>
178.09938

> <PUBCHEM_TOTAL_CHARGE>
0

> <PUBCHEM_HEAVY_ATOM_COUNT>
13

> <PUBCHEM_ATOM_DEF_STEREO_COUNT>
0

> <PUBCHEM_ATOM_UDEF_STEREO_COUNT>
0

> <PUBCHEM_BOND_DEF_STEREO_COUNT>
0

> <PUBCHEM_BOND_UDEF_STEREO_COUNT>
0

> <PUBCHEM_ISOTOPIC_ATOM_COUNT>
0

> <PUBCHEM_COMPONENT_COUNT>
1

> <PUBCHEM_CACTVS_TAUTO_COUNT>
1

> <PUBCHEM_COORDINATE_TYPE>
1
5
255

> <PUBCHEM_BONDANNOTATIONS>
11  13  8
12  13  8
5  8  8
5  9  8
8  11  8
9  12  8

$$$$

