9789
  -OEChem-06261204042D

 10  9  0     0  0  0  0  0  0999 V2000
    2.0000   -0.8170    0.0000 F   0  0  0  0  0  0  0  0  0  0  0  0
    2.3660    0.5490    0.0000 F   0  0  0  0  0  0  0  0  0  0  0  0
    3.3660   -1.1830    0.0000 F   0  0  0  0  0  0  0  0  0  0  0  0
    5.4641   -0.8170    0.0000 N   0  0  0  0  0  0  0  0  0  0  0  0
    2.8660   -0.3170    0.0000 C   0  0  0  0  0  0  0  0  0  0  0  0
    3.7320    0.1830    0.0000 C   0  0  0  0  0  0  0  0  0  0  0  0
    3.7320    1.1830    0.0000 C   0  0  0  0  0  0  0  0  0  0  0  0
    4.5981   -0.3170    0.0000 C   0  0  0  0  0  0  0  0  0  0  0  0
    4.2690    1.4930    0.0000 H   0  0  0  0  0  0  0  0  0  0  0  0
    3.1951    1.4930    0.0000 H   0  0  0  0  0  0  0  0  0  0  0  0
  1  5  1  0  0  0  0
  2  5  1  0  0  0  0
  3  5  1  0  0  0  0
  4  8  3  0  0  0  0
  5  6  1  0  0  0  0
  6  7  2  0  0  0  0
  6  8  1  0  0  0  0
  7  9  1  0  0  0  0
  7 10  1  0  0  0  0
M  END
> <PUBCHEM_COMPOUND_CID>
9789

> <PUBCHEM_COMPOUND_CANONICALIZED>
1

> <PUBCHEM_CACTVS_COMPLEXITY>
146

> <PUBCHEM_CACTVS_HBOND_ACCEPTOR>
4

> <PUBCHEM_CACTVS_HBOND_DONOR>
0

> <PUBCHEM_CACTVS_ROTATABLE_BOND>
0

> <PUBCHEM_CACTVS_SUBSKEYS>
AAADcQBiAYAAAAAAAAAAAAAAAAAAAAAAAAAAAAAAAAAAAAAAAAAAHQAAAAAADACBABAAAAAAAACQBgBCAAAgAAAAAAAAAAAAAAAAgAAAAAAAAAAAAAAAAAAAAAAAAAAAAAAAAAAAAAAAAAAAAAAAAAAAAA==

> <PUBCHEM_IUPAC_OPENEYE_NAME>
2-(trifluoromethyl)prop-2-enenitrile

> <PUBCHEM_IUPAC_CAS_NAME>
2-(trifluoromethyl)-2-propenenitrile

> <PUBCHEM_IUPAC_NAME>
2-(trifluoromethyl)prop-2-enenitrile

> <PUBCHEM_IUPAC_SYSTEMATIC_NAME>
2-(trifluoromethyl)prop-2-enenitrile

> <PUBCHEM_IUPAC_TRADITIONAL_NAME>
2-(trifluoromethyl)acrylonitrile

> <PUBCHEM_IUPAC_INCHI>
InChI=1S/C4H2F3N/c1-3(2-8)4(5,6)7/h1H2

> <PUBCHEM_IUPAC_INCHIKEY>
XHOYJCHWYPGFNS-UHFFFAOYSA-N

> <PUBCHEM_XLOGP3_AA>
1.5

> <PUBCHEM_EXACT_MASS>
121.013934

> <PUBCHEM_MOLECULAR_FORMULA>
C4H2F3N

> <PUBCHEM_MOLECULAR_WEIGHT>
121.06059

> <PUBCHEM_OPENEYE_CAN_SMILES>
C=C(C#N)C(F)(F)F

> <PUBCHEM_OPENEYE_ISO_SMILES>
C=C(C#N)C(F)(F)F

> <PUBCHEM_CACTVS_TPSA>
23.8

> <PUBCHEM_MONOISOTOPIC_WEIGHT>
121.013934

> <PUBCHEM_TOTAL_CHARGE>
0

> <PUBCHEM_HEAVY_ATOM_COUNT>
8

> <PUBCHEM_ATOM_DEF_STEREO_COUNT>
0

> <PUBCHEM_ATOM_UDEF_STEREO_COUNT>
0

> <PUBCHEM_BOND_DEF_STEREO_COUNT>
0

> <PUBCHEM_BOND_UDEF_STEREO_COUNT>
0

> <PUBCHEM_ISOTOPIC_ATOM_COUNT>
0

> <PUBCHEM_COMPONENT_COUNT>
1

> <PUBCHEM_CACTVS_TAUTO_COUNT>
1

> <PUBCHEM_COORDINATE_TYPE>
1
5
255

$$$$

