14183
  -OEChem-06241222422D

 69 68  0     0  0  0  0  0  0999 V2000
    8.3312    2.6200    0.0000 O   0  0  0  0  0  0  0  0  0  0  0  0
    0.5369    6.2026    0.0000 O   0  0  0  0  0  0  0  0  0  0  0  0
    1.4030    4.7026    0.0000 O   0  0  0  0  0  0  0  0  0  0  0  0
    8.3312    0.6200    0.0000 N   0  0  0  0  0  0  0  0  0  0  0  0
   12.6613    6.2026    0.0000 C   0  0  0  0  0  0  0  0  0  0  0  0
   11.7953    5.7026    0.0000 C   0  0  0  0  0  0  0  0  0  0  0  0
   13.5273    5.7026    0.0000 C   0  0  0  0  0  0  0  0  0  0  0  0
    5.7331    6.2026    0.0000 C   0  0  0  0  0  0  0  0  0  0  0  0
   10.9292    6.2026    0.0000 C   0  0  0  0  0  0  0  0  0  0  0  0
    4.8671    5.7026    0.0000 C   0  0  0  0  0  0  0  0  0  0  0  0
    6.5991    5.7026    0.0000 C   0  0  0  0  0  0  0  0  0  0  0  0
    4.0010    6.2026    0.0000 C   0  0  0  0  0  0  0  0  0  0  0  0
   14.3933    6.2026    0.0000 C   0  0  0  0  0  0  0  0  0  0  0  0
   10.0632    5.7026    0.0000 C   0  0  0  0  0  0  0  0  0  0  0  0
    7.4651    6.2026    0.0000 C   0  0  0  0  0  0  0  0  0  0  0  0
    3.1350    5.7026    0.0000 C   0  0  0  0  0  0  0  0  0  0  0  0
   15.2594    5.7026    0.0000 C   0  0  0  0  0  0  0  0  0  0  0  0
    9.1972    6.2026    0.0000 C   0  0  0  0  0  0  0  0  0  0  0  0
    8.3312    5.7026    0.0000 C   0  0  0  0  0  0  0  0  0  0  0  0
    2.2690    6.2026    0.0000 C   0  0  0  0  0  0  0  0  0  0  0  0
   16.1254    6.2026    0.0000 C   0  0  0  0  0  0  0  0  0  0  0  0
    1.4030    5.7026    0.0000 C   0  0  0  0  0  0  0  0  0  0  0  0
    9.1972    1.1200    0.0000 C   0  0  0  0  0  0  0  0  0  0  0  0
    7.4651    1.1200    0.0000 C   0  0  0  0  0  0  0  0  0  0  0  0
    9.1972    2.1200    0.0000 C   0  0  0  0  0  0  0  0  0  0  0  0
    7.4651    2.1200    0.0000 C   0  0  0  0  0  0  0  0  0  0  0  0
   13.0598    6.6776    0.0000 H   0  0  0  0  0  0  0  0  0  0  0  0
   12.2628    6.6776    0.0000 H   0  0  0  0  0  0  0  0  0  0  0  0
   11.3967    5.2277    0.0000 H   0  0  0  0  0  0  0  0  0  0  0  0
   12.1938    5.2277    0.0000 H   0  0  0  0  0  0  0  0  0  0  0  0
   13.1288    5.2277    0.0000 H   0  0  0  0  0  0  0  0  0  0  0  0
   13.9258    5.2277    0.0000 H   0  0  0  0  0  0  0  0  0  0  0  0
    6.1316    6.6776    0.0000 H   0  0  0  0  0  0  0  0  0  0  0  0
    5.3346    6.6776    0.0000 H   0  0  0  0  0  0  0  0  0  0  0  0
   11.3278    6.6776    0.0000 H   0  0  0  0  0  0  0  0  0  0  0  0
   10.5307    6.6776    0.0000 H   0  0  0  0  0  0  0  0  0  0  0  0
    4.4685    5.2277    0.0000 H   0  0  0  0  0  0  0  0  0  0  0  0
    5.2656    5.2277    0.0000 H   0  0  0  0  0  0  0  0  0  0  0  0
    6.2006    5.2277    0.0000 H   0  0  0  0  0  0  0  0  0  0  0  0
    6.9976    5.2277    0.0000 H   0  0  0  0  0  0  0  0  0  0  0  0
    4.3996    6.6776    0.0000 H   0  0  0  0  0  0  0  0  0  0  0  0
    3.6025    6.6776    0.0000 H   0  0  0  0  0  0  0  0  0  0  0  0
   14.7919    6.6776    0.0000 H   0  0  0  0  0  0  0  0  0  0  0  0
   13.9948    6.6776    0.0000 H   0  0  0  0  0  0  0  0  0  0  0  0
    9.6647    5.2277    0.0000 H   0  0  0  0  0  0  0  0  0  0  0  0
   10.4617    5.2277    0.0000 H   0  0  0  0  0  0  0  0  0  0  0  0
    7.8637    6.6776    0.0000 H   0  0  0  0  0  0  0  0  0  0  0  0
    7.0666    6.6776    0.0000 H   0  0  0  0  0  0  0  0  0  0  0  0
    2.7365    5.2277    0.0000 H   0  0  0  0  0  0  0  0  0  0  0  0
    3.5335    5.2277    0.0000 H   0  0  0  0  0  0  0  0  0  0  0  0
   14.8608    5.2277    0.0000 H   0  0  0  0  0  0  0  0  0  0  0  0
   15.6579    5.2277    0.0000 H   0  0  0  0  0  0  0  0  0  0  0  0
    9.1972    6.8226    0.0000 H   0  0  0  0  0  0  0  0  0  0  0  0
    8.3312    5.0826    0.0000 H   0  0  0  0  0  0  0  0  0  0  0  0
    2.6675    6.6776    0.0000 H   0  0  0  0  0  0  0  0  0  0  0  0
    1.8705    6.6776    0.0000 H   0  0  0  0  0  0  0  0  0  0  0  0
   16.4354    5.6657    0.0000 H   0  0  0  0  0  0  0  0  0  0  0  0
   16.6623    6.5126    0.0000 H   0  0  0  0  0  0  0  0  0  0  0  0
   15.8154    6.7396    0.0000 H   0  0  0  0  0  0  0  0  0  0  0  0
    6.8546    1.2277    0.0000 H   0  0  0  0  0  0  0  0  0  0  0  0
    7.2531    0.5374    0.0000 H   0  0  0  0  0  0  0  0  0  0  0  0
    9.4092    0.5374    0.0000 H   0  0  0  0  0  0  0  0  0  0  0  0
    9.8078    1.2277    0.0000 H   0  0  0  0  0  0  0  0  0  0  0  0
    7.2531    2.7026    0.0000 H   0  0  0  0  0  0  0  0  0  0  0  0
    6.8546    2.0123    0.0000 H   0  0  0  0  0  0  0  0  0  0  0  0
    9.8078    2.0123    0.0000 H   0  0  0  0  0  0  0  0  0  0  0  0
    9.4092    2.7026    0.0000 H   0  0  0  0  0  0  0  0  0  0  0  0
    8.3312    0.0000    0.0000 H   0  0  0  0  0  0  0  0  0  0  0  0
    0.0000    5.8926    0.0000 H   0  0  0  0  0  0  0  0  0  0  0  0
  1 25  1  0  0  0  0
  1 26  1  0  0  0  0
  2 22  1  0  0  0  0
  2 69  1  0  0  0  0
  3 22  2  0  0  0  0
  4 23  1  0  0  0  0
  4 24  1  0  0  0  0
  4 68  1  0  0  0  0
  5  6  1  0  0  0  0
  5  7  1  0  0  0  0
  5 27  1  0  0  0  0
  5 28  1  0  0  0  0
  6  9  1  0  0  0  0
  6 29  1  0  0  0  0
  6 30  1  0  0  0  0
  7 13  1  0  0  0  0
  7 31  1  0  0  0  0
  7 32  1  0  0  0  0
  8 10  1  0  0  0  0
  8 11  1  0  0  0  0
  8 33  1  0  0  0  0
  8 34  1  0  0  0  0
  9 14  1  0  0  0  0
  9 35  1  0  0  0  0
  9 36  1  0  0  0  0
 10 12  1  0  0  0  0
 10 37  1  0  0  0  0
 10 38  1  0  0  0  0
 11 15  1  0  0  0  0
 11 39  1  0  0  0  0
 11 40  1  0  0  0  0
 12 16  1  0  0  0  0
 12 41  1  0  0  0  0
 12 42  1  0  0  0  0
 13 17  1  0  0  0  0
 13 43  1  0  0  0  0
 13 44  1  0  0  0  0
 14 18  1  0  0  0  0
 14 45  1  0  0  0  0
 14 46  1  0  0  0  0
 15 19  1  0  0  0  0
 15 47  1  0  0  0  0
 15 48  1  0  0  0  0
 16 20  1  0  0  0  0
 16 49  1  0  0  0  0
 16 50  1  0  0  0  0
 17 21  1  0  0  0  0
 17 51  1  0  0  0  0
 17 52  1  0  0  0  0
 18 19  2  3  0  0  0
 18 53  1  0  0  0  0
 19 54  1  0  0  0  0
 20 22  1  0  0  0  0
 20 55  1  0  0  0  0
 20 56  1  0  0  0  0
 21 57  1  0  0  0  0
 21 58  1  0  0  0  0
 21 59  1  0  0  0  0
 23 25  1  0  0  0  0
 23 62  1  0  0  0  0
 23 63  1  0  0  0  0
 24 26  1  0  0  0  0
 24 60  1  0  0  0  0
 24 61  1  0  0  0  0
 25 66  1  0  0  0  0
 25 67  1  0  0  0  0
 26 64  1  0  0  0  0
 26 65  1  0  0  0  0
M  END
> <PUBCHEM_COMPOUND_CID>
14183

> <PUBCHEM_COMPOUND_CANONICALIZED>
1

> <PUBCHEM_CACTVS_COMPLEXITY>
268

> <PUBCHEM_CACTVS_HBOND_ACCEPTOR>
4

> <PUBCHEM_CACTVS_HBOND_DONOR>
2

> <PUBCHEM_CACTVS_ROTATABLE_BOND>
15

> <PUBCHEM_CACTVS_SUBSKEYS>
AAADcfB6MAAAAAAAAAAAAAAAAAAAAAAAAAAsAAAAAAAAAAAAAAAAHgAQCAAACADhgAYCCALABgCIACDSCAAAAAAgAAAICIEIAAgCABIAAQADQAAEkACYAAOIyKCAAAAAAAAAAAAAAAAAAAAAAAAAAAAAAA==

> <PUBCHEM_IUPAC_OPENEYE_NAME>
morpholine; octadec-9-enoic acid

> <PUBCHEM_IUPAC_CAS_NAME>
morpholine; 9-octadecenoic acid

> <PUBCHEM_IUPAC_NAME>
morpholine; octadec-9-enoic acid

> <PUBCHEM_IUPAC_SYSTEMATIC_NAME>
morpholine; octadec-9-enoic acid

> <PUBCHEM_IUPAC_TRADITIONAL_NAME>
morpholine; octadec-9-enoic acid

> <PUBCHEM_IUPAC_INCHI>
InChI=1S/C18H34O2.C4H9NO/c1-2-3-4-5-6-7-8-9-10-11-12-13-14-15-16-17-18(19)20;1-3-6-4-2-5-1/h9-10H,2-8,11-17H2,1H3,(H,19,20);5H,1-4H2

> <PUBCHEM_IUPAC_INCHIKEY>
OBMBYGXRLQQDHH-UHFFFAOYSA-N

> <PUBCHEM_EXACT_MASS>
369.324294

> <PUBCHEM_MOLECULAR_FORMULA>
C22H43NO3

> <PUBCHEM_MOLECULAR_WEIGHT>
369.58172

> <PUBCHEM_OPENEYE_CAN_SMILES>
CCCCCCCCC=CCCCCCCCC(=O)O.C1COCCN1

> <PUBCHEM_OPENEYE_ISO_SMILES>
CCCCCCCCC=CCCCCCCCC(=O)O.C1COCCN1

> <PUBCHEM_CACTVS_TPSA>
58.6

> <PUBCHEM_MONOISOTOPIC_WEIGHT>
369.324294

> <PUBCHEM_TOTAL_CHARGE>
0

> <PUBCHEM_HEAVY_ATOM_COUNT>
26

> <PUBCHEM_ATOM_DEF_STEREO_COUNT>
0

> <PUBCHEM_ATOM_UDEF_STEREO_COUNT>
0

> <PUBCHEM_BOND_DEF_STEREO_COUNT>
0

> <PUBCHEM_BOND_UDEF_STEREO_COUNT>
1

> <PUBCHEM_ISOTOPIC_ATOM_COUNT>
0

> <PUBCHEM_COMPONENT_COUNT>
2

> <PUBCHEM_CACTVS_TAUTO_COUNT>
1

> <PUBCHEM_COORDINATE_TYPE>
1
5
255

> <PUBCHEM_BONDANNOTATIONS>
18  19  1

$$$$

