9876
  -OEChem-06261204092D

 12 11  0     1  0  0  0  0  0999 V2000
    3.2320    0.6160    0.0000 Cl  0  0  0  0  0  0  0  0  0  0  0  0
    4.2320   -1.1160    0.0000 F   0  0  0  0  0  0  0  0  0  0  0  0
    5.0981   -0.6160    0.0000 F   0  0  0  0  0  0  0  0  0  0  0  0
    4.0981    1.1160    0.0000 F   0  0  0  0  0  0  0  0  0  0  0  0
    2.0000   -0.2500    0.0000 O   0  5  0  0  0  0  0  0  0  0  0  0
    2.8660   -1.7500    0.0000 O   0  0  0  0  0  0  0  0  0  0  0  0
    6.3301    0.2500    0.0000 O   0  5  0  0  0  0  0  0  0  0  0  0
    5.4641    1.7500    0.0000 O   0  0  0  0  0  0  0  0  0  0  0  0
    2.8660   -0.7500    0.0000 N   0  3  0  0  0  0  0  0  0  0  0  0
    5.4641    0.7500    0.0000 N   0  3  0  0  0  0  0  0  0  0  0  0
    3.7320   -0.2500    0.0000 C   0  0  3  0  0  0  0  0  0  0  0  0
    4.5981    0.2500    0.0000 C   0  0  0  0  0  0  0  0  0  0  0  0
  1 11  1  0  0  0  0
  2 11  1  0  0  0  0
  3 12  1  0  0  0  0
  4 12  1  0  0  0  0
  5  9  1  0  0  0  0
  6  9  2  0  0  0  0
  7 10  1  0  0  0  0
  8 10  2  0  0  0  0
  9 11  1  0  0  0  0
 10 12  1  0  0  0  0
 11 12  1  0  0  0  0
M  CHG  4   5  -1   7  -1   9   1  10   1
M  END
> <PUBCHEM_COMPOUND_CID>
9876

> <PUBCHEM_COMPOUND_CANONICALIZED>
1

> <PUBCHEM_CACTVS_COMPLEXITY>
223

> <PUBCHEM_CACTVS_HBOND_ACCEPTOR>
7

> <PUBCHEM_CACTVS_HBOND_DONOR>
0

> <PUBCHEM_CACTVS_ROTATABLE_BOND>
1

> <PUBCHEM_CACTVS_SUBSKEYS>
AAADcQBDOYAEAAAAAAAAAAAAAAAAAAAAAAAAAAAAAAAAAAAAAAAADQIEAAAAAAIBABAAAAAQQAABAAAAAwAAAAAAAAAgAAAAAAAAQAAAAAAAAAAAAAAAAAAAAAAAAAAAAAAAAAAAAAAAAAAAAAAAAAAAAA==

> <PUBCHEM_IUPAC_OPENEYE_NAME>
1-chloro-1,2,2-trifluoro-1,2-dinitro-ethane

> <PUBCHEM_IUPAC_CAS_NAME>
1-chloro-1,2,2-trifluoro-1,2-dinitroethane

> <PUBCHEM_IUPAC_NAME>
1-chloro-1,2,2-trifluoro-1,2-dinitroethane

> <PUBCHEM_IUPAC_SYSTEMATIC_NAME>
1-chloranyl-1,2,2-tris(fluoranyl)-1,2-dinitro-ethane

> <PUBCHEM_IUPAC_TRADITIONAL_NAME>
1-chloro-1,2,2-trifluoro-1,2-dinitro-ethane

> <PUBCHEM_IUPAC_INCHI>
InChI=1S/C2ClF3N2O4/c3-1(4,7(9)10)2(5,6)8(11)12

> <PUBCHEM_IUPAC_INCHIKEY>
FFFYUJXEAAHXMA-UHFFFAOYSA-N

> <PUBCHEM_XLOGP3_AA>
1.6

> <PUBCHEM_EXACT_MASS>
207.949869

> <PUBCHEM_MOLECULAR_FORMULA>
C2ClF3N2O4

> <PUBCHEM_MOLECULAR_WEIGHT>
208.48061

> <PUBCHEM_OPENEYE_CAN_SMILES>
C(C([N+](=O)[O-])(F)Cl)([N+](=O)[O-])(F)F

> <PUBCHEM_OPENEYE_ISO_SMILES>
C(C([N+](=O)[O-])(F)Cl)([N+](=O)[O-])(F)F

> <PUBCHEM_CACTVS_TPSA>
91.6

> <PUBCHEM_MONOISOTOPIC_WEIGHT>
207.949869

> <PUBCHEM_TOTAL_CHARGE>
0

> <PUBCHEM_HEAVY_ATOM_COUNT>
12

> <PUBCHEM_ATOM_DEF_STEREO_COUNT>
0

> <PUBCHEM_ATOM_UDEF_STEREO_COUNT>
1

> <PUBCHEM_BOND_DEF_STEREO_COUNT>
0

> <PUBCHEM_BOND_UDEF_STEREO_COUNT>
0

> <PUBCHEM_ISOTOPIC_ATOM_COUNT>
0

> <PUBCHEM_COMPONENT_COUNT>
1

> <PUBCHEM_CACTVS_TAUTO_COUNT>
1

> <PUBCHEM_COORDINATE_TYPE>
1
5
255

> <PUBCHEM_BONDANNOTATIONS>
11  1  3

$$$$

