4052
  -OEChem-06251223502D

 36 38  0     1  0  0  0  0  0999 V2000
    7.1753   -1.9182    0.0000 S   0  0  0  0  0  0  0  0  0  0  0  0
    3.6636    1.1751    0.0000 S   0  0  0  0  0  0  0  0  0  0  0  0
    6.6753   -2.7842    0.0000 O   0  0  0  0  0  0  0  0  0  0  0  0
    7.6753   -2.7842    0.0000 O   0  0  0  0  0  0  0  0  0  0  0  0
    7.1753    1.0818    0.0000 O   0  0  0  0  0  0  0  0  0  0  0  0
    4.5772   -0.4182    0.0000 O   0  0  0  0  0  0  0  0  0  0  0  0
    6.3092   -1.4182    0.0000 N   0  0  3  0  0  0  0  0  0  0  0  0
    5.4432    1.0818    0.0000 N   0  0  0  0  0  0  0  0  0  0  0  0
    4.4727    2.5763    0.0000 N   0  0  0  0  0  0  0  0  0  0  0  0
    8.0413   -1.4182    0.0000 C   0  0  0  0  0  0  0  0  0  0  0  0
    8.0413   -0.4182    0.0000 C   0  0  0  0  0  0  0  0  0  0  0  0
    6.3092   -0.4182    0.0000 C   0  0  0  0  0  0  0  0  0  0  0  0
    7.1753    0.0818    0.0000 C   0  0  0  0  0  0  0  0  0  0  0  0
    8.9352   -1.9529    0.0000 C   0  0  0  0  0  0  0  0  0  0  0  0
    5.4432   -1.9182    0.0000 C   0  0  0  0  0  0  0  0  0  0  0  0
    8.9352    0.1165    0.0000 C   0  0  0  0  0  0  0  0  0  0  0  0
    5.4432    0.0818    0.0000 C   0  0  0  0  0  0  0  0  0  0  0  0
    9.8413   -1.4390    0.0000 C   0  0  0  0  0  0  0  0  0  0  0  0
    9.8413   -0.3974    0.0000 C   0  0  0  0  0  0  0  0  0  0  0  0
    4.5772    1.5818    0.0000 C   0  0  0  0  0  0  0  0  0  0  0  0
    2.9945    1.9182    0.0000 C   0  0  0  0  0  0  0  0  0  0  0  0
    3.4945    2.7842    0.0000 C   0  0  0  0  0  0  0  0  0  0  0  0
    2.0000    1.8137    0.0000 C   0  0  0  0  0  0  0  0  0  0  0  0
    8.9281   -2.5728    0.0000 H   0  0  0  0  0  0  0  0  0  0  0  0
    5.1332   -1.3813    0.0000 H   0  0  0  0  0  0  0  0  0  0  0  0
    4.9063   -2.2282    0.0000 H   0  0  0  0  0  0  0  0  0  0  0  0
    5.7532   -2.4551    0.0000 H   0  0  0  0  0  0  0  0  0  0  0  0
    8.9281    0.7364    0.0000 H   0  0  0  0  0  0  0  0  0  0  0  0
   10.3770   -1.7511    0.0000 H   0  0  0  0  0  0  0  0  0  0  0  0
   10.3770   -0.0853    0.0000 H   0  0  0  0  0  0  0  0  0  0  0  0
    5.9802    1.3918    0.0000 H   0  0  0  0  0  0  0  0  0  0  0  0
    4.0403   -0.1082    0.0000 H   0  0  0  0  0  0  0  0  0  0  0  0
    3.2424    3.3506    0.0000 H   0  0  0  0  0  0  0  0  0  0  0  0
    1.9352    2.4303    0.0000 H   0  0  0  0  0  0  0  0  0  0  0  0
    1.3834    1.7489    0.0000 H   0  0  0  0  0  0  0  0  0  0  0  0
    2.0648    1.1971    0.0000 H   0  0  0  0  0  0  0  0  0  0  0  0
  1  3  2  0  0  0  0
  1  4  2  0  0  0  0
  1  7  1  0  0  0  0
  1 10  1  0  0  0  0
  2 20  1  0  0  0  0
  2 21  1  0  0  0  0
  5 13  2  0  0  0  0
  6 17  1  0  0  0  0
  6 32  1  0  0  0  0
  7 12  1  0  0  0  0
  7 15  1  0  0  0  0
  8 17  1  0  0  0  0
  8 20  1  0  0  0  0
  8 31  1  0  0  0  0
  9 20  2  0  0  0  0
  9 22  1  0  0  0  0
 10 11  1  0  0  0  0
 10 14  2  0  0  0  0
 11 13  1  0  0  0  0
 11 16  2  0  0  0  0
 12 13  1  0  0  0  0
 12 17  2  3  0  0  0
 14 18  1  0  0  0  0
 14 24  1  0  0  0  0
 15 25  1  0  0  0  0
 15 26  1  0  0  0  0
 15 27  1  0  0  0  0
 16 19  1  0  0  0  0
 16 28  1  0  0  0  0
 18 19  2  0  0  0  0
 18 29  1  0  0  0  0
 19 30  1  0  0  0  0
 21 22  2  0  0  0  0
 21 23  1  0  0  0  0
 22 33  1  0  0  0  0
 23 34  1  0  0  0  0
 23 35  1  0  0  0  0
 23 36  1  0  0  0  0
M  END
> <PUBCHEM_COMPOUND_CID>
4052

> <PUBCHEM_COMPOUND_CANONICALIZED>
1

> <PUBCHEM_CACTVS_COMPLEXITY>
628

> <PUBCHEM_CACTVS_HBOND_ACCEPTOR>
8

> <PUBCHEM_CACTVS_HBOND_DONOR>
2

> <PUBCHEM_CACTVS_ROTATABLE_BOND>
2

> <PUBCHEM_CACTVS_SUBSKEYS>
AAADccBzOABgAAAAAAAAAAAAAAAAAWAAAAA8QAAAAAAAAACxwAAAHgQQSAAADAzB2gQ/kZLIEgqsArR3ZHBC8Ll1KDlJ2B2oQMmIIDLAlTGEIQAogAJIiecYiICOAAAAAAAEAAAAAAAAAAgAAAAAAAAAAA==

> <PUBCHEM_IUPAC_OPENEYE_NAME>
3-[hydroxy-[(5-methylthiazol-2-yl)amino]methylene]-2-methyl-1,1-dioxo-1$l^{6},2-benzothiazin-4-one

> <PUBCHEM_IUPAC_CAS_NAME>
3-[hydroxy-[(5-methyl-2-thiazolyl)amino]methylidene]-2-methyl-1,1-dioxo-1$l^{6},2-benzothiazin-4-one

> <PUBCHEM_IUPAC_NAME>
3-[hydroxy-[(5-methyl-1,3-thiazol-2-yl)amino]methylidene]-2-methyl-1,1-dioxo-1$l^{6},2-benzothiazin-4-one

> <PUBCHEM_IUPAC_SYSTEMATIC_NAME>
2-methyl-3-[[(5-methyl-1,3-thiazol-2-yl)amino]-oxidanyl-methylidene]-1,1-bis(oxidanylidene)-1$l^{6},2-benzothiazin-4-one

> <PUBCHEM_IUPAC_TRADITIONAL_NAME>
3-[hydroxy-[(5-methylthiazol-2-yl)amino]methylene]-1,1-diketo-2-methyl-1$l^{6},2-benzothiazin-4-one

> <PUBCHEM_IUPAC_INCHI>
InChI=1S/C14H13N3O4S2/c1-8-7-15-14(22-8)16-13(19)11-12(18)9-5-3-4-6-10(9)23(20,21)17(11)2/h3-7,19H,1-2H3,(H,15,16)

> <PUBCHEM_IUPAC_INCHIKEY>
DWMREKMVXIFPFM-UHFFFAOYSA-N

> <PUBCHEM_XLOGP3>
3.4

> <PUBCHEM_EXACT_MASS>
351.034748

> <PUBCHEM_MOLECULAR_FORMULA>
C14H13N3O4S2

> <PUBCHEM_MOLECULAR_WEIGHT>
351.40072

> <PUBCHEM_OPENEYE_CAN_SMILES>
CC1=CN=C(S1)NC(=C2C(=O)C3=CC=CC=C3S(=O)(=O)N2C)O

> <PUBCHEM_OPENEYE_ISO_SMILES>
CC1=CN=C(S1)NC(=C2C(=O)C3=CC=CC=C3S(=O)(=O)N2C)O

> <PUBCHEM_CACTVS_TPSA>
136

> <PUBCHEM_MONOISOTOPIC_WEIGHT>
351.034748

> <PUBCHEM_TOTAL_CHARGE>
0

> <PUBCHEM_HEAVY_ATOM_COUNT>
23

> <PUBCHEM_ATOM_DEF_STEREO_COUNT>
0

> <PUBCHEM_ATOM_UDEF_STEREO_COUNT>
0

> <PUBCHEM_BOND_DEF_STEREO_COUNT>
0

> <PUBCHEM_BOND_UDEF_STEREO_COUNT>
1

> <PUBCHEM_ISOTOPIC_ATOM_COUNT>
0

> <PUBCHEM_COMPONENT_COUNT>
1

> <PUBCHEM_CACTVS_TAUTO_COUNT>
8

> <PUBCHEM_COORDINATE_TYPE>
1
5
255

> <PUBCHEM_BONDANNOTATIONS>
10  11  8
10  14  8
11  16  8
12  17  1
14  18  8
16  19  8
18  19  8
2  20  8
2  21  8
21  22  8
9  20  8
9  22  8

$$$$

