7939
  -OEChem-06261202282D

 15 15  0     0  0  0  0  0  0999 V2000
    4.2690   -0.6900    0.0000 N   0  0  0  0  0  0  0  0  0  0  0  0
    3.4030    0.8100    0.0000 N   0  0  0  0  0  0  0  0  0  0  0  0
    2.5369   -0.6900    0.0000 N   0  0  0  0  0  0  0  0  0  0  0  0
    5.1350   -0.1900    0.0000 C   0  0  0  0  0  0  0  0  0  0  0  0
    5.1350    0.8100    0.0000 C   0  0  0  0  0  0  0  0  0  0  0  0
    6.0010   -0.6900    0.0000 C   0  0  0  0  0  0  0  0  0  0  0  0
    3.4030   -0.1900    0.0000 C   0  0  0  0  0  0  0  0  0  0  0  0
    4.2690    1.3100    0.0000 C   0  0  0  0  0  0  0  0  0  0  0  0
    5.6720    1.1200    0.0000 H   0  0  0  0  0  0  0  0  0  0  0  0
    5.6910   -1.2269    0.0000 H   0  0  0  0  0  0  0  0  0  0  0  0
    6.5380   -1.0000    0.0000 H   0  0  0  0  0  0  0  0  0  0  0  0
    6.3110   -0.1531    0.0000 H   0  0  0  0  0  0  0  0  0  0  0  0
    4.2690    1.9300    0.0000 H   0  0  0  0  0  0  0  0  0  0  0  0
    2.0000   -0.3800    0.0000 H   0  0  0  0  0  0  0  0  0  0  0  0
    2.5369   -1.3100    0.0000 H   0  0  0  0  0  0  0  0  0  0  0  0
  1  4  2  0  0  0  0
  1  7  1  0  0  0  0
  2  7  2  0  0  0  0
  2  8  1  0  0  0  0
  3  7  1  0  0  0  0
  3 14  1  0  0  0  0
  3 15  1  0  0  0  0
  4  5  1  0  0  0  0
  4  6  1  0  0  0  0
  5  8  2  0  0  0  0
  5  9  1  0  0  0  0
  6 10  1  0  0  0  0
  6 11  1  0  0  0  0
  6 12  1  0  0  0  0
  8 13  1  0  0  0  0
M  END
> <PUBCHEM_COMPOUND_CID>
7939

> <PUBCHEM_COMPOUND_CANONICALIZED>
1

> <PUBCHEM_CACTVS_COMPLEXITY>
74.1

> <PUBCHEM_CACTVS_HBOND_ACCEPTOR>
3

> <PUBCHEM_CACTVS_HBOND_DONOR>
1

> <PUBCHEM_CACTVS_ROTATABLE_BOND>
0

> <PUBCHEM_CACTVS_SUBSKEYS>
AAADcYBjAAAAAAAAAAAAAAAAAAAAAAAAAAAsAAAAAAAAAAABgAAAHAAQAAAACAjBFgQ/kJZIEACgATRnZACAgCkxAqAJWCA4ZBiAKIBAycAEBAhIAAJAQCAAAAAAAAAAAAAAAAAAAAAAAAAAAAAAAAAAAA==

> <PUBCHEM_IUPAC_OPENEYE_NAME>
4-methylpyrimidin-2-amine

> <PUBCHEM_IUPAC_CAS_NAME>
4-methyl-2-pyrimidinamine

> <PUBCHEM_IUPAC_NAME>
4-methylpyrimidin-2-amine

> <PUBCHEM_IUPAC_SYSTEMATIC_NAME>
4-methylpyrimidin-2-amine

> <PUBCHEM_IUPAC_TRADITIONAL_NAME>
(4-methylpyrimidin-2-yl)amine

> <PUBCHEM_IUPAC_INCHI>
InChI=1S/C5H7N3/c1-4-2-3-7-5(6)8-4/h2-3H,1H3,(H2,6,7,8)

> <PUBCHEM_IUPAC_INCHIKEY>
GHCFWKFREBNSPC-UHFFFAOYSA-N

> <PUBCHEM_XLOGP3_AA>
0.3

> <PUBCHEM_EXACT_MASS>
109.063997

> <PUBCHEM_MOLECULAR_FORMULA>
C5H7N3

> <PUBCHEM_MOLECULAR_WEIGHT>
109.12918

> <PUBCHEM_OPENEYE_CAN_SMILES>
CC1=NC(=NC=C1)N

> <PUBCHEM_OPENEYE_ISO_SMILES>
CC1=NC(=NC=C1)N

> <PUBCHEM_CACTVS_TPSA>
51.8

> <PUBCHEM_MONOISOTOPIC_WEIGHT>
109.063997

> <PUBCHEM_TOTAL_CHARGE>
0

> <PUBCHEM_HEAVY_ATOM_COUNT>
8

> <PUBCHEM_ATOM_DEF_STEREO_COUNT>
0

> <PUBCHEM_ATOM_UDEF_STEREO_COUNT>
0

> <PUBCHEM_BOND_DEF_STEREO_COUNT>
0

> <PUBCHEM_BOND_UDEF_STEREO_COUNT>
0

> <PUBCHEM_ISOTOPIC_ATOM_COUNT>
0

> <PUBCHEM_COMPONENT_COUNT>
1

> <PUBCHEM_CACTVS_TAUTO_COUNT>
6

> <PUBCHEM_COORDINATE_TYPE>
1
5
255

> <PUBCHEM_BONDANNOTATIONS>
1  4  8
1  7  8
2  7  8
2  8  8
4  5  8
5  8  8

$$$$

