12820
  -OEChem-06261207242D

 23 23  0     0  0  0  0  0  0999 V2000
    2.5369   -1.1550    0.0000 O   0  0  0  0  0  0  0  0  0  0  0  0
    4.2690    1.8450    0.0000 O   0  0  0  0  0  0  0  0  0  0  0  0
    2.5369    0.8450    0.0000 O   0  0  0  0  0  0  0  0  0  0  0  0
    6.0010    1.8450    0.0000 O   0  0  0  0  0  0  0  0  0  0  0  0
    5.1350    0.3450    0.0000 C   0  0  0  0  0  0  0  0  0  0  0  0
    4.2690    0.8450    0.0000 C   0  0  0  0  0  0  0  0  0  0  0  0
    3.4030    0.3450    0.0000 C   0  0  0  0  0  0  0  0  0  0  0  0
    3.4030   -0.6550    0.0000 C   0  0  0  0  0  0  0  0  0  0  0  0
    5.1350   -0.6550    0.0000 C   0  0  0  0  0  0  0  0  0  0  0  0
    4.2690   -1.1550    0.0000 C   0  0  0  0  0  0  0  0  0  0  0  0
    6.0010    0.8450    0.0000 C   0  0  0  0  0  0  0  0  0  0  0  0
    6.8671    0.3450    0.0000 C   0  0  0  0  0  0  0  0  0  0  0  0
    2.5369   -2.1550    0.0000 C   0  0  0  0  0  0  0  0  0  0  0  0
    5.6720   -0.9650    0.0000 H   0  0  0  0  0  0  0  0  0  0  0  0
    4.2690   -1.7750    0.0000 H   0  0  0  0  0  0  0  0  0  0  0  0
    6.5571   -0.1919    0.0000 H   0  0  0  0  0  0  0  0  0  0  0  0
    7.4040    0.0350    0.0000 H   0  0  0  0  0  0  0  0  0  0  0  0
    7.1771    0.8819    0.0000 H   0  0  0  0  0  0  0  0  0  0  0  0
    3.7320    2.1550    0.0000 H   0  0  0  0  0  0  0  0  0  0  0  0
    2.0000    0.5350    0.0000 H   0  0  0  0  0  0  0  0  0  0  0  0
    1.9169   -2.1550    0.0000 H   0  0  0  0  0  0  0  0  0  0  0  0
    2.5369   -2.7750    0.0000 H   0  0  0  0  0  0  0  0  0  0  0  0
    3.1569   -2.1550    0.0000 H   0  0  0  0  0  0  0  0  0  0  0  0
  1  8  1  0  0  0  0
  1 13  1  0  0  0  0
  2  6  1  0  0  0  0
  2 19  1  0  0  0  0
  3  7  1  0  0  0  0
  3 20  1  0  0  0  0
  4 11  2  0  0  0  0
  5  6  2  0  0  0  0
  5  9  1  0  0  0  0
  5 11  1  0  0  0  0
  6  7  1  0  0  0  0
  7  8  2  0  0  0  0
  8 10  1  0  0  0  0
  9 10  2  0  0  0  0
  9 14  1  0  0  0  0
 10 15  1  0  0  0  0
 11 12  1  0  0  0  0
 12 16  1  0  0  0  0
 12 17  1  0  0  0  0
 12 18  1  0  0  0  0
 13 21  1  0  0  0  0
 13 22  1  0  0  0  0
 13 23  1  0  0  0  0
M  END
> <PUBCHEM_COMPOUND_CID>
12820

> <PUBCHEM_COMPOUND_CANONICALIZED>
1

> <PUBCHEM_CACTVS_COMPLEXITY>
192

> <PUBCHEM_CACTVS_HBOND_ACCEPTOR>
4

> <PUBCHEM_CACTVS_HBOND_DONOR>
2

> <PUBCHEM_CACTVS_ROTATABLE_BOND>
2

> <PUBCHEM_CACTVS_SUBSKEYS>
AAADccBwOAAAAAAAAAAAAAAAAAAAAAAAAAAwAAAAAAAAAAABAAAAGgAACAAADASAmAIyBoAABgCIAqBSAAACCAAkIAAIiAEGiMgNJzaGNBqAcWMl4BULuYeK7LzOIAABCAAIQABAAAIQABCAAAAAAAAAAA==

> <PUBCHEM_IUPAC_OPENEYE_NAME>
1-(2,3-dihydroxy-4-methoxy-phenyl)ethanone

> <PUBCHEM_IUPAC_CAS_NAME>
1-(2,3-dihydroxy-4-methoxyphenyl)ethanone

> <PUBCHEM_IUPAC_NAME>
1-(2,3-dihydroxy-4-methoxyphenyl)ethanone

> <PUBCHEM_IUPAC_SYSTEMATIC_NAME>
1-[4-methoxy-2,3-bis(oxidanyl)phenyl]ethanone

> <PUBCHEM_IUPAC_TRADITIONAL_NAME>
1-(2,3-dihydroxy-4-methoxy-phenyl)ethanone

> <PUBCHEM_IUPAC_INCHI>
InChI=1S/C9H10O4/c1-5(10)6-3-4-7(13-2)9(12)8(6)11/h3-4,11-12H,1-2H3

> <PUBCHEM_IUPAC_INCHIKEY>
VCONERRCKOKCHE-UHFFFAOYSA-N

> <PUBCHEM_XLOGP3>
1.5

> <PUBCHEM_EXACT_MASS>
182.057909

> <PUBCHEM_MOLECULAR_FORMULA>
C9H10O4

> <PUBCHEM_MOLECULAR_WEIGHT>
182.1733

> <PUBCHEM_OPENEYE_CAN_SMILES>
CC(=O)C1=C(C(=C(C=C1)OC)O)O

> <PUBCHEM_OPENEYE_ISO_SMILES>
CC(=O)C1=C(C(=C(C=C1)OC)O)O

> <PUBCHEM_CACTVS_TPSA>
66.8

> <PUBCHEM_MONOISOTOPIC_WEIGHT>
182.057909

> <PUBCHEM_TOTAL_CHARGE>
0

> <PUBCHEM_HEAVY_ATOM_COUNT>
13

> <PUBCHEM_ATOM_DEF_STEREO_COUNT>
0

> <PUBCHEM_ATOM_UDEF_STEREO_COUNT>
0

> <PUBCHEM_BOND_DEF_STEREO_COUNT>
0

> <PUBCHEM_BOND_UDEF_STEREO_COUNT>
0

> <PUBCHEM_ISOTOPIC_ATOM_COUNT>
0

> <PUBCHEM_COMPONENT_COUNT>
1

> <PUBCHEM_CACTVS_TAUTO_COUNT>
23

> <PUBCHEM_COORDINATE_TYPE>
1
5
255

> <PUBCHEM_BONDANNOTATIONS>
5  6  8
5  9  8
6  7  8
7  8  8
8  10  8
9  10  8

$$$$

