14397
  -OEChem-06241222432D

 40 42  0     0  0  0  0  0  0999 V2000
    2.0000   -1.1855    0.0000 Cl  0  0  0  0  0  0  0  0  0  0  0  0
    4.9036    0.5791    0.0000 O   0  0  0  0  0  0  0  0  0  0  0  0
    6.3374   -0.3219    0.0000 N   0  0  0  0  0  0  0  0  0  0  0  0
    5.8374   -2.5125    0.0000 N   0  0  0  0  0  0  0  0  0  0  0  0
    6.6419    2.3063    0.0000 N   0  0  0  0  0  0  0  0  0  0  0  0
    6.7713    0.5791    0.0000 C   0  0  0  0  0  0  0  0  0  0  0  0
    6.9609   -1.1037    0.0000 C   0  0  0  0  0  0  0  0  0  0  0  0
    6.2080    1.4053    0.0000 C   0  0  0  0  0  0  0  0  0  0  0  0
    6.7384   -2.0786    0.0000 C   0  0  0  0  0  0  0  0  0  0  0  0
    5.3374   -0.3219    0.0000 C   0  0  0  0  0  0  0  0  0  0  0  0
    4.7139   -1.1037    0.0000 C   0  0  0  0  0  0  0  0  0  0  0  0
    4.9364   -2.0786    0.0000 C   0  0  0  0  0  0  0  0  0  0  0  0
    7.9514   -0.7814    0.0000 C   0  0  0  0  0  0  0  0  0  0  0  0
    7.4909   -2.7988    0.0000 C   0  0  0  0  0  0  0  0  0  0  0  0
    3.7234   -0.7814    0.0000 C   0  0  0  0  0  0  0  0  0  0  0  0
    4.1839   -2.7988    0.0000 C   0  0  0  0  0  0  0  0  0  0  0  0
    8.7204   -1.4840    0.0000 C   0  0  0  0  0  0  0  0  0  0  0  0
    6.0786    3.1325    0.0000 C   0  0  0  0  0  0  0  0  0  0  0  0
    7.6391    2.3810    0.0000 C   0  0  0  0  0  0  0  0  0  0  0  0
    8.4886   -2.4995    0.0000 C   0  0  0  0  0  0  0  0  0  0  0  0
    2.9544   -1.4839    0.0000 C   0  0  0  0  0  0  0  0  0  0  0  0
    3.1862   -2.4995    0.0000 C   0  0  0  0  0  0  0  0  0  0  0  0
    7.2747    0.2172    0.0000 H   0  0  0  0  0  0  0  0  0  0  0  0
    7.2152    1.0120    0.0000 H   0  0  0  0  0  0  0  0  0  0  0  0
    5.7046    1.7672    0.0000 H   0  0  0  0  0  0  0  0  0  0  0  0
    5.7642    0.9724    0.0000 H   0  0  0  0  0  0  0  0  0  0  0  0
    5.8374   -3.1325    0.0000 H   0  0  0  0  0  0  0  0  0  0  0  0
    8.0824   -0.1754    0.0000 H   0  0  0  0  0  0  0  0  0  0  0  0
    7.3460   -3.4016    0.0000 H   0  0  0  0  0  0  0  0  0  0  0  0
    3.5925   -0.1754    0.0000 H   0  0  0  0  0  0  0  0  0  0  0  0
    4.3288   -3.4016    0.0000 H   0  0  0  0  0  0  0  0  0  0  0  0
    9.3122   -1.2990    0.0000 H   0  0  0  0  0  0  0  0  0  0  0  0
    7.6854    1.7627    0.0000 H   0  0  0  0  0  0  0  0  0  0  0  0
    6.5909    3.4818    0.0000 H   0  0  0  0  0  0  0  0  0  0  0  0
    5.7293    3.6448    0.0000 H   0  0  0  0  0  0  0  0  0  0  0  0
    5.5663    2.7833    0.0000 H   0  0  0  0  0  0  0  0  0  0  0  0
    8.2574    2.4273    0.0000 H   0  0  0  0  0  0  0  0  0  0  0  0
    7.5928    2.9993    0.0000 H   0  0  0  0  0  0  0  0  0  0  0  0
    8.9415   -2.9230    0.0000 H   0  0  0  0  0  0  0  0  0  0  0  0
    2.7333   -2.9229    0.0000 H   0  0  0  0  0  0  0  0  0  0  0  0
  1 21  1  0  0  0  0
  2 10  2  0  0  0  0
  3  6  1  0  0  0  0
  3  7  1  0  0  0  0
  3 10  1  0  0  0  0
  4  9  1  0  0  0  0
  4 12  1  0  0  0  0
  4 27  1  0  0  0  0
  5  8  1  0  0  0  0
  5 18  1  0  0  0  0
  5 19  1  0  0  0  0
  6  8  1  0  0  0  0
  6 23  1  0  0  0  0
  6 24  1  0  0  0  0
  7  9  1  0  0  0  0
  7 13  2  0  0  0  0
  8 25  1  0  0  0  0
  8 26  1  0  0  0  0
  9 14  2  0  0  0  0
 10 11  1  0  0  0  0
 11 12  2  0  0  0  0
 11 15  1  0  0  0  0
 12 16  1  0  0  0  0
 13 17  1  0  0  0  0
 13 28  1  0  0  0  0
 14 20  1  0  0  0  0
 14 29  1  0  0  0  0
 15 21  2  0  0  0  0
 15 30  1  0  0  0  0
 16 22  2  0  0  0  0
 16 31  1  0  0  0  0
 17 20  2  0  0  0  0
 17 32  1  0  0  0  0
 18 34  1  0  0  0  0
 18 35  1  0  0  0  0
 18 36  1  0  0  0  0
 19 33  1  0  0  0  0
 19 37  1  0  0  0  0
 19 38  1  0  0  0  0
 20 39  1  0  0  0  0
 21 22  1  0  0  0  0
 22 40  1  0  0  0  0
M  END
> <PUBCHEM_COMPOUND_CID>
14397

> <PUBCHEM_COMPOUND_CANONICALIZED>
1

> <PUBCHEM_CACTVS_COMPLEXITY>
403

> <PUBCHEM_CACTVS_HBOND_ACCEPTOR>
3

> <PUBCHEM_CACTVS_HBOND_DONOR>
1

> <PUBCHEM_CACTVS_ROTATABLE_BOND>
3

> <PUBCHEM_CACTVS_SUBSKEYS>
AAADceB7IAAEAAAAAAAAAAAAAAAAAAAAAAAwYAAABYAAAAABQAAAHgIQAAAADArBmCQywIPAAACIAiVSUACCAAAlBwAIiAEIdsgIYHrB15GUIYhglgDIyccYiACOAABAIAACACAAAIBAAAQAQAAAAAAAAA==

> <PUBCHEM_IUPAC_OPENEYE_NAME>
8-chloro-5-[2-(dimethylamino)ethyl]-11H-benzo[b][1,4]benzodiazepin-6-one

> <PUBCHEM_IUPAC_CAS_NAME>
8-chloro-5-[2-(dimethylamino)ethyl]-11H-benzo[b][1,4]benzodiazepin-6-one

> <PUBCHEM_IUPAC_NAME>
8-chloro-5-[2-(dimethylamino)ethyl]-11H-benzo[b][1,4]benzodiazepin-6-one

> <PUBCHEM_IUPAC_SYSTEMATIC_NAME>
8-chloranyl-5-[2-(dimethylamino)ethyl]-11H-benzo[b][1,4]benzodiazepin-6-one

> <PUBCHEM_IUPAC_TRADITIONAL_NAME>
8-chloro-5-[2-(dimethylamino)ethyl]-11H-benzo[b][1,4]benzodiazepin-6-one

> <PUBCHEM_IUPAC_INCHI>
InChI=1S/C17H18ClN3O/c1-20(2)9-10-21-16-6-4-3-5-15(16)19-14-8-7-12(18)11-13(14)17(21)22/h3-8,11,19H,9-10H2,1-2H3

> <PUBCHEM_IUPAC_INCHIKEY>
WJGBLIUGZFWCJN-UHFFFAOYSA-N

> <PUBCHEM_XLOGP3_AA>
3.2

> <PUBCHEM_EXACT_MASS>
315.11384

> <PUBCHEM_MOLECULAR_FORMULA>
C17H18ClN3O

> <PUBCHEM_MOLECULAR_WEIGHT>
315.79732

> <PUBCHEM_OPENEYE_CAN_SMILES>
CN(C)CCN1C2=CC=CC=C2NC3=C(C1=O)C=C(C=C3)Cl

> <PUBCHEM_OPENEYE_ISO_SMILES>
CN(C)CCN1C2=CC=CC=C2NC3=C(C1=O)C=C(C=C3)Cl

> <PUBCHEM_CACTVS_TPSA>
35.6

> <PUBCHEM_MONOISOTOPIC_WEIGHT>
315.11384

> <PUBCHEM_TOTAL_CHARGE>
0

> <PUBCHEM_HEAVY_ATOM_COUNT>
22

> <PUBCHEM_ATOM_DEF_STEREO_COUNT>
0

> <PUBCHEM_ATOM_UDEF_STEREO_COUNT>
0

> <PUBCHEM_BOND_DEF_STEREO_COUNT>
0

> <PUBCHEM_BOND_UDEF_STEREO_COUNT>
0

> <PUBCHEM_ISOTOPIC_ATOM_COUNT>
0

> <PUBCHEM_COMPONENT_COUNT>
1

> <PUBCHEM_CACTVS_TAUTO_COUNT>
4

> <PUBCHEM_COORDINATE_TYPE>
1
5
255

> <PUBCHEM_BONDANNOTATIONS>
11  12  8
11  15  8
12  16  8
13  17  8
14  20  8
15  21  8
16  22  8
17  20  8
21  22  8
7  13  8
7  9  8
9  14  8

$$$$

