582839
  -OEChem-06241222442D

 20 21  0     1  0  0  0  0  0999 V2000
    4.3479    1.5000    0.0000 F   0  0  0  0  0  0  0  0  0  0  0  0
    4.3479   -1.5000    0.0000 F   0  0  0  0  0  0  0  0  0  0  0  0
    2.5878    1.3968    0.0000 F   0  0  0  0  0  0  0  0  0  0  0  0
    3.7058    1.7601    0.0000 F   0  0  0  0  0  0  0  0  0  0  0  0
    2.5878   -1.3968    0.0000 F   0  0  0  0  0  0  0  0  0  0  0  0
    3.7058   -1.7601    0.0000 F   0  0  0  0  0  0  0  0  0  0  0  0
    6.1041    1.3911    0.0000 F   0  0  0  0  0  0  0  0  0  0  0  0
    4.9867    1.7563    0.0000 F   0  0  0  0  0  0  0  0  0  0  0  0
    2.0000   -0.5878    0.0000 F   0  0  0  0  0  0  0  0  0  0  0  0
    2.0000    0.5878    0.0000 F   0  0  0  0  0  0  0  0  0  0  0  0
    6.6867   -0.5878    0.0000 F   0  0  0  0  0  0  0  0  0  0  0  0
    6.6867    0.5878    0.0000 F   0  0  0  0  0  0  0  0  0  0  0  0
    5.2941   -0.8047    0.0000 O   0  0  0  0  0  0  0  0  0  0  0  0
    4.3479    0.5000    0.0000 C   0  0  3  0  0  0  0  0  0  0  0  0
    4.3479   -0.5000    0.0000 C   0  0  3  0  0  0  0  0  0  0  0  0
    3.3968    0.8090    0.0000 C   0  0  0  0  0  0  0  0  0  0  0  0
    3.3968   -0.8090    0.0000 C   0  0  0  0  0  0  0  0  0  0  0  0
    5.2941    0.8047    0.0000 C   0  0  0  0  0  0  0  0  0  0  0  0
    2.8090    0.0000    0.0000 C   0  0  0  0  0  0  0  0  0  0  0  0
    5.8777    0.0000    0.0000 C   0  0  0  0  0  0  0  0  0  0  0  0
  1 14  1  0  0  0  0
  2 15  1  0  0  0  0
  3 16  1  0  0  0  0
  4 16  1  0  0  0  0
  5 17  1  0  0  0  0
  6 17  1  0  0  0  0
  7 18  1  0  0  0  0
  8 18  1  0  0  0  0
  9 19  1  0  0  0  0
 10 19  1  0  0  0  0
 11 20  1  0  0  0  0
 12 20  1  0  0  0  0
 13 15  1  0  0  0  0
 13 20  1  0  0  0  0
 14 15  1  0  0  0  0
 14 16  1  0  0  0  0
 14 18  1  0  0  0  0
 15 17  1  0  0  0  0
 16 19  1  0  0  0  0
 17 19  1  0  0  0  0
 18 20  1  0  0  0  0
M  END
> <PUBCHEM_COMPOUND_CID>
582839

> <PUBCHEM_COMPOUND_CANONICALIZED>
1

> <PUBCHEM_CACTVS_COMPLEXITY>
470

> <PUBCHEM_CACTVS_HBOND_ACCEPTOR>
13

> <PUBCHEM_CACTVS_HBOND_DONOR>
0

> <PUBCHEM_CACTVS_ROTATABLE_BOND>
0

> <PUBCHEM_CACTVS_SUBSKEYS>
AAADcQBgIcAAAAAAAAAAAAAAAAAAAaIAAAAAAAAAAAASAAAAAAAACwAAAAAADAQAgBAAAAAABAAAAAAAAAAAAAAAAAAAAAAAAAAAAAIAAAACAAAEAAAAAAGAwCAOAAAAAAAAAAAAAAAAAAAAAAAABAAAAA==

> <PUBCHEM_IUPAC_OPENEYE_NAME>
2,2,3,3,3a,4,4,5,5,6,6,6a-dodecafluorocyclopenta[b]furan

> <PUBCHEM_IUPAC_CAS_NAME>
2,2,3,3,3a,4,4,5,5,6,6,6a-dodecafluorocyclopenta[b]furan

> <PUBCHEM_IUPAC_NAME>
2,2,3,3,3a,4,4,5,5,6,6,6a-dodecafluorocyclopenta[b]furan

> <PUBCHEM_IUPAC_SYSTEMATIC_NAME>
2,2,3,3,3a,4,4,5,5,6,6,6a-dodecakis(fluoranyl)cyclopenta[b]furan

> <PUBCHEM_IUPAC_TRADITIONAL_NAME>
2,2,3,3,3a,4,4,5,5,6,6,6a-dodecafluorocyclopenta[b]furan

> <PUBCHEM_IUPAC_INCHI>
InChI=1S/C7F12O/c8-1-2(9,10)4(13,14)5(15,16)6(1,17)20-7(18,19)3(1,11)12

> <PUBCHEM_IUPAC_INCHIKEY>
KGXYNHNASARONK-UHFFFAOYSA-N

> <PUBCHEM_XLOGP3_AA>
3.6

> <PUBCHEM_EXACT_MASS>
327.975753

> <PUBCHEM_MOLECULAR_FORMULA>
C7F12O

> <PUBCHEM_MOLECULAR_WEIGHT>
328.055138

> <PUBCHEM_OPENEYE_CAN_SMILES>
C12(C(C(C(C1(F)F)(F)F)(F)F)(OC(C2(F)F)(F)F)F)F

> <PUBCHEM_OPENEYE_ISO_SMILES>
C12(C(C(C(C1(F)F)(F)F)(F)F)(OC(C2(F)F)(F)F)F)F

> <PUBCHEM_CACTVS_TPSA>
9.2

> <PUBCHEM_MONOISOTOPIC_WEIGHT>
327.975753

> <PUBCHEM_TOTAL_CHARGE>
0

> <PUBCHEM_HEAVY_ATOM_COUNT>
20

> <PUBCHEM_ATOM_DEF_STEREO_COUNT>
0

> <PUBCHEM_ATOM_UDEF_STEREO_COUNT>
2

> <PUBCHEM_BOND_DEF_STEREO_COUNT>
0

> <PUBCHEM_BOND_UDEF_STEREO_COUNT>
0

> <PUBCHEM_ISOTOPIC_ATOM_COUNT>
0

> <PUBCHEM_COMPONENT_COUNT>
1

> <PUBCHEM_CACTVS_TAUTO_COUNT>
1

> <PUBCHEM_COORDINATE_TYPE>
1
5
255

> <PUBCHEM_BONDANNOTATIONS>
14  1  3
15  2  3

$$$$

