12277
  -OEChem-06261206452D

 28 27  0     1  0  0  0  0  0999 V2000
    4.5981   -0.4400    0.0000 N   0  0  0  0  0  0  0  0  0  0  0  0
    5.4641    0.0600    0.0000 C   0  0  3  0  0  0  0  0  0  0  0  0
    3.7320    0.0600    0.0000 C   0  0  3  0  0  0  0  0  0  0  0  0
    6.3301   -0.4400    0.0000 C   0  0  0  0  0  0  0  0  0  0  0  0
    2.8660   -0.4400    0.0000 C   0  0  0  0  0  0  0  0  0  0  0  0
    3.7320    1.0600    0.0000 C   0  0  0  0  0  0  0  0  0  0  0  0
    5.4641    1.0600    0.0000 C   0  0  0  0  0  0  0  0  0  0  0  0
    7.1962    0.0600    0.0000 C   0  0  0  0  0  0  0  0  0  0  0  0
    2.0000    0.0600    0.0000 C   0  0  0  0  0  0  0  0  0  0  0  0
    5.4641   -0.5600    0.0000 H   0  0  0  0  0  0  0  0  0  0  0  0
    3.7320   -0.5600    0.0000 H   0  0  0  0  0  0  0  0  0  0  0  0
    4.5981   -1.0600    0.0000 H   0  0  0  0  0  0  0  0  0  0  0  0
    2.4675   -0.9149    0.0000 H   0  0  0  0  0  0  0  0  0  0  0  0
    3.2646   -0.9149    0.0000 H   0  0  0  0  0  0  0  0  0  0  0  0
    5.9316   -0.9149    0.0000 H   0  0  0  0  0  0  0  0  0  0  0  0
    6.7287   -0.9149    0.0000 H   0  0  0  0  0  0  0  0  0  0  0  0
    4.3520    1.0600    0.0000 H   0  0  0  0  0  0  0  0  0  0  0  0
    3.7320    1.6800    0.0000 H   0  0  0  0  0  0  0  0  0  0  0  0
    3.1120    1.0600    0.0000 H   0  0  0  0  0  0  0  0  0  0  0  0
    6.0841    1.0600    0.0000 H   0  0  0  0  0  0  0  0  0  0  0  0
    5.4641    1.6800    0.0000 H   0  0  0  0  0  0  0  0  0  0  0  0
    4.8441    1.0600    0.0000 H   0  0  0  0  0  0  0  0  0  0  0  0
    7.5062   -0.4769    0.0000 H   0  0  0  0  0  0  0  0  0  0  0  0
    7.7331    0.3700    0.0000 H   0  0  0  0  0  0  0  0  0  0  0  0
    6.8862    0.5969    0.0000 H   0  0  0  0  0  0  0  0  0  0  0  0
    2.3100    0.5969    0.0000 H   0  0  0  0  0  0  0  0  0  0  0  0
    1.4631    0.3700    0.0000 H   0  0  0  0  0  0  0  0  0  0  0  0
    1.6900   -0.4769    0.0000 H   0  0  0  0  0  0  0  0  0  0  0  0
  1  2  1  0  0  0  0
  1  3  1  0  0  0  0
  1 12  1  0  0  0  0
  2  4  1  0  0  0  0
  2  7  1  0  0  0  0
  2 10  1  0  0  0  0
  3  5  1  0  0  0  0
  3  6  1  0  0  0  0
  3 11  1  0  0  0  0
  4  8  1  0  0  0  0
  4 15  1  0  0  0  0
  4 16  1  0  0  0  0
  5  9  1  0  0  0  0
  5 13  1  0  0  0  0
  5 14  1  0  0  0  0
  6 17  1  0  0  0  0
  6 18  1  0  0  0  0
  6 19  1  0  0  0  0
  7 20  1  0  0  0  0
  7 21  1  0  0  0  0
  7 22  1  0  0  0  0
  8 23  1  0  0  0  0
  8 24  1  0  0  0  0
  8 25  1  0  0  0  0
  9 26  1  0  0  0  0
  9 27  1  0  0  0  0
  9 28  1  0  0  0  0
M  END
> <PUBCHEM_COMPOUND_CID>
12277

> <PUBCHEM_COMPOUND_CANONICALIZED>
1

> <PUBCHEM_CACTVS_COMPLEXITY>
53.6

> <PUBCHEM_CACTVS_HBOND_ACCEPTOR>
1

> <PUBCHEM_CACTVS_HBOND_DONOR>
1

> <PUBCHEM_CACTVS_ROTATABLE_BOND>
4

> <PUBCHEM_CACTVS_SUBSKEYS>
AAADceByAAAAAAAAAAAAAAAAAAAAAAAAAAAAAAAAAAAAAAAAAAAAHAAQAAAACCjBAAQCAALAAAAAAAAAAAAAAAAAAAAAAIAIAAAAAAAAAAAEAAAAEACAAAAAAAAAAAAAAAAAAAAAAAAAAAAAAAAAAAAAAA==

> <PUBCHEM_IUPAC_OPENEYE_NAME>
N-sec-butylbutan-2-amine

> <PUBCHEM_IUPAC_CAS_NAME>
N-butan-2-yl-2-butanamine

> <PUBCHEM_IUPAC_NAME>
N-butan-2-ylbutan-2-amine

> <PUBCHEM_IUPAC_SYSTEMATIC_NAME>
N-butan-2-ylbutan-2-amine

> <PUBCHEM_IUPAC_TRADITIONAL_NAME>
disec-butylamine

> <PUBCHEM_IUPAC_INCHI>
InChI=1S/C8H19N/c1-5-7(3)9-8(4)6-2/h7-9H,5-6H2,1-4H3

> <PUBCHEM_IUPAC_INCHIKEY>
OBYVIBDTOCAXSN-UHFFFAOYSA-N

> <PUBCHEM_XLOGP3_AA>
2.4

> <PUBCHEM_EXACT_MASS>
129.15175

> <PUBCHEM_MOLECULAR_FORMULA>
C8H19N

> <PUBCHEM_MOLECULAR_WEIGHT>
129.24316

> <PUBCHEM_OPENEYE_CAN_SMILES>
CCC(C)NC(C)CC

> <PUBCHEM_OPENEYE_ISO_SMILES>
CCC(C)NC(C)CC

> <PUBCHEM_CACTVS_TPSA>
12

> <PUBCHEM_MONOISOTOPIC_WEIGHT>
129.15175

> <PUBCHEM_TOTAL_CHARGE>
0

> <PUBCHEM_HEAVY_ATOM_COUNT>
9

> <PUBCHEM_ATOM_DEF_STEREO_COUNT>
0

> <PUBCHEM_ATOM_UDEF_STEREO_COUNT>
2

> <PUBCHEM_BOND_DEF_STEREO_COUNT>
0

> <PUBCHEM_BOND_UDEF_STEREO_COUNT>
0

> <PUBCHEM_ISOTOPIC_ATOM_COUNT>
0

> <PUBCHEM_COMPONENT_COUNT>
1

> <PUBCHEM_CACTVS_TAUTO_COUNT>
1

> <PUBCHEM_COORDINATE_TYPE>
1
5
255

> <PUBCHEM_BONDANNOTATIONS>
2  7  3
3  6  3

$$$$

