3733
  -OEChem-06251223372D

122123  0     1  0  0  0  0  0999 V2000
   23.6789   -4.6290    0.0000 O   0  0  0  0  0  0  0  0  0  0  0  0
   21.6098   -3.3992    0.0000 O   0  0  0  0  0  0  0  0  0  0  0  0
   25.6468   -2.7540    0.0000 O   0  0  0  0  0  0  0  0  0  0  0  0
   18.6207   -3.6082    0.0000 O   0  0  0  0  0  0  0  0  0  0  0  0
   17.0384   -2.9037    0.0000 O   0  0  0  0  0  0  0  0  0  0  0  0
   10.7092   -0.0858    0.0000 O   0  0  0  0  0  0  0  0  0  0  0  0
    9.1269    0.6187    0.0000 O   0  0  0  0  0  0  0  0  0  0  0  0
    2.6166    5.1592    0.0000 O   0  0  0  0  0  0  0  0  0  0  0  0
    2.7976    3.4367    0.0000 O   0  0  0  0  0  0  0  0  0  0  0  0
   21.9188   -4.3502    0.0000 C   0  0  3  0  0  0  0  0  0  0  0  0
   22.8698   -4.0412    0.0000 C   0  0  3  0  0  0  0  0  0  0  0  0
   24.4879   -4.0412    0.0000 C   0  0  3  0  0  0  0  0  0  0  0  0
   21.1098   -4.9380    0.0000 C   0  0  0  0  0  0  0  0  0  0  0  0
   23.1789   -3.0901    0.0000 C   0  0  0  0  0  0  0  0  0  0  0  0
   20.6098   -3.3992    0.0000 C   0  0  3  0  0  0  0  0  0  0  0  0
   24.1789   -3.0901    0.0000 C   0  0  0  0  0  0  0  0  0  0  0  0
   20.3008   -4.3502    0.0000 C   0  0  0  0  0  0  0  0  0  0  0  0
   22.5066   -5.1592    0.0000 C   0  0  0  0  0  0  0  0  0  0  0  0
   20.0220   -2.5901    0.0000 C   0  0  0  0  0  0  0  0  0  0  0  0
   25.4389   -3.7322    0.0000 C   0  0  3  0  0  0  0  0  0  0  0  0
   25.0757   -4.8502    0.0000 C   0  0  0  0  0  0  0  0  0  0  0  0
   19.0275   -2.6947    0.0000 C   0  0  3  0  0  0  0  0  0  0  0  0
   18.4397   -1.8856    0.0000 C   0  0  3  0  0  0  0  0  0  0  0  0
   26.1821   -4.4013    0.0000 C   0  0  0  0  0  0  0  0  0  0  0  0
   17.4452   -1.9902    0.0000 C   0  0  3  0  0  0  0  0  0  0  0  0
   18.8464   -0.9721    0.0000 C   0  0  0  0  0  0  0  0  0  0  0  0
   16.8574   -1.1812    0.0000 C   0  0  3  0  0  0  0  0  0  0  0  0
   17.2641   -0.2676    0.0000 C   0  0  0  0  0  0  0  0  0  0  0  0
   15.8628   -1.2857    0.0000 C   0  0  0  0  0  0  0  0  0  0  0  0
   15.2751   -0.4767    0.0000 C   0  0  0  0  0  0  0  0  0  0  0  0
   14.2805   -0.5812    0.0000 C   0  0  0  0  0  0  0  0  0  0  0  0
   13.6928    0.2278    0.0000 C   0  0  3  0  0  0  0  0  0  0  0  0
   12.6982    0.1233    0.0000 C   0  0  0  0  0  0  0  0  0  0  0  0
    7.3635    3.0458    0.0000 C   0  0  3  0  0  0  0  0  0  0  0  0
    6.3690    2.9412    0.0000 C   0  0  0  0  0  0  0  0  0  0  0  0
    5.7812    3.7503    0.0000 C   0  0  3  0  0  0  0  0  0  0  0  0
   12.1104    0.9323    0.0000 C   0  0  3  0  0  0  0  0  0  0  0  0
    7.9513    2.2367    0.0000 C   0  0  0  0  0  0  0  0  0  0  0  0
   14.0995    1.1414    0.0000 C   0  0  0  0  0  0  0  0  0  0  0  0
    8.9458    2.3413    0.0000 C   0  0  3  0  0  0  0  0  0  0  0  0
    4.7867    3.6457    0.0000 C   0  0  0  0  0  0  0  0  0  0  0  0
    7.7703    3.9593    0.0000 C   0  0  0  0  0  0  0  0  0  0  0  0
   11.1159    0.8278    0.0000 C   0  0  0  0  0  0  0  0  0  0  0  0
    6.1880    4.6638    0.0000 C   0  0  0  0  0  0  0  0  0  0  0  0
   12.5172    1.8458    0.0000 C   0  0  0  0  0  0  0  0  0  0  0  0
    9.5336    1.5323    0.0000 C   0  0  0  0  0  0  0  0  0  0  0  0
    9.3526    3.2548    0.0000 C   0  0  0  0  0  0  0  0  0  0  0  0
   10.5281    1.6368    0.0000 C   0  0  0  0  0  0  0  0  0  0  0  0
    4.1989    4.4547    0.0000 C   0  0  0  0  0  0  0  0  0  0  0  0
    3.2044    4.3502    0.0000 C   0  0  0  0  0  0  0  0  0  0  0  0
   22.2688   -3.4402    0.0000 H   0  0  0  0  0  0  0  0  0  0  0  0
   20.6949   -5.3988    0.0000 H   0  0  0  0  0  0  0  0  0  0  0  0
   21.5246   -5.3988    0.0000 H   0  0  0  0  0  0  0  0  0  0  0  0
   23.2437   -2.4735    0.0000 H   0  0  0  0  0  0  0  0  0  0  0  0
   22.5724   -2.9612    0.0000 H   0  0  0  0  0  0  0  0  0  0  0  0
   20.9957   -2.6418    0.0000 H   0  0  0  0  0  0  0  0  0  0  0  0
   24.7853   -2.9612    0.0000 H   0  0  0  0  0  0  0  0  0  0  0  0
   24.1140   -2.4735    0.0000 H   0  0  0  0  0  0  0  0  0  0  0  0
   19.7344   -4.0980    0.0000 H   0  0  0  0  0  0  0  0  0  0  0  0
   19.9908   -4.8872    0.0000 H   0  0  0  0  0  0  0  0  0  0  0  0
   22.0050   -5.5237    0.0000 H   0  0  0  0  0  0  0  0  0  0  0  0
   22.8710   -5.6608    0.0000 H   0  0  0  0  0  0  0  0  0  0  0  0
   23.0082   -4.7948    0.0000 H   0  0  0  0  0  0  0  0  0  0  0  0
   20.5792   -2.3184    0.0000 H   0  0  0  0  0  0  0  0  0  0  0  0
   19.8511   -1.9942    0.0000 H   0  0  0  0  0  0  0  0  0  0  0  0
   26.2473   -3.4695    0.0000 H   0  0  0  0  0  0  0  0  0  0  0  0
   24.5741   -5.2146    0.0000 H   0  0  0  0  0  0  0  0  0  0  0  0
   25.4401   -5.3518    0.0000 H   0  0  0  0  0  0  0  0  0  0  0  0
   25.5773   -4.4858    0.0000 H   0  0  0  0  0  0  0  0  0  0  0  0
   18.1821   -2.7835    0.0000 H   0  0  0  0  0  0  0  0  0  0  0  0
   19.2850   -1.7968    0.0000 H   0  0  0  0  0  0  0  0  0  0  0  0
   25.7672   -4.8621    0.0000 H   0  0  0  0  0  0  0  0  0  0  0  0
   26.6428   -4.8162    0.0000 H   0  0  0  0  0  0  0  0  0  0  0  0
   26.5969   -3.9406    0.0000 H   0  0  0  0  0  0  0  0  0  0  0  0
   16.5998   -2.0790    0.0000 H   0  0  0  0  0  0  0  0  0  0  0  0
   26.2365   -2.5624    0.0000 H   0  0  0  0  0  0  0  0  0  0  0  0
   19.4128   -1.2243    0.0000 H   0  0  0  0  0  0  0  0  0  0  0  0
   19.0986   -0.4057    0.0000 H   0  0  0  0  0  0  0  0  0  0  0  0
   18.2800   -0.7199    0.0000 H   0  0  0  0  0  0  0  0  0  0  0  0
   18.0041   -3.6730    0.0000 H   0  0  0  0  0  0  0  0  0  0  0  0
   17.7027   -1.0923    0.0000 H   0  0  0  0  0  0  0  0  0  0  0  0
   16.4218   -2.9685    0.0000 H   0  0  0  0  0  0  0  0  0  0  0  0
   17.8305   -0.5198    0.0000 H   0  0  0  0  0  0  0  0  0  0  0  0
   17.5163    0.2988    0.0000 H   0  0  0  0  0  0  0  0  0  0  0  0
   16.6977   -0.0154    0.0000 H   0  0  0  0  0  0  0  0  0  0  0  0
   15.6107   -1.8521    0.0000 H   0  0  0  0  0  0  0  0  0  0  0  0
   15.5272    0.0897    0.0000 H   0  0  0  0  0  0  0  0  0  0  0  0
   13.7233   -0.8530    0.0000 H   0  0  0  0  0  0  0  0  0  0  0  0
   14.4514   -1.1772    0.0000 H   0  0  0  0  0  0  0  0  0  0  0  0
   14.5381    0.3167    0.0000 H   0  0  0  0  0  0  0  0  0  0  0  0
   12.1410   -0.1485    0.0000 H   0  0  0  0  0  0  0  0  0  0  0  0
   12.8691   -0.4727    0.0000 H   0  0  0  0  0  0  0  0  0  0  0  0
    6.8639    3.7334    0.0000 H   0  0  0  0  0  0  0  0  0  0  0  0
    5.8118    2.6694    0.0000 H   0  0  0  0  0  0  0  0  0  0  0  0
    6.5399    2.3453    0.0000 H   0  0  0  0  0  0  0  0  0  0  0  0
    6.6266    3.8391    0.0000 H   0  0  0  0  0  0  0  0  0  0  0  0
    7.3941    1.9650    0.0000 H   0  0  0  0  0  0  0  0  0  0  0  0
    8.1222    1.6408    0.0000 H   0  0  0  0  0  0  0  0  0  0  0  0
   12.9558    1.0212    0.0000 H   0  0  0  0  0  0  0  0  0  0  0  0
   14.6659    0.8892    0.0000 H   0  0  0  0  0  0  0  0  0  0  0  0
   14.3517    1.7078    0.0000 H   0  0  0  0  0  0  0  0  0  0  0  0
   13.5331    1.3935    0.0000 H   0  0  0  0  0  0  0  0  0  0  0  0
    9.7912    2.4301    0.0000 H   0  0  0  0  0  0  0  0  0  0  0  0
    4.2294    3.3739    0.0000 H   0  0  0  0  0  0  0  0  0  0  0  0
    4.9576    3.0497    0.0000 H   0  0  0  0  0  0  0  0  0  0  0  0
    8.3367    3.7071    0.0000 H   0  0  0  0  0  0  0  0  0  0  0  0
    8.0224    4.5257    0.0000 H   0  0  0  0  0  0  0  0  0  0  0  0
    7.2039    4.2115    0.0000 H   0  0  0  0  0  0  0  0  0  0  0  0
    6.7544    4.4116    0.0000 H   0  0  0  0  0  0  0  0  0  0  0  0
    6.4401    5.2302    0.0000 H   0  0  0  0  0  0  0  0  0  0  0  0
    5.6216    4.9160    0.0000 H   0  0  0  0  0  0  0  0  0  0  0  0
   13.0836    1.5937    0.0000 H   0  0  0  0  0  0  0  0  0  0  0  0
   12.7694    2.4122    0.0000 H   0  0  0  0  0  0  0  0  0  0  0  0
   11.9508    2.0980    0.0000 H   0  0  0  0  0  0  0  0  0  0  0  0
    9.9190    3.0026    0.0000 H   0  0  0  0  0  0  0  0  0  0  0  0
    9.6047    3.8212    0.0000 H   0  0  0  0  0  0  0  0  0  0  0  0
    8.7862    3.5070    0.0000 H   0  0  0  0  0  0  0  0  0  0  0  0
   10.7803    2.2032    0.0000 H   0  0  0  0  0  0  0  0  0  0  0  0
    4.7562    4.7265    0.0000 H   0  0  0  0  0  0  0  0  0  0  0  0
    4.0280    5.0507    0.0000 H   0  0  0  0  0  0  0  0  0  0  0  0
   10.0926   -0.1506    0.0000 H   0  0  0  0  0  0  0  0  0  0  0  0
    2.0000    5.0944    0.0000 H   0  0  0  0  0  0  0  0  0  0  0  0
  1 11  1  0  0  0  0
  1 12  1  0  0  0  0
  2 10  1  0  0  0  0
  2 15  1  0  0  0  0
  3 20  1  0  0  0  0
  3 76  1  0  0  0  0
  4 22  1  0  0  0  0
  4 80  1  0  0  0  0
  5 25  1  0  0  0  0
  5 82  1  0  0  0  0
  6 43  1  0  0  0  0
  6121  1  0  0  0  0
  7 46  2  0  0  0  0
  8 50  1  0  0  0  0
  8122  1  0  0  0  0
  9 50  2  0  0  0  0
 10 11  1  0  0  0  0
 10 13  1  0  0  0  0
 10 18  1  0  0  0  0
 11 14  1  0  0  0  0
 11 51  1  0  0  0  0
 12 16  1  0  0  0  0
 12 20  1  0  0  0  0
 12 21  1  0  0  0  0
 13 17  1  0  0  0  0
 13 52  1  0  0  0  0
 13 53  1  0  0  0  0
 14 16  1  0  0  0  0
 14 54  1  0  0  0  0
 14 55  1  0  0  0  0
 15 17  1  0  0  0  0
 15 19  1  0  0  0  0
 15 56  1  0  0  0  0
 16 57  1  0  0  0  0
 16 58  1  0  0  0  0
 17 59  1  0  0  0  0
 17 60  1  0  0  0  0
 18 61  1  0  0  0  0
 18 62  1  0  0  0  0
 18 63  1  0  0  0  0
 19 22  1  0  0  0  0
 19 64  1  0  0  0  0
 19 65  1  0  0  0  0
 20 24  1  0  0  0  0
 20 66  1  0  0  0  0
 21 67  1  0  0  0  0
 21 68  1  0  0  0  0
 21 69  1  0  0  0  0
 22 23  1  0  0  0  0
 22 70  1  0  0  0  0
 23 25  1  0  0  0  0
 23 26  1  0  0  0  0
 23 71  1  0  0  0  0
 24 72  1  0  0  0  0
 24 73  1  0  0  0  0
 24 74  1  0  0  0  0
 25 27  1  0  0  0  0
 25 75  1  0  0  0  0
 26 77  1  0  0  0  0
 26 78  1  0  0  0  0
 26 79  1  0  0  0  0
 27 28  1  0  0  0  0
 27 29  1  0  0  0  0
 27 81  1  0  0  0  0
 28 83  1  0  0  0  0
 28 84  1  0  0  0  0
 28 85  1  0  0  0  0
 29 30  2  3  0  0  0
 29 86  1  0  0  0  0
 30 31  1  0  0  0  0
 30 87  1  0  0  0  0
 31 32  1  0  0  0  0
 31 88  1  0  0  0  0
 31 89  1  0  0  0  0
 32 33  1  0  0  0  0
 32 39  1  0  0  0  0
 32 90  1  0  0  0  0
 33 37  1  0  0  0  0
 33 91  1  0  0  0  0
 33 92  1  0  0  0  0
 34 35  1  0  0  0  0
 34 38  1  0  0  0  0
 34 42  1  0  0  0  0
 34 93  1  0  0  0  0
 35 36  1  0  0  0  0
 35 94  1  0  0  0  0
 35 95  1  0  0  0  0
 36 41  1  0  0  0  0
 36 44  1  0  0  0  0
 36 96  1  0  0  0  0
 37 43  1  0  0  0  0
 37 45  1  0  0  0  0
 37 99  1  0  0  0  0
 38 40  1  0  0  0  0
 38 97  1  0  0  0  0
 38 98  1  0  0  0  0
 39100  1  0  0  0  0
 39101  1  0  0  0  0
 39102  1  0  0  0  0
 40 46  1  0  0  0  0
 40 47  1  0  0  0  0
 40103  1  0  0  0  0
 41 49  1  0  0  0  0
 41104  1  0  0  0  0
 41105  1  0  0  0  0
 42106  1  0  0  0  0
 42107  1  0  0  0  0
 42108  1  0  0  0  0
 43 48  2  3  0  0  0
 44109  1  0  0  0  0
 44110  1  0  0  0  0
 44111  1  0  0  0  0
 45112  1  0  0  0  0
 45113  1  0  0  0  0
 45114  1  0  0  0  0
 46 48  1  0  0  0  0
 47115  1  0  0  0  0
 47116  1  0  0  0  0
 47117  1  0  0  0  0
 48118  1  0  0  0  0
 49 50  1  0  0  0  0
 49119  1  0  0  0  0
 49120  1  0  0  0  0
M  END
> <PUBCHEM_COMPOUND_CID>
3733

> <PUBCHEM_COMPOUND_CANONICALIZED>
1

> <PUBCHEM_CACTVS_COMPLEXITY>
1120

> <PUBCHEM_CACTVS_HBOND_ACCEPTOR>
9

> <PUBCHEM_CACTVS_HBOND_DONOR>
5

> <PUBCHEM_CACTVS_ROTATABLE_BOND>
22

> <PUBCHEM_CACTVS_SUBSKEYS>
AAADcfB8PAAAAAAAAAAAAAAAAAAAASJAAAAAAAAAAAAAAAAAAAAAGgAACAAADVSggAICCAAABgCIAKDSCAAAAAAgIAAICAEAAEgBEBIAAQACQAAFwAALAQOI6PyOAAAAAAAAAAAAAAAAAAAAAAAAAAAAAA==

> <PUBCHEM_IUPAC_OPENEYE_NAME>
11,19,21-trihydroxy-22-[5-[5-(1-hydroxyethyl)-5-methyl-tetrahydrofuran-2-yl]-5-methyl-tetrahydrofuran-2-yl]-4,6,8,12,14,18,20-heptamethyl-9-oxo-docosa-10,16-dienoic acid

> <PUBCHEM_IUPAC_CAS_NAME>
11,19,21-trihydroxy-22-[5-[5-(1-hydroxyethyl)-5-methyl-2-oxolanyl]-5-methyl-2-oxolanyl]-4,6,8,12,14,18,20-heptamethyl-9-oxodocosa-10,16-dienoic acid

> <PUBCHEM_IUPAC_NAME>
11,19,21-trihydroxy-22-[5-[5-(1-hydroxyethyl)-5-methyloxolan-2-yl]-5-methyloxolan-2-yl]-4,6,8,12,14,18,20-heptamethyl-9-oxodocosa-10,16-dienoic acid

> <PUBCHEM_IUPAC_SYSTEMATIC_NAME>
22-[5-[5-(1-hydroxyethyl)-5-methyl-oxolan-2-yl]-5-methyl-oxolan-2-yl]-4,6,8,12,14,18,20-heptamethyl-11,19,21-tris(oxidanyl)-9-oxidanylidene-docosa-10,16-dienoic acid

> <PUBCHEM_IUPAC_TRADITIONAL_NAME>
11,19,21-trihydroxy-22-[5-[5-(1-hydroxyethyl)-5-methyl-tetrahydrofuran-2-yl]-5-methyl-tetrahydrofuran-2-yl]-9-keto-4,6,8,12,14,18,20-heptamethyl-docosa-10,16-dienoic acid

> <PUBCHEM_IUPAC_INCHI>
InChI=1S/C41H72O9/c1-25(21-29(5)34(43)24-35(44)30(6)22-27(3)20-26(2)14-15-38(46)47)12-11-13-28(4)39(48)31(7)36(45)23-33-16-18-41(10,49-33)37-17-19-40(9,50-37)32(8)42/h11,13,24-33,36-37,39,42-43,45,48H,12,14-23H2,1-10H3,(H,46,47)

> <PUBCHEM_IUPAC_INCHIKEY>
PGHMRUGBZOYCAA-UHFFFAOYSA-N

> <PUBCHEM_XLOGP3_AA>
7.5

> <PUBCHEM_EXACT_MASS>
708.517634

> <PUBCHEM_MOLECULAR_FORMULA>
C41H72O9

> <PUBCHEM_MOLECULAR_WEIGHT>
709.00498

> <PUBCHEM_OPENEYE_CAN_SMILES>
CC(CCC(=O)O)CC(C)CC(C)C(=O)C=C(C(C)CC(C)CC=CC(C)C(C(C)C(CC1CCC(O1)(C)C2CCC(O2)(C)C(C)O)O)O)O

> <PUBCHEM_OPENEYE_ISO_SMILES>
CC(CCC(=O)O)CC(C)CC(C)C(=O)C=C(C(C)CC(C)CC=CC(C)C(C(C)C(CC1CCC(O1)(C)C2CCC(O2)(C)C(C)O)O)O)O

> <PUBCHEM_CACTVS_TPSA>
154

> <PUBCHEM_MONOISOTOPIC_WEIGHT>
708.517634

> <PUBCHEM_TOTAL_CHARGE>
0

> <PUBCHEM_HEAVY_ATOM_COUNT>
50

> <PUBCHEM_ATOM_DEF_STEREO_COUNT>
0

> <PUBCHEM_ATOM_UDEF_STEREO_COUNT>
14

> <PUBCHEM_BOND_DEF_STEREO_COUNT>
0

> <PUBCHEM_BOND_UDEF_STEREO_COUNT>
2

> <PUBCHEM_ISOTOPIC_ATOM_COUNT>
0

> <PUBCHEM_COMPONENT_COUNT>
1

> <PUBCHEM_CACTVS_TAUTO_COUNT>
8

> <PUBCHEM_COORDINATE_TYPE>
1
5
255

> <PUBCHEM_BONDANNOTATIONS>
10  18  3
11  51  3
12  21  3
15  56  3
20  66  3
22  70  3
23  71  3
25  75  3
27  81  3
29  30  1
32  90  3
34  93  3
36  96  3
37  99  3
40  103  3
43  48  1

$$$$

