8323
  -OEChem-06261202443D

 27 29  0     0  0  0  0  0  0999 V2000
    2.2693    2.7657    0.0008 O   0  0  0  0  0  0  0  0  0  0  0  0
   -0.3148   -2.6693    0.0019 O   0  0  0  0  0  0  0  0  0  0  0  0
   -0.3135    2.6739    0.0004 O   0  0  0  0  0  0  0  0  0  0  0  0
    2.2914   -2.8003   -0.0008 N   0  0  0  0  0  0  0  0  0  0  0  0
    0.9936   -0.6934   -0.0006 C   0  0  0  0  0  0  0  0  0  0  0  0
    0.9907    0.7031   -0.0005 C   0  0  0  0  0  0  0  0  0  0  0  0
   -1.5524   -0.6988   -0.0004 C   0  0  0  0  0  0  0  0  0  0  0  0
   -1.5554    0.6977   -0.0006 C   0  0  0  0  0  0  0  0  0  0  0  0
   -0.2779   -1.4453   -0.0003 C   0  0  0  0  0  0  0  0  0  0  0  0
   -0.2839    1.4497   -0.0008 C   0  0  0  0  0  0  0  0  0  0  0  0
    2.2086   -1.3890   -0.0004 C   0  0  0  0  0  0  0  0  0  0  0  0
    2.2027    1.4038    0.0002 C   0  0  0  0  0  0  0  0  0  0  0  0
   -2.7644   -1.3995    0.0000 C   0  0  0  0  0  0  0  0  0  0  0  0
   -2.7704    1.3934   -0.0004 C   0  0  0  0  0  0  0  0  0  0  0  0
    3.4141   -0.6869    0.0002 C   0  0  0  0  0  0  0  0  0  0  0  0
    3.4112    0.7066    0.0005 C   0  0  0  0  0  0  0  0  0  0  0  0
   -3.9729   -0.7024    0.0005 C   0  0  0  0  0  0  0  0  0  0  0  0
   -3.9759    0.6911    0.0003 C   0  0  0  0  0  0  0  0  0  0  0  0
   -2.7918   -2.4858    0.0002 H   0  0  0  0  0  0  0  0  0  0  0  0
   -2.8014    2.4796   -0.0005 H   0  0  0  0  0  0  0  0  0  0  0  0
    4.3663   -1.2120    0.0004 H   0  0  0  0  0  0  0  0  0  0  0  0
    4.3560    1.2438    0.0011 H   0  0  0  0  0  0  0  0  0  0  0  0
   -4.9129   -1.2467    0.0010 H   0  0  0  0  0  0  0  0  0  0  0  0
   -4.9182    1.2315    0.0006 H   0  0  0  0  0  0  0  0  0  0  0  0
    3.1966   -3.2521    0.0002 H   0  0  0  0  0  0  0  0  0  0  0  0
    1.4561   -3.3680   -0.0006 H   0  0  0  0  0  0  0  0  0  0  0  0
    1.3813    3.1531   -0.0002 H   0  0  0  0  0  0  0  0  0  0  0  0
  1 12  1  0  0  0  0
  1 27  1  0  0  0  0
  2  9  2  0  0  0  0
  3 10  2  0  0  0  0
  4 11  1  0  0  0  0
  4 25  1  0  0  0  0
  4 26  1  0  0  0  0
  5  6  1  0  0  0  0
  5  9  1  0  0  0  0
  5 11  2  0  0  0  0
  6 10  1  0  0  0  0
  6 12  2  0  0  0  0
  7  8  1  0  0  0  0
  7  9  1  0  0  0  0
  7 13  2  0  0  0  0
  8 10  1  0  0  0  0
  8 14  2  0  0  0  0
 11 15  1  0  0  0  0
 12 16  1  0  0  0  0
 13 17  1  0  0  0  0
 13 19  1  0  0  0  0
 14 18  1  0  0  0  0
 14 20  1  0  0  0  0
 15 16  2  0  0  0  0
 15 21  1  0  0  0  0
 16 22  1  0  0  0  0
 17 18  2  0  0  0  0
 17 23  1  0  0  0  0
 18 24  1  0  0  0  0
M  END
> <PUBCHEM_COMPOUND_CID>
8323

> <PUBCHEM_CONFORMER_RMSD>
0.4

> <PUBCHEM_CONFORMER_DIVERSEORDER>
1

> <PUBCHEM_MMFF94_PARTIAL_CHARGES>
27
1 -0.53
10 0.4
11 0.1
12 0.08
13 -0.15
14 -0.15
15 -0.15
16 -0.15
17 -0.15
18 -0.15
19 0.15
2 -0.57
20 0.15
21 0.15
22 0.15
23 0.15
24 0.15
25 0.4
26 0.4
27 0.45
3 -0.57
4 -0.9
5 0.09
6 0.09
7 0.09
8 0.09
9 0.4

> <PUBCHEM_EFFECTIVE_ROTOR_COUNT>
0

> <PUBCHEM_PHARMACOPHORE_FEATURES>
8
1 1 donor
1 2 acceptor
1 3 acceptor
1 4 cation
1 4 donor
6 5 6 11 12 15 16 rings
6 5 6 7 8 9 10 rings
6 7 8 13 14 17 18 rings

> <PUBCHEM_HEAVY_ATOM_COUNT>
18

> <PUBCHEM_ATOM_DEF_STEREO_COUNT>
0

> <PUBCHEM_ATOM_UDEF_STEREO_COUNT>
0

> <PUBCHEM_BOND_DEF_STEREO_COUNT>
0

> <PUBCHEM_BOND_UDEF_STEREO_COUNT>
0

> <PUBCHEM_ISOTOPIC_ATOM_COUNT>
0

> <PUBCHEM_COMPONENT_COUNT>
1

> <PUBCHEM_CACTVS_TAUTO_COUNT>
12

> <PUBCHEM_CONFORMER_ID>
0000208300000001

> <PUBCHEM_MMFF94_ENERGY>
69.3859

> <PUBCHEM_FEATURE_SELFOVERLAP>
40.637

> <PUBCHEM_SHAPE_FINGERPRINT>
10411042 1 17906452486594674659
10608611 8 18412547613108673613
10616163 171 18337951160633149311
10967382 1 18410856568272013126
10980938 120 18411418380069624594
11132069 177 18409174311191771505
11471102 20 18410859862490739380
13140716 1 18410854408124912313
13221675 6 18410856563945345374
13380535 76 18339362967991367930
138480 1 18338799047686346630
13897977 150 18411140233861425349
14790565 3 18339067182384749652
15196674 1 18410575084684177933
15442244 35 18193274315293699483
15536298 74 18334012795986841830
16945 1 18410575089295636838
18186145 218 18334851744796845661
193761 8 17834113426232384229
19591789 44 18338513023938693694
200 152 18113910342742172693
20510252 161 18260829310474212017
20559304 39 18411982494375953474
20645477 70 18411143562851541535
21267235 1 18410283714213983335
21501502 16 18410009978789062337
221490 88 18340760472934670978
2334 1 18410573955302944901
23402539 116 18334305257479586806
23463225 33 18411699906649220277
23559900 14 18336270141025403370
238 59 17838381571716201605
2748010 2 18411419509788389821
335352 9 17978229688218843613
34934 24 18409738364994096215
5104073 3 18410856559650340065
53812653 166 18334860484939352576
7364860 26 18408041814568570438
84936 31 15793136115303850823
8809292 202 18272083911501252291
9709674 26 18410569570047020311

> <PUBCHEM_SHAPE_MULTIPOLES>
347.84
6.19
2.81
0.6
2.31
0.02
0
0.04
0
-1.2
0
0.02
0
0

> <PUBCHEM_SHAPE_SELFOVERLAP>
791.955

> <PUBCHEM_SHAPE_VOLUME>
179.3

> <PUBCHEM_COORDINATE_TYPE>
2
5
10

$$$$

