7872
  -OEChem-06261202243D

 27 26  0     0  0  0  0  0  0999 V2000
    0.0200   -0.0022   -1.2768 S   0  0  0  0  0  0  0  0  0  0  0  0
   -1.3714    0.0002   -0.0804 C   0  0  0  0  0  0  0  0  0  0  0  0
    1.3702    0.0002   -0.0794 C   0  0  0  0  0  0  0  0  0  0  0  0
   -1.2707    1.2582    0.7869 C   0  0  0  0  0  0  0  0  0  0  0  0
   -2.6848    0.0011   -0.8677 C   0  0  0  0  0  0  0  0  0  0  0  0
   -1.2737   -1.2567    0.7888 C   0  0  0  0  0  0  0  0  0  0  0  0
    0.9040   -0.7223    1.1877 C   0  0  0  0  0  0  0  0  0  0  0  0
    2.5655   -0.7299   -0.6983 C   0  0  0  0  0  0  0  0  0  0  0  0
    1.7410    1.4514    0.2394 C   0  0  0  0  0  0  0  0  0  0  0  0
   -1.1519    2.1603    0.1731 H   0  0  0  0  0  0  0  0  0  0  0  0
   -2.2412    1.3960    1.2875 H   0  0  0  0  0  0  0  0  0  0  0  0
   -0.5782    1.3012    1.6195 H   0  0  0  0  0  0  0  0  0  0  0  0
   -2.7797   -0.8893   -1.5008 H   0  0  0  0  0  0  0  0  0  0  0  0
   -2.7671    0.8840   -1.5131 H   0  0  0  0  0  0  0  0  0  0  0  0
   -3.5508    0.0164   -0.1951 H   0  0  0  0  0  0  0  0  0  0  0  0
   -1.1782   -1.1552    1.8757 H   0  0  0  0  0  0  0  0  0  0  0  0
   -2.3100   -1.6460    0.8243 H   0  0  0  0  0  0  0  0  0  0  0  0
   -0.8202   -2.1346    0.3103 H   0  0  0  0  0  0  0  0  0  0  0  0
    0.8314   -1.8137    1.1164 H   0  0  0  0  0  0  0  0  0  0  0  0
    1.8553   -0.7532    1.7638 H   0  0  0  0  0  0  0  0  0  0  0  0
    0.3925   -0.1897    1.9841 H   0  0  0  0  0  0  0  0  0  0  0  0
    2.9059   -0.2445   -1.6210 H   0  0  0  0  0  0  0  0  0  0  0  0
    2.3275   -1.7742   -0.9336 H   0  0  0  0  0  0  0  0  0  0  0  0
    3.4186   -0.7402   -0.0096 H   0  0  0  0  0  0  0  0  0  0  0  0
    0.9827    2.0861    0.6854 H   0  0  0  0  0  0  0  0  0  0  0  0
    2.5869    1.4683    0.9393 H   0  0  0  0  0  0  0  0  0  0  0  0
    2.0887    1.9691   -0.6643 H   0  0  0  0  0  0  0  0  0  0  0  0
  1  2  1  0  0  0  0
  1  3  1  0  0  0  0
  2  4  1  0  0  0  0
  2  5  1  0  0  0  0
  2  6  1  0  0  0  0
  3  7  1  0  0  0  0
  3  8  1  0  0  0  0
  3  9  1  0  0  0  0
  4 10  1  0  0  0  0
  4 11  1  0  0  0  0
  4 12  1  0  0  0  0
  5 13  1  0  0  0  0
  5 14  1  0  0  0  0
  5 15  1  0  0  0  0
  6 16  1  0  0  0  0
  6 17  1  0  0  0  0
  6 18  1  0  0  0  0
  7 19  1  0  0  0  0
  7 20  1  0  0  0  0
  7 21  1  0  0  0  0
  8 22  1  0  0  0  0
  8 23  1  0  0  0  0
  8 24  1  0  0  0  0
  9 25  1  0  0  0  0
  9 26  1  0  0  0  0
  9 27  1  0  0  0  0
M  END
> <PUBCHEM_COMPOUND_CID>
7872

> <PUBCHEM_CONFORMER_RMSD>
0.4

> <PUBCHEM_CONFORMER_DIVERSEORDER>
1

> <PUBCHEM_MMFF94_PARTIAL_CHARGES>
3
1 -0.46
2 0.23
3 0.23

> <PUBCHEM_EFFECTIVE_ROTOR_COUNT>
2

> <PUBCHEM_PHARMACOPHORE_FEATURES>
2
4 2 4 5 6 hydrophobe
4 3 7 8 9 hydrophobe

> <PUBCHEM_HEAVY_ATOM_COUNT>
9

> <PUBCHEM_ATOM_DEF_STEREO_COUNT>
0

> <PUBCHEM_ATOM_UDEF_STEREO_COUNT>
0

> <PUBCHEM_BOND_DEF_STEREO_COUNT>
0

> <PUBCHEM_BOND_UDEF_STEREO_COUNT>
0

> <PUBCHEM_ISOTOPIC_ATOM_COUNT>
0

> <PUBCHEM_COMPONENT_COUNT>
1

> <PUBCHEM_CACTVS_TAUTO_COUNT>
1

> <PUBCHEM_CONFORMER_ID>
00001EC000000001

> <PUBCHEM_MMFF94_ENERGY>
87.6413

> <PUBCHEM_FEATURE_SELFOVERLAP>
10.149

> <PUBCHEM_SHAPE_FINGERPRINT>
12423570 1 7269176739449779702
12897270 3 17895758383083316148
12932741 1 18343017753105195630
12932764 1 18059584602452536191
14128692 85 17022616490214667436
15310529 11 17603587413176457140
15775835 57 17704075117938849950
16945 1 18342174492132293346
18185500 45 17346598534599258515
21040471 1 17274831254601750891
21922407 69 18115316574410180942
23235685 24 15554448513170536351
23235687 12 17240750800750727869
23552423 10 18040435520443131879
24536 1 18334580130959486656
29004967 10 18187354454996671558
369184 2 18411418388833567473
5084963 1 17022623086910004526

> <PUBCHEM_SHAPE_MULTIPOLES>
189.07
3.31
1.31
1.27
0.06
0.25
0.07
-0.11
0.69
-0.16
-0.36
0.1
-0.14
0.12

> <PUBCHEM_SHAPE_SELFOVERLAP>
341.59

> <PUBCHEM_SHAPE_VOLUME>
124.7

> <PUBCHEM_COORDINATE_TYPE>
2
5
10

$$$$

