51090882
  -OEChem-06241223003D

 41 44  0     0  0  0  0  0  0999 V2000
    1.2420   -1.7897    1.8152 O   0  0  0  0  0  0  0  0  0  0  0  0
   -4.0159    3.2258   -0.5257 O   0  5  0  0  0  0  0  0  0  0  0  0
   -1.8870    2.7114   -0.3766 O   0  0  0  0  0  0  0  0  0  0  0  0
    1.5900   -1.2279   -0.4292 N   0  0  0  0  0  0  0  0  0  0  0  0
   -1.1337    0.1044    0.3130 N   0  0  0  0  0  0  0  0  0  0  0  0
    5.1258    2.1434    0.7567 N   0  0  0  0  0  0  0  0  0  0  0  0
   -3.0989    2.4009   -0.3028 N   0  3  0  0  0  0  0  0  0  0  0  0
    1.0535   -0.7795   -1.6993 C   0  0  0  0  0  0  0  0  0  0  0  0
   -0.0982   -1.4897   -2.3480 C   0  0  0  0  0  0  0  0  0  0  0  0
    1.2706   -1.5667   -2.9583 C   0  0  0  0  0  0  0  0  0  0  0  0
    3.0318   -1.4325   -0.3792 C   0  0  0  0  0  0  0  0  0  0  0  0
    0.7763   -1.4030    0.7217 C   0  0  0  0  0  0  0  0  0  0  0  0
   -0.6222   -1.1228    0.6401 C   0  0  0  0  0  0  0  0  0  0  0  0
    3.7632   -0.1828    0.0177 C   0  0  0  0  0  0  0  0  0  0  0  0
   -1.6782   -1.9768    0.8603 C   0  0  0  0  0  0  0  0  0  0  0  0
   -2.5098    0.0615    0.3169 C   0  0  0  0  0  0  0  0  0  0  0  0
   -2.8794   -1.2410    0.6591 C   0  0  0  0  0  0  0  0  0  0  0  0
    3.9228    0.8528   -0.8963 C   0  0  0  0  0  0  0  0  0  0  0  0
    4.2840   -0.0567    1.3008 C   0  0  0  0  0  0  0  0  0  0  0  0
   -3.4460    1.0658    0.0464 C   0  0  0  0  0  0  0  0  0  0  0  0
   -4.2500   -1.5593    0.7354 C   0  0  0  0  0  0  0  0  0  0  0  0
   -4.7997    0.7268    0.1283 C   0  0  0  0  0  0  0  0  0  0  0  0
    4.6058    1.9847   -0.4811 C   0  0  0  0  0  0  0  0  0  0  0  0
    4.9508    1.1158    1.6177 C   0  0  0  0  0  0  0  0  0  0  0  0
   -5.1977   -0.5648    0.4672 C   0  0  0  0  0  0  0  0  0  0  0  0
    1.0631    0.3023   -1.7910 H   0  0  0  0  0  0  0  0  0  0  0  0
   -0.8422   -0.8875   -2.8552 H   0  0  0  0  0  0  0  0  0  0  0  0
   -0.4816   -2.4092   -1.9237 H   0  0  0  0  0  0  0  0  0  0  0  0
    1.7785   -2.5219   -2.9081 H   0  0  0  0  0  0  0  0  0  0  0  0
    1.4477   -1.0142   -3.8729 H   0  0  0  0  0  0  0  0  0  0  0  0
    3.4027   -1.7898   -1.3464 H   0  0  0  0  0  0  0  0  0  0  0  0
    3.2429   -2.2348    0.3385 H   0  0  0  0  0  0  0  0  0  0  0  0
   -0.5824    0.9251    0.1027 H   0  0  0  0  0  0  0  0  0  0  0  0
   -1.5994   -3.0201    1.1357 H   0  0  0  0  0  0  0  0  0  0  0  0
    3.5411    0.7876   -1.9090 H   0  0  0  0  0  0  0  0  0  0  0  0
    4.1780   -0.8428    2.0404 H   0  0  0  0  0  0  0  0  0  0  0  0
   -4.5741   -2.5621    0.9984 H   0  0  0  0  0  0  0  0  0  0  0  0
   -5.5857    1.4531   -0.0678 H   0  0  0  0  0  0  0  0  0  0  0  0
   -6.2561   -0.8052    0.5247 H   0  0  0  0  0  0  0  0  0  0  0  0
    4.7596    2.8195   -1.1569 H   0  0  0  0  0  0  0  0  0  0  0  0
    5.3753    1.2638    2.6052 H   0  0  0  0  0  0  0  0  0  0  0  0
  1 12  2  0  0  0  0
  2  7  1  0  0  0  0
  3  7  2  0  0  0  0
  4  8  1  0  0  0  0
  4 11  1  0  0  0  0
  4 12  1  0  0  0  0
  5 13  1  0  0  0  0
  5 16  1  0  0  0  0
  5 33  1  0  0  0  0
  6 23  2  0  0  0  0
  6 24  1  0  0  0  0
  7 20  1  0  0  0  0
  8  9  1  0  0  0  0
  8 10  1  0  0  0  0
  8 26  1  0  0  0  0
  9 10  1  0  0  0  0
  9 27  1  0  0  0  0
  9 28  1  0  0  0  0
 10 29  1  0  0  0  0
 10 30  1  0  0  0  0
 11 14  1  0  0  0  0
 11 31  1  0  0  0  0
 11 32  1  0  0  0  0
 12 13  1  0  0  0  0
 13 15  2  0  0  0  0
 14 18  2  0  0  0  0
 14 19  1  0  0  0  0
 15 17  1  0  0  0  0
 15 34  1  0  0  0  0
 16 17  2  0  0  0  0
 16 20  1  0  0  0  0
 17 21  1  0  0  0  0
 18 23  1  0  0  0  0
 18 35  1  0  0  0  0
 19 24  2  0  0  0  0
 19 36  1  0  0  0  0
 20 22  2  0  0  0  0
 21 25  2  0  0  0  0
 21 37  1  0  0  0  0
 22 25  1  0  0  0  0
 22 38  1  0  0  0  0
 23 40  1  0  0  0  0
 24 41  1  0  0  0  0
 25 39  1  0  0  0  0
M  CHG  2   2  -1   7   1
M  END
> <PUBCHEM_COMPOUND_CID>
51090882

> <PUBCHEM_CONFORMER_RMSD>
0.8

> <PUBCHEM_CONFORMER_DIVERSEORDER>
1
94
117
136
69
119
61
125
134
25
73
95
66
36
148
109
89
18
146
27
120
52
13
103
97
108
31
63
127
34
11
26
83
87
138
112
48
21
118
80
145
101
20
14
56
135
88
16
151
132
99
142
71
72
93
152
50
86
75
122
92
78
38
74
124
9
128
65
98
23
133
67
70
37
5
129
54
64
96
43
19
62
114
35
140
3
116
110
102
84
58
59
106
111
121
100
79
60
150
137
115
90
33
91
28
29
141
139
46
44
51
130
10
149
39
49
42
82
12
68
104
81
45
57
85
17
40
76
8
6
30
53
4
15
107
131
32
113
143
77
105
144
123
41
24
2
126
147
55
22
7
47

> <PUBCHEM_MMFF94_PARTIAL_CHARGES>
38
1 -0.57
10 -0.2
11 0.44
12 0.71
13 -0.24
14 -0.14
15 -0.15
16 -0.15
18 -0.15
19 -0.15
2 -0.52
20 0.13
21 -0.15
22 -0.15
23 0.16
24 0.16
25 -0.15
26 0.1
27 0.1
28 0.1
29 0.1
3 -0.52
30 0.1
33 0.27
34 0.15
35 0.15
36 0.15
37 0.15
38 0.15
39 0.15
4 -0.51
40 0.15
41 0.15
5 0.03
6 -0.62
7 0.91
8 0.05
9 -0.2

> <PUBCHEM_EFFECTIVE_ROTOR_COUNT>
6.6

> <PUBCHEM_PHARMACOPHORE_FEATURES>
10
1 1 acceptor
1 2 acceptor
1 2 anion
1 3 acceptor
1 5 cation
1 5 donor
1 6 acceptor
5 5 13 15 16 17 rings
6 16 17 20 21 22 25 rings
6 6 14 18 19 23 24 rings

> <PUBCHEM_HEAVY_ATOM_COUNT>
25

> <PUBCHEM_ATOM_DEF_STEREO_COUNT>
0

> <PUBCHEM_ATOM_UDEF_STEREO_COUNT>
0

> <PUBCHEM_BOND_DEF_STEREO_COUNT>
0

> <PUBCHEM_BOND_UDEF_STEREO_COUNT>
0

> <PUBCHEM_ISOTOPIC_ATOM_COUNT>
0

> <PUBCHEM_COMPONENT_COUNT>
1

> <PUBCHEM_CACTVS_TAUTO_COUNT>
6

> <PUBCHEM_CONFORMER_ID>
030B95C200000001

> <PUBCHEM_MMFF94_ENERGY>
67.5301

> <PUBCHEM_FEATURE_SELFOVERLAP>
50.917

> <PUBCHEM_SHAPE_FINGERPRINT>
10319926 262 18342462573375659498
10646746 165 18342452694460111854
10670039 82 18130209515928973004
11128504 68 14779259792006891170
11595378 159 17703519847403057865
11725454 13 18187086139673363106
11796584 16 9799696999635848872
12107183 9 17770516527300047744
12166972 35 16701734948203551783
12596602 18 16845292674940873456
12633257 1 17346041057088267660
12892183 10 18131068225414078186
12969540 114 17023187093789312458
13402501 40 18336265660847564960
13583140 156 18261105296878720790
13911987 19 17023178271752354922
13965767 371 16985190372862387893
14251764 38 18189893291437757176
14341114 328 18273213058703843064
14739800 52 18270134439205215128
14790565 3 17761489597320171481
15849732 13 17749671896379221142
15961568 22 18341041931011451500
17349148 13 16486964094764859691
17980427 23 17917146079257028935
1813 80 15195288638122819582
193927 3 12247408925240863242
21618674 57 12031792457245564031
21756936 100 18122347883589678748
22149856 69 17986080051846062371
23227448 37 18263646156316935038
23557571 272 18337654408705310063
23559900 14 18120654888231802090
2838139 119 18261401026967495952
341906 21 18272925025222498228
3472631 163 18266743670057668261
392239 28 17988070081280548275
44802255 64 17826774968850879460
469060 322 17823708456000005271
5104073 3 18201717413965881843
513202 73 14906795573349902058
5951187 136 17398680480968811189
7064713 232 17775566472125906743
7808743 9 18049159969965467568
960060 61 5833715707828428032
9981440 41 18131912672109080835

> <PUBCHEM_SHAPE_MULTIPOLES>
476.96
11.35
2.75
1.84
2.09
1.93
-1.06
6.64
3.12
-1.1
-0.63
1.41
-1.11
1.53

> <PUBCHEM_SHAPE_SELFOVERLAP>
1048.153

> <PUBCHEM_SHAPE_VOLUME>
257.7

> <PUBCHEM_COORDINATE_TYPE>
2
5
10

$$$$

