11227
  -OEChem-06261205252D

 40 39  0     1  0  0  0  0  0999 V2000
    6.3301    1.3170    0.0000 P   0  0  3  0  0  0  0  0  0  0  0  0
    4.5981    0.3170    0.0000 P   0  0  0  0  0  0  0  0  0  0  0  0
    7.1962    1.8170    0.0000 O   0  0  0  0  0  0  0  0  0  0  0  0
    3.7320    0.8170    0.0000 O   0  0  0  0  0  0  0  0  0  0  0  0
    4.5981   -0.6830    0.0000 O   0  0  0  0  0  0  0  0  0  0  0  0
    5.8301    2.1830    0.0000 O   0  5  0  0  0  0  0  0  0  0  0  0
    6.8301    0.4510    0.0000 O   0  0  0  0  0  0  0  0  0  0  0  0
    5.4641    0.8170    0.0000 N   0  3  0  0  0  0  0  0  0  0  0  0
    4.9641    1.6830    0.0000 C   0  0  0  0  0  0  0  0  0  0  0  0
    5.9641   -0.0490    0.0000 C   0  0  0  0  0  0  0  0  0  0  0  0
    3.9641    1.6830    0.0000 C   0  0  0  0  0  0  0  0  0  0  0  0
    5.4641   -0.9151    0.0000 C   0  0  0  0  0  0  0  0  0  0  0  0
    2.8660    0.3170    0.0000 C   0  0  0  0  0  0  0  0  0  0  0  0
    3.7320   -1.1830    0.0000 C   0  0  0  0  0  0  0  0  0  0  0  0
    8.0622    1.3170    0.0000 C   0  0  0  0  0  0  0  0  0  0  0  0
    2.0000    0.8170    0.0000 C   0  0  0  0  0  0  0  0  0  0  0  0
    3.7320   -2.1830    0.0000 C   0  0  0  0  0  0  0  0  0  0  0  0
    6.4390   -0.4476    0.0000 H   0  0  0  0  0  0  0  0  0  0  0  0
    6.4390    0.3495    0.0000 H   0  0  0  0  0  0  0  0  0  0  0  0
    5.5467    1.8951    0.0000 H   0  0  0  0  0  0  0  0  0  0  0  0
    4.8564    2.2936    0.0000 H   0  0  0  0  0  0  0  0  0  0  0  0
    3.9641    2.3030    0.0000 H   0  0  0  0  0  0  0  0  0  0  0  0
    3.3441    1.6830    0.0000 H   0  0  0  0  0  0  0  0  0  0  0  0
    3.9641    1.0630    0.0000 H   0  0  0  0  0  0  0  0  0  0  0  0
    4.9272   -0.6051    0.0000 H   0  0  0  0  0  0  0  0  0  0  0  0
    5.1541   -1.4520    0.0000 H   0  0  0  0  0  0  0  0  0  0  0  0
    6.0010   -1.2251    0.0000 H   0  0  0  0  0  0  0  0  0  0  0  0
    3.5200   -0.6004    0.0000 H   0  0  0  0  0  0  0  0  0  0  0  0
    3.1215   -1.2907    0.0000 H   0  0  0  0  0  0  0  0  0  0  0  0
    2.4675   -0.1580    0.0000 H   0  0  0  0  0  0  0  0  0  0  0  0
    3.2646   -0.1580    0.0000 H   0  0  0  0  0  0  0  0  0  0  0  0
    7.7522    0.7801    0.0000 H   0  0  0  0  0  0  0  0  0  0  0  0
    8.5991    1.0070    0.0000 H   0  0  0  0  0  0  0  0  0  0  0  0
    8.3722    1.8539    0.0000 H   0  0  0  0  0  0  0  0  0  0  0  0
    2.3100    1.3539    0.0000 H   0  0  0  0  0  0  0  0  0  0  0  0
    1.4631    1.1270    0.0000 H   0  0  0  0  0  0  0  0  0  0  0  0
    1.6900    0.2801    0.0000 H   0  0  0  0  0  0  0  0  0  0  0  0
    3.1120   -2.1830    0.0000 H   0  0  0  0  0  0  0  0  0  0  0  0
    3.7320   -2.8030    0.0000 H   0  0  0  0  0  0  0  0  0  0  0  0
    4.3520   -2.1830    0.0000 H   0  0  0  0  0  0  0  0  0  0  0  0
  1  3  1  0  0  0  0
  1  6  1  0  0  0  0
  1  7  2  0  0  0  0
  1  8  1  0  0  0  0
  2  4  1  0  0  0  0
  2  5  1  0  0  0  0
  2  8  1  0  0  0  0
  3 15  1  0  0  0  0
  4 13  1  0  0  0  0
  5 14  1  0  0  0  0
  8  9  1  0  0  0  0
  8 10  1  0  0  0  0
  9 11  1  0  0  0  0
  9 20  1  0  0  0  0
  9 21  1  0  0  0  0
 10 12  1  0  0  0  0
 10 18  1  0  0  0  0
 10 19  1  0  0  0  0
 11 22  1  0  0  0  0
 11 23  1  0  0  0  0
 11 24  1  0  0  0  0
 12 25  1  0  0  0  0
 12 26  1  0  0  0  0
 12 27  1  0  0  0  0
 13 16  1  0  0  0  0
 13 30  1  0  0  0  0
 13 31  1  0  0  0  0
 14 17  1  0  0  0  0
 14 28  1  0  0  0  0
 14 29  1  0  0  0  0
 15 32  1  0  0  0  0
 15 33  1  0  0  0  0
 15 34  1  0  0  0  0
 16 35  1  0  0  0  0
 16 36  1  0  0  0  0
 16 37  1  0  0  0  0
 17 38  1  0  0  0  0
 17 39  1  0  0  0  0
 17 40  1  0  0  0  0
M  CHG  2   6  -1   8   1
M  END
> <PUBCHEM_COMPOUND_CID>
11227

> <PUBCHEM_COMPOUND_CANONICALIZED>
1

> <PUBCHEM_CACTVS_COMPLEXITY>
246

> <PUBCHEM_CACTVS_HBOND_ACCEPTOR>
5

> <PUBCHEM_CACTVS_HBOND_DONOR>
0

> <PUBCHEM_CACTVS_ROTATABLE_BOND>
9

> <PUBCHEM_CACTVS_SUBSKEYS>
AAADceByOAMAAAAAAAAAAAAAAAAAAAAAAAAAAAAAAAAAAAAAAAAAHgAAgCAAAADhgAYCAAIAARAAQAAAAIAAAAAAAAAAAAAIAAAAAAAAAAAAAAAAAACAAAAAAAAAAAAAAAAAAAAAAAAAAAAAAAAAAAAAAA==

> <PUBCHEM_IUPAC_OPENEYE_NAME>
[diethoxyphosphanyl(diethyl)ammonio]-methoxy-phosphinate

> <PUBCHEM_IUPAC_CAS_NAME>
[diethoxyphosphino(diethyl)ammonio]-methoxyphosphinate

> <PUBCHEM_IUPAC_NAME>
[diethoxyphosphanyl(diethyl)azaniumyl]-methoxyphosphinate

> <PUBCHEM_IUPAC_SYSTEMATIC_NAME>
[diethoxyphosphanyl(diethyl)azaniumyl]-methoxy-phosphinate

> <PUBCHEM_IUPAC_TRADITIONAL_NAME>
[diethoxyphosphino(diethyl)ammonio]-methoxy-phosphinate

> <PUBCHEM_IUPAC_INCHI>
InChI=1S/C9H23NO5P2/c1-6-10(7-2,17(11,12)13-5)16(14-8-3)15-9-4/h6-9H2,1-5H3

> <PUBCHEM_IUPAC_INCHIKEY>
ZQMSSVRFIFUJMZ-UHFFFAOYSA-N

> <PUBCHEM_XLOGP3_AA>
0.6

> <PUBCHEM_EXACT_MASS>
287.105146

> <PUBCHEM_MOLECULAR_FORMULA>
C9H23NO5P2

> <PUBCHEM_MOLECULAR_WEIGHT>
287.230144

> <PUBCHEM_OPENEYE_CAN_SMILES>
CC[N+](CC)(P(OCC)OCC)P(=O)([O-])OC

> <PUBCHEM_OPENEYE_ISO_SMILES>
CC[N+](CC)(P(OCC)OCC)P(=O)([O-])OC

> <PUBCHEM_CACTVS_TPSA>
67.8

> <PUBCHEM_MONOISOTOPIC_WEIGHT>
287.105146

> <PUBCHEM_TOTAL_CHARGE>
0

> <PUBCHEM_HEAVY_ATOM_COUNT>
17

> <PUBCHEM_ATOM_DEF_STEREO_COUNT>
0

> <PUBCHEM_ATOM_UDEF_STEREO_COUNT>
0

> <PUBCHEM_BOND_DEF_STEREO_COUNT>
0

> <PUBCHEM_BOND_UDEF_STEREO_COUNT>
0

> <PUBCHEM_ISOTOPIC_ATOM_COUNT>
0

> <PUBCHEM_COMPONENT_COUNT>
1

> <PUBCHEM_CACTVS_TAUTO_COUNT>
1

> <PUBCHEM_COORDINATE_TYPE>
1
5
255

$$$$

