17396102
  -OEChem-06241222543D

 40 42  0     0  0  0  0  0  0999 V2000
    6.0189    0.5206   -0.8560 Cl  0  0  0  0  0  0  0  0  0  0  0  0
    0.5348   -2.9485    1.6052 S   0  0  0  0  0  0  0  0  0  0  0  0
   -3.4077   -3.1111   -0.7766 O   0  0  0  0  0  0  0  0  0  0  0  0
   -3.4221   -0.8496   -0.2841 N   0  0  0  0  0  0  0  0  0  0  0  0
   -0.4348   -1.5290   -0.3256 N   0  0  0  0  0  0  0  0  0  0  0  0
   -0.0764    2.1863    0.3000 N   0  0  0  0  0  0  0  0  0  0  0  0
   -2.7994    0.3513    0.2705 C   0  0  0  0  0  0  0  0  0  0  0  0
   -1.9910    1.1250   -0.7682 C   0  0  0  0  0  0  0  0  0  0  0  0
   -1.3219    2.3518   -0.1988 C   0  0  0  0  0  0  0  0  0  0  0  0
   -2.8033   -2.1283   -0.3063 C   0  0  0  0  0  0  0  0  0  0  0  0
   -4.7693   -0.6710   -0.8100 C   0  0  0  0  0  0  0  0  0  0  0  0
   -1.4742   -2.2554    0.2219 C   0  0  0  0  0  0  0  0  0  0  0  0
   -1.9976    3.5614   -0.2124 C   0  0  0  0  0  0  0  0  0  0  0  0
    0.6716   -1.8147    0.3243 C   0  0  0  0  0  0  0  0  0  0  0  0
    1.9676   -1.2494    0.0380 C   0  0  0  0  0  0  0  0  0  0  0  0
   -1.1434   -3.0799    1.2769 C   0  0  0  0  0  0  0  0  0  0  0  0
   -1.3534    4.6727    0.3197 C   0  0  0  0  0  0  0  0  0  0  0  0
    2.2172   -0.6725   -1.2072 C   0  0  0  0  0  0  0  0  0  0  0  0
    2.9708   -1.2789    1.0067 C   0  0  0  0  0  0  0  0  0  0  0  0
    0.5181    3.2887    0.8089 C   0  0  0  0  0  0  0  0  0  0  0  0
   -0.0713    4.5422    0.8421 C   0  0  0  0  0  0  0  0  0  0  0  0
    3.4700   -0.1252   -1.4839 C   0  0  0  0  0  0  0  0  0  0  0  0
    4.2236   -0.7318    0.7300 C   0  0  0  0  0  0  0  0  0  0  0  0
    4.4732   -0.1549   -0.5151 C   0  0  0  0  0  0  0  0  0  0  0  0
   -2.1536    0.0682    1.1094 H   0  0  0  0  0  0  0  0  0  0  0  0
   -3.5861    0.9850    0.6989 H   0  0  0  0  0  0  0  0  0  0  0  0
   -1.2293    0.5018   -1.2436 H   0  0  0  0  0  0  0  0  0  0  0  0
   -2.6489    1.4280   -1.5936 H   0  0  0  0  0  0  0  0  0  0  0  0
   -4.7540    0.1106   -1.5749 H   0  0  0  0  0  0  0  0  0  0  0  0
   -5.1573   -1.5906   -1.2543 H   0  0  0  0  0  0  0  0  0  0  0  0
   -5.4294   -0.3704    0.0090 H   0  0  0  0  0  0  0  0  0  0  0  0
   -2.9986    3.6526   -0.6203 H   0  0  0  0  0  0  0  0  0  0  0  0
   -1.7819   -3.7328    1.8553 H   0  0  0  0  0  0  0  0  0  0  0  0
   -1.8495    5.6385    0.3279 H   0  0  0  0  0  0  0  0  0  0  0  0
    1.4517   -0.6389   -1.9787 H   0  0  0  0  0  0  0  0  0  0  0  0
    2.8345   -1.6872    2.0034 H   0  0  0  0  0  0  0  0  0  0  0  0
    1.5169    3.1335    1.2032 H   0  0  0  0  0  0  0  0  0  0  0  0
    0.4500    5.3947    1.2620 H   0  0  0  0  0  0  0  0  0  0  0  0
    3.6504    0.3210   -2.4585 H   0  0  0  0  0  0  0  0  0  0  0  0
    4.9947   -0.7560    1.4959 H   0  0  0  0  0  0  0  0  0  0  0  0
  1 24  1  0  0  0  0
  2 14  1  0  0  0  0
  2 16  1  0  0  0  0
  3 10  2  0  0  0  0
  4  7  1  0  0  0  0
  4 10  1  0  0  0  0
  4 11  1  0  0  0  0
  5 12  1  0  0  0  0
  5 14  2  0  0  0  0
  6  9  1  0  0  0  0
  6 20  2  0  0  0  0
  7  8  1  0  0  0  0
  7 25  1  0  0  0  0
  7 26  1  0  0  0  0
  8  9  1  0  0  0  0
  8 27  1  0  0  0  0
  8 28  1  0  0  0  0
  9 13  2  0  0  0  0
 10 12  1  0  0  0  0
 11 29  1  0  0  0  0
 11 30  1  0  0  0  0
 11 31  1  0  0  0  0
 12 16  2  0  0  0  0
 13 17  1  0  0  0  0
 13 32  1  0  0  0  0
 14 15  1  0  0  0  0
 15 18  2  0  0  0  0
 15 19  1  0  0  0  0
 16 33  1  0  0  0  0
 17 21  2  0  0  0  0
 17 34  1  0  0  0  0
 18 22  1  0  0  0  0
 18 35  1  0  0  0  0
 19 23  2  0  0  0  0
 19 36  1  0  0  0  0
 20 21  1  0  0  0  0
 20 37  1  0  0  0  0
 21 38  1  0  0  0  0
 22 24  2  0  0  0  0
 22 39  1  0  0  0  0
 23 24  1  0  0  0  0
 23 40  1  0  0  0  0
M  END
> <PUBCHEM_COMPOUND_CID>
17396102

> <PUBCHEM_CONFORMER_RMSD>
0.8

> <PUBCHEM_CONFORMER_DIVERSEORDER>
1
134
191
39
186
181
192
221
211
177
44
125
116
240
230
133
217
157
66
225
46
103
81
212
65
117
197
172
237
207
25
62
219
216
42
121
242
150
179
54
104
201
210
168
161
182
203
174
90
159
85
124
244
130
18
163
214
227
141
51
169
204
234
100
78
56
105
16
96
224
167
3
132
86
213
13
53
35
154
27
220
138
118
9
24
228
40
6
87
144
164
236
206
84
49
195
200
199
153
91
151
106
202
77
139
98
231
215
196
185
68
127
21
128
126
80
2
71
233
178
205
190
101
188
183
238
165
166
171
12
109
5
223
137
50
70
102
142
162
160
208
11
8
76
72
131
73
41
55
97
30
226
37
209
241
61
45
43
111
170
108
95
194
120
187
99
176
145
20
33
110
23
123
143
158
239
135
64
52
38
4
198
89
107
32
57
60
75
31
129
59
189
58
218
245
156
243
112
246
136
173
175
94
122
149
22
92
222
34
147
148
26
193
15
155
29
115
82
113
93
229
69
232
17
180
67
36
7
48
119
140
235
114
152
184
10
83
74
88
47
28
19
63
79
14
146

> <PUBCHEM_MMFF94_PARTIAL_CHARGES>
33
1 -0.18
10 0.72
11 0.3
12 0.14
13 -0.15
14 0.33
15 0.05
16 -0.11
17 -0.15
18 -0.15
19 -0.15
2 -0.08
20 0.16
21 -0.15
22 -0.15
23 -0.15
24 0.18
3 -0.57
32 0.15
33 0.15
34 0.15
35 0.15
36 0.15
37 0.15
38 0.15
39 0.15
4 -0.66
40 0.15
5 -0.57
6 -0.62
7 0.3
8 0.14
9 0.17

> <PUBCHEM_EFFECTIVE_ROTOR_COUNT>
6

> <PUBCHEM_PHARMACOPHORE_FEATURES>
6
1 3 acceptor
1 5 acceptor
1 6 acceptor
5 2 5 12 14 16 rings
6 15 18 19 22 23 24 rings
6 6 9 13 17 20 21 rings

> <PUBCHEM_HEAVY_ATOM_COUNT>
24

> <PUBCHEM_ATOM_DEF_STEREO_COUNT>
0

> <PUBCHEM_ATOM_UDEF_STEREO_COUNT>
0

> <PUBCHEM_BOND_DEF_STEREO_COUNT>
0

> <PUBCHEM_BOND_UDEF_STEREO_COUNT>
0

> <PUBCHEM_ISOTOPIC_ATOM_COUNT>
0

> <PUBCHEM_COMPONENT_COUNT>
1

> <PUBCHEM_CACTVS_TAUTO_COUNT>
2

> <PUBCHEM_CONFORMER_ID>
0109718600000001

> <PUBCHEM_MMFF94_ENERGY>
60.0939

> <PUBCHEM_FEATURE_SELFOVERLAP>
30.446

> <PUBCHEM_SHAPE_FINGERPRINT>
10006869 2 18123187077017237091
10498660 4 18337957907973627621
10670039 82 18340196501496140030
10871710 139 18338794623812133017
10937287 8 17833829752264644780
1100329 8 18339357470939332475
11135609 187 17908995640232293173
12107183 9 17694230267804224354
12293681 160 18271536346495296295
12553582 1 18409729564917317105
12788726 201 18412823607801897842
12954195 1 18265881618787384670
13140716 1 18341325587846787851
13402501 40 18191874422797473176
138480 1 15454805658619451209
14081887 123 18336274538802941240
14363568 33 17475494098382938304
14787075 74 18341897376484195303
14790565 3 17903071475987313177
14931854 50 18342179976810877318
14955137 171 18266433483330247803
15006816 218 17545606651945359265
15420108 30 17260482881753241346
15961568 22 18120100490127985992
17818456 19 18196670698692372642
20510252 161 18340766039259538470
20642791 35 18336839610728727953
20715895 44 17266966650377535773
20775438 99 17039531093255434519
21033650 10 18268404976503666294
21141583 151 18410289177506991686
21344244 246 17325504206816300111
23557571 272 18259982712738592230
23558518 356 17980480383983918602
392239 28 18410860941134562720
469060 322 18269252699356784737
5048184 11 17907291405787826068
5171179 24 17837483051900478947
5312544 6 17402894917643730877
532947 4 17760652460136215308
7226269 152 18342738486258756662

> <PUBCHEM_SHAPE_MULTIPOLES>
478.82
8.3
5.9
1.24
8.94
6.34
0.08
-1.17
-3.2
-5.57
2.2
0.58
-0.42
-1.05

> <PUBCHEM_SHAPE_SELFOVERLAP>
1007.956

> <PUBCHEM_SHAPE_VOLUME>
273

> <PUBCHEM_COORDINATE_TYPE>
2
5
10

$$$$

