11709
  -OEChem-06261206013D

 23 22  0     0  0  0  0  0  0999 V2000
   -0.0067   -0.4399    0.0001 S   0  0  0  0  0  0  0  0  0  0  0  0
   -0.0009   -1.1604   -1.2621 O   0  0  0  0  0  0  0  0  0  0  0  0
    0.0077   -1.1601    1.2622 O   0  0  0  0  0  0  0  0  0  0  0  0
   -1.3897    0.6560    0.0047 C   0  0  0  0  0  0  0  0  0  0  0  0
    1.3902    0.6609   -0.0048 C   0  0  0  0  0  0  0  0  0  0  0  0
   -2.7025   -0.1097    0.0092 C   0  0  0  0  0  0  0  0  0  0  0  0
    2.7009   -0.1083   -0.0092 C   0  0  0  0  0  0  0  0  0  0  0  0
   -3.8952    0.8317   -0.0067 C   0  0  0  0  0  0  0  0  0  0  0  0
    3.8960    0.8299    0.0066 C   0  0  0  0  0  0  0  0  0  0  0  0
   -1.3115    1.2864   -0.8868 H   0  0  0  0  0  0  0  0  0  0  0  0
   -1.3065    1.2880    0.8946 H   0  0  0  0  0  0  0  0  0  0  0  0
    1.3110    1.2906    0.8871 H   0  0  0  0  0  0  0  0  0  0  0  0
    1.3057    1.2917   -0.8954 H   0  0  0  0  0  0  0  0  0  0  0  0
   -2.7566   -0.7720   -0.8628 H   0  0  0  0  0  0  0  0  0  0  0  0
   -2.7619   -0.7516    0.8959 H   0  0  0  0  0  0  0  0  0  0  0  0
    2.7530   -0.7706    0.8628 H   0  0  0  0  0  0  0  0  0  0  0  0
    2.7583   -0.7504   -0.8958 H   0  0  0  0  0  0  0  0  0  0  0  0
   -4.8290    0.2608   -0.0025 H   0  0  0  0  0  0  0  0  0  0  0  0
   -3.8917    1.4839    0.8725 H   0  0  0  0  0  0  0  0  0  0  0  0
   -3.8861    1.4613   -0.9022 H   0  0  0  0  0  0  0  0  0  0  0  0
    4.8284    0.2566    0.0025 H   0  0  0  0  0  0  0  0  0  0  0  0
    3.8944    1.4820   -0.8726 H   0  0  0  0  0  0  0  0  0  0  0  0
    3.8886    1.4596    0.9020 H   0  0  0  0  0  0  0  0  0  0  0  0
  1  2  2  0  0  0  0
  1  3  2  0  0  0  0
  1  4  1  0  0  0  0
  1  5  1  0  0  0  0
  4  6  1  0  0  0  0
  4 10  1  0  0  0  0
  4 11  1  0  0  0  0
  5  7  1  0  0  0  0
  5 12  1  0  0  0  0
  5 13  1  0  0  0  0
  6  8  1  0  0  0  0
  6 14  1  0  0  0  0
  6 15  1  0  0  0  0
  7  9  1  0  0  0  0
  7 16  1  0  0  0  0
  7 17  1  0  0  0  0
  8 18  1  0  0  0  0
  8 19  1  0  0  0  0
  8 20  1  0  0  0  0
  9 21  1  0  0  0  0
  9 22  1  0  0  0  0
  9 23  1  0  0  0  0
M  END
> <PUBCHEM_COMPOUND_CID>
11709

> <PUBCHEM_CONFORMER_RMSD>
0.6

> <PUBCHEM_CONFORMER_DIVERSEORDER>
1
22
3
11
21
13
4
17
16
5
2
19
18
6
20
12
8
14
7
15
10
9

> <PUBCHEM_MMFF94_PARTIAL_CHARGES>
5
1 1.09
2 -0.65
3 -0.65
4 0.11
5 0.11

> <PUBCHEM_EFFECTIVE_ROTOR_COUNT>
4

> <PUBCHEM_PHARMACOPHORE_FEATURES>
4
1 2 acceptor
1 3 acceptor
1 8 hydrophobe
1 9 hydrophobe

> <PUBCHEM_HEAVY_ATOM_COUNT>
9

> <PUBCHEM_ATOM_DEF_STEREO_COUNT>
0

> <PUBCHEM_ATOM_UDEF_STEREO_COUNT>
0

> <PUBCHEM_BOND_DEF_STEREO_COUNT>
0

> <PUBCHEM_BOND_UDEF_STEREO_COUNT>
0

> <PUBCHEM_ISOTOPIC_ATOM_COUNT>
0

> <PUBCHEM_COMPONENT_COUNT>
1

> <PUBCHEM_CACTVS_TAUTO_COUNT>
1

> <PUBCHEM_CONFORMER_ID>
00002DBD00000001

> <PUBCHEM_MMFF94_ENERGY>
-2.3698

> <PUBCHEM_FEATURE_SELFOVERLAP>
20.314

> <PUBCHEM_SHAPE_FINGERPRINT>
11062470 55 18409448085255424360
14325111 11 18410855460133488512
15775835 57 18410857659151631712
170605 34 18411136978270842747
187816 3 15647050456530663508
20211469 26 9367354738401714012
20653085 51 18115305566562040624
21293036 1 16515686632442573408
23235685 24 18410579487004726212
23402539 116 17530973492178003508
3250762 1 15216714666082582723
366044 4 18333450932655008190

> <PUBCHEM_SHAPE_MULTIPOLES>
177.33
6.27
1.12
0.87
0.01
0.11
0
-2.68
0
0
0
0
0.3
0

> <PUBCHEM_SHAPE_SELFOVERLAP>
307.319

> <PUBCHEM_SHAPE_VOLUME>
118.3

> <PUBCHEM_COORDINATE_TYPE>
2
5
10

$$$$

