10583
  -OEChem-06261204433D

 39 39  0     1  0  0  0  0  0999 V2000
   -1.1243   -0.8292   -0.4532 C   0  0  2  0  0  0  0  0  0  0  0  0
   -0.7580    0.4430    0.3725 C   0  0  1  0  0  0  0  0  0  0  0  0
    1.6965   -0.2462    0.4399 C   0  0  1  0  0  0  0  0  0  0  0  0
    0.7015    0.8866    0.1532 C   0  0  0  0  0  0  0  0  0  0  0  0
   -0.0839   -1.9407   -0.1650 C   0  0  0  0  0  0  0  0  0  0  0  0
    1.3619   -1.4940   -0.3837 C   0  0  0  0  0  0  0  0  0  0  0  0
   -1.1800   -0.5541   -1.9718 C   0  0  0  0  0  0  0  0  0  0  0  0
   -1.6773    1.6082    0.1280 C   0  0  0  0  0  0  0  0  0  0  0  0
   -2.4823   -1.3450   -0.0261 C   0  0  0  0  0  0  0  0  0  0  0  0
    3.1042    0.2012    0.1794 C   0  0  0  0  0  0  0  0  0  0  0  0
   -2.8978    1.6815    0.9969 C   0  0  0  0  0  0  0  0  0  0  0  0
    4.0306    0.1910    1.3589 C   0  0  0  0  0  0  0  0  0  0  0  0
   -1.4202    2.5289   -0.8128 C   0  0  0  0  0  0  0  0  0  0  0  0
   -2.7821   -1.7189    1.2225 C   0  0  0  0  0  0  0  0  0  0  0  0
    3.5113    0.5877   -1.0388 C   0  0  0  0  0  0  0  0  0  0  0  0
   -0.8108    0.2011    1.4443 H   0  0  0  0  0  0  0  0  0  0  0  0
    1.5976   -0.5125    1.5017 H   0  0  0  0  0  0  0  0  0  0  0  0
    0.9328    1.7414    0.8047 H   0  0  0  0  0  0  0  0  0  0  0  0
    0.8612    1.2236   -0.8754 H   0  0  0  0  0  0  0  0  0  0  0  0
   -0.2816   -2.8207   -0.7917 H   0  0  0  0  0  0  0  0  0  0  0  0
   -0.1587   -2.2889    0.8734 H   0  0  0  0  0  0  0  0  0  0  0  0
    2.0321   -2.3160   -0.1001 H   0  0  0  0  0  0  0  0  0  0  0  0
    1.5236   -1.3255   -1.4548 H   0  0  0  0  0  0  0  0  0  0  0  0
   -2.0048    0.1150   -2.2417 H   0  0  0  0  0  0  0  0  0  0  0  0
   -0.2553   -0.1082   -2.3497 H   0  0  0  0  0  0  0  0  0  0  0  0
   -1.3377   -1.4847   -2.5314 H   0  0  0  0  0  0  0  0  0  0  0  0
   -3.2666   -1.4231   -0.7758 H   0  0  0  0  0  0  0  0  0  0  0  0
   -3.6675    0.9785    0.6710 H   0  0  0  0  0  0  0  0  0  0  0  0
   -2.6486    1.4825    2.0442 H   0  0  0  0  0  0  0  0  0  0  0  0
   -3.3466    2.6812    0.9658 H   0  0  0  0  0  0  0  0  0  0  0  0
    3.6531    0.8538    2.1444 H   0  0  0  0  0  0  0  0  0  0  0  0
    4.1154   -0.8215    1.7670 H   0  0  0  0  0  0  0  0  0  0  0  0
    5.0383    0.5286    1.0946 H   0  0  0  0  0  0  0  0  0  0  0  0
   -2.1063    3.3583   -0.9615 H   0  0  0  0  0  0  0  0  0  0  0  0
   -0.5733    2.5074   -1.4847 H   0  0  0  0  0  0  0  0  0  0  0  0
   -3.7783   -2.0806    1.4552 H   0  0  0  0  0  0  0  0  0  0  0  0
   -2.0674   -1.6755    2.0357 H   0  0  0  0  0  0  0  0  0  0  0  0
    4.5338    0.9087   -1.2102 H   0  0  0  0  0  0  0  0  0  0  0  0
    2.8488    0.5955   -1.8972 H   0  0  0  0  0  0  0  0  0  0  0  0
  1  2  1  0  0  0  0
  1  5  1  0  0  0  0
  1  7  1  0  0  0  0
  1  9  1  0  0  0  0
  2  4  1  0  0  0  0
  2  8  1  0  0  0  0
  2 16  1  0  0  0  0
  3  4  1  0  0  0  0
  3  6  1  0  0  0  0
  3 10  1  0  0  0  0
  3 17  1  0  0  0  0
  4 18  1  0  0  0  0
  4 19  1  0  0  0  0
  5  6  1  0  0  0  0
  5 20  1  0  0  0  0
  5 21  1  0  0  0  0
  6 22  1  0  0  0  0
  6 23  1  0  0  0  0
  7 24  1  0  0  0  0
  7 25  1  0  0  0  0
  7 26  1  0  0  0  0
  8 11  1  0  0  0  0
  8 13  2  0  0  0  0
  9 14  2  0  0  0  0
  9 27  1  0  0  0  0
 10 12  1  0  0  0  0
 10 15  2  0  0  0  0
 11 28  1  0  0  0  0
 11 29  1  0  0  0  0
 11 30  1  0  0  0  0
 12 31  1  0  0  0  0
 12 32  1  0  0  0  0
 12 33  1  0  0  0  0
 13 34  1  0  0  0  0
 13 35  1  0  0  0  0
 14 36  1  0  0  0  0
 14 37  1  0  0  0  0
 15 38  1  0  0  0  0
 15 39  1  0  0  0  0
M  END
> <PUBCHEM_COMPOUND_CID>
10583

> <PUBCHEM_CONFORMER_RMSD>
0.6

> <PUBCHEM_CONFORMER_DIVERSEORDER>
1
38
21
58
57
43
42
7
55
60
8
48
46
36
17
12
29
16
49
51
50
53
52
30
2
11
25
9
32
23
40
34
39
10
37
44
20
54
15
47
22
14
33
31
28
56
41
18
13
6
59
35
24
5
27
61
3
45
19
26
4

> <PUBCHEM_MMFF94_PARTIAL_CHARGES>
18
1 0.14
10 -0.28
11 0.14
12 0.14
13 -0.3
14 -0.3
15 -0.3
2 0.14
27 0.15
3 0.14
34 0.15
35 0.15
36 0.15
37 0.15
38 0.15
39 0.15
8 -0.28
9 -0.29

> <PUBCHEM_EFFECTIVE_ROTOR_COUNT>
4.2

> <PUBCHEM_PHARMACOPHORE_FEATURES>
2
1 14 hydrophobe
6 1 2 3 4 5 6 rings

> <PUBCHEM_HEAVY_ATOM_COUNT>
15

> <PUBCHEM_ATOM_DEF_STEREO_COUNT>
0

> <PUBCHEM_ATOM_UDEF_STEREO_COUNT>
3

> <PUBCHEM_BOND_DEF_STEREO_COUNT>
0

> <PUBCHEM_BOND_UDEF_STEREO_COUNT>
0

> <PUBCHEM_ISOTOPIC_ATOM_COUNT>
0

> <PUBCHEM_COMPONENT_COUNT>
1

> <PUBCHEM_CACTVS_TAUTO_COUNT>
1

> <PUBCHEM_CONFORMER_ID>
0000295700000001

> <PUBCHEM_MMFF94_ENERGY>
42.9749

> <PUBCHEM_FEATURE_SELFOVERLAP>
10.148

> <PUBCHEM_SHAPE_FINGERPRINT>
10922523 26 18187361073625645078
11132069 177 18409162225259406161
11206711 2 18334868194453076332
11680986 33 18118400893816305642
12186901 62 18189874522572611716
12423570 1 14964989644126435165
12932764 1 17603868884333103598
13024252 1 12967139345114770871
13140716 1 17904205828093752250
13380535 21 18263349451301757738
13380535 76 18265622150526473651
13380536 127 18272649035040194162
13538477 17 18202281428918262704
13764800 53 18187925118257695689
14289901 80 16056606409058365244
14614273 12 18339374057480797405
14787075 74 16909449019650101066
14817 1 6912612793610676197
15219456 202 17894905269856344102
15490181 7 17838336637900153627
15775835 57 18188208822364728048
16945 1 18187360965755739607
17844478 74 18336257951354511354
19010151 120 16773515451962186831
19422 9 18131630071887568722
200 152 15267072402072518146
20510252 161 18260546689036327136
20511035 2 18045791344809229166
20525323 117 18261684709198408302
20602899 9 15936701457677220053
20871998 184 18333728005284887773
21296965 12 18261958577719485781
21486144 27 16733261257917607298
21501502 16 18337389469136722739
21524375 3 18046353208141056221
22802520 49 17968928825086594118
2306618 200 17560539359700875972
2334 1 18336265734025240126
23402539 116 18190760659945911238
23419403 2 15290474308789737319
23598294 1 18412824672922177912
2748010 2 18261949773110563838
53812653 217 17894925026457992671
53812653 8 18340480054915209718
7097593 13 17773046460674679810
81228 2 18263652774692733210

> <PUBCHEM_SHAPE_MULTIPOLES>
308.69
5.54
2.29
1.33
4.95
0.48
-0.27
0.65
1.66
-2.05
-0.06
-0.07
-0.05
0.09

> <PUBCHEM_SHAPE_SELFOVERLAP>
615.807

> <PUBCHEM_SHAPE_VOLUME>
183.3

> <PUBCHEM_COORDINATE_TYPE>
2
5
10

$$$$

