7927
  -OEChem-06261202273D

 12 12  0     0  0  0  0  0  0999 V2000
   -2.8453   -1.2312    0.0000 Br  0  0  0  0  0  0  0  0  0  0  0  0
    2.8454   -1.2310    0.0000 Br  0  0  0  0  0  0  0  0  0  0  0  0
    0.0001   -0.9845    0.0001 C   0  0  0  0  0  0  0  0  0  0  0  0
   -1.2080   -0.2871    0.0000 C   0  0  0  0  0  0  0  0  0  0  0  0
    1.2080   -0.2870   -0.0001 C   0  0  0  0  0  0  0  0  0  0  0  0
   -1.2081    1.1077   -0.0001 C   0  0  0  0  0  0  0  0  0  0  0  0
    1.2079    1.1078    0.0001 C   0  0  0  0  0  0  0  0  0  0  0  0
   -0.0002    1.8052    0.0000 C   0  0  0  0  0  0  0  0  0  0  0  0
    0.0002   -2.0723    0.0001 H   0  0  0  0  0  0  0  0  0  0  0  0
   -2.1406    1.6664   -0.0001 H   0  0  0  0  0  0  0  0  0  0  0  0
    2.1403    1.6666    0.0001 H   0  0  0  0  0  0  0  0  0  0  0  0
   -0.0002    2.8913    0.0000 H   0  0  0  0  0  0  0  0  0  0  0  0
  1  4  1  0  0  0  0
  2  5  1  0  0  0  0
  3  4  2  0  0  0  0
  3  5  1  0  0  0  0
  3  9  1  0  0  0  0
  4  6  1  0  0  0  0
  5  7  2  0  0  0  0
  6  8  2  0  0  0  0
  6 10  1  0  0  0  0
  7  8  1  0  0  0  0
  7 11  1  0  0  0  0
  8 12  1  0  0  0  0
M  END
> <PUBCHEM_COMPOUND_CID>
7927

> <PUBCHEM_CONFORMER_RMSD>
0.4

> <PUBCHEM_CONFORMER_DIVERSEORDER>
1

> <PUBCHEM_MMFF94_PARTIAL_CHARGES>
12
1 -0.11
10 0.15
11 0.15
12 0.15
2 -0.11
3 -0.15
4 0.11
5 0.11
6 -0.15
7 -0.15
8 -0.15
9 0.15

> <PUBCHEM_EFFECTIVE_ROTOR_COUNT>
0

> <PUBCHEM_PHARMACOPHORE_FEATURES>
3
1 1 hydrophobe
1 2 hydrophobe
6 3 4 5 6 7 8 rings

> <PUBCHEM_HEAVY_ATOM_COUNT>
8

> <PUBCHEM_ATOM_DEF_STEREO_COUNT>
0

> <PUBCHEM_ATOM_UDEF_STEREO_COUNT>
0

> <PUBCHEM_BOND_DEF_STEREO_COUNT>
0

> <PUBCHEM_BOND_UDEF_STEREO_COUNT>
0

> <PUBCHEM_ISOTOPIC_ATOM_COUNT>
0

> <PUBCHEM_COMPONENT_COUNT>
1

> <PUBCHEM_CACTVS_TAUTO_COUNT>
1

> <PUBCHEM_CONFORMER_ID>
00001EF700000001

> <PUBCHEM_MMFF94_ENERGY>
15.1406

> <PUBCHEM_FEATURE_SELFOVERLAP>
15.223

> <PUBCHEM_SHAPE_FINGERPRINT>
10857977 72 18336560394641064642
14128692 85 18411694392000902630
20871998 184 18115312305371204374
20871998 22 18334284392412710502
21040471 1 17041479410821323621
23552423 10 18272928349627314422
241688 4 18412263968883321936
2748010 2 18410302405790102556
29004967 10 18197498424519839539
5084963 1 18260830401348159322

> <PUBCHEM_SHAPE_MULTIPOLES>
176.52
3.76
1.9
0.65
0
0.52
0
-2.5
0
0
0
0
-0.04
0

> <PUBCHEM_SHAPE_SELFOVERLAP>
335.032

> <PUBCHEM_SHAPE_VOLUME>
110.7

> <PUBCHEM_COORDINATE_TYPE>
2
5
10

$$$$

