47205452
  -OEChem-06241222583D

 38 39  0     0  0  0  0  0  0999 V2000
   -5.3167    0.0262    0.6576 S   0  0  0  0  0  0  0  0  0  0  0  0
   -6.3041   -0.9974    0.9380 O   0  0  0  0  0  0  0  0  0  0  0  0
   -5.5620    1.4143    0.9962 O   0  0  0  0  0  0  0  0  0  0  0  0
   -0.1679   -1.4284   -0.7529 O   0  0  0  0  0  0  0  0  0  0  0  0
    5.7654    1.3124    0.4181 O   0  0  0  0  0  0  0  0  0  0  0  0
   -2.4598    0.1076   -0.6251 N   0  0  0  0  0  0  0  0  0  0  0  0
    1.1117    0.5312   -0.5679 N   0  0  0  0  0  0  0  0  0  0  0  0
   -3.7816   -0.4699    1.4019 C   0  0  0  0  0  0  0  0  0  0  0  0
   -4.9021   -0.0660   -1.0676 C   0  0  0  0  0  0  0  0  0  0  0  0
   -3.6004    0.6663   -1.3712 C   0  0  0  0  0  0  0  0  0  0  0  0
   -2.6031    0.3071    0.8273 C   0  0  0  0  0  0  0  0  0  0  0  0
   -1.2126    0.7199   -1.0908 C   0  0  0  0  0  0  0  0  0  0  0  0
   -0.0495   -0.2078   -0.7854 C   0  0  0  0  0  0  0  0  0  0  0  0
    2.4022    0.0401   -0.2573 C   0  0  0  0  0  0  0  0  0  0  0  0
    3.4606    0.9292   -0.0703 C   0  0  0  0  0  0  0  0  0  0  0  0
    2.6155   -1.3333   -0.1381 C   0  0  0  0  0  0  0  0  0  0  0  0
    4.7323    0.4451    0.2358 C   0  0  0  0  0  0  0  0  0  0  0  0
    3.8874   -1.8173    0.1680 C   0  0  0  0  0  0  0  0  0  0  0  0
    4.9458   -0.9282    0.3550 C   0  0  0  0  0  0  0  0  0  0  0  0
    7.0390    0.7487    0.7286 C   0  0  0  0  0  0  0  0  0  0  0  0
   -4.8285   -1.1263   -1.3321 H   0  0  0  0  0  0  0  0  0  0  0  0
   -5.7350    0.3727   -1.6256 H   0  0  0  0  0  0  0  0  0  0  0  0
   -3.8730   -0.2985    2.4789 H   0  0  0  0  0  0  0  0  0  0  0  0
   -3.6651   -1.5454    1.2312 H   0  0  0  0  0  0  0  0  0  0  0  0
   -3.4208    0.5648   -2.4488 H   0  0  0  0  0  0  0  0  0  0  0  0
   -3.7098    1.7385   -1.1623 H   0  0  0  0  0  0  0  0  0  0  0  0
   -1.7033   -0.0449    1.3463 H   0  0  0  0  0  0  0  0  0  0  0  0
   -2.7091    1.3746    1.0618 H   0  0  0  0  0  0  0  0  0  0  0  0
   -1.0685    1.7208   -0.6665 H   0  0  0  0  0  0  0  0  0  0  0  0
   -1.2099    0.8253   -2.1838 H   0  0  0  0  0  0  0  0  0  0  0  0
    1.0486    1.5443   -0.6406 H   0  0  0  0  0  0  0  0  0  0  0  0
    3.3018    2.0012   -0.1616 H   0  0  0  0  0  0  0  0  0  0  0  0
    1.8482   -2.0832   -0.2676 H   0  0  0  0  0  0  0  0  0  0  0  0
    4.0539   -2.8868    0.2610 H   0  0  0  0  0  0  0  0  0  0  0  0
    5.9070   -1.3721    0.5904 H   0  0  0  0  0  0  0  0  0  0  0  0
    7.0207    0.2156    1.6853 H   0  0  0  0  0  0  0  0  0  0  0  0
    7.4120    0.1224   -0.0888 H   0  0  0  0  0  0  0  0  0  0  0  0
    7.7420    1.5808    0.8400 H   0  0  0  0  0  0  0  0  0  0  0  0
  1  2  2  0  0  0  0
  1  3  2  0  0  0  0
  1  8  1  0  0  0  0
  1  9  1  0  0  0  0
  4 13  2  0  0  0  0
  5 17  1  0  0  0  0
  5 20  1  0  0  0  0
  6 10  1  0  0  0  0
  6 11  1  0  0  0  0
  6 12  1  0  0  0  0
  7 13  1  0  0  0  0
  7 14  1  0  0  0  0
  7 31  1  0  0  0  0
  8 11  1  0  0  0  0
  8 23  1  0  0  0  0
  8 24  1  0  0  0  0
  9 10  1  0  0  0  0
  9 21  1  0  0  0  0
  9 22  1  0  0  0  0
 10 25  1  0  0  0  0
 10 26  1  0  0  0  0
 11 27  1  0  0  0  0
 11 28  1  0  0  0  0
 12 13  1  0  0  0  0
 12 29  1  0  0  0  0
 12 30  1  0  0  0  0
 14 15  2  0  0  0  0
 14 16  1  0  0  0  0
 15 17  1  0  0  0  0
 15 32  1  0  0  0  0
 16 18  2  0  0  0  0
 16 33  1  0  0  0  0
 17 19  2  0  0  0  0
 18 19  1  0  0  0  0
 18 34  1  0  0  0  0
 19 35  1  0  0  0  0
 20 36  1  0  0  0  0
 20 37  1  0  0  0  0
 20 38  1  0  0  0  0
M  END
> <PUBCHEM_COMPOUND_CID>
47205452

> <PUBCHEM_CONFORMER_RMSD>
0.8

> <PUBCHEM_CONFORMER_DIVERSEORDER>
2
58
41
15
30
55
68
8
64
22
18
57
24
7
75
11
33
72
49
74
23
17
51
21
42
12
46
43
48
70
34
52
10
29
54
71
6
38
40
56
31
65
1
62
59
50
14
9
63
67
25
32
60
66
16
5
27
28
37
26
13
47
35
44
19
61
53
69
4
45
3
73
39
36
20

> <PUBCHEM_MMFF94_PARTIAL_CHARGES>
25
1 1.09
10 0.27
11 0.27
12 0.33
13 0.57
14 0.12
15 -0.15
16 -0.15
17 0.08
18 -0.15
19 -0.15
2 -0.65
20 0.28
3 -0.65
31 0.37
32 0.15
33 0.15
34 0.15
35 0.15
4 -0.57
5 -0.36
6 -0.81
7 -0.55
8 0.11
9 0.11

> <PUBCHEM_EFFECTIVE_ROTOR_COUNT>
6

> <PUBCHEM_PHARMACOPHORE_FEATURES>
8
1 2 acceptor
1 3 acceptor
1 4 acceptor
1 5 acceptor
1 6 cation
1 7 donor
6 1 6 8 9 10 11 rings
6 14 15 16 17 18 19 rings

> <PUBCHEM_HEAVY_ATOM_COUNT>
20

> <PUBCHEM_ATOM_DEF_STEREO_COUNT>
0

> <PUBCHEM_ATOM_UDEF_STEREO_COUNT>
0

> <PUBCHEM_BOND_DEF_STEREO_COUNT>
0

> <PUBCHEM_BOND_UDEF_STEREO_COUNT>
0

> <PUBCHEM_ISOTOPIC_ATOM_COUNT>
0

> <PUBCHEM_COMPONENT_COUNT>
1

> <PUBCHEM_CACTVS_TAUTO_COUNT>
2

> <PUBCHEM_CONFORMER_ID>
02D04C4C00000002

> <PUBCHEM_MMFF94_ENERGY>
53.7656

> <PUBCHEM_FEATURE_SELFOVERLAP>
40.612

> <PUBCHEM_SHAPE_MULTIPOLES>
382
17.24
1.35
1.19
3.32
0.33
-0.03
-1.27
-6.08
0.88
0
-1.39
-0.09
0.9

> <PUBCHEM_SHAPE_SELFOVERLAP>
777.731

> <PUBCHEM_SHAPE_VOLUME>
221.4

> <PUBCHEM_COORDINATE_TYPE>
2
5
10

$$$$

