3502
  -OEChem-06251223272D

172177  0     1  0  0  0  0  0999 V2000
   18.0202    0.9663    0.0000 O   0  0  0  0  0  0  0  0  0  0  0  0
   19.3163    1.3850    0.0000 O   0  0  0  0  0  0  0  0  0  0  0  0
   14.4168    1.0919    0.0000 O   0  0  0  0  0  0  0  0  0  0  0  0
   12.1491   -0.2710    0.0000 O   0  0  0  0  0  0  0  0  0  0  0  0
   14.1527   -2.5039    0.0000 O   0  0  0  0  0  0  0  0  0  0  0  0
   22.1653    3.5948    0.0000 O   0  0  0  0  0  0  0  0  0  0  0  0
   10.5493   -2.3783    0.0000 O   0  0  0  0  0  0  0  0  0  0  0  0
    3.9639   -0.2259    0.0000 O   0  0  0  0  0  0  0  0  0  0  0  0
    2.8484    3.9429    0.0000 O   0  0  0  0  0  0  0  0  0  0  0  0
    4.6318   -0.9702    0.0000 O   0  0  0  0  0  0  0  0  0  0  0  0
    6.3246   -4.1537    0.0000 O   0  0  0  0  0  0  0  0  0  0  0  0
    9.5708   -2.5845    0.0000 O   0  0  0  0  0  0  0  0  0  0  0  0
    8.6388   -5.4361    0.0000 O   0  0  0  0  0  0  0  0  0  0  0  0
   13.5779   -7.0503    0.0000 O   0  0  0  0  0  0  0  0  0  0  0  0
   17.6630    2.6611    0.0000 N   0  0  0  0  0  0  0  0  0  0  0  0
   16.0632    0.5539    0.0000 N   0  0  0  0  0  0  0  0  0  0  0  0
   20.3368    2.7845    0.0000 N   0  0  0  0  0  0  0  0  0  0  0  0
   13.7955   -0.8091    0.0000 N   0  0  0  0  0  0  0  0  0  0  0  0
   21.1448    2.1953    0.0000 N   0  0  0  0  0  0  0  0  0  0  0  0
   15.6595    4.8940    0.0000 N   0  0  0  0  0  0  0  0  0  0  0  0
   12.1957   -2.9164    0.0000 N   0  0  0  0  0  0  0  0  0  0  0  0
    3.8163    2.4467    0.0000 N   0  0  0  0  0  0  0  0  0  0  0  0
    5.2531    0.9308    0.0000 N   0  0  0  0  0  0  0  0  0  0  0  0
   22.8671    2.0112    0.0000 N   0  0  0  0  0  0  0  0  0  0  0  0
    6.2781   -1.5083    0.0000 N   0  0  0  0  0  0  0  0  0  0  0  0
    9.9280   -4.2793    0.0000 N   0  0  0  0  0  0  0  0  0  0  0  0
    7.6138   -2.9969    0.0000 N   0  0  0  0  0  0  0  0  0  0  0  0
   15.3023    6.5888    0.0000 N   0  0  0  0  0  0  0  0  0  0  0  0
   14.0131    5.4321    0.0000 N   0  0  0  0  0  0  0  0  0  0  0  0
    4.6783   -5.2251    0.0000 N   0  0  0  0  0  0  0  0  0  0  0  0
    8.1617    1.6506    0.0000 N   0  0  0  0  0  0  0  0  0  0  0  0
    7.2129    2.9613    0.0000 N   0  0  0  0  0  0  0  0  0  0  0  0
   18.6146    2.9685    0.0000 C   0  0  3  0  0  0  0  0  0  0  0  0
   18.6163    3.9685    0.0000 C   0  0  0  0  0  0  0  0  0  0  0  0
   17.6658    4.2791    0.0000 C   0  0  0  0  0  0  0  0  0  0  0  0
   17.0766    3.4712    0.0000 C   0  0  0  0  0  0  0  0  0  0  0  0
   17.3523    1.7106    0.0000 C   0  0  0  0  0  0  0  0  0  0  0  0
   16.3738    1.5044    0.0000 C   0  0  3  0  0  0  0  0  0  0  0  0
   19.4226    2.3793    0.0000 C   0  0  0  0  0  0  0  0  0  0  0  0
   15.7060    2.2487    0.0000 C   0  0  0  0  0  0  0  0  0  0  0  0
   16.0166    3.1992    0.0000 C   0  0  0  0  0  0  0  0  0  0  0  0
   14.7740   -0.6029    0.0000 C   0  0  3  0  0  0  0  0  0  0  0  0
   15.0847    0.3476    0.0000 C   0  0  0  0  0  0  0  0  0  0  0  0
   15.4418   -1.3472    0.0000 C   0  0  0  0  0  0  0  0  0  0  0  0
   16.3924   -1.6578    0.0000 C   0  0  0  0  0  0  0  0  0  0  0  0
   15.3488    3.9435    0.0000 C   0  0  0  0  0  0  0  0  0  0  0  0
   16.5986   -2.6364    0.0000 C   0  0  0  0  0  0  0  0  0  0  0  0
   17.1367   -0.9900    0.0000 C   0  0  0  0  0  0  0  0  0  0  0  0
   13.4848   -1.7596    0.0000 C   0  0  0  0  0  0  0  0  0  0  0  0
   12.5063   -1.9658    0.0000 C   0  0  3  0  0  0  0  0  0  0  0  0
   11.8385   -1.2215    0.0000 C   0  0  0  0  0  0  0  0  0  0  0  0
   22.0591    2.6004    0.0000 C   0  0  0  0  0  0  0  0  0  0  0  0
    3.6067    1.4689    0.0000 C   0  0  3  0  0  0  0  0  0  0  0  0
    2.6120    1.3661    0.0000 C   0  0  0  0  0  0  0  0  0  0  0  0
   11.4813    0.4733    0.0000 C   0  0  0  0  0  0  0  0  0  0  0  0
   14.9916    5.6383    0.0000 C   0  0  0  0  0  0  0  0  0  0  0  0
    5.9209    0.1865    0.0000 C   0  0  3  0  0  0  0  0  0  0  0  0
    2.2069    2.2803    0.0000 C   0  0  0  0  0  0  0  0  0  0  0  0
   11.2171   -3.1226    0.0000 C   0  0  0  0  0  0  0  0  0  0  0  0
    5.9674   -2.4588    0.0000 C   0  0  3  0  0  0  0  0  0  0  0  0
   10.9065   -4.0731    0.0000 C   0  0  3  0  0  0  0  0  0  0  0  0
    4.2746    0.7246    0.0000 C   0  0  0  0  0  0  0  0  0  0  0  0
    4.9889   -2.6651    0.0000 C   0  0  0  0  0  0  0  0  0  0  0  0
    2.9512    2.9482    0.0000 C   0  0  0  0  0  0  0  0  0  0  0  0
    6.8994    0.3927    0.0000 C   0  0  0  0  0  0  0  0  0  0  0  0
    5.6103   -0.7640    0.0000 C   0  0  0  0  0  0  0  0  0  0  0  0
    4.6783   -3.6156    0.0000 C   0  0  0  0  0  0  0  0  0  0  0  0
   12.2256    1.1411    0.0000 C   0  0  0  0  0  0  0  0  0  0  0  0
   10.8134    1.2176    0.0000 C   0  0  0  0  0  0  0  0  0  0  0  0
   10.7370   -0.1946    0.0000 C   0  0  0  0  0  0  0  0  0  0  0  0
    8.2816   -3.7412    0.0000 C   0  0  3  0  0  0  0  0  0  0  0  0
    6.6353   -3.2032    0.0000 C   0  0  0  0  0  0  0  0  0  0  0  0
   11.5743   -4.8174    0.0000 C   0  0  0  0  0  0  0  0  0  0  0  0
    3.7320   -3.9203    0.0000 C   0  0  0  0  0  0  0  0  0  0  0  0
    9.2601   -3.5350    0.0000 C   0  0  0  0  0  0  0  0  0  0  0  0
    7.2101    1.3432    0.0000 C   0  0  0  0  0  0  0  0  0  0  0  0
    3.7320   -4.9203    0.0000 C   0  0  0  0  0  0  0  0  0  0  0  0
    5.2619   -4.4203    0.0000 C   0  0  0  0  0  0  0  0  0  0  0  0
    7.9710   -4.6918    0.0000 C   0  0  0  0  0  0  0  0  0  0  0  0
   12.5528   -4.6112    0.0000 C   0  0  0  0  0  0  0  0  0  0  0  0
   11.2637   -5.7679    0.0000 C   0  0  0  0  0  0  0  0  0  0  0  0
    2.8660   -3.4203    0.0000 C   0  0  0  0  0  0  0  0  0  0  0  0
    2.8660   -5.4203    0.0000 C   0  0  0  0  0  0  0  0  0  0  0  0
    6.6237    2.1533    0.0000 C   0  0  0  0  0  0  0  0  0  0  0  0
    2.0000   -3.9203    0.0000 C   0  0  0  0  0  0  0  0  0  0  0  0
    2.0000   -4.9203    0.0000 C   0  0  0  0  0  0  0  0  0  0  0  0
   13.2207   -5.3555    0.0000 C   0  0  0  0  0  0  0  0  0  0  0  0
   11.9315   -6.5122    0.0000 C   0  0  0  0  0  0  0  0  0  0  0  0
    8.1634    2.6506    0.0000 C   0  0  0  0  0  0  0  0  0  0  0  0
   12.9100   -6.3060    0.0000 C   0  0  0  0  0  0  0  0  0  0  0  0
   18.5165    2.3563    0.0000 H   0  0  0  0  0  0  0  0  0  0  0  0
   19.2328    3.9026    0.0000 H   0  0  0  0  0  0  0  0  0  0  0  0
   18.7463    4.5747    0.0000 H   0  0  0  0  0  0  0  0  0  0  0  0
   17.9189    4.8451    0.0000 H   0  0  0  0  0  0  0  0  0  0  0  0
   17.1294    4.5901    0.0000 H   0  0  0  0  0  0  0  0  0  0  0  0
   16.6166    3.8868    0.0000 H   0  0  0  0  0  0  0  0  0  0  0  0
   16.6151    3.0571    0.0000 H   0  0  0  0  0  0  0  0  0  0  0  0
   16.7879    1.0429    0.0000 H   0  0  0  0  0  0  0  0  0  0  0  0
   15.1591    2.5407    0.0000 H   0  0  0  0  0  0  0  0  0  0  0  0
   15.3234    1.7608    0.0000 H   0  0  0  0  0  0  0  0  0  0  0  0
   16.4772    0.0924    0.0000 H   0  0  0  0  0  0  0  0  0  0  0  0
   16.5636    2.9072    0.0000 H   0  0  0  0  0  0  0  0  0  0  0  0
   16.3992    3.6871    0.0000 H   0  0  0  0  0  0  0  0  0  0  0  0
   14.3599   -0.1414    0.0000 H   0  0  0  0  0  0  0  0  0  0  0  0
   20.4027    3.4010    0.0000 H   0  0  0  0  0  0  0  0  0  0  0  0
   14.8666   -1.5784    0.0000 H   0  0  0  0  0  0  0  0  0  0  0  0
   15.7804   -0.8278    0.0000 H   0  0  0  0  0  0  0  0  0  0  0  0
   16.9817   -1.8505    0.0000 H   0  0  0  0  0  0  0  0  0  0  0  0
   14.8019    4.2355    0.0000 H   0  0  0  0  0  0  0  0  0  0  0  0
   14.9662    3.4556    0.0000 H   0  0  0  0  0  0  0  0  0  0  0  0
   13.3814   -0.3476    0.0000 H   0  0  0  0  0  0  0  0  0  0  0  0
   21.0790    1.5788    0.0000 H   0  0  0  0  0  0  0  0  0  0  0  0
   15.9919   -2.7642    0.0000 H   0  0  0  0  0  0  0  0  0  0  0  0
   16.7264   -3.2430    0.0000 H   0  0  0  0  0  0  0  0  0  0  0  0
   17.2052   -2.5085    0.0000 H   0  0  0  0  0  0  0  0  0  0  0  0
   17.5507   -1.4515    0.0000 H   0  0  0  0  0  0  0  0  0  0  0  0
   17.5981   -0.5759    0.0000 H   0  0  0  0  0  0  0  0  0  0  0  0
   16.7226   -0.5285    0.0000 H   0  0  0  0  0  0  0  0  0  0  0  0
   11.8996   -2.0937    0.0000 H   0  0  0  0  0  0  0  0  0  0  0  0
   11.2916   -0.9295    0.0000 H   0  0  0  0  0  0  0  0  0  0  0  0
   11.4559   -1.7094    0.0000 H   0  0  0  0  0  0  0  0  0  0  0  0
   12.6097   -3.3778    0.0000 H   0  0  0  0  0  0  0  0  0  0  0  0
    4.2059    1.6283    0.0000 H   0  0  0  0  0  0  0  0  0  0  0  0
    2.0220    1.1755    0.0000 H   0  0  0  0  0  0  0  0  0  0  0  0
    2.7399    0.7594    0.0000 H   0  0  0  0  0  0  0  0  0  0  0  0
    6.1135    0.7758    0.0000 H   0  0  0  0  0  0  0  0  0  0  0  0
    1.8433    2.7825    0.0000 H   0  0  0  0  0  0  0  0  0  0  0  0
    1.6694    1.9712    0.0000 H   0  0  0  0  0  0  0  0  0  0  0  0
    5.5534   -1.9974    0.0000 H   0  0  0  0  0  0  0  0  0  0  0  0
   10.7139   -4.6624    0.0000 H   0  0  0  0  0  0  0  0  0  0  0  0
    4.3832    2.6979    0.0000 H   0  0  0  0  0  0  0  0  0  0  0  0
    4.9684   -2.0454    0.0000 H   0  0  0  0  0  0  0  0  0  0  0  0
    4.3751   -2.5777    0.0000 H   0  0  0  0  0  0  0  0  0  0  0  0
    5.4457    1.5201    0.0000 H   0  0  0  0  0  0  0  0  0  0  0  0
    6.9200   -0.2270    0.0000 H   0  0  0  0  0  0  0  0  0  0  0  0
    7.5132    0.3054    0.0000 H   0  0  0  0  0  0  0  0  0  0  0  0
   23.4339    2.2624    0.0000 H   0  0  0  0  0  0  0  0  0  0  0  0
   22.8012    1.3948    0.0000 H   0  0  0  0  0  0  0  0  0  0  0  0
    6.8848   -1.3805    0.0000 H   0  0  0  0  0  0  0  0  0  0  0  0
   10.3229    0.2669    0.0000 H   0  0  0  0  0  0  0  0  0  0  0  0
   10.2755   -0.6086    0.0000 H   0  0  0  0  0  0  0  0  0  0  0  0
   11.1511   -0.6560    0.0000 H   0  0  0  0  0  0  0  0  0  0  0  0
   11.2749    1.6316    0.0000 H   0  0  0  0  0  0  0  0  0  0  0  0
   10.3994    1.6790    0.0000 H   0  0  0  0  0  0  0  0  0  0  0  0
   10.3520    0.8035    0.0000 H   0  0  0  0  0  0  0  0  0  0  0  0
   12.6397    0.6797    0.0000 H   0  0  0  0  0  0  0  0  0  0  0  0
   12.6871    1.5552    0.0000 H   0  0  0  0  0  0  0  0  0  0  0  0
   11.8115    1.6026    0.0000 H   0  0  0  0  0  0  0  0  0  0  0  0
    8.4742   -3.1519    0.0000 H   0  0  0  0  0  0  0  0  0  0  0  0
    9.7354   -4.8686    0.0000 H   0  0  0  0  0  0  0  0  0  0  0  0
    7.8064   -2.4076    0.0000 H   0  0  0  0  0  0  0  0  0  0  0  0
   14.8882    7.0503    0.0000 H   0  0  0  0  0  0  0  0  0  0  0  0
   15.9090    6.7167    0.0000 H   0  0  0  0  0  0  0  0  0  0  0  0
   13.5990    5.8936    0.0000 H   0  0  0  0  0  0  0  0  0  0  0  0
   13.8205    4.8428    0.0000 H   0  0  0  0  0  0  0  0  0  0  0  0
    5.8819   -4.4203    0.0000 H   0  0  0  0  0  0  0  0  0  0  0  0
    7.4240   -4.3997    0.0000 H   0  0  0  0  0  0  0  0  0  0  0  0
    7.5884   -5.1797    0.0000 H   0  0  0  0  0  0  0  0  0  0  0  0
    4.8709   -5.8144    0.0000 H   0  0  0  0  0  0  0  0  0  0  0  0
   12.7454   -4.0219    0.0000 H   0  0  0  0  0  0  0  0  0  0  0  0
   10.6570   -5.8958    0.0000 H   0  0  0  0  0  0  0  0  0  0  0  0
    2.8660   -2.8003    0.0000 H   0  0  0  0  0  0  0  0  0  0  0  0
    8.6626    1.2853    0.0000 H   0  0  0  0  0  0  0  0  0  0  0  0
    2.8660   -6.0403    0.0000 H   0  0  0  0  0  0  0  0  0  0  0  0
    6.0037    2.1543    0.0000 H   0  0  0  0  0  0  0  0  0  0  0  0
    1.4631   -3.6103    0.0000 H   0  0  0  0  0  0  0  0  0  0  0  0
    1.4631   -5.2303    0.0000 H   0  0  0  0  0  0  0  0  0  0  0  0
   13.8274   -5.2276    0.0000 H   0  0  0  0  0  0  0  0  0  0  0  0
   11.7389   -7.1016    0.0000 H   0  0  0  0  0  0  0  0  0  0  0  0
    8.6656    3.0142    0.0000 H   0  0  0  0  0  0  0  0  0  0  0  0
    8.4462   -6.0254    0.0000 H   0  0  0  0  0  0  0  0  0  0  0  0
   14.1845   -6.9224    0.0000 H   0  0  0  0  0  0  0  0  0  0  0  0
  1 37  2  0  0  0  0
  2 39  2  0  0  0  0
  3 43  2  0  0  0  0
  4 51  1  0  0  0  0
  4 55  1  0  0  0  0
  5 49  2  0  0  0  0
  6 52  2  0  0  0  0
  7 59  2  0  0  0  0
  8 62  2  0  0  0  0
  9 64  2  0  0  0  0
 10 66  2  0  0  0  0
 11 72  2  0  0  0  0
 12 75  2  0  0  0  0
 13 79  1  0  0  0  0
 13171  1  0  0  0  0
 14 90  1  0  0  0  0
 14172  1  0  0  0  0
 15 33  1  0  0  0  0
 15 36  1  0  0  0  0
 15 37  1  0  0  0  0
 16 38  1  0  0  0  0
 16 43  1  0  0  0  0
 16101  1  0  0  0  0
 17 19  1  0  0  0  0
 17 39  1  0  0  0  0
 17105  1  0  0  0  0
 18 42  1  0  0  0  0
 18 49  1  0  0  0  0
 18111  1  0  0  0  0
 19 52  1  0  0  0  0
 19112  1  0  0  0  0
 20 46  1  0  0  0  0
 20 56  2  0  0  0  0
 21 50  1  0  0  0  0
 21 59  1  0  0  0  0
 21122  1  0  0  0  0
 22 53  1  0  0  0  0
 22 64  1  0  0  0  0
 22131  1  0  0  0  0
 23 57  1  0  0  0  0
 23 62  1  0  0  0  0
 23134  1  0  0  0  0
 24 52  1  0  0  0  0
 24137  1  0  0  0  0
 24138  1  0  0  0  0
 25 60  1  0  0  0  0
 25 66  1  0  0  0  0
 25139  1  0  0  0  0
 26 61  1  0  0  0  0
 26 75  1  0  0  0  0
 26150  1  0  0  0  0
 27 71  1  0  0  0  0
 27 72  1  0  0  0  0
 27151  1  0  0  0  0
 28 56  1  0  0  0  0
 28152  1  0  0  0  0
 28153  1  0  0  0  0
 29 56  1  0  0  0  0
 29154  1  0  0  0  0
 29155  1  0  0  0  0
 30 77  1  0  0  0  0
 30 78  1  0  0  0  0
 30159  1  0  0  0  0
 31 76  1  0  0  0  0
 31 89  1  0  0  0  0
 31163  1  0  0  0  0
 32 84  1  0  0  0  0
 32 89  2  0  0  0  0
 33 34  1  0  0  0  0
 33 39  1  0  0  0  0
 33 91  1  0  0  0  0
 34 35  1  0  0  0  0
 34 92  1  0  0  0  0
 34 93  1  0  0  0  0
 35 36  1  0  0  0  0
 35 94  1  0  0  0  0
 35 95  1  0  0  0  0
 36 96  1  0  0  0  0
 36 97  1  0  0  0  0
 37 38  1  0  0  0  0
 38 40  1  0  0  0  0
 38 98  1  0  0  0  0
 40 41  1  0  0  0  0
 40 99  1  0  0  0  0
 40100  1  0  0  0  0
 41 46  1  0  0  0  0
 41102  1  0  0  0  0
 41103  1  0  0  0  0
 42 43  1  0  0  0  0
 42 44  1  0  0  0  0
 42104  1  0  0  0  0
 44 45  1  0  0  0  0
 44106  1  0  0  0  0
 44107  1  0  0  0  0
 45 47  1  0  0  0  0
 45 48  1  0  0  0  0
 45108  1  0  0  0  0
 46109  1  0  0  0  0
 46110  1  0  0  0  0
 47113  1  0  0  0  0
 47114  1  0  0  0  0
 47115  1  0  0  0  0
 48116  1  0  0  0  0
 48117  1  0  0  0  0
 48118  1  0  0  0  0
 49 50  1  0  0  0  0
 50 51  1  0  0  0  0
 50119  1  0  0  0  0
 51120  1  0  0  0  0
 51121  1  0  0  0  0
 53 54  1  0  0  0  0
 53 62  1  0  0  0  0
 53123  1  0  0  0  0
 54 58  1  0  0  0  0
 54124  1  0  0  0  0
 54125  1  0  0  0  0
 55 68  1  0  0  0  0
 55 69  1  0  0  0  0
 55 70  1  0  0  0  0
 57 65  1  0  0  0  0
 57 66  1  0  0  0  0
 57126  1  0  0  0  0
 58 64  1  0  0  0  0
 58127  1  0  0  0  0
 58128  1  0  0  0  0
 59 61  1  0  0  0  0
 60 63  1  0  0  0  0
 60 72  1  0  0  0  0
 60129  1  0  0  0  0
 61 73  1  0  0  0  0
 61130  1  0  0  0  0
 63 67  1  0  0  0  0
 63132  1  0  0  0  0
 63133  1  0  0  0  0
 65 76  1  0  0  0  0
 65135  1  0  0  0  0
 65136  1  0  0  0  0
 67 74  1  0  0  0  0
 67 78  2  0  0  0  0
 68146  1  0  0  0  0
 68147  1  0  0  0  0
 68148  1  0  0  0  0
 69143  1  0  0  0  0
 69144  1  0  0  0  0
 69145  1  0  0  0  0
 70140  1  0  0  0  0
 70141  1  0  0  0  0
 70142  1  0  0  0  0
 71 75  1  0  0  0  0
 71 79  1  0  0  0  0
 71149  1  0  0  0  0
 73 80  2  0  0  0  0
 73 81  1  0  0  0  0
 74 77  1  0  0  0  0
 74 82  2  0  0  0  0
 76 84  2  0  0  0  0
 77 83  2  0  0  0  0
 78156  1  0  0  0  0
 79157  1  0  0  0  0
 79158  1  0  0  0  0
 80 87  1  0  0  0  0
 80160  1  0  0  0  0
 81 88  2  0  0  0  0
 81161  1  0  0  0  0
 82 85  1  0  0  0  0
 82162  1  0  0  0  0
 83 86  1  0  0  0  0
 83164  1  0  0  0  0
 84165  1  0  0  0  0
 85 86  2  0  0  0  0
 85166  1  0  0  0  0
 86167  1  0  0  0  0
 87 90  2  0  0  0  0
 87168  1  0  0  0  0
 88 90  1  0  0  0  0
 88169  1  0  0  0  0
 89170  1  0  0  0  0
M  END
> <PUBCHEM_COMPOUND_CID>
3502

> <PUBCHEM_COMPOUND_CANONICALIZED>
1

> <PUBCHEM_CACTVS_COMPLEXITY>
2540

> <PUBCHEM_CACTVS_HBOND_ACCEPTOR>
16

> <PUBCHEM_CACTVS_HBOND_DONOR>
17

> <PUBCHEM_CACTVS_ROTATABLE_BOND>
31

> <PUBCHEM_CACTVS_SUBSKEYS>
AAADcfB//AAAAAAAAAAAAAAAAAAAAWLFiwAwYAAAAAAAAFgB/AAAHgAYCAAADWzhngY/1vfrlgCoAzV3dACCgC2xMqIf+aG+fJiKfvbC3bOXcAh+9hPY2Cec28OOoAAAAAACAABAAAAAAAQAAAAAAAAAAA==

> <PUBCHEM_IUPAC_OPENEYE_NAME>
N-[2-[[2-[[2-[[2-[[1-(tert-butoxymethyl)-2-[[1-[[4-guanidino-1-[2-(ureidocarbamoyl)pyrrolidine-1-carbonyl]butyl]carbamoyl]-3-methyl-butyl]amino]-2-oxo-ethyl]amino]-1-(4-hydroxyphenyl)-2-oxo-ethyl]amino]-1-(hydroxymethyl)-2-oxo-ethyl]amino]-1-(1H-indol-3-ylmethyl)-2-oxo-ethyl]amino]-1-(1H-imidazol-5-ylmethyl)-2-oxo-ethyl]-5-oxo-pyrrolidine-2-carboxamide

> <PUBCHEM_IUPAC_CAS_NAME>
N-[1-[[1-[[1-[[2-[[1-[[1-[[1-[2-[(carbamoylhydrazo)-oxomethyl]-1-pyrrolidinyl]-5-(diaminomethylideneamino)-1-oxopentan-2-yl]amino]-4-methyl-1-oxopentan-2-yl]amino]-3-[(2-methylpropan-2-yl)oxy]-1-oxopropan-2-yl]amino]-1-(4-hydroxyphenyl)-2-oxoethyl]amino]-3-hydroxy-1-oxopropan-2-yl]amino]-3-(1H-indol-3-yl)-1-oxopropan-2-yl]amino]-3-(1H-imidazol-5-yl)-1-oxopropan-2-yl]-5-oxo-2-pyrrolidinecarboxamide

> <PUBCHEM_IUPAC_NAME>
N-[1-[[1-[[1-[[2-[[1-[[1-[[1-[2-[(carbamoylamino)carbamoyl]pyrrolidin-1-yl]-5-(diaminomethylideneamino)-1-oxopentan-2-yl]amino]-4-methyl-1-oxopentan-2-yl]amino]-3-[(2-methylpropan-2-yl)oxy]-1-oxopropan-2-yl]amino]-1-(4-hydroxyphenyl)-2-oxoethyl]amino]-3-hydroxy-1-oxopropan-2-yl]amino]-3-(1H-indol-3-yl)-1-oxopropan-2-yl]amino]-3-(1H-imidazol-5-yl)-1-oxopropan-2-yl]-5-oxopyrrolidine-2-carboxamide

> <PUBCHEM_IUPAC_SYSTEMATIC_NAME>
N-[1-[[1-[[1-[[2-[[1-[[1-[[1-[2-[(aminocarbonylamino)carbamoyl]pyrrolidin-1-yl]-5-[bis(azanyl)methylideneamino]-1-oxidanylidene-pentan-2-yl]amino]-4-methyl-1-oxidanylidene-pentan-2-yl]amino]-3-[(2-methylpropan-2-yl)oxy]-1-oxidanylidene-propan-2-yl]amino]-1-(4-hydroxyphenyl)-2-oxidanylidene-ethyl]amino]-3-oxidanyl-1-oxidanylidene-propan-2-yl]amino]-3-(1H-indol-3-yl)-1-oxidanylidene-propan-2-yl]amino]-3-(1H-imidazol-5-yl)-1-oxidanylidene-propan-2-yl]-5-oxidanylidene-pyrrolidine-2-carboxamide

> <PUBCHEM_IUPAC_TRADITIONAL_NAME>
N-[2-[[2-[[2-[[2-[[1-(tert-butoxymethyl)-2-[[1-[[4-guanidino-1-[2-(ureidocarbamoyl)pyrrolidine-1-carbonyl]butyl]carbamoyl]-3-methyl-butyl]amino]-2-keto-ethyl]amino]-1-(4-hydroxyphenyl)-2-keto-ethyl]amino]-2-keto-1-methylol-ethyl]amino]-1-(1H-indol-3-ylmethyl)-2-keto-ethyl]amino]-1-(1H-imidazol-5-ylmethyl)-2-keto-ethyl]-5-keto-pyrrolidine-2-carboxamide

> <PUBCHEM_IUPAC_INCHI>
InChI=1S/C58H82N18O14/c1-30(2)22-39(48(81)67-38(12-8-20-63-56(59)60)55(88)76-21-9-13-44(76)53(86)74-75-57(61)89)68-52(85)43(28-90-58(3,4)5)72-54(87)46(31-14-16-34(78)17-15-31)73-51(84)42(27-77)71-49(82)40(23-32-25-64-36-11-7-6-10-35(32)36)69-50(83)41(24-33-26-62-29-65-33)70-47(80)37-18-19-45(79)66-37/h6-7,10-11,14-17,25-26,29-30,37-44,46,64,77-78H,8-9,12-13,18-24,27-28H2,1-5H3,(H,62,65)(H,66,79)(H,67,81)(H,68,85)(H,69,83)(H,70,80)(H,71,82)(H,72,87)(H,73,84)(H,74,86)(H4,59,60,63)(H3,61,75,89)

> <PUBCHEM_IUPAC_INCHIKEY>
IOXXLASIABEONY-UHFFFAOYSA-N

> <PUBCHEM_XLOGP3_AA>
-1.8

> <PUBCHEM_EXACT_MASS>
1254.625789

> <PUBCHEM_MOLECULAR_FORMULA>
C58H82N18O14

> <PUBCHEM_MOLECULAR_WEIGHT>
1255.38388

> <PUBCHEM_OPENEYE_CAN_SMILES>
CC(C)CC(C(=O)NC(CCCN=C(N)N)C(=O)N1CCCC1C(=O)NNC(=O)N)NC(=O)C(COC(C)(C)C)NC(=O)C(C2=CC=C(C=C2)O)NC(=O)C(CO)NC(=O)C(CC3=CNC4=CC=CC=C43)NC(=O)C(CC5=CN=CN5)NC(=O)C6CCC(=O)N6

> <PUBCHEM_OPENEYE_ISO_SMILES>
CC(C)CC(C(=O)NC(CCCN=C(N)N)C(=O)N1CCCC1C(=O)NNC(=O)N)NC(=O)C(COC(C)(C)C)NC(=O)C(C2=CC=C(C=C2)O)NC(=O)C(CO)NC(=O)C(CC3=CNC4=CC=CC=C43)NC(=O)C(CC5=CN=CN5)NC(=O)C6CCC(=O)N6

> <PUBCHEM_CACTVS_TPSA>
496

> <PUBCHEM_MONOISOTOPIC_WEIGHT>
1254.625789

> <PUBCHEM_TOTAL_CHARGE>
0

> <PUBCHEM_HEAVY_ATOM_COUNT>
90

> <PUBCHEM_ATOM_DEF_STEREO_COUNT>
0

> <PUBCHEM_ATOM_UDEF_STEREO_COUNT>
9

> <PUBCHEM_BOND_DEF_STEREO_COUNT>
0

> <PUBCHEM_BOND_UDEF_STEREO_COUNT>
0

> <PUBCHEM_ISOTOPIC_ATOM_COUNT>
0

> <PUBCHEM_COMPONENT_COUNT>
1

> <PUBCHEM_CACTVS_TAUTO_COUNT>
1000

> <PUBCHEM_COORDINATE_TYPE>
1
5
255

> <PUBCHEM_BONDANNOTATIONS>
30  77  8
30  78  8
31  76  8
31  89  8
32  84  8
32  89  8
33  39  3
38  40  3
42  44  3
50  51  3
53  62  3
57  65  3
61  59  3
60  63  3
67  74  8
67  78  8
71  79  3
73  80  8
73  81  8
74  77  8
74  82  8
76  84  8
77  83  8
80  87  8
81  88  8
82  85  8
83  86  8
85  86  8
87  90  8
88  90  8

$$$$

