6865
  -OEChem-06261201323D

 21 22  0     0  0  0  0  0  0999 V2000
   -3.7152   -0.3373   -0.0007 O   0  0  0  0  0  0  0  0  0  0  0  0
    2.2517    2.0849   -0.0004 N   0  0  0  0  0  0  0  0  0  0  0  0
    0.3703    0.4965    0.0003 C   0  0  0  0  0  0  0  0  0  0  0  0
   -0.0776   -0.8460    0.0002 C   0  0  0  0  0  0  0  0  0  0  0  0
    1.7497    0.7603    0.0001 C   0  0  0  0  0  0  0  0  0  0  0  0
   -0.5744    1.5356    0.0003 C   0  0  0  0  0  0  0  0  0  0  0  0
   -1.4570   -1.1097    0.0002 C   0  0  0  0  0  0  0  0  0  0  0  0
    0.8671   -1.8852    0.0001 C   0  0  0  0  0  0  0  0  0  0  0  0
    2.6743   -0.2846   -0.0002 C   0  0  0  0  0  0  0  0  0  0  0  0
   -2.3816   -0.0650    0.0001 C   0  0  0  0  0  0  0  0  0  0  0  0
   -1.9411    1.2552    0.0001 C   0  0  0  0  0  0  0  0  0  0  0  0
    2.2338   -1.6048   -0.0002 C   0  0  0  0  0  0  0  0  0  0  0  0
   -0.2928    2.5841    0.0003 H   0  0  0  0  0  0  0  0  0  0  0  0
   -1.8179   -2.1367    0.0001 H   0  0  0  0  0  0  0  0  0  0  0  0
    0.5457   -2.9246    0.0001 H   0  0  0  0  0  0  0  0  0  0  0  0
    3.7427   -0.0833   -0.0005 H   0  0  0  0  0  0  0  0  0  0  0  0
   -2.6520    2.0773   -0.0001 H   0  0  0  0  0  0  0  0  0  0  0  0
    2.9539   -2.4179   -0.0004 H   0  0  0  0  0  0  0  0  0  0  0  0
    1.6461    2.8912    0.0012 H   0  0  0  0  0  0  0  0  0  0  0  0
    3.2532    2.2314    0.0000 H   0  0  0  0  0  0  0  0  0  0  0  0
   -4.2083    0.5011   -0.0008 H   0  0  0  0  0  0  0  0  0  0  0  0
  1 10  1  0  0  0  0
  1 21  1  0  0  0  0
  2  5  1  0  0  0  0
  2 19  1  0  0  0  0
  2 20  1  0  0  0  0
  3  4  2  0  0  0  0
  3  5  1  0  0  0  0
  3  6  1  0  0  0  0
  4  7  1  0  0  0  0
  4  8  1  0  0  0  0
  5  9  2  0  0  0  0
  6 11  2  0  0  0  0
  6 13  1  0  0  0  0
  7 10  2  0  0  0  0
  7 14  1  0  0  0  0
  8 12  2  0  0  0  0
  8 15  1  0  0  0  0
  9 12  1  0  0  0  0
  9 16  1  0  0  0  0
 10 11  1  0  0  0  0
 11 17  1  0  0  0  0
 12 18  1  0  0  0  0
M  END
> <PUBCHEM_COMPOUND_CID>
6865

> <PUBCHEM_CONFORMER_RMSD>
0.4

> <PUBCHEM_CONFORMER_DIVERSEORDER>
1

> <PUBCHEM_MMFF94_PARTIAL_CHARGES>
19
1 -0.53
10 0.08
11 -0.15
12 -0.15
13 0.15
14 0.15
15 0.15
16 0.15
17 0.15
18 0.15
19 0.4
2 -0.9
20 0.4
21 0.45
5 0.1
6 -0.15
7 -0.15
8 -0.15
9 -0.15

> <PUBCHEM_EFFECTIVE_ROTOR_COUNT>
0

> <PUBCHEM_PHARMACOPHORE_FEATURES>
5
1 1 donor
1 2 cation
1 2 donor
6 3 4 5 8 9 12 rings
6 3 4 6 7 10 11 rings

> <PUBCHEM_HEAVY_ATOM_COUNT>
12

> <PUBCHEM_ATOM_DEF_STEREO_COUNT>
0

> <PUBCHEM_ATOM_UDEF_STEREO_COUNT>
0

> <PUBCHEM_BOND_DEF_STEREO_COUNT>
0

> <PUBCHEM_BOND_UDEF_STEREO_COUNT>
0

> <PUBCHEM_ISOTOPIC_ATOM_COUNT>
0

> <PUBCHEM_COMPONENT_COUNT>
1

> <PUBCHEM_CACTVS_TAUTO_COUNT>
18

> <PUBCHEM_CONFORMER_ID>
00001AD100000001

> <PUBCHEM_MMFF94_ENERGY>
46.7132

> <PUBCHEM_FEATURE_SELFOVERLAP>
25.398

> <PUBCHEM_SHAPE_FINGERPRINT>
10967382 1 18410573942212334180
11206711 2 18269270334223021661
11471102 20 18411142467439461789
12423570 1 17895481426380734398
12524768 44 18413388726402495627
12696612 119 18338229491719750736
12897270 3 18411981364419668589
13380535 76 18339364042012500466
13897977 150 18338801087526897333
14325111 11 18410575093448419685
15775835 57 18188768344849701676
161256 15 18412263960356586716
16945 1 18410856594047156614
17844478 74 18059564815580466297
17990270 104 18337672052220147046
193761 8 14735637127462182565
19973954 147 18338233881107865905
20201158 50 18412828014169506451
20645477 70 18408890646483697903
21040471 1 18194683657657279104
21501502 16 18339076111367816353
2334 1 18050286972829481570
23402655 69 18336559321279152957
23463225 33 18412265055525650882
23552423 10 18341893021397795911
23559900 14 17253995767803792774
241688 4 17834674177363003914
2748010 2 18194959634838675502
5084963 1 18187929516288271898
528886 8 18337958891558126642
53812653 166 18116718404580879504
7364860 26 18333731312773702420

> <PUBCHEM_SHAPE_MULTIPOLES>
236.1
4.24
2.01
0.6
1.8
0.28
0
-0.24
0
-0.87
0
-0.01
-0.01
0

> <PUBCHEM_SHAPE_SELFOVERLAP>
520.947

> <PUBCHEM_SHAPE_VOLUME>
127.9

> <PUBCHEM_COORDINATE_TYPE>
2
5
10

$$$$

