12906
  -OEChem-06261207312D

 38 38  0     0  0  0  0  0  0999 V2000
    2.2690    4.1200    0.0000 O   0  0  0  0  0  0  0  0  0  0  0  0
    3.7326   10.4300    0.0000 O   0  0  0  0  0  0  0  0  0  0  0  0
    2.0005   10.4300    0.0000 O   0  5  0  0  0  0  0  0  0  0  0  0
    2.8665    8.9300    0.0000 O   0  0  0  0  0  0  0  0  0  0  0  0
    2.2690    5.1200    0.0000 N   0  0  0  0  0  0  0  0  0  0  0  0
    1.4030    6.6200    0.0000 N   0  0  0  0  0  0  0  0  0  0  0  0
    0.5369    5.1200    0.0000 N   0  0  0  0  0  0  0  0  0  0  0  0
    2.8665    9.9300    0.0000 N   0  3  0  0  0  0  0  0  0  0  0  0
    3.1350    3.6200    0.0000 C   0  0  0  0  0  0  0  0  0  0  0  0
    3.1350    2.6200    0.0000 C   0  0  0  0  0  0  0  0  0  0  0  0
    4.0010    4.1200    0.0000 C   0  0  0  0  0  0  0  0  0  0  0  0
    2.2690    2.1200    0.0000 C   0  0  0  0  0  0  0  0  0  0  0  0
    4.8671    3.6200    0.0000 C   0  0  0  0  0  0  0  0  0  0  0  0
    4.0010    2.1200    0.0000 C   0  0  0  0  0  0  0  0  0  0  0  0
    4.0010    5.1200    0.0000 C   0  0  0  0  0  0  0  0  0  0  0  0
    5.7331    4.1200    0.0000 C   0  0  0  0  0  0  0  0  0  0  0  0
    2.2690    1.1200    0.0000 C   0  0  0  0  0  0  0  0  0  0  0  0
    4.8671    5.6200    0.0000 C   0  0  0  0  0  0  0  0  0  0  0  0
    4.0010    1.1200    0.0000 C   0  0  0  0  0  0  0  0  0  0  0  0
    5.7331    5.1200    0.0000 C   0  0  0  0  0  0  0  0  0  0  0  0
    3.1350    0.6200    0.0000 C   0  0  0  0  0  0  0  0  0  0  0  0
    1.4030    5.6200    0.0000 C   0  0  0  0  0  0  0  0  0  0  0  0
    3.1350    4.2400    0.0000 H   0  0  0  0  0  0  0  0  0  0  0  0
    1.7320    2.4300    0.0000 H   0  0  0  0  0  0  0  0  0  0  0  0
    4.8671    3.0000    0.0000 H   0  0  0  0  0  0  0  0  0  0  0  0
    4.5380    2.4300    0.0000 H   0  0  0  0  0  0  0  0  0  0  0  0
    3.4641    5.4300    0.0000 H   0  0  0  0  0  0  0  0  0  0  0  0
    1.7320    0.8100    0.0000 H   0  0  0  0  0  0  0  0  0  0  0  0
    6.2700    3.8100    0.0000 H   0  0  0  0  0  0  0  0  0  0  0  0
    4.5380    0.8100    0.0000 H   0  0  0  0  0  0  0  0  0  0  0  0
    4.8671    6.2400    0.0000 H   0  0  0  0  0  0  0  0  0  0  0  0
    6.2700    5.4300    0.0000 H   0  0  0  0  0  0  0  0  0  0  0  0
    3.1350    0.0000    0.0000 H   0  0  0  0  0  0  0  0  0  0  0  0
    0.8660    6.9300    0.0000 H   0  0  0  0  0  0  0  0  0  0  0  0
    1.9399    6.9300    0.0000 H   0  0  0  0  0  0  0  0  0  0  0  0
    0.0000    5.4300    0.0000 H   0  0  0  0  0  0  0  0  0  0  0  0
    0.5369    4.5000    0.0000 H   0  0  0  0  0  0  0  0  0  0  0  0
    4.2695   10.1200    0.0000 H   0  0  0  0  0  0  0  0  0  0  0  0
  1  5  1  0  0  0  0
  1  9  1  0  0  0  0
  2  8  1  0  0  0  0
  2 38  1  0  0  0  0
  3  8  1  0  0  0  0
  4  8  2  0  0  0  0
  5 22  2  0  0  0  0
  6 22  1  0  0  0  0
  6 34  1  0  0  0  0
  6 35  1  0  0  0  0
  7 22  1  0  0  0  0
  7 36  1  0  0  0  0
  7 37  1  0  0  0  0
  9 10  1  0  0  0  0
  9 11  1  0  0  0  0
  9 23  1  0  0  0  0
 10 12  2  0  0  0  0
 10 14  1  0  0  0  0
 11 13  2  0  0  0  0
 11 15  1  0  0  0  0
 12 17  1  0  0  0  0
 12 24  1  0  0  0  0
 13 16  1  0  0  0  0
 13 25  1  0  0  0  0
 14 19  2  0  0  0  0
 14 26  1  0  0  0  0
 15 18  2  0  0  0  0
 15 27  1  0  0  0  0
 16 20  2  0  0  0  0
 16 29  1  0  0  0  0
 17 21  2  0  0  0  0
 17 28  1  0  0  0  0
 18 20  1  0  0  0  0
 18 31  1  0  0  0  0
 19 21  1  0  0  0  0
 19 30  1  0  0  0  0
 20 32  1  0  0  0  0
 21 33  1  0  0  0  0
M  CHG  2   3  -1   8   1
M  END
> <PUBCHEM_COMPOUND_CID>
12906

> <PUBCHEM_COMPOUND_CANONICALIZED>
1

> <PUBCHEM_CACTVS_COMPLEXITY>
271

> <PUBCHEM_CACTVS_HBOND_ACCEPTOR>
5

> <PUBCHEM_CACTVS_HBOND_DONOR>
3

> <PUBCHEM_CACTVS_ROTATABLE_BOND>
4

> <PUBCHEM_CACTVS_SUBSKEYS>
AAADceBzuAAAAAAAAAAAAAAAAAAAAAAAAAAwYAAAAAAAAAABQAAAHgAUCAAADBSgmAIxAIBQQAChAiBCIQACAAAgAAAIiAAACIgIJiKAERCAMAAkwAEIiAeAwOAOAAAAAAAAAAAAAAAAAAAAAAAAAAAAAA==

> <PUBCHEM_IUPAC_OPENEYE_NAME>
2-benzhydryloxyguanidine; nitric acid

> <PUBCHEM_IUPAC_CAS_NAME>
2-(diphenylmethyl)oxyguanidine; nitric acid

> <PUBCHEM_IUPAC_NAME>
2-benzhydryloxyguanidine; nitric acid

> <PUBCHEM_IUPAC_SYSTEMATIC_NAME>
2-(diphenylmethyl)oxyguanidine; nitric acid

> <PUBCHEM_IUPAC_TRADITIONAL_NAME>
2-benzhydryloxyguanidine; nitric acid

> <PUBCHEM_IUPAC_INCHI>
InChI=1S/C14H15N3O.HNO3/c15-14(16)17-18-13(11-7-3-1-4-8-11)12-9-5-2-6-10-12;2-1(3)4/h1-10,13H,(H4,15,16,17);(H,2,3,4)

> <PUBCHEM_IUPAC_INCHIKEY>
DKHDOYKQPAAJJU-UHFFFAOYSA-N

> <PUBCHEM_EXACT_MASS>
304.117155

> <PUBCHEM_MOLECULAR_FORMULA>
C14H16N4O4

> <PUBCHEM_MOLECULAR_WEIGHT>
304.30124

> <PUBCHEM_OPENEYE_CAN_SMILES>
C1=CC=C(C=C1)C(C2=CC=CC=C2)ON=C(N)N.[N+](=O)(O)[O-]

> <PUBCHEM_OPENEYE_ISO_SMILES>
C1=CC=C(C=C1)C(C2=CC=CC=C2)ON=C(N)N.[N+](=O)(O)[O-]

> <PUBCHEM_CACTVS_TPSA>
140

> <PUBCHEM_MONOISOTOPIC_WEIGHT>
304.117155

> <PUBCHEM_TOTAL_CHARGE>
0

> <PUBCHEM_HEAVY_ATOM_COUNT>
22

> <PUBCHEM_ATOM_DEF_STEREO_COUNT>
0

> <PUBCHEM_ATOM_UDEF_STEREO_COUNT>
0

> <PUBCHEM_BOND_DEF_STEREO_COUNT>
0

> <PUBCHEM_BOND_UDEF_STEREO_COUNT>
0

> <PUBCHEM_ISOTOPIC_ATOM_COUNT>
0

> <PUBCHEM_COMPONENT_COUNT>
2

> <PUBCHEM_CACTVS_TAUTO_COUNT>
2

> <PUBCHEM_COORDINATE_TYPE>
1
5
255

> <PUBCHEM_BONDANNOTATIONS>
10  12  8
10  14  8
11  13  8
11  15  8
12  17  8
13  16  8
14  19  8
15  18  8
16  20  8
17  21  8
18  20  8
19  21  8

$$$$

