582820
  -OEChem-06241222443D

 36 35  0     1  0  0  0  0  0999 V2000
    0.6933   -1.9138   -0.0770 O   0  0  0  0  0  0  0  0  0  0  0  0
    0.1044    1.6737    0.3164 O   0  0  0  0  0  0  0  0  0  0  0  0
   -2.1474    0.3400   -0.3777 O   0  0  0  0  0  0  0  0  0  0  0  0
    2.8486   -0.6641    0.8424 O   0  0  0  0  0  0  0  0  0  0  0  0
   -4.1761   -0.6295    0.1526 O   0  0  0  0  0  0  0  0  0  0  0  0
    2.9010    1.0258   -2.0947 N   0  0  0  0  0  0  0  0  0  0  0  0
    0.0287   -0.6605   -0.2914 C   0  0  2  0  0  0  0  0  0  0  0  0
    0.7100    0.4018    0.5932 C   0  0  1  0  0  0  0  0  0  0  0  0
   -1.4704   -0.8695   -0.0241 C   0  0  1  0  0  0  0  0  0  0  0  0
    2.2281    0.5460    0.4030 C   0  0  2  0  0  0  0  0  0  0  0  0
   -1.8054   -1.2032    1.4255 C   0  0  0  0  0  0  0  0  0  0  0  0
    0.1402   -2.9290   -0.8953 C   0  0  0  0  0  0  0  0  0  0  0  0
    0.6568    2.6877    1.1361 C   0  0  0  0  0  0  0  0  0  0  0  0
    2.6041    0.8131   -0.9932 C   0  0  0  0  0  0  0  0  0  0  0  0
   -3.5038    0.3149   -0.2389 C   0  0  0  0  0  0  0  0  0  0  0  0
    4.2619   -0.5743    0.7655 C   0  0  0  0  0  0  0  0  0  0  0  0
   -4.0740    1.6409   -0.6425 C   0  0  0  0  0  0  0  0  0  0  0  0
    0.1462   -0.3603   -1.3417 H   0  0  0  0  0  0  0  0  0  0  0  0
    0.5306    0.1374    1.6442 H   0  0  0  0  0  0  0  0  0  0  0  0
   -1.8800   -1.6497   -0.6729 H   0  0  0  0  0  0  0  0  0  0  0  0
    2.6332    1.3398    1.0375 H   0  0  0  0  0  0  0  0  0  0  0  0
   -2.7476   -1.7498    1.5227 H   0  0  0  0  0  0  0  0  0  0  0  0
   -1.8788   -0.3043    2.0473 H   0  0  0  0  0  0  0  0  0  0  0  0
   -1.0489   -1.8628    1.8643 H   0  0  0  0  0  0  0  0  0  0  0  0
   -0.0979   -2.5751   -1.9040 H   0  0  0  0  0  0  0  0  0  0  0  0
   -0.7266   -3.3946   -0.4173 H   0  0  0  0  0  0  0  0  0  0  0  0
    0.8961   -3.7146   -0.9955 H   0  0  0  0  0  0  0  0  0  0  0  0
    1.5571    3.1159    0.6861 H   0  0  0  0  0  0  0  0  0  0  0  0
   -0.0764    3.4992    1.1877 H   0  0  0  0  0  0  0  0  0  0  0  0
    0.8401    2.3501    2.1617 H   0  0  0  0  0  0  0  0  0  0  0  0
    4.6139   -0.6273   -0.2689 H   0  0  0  0  0  0  0  0  0  0  0  0
    4.6377    0.3300    1.2553 H   0  0  0  0  0  0  0  0  0  0  0  0
    4.6788   -1.4375    1.2933 H   0  0  0  0  0  0  0  0  0  0  0  0
   -3.8435    1.8393   -1.6921 H   0  0  0  0  0  0  0  0  0  0  0  0
   -3.6677    2.4287   -0.0030 H   0  0  0  0  0  0  0  0  0  0  0  0
   -5.1609    1.6203   -0.5216 H   0  0  0  0  0  0  0  0  0  0  0  0
  1  7  1  0  0  0  0
  1 12  1  0  0  0  0
  2  8  1  0  0  0  0
  2 13  1  0  0  0  0
  3  9  1  0  0  0  0
  3 15  1  0  0  0  0
  4 10  1  0  0  0  0
  4 16  1  0  0  0  0
  5 15  2  0  0  0  0
  6 14  3  0  0  0  0
  7  8  1  0  0  0  0
  7  9  1  0  0  0  0
  7 18  1  0  0  0  0
  8 10  1  0  0  0  0
  8 19  1  0  0  0  0
  9 11  1  0  0  0  0
  9 20  1  0  0  0  0
 10 14  1  0  0  0  0
 10 21  1  0  0  0  0
 11 22  1  0  0  0  0
 11 23  1  0  0  0  0
 11 24  1  0  0  0  0
 12 25  1  0  0  0  0
 12 26  1  0  0  0  0
 12 27  1  0  0  0  0
 13 28  1  0  0  0  0
 13 29  1  0  0  0  0
 13 30  1  0  0  0  0
 15 17  1  0  0  0  0
 16 31  1  0  0  0  0
 16 32  1  0  0  0  0
 16 33  1  0  0  0  0
 17 34  1  0  0  0  0
 17 35  1  0  0  0  0
 17 36  1  0  0  0  0
M  END
> <PUBCHEM_COMPOUND_CID>
582820

> <PUBCHEM_CONFORMER_RMSD>
0.8

> <PUBCHEM_CONFORMER_DIVERSEORDER>
23
15
96
146
47
38
109
52
152
58
112
114
125
141
12
108
67
17
144
63
151
148
69
136
45
139
75
145
147
135
68
115
46
11
132
155
107
30
110
153
93
27
80
35
74
20
24
51
92
142
116
81
122
149
150
128
121
129
138
134
64
103
4
72
99
154
76
137
106
124
88
19
10
83
143
59
29
86
111
39
31
118
101
90
50
55
119
37
62
54
65
43
53
140
97
87
48
100
127
71
105
7
94
79
1
84
41
70
33
91
60
130
57
34
133
6
40
104
9
25
2
120
56
117
102
16
66
61
21
131
89
22
36
28
78
13
85
73
95
82
5
44
42
3
49
98
32
113
26
8
18
77
14
126
123

> <PUBCHEM_MMFF94_PARTIAL_CHARGES>
16
1 -0.56
10 0.48
12 0.28
13 0.28
14 0.36
15 0.66
16 0.28
17 0.06
2 -0.56
3 -0.43
4 -0.56
5 -0.57
6 -0.56
7 0.28
8 0.28
9 0.28

> <PUBCHEM_EFFECTIVE_ROTOR_COUNT>
8

> <PUBCHEM_PHARMACOPHORE_FEATURES>
5
1 1 acceptor
1 2 acceptor
1 4 acceptor
1 5 acceptor
1 6 acceptor

> <PUBCHEM_HEAVY_ATOM_COUNT>
17

> <PUBCHEM_ATOM_DEF_STEREO_COUNT>
0

> <PUBCHEM_ATOM_UDEF_STEREO_COUNT>
4

> <PUBCHEM_BOND_DEF_STEREO_COUNT>
0

> <PUBCHEM_BOND_UDEF_STEREO_COUNT>
0

> <PUBCHEM_ISOTOPIC_ATOM_COUNT>
0

> <PUBCHEM_COMPONENT_COUNT>
1

> <PUBCHEM_CACTVS_TAUTO_COUNT>
1

> <PUBCHEM_CONFORMER_ID>
0008E4A400000017

> <PUBCHEM_MMFF94_ENERGY>
57.2155

> <PUBCHEM_FEATURE_SELFOVERLAP>
25.381

> <PUBCHEM_SHAPE_FINGERPRINT>
10062212 137 18339093665220999459
10130415 120 18342746221183575232
11031198 65 18409163329319208743
124424 183 18342463642363248683
12491281 212 16558456487959422988
13380535 76 18412548738553817379
14115302 16 18272932717640696480
14957384 54 16127268856132871229
15279308 100 18263640654363667084
15490181 7 18048879589271597835
15775835 57 18340205172338784494
16752209 62 18262787579796681884
16945 1 17967799527470262514
18186145 218 17967810505659800745
18511873 20 17988932188316847706
19422 9 17703508805084025707
19784866 9 18199473327744608921
20233049 118 18411990173466586728
20511035 2 18199188386576205457
20645476 183 18058156242216616286
21501502 16 17988922219682091619
21524375 3 18342747316674730311
23402539 116 17895212007767184844
23419403 2 15244064313496555193
23493267 7 17988343915236229490
23558518 356 17906721858395055057
23559900 14 18198623426832037746
25 1 18410292549357070777
2748010 2 18120093875477066177
3060560 45 18041010543839740255
3286 77 18339376158104680061
74978 22 18116997676249617714
81228 2 17896863534330641680
9999458 23 16558752342565749091

> <PUBCHEM_SHAPE_MULTIPOLES>
315.52
6.68
2.46
1.28
2.51
0.33
-0.28
-1.22
-0.55
0.07
-0.03
-0.77
-0.2
0.11

> <PUBCHEM_SHAPE_SELFOVERLAP>
609.809

> <PUBCHEM_SHAPE_VOLUME>
189.4

> <PUBCHEM_COORDINATE_TYPE>
2
5
10

$$$$

