3772
  -OEChem-06251223403D

 21 21  0     0  0  0  0  0  0999 V2000
    1.5383   -1.2162   -0.7621 O   0  0  0  0  0  0  0  0  0  0  0  0
   -2.2089    0.1046   -0.4417 N   0  0  0  0  0  0  0  0  0  0  0  0
    2.4388    0.8226   -0.1912 N   0  0  0  0  0  0  0  0  0  0  0  0
    0.4062    0.0997    0.8861 C   0  0  0  0  0  0  0  0  0  0  0  0
   -0.5628   -1.0813    0.9734 C   0  0  0  0  0  0  0  0  0  0  0  0
   -0.3356    1.3911    0.5351 C   0  0  0  0  0  0  0  0  0  0  0  0
   -1.4963   -1.1558   -0.2360 C   0  0  0  0  0  0  0  0  0  0  0  0
   -1.2786    1.2125   -0.6559 C   0  0  0  0  0  0  0  0  0  0  0  0
    1.4989   -0.1772   -0.1077 C   0  0  0  0  0  0  0  0  0  0  0  0
    0.8946    0.2224    1.8619 H   0  0  0  0  0  0  0  0  0  0  0  0
   -1.1717   -0.9675    1.8804 H   0  0  0  0  0  0  0  0  0  0  0  0
   -0.0241   -2.0304    1.0822 H   0  0  0  0  0  0  0  0  0  0  0  0
    0.3442    2.2250    0.3313 H   0  0  0  0  0  0  0  0  0  0  0  0
   -0.9310    1.6948    1.4071 H   0  0  0  0  0  0  0  0  0  0  0  0
   -0.9528   -1.4332   -1.1458 H   0  0  0  0  0  0  0  0  0  0  0  0
   -2.2338   -1.9475   -0.0617 H   0  0  0  0  0  0  0  0  0  0  0  0
   -1.8556    2.1336   -0.7938 H   0  0  0  0  0  0  0  0  0  0  0  0
   -0.7072    1.0547   -1.5786 H   0  0  0  0  0  0  0  0  0  0  0  0
   -2.8201    0.0169   -1.2532 H   0  0  0  0  0  0  0  0  0  0  0  0
    3.2226    0.7446   -0.8309 H   0  0  0  0  0  0  0  0  0  0  0  0
    2.4200    1.6478    0.3988 H   0  0  0  0  0  0  0  0  0  0  0  0
  1  9  2  0  0  0  0
  2  7  1  0  0  0  0
  2  8  1  0  0  0  0
  2 19  1  0  0  0  0
  3  9  1  0  0  0  0
  3 20  1  0  0  0  0
  3 21  1  0  0  0  0
  4  5  1  0  0  0  0
  4  6  1  0  0  0  0
  4  9  1  0  0  0  0
  4 10  1  0  0  0  0
  5  7  1  0  0  0  0
  5 11  1  0  0  0  0
  5 12  1  0  0  0  0
  6  8  1  0  0  0  0
  6 13  1  0  0  0  0
  6 14  1  0  0  0  0
  7 15  1  0  0  0  0
  7 16  1  0  0  0  0
  8 17  1  0  0  0  0
  8 18  1  0  0  0  0
M  END
> <PUBCHEM_COMPOUND_CID>
3772

> <PUBCHEM_CONFORMER_RMSD>
0.4

> <PUBCHEM_CONFORMER_DIVERSEORDER>
1
22
4
24
9
21
14
12
2
6
23
10
25
3
5
20
19
11
15
18
13
16
17
7
8

> <PUBCHEM_MMFF94_PARTIAL_CHARGES>
10
1 -0.57
19 0.36
2 -0.9
20 0.37
21 0.37
3 -0.8
4 0.06
7 0.27
8 0.27
9 0.57

> <PUBCHEM_EFFECTIVE_ROTOR_COUNT>
2.2

> <PUBCHEM_PHARMACOPHORE_FEATURES>
5
1 1 acceptor
1 2 cation
1 2 donor
1 3 donor
6 2 4 5 6 7 8 rings

> <PUBCHEM_HEAVY_ATOM_COUNT>
9

> <PUBCHEM_ATOM_DEF_STEREO_COUNT>
0

> <PUBCHEM_ATOM_UDEF_STEREO_COUNT>
0

> <PUBCHEM_BOND_DEF_STEREO_COUNT>
0

> <PUBCHEM_BOND_UDEF_STEREO_COUNT>
0

> <PUBCHEM_ISOTOPIC_ATOM_COUNT>
0

> <PUBCHEM_COMPONENT_COUNT>
1

> <PUBCHEM_CACTVS_TAUTO_COUNT>
2

> <PUBCHEM_CONFORMER_ID>
00000EBC00000001

> <PUBCHEM_MMFF94_ENERGY>
6.5966

> <PUBCHEM_FEATURE_SELFOVERLAP>
25.371

> <PUBCHEM_SHAPE_FINGERPRINT>
12423570 1 7376034546231715563
12897270 3 18335137566354352036
137420 1 7079069774278762314
16714656 1 18342177760850305825
16945 1 18335706005154677601
18185500 45 17188423096854360371
20653085 51 17274530022938931324
21040471 1 18126022669670021041
23552423 10 18341333412966152922
24536 1 18188492500801865560
29004967 10 17749113261696164066
369184 2 16630528384412493944
5084963 1 14476963397538792505

> <PUBCHEM_SHAPE_MULTIPOLES>
169.38
2.6
1.5
0.96
0.66
0.08
0.12
0.11
-0.7
-0.27
-0.02
-0.02
-0.08
0.21

> <PUBCHEM_SHAPE_SELFOVERLAP>
333.835

> <PUBCHEM_SHAPE_VOLUME>
99.3

> <PUBCHEM_COORDINATE_TYPE>
2
5
10

$$$$

