10366
  -OEChem-06261204302D

 17 17  0     0  0  0  0  0  0999 V2000
    5.4641    2.0950    0.0000 O   0  0  0  0  0  0  0  0  0  0  0  0
    2.8660   -2.4050    0.0000 O   0  0  0  0  0  0  0  0  0  0  0  0
    3.7320    2.0950    0.0000 O   0  0  0  0  0  0  0  0  0  0  0  0
    2.0000   -0.9050    0.0000 O   0  0  0  0  0  0  0  0  0  0  0  0
    5.4641   -0.9050    0.0000 N   0  0  0  0  0  0  0  0  0  0  0  0
    4.5981    0.5950    0.0000 C   0  0  0  0  0  0  0  0  0  0  0  0
    3.7320   -0.9050    0.0000 C   0  0  0  0  0  0  0  0  0  0  0  0
    3.7320    0.0950    0.0000 C   0  0  0  0  0  0  0  0  0  0  0  0
    5.4641    0.0950    0.0000 C   0  0  0  0  0  0  0  0  0  0  0  0
    4.5981   -1.4050    0.0000 C   0  0  0  0  0  0  0  0  0  0  0  0
    4.5981    1.5950    0.0000 C   0  0  0  0  0  0  0  0  0  0  0  0
    2.8660   -1.4050    0.0000 C   0  0  0  0  0  0  0  0  0  0  0  0
    3.1951    0.4050    0.0000 H   0  0  0  0  0  0  0  0  0  0  0  0
    6.0010    0.4050    0.0000 H   0  0  0  0  0  0  0  0  0  0  0  0
    4.5981   -2.0250    0.0000 H   0  0  0  0  0  0  0  0  0  0  0  0
    5.4641    2.7150    0.0000 H   0  0  0  0  0  0  0  0  0  0  0  0
    2.3291   -2.7150    0.0000 H   0  0  0  0  0  0  0  0  0  0  0  0
  1 11  1  0  0  0  0
  1 16  1  0  0  0  0
  2 12  1  0  0  0  0
  2 17  1  0  0  0  0
  3 11  2  0  0  0  0
  4 12  2  0  0  0  0
  5  9  2  0  0  0  0
  5 10  1  0  0  0  0
  6  8  2  0  0  0  0
  6  9  1  0  0  0  0
  6 11  1  0  0  0  0
  7  8  1  0  0  0  0
  7 10  2  0  0  0  0
  7 12  1  0  0  0  0
  8 13  1  0  0  0  0
  9 14  1  0  0  0  0
 10 15  1  0  0  0  0
M  END
> <PUBCHEM_COMPOUND_CID>
10366

> <PUBCHEM_COMPOUND_CANONICALIZED>
1

> <PUBCHEM_CACTVS_COMPLEXITY>
184

> <PUBCHEM_CACTVS_HBOND_ACCEPTOR>
5

> <PUBCHEM_CACTVS_HBOND_DONOR>
2

> <PUBCHEM_CACTVS_ROTATABLE_BOND>
2

> <PUBCHEM_CACTVS_SUBSKEYS>
AAADcYBiOAAAAAAAAAAAAAAAAAAAAAAAAAAsAAAAAAAAAAABgAAAHgAACAAADADBmgQ8iJIIEgCoAjD3TACCgCA1ACAA2CEoTNgIJvrAlZGEcYhmwAHI2caYNwIMAAAAAAAAAAAAAAAAAAAAAAAAAAAAAA==

> <PUBCHEM_IUPAC_OPENEYE_NAME>
pyridine-3,5-dicarboxylic acid

> <PUBCHEM_IUPAC_CAS_NAME>
pyridine-3,5-dicarboxylic acid

> <PUBCHEM_IUPAC_NAME>
pyridine-3,5-dicarboxylic acid

> <PUBCHEM_IUPAC_SYSTEMATIC_NAME>
pyridine-3,5-dicarboxylic acid

> <PUBCHEM_IUPAC_TRADITIONAL_NAME>
dinicotinic acid

> <PUBCHEM_IUPAC_INCHI>
InChI=1S/C7H5NO4/c9-6(10)4-1-5(7(11)12)3-8-2-4/h1-3H,(H,9,10)(H,11,12)

> <PUBCHEM_IUPAC_INCHIKEY>
MPFLRYZEEAQMLQ-UHFFFAOYSA-N

> <PUBCHEM_XLOGP3_AA>
-0.1

> <PUBCHEM_EXACT_MASS>
167.021858

> <PUBCHEM_MOLECULAR_FORMULA>
C7H5NO4

> <PUBCHEM_MOLECULAR_WEIGHT>
167.1189

> <PUBCHEM_OPENEYE_CAN_SMILES>
C1=C(C=NC=C1C(=O)O)C(=O)O

> <PUBCHEM_OPENEYE_ISO_SMILES>
C1=C(C=NC=C1C(=O)O)C(=O)O

> <PUBCHEM_CACTVS_TPSA>
87.5

> <PUBCHEM_MONOISOTOPIC_WEIGHT>
167.021858

> <PUBCHEM_TOTAL_CHARGE>
0

> <PUBCHEM_HEAVY_ATOM_COUNT>
12

> <PUBCHEM_ATOM_DEF_STEREO_COUNT>
0

> <PUBCHEM_ATOM_UDEF_STEREO_COUNT>
0

> <PUBCHEM_BOND_DEF_STEREO_COUNT>
0

> <PUBCHEM_BOND_UDEF_STEREO_COUNT>
0

> <PUBCHEM_ISOTOPIC_ATOM_COUNT>
0

> <PUBCHEM_COMPONENT_COUNT>
1

> <PUBCHEM_CACTVS_TAUTO_COUNT>
1

> <PUBCHEM_COORDINATE_TYPE>
1
5
255

> <PUBCHEM_BONDANNOTATIONS>
5  10  8
5  9  8
6  8  8
6  9  8
7  10  8
7  8  8

$$$$

