12028
  -OEChem-06261206242D

 42 42  0     0  0  0  0  0  0999 V2000
    5.4641    0.2500    0.0000 O   0  0  0  0  0  0  0  0  0  0  0  0
    5.4641    2.2500    0.0000 N   0  0  0  0  0  0  0  0  0  0  0  0
    3.7320    0.2500    0.0000 N   0  0  0  0  0  0  0  0  0  0  0  0
    4.5981    1.7500    0.0000 C   0  0  0  0  0  0  0  0  0  0  0  0
    5.4641    3.2500    0.0000 C   0  0  0  0  0  0  0  0  0  0  0  0
    6.3301    1.7500    0.0000 C   0  0  0  0  0  0  0  0  0  0  0  0
    3.7320   -0.7500    0.0000 C   0  0  0  0  0  0  0  0  0  0  0  0
    2.8660   -1.2500    0.0000 C   0  0  0  0  0  0  0  0  0  0  0  0
    4.5981   -1.2500    0.0000 C   0  0  0  0  0  0  0  0  0  0  0  0
    4.5981    0.7500    0.0000 C   0  0  0  0  0  0  0  0  0  0  0  0
    3.7320   -2.7500    0.0000 C   0  0  0  0  0  0  0  0  0  0  0  0
    2.8660   -2.2500    0.0000 C   0  0  0  0  0  0  0  0  0  0  0  0
    4.5981   -2.2500    0.0000 C   0  0  0  0  0  0  0  0  0  0  0  0
    6.3301    3.7500    0.0000 C   0  0  0  0  0  0  0  0  0  0  0  0
    7.1962    2.2500    0.0000 C   0  0  0  0  0  0  0  0  0  0  0  0
    2.0000   -0.7500    0.0000 C   0  0  0  0  0  0  0  0  0  0  0  0
    5.4641   -0.7500    0.0000 C   0  0  0  0  0  0  0  0  0  0  0  0
    3.7320   -3.7500    0.0000 C   0  0  0  0  0  0  0  0  0  0  0  0
    4.3860    2.3326    0.0000 H   0  0  0  0  0  0  0  0  0  0  0  0
    3.9875    1.6423    0.0000 H   0  0  0  0  0  0  0  0  0  0  0  0
    5.2520    3.8326    0.0000 H   0  0  0  0  0  0  0  0  0  0  0  0
    4.8535    3.1423    0.0000 H   0  0  0  0  0  0  0  0  0  0  0  0
    5.9316    1.2750    0.0000 H   0  0  0  0  0  0  0  0  0  0  0  0
    6.7287    1.2750    0.0000 H   0  0  0  0  0  0  0  0  0  0  0  0
    3.1951    0.5600    0.0000 H   0  0  0  0  0  0  0  0  0  0  0  0
    2.3291   -2.5600    0.0000 H   0  0  0  0  0  0  0  0  0  0  0  0
    5.1350   -2.5600    0.0000 H   0  0  0  0  0  0  0  0  0  0  0  0
    6.6401    3.2131    0.0000 H   0  0  0  0  0  0  0  0  0  0  0  0
    6.8671    4.0600    0.0000 H   0  0  0  0  0  0  0  0  0  0  0  0
    6.0201    4.2869    0.0000 H   0  0  0  0  0  0  0  0  0  0  0  0
    7.5062    1.7131    0.0000 H   0  0  0  0  0  0  0  0  0  0  0  0
    7.7331    2.5600    0.0000 H   0  0  0  0  0  0  0  0  0  0  0  0
    6.8862    2.7869    0.0000 H   0  0  0  0  0  0  0  0  0  0  0  0
    2.3100   -0.2131    0.0000 H   0  0  0  0  0  0  0  0  0  0  0  0
    1.4631   -0.4400    0.0000 H   0  0  0  0  0  0  0  0  0  0  0  0
    1.6900   -1.2869    0.0000 H   0  0  0  0  0  0  0  0  0  0  0  0
    5.7741   -1.2869    0.0000 H   0  0  0  0  0  0  0  0  0  0  0  0
    6.0010   -0.4400    0.0000 H   0  0  0  0  0  0  0  0  0  0  0  0
    5.1541   -0.2131    0.0000 H   0  0  0  0  0  0  0  0  0  0  0  0
    3.1120   -3.7500    0.0000 H   0  0  0  0  0  0  0  0  0  0  0  0
    3.7320   -4.3700    0.0000 H   0  0  0  0  0  0  0  0  0  0  0  0
    4.3520   -3.7500    0.0000 H   0  0  0  0  0  0  0  0  0  0  0  0
  1 10  2  0  0  0  0
  2  4  1  0  0  0  0
  2  5  1  0  0  0  0
  2  6  1  0  0  0  0
  3  7  1  0  0  0  0
  3 10  1  0  0  0  0
  3 25  1  0  0  0  0
  4 10  1  0  0  0  0
  4 19  1  0  0  0  0
  4 20  1  0  0  0  0
  5 14  1  0  0  0  0
  5 21  1  0  0  0  0
  5 22  1  0  0  0  0
  6 15  1  0  0  0  0
  6 23  1  0  0  0  0
  6 24  1  0  0  0  0
  7  8  2  0  0  0  0
  7  9  1  0  0  0  0
  8 12  1  0  0  0  0
  8 16  1  0  0  0  0
  9 13  2  0  0  0  0
  9 17  1  0  0  0  0
 11 12  2  0  0  0  0
 11 13  1  0  0  0  0
 11 18  1  0  0  0  0
 12 26  1  0  0  0  0
 13 27  1  0  0  0  0
 14 28  1  0  0  0  0
 14 29  1  0  0  0  0
 14 30  1  0  0  0  0
 15 31  1  0  0  0  0
 15 32  1  0  0  0  0
 15 33  1  0  0  0  0
 16 34  1  0  0  0  0
 16 35  1  0  0  0  0
 16 36  1  0  0  0  0
 17 37  1  0  0  0  0
 17 38  1  0  0  0  0
 17 39  1  0  0  0  0
 18 40  1  0  0  0  0
 18 41  1  0  0  0  0
 18 42  1  0  0  0  0
M  END
> <PUBCHEM_COMPOUND_CID>
12028

> <PUBCHEM_COMPOUND_CANONICALIZED>
1

> <PUBCHEM_CACTVS_COMPLEXITY>
251

> <PUBCHEM_CACTVS_HBOND_ACCEPTOR>
2

> <PUBCHEM_CACTVS_HBOND_DONOR>
1

> <PUBCHEM_CACTVS_ROTATABLE_BOND>
5

> <PUBCHEM_CACTVS_SUBSKEYS>
AAADceBzIAAAAAAAAAAAAAAAAAAAAAAAAAAwAAAAAAAAAAABAAAAHgAQAAAADAjBmAQywIPAAACIAiVSUACCAAAhAAAAiACIRIgIYCLAkbGUIAhglADIyAcQgEAOCAACAAACAAAQAAQAAAQAAAAAAAAAAA==

> <PUBCHEM_IUPAC_OPENEYE_NAME>
2-(diethylamino)-N-(2,4,6-trimethylphenyl)acetamide

> <PUBCHEM_IUPAC_CAS_NAME>
2-(diethylamino)-N-(2,4,6-trimethylphenyl)acetamide

> <PUBCHEM_IUPAC_NAME>
2-(diethylamino)-N-(2,4,6-trimethylphenyl)acetamide

> <PUBCHEM_IUPAC_SYSTEMATIC_NAME>
2-(diethylamino)-N-(2,4,6-trimethylphenyl)ethanamide

> <PUBCHEM_IUPAC_TRADITIONAL_NAME>
2-(diethylamino)-N-mesityl-acetamide

> <PUBCHEM_IUPAC_INCHI>
InChI=1S/C15H24N2O/c1-6-17(7-2)10-14(18)16-15-12(4)8-11(3)9-13(15)5/h8-9H,6-7,10H2,1-5H3,(H,16,18)

> <PUBCHEM_IUPAC_INCHIKEY>
GOZBHBFUQHMKQB-UHFFFAOYSA-N

> <PUBCHEM_XLOGP3>
2.6

> <PUBCHEM_EXACT_MASS>
248.188863

> <PUBCHEM_MOLECULAR_FORMULA>
C15H24N2O

> <PUBCHEM_MOLECULAR_WEIGHT>
248.36386

> <PUBCHEM_OPENEYE_CAN_SMILES>
CCN(CC)CC(=O)NC1=C(C=C(C=C1C)C)C

> <PUBCHEM_OPENEYE_ISO_SMILES>
CCN(CC)CC(=O)NC1=C(C=C(C=C1C)C)C

> <PUBCHEM_CACTVS_TPSA>
32.3

> <PUBCHEM_MONOISOTOPIC_WEIGHT>
248.188863

> <PUBCHEM_TOTAL_CHARGE>
0

> <PUBCHEM_HEAVY_ATOM_COUNT>
18

> <PUBCHEM_ATOM_DEF_STEREO_COUNT>
0

> <PUBCHEM_ATOM_UDEF_STEREO_COUNT>
0

> <PUBCHEM_BOND_DEF_STEREO_COUNT>
0

> <PUBCHEM_BOND_UDEF_STEREO_COUNT>
0

> <PUBCHEM_ISOTOPIC_ATOM_COUNT>
0

> <PUBCHEM_COMPONENT_COUNT>
1

> <PUBCHEM_CACTVS_TAUTO_COUNT>
3

> <PUBCHEM_COORDINATE_TYPE>
1
5
255

> <PUBCHEM_BONDANNOTATIONS>
11  12  8
11  13  8
7  8  8
7  9  8
8  12  8
9  13  8

$$$$

