11898
  -OEChem-06261206153D

 19 19  0     0  0  0  0  0  0999 V2000
    2.5737    1.4961   -0.0006 O   0  5  0  0  0  0  0  0  0  0  0  0
    2.7316   -0.6934    0.0002 O   0  0  0  0  0  0  0  0  0  0  0  0
    2.0484    0.3578   -0.0002 N   0  3  0  0  0  0  0  0  0  0  0  0
   -3.5641    0.0250   -0.0006 N   0  0  0  0  0  0  0  0  0  0  0  0
   -0.0001   -0.9890    0.0001 C   0  0  0  0  0  0  0  0  0  0  0  0
    0.6298    0.2556    0.0002 C   0  0  0  0  0  0  0  0  0  0  0  0
   -1.3929   -1.0656    0.0000 C   0  0  0  0  0  0  0  0  0  0  0  0
   -2.1557    0.1023    0.0002 C   0  0  0  0  0  0  0  0  0  0  0  0
   -0.1331    1.4234    0.0003 C   0  0  0  0  0  0  0  0  0  0  0  0
   -1.5258    1.3468    0.0004 C   0  0  0  0  0  0  0  0  0  0  0  0
    0.7882   -2.2590   -0.0001 C   0  0  0  0  0  0  0  0  0  0  0  0
   -1.8905   -2.0328   -0.0003 H   0  0  0  0  0  0  0  0  0  0  0  0
    0.3196    2.4117    0.0003 H   0  0  0  0  0  0  0  0  0  0  0  0
   -2.1097    2.2638    0.0004 H   0  0  0  0  0  0  0  0  0  0  0  0
    1.3865   -2.3706   -0.9104 H   0  0  0  0  0  0  0  0  0  0  0  0
    1.3866   -2.3708    0.9102 H   0  0  0  0  0  0  0  0  0  0  0  0
    0.1132   -3.1250   -0.0001 H   0  0  0  0  0  0  0  0  0  0  0  0
   -4.1174    0.8716    0.0007 H   0  0  0  0  0  0  0  0  0  0  0  0
   -4.0218   -0.8768    0.0005 H   0  0  0  0  0  0  0  0  0  0  0  0
  1  3  1  0  0  0  0
  2  3  2  0  0  0  0
  3  6  1  0  0  0  0
  4  8  1  0  0  0  0
  4 18  1  0  0  0  0
  4 19  1  0  0  0  0
  5  6  2  0  0  0  0
  5  7  1  0  0  0  0
  5 11  1  0  0  0  0
  6  9  1  0  0  0  0
  7  8  2  0  0  0  0
  7 12  1  0  0  0  0
  8 10  1  0  0  0  0
  9 10  2  0  0  0  0
  9 13  1  0  0  0  0
 10 14  1  0  0  0  0
 11 15  1  0  0  0  0
 11 16  1  0  0  0  0
 11 17  1  0  0  0  0
M  CHG  2   1  -1   3   1
M  END
> <PUBCHEM_COMPOUND_CID>
11898

> <PUBCHEM_CONFORMER_RMSD>
0.4

> <PUBCHEM_CONFORMER_DIVERSEORDER>
1

> <PUBCHEM_MMFF94_PARTIAL_CHARGES>
16
1 -0.52
10 -0.15
11 0.14
12 0.15
13 0.15
14 0.15
18 0.4
19 0.4
2 -0.52
3 0.91
4 -0.9
5 -0.14
6 0.13
7 -0.15
8 0.1
9 -0.15

> <PUBCHEM_EFFECTIVE_ROTOR_COUNT>
1

> <PUBCHEM_PHARMACOPHORE_FEATURES>
6
1 1 acceptor
1 1 anion
1 2 acceptor
1 4 cation
1 4 donor
6 5 6 7 8 9 10 rings

> <PUBCHEM_HEAVY_ATOM_COUNT>
11

> <PUBCHEM_ATOM_DEF_STEREO_COUNT>
0

> <PUBCHEM_ATOM_UDEF_STEREO_COUNT>
0

> <PUBCHEM_BOND_DEF_STEREO_COUNT>
0

> <PUBCHEM_BOND_UDEF_STEREO_COUNT>
0

> <PUBCHEM_ISOTOPIC_ATOM_COUNT>
0

> <PUBCHEM_COMPONENT_COUNT>
1

> <PUBCHEM_CACTVS_TAUTO_COUNT>
1

> <PUBCHEM_CONFORMER_ID>
00002E7A00000001

> <PUBCHEM_MMFF94_ENERGY>
49.0133

> <PUBCHEM_FEATURE_SELFOVERLAP>
30.528

> <PUBCHEM_SHAPE_FINGERPRINT>
10219947 1 18413386519111169305
12897270 3 18411701014798287997
14325111 11 18410575067673295685
16945 1 18338797922004033927
193761 8 17906171011727980261
20645476 183 17773580634173196246
21040471 1 18338798888550913154
21501502 16 18122906696650642033
23235685 24 18412268311332537217
23402655 69 18193013715003325269
23463225 33 18342180007070832914
23552423 10 18269550718346779367
241688 4 17474387353702934866
2748010 2 18267018345494201895
369184 2 18409450262830093785
5084963 1 18187365462644274040
528886 8 18410297964835980083

> <PUBCHEM_SHAPE_MULTIPOLES>
204.67
3.87
1.9
0.58
0.71
0.46
0
-0.51
0
-0.64
0
0.04
0.01
0

> <PUBCHEM_SHAPE_SELFOVERLAP>
430.158

> <PUBCHEM_SHAPE_VOLUME>
116.5

> <PUBCHEM_COORDINATE_TYPE>
2
5
10

$$$$

