51090874
  -OEChem-06241223003D

 48 50  0     0  0  0  0  0  0999 V2000
   -3.3503   -2.7511   -1.1754 O   0  0  0  0  0  0  0  0  0  0  0  0
   -0.3745   -0.4669    0.9833 O   0  0  0  0  0  0  0  0  0  0  0  0
   -1.4317    0.9196   -0.5519 N   0  0  0  0  0  0  0  0  0  0  0  0
   -3.4536   -1.6251    0.7581 N   0  0  0  0  0  0  0  0  0  0  0  0
   -3.0117   -1.4260   -1.4777 N   0  0  0  0  0  0  0  0  0  0  0  0
    3.3818    0.5698   -0.6511 N   0  0  0  0  0  0  0  0  0  0  0  0
   -2.8025    0.6765   -0.1091 C   0  0  0  0  0  0  0  0  0  0  0  0
   -2.9259    1.1676    1.3594 C   0  0  0  0  0  0  0  0  0  0  0  0
   -3.7867    1.5022   -0.9838 C   0  0  0  0  0  0  0  0  0  0  0  0
   -3.6302    3.0160   -0.8190 C   0  0  0  0  0  0  0  0  0  0  0  0
   -2.7488    2.6802    1.5123 C   0  0  0  0  0  0  0  0  0  0  0  0
   -3.7329    3.4451    0.6379 C   0  0  0  0  0  0  0  0  0  0  0  0
   -3.0949   -0.8248   -0.2871 C   0  0  0  0  0  0  0  0  0  0  0  0
   -0.3321    0.3195    0.0410 C   0  0  0  0  0  0  0  0  0  0  0  0
    0.9630    0.7529   -0.6221 C   0  0  0  0  0  0  0  0  0  0  0  0
   -3.5957   -2.7813    0.1607 C   0  0  0  0  0  0  0  0  0  0  0  0
    2.1871    0.1066    0.0119 C   0  0  0  0  0  0  0  0  0  0  0  0
   -3.9744   -4.0823    0.7283 C   0  0  0  0  0  0  0  0  0  0  0  0
    4.6631    0.1861   -0.2863 C   0  0  0  0  0  0  0  0  0  0  0  0
    4.8508   -0.6968    0.7772 C   0  0  0  0  0  0  0  0  0  0  0  0
    5.7647    0.6830   -0.9828 C   0  0  0  0  0  0  0  0  0  0  0  0
    6.1401   -1.0825    1.1443 C   0  0  0  0  0  0  0  0  0  0  0  0
    7.0538    0.2974   -0.6159 C   0  0  0  0  0  0  0  0  0  0  0  0
    7.2416   -0.5855    0.4477 C   0  0  0  0  0  0  0  0  0  0  0  0
   -3.9240    0.9031    1.7369 H   0  0  0  0  0  0  0  0  0  0  0  0
   -2.2235    0.6594    2.0283 H   0  0  0  0  0  0  0  0  0  0  0  0
   -3.6550    1.2559   -2.0458 H   0  0  0  0  0  0  0  0  0  0  0  0
   -4.8193    1.2260   -0.7293 H   0  0  0  0  0  0  0  0  0  0  0  0
   -2.9023    2.9594    2.5612 H   0  0  0  0  0  0  0  0  0  0  0  0
   -1.7221    2.9677    1.2572 H   0  0  0  0  0  0  0  0  0  0  0  0
   -2.6667    3.3403   -1.2296 H   0  0  0  0  0  0  0  0  0  0  0  0
   -4.4046    3.5257   -1.4039 H   0  0  0  0  0  0  0  0  0  0  0  0
   -4.7543    3.2718    0.9985 H   0  0  0  0  0  0  0  0  0  0  0  0
   -3.5439    4.5212    0.7215 H   0  0  0  0  0  0  0  0  0  0  0  0
   -1.2814    1.5385   -1.3436 H   0  0  0  0  0  0  0  0  0  0  0  0
    1.0351    1.8456   -0.5530 H   0  0  0  0  0  0  0  0  0  0  0  0
    0.9089    0.4934   -1.6868 H   0  0  0  0  0  0  0  0  0  0  0  0
    2.2162    0.3671    1.0771 H   0  0  0  0  0  0  0  0  0  0  0  0
    2.1034   -0.9841   -0.0699 H   0  0  0  0  0  0  0  0  0  0  0  0
   -4.1506   -3.9993    1.8050 H   0  0  0  0  0  0  0  0  0  0  0  0
   -3.1803   -4.8176    0.5686 H   0  0  0  0  0  0  0  0  0  0  0  0
   -4.8909   -4.4541    0.2607 H   0  0  0  0  0  0  0  0  0  0  0  0
    3.2892    1.2092   -1.4331 H   0  0  0  0  0  0  0  0  0  0  0  0
    4.0223   -1.1087    1.3457 H   0  0  0  0  0  0  0  0  0  0  0  0
    5.6330    1.3717   -1.8136 H   0  0  0  0  0  0  0  0  0  0  0  0
    6.2869   -1.7701    1.9721 H   0  0  0  0  0  0  0  0  0  0  0  0
    7.9117    0.6843   -1.1582 H   0  0  0  0  0  0  0  0  0  0  0  0
    8.2454   -0.8858    0.7333 H   0  0  0  0  0  0  0  0  0  0  0  0
  1  5  1  0  0  0  0
  1 16  1  0  0  0  0
  2 14  2  0  0  0  0
  3  7  1  0  0  0  0
  3 14  1  0  0  0  0
  3 35  1  0  0  0  0
  4 13  1  0  0  0  0
  4 16  2  0  0  0  0
  5 13  2  0  0  0  0
  6 17  1  0  0  0  0
  6 19  1  0  0  0  0
  6 43  1  0  0  0  0
  7  8  1  0  0  0  0
  7  9  1  0  0  0  0
  7 13  1  0  0  0  0
  8 11  1  0  0  0  0
  8 25  1  0  0  0  0
  8 26  1  0  0  0  0
  9 10  1  0  0  0  0
  9 27  1  0  0  0  0
  9 28  1  0  0  0  0
 10 12  1  0  0  0  0
 10 31  1  0  0  0  0
 10 32  1  0  0  0  0
 11 12  1  0  0  0  0
 11 29  1  0  0  0  0
 11 30  1  0  0  0  0
 12 33  1  0  0  0  0
 12 34  1  0  0  0  0
 14 15  1  0  0  0  0
 15 17  1  0  0  0  0
 15 36  1  0  0  0  0
 15 37  1  0  0  0  0
 16 18  1  0  0  0  0
 17 38  1  0  0  0  0
 17 39  1  0  0  0  0
 18 40  1  0  0  0  0
 18 41  1  0  0  0  0
 18 42  1  0  0  0  0
 19 20  2  0  0  0  0
 19 21  1  0  0  0  0
 20 22  1  0  0  0  0
 20 44  1  0  0  0  0
 21 23  2  0  0  0  0
 21 45  1  0  0  0  0
 22 24  2  0  0  0  0
 22 46  1  0  0  0  0
 23 24  1  0  0  0  0
 23 47  1  0  0  0  0
 24 48  1  0  0  0  0
M  END
> <PUBCHEM_COMPOUND_CID>
51090874

> <PUBCHEM_CONFORMER_RMSD>
1

> <PUBCHEM_CONFORMER_DIVERSEORDER>
1
11
15
102
122
77
90
139
42
134
85
68
135
114
97
21
123
119
20
51
100
7
61
106
127
9
84
116
66
121
57
128
137
36
67
50
32
52
110
6
78
75
133
13
98
29
56
71
79
17
115
38
129
23
130
118
126
31
87
101
30
5
105
43
104
34
107
131
86
69
14
112
45
27
120
103
2
60
93
109
48
55
46
22
80
18
62
40
111
88
70
39
10
74
65
124
24
96
89
54
108
8
26
94
3
136
35
25
95
47
138
4
81
28
132
58
16
125
92
33
64
83
113
44
41
53
76
37
73
59
82
117
19
49
91
72
63
99
12

> <PUBCHEM_MMFF94_PARTIAL_CHARGES>
26
1 -0.02
13 0.34
14 0.57
15 0.06
16 0.3
17 0.37
18 0.18
19 0.1
2 -0.57
20 -0.15
21 -0.15
22 -0.15
23 -0.15
24 -0.15
3 -0.73
35 0.37
4 -0.57
43 0.4
44 0.15
45 0.15
46 0.15
47 0.15
48 0.15
5 -0.41
6 -0.87
7 0.48

> <PUBCHEM_EFFECTIVE_ROTOR_COUNT>
8.2

> <PUBCHEM_PHARMACOPHORE_FEATURES>
8
1 2 acceptor
1 3 donor
1 6 cation
1 6 donor
3 4 5 13 cation
5 1 4 5 13 16 rings
6 19 20 21 22 23 24 rings
6 7 8 9 10 11 12 rings

> <PUBCHEM_HEAVY_ATOM_COUNT>
24

> <PUBCHEM_ATOM_DEF_STEREO_COUNT>
0

> <PUBCHEM_ATOM_UDEF_STEREO_COUNT>
0

> <PUBCHEM_BOND_DEF_STEREO_COUNT>
0

> <PUBCHEM_BOND_UDEF_STEREO_COUNT>
0

> <PUBCHEM_ISOTOPIC_ATOM_COUNT>
0

> <PUBCHEM_COMPONENT_COUNT>
1

> <PUBCHEM_CACTVS_TAUTO_COUNT>
2

> <PUBCHEM_CONFORMER_ID>
030B95BA00000001

> <PUBCHEM_MMFF94_ENERGY>
48.8087

> <PUBCHEM_FEATURE_SELFOVERLAP>
40.594

> <PUBCHEM_SHAPE_FINGERPRINT>
10291535 26 17603864563237776041
10595046 47 18272648996855019580
10912923 1 18273494572857570100
11101153 10 18197490719533926108
11315181 36 18411138034912341164
11545043 162 18113341899388429904
11796584 16 18337674226254340162
11809386 21 18342181046268633634
12091667 2 17275383227336331444
12107183 9 17982175822998760994
12596602 18 18335423457385670280
12616971 3 17560792260898651804
12760667 363 18337674092920852775
12969540 37 16970829187857655183
12988421 55 17975970179272269233
13167823 11 18342178852157289870
13583140 156 17603594040659122004
13631057 29 18339364067366125067
14347332 77 18339922602071573351
14844126 61 18335421232044426195
15183329 4 17703794734785984034
15250474 111 18130802178403208186
16114785 44 15430580879729616563
17093844 174 18409454713065267072
17780758 139 18408322176790061955
17844677 252 18261111838382561120
18927931 339 18040714740498721742
19489759 90 17749678479703956624
21130935 74 18412832400555190050
21236236 1 18413388730882189690
21424621 283 17679573717196620729
21426921 1 18410571773644317845
21585481 151 18265902540132986866
220451 1 18201995569444405716
2303208 19 17095793370505927358
23081809 10 17846495938171226820
23402539 116 18060139855977751812
23522609 53 17915433143969469956
23559900 14 18266470814605683809
4073 2 18408882967219335382
4169191 19 16844433948777338284
4409770 3 18410859854929582927
484985 159 18342458098125601835
497634 4 18131355184884353334
5104073 3 18334577915416161232
531348 171 17417266444950746494
5924683 9 18412544297156355858
90127 26 16660368103994337088
9981440 41 17677052472672060199

> <PUBCHEM_SHAPE_MULTIPOLES>
462.25
16.72
3.73
1.26
38.69
1.87
-0.1
1.96
-0.35
-10.1
-0.6
-0.5
-0.17
-1.22

> <PUBCHEM_SHAPE_SELFOVERLAP>
969.075

> <PUBCHEM_SHAPE_VOLUME>
257.8

> <PUBCHEM_COORDINATE_TYPE>
2
5
10

$$$$

