854329
  -OEChem-06241222483D

 45 47  0     1  0  0  0  0  0999 V2000
   -0.8140    0.9767   -0.3948 O   0  0  0  0  0  0  0  0  0  0  0  0
   -1.6099    3.2007   -0.3793 O   0  0  0  0  0  0  0  0  0  0  0  0
    0.7341   -3.5301   -0.4616 O   0  0  0  0  0  0  0  0  0  0  0  0
    3.8489    0.9612   -2.1274 O   0  0  0  0  0  0  0  0  0  0  0  0
    2.9666    2.1836   -0.4373 O   0  0  0  0  0  0  0  0  0  0  0  0
    2.2509   -0.5716    0.3539 N   0  0  0  0  0  0  0  0  0  0  0  0
   -3.3184   -0.0196    0.2980 C   0  0  0  0  0  0  0  0  0  0  0  0
   -4.7650   -0.2316    0.6352 C   0  0  0  0  0  0  0  0  0  0  0  0
   -5.4209    1.0568    0.1460 C   0  0  0  0  0  0  0  0  0  0  0  0
   -4.3703    2.1408    0.3628 C   0  0  0  0  0  0  0  0  0  0  0  0
   -3.0894    1.4020    0.1372 C   0  0  0  0  0  0  0  0  0  0  0  0
   -2.3237   -0.9056    0.1117 C   0  0  0  0  0  0  0  0  0  0  0  0
   -0.9913   -0.4026   -0.2506 C   0  0  0  0  0  0  0  0  0  0  0  0
    0.0405   -1.2458   -0.4462 C   0  0  0  0  0  0  0  0  0  0  0  0
    3.5925   -0.1461   -0.0257 C   0  0  2  0  0  0  0  0  0  0  0  0
   -1.8757    1.8578   -0.2050 C   0  0  0  0  0  0  0  0  0  0  0  0
    4.5189   -0.0263    1.2090 C   0  0  0  0  0  0  0  0  0  0  0  0
    1.4289   -0.8174   -0.8192 C   0  0  0  0  0  0  0  0  0  0  0  0
   -2.5329   -2.3336    0.2672 C   0  0  0  0  0  0  0  0  0  0  0  0
   -0.1752   -2.7230   -0.2910 C   0  0  0  0  0  0  0  0  0  0  0  0
   -1.5318   -3.2003    0.0810 C   0  0  0  0  0  0  0  0  0  0  0  0
    4.0460    0.9657    2.2776 C   0  0  0  0  0  0  0  0  0  0  0  0
    5.9636    0.2820    0.8017 C   0  0  0  0  0  0  0  0  0  0  0  0
    3.4276    1.1262   -0.8434 C   0  0  0  0  0  0  0  0  0  0  0  0
   -5.2051   -1.1024    0.1410 H   0  0  0  0  0  0  0  0  0  0  0  0
   -4.8865   -0.3339    1.7197 H   0  0  0  0  0  0  0  0  0  0  0  0
   -5.6621    0.9742   -0.9222 H   0  0  0  0  0  0  0  0  0  0  0  0
   -6.3520    1.2729    0.6794 H   0  0  0  0  0  0  0  0  0  0  0  0
   -4.4128    2.5148    1.3921 H   0  0  0  0  0  0  0  0  0  0  0  0
   -4.5176    2.9753   -0.3287 H   0  0  0  0  0  0  0  0  0  0  0  0
    4.0316   -0.9153   -0.6768 H   0  0  0  0  0  0  0  0  0  0  0  0
    4.5394   -1.0148    1.6906 H   0  0  0  0  0  0  0  0  0  0  0  0
    1.3314    0.0774   -1.4450 H   0  0  0  0  0  0  0  0  0  0  0  0
    1.8918   -1.5732   -1.4668 H   0  0  0  0  0  0  0  0  0  0  0  0
    2.3157   -1.4252    0.9089 H   0  0  0  0  0  0  0  0  0  0  0  0
   -3.5125   -2.7083    0.5440 H   0  0  0  0  0  0  0  0  0  0  0  0
   -1.6805   -4.2678    0.1973 H   0  0  0  0  0  0  0  0  0  0  0  0
    4.0745    1.9968    1.9127 H   0  0  0  0  0  0  0  0  0  0  0  0
    4.6936    0.9124    3.1600 H   0  0  0  0  0  0  0  0  0  0  0  0
    3.0261    0.7453    2.6073 H   0  0  0  0  0  0  0  0  0  0  0  0
    6.3324   -0.4575    0.0832 H   0  0  0  0  0  0  0  0  0  0  0  0
    6.0466    1.2732    0.3438 H   0  0  0  0  0  0  0  0  0  0  0  0
    6.6259    0.2581    1.6738 H   0  0  0  0  0  0  0  0  0  0  0  0
   -2.4178    3.7061   -0.1894 H   0  0  0  0  0  0  0  0  0  0  0  0
    3.7360    1.7799   -2.6558 H   0  0  0  0  0  0  0  0  0  0  0  0
  1 13  1  0  0  0  0
  1 16  1  0  0  0  0
  2 16  1  0  0  0  0
  2 44  1  0  0  0  0
  3 20  2  0  0  0  0
  4 24  1  0  0  0  0
  4 45  1  0  0  0  0
  5 24  2  0  0  0  0
  6 15  1  0  0  0  0
  6 18  1  0  0  0  0
  6 35  1  0  0  0  0
  7  8  1  0  0  0  0
  7 11  1  0  0  0  0
  7 12  2  0  0  0  0
  8  9  1  0  0  0  0
  8 25  1  0  0  0  0
  8 26  1  0  0  0  0
  9 10  1  0  0  0  0
  9 27  1  0  0  0  0
  9 28  1  0  0  0  0
 10 11  1  0  0  0  0
 10 29  1  0  0  0  0
 10 30  1  0  0  0  0
 11 16  2  0  0  0  0
 12 13  1  0  0  0  0
 12 19  1  0  0  0  0
 13 14  2  0  0  0  0
 14 18  1  0  0  0  0
 14 20  1  0  0  0  0
 15 17  1  0  0  0  0
 15 24  1  0  0  0  0
 15 31  1  0  0  0  0
 17 22  1  0  0  0  0
 17 23  1  0  0  0  0
 17 32  1  0  0  0  0
 18 33  1  0  0  0  0
 18 34  1  0  0  0  0
 19 21  2  0  0  0  0
 19 36  1  0  0  0  0
 20 21  1  0  0  0  0
 21 37  1  0  0  0  0
 22 38  1  0  0  0  0
 22 39  1  0  0  0  0
 22 40  1  0  0  0  0
 23 41  1  0  0  0  0
 23 42  1  0  0  0  0
 23 43  1  0  0  0  0
M  END
> <PUBCHEM_COMPOUND_CID>
854329

> <PUBCHEM_CONFORMER_RMSD>
0.8

> <PUBCHEM_CONFORMER_DIVERSEORDER>
1
18
8
6
15
16
14
4
10
9
3
11
2
5
19
13
17
12
7

> <PUBCHEM_MMFF94_PARTIAL_CHARGES>
24
1 -0.15
10 0.14
11 -0.14
13 0.08
14 -0.12
15 0.33
16 0.15
18 0.41
19 -0.15
2 -0.53
20 0.54
21 -0.14
24 0.66
3 -0.57
35 0.36
36 0.15
37 0.15
4 -0.65
44 0.45
45 0.5
5 -0.57
6 -0.9
7 -0.14
8 0.14

> <PUBCHEM_EFFECTIVE_ROTOR_COUNT>
5.6

> <PUBCHEM_PHARMACOPHORE_FEATURES>
12
1 1 acceptor
1 2 donor
1 3 acceptor
1 4 acceptor
1 5 acceptor
1 6 cation
1 6 donor
3 17 22 23 hydrophobe
3 4 5 24 anion
5 7 8 9 10 11 rings
6 1 7 11 12 13 16 rings
6 12 13 14 19 20 21 rings

> <PUBCHEM_HEAVY_ATOM_COUNT>
24

> <PUBCHEM_ATOM_DEF_STEREO_COUNT>
1

> <PUBCHEM_ATOM_UDEF_STEREO_COUNT>
0

> <PUBCHEM_BOND_DEF_STEREO_COUNT>
0

> <PUBCHEM_BOND_UDEF_STEREO_COUNT>
0

> <PUBCHEM_ISOTOPIC_ATOM_COUNT>
0

> <PUBCHEM_COMPONENT_COUNT>
1

> <PUBCHEM_CACTVS_TAUTO_COUNT>
1

> <PUBCHEM_CONFORMER_ID>
000D093900000001

> <PUBCHEM_MMFF94_ENERGY>
52.4907

> <PUBCHEM_FEATURE_SELFOVERLAP>
61.063

> <PUBCHEM_SHAPE_FINGERPRINT>
10319926 262 18189916257466380482
10411042 1 17761213211494642895
10670039 82 18269255998039302660
10906281 52 18198883943000924425
11725454 13 17604160276141478454
12173636 292 18409450245724149479
12236239 1 17846778486267282044
12596602 18 17203324486019883424
12633257 1 18412829066610697268
12788726 201 17769363933913900106
13140716 1 18339924788362894849
13402501 40 18040724653552656272
14117953 113 18270683189675281733
14341114 176 18272089435382849082
14341114 328 17918270952360342801
14420673 8 18269279135593147914
14787075 74 18186803565590972733
14790565 3 18338502119655422397
15042514 8 18341047407105173083
15295992 7 17895206467412393218
15403338 16 16845023414925005673
16728300 4 17414740931166248586
1813 80 16701740570732668510
20567600 254 18335433407938632325
20715895 44 17771354355467179925
21033648 29 18115608022907972384
212916 134 18334587836262938138
21452121 103 18266459995762146955
22149856 69 18192968587913172075
23227448 37 18335700494948916533
23366157 5 17913197947781866971
23402539 116 18336273366472152319
23557571 272 18116696461540190895
23559900 14 18194393614020794959
23598288 3 18126843798698150026
34797466 226 16226049981541662213
350125 39 18195238055967233182
3680242 22 18341044232891843361
474 4 18339356465563674159
495365 180 17385724720889306750
5104073 3 18200597973837545128
5265222 85 18191015709265307198
7064713 232 18410855481661481789
7097593 13 18058746800536593898
7808743 9 18266454318026469148
9981440 41 18412542141637162099

> <PUBCHEM_SHAPE_MULTIPOLES>
459.58
11.02
3.32
1.2
5.86
1.78
-0.15
-5.89
-3.25
-2.22
0.41
1.93
-0.4
0.08

> <PUBCHEM_SHAPE_SELFOVERLAP>
984.052

> <PUBCHEM_SHAPE_VOLUME>
253.5

> <PUBCHEM_COORDINATE_TYPE>
2
5
10

$$$$

