582762
  -OEChem-06241222443D

 29 30  0     1  0  0  0  0  0999 V2000
    2.1260    1.9349    0.8428 O   0  0  0  0  0  0  0  0  0  0  0  0
    3.0096   -1.3955   -0.0964 O   0  0  0  0  0  0  0  0  0  0  0  0
    4.2884    0.4926    0.2465 O   0  0  0  0  0  0  0  0  0  0  0  0
   -2.3742    1.9055   -0.1302 N   0  0  0  0  0  0  0  0  0  0  0  0
   -0.4508    0.8603   -0.4978 C   0  0  0  0  0  0  0  0  0  0  0  0
    0.9727    0.6093   -0.8018 C   0  0  0  0  0  0  0  0  0  0  0  0
   -1.4426   -0.1199   -0.2140 C   0  0  0  0  0  0  0  0  0  0  0  0
   -2.6400    0.5623    0.0128 C   0  0  0  0  0  0  0  0  0  0  0  0
    1.8686    0.5916    0.4544 C   0  0  1  0  0  0  0  0  0  0  0  0
   -1.0540    2.0955   -0.4389 C   0  0  0  0  0  0  0  0  0  0  0  0
   -1.4367   -1.5263   -0.1280 C   0  0  0  0  0  0  0  0  0  0  0  0
   -3.8364   -0.0943    0.3226 C   0  0  0  0  0  0  0  0  0  0  0  0
   -2.6260   -2.1965    0.1808 C   0  0  0  0  0  0  0  0  0  0  0  0
    3.2050   -0.0743    0.1887 C   0  0  0  0  0  0  0  0  0  0  0  0
   -3.8062   -1.4895    0.4024 C   0  0  0  0  0  0  0  0  0  0  0  0
    4.1965   -2.1556   -0.3441 C   0  0  0  0  0  0  0  0  0  0  0  0
    1.3353    1.3802   -1.4954 H   0  0  0  0  0  0  0  0  0  0  0  0
    1.0553   -0.3414   -1.3428 H   0  0  0  0  0  0  0  0  0  0  0  0
    1.3855    0.0810    1.2956 H   0  0  0  0  0  0  0  0  0  0  0  0
   -0.6640    3.0928   -0.5877 H   0  0  0  0  0  0  0  0  0  0  0  0
   -3.0558    2.6439   -0.0227 H   0  0  0  0  0  0  0  0  0  0  0  0
   -0.5252   -2.0929   -0.2962 H   0  0  0  0  0  0  0  0  0  0  0  0
   -4.7557    0.4552    0.4953 H   0  0  0  0  0  0  0  0  0  0  0  0
   -2.6272   -3.2812    0.2489 H   0  0  0  0  0  0  0  0  0  0  0  0
   -4.7184   -2.0302    0.6412 H   0  0  0  0  0  0  0  0  0  0  0  0
    2.5971    1.9086    1.6934 H   0  0  0  0  0  0  0  0  0  0  0  0
    3.9016   -3.1866   -0.5569 H   0  0  0  0  0  0  0  0  0  0  0  0
    4.8413   -2.1501    0.5400 H   0  0  0  0  0  0  0  0  0  0  0  0
    4.7276   -1.7558   -1.2132 H   0  0  0  0  0  0  0  0  0  0  0  0
  1  9  1  0  0  0  0
  1 26  1  0  0  0  0
  2 14  1  0  0  0  0
  2 16  1  0  0  0  0
  3 14  2  0  0  0  0
  4  8  1  0  0  0  0
  4 10  1  0  0  0  0
  4 21  1  0  0  0  0
  5  6  1  0  0  0  0
  5  7  1  0  0  0  0
  5 10  2  0  0  0  0
  6  9  1  0  0  0  0
  6 17  1  0  0  0  0
  6 18  1  0  0  0  0
  7  8  1  0  0  0  0
  7 11  2  0  0  0  0
  8 12  2  0  0  0  0
  9 14  1  0  0  0  0
  9 19  1  0  0  0  0
 10 20  1  0  0  0  0
 11 13  1  0  0  0  0
 11 22  1  0  0  0  0
 12 15  1  0  0  0  0
 12 23  1  0  0  0  0
 13 15  2  0  0  0  0
 13 24  1  0  0  0  0
 15 25  1  0  0  0  0
 16 27  1  0  0  0  0
 16 28  1  0  0  0  0
 16 29  1  0  0  0  0
M  END
> <PUBCHEM_COMPOUND_CID>
582762

> <PUBCHEM_CONFORMER_RMSD>
0.6

> <PUBCHEM_CONFORMER_DIVERSEORDER>
2
41
39
42
30
11
45
7
25
35
28
4
14
50
20
16
43
48
49
9
3
51
10
46
47
44
21
31
40
38
27
6
36
34
29
5
24
19
37
1
17
12
15
33
23
18
22
8
26
32
13

> <PUBCHEM_MMFF94_PARTIAL_CHARGES>
22
1 -0.68
10 -0.3
11 -0.15
12 -0.15
13 -0.15
14 0.66
15 -0.15
16 0.28
2 -0.43
20 0.15
21 0.27
22 0.15
23 0.15
24 0.15
25 0.15
26 0.4
3 -0.57
4 0.03
5 -0.18
6 0.18
8 -0.15
9 0.34

> <PUBCHEM_EFFECTIVE_ROTOR_COUNT>
4

> <PUBCHEM_PHARMACOPHORE_FEATURES>
7
1 1 acceptor
1 1 donor
1 3 acceptor
1 4 cation
1 4 donor
5 4 5 7 8 10 rings
6 7 8 11 12 13 15 rings

> <PUBCHEM_HEAVY_ATOM_COUNT>
16

> <PUBCHEM_ATOM_DEF_STEREO_COUNT>
0

> <PUBCHEM_ATOM_UDEF_STEREO_COUNT>
1

> <PUBCHEM_BOND_DEF_STEREO_COUNT>
0

> <PUBCHEM_BOND_UDEF_STEREO_COUNT>
0

> <PUBCHEM_ISOTOPIC_ATOM_COUNT>
0

> <PUBCHEM_COMPONENT_COUNT>
1

> <PUBCHEM_CACTVS_TAUTO_COUNT>
1

> <PUBCHEM_CONFORMER_ID>
0008E46A00000002

> <PUBCHEM_MMFF94_ENERGY>
21.574

> <PUBCHEM_FEATURE_SELFOVERLAP>
35.62

> <PUBCHEM_SHAPE_FINGERPRINT>
10616163 171 18411133598237556694
10618630 7 18343019964971291399
12006461 19 18411698794363557858
12032990 46 18342172246207340763
12251169 10 18187645760678710588
12633257 1 18040985276315172227
14866123 147 16962937464407559466
15196674 1 18411418431614792646
15653759 3 18335423460778641608
16945 1 18267574729123103245
17804303 29 18337666511585526983
17834074 16 18410856581457686306
1813 80 17417809521895141695
19141452 34 18335136471544165519
193927 3 17559943347569595979
19422 9 18272364304478318700
200 152 17749119876584110109
20281475 54 18411694392117018628
20361792 2 16774083946665529661
20442098 301 18336273361881902542
20510252 161 18335421313400709697
20671657 53 16702028534502630124
20871998 184 18334858311928403175
20871998 22 18268707217198430973
21065199 12 18334298647572339120
21521239 73 18117868632036724381
23402539 116 18333739013998269653
23463225 33 18340764853985669447
23559900 14 18410299107677433072
2871803 45 18272939323089764882
449060 23 18130792239310190850
5104073 3 18336549408193667976
7364860 26 18125436410850495876
8809292 202 18339077202495244338
9709674 26 18412260601850748026

> <PUBCHEM_SHAPE_MULTIPOLES>
306.68
7.82
2.42
0.75
4.97
0.34
0.01
3.68
-0.89
-0.16
0.05
0.11
-0.1
0.69

> <PUBCHEM_SHAPE_SELFOVERLAP>
655.238

> <PUBCHEM_SHAPE_VOLUME>
171.6

> <PUBCHEM_COORDINATE_TYPE>
2
5
10

$$$$

