7383
  -OEChem-06261202032D

 15 15  0     0  0  0  0  0  0999 V2000
    3.7320    2.5000    0.0000 Cl  0  0  0  0  0  0  0  0  0  0  0  0
    2.0000   -1.5000    0.0000 Cl  0  0  0  0  0  0  0  0  0  0  0  0
    3.7320   -2.5000    0.0000 Cl  0  0  0  0  0  0  0  0  0  0  0  0
    3.7320    1.5000    0.0000 S   0  0  0  0  0  0  0  0  0  0  0  0
    4.7320    1.5000    0.0000 O   0  0  0  0  0  0  0  0  0  0  0  0
    2.7320    1.5000    0.0000 O   0  0  0  0  0  0  0  0  0  0  0  0
    3.7320    0.5000    0.0000 C   0  0  0  0  0  0  0  0  0  0  0  0
    2.8660    0.0000    0.0000 C   0  0  0  0  0  0  0  0  0  0  0  0
    4.5981    0.0000    0.0000 C   0  0  0  0  0  0  0  0  0  0  0  0
    2.8660   -1.0000    0.0000 C   0  0  0  0  0  0  0  0  0  0  0  0
    4.5981   -1.0000    0.0000 C   0  0  0  0  0  0  0  0  0  0  0  0
    3.7320   -1.5000    0.0000 C   0  0  0  0  0  0  0  0  0  0  0  0
    2.3291    0.3100    0.0000 H   0  0  0  0  0  0  0  0  0  0  0  0
    5.1350    0.3100    0.0000 H   0  0  0  0  0  0  0  0  0  0  0  0
    5.1350   -1.3100    0.0000 H   0  0  0  0  0  0  0  0  0  0  0  0
  1  4  1  0  0  0  0
  2 10  1  0  0  0  0
  3 12  1  0  0  0  0
  4  5  2  0  0  0  0
  4  6  2  0  0  0  0
  4  7  1  0  0  0  0
  7  8  2  0  0  0  0
  7  9  1  0  0  0  0
  8 10  1  0  0  0  0
  8 13  1  0  0  0  0
  9 11  2  0  0  0  0
  9 14  1  0  0  0  0
 10 12  2  0  0  0  0
 11 12  1  0  0  0  0
 11 15  1  0  0  0  0
M  END
> <PUBCHEM_COMPOUND_CID>
7383

> <PUBCHEM_COMPOUND_CANONICALIZED>
1

> <PUBCHEM_CACTVS_COMPLEXITY>
246

> <PUBCHEM_CACTVS_HBOND_ACCEPTOR>
2

> <PUBCHEM_CACTVS_HBOND_DONOR>
0

> <PUBCHEM_CACTVS_ROTATABLE_BOND>
1

> <PUBCHEM_CACTVS_SUBSKEYS>
AAADcQBgMABGAAAAAAAAAAAAAAAAAAAAAAAwAAAAAAAAAAABAAAAGAYAAAAACAKAUCAwAYAAAAKAACBCAHBCAAAgBQAIilgAAogIICKBExCAIAAggAAIiAcAAAAAAAIAABAAAAQABAAAIAAACAAAAAAAAA==

> <PUBCHEM_IUPAC_OPENEYE_NAME>
3,4-dichlorobenzenesulfonyl chloride

> <PUBCHEM_IUPAC_CAS_NAME>
3,4-dichlorobenzenesulfonyl chloride

> <PUBCHEM_IUPAC_NAME>
3,4-dichlorobenzenesulfonyl chloride

> <PUBCHEM_IUPAC_SYSTEMATIC_NAME>
3,4-bis(chloranyl)benzenesulfonyl chloride

> <PUBCHEM_IUPAC_TRADITIONAL_NAME>
3,4-dichlorobenzenesulfonyl chloride

> <PUBCHEM_IUPAC_INCHI>
InChI=1S/C6H3Cl3O2S/c7-5-2-1-4(3-6(5)8)12(9,10)11/h1-3H

> <PUBCHEM_IUPAC_INCHIKEY>
NYIBPWGZGSXURD-UHFFFAOYSA-N

> <PUBCHEM_XLOGP3>
3.4

> <PUBCHEM_EXACT_MASS>
243.891933

> <PUBCHEM_MOLECULAR_FORMULA>
C6H3Cl3O2S

> <PUBCHEM_MOLECULAR_WEIGHT>
245.51082

> <PUBCHEM_OPENEYE_CAN_SMILES>
C1=CC(=C(C=C1S(=O)(=O)Cl)Cl)Cl

> <PUBCHEM_OPENEYE_ISO_SMILES>
C1=CC(=C(C=C1S(=O)(=O)Cl)Cl)Cl

> <PUBCHEM_CACTVS_TPSA>
42.5

> <PUBCHEM_MONOISOTOPIC_WEIGHT>
243.891933

> <PUBCHEM_TOTAL_CHARGE>
0

> <PUBCHEM_HEAVY_ATOM_COUNT>
12

> <PUBCHEM_ATOM_DEF_STEREO_COUNT>
0

> <PUBCHEM_ATOM_UDEF_STEREO_COUNT>
0

> <PUBCHEM_BOND_DEF_STEREO_COUNT>
0

> <PUBCHEM_BOND_UDEF_STEREO_COUNT>
0

> <PUBCHEM_ISOTOPIC_ATOM_COUNT>
0

> <PUBCHEM_COMPONENT_COUNT>
1

> <PUBCHEM_CACTVS_TAUTO_COUNT>
1

> <PUBCHEM_COORDINATE_TYPE>
1
5
255

> <PUBCHEM_BONDANNOTATIONS>
10  12  8
11  12  8
7  8  8
7  9  8
8  10  8
9  11  8

$$$$

