12786
  -OEChem-06261207223D

 14 14  0     0  0  0  0  0  0999 V2000
    2.3749   -1.1043    0.0000 F   0  0  0  0  0  0  0  0  0  0  0  0
   -2.3750   -1.1040    0.0000 F   0  0  0  0  0  0  0  0  0  0  0  0
   -2.3679    1.6205    0.0001 F   0  0  0  0  0  0  0  0  0  0  0  0
    2.3679    1.6207    0.0000 F   0  0  0  0  0  0  0  0  0  0  0  0
   -0.0001   -2.5520   -0.0002 N   0  0  0  0  0  0  0  0  0  0  0  0
    0.0000   -1.1418    0.0002 C   0  0  0  0  0  0  0  0  0  0  0  0
    1.2081   -0.4443    0.0001 C   0  0  0  0  0  0  0  0  0  0  0  0
   -1.2080   -0.4443    0.0001 C   0  0  0  0  0  0  0  0  0  0  0  0
   -1.2079    0.9507   -0.0001 C   0  0  0  0  0  0  0  0  0  0  0  0
    1.2079    0.9507   -0.0001 C   0  0  0  0  0  0  0  0  0  0  0  0
    0.0000    1.6481   -0.0001 C   0  0  0  0  0  0  0  0  0  0  0  0
    0.0000    2.7340   -0.0002 H   0  0  0  0  0  0  0  0  0  0  0  0
   -0.8763   -3.0569    0.0008 H   0  0  0  0  0  0  0  0  0  0  0  0
    0.8760   -3.0571    0.0008 H   0  0  0  0  0  0  0  0  0  0  0  0
  1  7  1  0  0  0  0
  2  8  1  0  0  0  0
  3  9  1  0  0  0  0
  4 10  1  0  0  0  0
  5  6  1  0  0  0  0
  5 13  1  0  0  0  0
  5 14  1  0  0  0  0
  6  7  2  0  0  0  0
  6  8  1  0  0  0  0
  7 10  1  0  0  0  0
  8  9  2  0  0  0  0
  9 11  1  0  0  0  0
 10 11  2  0  0  0  0
 11 12  1  0  0  0  0
M  END
> <PUBCHEM_COMPOUND_CID>
12786

> <PUBCHEM_CONFORMER_RMSD>
0.4

> <PUBCHEM_CONFORMER_DIVERSEORDER>
1

> <PUBCHEM_MMFF94_PARTIAL_CHARGES>
14
1 -0.19
10 0.19
11 -0.15
12 0.15
13 0.4
14 0.4
2 -0.19
3 -0.19
4 -0.19
5 -0.9
6 0.1
7 0.19
8 0.19
9 0.19

> <PUBCHEM_EFFECTIVE_ROTOR_COUNT>
0

> <PUBCHEM_PHARMACOPHORE_FEATURES>
3
1 5 cation
1 5 donor
6 6 7 8 9 10 11 rings

> <PUBCHEM_HEAVY_ATOM_COUNT>
11

> <PUBCHEM_ATOM_DEF_STEREO_COUNT>
0

> <PUBCHEM_ATOM_UDEF_STEREO_COUNT>
0

> <PUBCHEM_BOND_DEF_STEREO_COUNT>
0

> <PUBCHEM_BOND_UDEF_STEREO_COUNT>
0

> <PUBCHEM_ISOTOPIC_ATOM_COUNT>
0

> <PUBCHEM_COMPONENT_COUNT>
1

> <PUBCHEM_CACTVS_TAUTO_COUNT>
1

> <PUBCHEM_CONFORMER_ID>
000031F200000001

> <PUBCHEM_MMFF94_ENERGY>
26.4084

> <PUBCHEM_FEATURE_SELFOVERLAP>
15.223

> <PUBCHEM_SHAPE_FINGERPRINT>
12423570 1 17771072592015061573
16945 1 18411136947989878279
18185500 45 18050288368625092615
193761 8 18410856559639925991
21040471 1 18338516339748255296
23552423 10 18343580750435080414
241688 4 18412263968883276392
2748010 2 18411418410087013917
5084963 1 18186521003201656770
66348 1 18411701001749823231

> <PUBCHEM_SHAPE_MULTIPOLES>
192.3
2.75
2.29
0.56
0
0.57
0
-0.51
0
0
0
0
-0.01
0

> <PUBCHEM_SHAPE_SELFOVERLAP>
411.912

> <PUBCHEM_SHAPE_VOLUME>
106.5

> <PUBCHEM_COORDINATE_TYPE>
2
5
10

$$$$

