9249
  -OEChem-06261203322D

 17 19  0     0  0  0  0  0  0999 V2000
    3.5186   -0.8777    0.0000 C   0  0  0  0  0  0  0  0  0  0  0  0
    3.0186   -0.0117    0.0000 C   0  0  0  0  0  0  0  0  0  0  0  0
    2.5182   -0.8780    0.0000 C   0  0  0  0  0  0  0  0  0  0  0  0
    4.0186   -0.0117    0.0000 C   0  0  0  0  0  0  0  0  0  0  0  0
    2.0000   -0.0039    0.0000 C   0  0  0  0  0  0  0  0  0  0  0  0
    3.5208    0.8741    0.0000 C   0  0  0  0  0  0  0  0  0  0  0  0
    2.5047    0.8780    0.0000 C   0  0  0  0  0  0  0  0  0  0  0  0
    3.8287   -1.4146    0.0000 H   0  0  0  0  0  0  0  0  0  0  0  0
    2.7087    0.5253    0.0000 H   0  0  0  0  0  0  0  0  0  0  0  0
    2.2114   -1.4168    0.0000 H   0  0  0  0  0  0  0  0  0  0  0  0
    4.6386   -0.0153    0.0000 H   0  0  0  0  0  0  0  0  0  0  0  0
    1.5225    0.3915    0.0000 H   0  0  0  0  0  0  0  0  0  0  0  0
    1.5287   -0.4067    0.0000 H   0  0  0  0  0  0  0  0  0  0  0  0
    4.1053    1.0809    0.0000 H   0  0  0  0  0  0  0  0  0  0  0  0
    3.4171    1.4854    0.0000 H   0  0  0  0  0  0  0  0  0  0  0  0
    2.6131    1.4884    0.0000 H   0  0  0  0  0  0  0  0  0  0  0  0
    1.9218    1.0893    0.0000 H   0  0  0  0  0  0  0  0  0  0  0  0
  1  2  1  0  0  0  0
  1  3  1  0  0  0  0
  1  4  1  0  0  0  0
  1  8  1  0  0  0  0
  2  3  1  0  0  0  0
  2  4  1  0  0  0  0
  2  9  1  0  0  0  0
  3  5  1  0  0  0  0
  3 10  1  0  0  0  0
  4  6  1  0  0  0  0
  4 11  1  0  0  0  0
  5  7  1  0  0  0  0
  5 12  1  0  0  0  0
  5 13  1  0  0  0  0
  6  7  1  0  0  0  0
  6 14  1  0  0  0  0
  6 15  1  0  0  0  0
  7 16  1  0  0  0  0
  7 17  1  0  0  0  0
M  END
> <PUBCHEM_COMPOUND_CID>
9249

> <PUBCHEM_COMPOUND_CANONICALIZED>
1

> <PUBCHEM_CACTVS_COMPLEXITY>
91.2

> <PUBCHEM_CACTVS_HBOND_ACCEPTOR>
0

> <PUBCHEM_CACTVS_HBOND_DONOR>
0

> <PUBCHEM_CACTVS_ROTATABLE_BOND>
0

> <PUBCHEM_CACTVS_SUBSKEYS>
AAADccBgAAAAAAAAAAAAAAAAGDAAAAAAAAAwYAAAAAAAAAAAAAAAGAAAAAAADQCAAAAAAAAAAAAAAAAAAAAAAAAAAAAAAAAAAAAAAAIAAAAAAAAAAAAAAAEAgAAOAAAAAAAAAAAAAAAAAAAAAAAAAAAAAA==

> <PUBCHEM_IUPAC_INCHI>
InChI=1S/C7H10/c1-2-4-6-5(3-1)7(4)6/h4-7H,1-3H2

> <PUBCHEM_IUPAC_INCHIKEY>
HTEFASNITGSEJD-UHFFFAOYSA-N

> <PUBCHEM_XLOGP3_AA>
2.2

> <PUBCHEM_EXACT_MASS>
94.07825

> <PUBCHEM_MOLECULAR_FORMULA>
C7H10

> <PUBCHEM_MOLECULAR_WEIGHT>
94.1543

> <PUBCHEM_OPENEYE_CAN_SMILES>
C1CC2C3C2C3C1

> <PUBCHEM_OPENEYE_ISO_SMILES>
C1CC2C3C2C3C1

> <PUBCHEM_CACTVS_TPSA>
0

> <PUBCHEM_MONOISOTOPIC_WEIGHT>
94.07825

> <PUBCHEM_TOTAL_CHARGE>
0

> <PUBCHEM_HEAVY_ATOM_COUNT>
7

> <PUBCHEM_ATOM_DEF_STEREO_COUNT>
0

> <PUBCHEM_ATOM_UDEF_STEREO_COUNT>
0

> <PUBCHEM_BOND_DEF_STEREO_COUNT>
0

> <PUBCHEM_BOND_UDEF_STEREO_COUNT>
0

> <PUBCHEM_ISOTOPIC_ATOM_COUNT>
0

> <PUBCHEM_COMPONENT_COUNT>
1

> <PUBCHEM_CACTVS_TAUTO_COUNT>
1

> <PUBCHEM_COORDINATE_TYPE>
1
5
255

$$$$

