17396397
  -OEChem-06241222562D

 47 49  0     1  0  0  0  0  0999 V2000
    4.5274    0.4392    0.0000 S   0  0  0  0  0  0  0  0  0  0  0  0
    8.0321   -0.4734    0.0000 S   0  0  0  0  0  0  0  0  0  0  0  0
    5.3923   -2.8318    0.0000 O   0  0  0  0  0  0  0  0  0  0  0  0
    9.9867   -0.0500    0.0000 O   0  0  0  0  0  0  0  0  0  0  0  0
    9.6201    1.6428    0.0000 N   0  0  0  0  0  0  0  0  0  0  0  0
    6.3518    0.0836    0.0000 N   0  0  0  0  0  0  0  0  0  0  0  0
    6.7328   -1.6757    0.0000 N   0  0  0  0  0  0  0  0  0  0  0  0
    3.3424   -1.8844    0.0000 C   0  0  0  0  0  0  0  0  0  0  0  0
    4.0274   -1.0997    0.0000 C   0  0  0  0  0  0  0  0  0  0  0  0
    2.3219   -1.6757    0.0000 C   0  0  0  0  0  0  0  0  0  0  0  0
    2.0000   -0.6850    0.0000 C   0  0  0  0  0  0  0  0  0  0  0  0
    2.7029    0.0836    0.0000 C   0  0  0  0  0  0  0  0  0  0  0  0
    3.7183   -0.1486    0.0000 C   0  0  0  0  0  0  0  0  0  0  0  0
    5.0274   -1.0997    0.0000 C   0  0  0  0  0  0  0  0  0  0  0  0
    5.3364   -0.1486    0.0000 C   0  0  0  0  0  0  0  0  0  0  0  0
   10.5974    1.8545    0.0000 C   0  0  0  0  0  0  0  0  0  0  0  0
    5.7123   -1.8844    0.0000 C   0  0  0  0  0  0  0  0  0  0  0  0
    7.0547   -0.6850    0.0000 C   0  0  0  0  0  0  0  0  0  0  0  0
    8.3374    0.4789    0.0000 C   0  0  3  0  0  0  0  0  0  0  0  0
   11.5748    2.0662    0.0000 C   0  0  0  0  0  0  0  0  0  0  0  0
   10.3858    2.8318    0.0000 C   0  0  0  0  0  0  0  0  0  0  0  0
   10.8091    0.8771    0.0000 C   0  0  0  0  0  0  0  0  0  0  0  0
    9.3148    0.6906    0.0000 C   0  0  0  0  0  0  0  0  0  0  0  0
    7.6654    1.2194    0.0000 C   0  0  0  0  0  0  0  0  0  0  0  0
    3.1160   -2.4616    0.0000 H   0  0  0  0  0  0  0  0  0  0  0  0
    3.8724   -2.2062    0.0000 H   0  0  0  0  0  0  0  0  0  0  0  0
    1.7081   -1.7636    0.0000 H   0  0  0  0  0  0  0  0  0  0  0  0
    2.3034   -2.2954    0.0000 H   0  0  0  0  0  0  0  0  0  0  0  0
    1.6208   -0.1945    0.0000 H   0  0  0  0  0  0  0  0  0  0  0  0
    1.4518   -0.9747    0.0000 H   0  0  0  0  0  0  0  0  0  0  0  0
    2.9426    0.6555    0.0000 H   0  0  0  0  0  0  0  0  0  0  0  0
    2.1806    0.4176    0.0000 H   0  0  0  0  0  0  0  0  0  0  0  0
    9.2035    2.1020    0.0000 H   0  0  0  0  0  0  0  0  0  0  0  0
    7.7315    0.3476    0.0000 H   0  0  0  0  0  0  0  0  0  0  0  0
   11.7060    1.4602    0.0000 H   0  0  0  0  0  0  0  0  0  0  0  0
   12.1807    2.1974    0.0000 H   0  0  0  0  0  0  0  0  0  0  0  0
   11.4435    2.6721    0.0000 H   0  0  0  0  0  0  0  0  0  0  0  0
   10.9917    2.9631    0.0000 H   0  0  0  0  0  0  0  0  0  0  0  0
   10.2545    3.4378    0.0000 H   0  0  0  0  0  0  0  0  0  0  0  0
    9.7798    2.7006    0.0000 H   0  0  0  0  0  0  0  0  0  0  0  0
   10.2032    0.7459    0.0000 H   0  0  0  0  0  0  0  0  0  0  0  0
   10.9404    0.2712    0.0000 H   0  0  0  0  0  0  0  0  0  0  0  0
   11.4151    1.0084    0.0000 H   0  0  0  0  0  0  0  0  0  0  0  0
    7.1459   -2.1380    0.0000 H   0  0  0  0  0  0  0  0  0  0  0  0
    8.1246    1.6361    0.0000 H   0  0  0  0  0  0  0  0  0  0  0  0
    7.2488    1.6786    0.0000 H   0  0  0  0  0  0  0  0  0  0  0  0
    7.2063    0.8028    0.0000 H   0  0  0  0  0  0  0  0  0  0  0  0
  1 13  1  0  0  0  0
  1 15  1  0  0  0  0
  2 18  1  0  0  0  0
  2 19  1  0  0  0  0
  3 17  2  0  0  0  0
  4 23  2  0  0  0  0
  5 16  1  0  0  0  0
  5 23  1  0  0  0  0
  5 33  1  0  0  0  0
  6 15  1  0  0  0  0
  6 18  2  0  0  0  0
  7 17  1  0  0  0  0
  7 18  1  0  0  0  0
  7 44  1  0  0  0  0
  8  9  1  0  0  0  0
  8 10  1  0  0  0  0
  8 25  1  0  0  0  0
  8 26  1  0  0  0  0
  9 13  2  0  0  0  0
  9 14  1  0  0  0  0
 10 11  1  0  0  0  0
 10 27  1  0  0  0  0
 10 28  1  0  0  0  0
 11 12  1  0  0  0  0
 11 29  1  0  0  0  0
 11 30  1  0  0  0  0
 12 13  1  0  0  0  0
 12 31  1  0  0  0  0
 12 32  1  0  0  0  0
 14 15  2  0  0  0  0
 14 17  1  0  0  0  0
 16 20  1  0  0  0  0
 16 21  1  0  0  0  0
 16 22  1  0  0  0  0
 19 23  1  0  0  0  0
 19 24  1  0  0  0  0
 19 34  1  0  0  0  0
 20 35  1  0  0  0  0
 20 36  1  0  0  0  0
 20 37  1  0  0  0  0
 21 38  1  0  0  0  0
 21 39  1  0  0  0  0
 21 40  1  0  0  0  0
 22 41  1  0  0  0  0
 22 42  1  0  0  0  0
 22 43  1  0  0  0  0
 24 45  1  0  0  0  0
 24 46  1  0  0  0  0
 24 47  1  0  0  0  0
M  END
> <PUBCHEM_COMPOUND_CID>
17396397

> <PUBCHEM_COMPOUND_CANONICALIZED>
1

> <PUBCHEM_CACTVS_COMPLEXITY>
559

> <PUBCHEM_CACTVS_HBOND_ACCEPTOR>
5

> <PUBCHEM_CACTVS_HBOND_DONOR>
2

> <PUBCHEM_CACTVS_ROTATABLE_BOND>
4

> <PUBCHEM_CACTVS_SUBSKEYS>
AAADceB7MABgAAAAAAAAAAAAAAAAASAAAAAwQAAAAAAAAEgBgAAAHgQQAAAADIiF2ACDgYLAAAisAgFQdACDEIFkCBABiBEARMgIIDqg3JGEAYhglACoyUcYiMCOgAAAAAAAAAAAAAAAAAgAAAAAAAAAAA==

> <PUBCHEM_IUPAC_OPENEYE_NAME>
N-tert-butyl-2-[(4-oxo-5,6,7,8-tetrahydro-3H-benzothiopheno[2,3-d]pyrimidin-2-yl)sulfanyl]propanamide

> <PUBCHEM_IUPAC_CAS_NAME>
N-tert-butyl-2-[(4-oxo-5,6,7,8-tetrahydro-3H-[1]benzothiolo[2,3-d]pyrimidin-2-yl)thio]propanamide

> <PUBCHEM_IUPAC_NAME>
N-tert-butyl-2-[(4-oxo-5,6,7,8-tetrahydro-3H-[1]benzothiolo[2,3-d]pyrimidin-2-yl)sulfanyl]propanamide

> <PUBCHEM_IUPAC_SYSTEMATIC_NAME>
N-tert-butyl-2-[(4-oxidanylidene-5,6,7,8-tetrahydro-3H-[1]benzothiolo[2,3-d]pyrimidin-2-yl)sulfanyl]propanamide

> <PUBCHEM_IUPAC_TRADITIONAL_NAME>
N-tert-butyl-2-[(4-keto-5,6,7,8-tetrahydro-3H-benzothiopheno[2,3-d]pyrimidin-2-yl)thio]propionamide

> <PUBCHEM_IUPAC_INCHI>
InChI=1S/C17H23N3O2S2/c1-9(13(21)20-17(2,3)4)23-16-18-14(22)12-10-7-5-6-8-11(10)24-15(12)19-16/h9H,5-8H2,1-4H3,(H,20,21)(H,18,19,22)

> <PUBCHEM_IUPAC_INCHIKEY>
PCBMXGOUFFCIRS-UHFFFAOYSA-N

> <PUBCHEM_XLOGP3_AA>
3.6

> <PUBCHEM_EXACT_MASS>
365.123169

> <PUBCHEM_MOLECULAR_FORMULA>
C17H23N3O2S2

> <PUBCHEM_MOLECULAR_WEIGHT>
365.51342

> <PUBCHEM_OPENEYE_CAN_SMILES>
CC(C(=O)NC(C)(C)C)SC1=NC2=C(C3=C(S2)CCCC3)C(=O)N1

> <PUBCHEM_OPENEYE_ISO_SMILES>
CC(C(=O)NC(C)(C)C)SC1=NC2=C(C3=C(S2)CCCC3)C(=O)N1

> <PUBCHEM_CACTVS_TPSA>
124

> <PUBCHEM_MONOISOTOPIC_WEIGHT>
365.123169

> <PUBCHEM_TOTAL_CHARGE>
0

> <PUBCHEM_HEAVY_ATOM_COUNT>
24

> <PUBCHEM_ATOM_DEF_STEREO_COUNT>
0

> <PUBCHEM_ATOM_UDEF_STEREO_COUNT>
1

> <PUBCHEM_BOND_DEF_STEREO_COUNT>
0

> <PUBCHEM_BOND_UDEF_STEREO_COUNT>
0

> <PUBCHEM_ISOTOPIC_ATOM_COUNT>
0

> <PUBCHEM_COMPONENT_COUNT>
1

> <PUBCHEM_CACTVS_TAUTO_COUNT>
8

> <PUBCHEM_COORDINATE_TYPE>
1
5
255

> <PUBCHEM_BONDANNOTATIONS>
1  13  8
1  15  8
14  15  8
14  17  8
19  24  3
6  15  8
6  18  8
7  17  8
7  18  8
9  13  8
9  14  8

$$$$

