17396358
  -OEChem-06241222563D

 41 42  0     0  0  0  0  0  0999 V2000
    1.9594    0.1838   -0.1702 O   0  0  0  0  0  0  0  0  0  0  0  0
   -5.6351    2.1619   -0.1208 O   0  0  0  0  0  0  0  0  0  0  0  0
   -0.2811   -1.2422    0.0115 O   0  0  0  0  0  0  0  0  0  0  0  0
    3.1764    2.1225   -0.4154 O   0  0  0  0  0  0  0  0  0  0  0  0
   -4.3280   -2.7543    0.3015 O   0  0  0  0  0  0  0  0  0  0  0  0
   -5.3025   -0.6148    0.1294 N   0  0  0  0  0  0  0  0  0  0  0  0
   -1.8102    0.5449   -0.1015 C   0  0  0  0  0  0  0  0  0  0  0  0
   -4.2043    0.2400    0.0102 C   0  0  0  0  0  0  0  0  0  0  0  0
   -2.9167   -0.2963    0.0161 C   0  0  0  0  0  0  0  0  0  0  0  0
    4.3031    0.0319   -0.2042 C   0  0  0  0  0  0  0  0  0  0  0  0
   -0.4672   -0.0133   -0.0965 C   0  0  0  0  0  0  0  0  0  0  0  0
    5.2601    0.1963    0.7970 C   0  0  0  0  0  0  0  0  0  0  0  0
   -1.9914    1.9224   -0.2251 C   0  0  0  0  0  0  0  0  0  0  0  0
    0.7481    0.9142   -0.2271 C   0  0  0  0  0  0  0  0  0  0  0  0
   -4.3854    1.6175   -0.1134 C   0  0  0  0  0  0  0  0  0  0  0  0
   -3.2789    2.4588   -0.2311 C   0  0  0  0  0  0  0  0  0  0  0  0
    3.1089    0.9110   -0.2769 C   0  0  0  0  0  0  0  0  0  0  0  0
    4.4583   -0.9730   -1.1592 C   0  0  0  0  0  0  0  0  0  0  0  0
    6.3724   -0.6441    0.8434 C   0  0  0  0  0  0  0  0  0  0  0  0
    5.1185    1.2645    1.8323 C   0  0  0  0  0  0  0  0  0  0  0  0
    5.5707   -1.8134   -1.1127 C   0  0  0  0  0  0  0  0  0  0  0  0
    6.5278   -1.6490   -0.1115 C   0  0  0  0  0  0  0  0  0  0  0  0
   -5.3015   -2.0088    0.2616 C   0  0  0  0  0  0  0  0  0  0  0  0
   -6.7013   -2.5607    0.3627 C   0  0  0  0  0  0  0  0  0  0  0  0
   -2.7199   -1.3540    0.1084 H   0  0  0  0  0  0  0  0  0  0  0  0
   -1.1607    2.6143   -0.3206 H   0  0  0  0  0  0  0  0  0  0  0  0
    0.7302    1.6281    0.6037 H   0  0  0  0  0  0  0  0  0  0  0  0
    0.6886    1.4276   -1.1932 H   0  0  0  0  0  0  0  0  0  0  0  0
   -3.4056    3.5338   -0.3283 H   0  0  0  0  0  0  0  0  0  0  0  0
    3.7222   -1.1108   -1.9471 H   0  0  0  0  0  0  0  0  0  0  0  0
    7.1282   -0.5288    1.6158 H   0  0  0  0  0  0  0  0  0  0  0  0
   -6.2105   -0.1547    0.1174 H   0  0  0  0  0  0  0  0  0  0  0  0
    5.2743    2.2517    1.3856 H   0  0  0  0  0  0  0  0  0  0  0  0
    4.1282    1.2276    2.2983 H   0  0  0  0  0  0  0  0  0  0  0  0
    5.8517    1.1464    2.6379 H   0  0  0  0  0  0  0  0  0  0  0  0
    5.6921   -2.5953   -1.8567 H   0  0  0  0  0  0  0  0  0  0  0  0
    7.3941   -2.3031   -0.0760 H   0  0  0  0  0  0  0  0  0  0  0  0
   -5.5608    3.1272   -0.2143 H   0  0  0  0  0  0  0  0  0  0  0  0
   -7.2744   -2.2848   -0.5271 H   0  0  0  0  0  0  0  0  0  0  0  0
   -7.1930   -2.1595    1.2533 H   0  0  0  0  0  0  0  0  0  0  0  0
   -6.6655   -3.6510    0.4368 H   0  0  0  0  0  0  0  0  0  0  0  0
  1 14  1  0  0  0  0
  1 17  1  0  0  0  0
  2 15  1  0  0  0  0
  2 38  1  0  0  0  0
  3 11  2  0  0  0  0
  4 17  2  0  0  0  0
  5 23  2  0  0  0  0
  6  8  1  0  0  0  0
  6 23  1  0  0  0  0
  6 32  1  0  0  0  0
  7  9  2  0  0  0  0
  7 11  1  0  0  0  0
  7 13  1  0  0  0  0
  8  9  1  0  0  0  0
  8 15  2  0  0  0  0
  9 25  1  0  0  0  0
 10 12  1  0  0  0  0
 10 17  1  0  0  0  0
 10 18  2  0  0  0  0
 11 14  1  0  0  0  0
 12 19  2  0  0  0  0
 12 20  1  0  0  0  0
 13 16  2  0  0  0  0
 13 26  1  0  0  0  0
 14 27  1  0  0  0  0
 14 28  1  0  0  0  0
 15 16  1  0  0  0  0
 16 29  1  0  0  0  0
 18 21  1  0  0  0  0
 18 30  1  0  0  0  0
 19 22  1  0  0  0  0
 19 31  1  0  0  0  0
 20 33  1  0  0  0  0
 20 34  1  0  0  0  0
 20 35  1  0  0  0  0
 21 22  2  0  0  0  0
 21 36  1  0  0  0  0
 22 37  1  0  0  0  0
 23 24  1  0  0  0  0
 24 39  1  0  0  0  0
 24 40  1  0  0  0  0
 24 41  1  0  0  0  0
M  END
> <PUBCHEM_COMPOUND_CID>
17396358

> <PUBCHEM_CONFORMER_RMSD>
1.2

> <PUBCHEM_CONFORMER_DIVERSEORDER>
2
96
109
37
86
72
84
7
52
101
99
45
33
68
98
89
44
4
21
48
15
75
76
87
59
71
94
14
62
65
90
11
107
63
36
111
40
95
28
108
1
55
56
46
58
93
54
18
104
6
73
102
57
8
82
106
91
50
81
13
61
97
92
100
51
29
83
66
17
110
3
24
70
12
88
85
42
79
39
103
25
105
69
67
43
80
78
5
31
35
77
53
74
16
26
22
64
9
32
34
20
27
10
47
23
30
19
41
38
60
49

> <PUBCHEM_MMFF94_PARTIAL_CHARGES>
33
1 -0.43
10 0.09
11 0.42
12 -0.14
13 -0.15
14 0.34
15 0.08
16 -0.15
17 0.63
18 -0.15
19 -0.15
2 -0.53
20 0.14
21 -0.15
22 -0.15
23 0.57
24 0.06
25 0.15
26 0.15
29 0.15
3 -0.57
30 0.15
31 0.15
32 0.37
36 0.15
37 0.15
38 0.45
4 -0.57
5 -0.57
6 -0.55
7 0.09
8 0.12
9 -0.15

> <PUBCHEM_EFFECTIVE_ROTOR_COUNT>
7

> <PUBCHEM_PHARMACOPHORE_FEATURES>
7
1 2 donor
1 3 acceptor
1 4 acceptor
1 5 acceptor
1 6 donor
6 10 12 18 19 21 22 rings
6 7 8 9 13 15 16 rings

> <PUBCHEM_HEAVY_ATOM_COUNT>
24

> <PUBCHEM_ATOM_DEF_STEREO_COUNT>
0

> <PUBCHEM_ATOM_UDEF_STEREO_COUNT>
0

> <PUBCHEM_BOND_DEF_STEREO_COUNT>
0

> <PUBCHEM_BOND_UDEF_STEREO_COUNT>
0

> <PUBCHEM_ISOTOPIC_ATOM_COUNT>
0

> <PUBCHEM_COMPONENT_COUNT>
1

> <PUBCHEM_CACTVS_TAUTO_COUNT>
18

> <PUBCHEM_CONFORMER_ID>
0109728600000002

> <PUBCHEM_MMFF94_ENERGY>
72.4242

> <PUBCHEM_FEATURE_SELFOVERLAP>
35.524

> <PUBCHEM_SHAPE_FINGERPRINT>
10319926 262 18408891753941617000
10411042 1 18268427937725455571
11524674 6 17095520687074655543
11545043 162 18334860523599411161
11991303 11 14764338298147378091
12166972 35 17561080268056461341
12236239 1 17988924479066919908
12596602 18 18410298008250208536
12616971 3 17561072618841136621
13073987 5 17822006514989654488
13782708 43 18261109638931985539
13862211 1 18342738481800349947
14211702 104 18342452595554882827
14251751 18 18408601457181000054
14347332 77 18342175561858725047
15042514 8 18411135827594420293
15183329 4 16702303446996392938
15188451 53 18343308037065196031
15348495 7 18260832583423732496
15419008 42 18045503276888531759
17844677 252 18411130329514106800
17857418 61 17989491822560810722
18222031 100 17346599655918032556
18335252 98 18336262336885119426
18927931 339 18273207600232991371
19377110 9 14562526297253884118
19489759 90 18272932751858172433
20028762 73 18411136896646300582
21130935 74 18408323315531830810
21236236 1 18410572882104582819
21267235 1 18271518720424124395
21623969 137 17530961397613408366
220451 1 17917147311817222816
2303208 19 18187076274091059014
23081809 10 17346876762791592660
23402539 116 18342741823253257965
23522609 53 17773005731526841884
23559900 14 18409454699600272217
23569914 152 12387914424716091074
3004659 81 18200867470635711692
3383291 50 18201438022165192275
397830 11 18260556576088063160
4073 2 18411416228734309466
4214541 1 18411980282304447693
5104073 3 18187364337426354400
559249 180 18342740736869008047
5718773 13 18265053527697494047
7495541 125 17895195454631196256
9995097 60 18187083987852355238
9996256 80 18411980256233820570

> <PUBCHEM_SHAPE_MULTIPOLES>
459.58
19.42
2.72
0.95
3.94
0.5
-0.18
9.32
-2.46
-4.08
0.02
1.58
-0.02
1.92

> <PUBCHEM_SHAPE_SELFOVERLAP>
979.638

> <PUBCHEM_SHAPE_VOLUME>
254.4

> <PUBCHEM_COORDINATE_TYPE>
2
5
10

$$$$

