583006
  -OEChem-06241222442D

 36 36  0     0  0  0  0  0  0999 V2000
    5.4641   -1.8100    0.0000 O   0  0  0  0  0  0  0  0  0  0  0  0
    3.7321   -1.8100    0.0000 N   0  0  0  0  0  0  0  0  0  0  0  0
    2.8660   -3.3100    0.0000 C   0  0  0  0  0  0  0  0  0  0  0  0
    3.7321   -2.8100    0.0000 C   0  0  0  0  0  0  0  0  0  0  0  0
    2.8660   -4.3100    0.0000 C   0  0  0  0  0  0  0  0  0  0  0  0
    3.7321   -4.8100    0.0000 C   0  0  0  0  0  0  0  0  0  0  0  0
    2.0000   -4.8100    0.0000 C   0  0  0  0  0  0  0  0  0  0  0  0
    4.5981   -1.3100    0.0000 C   0  0  0  0  0  0  0  0  0  0  0  0
    3.7321   -5.8100    0.0000 C   0  0  0  0  0  0  0  0  0  0  0  0
    2.0000   -5.8100    0.0000 C   0  0  0  0  0  0  0  0  0  0  0  0
    5.4641    1.1900    0.0000 C   0  0  0  0  0  0  0  0  0  0  0  0
    2.8660   -6.3100    0.0000 C   0  0  0  0  0  0  0  0  0  0  0  0
    4.5981   -0.3100    0.0000 C   0  0  0  0  0  0  0  0  0  0  0  0
    5.4641    0.1900    0.0000 C   0  0  0  0  0  0  0  0  0  0  0  0
    6.3301    1.6900    0.0000 C   0  0  0  0  0  0  0  0  0  0  0  0
    6.3301    2.6900    0.0000 C   0  0  0  0  0  0  0  0  0  0  0  0
    6.3301    3.6900    0.0000 C   0  0  0  0  0  0  0  0  0  0  0  0
    6.3301    4.6900    0.0000 C   0  0  0  0  0  0  0  0  0  0  0  0
    6.3301    5.6900    0.0000 C   0  0  0  0  0  0  0  0  0  0  0  0
    2.6540   -2.7274    0.0000 H   0  0  0  0  0  0  0  0  0  0  0  0
    2.2554   -3.4177    0.0000 H   0  0  0  0  0  0  0  0  0  0  0  0
    3.9441   -3.3926    0.0000 H   0  0  0  0  0  0  0  0  0  0  0  0
    4.3426   -2.7023    0.0000 H   0  0  0  0  0  0  0  0  0  0  0  0
    3.1951   -1.5000    0.0000 H   0  0  0  0  0  0  0  0  0  0  0  0
    4.2690   -4.5000    0.0000 H   0  0  0  0  0  0  0  0  0  0  0  0
    1.4631   -4.5000    0.0000 H   0  0  0  0  0  0  0  0  0  0  0  0
    4.2690   -6.1200    0.0000 H   0  0  0  0  0  0  0  0  0  0  0  0
    1.4631   -6.1200    0.0000 H   0  0  0  0  0  0  0  0  0  0  0  0
    5.2520    1.7726    0.0000 H   0  0  0  0  0  0  0  0  0  0  0  0
    4.8535    1.0823    0.0000 H   0  0  0  0  0  0  0  0  0  0  0  0
    2.8660   -6.9300    0.0000 H   0  0  0  0  0  0  0  0  0  0  0  0
    4.0611    0.0000    0.0000 H   0  0  0  0  0  0  0  0  0  0  0  0
    6.0010   -0.1200    0.0000 H   0  0  0  0  0  0  0  0  0  0  0  0
    6.5422    1.1074    0.0000 H   0  0  0  0  0  0  0  0  0  0  0  0
    6.9407    1.7977    0.0000 H   0  0  0  0  0  0  0  0  0  0  0  0
    6.3301    6.3100    0.0000 H   0  0  0  0  0  0  0  0  0  0  0  0
  1  8  2  0  0  0  0
  2  4  1  0  0  0  0
  2  8  1  0  0  0  0
  2 24  1  0  0  0  0
  3  4  1  0  0  0  0
  3  5  1  0  0  0  0
  3 20  1  0  0  0  0
  3 21  1  0  0  0  0
  4 22  1  0  0  0  0
  4 23  1  0  0  0  0
  5  6  2  0  0  0  0
  5  7  1  0  0  0  0
  6  9  1  0  0  0  0
  6 25  1  0  0  0  0
  7 10  2  0  0  0  0
  7 26  1  0  0  0  0
  8 13  1  0  0  0  0
  9 12  2  0  0  0  0
  9 27  1  0  0  0  0
 10 12  1  0  0  0  0
 10 28  1  0  0  0  0
 11 14  1  0  0  0  0
 11 15  1  0  0  0  0
 11 29  1  0  0  0  0
 11 30  1  0  0  0  0
 12 31  1  0  0  0  0
 13 14  2  3  0  0  0
 13 32  1  0  0  0  0
 14 33  1  0  0  0  0
 15 16  1  0  0  0  0
 15 34  1  0  0  0  0
 15 35  1  0  0  0  0
 16 17  3  0  0  0  0
 17 18  1  0  0  0  0
 18 19  3  0  0  0  0
 19 36  1  0  0  0  0
M  END
> <PUBCHEM_COMPOUND_CID>
583006

> <PUBCHEM_COMPOUND_CANONICALIZED>
1

> <PUBCHEM_CACTVS_COMPLEXITY>
406

> <PUBCHEM_CACTVS_HBOND_ACCEPTOR>
1

> <PUBCHEM_CACTVS_HBOND_DONOR>
1

> <PUBCHEM_CACTVS_ROTATABLE_BOND>
7

> <PUBCHEM_CACTVS_SUBSKEYS>
AAADceB6IAAAAAAAAAAAAAAAAAAAAAAAAAAwAAAAAAAAAAABAAAAHgAQAAAADADBmAQwAILAAADIGiFSEAiCAAAgAAAIiIAIAMgIICKAkRGEIAAglgCIiYcQgIAOAAAAAAAAAAAAAAAAAAAAAAAAAAAAAA==

> <PUBCHEM_IUPAC_OPENEYE_NAME>
N-(2-phenylethyl)non-2-en-6,8-diynamide

> <PUBCHEM_IUPAC_CAS_NAME>
N-(2-phenylethyl)non-2-en-6,8-diynamide

> <PUBCHEM_IUPAC_NAME>
N-(2-phenylethyl)non-2-en-6,8-diynamide

> <PUBCHEM_IUPAC_SYSTEMATIC_NAME>
N-(2-phenylethyl)non-2-en-6,8-diynamide

> <PUBCHEM_IUPAC_TRADITIONAL_NAME>
N-phenethylnon-2-en-6,8-diynamide

> <PUBCHEM_IUPAC_INCHI>
InChI=1S/C17H17NO/c1-2-3-4-5-6-10-13-17(19)18-15-14-16-11-8-7-9-12-16/h1,7-13H,5-6,14-15H2,(H,18,19)

> <PUBCHEM_IUPAC_INCHIKEY>
NXJSNVBJQUBKHB-UHFFFAOYSA-N

> <PUBCHEM_XLOGP3_AA>
3.2

> <PUBCHEM_EXACT_MASS>
251.131014

> <PUBCHEM_MOLECULAR_FORMULA>
C17H17NO

> <PUBCHEM_MOLECULAR_WEIGHT>
251.32298

> <PUBCHEM_OPENEYE_CAN_SMILES>
C#CC#CCCC=CC(=O)NCCC1=CC=CC=C1

> <PUBCHEM_OPENEYE_ISO_SMILES>
C#CC#CCCC=CC(=O)NCCC1=CC=CC=C1

> <PUBCHEM_CACTVS_TPSA>
29.1

> <PUBCHEM_MONOISOTOPIC_WEIGHT>
251.131014

> <PUBCHEM_TOTAL_CHARGE>
0

> <PUBCHEM_HEAVY_ATOM_COUNT>
19

> <PUBCHEM_ATOM_DEF_STEREO_COUNT>
0

> <PUBCHEM_ATOM_UDEF_STEREO_COUNT>
0

> <PUBCHEM_BOND_DEF_STEREO_COUNT>
0

> <PUBCHEM_BOND_UDEF_STEREO_COUNT>
1

> <PUBCHEM_ISOTOPIC_ATOM_COUNT>
0

> <PUBCHEM_COMPONENT_COUNT>
1

> <PUBCHEM_CACTVS_TAUTO_COUNT>
2

> <PUBCHEM_COORDINATE_TYPE>
1
5
255

> <PUBCHEM_BONDANNOTATIONS>
10  12  8
13  14  1
5  6  8
5  7  8
6  9  8
7  10  8
9  12  8

$$$$

