17395907
  -OEChem-06241222533D

 51 53  0     0  0  0  0  0  0999 V2000
   -0.1565   -1.0813   -1.8494 O   0  0  0  0  0  0  0  0  0  0  0  0
   -5.7299   -0.5266    0.6557 O   0  0  0  0  0  0  0  0  0  0  0  0
    4.0038   -0.0209    0.4802 N   0  0  0  0  0  0  0  0  0  0  0  0
    0.4151   -0.9472    0.4212 N   0  0  0  0  0  0  0  0  0  0  0  0
   -2.5013   -1.8646   -0.0675 N   0  0  0  0  0  0  0  0  0  0  0  0
   -3.8243   -1.7935    0.2637 N   0  0  0  0  0  0  0  0  0  0  0  0
    2.6031    0.2233    0.1369 C   0  0  0  0  0  0  0  0  0  0  0  0
    4.5606   -1.0889   -0.3619 C   0  0  0  0  0  0  0  0  0  0  0  0
    4.7869    1.2164    0.3558 C   0  0  0  0  0  0  0  0  0  0  0  0
    6.0112   -1.3909    0.0174 C   0  0  0  0  0  0  0  0  0  0  0  0
    6.2448    0.9898    0.7588 C   0  0  0  0  0  0  0  0  0  0  0  0
    6.8752   -0.1369   -0.0518 C   0  0  0  0  0  0  0  0  0  0  0  0
    1.8463   -1.1078    0.3057 C   0  0  0  0  0  0  0  0  0  0  0  0
    2.5341    0.7272   -1.3122 C   0  0  0  0  0  0  0  0  0  0  0  0
    2.0657    1.2971    1.0928 C   0  0  0  0  0  0  0  0  0  0  0  0
   -0.4272   -0.9515   -0.6660 C   0  0  0  0  0  0  0  0  0  0  0  0
   -1.8567   -0.7688   -0.2998 C   0  0  0  0  0  0  0  0  0  0  0  0
   -2.4415    0.5687   -0.2233 C   0  0  0  0  0  0  0  0  0  0  0  0
   -3.7897    0.6432    0.1074 C   0  0  0  0  0  0  0  0  0  0  0  0
   -1.7065    1.7337   -0.4549 C   0  0  0  0  0  0  0  0  0  0  0  0
   -4.5378   -0.6016    0.3656 C   0  0  0  0  0  0  0  0  0  0  0  0
   -4.4198    1.8886    0.2000 C   0  0  0  0  0  0  0  0  0  0  0  0
   -2.3358    2.9759   -0.3627 C   0  0  0  0  0  0  0  0  0  0  0  0
   -3.6896    3.0534   -0.0374 C   0  0  0  0  0  0  0  0  0  0  0  0
   -4.5303   -3.0367    0.5256 C   0  0  0  0  0  0  0  0  0  0  0  0
    4.0358   -2.0400   -0.2356 H   0  0  0  0  0  0  0  0  0  0  0  0
    4.5595   -0.8429   -1.4286 H   0  0  0  0  0  0  0  0  0  0  0  0
    4.8161    1.6160   -0.6622 H   0  0  0  0  0  0  0  0  0  0  0  0
    4.4311    2.0071    1.0216 H   0  0  0  0  0  0  0  0  0  0  0  0
    6.4196   -2.1570   -0.6518 H   0  0  0  0  0  0  0  0  0  0  0  0
    6.0474   -1.8032    1.0340 H   0  0  0  0  0  0  0  0  0  0  0  0
    6.8192    1.9125    0.6160 H   0  0  0  0  0  0  0  0  0  0  0  0
    6.2972    0.7439    1.8273 H   0  0  0  0  0  0  0  0  0  0  0  0
    7.8818   -0.3524    0.3230 H   0  0  0  0  0  0  0  0  0  0  0  0
    6.9808    0.1783   -1.0971 H   0  0  0  0  0  0  0  0  0  0  0  0
    2.0178   -1.7902   -0.5346 H   0  0  0  0  0  0  0  0  0  0  0  0
    2.1511   -1.6172    1.2287 H   0  0  0  0  0  0  0  0  0  0  0  0
    2.8450   -0.0051   -2.0621 H   0  0  0  0  0  0  0  0  0  0  0  0
    3.0514    1.6713   -1.4999 H   0  0  0  0  0  0  0  0  0  0  0  0
    1.4907    0.9565   -1.5601 H   0  0  0  0  0  0  0  0  0  0  0  0
    0.9777    1.3937    1.0262 H   0  0  0  0  0  0  0  0  0  0  0  0
    2.4392    2.3028    0.8723 H   0  0  0  0  0  0  0  0  0  0  0  0
    2.2960    1.0599    2.1385 H   0  0  0  0  0  0  0  0  0  0  0  0
    0.0232   -0.8285    1.3511 H   0  0  0  0  0  0  0  0  0  0  0  0
   -0.6555    1.7028   -0.7198 H   0  0  0  0  0  0  0  0  0  0  0  0
   -5.4722    1.9730    0.4560 H   0  0  0  0  0  0  0  0  0  0  0  0
   -1.7699    3.8845   -0.5469 H   0  0  0  0  0  0  0  0  0  0  0  0
   -4.1756    4.0222    0.0332 H   0  0  0  0  0  0  0  0  0  0  0  0
   -4.0211   -3.5593    1.3408 H   0  0  0  0  0  0  0  0  0  0  0  0
   -5.5749   -2.8772    0.8036 H   0  0  0  0  0  0  0  0  0  0  0  0
   -4.4921   -3.6527   -0.3777 H   0  0  0  0  0  0  0  0  0  0  0  0
  1 16  2  0  0  0  0
  2 21  2  0  0  0  0
  3  7  1  0  0  0  0
  3  8  1  0  0  0  0
  3  9  1  0  0  0  0
  4 13  1  0  0  0  0
  4 16  1  0  0  0  0
  4 44  1  0  0  0  0
  5  6  1  0  0  0  0
  5 17  2  0  0  0  0
  6 21  1  0  0  0  0
  6 25  1  0  0  0  0
  7 13  1  0  0  0  0
  7 14  1  0  0  0  0
  7 15  1  0  0  0  0
  8 10  1  0  0  0  0
  8 26  1  0  0  0  0
  8 27  1  0  0  0  0
  9 11  1  0  0  0  0
  9 28  1  0  0  0  0
  9 29  1  0  0  0  0
 10 12  1  0  0  0  0
 10 30  1  0  0  0  0
 10 31  1  0  0  0  0
 11 12  1  0  0  0  0
 11 32  1  0  0  0  0
 11 33  1  0  0  0  0
 12 34  1  0  0  0  0
 12 35  1  0  0  0  0
 13 36  1  0  0  0  0
 13 37  1  0  0  0  0
 14 38  1  0  0  0  0
 14 39  1  0  0  0  0
 14 40  1  0  0  0  0
 15 41  1  0  0  0  0
 15 42  1  0  0  0  0
 15 43  1  0  0  0  0
 16 17  1  0  0  0  0
 17 18  1  0  0  0  0
 18 19  1  0  0  0  0
 18 20  2  0  0  0  0
 19 21  1  0  0  0  0
 19 22  2  0  0  0  0
 20 23  1  0  0  0  0
 20 45  1  0  0  0  0
 22 24  1  0  0  0  0
 22 46  1  0  0  0  0
 23 24  2  0  0  0  0
 23 47  1  0  0  0  0
 24 48  1  0  0  0  0
 25 49  1  0  0  0  0
 25 50  1  0  0  0  0
 25 51  1  0  0  0  0
M  END
> <PUBCHEM_COMPOUND_CID>
17395907

> <PUBCHEM_CONFORMER_RMSD>
0.8

> <PUBCHEM_CONFORMER_DIVERSEORDER>
2
60
57
20
72
76
82
40
81
83
13
79
33
71
70
48
10
62
78
36
42
7
61
56
14
38
86
24
37
66
58
55
63
15
25
6
85
84
74
67
87
32
73
5
12
47
21
68
34
28
54
35
50
59
27
3
39
51
88
75
46
16
89
22
69
43
23
52
80
53
65
77
4
44
11
26
17
49
18
29
19
9
30
64
31
41
45
1
8

> <PUBCHEM_MMFF94_PARTIAL_CHARGES>
25
1 -0.57
13 0.3
16 0.63
17 0.36
18 0.09
19 0.09
2 -0.57
20 -0.15
21 0.54
22 -0.15
23 -0.15
24 -0.15
25 0.3
3 -0.81
4 -0.73
44 0.37
45 0.15
46 0.15
47 0.15
48 0.15
5 -0.51
6 -0.3
7 0.27
8 0.27
9 0.27

> <PUBCHEM_EFFECTIVE_ROTOR_COUNT>
6.2

> <PUBCHEM_PHARMACOPHORE_FEATURES>
9
1 1 acceptor
1 2 acceptor
1 3 cation
1 4 donor
1 5 acceptor
3 7 14 15 hydrophobe
6 18 19 20 22 23 24 rings
6 3 8 9 10 11 12 rings
6 5 6 17 18 19 21 rings

> <PUBCHEM_HEAVY_ATOM_COUNT>
25

> <PUBCHEM_ATOM_DEF_STEREO_COUNT>
0

> <PUBCHEM_ATOM_UDEF_STEREO_COUNT>
0

> <PUBCHEM_BOND_DEF_STEREO_COUNT>
0

> <PUBCHEM_BOND_UDEF_STEREO_COUNT>
0

> <PUBCHEM_ISOTOPIC_ATOM_COUNT>
0

> <PUBCHEM_COMPONENT_COUNT>
1

> <PUBCHEM_CACTVS_TAUTO_COUNT>
2

> <PUBCHEM_CONFORMER_ID>
010970C300000002

> <PUBCHEM_MMFF94_ENERGY>
59.987

> <PUBCHEM_FEATURE_SELFOVERLAP>
45.694

> <PUBCHEM_SHAPE_FINGERPRINT>
10 15 18335712603073887840
10319926 262 18337122236640526074
10411042 1 18123749756578428059
10595046 47 18343581811845890422
11315181 36 17988923353410701644
12107183 9 17766850802672401922
12166972 35 18342171151260225344
12236239 1 17917991694172357988
12403259 415 18040444282688216304
12507560 40 18335139812817374702
12596602 18 17846782880013850176
12916748 109 18413670210507165706
13073987 5 18342182172388640522
13402501 40 18259987097457537849
13403585 85 18409450275873264264
13583140 156 18040721359270411838
13782708 43 17822011969313614942
14341114 176 18341891900559102650
14420673 8 18195526120088816870
14844126 61 18271239410027146147
14849402 71 17987510413194720884
14933364 13 18408601462103604352
15042514 8 18339640015416374763
15183329 4 18410295848124075874
15196674 1 18409731781136447968
17844677 252 18411413995477773048
18927931 339 18410289194993212559
200 152 13254803429680922286
21033648 29 17822871835067407440
21065198 48 18129951181597645426
21236236 1 18408605876860668033
21267235 1 18342731897747302115
21279426 13 18262798613852424158
21315764 268 18335708213121834896
21792934 111 18412823561227404601
21792961 116 17967808384684486750
23402539 116 18341335500547151239
23557571 272 18334852844419256213
23559900 14 18411146805351760145
23569943 247 16771843288836086706
350125 39 18409728439440849656
392239 28 18130494233447444299
4073 2 18201996608769015266
4214541 1 18410575115028783736
5104073 3 18338244846871341472
5265222 85 18189890930139174702
5969126 39 18261121721334353303
7097593 13 17842011171332339235
9995097 60 18187646942433137582
9996256 80 18409730655765267730

> <PUBCHEM_SHAPE_MULTIPOLES>
482.83
15.3
2.82
0.95
16.72
0.58
-0.21
-1.12
2.78
-4.58
0.1
0.3
-0.01
0.89

> <PUBCHEM_SHAPE_SELFOVERLAP>
1024.338

> <PUBCHEM_SHAPE_VOLUME>
270.1

> <PUBCHEM_COORDINATE_TYPE>
2
5
10

$$$$

