9162
  -OEChem-06261203283D

 36 40  0     0  0  0  0  0  0999 V2000
    0.7255    0.7593    0.0004 C   0  0  0  0  0  0  0  0  0  0  0  0
   -0.7254    0.7593    0.0003 C   0  0  0  0  0  0  0  0  0  0  0  0
    1.4523   -0.4625    0.0005 C   0  0  0  0  0  0  0  0  0  0  0  0
   -1.4524   -0.4625    0.0005 C   0  0  0  0  0  0  0  0  0  0  0  0
    2.8985   -0.4723    0.0002 C   0  0  0  0  0  0  0  0  0  0  0  0
   -2.8984   -0.4723    0.0002 C   0  0  0  0  0  0  0  0  0  0  0  0
    0.6977   -1.6453    0.0008 C   0  0  0  0  0  0  0  0  0  0  0  0
   -0.6978   -1.6453    0.0008 C   0  0  0  0  0  0  0  0  0  0  0  0
    3.5974    0.7571    0.0000 C   0  0  0  0  0  0  0  0  0  0  0  0
   -3.5973    0.7571   -0.0002 C   0  0  0  0  0  0  0  0  0  0  0  0
    1.4897    1.9471    0.0001 C   0  0  0  0  0  0  0  0  0  0  0  0
   -1.4897    1.9471    0.0001 C   0  0  0  0  0  0  0  0  0  0  0  0
    2.8836    1.9497    0.0001 C   0  0  0  0  0  0  0  0  0  0  0  0
   -2.8835    1.9497   -0.0001 C   0  0  0  0  0  0  0  0  0  0  0  0
    3.6992   -1.6458   -0.0003 C   0  0  0  0  0  0  0  0  0  0  0  0
   -3.6993   -1.6457   -0.0002 C   0  0  0  0  0  0  0  0  0  0  0  0
    5.0032    0.7934   -0.0002 C   0  0  0  0  0  0  0  0  0  0  0  0
   -5.0032    0.7934   -0.0006 C   0  0  0  0  0  0  0  0  0  0  0  0
    5.0968   -1.6012   -0.0008 C   0  0  0  0  0  0  0  0  0  0  0  0
   -5.0969   -1.6012   -0.0004 C   0  0  0  0  0  0  0  0  0  0  0  0
    5.7497   -0.3796   -0.0007 C   0  0  0  0  0  0  0  0  0  0  0  0
   -5.7497   -0.3795   -0.0006 C   0  0  0  0  0  0  0  0  0  0  0  0
    1.1735   -2.6226    0.0010 H   0  0  0  0  0  0  0  0  0  0  0  0
   -1.1737   -2.6226    0.0009 H   0  0  0  0  0  0  0  0  0  0  0  0
    1.0178    2.9260   -0.0001 H   0  0  0  0  0  0  0  0  0  0  0  0
   -1.0177    2.9260    0.0001 H   0  0  0  0  0  0  0  0  0  0  0  0
    3.3992    2.9084   -0.0001 H   0  0  0  0  0  0  0  0  0  0  0  0
   -3.3991    2.9084   -0.0003 H   0  0  0  0  0  0  0  0  0  0  0  0
    3.2488   -2.6349   -0.0003 H   0  0  0  0  0  0  0  0  0  0  0  0
   -3.2488   -2.6349   -0.0001 H   0  0  0  0  0  0  0  0  0  0  0  0
    5.5322    1.7449   -0.0002 H   0  0  0  0  0  0  0  0  0  0  0  0
   -5.5321    1.7449   -0.0008 H   0  0  0  0  0  0  0  0  0  0  0  0
    5.6682   -2.5248   -0.0011 H   0  0  0  0  0  0  0  0  0  0  0  0
   -5.6683   -2.5248   -0.0005 H   0  0  0  0  0  0  0  0  0  0  0  0
    6.8344   -0.3375   -0.0010 H   0  0  0  0  0  0  0  0  0  0  0  0
   -6.8344   -0.3374   -0.0008 H   0  0  0  0  0  0  0  0  0  0  0  0
  1  2  1  0  0  0  0
  1  3  2  0  0  0  0
  1 11  1  0  0  0  0
  2  4  2  0  0  0  0
  2 12  1  0  0  0  0
  3  5  1  0  0  0  0
  3  7  1  0  0  0  0
  4  6  1  0  0  0  0
  4  8  1  0  0  0  0
  5  9  1  0  0  0  0
  5 15  2  0  0  0  0
  6 10  1  0  0  0  0
  6 16  2  0  0  0  0
  7  8  2  0  0  0  0
  7 23  1  0  0  0  0
  8 24  1  0  0  0  0
  9 13  1  0  0  0  0
  9 17  2  0  0  0  0
 10 14  1  0  0  0  0
 10 18  2  0  0  0  0
 11 13  2  0  0  0  0
 11 25  1  0  0  0  0
 12 14  2  0  0  0  0
 12 26  1  0  0  0  0
 13 27  1  0  0  0  0
 14 28  1  0  0  0  0
 15 19  1  0  0  0  0
 15 29  1  0  0  0  0
 16 20  1  0  0  0  0
 16 30  1  0  0  0  0
 17 21  1  0  0  0  0
 17 31  1  0  0  0  0
 18 22  1  0  0  0  0
 18 32  1  0  0  0  0
 19 21  2  0  0  0  0
 19 33  1  0  0  0  0
 20 22  2  0  0  0  0
 20 34  1  0  0  0  0
 21 35  1  0  0  0  0
 22 36  1  0  0  0  0
M  END
> <PUBCHEM_COMPOUND_CID>
9162

> <PUBCHEM_CONFORMER_RMSD>
0.6

> <PUBCHEM_CONFORMER_DIVERSEORDER>
1

> <PUBCHEM_MMFF94_PARTIAL_CHARGES>
28
11 -0.15
12 -0.15
13 -0.15
14 -0.15
15 -0.15
16 -0.15
17 -0.15
18 -0.15
19 -0.15
20 -0.15
21 -0.15
22 -0.15
23 0.15
24 0.15
25 0.15
26 0.15
27 0.15
28 0.15
29 0.15
30 0.15
31 0.15
32 0.15
33 0.15
34 0.15
35 0.15
36 0.15
7 -0.15
8 -0.15

> <PUBCHEM_EFFECTIVE_ROTOR_COUNT>
0

> <PUBCHEM_PHARMACOPHORE_FEATURES>
5
6 1 2 3 4 7 8 rings
6 1 3 5 9 11 13 rings
6 2 4 6 10 12 14 rings
6 5 9 15 17 19 21 rings
6 6 10 16 18 20 22 rings

> <PUBCHEM_HEAVY_ATOM_COUNT>
22

> <PUBCHEM_ATOM_DEF_STEREO_COUNT>
0

> <PUBCHEM_ATOM_UDEF_STEREO_COUNT>
0

> <PUBCHEM_BOND_DEF_STEREO_COUNT>
0

> <PUBCHEM_BOND_UDEF_STEREO_COUNT>
0

> <PUBCHEM_ISOTOPIC_ATOM_COUNT>
0

> <PUBCHEM_COMPONENT_COUNT>
1

> <PUBCHEM_CACTVS_TAUTO_COUNT>
1

> <PUBCHEM_CONFORMER_ID>
000023CA00000001

> <PUBCHEM_MMFF94_ENERGY>
87.2997

> <PUBCHEM_FEATURE_SELFOVERLAP>
25.462

> <PUBCHEM_SHAPE_FINGERPRINT>
10 15 18337684014674783976
10366900 7 17203326727871453568
12107183 9 17691690407947443530
12166972 35 17846776282522051805
12236239 1 18410573989446437929
12403259 226 18410862057203982724
12403259 415 18410865355733480864
12403260 363 18410855460128538565
13140716 1 18265896852155467211
13167823 11 18410857663446553543
13288520 33 18409729573491304037
13402501 40 18410573989446450926
13862211 1 18410859858180278951
14251764 18 18343587331126727346
14341114 176 18411132541358603403
14790565 3 18410569591400245125
15196674 1 18410855464423259013
15536298 74 18408041797014278344
15788980 27 18202843257716200371
17349148 13 18410575084663078915
17844677 252 18409161121342281424
17857418 61 18410294709203303291
1813 80 17274823558458349956
18681886 176 18336270059283848976
19591789 44 18410576188469920835
200 152 18186522103092917193
20028762 73 18259990353111846711
21033648 29 17775021075830762909
21130935 74 18187364341700670474
21236236 1 18336264634835326785
21267235 1 18410567388081827395
21279426 13 18339644571674413175
21682296 61 18115298020442171566
21709351 56 18343308063236030885
221357 26 18409450288599975541
221490 88 18341045220644435960
22393880 68 18129671910044613405
23402539 116 18408046191098170807
23522609 53 18122593202435290180
23559900 14 18410581660522156169
3004659 81 18272367590676841846
335352 9 18410575102655487701
34797466 226 17313098623636962868
350125 39 18410572885645552845
351380 180 18411138021731604843
3545911 37 18410573985156758388
3886686 26 16901053651967956426
4073 2 18059570239665563586
4214541 1 18410574015485552865
465052 167 18335134276425467966
474229 33 18409167709964492847
5104073 3 18408604772716398824
6138700 20 18340485677202019074
7495541 125 17749394732509795960
9709674 26 18341327786516660898

> <PUBCHEM_SHAPE_MULTIPOLES>
452.75
12.68
2.25
0.62
0
0.26
0
-2.89
0
0
0
0
0
0

> <PUBCHEM_SHAPE_SELFOVERLAP>
1050.446

> <PUBCHEM_SHAPE_VOLUME>
210.3

> <PUBCHEM_COORDINATE_TYPE>
2
5
10

$$$$

