14310
  -OEChem-06241222433D

 26 26  0     0  0  0  0  0  0999 V2000
    0.3792    0.6718   -0.0146 N   0  0  0  0  0  0  0  0  0  0  0  0
    2.8166    0.4139    0.0032 C   0  0  0  0  0  0  0  0  0  0  0  0
    1.4661   -0.3000   -0.0239 C   0  0  0  0  0  0  0  0  0  0  0  0
    3.9714   -0.5885    0.0157 C   0  0  0  0  0  0  0  0  0  0  0  0
   -0.9517    0.3156   -0.0061 C   0  0  0  0  0  0  0  0  0  0  0  0
    5.3196    0.1144    0.0069 C   0  0  0  0  0  0  0  0  0  0  0  0
   -1.3449   -1.0401   -0.0059 C   0  0  0  0  0  0  0  0  0  0  0  0
   -1.9691    1.2940    0.0023 C   0  0  0  0  0  0  0  0  0  0  0  0
   -2.6924   -1.4005    0.0020 C   0  0  0  0  0  0  0  0  0  0  0  0
   -3.3166    0.9334    0.0103 C   0  0  0  0  0  0  0  0  0  0  0  0
   -3.6781   -0.4139    0.0102 C   0  0  0  0  0  0  0  0  0  0  0  0
    2.8769    1.0593    0.8886 H   0  0  0  0  0  0  0  0  0  0  0  0
    2.9029    1.0701   -0.8719 H   0  0  0  0  0  0  0  0  0  0  0  0
    1.4042   -0.9208   -0.9257 H   0  0  0  0  0  0  0  0  0  0  0  0
    1.3911   -0.9519    0.8548 H   0  0  0  0  0  0  0  0  0  0  0  0
    3.9043   -1.2451   -0.8596 H   0  0  0  0  0  0  0  0  0  0  0  0
    3.9023   -1.2252    0.9054 H   0  0  0  0  0  0  0  0  0  0  0  0
    0.6094    1.6593   -0.0189 H   0  0  0  0  0  0  0  0  0  0  0  0
    6.1304   -0.6208    0.0170 H   0  0  0  0  0  0  0  0  0  0  0  0
    5.4335    0.7335   -0.8887 H   0  0  0  0  0  0  0  0  0  0  0  0
    5.4324    0.7571    0.8859 H   0  0  0  0  0  0  0  0  0  0  0  0
   -0.6128   -1.8434   -0.0134 H   0  0  0  0  0  0  0  0  0  0  0  0
   -1.7063    2.3498    0.0024 H   0  0  0  0  0  0  0  0  0  0  0  0
   -2.9747   -2.4493    0.0015 H   0  0  0  0  0  0  0  0  0  0  0  0
   -4.0844    1.7015    0.0166 H   0  0  0  0  0  0  0  0  0  0  0  0
   -4.7273   -0.6944    0.0163 H   0  0  0  0  0  0  0  0  0  0  0  0
  1  3  1  0  0  0  0
  1  5  1  0  0  0  0
  1 18  1  0  0  0  0
  2  3  1  0  0  0  0
  2  4  1  0  0  0  0
  2 12  1  0  0  0  0
  2 13  1  0  0  0  0
  3 14  1  0  0  0  0
  3 15  1  0  0  0  0
  4  6  1  0  0  0  0
  4 16  1  0  0  0  0
  4 17  1  0  0  0  0
  5  7  2  0  0  0  0
  5  8  1  0  0  0  0
  6 19  1  0  0  0  0
  6 20  1  0  0  0  0
  6 21  1  0  0  0  0
  7  9  1  0  0  0  0
  7 22  1  0  0  0  0
  8 10  2  0  0  0  0
  8 23  1  0  0  0  0
  9 11  2  0  0  0  0
  9 24  1  0  0  0  0
 10 11  1  0  0  0  0
 10 25  1  0  0  0  0
 11 26  1  0  0  0  0
M  END
> <PUBCHEM_COMPOUND_CID>
14310

> <PUBCHEM_CONFORMER_RMSD>
0.6

> <PUBCHEM_CONFORMER_DIVERSEORDER>
1
11
13
5
16
14
3
15
7
2
17
9
6
8
4
10
12

> <PUBCHEM_MMFF94_PARTIAL_CHARGES>
14
1 -0.87
10 -0.15
11 -0.15
18 0.4
22 0.15
23 0.15
24 0.15
25 0.15
26 0.15
3 0.37
5 0.1
7 -0.15
8 -0.15
9 -0.15

> <PUBCHEM_EFFECTIVE_ROTOR_COUNT>
4

> <PUBCHEM_PHARMACOPHORE_FEATURES>
4
1 1 cation
1 1 donor
1 6 hydrophobe
6 5 7 8 9 10 11 rings

> <PUBCHEM_HEAVY_ATOM_COUNT>
11

> <PUBCHEM_ATOM_DEF_STEREO_COUNT>
0

> <PUBCHEM_ATOM_UDEF_STEREO_COUNT>
0

> <PUBCHEM_BOND_DEF_STEREO_COUNT>
0

> <PUBCHEM_BOND_UDEF_STEREO_COUNT>
0

> <PUBCHEM_ISOTOPIC_ATOM_COUNT>
0

> <PUBCHEM_COMPONENT_COUNT>
1

> <PUBCHEM_CACTVS_TAUTO_COUNT>
1

> <PUBCHEM_CONFORMER_ID>
000037E600000001

> <PUBCHEM_MMFF94_ENERGY>
25.5959

> <PUBCHEM_FEATURE_SELFOVERLAP>
20.297

> <PUBCHEM_SHAPE_FINGERPRINT>
10014705 185 18201442488392557004
10465860 250 18113341924936830432
12757275 245 18339642239512971955
12932764 1 17346331392113037364
13024252 1 15482671286756790765
14123238 8 18410856555935640020
14325111 11 18410575097558543300
17834072 33 18342735175065805500
1986462 14 18410854373712432676
200 152 17240490208237267957
20279233 1 17749102301198165678
20645464 45 17967245408264896951
20645477 56 18339641252066113341
20645477 70 17168702067942644822
20828058 44 18409450293411738626
22485316 2 18410858772091428394
23402539 116 18260555528443032069
23559900 14 18261957453107986374
573450 72 18272100430340838954
77779 3 18410291411253956396

> <PUBCHEM_SHAPE_MULTIPOLES>
221.39
9.22
1.24
0.61
11.55
0.07
0
0.37
-0.06
-1.06
0
0
0.01
0

> <PUBCHEM_SHAPE_SELFOVERLAP>
436.422

> <PUBCHEM_SHAPE_VOLUME>
131.2

> <PUBCHEM_COORDINATE_TYPE>
2
5
10

$$$$

