3603
  -OEChem-06251223323D

 56 58  0     1  0  0  0  0  0999 V2000
    1.1992    0.4214    1.0104 Si  0  0  2  0  0  0  0  0  0  0  0  0
    0.9819   -5.2669   -0.8623 F   0  0  0  0  0  0  0  0  0  0  0  0
    1.9143    0.4392    2.5068 O   0  0  0  0  0  0  0  0  0  0  0  0
   -3.3977    1.0311    0.4573 N   0  0  0  0  0  0  0  0  0  0  0  0
    2.2534    1.4180   -0.2274 C   0  0  0  0  0  0  0  0  0  0  0  0
    3.6750    0.8449   -0.4005 C   0  0  0  0  0  0  0  0  0  0  0  0
    2.3197    2.9204    0.1165 C   0  0  0  0  0  0  0  0  0  0  0  0
   -0.5179    1.1438    1.0443 C   0  0  0  0  0  0  0  0  0  0  0  0
    4.4877    1.6377   -1.4226 C   0  0  0  0  0  0  0  0  0  0  0  0
    3.1390    3.7031   -0.9081 C   0  0  0  0  0  0  0  0  0  0  0  0
    4.5384    3.1210   -1.0742 C   0  0  0  0  0  0  0  0  0  0  0  0
   -1.5298    0.3934    1.9185 C   0  0  0  0  0  0  0  0  0  0  0  0
    1.1309   -1.3684    0.4211 C   0  0  0  0  0  0  0  0  0  0  0  0
   -2.9135    1.0388    1.8375 C   0  0  0  0  0  0  0  0  0  0  0  0
   -3.5185   -0.3475   -0.0373 C   0  0  0  0  0  0  0  0  0  0  0  0
   -4.6784    1.7452    0.3579 C   0  0  0  0  0  0  0  0  0  0  0  0
   -3.9774   -0.3721   -1.4960 C   0  0  0  0  0  0  0  0  0  0  0  0
   -5.1751    1.7892   -1.0881 C   0  0  0  0  0  0  0  0  0  0  0  0
   -5.2859    0.3884   -1.6789 C   0  0  0  0  0  0  0  0  0  0  0  0
    0.5922   -1.6499   -0.8221 C   0  0  0  0  0  0  0  0  0  0  0  0
    1.6206   -2.3687    1.2424 C   0  0  0  0  0  0  0  0  0  0  0  0
    0.5414   -2.9740   -1.2580 C   0  0  0  0  0  0  0  0  0  0  0  0
    1.5701   -3.6929    0.8065 C   0  0  0  0  0  0  0  0  0  0  0  0
    1.0304   -3.9954   -0.4437 C   0  0  0  0  0  0  0  0  0  0  0  0
    1.7390    1.3260   -1.1939 H   0  0  0  0  0  0  0  0  0  0  0  0
    4.2057    0.8528    0.5611 H   0  0  0  0  0  0  0  0  0  0  0  0
    3.6341   -0.2019   -0.7259 H   0  0  0  0  0  0  0  0  0  0  0  0
    1.3122    3.3519    0.1573 H   0  0  0  0  0  0  0  0  0  0  0  0
    2.7621    3.0621    1.1116 H   0  0  0  0  0  0  0  0  0  0  0  0
   -0.4549    2.1819    1.3917 H   0  0  0  0  0  0  0  0  0  0  0  0
   -0.8662    1.1857    0.0064 H   0  0  0  0  0  0  0  0  0  0  0  0
    5.5063    1.2367   -1.4730 H   0  0  0  0  0  0  0  0  0  0  0  0
    4.0448    1.5104   -2.4180 H   0  0  0  0  0  0  0  0  0  0  0  0
    2.6207    3.6915   -1.8749 H   0  0  0  0  0  0  0  0  0  0  0  0
    3.2112    4.7516   -0.5975 H   0  0  0  0  0  0  0  0  0  0  0  0
    5.0741    3.6664   -1.8594 H   0  0  0  0  0  0  0  0  0  0  0  0
    5.1046    3.2593   -0.1450 H   0  0  0  0  0  0  0  0  0  0  0  0
   -1.5542   -0.6795    1.7023 H   0  0  0  0  0  0  0  0  0  0  0  0
   -1.1999    0.4551    2.9654 H   0  0  0  0  0  0  0  0  0  0  0  0
   -2.8389    2.0715    2.2013 H   0  0  0  0  0  0  0  0  0  0  0  0
   -3.6035    0.5099    2.5072 H   0  0  0  0  0  0  0  0  0  0  0  0
    2.0407    1.2970    2.9457 H   0  0  0  0  0  0  0  0  0  0  0  0
   -4.2179   -0.9267    0.5797 H   0  0  0  0  0  0  0  0  0  0  0  0
   -2.5604   -0.8737   -0.0312 H   0  0  0  0  0  0  0  0  0  0  0  0
   -4.5562    2.7778    0.7072 H   0  0  0  0  0  0  0  0  0  0  0  0
   -5.4391    1.2735    0.9939 H   0  0  0  0  0  0  0  0  0  0  0  0
   -3.2028    0.0746   -2.1327 H   0  0  0  0  0  0  0  0  0  0  0  0
   -4.1044   -1.4090   -1.8275 H   0  0  0  0  0  0  0  0  0  0  0  0
   -6.1509    2.2861   -1.1294 H   0  0  0  0  0  0  0  0  0  0  0  0
   -4.4848    2.3885   -1.6954 H   0  0  0  0  0  0  0  0  0  0  0  0
   -6.0981   -0.1556   -1.1813 H   0  0  0  0  0  0  0  0  0  0  0  0
   -5.5414    0.4475   -2.7425 H   0  0  0  0  0  0  0  0  0  0  0  0
    0.2034   -0.8715   -1.4735 H   0  0  0  0  0  0  0  0  0  0  0  0
    2.0464   -2.1654    2.2209 H   0  0  0  0  0  0  0  0  0  0  0  0
    0.1206   -3.2100   -2.2310 H   0  0  0  0  0  0  0  0  0  0  0  0
    1.9506   -4.4887    1.4399 H   0  0  0  0  0  0  0  0  0  0  0  0
  1  3  1  0  0  0  0
  1  5  1  0  0  0  0
  1  8  1  0  0  0  0
  1 13  1  0  0  0  0
  2 24  1  0  0  0  0
  3 42  1  0  0  0  0
  4 14  1  0  0  0  0
  4 15  1  0  0  0  0
  4 16  1  0  0  0  0
  5  6  1  0  0  0  0
  5  7  1  0  0  0  0
  5 25  1  0  0  0  0
  6  9  1  0  0  0  0
  6 26  1  0  0  0  0
  6 27  1  0  0  0  0
  7 10  1  0  0  0  0
  7 28  1  0  0  0  0
  7 29  1  0  0  0  0
  8 12  1  0  0  0  0
  8 30  1  0  0  0  0
  8 31  1  0  0  0  0
  9 11  1  0  0  0  0
  9 32  1  0  0  0  0
  9 33  1  0  0  0  0
 10 11  1  0  0  0  0
 10 34  1  0  0  0  0
 10 35  1  0  0  0  0
 11 36  1  0  0  0  0
 11 37  1  0  0  0  0
 12 14  1  0  0  0  0
 12 38  1  0  0  0  0
 12 39  1  0  0  0  0
 13 20  2  0  0  0  0
 13 21  1  0  0  0  0
 14 40  1  0  0  0  0
 14 41  1  0  0  0  0
 15 17  1  0  0  0  0
 15 43  1  0  0  0  0
 15 44  1  0  0  0  0
 16 18  1  0  0  0  0
 16 45  1  0  0  0  0
 16 46  1  0  0  0  0
 17 19  1  0  0  0  0
 17 47  1  0  0  0  0
 17 48  1  0  0  0  0
 18 19  1  0  0  0  0
 18 49  1  0  0  0  0
 18 50  1  0  0  0  0
 19 51  1  0  0  0  0
 19 52  1  0  0  0  0
 20 22  1  0  0  0  0
 20 53  1  0  0  0  0
 21 23  2  0  0  0  0
 21 54  1  0  0  0  0
 22 24  2  0  0  0  0
 22 55  1  0  0  0  0
 23 24  1  0  0  0  0
 23 56  1  0  0  0  0
M  END
> <PUBCHEM_COMPOUND_CID>
3603

> <PUBCHEM_CONFORMER_RMSD>
0.8

> <PUBCHEM_CONFORMER_DIVERSEORDER>
4
169
80
68
161
73
194
31
79
24
107
116
202
57
173
177
199
178
70
108
22
171
103
157
209
174
181
46
121
143
84
38
43
152
23
182
192
29
135
216
69
21
176
60
91
102
77
115
25
155
208
89
190
96
112
187
118
56
104
63
71
134
6
195
100
213
120
129
47
114
167
207
34
172
137
3
53
164
186
87
145
214
122
141
197
45
78
66
205
110
147
99
51
67
132
86
212
142
61
175
151
64
26
138
180
105
98
49
5
76
183
126
65
12
74
2
88
158
130
113
206
196
83
119
82
166
185
50
184
81
124
94
140
55
30
85
193
52
125
133
215
131
44
128
28
210
111
101
48
37
154
165
139
160
1
11
106
163
19
148
136
117
27
189
54
170
179
58
146
93
36
156
201
109
7
35
90
16
150
144
123
153
10
18
149
204
191
9
72
14
39
13
42
211
168
75
127
15
200
17
62
20
41
162
198
33
40
203
59
95
92
8
32
159
97
188

> <PUBCHEM_MMFF94_PARTIAL_CHARGES>
20
1 0.68
13 -0.22
14 0.27
15 0.27
16 0.27
2 -0.19
20 -0.15
21 -0.15
22 -0.15
23 -0.15
24 0.19
3 -0.7
4 -0.81
42 0.4
5 -0.08
53 0.15
54 0.15
55 0.15
56 0.15
8 -0.08

> <PUBCHEM_EFFECTIVE_ROTOR_COUNT>
8.4

> <PUBCHEM_PHARMACOPHORE_FEATURES>
4
1 4 cation
6 13 20 21 22 23 24 rings
6 4 15 16 17 18 19 rings
6 5 6 7 9 10 11 rings

> <PUBCHEM_HEAVY_ATOM_COUNT>
24

> <PUBCHEM_ATOM_DEF_STEREO_COUNT>
0

> <PUBCHEM_ATOM_UDEF_STEREO_COUNT>
1

> <PUBCHEM_BOND_DEF_STEREO_COUNT>
0

> <PUBCHEM_BOND_UDEF_STEREO_COUNT>
0

> <PUBCHEM_ISOTOPIC_ATOM_COUNT>
0

> <PUBCHEM_COMPONENT_COUNT>
1

> <PUBCHEM_CACTVS_TAUTO_COUNT>
1

> <PUBCHEM_CONFORMER_ID>
00000E1300000004

> <PUBCHEM_MMFF94_ENERGY>
20.9251

> <PUBCHEM_FEATURE_SELFOVERLAP>
20.297

> <PUBCHEM_SHAPE_FINGERPRINT>
10369192 42 17912893172554801997
105312 117 18129085733082343300
11069576 57 18042988629835976687
11488393 25 18127691737100648318
11578080 2 16987697130224043971
11582403 64 17774728549834296512
12788726 201 17548430202069112234
12969540 114 18270674251938145148
133893 2 18192135199893767819
13681431 1 18050556641173048658
13899415 180 17764596812251516779
14251757 5 17687743844246250982
14289585 56 18200878477893574164
15163728 17 17917132927771464116
15842332 3 17751067227546359097
15849732 13 18270415948995162736
17138139 8 17678475068835301679
1813 80 17832708250509737099
20197701 30 18339077082278286684
20739085 24 18121524559180166778
20775438 99 17174921729763097101
21033648 144 18060135401606659285
21304303 282 17692835695885409792
21641784 216 16540997085472597076
21860390 5 17916879022284804056
22393880 68 17967542255067184189
23557571 272 16702004380208113161
23559900 14 18263939898073723307
238 59 18410287012679925059
26353 1 17761765574088798646
3057174 1 18339344293636822822
3060560 45 18412545405696125384
312425 83 18126859407189345117
376196 1 18060419075532760073
38695281 34 18412542081201358848
394222 165 18200891590286160730
404807 78 17768824070206370463
4409770 3 17903626398377157234
44802255 64 17771314536998757156
46194498 28 18127702723912107797
474144 1 18115602555282540671
5223283 242 17478353271587553757
53917941 68 18122626042424693760
5969126 39 17475515453171921410
633830 44 17972001891071839304

> <PUBCHEM_SHAPE_MULTIPOLES>
494
9.52
5.39
1.9
10.39
6.71
0.55
-10.5
-4.99
-5.8
-1.85
0.59
-0.14
-1.36

> <PUBCHEM_SHAPE_SELFOVERLAP>
996.9

> <PUBCHEM_SHAPE_VOLUME>
289.3

> <PUBCHEM_COORDINATE_TYPE>
2
5
10

$$$$

