9075
  -OEChem-06261203232D

 22 21  0     0  0  0  0  0  0999 V2000
    4.8796    2.4650    0.0000 Cl  0  0  0  0  0  0  0  0  0  0  0  0
    2.2690    5.1200    0.0000 N   0  0  0  0  0  0  0  0  0  0  0  0
    1.4030    3.6200    0.0000 C   0  0  0  0  0  0  0  0  0  0  0  0
    1.4030    2.6200    0.0000 C   0  0  0  0  0  0  0  0  0  0  0  0
    2.2690    4.1200    0.0000 C   0  0  0  0  0  0  0  0  0  0  0  0
    0.5369    2.1200    0.0000 C   0  0  0  0  0  0  0  0  0  0  0  0
    2.2690    2.1200    0.0000 C   0  0  0  0  0  0  0  0  0  0  0  0
    0.5369    1.1200    0.0000 C   0  0  0  0  0  0  0  0  0  0  0  0
    2.2690    1.1200    0.0000 C   0  0  0  0  0  0  0  0  0  0  0  0
    1.4030    0.6200    0.0000 C   0  0  0  0  0  0  0  0  0  0  0  0
    1.1909    4.2026    0.0000 H   0  0  0  0  0  0  0  0  0  0  0  0
    0.7924    3.5123    0.0000 H   0  0  0  0  0  0  0  0  0  0  0  0
    2.4810    3.5374    0.0000 H   0  0  0  0  0  0  0  0  0  0  0  0
    2.8796    4.2277    0.0000 H   0  0  0  0  0  0  0  0  0  0  0  0
    0.0000    2.4300    0.0000 H   0  0  0  0  0  0  0  0  0  0  0  0
    2.8059    2.4300    0.0000 H   0  0  0  0  0  0  0  0  0  0  0  0
    0.0000    0.8100    0.0000 H   0  0  0  0  0  0  0  0  0  0  0  0
    2.8059    0.8100    0.0000 H   0  0  0  0  0  0  0  0  0  0  0  0
    1.4030    0.0000    0.0000 H   0  0  0  0  0  0  0  0  0  0  0  0
    2.8059    5.4300    0.0000 H   0  0  0  0  0  0  0  0  0  0  0  0
    1.7320    5.4300    0.0000 H   0  0  0  0  0  0  0  0  0  0  0  0
    5.8796    2.4650    0.0000 H   0  0  0  0  0  0  0  0  0  0  0  0
  1 22  1  0  0  0  0
  2  5  1  0  0  0  0
  2 20  1  0  0  0  0
  2 21  1  0  0  0  0
  3  4  1  0  0  0  0
  3  5  1  0  0  0  0
  3 11  1  0  0  0  0
  3 12  1  0  0  0  0
  4  6  2  0  0  0  0
  4  7  1  0  0  0  0
  5 13  1  0  0  0  0
  5 14  1  0  0  0  0
  6  8  1  0  0  0  0
  6 15  1  0  0  0  0
  7  9  2  0  0  0  0
  7 16  1  0  0  0  0
  8 10  2  0  0  0  0
  8 17  1  0  0  0  0
  9 10  1  0  0  0  0
  9 18  1  0  0  0  0
 10 19  1  0  0  0  0
M  END
> <PUBCHEM_COMPOUND_CID>
9075

> <PUBCHEM_COMPOUND_CANONICALIZED>
1

> <PUBCHEM_CACTVS_COMPLEXITY>
65

> <PUBCHEM_CACTVS_HBOND_ACCEPTOR>
1

> <PUBCHEM_CACTVS_HBOND_DONOR>
2

> <PUBCHEM_CACTVS_ROTATABLE_BOND>
2

> <PUBCHEM_CACTVS_SUBSKEYS>
AAADccByAAAEAAAAAAAAAAAAAAAAAAAAAAAwAAAAAAAAAAABAAAAHAAQAAAADADBGAQwAIBAAACAAiBCAAACAAAgAAAIiIAAAIgIICKAkRGAIAAgkAAIiAcQgIAOAAAAAAAAAAAAAAAAAAAAAAAAAAAAAA==

> <PUBCHEM_IUPAC_OPENEYE_NAME>
2-phenylethanamine hydrochloride

> <PUBCHEM_IUPAC_CAS_NAME>
2-phenylethanamine hydrochloride

> <PUBCHEM_IUPAC_NAME>
2-phenylethanamine hydrochloride

> <PUBCHEM_IUPAC_SYSTEMATIC_NAME>
2-phenylethanamine hydrochloride

> <PUBCHEM_IUPAC_TRADITIONAL_NAME>
phenethylamine hydrochloride

> <PUBCHEM_IUPAC_INCHI>
InChI=1S/C8H11N.ClH/c9-7-6-8-4-2-1-3-5-8;/h1-5H,6-7,9H2;1H

> <PUBCHEM_IUPAC_INCHIKEY>
SKHIBNDAFWIOPB-UHFFFAOYSA-N

> <PUBCHEM_EXACT_MASS>
157.065827

> <PUBCHEM_MOLECULAR_FORMULA>
C8H12ClN

> <PUBCHEM_MOLECULAR_WEIGHT>
157.64058

> <PUBCHEM_OPENEYE_CAN_SMILES>
C1=CC=C(C=C1)CCN.Cl

> <PUBCHEM_OPENEYE_ISO_SMILES>
C1=CC=C(C=C1)CCN.Cl

> <PUBCHEM_CACTVS_TPSA>
26

> <PUBCHEM_MONOISOTOPIC_WEIGHT>
157.065827

> <PUBCHEM_TOTAL_CHARGE>
0

> <PUBCHEM_HEAVY_ATOM_COUNT>
10

> <PUBCHEM_ATOM_DEF_STEREO_COUNT>
0

> <PUBCHEM_ATOM_UDEF_STEREO_COUNT>
0

> <PUBCHEM_BOND_DEF_STEREO_COUNT>
0

> <PUBCHEM_BOND_UDEF_STEREO_COUNT>
0

> <PUBCHEM_ISOTOPIC_ATOM_COUNT>
0

> <PUBCHEM_COMPONENT_COUNT>
2

> <PUBCHEM_CACTVS_TAUTO_COUNT>
1

> <PUBCHEM_COORDINATE_TYPE>
1
5
255

> <PUBCHEM_BONDANNOTATIONS>
4  6  8
4  7  8
6  8  8
7  9  8
8  10  8
9  10  8

$$$$

