583203
  -OEChem-06241222442D

 71 74  0     1  0  0  0  0  0999 V2000
    3.4653    0.8087    0.0000 O   0  0  0  0  0  0  0  0  0  0  0  0
    2.6334    2.8481    0.0000 O   0  0  0  0  0  0  0  0  0  0  0  0
    3.9737    3.9451    0.0000 O   0  0  0  0  0  0  0  0  0  0  0  0
    6.0658    0.4311    0.0000 C   0  0  3  0  0  0  0  0  0  0  0  0
    5.1998    0.9311    0.0000 C   0  0  3  0  0  0  0  0  0  0  0  0
    5.1998    1.9311    0.0000 C   0  0  3  0  0  0  0  0  0  0  0  0
    4.2536    2.2358    0.0000 C   0  0  3  0  0  0  0  0  0  0  0  0
    5.0732    0.5391    0.0000 C   0  0  0  0  0  0  0  0  0  0  0  0
    6.9319    0.9311    0.0000 C   0  0  0  0  0  0  0  0  0  0  0  0
    4.2536    0.6263    0.0000 C   0  0  0  0  0  0  0  0  0  0  0  0
    4.3658    1.2436    0.0000 C   0  0  3  0  0  0  0  0  0  0  0  0
    3.6700    1.4311    0.0000 C   0  0  0  0  0  0  0  0  0  0  0  0
    6.2750   -0.5408    0.0000 C   0  0  0  0  0  0  0  0  0  0  0  0
    7.6689    0.2640    0.0000 C   0  0  3  0  0  0  0  0  0  0  0  0
    6.0658    2.4311    0.0000 C   0  0  0  0  0  0  0  0  0  0  0  0
    7.2638   -0.6438    0.0000 C   0  0  0  0  0  0  0  0  0  0  0  0
    6.9319    1.9311    0.0000 C   0  0  0  0  0  0  0  0  0  0  0  0
    5.1998    2.9311    0.0000 C   0  0  0  0  0  0  0  0  0  0  0  0
    3.6202    3.0096    0.0000 C   0  0  0  0  0  0  0  0  0  0  0  0
    8.5817   -0.1443    0.0000 C   0  0  3  0  0  0  0  0  0  0  0  0
    8.3393    1.0060    0.0000 C   0  0  0  0  0  0  0  0  0  0  0  0
    8.6845   -1.1390    0.0000 C   0  0  0  0  0  0  0  0  0  0  0  0
    9.3918    0.4420    0.0000 C   0  0  0  0  0  0  0  0  0  0  0  0
    9.5974   -1.5474    0.0000 C   0  0  0  0  0  0  0  0  0  0  0  0
    2.0000    3.6219    0.0000 C   0  0  0  0  0  0  0  0  0  0  0  0
    9.7002   -2.5421    0.0000 C   0  0  0  0  0  0  0  0  0  0  0  0
   10.6130   -2.9504    0.0000 C   0  0  0  0  0  0  0  0  0  0  0  0
   10.7158   -3.9451    0.0000 C   0  0  0  0  0  0  0  0  0  0  0  0
   11.4231   -2.3640    0.0000 C   0  0  0  0  0  0  0  0  0  0  0  0
    4.6987    1.2961    0.0000 H   0  0  0  0  0  0  0  0  0  0  0  0
    4.5259    0.2479    0.0000 H   0  0  0  0  0  0  0  0  0  0  0  0
    5.1905   -0.0697    0.0000 H   0  0  0  0  0  0  0  0  0  0  0  0
    3.7162    0.3171    0.0000 H   0  0  0  0  0  0  0  0  0  0  0  0
    4.5046    0.0594    0.0000 H   0  0  0  0  0  0  0  0  0  0  0  0
    3.8229    1.5431    0.0000 H   0  0  0  0  0  0  0  0  0  0  0  0
    3.2091    1.8458    0.0000 H   0  0  0  0  0  0  0  0  0  0  0  0
    3.2091    1.0163    0.0000 H   0  0  0  0  0  0  0  0  0  0  0  0
    5.6586   -0.6068    0.0000 H   0  0  0  0  0  0  0  0  0  0  0  0
    6.2759   -1.1608    0.0000 H   0  0  0  0  0  0  0  0  0  0  0  0
    6.4644    2.9060    0.0000 H   0  0  0  0  0  0  0  0  0  0  0  0
    5.6673    2.9060    0.0000 H   0  0  0  0  0  0  0  0  0  0  0  0
    7.1350   -1.2503    0.0000 H   0  0  0  0  0  0  0  0  0  0  0  0
    7.8534   -0.8356    0.0000 H   0  0  0  0  0  0  0  0  0  0  0  0
    7.4688    2.2411    0.0000 H   0  0  0  0  0  0  0  0  0  0  0  0
    5.8198    2.9311    0.0000 H   0  0  0  0  0  0  0  0  0  0  0  0
    5.1998    3.5511    0.0000 H   0  0  0  0  0  0  0  0  0  0  0  0
    4.5798    2.9311    0.0000 H   0  0  0  0  0  0  0  0  0  0  0  0
    9.1477   -0.3975    0.0000 H   0  0  0  0  0  0  0  0  0  0  0  0
    8.7993    0.5903    0.0000 H   0  0  0  0  0  0  0  0  0  0  0  0
    8.7550    1.4660    0.0000 H   0  0  0  0  0  0  0  0  0  0  0  0
    7.8793    1.4216    0.0000 H   0  0  0  0  0  0  0  0  0  0  0  0
    3.4197    0.1903    0.0000 H   0  0  0  0  0  0  0  0  0  0  0  0
    8.0661   -1.0947    0.0000 H   0  0  0  0  0  0  0  0  0  0  0  0
    8.5335   -1.7404    0.0000 H   0  0  0  0  0  0  0  0  0  0  0  0
    9.7553   -0.0602    0.0000 H   0  0  0  0  0  0  0  0  0  0  0  0
    9.8940    0.8056    0.0000 H   0  0  0  0  0  0  0  0  0  0  0  0
    9.0282    0.9443    0.0000 H   0  0  0  0  0  0  0  0  0  0  0  0
   10.2158   -1.5917    0.0000 H   0  0  0  0  0  0  0  0  0  0  0  0
    9.7484   -0.9460    0.0000 H   0  0  0  0  0  0  0  0  0  0  0  0
    2.4798    4.0146    0.0000 H   0  0  0  0  0  0  0  0  0  0  0  0
    1.6073    4.1017    0.0000 H   0  0  0  0  0  0  0  0  0  0  0  0
    1.5202    3.2292    0.0000 H   0  0  0  0  0  0  0  0  0  0  0  0
    9.0818   -2.4977    0.0000 H   0  0  0  0  0  0  0  0  0  0  0  0
    9.5491   -3.1434    0.0000 H   0  0  0  0  0  0  0  0  0  0  0  0
   10.1108   -3.3139    0.0000 H   0  0  0  0  0  0  0  0  0  0  0  0
   10.0991   -4.0088    0.0000 H   0  0  0  0  0  0  0  0  0  0  0  0
   11.7866   -2.8662    0.0000 H   0  0  0  0  0  0  0  0  0  0  0  0
   11.9253   -2.0004    0.0000 H   0  0  0  0  0  0  0  0  0  0  0  0
   11.0595   -1.8618    0.0000 H   0  0  0  0  0  0  0  0  0  0  0  0
   10.7796   -4.5618    0.0000 H   0  0  0  0  0  0  0  0  0  0  0  0
   11.3325   -3.8813    0.0000 H   0  0  0  0  0  0  0  0  0  0  0  0
  1 11  1  0  0  0  0
  1 52  1  0  0  0  0
  2 19  1  0  0  0  0
  2 25  1  0  0  0  0
  3 19  2  0  0  0  0
  4  5  1  0  0  0  0
  4  8  1  0  0  0  0
  4  9  1  0  0  0  0
  4 13  1  0  0  0  0
  5  6  1  0  0  0  0
  5 10  1  0  0  0  0
  5 30  1  0  0  0  0
  6  7  1  0  0  0  0
  6 15  1  0  0  0  0
  6 18  1  0  0  0  0
  7 11  1  0  0  0  0
  7 12  1  0  0  0  0
  7 19  1  0  0  0  0
  8 11  1  0  0  0  0
  8 31  1  0  0  0  0
  8 32  1  0  0  0  0
  9 14  1  0  0  0  0
  9 17  2  0  0  0  0
 10 12  1  0  0  0  0
 10 33  1  0  0  0  0
 10 34  1  0  0  0  0
 11 35  1  0  0  0  0
 12 36  1  0  0  0  0
 12 37  1  0  0  0  0
 13 16  1  0  0  0  0
 13 38  1  0  0  0  0
 13 39  1  0  0  0  0
 14 16  1  0  0  0  0
 14 20  1  0  0  0  0
 14 21  1  0  0  0  0
 15 17  1  0  0  0  0
 15 40  1  0  0  0  0
 15 41  1  0  0  0  0
 16 42  1  0  0  0  0
 16 43  1  0  0  0  0
 17 44  1  0  0  0  0
 18 45  1  0  0  0  0
 18 46  1  0  0  0  0
 18 47  1  0  0  0  0
 20 22  1  0  0  0  0
 20 23  1  0  0  0  0
 20 48  1  0  0  0  0
 21 49  1  0  0  0  0
 21 50  1  0  0  0  0
 21 51  1  0  0  0  0
 22 24  1  0  0  0  0
 22 53  1  0  0  0  0
 22 54  1  0  0  0  0
 23 55  1  0  0  0  0
 23 56  1  0  0  0  0
 23 57  1  0  0  0  0
 24 26  1  0  0  0  0
 24 58  1  0  0  0  0
 24 59  1  0  0  0  0
 25 60  1  0  0  0  0
 25 61  1  0  0  0  0
 25 62  1  0  0  0  0
 26 27  1  0  0  0  0
 26 63  1  0  0  0  0
 26 64  1  0  0  0  0
 27 28  1  0  0  0  0
 27 29  1  0  0  0  0
 27 65  1  0  0  0  0
 28 66  1  0  0  0  0
 28 70  1  0  0  0  0
 28 71  1  0  0  0  0
 29 67  1  0  0  0  0
 29 68  1  0  0  0  0
 29 69  1  0  0  0  0
M  END
> <PUBCHEM_COMPOUND_CID>
583203

> <PUBCHEM_COMPOUND_CANONICALIZED>
1

> <PUBCHEM_CACTVS_COMPLEXITY>
711

> <PUBCHEM_CACTVS_HBOND_ACCEPTOR>
3

> <PUBCHEM_CACTVS_HBOND_DONOR>
1

> <PUBCHEM_CACTVS_ROTATABLE_BOND>
7

> <PUBCHEM_CACTVS_SUBSKEYS>
AAADcfB4MAAAAAAAAAAAAAAAAAAAAYMAAAAwQAAABgAQAEAAAAAAGgAACAAADxSggAICCAAABgCIAiDSCAAAAAAgAAAACAEAAAgAEBYAAAAAQAAFoAAIAAOIyPCPgAAAAAAAAADAAAYAADAAAQAACAAAAA==

> <PUBCHEM_IUPAC_INCHI>
InChI=1S/C26H42O3/c1-17(2)8-7-9-18(3)23(4)14-15-25-16-21(27)26(22(28)29-6)13-11-20(25)24(26,5)12-10-19(23)25/h10,17-18,20-21,27H,7-9,11-16H2,1-6H3

> <PUBCHEM_IUPAC_INCHIKEY>
IXEVYFICJQFXIH-UHFFFAOYSA-N

> <PUBCHEM_XLOGP3_AA>
7.3

> <PUBCHEM_EXACT_MASS>
402.313395

> <PUBCHEM_MOLECULAR_FORMULA>
C26H42O3

> <PUBCHEM_MOLECULAR_WEIGHT>
402.60988

> <PUBCHEM_OPENEYE_CAN_SMILES>
CC(C)CCCC(C)C1(CCC23C1=CCC4(C2CCC4(C(C3)O)C(=O)OC)C)C

> <PUBCHEM_OPENEYE_ISO_SMILES>
CC(C)CCCC(C)C1(CCC23C1=CCC4(C2CCC4(C(C3)O)C(=O)OC)C)C

> <PUBCHEM_CACTVS_TPSA>
46.5

> <PUBCHEM_MONOISOTOPIC_WEIGHT>
402.313395

> <PUBCHEM_TOTAL_CHARGE>
0

> <PUBCHEM_HEAVY_ATOM_COUNT>
29

> <PUBCHEM_ATOM_DEF_STEREO_COUNT>
0

> <PUBCHEM_ATOM_UDEF_STEREO_COUNT>
7

> <PUBCHEM_BOND_DEF_STEREO_COUNT>
0

> <PUBCHEM_BOND_UDEF_STEREO_COUNT>
0

> <PUBCHEM_ISOTOPIC_ATOM_COUNT>
0

> <PUBCHEM_COMPONENT_COUNT>
1

> <PUBCHEM_CACTVS_TAUTO_COUNT>
1

> <PUBCHEM_COORDINATE_TYPE>
1
5
255

> <PUBCHEM_BONDANNOTATIONS>
11  1  3
14  21  3
20  23  3
4  8  3
5  10  3
6  18  3
7  19  3

$$$$

