3419
  -OEChem-06251223242D

 84 86  0     1  0  0  0  0  0999 V2000
    6.7524    1.9172    0.0000 P   0  0  3  0  0  0  0  0  0  0  0  0
    4.7634    2.1262    0.0000 O   0  0  0  0  0  0  0  0  0  0  0  0
    2.0000    1.1082    0.0000 O   0  5  0  0  0  0  0  0  0  0  0  0
    3.4013    2.1262    0.0000 O   0  0  0  0  0  0  0  0  0  0  0  0
    7.3402    2.7262    0.0000 O   0  0  0  0  0  0  0  0  0  0  0  0
    5.9434    2.5050    0.0000 O   0  0  0  0  0  0  0  0  0  0  0  0
    8.9225    3.4307    0.0000 O   0  0  0  0  0  0  0  0  0  0  0  0
   10.3238    2.4126    0.0000 O   0  0  0  0  0  0  0  0  0  0  0  0
    4.5823    0.4037    0.0000 N   0  0  0  0  0  0  0  0  0  0  0  0
    4.0823   -1.1352    0.0000 C   0  0  3  0  0  0  0  0  0  0  0  0
    4.0823   -2.1352    0.0000 C   0  0  0  0  0  0  0  0  0  0  0  0
    3.2733   -0.5474    0.0000 C   0  0  0  0  0  0  0  0  0  0  0  0
    4.8913   -0.5474    0.0000 C   0  0  0  0  0  0  0  0  0  0  0  0
    3.2163   -2.6352    0.0000 C   0  0  0  0  0  0  0  0  0  0  0  0
    4.9483   -2.6352    0.0000 C   0  0  0  0  0  0  0  0  0  0  0  0
    3.5823    0.4037    0.0000 C   0  0  3  0  0  0  0  0  0  0  0  0
    3.2163   -3.6352    0.0000 C   0  0  0  0  0  0  0  0  0  0  0  0
    4.9483   -3.6352    0.0000 C   0  0  0  0  0  0  0  0  0  0  0  0
    4.0823   -4.1352    0.0000 C   0  0  0  0  0  0  0  0  0  0  0  0
    5.1701    1.2127    0.0000 C   0  0  0  0  0  0  0  0  0  0  0  0
    2.9945    1.2127    0.0000 C   0  0  0  0  0  0  0  0  0  0  0  0
    6.1646    1.1082    0.0000 C   0  0  0  0  0  0  0  0  0  0  0  0
    7.5614    1.3294    0.0000 C   0  0  0  0  0  0  0  0  0  0  0  0
    7.4569    0.3349    0.0000 C   0  0  0  0  0  0  0  0  0  0  0  0
    8.3347    2.6217    0.0000 C   0  0  3  0  0  0  0  0  0  0  0  0
    8.2659   -0.2529    0.0000 C   0  0  0  0  0  0  0  0  0  0  0  0
    8.7414    1.7081    0.0000 C   0  0  0  0  0  0  0  0  0  0  0  0
    8.1614   -1.2474    0.0000 C   0  0  0  0  0  0  0  0  0  0  0  0
    9.7360    1.6036    0.0000 C   0  0  0  0  0  0  0  0  0  0  0  0
    8.1537    0.8991    0.0000 C   0  0  0  0  0  0  0  0  0  0  0  0
    8.9704   -1.8352    0.0000 C   0  0  0  0  0  0  0  0  0  0  0  0
    9.9170    3.3262    0.0000 C   0  0  0  0  0  0  0  0  0  0  0  0
    8.8659   -2.8297    0.0000 C   0  0  0  0  0  0  0  0  0  0  0  0
    9.8839   -1.4285    0.0000 C   0  0  0  0  0  0  0  0  0  0  0  0
   10.5048    4.1352    0.0000 C   0  0  0  0  0  0  0  0  0  0  0  0
    9.6749   -3.4175    0.0000 C   0  0  0  0  0  0  0  0  0  0  0  0
   10.6930   -2.0163    0.0000 C   0  0  0  0  0  0  0  0  0  0  0  0
   10.5884   -3.0108    0.0000 C   0  0  0  0  0  0  0  0  0  0  0  0
   11.4993    4.0306    0.0000 C   0  0  0  0  0  0  0  0  0  0  0  0
    3.5299   -1.4166    0.0000 H   0  0  0  0  0  0  0  0  0  0  0  0
    4.6192   -1.8252    0.0000 H   0  0  0  0  0  0  0  0  0  0  0  0
    2.7069   -0.2952    0.0000 H   0  0  0  0  0  0  0  0  0  0  0  0
    2.9633   -1.0843    0.0000 H   0  0  0  0  0  0  0  0  0  0  0  0
    5.2013   -1.0843    0.0000 H   0  0  0  0  0  0  0  0  0  0  0  0
    5.4577   -0.2952    0.0000 H   0  0  0  0  0  0  0  0  0  0  0  0
    5.5589   -2.7428    0.0000 H   0  0  0  0  0  0  0  0  0  0  0  0
    3.0042   -2.0526    0.0000 H   0  0  0  0  0  0  0  0  0  0  0  0
    2.6057   -2.7428    0.0000 H   0  0  0  0  0  0  0  0  0  0  0  0
    5.1604   -2.0526    0.0000 H   0  0  0  0  0  0  0  0  0  0  0  0
    3.8638    0.9561    0.0000 H   0  0  0  0  0  0  0  0  0  0  0  0
    2.6057   -3.5275    0.0000 H   0  0  0  0  0  0  0  0  0  0  0  0
    5.1604   -4.2178    0.0000 H   0  0  0  0  0  0  0  0  0  0  0  0
    5.5589   -3.5275    0.0000 H   0  0  0  0  0  0  0  0  0  0  0  0
    3.0042   -4.2178    0.0000 H   0  0  0  0  0  0  0  0  0  0  0  0
    3.6838   -4.6101    0.0000 H   0  0  0  0  0  0  0  0  0  0  0  0
    4.4808   -4.6101    0.0000 H   0  0  0  0  0  0  0  0  0  0  0  0
    5.9937    0.5122    0.0000 H   0  0  0  0  0  0  0  0  0  0  0  0
    6.7219    0.8364    0.0000 H   0  0  0  0  0  0  0  0  0  0  0  0
    8.1574    1.1585    0.0000 H   0  0  0  0  0  0  0  0  0  0  0  0
    7.8332    1.8866    0.0000 H   0  0  0  0  0  0  0  0  0  0  0  0
    6.8609    0.5058    0.0000 H   0  0  0  0  0  0  0  0  0  0  0  0
    7.1851   -0.2224    0.0000 H   0  0  0  0  0  0  0  0  0  0  0  0
    7.9703    2.1201    0.0000 H   0  0  0  0  0  0  0  0  0  0  0  0
    8.8619   -0.4238    0.0000 H   0  0  0  0  0  0  0  0  0  0  0  0
    8.5377    0.3043    0.0000 H   0  0  0  0  0  0  0  0  0  0  0  0
    9.1059    2.2097    0.0000 H   0  0  0  0  0  0  0  0  0  0  0  0
    7.5654   -1.0765    0.0000 H   0  0  0  0  0  0  0  0  0  0  0  0
    7.8896   -1.8047    0.0000 H   0  0  0  0  0  0  0  0  0  0  0  0
    9.6712    0.9870    0.0000 H   0  0  0  0  0  0  0  0  0  0  0  0
   10.3526    1.5388    0.0000 H   0  0  0  0  0  0  0  0  0  0  0  0
    9.8008    2.2202    0.0000 H   0  0  0  0  0  0  0  0  0  0  0  0
    7.6521    1.2635    0.0000 H   0  0  0  0  0  0  0  0  0  0  0  0
    7.7892    0.3975    0.0000 H   0  0  0  0  0  0  0  0  0  0  0  0
    8.6552    0.5347    0.0000 H   0  0  0  0  0  0  0  0  0  0  0  0
    8.2995   -3.0819    0.0000 H   0  0  0  0  0  0  0  0  0  0  0  0
    9.9488   -0.8119    0.0000 H   0  0  0  0  0  0  0  0  0  0  0  0
   10.6757    4.7312    0.0000 H   0  0  0  0  0  0  0  0  0  0  0  0
    9.9476    4.4070    0.0000 H   0  0  0  0  0  0  0  0  0  0  0  0
    9.6101   -4.0341    0.0000 H   0  0  0  0  0  0  0  0  0  0  0  0
   11.2594   -1.7641    0.0000 H   0  0  0  0  0  0  0  0  0  0  0  0
   11.0900   -3.3752    0.0000 H   0  0  0  0  0  0  0  0  0  0  0  0
   11.4345    3.4140    0.0000 H   0  0  0  0  0  0  0  0  0  0  0  0
   12.1159    3.9658    0.0000 H   0  0  0  0  0  0  0  0  0  0  0  0
   11.5641    4.6472    0.0000 H   0  0  0  0  0  0  0  0  0  0  0  0
  1  5  1  0  0  0  0
  1  6  2  0  0  0  0
  1 22  1  0  0  0  0
  1 23  1  0  0  0  0
  2 20  2  0  0  0  0
  3 21  1  0  0  0  0
  4 21  2  0  0  0  0
  5 25  1  0  0  0  0
  7 25  1  0  0  0  0
  7 32  1  0  0  0  0
  8 32  2  0  0  0  0
  9 13  1  0  0  0  0
  9 16  1  0  0  0  0
  9 20  1  0  0  0  0
 10 11  1  0  0  0  0
 10 12  1  0  0  0  0
 10 13  1  0  0  0  0
 10 40  1  0  0  0  0
 11 14  1  0  0  0  0
 11 15  1  0  0  0  0
 11 41  1  0  0  0  0
 12 16  1  0  0  0  0
 12 42  1  0  0  0  0
 12 43  1  0  0  0  0
 13 44  1  0  0  0  0
 13 45  1  0  0  0  0
 14 17  1  0  0  0  0
 14 47  1  0  0  0  0
 14 48  1  0  0  0  0
 15 18  1  0  0  0  0
 15 46  1  0  0  0  0
 15 49  1  0  0  0  0
 16 21  1  0  0  0  0
 16 50  1  0  0  0  0
 17 19  1  0  0  0  0
 17 51  1  0  0  0  0
 17 54  1  0  0  0  0
 18 19  1  0  0  0  0
 18 52  1  0  0  0  0
 18 53  1  0  0  0  0
 19 55  1  0  0  0  0
 19 56  1  0  0  0  0
 20 22  1  0  0  0  0
 22 57  1  0  0  0  0
 22 58  1  0  0  0  0
 23 24  1  0  0  0  0
 23 59  1  0  0  0  0
 23 60  1  0  0  0  0
 24 26  1  0  0  0  0
 24 61  1  0  0  0  0
 24 62  1  0  0  0  0
 25 27  1  0  0  0  0
 25 63  1  0  0  0  0
 26 28  1  0  0  0  0
 26 64  1  0  0  0  0
 26 65  1  0  0  0  0
 27 29  1  0  0  0  0
 27 30  1  0  0  0  0
 27 66  1  0  0  0  0
 28 31  1  0  0  0  0
 28 67  1  0  0  0  0
 28 68  1  0  0  0  0
 29 69  1  0  0  0  0
 29 70  1  0  0  0  0
 29 71  1  0  0  0  0
 30 72  1  0  0  0  0
 30 73  1  0  0  0  0
 30 74  1  0  0  0  0
 31 33  2  0  0  0  0
 31 34  1  0  0  0  0
 32 35  1  0  0  0  0
 33 36  1  0  0  0  0
 33 75  1  0  0  0  0
 34 37  2  0  0  0  0
 34 76  1  0  0  0  0
 35 39  1  0  0  0  0
 35 77  1  0  0  0  0
 35 78  1  0  0  0  0
 36 38  2  0  0  0  0
 36 79  1  0  0  0  0
 37 38  1  0  0  0  0
 37 80  1  0  0  0  0
 38 81  1  0  0  0  0
 39 82  1  0  0  0  0
 39 83  1  0  0  0  0
 39 84  1  0  0  0  0
M  CHG  1   3  -1
M  END
> <PUBCHEM_COMPOUND_CID>
3419

> <PUBCHEM_COMPOUND_CANONICALIZED>
1

> <PUBCHEM_CACTVS_COMPLEXITY>
845

> <PUBCHEM_CACTVS_HBOND_ACCEPTOR>
7

> <PUBCHEM_CACTVS_HBOND_DONOR>
0

> <PUBCHEM_CACTVS_ROTATABLE_BOND>
14

> <PUBCHEM_CACTVS_SUBSKEYS>
AAADcfB6OAIAAAAAAAAAAAAAAAAAAWAAAAAwYAAAAAAAAAABAAAAHggAACAADSj5mAcyCIMABTCIQiHSGIACAAAgAAAIiAGIAIgaIDKAkTCGIAAkhgCciAeY2fKOgAAAAAAAAAAAAAAAAAAAAAAAAAAAAA==

> <PUBCHEM_IUPAC_OPENEYE_NAME>
4-cyclohexyl-1-[2-[(2-methyl-1-propanoyloxy-propoxy)-(4-phenylbutyl)phosphoryl]acetyl]pyrrolidine-2-carboxylate

> <PUBCHEM_IUPAC_CAS_NAME>
4-cyclohexyl-1-[2-[[2-methyl-1-(1-oxopropoxy)propoxy]-(4-phenylbutyl)phosphoryl]-1-oxoethyl]-2-pyrrolidinecarboxylate

> <PUBCHEM_IUPAC_NAME>
4-cyclohexyl-1-[2-[(2-methyl-1-propanoyloxypropoxy)-(4-phenylbutyl)phosphoryl]acetyl]pyrrolidine-2-carboxylate

> <PUBCHEM_IUPAC_SYSTEMATIC_NAME>
4-cyclohexyl-1-[2-[(2-methyl-1-propanoyloxy-propoxy)-(4-phenylbutyl)phosphoryl]ethanoyl]pyrrolidine-2-carboxylate

> <PUBCHEM_IUPAC_TRADITIONAL_NAME>
4-cyclohexyl-1-[2-[(2-methyl-1-propionyloxy-propoxy)-(4-phenylbutyl)phosphoryl]acetyl]pyrrolidine-2-carboxylate

> <PUBCHEM_IUPAC_INCHI>
InChI=1S/C30H46NO7P/c1-4-28(33)37-30(22(2)3)38-39(36,18-12-11-15-23-13-7-5-8-14-23)21-27(32)31-20-25(19-26(31)29(34)35)24-16-9-6-10-17-24/h5,7-8,13-14,22,24-26,30H,4,6,9-12,15-21H2,1-3H3,(H,34,35)/p-1

> <PUBCHEM_IUPAC_INCHIKEY>
BIDNLKIUORFRQP-UHFFFAOYSA-M

> <PUBCHEM_XLOGP3_AA>
6.9

> <PUBCHEM_EXACT_MASS>
562.293364

> <PUBCHEM_MOLECULAR_FORMULA>
C30H45NO7P-

> <PUBCHEM_MOLECULAR_WEIGHT>
562.654562

> <PUBCHEM_OPENEYE_CAN_SMILES>
CCC(=O)OC(C(C)C)OP(=O)(CCCCC1=CC=CC=C1)CC(=O)N2CC(CC2C(=O)[O-])C3CCCCC3

> <PUBCHEM_OPENEYE_ISO_SMILES>
CCC(=O)OC(C(C)C)OP(=O)(CCCCC1=CC=CC=C1)CC(=O)N2CC(CC2C(=O)[O-])C3CCCCC3

> <PUBCHEM_CACTVS_TPSA>
113

> <PUBCHEM_MONOISOTOPIC_WEIGHT>
562.293364

> <PUBCHEM_TOTAL_CHARGE>
-1

> <PUBCHEM_HEAVY_ATOM_COUNT>
39

> <PUBCHEM_ATOM_DEF_STEREO_COUNT>
0

> <PUBCHEM_ATOM_UDEF_STEREO_COUNT>
4

> <PUBCHEM_BOND_DEF_STEREO_COUNT>
0

> <PUBCHEM_BOND_UDEF_STEREO_COUNT>
0

> <PUBCHEM_ISOTOPIC_ATOM_COUNT>
0

> <PUBCHEM_COMPONENT_COUNT>
1

> <PUBCHEM_CACTVS_TAUTO_COUNT>
1

> <PUBCHEM_COORDINATE_TYPE>
1
5
255

> <PUBCHEM_BONDANNOTATIONS>
1  23  3
10  11  3
16  21  3
25  27  3
31  33  8
31  34  8
33  36  8
34  37  8
36  38  8
37  38  8

$$$$

