47205224
  -OEChem-06241222583D

 37 38  0     0  0  0  0  0  0999 V2000
    3.6307   -1.2527    0.0085 S   0  0  0  0  0  0  0  0  0  0  0  0
    3.9344   -1.8997    1.2653 O   0  0  0  0  0  0  0  0  0  0  0  0
    4.6703   -0.8491   -0.9118 O   0  0  0  0  0  0  0  0  0  0  0  0
   -0.6265    1.5640   -1.5120 O   0  0  0  0  0  0  0  0  0  0  0  0
    2.6152    0.0939    0.3152 N   0  0  0  0  0  0  0  0  0  0  0  0
   -1.8313    1.6768    0.4768 N   0  0  0  0  0  0  0  0  0  0  0  0
   -2.8522   -0.9980   -0.8730 N   0  0  0  0  0  0  0  0  0  0  0  0
   -3.2282   -2.2724   -0.6711 N   0  0  0  0  0  0  0  0  0  0  0  0
    0.5235    2.1198    0.5067 C   0  0  0  0  0  0  0  0  0  0  0  0
    0.7796    1.1034    1.6212 C   0  0  0  0  0  0  0  0  0  0  0  0
    1.7405    2.2829   -0.4057 C   0  0  0  0  0  0  0  0  0  0  0  0
    2.3129    0.9461   -0.8701 C   0  0  0  0  0  0  0  0  0  0  0  0
    1.3920   -0.2007    1.1148 C   0  0  0  0  0  0  0  0  0  0  0  0
   -0.6874    1.7506   -0.2995 C   0  0  0  0  0  0  0  0  0  0  0  0
    2.4822   -2.2769   -0.8738 C   0  0  0  0  0  0  0  0  0  0  0  0
   -3.1341    1.3610   -0.0630 C   0  0  0  0  0  0  0  0  0  0  0  0
   -3.4232   -0.1112   -0.0080 C   0  0  0  0  0  0  0  0  0  0  0  0
   -4.2291   -0.8575    0.8169 C   0  0  0  0  0  0  0  0  0  0  0  0
   -4.0691   -2.1803    0.3625 C   0  0  0  0  0  0  0  0  0  0  0  0
    0.3062    3.0951    0.9633 H   0  0  0  0  0  0  0  0  0  0  0  0
    1.5067    2.9083   -1.2757 H   0  0  0  0  0  0  0  0  0  0  0  0
    2.5195    2.8157    0.1563 H   0  0  0  0  0  0  0  0  0  0  0  0
    1.4863    1.5563    2.3302 H   0  0  0  0  0  0  0  0  0  0  0  0
   -0.1192    0.8719    2.2016 H   0  0  0  0  0  0  0  0  0  0  0  0
    3.2315    1.1521   -1.4289 H   0  0  0  0  0  0  0  0  0  0  0  0
    1.6187    0.4327   -1.5410 H   0  0  0  0  0  0  0  0  0  0  0  0
    0.6546   -0.7333    0.5051 H   0  0  0  0  0  0  0  0  0  0  0  0
    1.6461   -0.8251    1.9774 H   0  0  0  0  0  0  0  0  0  0  0  0
   -1.7838    1.8969    1.4667 H   0  0  0  0  0  0  0  0  0  0  0  0
    2.1094   -1.7573   -1.7563 H   0  0  0  0  0  0  0  0  0  0  0  0
    1.6715   -2.5914   -0.2163 H   0  0  0  0  0  0  0  0  0  0  0  0
    3.0292   -3.1666   -1.1984 H   0  0  0  0  0  0  0  0  0  0  0  0
   -3.8732    1.9114    0.5288 H   0  0  0  0  0  0  0  0  0  0  0  0
   -3.1970    1.7170   -1.0974 H   0  0  0  0  0  0  0  0  0  0  0  0
   -4.8428   -0.4979    1.6298 H   0  0  0  0  0  0  0  0  0  0  0  0
   -2.1983   -0.8047   -1.6214 H   0  0  0  0  0  0  0  0  0  0  0  0
   -4.5304   -3.0809    0.7417 H   0  0  0  0  0  0  0  0  0  0  0  0
  1  2  2  0  0  0  0
  1  3  2  0  0  0  0
  1  5  1  0  0  0  0
  1 15  1  0  0  0  0
  4 14  2  0  0  0  0
  5 12  1  0  0  0  0
  5 13  1  0  0  0  0
  6 14  1  0  0  0  0
  6 16  1  0  0  0  0
  6 29  1  0  0  0  0
  7  8  1  0  0  0  0
  7 17  1  0  0  0  0
  7 36  1  0  0  0  0
  8 19  2  0  0  0  0
  9 10  1  0  0  0  0
  9 11  1  0  0  0  0
  9 14  1  0  0  0  0
  9 20  1  0  0  0  0
 10 13  1  0  0  0  0
 10 23  1  0  0  0  0
 10 24  1  0  0  0  0
 11 12  1  0  0  0  0
 11 21  1  0  0  0  0
 11 22  1  0  0  0  0
 12 25  1  0  0  0  0
 12 26  1  0  0  0  0
 13 27  1  0  0  0  0
 13 28  1  0  0  0  0
 15 30  1  0  0  0  0
 15 31  1  0  0  0  0
 15 32  1  0  0  0  0
 16 17  1  0  0  0  0
 16 33  1  0  0  0  0
 16 34  1  0  0  0  0
 17 18  2  0  0  0  0
 18 19  1  0  0  0  0
 18 35  1  0  0  0  0
 19 37  1  0  0  0  0
M  END
> <PUBCHEM_COMPOUND_CID>
47205224

> <PUBCHEM_CONFORMER_RMSD>
0.8

> <PUBCHEM_CONFORMER_DIVERSEORDER>
1
25
66
162
94
155
11
116
165
163
118
48
173
126
136
84
143
32
90
91
5
154
183
62
55
190
189
60
108
145
12
148
37
184
76
121
112
100
92
53
42
177
146
74
77
117
168
149
106
170
38
187
123
98
24
33
105
172
72
58
151
161
34
107
35
65
137
64
69
85
144
52
157
56
147
79
169
102
96
36
159
81
174
40
153
7
97
178
113
31
181
2
166
128
130
8
138
22
186
134
110
28
9
156
54
4
86
160
95
104
63
50
45
135
46
80
6
188
114
140
150
67
26
122
49
41
87
180
71
133
127
103
152
111
19
119
141
39
21
131
171
93
167
61
43
16
70
75
109
115
120
101
47
17
82
89
176
27
88
164
51
3
124
139
142
68
59
83
30
10
182
125
185
20
179
14
175
99
18
23
132
44
129
13
29
158
57
73
15
78

> <PUBCHEM_MMFF94_PARTIAL_CHARGES>
21
1 1.33
12 0.36
13 0.36
14 0.57
15 0.11
16 0.48
17 -0.33
18 -0.15
19 0.14
2 -0.65
29 0.37
3 -0.65
35 0.15
36 0.27
37 0.15
4 -0.57
5 -0.85
6 -0.73
7 0.3
8 -0.71
9 0.06

> <PUBCHEM_EFFECTIVE_ROTOR_COUNT>
6.2

> <PUBCHEM_PHARMACOPHORE_FEATURES>
8
1 2 acceptor
1 3 acceptor
1 4 acceptor
1 6 donor
1 7 donor
1 8 acceptor
5 7 8 17 18 19 rings
6 5 9 10 11 12 13 rings

> <PUBCHEM_HEAVY_ATOM_COUNT>
19

> <PUBCHEM_ATOM_DEF_STEREO_COUNT>
0

> <PUBCHEM_ATOM_UDEF_STEREO_COUNT>
0

> <PUBCHEM_BOND_DEF_STEREO_COUNT>
0

> <PUBCHEM_BOND_UDEF_STEREO_COUNT>
0

> <PUBCHEM_ISOTOPIC_ATOM_COUNT>
0

> <PUBCHEM_COMPONENT_COUNT>
1

> <PUBCHEM_CACTVS_TAUTO_COUNT>
4

> <PUBCHEM_CONFORMER_ID>
02D04B6800000001

> <PUBCHEM_MMFF94_ENERGY>
20.5758

> <PUBCHEM_FEATURE_SELFOVERLAP>
40.612

> <PUBCHEM_SHAPE_FINGERPRINT>
10498660 4 10231751184839944079
10616163 171 18335978757010735663
117890 22 18334856121426711559
12006461 19 18408041801509731761
12506688 2 18187363246362073480
12553582 1 18407762529719485655
12596599 1 18337101379857323755
12596602 18 14274325599394772719
12633257 1 17095794435294072851
12824470 246 18409726291814783616
13533116 47 17971756576194861739
14251705 54 18408039615181681999
14251731 5 18409726240449242543
14251732 17 9871752382213830236
14576447 43 18272646844812608018
15209294 21 7781511491061781072
15537594 2 18271793674807069162
18915474 69 18272085032851492318
20291156 8 18412262809605882209
20403669 9 18409450297580527639
20442098 301 18189620453966884757
20645477 70 18197230161168493127
21634736 98 18343017770438071536
21713013 43 17560525006405599055
221490 88 18341325600489083528
23379529 103 18335971034902604934
23402539 116 17632012069967591864
235170 7 15123786301256072291
23559900 14 18336273370435258305
238078 22 18335693996758550816
568465 68 17168151168981536100

> <PUBCHEM_SHAPE_MULTIPOLES>
357.33
8.55
2.95
1.23
2.01
0.31
0.15
6.67
0.01
0.04
-0.28
-0.47
-0.03
-0.08

> <PUBCHEM_SHAPE_SELFOVERLAP>
721.738

> <PUBCHEM_SHAPE_VOLUME>
210.4

> <PUBCHEM_COORDINATE_TYPE>
2
5
10

$$$$

