10764
  -OEChem-06261204563D

 52 51  0     0  0  0  0  0  0999 V2000
    0.4121    0.1181    0.0413 O   0  0  0  0  0  0  0  0  0  0  0  0
   -0.5092   -1.5986   -1.1535 O   0  0  0  0  0  0  0  0  0  0  0  0
    4.1391   -0.0622    0.0994 N   0  3  0  0  0  0  0  0  0  0  0  0
   -1.8893   -0.0024   -0.1760 N   0  0  0  0  0  0  0  0  0  0  0  0
    2.7542    0.4799    0.4226 C   0  0  0  0  0  0  0  0  0  0  0  0
    4.2771   -1.4696    0.6618 C   0  0  0  0  0  0  0  0  0  0  0  0
    4.3305   -0.0979   -1.4099 C   0  0  0  0  0  0  0  0  0  0  0  0
    5.1948    0.8392    0.7234 C   0  0  0  0  0  0  0  0  0  0  0  0
    1.7071   -0.4034   -0.2267 C   0  0  0  0  0  0  0  0  0  0  0  0
    5.6556   -2.0028    0.3375 C   0  0  0  0  0  0  0  0  0  0  0  0
   -1.9997    1.2134    0.6240 C   0  0  0  0  0  0  0  0  0  0  0  0
   -3.1439   -0.5816   -0.6345 C   0  0  0  0  0  0  0  0  0  0  0  0
   -1.9744    2.4765   -0.2303 C   0  0  0  0  0  0  0  0  0  0  0  0
   -3.7145   -1.5916    0.3555 C   0  0  0  0  0  0  0  0  0  0  0  0
   -0.6516   -0.5768   -0.4840 C   0  0  0  0  0  0  0  0  0  0  0  0
   -2.0622    3.7546    0.6070 C   0  0  0  0  0  0  0  0  0  0  0  0
   -5.0192   -2.2233   -0.1352 C   0  0  0  0  0  0  0  0  0  0  0  0
   -1.9741    4.9969   -0.2655 C   0  0  0  0  0  0  0  0  0  0  0  0
   -5.5324   -3.2685    0.8431 C   0  0  0  0  0  0  0  0  0  0  0  0
    2.6386    0.5046    1.5128 H   0  0  0  0  0  0  0  0  0  0  0  0
    2.6879    1.5104    0.0532 H   0  0  0  0  0  0  0  0  0  0  0  0
    4.1020   -1.4293    1.7424 H   0  0  0  0  0  0  0  0  0  0  0  0
    3.5468   -2.1313    0.1918 H   0  0  0  0  0  0  0  0  0  0  0  0
    3.9281    0.8282   -1.8332 H   0  0  0  0  0  0  0  0  0  0  0  0
    5.3992   -0.1442   -1.6404 H   0  0  0  0  0  0  0  0  0  0  0  0
    3.8265   -0.9717   -1.8326 H   0  0  0  0  0  0  0  0  0  0  0  0
    5.1410    0.7404    1.8117 H   0  0  0  0  0  0  0  0  0  0  0  0
    6.1877    0.5772    0.3503 H   0  0  0  0  0  0  0  0  0  0  0  0
    4.9727    1.8707    0.4312 H   0  0  0  0  0  0  0  0  0  0  0  0
    1.7177   -1.4170    0.1799 H   0  0  0  0  0  0  0  0  0  0  0  0
    1.8206   -0.4445   -1.3136 H   0  0  0  0  0  0  0  0  0  0  0  0
    6.4595   -1.4570    0.8381 H   0  0  0  0  0  0  0  0  0  0  0  0
    5.8687   -2.0573   -0.7328 H   0  0  0  0  0  0  0  0  0  0  0  0
    5.7238   -3.0327    0.7090 H   0  0  0  0  0  0  0  0  0  0  0  0
   -2.9252    1.1671    1.2100 H   0  0  0  0  0  0  0  0  0  0  0  0
   -1.1784    1.2462    1.3488 H   0  0  0  0  0  0  0  0  0  0  0  0
   -2.9569   -1.0871   -1.5894 H   0  0  0  0  0  0  0  0  0  0  0  0
   -3.8619    0.2223   -0.8324 H   0  0  0  0  0  0  0  0  0  0  0  0
   -1.0523    2.4942   -0.8250 H   0  0  0  0  0  0  0  0  0  0  0  0
   -2.8032    2.4539   -0.9486 H   0  0  0  0  0  0  0  0  0  0  0  0
   -3.8875   -1.1041    1.3229 H   0  0  0  0  0  0  0  0  0  0  0  0
   -2.9729   -2.3802    0.5366 H   0  0  0  0  0  0  0  0  0  0  0  0
   -1.2489    3.7739    1.3415 H   0  0  0  0  0  0  0  0  0  0  0  0
   -3.0055    3.7681    1.1650 H   0  0  0  0  0  0  0  0  0  0  0  0
   -4.8595   -2.6942   -1.1120 H   0  0  0  0  0  0  0  0  0  0  0  0
   -5.7800   -1.4458   -0.2691 H   0  0  0  0  0  0  0  0  0  0  0  0
   -2.7903    5.0226   -0.9946 H   0  0  0  0  0  0  0  0  0  0  0  0
   -2.0409    5.8985    0.3513 H   0  0  0  0  0  0  0  0  0  0  0  0
   -1.0251    5.0275   -0.8102 H   0  0  0  0  0  0  0  0  0  0  0  0
   -5.7287   -2.8242    1.8241 H   0  0  0  0  0  0  0  0  0  0  0  0
   -6.4657   -3.7058    0.4752 H   0  0  0  0  0  0  0  0  0  0  0  0
   -4.8055   -4.0770    0.9709 H   0  0  0  0  0  0  0  0  0  0  0  0
  1  9  1  0  0  0  0
  1 15  1  0  0  0  0
  2 15  2  0  0  0  0
  3  5  1  0  0  0  0
  3  6  1  0  0  0  0
  3  7  1  0  0  0  0
  3  8  1  0  0  0  0
  4 11  1  0  0  0  0
  4 12  1  0  0  0  0
  4 15  1  0  0  0  0
  5  9  1  0  0  0  0
  5 20  1  0  0  0  0
  5 21  1  0  0  0  0
  6 10  1  0  0  0  0
  6 22  1  0  0  0  0
  6 23  1  0  0  0  0
  7 24  1  0  0  0  0
  7 25  1  0  0  0  0
  7 26  1  0  0  0  0
  8 27  1  0  0  0  0
  8 28  1  0  0  0  0
  8 29  1  0  0  0  0
  9 30  1  0  0  0  0
  9 31  1  0  0  0  0
 10 32  1  0  0  0  0
 10 33  1  0  0  0  0
 10 34  1  0  0  0  0
 11 13  1  0  0  0  0
 11 35  1  0  0  0  0
 11 36  1  0  0  0  0
 12 14  1  0  0  0  0
 12 37  1  0  0  0  0
 12 38  1  0  0  0  0
 13 16  1  0  0  0  0
 13 39  1  0  0  0  0
 13 40  1  0  0  0  0
 14 17  1  0  0  0  0
 14 41  1  0  0  0  0
 14 42  1  0  0  0  0
 16 18  1  0  0  0  0
 16 43  1  0  0  0  0
 16 44  1  0  0  0  0
 17 19  1  0  0  0  0
 17 45  1  0  0  0  0
 17 46  1  0  0  0  0
 18 47  1  0  0  0  0
 18 48  1  0  0  0  0
 18 49  1  0  0  0  0
 19 50  1  0  0  0  0
 19 51  1  0  0  0  0
 19 52  1  0  0  0  0
M  CHG  1   3   1
M  END
> <PUBCHEM_COMPOUND_CID>
10764

> <PUBCHEM_CONFORMER_RMSD>
1

> <PUBCHEM_CONFORMER_DIVERSEORDER>
1
110
185
154
50
150
92
132
115
173
170
44
175
186
181
87
205
46
215
201
101
65
131
81
93
95
155
21
152
210
193
70
144
59
90
182
184
39
162
169
187
48
37
85
47
31
220
200
214
80
88
138
118
91
62
73
146
45
209
104
112
79
166
172
128
29
36
100
77
103
113
134
163
35
178
71
117
102
202
212
111
96
67
16
119
133
140
171
208
114
213
147
15
25
64
121
164
12
216
180
28
196
153
33
84
137
63
22
221
179
94
72
177
125
203
206
23
69
160
124
218
76
98
190
167
2
53
55
120
198
4
41
157
8
83
19
126
10
168
149
38
68
156
5
127
158
174
189
13
217
60
123
176
82
66
106
122
78
105
74
219
211
183
18
86
17
148
195
204
207
194
191
26
143
141
97
151
109
108
116
52
199
7
24
40
99
11
75
9
129
56
49
161
142
32
130
145
139
188
107
61
42
197
51
30
34
54
89
14
27
57
20
135
6
159
43
58
165
3
192
136

> <PUBCHEM_MMFF94_PARTIAL_CHARGES>
12
1 -0.43
11 0.3
12 0.3
15 0.78
2 -0.57
3 -1.01
4 -0.66
5 0.5
6 0.5
7 0.5
8 0.5
9 0.28

> <PUBCHEM_EFFECTIVE_ROTOR_COUNT>
12

> <PUBCHEM_PHARMACOPHORE_FEATURES>
4
1 18 hydrophobe
1 19 hydrophobe
1 2 acceptor
1 3 cation

> <PUBCHEM_HEAVY_ATOM_COUNT>
19

> <PUBCHEM_ATOM_DEF_STEREO_COUNT>
0

> <PUBCHEM_ATOM_UDEF_STEREO_COUNT>
0

> <PUBCHEM_BOND_DEF_STEREO_COUNT>
0

> <PUBCHEM_BOND_UDEF_STEREO_COUNT>
0

> <PUBCHEM_ISOTOPIC_ATOM_COUNT>
0

> <PUBCHEM_COMPONENT_COUNT>
1

> <PUBCHEM_CACTVS_TAUTO_COUNT>
1

> <PUBCHEM_CONFORMER_ID>
00002A0C00000001

> <PUBCHEM_MMFF94_ENERGY>
33.7719

> <PUBCHEM_FEATURE_SELFOVERLAP>
20.297

> <PUBCHEM_SHAPE_FINGERPRINT>
11045515 52 18202005383123365821
11056379 131 18338789108773477247
12107183 9 17621327166229703034
12516196 113 18339641114748498787
12788726 201 18342166748306583482
12892183 10 18409456899245610686
12916754 54 18202284710352229526
13073987 5 18410017658992584042
13955234 65 17545874937689278185
15042514 8 18410009953515215241
17492 89 18410012174013787978
17844677 252 18410571808378505112
1813 80 18116419363641193151
20286276 3 18193833967087329390
21426921 1 18338517546613005489
2297311 6 18336253566208687694
23402539 116 18334298635093891887
23557571 272 18409165541343476005
23558518 356 18199460155064542427
23845131 108 17758099781544037049
268830 7 4967601751219007314
312423 11 18343576352810653636
5104073 3 18260553355136859266
633830 44 5111999569696468990
77188 2 18267303136845489733

> <PUBCHEM_SHAPE_MULTIPOLES>
369.31
12.77
4.76
0.97
9.1
6.97
-0.14
-11.58
2.1
-8.42
0.62
0.36
-0.14
0.35

> <PUBCHEM_SHAPE_SELFOVERLAP>
682.133

> <PUBCHEM_SHAPE_VOLUME>
235.8

> <PUBCHEM_COORDINATE_TYPE>
2
5
10

$$$$

