17395382
  -OEChem-06241222492D

 43 44  0     1  0  0  0  0  0999 V2000
    7.5891   -0.6113    0.0000 O   0  0  0  0  0  0  0  0  0  0  0  0
    7.1733    1.3450    0.0000 O   0  0  0  0  0  0  0  0  0  0  0  0
    2.5878    2.6404    0.0000 O   0  0  0  0  0  0  0  0  0  0  0  0
    9.5571   -1.3107    0.0000 O   0  0  0  0  0  0  0  0  0  0  0  0
    3.9890    3.6585    0.0000 O   0  0  0  0  0  0  0  0  0  0  0  0
    7.0539   -2.2586    0.0000 O   0  0  0  0  0  0  0  0  0  0  0  0
    4.6701    0.3971    0.0000 N   0  0  0  0  0  0  0  0  0  0  0  0
    5.4791    0.9849    0.0000 C   0  0  0  0  0  0  0  0  0  0  0  0
    5.1701    1.9360    0.0000 C   0  0  0  0  0  0  0  0  0  0  0  0
    4.1701    1.9360    0.0000 C   0  0  0  0  0  0  0  0  0  0  0  0
    3.8611    0.9849    0.0000 C   0  0  0  0  0  0  0  0  0  0  0  0
    6.4302    0.6759    0.0000 C   0  0  0  0  0  0  0  0  0  0  0  0
    6.6381   -0.3023    0.0000 C   0  0  3  0  0  0  0  0  0  0  0  0
    5.7579    2.7450    0.0000 C   0  0  0  0  0  0  0  0  0  0  0  0
    2.9100    0.6759    0.0000 C   0  0  0  0  0  0  0  0  0  0  0  0
    5.8949   -0.9714    0.0000 C   0  0  0  0  0  0  0  0  0  0  0  0
    3.5823    2.7450    0.0000 C   0  0  0  0  0  0  0  0  0  0  0  0
    7.7970   -1.5894    0.0000 C   0  0  0  0  0  0  0  0  0  0  0  0
    8.7481   -1.8984    0.0000 C   0  0  0  0  0  0  0  0  0  0  0  0
    9.0571   -2.8495    0.0000 C   0  0  0  0  0  0  0  0  0  0  0  0
   10.0571   -2.8495    0.0000 C   0  0  0  0  0  0  0  0  0  0  0  0
    8.4693   -3.6585    0.0000 C   0  0  0  0  0  0  0  0  0  0  0  0
   10.3661   -1.8984    0.0000 C   0  0  0  0  0  0  0  0  0  0  0  0
    2.0000    3.4495    0.0000 C   0  0  0  0  0  0  0  0  0  0  0  0
    4.6701   -0.2229    0.0000 H   0  0  0  0  0  0  0  0  0  0  0  0
    7.0988    0.1126    0.0000 H   0  0  0  0  0  0  0  0  0  0  0  0
    6.2595    2.3806    0.0000 H   0  0  0  0  0  0  0  0  0  0  0  0
    6.1223    3.2466    0.0000 H   0  0  0  0  0  0  0  0  0  0  0  0
    5.2563    3.1094    0.0000 H   0  0  0  0  0  0  0  0  0  0  0  0
    2.7184    1.2655    0.0000 H   0  0  0  0  0  0  0  0  0  0  0  0
    2.3204    0.4843    0.0000 H   0  0  0  0  0  0  0  0  0  0  0  0
    3.1016    0.0862    0.0000 H   0  0  0  0  0  0  0  0  0  0  0  0
    5.4801   -0.5106    0.0000 H   0  0  0  0  0  0  0  0  0  0  0  0
    5.4342   -1.3863    0.0000 H   0  0  0  0  0  0  0  0  0  0  0  0
    6.3098   -1.4321    0.0000 H   0  0  0  0  0  0  0  0  0  0  0  0
   10.4215   -3.3511    0.0000 H   0  0  0  0  0  0  0  0  0  0  0  0
    7.9677   -3.2941    0.0000 H   0  0  0  0  0  0  0  0  0  0  0  0
    8.1049   -4.1601    0.0000 H   0  0  0  0  0  0  0  0  0  0  0  0
    8.9709   -4.0230    0.0000 H   0  0  0  0  0  0  0  0  0  0  0  0
   10.9558   -1.7069    0.0000 H   0  0  0  0  0  0  0  0  0  0  0  0
    2.5016    3.8139    0.0000 H   0  0  0  0  0  0  0  0  0  0  0  0
    1.6356    3.9510    0.0000 H   0  0  0  0  0  0  0  0  0  0  0  0
    1.4984    3.0850    0.0000 H   0  0  0  0  0  0  0  0  0  0  0  0
  1 13  1  0  0  0  0
  1 18  1  0  0  0  0
  2 12  2  0  0  0  0
  3 17  1  0  0  0  0
  3 24  1  0  0  0  0
  4 19  1  0  0  0  0
  4 23  1  0  0  0  0
  5 17  2  0  0  0  0
  6 18  2  0  0  0  0
  7  8  1  0  0  0  0
  7 11  1  0  0  0  0
  7 25  1  0  0  0  0
  8  9  2  0  0  0  0
  8 12  1  0  0  0  0
  9 10  1  0  0  0  0
  9 14  1  0  0  0  0
 10 11  2  0  0  0  0
 10 17  1  0  0  0  0
 11 15  1  0  0  0  0
 12 13  1  0  0  0  0
 13 16  1  0  0  0  0
 13 26  1  0  0  0  0
 14 27  1  0  0  0  0
 14 28  1  0  0  0  0
 14 29  1  0  0  0  0
 15 30  1  0  0  0  0
 15 31  1  0  0  0  0
 15 32  1  0  0  0  0
 16 33  1  0  0  0  0
 16 34  1  0  0  0  0
 16 35  1  0  0  0  0
 18 19  1  0  0  0  0
 19 20  2  0  0  0  0
 20 21  1  0  0  0  0
 20 22  1  0  0  0  0
 21 23  2  0  0  0  0
 21 36  1  0  0  0  0
 22 37  1  0  0  0  0
 22 38  1  0  0  0  0
 22 39  1  0  0  0  0
 23 40  1  0  0  0  0
 24 41  1  0  0  0  0
 24 42  1  0  0  0  0
 24 43  1  0  0  0  0
M  END
> <PUBCHEM_COMPOUND_CID>
17395382

> <PUBCHEM_COMPOUND_CANONICALIZED>
1

> <PUBCHEM_CACTVS_COMPLEXITY>
507

> <PUBCHEM_CACTVS_HBOND_ACCEPTOR>
6

> <PUBCHEM_CACTVS_HBOND_DONOR>
1

> <PUBCHEM_CACTVS_ROTATABLE_BOND>
7

> <PUBCHEM_CACTVS_SUBSKEYS>
AAADceB6OAAAAAAAAAAAAAAAAAAAAWJAAAAAAAAAAAAAAAAB4AAAHgAQAAAADByhngIyjJLJlECoA6zyzAKCiCAnICAImSH2TNgNJnrEtb+GGajm0BHK6ce87/i+gAAAAAAAAAAAAAAAAAAAAAAAAAAAAA==

> <PUBCHEM_IUPAC_OPENEYE_NAME>
methyl 2,4-dimethyl-5-[2-(3-methylfuran-2-carbonyl)oxypropanoyl]-1H-pyrrole-3-carboxylate

> <PUBCHEM_IUPAC_CAS_NAME>
2,4-dimethyl-5-[2-[(3-methyl-2-furanyl)-oxomethoxy]-1-oxopropyl]-1H-pyrrole-3-carboxylic acid methyl ester

> <PUBCHEM_IUPAC_NAME>
methyl 2,4-dimethyl-5-[2-(3-methylfuran-2-carbonyl)oxypropanoyl]-1H-pyrrole-3-carboxylate

> <PUBCHEM_IUPAC_SYSTEMATIC_NAME>
methyl 2,4-dimethyl-5-[2-(3-methylfuran-2-yl)carbonyloxypropanoyl]-1H-pyrrole-3-carboxylate

> <PUBCHEM_IUPAC_TRADITIONAL_NAME>
2,4-dimethyl-5-[2-(3-methyl-2-furoyl)oxypropanoyl]-1H-pyrrole-3-carboxylic acid methyl ester

> <PUBCHEM_IUPAC_INCHI>
InChI=1S/C17H19NO6/c1-8-6-7-23-15(8)17(21)24-11(4)14(19)13-9(2)12(10(3)18-13)16(20)22-5/h6-7,11,18H,1-5H3

> <PUBCHEM_IUPAC_INCHIKEY>
ZGZIWAYYSDEFSQ-UHFFFAOYSA-N

> <PUBCHEM_XLOGP3_AA>
3.1

> <PUBCHEM_EXACT_MASS>
333.121237

> <PUBCHEM_MOLECULAR_FORMULA>
C17H19NO6

> <PUBCHEM_MOLECULAR_WEIGHT>
333.33586

> <PUBCHEM_OPENEYE_CAN_SMILES>
CC1=C(OC=C1)C(=O)OC(C)C(=O)C2=C(C(=C(N2)C)C(=O)OC)C

> <PUBCHEM_OPENEYE_ISO_SMILES>
CC1=C(OC=C1)C(=O)OC(C)C(=O)C2=C(C(=C(N2)C)C(=O)OC)C

> <PUBCHEM_CACTVS_TPSA>
98.6

> <PUBCHEM_MONOISOTOPIC_WEIGHT>
333.121237

> <PUBCHEM_TOTAL_CHARGE>
0

> <PUBCHEM_HEAVY_ATOM_COUNT>
24

> <PUBCHEM_ATOM_DEF_STEREO_COUNT>
0

> <PUBCHEM_ATOM_UDEF_STEREO_COUNT>
1

> <PUBCHEM_BOND_DEF_STEREO_COUNT>
0

> <PUBCHEM_BOND_UDEF_STEREO_COUNT>
0

> <PUBCHEM_ISOTOPIC_ATOM_COUNT>
0

> <PUBCHEM_COMPONENT_COUNT>
1

> <PUBCHEM_CACTVS_TAUTO_COUNT>
33

> <PUBCHEM_COORDINATE_TYPE>
1
5
255

> <PUBCHEM_BONDANNOTATIONS>
10  11  8
13  16  3
19  20  8
20  21  8
21  23  8
4  19  8
4  23  8
7  11  8
7  8  8
8  9  8
9  10  8

$$$$

