3340
  -OEChem-06251223212D

 38 40  0     1  0  0  0  0  0999 V2000
    5.6316   -3.7398    0.0000 Cl  0  0  0  0  0  0  0  0  0  0  0  0
    7.4133   -0.6810    0.0000 O   0  0  0  0  0  0  0  0  0  0  0  0
    7.4133   -2.7293    0.0000 O   0  0  0  0  0  0  0  0  0  0  0  0
    4.8575    3.3180    0.0000 O   0  0  0  0  0  0  0  0  0  0  0  0
    2.5586   -1.7052    0.0000 N   0  3  0  0  0  0  0  0  0  0  0  0
    3.9674   -0.5817    0.0000 C   0  0  3  0  0  0  0  0  0  0  0  0
    2.9925   -0.8042    0.0000 C   0  0  0  0  0  0  0  0  0  0  0  0
    4.7492   -1.2052    0.0000 C   0  0  0  0  0  0  0  0  0  0  0  0
    2.9925   -2.6061    0.0000 C   0  0  0  0  0  0  0  0  0  0  0  0
    3.9674   -2.8286    0.0000 C   0  0  0  0  0  0  0  0  0  0  0  0
    4.7492   -2.2052    0.0000 C   0  0  0  0  0  0  0  0  0  0  0  0
    4.1899    0.3933    0.0000 C   0  0  0  0  0  0  0  0  0  0  0  0
    5.6432   -0.6705    0.0000 C   0  0  0  0  0  0  0  0  0  0  0  0
    5.6432   -2.7398    0.0000 C   0  0  0  0  0  0  0  0  0  0  0  0
    6.5492   -1.1843    0.0000 C   0  0  0  0  0  0  0  0  0  0  0  0
    5.1455    0.6880    0.0000 C   0  0  0  0  0  0  0  0  0  0  0  0
    3.4569    1.0734    0.0000 C   0  0  0  0  0  0  0  0  0  0  0  0
    6.5492   -2.2260    0.0000 C   0  0  0  0  0  0  0  0  0  0  0  0
    5.3680    1.6629    0.0000 C   0  0  0  0  0  0  0  0  0  0  0  0
    3.6794    2.0484    0.0000 C   0  0  0  0  0  0  0  0  0  0  0  0
    4.6350    2.3431    0.0000 C   0  0  0  0  0  0  0  0  0  0  0  0
    3.5290   -0.1433    0.0000 H   0  0  0  0  0  0  0  0  0  0  0  0
    2.9925   -0.1842    0.0000 H   0  0  0  0  0  0  0  0  0  0  0  0
    2.3880   -0.6662    0.0000 H   0  0  0  0  0  0  0  0  0  0  0  0
    2.2093   -2.2174    0.0000 H   0  0  0  0  0  0  0  0  0  0  0  0
    2.0000   -1.4362    0.0000 H   0  0  0  0  0  0  0  0  0  0  0  0
    2.3880   -2.7441    0.0000 H   0  0  0  0  0  0  0  0  0  0  0  0
    2.9925   -3.2261    0.0000 H   0  0  0  0  0  0  0  0  0  0  0  0
    3.6984   -3.3872    0.0000 H   0  0  0  0  0  0  0  0  0  0  0  0
    4.4521   -3.2152    0.0000 H   0  0  0  0  0  0  0  0  0  0  0  0
    5.6360   -0.0505    0.0000 H   0  0  0  0  0  0  0  0  0  0  0  0
    5.6000    0.2663    0.0000 H   0  0  0  0  0  0  0  0  0  0  0  0
    2.8644    0.8907    0.0000 H   0  0  0  0  0  0  0  0  0  0  0  0
    5.9605    1.8457    0.0000 H   0  0  0  0  0  0  0  0  0  0  0  0
    3.2249    2.4701    0.0000 H   0  0  0  0  0  0  0  0  0  0  0  0
    7.4110   -0.0610    0.0000 H   0  0  0  0  0  0  0  0  0  0  0  0
    7.9515   -2.4214    0.0000 H   0  0  0  0  0  0  0  0  0  0  0  0
    4.4030    3.7398    0.0000 H   0  0  0  0  0  0  0  0  0  0  0  0
  1 14  1  0  0  0  0
  2 15  1  0  0  0  0
  2 36  1  0  0  0  0
  3 18  1  0  0  0  0
  3 37  1  0  0  0  0
  4 21  1  0  0  0  0
  4 38  1  0  0  0  0
  5  7  1  0  0  0  0
  5  9  1  0  0  0  0
  5 25  1  0  0  0  0
  5 26  1  0  0  0  0
  6  7  1  0  0  0  0
  6  8  1  0  0  0  0
  6 12  1  0  0  0  0
  6 22  1  0  0  0  0
  7 23  1  0  0  0  0
  7 24  1  0  0  0  0
  8 11  1  0  0  0  0
  8 13  2  0  0  0  0
  9 10  1  0  0  0  0
  9 27  1  0  0  0  0
  9 28  1  0  0  0  0
 10 11  1  0  0  0  0
 10 29  1  0  0  0  0
 10 30  1  0  0  0  0
 11 14  2  0  0  0  0
 12 16  2  0  0  0  0
 12 17  1  0  0  0  0
 13 15  1  0  0  0  0
 13 31  1  0  0  0  0
 14 18  1  0  0  0  0
 15 18  2  0  0  0  0
 16 19  1  0  0  0  0
 16 32  1  0  0  0  0
 17 20  2  0  0  0  0
 17 33  1  0  0  0  0
 19 21  2  0  0  0  0
 19 34  1  0  0  0  0
 20 21  1  0  0  0  0
 20 35  1  0  0  0  0
M  CHG  1   5   1
M  END
> <PUBCHEM_COMPOUND_CID>
3340

> <PUBCHEM_COMPOUND_CANONICALIZED>
1

> <PUBCHEM_CACTVS_COMPLEXITY>
348

> <PUBCHEM_CACTVS_HBOND_ACCEPTOR>
3

> <PUBCHEM_CACTVS_HBOND_DONOR>
4

> <PUBCHEM_CACTVS_ROTATABLE_BOND>
1

> <PUBCHEM_CACTVS_SUBSKEYS>
AAADceB6MAAEAAAAAAAAAAAAAAAAAAAAAAAwYAAABYAAAAABQAAAHgIQCAAADQbBmCQwBoLAAgCAAiBCAAACAAAgJEAIiIAOi4gJJiKDkxOEcAEk0BGJmAeQ0PIOoAABIQARSABAAAJCACKQAAAAAAAAAA==

> <PUBCHEM_IUPAC_OPENEYE_NAME>
9-chloro-5-(4-hydroxyphenyl)-2,3,4,5-tetrahydro-1H-3-benzazepin-3-ium-7,8-diol

> <PUBCHEM_IUPAC_CAS_NAME>
9-chloro-5-(4-hydroxyphenyl)-2,3,4,5-tetrahydro-1H-3-benzazepin-3-ium-7,8-diol

> <PUBCHEM_IUPAC_NAME>
9-chloro-5-(4-hydroxyphenyl)-2,3,4,5-tetrahydro-1H-3-benzazepin-3-ium-7,8-diol

> <PUBCHEM_IUPAC_SYSTEMATIC_NAME>
9-chloranyl-5-(4-hydroxyphenyl)-2,3,4,5-tetrahydro-1H-3-benzazepin-3-ium-7,8-diol

> <PUBCHEM_IUPAC_TRADITIONAL_NAME>
9-chloro-5-(4-hydroxyphenyl)-2,3,4,5-tetrahydro-1H-3-benzazepin-3-ium-7,8-diol

> <PUBCHEM_IUPAC_INCHI>
InChI=1S/C16H16ClNO3/c17-15-11-5-6-18-8-13(9-1-3-10(19)4-2-9)12(11)7-14(20)16(15)21/h1-4,7,13,18-21H,5-6,8H2/p+1

> <PUBCHEM_IUPAC_INCHIKEY>
TVURRHSHRRELCG-UHFFFAOYSA-O

> <PUBCHEM_XLOGP3>
2.4

> <PUBCHEM_EXACT_MASS>
306.089696

> <PUBCHEM_MOLECULAR_FORMULA>
C16H17ClNO3+

> <PUBCHEM_MOLECULAR_WEIGHT>
306.76408

> <PUBCHEM_OPENEYE_CAN_SMILES>
C1C[NH2+]CC(C2=CC(=C(C(=C21)Cl)O)O)C3=CC=C(C=C3)O

> <PUBCHEM_OPENEYE_ISO_SMILES>
C1C[NH2+]CC(C2=CC(=C(C(=C21)Cl)O)O)C3=CC=C(C=C3)O

> <PUBCHEM_CACTVS_TPSA>
77.3

> <PUBCHEM_MONOISOTOPIC_WEIGHT>
306.089696

> <PUBCHEM_TOTAL_CHARGE>
1

> <PUBCHEM_HEAVY_ATOM_COUNT>
21

> <PUBCHEM_ATOM_DEF_STEREO_COUNT>
0

> <PUBCHEM_ATOM_UDEF_STEREO_COUNT>
1

> <PUBCHEM_BOND_DEF_STEREO_COUNT>
0

> <PUBCHEM_BOND_UDEF_STEREO_COUNT>
0

> <PUBCHEM_ISOTOPIC_ATOM_COUNT>
0

> <PUBCHEM_COMPONENT_COUNT>
1

> <PUBCHEM_CACTVS_TAUTO_COUNT>
202

> <PUBCHEM_COORDINATE_TYPE>
1
5
255

> <PUBCHEM_BONDANNOTATIONS>
11  14  8
12  16  8
12  17  8
13  15  8
14  18  8
15  18  8
16  19  8
17  20  8
19  21  8
20  21  8
6  12  3
8  11  8
8  13  8

$$$$

