12618
  -OEChem-06261207092D

 18 16  0     0  0  0  0  0  0999 V2000
    2.0190    0.0000    0.0000 Cl  0  5  0  0  0  0  0  0  0  0  0  0
    2.2690    3.4750    0.0000 N   0  3  0  0  0  0  0  0  0  0  0  0
    3.1350    3.9750    0.0000 C   0  0  0  0  0  0  0  0  0  0  0  0
    1.4030    2.9750    0.0000 C   0  0  0  0  0  0  0  0  0  0  0  0
    4.0010    3.4750    0.0000 C   0  0  0  0  0  0  0  0  0  0  0  0
    0.5369    3.4750    0.0000 C   0  0  0  0  0  0  0  0  0  0  0  0
    1.9590    4.0119    0.0000 H   0  0  0  0  0  0  0  0  0  0  0  0
    2.5790    2.9380    0.0000 H   0  0  0  0  0  0  0  0  0  0  0  0
    1.0044    2.5000    0.0000 H   0  0  0  0  0  0  0  0  0  0  0  0
    1.8015    2.5000    0.0000 H   0  0  0  0  0  0  0  0  0  0  0  0
    3.5335    4.4499    0.0000 H   0  0  0  0  0  0  0  0  0  0  0  0
    2.7365    4.4499    0.0000 H   0  0  0  0  0  0  0  0  0  0  0  0
    3.6910    2.9380    0.0000 H   0  0  0  0  0  0  0  0  0  0  0  0
    4.5380    3.1650    0.0000 H   0  0  0  0  0  0  0  0  0  0  0  0
    4.3110    4.0119    0.0000 H   0  0  0  0  0  0  0  0  0  0  0  0
    0.8469    4.0119    0.0000 H   0  0  0  0  0  0  0  0  0  0  0  0
    0.0000    3.7850    0.0000 H   0  0  0  0  0  0  0  0  0  0  0  0
    0.2269    2.9380    0.0000 H   0  0  0  0  0  0  0  0  0  0  0  0
  2  3  1  0  0  0  0
  2  4  1  0  0  0  0
  2  7  1  0  0  0  0
  2  8  1  0  0  0  0
  3  5  1  0  0  0  0
  3 11  1  0  0  0  0
  3 12  1  0  0  0  0
  4  6  1  0  0  0  0
  4  9  1  0  0  0  0
  4 10  1  0  0  0  0
  5 13  1  0  0  0  0
  5 14  1  0  0  0  0
  5 15  1  0  0  0  0
  6 16  1  0  0  0  0
  6 17  1  0  0  0  0
  6 18  1  0  0  0  0
M  CHG  2   1  -1   2   1
M  END
> <PUBCHEM_COMPOUND_CID>
12618

> <PUBCHEM_COMPOUND_CANONICALIZED>
1

> <PUBCHEM_CACTVS_COMPLEXITY>
11.1

> <PUBCHEM_CACTVS_HBOND_ACCEPTOR>
1

> <PUBCHEM_CACTVS_HBOND_DONOR>
1

> <PUBCHEM_CACTVS_ROTATABLE_BOND>
2

> <PUBCHEM_CACTVS_SUBSKEYS>
AAADccBiAAAEAAAAAAAAAAAAAAAAAAAAAAAAAAAAAAAAAAAAAAAAHAAQAAAAAADBAAQCAALAAAAAAAAAAAAAAAAAAAAAAIAIAAAAAAAAAAAAAAAAEACAAAAAAAAAAAAAAAAAAAAAAAAAAAAAAAAAAAAAAA==

> <PUBCHEM_IUPAC_OPENEYE_NAME>
diethylammonium chloride

> <PUBCHEM_IUPAC_CAS_NAME>
diethylammonium chloride

> <PUBCHEM_IUPAC_NAME>
diethylazanium chloride

> <PUBCHEM_IUPAC_SYSTEMATIC_NAME>
diethylazanium chloride

> <PUBCHEM_IUPAC_TRADITIONAL_NAME>
diethylammonium chloride

> <PUBCHEM_IUPAC_INCHI>
InChI=1S/C4H11N.ClH/c1-3-5-4-2;/h5H,3-4H2,1-2H3;1H

> <PUBCHEM_IUPAC_INCHIKEY>
HDITUCONWLWUJR-UHFFFAOYSA-N

> <PUBCHEM_EXACT_MASS>
109.065827

> <PUBCHEM_MOLECULAR_FORMULA>
C4H12ClN

> <PUBCHEM_MOLECULAR_WEIGHT>
109.59778

> <PUBCHEM_OPENEYE_CAN_SMILES>
CC[NH2+]CC.[Cl-]

> <PUBCHEM_OPENEYE_ISO_SMILES>
CC[NH2+]CC.[Cl-]

> <PUBCHEM_CACTVS_TPSA>
16.6

> <PUBCHEM_MONOISOTOPIC_WEIGHT>
109.065827

> <PUBCHEM_TOTAL_CHARGE>
0

> <PUBCHEM_HEAVY_ATOM_COUNT>
6

> <PUBCHEM_ATOM_DEF_STEREO_COUNT>
0

> <PUBCHEM_ATOM_UDEF_STEREO_COUNT>
0

> <PUBCHEM_BOND_DEF_STEREO_COUNT>
0

> <PUBCHEM_BOND_UDEF_STEREO_COUNT>
0

> <PUBCHEM_ISOTOPIC_ATOM_COUNT>
0

> <PUBCHEM_COMPONENT_COUNT>
2

> <PUBCHEM_CACTVS_TAUTO_COUNT>
1

> <PUBCHEM_COORDINATE_TYPE>
1
5
255

$$$$

