11264
  -OEChem-06261205273D

 21 20  0     1  0  0  0  0  0999 V2000
   -0.5299   -1.5917   -0.1364 O   0  0  0  0  0  0  0  0  0  0  0  0
    1.1404    0.1560   -0.3026 C   0  0  0  0  0  0  0  0  0  0  0  0
   -0.2558   -0.2407    0.2301 C   0  0  1  0  0  0  0  0  0  0  0  0
   -1.3714    0.6754   -0.2927 C   0  0  0  0  0  0  0  0  0  0  0  0
    1.5636    1.5703    0.1062 C   0  0  0  0  0  0  0  0  0  0  0  0
    2.2014   -0.8438    0.1719 C   0  0  0  0  0  0  0  0  0  0  0  0
   -2.7482    0.2745    0.2236 C   0  0  0  0  0  0  0  0  0  0  0  0
    1.1250    0.1049   -1.3994 H   0  0  0  0  0  0  0  0  0  0  0  0
   -0.2485   -0.2056    1.3262 H   0  0  0  0  0  0  0  0  0  0  0  0
   -1.3949    0.6420   -1.3886 H   0  0  0  0  0  0  0  0  0  0  0  0
   -1.1870    1.7129    0.0033 H   0  0  0  0  0  0  0  0  0  0  0  0
    0.9218    2.3278   -0.3532 H   0  0  0  0  0  0  0  0  0  0  0  0
    1.5211    1.6968    1.1932 H   0  0  0  0  0  0  0  0  0  0  0  0
    2.5886    1.7799   -0.2187 H   0  0  0  0  0  0  0  0  0  0  0  0
    3.1930   -0.5649   -0.2010 H   0  0  0  0  0  0  0  0  0  0  0  0
    1.9918   -1.8545   -0.1928 H   0  0  0  0  0  0  0  0  0  0  0  0
    2.2501   -0.8793    1.2656 H   0  0  0  0  0  0  0  0  0  0  0  0
   -3.5064    0.9733   -0.1440 H   0  0  0  0  0  0  0  0  0  0  0  0
   -2.7747    0.2894    1.3178 H   0  0  0  0  0  0  0  0  0  0  0  0
   -3.0250   -0.7287   -0.1150 H   0  0  0  0  0  0  0  0  0  0  0  0
   -0.5519   -1.6366   -1.1076 H   0  0  0  0  0  0  0  0  0  0  0  0
  1  3  1  0  0  0  0
  1 21  1  0  0  0  0
  2  3  1  0  0  0  0
  2  5  1  0  0  0  0
  2  6  1  0  0  0  0
  2  8  1  0  0  0  0
  3  4  1  0  0  0  0
  3  9  1  0  0  0  0
  4  7  1  0  0  0  0
  4 10  1  0  0  0  0
  4 11  1  0  0  0  0
  5 12  1  0  0  0  0
  5 13  1  0  0  0  0
  5 14  1  0  0  0  0
  6 15  1  0  0  0  0
  6 16  1  0  0  0  0
  6 17  1  0  0  0  0
  7 18  1  0  0  0  0
  7 19  1  0  0  0  0
  7 20  1  0  0  0  0
M  END
> <PUBCHEM_COMPOUND_CID>
11264

> <PUBCHEM_CONFORMER_RMSD>
0.4

> <PUBCHEM_CONFORMER_DIVERSEORDER>
5
7
1
10
9
8
3
2
4
6

> <PUBCHEM_MMFF94_PARTIAL_CHARGES>
3
1 -0.68
21 0.4
3 0.28

> <PUBCHEM_EFFECTIVE_ROTOR_COUNT>
2

> <PUBCHEM_PHARMACOPHORE_FEATURES>
4
1 1 acceptor
1 1 donor
1 7 hydrophobe
3 2 5 6 hydrophobe

> <PUBCHEM_HEAVY_ATOM_COUNT>
7

> <PUBCHEM_ATOM_DEF_STEREO_COUNT>
0

> <PUBCHEM_ATOM_UDEF_STEREO_COUNT>
1

> <PUBCHEM_BOND_DEF_STEREO_COUNT>
0

> <PUBCHEM_BOND_UDEF_STEREO_COUNT>
0

> <PUBCHEM_ISOTOPIC_ATOM_COUNT>
0

> <PUBCHEM_COMPONENT_COUNT>
1

> <PUBCHEM_CACTVS_TAUTO_COUNT>
1

> <PUBCHEM_CONFORMER_ID>
00002C0000000005

> <PUBCHEM_MMFF94_ENERGY>
6.9064

> <PUBCHEM_FEATURE_SELFOVERLAP>
20.297

> <PUBCHEM_SHAPE_FINGERPRINT>
14325111 11 18410855451965638033
14390081 3 18115869607273917129
16714656 1 18343017834688423270
20096714 4 18411136917956788212
21040471 1 18338796715076084244
23552423 10 18199751349462209294
24536 1 18265632986718372996
29004967 10 18337953527212493698
5084963 1 18259989305239162777
5460574 1 8934992672598363885

> <PUBCHEM_SHAPE_MULTIPOLES>
138.19
3.33
1.43
0.65
1.29
0.03
0
0.23
-0.26
-0.55
0
0.01
0.03
0

> <PUBCHEM_SHAPE_SELFOVERLAP>
242.214

> <PUBCHEM_SHAPE_VOLUME>
92.4

> <PUBCHEM_COORDINATE_TYPE>
2
5
10

$$$$

