47205006
  -OEChem-06241222573D

 33 35  0     0  0  0  0  0  0999 V2000
    1.1466    2.0586   -0.0095 O   0  0  0  0  0  0  0  0  0  0  0  0
    3.3407   -2.4662   -0.0036 O   0  0  0  0  0  0  0  0  0  0  0  0
   -1.6403    1.5068   -0.0007 N   0  0  0  0  0  0  0  0  0  0  0  0
    1.6554   -0.2107    0.0230 N   0  0  0  0  0  0  0  0  0  0  0  0
    5.0254    1.1805   -0.0021 N   0  0  0  0  0  0  0  0  0  0  0  0
   -2.6615   -0.4767    0.0054 C   0  0  0  0  0  0  0  0  0  0  0  0
   -2.8775    0.9031   -0.0028 C   0  0  0  0  0  0  0  0  0  0  0  0
   -0.6523    0.5591    0.0088 C   0  0  0  0  0  0  0  0  0  0  0  0
   -1.2529   -0.6787    0.0132 C   0  0  0  0  0  0  0  0  0  0  0  0
   -3.7767   -1.3378    0.0046 C   0  0  0  0  0  0  0  0  0  0  0  0
   -5.0638   -0.7881   -0.0042 C   0  0  0  0  0  0  0  0  0  0  0  0
   -4.1583    1.4668   -0.0114 C   0  0  0  0  0  0  0  0  0  0  0  0
   -5.2493    0.5930   -0.0116 C   0  0  0  0  0  0  0  0  0  0  0  0
    0.7427    0.8681    0.0130 C   0  0  0  0  0  0  0  0  0  0  0  0
   -6.2504   -1.6938   -0.0053 C   0  0  0  0  0  0  0  0  0  0  0  0
    3.0158   -0.0980    0.0101 C   0  0  0  0  0  0  0  0  0  0  0  0
    3.8453   -1.3483   -0.0037 C   0  0  0  0  0  0  0  0  0  0  0  0
    3.6606    1.0778    0.0101 C   0  0  0  0  0  0  0  0  0  0  0  0
    5.3321   -1.1820   -0.0176 C   0  0  0  0  0  0  0  0  0  0  0  0
    5.8181    0.0663   -0.0158 C   0  0  0  0  0  0  0  0  0  0  0  0
   -0.7583   -1.6404    0.0207 H   0  0  0  0  0  0  0  0  0  0  0  0
   -1.4872    2.5060   -0.0055 H   0  0  0  0  0  0  0  0  0  0  0  0
   -3.6327   -2.4149    0.0089 H   0  0  0  0  0  0  0  0  0  0  0  0
   -4.3036    2.5418   -0.0180 H   0  0  0  0  0  0  0  0  0  0  0  0
   -6.2533    1.0116   -0.0202 H   0  0  0  0  0  0  0  0  0  0  0  0
    1.2948   -1.1603    0.0302 H   0  0  0  0  0  0  0  0  0  0  0  0
   -6.5481   -1.9209   -1.0338 H   0  0  0  0  0  0  0  0  0  0  0  0
   -6.0310   -2.6338    0.5124 H   0  0  0  0  0  0  0  0  0  0  0  0
   -7.0989   -1.2342    0.5129 H   0  0  0  0  0  0  0  0  0  0  0  0
    3.2434    2.0689    0.0240 H   0  0  0  0  0  0  0  0  0  0  0  0
    5.9643   -2.0600   -0.0282 H   0  0  0  0  0  0  0  0  0  0  0  0
    5.4570    2.0958   -0.0002 H   0  0  0  0  0  0  0  0  0  0  0  0
    6.8801    0.2772   -0.0249 H   0  0  0  0  0  0  0  0  0  0  0  0
  1 14  2  0  0  0  0
  2 17  2  0  0  0  0
  3  7  1  0  0  0  0
  3  8  1  0  0  0  0
  3 22  1  0  0  0  0
  4 14  1  0  0  0  0
  4 16  1  0  0  0  0
  4 26  1  0  0  0  0
  5 18  1  0  0  0  0
  5 20  1  0  0  0  0
  5 32  1  0  0  0  0
  6  7  2  0  0  0  0
  6  9  1  0  0  0  0
  6 10  1  0  0  0  0
  7 12  1  0  0  0  0
  8  9  2  0  0  0  0
  8 14  1  0  0  0  0
  9 21  1  0  0  0  0
 10 11  2  0  0  0  0
 10 23  1  0  0  0  0
 11 13  1  0  0  0  0
 11 15  1  0  0  0  0
 12 13  2  0  0  0  0
 12 24  1  0  0  0  0
 13 25  1  0  0  0  0
 15 27  1  0  0  0  0
 15 28  1  0  0  0  0
 15 29  1  0  0  0  0
 16 17  1  0  0  0  0
 16 18  2  0  0  0  0
 17 19  1  0  0  0  0
 18 30  1  0  0  0  0
 19 20  2  0  0  0  0
 19 31  1  0  0  0  0
 20 33  1  0  0  0  0
M  END
> <PUBCHEM_COMPOUND_CID>
47205006

> <PUBCHEM_CONFORMER_RMSD>
0.6

> <PUBCHEM_CONFORMER_DIVERSEORDER>
1
12
14
8
4
6
10
2
11
13
7
9
5
3

> <PUBCHEM_MMFF94_PARTIAL_CHARGES>
29
1 -0.57
10 -0.15
11 -0.14
12 -0.15
13 -0.15
14 0.71
15 0.14
16 0.12
17 0.54
18 -0.05
19 -0.14
2 -0.57
20 -0.05
21 0.15
22 0.27
23 0.15
24 0.15
25 0.15
26 0.37
3 0.03
30 0.15
31 0.15
32 0.4
33 0.15
4 -0.54
5 -0.6
7 -0.15
8 -0.24
9 -0.15

> <PUBCHEM_EFFECTIVE_ROTOR_COUNT>
3

> <PUBCHEM_PHARMACOPHORE_FEATURES>
10
1 1 acceptor
1 2 acceptor
1 3 cation
1 3 donor
1 4 donor
1 5 cation
1 5 donor
5 3 6 7 8 9 rings
6 5 16 17 18 19 20 rings
6 6 7 10 11 12 13 rings

> <PUBCHEM_HEAVY_ATOM_COUNT>
20

> <PUBCHEM_ATOM_DEF_STEREO_COUNT>
0

> <PUBCHEM_ATOM_UDEF_STEREO_COUNT>
0

> <PUBCHEM_BOND_DEF_STEREO_COUNT>
0

> <PUBCHEM_BOND_UDEF_STEREO_COUNT>
0

> <PUBCHEM_ISOTOPIC_ATOM_COUNT>
0

> <PUBCHEM_COMPONENT_COUNT>
1

> <PUBCHEM_CACTVS_TAUTO_COUNT>
119

> <PUBCHEM_CONFORMER_ID>
02D04A8E00000001

> <PUBCHEM_MMFF94_ENERGY>
50.652

> <PUBCHEM_FEATURE_SELFOVERLAP>
50.835

> <PUBCHEM_SHAPE_FINGERPRINT>
10595046 47 18411980260745176080
10835480 77 18411146835068663893
10968037 39 18413669101799019845
11315181 36 18261108569564191985
11524674 6 16443062777670094287
12107183 9 17615967046569255560
12236239 1 18343864419966174900
12516196 113 18259705592674291768
12596602 18 17458060456539617658
13073987 5 18408322207018532369
13167823 11 18409168830787329311
13288520 33 18410011031641625333
13533116 47 18261673666658473776
13685833 64 18341327812945945147
13862211 1 18412829087811110211
14251718 22 18342739606722838489
14251732 16 18337110072860613552
14251764 18 18187359922938198563
14341114 176 18408036303751009289
14528608 73 18412538787425614796
15196674 1 18410855485903246819
17492 89 18193276519219213806
17834072 33 18409730651359322716
17844677 252 18409161117089700553
17857418 61 18410295804683948279
1813 80 17346877866503255756
200 152 18187365424232271881
20645477 70 18336263535313253590
21236236 1 18408322216283797369
21267235 1 18410004429543687806
23402539 116 18408326592565315413
23522609 53 18193524888018626056
23536379 177 18410855477492777465
23557571 272 17560805463190380484
23559900 14 18410300176865937641
239999 70 18259980496978891150
3004659 81 18272651273018848706
335352 9 18410576198188802197
34797466 226 17458898241956932588
3545911 37 18411136939795589084
4073 2 18131345280748037810
4214541 1 18410574019785892353
4325135 7 18271804593241455780
465052 167 18113615703543143310
5104073 3 18335702770970367121
5283173 99 18200319947255940301
542803 24 17167859772545988784
559249 180 18412267272288081191
7495541 125 17967818214883621128
77779 3 18410574010989995608
9709674 26 18412819205497790842

> <PUBCHEM_SHAPE_MULTIPOLES>
384.91
15.2
1.93
0.59
1.23
0.28
0
4.45
0.08
0.03
0
-0.05
0.01
0.01

> <PUBCHEM_SHAPE_SELFOVERLAP>
849.966

> <PUBCHEM_SHAPE_VOLUME>
206.8

> <PUBCHEM_COORDINATE_TYPE>
2
5
10

$$$$

