3654
  -OEChem-06251223343D

 37 38  0     0  0  0  0  0  0999 V2000
   -1.8706   -2.0910   -0.9606 O   0  0  0  0  0  0  0  0  0  0  0  0
   -6.7233    1.2486    0.6232 N   0  0  0  0  0  0  0  0  0  0  0  0
    6.8068    0.8370   -1.1062 N   0  0  0  0  0  0  0  0  0  0  0  0
   -6.6862   -0.9880   -0.0529 N   0  0  0  0  0  0  0  0  0  0  0  0
    6.9778   -0.6084    0.7220 N   0  0  0  0  0  0  0  0  0  0  0  0
   -1.8187    0.2108   -0.2744 C   0  0  0  0  0  0  0  0  0  0  0  0
    1.9904   -0.0198    0.3695 C   0  0  0  0  0  0  0  0  0  0  0  0
   -2.5096   -0.9601   -0.5454 C   0  0  0  0  0  0  0  0  0  0  0  0
   -0.3545    0.2668   -0.4301 C   0  0  0  0  0  0  0  0  0  0  0  0
   -4.5736    0.1538    0.0347 C   0  0  0  0  0  0  0  0  0  0  0  0
   -2.4798    1.3540    0.1487 C   0  0  0  0  0  0  0  0  0  0  0  0
    0.5451   -0.0564    0.5289 C   0  0  0  0  0  0  0  0  0  0  0  0
   -3.8956   -0.9889   -0.3901 C   0  0  0  0  0  0  0  0  0  0  0  0
   -3.8656    1.3252    0.3041 C   0  0  0  0  0  0  0  0  0  0  0  0
    2.5605    0.7424   -0.6501 C   0  0  0  0  0  0  0  0  0  0  0  0
    2.8063   -0.7475    1.2358 C   0  0  0  0  0  0  0  0  0  0  0  0
    4.7625    0.0491    0.0627 C   0  0  0  0  0  0  0  0  0  0  0  0
    3.9464    0.7768   -0.8036 C   0  0  0  0  0  0  0  0  0  0  0  0
    4.1923   -0.7132    1.0825 C   0  0  0  0  0  0  0  0  0  0  0  0
   -6.0182    0.1238    0.1987 C   0  0  0  0  0  0  0  0  0  0  0  0
    6.2074    0.0851   -0.0973 C   0  0  0  0  0  0  0  0  0  0  0  0
   -0.0458    0.5756   -1.4249 H   0  0  0  0  0  0  0  0  0  0  0  0
   -1.9401    2.2732    0.3615 H   0  0  0  0  0  0  0  0  0  0  0  0
    0.1778   -0.3878    1.4982 H   0  0  0  0  0  0  0  0  0  0  0  0
   -4.4228   -1.9147   -0.6063 H   0  0  0  0  0  0  0  0  0  0  0  0
   -4.3424    2.2405    0.6366 H   0  0  0  0  0  0  0  0  0  0  0  0
    1.9671    1.3416   -1.3344 H   0  0  0  0  0  0  0  0  0  0  0  0
    2.3794   -1.3484    2.0353 H   0  0  0  0  0  0  0  0  0  0  0  0
    4.3379    1.3885   -1.6089 H   0  0  0  0  0  0  0  0  0  0  0  0
    4.7985   -1.2918    1.7741 H   0  0  0  0  0  0  0  0  0  0  0  0
   -0.9195   -1.9312   -1.0682 H   0  0  0  0  0  0  0  0  0  0  0  0
   -7.7312    1.2072    0.7338 H   0  0  0  0  0  0  0  0  0  0  0  0
   -6.2909    2.1381    0.8389 H   0  0  0  0  0  0  0  0  0  0  0  0
    7.8170    0.8483   -1.2025 H   0  0  0  0  0  0  0  0  0  0  0  0
    6.2923    1.3955   -1.7757 H   0  0  0  0  0  0  0  0  0  0  0  0
   -7.6820   -0.8118    0.1206 H   0  0  0  0  0  0  0  0  0  0  0  0
    7.9556   -0.4572    0.4501 H   0  0  0  0  0  0  0  0  0  0  0  0
  1  8  1  0  0  0  0
  1 31  1  0  0  0  0
  2 20  1  0  0  0  0
  2 32  1  0  0  0  0
  2 33  1  0  0  0  0
  3 21  1  0  0  0  0
  3 34  1  0  0  0  0
  3 35  1  0  0  0  0
  4 20  2  0  0  0  0
  4 36  1  0  0  0  0
  5 21  2  0  0  0  0
  5 37  1  0  0  0  0
  6  8  2  0  0  0  0
  6  9  1  0  0  0  0
  6 11  1  0  0  0  0
  7 12  1  0  0  0  0
  7 15  2  0  0  0  0
  7 16  1  0  0  0  0
  8 13  1  0  0  0  0
  9 12  2  0  0  0  0
  9 22  1  0  0  0  0
 10 13  2  0  0  0  0
 10 14  1  0  0  0  0
 10 20  1  0  0  0  0
 11 14  2  0  0  0  0
 11 23  1  0  0  0  0
 12 24  1  0  0  0  0
 13 25  1  0  0  0  0
 14 26  1  0  0  0  0
 15 18  1  0  0  0  0
 15 27  1  0  0  0  0
 16 19  2  0  0  0  0
 16 28  1  0  0  0  0
 17 18  2  0  0  0  0
 17 19  1  0  0  0  0
 17 21  1  0  0  0  0
 18 29  1  0  0  0  0
 19 30  1  0  0  0  0
M  END
> <PUBCHEM_COMPOUND_CID>
3654

> <PUBCHEM_CONFORMER_RMSD>
0.6

> <PUBCHEM_CONFORMER_DIVERSEORDER>
1
2
3

> <PUBCHEM_MMFF94_PARTIAL_CHARGES>
37
1 -0.53
10 0.09
11 -0.15
12 -0.18
13 -0.15
14 -0.15
15 -0.15
16 -0.15
17 0.09
18 -0.15
19 -0.15
2 -0.85
20 0.41
21 0.41
22 0.15
23 0.15
24 0.15
25 0.15
26 0.15
27 0.15
28 0.15
29 0.15
3 -0.85
30 0.15
31 0.45
32 0.4
33 0.4
34 0.4
35 0.4
36 0.4
37 0.4
4 -0.85
5 -0.85
6 0.03
7 0.03
8 0.08
9 -0.18

> <PUBCHEM_EFFECTIVE_ROTOR_COUNT>
4

> <PUBCHEM_PHARMACOPHORE_FEATURES>
9
1 1 donor
1 2 donor
1 3 donor
1 4 donor
1 5 donor
3 2 4 20 cation
3 3 5 21 cation
6 6 8 10 11 13 14 rings
6 7 15 16 17 18 19 rings

> <PUBCHEM_HEAVY_ATOM_COUNT>
21

> <PUBCHEM_ATOM_DEF_STEREO_COUNT>
0

> <PUBCHEM_ATOM_UDEF_STEREO_COUNT>
0

> <PUBCHEM_BOND_DEF_STEREO_COUNT>
0

> <PUBCHEM_BOND_UDEF_STEREO_COUNT>
1

> <PUBCHEM_ISOTOPIC_ATOM_COUNT>
0

> <PUBCHEM_COMPONENT_COUNT>
1

> <PUBCHEM_CACTVS_TAUTO_COUNT>
5

> <PUBCHEM_CONFORMER_ID>
00000E4600000001

> <PUBCHEM_MMFF94_ENERGY>
76.2275

> <PUBCHEM_FEATURE_SELFOVERLAP>
45.755

> <PUBCHEM_SHAPE_FINGERPRINT>
10299344 5 18343301470118333178
10354089 29 17989487429210056832
10968037 39 18201719548722707065
11315181 36 18260545611121004457
11524674 6 16515405149240192431
11796584 16 17676206849852806230
12091667 2 17203610394035676925
12166972 35 18202281390433012004
12236239 1 18272651255163856741
12390115 104 17677040382634975873
12516196 113 13542462063933380607
13073987 5 16878215476122976466
13533116 47 17989213684895002306
13914758 101 5545208202890787531
14170010 4 16988842757648997852
14251764 18 18412544301482932751
14251764 46 17240203235343761161
14386348 63 16660360368446799062
15183329 4 18187075179190870614
15537594 2 18272657843833956850
19489759 90 17022902354895861339
20281389 69 18412829092607412728
20645477 70 16199882768757609610
20681677 155 18335986389415663866
21033648 29 15719686449266150178
21065198 48 18201724010676997121
21267235 1 18341890792330913713
21641784 216 16199860795952785206
220451 1 18341897389400914354
22224240 67 16056597630066195248
2297311 6 17894908533715140329
23035841 295 18411420617932286682
23402539 116 18260554411118486900
23536379 177 18408322207493071504
23559900 14 17676496011992301280
34797466 226 17748820788289883932
3545911 37 18040715878770458910
4073 2 17417804003368776658
4325135 7 17988925573961625590
5385378 56 17750221660323958151
542803 24 18342459240238041320
54446538 1 18343582945021418180
5758199 1 18060699464773696792

> <PUBCHEM_SHAPE_MULTIPOLES>
406.38
18.77
1.29
0.97
3.69
0.13
-0.03
-1.01
-0.84
-0.97
0.13
0.64
0.1
-1.57

> <PUBCHEM_SHAPE_SELFOVERLAP>
876.346

> <PUBCHEM_SHAPE_VOLUME>
223.6

> <PUBCHEM_COORDINATE_TYPE>
2
5
10

$$$$

