854088
  -OEChem-06241222473D

 43 45  0     1  0  0  0  0  0999 V2000
   -0.6844   -1.0645    1.9387 O   0  0  0  0  0  0  0  0  0  0  0  0
   -2.7560    0.5886   -0.3303 N   0  3  0  0  0  0  0  0  0  0  0  0
   -1.1704   -1.4777   -0.3913 C   0  0  0  0  0  0  0  0  0  0  0  0
   -0.6388   -0.4384    0.6430 C   0  0  1  0  0  0  0  0  0  0  0  0
   -2.1070    0.4425   -1.7211 C   0  0  0  0  0  0  0  0  0  0  0  0
   -3.5398   -0.6888    0.0162 C   0  0  0  0  0  0  0  0  0  0  0  0
   -1.2621   -0.8320   -1.7818 C   0  0  0  0  0  0  0  0  0  0  0  0
   -2.6034   -1.9017   -0.0078 C   0  0  0  0  0  0  0  0  0  0  0  0
   -1.6674    0.7002    0.6607 C   0  0  0  0  0  0  0  0  0  0  0  0
   -3.7004    1.7806   -0.3547 C   0  0  0  0  0  0  0  0  0  0  0  0
    0.8107   -0.0450    0.3313 C   0  0  0  0  0  0  0  0  0  0  0  0
   -1.6403    1.6658    1.5980 C   0  0  0  0  0  0  0  0  0  0  0  0
    1.8026   -1.0223    0.2964 C   0  0  0  0  0  0  0  0  0  0  0  0
    1.1291    1.2883    0.0841 C   0  0  0  0  0  0  0  0  0  0  0  0
    3.1207   -0.6640    0.0127 C   0  0  0  0  0  0  0  0  0  0  0  0
    2.4469    1.6464   -0.1996 C   0  0  0  0  0  0  0  0  0  0  0  0
    3.4427    0.6703   -0.2354 C   0  0  0  0  0  0  0  0  0  0  0  0
    4.1705   -1.7259   -0.0183 C   0  0  0  0  0  0  0  0  0  0  0  0
    4.8469    1.0778   -0.5407 C   0  0  0  0  0  0  0  0  0  0  0  0
   -0.5476   -2.3786   -0.4295 H   0  0  0  0  0  0  0  0  0  0  0  0
   -1.5026    1.3398   -1.9018 H   0  0  0  0  0  0  0  0  0  0  0  0
   -2.9142    0.4078   -2.4621 H   0  0  0  0  0  0  0  0  0  0  0  0
   -4.3385   -0.7935   -0.7275 H   0  0  0  0  0  0  0  0  0  0  0  0
   -3.9940   -0.5497    1.0049 H   0  0  0  0  0  0  0  0  0  0  0  0
   -1.7115   -1.5354   -2.4942 H   0  0  0  0  0  0  0  0  0  0  0  0
   -0.2688   -0.6004   -2.1826 H   0  0  0  0  0  0  0  0  0  0  0  0
   -2.6186   -2.4025    0.9673 H   0  0  0  0  0  0  0  0  0  0  0  0
   -2.9834   -2.6397   -0.7256 H   0  0  0  0  0  0  0  0  0  0  0  0
   -4.2259    1.8467    0.6032 H   0  0  0  0  0  0  0  0  0  0  0  0
   -3.1272    2.6880   -0.5697 H   0  0  0  0  0  0  0  0  0  0  0  0
   -4.4339    1.6147   -1.1507 H   0  0  0  0  0  0  0  0  0  0  0  0
   -2.3706    2.4608    1.6757 H   0  0  0  0  0  0  0  0  0  0  0  0
   -0.8554    1.6821    2.3490 H   0  0  0  0  0  0  0  0  0  0  0  0
   -0.3046   -1.9563    1.8641 H   0  0  0  0  0  0  0  0  0  0  0  0
    1.5585   -2.0620    0.4965 H   0  0  0  0  0  0  0  0  0  0  0  0
    0.3964    2.0858    0.0650 H   0  0  0  0  0  0  0  0  0  0  0  0
    2.6801    2.6894   -0.3976 H   0  0  0  0  0  0  0  0  0  0  0  0
    4.9379   -1.5316    0.7380 H   0  0  0  0  0  0  0  0  0  0  0  0
    3.7531   -2.7167    0.1926 H   0  0  0  0  0  0  0  0  0  0  0  0
    4.6381   -1.7772   -1.0070 H   0  0  0  0  0  0  0  0  0  0  0  0
    4.9288    2.1576   -0.7077 H   0  0  0  0  0  0  0  0  0  0  0  0
    5.5108    0.8292    0.2936 H   0  0  0  0  0  0  0  0  0  0  0  0
    5.2030    0.5828   -1.4500 H   0  0  0  0  0  0  0  0  0  0  0  0
  1  4  1  0  0  0  0
  1 34  1  0  0  0  0
  2  5  1  0  0  0  0
  2  6  1  0  0  0  0
  2  9  1  0  0  0  0
  2 10  1  0  0  0  0
  3  4  1  0  0  0  0
  3  7  1  0  0  0  0
  3  8  1  0  0  0  0
  3 20  1  0  0  0  0
  4  9  1  0  0  0  0
  4 11  1  0  0  0  0
  5  7  1  0  0  0  0
  5 21  1  0  0  0  0
  5 22  1  0  0  0  0
  6  8  1  0  0  0  0
  6 23  1  0  0  0  0
  6 24  1  0  0  0  0
  7 25  1  0  0  0  0
  7 26  1  0  0  0  0
  8 27  1  0  0  0  0
  8 28  1  0  0  0  0
  9 12  2  0  0  0  0
 10 29  1  0  0  0  0
 10 30  1  0  0  0  0
 10 31  1  0  0  0  0
 11 13  2  0  0  0  0
 11 14  1  0  0  0  0
 12 32  1  0  0  0  0
 12 33  1  0  0  0  0
 13 15  1  0  0  0  0
 13 35  1  0  0  0  0
 14 16  2  0  0  0  0
 14 36  1  0  0  0  0
 15 17  2  0  0  0  0
 15 18  1  0  0  0  0
 16 17  1  0  0  0  0
 16 37  1  0  0  0  0
 17 19  1  0  0  0  0
 18 38  1  0  0  0  0
 18 39  1  0  0  0  0
 18 40  1  0  0  0  0
 19 41  1  0  0  0  0
 19 42  1  0  0  0  0
 19 43  1  0  0  0  0
M  CHG  1   2   1
M  END
> <PUBCHEM_COMPOUND_CID>
854088

> <PUBCHEM_CONFORMER_RMSD>
0.6

> <PUBCHEM_CONFORMER_DIVERSEORDER>
1
4
5
2
3
6

> <PUBCHEM_MMFF94_PARTIAL_CHARGES>
22
1 -0.68
10 0.5
11 -0.14
12 -0.3
13 -0.15
14 -0.15
15 -0.14
16 -0.15
17 -0.14
18 0.14
19 0.14
2 -0.87
32 0.15
33 0.15
34 0.4
35 0.15
36 0.15
37 0.15
4 0.56
5 0.5
6 0.5
9 0.22

> <PUBCHEM_EFFECTIVE_ROTOR_COUNT>
2

> <PUBCHEM_PHARMACOPHORE_FEATURES>
5
1 1 acceptor
1 1 donor
1 2 cation
6 11 13 14 15 16 17 rings
8 2 3 4 5 6 7 8 9 rings

> <PUBCHEM_HEAVY_ATOM_COUNT>
19

> <PUBCHEM_ATOM_DEF_STEREO_COUNT>
1

> <PUBCHEM_ATOM_UDEF_STEREO_COUNT>
0

> <PUBCHEM_BOND_DEF_STEREO_COUNT>
0

> <PUBCHEM_BOND_UDEF_STEREO_COUNT>
0

> <PUBCHEM_ISOTOPIC_ATOM_COUNT>
0

> <PUBCHEM_COMPONENT_COUNT>
1

> <PUBCHEM_CACTVS_TAUTO_COUNT>
1

> <PUBCHEM_CONFORMER_ID>
000D084800000001

> <PUBCHEM_MMFF94_ENERGY>
76.4727

> <PUBCHEM_FEATURE_SELFOVERLAP>
25.371

> <PUBCHEM_SHAPE_FINGERPRINT>
10062212 137 18261683661078876931
10863032 1 18411984658875849461
10948715 1 18198625621807700189
11315181 36 18260543421246806976
11578080 2 11022968432359183255
12173636 292 18411144627707895535
12491281 212 18335693979246294544
12592029 89 18188765162638014759
12788726 201 17459180927634470825
13024252 1 16415202243785271219
13296908 3 18411138030796546470
13581323 91 17458062659783759510
15196674 1 18411981377541921284
15309172 13 15770060535890807451
15442244 35 18336824316307774586
15775835 57 18131353041822188181
16752209 62 17023467563437701243
16945 1 18198643175159573859
17349148 13 18270412607357644808
17492 89 18408884027544020710
18186145 218 17917719036547156694
19862831 5 18409733984327751912
19868273 293 18040159521533873285
19930381 70 17621880890240489941
200 152 18261956245436231678
20645476 183 18334299759995320567
20645477 70 18410853291977279750
21267235 1 18337380570017213418
23402539 116 17603874437451647157
23402655 69 18411419527074078900
23419403 2 15544040205912052267
23559900 14 18040441005854847304
25 1 18131074882586551794
2748010 2 17315940787699940731
2838139 119 17700147766017192517
296302 2 18343300345295655604
3082319 5 18334858312044421288
34934 24 18409732872258640256
4175511 318 18187085048667098853
465052 167 17461718394903940679
474 4 17917146105195410036
5104073 3 18411982468447778112
633830 44 17988928906819362974
74978 22 18410012130757555696
81228 2 14201656659575048747
90525 40 17967246498859659670
9709674 26 18270956848048785890
9981440 41 17833001446816345400

> <PUBCHEM_SHAPE_MULTIPOLES>
380.16
7.43
1.98
1.32
6.07
0.02
-0.03
0.71
-1.3
-0.2
0.13
-0.85
0.02
-0.4

> <PUBCHEM_SHAPE_SELFOVERLAP>
816.599

> <PUBCHEM_SHAPE_VOLUME>
209

> <PUBCHEM_COORDINATE_TYPE>
2
5
10

$$$$

