14175
  -OEChem-06241222422D

 49 49  0     1  0  0  0  0  0999 V2000
    3.4826    0.0000    0.0000 Br  0  5  0  0  0  0  0  0  0  0  0  0
    3.4641    5.6200    0.0000 O   0  0  0  0  0  0  0  0  0  0  0  0
    4.3301    7.1200    0.0000 O   0  0  0  0  0  0  0  0  0  0  0  0
    1.7320    4.6200    0.0000 O   0  0  0  0  0  0  0  0  0  0  0  0
    0.0000    4.6200    0.0000 O   0  0  0  0  0  0  0  0  0  0  0  0
    1.7320    8.6200    0.0000 N   0  3  0  0  0  0  0  0  0  0  0  0
    2.5981    7.1200    0.0000 C   0  0  3  0  0  0  0  0  0  0  0  0
    1.7320    7.6200    0.0000 C   0  0  0  0  0  0  0  0  0  0  0  0
    2.5981    6.1200    0.0000 C   0  0  3  0  0  0  0  0  0  0  0  0
    3.4641    7.6200    0.0000 C   0  0  0  0  0  0  0  0  0  0  0  0
    1.7320    9.6200    0.0000 C   0  0  0  0  0  0  0  0  0  0  0  0
    0.7321    8.6200    0.0000 C   0  0  0  0  0  0  0  0  0  0  0  0
    2.7320    8.6200    0.0000 C   0  0  0  0  0  0  0  0  0  0  0  0
    1.7320    5.6200    0.0000 C   0  0  0  0  0  0  0  0  0  0  0  0
    4.3301    6.1200    0.0000 C   0  0  3  0  0  0  0  0  0  0  0  0
    5.1962    5.6200    0.0000 C   0  0  0  0  0  0  0  0  0  0  0  0
    5.1962    4.6200    0.0000 C   0  0  0  0  0  0  0  0  0  0  0  0
    6.0622    6.1200    0.0000 C   0  0  0  0  0  0  0  0  0  0  0  0
    0.8660    4.1200    0.0000 C   0  0  0  0  0  0  0  0  0  0  0  0
    6.0622    4.1200    0.0000 C   0  0  0  0  0  0  0  0  0  0  0  0
    6.9282    5.6200    0.0000 C   0  0  0  0  0  0  0  0  0  0  0  0
    6.9282    4.6200    0.0000 C   0  0  0  0  0  0  0  0  0  0  0  0
    0.8660    3.1200    0.0000 C   0  0  0  0  0  0  0  0  0  0  0  0
    2.5981    7.9700    0.0000 H   0  0  0  0  0  0  0  0  0  0  0  0
    1.1215    7.7277    0.0000 H   0  0  0  0  0  0  0  0  0  0  0  0
    1.5200    7.0374    0.0000 H   0  0  0  0  0  0  0  0  0  0  0  0
    2.5981    5.2700    0.0000 H   0  0  0  0  0  0  0  0  0  0  0  0
    3.8626    8.0950    0.0000 H   0  0  0  0  0  0  0  0  0  0  0  0
    3.0656    8.0950    0.0000 H   0  0  0  0  0  0  0  0  0  0  0  0
    2.3521    9.6200    0.0000 H   0  0  0  0  0  0  0  0  0  0  0  0
    1.7320   10.2400    0.0000 H   0  0  0  0  0  0  0  0  0  0  0  0
    1.1120    9.6200    0.0000 H   0  0  0  0  0  0  0  0  0  0  0  0
    0.7321    9.2400    0.0000 H   0  0  0  0  0  0  0  0  0  0  0  0
    0.1121    8.6200    0.0000 H   0  0  0  0  0  0  0  0  0  0  0  0
    0.7321    8.0000    0.0000 H   0  0  0  0  0  0  0  0  0  0  0  0
    2.7320    8.0000    0.0000 H   0  0  0  0  0  0  0  0  0  0  0  0
    3.3520    8.6200    0.0000 H   0  0  0  0  0  0  0  0  0  0  0  0
    2.7320    9.2400    0.0000 H   0  0  0  0  0  0  0  0  0  0  0  0
    1.5200    6.2026    0.0000 H   0  0  0  0  0  0  0  0  0  0  0  0
    1.1215    5.5123    0.0000 H   0  0  0  0  0  0  0  0  0  0  0  0
    4.3301    5.2700    0.0000 H   0  0  0  0  0  0  0  0  0  0  0  0
    4.6592    4.3100    0.0000 H   0  0  0  0  0  0  0  0  0  0  0  0
    6.0622    6.7400    0.0000 H   0  0  0  0  0  0  0  0  0  0  0  0
    6.0622    3.5000    0.0000 H   0  0  0  0  0  0  0  0  0  0  0  0
    7.4651    5.9300    0.0000 H   0  0  0  0  0  0  0  0  0  0  0  0
    7.4651    4.3100    0.0000 H   0  0  0  0  0  0  0  0  0  0  0  0
    0.2460    3.1200    0.0000 H   0  0  0  0  0  0  0  0  0  0  0  0
    0.8660    2.5000    0.0000 H   0  0  0  0  0  0  0  0  0  0  0  0
    1.4860    3.1200    0.0000 H   0  0  0  0  0  0  0  0  0  0  0  0
  2  9  1  0  0  0  0
  2 15  1  0  0  0  0
  3 10  1  0  0  0  0
  3 15  1  0  0  0  0
  4 14  1  0  0  0  0
  4 19  1  0  0  0  0
  5 19  2  0  0  0  0
  6  8  1  0  0  0  0
  6 11  1  0  0  0  0
  6 12  1  0  0  0  0
  6 13  1  0  0  0  0
  7  8  1  0  0  0  0
  7  9  1  0  0  0  0
  7 10  1  0  0  0  0
  7 24  1  0  0  0  0
  8 25  1  0  0  0  0
  8 26  1  0  0  0  0
  9 14  1  0  0  0  0
  9 27  1  0  0  0  0
 10 28  1  0  0  0  0
 10 29  1  0  0  0  0
 11 30  1  0  0  0  0
 11 31  1  0  0  0  0
 11 32  1  0  0  0  0
 12 33  1  0  0  0  0
 12 34  1  0  0  0  0
 12 35  1  0  0  0  0
 13 36  1  0  0  0  0
 13 37  1  0  0  0  0
 13 38  1  0  0  0  0
 14 39  1  0  0  0  0
 14 40  1  0  0  0  0
 15 16  1  0  0  0  0
 15 41  1  0  0  0  0
 16 17  2  0  0  0  0
 16 18  1  0  0  0  0
 17 20  1  0  0  0  0
 17 42  1  0  0  0  0
 18 21  2  0  0  0  0
 18 43  1  0  0  0  0
 19 23  1  0  0  0  0
 20 22  2  0  0  0  0
 20 44  1  0  0  0  0
 21 22  1  0  0  0  0
 21 45  1  0  0  0  0
 22 46  1  0  0  0  0
 23 47  1  0  0  0  0
 23 48  1  0  0  0  0
 23 49  1  0  0  0  0
M  CHG  2   1  -1   6   1
M  END
> <PUBCHEM_COMPOUND_CID>
14175

> <PUBCHEM_COMPOUND_CANONICALIZED>
1

> <PUBCHEM_CACTVS_COMPLEXITY>
360

> <PUBCHEM_CACTVS_HBOND_ACCEPTOR>
5

> <PUBCHEM_CACTVS_HBOND_DONOR>
0

> <PUBCHEM_CACTVS_ROTATABLE_BOND>
6

> <PUBCHEM_CACTVS_SUBSKEYS>
AAADceB6OAAAEAAAAAAAAAAAAAAAAAAAAAA0QAAAAAAAAAABAAAAHgAAAAAADRTxmAcyCIMABACIAiDSCAACAAAgAAAIiAAICIgZJiKAsRimMAAnwAEOqAfgwCAOAAAAAAAAAAAAAAAAAAAAAAAAAAAAAA==

> <PUBCHEM_IUPAC_OPENEYE_NAME>
[4-(acetoxymethyl)-2-phenyl-1,3-dioxan-5-yl]methyl-trimethyl-ammonium bromide

> <PUBCHEM_IUPAC_CAS_NAME>
[4-(acetyloxymethyl)-2-phenyl-1,3-dioxan-5-yl]methyl-trimethylammonium bromide

> <PUBCHEM_IUPAC_NAME>
[4-(acetyloxymethyl)-2-phenyl-1,3-dioxan-5-yl]methyl-trimethylazanium bromide

> <PUBCHEM_IUPAC_SYSTEMATIC_NAME>
[4-(acetyloxymethyl)-2-phenyl-1,3-dioxan-5-yl]methyl-trimethyl-azanium bromide

> <PUBCHEM_IUPAC_TRADITIONAL_NAME>
[4-(acetoxymethyl)-2-phenyl-1,3-dioxan-5-yl]methyl-trimethyl-ammonium bromide

> <PUBCHEM_IUPAC_INCHI>
InChI=1S/C17H26NO4.BrH/c1-13(19)20-12-16-15(10-18(2,3)4)11-21-17(22-16)14-8-6-5-7-9-14;/h5-9,15-17H,10-12H2,1-4H3;1H/q+1;/p-1

> <PUBCHEM_IUPAC_INCHIKEY>
CSBIQJCYLDCBES-UHFFFAOYSA-M

> <PUBCHEM_EXACT_MASS>
387.10452

> <PUBCHEM_MOLECULAR_FORMULA>
C17H26BrNO4

> <PUBCHEM_MOLECULAR_WEIGHT>
388.29664

> <PUBCHEM_OPENEYE_CAN_SMILES>
CC(=O)OCC1C(COC(O1)C2=CC=CC=C2)C[N+](C)(C)C.[Br-]

> <PUBCHEM_OPENEYE_ISO_SMILES>
CC(=O)OCC1C(COC(O1)C2=CC=CC=C2)C[N+](C)(C)C.[Br-]

> <PUBCHEM_CACTVS_TPSA>
44.8

> <PUBCHEM_MONOISOTOPIC_WEIGHT>
387.10452

> <PUBCHEM_TOTAL_CHARGE>
0

> <PUBCHEM_HEAVY_ATOM_COUNT>
23

> <PUBCHEM_ATOM_DEF_STEREO_COUNT>
0

> <PUBCHEM_ATOM_UDEF_STEREO_COUNT>
3

> <PUBCHEM_BOND_DEF_STEREO_COUNT>
0

> <PUBCHEM_BOND_UDEF_STEREO_COUNT>
0

> <PUBCHEM_ISOTOPIC_ATOM_COUNT>
0

> <PUBCHEM_COMPONENT_COUNT>
2

> <PUBCHEM_CACTVS_TAUTO_COUNT>
1

> <PUBCHEM_COORDINATE_TYPE>
1
5
255

> <PUBCHEM_BONDANNOTATIONS>
15  41  3
16  17  8
16  18  8
17  20  8
18  21  8
20  22  8
21  22  8
7  24  3
9  27  3

$$$$

