17395357
  -OEChem-06241222493D

 49 52  0     1  0  0  0  0  0999 V2000
    0.2496    0.8727   -1.4674 O   0  0  0  0  0  0  0  0  0  0  0  0
    6.3475   -0.0554    0.0763 O   0  0  0  0  0  0  0  0  0  0  0  0
   -0.4993    0.6102    0.7124 N   0  0  0  0  0  0  0  0  0  0  0  0
    2.7876    0.3127   -0.0782 N   0  0  2  0  0  0  0  0  0  0  0  0
    4.7283   -1.6503   -0.1730 N   0  0  0  0  0  0  0  0  0  0  0  0
   -1.8505    0.2095    0.3864 C   0  0  0  0  0  0  0  0  0  0  0  0
   -3.9917    0.9050   -0.7691 C   0  0  0  0  0  0  0  0  0  0  0  0
   -4.0940   -0.4790    1.3358 C   0  0  0  0  0  0  0  0  0  0  0  0
   -3.2702   -1.5105   -0.8116 C   0  0  0  0  0  0  0  0  0  0  0  0
   -2.5535    1.3239   -0.4185 C   0  0  0  0  0  0  0  0  0  0  0  0
   -2.6554   -0.0553    1.6781 C   0  0  0  0  0  0  0  0  0  0  0  0
   -1.8349   -1.0825   -0.4604 C   0  0  0  0  0  0  0  0  0  0  0  0
   -4.7725    0.6417    0.5297 C   0  0  0  0  0  0  0  0  0  0  0  0
   -3.9530   -0.3845   -1.6066 C   0  0  0  0  0  0  0  0  0  0  0  0
   -4.0551   -1.7611    0.4871 C   0  0  0  0  0  0  0  0  0  0  0  0
    0.4483    0.9118   -0.2549 C   0  0  0  0  0  0  0  0  0  0  0  0
    1.7901    1.2894    0.3599 C   0  0  2  0  0  0  0  0  0  0  0  0
    2.1963    2.6909   -0.0787 C   0  0  0  0  0  0  0  0  0  0  0  0
    2.3888   -1.0402    0.3176 C   0  0  0  0  0  0  0  0  0  0  0  0
    4.0984    0.6398    0.4926 C   0  0  0  0  0  0  0  0  0  0  0  0
    3.3401   -2.0215   -0.3430 C   0  0  0  0  0  0  0  0  0  0  0  0
    5.1550   -0.3673    0.0853 C   0  0  0  0  0  0  0  0  0  0  0  0
   -4.4814    1.7025   -1.3390 H   0  0  0  0  0  0  0  0  0  0  0  0
   -4.6552   -0.6630    2.2587 H   0  0  0  0  0  0  0  0  0  0  0  0
   -3.2473   -2.4268   -1.4120 H   0  0  0  0  0  0  0  0  0  0  0  0
   -2.5696    2.2558    0.1623 H   0  0  0  0  0  0  0  0  0  0  0  0
   -2.0280    1.5567   -1.3507 H   0  0  0  0  0  0  0  0  0  0  0  0
   -2.1691   -0.8380    2.2754 H   0  0  0  0  0  0  0  0  0  0  0  0
   -2.6726    0.8449    2.3066 H   0  0  0  0  0  0  0  0  0  0  0  0
   -1.2756   -0.9589   -1.3938 H   0  0  0  0  0  0  0  0  0  0  0  0
   -1.3318   -1.8882    0.0907 H   0  0  0  0  0  0  0  0  0  0  0  0
   -4.8209    1.5585    1.1302 H   0  0  0  0  0  0  0  0  0  0  0  0
   -5.8063    0.3603    0.2944 H   0  0  0  0  0  0  0  0  0  0  0  0
   -4.9723   -0.6842   -1.8797 H   0  0  0  0  0  0  0  0  0  0  0  0
   -3.4116   -0.2063   -2.5438 H   0  0  0  0  0  0  0  0  0  0  0  0
   -3.5871   -2.5734    1.0568 H   0  0  0  0  0  0  0  0  0  0  0  0
   -5.0761   -2.0850    0.2509 H   0  0  0  0  0  0  0  0  0  0  0  0
   -0.2442    0.6629    1.6941 H   0  0  0  0  0  0  0  0  0  0  0  0
    1.7088    1.2897    1.4553 H   0  0  0  0  0  0  0  0  0  0  0  0
    1.3456    3.3772    0.0111 H   0  0  0  0  0  0  0  0  0  0  0  0
    2.9988    3.1060    0.5393 H   0  0  0  0  0  0  0  0  0  0  0  0
    2.5105    2.7171   -1.1288 H   0  0  0  0  0  0  0  0  0  0  0  0
    2.4159   -1.1551    1.4094 H   0  0  0  0  0  0  0  0  0  0  0  0
    1.3831   -1.3157   -0.0142 H   0  0  0  0  0  0  0  0  0  0  0  0
    4.0739    0.6763    1.5889 H   0  0  0  0  0  0  0  0  0  0  0  0
    4.4654    1.5996    0.1145 H   0  0  0  0  0  0  0  0  0  0  0  0
    3.1575   -2.0720   -1.4226 H   0  0  0  0  0  0  0  0  0  0  0  0
    3.2112   -3.0277    0.0682 H   0  0  0  0  0  0  0  0  0  0  0  0
    5.4329   -2.3441   -0.4037 H   0  0  0  0  0  0  0  0  0  0  0  0
  1 16  2  0  0  0  0
  2 22  2  0  0  0  0
  3  6  1  0  0  0  0
  3 16  1  0  0  0  0
  3 38  1  0  0  0  0
  4 17  1  0  0  0  0
  4 19  1  0  0  0  0
  4 20  1  0  0  0  0
  5 21  1  0  0  0  0
  5 22  1  0  0  0  0
  5 49  1  0  0  0  0
  6 10  1  0  0  0  0
  6 11  1  0  0  0  0
  6 12  1  0  0  0  0
  7 10  1  0  0  0  0
  7 13  1  0  0  0  0
  7 14  1  0  0  0  0
  7 23  1  0  0  0  0
  8 11  1  0  0  0  0
  8 13  1  0  0  0  0
  8 15  1  0  0  0  0
  8 24  1  0  0  0  0
  9 12  1  0  0  0  0
  9 14  1  0  0  0  0
  9 15  1  0  0  0  0
  9 25  1  0  0  0  0
 10 26  1  0  0  0  0
 10 27  1  0  0  0  0
 11 28  1  0  0  0  0
 11 29  1  0  0  0  0
 12 30  1  0  0  0  0
 12 31  1  0  0  0  0
 13 32  1  0  0  0  0
 13 33  1  0  0  0  0
 14 34  1  0  0  0  0
 14 35  1  0  0  0  0
 15 36  1  0  0  0  0
 15 37  1  0  0  0  0
 16 17  1  0  0  0  0
 17 18  1  0  0  0  0
 17 39  1  0  0  0  0
 18 40  1  0  0  0  0
 18 41  1  0  0  0  0
 18 42  1  0  0  0  0
 19 21  1  0  0  0  0
 19 43  1  0  0  0  0
 19 44  1  0  0  0  0
 20 22  1  0  0  0  0
 20 45  1  0  0  0  0
 20 46  1  0  0  0  0
 21 47  1  0  0  0  0
 21 48  1  0  0  0  0
M  END
> <PUBCHEM_COMPOUND_CID>
17395357

> <PUBCHEM_CONFORMER_RMSD>
0.8

> <PUBCHEM_CONFORMER_DIVERSEORDER>
2
51
26
62
23
17
63
49
54
15
41
46
64
33
55
47
16
53
73
36
52
18
56
24
72
67
70
7
61
35
59
40
14
57
60
9
45
71
50
58
34
11
68
31
69
37
19
48
13
43
42
66
22
44
32
12
10
20
74
30
25
21
8
65
3
28
1
39
29
4
6
27
38
5

> <PUBCHEM_MMFF94_PARTIAL_CHARGES>
14
1 -0.57
16 0.57
17 0.33
19 0.27
2 -0.57
20 0.33
21 0.3
22 0.57
3 -0.73
38 0.37
4 -0.81
49 0.37
5 -0.73
6 0.3

> <PUBCHEM_EFFECTIVE_ROTOR_COUNT>
6.2

> <PUBCHEM_PHARMACOPHORE_FEATURES>
10
1 1 acceptor
1 2 acceptor
1 3 donor
1 4 cation
1 5 donor
6 4 5 19 20 21 22 rings
6 6 7 8 10 11 13 rings
6 6 7 9 10 12 14 rings
6 6 8 9 11 12 15 rings
6 7 8 9 13 14 15 rings

> <PUBCHEM_HEAVY_ATOM_COUNT>
22

> <PUBCHEM_ATOM_DEF_STEREO_COUNT>
0

> <PUBCHEM_ATOM_UDEF_STEREO_COUNT>
1

> <PUBCHEM_BOND_DEF_STEREO_COUNT>
0

> <PUBCHEM_BOND_UDEF_STEREO_COUNT>
0

> <PUBCHEM_ISOTOPIC_ATOM_COUNT>
0

> <PUBCHEM_COMPONENT_COUNT>
1

> <PUBCHEM_CACTVS_TAUTO_COUNT>
4

> <PUBCHEM_CONFORMER_ID>
01096E9D00000002

> <PUBCHEM_MMFF94_ENERGY>
56.0187

> <PUBCHEM_FEATURE_SELFOVERLAP>
63.277

> <PUBCHEM_SHAPE_FINGERPRINT>
10670039 82 8357981130265022618
11315181 36 17167867447731661616
11405975 8 18335416851072120457
12107183 9 17319561784512279762
12236239 1 17385726889768299304
12507557 5 18334012782964887513
12516196 113 18261115179613708480
12596602 18 16877949308837106802
12633257 1 18113612378758330005
12916754 54 18267585715517395571
13167823 11 18333732394546317799
13224815 77 17917997144105925057
13288520 33 18335703819527871015
13533116 47 18189619337386300371
13544653 18 18411979191530239604
13583140 156 17750530489382744689
13631057 29 17465108141268670575
14341114 176 18259978293080042480
14386348 63 17988921184710823042
15196674 1 18409168813892485102
15537594 2 18409722985165030974
15788980 27 18272369767523705804
17349148 13 17095246903998833797
17492 89 18267585702342947439
17844677 252 18410851053756129332
1813 80 17560796645617065116
18186145 218 17417818309656964609
19141452 34 18409165515515577991
200 152 18113904853193758385
20325693 3 15985106314808111483
20645477 70 18343023246658614912
21033650 10 15983407698128939350
21250096 35 18261395572163500600
21267235 1 18411413978134535939
221490 88 18341328877686066066
22646028 1 18040437676437508441
23402539 116 16200154309300734726
23557571 272 15626223524320075846
23559900 14 18337682931393692936
26918003 58 18333167271413311025
2838139 119 8644286162878057427
3004659 81 17917148429263542058
3633792 109 18261971682266040821
4214541 1 18410293622814227097
4921388 177 16486965181475949555
5104073 3 18334859372532085673
5161694 15 17917997178544719805
5281201 14 17632293437000720132
633830 44 17632301142351416321
9709674 26 18199748055227561747

> <PUBCHEM_SHAPE_MULTIPOLES>
426.07
12.11
1.97
1.18
10.57
0.15
0.01
-3.03
0.52
0.93
-0.21
-1.44
-0.03
0.21

> <PUBCHEM_SHAPE_SELFOVERLAP>
913.131

> <PUBCHEM_SHAPE_VOLUME>
228.2

> <PUBCHEM_COORDINATE_TYPE>
2
5
10

$$$$

