854173
  -OEChem-06241222473D

 29 31  0     0  0  0  0  0  0999 V2000
    1.7959   -2.6263    0.8183 Cl  0  0  0  0  0  0  0  0  0  0  0  0
    5.4254    1.2968    1.4560 Cl  0  0  0  0  0  0  0  0  0  0  0  0
   -0.3545    1.8647   -1.0554 O   0  0  0  0  0  0  0  0  0  0  0  0
   -1.5480   -2.5599   -0.3732 O   0  0  0  0  0  0  0  0  0  0  0  0
   -0.5786   -0.4755   -0.8855 N   0  0  0  0  0  0  0  0  0  0  0  0
    0.6719   -0.9055   -1.4787 C   0  0  0  0  0  0  0  0  0  0  0  0
   -2.2550    0.8264   -0.0958 C   0  0  0  0  0  0  0  0  0  0  0  0
   -2.6134   -0.4978    0.1090 C   0  0  0  0  0  0  0  0  0  0  0  0
   -0.9428    0.8466   -0.7414 C   0  0  0  0  0  0  0  0  0  0  0  0
   -1.5355   -1.3433   -0.4028 C   0  0  0  0  0  0  0  0  0  0  0  0
    1.8605   -0.3816   -0.7258 C   0  0  0  0  0  0  0  0  0  0  0  0
   -3.0733    1.8710    0.2823 C   0  0  0  0  0  0  0  0  0  0  0  0
   -3.8088   -0.8473    0.7026 C   0  0  0  0  0  0  0  0  0  0  0  0
    2.4271   -1.0976    0.3242 C   0  0  0  0  0  0  0  0  0  0  0  0
    2.3872    0.8489   -1.1067 C   0  0  0  0  0  0  0  0  0  0  0  0
   -4.2899    1.5407    0.8863 C   0  0  0  0  0  0  0  0  0  0  0  0
   -4.6539    0.1947    1.0946 C   0  0  0  0  0  0  0  0  0  0  0  0
    3.5312   -0.5781    1.0001 C   0  0  0  0  0  0  0  0  0  0  0  0
    3.4912    1.3683   -0.4308 C   0  0  0  0  0  0  0  0  0  0  0  0
    4.0633    0.6549    0.6226 C   0  0  0  0  0  0  0  0  0  0  0  0
    0.6909   -0.5094   -2.5027 H   0  0  0  0  0  0  0  0  0  0  0  0
    0.6929   -1.9950   -1.5859 H   0  0  0  0  0  0  0  0  0  0  0  0
   -2.7940    2.9056    0.1221 H   0  0  0  0  0  0  0  0  0  0  0  0
   -4.0891   -1.8818    0.8624 H   0  0  0  0  0  0  0  0  0  0  0  0
    1.9756    1.4082   -1.9419 H   0  0  0  0  0  0  0  0  0  0  0  0
   -4.9665    2.3312    1.2008 H   0  0  0  0  0  0  0  0  0  0  0  0
   -5.6061   -0.0335    1.5665 H   0  0  0  0  0  0  0  0  0  0  0  0
    3.9787   -1.1331    1.8219 H   0  0  0  0  0  0  0  0  0  0  0  0
    3.8990    2.3275   -0.7396 H   0  0  0  0  0  0  0  0  0  0  0  0
  1 14  1  0  0  0  0
  2 20  1  0  0  0  0
  3  9  2  0  0  0  0
  4 10  2  0  0  0  0
  5  6  1  0  0  0  0
  5  9  1  0  0  0  0
  5 10  1  0  0  0  0
  6 11  1  0  0  0  0
  6 21  1  0  0  0  0
  6 22  1  0  0  0  0
  7  8  1  0  0  0  0
  7  9  1  0  0  0  0
  7 12  2  0  0  0  0
  8 10  1  0  0  0  0
  8 13  2  0  0  0  0
 11 14  2  0  0  0  0
 11 15  1  0  0  0  0
 12 16  1  0  0  0  0
 12 23  1  0  0  0  0
 13 17  1  0  0  0  0
 13 24  1  0  0  0  0
 14 18  1  0  0  0  0
 15 19  2  0  0  0  0
 15 25  1  0  0  0  0
 16 17  2  0  0  0  0
 16 26  1  0  0  0  0
 17 27  1  0  0  0  0
 18 20  2  0  0  0  0
 18 28  1  0  0  0  0
 19 20  1  0  0  0  0
 19 29  1  0  0  0  0
M  END
> <PUBCHEM_COMPOUND_CID>
854173

> <PUBCHEM_CONFORMER_RMSD>
0.6

> <PUBCHEM_CONFORMER_DIVERSEORDER>
1
3
5
6
4
2

> <PUBCHEM_MMFF94_PARTIAL_CHARGES>
27
1 -0.18
10 0.54
11 -0.14
12 -0.15
13 -0.15
14 0.18
15 -0.15
16 -0.15
17 -0.15
18 -0.15
19 -0.15
2 -0.18
20 0.18
23 0.15
24 0.15
25 0.15
26 0.15
27 0.15
28 0.15
29 0.15
3 -0.57
4 -0.57
5 -0.42
6 0.44
7 0.09
8 0.09
9 0.54

> <PUBCHEM_EFFECTIVE_ROTOR_COUNT>
2.2

> <PUBCHEM_PHARMACOPHORE_FEATURES>
5
1 3 acceptor
1 4 acceptor
5 5 7 8 9 10 rings
6 11 14 15 18 19 20 rings
6 7 8 12 13 16 17 rings

> <PUBCHEM_HEAVY_ATOM_COUNT>
20

> <PUBCHEM_ATOM_DEF_STEREO_COUNT>
0

> <PUBCHEM_ATOM_UDEF_STEREO_COUNT>
0

> <PUBCHEM_BOND_DEF_STEREO_COUNT>
0

> <PUBCHEM_BOND_UDEF_STEREO_COUNT>
0

> <PUBCHEM_ISOTOPIC_ATOM_COUNT>
0

> <PUBCHEM_COMPONENT_COUNT>
1

> <PUBCHEM_CACTVS_TAUTO_COUNT>
1

> <PUBCHEM_CONFORMER_ID>
000D089D00000001

> <PUBCHEM_MMFF94_ENERGY>
50.4326

> <PUBCHEM_FEATURE_SELFOVERLAP>
25.464

> <PUBCHEM_SHAPE_FINGERPRINT>
10498660 4 16081374054739794592
11132069 177 18410287030213319381
12251169 10 18412262822227157132
12363563 72 14117515458622686694
12403814 3 18272938215230717901
12507560 40 18200035169438088772
12553582 1 18059853961152626724
12633257 1 17418375766484273824
12670546 177 8142085355491068353
12788726 201 17693081977552534574
12892183 10 18341889731795699811
13140716 1 18123745353487330637
13583140 156 17917721201147474573
13675066 3 17489016167443551637
13965767 371 17907561872431190921
14178342 30 18341048502047416438
14223421 5 18128822030447973734
14341114 176 18341330080677842170
14341114 328 18201997686325452888
14787075 74 17894633643529566129
15209294 21 18336270063552383856
15210252 30 15357695292995591466
1813 80 16487248902562300414
19050596 39 18272932683175488968
19784866 170 18342172280514273292
19784866 240 13183022946822156112
19862831 5 7132432415043469726
200 152 12967131618294557904
20510252 161 18187071893419712921
20715895 44 17978792642842765705
20739085 24 17704064080448159676
20871999 31 8862673425343106042
21065199 12 18342457096659035713
21731228 192 18409732846230471022
21756936 100 18118126858345385468
231179 274 16226048877634457208
23402655 69 6771876172844094202
23403322 49 12031795776870194360
23559900 14 18190438632003659975
26918003 58 16988568982736115801
3286 77 14117511039032728431
4072396 5 18201151153061977793
463206 1 12679458668663532169
465052 167 12750937945855778177
49207404 50 18341317990028711155
5104073 3 18411416258361218323
5262128 65 9727346991424065898
633830 44 17532366668158009157
7064713 232 18410857646530454648
7097593 13 18272094949820514386
76465 3 13614516333877572625
7808743 9 17895762773067511000
90316 7 18059856207368190757

> <PUBCHEM_SHAPE_MULTIPOLES>
398.61
9.56
2.28
1.3
1.71
0.84
0.01
-4.17
-5.28
0
-0.19
0.6
-0.11
-0.18

> <PUBCHEM_SHAPE_SELFOVERLAP>
868.823

> <PUBCHEM_SHAPE_VOLUME>
219.2

> <PUBCHEM_COORDINATE_TYPE>
2
5
10

$$$$

