9052
  -OEChem-06261203213D

 41 43  0     1  0  0  0  0  0999 V2000
    2.8112   -0.4602    1.6096 O   0  0  0  0  0  0  0  0  0  0  0  0
    0.9534   -1.7449    2.1718 O   0  0  0  0  0  0  0  0  0  0  0  0
    1.4351    0.2063   -2.1534 O   0  0  0  0  0  0  0  0  0  0  0  0
   -2.1972   -3.1961   -1.6296 O   0  0  0  0  0  0  0  0  0  0  0  0
   -4.9837    3.0077   -0.6204 O   0  5  0  0  0  0  0  0  0  0  0  0
   -4.6905    2.8191    1.5513 O   0  0  0  0  0  0  0  0  0  0  0  0
   -4.3988    2.5098    0.3712 N   0  3  0  0  0  0  0  0  0  0  0  0
   -0.2602   -1.3084   -0.5190 C   0  0  1  0  0  0  0  0  0  0  0  0
    1.0639   -0.7987   -0.0245 C   0  0  0  0  0  0  0  0  0  0  0  0
   -0.5793   -2.6847    0.0994 C   0  0  0  0  0  0  0  0  0  0  0  0
   -1.3651   -0.2889   -0.2813 C   0  0  0  0  0  0  0  0  0  0  0  0
    1.8387    0.0074   -1.0142 C   0  0  0  0  0  0  0  0  0  0  0  0
    1.5929   -0.9882    1.2042 C   0  0  0  0  0  0  0  0  0  0  0  0
    3.1227    0.5578   -0.5630 C   0  0  0  0  0  0  0  0  0  0  0  0
   -2.0102    0.2613   -1.3699 C   0  0  0  0  0  0  0  0  0  0  0  0
   -1.6880    0.0542    1.0155 C   0  0  0  0  0  0  0  0  0  0  0  0
   -1.8363   -3.3354   -0.4622 C   0  0  0  0  0  0  0  0  0  0  0  0
    3.5425    0.2937    0.7343 C   0  0  0  0  0  0  0  0  0  0  0  0
   -3.0227    1.1958   -1.1520 C   0  0  0  0  0  0  0  0  0  0  0  0
   -2.7005    0.9885    1.2334 C   0  0  0  0  0  0  0  0  0  0  0  0
   -3.3678    1.5593    0.1497 C   0  0  0  0  0  0  0  0  0  0  0  0
    3.9119    1.3338   -1.4164 C   0  0  0  0  0  0  0  0  0  0  0  0
   -2.6068   -4.2167    0.4866 C   0  0  0  0  0  0  0  0  0  0  0  0
    4.7581    0.8044    1.1921 C   0  0  0  0  0  0  0  0  0  0  0  0
    5.1271    1.8438   -0.9580 C   0  0  0  0  0  0  0  0  0  0  0  0
    5.5498    1.5795    0.3448 C   0  0  0  0  0  0  0  0  0  0  0  0
   -0.1824   -1.4942   -1.5994 H   0  0  0  0  0  0  0  0  0  0  0  0
    0.2443   -3.3931   -0.0505 H   0  0  0  0  0  0  0  0  0  0  0  0
   -0.7852   -2.6124    1.1703 H   0  0  0  0  0  0  0  0  0  0  0  0
   -1.7498   -0.0141   -2.3873 H   0  0  0  0  0  0  0  0  0  0  0  0
   -1.1957   -0.3778    1.8783 H   0  0  0  0  0  0  0  0  0  0  0  0
   -3.5205    1.6193   -2.0205 H   0  0  0  0  0  0  0  0  0  0  0  0
   -2.9440    1.2459    2.2612 H   0  0  0  0  0  0  0  0  0  0  0  0
    3.5993    1.5506   -2.4339 H   0  0  0  0  0  0  0  0  0  0  0  0
   -2.9839   -3.6185    1.3198 H   0  0  0  0  0  0  0  0  0  0  0  0
   -1.9571   -5.0141    0.8556 H   0  0  0  0  0  0  0  0  0  0  0  0
   -3.4558   -4.6665   -0.0358 H   0  0  0  0  0  0  0  0  0  0  0  0
    5.0945    0.6027    2.2055 H   0  0  0  0  0  0  0  0  0  0  0  0
    5.7448    2.4477   -1.6164 H   0  0  0  0  0  0  0  0  0  0  0  0
    6.4961    1.9776    0.6995 H   0  0  0  0  0  0  0  0  0  0  0  0
    1.5382   -1.7235    2.9492 H   0  0  0  0  0  0  0  0  0  0  0  0
  1 13  1  0  0  0  0
  1 18  1  0  0  0  0
  2 13  1  0  0  0  0
  2 41  1  0  0  0  0
  3 12  2  0  0  0  0
  4 17  2  0  0  0  0
  5  7  1  0  0  0  0
  6  7  2  0  0  0  0
  7 21  1  0  0  0  0
  8  9  1  0  0  0  0
  8 10  1  0  0  0  0
  8 11  1  0  0  0  0
  8 27  1  0  0  0  0
  9 12  1  0  0  0  0
  9 13  2  0  0  0  0
 10 17  1  0  0  0  0
 10 28  1  0  0  0  0
 10 29  1  0  0  0  0
 11 15  2  0  0  0  0
 11 16  1  0  0  0  0
 12 14  1  0  0  0  0
 14 18  1  0  0  0  0
 14 22  2  0  0  0  0
 15 19  1  0  0  0  0
 15 30  1  0  0  0  0
 16 20  2  0  0  0  0
 16 31  1  0  0  0  0
 17 23  1  0  0  0  0
 18 24  2  0  0  0  0
 19 21  2  0  0  0  0
 19 32  1  0  0  0  0
 20 21  1  0  0  0  0
 20 33  1  0  0  0  0
 22 25  1  0  0  0  0
 22 34  1  0  0  0  0
 23 35  1  0  0  0  0
 23 36  1  0  0  0  0
 23 37  1  0  0  0  0
 24 26  1  0  0  0  0
 24 38  1  0  0  0  0
 25 26  2  0  0  0  0
 25 39  1  0  0  0  0
 26 40  1  0  0  0  0
M  CHG  2   5  -1   7   1
M  END
> <PUBCHEM_COMPOUND_CID>
9052

> <PUBCHEM_CONFORMER_RMSD>
0.8

> <PUBCHEM_CONFORMER_DIVERSEORDER>
1
8
25
27
10
24
16
14
2
28
29
12
22
5
15
11
13
18
23
3
19
9
7
21
4
17
26
6
20

> <PUBCHEM_MMFF94_PARTIAL_CHARGES>
35
1 -0.16
10 0.06
11 -0.14
12 0.47
13 0.15
14 0.09
15 -0.15
16 -0.15
17 0.45
18 0.08
19 -0.15
2 -0.53
20 -0.15
21 0.13
22 -0.15
23 0.06
24 -0.15
25 -0.15
26 -0.15
3 -0.57
30 0.15
31 0.15
32 0.15
33 0.15
34 0.15
38 0.15
39 0.15
4 -0.57
40 0.15
41 0.45
5 -0.52
6 -0.52
7 0.91
8 0.28
9 -0.12

> <PUBCHEM_EFFECTIVE_ROTOR_COUNT>
5

> <PUBCHEM_PHARMACOPHORE_FEATURES>
10
1 1 acceptor
1 2 donor
1 3 acceptor
1 4 acceptor
1 5 acceptor
1 5 anion
1 6 acceptor
6 1 9 12 13 14 18 rings
6 11 15 16 19 20 21 rings
6 14 18 22 24 25 26 rings

> <PUBCHEM_HEAVY_ATOM_COUNT>
26

> <PUBCHEM_ATOM_DEF_STEREO_COUNT>
0

> <PUBCHEM_ATOM_UDEF_STEREO_COUNT>
1

> <PUBCHEM_BOND_DEF_STEREO_COUNT>
0

> <PUBCHEM_BOND_UDEF_STEREO_COUNT>
0

> <PUBCHEM_ISOTOPIC_ATOM_COUNT>
0

> <PUBCHEM_COMPONENT_COUNT>
1

> <PUBCHEM_CACTVS_TAUTO_COUNT>
9

> <PUBCHEM_CONFORMER_ID>
0000235C00000001

> <PUBCHEM_MMFF94_ENERGY>
76.3349

> <PUBCHEM_FEATURE_SELFOVERLAP>
50.851

> <PUBCHEM_SHAPE_FINGERPRINT>
10498660 4 17676491674075832464
11135609 201 18114735032166309025
11578080 2 17826196728133499246
11582403 64 15405882614243726631
11640471 11 18342747333390180962
12107183 9 18269566095131513866
12390115 104 18261101994106281737
12788726 201 18265629697190915807
13583140 156 16486705747902195036
13955234 65 17834380599711934547
13965767 371 18129382776967283844
14142880 1 18272370837202671455
14251764 38 18046635499557932936
15163728 17 18188761885525181593
15219462 58 17973190377584958634
15342168 16 18339644559148544933
15439362 3 18190174788321366582
17980427 23 17846205662606294253
20775438 99 8354255851193952413
21120745 212 17981032025699347391
21756936 100 18334297556560981304
23557571 272 18114736019681128150
23558518 356 17912356529159823100
23559900 14 18187639233346617206
283562 15 18125728889443962482
3472631 163 18333735727489127052
4058900 60 18119519088715278649
46194498 28 16154853214507930928
474 4 18265053729048610857
5104073 3 17988093180163675544
633830 44 17970065763122762477
7808743 9 18410291385231458368
9981440 41 17676501544105850918

> <PUBCHEM_SHAPE_MULTIPOLES>
494.87
10.2
3.88
1.71
7.62
2.4
-0.05
-9.62
-0.73
-7.41
-0.13
0.32
0
-1.47

> <PUBCHEM_SHAPE_SELFOVERLAP>
1083.96

> <PUBCHEM_SHAPE_VOLUME>
265.6

> <PUBCHEM_COORDINATE_TYPE>
2
5
10

$$$$

