17395955
  -OEChem-06241222533D

 29 30  0     0  0  0  0  0  0999 V2000
   -1.1985    3.3528   -0.2893 Br  0  0  0  0  0  0  0  0  0  0  0  0
   -3.8728   -2.0641   -0.0105 O   0  0  0  0  0  0  0  0  0  0  0  0
    0.5079    1.2816    1.4430 O   0  0  0  0  0  0  0  0  0  0  0  0
    0.9876   -0.1836   -0.3319 N   0  0  0  0  0  0  0  0  0  0  0  0
    3.0786   -0.4938   -1.3895 N   0  0  0  0  0  0  0  0  0  0  0  0
   -1.2738    0.5050    0.1700 C   0  0  0  0  0  0  0  0  0  0  0  0
   -1.9014   -0.7393    0.2305 C   0  0  0  0  0  0  0  0  0  0  0  0
   -3.2586   -0.8511   -0.0717 C   0  0  0  0  0  0  0  0  0  0  0  0
   -2.0034    1.6372   -0.1926 C   0  0  0  0  0  0  0  0  0  0  0  0
    0.1459    0.5680    0.4959 C   0  0  0  0  0  0  0  0  0  0  0  0
   -3.9881    0.2812   -0.4343 C   0  0  0  0  0  0  0  0  0  0  0  0
   -3.3605    1.5254   -0.4947 C   0  0  0  0  0  0  0  0  0  0  0  0
    2.3808   -0.2742   -0.2527 C   0  0  0  0  0  0  0  0  0  0  0  0
    2.9602   -0.1305    0.9977 C   0  0  0  0  0  0  0  0  0  0  0  0
    4.3451   -0.2177    1.0871 C   0  0  0  0  0  0  0  0  0  0  0  0
    5.0975   -0.4431   -0.0604 C   0  0  0  0  0  0  0  0  0  0  0  0
    4.4223   -0.5729   -1.2634 C   0  0  0  0  0  0  0  0  0  0  0  0
   -3.0687   -3.1808    0.3669 C   0  0  0  0  0  0  0  0  0  0  0  0
   -1.2933   -1.5886    0.5254 H   0  0  0  0  0  0  0  0  0  0  0  0
   -5.0457    0.2002   -0.6702 H   0  0  0  0  0  0  0  0  0  0  0  0
   -3.9456    2.3963   -0.7789 H   0  0  0  0  0  0  0  0  0  0  0  0
    0.5879   -0.5466   -1.1943 H   0  0  0  0  0  0  0  0  0  0  0  0
    2.3981   -0.0022    1.9145 H   0  0  0  0  0  0  0  0  0  0  0  0
    4.8370   -0.1217    2.0504 H   0  0  0  0  0  0  0  0  0  0  0  0
    6.1778   -0.5175   -0.0141 H   0  0  0  0  0  0  0  0  0  0  0  0
    4.9629   -0.7504   -2.1872 H   0  0  0  0  0  0  0  0  0  0  0  0
   -3.7177   -4.0627    0.3604 H   0  0  0  0  0  0  0  0  0  0  0  0
   -2.6856   -3.0744    1.3876 H   0  0  0  0  0  0  0  0  0  0  0  0
   -2.2707   -3.3667   -0.3600 H   0  0  0  0  0  0  0  0  0  0  0  0
  1  9  1  0  0  0  0
  2  8  1  0  0  0  0
  2 18  1  0  0  0  0
  3 10  2  0  0  0  0
  4 10  1  0  0  0  0
  4 13  1  0  0  0  0
  4 22  1  0  0  0  0
  5 13  1  0  0  0  0
  5 17  2  0  0  0  0
  6  7  1  0  0  0  0
  6  9  2  0  0  0  0
  6 10  1  0  0  0  0
  7  8  2  0  0  0  0
  7 19  1  0  0  0  0
  8 11  1  0  0  0  0
  9 12  1  0  0  0  0
 11 12  2  0  0  0  0
 11 20  1  0  0  0  0
 12 21  1  0  0  0  0
 13 14  2  0  0  0  0
 14 15  1  0  0  0  0
 14 23  1  0  0  0  0
 15 16  2  0  0  0  0
 15 24  1  0  0  0  0
 16 17  1  0  0  0  0
 16 25  1  0  0  0  0
 17 26  1  0  0  0  0
 18 27  1  0  0  0  0
 18 28  1  0  0  0  0
 18 29  1  0  0  0  0
M  END
> <PUBCHEM_COMPOUND_CID>
17395955

> <PUBCHEM_CONFORMER_RMSD>
0.6

> <PUBCHEM_CONFORMER_DIVERSEORDER>
2
7
1
6
5
4
3

> <PUBCHEM_MMFF94_PARTIAL_CHARGES>
26
1 -0.11
10 0.54
11 -0.15
12 -0.15
13 0.43
14 -0.15
15 -0.15
16 -0.15
17 0.16
18 0.28
19 0.15
2 -0.36
20 0.15
21 0.15
22 0.37
23 0.15
24 0.15
25 0.15
26 0.15
3 -0.57
4 -0.55
5 -0.62
6 0.09
7 -0.15
8 0.08
9 0.11

> <PUBCHEM_EFFECTIVE_ROTOR_COUNT>
4

> <PUBCHEM_PHARMACOPHORE_FEATURES>
7
1 1 hydrophobe
1 2 acceptor
1 3 acceptor
1 4 donor
1 5 acceptor
6 5 13 14 15 16 17 rings
6 6 7 8 9 11 12 rings

> <PUBCHEM_HEAVY_ATOM_COUNT>
18

> <PUBCHEM_ATOM_DEF_STEREO_COUNT>
0

> <PUBCHEM_ATOM_UDEF_STEREO_COUNT>
0

> <PUBCHEM_BOND_DEF_STEREO_COUNT>
0

> <PUBCHEM_BOND_UDEF_STEREO_COUNT>
0

> <PUBCHEM_ISOTOPIC_ATOM_COUNT>
0

> <PUBCHEM_COMPONENT_COUNT>
1

> <PUBCHEM_CACTVS_TAUTO_COUNT>
3

> <PUBCHEM_CONFORMER_ID>
010970F300000002

> <PUBCHEM_MMFF94_ENERGY>
67.9837

> <PUBCHEM_FEATURE_SELFOVERLAP>
35.52

> <PUBCHEM_SHAPE_FINGERPRINT>
10616163 171 18412825784992263779
10680689 15 18341604949504325552
11543360 7 18272362062690006508
11796584 16 18265615562690882402
12173636 292 17979924027116526757
12236239 1 17346600810905486649
12553582 1 18341896251735825467
12757275 245 18413108346943398651
13167823 11 18059859506150772874
13296908 3 17676772049782975436
14386348 63 17894630361589210342
14790565 3 17905326578662465025
15961568 22 18270404889423778908
17804303 29 18408605829821554857
17870717 6 18335973259441989094
19141452 34 17895474731312800911
19433438 15 17275102868343995908
200 152 17132397224363352480
20279233 1 18040436620165736558
20645477 70 16588871316657599718
20871999 31 18272376377953167341
21065201 7 18336829805344726002
21079973 296 18334297560913782520
21339142 51 18412550911928445709
21728266 224 18272104798180524426
22094290 60 18411981394442501416
2297311 6 18409439306352639228
23175994 123 17385444319295522769
23402539 116 18201444696153102380
23557571 272 18260548982549311004
23559900 14 18262800795621996350
238078 22 18340198614008210417
2748010 2 18264224517014090457
3268164 11 18339652251102832036
4921388 177 18410849988577281503
573450 72 18130234851560918754
9709674 26 18261954171183559214

> <PUBCHEM_SHAPE_MULTIPOLES>
354.67
9.66
2.72
1.06
8.84
0.33
0
-3.74
-1.25
-4.46
0.04
1.12
0.04
0.57

> <PUBCHEM_SHAPE_SELFOVERLAP>
745.95

> <PUBCHEM_SHAPE_VOLUME>
204.2

> <PUBCHEM_COORDINATE_TYPE>
2
5
10

$$$$

