14291
  -OEChem-06241222433D

 21 21  0     1  0  0  0  0  0999 V2000
   -0.2016   -2.6935    0.0738 O   0  0  0  0  0  0  0  0  0  0  0  0
    1.2921    0.5839    0.3282 C   0  0  1  0  0  0  0  0  0  0  0  0
    0.1067    1.4365   -0.1439 C   0  0  0  0  0  0  0  0  0  0  0  0
    1.2348   -0.8089   -0.2956 C   0  0  0  0  0  0  0  0  0  0  0  0
   -1.2120    0.7157   -0.0194 C   0  0  0  0  0  0  0  0  0  0  0  0
    2.6177    1.2712    0.0098 C   0  0  0  0  0  0  0  0  0  0  0  0
   -0.0955   -1.4717   -0.0174 C   0  0  0  0  0  0  0  0  0  0  0  0
   -1.3075   -0.6198    0.0689 C   0  0  0  0  0  0  0  0  0  0  0  0
   -2.4348    1.5867   -0.0043 C   0  0  0  0  0  0  0  0  0  0  0  0
    1.2213    0.4762    1.4199 H   0  0  0  0  0  0  0  0  0  0  0  0
    0.2412    1.7409   -1.1897 H   0  0  0  0  0  0  0  0  0  0  0  0
    0.0807    2.3544    0.4569 H   0  0  0  0  0  0  0  0  0  0  0  0
    2.0262   -1.4358    0.1312 H   0  0  0  0  0  0  0  0  0  0  0  0
    1.3752   -0.7688   -1.3819 H   0  0  0  0  0  0  0  0  0  0  0  0
    3.4606    0.6802    0.3831 H   0  0  0  0  0  0  0  0  0  0  0  0
    2.7490    1.4035   -1.0696 H   0  0  0  0  0  0  0  0  0  0  0  0
    2.6658    2.2587    0.4806 H   0  0  0  0  0  0  0  0  0  0  0  0
   -2.2623   -1.1241    0.1693 H   0  0  0  0  0  0  0  0  0  0  0  0
   -2.4069    2.2664    0.8535 H   0  0  0  0  0  0  0  0  0  0  0  0
   -3.3582    1.0019    0.0637 H   0  0  0  0  0  0  0  0  0  0  0  0
   -2.4854    2.1838   -0.9205 H   0  0  0  0  0  0  0  0  0  0  0  0
  1  7  2  0  0  0  0
  2  3  1  0  0  0  0
  2  4  1  0  0  0  0
  2  6  1  0  0  0  0
  2 10  1  0  0  0  0
  3  5  1  0  0  0  0
  3 11  1  0  0  0  0
  3 12  1  0  0  0  0
  4  7  1  0  0  0  0
  4 13  1  0  0  0  0
  4 14  1  0  0  0  0
  5  8  2  0  0  0  0
  5  9  1  0  0  0  0
  6 15  1  0  0  0  0
  6 16  1  0  0  0  0
  6 17  1  0  0  0  0
  7  8  1  0  0  0  0
  8 18  1  0  0  0  0
  9 19  1  0  0  0  0
  9 20  1  0  0  0  0
  9 21  1  0  0  0  0
M  END
> <PUBCHEM_COMPOUND_CID>
14291

> <PUBCHEM_CONFORMER_RMSD>
0.4

> <PUBCHEM_CONFORMER_DIVERSEORDER>
1
3
2

> <PUBCHEM_MMFF94_PARTIAL_CHARGES>
8
1 -0.57
18 0.15
3 0.14
4 0.06
5 -0.28
7 0.49
8 -0.14
9 0.14

> <PUBCHEM_EFFECTIVE_ROTOR_COUNT>
0.6

> <PUBCHEM_PHARMACOPHORE_FEATURES>
2
1 1 acceptor
6 2 3 4 5 7 8 rings

> <PUBCHEM_HEAVY_ATOM_COUNT>
9

> <PUBCHEM_ATOM_DEF_STEREO_COUNT>
0

> <PUBCHEM_ATOM_UDEF_STEREO_COUNT>
1

> <PUBCHEM_BOND_DEF_STEREO_COUNT>
0

> <PUBCHEM_BOND_UDEF_STEREO_COUNT>
0

> <PUBCHEM_ISOTOPIC_ATOM_COUNT>
0

> <PUBCHEM_COMPONENT_COUNT>
1

> <PUBCHEM_CACTVS_TAUTO_COUNT>
8

> <PUBCHEM_CONFORMER_ID>
000037D300000001

> <PUBCHEM_MMFF94_ENERGY>
7.6263

> <PUBCHEM_FEATURE_SELFOVERLAP>
10.148

> <PUBCHEM_SHAPE_FINGERPRINT>
16945 1 18194683657404168992
18185500 45 17040913737821453551
20871998 184 17900816046624562598
21040471 1 18410575067641686156
23235685 24 18410016537067427977
23552423 10 18121220045898276597
23552449 1 17833554496431649008
2748010 2 18411412929729687325
29004967 10 17763739193234183225
5084963 1 18186519899400128497

> <PUBCHEM_SHAPE_MULTIPOLES>
179.35
2.81
2.37
0.63
0.13
1.37
0
-1.9
-0.02
-0.11
-0.01
0.03
-0.03
0.08

> <PUBCHEM_SHAPE_SELFOVERLAP>
355.338

> <PUBCHEM_SHAPE_VOLUME>
106.8

> <PUBCHEM_COORDINATE_TYPE>
2
5
10

$$$$

