17396544
  -OEChem-06241222572D

 32 32  0     0  0  0  0  0  0999 V2000
    6.6381   -1.1823    0.0000 O   0  0  0  0  0  0  0  0  0  0  0  0
    2.5878    1.7604    0.0000 O   0  0  0  0  0  0  0  0  0  0  0  0
    3.9890    2.7785    0.0000 O   0  0  0  0  0  0  0  0  0  0  0  0
    7.1733    0.4650    0.0000 O   0  0  0  0  0  0  0  0  0  0  0  0
    4.6701   -0.4829    0.0000 N   0  0  0  0  0  0  0  0  0  0  0  0
    5.1701    1.0559    0.0000 C   0  0  0  0  0  0  0  0  0  0  0  0
    4.1701    1.0559    0.0000 C   0  0  0  0  0  0  0  0  0  0  0  0
    3.8611    0.1049    0.0000 C   0  0  0  0  0  0  0  0  0  0  0  0
    5.4791    0.1049    0.0000 C   0  0  0  0  0  0  0  0  0  0  0  0
    5.7579    1.8649    0.0000 C   0  0  0  0  0  0  0  0  0  0  0  0
    2.9100   -0.2042    0.0000 C   0  0  0  0  0  0  0  0  0  0  0  0
    3.5823    1.8649    0.0000 C   0  0  0  0  0  0  0  0  0  0  0  0
    6.4302   -0.2042    0.0000 C   0  0  0  0  0  0  0  0  0  0  0  0
    7.5891   -1.4913    0.0000 C   0  0  0  0  0  0  0  0  0  0  0  0
    2.0000    2.5694    0.0000 C   0  0  0  0  0  0  0  0  0  0  0  0
    7.7970   -2.4695    0.0000 C   0  0  0  0  0  0  0  0  0  0  0  0
    8.7481   -2.7785    0.0000 C   0  0  0  0  0  0  0  0  0  0  0  0
    4.6701   -1.1029    0.0000 H   0  0  0  0  0  0  0  0  0  0  0  0
    6.2595    1.5005    0.0000 H   0  0  0  0  0  0  0  0  0  0  0  0
    6.1223    2.3665    0.0000 H   0  0  0  0  0  0  0  0  0  0  0  0
    5.2563    2.2294    0.0000 H   0  0  0  0  0  0  0  0  0  0  0  0
    2.7184    0.3855    0.0000 H   0  0  0  0  0  0  0  0  0  0  0  0
    2.3204   -0.3957    0.0000 H   0  0  0  0  0  0  0  0  0  0  0  0
    3.1016   -0.7938    0.0000 H   0  0  0  0  0  0  0  0  0  0  0  0
    8.2088   -1.4697    0.0000 H   0  0  0  0  0  0  0  0  0  0  0  0
    7.6754   -0.8774    0.0000 H   0  0  0  0  0  0  0  0  0  0  0  0
    2.5016    2.9338    0.0000 H   0  0  0  0  0  0  0  0  0  0  0  0
    1.6356    3.0710    0.0000 H   0  0  0  0  0  0  0  0  0  0  0  0
    1.4984    2.2050    0.0000 H   0  0  0  0  0  0  0  0  0  0  0  0
    7.3363   -2.8843    0.0000 H   0  0  0  0  0  0  0  0  0  0  0  0
    8.8770   -3.3849    0.0000 H   0  0  0  0  0  0  0  0  0  0  0  0
    9.2088   -2.3636    0.0000 H   0  0  0  0  0  0  0  0  0  0  0  0
  1 13  1  0  0  0  0
  1 14  1  0  0  0  0
  2 12  1  0  0  0  0
  2 15  1  0  0  0  0
  3 12  2  0  0  0  0
  4 13  2  0  0  0  0
  5  8  1  0  0  0  0
  5  9  1  0  0  0  0
  5 18  1  0  0  0  0
  6  7  1  0  0  0  0
  6  9  2  0  0  0  0
  6 10  1  0  0  0  0
  7  8  2  0  0  0  0
  7 12  1  0  0  0  0
  8 11  1  0  0  0  0
  9 13  1  0  0  0  0
 10 19  1  0  0  0  0
 10 20  1  0  0  0  0
 10 21  1  0  0  0  0
 11 22  1  0  0  0  0
 11 23  1  0  0  0  0
 11 24  1  0  0  0  0
 14 16  1  0  0  0  0
 14 25  1  0  0  0  0
 14 26  1  0  0  0  0
 15 27  1  0  0  0  0
 15 28  1  0  0  0  0
 15 29  1  0  0  0  0
 16 17  2  0  0  0  0
 16 30  1  0  0  0  0
 17 31  1  0  0  0  0
 17 32  1  0  0  0  0
M  END
> <PUBCHEM_COMPOUND_CID>
17396544

> <PUBCHEM_COMPOUND_CANONICALIZED>
1

> <PUBCHEM_CACTVS_COMPLEXITY>
316

> <PUBCHEM_CACTVS_HBOND_ACCEPTOR>
4

> <PUBCHEM_CACTVS_HBOND_DONOR>
1

> <PUBCHEM_CACTVS_ROTATABLE_BOND>
6

> <PUBCHEM_CACTVS_SUBSKEYS>
AAADccByOAAAAAAAAAAAAAAAAAAAAWAAAAAAAAAAAAAAAAABgAAAHgAQAAAADAihngICiJLJlACoAyTyTASCgCAnACAImSGwTNgKJnrAtbmHEYhm0AHY6Ue8fwkegAAAAAAAAAAAAAAAAAAAAAAAAAAAAA==

> <PUBCHEM_IUPAC_OPENEYE_NAME>
O2-allyl O4-methyl 3,5-dimethyl-1H-pyrrole-2,4-dicarboxylate

> <PUBCHEM_IUPAC_CAS_NAME>
3,5-dimethyl-1H-pyrrole-2,4-dicarboxylic acid O4-methyl ester O2-prop-2-enyl ester

> <PUBCHEM_IUPAC_NAME>
4-O-methyl 2-O-prop-2-enyl 3,5-dimethyl-1H-pyrrole-2,4-dicarboxylate

> <PUBCHEM_IUPAC_SYSTEMATIC_NAME>
O4-methyl O2-prop-2-enyl 3,5-dimethyl-1H-pyrrole-2,4-dicarboxylate

> <PUBCHEM_IUPAC_TRADITIONAL_NAME>
3,5-dimethyl-1H-pyrrole-2,4-dicarboxylic acid O2-allyl ester O4-methyl ester

> <PUBCHEM_IUPAC_INCHI>
InChI=1S/C12H15NO4/c1-5-6-17-12(15)10-7(2)9(8(3)13-10)11(14)16-4/h5,13H,1,6H2,2-4H3

> <PUBCHEM_IUPAC_INCHIKEY>
SAJFTPAQWCOVTB-UHFFFAOYSA-N

> <PUBCHEM_XLOGP3_AA>
2.2

> <PUBCHEM_EXACT_MASS>
237.100108

> <PUBCHEM_MOLECULAR_FORMULA>
C12H15NO4

> <PUBCHEM_MOLECULAR_WEIGHT>
237.2518

> <PUBCHEM_OPENEYE_CAN_SMILES>
CC1=C(NC(=C1C(=O)OC)C)C(=O)OCC=C

> <PUBCHEM_OPENEYE_ISO_SMILES>
CC1=C(NC(=C1C(=O)OC)C)C(=O)OCC=C

> <PUBCHEM_CACTVS_TPSA>
68.4

> <PUBCHEM_MONOISOTOPIC_WEIGHT>
237.100108

> <PUBCHEM_TOTAL_CHARGE>
0

> <PUBCHEM_HEAVY_ATOM_COUNT>
17

> <PUBCHEM_ATOM_DEF_STEREO_COUNT>
0

> <PUBCHEM_ATOM_UDEF_STEREO_COUNT>
0

> <PUBCHEM_BOND_DEF_STEREO_COUNT>
0

> <PUBCHEM_BOND_UDEF_STEREO_COUNT>
0

> <PUBCHEM_ISOTOPIC_ATOM_COUNT>
0

> <PUBCHEM_COMPONENT_COUNT>
1

> <PUBCHEM_CACTVS_TAUTO_COUNT>
10

> <PUBCHEM_COORDINATE_TYPE>
1
5
255

> <PUBCHEM_BONDANNOTATIONS>
5  8  8
5  9  8
6  7  8
6  9  8
7  8  8

$$$$

