12723
  -OEChem-06261207173D

 18 17  0     0  0  0  0  0  0999 V2000
   -1.9722    0.2632    1.2977 O   0  0  0  0  0  0  0  0  0  0  0  0
   -1.4438   -0.0438    0.0068 C   0  0  0  0  0  0  0  0  0  0  0  0
   -1.7989   -1.4913   -0.3318 C   0  0  0  0  0  0  0  0  0  0  0  0
   -2.0919    0.9141   -0.9910 C   0  0  0  0  0  0  0  0  0  0  0  0
    0.0177    0.1427    0.0185 C   0  0  0  0  0  0  0  0  0  0  0  0
    1.2094    0.2930    0.0290 C   0  0  0  0  0  0  0  0  0  0  0  0
    2.6170    0.4754    0.0414 C   0  0  0  0  0  0  0  0  0  0  0  0
    3.4626   -0.5533   -0.0706 C   0  0  0  0  0  0  0  0  0  0  0  0
   -2.8841   -1.6429   -0.3089 H   0  0  0  0  0  0  0  0  0  0  0  0
   -1.3736   -2.1811    0.4072 H   0  0  0  0  0  0  0  0  0  0  0  0
   -1.4272   -1.7820   -1.3205 H   0  0  0  0  0  0  0  0  0  0  0  0
   -3.1838    0.8193   -0.9716 H   0  0  0  0  0  0  0  0  0  0  0  0
   -1.7460    0.7303   -2.0143 H   0  0  0  0  0  0  0  0  0  0  0  0
   -1.8665    1.9583   -0.7421 H   0  0  0  0  0  0  0  0  0  0  0  0
   -1.7798    1.1967    1.4916 H   0  0  0  0  0  0  0  0  0  0  0  0
    3.0053    1.4831    0.1452 H   0  0  0  0  0  0  0  0  0  0  0  0
    4.5341   -0.3841   -0.0580 H   0  0  0  0  0  0  0  0  0  0  0  0
    3.1140   -1.5755   -0.1761 H   0  0  0  0  0  0  0  0  0  0  0  0
  1  2  1  0  0  0  0
  1 15  1  0  0  0  0
  2  3  1  0  0  0  0
  2  4  1  0  0  0  0
  2  5  1  0  0  0  0
  3  9  1  0  0  0  0
  3 10  1  0  0  0  0
  3 11  1  0  0  0  0
  4 12  1  0  0  0  0
  4 13  1  0  0  0  0
  4 14  1  0  0  0  0
  5  6  3  0  0  0  0
  6  7  1  0  0  0  0
  7  8  2  0  0  0  0
  7 16  1  0  0  0  0
  8 17  1  0  0  0  0
  8 18  1  0  0  0  0
M  END
> <PUBCHEM_COMPOUND_CID>
12723

> <PUBCHEM_CONFORMER_RMSD>
0.4

> <PUBCHEM_CONFORMER_DIVERSEORDER>
1

> <PUBCHEM_MMFF94_PARTIAL_CHARGES>
10
1 -0.68
15 0.4
16 0.15
17 0.15
18 0.15
2 0.48
5 -0.2
6 -0.06
7 -0.09
8 -0.3

> <PUBCHEM_EFFECTIVE_ROTOR_COUNT>
0

> <PUBCHEM_PHARMACOPHORE_FEATURES>
4
1 1 acceptor
1 1 donor
1 8 hydrophobe
3 2 3 4 hydrophobe

> <PUBCHEM_HEAVY_ATOM_COUNT>
8

> <PUBCHEM_ATOM_DEF_STEREO_COUNT>
0

> <PUBCHEM_ATOM_UDEF_STEREO_COUNT>
0

> <PUBCHEM_BOND_DEF_STEREO_COUNT>
0

> <PUBCHEM_BOND_UDEF_STEREO_COUNT>
0

> <PUBCHEM_ISOTOPIC_ATOM_COUNT>
0

> <PUBCHEM_COMPONENT_COUNT>
1

> <PUBCHEM_CACTVS_TAUTO_COUNT>
1

> <PUBCHEM_CONFORMER_ID>
000031B300000001

> <PUBCHEM_MMFF94_ENERGY>
7.6303

> <PUBCHEM_FEATURE_SELFOVERLAP>
20.297

> <PUBCHEM_SHAPE_FINGERPRINT>
12932741 1 18115322093627824608
12932764 1 18343581833067558336
14325111 11 18411984641896407814
14390081 3 17418099810340175596
20653085 51 18273220819609812525
23552423 10 18272935981763093918
29004967 10 17847056679825733632
3248919 1 17748545939914408740
369184 2 18260548904917568129
5084963 1 18337957779187860138
5460574 1 9151178653547594412

> <PUBCHEM_SHAPE_MULTIPOLES>
158.77
4.85
1.09
0.9
4.01
0.28
-0.14
0.37
0.28
-0.56
0.21
-0.56
-0.1
0.11

> <PUBCHEM_SHAPE_SELFOVERLAP>
296.352

> <PUBCHEM_SHAPE_VOLUME>
99.7

> <PUBCHEM_COORDINATE_TYPE>
2
5
10

$$$$

