17395577
  -OEChem-06241222512D

 48 50  0     1  0  0  0  0  0999 V2000
    8.9847    0.4556    0.0000 S   0  0  0  0  0  0  0  0  0  0  0  0
    7.0826   -0.1624    0.0000 O   0  0  0  0  0  0  0  0  0  0  0  0
    6.5474    1.4849    0.0000 N   0  0  0  0  0  0  0  0  0  0  0  0
   10.7448    0.1769    0.0000 N   0  0  0  0  0  0  0  0  0  0  0  0
   10.2448    1.7157    0.0000 N   0  0  0  0  0  0  0  0  0  0  0  0
   11.2448    1.7157    0.0000 N   0  0  0  0  0  0  0  0  0  0  0  0
    4.8532    1.8450    0.0000 C   0  0  3  0  0  0  0  0  0  0  0  0
    5.5963    1.1759    0.0000 C   0  0  0  0  0  0  0  0  0  0  0  0
    3.9021    1.5360    0.0000 C   0  0  0  0  0  0  0  0  0  0  0  0
    5.0611    2.8231    0.0000 C   0  0  0  0  0  0  0  0  0  0  0  0
    8.2416    1.1248    0.0000 C   0  0  3  0  0  0  0  0  0  0  0  0
    7.2905    0.8157    0.0000 C   0  0  0  0  0  0  0  0  0  0  0  0
    3.1590    2.2051    0.0000 C   0  0  0  0  0  0  0  0  0  0  0  0
    3.6942    0.5578    0.0000 C   0  0  0  0  0  0  0  0  0  0  0  0
    8.4495    2.1029    0.0000 C   0  0  0  0  0  0  0  0  0  0  0  0
    2.2079    1.8961    0.0000 C   0  0  0  0  0  0  0  0  0  0  0  0
    2.7431    0.2488    0.0000 C   0  0  0  0  0  0  0  0  0  0  0  0
    2.0000    0.9179    0.0000 C   0  0  0  0  0  0  0  0  0  0  0  0
    9.9358    0.7646    0.0000 C   0  0  0  0  0  0  0  0  0  0  0  0
   10.7448   -0.8231    0.0000 C   0  0  0  0  0  0  0  0  0  0  0  0
   11.5538    0.7646    0.0000 C   0  0  0  0  0  0  0  0  0  0  0  0
    9.8788   -1.3231    0.0000 C   0  0  0  0  0  0  0  0  0  0  0  0
   11.6108   -1.3231    0.0000 C   0  0  0  0  0  0  0  0  0  0  0  0
    9.8788   -2.3231    0.0000 C   0  0  0  0  0  0  0  0  0  0  0  0
   11.6108   -2.3231    0.0000 C   0  0  0  0  0  0  0  0  0  0  0  0
   10.7448   -2.8231    0.0000 C   0  0  0  0  0  0  0  0  0  0  0  0
    4.3924    2.2598    0.0000 H   0  0  0  0  0  0  0  0  0  0  0  0
    5.1078    0.7941    0.0000 H   0  0  0  0  0  0  0  0  0  0  0  0
    5.8874    0.6284    0.0000 H   0  0  0  0  0  0  0  0  0  0  0  0
    5.6675    2.6942    0.0000 H   0  0  0  0  0  0  0  0  0  0  0  0
    5.1900    3.4296    0.0000 H   0  0  0  0  0  0  0  0  0  0  0  0
    4.4546    2.9520    0.0000 H   0  0  0  0  0  0  0  0  0  0  0  0
    6.6763    2.0913    0.0000 H   0  0  0  0  0  0  0  0  0  0  0  0
    8.8312    1.3164    0.0000 H   0  0  0  0  0  0  0  0  0  0  0  0
    3.2879    2.8116    0.0000 H   0  0  0  0  0  0  0  0  0  0  0  0
    4.1550    0.1430    0.0000 H   0  0  0  0  0  0  0  0  0  0  0  0
    9.0559    1.9740    0.0000 H   0  0  0  0  0  0  0  0  0  0  0  0
    8.5784    2.7094    0.0000 H   0  0  0  0  0  0  0  0  0  0  0  0
    7.8430    2.2318    0.0000 H   0  0  0  0  0  0  0  0  0  0  0  0
    1.7472    2.3110    0.0000 H   0  0  0  0  0  0  0  0  0  0  0  0
    2.6142   -0.3576    0.0000 H   0  0  0  0  0  0  0  0  0  0  0  0
    1.4103    0.7263    0.0000 H   0  0  0  0  0  0  0  0  0  0  0  0
   12.1435    0.5731    0.0000 H   0  0  0  0  0  0  0  0  0  0  0  0
    9.3418   -1.0131    0.0000 H   0  0  0  0  0  0  0  0  0  0  0  0
   12.1478   -1.0131    0.0000 H   0  0  0  0  0  0  0  0  0  0  0  0
    9.3418   -2.6331    0.0000 H   0  0  0  0  0  0  0  0  0  0  0  0
   12.1478   -2.6331    0.0000 H   0  0  0  0  0  0  0  0  0  0  0  0
   10.7448   -3.4431    0.0000 H   0  0  0  0  0  0  0  0  0  0  0  0
  1 11  1  0  0  0  0
  1 19  1  0  0  0  0
  2 12  2  0  0  0  0
  3  8  1  0  0  0  0
  3 12  1  0  0  0  0
  3 33  1  0  0  0  0
  4 19  1  0  0  0  0
  4 20  1  0  0  0  0
  4 21  1  0  0  0  0
  5  6  1  0  0  0  0
  5 19  2  0  0  0  0
  6 21  2  0  0  0  0
  7  8  1  0  0  0  0
  7  9  1  0  0  0  0
  7 10  1  0  0  0  0
  7 27  1  0  0  0  0
  8 28  1  0  0  0  0
  8 29  1  0  0  0  0
  9 13  2  0  0  0  0
  9 14  1  0  0  0  0
 10 30  1  0  0  0  0
 10 31  1  0  0  0  0
 10 32  1  0  0  0  0
 11 12  1  0  0  0  0
 11 15  1  0  0  0  0
 11 34  1  0  0  0  0
 13 16  1  0  0  0  0
 13 35  1  0  0  0  0
 14 17  2  0  0  0  0
 14 36  1  0  0  0  0
 15 37  1  0  0  0  0
 15 38  1  0  0  0  0
 15 39  1  0  0  0  0
 16 18  2  0  0  0  0
 16 40  1  0  0  0  0
 17 18  1  0  0  0  0
 17 41  1  0  0  0  0
 18 42  1  0  0  0  0
 20 22  2  0  0  0  0
 20 23  1  0  0  0  0
 21 43  1  0  0  0  0
 22 24  1  0  0  0  0
 22 44  1  0  0  0  0
 23 25  2  0  0  0  0
 23 45  1  0  0  0  0
 24 26  2  0  0  0  0
 24 46  1  0  0  0  0
 25 26  1  0  0  0  0
 25 47  1  0  0  0  0
 26 48  1  0  0  0  0
M  END
> <PUBCHEM_COMPOUND_CID>
17395577

> <PUBCHEM_COMPOUND_CANONICALIZED>
1

> <PUBCHEM_CACTVS_COMPLEXITY>
438

> <PUBCHEM_CACTVS_HBOND_ACCEPTOR>
4

> <PUBCHEM_CACTVS_HBOND_DONOR>
1

> <PUBCHEM_CACTVS_ROTATABLE_BOND>
7

> <PUBCHEM_CACTVS_SUBSKEYS>
AAADceB7oABAAAAAAAAAAAAAAAAAAWAAAAAwYAAAAAAAAAAB0AAAHgQYAAAADQjF2AS30IfMEAiqAiVTdACSUCtxgpANyIEIZIiIKCLAmZGEIAhglgLIyCcQgMAOgAAAAAAAAAAAAAAAAAAAAAAAAAAAAA==

> <PUBCHEM_IUPAC_OPENEYE_NAME>
N-(2-phenylpropyl)-2-[(4-phenyl-1,2,4-triazol-3-yl)sulfanyl]propanamide

> <PUBCHEM_IUPAC_CAS_NAME>
N-(2-phenylpropyl)-2-[(4-phenyl-1,2,4-triazol-3-yl)thio]propanamide

> <PUBCHEM_IUPAC_NAME>
N-(2-phenylpropyl)-2-[(4-phenyl-1,2,4-triazol-3-yl)sulfanyl]propanamide

> <PUBCHEM_IUPAC_SYSTEMATIC_NAME>
N-(2-phenylpropyl)-2-[(4-phenyl-1,2,4-triazol-3-yl)sulfanyl]propanamide

> <PUBCHEM_IUPAC_TRADITIONAL_NAME>
N-(2-phenylpropyl)-2-[(4-phenyl-1,2,4-triazol-3-yl)thio]propionamide

> <PUBCHEM_IUPAC_INCHI>
InChI=1S/C20H22N4OS/c1-15(17-9-5-3-6-10-17)13-21-19(25)16(2)26-20-23-22-14-24(20)18-11-7-4-8-12-18/h3-12,14-16H,13H2,1-2H3,(H,21,25)

> <PUBCHEM_IUPAC_INCHIKEY>
ZQDKXSNHMWEVAV-UHFFFAOYSA-N

> <PUBCHEM_XLOGP3_AA>
4

> <PUBCHEM_EXACT_MASS>
366.151432

> <PUBCHEM_MOLECULAR_FORMULA>
C20H22N4OS

> <PUBCHEM_MOLECULAR_WEIGHT>
366.47988

> <PUBCHEM_OPENEYE_CAN_SMILES>
CC(CNC(=O)C(C)SC1=NN=CN1C2=CC=CC=C2)C3=CC=CC=C3

> <PUBCHEM_OPENEYE_ISO_SMILES>
CC(CNC(=O)C(C)SC1=NN=CN1C2=CC=CC=C2)C3=CC=CC=C3

> <PUBCHEM_CACTVS_TPSA>
85.1

> <PUBCHEM_MONOISOTOPIC_WEIGHT>
366.151432

> <PUBCHEM_TOTAL_CHARGE>
0

> <PUBCHEM_HEAVY_ATOM_COUNT>
26

> <PUBCHEM_ATOM_DEF_STEREO_COUNT>
0

> <PUBCHEM_ATOM_UDEF_STEREO_COUNT>
2

> <PUBCHEM_BOND_DEF_STEREO_COUNT>
0

> <PUBCHEM_BOND_UDEF_STEREO_COUNT>
0

> <PUBCHEM_ISOTOPIC_ATOM_COUNT>
0

> <PUBCHEM_COMPONENT_COUNT>
1

> <PUBCHEM_CACTVS_TAUTO_COUNT>
2

> <PUBCHEM_COORDINATE_TYPE>
1
5
255

> <PUBCHEM_BONDANNOTATIONS>
11  15  3
13  16  8
14  17  8
16  18  8
17  18  8
20  22  8
20  23  8
22  24  8
23  25  8
24  26  8
25  26  8
4  19  8
4  21  8
5  19  8
5  6  8
6  21  8
7  10  3
9  13  8
9  14  8

$$$$

