586258
  -OEChem-06241222463D

 29 30  0     0  0  0  0  0  0999 V2000
   -5.7313    0.0693   -0.0122 F   0  0  0  0  0  0  0  0  0  0  0  0
    0.4972   -1.8229    0.5428 O   0  0  0  0  0  0  0  0  0  0  0  0
    2.0104   -0.2206    0.0833 N   0  0  0  0  0  0  0  0  0  0  0  0
    2.3478    1.0737    0.3159 N   0  0  0  0  0  0  0  0  0  0  0  0
   -0.1980    0.3550   -0.0812 N   0  0  0  0  0  0  0  0  0  0  0  0
    3.1047   -0.9791   -0.2740 C   0  0  0  0  0  0  0  0  0  0  0  0
    3.6636    1.1099    0.0989 C   0  0  0  0  0  0  0  0  0  0  0  0
    4.1892   -0.1372   -0.2707 C   0  0  0  0  0  0  0  0  0  0  0  0
    0.6864   -0.6646    0.2105 C   0  0  0  0  0  0  0  0  0  0  0  0
    3.0451   -2.4214   -0.5873 C   0  0  0  0  0  0  0  0  0  0  0  0
   -1.6112    0.2817   -0.0651 C   0  0  0  0  0  0  0  0  0  0  0  0
    4.3939    2.3786    0.2585 C   0  0  0  0  0  0  0  0  0  0  0  0
   -2.3685    1.4049   -0.3907 C   0  0  0  0  0  0  0  0  0  0  0  0
   -2.2405   -0.9131    0.2782 C   0  0  0  0  0  0  0  0  0  0  0  0
   -3.7614    1.3330   -0.3729 C   0  0  0  0  0  0  0  0  0  0  0  0
   -3.6335   -0.9850    0.2958 C   0  0  0  0  0  0  0  0  0  0  0  0
   -4.3939    0.1380   -0.0297 C   0  0  0  0  0  0  0  0  0  0  0  0
    5.2126   -0.3944   -0.5033 H   0  0  0  0  0  0  0  0  0  0  0  0
    3.9976   -2.7693   -1.0017 H   0  0  0  0  0  0  0  0  0  0  0  0
    2.8454   -3.0093    0.3141 H   0  0  0  0  0  0  0  0  0  0  0  0
    2.2703   -2.6351   -1.3306 H   0  0  0  0  0  0  0  0  0  0  0  0
    0.1844    1.2620   -0.3416 H   0  0  0  0  0  0  0  0  0  0  0  0
    4.0016    3.1397   -0.4239 H   0  0  0  0  0  0  0  0  0  0  0  0
    4.2995    2.7533    1.2829 H   0  0  0  0  0  0  0  0  0  0  0  0
    5.4605    2.2546    0.0442 H   0  0  0  0  0  0  0  0  0  0  0  0
   -1.8879    2.3419   -0.6596 H   0  0  0  0  0  0  0  0  0  0  0  0
   -1.7154   -1.8209    0.5419 H   0  0  0  0  0  0  0  0  0  0  0  0
   -4.3539    2.2072   -0.6262 H   0  0  0  0  0  0  0  0  0  0  0  0
   -4.1274   -1.9146    0.5631 H   0  0  0  0  0  0  0  0  0  0  0  0
  1 17  1  0  0  0  0
  2  9  2  0  0  0  0
  3  4  1  0  0  0  0
  3  6  1  0  0  0  0
  3  9  1  0  0  0  0
  4  7  2  0  0  0  0
  5  9  1  0  0  0  0
  5 11  1  0  0  0  0
  5 22  1  0  0  0  0
  6  8  2  0  0  0  0
  6 10  1  0  0  0  0
  7  8  1  0  0  0  0
  7 12  1  0  0  0  0
  8 18  1  0  0  0  0
 10 19  1  0  0  0  0
 10 20  1  0  0  0  0
 10 21  1  0  0  0  0
 11 13  2  0  0  0  0
 11 14  1  0  0  0  0
 12 23  1  0  0  0  0
 12 24  1  0  0  0  0
 12 25  1  0  0  0  0
 13 15  1  0  0  0  0
 13 26  1  0  0  0  0
 14 16  2  0  0  0  0
 14 27  1  0  0  0  0
 15 17  2  0  0  0  0
 15 28  1  0  0  0  0
 16 17  1  0  0  0  0
 16 29  1  0  0  0  0
M  END
> <PUBCHEM_COMPOUND_CID>
586258

> <PUBCHEM_CONFORMER_RMSD>
0.6

> <PUBCHEM_CONFORMER_DIVERSEORDER>
1
11
8
6
10
5
9
12
3
13
4
7
2

> <PUBCHEM_MMFF94_PARTIAL_CHARGES>
23
1 -0.19
10 0.18
11 0.12
12 0.18
13 -0.15
14 -0.15
15 -0.15
16 -0.15
17 0.19
18 0.15
2 -0.57
22 0.37
26 0.15
27 0.15
28 0.15
29 0.15
3 0.56
4 -0.71
5 -0.55
6 -0.33
7 0.11
8 -0.15
9 0.64

> <PUBCHEM_EFFECTIVE_ROTOR_COUNT>
3

> <PUBCHEM_PHARMACOPHORE_FEATURES>
5
1 2 acceptor
1 4 acceptor
1 5 donor
5 3 4 6 7 8 rings
6 11 13 14 15 16 17 rings

> <PUBCHEM_HEAVY_ATOM_COUNT>
17

> <PUBCHEM_ATOM_DEF_STEREO_COUNT>
0

> <PUBCHEM_ATOM_UDEF_STEREO_COUNT>
0

> <PUBCHEM_BOND_DEF_STEREO_COUNT>
0

> <PUBCHEM_BOND_UDEF_STEREO_COUNT>
0

> <PUBCHEM_ISOTOPIC_ATOM_COUNT>
0

> <PUBCHEM_COMPONENT_COUNT>
1

> <PUBCHEM_CACTVS_TAUTO_COUNT>
2

> <PUBCHEM_CONFORMER_ID>
0008F21200000001

> <PUBCHEM_MMFF94_ENERGY>
39.9313

> <PUBCHEM_FEATURE_SELFOVERLAP>
25.371

> <PUBCHEM_SHAPE_FINGERPRINT>
10498660 4 18130232652469604621
10608611 8 18412829113670513252
10912923 1 17676204684898690067
11132069 177 17989487407366046309
11471102 20 18334574646776769010
11615757 297 17749385962102161881
12107183 9 17612301262075584523
12403259 415 18201721794690286701
12730499 353 18337663144721751890
13081056 2 18412544322952682861
13955234 65 18334858338009891586
14415576 193 18411134732266834140
15196674 1 18411701006472136373
15375358 24 18343301444306279459
15536298 74 18410855485919123150
15961568 22 17632291225536207812
17834072 33 18187087235048032551
17844677 252 18335412517392063697
18186145 218 18130508629771670382
200 152 17894632586318868715
20645477 56 18272087197425221775
20645477 70 18187362181458493966
21065198 57 18339079392701601631
21267235 1 18410284852279992583
21652331 79 18412265025709202453
221357 26 18335138738717114309
221490 88 18411129260341790578
23402539 116 18342183219521819014
23402655 69 18260265235555473612
23557571 272 17632578296432642413
23559900 14 18265619955877631530
245318 6 16769278913797772740
3545911 37 18412260631793881516
4028521 119 18202289138653487149
4214541 1 18338797926515409013
449060 50 18412263921833853813
474 4 17917424285715946364
495365 180 18113907035511976706
4990 188 18335134336591809918
5104073 3 18342737463935208729
5281201 14 18336541728570674052
5374978 207 18343869921824504121
542803 24 17240478104993183945
633830 44 18410296938317840423
69090 78 18335423452173090615
77779 3 18409447011761266893
90127 26 18272079543851789185
9709674 26 18412820278939012395

> <PUBCHEM_SHAPE_MULTIPOLES>
321.77
10.71
2.07
0.68
5.14
0.08
-0.02
-2.66
-0.4
-2.31
-0.07
-0.05
0.05
0.84

> <PUBCHEM_SHAPE_SELFOVERLAP>
689.018

> <PUBCHEM_SHAPE_VOLUME>
180.6

> <PUBCHEM_COORDINATE_TYPE>
2
5
10

$$$$

