12209
  -OEChem-06261206403D

 23 22  0     1  0  0  0  0  0999 V2000
   -0.6966   -0.2021    0.2638 O   0  0  0  0  0  0  0  0  0  0  0  0
   -2.4585    0.4003   -1.1037 O   0  0  0  0  0  0  0  0  0  0  0  0
    1.6158   -0.5423   -0.4150 C   0  0  2  0  0  0  0  0  0  0  0  0
    2.2169    0.4492    0.5999 C   0  0  0  0  0  0  0  0  0  0  0  0
    0.1891   -0.1775   -0.8466 C   0  0  0  0  0  0  0  0  0  0  0  0
    1.6480   -1.9553    0.1789 C   0  0  0  0  0  0  0  0  0  0  0  0
    2.2998    1.8768    0.0789 C   0  0  0  0  0  0  0  0  0  0  0  0
   -2.0010    0.1088   -0.0068 C   0  0  0  0  0  0  0  0  0  0  0  0
   -2.8136    0.0422    1.2506 C   0  0  0  0  0  0  0  0  0  0  0  0
    2.2476   -0.5404   -1.3128 H   0  0  0  0  0  0  0  0  0  0  0  0
    1.6364    0.4420    1.5304 H   0  0  0  0  0  0  0  0  0  0  0  0
    3.2306    0.1201    0.8611 H   0  0  0  0  0  0  0  0  0  0  0  0
   -0.1565   -0.9054   -1.5917 H   0  0  0  0  0  0  0  0  0  0  0  0
    0.1693    0.8123   -1.3160 H   0  0  0  0  0  0  0  0  0  0  0  0
    1.0664   -2.0192    1.1047 H   0  0  0  0  0  0  0  0  0  0  0  0
    2.6765   -2.2545    0.4077 H   0  0  0  0  0  0  0  0  0  0  0  0
    1.2406   -2.6841   -0.5299 H   0  0  0  0  0  0  0  0  0  0  0  0
    2.8240    1.9164   -0.8810 H   0  0  0  0  0  0  0  0  0  0  0  0
    1.3068    2.3180   -0.0465 H   0  0  0  0  0  0  0  0  0  0  0  0
    2.8486    2.5029    0.7900 H   0  0  0  0  0  0  0  0  0  0  0  0
   -2.4309    0.7633    1.9773 H   0  0  0  0  0  0  0  0  0  0  0  0
   -2.7809   -0.9709    1.6592 H   0  0  0  0  0  0  0  0  0  0  0  0
   -3.8537    0.2937    1.0244 H   0  0  0  0  0  0  0  0  0  0  0  0
  1  5  1  0  0  0  0
  1  8  1  0  0  0  0
  2  8  2  0  0  0  0
  3  4  1  0  0  0  0
  3  5  1  0  0  0  0
  3  6  1  0  0  0  0
  3 10  1  0  0  0  0
  4  7  1  0  0  0  0
  4 11  1  0  0  0  0
  4 12  1  0  0  0  0
  5 13  1  0  0  0  0
  5 14  1  0  0  0  0
  6 15  1  0  0  0  0
  6 16  1  0  0  0  0
  6 17  1  0  0  0  0
  7 18  1  0  0  0  0
  7 19  1  0  0  0  0
  7 20  1  0  0  0  0
  8  9  1  0  0  0  0
  9 21  1  0  0  0  0
  9 22  1  0  0  0  0
  9 23  1  0  0  0  0
M  END
> <PUBCHEM_COMPOUND_CID>
12209

> <PUBCHEM_CONFORMER_RMSD>
0.6

> <PUBCHEM_CONFORMER_DIVERSEORDER>
4
42
14
36
54
48
22
38
31
9
19
1
37
35
10
41
11
39
50
32
34
28
6
21
46
5
47
13
52
16
23
29
33
51
26
12
17
45
53
27
18
25
40
43
3
30
20
7
49
44
8
24
2
15

> <PUBCHEM_MMFF94_PARTIAL_CHARGES>
5
1 -0.43
2 -0.57
5 0.28
8 0.66
9 0.06

> <PUBCHEM_EFFECTIVE_ROTOR_COUNT>
4

> <PUBCHEM_PHARMACOPHORE_FEATURES>
3
1 2 acceptor
1 6 hydrophobe
1 7 hydrophobe

> <PUBCHEM_HEAVY_ATOM_COUNT>
9

> <PUBCHEM_ATOM_DEF_STEREO_COUNT>
0

> <PUBCHEM_ATOM_UDEF_STEREO_COUNT>
1

> <PUBCHEM_BOND_DEF_STEREO_COUNT>
0

> <PUBCHEM_BOND_UDEF_STEREO_COUNT>
0

> <PUBCHEM_ISOTOPIC_ATOM_COUNT>
0

> <PUBCHEM_COMPONENT_COUNT>
1

> <PUBCHEM_CACTVS_TAUTO_COUNT>
1

> <PUBCHEM_CONFORMER_ID>
00002FB100000004

> <PUBCHEM_MMFF94_ENERGY>
7.3672

> <PUBCHEM_FEATURE_SELFOVERLAP>
15.223

> <PUBCHEM_SHAPE_FINGERPRINT>
10857977 72 17203321183237271217
12932741 1 17989207087677470487
12932764 1 18412537738962964583
14390081 3 17095525058659882457
15775835 57 17530961354431600736
19973954 147 18339924925744202741
20653085 51 17097478809661309720
20715346 28 17917991693839892679
21040471 1 18120098286587612708
23552423 10 16805876415840736711
23552449 11 18269002040670032882
29004967 10 18201717392137531990
3248919 1 17313107483711168679
5084963 1 17604441798019801486

> <PUBCHEM_SHAPE_MULTIPOLES>
173.48
4.4
1.55
1.04
2.26
0.13
0
-1.02
0.8
-1.7
0.13
0.6
-0.04
0.1

> <PUBCHEM_SHAPE_SELFOVERLAP>
314.821

> <PUBCHEM_SHAPE_VOLUME>
111.7

> <PUBCHEM_COORDINATE_TYPE>
2
5
10

$$$$

