5305
  -OEChem-06261200382D

 59 60  0     0  0  0  0  0  0999 V2000
    7.1962    5.0950    0.0000 O   0  0  0  0  0  0  0  0  0  0  0  0
    7.1962   -0.9050    0.0000 O   0  0  0  0  0  0  0  0  0  0  0  0
    5.4641   -0.9050    0.0000 N   0  0  0  0  0  0  0  0  0  0  0  0
    4.5981    1.5950    0.0000 N   0  0  0  0  0  0  0  0  0  0  0  0
    8.9282    4.0950    0.0000 C   0  0  0  0  0  0  0  0  0  0  0  0
    5.4641    4.0950    0.0000 C   0  0  0  0  0  0  0  0  0  0  0  0
    8.0622    3.5950    0.0000 C   0  0  0  0  0  0  0  0  0  0  0  0
    6.3301    3.5950    0.0000 C   0  0  0  0  0  0  0  0  0  0  0  0
    7.1962    4.0950    0.0000 C   0  0  0  0  0  0  0  0  0  0  0  0
    8.0622    2.5950    0.0000 C   0  0  0  0  0  0  0  0  0  0  0  0
    6.3301    2.5950    0.0000 C   0  0  0  0  0  0  0  0  0  0  0  0
    7.1962    2.0950    0.0000 C   0  0  0  0  0  0  0  0  0  0  0  0
    9.7942    3.5950    0.0000 C   0  0  0  0  0  0  0  0  0  0  0  0
    8.9282    5.0950    0.0000 C   0  0  0  0  0  0  0  0  0  0  0  0
    4.5981    3.5950    0.0000 C   0  0  0  0  0  0  0  0  0  0  0  0
    5.4641    5.0950    0.0000 C   0  0  0  0  0  0  0  0  0  0  0  0
    7.1962    1.0950    0.0000 C   0  0  0  0  0  0  0  0  0  0  0  0
    4.5981   -2.4050    0.0000 C   0  0  0  0  0  0  0  0  0  0  0  0
    4.5981   -3.4050    0.0000 C   0  0  0  0  0  0  0  0  0  0  0  0
    5.4641   -1.9050    0.0000 C   0  0  0  0  0  0  0  0  0  0  0  0
    6.3301    0.5950    0.0000 C   0  0  0  0  0  0  0  0  0  0  0  0
    3.7320   -3.9050    0.0000 C   0  0  0  0  0  0  0  0  0  0  0  0
    6.3301   -0.4050    0.0000 C   0  0  0  0  0  0  0  0  0  0  0  0
    2.8660   -3.4050    0.0000 C   0  0  0  0  0  0  0  0  0  0  0  0
    3.7320   -4.9050    0.0000 C   0  0  0  0  0  0  0  0  0  0  0  0
    2.0000   -3.9050    0.0000 C   0  0  0  0  0  0  0  0  0  0  0  0
    2.8660   -5.4050    0.0000 C   0  0  0  0  0  0  0  0  0  0  0  0
    5.4641    1.0950    0.0000 C   0  0  0  0  0  0  0  0  0  0  0  0
    2.0000   -4.9050    0.0000 C   0  0  0  0  0  0  0  0  0  0  0  0
    8.9282    3.4750    0.0000 H   0  0  0  0  0  0  0  0  0  0  0  0
    5.4641    3.4750    0.0000 H   0  0  0  0  0  0  0  0  0  0  0  0
    8.5991    2.2850    0.0000 H   0  0  0  0  0  0  0  0  0  0  0  0
    5.7932    2.2850    0.0000 H   0  0  0  0  0  0  0  0  0  0  0  0
    9.4842    3.0581    0.0000 H   0  0  0  0  0  0  0  0  0  0  0  0
   10.3312    3.2850    0.0000 H   0  0  0  0  0  0  0  0  0  0  0  0
   10.1042    4.1319    0.0000 H   0  0  0  0  0  0  0  0  0  0  0  0
    9.5482    5.0950    0.0000 H   0  0  0  0  0  0  0  0  0  0  0  0
    8.9282    5.7150    0.0000 H   0  0  0  0  0  0  0  0  0  0  0  0
    8.3082    5.0950    0.0000 H   0  0  0  0  0  0  0  0  0  0  0  0
    4.2881    4.1319    0.0000 H   0  0  0  0  0  0  0  0  0  0  0  0
    4.0611    3.2850    0.0000 H   0  0  0  0  0  0  0  0  0  0  0  0
    4.9081    3.0581    0.0000 H   0  0  0  0  0  0  0  0  0  0  0  0
    6.0841    5.0950    0.0000 H   0  0  0  0  0  0  0  0  0  0  0  0
    5.4641    5.7150    0.0000 H   0  0  0  0  0  0  0  0  0  0  0  0
    4.8441    5.0950    0.0000 H   0  0  0  0  0  0  0  0  0  0  0  0
    7.7331    0.7850    0.0000 H   0  0  0  0  0  0  0  0  0  0  0  0
    4.3860   -1.8224    0.0000 H   0  0  0  0  0  0  0  0  0  0  0  0
    3.9875   -2.5127    0.0000 H   0  0  0  0  0  0  0  0  0  0  0  0
    4.8101   -3.9876    0.0000 H   0  0  0  0  0  0  0  0  0  0  0  0
    5.2087   -3.2973    0.0000 H   0  0  0  0  0  0  0  0  0  0  0  0
    5.6762   -2.4876    0.0000 H   0  0  0  0  0  0  0  0  0  0  0  0
    6.0747   -1.7973    0.0000 H   0  0  0  0  0  0  0  0  0  0  0  0
    7.7331    5.4050    0.0000 H   0  0  0  0  0  0  0  0  0  0  0  0
    4.9272   -0.5950    0.0000 H   0  0  0  0  0  0  0  0  0  0  0  0
    2.8660   -2.7850    0.0000 H   0  0  0  0  0  0  0  0  0  0  0  0
    4.2690   -5.2150    0.0000 H   0  0  0  0  0  0  0  0  0  0  0  0
    1.4631   -3.5950    0.0000 H   0  0  0  0  0  0  0  0  0  0  0  0
    2.8660   -6.0250    0.0000 H   0  0  0  0  0  0  0  0  0  0  0  0
    1.4631   -5.2150    0.0000 H   0  0  0  0  0  0  0  0  0  0  0  0
  1  9  1  0  0  0  0
  1 53  1  0  0  0  0
  2 23  2  0  0  0  0
  3 20  1  0  0  0  0
  3 23  1  0  0  0  0
  3 54  1  0  0  0  0
  4 28  3  0  0  0  0
  5  7  1  0  0  0  0
  5 13  1  0  0  0  0
  5 14  1  0  0  0  0
  5 30  1  0  0  0  0
  6  8  1  0  0  0  0
  6 15  1  0  0  0  0
  6 16  1  0  0  0  0
  6 31  1  0  0  0  0
  7  9  2  0  0  0  0
  7 10  1  0  0  0  0
  8  9  1  0  0  0  0
  8 11  2  0  0  0  0
 10 12  2  0  0  0  0
 10 32  1  0  0  0  0
 11 12  1  0  0  0  0
 11 33  1  0  0  0  0
 12 17  1  0  0  0  0
 13 34  1  0  0  0  0
 13 35  1  0  0  0  0
 13 36  1  0  0  0  0
 14 37  1  0  0  0  0
 14 38  1  0  0  0  0
 14 39  1  0  0  0  0
 15 40  1  0  0  0  0
 15 41  1  0  0  0  0
 15 42  1  0  0  0  0
 16 43  1  0  0  0  0
 16 44  1  0  0  0  0
 16 45  1  0  0  0  0
 17 21  2  3  0  0  0
 17 46  1  0  0  0  0
 18 19  1  0  0  0  0
 18 20  1  0  0  0  0
 18 47  1  0  0  0  0
 18 48  1  0  0  0  0
 19 22  1  0  0  0  0
 19 49  1  0  0  0  0
 19 50  1  0  0  0  0
 20 51  1  0  0  0  0
 20 52  1  0  0  0  0
 21 23  1  0  0  0  0
 21 28  1  0  0  0  0
 22 24  2  0  0  0  0
 22 25  1  0  0  0  0
 24 26  1  0  0  0  0
 24 55  1  0  0  0  0
 25 27  2  0  0  0  0
 25 56  1  0  0  0  0
 26 29  2  0  0  0  0
 26 57  1  0  0  0  0
 27 29  1  0  0  0  0
 27 58  1  0  0  0  0
 29 59  1  0  0  0  0
M  END
> <PUBCHEM_COMPOUND_CID>
5305

> <PUBCHEM_COMPOUND_CANONICALIZED>
1

> <PUBCHEM_CACTVS_COMPLEXITY>
577

> <PUBCHEM_CACTVS_HBOND_ACCEPTOR>
3

> <PUBCHEM_CACTVS_HBOND_DONOR>
2

> <PUBCHEM_CACTVS_ROTATABLE_BOND>
8

> <PUBCHEM_CACTVS_SUBSKEYS>
AAADceB7MAAAAAAAAAAAAAAAAAAAAAAAAAAwYAAAAAAAAAABQAAAHgAQCAAADQTBmAQyBoLAAgCYBiFSEACiAAAgIAAIiIEMCMgIpiKCkRKEcAAk1hGImYeQwOAOoAACAAAIAABAAAQAABAAAAAAAAAAAA==

> <PUBCHEM_IUPAC_OPENEYE_NAME>
2-cyano-3-(4-hydroxy-3,5-diisopropyl-phenyl)-N-(3-phenylpropyl)prop-2-enamide

> <PUBCHEM_IUPAC_CAS_NAME>
2-cyano-3-[4-hydroxy-3,5-di(propan-2-yl)phenyl]-N-(3-phenylpropyl)-2-propenamide

> <PUBCHEM_IUPAC_NAME>
2-cyano-3-[4-hydroxy-3,5-di(propan-2-yl)phenyl]-N-(3-phenylpropyl)prop-2-enamide

> <PUBCHEM_IUPAC_SYSTEMATIC_NAME>
2-cyano-3-[4-oxidanyl-3,5-di(propan-2-yl)phenyl]-N-(3-phenylpropyl)prop-2-enamide

> <PUBCHEM_IUPAC_TRADITIONAL_NAME>
2-cyano-3-(4-hydroxy-3,5-diisopropyl-phenyl)-N-(3-phenylpropyl)acrylamide

> <PUBCHEM_IUPAC_INCHI>
InChI=1S/C25H30N2O2/c1-17(2)22-14-20(15-23(18(3)4)24(22)28)13-21(16-26)25(29)27-12-8-11-19-9-6-5-7-10-19/h5-7,9-10,13-15,17-18,28H,8,11-12H2,1-4H3,(H,27,29)

> <PUBCHEM_IUPAC_INCHIKEY>
JANPYFTYAGTSIN-UHFFFAOYSA-N

> <PUBCHEM_XLOGP3_AA>
5.8

> <PUBCHEM_EXACT_MASS>
390.230728

> <PUBCHEM_MOLECULAR_FORMULA>
C25H30N2O2

> <PUBCHEM_MOLECULAR_WEIGHT>
390.5179

> <PUBCHEM_OPENEYE_CAN_SMILES>
CC(C)C1=CC(=CC(=C1O)C(C)C)C=C(C#N)C(=O)NCCCC2=CC=CC=C2

> <PUBCHEM_OPENEYE_ISO_SMILES>
CC(C)C1=CC(=CC(=C1O)C(C)C)C=C(C#N)C(=O)NCCCC2=CC=CC=C2

> <PUBCHEM_CACTVS_TPSA>
73.1

> <PUBCHEM_MONOISOTOPIC_WEIGHT>
390.230728

> <PUBCHEM_TOTAL_CHARGE>
0

> <PUBCHEM_HEAVY_ATOM_COUNT>
29

> <PUBCHEM_ATOM_DEF_STEREO_COUNT>
0

> <PUBCHEM_ATOM_UDEF_STEREO_COUNT>
0

> <PUBCHEM_BOND_DEF_STEREO_COUNT>
0

> <PUBCHEM_BOND_UDEF_STEREO_COUNT>
1

> <PUBCHEM_ISOTOPIC_ATOM_COUNT>
0

> <PUBCHEM_COMPONENT_COUNT>
1

> <PUBCHEM_CACTVS_TAUTO_COUNT>
7

> <PUBCHEM_COORDINATE_TYPE>
1
5
255

> <PUBCHEM_BONDANNOTATIONS>
10  12  8
11  12  8
17  21  1
22  24  8
22  25  8
24  26  8
25  27  8
26  29  8
27  29  8
7  10  8
7  9  8
8  11  8
8  9  8

$$$$

