12598
  -OEChem-06261207083D

 60 63  0     0  0  0  0  0  0999 V2000
   -0.1808   -3.1875   -1.1661 S   0  0  0  0  0  0  0  0  0  0  0  0
   -5.9837    0.2067   -0.7399 O   0  0  0  0  0  0  0  0  0  0  0  0
    2.5573    1.4061   -0.6683 N   0  0  0  0  0  0  0  0  0  0  0  0
    5.3110    2.2757   -0.5275 N   0  0  0  0  0  0  0  0  0  0  0  0
   -0.1085   -0.5908    0.5418 N   0  0  0  0  0  0  0  0  0  0  0  0
    3.5487    0.9601   -1.6549 C   0  0  0  0  0  0  0  0  0  0  0  0
    2.9122    2.7329   -0.1498 C   0  0  0  0  0  0  0  0  0  0  0  0
    1.2160    1.4173   -1.2489 C   0  0  0  0  0  0  0  0  0  0  0  0
    4.9560    0.9498   -1.0481 C   0  0  0  0  0  0  0  0  0  0  0  0
    4.3189    2.7221    0.4583 C   0  0  0  0  0  0  0  0  0  0  0  0
    0.1434    1.7455   -0.2058 C   0  0  0  0  0  0  0  0  0  0  0  0
    0.1041    0.7922    0.9881 C   0  0  0  0  0  0  0  0  0  0  0  0
    6.6516    2.2631    0.0544 C   0  0  0  0  0  0  0  0  0  0  0  0
   -1.3566   -0.8990   -0.0563 C   0  0  0  0  0  0  0  0  0  0  0  0
    0.9243   -1.5268    0.8018 C   0  0  0  0  0  0  0  0  0  0  0  0
   -1.5215   -2.0619   -0.8346 C   0  0  0  0  0  0  0  0  0  0  0  0
    0.9854   -2.7519    0.1086 C   0  0  0  0  0  0  0  0  0  0  0  0
   -2.4948   -0.0833    0.1260 C   0  0  0  0  0  0  0  0  0  0  0  0
    1.9125   -1.2964    1.7839 C   0  0  0  0  0  0  0  0  0  0  0  0
   -3.7282   -0.3934   -0.4534 C   0  0  0  0  0  0  0  0  0  0  0  0
   -2.7635   -2.3664   -1.4194 C   0  0  0  0  0  0  0  0  0  0  0  0
    2.0078   -3.6798    0.3756 C   0  0  0  0  0  0  0  0  0  0  0  0
   -3.8618   -1.5345   -1.2298 C   0  0  0  0  0  0  0  0  0  0  0  0
    2.9236   -2.2241    2.0485 C   0  0  0  0  0  0  0  0  0  0  0  0
   -4.8743    0.4753   -0.2355 C   0  0  0  0  0  0  0  0  0  0  0  0
    2.9732   -3.4157    1.3413 C   0  0  0  0  0  0  0  0  0  0  0  0
   -4.7254    1.7425    0.6269 C   0  0  0  0  0  0  0  0  0  0  0  0
   -6.0254    2.5329    0.7763 C   0  0  0  0  0  0  0  0  0  0  0  0
   -5.8215    3.7894    1.6068 C   0  0  0  0  0  0  0  0  0  0  0  0
    3.5344    1.6046   -2.5443 H   0  0  0  0  0  0  0  0  0  0  0  0
    3.3103   -0.0583   -1.9852 H   0  0  0  0  0  0  0  0  0  0  0  0
    2.2394    3.0444    0.6548 H   0  0  0  0  0  0  0  0  0  0  0  0
    2.8567    3.4932   -0.9406 H   0  0  0  0  0  0  0  0  0  0  0  0
    0.9937    0.4397   -1.6936 H   0  0  0  0  0  0  0  0  0  0  0  0
    1.1510    2.1476   -2.0664 H   0  0  0  0  0  0  0  0  0  0  0  0
    5.6665    0.6560   -1.8301 H   0  0  0  0  0  0  0  0  0  0  0  0
    5.0095    0.1906   -0.2557 H   0  0  0  0  0  0  0  0  0  0  0  0
    4.3319    2.0762    1.3470 H   0  0  0  0  0  0  0  0  0  0  0  0
    4.5595    3.7394    0.7905 H   0  0  0  0  0  0  0  0  0  0  0  0
   -0.8179    1.7526   -0.7315 H   0  0  0  0  0  0  0  0  0  0  0  0
    0.2461    2.7734    0.1599 H   0  0  0  0  0  0  0  0  0  0  0  0
    1.0347    0.9684    1.5267 H   0  0  0  0  0  0  0  0  0  0  0  0
   -0.6610    1.0958    1.7122 H   0  0  0  0  0  0  0  0  0  0  0  0
    6.9298    3.2647    0.4006 H   0  0  0  0  0  0  0  0  0  0  0  0
    7.3940    1.9731   -0.6975 H   0  0  0  0  0  0  0  0  0  0  0  0
    6.7300    1.5715    0.9010 H   0  0  0  0  0  0  0  0  0  0  0  0
   -2.4212    0.7995    0.7487 H   0  0  0  0  0  0  0  0  0  0  0  0
    1.9142   -0.4242    2.4286 H   0  0  0  0  0  0  0  0  0  0  0  0
   -2.8882   -3.2584   -2.0303 H   0  0  0  0  0  0  0  0  0  0  0  0
    2.0623   -4.6213   -0.1674 H   0  0  0  0  0  0  0  0  0  0  0  0
   -4.8068   -1.8021   -1.6942 H   0  0  0  0  0  0  0  0  0  0  0  0
    3.6621   -2.0168    2.8176 H   0  0  0  0  0  0  0  0  0  0  0  0
    3.7560   -4.1401    1.5437 H   0  0  0  0  0  0  0  0  0  0  0  0
   -3.9713    2.3866    0.1599 H   0  0  0  0  0  0  0  0  0  0  0  0
   -4.3846    1.4427    1.6246 H   0  0  0  0  0  0  0  0  0  0  0  0
   -6.7911    1.9052    1.2474 H   0  0  0  0  0  0  0  0  0  0  0  0
   -6.4083    2.8121   -0.2125 H   0  0  0  0  0  0  0  0  0  0  0  0
   -5.4702    3.5415    2.6135 H   0  0  0  0  0  0  0  0  0  0  0  0
   -6.7636    4.3383    1.7014 H   0  0  0  0  0  0  0  0  0  0  0  0
   -5.0870    4.4535    1.1400 H   0  0  0  0  0  0  0  0  0  0  0  0
  1 16  1  0  0  0  0
  1 17  1  0  0  0  0
  2 25  2  0  0  0  0
  3  6  1  0  0  0  0
  3  7  1  0  0  0  0
  3  8  1  0  0  0  0
  4  9  1  0  0  0  0
  4 10  1  0  0  0  0
  4 13  1  0  0  0  0
  5 12  1  0  0  0  0
  5 14  1  0  0  0  0
  5 15  1  0  0  0  0
  6  9  1  0  0  0  0
  6 30  1  0  0  0  0
  6 31  1  0  0  0  0
  7 10  1  0  0  0  0
  7 32  1  0  0  0  0
  7 33  1  0  0  0  0
  8 11  1  0  0  0  0
  8 34  1  0  0  0  0
  8 35  1  0  0  0  0
  9 36  1  0  0  0  0
  9 37  1  0  0  0  0
 10 38  1  0  0  0  0
 10 39  1  0  0  0  0
 11 12  1  0  0  0  0
 11 40  1  0  0  0  0
 11 41  1  0  0  0  0
 12 42  1  0  0  0  0
 12 43  1  0  0  0  0
 13 44  1  0  0  0  0
 13 45  1  0  0  0  0
 13 46  1  0  0  0  0
 14 16  2  0  0  0  0
 14 18  1  0  0  0  0
 15 17  1  0  0  0  0
 15 19  2  0  0  0  0
 16 21  1  0  0  0  0
 17 22  2  0  0  0  0
 18 20  2  0  0  0  0
 18 47  1  0  0  0  0
 19 24  1  0  0  0  0
 19 48  1  0  0  0  0
 20 23  1  0  0  0  0
 20 25  1  0  0  0  0
 21 23  2  0  0  0  0
 21 49  1  0  0  0  0
 22 26  1  0  0  0  0
 22 50  1  0  0  0  0
 23 51  1  0  0  0  0
 24 26  2  0  0  0  0
 24 52  1  0  0  0  0
 25 27  1  0  0  0  0
 26 53  1  0  0  0  0
 27 28  1  0  0  0  0
 27 54  1  0  0  0  0
 27 55  1  0  0  0  0
 28 29  1  0  0  0  0
 28 56  1  0  0  0  0
 28 57  1  0  0  0  0
 29 58  1  0  0  0  0
 29 59  1  0  0  0  0
 29 60  1  0  0  0  0
M  END
> <PUBCHEM_COMPOUND_CID>
12598

> <PUBCHEM_CONFORMER_RMSD>
1

> <PUBCHEM_CONFORMER_DIVERSEORDER>
3
90
23
110
44
104
88
108
28
24
43
72
97
37
22
16
61
69
99
82
106
8
83
32
40
98
64
39
17
31
94
77
1
6
46
51
111
59
20
55
86
105
107
76
38
96
9
36
47
79
53
48
33
63
78
12
35
103
29
60
2
21
4
10
89
15
84
18
13
70
54
65
41
80
30
25
52
11
27
81
109
45
73
58
101
26
85
102
68
5
74
49
95
87
42
56
93
100
7
34
14
50
71
66
62
57
91
67
75
92
19

> <PUBCHEM_MMFF94_PARTIAL_CHARGES>
33
1 -0.2
10 0.27
12 0.37
13 0.27
14 0.1
15 0.1
16 0.1
17 0.1
18 -0.15
19 -0.15
2 -0.57
20 0.09
21 -0.15
22 -0.15
23 -0.15
24 -0.15
25 0.42
26 -0.15
27 0.06
3 -0.81
4 -0.81
47 0.15
48 0.15
49 0.15
5 -0.57
50 0.15
51 0.15
52 0.15
53 0.15
6 0.27
7 0.27
8 0.27
9 0.27

> <PUBCHEM_EFFECTIVE_ROTOR_COUNT>
8.6

> <PUBCHEM_PHARMACOPHORE_FEATURES>
9
1 2 acceptor
1 29 hydrophobe
1 3 cation
1 4 cation
1 5 cation
6 1 5 14 15 16 17 rings
6 14 16 18 20 21 23 rings
6 15 17 19 22 24 26 rings
6 3 4 6 7 9 10 rings

> <PUBCHEM_HEAVY_ATOM_COUNT>
29

> <PUBCHEM_ATOM_DEF_STEREO_COUNT>
0

> <PUBCHEM_ATOM_UDEF_STEREO_COUNT>
0

> <PUBCHEM_BOND_DEF_STEREO_COUNT>
0

> <PUBCHEM_BOND_UDEF_STEREO_COUNT>
0

> <PUBCHEM_ISOTOPIC_ATOM_COUNT>
0

> <PUBCHEM_COMPONENT_COUNT>
1

> <PUBCHEM_CACTVS_TAUTO_COUNT>
2

> <PUBCHEM_CONFORMER_ID>
0000313600000003

> <PUBCHEM_MMFF94_ENERGY>
84.8861

> <PUBCHEM_FEATURE_SELFOVERLAP>
45.702

> <PUBCHEM_SHAPE_FINGERPRINT>
10816530 90 18193547002814821685
11135609 201 18115009871697706305
12035759 4 18408318895693796334
12422481 6 17773344359569529928
13165053 137 6166121638927520368
13540713 5 18336560386373318567
14400156 188 17262717678151228331
144659 178 17250894027498749185
14675019 173 17762616587378034459
14739800 52 18187379704977978345
14790565 3 18408886217733715731
15420108 30 18409171008393666991
15664445 248 18118675758865118422
1813 80 17984431994414439755
20567600 9 18410857659293946096
20642791 178 18336273430554199155
20642791 35 18337663239237341486
21033648 144 18272939332380813357
21304253 335 17752215135050203059
21421861 104 18271242854010025024
21424621 283 18338231570674495336
22393880 68 18189060793626109447
23559900 14 17531525506944216526
25147074 1 18337121115912790599
3411729 13 18271518779788671489
38695281 34 18411699851026057806
4516262 110 18342745100608925013
5104073 3 18200584908958513369
5283173 99 18042120960263418952
5385378 56 18271803544742115936

> <PUBCHEM_SHAPE_MULTIPOLES>
579.84
13.1
5.01
1.58
6.82
0.8
0.28
-15.26
0.56
-1.76
1.01
-0.42
0.51
-4.34

> <PUBCHEM_SHAPE_SELFOVERLAP>
1212.558

> <PUBCHEM_SHAPE_VOLUME>
329.5

> <PUBCHEM_COORDINATE_TYPE>
2
5
10

$$$$

