4702
  -OEChem-06261200173D

 22 22  0     1  0  0  0  0  0999 V2000
    1.5234   -1.9197   -0.8350 S   0  0  0  0  0  0  0  0  0  0  0  0
    3.1729    1.5636   -0.3769 O   0  0  0  0  0  0  0  0  0  0  0  0
    3.7543   -0.4339    0.5214 O   0  0  0  0  0  0  0  0  0  0  0  0
    0.5489    0.0919    0.8036 C   0  0  0  0  0  0  0  0  0  0  0  0
    1.5042   -0.1477   -0.3819 C   0  0  1  0  0  0  0  0  0  0  0  0
   -0.8911    0.0939    0.4144 C   0  0  0  0  0  0  0  0  0  0  0  0
   -1.5098    1.2854    0.0361 C   0  0  0  0  0  0  0  0  0  0  0  0
   -1.6191   -1.0959    0.4290 C   0  0  0  0  0  0  0  0  0  0  0  0
    2.9227    0.2720   -0.0351 C   0  0  0  0  0  0  0  0  0  0  0  0
   -2.8563    1.2872   -0.3275 C   0  0  0  0  0  0  0  0  0  0  0  0
   -2.9657   -1.0942    0.0651 C   0  0  0  0  0  0  0  0  0  0  0  0
   -3.5844    0.0974   -0.3132 C   0  0  0  0  0  0  0  0  0  0  0  0
    0.7844    1.0633    1.2614 H   0  0  0  0  0  0  0  0  0  0  0  0
    0.7272   -0.6322    1.6109 H   0  0  0  0  0  0  0  0  0  0  0  0
    1.1886    0.4064   -1.2732 H   0  0  0  0  0  0  0  0  0  0  0  0
   -0.9534    2.2188    0.0181 H   0  0  0  0  0  0  0  0  0  0  0  0
   -1.1588   -2.0309    0.7360 H   0  0  0  0  0  0  0  0  0  0  0  0
   -3.3381    2.2148   -0.6225 H   0  0  0  0  0  0  0  0  0  0  0  0
   -3.5335   -2.0200    0.0798 H   0  0  0  0  0  0  0  0  0  0  0  0
   -4.6330    0.0989   -0.5957 H   0  0  0  0  0  0  0  0  0  0  0  0
    1.9480   -2.3821    0.3504 H   0  0  0  0  0  0  0  0  0  0  0  0
    4.0834    1.8360   -0.1338 H   0  0  0  0  0  0  0  0  0  0  0  0
  1  5  1  0  0  0  0
  1 21  1  0  0  0  0
  2  9  1  0  0  0  0
  2 22  1  0  0  0  0
  3  9  2  0  0  0  0
  4  5  1  0  0  0  0
  4  6  1  0  0  0  0
  4 13  1  0  0  0  0
  4 14  1  0  0  0  0
  5  9  1  0  0  0  0
  5 15  1  0  0  0  0
  6  7  2  0  0  0  0
  6  8  1  0  0  0  0
  7 10  1  0  0  0  0
  7 16  1  0  0  0  0
  8 11  2  0  0  0  0
  8 17  1  0  0  0  0
 10 12  2  0  0  0  0
 10 18  1  0  0  0  0
 11 12  1  0  0  0  0
 11 19  1  0  0  0  0
 12 20  1  0  0  0  0
M  END
> <PUBCHEM_COMPOUND_CID>
4702

> <PUBCHEM_CONFORMER_RMSD>
0.6

> <PUBCHEM_CONFORMER_DIVERSEORDER>
7
5
11
12
14
6
1
8
3
4
13
10
2
9

> <PUBCHEM_MMFF94_PARTIAL_CHARGES>
19
1 -0.41
10 -0.15
11 -0.15
12 -0.15
16 0.15
17 0.15
18 0.15
19 0.15
2 -0.65
20 0.15
21 0.18
22 0.5
3 -0.57
4 0.14
5 0.29
6 -0.14
7 -0.15
8 -0.15
9 0.66

> <PUBCHEM_EFFECTIVE_ROTOR_COUNT>
3

> <PUBCHEM_PHARMACOPHORE_FEATURES>
4
1 2 acceptor
1 3 acceptor
3 2 3 9 anion
6 6 7 8 10 11 12 rings

> <PUBCHEM_HEAVY_ATOM_COUNT>
12

> <PUBCHEM_ATOM_DEF_STEREO_COUNT>
0

> <PUBCHEM_ATOM_UDEF_STEREO_COUNT>
1

> <PUBCHEM_BOND_DEF_STEREO_COUNT>
0

> <PUBCHEM_BOND_UDEF_STEREO_COUNT>
0

> <PUBCHEM_ISOTOPIC_ATOM_COUNT>
0

> <PUBCHEM_COMPONENT_COUNT>
1

> <PUBCHEM_CACTVS_TAUTO_COUNT>
1

> <PUBCHEM_CONFORMER_ID>
0000125E00000007

> <PUBCHEM_MMFF94_ENERGY>
26.994

> <PUBCHEM_FEATURE_SELFOVERLAP>
20.357

> <PUBCHEM_SHAPE_FINGERPRINT>
10608611 8 18411139159914119885
12162725 195 18343301465949894876
12897270 3 18335416863545162629
12932764 1 17632012060702476001
13024252 1 17346597470143415595
13380535 76 18410576205649997923
14325111 11 18412825776549366104
14415576 193 18411696582592635164
15219456 202 18334852878763313287
15310529 11 18113621226528077431
15775835 57 17489592311140880373
16945 1 18040714749283782875
17134986 127 17549266286426183981
18186145 218 18192425488248864469
190213 19 13912322373801361593
200 152 17676212389679537919
20201158 50 18334012813087778135
20279233 1 18333448768002124943
20645477 56 18270679891499028901
20645477 70 17896038917847408807
20653085 51 18196644314644410817
20671657 53 17754161300385252526
21501502 16 18115866472211138803
23402539 116 18342188768745984215
23552423 10 18267302213042223915
23559900 14 18263929998227002570
3248919 1 18260265295336849697
6333449 129 18411139143150637737
7364860 26 18195813096380472626
8030462 33 17313097609349090632
9709674 26 18410288133703981351

> <PUBCHEM_SHAPE_MULTIPOLES>
239.07
6.33
1.64
0.82
1.41
0.28
0
-0.79
0.43
0.2
0.32
0.11
0.1
0.28

> <PUBCHEM_SHAPE_SELFOVERLAP>
478.828

> <PUBCHEM_SHAPE_VOLUME>
141.6

> <PUBCHEM_COORDINATE_TYPE>
2
5
10

$$$$

