7189
  -OEChem-06261201533D

 28 29  0     0  0  0  0  0  0999 V2000
    1.2417   -2.2210    0.4797 O   0  0  0  0  0  0  0  0  0  0  0  0
    2.4676   -0.2627    0.0707 C   0  0  0  0  0  0  0  0  0  0  0  0
   -2.5673   -0.2928    0.0601 C   0  0  0  0  0  0  0  0  0  0  0  0
    1.2036   -1.0184    0.2442 C   0  0  0  0  0  0  0  0  0  0  0  0
   -1.2597   -0.9128    0.2068 C   0  0  0  0  0  0  0  0  0  0  0  0
   -0.0756   -0.2708    0.0902 C   0  0  0  0  0  0  0  0  0  0  0  0
    2.4949    1.0787    0.3962 C   0  0  0  0  0  0  0  0  0  0  0  0
    3.5805   -0.9229   -0.4113 C   0  0  0  0  0  0  0  0  0  0  0  0
   -2.7031    1.0890    0.1936 C   0  0  0  0  0  0  0  0  0  0  0  0
   -3.6857   -1.0803   -0.2141 C   0  0  0  0  0  0  0  0  0  0  0  0
    3.6841    1.7893    0.2333 C   0  0  0  0  0  0  0  0  0  0  0  0
    4.7697   -0.2124   -0.5741 C   0  0  0  0  0  0  0  0  0  0  0  0
   -3.9572    1.6833    0.0529 C   0  0  0  0  0  0  0  0  0  0  0  0
   -4.9396   -0.4858   -0.3550 C   0  0  0  0  0  0  0  0  0  0  0  0
    4.8216    1.1438   -0.2518 C   0  0  0  0  0  0  0  0  0  0  0  0
   -5.0755    0.8960   -0.2215 C   0  0  0  0  0  0  0  0  0  0  0  0
   -1.2717   -1.9765    0.4344 H   0  0  0  0  0  0  0  0  0  0  0  0
   -0.0346    0.7730   -0.1915 H   0  0  0  0  0  0  0  0  0  0  0  0
    1.6461    1.6090    0.8148 H   0  0  0  0  0  0  0  0  0  0  0  0
    3.5547   -1.9770   -0.6711 H   0  0  0  0  0  0  0  0  0  0  0  0
   -1.8658    1.7398    0.4283 H   0  0  0  0  0  0  0  0  0  0  0  0
   -3.5993   -2.1588   -0.3228 H   0  0  0  0  0  0  0  0  0  0  0  0
    3.7277    2.8430    0.4930 H   0  0  0  0  0  0  0  0  0  0  0  0
    5.6552   -0.7147   -0.9525 H   0  0  0  0  0  0  0  0  0  0  0  0
   -4.0646    2.7586    0.1618 H   0  0  0  0  0  0  0  0  0  0  0  0
   -5.8104   -1.0987   -0.5686 H   0  0  0  0  0  0  0  0  0  0  0  0
    5.7480    1.6966   -0.3767 H   0  0  0  0  0  0  0  0  0  0  0  0
   -6.0520    1.3587   -0.3300 H   0  0  0  0  0  0  0  0  0  0  0  0
  1  4  2  0  0  0  0
  2  4  1  0  0  0  0
  2  7  2  0  0  0  0
  2  8  1  0  0  0  0
  3  5  1  0  0  0  0
  3  9  2  0  0  0  0
  3 10  1  0  0  0  0
  4  6  1  0  0  0  0
  5  6  2  0  0  0  0
  5 17  1  0  0  0  0
  6 18  1  0  0  0  0
  7 11  1  0  0  0  0
  7 19  1  0  0  0  0
  8 12  2  0  0  0  0
  8 20  1  0  0  0  0
  9 13  1  0  0  0  0
  9 21  1  0  0  0  0
 10 14  2  0  0  0  0
 10 22  1  0  0  0  0
 11 15  2  0  0  0  0
 11 23  1  0  0  0  0
 12 15  1  0  0  0  0
 12 24  1  0  0  0  0
 13 16  2  0  0  0  0
 13 25  1  0  0  0  0
 14 16  1  0  0  0  0
 14 26  1  0  0  0  0
 15 27  1  0  0  0  0
 16 28  1  0  0  0  0
M  END
> <PUBCHEM_COMPOUND_CID>
7189

> <PUBCHEM_CONFORMER_RMSD>
0.6

> <PUBCHEM_CONFORMER_DIVERSEORDER>
1
5
6
2
3
4
7

> <PUBCHEM_MMFF94_PARTIAL_CHARGES>
28
1 -0.57
10 -0.15
11 -0.15
12 -0.15
13 -0.15
14 -0.15
15 -0.15
16 -0.15
17 0.15
18 0.15
19 0.15
2 0.09
20 0.15
21 0.15
22 0.15
23 0.15
24 0.15
25 0.15
26 0.15
27 0.15
28 0.15
3 0.03
4 0.47
5 -0.18
6 -0.14
7 -0.15
8 -0.15
9 -0.15

> <PUBCHEM_EFFECTIVE_ROTOR_COUNT>
3

> <PUBCHEM_PHARMACOPHORE_FEATURES>
3
1 1 acceptor
6 2 7 8 11 12 15 rings
6 3 9 10 13 14 16 rings

> <PUBCHEM_HEAVY_ATOM_COUNT>
16

> <PUBCHEM_ATOM_DEF_STEREO_COUNT>
0

> <PUBCHEM_ATOM_UDEF_STEREO_COUNT>
0

> <PUBCHEM_BOND_DEF_STEREO_COUNT>
0

> <PUBCHEM_BOND_UDEF_STEREO_COUNT>
1

> <PUBCHEM_ISOTOPIC_ATOM_COUNT>
0

> <PUBCHEM_COMPONENT_COUNT>
1

> <PUBCHEM_CACTVS_TAUTO_COUNT>
1

> <PUBCHEM_CONFORMER_ID>
00001C1500000001

> <PUBCHEM_MMFF94_ENERGY>
50.4564

> <PUBCHEM_FEATURE_SELFOVERLAP>
15.223

> <PUBCHEM_SHAPE_FINGERPRINT>
10014705 185 18272938254286265741
10498660 4 18413112787776312317
11471102 20 18408038512028824686
12107183 9 17689436413648043595
12596602 18 14261343652615471452
12730499 353 18340759399135026282
12916748 109 18412258419801185187
13081056 2 18409729551657985725
13533116 47 17346046678915687195
14251764 18 18202289096183706210
14252887 29 11311783894904523312
14415576 193 18409446998728775990
14528608 73 18410296895579008053
15196674 1 18410012139031329985
15239154 128 18411136952538196077
17834072 33 18261114062679449567
17834072 8 18260540139622520852
17959699 21 18409448093855973577
18186145 218 18343306976297834246
193927 3 7132425869956636925
200 152 17749390369055047051
20300324 65 18260268538722888781
20432913 95 9367347054420268213
20645477 56 18271524286622365341
20645477 70 18040709312224808950
212847 35 18272088301648645668
21652331 79 18412828001506274069
221357 26 18187083966071888217
22289505 5 18333732455203634164
22854114 59 18060139838264931149
23402539 116 18261397736489427334
23402655 69 18260265239913705468
23557571 272 18187639189853397613
23559900 14 18188776187634577194
245318 6 16984606192865401524
2916195 48 18189343385758794256
29717793 49 17095516327302599556
34797466 226 17676198035751421309
351380 180 18408605850974852220
351380 3 7204778081238943860
3545911 37 18341610430246487975
4028521 119 18413393150488076261
4214541 1 18408322194249596813
474 4 17988921141444658348
495365 180 17531254903346974216
4990 188 18113893875410389350
5104073 3 18342175591833897483
5281201 14 18187075183111226804
542803 24 17704352173557678445
633830 44 18412830166169694078
7495541 125 16660930967383838850
77779 3 18408322198449605599

> <PUBCHEM_SHAPE_MULTIPOLES>
323.4
12.2
1.78
0.69
2.48
0.12
0.01
3.53
1.98
-0.29
-0.16
-0.13
-0.02
0.05

> <PUBCHEM_SHAPE_SELFOVERLAP>
695.483

> <PUBCHEM_SHAPE_VOLUME>
177.9

> <PUBCHEM_COORDINATE_TYPE>
2
5
10

$$$$

