17395331
  -OEChem-06241222493D

 33 35  0     1  0  0  0  0  0999 V2000
   -1.2262    0.5220    1.0544 S   0  0  0  0  0  0  0  0  0  0  0  0
    5.6462   -0.7383    0.6055 S   0  0  0  0  0  0  0  0  0  0  0  0
   -1.3443   -3.1071   -0.0760 O   0  0  0  0  0  0  0  0  0  0  0  0
    1.5308    0.7757   -0.7215 O   0  0  0  0  0  0  0  0  0  0  0  0
   -3.0353   -1.5927   -0.2745 N   0  0  0  0  0  0  0  0  0  0  0  0
    3.0320   -0.7103    0.2627 N   0  0  0  0  0  0  0  0  0  0  0  0
    4.2384    1.1103   -0.6001 N   0  0  0  0  0  0  0  0  0  0  0  0
   -0.7058   -0.7836   -0.0865 C   0  0  1  0  0  0  0  0  0  0  0  0
    0.6930   -1.2529    0.2987 C   0  0  0  0  0  0  0  0  0  0  0  0
   -1.7071   -1.9287   -0.1005 C   0  0  0  0  0  0  0  0  0  0  0  0
   -2.8748    0.7556    0.4294 C   0  0  0  0  0  0  0  0  0  0  0  0
   -3.5897   -0.3054   -0.1382 C   0  0  0  0  0  0  0  0  0  0  0  0
    1.7666   -0.2697   -0.1216 C   0  0  0  0  0  0  0  0  0  0  0  0
   -3.4933    2.0030    0.5793 C   0  0  0  0  0  0  0  0  0  0  0  0
   -4.9197   -0.1172   -0.5339 C   0  0  0  0  0  0  0  0  0  0  0  0
    4.1803   -0.0225    0.0148 C   0  0  0  0  0  0  0  0  0  0  0  0
    6.4855    0.8394    0.3666 C   0  0  0  0  0  0  0  0  0  0  0  0
    5.6598    1.5006   -0.7286 C   0  0  0  0  0  0  0  0  0  0  0  0
   -4.8114    2.1908    0.1618 C   0  0  0  0  0  0  0  0  0  0  0  0
   -5.5249    1.1310   -0.3916 C   0  0  0  0  0  0  0  0  0  0  0  0
   -0.6952   -0.3708   -1.1037 H   0  0  0  0  0  0  0  0  0  0  0  0
    0.9299   -2.1930   -0.2174 H   0  0  0  0  0  0  0  0  0  0  0  0
    0.7764   -1.4567    1.3738 H   0  0  0  0  0  0  0  0  0  0  0  0
   -3.6806   -2.3487   -0.4884 H   0  0  0  0  0  0  0  0  0  0  0  0
    3.1135   -1.5927    0.7606 H   0  0  0  0  0  0  0  0  0  0  0  0
   -2.9618    2.8397    1.0271 H   0  0  0  0  0  0  0  0  0  0  0  0
   -5.4932   -0.9365   -0.9609 H   0  0  0  0  0  0  0  0  0  0  0  0
    7.5329    0.7144    0.0810 H   0  0  0  0  0  0  0  0  0  0  0  0
    6.4308    1.4149    1.2961 H   0  0  0  0  0  0  0  0  0  0  0  0
    5.7487    2.5900   -0.6594 H   0  0  0  0  0  0  0  0  0  0  0  0
    6.0189    1.2080   -1.7233 H   0  0  0  0  0  0  0  0  0  0  0  0
   -5.2843    3.1616    0.2787 H   0  0  0  0  0  0  0  0  0  0  0  0
   -6.5540    1.2747   -0.7075 H   0  0  0  0  0  0  0  0  0  0  0  0
  1  8  1  0  0  0  0
  1 11  1  0  0  0  0
  2 16  1  0  0  0  0
  2 17  1  0  0  0  0
  3 10  2  0  0  0  0
  4 13  2  0  0  0  0
  5 10  1  0  0  0  0
  5 12  1  0  0  0  0
  5 24  1  0  0  0  0
  6 13  1  0  0  0  0
  6 16  1  0  0  0  0
  6 25  1  0  0  0  0
  7 16  2  0  0  0  0
  7 18  1  0  0  0  0
  8  9  1  0  0  0  0
  8 10  1  0  0  0  0
  8 21  1  0  0  0  0
  9 13  1  0  0  0  0
  9 22  1  0  0  0  0
  9 23  1  0  0  0  0
 11 12  1  0  0  0  0
 11 14  2  0  0  0  0
 12 15  2  0  0  0  0
 14 19  1  0  0  0  0
 14 26  1  0  0  0  0
 15 20  1  0  0  0  0
 15 27  1  0  0  0  0
 17 18  1  0  0  0  0
 17 28  1  0  0  0  0
 17 29  1  0  0  0  0
 18 30  1  0  0  0  0
 18 31  1  0  0  0  0
 19 20  2  0  0  0  0
 19 32  1  0  0  0  0
 20 33  1  0  0  0  0
M  END
> <PUBCHEM_COMPOUND_CID>
17395331

> <PUBCHEM_CONFORMER_RMSD>
0.8

> <PUBCHEM_CONFORMER_DIVERSEORDER>
1
94
50
58
14
79
15
67
9
66
27
54
87
84
64
3
88
68
36
72
25
92
19
81
10
85
29
30
60
24
62
2
96
90
31
39
69
97
80
86
26
52
35
28
17
93
77
20
12
95
53
4
18
91
34
23
55
71
7
32
48
11
89
40
98
47
21
76
33
13
37
46
43
83
6
49
45
22
44
57
59
73
78
41
61
38
63
8
56
16
74
75
5
70
82
65
51
42

> <PUBCHEM_MMFF94_PARTIAL_CHARGES>
26
1 -0.33
10 0.57
11 0.1
12 0.12
13 0.57
14 -0.15
15 -0.15
16 0.65
17 0.23
18 0.25
19 -0.15
2 -0.37
20 -0.15
24 0.37
25 0.37
26 0.15
27 0.15
3 -0.57
32 0.15
33 0.15
4 -0.57
5 -0.55
6 -0.49
7 -0.7
8 0.29
9 0.06

> <PUBCHEM_EFFECTIVE_ROTOR_COUNT>
5.2

> <PUBCHEM_PHARMACOPHORE_FEATURES>
7
1 3 acceptor
1 4 acceptor
1 5 donor
1 6 donor
5 2 7 16 17 18 rings
6 1 5 8 10 11 12 rings
6 11 12 14 15 19 20 rings

> <PUBCHEM_HEAVY_ATOM_COUNT>
20

> <PUBCHEM_ATOM_DEF_STEREO_COUNT>
0

> <PUBCHEM_ATOM_UDEF_STEREO_COUNT>
1

> <PUBCHEM_BOND_DEF_STEREO_COUNT>
0

> <PUBCHEM_BOND_UDEF_STEREO_COUNT>
0

> <PUBCHEM_ISOTOPIC_ATOM_COUNT>
0

> <PUBCHEM_COMPONENT_COUNT>
1

> <PUBCHEM_CACTVS_TAUTO_COUNT>
6

> <PUBCHEM_CONFORMER_ID>
01096E8300000001

> <PUBCHEM_MMFF94_ENERGY>
48.1293

> <PUBCHEM_FEATURE_SELFOVERLAP>
35.538

> <PUBCHEM_SHAPE_FINGERPRINT>
10014705 185 18411416206821395642
10366900 7 16950280711150492786
10411042 1 17832989343746684743
10595046 47 18340770317600983070
10730089 173 18334575750040285520
11089746 13 18409173199365135768
117890 112 18409168809918985344
12107183 9 18197505228212819162
12236239 1 18272937124108447690
12390115 104 18042108994885017689
12507557 5 17775559836960785429
12596602 18 17632857507835039464
12616971 3 17489591130694715740
12760667 363 9943804469972088969
13073987 5 18271807874512424546
13167372 99 18341896329166484368
13533116 47 17895478145817153666
13785724 45 17764314242628572762
14251764 75 17611174250190178025
14767858 380 18262253166075285855
15183329 4 18409727387569234636
15348495 7 14907887246420054932
167882 2 18042963357768872118
18222031 100 5833989438974192666
19489759 90 18113056030111607304
200 152 6699806479725024775
20281389 69 18202004343319163300
20511986 3 18341909471718716576
20645477 56 18408602556718982107
20645477 70 16298654084535112942
21150785 3 6771863013897677952
22950370 63 9223223053113653712
23035841 295 9151173160005042988
23402539 116 18260836998628799229
23559900 14 18041006094143085808
268830 7 17774731857650119588
2767999 5 18411702101525656336
2838139 119 18341899618668542525
300161 21 18409170991883639114
3004659 81 18336827598043006146
34797466 226 17458336391504453044
351380 3 8358255934445059964
4073 2 18130783414081267610
4214541 1 18410855439048957710
441001 317 18335138682829584049
465052 167 10447925088378016424
474 4 17846212237393933480
5104073 3 17988366966932226280
542803 24 18059856164644805440
559249 180 18411140247052665714
6299153 45 18268997651719911058
6327066 14 18340773757943874477
6328613 192 18342734084181444844
7062679 6 18412541007485934780
9965369 4 18339646745376426578
9981440 41 18411414029711554467

> <PUBCHEM_SHAPE_MULTIPOLES>
392.61
15.28
2.24
0.83
15.18
0.76
-0.07
-7.69
0.86
-1.83
0.04
0.14
-0.15
-0.94

> <PUBCHEM_SHAPE_SELFOVERLAP>
813.988

> <PUBCHEM_SHAPE_VOLUME>
223.7

> <PUBCHEM_COORDINATE_TYPE>
2
5
10

$$$$

