8685
  -OEChem-06261203002D

 31 30  0     0  0  0  0  0  0999 V2000
    7.1962    0.7500    0.0000 S   0  0  0  0  0  0  0  0  0  0  0  0
    6.3301    2.2500    0.0000 S   0  0  0  0  0  0  0  0  0  0  0  0
    5.4641    0.7500    0.0000 N   0  0  0  0  0  0  0  0  0  0  0  0
    4.5981    1.2500    0.0000 C   0  0  0  0  0  0  0  0  0  0  0  0
    5.4641   -0.2500    0.0000 C   0  0  0  0  0  0  0  0  0  0  0  0
    3.7320    0.7500    0.0000 C   0  0  0  0  0  0  0  0  0  0  0  0
    4.5981   -0.7500    0.0000 C   0  0  0  0  0  0  0  0  0  0  0  0
    2.8660    1.2500    0.0000 C   0  0  0  0  0  0  0  0  0  0  0  0
    4.5981   -1.7500    0.0000 C   0  0  0  0  0  0  0  0  0  0  0  0
    6.3301    1.2500    0.0000 C   0  0  0  0  0  0  0  0  0  0  0  0
    2.0000    0.7500    0.0000 C   0  0  0  0  0  0  0  0  0  0  0  0
    3.7320   -2.2500    0.0000 C   0  0  0  0  0  0  0  0  0  0  0  0
    5.6762   -0.8326    0.0000 H   0  0  0  0  0  0  0  0  0  0  0  0
    6.0747   -0.1423    0.0000 H   0  0  0  0  0  0  0  0  0  0  0  0
    4.9966    1.7250    0.0000 H   0  0  0  0  0  0  0  0  0  0  0  0
    4.1996    1.7250    0.0000 H   0  0  0  0  0  0  0  0  0  0  0  0
    3.3335    0.2751    0.0000 H   0  0  0  0  0  0  0  0  0  0  0  0
    4.1306    0.2751    0.0000 H   0  0  0  0  0  0  0  0  0  0  0  0
    4.3860   -0.1674    0.0000 H   0  0  0  0  0  0  0  0  0  0  0  0
    3.9875   -0.8577    0.0000 H   0  0  0  0  0  0  0  0  0  0  0  0
    3.2646    1.7250    0.0000 H   0  0  0  0  0  0  0  0  0  0  0  0
    2.4675    1.7250    0.0000 H   0  0  0  0  0  0  0  0  0  0  0  0
    4.8101   -2.3326    0.0000 H   0  0  0  0  0  0  0  0  0  0  0  0
    5.2087   -1.6423    0.0000 H   0  0  0  0  0  0  0  0  0  0  0  0
    1.6900    1.2869    0.0000 H   0  0  0  0  0  0  0  0  0  0  0  0
    1.4631    0.4400    0.0000 H   0  0  0  0  0  0  0  0  0  0  0  0
    2.3100    0.2131    0.0000 H   0  0  0  0  0  0  0  0  0  0  0  0
    3.4220   -1.7131    0.0000 H   0  0  0  0  0  0  0  0  0  0  0  0
    3.1951   -2.5600    0.0000 H   0  0  0  0  0  0  0  0  0  0  0  0
    4.0420   -2.7869    0.0000 H   0  0  0  0  0  0  0  0  0  0  0  0
    7.7331    1.0600    0.0000 H   0  0  0  0  0  0  0  0  0  0  0  0
  1 10  1  0  0  0  0
  1 31  1  0  0  0  0
  2 10  2  0  0  0  0
  3  4  1  0  0  0  0
  3  5  1  0  0  0  0
  3 10  1  0  0  0  0
  4  6  1  0  0  0  0
  4 15  1  0  0  0  0
  4 16  1  0  0  0  0
  5  7  1  0  0  0  0
  5 13  1  0  0  0  0
  5 14  1  0  0  0  0
  6  8  1  0  0  0  0
  6 17  1  0  0  0  0
  6 18  1  0  0  0  0
  7  9  1  0  0  0  0
  7 19  1  0  0  0  0
  7 20  1  0  0  0  0
  8 11  1  0  0  0  0
  8 21  1  0  0  0  0
  8 22  1  0  0  0  0
  9 12  1  0  0  0  0
  9 23  1  0  0  0  0
  9 24  1  0  0  0  0
 11 25  1  0  0  0  0
 11 26  1  0  0  0  0
 11 27  1  0  0  0  0
 12 28  1  0  0  0  0
 12 29  1  0  0  0  0
 12 30  1  0  0  0  0
M  END
> <PUBCHEM_COMPOUND_CID>
8685

> <PUBCHEM_COMPOUND_CANONICALIZED>
1

> <PUBCHEM_CACTVS_COMPLEXITY>
118

> <PUBCHEM_CACTVS_HBOND_ACCEPTOR>
2

> <PUBCHEM_CACTVS_HBOND_DONOR>
1

> <PUBCHEM_CACTVS_ROTATABLE_BOND>
6

> <PUBCHEM_CACTVS_SUBSKEYS>
AAADceByAABgAAAAAAAAAAAAAAAAAAAAAAAAAAAAAAAAAAAAAAAAHAQAAAAACADBAAQCAAMAAAQEAAAAAAAAAAAAAAgAAAAIAAAAAAAAgAAEAAAAAACAAAAAAAAAAAAAAAAAAAAAAAAAAAAAAAAAAAAAAA==

> <PUBCHEM_IUPAC_OPENEYE_NAME>
dibutylcarbamodithioic acid

> <PUBCHEM_IUPAC_CAS_NAME>
dibutylcarbamodithioic acid

> <PUBCHEM_IUPAC_NAME>
dibutylcarbamodithioic acid

> <PUBCHEM_IUPAC_SYSTEMATIC_NAME>
dibutylcarbamodithioic acid

> <PUBCHEM_IUPAC_TRADITIONAL_NAME>
dibutylcarbamodithioic acid

> <PUBCHEM_IUPAC_INCHI>
InChI=1S/C9H19NS2/c1-3-5-7-10(9(11)12)8-6-4-2/h3-8H2,1-2H3,(H,11,12)

> <PUBCHEM_IUPAC_INCHIKEY>
SZRLKIKBPASKQH-UHFFFAOYSA-N

> <PUBCHEM_XLOGP3_AA>
3.4

> <PUBCHEM_EXACT_MASS>
205.095892

> <PUBCHEM_MOLECULAR_FORMULA>
C9H19NS2

> <PUBCHEM_MOLECULAR_WEIGHT>
205.38386

> <PUBCHEM_OPENEYE_CAN_SMILES>
CCCCN(CCCC)C(=S)S

> <PUBCHEM_OPENEYE_ISO_SMILES>
CCCCN(CCCC)C(=S)S

> <PUBCHEM_CACTVS_TPSA>
36.3

> <PUBCHEM_MONOISOTOPIC_WEIGHT>
205.095892

> <PUBCHEM_TOTAL_CHARGE>
0

> <PUBCHEM_HEAVY_ATOM_COUNT>
12

> <PUBCHEM_ATOM_DEF_STEREO_COUNT>
0

> <PUBCHEM_ATOM_UDEF_STEREO_COUNT>
0

> <PUBCHEM_BOND_DEF_STEREO_COUNT>
0

> <PUBCHEM_BOND_UDEF_STEREO_COUNT>
0

> <PUBCHEM_ISOTOPIC_ATOM_COUNT>
0

> <PUBCHEM_COMPONENT_COUNT>
1

> <PUBCHEM_CACTVS_TAUTO_COUNT>
1

> <PUBCHEM_COORDINATE_TYPE>
1
5
255

$$$$

