47205772
  -OEChem-06241223002D

 38 38  0     0  0  0  0  0  0999 V2000
    4.5032   -1.7715    0.0000 S   0  0  0  0  0  0  0  0  0  0  0  0
    6.4712   -2.4709    0.0000 O   0  0  0  0  0  0  0  0  0  0  0  0
    8.4927    0.5146    0.0000 O   0  0  0  0  0  0  0  0  0  0  0  0
    7.0064   -0.8236    0.0000 N   0  0  0  0  0  0  0  0  0  0  0  0
    9.6517   -0.7725    0.0000 N   0  0  0  0  0  0  0  0  0  0  0  0
    6.7985    0.1545    0.0000 C   0  0  0  0  0  0  0  0  0  0  0  0
    7.5417    0.8236    0.0000 C   0  0  0  0  0  0  0  0  0  0  0  0
    7.3338    1.8018    0.0000 C   0  0  0  0  0  0  0  0  0  0  0  0
    7.9575   -1.1327    0.0000 C   0  0  0  0  0  0  0  0  0  0  0  0
    6.2633   -1.4928    0.0000 C   0  0  0  0  0  0  0  0  0  0  0  0
    5.3122   -1.1838    0.0000 C   0  0  0  0  0  0  0  0  0  0  0  0
    8.0769    2.4709    0.0000 C   0  0  0  0  0  0  0  0  0  0  0  0
    3.6942   -1.1838    0.0000 C   0  0  0  0  0  0  0  0  0  0  0  0
    5.0032   -0.2327    0.0000 C   0  0  0  0  0  0  0  0  0  0  0  0
    2.7431   -1.4928    0.0000 C   0  0  0  0  0  0  0  0  0  0  0  0
    8.7006   -0.4635    0.0000 C   0  0  0  0  0  0  0  0  0  0  0  0
    4.0032   -0.2327    0.0000 C   0  0  0  0  0  0  0  0  0  0  0  0
    2.0000   -0.8236    0.0000 C   0  0  0  0  0  0  0  0  0  0  0  0
    6.4700    0.6803    0.0000 H   0  0  0  0  0  0  0  0  0  0  0  0
    6.2237   -0.0777    0.0000 H   0  0  0  0  0  0  0  0  0  0  0  0
    7.8702    0.2978    0.0000 H   0  0  0  0  0  0  0  0  0  0  0  0
    8.1165    1.0559    0.0000 H   0  0  0  0  0  0  0  0  0  0  0  0
    7.0052    2.3276    0.0000 H   0  0  0  0  0  0  0  0  0  0  0  0
    6.7589    1.5695    0.0000 H   0  0  0  0  0  0  0  0  0  0  0  0
    7.6664   -1.6801    0.0000 H   0  0  0  0  0  0  0  0  0  0  0  0
    8.4461   -1.5144    0.0000 H   0  0  0  0  0  0  0  0  0  0  0  0
    8.4918    2.0102    0.0000 H   0  0  0  0  0  0  0  0  0  0  0  0
    8.5376    2.8858    0.0000 H   0  0  0  0  0  0  0  0  0  0  0  0
    7.6620    2.9317    0.0000 H   0  0  0  0  0  0  0  0  0  0  0  0
    5.3676    0.2689    0.0000 H   0  0  0  0  0  0  0  0  0  0  0  0
    2.2546   -1.8745    0.0000 H   0  0  0  0  0  0  0  0  0  0  0  0
    3.0342   -2.0402    0.0000 H   0  0  0  0  0  0  0  0  0  0  0  0
    3.6388    0.2689    0.0000 H   0  0  0  0  0  0  0  0  0  0  0  0
    2.4149   -0.3629    0.0000 H   0  0  0  0  0  0  0  0  0  0  0  0
    1.5392   -0.4088    0.0000 H   0  0  0  0  0  0  0  0  0  0  0  0
    1.5851   -1.2844    0.0000 H   0  0  0  0  0  0  0  0  0  0  0  0
   10.1124   -0.3577    0.0000 H   0  0  0  0  0  0  0  0  0  0  0  0
    9.7806   -1.3790    0.0000 H   0  0  0  0  0  0  0  0  0  0  0  0
  1 11  1  0  0  0  0
  1 13  1  0  0  0  0
  2 10  2  0  0  0  0
  3 16  2  0  0  0  0
  4  6  1  0  0  0  0
  4  9  1  0  0  0  0
  4 10  1  0  0  0  0
  5 16  1  0  0  0  0
  5 37  1  0  0  0  0
  5 38  1  0  0  0  0
  6  7  1  0  0  0  0
  6 19  1  0  0  0  0
  6 20  1  0  0  0  0
  7  8  1  0  0  0  0
  7 21  1  0  0  0  0
  7 22  1  0  0  0  0
  8 12  1  0  0  0  0
  8 23  1  0  0  0  0
  8 24  1  0  0  0  0
  9 16  1  0  0  0  0
  9 25  1  0  0  0  0
  9 26  1  0  0  0  0
 10 11  1  0  0  0  0
 11 14  2  0  0  0  0
 12 27  1  0  0  0  0
 12 28  1  0  0  0  0
 12 29  1  0  0  0  0
 13 15  1  0  0  0  0
 13 17  2  0  0  0  0
 14 17  1  0  0  0  0
 14 30  1  0  0  0  0
 15 18  1  0  0  0  0
 15 31  1  0  0  0  0
 15 32  1  0  0  0  0
 17 33  1  0  0  0  0
 18 34  1  0  0  0  0
 18 35  1  0  0  0  0
 18 36  1  0  0  0  0
M  END
> <PUBCHEM_COMPOUND_CID>
47205772

> <PUBCHEM_COMPOUND_CANONICALIZED>
1

> <PUBCHEM_CACTVS_COMPLEXITY>
297

> <PUBCHEM_CACTVS_HBOND_ACCEPTOR>
3

> <PUBCHEM_CACTVS_HBOND_DONOR>
1

> <PUBCHEM_CACTVS_ROTATABLE_BOND>
7

> <PUBCHEM_CACTVS_SUBSKEYS>
AAADceBzMABAAAAAAAAAAAAAAAAAASAAAAAAAAAAAAAAAAABgAAAHgQQAAAACADB0AQyAYNAAAiMACFSEACDAIAkCBBIiBmIBMgIYDKglTGUAQhglgCoiYcYiACAAAAAAAAAAAAAAAAAAAAAAAAAAAAAAA==

> <PUBCHEM_IUPAC_OPENEYE_NAME>
N-(2-amino-2-oxo-ethyl)-N-butyl-5-ethyl-thiophene-2-carboxamide

> <PUBCHEM_IUPAC_CAS_NAME>
N-(2-amino-2-oxoethyl)-N-butyl-5-ethyl-2-thiophenecarboxamide

> <PUBCHEM_IUPAC_NAME>
N-(2-amino-2-oxoethyl)-N-butyl-5-ethylthiophene-2-carboxamide

> <PUBCHEM_IUPAC_SYSTEMATIC_NAME>
N-(2-azanyl-2-oxidanylidene-ethyl)-N-butyl-5-ethyl-thiophene-2-carboxamide

> <PUBCHEM_IUPAC_TRADITIONAL_NAME>
N-(2-amino-2-keto-ethyl)-N-butyl-5-ethyl-thiophene-2-carboxamide

> <PUBCHEM_IUPAC_INCHI>
InChI=1S/C13H20N2O2S/c1-3-5-8-15(9-12(14)16)13(17)11-7-6-10(4-2)18-11/h6-7H,3-5,8-9H2,1-2H3,(H2,14,16)

> <PUBCHEM_IUPAC_INCHIKEY>
YLPVPMDSFZLCHX-UHFFFAOYSA-N

> <PUBCHEM_XLOGP3_AA>
2.4

> <PUBCHEM_EXACT_MASS>
268.124549

> <PUBCHEM_MOLECULAR_FORMULA>
C13H20N2O2S

> <PUBCHEM_MOLECULAR_WEIGHT>
268.3751

> <PUBCHEM_OPENEYE_CAN_SMILES>
CCCCN(CC(=O)N)C(=O)C1=CC=C(S1)CC

> <PUBCHEM_OPENEYE_ISO_SMILES>
CCCCN(CC(=O)N)C(=O)C1=CC=C(S1)CC

> <PUBCHEM_CACTVS_TPSA>
91.6

> <PUBCHEM_MONOISOTOPIC_WEIGHT>
268.124549

> <PUBCHEM_TOTAL_CHARGE>
0

> <PUBCHEM_HEAVY_ATOM_COUNT>
18

> <PUBCHEM_ATOM_DEF_STEREO_COUNT>
0

> <PUBCHEM_ATOM_UDEF_STEREO_COUNT>
0

> <PUBCHEM_BOND_DEF_STEREO_COUNT>
0

> <PUBCHEM_BOND_UDEF_STEREO_COUNT>
0

> <PUBCHEM_ISOTOPIC_ATOM_COUNT>
0

> <PUBCHEM_COMPONENT_COUNT>
1

> <PUBCHEM_CACTVS_TAUTO_COUNT>
9

> <PUBCHEM_COORDINATE_TYPE>
1
5
255

> <PUBCHEM_BONDANNOTATIONS>
1  11  8
1  13  8
11  14  8
13  17  8
14  17  8

$$$$

