12561
  -OEChem-06261207053D

 23 23  0     0  0  0  0  0  0999 V2000
   -0.1425   -2.3509    0.0001 N   0  0  0  0  0  0  0  0  0  0  0  0
    1.7648   -0.1779    0.0001 C   0  0  0  0  0  0  0  0  0  0  0  0
    0.2884    0.0514    0.0000 C   0  0  0  0  0  0  0  0  0  0  0  0
    2.4454    0.3860    1.2604 C   0  0  0  0  0  0  0  0  0  0  0  0
    2.4455    0.3856   -1.2605 C   0  0  0  0  0  0  0  0  0  0  0  0
   -0.6078   -1.0177    0.0000 C   0  0  0  0  0  0  0  0  0  0  0  0
   -0.1895    1.3619    0.0000 C   0  0  0  0  0  0  0  0  0  0  0  0
   -1.9816   -0.7760    0.0000 C   0  0  0  0  0  0  0  0  0  0  0  0
   -1.5634    1.6033   -0.0001 C   0  0  0  0  0  0  0  0  0  0  0  0
   -2.4594    0.5344   -0.0001 C   0  0  0  0  0  0  0  0  0  0  0  0
    2.0218   -1.2375    0.0002 H   0  0  0  0  0  0  0  0  0  0  0  0
    1.9912   -0.0299    2.1668 H   0  0  0  0  0  0  0  0  0  0  0  0
    2.3694    1.4772    1.3164 H   0  0  0  0  0  0  0  0  0  0  0  0
    3.5103    0.1282    1.2705 H   0  0  0  0  0  0  0  0  0  0  0  0
    1.9914   -0.0306   -2.1667 H   0  0  0  0  0  0  0  0  0  0  0  0
    3.5104    0.1279   -1.2704 H   0  0  0  0  0  0  0  0  0  0  0  0
    2.3694    1.4767   -1.3169 H   0  0  0  0  0  0  0  0  0  0  0  0
    0.4874    2.2117    0.0000 H   0  0  0  0  0  0  0  0  0  0  0  0
   -2.6913   -1.5995    0.0001 H   0  0  0  0  0  0  0  0  0  0  0  0
   -1.9356    2.6237   -0.0001 H   0  0  0  0  0  0  0  0  0  0  0  0
   -3.5291    0.7226   -0.0001 H   0  0  0  0  0  0  0  0  0  0  0  0
    0.8302   -2.6084    0.0008 H   0  0  0  0  0  0  0  0  0  0  0  0
   -0.8260   -3.0982    0.0003 H   0  0  0  0  0  0  0  0  0  0  0  0
  1  6  1  0  0  0  0
  1 22  1  0  0  0  0
  1 23  1  0  0  0  0
  2  3  1  0  0  0  0
  2  4  1  0  0  0  0
  2  5  1  0  0  0  0
  2 11  1  0  0  0  0
  3  6  1  0  0  0  0
  3  7  2  0  0  0  0
  4 12  1  0  0  0  0
  4 13  1  0  0  0  0
  4 14  1  0  0  0  0
  5 15  1  0  0  0  0
  5 16  1  0  0  0  0
  5 17  1  0  0  0  0
  6  8  2  0  0  0  0
  7  9  1  0  0  0  0
  7 18  1  0  0  0  0
  8 10  1  0  0  0  0
  8 19  1  0  0  0  0
  9 10  2  0  0  0  0
  9 20  1  0  0  0  0
 10 21  1  0  0  0  0
M  END
> <PUBCHEM_COMPOUND_CID>
12561

> <PUBCHEM_CONFORMER_RMSD>
0.4

> <PUBCHEM_CONFORMER_DIVERSEORDER>
1
2

> <PUBCHEM_MMFF94_PARTIAL_CHARGES>
14
1 -0.9
10 -0.15
18 0.15
19 0.15
2 0.14
20 0.15
21 0.15
22 0.4
23 0.4
3 -0.14
6 0.1
7 -0.15
8 -0.15
9 -0.15

> <PUBCHEM_EFFECTIVE_ROTOR_COUNT>
1

> <PUBCHEM_PHARMACOPHORE_FEATURES>
4
1 1 cation
1 1 donor
3 2 4 5 hydrophobe
6 3 6 7 8 9 10 rings

> <PUBCHEM_HEAVY_ATOM_COUNT>
10

> <PUBCHEM_ATOM_DEF_STEREO_COUNT>
0

> <PUBCHEM_ATOM_UDEF_STEREO_COUNT>
0

> <PUBCHEM_BOND_DEF_STEREO_COUNT>
0

> <PUBCHEM_BOND_UDEF_STEREO_COUNT>
0

> <PUBCHEM_ISOTOPIC_ATOM_COUNT>
0

> <PUBCHEM_COMPONENT_COUNT>
1

> <PUBCHEM_CACTVS_TAUTO_COUNT>
1

> <PUBCHEM_CONFORMER_ID>
0000311100000001

> <PUBCHEM_MMFF94_ENERGY>
37.9088

> <PUBCHEM_FEATURE_SELFOVERLAP>
20.297

> <PUBCHEM_SHAPE_FINGERPRINT>
10857977 72 18337397049822331825
12423570 1 17771632531148883561
12524768 44 18118120260304629180
12716758 59 18408034117923937510
15310529 11 16702023041286931005
16945 1 18410856551334756549
20645464 45 17968105200524756080
20871998 184 18116716205489123438
21040471 1 18410574032417196896
23211744 41 17822871830466458512
23235685 24 18340762736498331085
23552423 10 18127686234831174391
2748010 2 18195526124092938735
29004967 10 16153426155678054792
369184 2 18188504526509899360
5084963 1 18260820548798592740

> <PUBCHEM_SHAPE_MULTIPOLES>
200.81
3.48
1.72
0.93
0.79
0.6
0
-0.66
0
-0.68
0
0.8
-0.13
0

> <PUBCHEM_SHAPE_SELFOVERLAP>
409.37

> <PUBCHEM_SHAPE_VOLUME>
117.6

> <PUBCHEM_COORDINATE_TYPE>
2
5
10

$$$$

