4780
  -OEChem-06261200203D

 24 24  0     0  0  0  0  0  0999 V2000
    0.2300    0.3315   -0.6936 N   0  0  0  0  0  0  0  0  0  0  0  0
    2.3488    0.8402   -0.0952 N   0  0  0  0  0  0  0  0  0  0  0  0
    0.7160    0.7613    1.6200 N   0  0  0  0  0  0  0  0  0  0  0  0
    4.4689   -0.0536   -0.4772 N   0  0  0  0  0  0  0  0  0  0  0  0
    2.8355   -1.4951    0.2082 N   0  0  0  0  0  0  0  0  0  0  0  0
   -1.1249    0.0963   -0.4066 C   0  0  0  0  0  0  0  0  0  0  0  0
   -2.0283    1.1546   -0.4231 C   0  0  0  0  0  0  0  0  0  0  0  0
   -1.5540   -1.1933   -0.1079 C   0  0  0  0  0  0  0  0  0  0  0  0
   -3.3738    0.9211   -0.1381 C   0  0  0  0  0  0  0  0  0  0  0  0
   -2.8994   -1.4268    0.1770 C   0  0  0  0  0  0  0  0  0  0  0  0
   -3.8092   -0.3696    0.1619 C   0  0  0  0  0  0  0  0  0  0  0  0
    1.0391    0.6265    0.2860 C   0  0  0  0  0  0  0  0  0  0  0  0
    3.1515   -0.1931   -0.1114 C   0  0  0  0  0  0  0  0  0  0  0  0
   -1.6977    2.1632   -0.6562 H   0  0  0  0  0  0  0  0  0  0  0  0
   -0.8519   -2.0226   -0.0942 H   0  0  0  0  0  0  0  0  0  0  0  0
   -4.0823    1.7442   -0.1498 H   0  0  0  0  0  0  0  0  0  0  0  0
   -3.2385   -2.4318    0.4106 H   0  0  0  0  0  0  0  0  0  0  0  0
   -4.8568   -0.5515    0.3838 H   0  0  0  0  0  0  0  0  0  0  0  0
    1.4259    1.0026    2.3032 H   0  0  0  0  0  0  0  0  0  0  0  0
   -0.2275    0.6257    1.9656 H   0  0  0  0  0  0  0  0  0  0  0  0
    4.8467    0.8501   -0.7404 H   0  0  0  0  0  0  0  0  0  0  0  0
    5.1012   -0.8462   -0.4936 H   0  0  0  0  0  0  0  0  0  0  0  0
    1.9016   -1.7651    0.4970 H   0  0  0  0  0  0  0  0  0  0  0  0
    3.5331   -2.2300    0.1633 H   0  0  0  0  0  0  0  0  0  0  0  0
  1  6  1  0  0  0  0
  1 12  2  0  0  0  0
  2 12  1  0  0  0  0
  2 13  2  0  0  0  0
  3 12  1  0  0  0  0
  3 19  1  0  0  0  0
  3 20  1  0  0  0  0
  4 13  1  0  0  0  0
  4 21  1  0  0  0  0
  4 22  1  0  0  0  0
  5 13  1  0  0  0  0
  5 23  1  0  0  0  0
  5 24  1  0  0  0  0
  6  7  2  0  0  0  0
  6  8  1  0  0  0  0
  7  9  1  0  0  0  0
  7 14  1  0  0  0  0
  8 10  2  0  0  0  0
  8 15  1  0  0  0  0
  9 11  2  0  0  0  0
  9 16  1  0  0  0  0
 10 11  1  0  0  0  0
 10 17  1  0  0  0  0
 11 18  1  0  0  0  0
M  END
> <PUBCHEM_COMPOUND_CID>
4780

> <PUBCHEM_CONFORMER_RMSD>
0.6

> <PUBCHEM_CONFORMER_DIVERSEORDER>
1
2
3

> <PUBCHEM_MMFF94_PARTIAL_CHARGES>
24
1 -0.63
10 -0.15
11 -0.15
12 0.71
13 0.55
14 0.15
15 0.15
16 0.15
17 0.15
18 0.15
19 0.4
2 -0.66
20 0.4
21 0.4
22 0.4
23 0.4
24 0.4
3 -0.85
4 -0.85
5 -0.85
6 0.18
7 -0.15
8 -0.15
9 -0.15

> <PUBCHEM_EFFECTIVE_ROTOR_COUNT>
2

> <PUBCHEM_PHARMACOPHORE_FEATURES>
6
1 3 donor
1 4 donor
1 5 donor
4 1 2 3 12 cation
4 2 4 5 13 cation
6 6 7 8 9 10 11 rings

> <PUBCHEM_HEAVY_ATOM_COUNT>
13

> <PUBCHEM_ATOM_DEF_STEREO_COUNT>
0

> <PUBCHEM_ATOM_UDEF_STEREO_COUNT>
0

> <PUBCHEM_BOND_DEF_STEREO_COUNT>
0

> <PUBCHEM_BOND_UDEF_STEREO_COUNT>
0

> <PUBCHEM_ISOTOPIC_ATOM_COUNT>
0

> <PUBCHEM_COMPONENT_COUNT>
1

> <PUBCHEM_CACTVS_TAUTO_COUNT>
5

> <PUBCHEM_CONFORMER_ID>
000012AC00000001

> <PUBCHEM_MMFF94_ENERGY>
44.4653

> <PUBCHEM_FEATURE_SELFOVERLAP>
30.547

> <PUBCHEM_SHAPE_FINGERPRINT>
10130415 120 17749107798603388680
10219947 1 16008748009201352380
10465860 250 18041002864443463624
10751810 167 18412536626513531396
11062470 55 8502655908969912333
12186901 62 18060140981063868293
124424 183 17894351090067820497
12932764 1 17822579300122543701
14144814 61 18411984675765594225
14252887 29 17385434432623510094
14325111 11 18412545409663694373
14993402 34 17561089085845566719
15653759 3 18335143072465508681
17804303 29 18335698321679581807
17834074 16 18411697690351500831
190213 19 17418093213117148725
19422 9 17989485229564276590
200 152 17023193708413430013
20201158 50 18187362151140378670
20281407 28 18408885122448580874
20645464 45 18113610193094684695
21293036 1 14908179733433890956
22485316 2 18413393137523890662
23175994 123 17530958094519715912
23463225 33 18341895216126233727
3312278 4 18335417989106175618
449060 23 17846219916927424975
7364860 26 18196369217298950596
74978 22 16588598495422889253
77779 3 18341610412802978772
93112 12 18413390916772695133

> <PUBCHEM_SHAPE_MULTIPOLES>
242.63
7.23
1.34
0.84
3.75
0.31
-0.24
0.99
0.53
-0.53
-0.04
0.14
-0.15
0.19

> <PUBCHEM_SHAPE_SELFOVERLAP>
502.607

> <PUBCHEM_SHAPE_VOLUME>
134.6

> <PUBCHEM_COORDINATE_TYPE>
2
5
10

$$$$

