47205653
  -OEChem-06241222593D

 41 41  0     1  0  0  0  0  0999 V2000
    6.5911   -0.7838    0.5426 Cl  0  0  0  0  0  0  0  0  0  0  0  0
   -1.6107    1.2208   -1.9049 O   0  0  0  0  0  0  0  0  0  0  0  0
    0.5216    2.4266   -0.1588 O   0  0  0  0  0  0  0  0  0  0  0  0
   -2.1722    0.8811    0.3530 N   0  0  0  0  0  0  0  0  0  0  0  0
    0.8193    0.0953   -0.4655 N   0  0  0  0  0  0  0  0  0  0  0  0
   -3.5934    0.7079    0.1668 C   0  0  1  0  0  0  0  0  0  0  0  0
   -4.0612   -0.6696    0.6643 C   0  0  0  0  0  0  0  0  0  0  0  0
   -3.3194   -1.8733    0.0453 C   0  0  0  0  0  0  0  0  0  0  0  0
   -4.3453    1.8238    0.8877 C   0  0  0  0  0  0  0  0  0  0  0  0
   -3.4687   -1.9332   -1.4756 C   0  0  0  0  0  0  0  0  0  0  0  0
   -3.8398   -3.1735    0.6650 C   0  0  0  0  0  0  0  0  0  0  0  0
   -1.6826    0.7880    1.7305 C   0  0  0  0  0  0  0  0  0  0  0  0
   -1.3121    1.1240   -0.7205 C   0  0  0  0  0  0  0  0  0  0  0  0
    0.1404    1.2939   -0.4020 C   0  0  0  0  0  0  0  0  0  0  0  0
    2.1967   -0.1145   -0.2252 C   0  0  0  0  0  0  0  0  0  0  0  0
    2.7357   -1.3966   -0.3307 C   0  0  0  0  0  0  0  0  0  0  0  0
    3.0166    0.9608    0.1173 C   0  0  0  0  0  0  0  0  0  0  0  0
    4.0946   -1.6037   -0.0934 C   0  0  0  0  0  0  0  0  0  0  0  0
    4.3753    0.7539    0.3548 C   0  0  0  0  0  0  0  0  0  0  0  0
    4.9144   -0.5283    0.2493 C   0  0  0  0  0  0  0  0  0  0  0  0
   -3.8250    0.7989   -0.9004 H   0  0  0  0  0  0  0  0  0  0  0  0
   -5.1337   -0.7661    0.4448 H   0  0  0  0  0  0  0  0  0  0  0  0
   -3.9844   -0.7266    1.7577 H   0  0  0  0  0  0  0  0  0  0  0  0
   -2.2506   -1.8060    0.2799 H   0  0  0  0  0  0  0  0  0  0  0  0
   -4.3010    1.7295    1.9774 H   0  0  0  0  0  0  0  0  0  0  0  0
   -3.9488    2.8081    0.6151 H   0  0  0  0  0  0  0  0  0  0  0  0
   -5.4052    1.8037    0.6099 H   0  0  0  0  0  0  0  0  0  0  0  0
   -3.2994   -4.0385    0.2660 H   0  0  0  0  0  0  0  0  0  0  0  0
   -3.7028   -3.1684    1.7515 H   0  0  0  0  0  0  0  0  0  0  0  0
   -2.9973   -1.0774   -1.9639 H   0  0  0  0  0  0  0  0  0  0  0  0
   -2.9916   -2.8345   -1.8757 H   0  0  0  0  0  0  0  0  0  0  0  0
   -4.5238   -1.9534   -1.7689 H   0  0  0  0  0  0  0  0  0  0  0  0
   -4.9060   -3.3147    0.4574 H   0  0  0  0  0  0  0  0  0  0  0  0
   -1.8823   -0.2071    2.1342 H   0  0  0  0  0  0  0  0  0  0  0  0
   -0.6077    0.9546    1.8123 H   0  0  0  0  0  0  0  0  0  0  0  0
   -2.1668    1.5447    2.3520 H   0  0  0  0  0  0  0  0  0  0  0  0
    0.2858   -0.7376   -0.7056 H   0  0  0  0  0  0  0  0  0  0  0  0
    2.1077   -2.2430   -0.5969 H   0  0  0  0  0  0  0  0  0  0  0  0
    2.6654    1.9789    0.2179 H   0  0  0  0  0  0  0  0  0  0  0  0
    4.5009   -2.6082   -0.1791 H   0  0  0  0  0  0  0  0  0  0  0  0
    5.0031    1.6004    0.6215 H   0  0  0  0  0  0  0  0  0  0  0  0
  1 20  1  0  0  0  0
  2 13  2  0  0  0  0
  3 14  2  0  0  0  0
  4  6  1  0  0  0  0
  4 12  1  0  0  0  0
  4 13  1  0  0  0  0
  5 14  1  0  0  0  0
  5 15  1  0  0  0  0
  5 37  1  0  0  0  0
  6  7  1  0  0  0  0
  6  9  1  0  0  0  0
  6 21  1  0  0  0  0
  7  8  1  0  0  0  0
  7 22  1  0  0  0  0
  7 23  1  0  0  0  0
  8 10  1  0  0  0  0
  8 11  1  0  0  0  0
  8 24  1  0  0  0  0
  9 25  1  0  0  0  0
  9 26  1  0  0  0  0
  9 27  1  0  0  0  0
 10 30  1  0  0  0  0
 10 31  1  0  0  0  0
 10 32  1  0  0  0  0
 11 28  1  0  0  0  0
 11 29  1  0  0  0  0
 11 33  1  0  0  0  0
 12 34  1  0  0  0  0
 12 35  1  0  0  0  0
 12 36  1  0  0  0  0
 13 14  1  0  0  0  0
 15 16  2  0  0  0  0
 15 17  1  0  0  0  0
 16 18  1  0  0  0  0
 16 38  1  0  0  0  0
 17 19  2  0  0  0  0
 17 39  1  0  0  0  0
 18 20  2  0  0  0  0
 18 40  1  0  0  0  0
 19 20  1  0  0  0  0
 19 41  1  0  0  0  0
M  END
> <PUBCHEM_COMPOUND_CID>
47205653

> <PUBCHEM_CONFORMER_RMSD>
0.8

> <PUBCHEM_CONFORMER_DIVERSEORDER>
3
64
24
55
69
44
71
23
61
70
49
46
41
27
60
57
68
53
26
66
5
28
58
62
35
43
10
72
20
8
22
52
45
21
47
67
54
65
36
33
29
18
7
38
12
63
15
17
25
31
48
56
30
40
6
50
42
34
9
51
32
19
4
16
11
39
2
37
59
13
1
14

> <PUBCHEM_MMFF94_PARTIAL_CHARGES>
20
1 -0.18
12 0.3
13 0.63
14 0.63
15 0.12
16 -0.15
17 -0.15
18 -0.15
19 -0.15
2 -0.57
20 0.18
3 -0.57
37 0.37
38 0.15
39 0.15
4 -0.66
40 0.15
41 0.15
5 -0.55
6 0.3

> <PUBCHEM_EFFECTIVE_ROTOR_COUNT>
7

> <PUBCHEM_PHARMACOPHORE_FEATURES>
5
1 2 acceptor
1 3 acceptor
1 5 donor
3 8 10 11 hydrophobe
6 15 16 17 18 19 20 rings

> <PUBCHEM_HEAVY_ATOM_COUNT>
20

> <PUBCHEM_ATOM_DEF_STEREO_COUNT>
0

> <PUBCHEM_ATOM_UDEF_STEREO_COUNT>
1

> <PUBCHEM_BOND_DEF_STEREO_COUNT>
0

> <PUBCHEM_BOND_UDEF_STEREO_COUNT>
0

> <PUBCHEM_ISOTOPIC_ATOM_COUNT>
0

> <PUBCHEM_COMPONENT_COUNT>
1

> <PUBCHEM_CACTVS_TAUTO_COUNT>
2

> <PUBCHEM_CONFORMER_ID>
02D04D1500000003

> <PUBCHEM_MMFF94_ENERGY>
43.3566

> <PUBCHEM_FEATURE_SELFOVERLAP>
25.372

> <PUBCHEM_SHAPE_FINGERPRINT>
10366900 7 16660369220242572931
11045977 3 18041001747636006720
11046707 91 18342176652448108631
11552529 35 18040158392100275887
12236239 1 17240771726490926424
12596599 1 18188470476135887626
12616971 3 17703782631072219932
12633257 1 16444175410380903595
12916748 109 8574705810515736804
13167823 11 18409729551874270186
13544653 18 18262800653497789335
13583140 156 17240488017408308344
13911882 115 18040990774543646366
14341114 176 18041553749949729912
14713325 29 11959734902020428221
15183329 4 9007066764423431384
15352361 1 18340768135325229443
15415430 10 18412262800683813626
15537594 2 17917705850697034066
15880784 105 18411134719471596904
17349148 13 16630528449169176522
17492 89 18124873461234372891
17780758 139 18260832617719985336
1813 80 17489296499473769477
18186145 218 14189282734299087140
18927931 339 17775280594908119770
19141452 34 18341608248387511201
200 152 17775283889469704704
20281475 54 18271519806301803213
20621476 91 18270982162902156922
21673915 165 18410011009650304842
23402539 116 16774080704255371380
23559900 14 18334582338636370504
23622692 118 18188779336319794063
26918003 58 18260268581245508480
3268164 11 16702307883507348708
4028521 119 9439413410460836343
4214541 1 18408884057381178529
5104073 3 18335709334350230352
5281201 14 10807932687038590938
5486654 36 18342449314642532211
559249 180 18411703205790739099
5924683 9 18113904832125324887
7495541 125 18410013217948933664
9981440 41 16299220384473373209

> <PUBCHEM_SHAPE_MULTIPOLES>
391.76
12.45
2.59
1.18
13.2
1.19
0.14
5.06
-2.8
-3.14
-0.06
-1.09
-0.1
-0.31

> <PUBCHEM_SHAPE_SELFOVERLAP>
783.529

> <PUBCHEM_SHAPE_VOLUME>
232.2

> <PUBCHEM_COORDINATE_TYPE>
2
5
10

$$$$

