9516
  -OEChem-06261203463D

 32 33  0     0  0  0  0  0  0999 V2000
   -5.3335    1.9580   -0.1067 F   0  0  0  0  0  0  0  0  0  0  0  0
    5.0305    0.1153   -0.1859 N   0  0  0  0  0  0  0  0  0  0  0  0
   -0.5069   -0.1028    0.6109 N   0  0  0  0  0  0  0  0  0  0  0  0
   -1.0939   -0.2324   -0.4890 N   0  0  0  0  0  0  0  0  0  0  0  0
    3.6354    0.0606    0.0146 C   0  0  0  0  0  0  0  0  0  0  0  0
    2.8827    1.2350    0.0058 C   0  0  0  0  0  0  0  0  0  0  0  0
    3.0083   -1.1681    0.2220 C   0  0  0  0  0  0  0  0  0  0  0  0
    0.8761   -0.0476    0.4116 C   0  0  0  0  0  0  0  0  0  0  0  0
    1.5032    1.1809    0.2044 C   0  0  0  0  0  0  0  0  0  0  0  0
    1.6286   -1.2222    0.4205 C   0  0  0  0  0  0  0  0  0  0  0  0
    5.7865    1.2801    0.2288 C   0  0  0  0  0  0  0  0  0  0  0  0
    5.7282   -0.9987   -0.7968 C   0  0  0  0  0  0  0  0  0  0  0  0
   -2.4838   -0.2880   -0.2883 C   0  0  0  0  0  0  0  0  0  0  0  0
   -3.2302    0.8862   -0.2975 C   0  0  0  0  0  0  0  0  0  0  0  0
   -3.1031   -1.5169   -0.0819 C   0  0  0  0  0  0  0  0  0  0  0  0
   -4.6098    0.8310   -0.0984 C   0  0  0  0  0  0  0  0  0  0  0  0
   -4.4825   -1.5721    0.1172 C   0  0  0  0  0  0  0  0  0  0  0  0
   -5.2359   -0.3983    0.1087 C   0  0  0  0  0  0  0  0  0  0  0  0
    3.3380    2.2064   -0.1646 H   0  0  0  0  0  0  0  0  0  0  0  0
    3.5660   -2.1000    0.2471 H   0  0  0  0  0  0  0  0  0  0  0  0
    0.9248    2.1011    0.1940 H   0  0  0  0  0  0  0  0  0  0  0  0
    1.1492   -2.1838    0.5846 H   0  0  0  0  0  0  0  0  0  0  0  0
    5.6848    2.0893   -0.5021 H   0  0  0  0  0  0  0  0  0  0  0  0
    6.8539    1.0484    0.3164 H   0  0  0  0  0  0  0  0  0  0  0  0
    5.4613    1.6406    1.2114 H   0  0  0  0  0  0  0  0  0  0  0  0
    6.7054   -0.6884   -1.1836 H   0  0  0  0  0  0  0  0  0  0  0  0
    5.1689   -1.4055   -1.6468 H   0  0  0  0  0  0  0  0  0  0  0  0
    5.9016   -1.7959   -0.0663 H   0  0  0  0  0  0  0  0  0  0  0  0
   -2.7509    1.8479   -0.4591 H   0  0  0  0  0  0  0  0  0  0  0  0
   -2.5237   -2.4363   -0.0746 H   0  0  0  0  0  0  0  0  0  0  0  0
   -4.9701   -2.5291    0.2784 H   0  0  0  0  0  0  0  0  0  0  0  0
   -6.3099   -0.4409    0.2635 H   0  0  0  0  0  0  0  0  0  0  0  0
  1 16  1  0  0  0  0
  2  5  1  0  0  0  0
  2 11  1  0  0  0  0
  2 12  1  0  0  0  0
  3  4  2  0  0  0  0
  3  8  1  0  0  0  0
  4 13  1  0  0  0  0
  5  6  2  0  0  0  0
  5  7  1  0  0  0  0
  6  9  1  0  0  0  0
  6 19  1  0  0  0  0
  7 10  2  0  0  0  0
  7 20  1  0  0  0  0
  8  9  2  0  0  0  0
  8 10  1  0  0  0  0
  9 21  1  0  0  0  0
 10 22  1  0  0  0  0
 11 23  1  0  0  0  0
 11 24  1  0  0  0  0
 11 25  1  0  0  0  0
 12 26  1  0  0  0  0
 12 27  1  0  0  0  0
 12 28  1  0  0  0  0
 13 14  2  0  0  0  0
 13 15  1  0  0  0  0
 14 16  1  0  0  0  0
 14 29  1  0  0  0  0
 15 17  2  0  0  0  0
 15 30  1  0  0  0  0
 16 18  2  0  0  0  0
 17 18  1  0  0  0  0
 17 31  1  0  0  0  0
 18 32  1  0  0  0  0
M  END
> <PUBCHEM_COMPOUND_CID>
9516

> <PUBCHEM_CONFORMER_RMSD>
0.6

> <PUBCHEM_CONFORMER_DIVERSEORDER>
1
7
2
4
5
6
3

> <PUBCHEM_MMFF94_PARTIAL_CHARGES>
26
1 -0.19
10 -0.15
11 0.37
12 0.37
13 0.18
14 -0.15
15 -0.15
16 0.19
17 -0.15
18 -0.15
19 0.15
2 -0.84
20 0.15
21 0.15
22 0.15
29 0.15
3 -0.18
30 0.15
31 0.15
32 0.15
4 -0.18
5 0.1
6 -0.15
7 -0.15
8 0.18
9 -0.15

> <PUBCHEM_EFFECTIVE_ROTOR_COUNT>
3

> <PUBCHEM_PHARMACOPHORE_FEATURES>
3
1 2 cation
6 13 14 15 16 17 18 rings
6 5 6 7 8 9 10 rings

> <PUBCHEM_HEAVY_ATOM_COUNT>
18

> <PUBCHEM_ATOM_DEF_STEREO_COUNT>
0

> <PUBCHEM_ATOM_UDEF_STEREO_COUNT>
0

> <PUBCHEM_BOND_DEF_STEREO_COUNT>
0

> <PUBCHEM_BOND_UDEF_STEREO_COUNT>
0

> <PUBCHEM_ISOTOPIC_ATOM_COUNT>
0

> <PUBCHEM_COMPONENT_COUNT>
1

> <PUBCHEM_CACTVS_TAUTO_COUNT>
1

> <PUBCHEM_CONFORMER_ID>
0000252C00000001

> <PUBCHEM_MMFF94_ENERGY>
61.687

> <PUBCHEM_FEATURE_SELFOVERLAP>
15.223

> <PUBCHEM_SHAPE_FINGERPRINT>
10366900 7 16917072135692316529
11287383 113 18410573951277003042
11858739 19 17676764366482213174
12107183 9 17764031667674899969
12236239 1 18040432191890839642
13167823 11 18411140203775828047
13533116 47 14707197860685133950
13760787 19 18412267250544433859
14251731 8 18335420183866086325
14251764 18 18187079543088542563
14341114 176 18410288112138785389
15048467 5 18341896307079705213
15196674 1 18411420609120675922
15778101 99 18338232769523959945
15788980 27 17458065949665365876
17834072 33 18408886213502110342
17844677 252 18409159987513113297
18186145 218 18130798844880149771
200 152 18186801365808029715
20281389 69 18202285839944881133
20621476 66 18041834138574638833
20645477 56 18342740749949160261
20645477 70 18261390096344520574
20681677 155 18342459240080007035
21267235 1 18340762664027212435
21709351 56 18341900662223782773
220451 1 17632858646328465666
2297311 6 18409161113237325277
23402539 116 18343588429704762964
23402655 69 18411140242261403866
23536379 177 18410575089401132032
23559900 14 18335991865672981329
2916195 48 18336554802799594544
29717793 49 17458339780254462916
300161 21 18201728366011081839
3004659 81 18340766031519163758
3545911 37 18411138043744576489
4073 2 18059570248529876226
4214541 1 18410856564472879009
42788 4 18410575076083700326
4463277 17 18409166606527013376
4990 188 18335133194315105966
5104073 3 18342742926764201251
542803 24 16988561307676991678
633830 44 18200881677701763278
77779 3 18411982451384075987

> <PUBCHEM_SHAPE_MULTIPOLES>
348.21
14.56
1.62
0.7
2.01
0.11
-0.01
1.38
-1.37
-0.66
0
0.22
-0.06
0.45

> <PUBCHEM_SHAPE_SELFOVERLAP>
741.563

> <PUBCHEM_SHAPE_VOLUME>
196.2

> <PUBCHEM_COORDINATE_TYPE>
2
5
10

$$$$

