5195
  -OEChem-06261200343D

 31 31  0     1  0  0  0  0  0999 V2000
   -2.0364   -0.0372    0.6196 N   0  0  2  0  0  0  0  0  0  0  0  0
   -0.6660    0.4760    0.5324 C   0  0  1  0  0  0  0  0  0  0  0  0
    0.1369   -0.3694   -0.4730 C   0  0  0  0  0  0  0  0  0  0  0  0
   -0.7293    1.9517    0.1379 C   0  0  0  0  0  0  0  0  0  0  0  0
    1.6315   -0.2877   -0.2739 C   0  0  0  0  0  0  0  0  0  0  0  0
   -2.6926    0.0430   -0.6836 C   0  0  0  0  0  0  0  0  0  0  0  0
   -2.7943    0.7068    1.6232 C   0  0  0  0  0  0  0  0  0  0  0  0
    2.3523    0.6922   -0.9378 C   0  0  0  0  0  0  0  0  0  0  0  0
    2.2549   -1.1936    0.5694 C   0  0  0  0  0  0  0  0  0  0  0  0
    3.7329    0.7680   -0.7539 C   0  0  0  0  0  0  0  0  0  0  0  0
    3.6356   -1.1177    0.7533 C   0  0  0  0  0  0  0  0  0  0  0  0
    4.3744   -0.1368    0.0916 C   0  0  0  0  0  0  0  0  0  0  0  0
   -4.0456   -0.5185   -0.6242 C   0  0  0  0  0  0  0  0  0  0  0  0
   -5.1545   -0.9769   -0.5811 C   0  0  0  0  0  0  0  0  0  0  0  0
   -0.1953    0.3889    1.5207 H   0  0  0  0  0  0  0  0  0  0  0  0
   -0.0832   -0.0835   -1.5102 H   0  0  0  0  0  0  0  0  0  0  0  0
   -0.1469   -1.4286   -0.3909 H   0  0  0  0  0  0  0  0  0  0  0  0
   -1.3358    2.5753    0.7995 H   0  0  0  0  0  0  0  0  0  0  0  0
   -1.0383    2.1223   -0.8977 H   0  0  0  0  0  0  0  0  0  0  0  0
    0.2786    2.3787    0.2121 H   0  0  0  0  0  0  0  0  0  0  0  0
   -2.7911    1.0663   -1.0611 H   0  0  0  0  0  0  0  0  0  0  0  0
   -2.1624   -0.5379   -1.4451 H   0  0  0  0  0  0  0  0  0  0  0  0
   -2.2092    0.8568    2.5388 H   0  0  0  0  0  0  0  0  0  0  0  0
   -3.6690    0.1261    1.9395 H   0  0  0  0  0  0  0  0  0  0  0  0
   -3.1633    1.6806    1.2823 H   0  0  0  0  0  0  0  0  0  0  0  0
    1.8637    1.4001   -1.6011 H   0  0  0  0  0  0  0  0  0  0  0  0
    1.6880   -1.9591    1.0913 H   0  0  0  0  0  0  0  0  0  0  0  0
    4.3084    1.5313   -1.2695 H   0  0  0  0  0  0  0  0  0  0  0  0
    4.1353   -1.8217    1.4123 H   0  0  0  0  0  0  0  0  0  0  0  0
    5.4494   -0.0777    0.2350 H   0  0  0  0  0  0  0  0  0  0  0  0
   -6.1381   -1.3833   -0.5422 H   0  0  0  0  0  0  0  0  0  0  0  0
  1  2  1  0  0  0  0
  1  6  1  0  0  0  0
  1  7  1  0  0  0  0
  2  3  1  0  0  0  0
  2  4  1  0  0  0  0
  2 15  1  0  0  0  0
  3  5  1  0  0  0  0
  3 16  1  0  0  0  0
  3 17  1  0  0  0  0
  4 18  1  0  0  0  0
  4 19  1  0  0  0  0
  4 20  1  0  0  0  0
  5  8  2  0  0  0  0
  5  9  1  0  0  0  0
  6 13  1  0  0  0  0
  6 21  1  0  0  0  0
  6 22  1  0  0  0  0
  7 23  1  0  0  0  0
  7 24  1  0  0  0  0
  7 25  1  0  0  0  0
  8 10  1  0  0  0  0
  8 26  1  0  0  0  0
  9 11  2  0  0  0  0
  9 27  1  0  0  0  0
 10 12  2  0  0  0  0
 10 28  1  0  0  0  0
 11 12  1  0  0  0  0
 11 29  1  0  0  0  0
 12 30  1  0  0  0  0
 13 14  3  0  0  0  0
 14 31  1  0  0  0  0
M  END
> <PUBCHEM_COMPOUND_CID>
5195

> <PUBCHEM_CONFORMER_RMSD>
0.6

> <PUBCHEM_CONFORMER_DIVERSEORDER>
1
13
36
19
42
22
32
25
17
45
20
12
39
28
2
43
37
24
5
23
27
31
6
14
4
38
18
8
40
21
33
41
11
44
26
34
7
9
3
29
30
15
16
35
10

> <PUBCHEM_MMFF94_PARTIAL_CHARGES>
19
1 -0.81
10 -0.15
11 -0.15
12 -0.15
13 -0.2
14 -0.18
2 0.27
26 0.15
27 0.15
28 0.15
29 0.15
3 0.14
30 0.15
31 0.18
5 -0.14
6 0.47
7 0.27
8 -0.15
9 -0.15

> <PUBCHEM_EFFECTIVE_ROTOR_COUNT>
4

> <PUBCHEM_PHARMACOPHORE_FEATURES>
3
1 1 cation
1 14 hydrophobe
6 5 8 9 10 11 12 rings

> <PUBCHEM_HEAVY_ATOM_COUNT>
14

> <PUBCHEM_ATOM_DEF_STEREO_COUNT>
0

> <PUBCHEM_ATOM_UDEF_STEREO_COUNT>
1

> <PUBCHEM_BOND_DEF_STEREO_COUNT>
0

> <PUBCHEM_BOND_UDEF_STEREO_COUNT>
0

> <PUBCHEM_ISOTOPIC_ATOM_COUNT>
0

> <PUBCHEM_COMPONENT_COUNT>
1

> <PUBCHEM_CACTVS_TAUTO_COUNT>
1

> <PUBCHEM_CONFORMER_ID>
0000144B00000001

> <PUBCHEM_MMFF94_ENERGY>
38.201

> <PUBCHEM_FEATURE_SELFOVERLAP>
15.223

> <PUBCHEM_SHAPE_FINGERPRINT>
10366900 7 18412541007754694096
11287383 113 16845289411150537935
114248 4 16988847163942506311
11471102 20 17775566434025011054
12236239 1 18408042914064465110
124424 183 16200151001880621540
12500047 106 14908177534305179840
12916754 54 18261392307909299222
13296908 3 16271916121446165336
13571099 22 17632857529483734222
13675066 3 11167944658086999933
13760787 5 18272359876029536740
14251717 144 18060140950946609146
14252887 29 15791443812157861991
14943859 89 12535628284453372389
15242439 84 15985386698377942690
15375358 24 16415759721575843658
17834072 14 16988843877896808220
17844478 74 14706925167982723634
18186145 218 16200428095932810913
19026448 4 16056589933105044264
200 152 18272093807100354527
20279233 1 16486970708829768786
20281475 54 18187080706228250579
20528008 55 17775565329859758746
20645477 56 14692568814889519247
20645477 70 17703796954709466074
22169311 21 16630239255798657498
23402539 116 18343308093295390437
23402655 69 17917716819995827247
23557571 272 16732971046587455160
23559900 14 15267341834314286978
26918003 58 17632858620442344464
4028521 119 15123521315201883175
6430166 295 11600013149890429167
69090 78 16988848263253778011

> <PUBCHEM_SHAPE_MULTIPOLES>
283.13
9.46
1.32
1.12
3.76
0.32
-0.23
-2.72
1.17
-0.05
-0.11
0.4
0.11
-1.15

> <PUBCHEM_SHAPE_SELFOVERLAP>
570.053

> <PUBCHEM_SHAPE_VOLUME>
166.5

> <PUBCHEM_COORDINATE_TYPE>
2
5
10

$$$$

