14366
  -OEChem-06241222433D

 32 32  0     0  0  0  0  0  0999 V2000
    0.5096   -0.7000    0.0462 O   0  0  0  0  0  0  0  0  0  0  0  0
   -3.2597    0.7584    0.2132 O   0  0  0  0  0  0  0  0  0  0  0  0
   -1.0214   -1.4904   -1.4725 O   0  0  0  0  0  0  0  0  0  0  0  0
   -5.1146   -0.6016    0.2738 O   0  0  0  0  0  0  0  0  0  0  0  0
   -1.5733   -1.1453    0.7543 N   0  0  0  0  0  0  0  0  0  0  0  0
    2.7869   -0.1405   -0.4078 C   0  0  0  0  0  0  0  0  0  0  0  0
    1.4989   -0.6469   -0.9878 C   0  0  0  0  0  0  0  0  0  0  0  0
    3.7077   -1.0413    0.1157 C   0  0  0  0  0  0  0  0  0  0  0  0
    3.0476    1.2253   -0.3985 C   0  0  0  0  0  0  0  0  0  0  0  0
   -2.9556   -1.5614    0.6935 C   0  0  0  0  0  0  0  0  0  0  0  0
    4.9047   -0.5702    0.6551 C   0  0  0  0  0  0  0  0  0  0  0  0
    4.2448    1.6962    0.1408 C   0  0  0  0  0  0  0  0  0  0  0  0
    5.1731    0.7986    0.6676 C   0  0  0  0  0  0  0  0  0  0  0  0
   -0.7253   -1.1456   -0.3332 C   0  0  0  0  0  0  0  0  0  0  0  0
   -3.9040   -0.4302    0.3726 C   0  0  0  0  0  0  0  0  0  0  0  0
   -4.0930    1.8810   -0.0946 C   0  0  0  0  0  0  0  0  0  0  0  0
   -3.2263    3.1138   -0.2383 C   0  0  0  0  0  0  0  0  0  0  0  0
    1.6426   -1.6476   -1.4142 H   0  0  0  0  0  0  0  0  0  0  0  0
    1.1582    0.0172   -1.7920 H   0  0  0  0  0  0  0  0  0  0  0  0
    3.5078   -2.1092    0.1130 H   0  0  0  0  0  0  0  0  0  0  0  0
    2.3304    1.9335   -0.8042 H   0  0  0  0  0  0  0  0  0  0  0  0
   -3.0631   -2.3324   -0.0753 H   0  0  0  0  0  0  0  0  0  0  0  0
   -3.2151   -1.9665    1.6755 H   0  0  0  0  0  0  0  0  0  0  0  0
   -1.2085   -0.8200    1.6444 H   0  0  0  0  0  0  0  0  0  0  0  0
    5.6275   -1.2690    1.0660 H   0  0  0  0  0  0  0  0  0  0  0  0
    4.4536    2.7620    0.1512 H   0  0  0  0  0  0  0  0  0  0  0  0
    6.1051    1.1653    1.0879 H   0  0  0  0  0  0  0  0  0  0  0  0
   -4.6271    1.6926   -1.0326 H   0  0  0  0  0  0  0  0  0  0  0  0
   -4.8178    2.0301    0.7135 H   0  0  0  0  0  0  0  0  0  0  0  0
   -2.6718    3.3048    0.6865 H   0  0  0  0  0  0  0  0  0  0  0  0
   -2.4835    2.9721   -1.0303 H   0  0  0  0  0  0  0  0  0  0  0  0
   -3.8321    3.9928   -0.4750 H   0  0  0  0  0  0  0  0  0  0  0  0
  1  7  1  0  0  0  0
  1 14  1  0  0  0  0
  2 15  1  0  0  0  0
  2 16  1  0  0  0  0
  3 14  2  0  0  0  0
  4 15  2  0  0  0  0
  5 10  1  0  0  0  0
  5 14  1  0  0  0  0
  5 24  1  0  0  0  0
  6  7  1  0  0  0  0
  6  8  2  0  0  0  0
  6  9  1  0  0  0  0
  7 18  1  0  0  0  0
  7 19  1  0  0  0  0
  8 11  1  0  0  0  0
  8 20  1  0  0  0  0
  9 12  2  0  0  0  0
  9 21  1  0  0  0  0
 10 15  1  0  0  0  0
 10 22  1  0  0  0  0
 10 23  1  0  0  0  0
 11 13  2  0  0  0  0
 11 25  1  0  0  0  0
 12 13  1  0  0  0  0
 12 26  1  0  0  0  0
 13 27  1  0  0  0  0
 16 17  1  0  0  0  0
 16 28  1  0  0  0  0
 16 29  1  0  0  0  0
 17 30  1  0  0  0  0
 17 31  1  0  0  0  0
 17 32  1  0  0  0  0
M  END
> <PUBCHEM_COMPOUND_CID>
14366

> <PUBCHEM_CONFORMER_RMSD>
0.8

> <PUBCHEM_CONFORMER_DIVERSEORDER>
1
142
64
85
124
161
131
90
119
151
27
148
44
74
47
92
75
69
159
102
73
145
91
126
46
49
87
29
68
78
60
57
86
107
146
39
153
52
113
61
66
167
13
4
59
67
22
116
43
62
51
8
33
165
129
53
156
5
166
83
80
84
111
10
16
71
118
132
26
7
158
2
77
54
15
164
45
89
160
70
123
11
122
14
150
3
108
36
100
6
21
40
138
140
41
96
125
163
155
117
48
95
65
157
24
23
34
32
137
136
82
20
58
115
9
98
130
25
149
88
144
168
79
94
114
50
106
38
120
152
99
105
76
135
55
63
101
72
127
42
12
93
143
147
35
134
17
30
133
139
162
121
141
37
28
128
81
97
104
103
56
19
18
31
154
110
109
112

> <PUBCHEM_MMFF94_PARTIAL_CHARGES>
22
1 -0.43
10 0.36
11 -0.15
12 -0.15
13 -0.15
14 0.78
15 0.66
16 0.28
2 -0.43
20 0.15
21 0.15
24 0.37
25 0.15
26 0.15
27 0.15
3 -0.57
4 -0.57
5 -0.73
6 -0.14
7 0.42
8 -0.15
9 -0.15

> <PUBCHEM_EFFECTIVE_ROTOR_COUNT>
8

> <PUBCHEM_PHARMACOPHORE_FEATURES>
4
1 3 acceptor
1 4 acceptor
1 5 donor
6 6 8 9 11 12 13 rings

> <PUBCHEM_HEAVY_ATOM_COUNT>
17

> <PUBCHEM_ATOM_DEF_STEREO_COUNT>
0

> <PUBCHEM_ATOM_UDEF_STEREO_COUNT>
0

> <PUBCHEM_BOND_DEF_STEREO_COUNT>
0

> <PUBCHEM_BOND_UDEF_STEREO_COUNT>
0

> <PUBCHEM_ISOTOPIC_ATOM_COUNT>
0

> <PUBCHEM_COMPONENT_COUNT>
1

> <PUBCHEM_CACTVS_TAUTO_COUNT>
2

> <PUBCHEM_CONFORMER_ID>
0000381E00000001

> <PUBCHEM_MMFF94_ENERGY>
26.5473

> <PUBCHEM_FEATURE_SELFOVERLAP>
20.297

> <PUBCHEM_SHAPE_FINGERPRINT>
11128504 68 13840266970407751410
12107183 9 17839752795701840082
12596602 18 16988278673122752793
12670546 177 7493287746471378282
12670546 56 18202006542226198987
12892183 10 18273492355873944586
13103583 49 13325993599687598901
13675066 3 18409164398824301866
14123255 352 18335987548819352997
14251764 38 18336541711249139904
14252887 29 15410905050473389514
15188451 53 16701174154350379683
15256400 18 18342174518044742820
15880784 105 15194997198484118625
17834072 32 18267302230428074761
193927 3 12751248042610132394
200 152 10735883867455565166
20432913 95 15267348417971663866
20645477 56 17894909586034777942
20645477 70 16805870884255480886
20871999 31 7637395228975075820
21054139 6 7132426909671252764
21065198 57 18341892983207645282
21065199 12 18341609300464698786
21315764 268 18412832373493097388
21652331 79 18410009901590667625
23402539 116 18412266104394879391
23402655 69 5905782045987656434
23559900 14 18117273877202297830
238078 22 9583513231027415943
2838139 119 18338527459920024333
351380 180 18411700976301837801
4214541 1 18341894108045783256
465052 167 13039182606604180842
90127 26 18411125940453013346
9981440 41 18201153352027601651

> <PUBCHEM_SHAPE_MULTIPOLES>
321.39
12.25
2.36
0.91
1.62
1.87
-0.15
3.69
2.75
-2.41
-0.11
0.14
-0.25
0.44

> <PUBCHEM_SHAPE_SELFOVERLAP>
648.888

> <PUBCHEM_SHAPE_VOLUME>
187.1

> <PUBCHEM_COORDINATE_TYPE>
2
5
10

$$$$

