17395537
  -OEChem-06241222513D

 37 39  0     0  0  0  0  0  0999 V2000
   -5.8399   -2.1407   -0.0088 F   0  0  0  0  0  0  0  0  0  0  0  0
    5.3559    1.7364   -0.0110 O   0  0  0  0  0  0  0  0  0  0  0  0
    6.7304   -0.2431    0.0060 O   0  0  0  0  0  0  0  0  0  0  0  0
    0.5802    1.3779    0.0148 O   0  0  0  0  0  0  0  0  0  0  0  0
    1.2667   -0.8737   -0.0027 N   0  0  0  0  0  0  0  0  0  0  0  0
   -2.0075    0.7113   -0.0035 N   0  0  0  0  0  0  0  0  0  0  0  0
    2.6567   -0.7489   -0.0004 C   0  0  0  0  0  0  0  0  0  0  0  0
    4.6167    0.5937   -0.0039 C   0  0  0  0  0  0  0  0  0  0  0  0
    5.4016   -0.5365    0.0058 C   0  0  0  0  0  0  0  0  0  0  0  0
    3.2388    0.5209   -0.0071 C   0  0  0  0  0  0  0  0  0  0  0  0
   -1.0685   -0.3712   -0.0115 C   0  0  0  0  0  0  0  0  0  0  0  0
   -3.3893    0.5451   -0.0010 C   0  0  0  0  0  0  0  0  0  0  0  0
    3.4587   -1.9038    0.0094 C   0  0  0  0  0  0  0  0  0  0  0  0
    4.8519   -1.8020    0.0127 C   0  0  0  0  0  0  0  0  0  0  0  0
    0.3485    0.1736   -0.0120 C   0  0  0  0  0  0  0  0  0  0  0  0
    6.6941    1.1986   -0.0040 C   0  0  0  0  0  0  0  0  0  0  0  0
   -6.1589    0.2118    0.0041 C   0  0  0  0  0  0  0  0  0  0  0  0
   -3.9373   -0.7378   -0.0061 C   0  0  0  0  0  0  0  0  0  0  0  0
   -4.2259    1.6611    0.0069 C   0  0  0  0  0  0  0  0  0  0  0  0
   -5.3223   -0.9043   -0.0035 C   0  0  0  0  0  0  0  0  0  0  0  0
   -5.6107    1.4945    0.0094 C   0  0  0  0  0  0  0  0  0  0  0  0
   -7.6401    0.0373    0.0063 C   0  0  0  0  0  0  0  0  0  0  0  0
    2.7091    1.4598   -0.0180 H   0  0  0  0  0  0  0  0  0  0  0  0
   -1.1887   -0.9977    0.8805 H   0  0  0  0  0  0  0  0  0  0  0  0
   -1.1918   -0.9877   -0.9098 H   0  0  0  0  0  0  0  0  0  0  0  0
    3.0020   -2.8908    0.0147 H   0  0  0  0  0  0  0  0  0  0  0  0
    5.4739   -2.6899    0.0200 H   0  0  0  0  0  0  0  0  0  0  0  0
    0.9042   -1.8245   -0.0037 H   0  0  0  0  0  0  0  0  0  0  0  0
   -1.6563    1.6632   -0.0003 H   0  0  0  0  0  0  0  0  0  0  0  0
    7.2165    1.5690    0.8855 H   0  0  0  0  0  0  0  0  0  0  0  0
    7.2208    1.5566   -0.8961 H   0  0  0  0  0  0  0  0  0  0  0  0
   -3.3216   -1.6322   -0.0122 H   0  0  0  0  0  0  0  0  0  0  0  0
   -3.8120    2.6663    0.0107 H   0  0  0  0  0  0  0  0  0  0  0  0
   -6.2498    2.3734    0.0142 H   0  0  0  0  0  0  0  0  0  0  0  0
   -8.1620    0.9848    0.1773 H   0  0  0  0  0  0  0  0  0  0  0  0
   -7.9430   -0.6500    0.8033 H   0  0  0  0  0  0  0  0  0  0  0  0
   -7.9736   -0.3636   -0.9562 H   0  0  0  0  0  0  0  0  0  0  0  0
  1 20  1  0  0  0  0
  2  8  1  0  0  0  0
  2 16  1  0  0  0  0
  3  9  1  0  0  0  0
  3 16  1  0  0  0  0
  4 15  2  0  0  0  0
  5  7  1  0  0  0  0
  5 15  1  0  0  0  0
  5 28  1  0  0  0  0
  6 11  1  0  0  0  0
  6 12  1  0  0  0  0
  6 29  1  0  0  0  0
  7 10  2  0  0  0  0
  7 13  1  0  0  0  0
  8  9  2  0  0  0  0
  8 10  1  0  0  0  0
  9 14  1  0  0  0  0
 10 23  1  0  0  0  0
 11 15  1  0  0  0  0
 11 24  1  0  0  0  0
 11 25  1  0  0  0  0
 12 18  2  0  0  0  0
 12 19  1  0  0  0  0
 13 14  2  0  0  0  0
 13 26  1  0  0  0  0
 14 27  1  0  0  0  0
 16 30  1  0  0  0  0
 16 31  1  0  0  0  0
 17 20  2  0  0  0  0
 17 21  1  0  0  0  0
 17 22  1  0  0  0  0
 18 20  1  0  0  0  0
 18 32  1  0  0  0  0
 19 21  2  0  0  0  0
 19 33  1  0  0  0  0
 21 34  1  0  0  0  0
 22 35  1  0  0  0  0
 22 36  1  0  0  0  0
 22 37  1  0  0  0  0
M  END
> <PUBCHEM_COMPOUND_CID>
17395537

> <PUBCHEM_CONFORMER_RMSD>
0.8

> <PUBCHEM_CONFORMER_DIVERSEORDER>
1
96
7
52
57
87
89
56
95
36
58
49
73
18
16
42
12
45
90
28
86
21
78
74
72
48
63
37
31
68
91
80
32
2
77
70
30
34
79
15
19
55
50
53
69
24
97
11
4
40
8
3
17
35
82
29
65
33
60
71
9
66
88
76
39
85
46
23
94
84
13
47
75
41
59
92
51
81
22
83
44
5
67
61
6
14
26
93
64
62
54
43
38
20
10
27
25

> <PUBCHEM_MMFF94_PARTIAL_CHARGES>
30
1 -0.19
10 -0.15
11 0.43
12 0.1
13 -0.15
14 -0.15
15 0.57
16 0.56
17 -0.14
18 -0.15
19 -0.15
2 -0.36
20 0.19
21 -0.15
22 0.14
23 0.15
26 0.15
27 0.15
28 0.37
29 0.4
3 -0.36
32 0.15
33 0.15
34 0.15
4 -0.57
5 -0.55
6 -0.87
7 0.12
8 0.08
9 0.08

> <PUBCHEM_EFFECTIVE_ROTOR_COUNT>
5.6

> <PUBCHEM_PHARMACOPHORE_FEATURES>
9
1 2 acceptor
1 3 acceptor
1 4 acceptor
1 5 donor
1 6 cation
1 6 donor
5 2 3 8 9 16 rings
6 12 17 18 19 20 21 rings
6 7 8 9 10 13 14 rings

> <PUBCHEM_HEAVY_ATOM_COUNT>
22

> <PUBCHEM_ATOM_DEF_STEREO_COUNT>
0

> <PUBCHEM_ATOM_UDEF_STEREO_COUNT>
0

> <PUBCHEM_BOND_DEF_STEREO_COUNT>
0

> <PUBCHEM_BOND_UDEF_STEREO_COUNT>
0

> <PUBCHEM_ISOTOPIC_ATOM_COUNT>
0

> <PUBCHEM_COMPONENT_COUNT>
1

> <PUBCHEM_CACTVS_TAUTO_COUNT>
2

> <PUBCHEM_CONFORMER_ID>
01096F5100000001

> <PUBCHEM_MMFF94_ENERGY>
67.7714

> <PUBCHEM_FEATURE_SELFOVERLAP>
45.824

> <PUBCHEM_SHAPE_FINGERPRINT>
10299344 5 18187364333442466867
10411042 1 18050568749741644002
10595046 47 18410293635561680267
10638233 991 15647055928166083784
10835480 77 18339648944447486261
10968037 39 18410856560573433751
11287383 113 18411136948179775914
11315181 36 18260265249205383657
11524674 6 16298387942655199591
11719270 70 18187650240810265582
12091667 2 17132114654560507965
12107183 9 17545037568599090497
12166972 35 18342173354109164244
12236239 1 18334857233611984637
12516196 113 18407761443050691625
13073987 5 18339642342876647049
13167372 99 18336263560887943520
13533116 47 17676488401806520878
13899415 154 17386003953808517728
14251732 16 18410575058898549895
14251764 18 18260265253162630137
14251764 46 18410576188474961744
14461889 52 18340489967863597634
14528608 73 18409446986286829812
14933364 13 18409446994412787505
15183329 4 18410856581394227281
15537594 2 16226052210006963495
15716309 27 18334296478882912247
16993427 108 16483056615889094090
17834072 33 18408324388687669754
17844677 252 18338229465855397693
19427546 62 18342173316213561546
20157964 124 18410854378498120682
20281389 69 18272371996511850013
21150785 3 17748829605118848525
21315763 28 18410575110501480472
22896161 15 18410855434363639271
23081809 10 17894917364426032319
23536379 177 18410855490345952865
23559900 14 18337961091436223505
239999 70 18261107539136427694
255183 451 17971464351068341606
300161 21 17989491848567900147
3004659 81 18342174505565996786
34797466 226 17676200269440435180
3545911 37 18410855464845161252
4073 2 18131345276384576714
4214541 1 18410575119729867905
4325135 7 18411136930836318180
4340502 62 17346600781484521706
4463277 17 18410293622719125613
5104073 3 18411418453057650177

> <PUBCHEM_SHAPE_MULTIPOLES>
417.91
21.77
1.77
0.59
6.91
0.24
0
-1.02
0.03
-0.42
0
0.03
0
-0.03

> <PUBCHEM_SHAPE_SELFOVERLAP>
910.532

> <PUBCHEM_SHAPE_VOLUME>
227.3

> <PUBCHEM_COORDINATE_TYPE>
2
5
10

$$$$

