7908
  -OEChem-06261202263D

 22 21  0     1  0  0  0  0  0999 V2000
    1.0792    1.3120   -0.5094 N   0  0  0  0  0  0  0  0  0  0  0  0
   -1.3866   -0.2992    0.4275 C   0  0  0  0  0  0  0  0  0  0  0  0
    0.0932   -0.5688    0.7728 C   0  0  0  0  0  0  0  0  0  0  0  0
    1.1228   -0.1328   -0.2865 C   0  0  2  0  0  0  0  0  0  0  0  0
   -1.7401   -0.9867   -0.8949 C   0  0  0  0  0  0  0  0  0  0  0  0
   -1.7027    1.1937    0.3323 C   0  0  0  0  0  0  0  0  0  0  0  0
    2.5343   -0.5182    0.1581 C   0  0  0  0  0  0  0  0  0  0  0  0
   -1.9993   -0.7333    1.2275 H   0  0  0  0  0  0  0  0  0  0  0  0
    0.3230   -0.0845    1.7319 H   0  0  0  0  0  0  0  0  0  0  0  0
    0.2107   -1.6470    0.9478 H   0  0  0  0  0  0  0  0  0  0  0  0
    0.9231   -0.6397   -1.2358 H   0  0  0  0  0  0  0  0  0  0  0  0
   -1.4602   -2.0452   -0.8755 H   0  0  0  0  0  0  0  0  0  0  0  0
   -2.8213   -0.9354   -1.0660 H   0  0  0  0  0  0  0  0  0  0  0  0
   -1.2558   -0.5159   -1.7560 H   0  0  0  0  0  0  0  0  0  0  0  0
   -1.2665    1.7504    1.1679 H   0  0  0  0  0  0  0  0  0  0  0  0
   -1.3826    1.6435   -0.6114 H   0  0  0  0  0  0  0  0  0  0  0  0
   -2.7887    1.3380    0.3819 H   0  0  0  0  0  0  0  0  0  0  0  0
    2.8077   -0.0330    1.1020 H   0  0  0  0  0  0  0  0  0  0  0  0
    2.6105   -1.6013    0.3029 H   0  0  0  0  0  0  0  0  0  0  0  0
    3.2768   -0.2338   -0.5960 H   0  0  0  0  0  0  0  0  0  0  0  0
    1.8008    1.5797   -1.1776 H   0  0  0  0  0  0  0  0  0  0  0  0
    1.3001    1.8026    0.3566 H   0  0  0  0  0  0  0  0  0  0  0  0
  1  4  1  0  0  0  0
  1 21  1  0  0  0  0
  1 22  1  0  0  0  0
  2  3  1  0  0  0  0
  2  5  1  0  0  0  0
  2  6  1  0  0  0  0
  2  8  1  0  0  0  0
  3  4  1  0  0  0  0
  3  9  1  0  0  0  0
  3 10  1  0  0  0  0
  4  7  1  0  0  0  0
  4 11  1  0  0  0  0
  5 12  1  0  0  0  0
  5 13  1  0  0  0  0
  5 14  1  0  0  0  0
  6 15  1  0  0  0  0
  6 16  1  0  0  0  0
  6 17  1  0  0  0  0
  7 18  1  0  0  0  0
  7 19  1  0  0  0  0
  7 20  1  0  0  0  0
M  END
> <PUBCHEM_COMPOUND_CID>
7908

> <PUBCHEM_CONFORMER_RMSD>
0.4

> <PUBCHEM_CONFORMER_DIVERSEORDER>
1
2

> <PUBCHEM_MMFF94_PARTIAL_CHARGES>
4
1 -0.99
21 0.36
22 0.36
4 0.27

> <PUBCHEM_EFFECTIVE_ROTOR_COUNT>
2

> <PUBCHEM_PHARMACOPHORE_FEATURES>
3
1 1 cation
1 1 donor
3 2 5 6 hydrophobe

> <PUBCHEM_HEAVY_ATOM_COUNT>
7

> <PUBCHEM_ATOM_DEF_STEREO_COUNT>
0

> <PUBCHEM_ATOM_UDEF_STEREO_COUNT>
1

> <PUBCHEM_BOND_DEF_STEREO_COUNT>
0

> <PUBCHEM_BOND_UDEF_STEREO_COUNT>
0

> <PUBCHEM_ISOTOPIC_ATOM_COUNT>
0

> <PUBCHEM_COMPONENT_COUNT>
1

> <PUBCHEM_CACTVS_TAUTO_COUNT>
1

> <PUBCHEM_CONFORMER_ID>
00001EE400000001

> <PUBCHEM_MMFF94_ENERGY>
3.527

> <PUBCHEM_FEATURE_SELFOVERLAP>
15.223

> <PUBCHEM_SHAPE_FINGERPRINT>
16714656 1 18265329697434032361
18185500 45 18411702101303629563
20096714 4 18272078426896405049
21040471 1 17970622107068199233
24536 1 18130504115629134520
29004967 10 18130499812399068570
5084963 1 16630238117474230667

> <PUBCHEM_SHAPE_MULTIPOLES>
139.08
3.04
1.25
0.9
1.11
0.29
-0.01
-0.23
-0.12
-0.39
-0.17
-0.15
-0.1
-0.4

> <PUBCHEM_SHAPE_SELFOVERLAP>
243.621

> <PUBCHEM_SHAPE_VOLUME>
92.1

> <PUBCHEM_COORDINATE_TYPE>
2
5
10

$$$$

