17395375
  -OEChem-06241222493D

 41 42  0     1  0  0  0  0  0999 V2000
    6.1538    0.8076    1.1841 F   0  0  0  0  0  0  0  0  0  0  0  0
    0.3454    0.6393   -0.1850 O   0  0  0  0  0  0  0  0  0  0  0  0
   -1.7594   -0.9771   -0.1083 O   0  0  0  0  0  0  0  0  0  0  0  0
   -6.6281   -0.2133    0.4323 O   0  0  0  0  0  0  0  0  0  0  0  0
    1.3130    2.3762    0.9752 O   0  0  0  0  0  0  0  0  0  0  0  0
    6.1791   -1.6116   -0.1271 O   0  0  0  0  0  0  0  0  0  0  0  0
   -3.2764    0.8039    0.0974 N   0  0  0  0  0  0  0  0  0  0  0  0
   -5.6690    0.7893    0.3536 N   0  0  0  0  0  0  0  0  0  0  0  0
   -0.9199    1.2762   -0.1184 C   0  0  1  0  0  0  0  0  0  0  0  0
   -1.0779    2.2127   -1.3205 C   0  0  0  0  0  0  0  0  0  0  0  0
   -2.0235    0.2205   -0.0510 C   0  0  0  0  0  0  0  0  0  0  0  0
   -1.0424    1.4948   -2.6651 C   0  0  0  0  0  0  0  0  0  0  0  0
    1.3827    1.2991    0.4041 C   0  0  0  0  0  0  0  0  0  0  0  0
    2.6461    0.5317    0.2644 C   0  0  0  0  0  0  0  0  0  0  0  0
   -4.5067    0.1454    0.2134 C   0  0  0  0  0  0  0  0  0  0  0  0
    3.8309    1.0370    0.7995 C   0  0  0  0  0  0  0  0  0  0  0  0
    2.6487   -0.6936   -0.4021 C   0  0  0  0  0  0  0  0  0  0  0  0
   -4.6686   -1.2507    0.1970 C   0  0  0  0  0  0  0  0  0  0  0  0
   -6.0202   -1.4234    0.3379 C   0  0  0  0  0  0  0  0  0  0  0  0
    5.0211   -0.9083    0.0016 C   0  0  0  0  0  0  0  0  0  0  0  0
    5.0185    0.3171    0.6683 C   0  0  0  0  0  0  0  0  0  0  0  0
    3.8362   -1.4134   -0.5336 C   0  0  0  0  0  0  0  0  0  0  0  0
   -6.8923   -2.6026    0.4030 C   0  0  0  0  0  0  0  0  0  0  0  0
    6.1089   -2.8567   -0.8204 C   0  0  0  0  0  0  0  0  0  0  0  0
   -1.0068    1.8590    0.8090 H   0  0  0  0  0  0  0  0  0  0  0  0
   -2.0116    2.7815   -1.2517 H   0  0  0  0  0  0  0  0  0  0  0  0
   -0.2633    2.9472   -1.3147 H   0  0  0  0  0  0  0  0  0  0  0  0
   -1.1223    2.2223   -3.4795 H   0  0  0  0  0  0  0  0  0  0  0  0
   -1.8737    0.7905   -2.7652 H   0  0  0  0  0  0  0  0  0  0  0  0
   -0.1055    0.9449   -2.7983 H   0  0  0  0  0  0  0  0  0  0  0  0
   -3.3475    1.8164    0.1504 H   0  0  0  0  0  0  0  0  0  0  0  0
    3.8505    1.9896    1.3220 H   0  0  0  0  0  0  0  0  0  0  0  0
    1.7487   -1.1226   -0.8337 H   0  0  0  0  0  0  0  0  0  0  0  0
   -3.9393   -2.0402    0.0997 H   0  0  0  0  0  0  0  0  0  0  0  0
    3.7672   -2.3576   -1.0631 H   0  0  0  0  0  0  0  0  0  0  0  0
   -7.4346   -2.6281    1.3532 H   0  0  0  0  0  0  0  0  0  0  0  0
   -7.6241   -2.5854   -0.4105 H   0  0  0  0  0  0  0  0  0  0  0  0
   -6.3134   -3.5276    0.3184 H   0  0  0  0  0  0  0  0  0  0  0  0
    7.1190   -3.2792   -0.8287 H   0  0  0  0  0  0  0  0  0  0  0  0
    5.8116   -2.7192   -1.8656 H   0  0  0  0  0  0  0  0  0  0  0  0
    5.4671   -3.5734   -0.2969 H   0  0  0  0  0  0  0  0  0  0  0  0
  1 21  1  0  0  0  0
  2  9  1  0  0  0  0
  2 13  1  0  0  0  0
  3 11  2  0  0  0  0
  4  8  1  0  0  0  0
  4 19  1  0  0  0  0
  5 13  2  0  0  0  0
  6 20  1  0  0  0  0
  6 24  1  0  0  0  0
  7 11  1  0  0  0  0
  7 15  1  0  0  0  0
  7 31  1  0  0  0  0
  8 15  2  0  0  0  0
  9 10  1  0  0  0  0
  9 11  1  0  0  0  0
  9 25  1  0  0  0  0
 10 12  1  0  0  0  0
 10 26  1  0  0  0  0
 10 27  1  0  0  0  0
 12 28  1  0  0  0  0
 12 29  1  0  0  0  0
 12 30  1  0  0  0  0
 13 14  1  0  0  0  0
 14 16  2  0  0  0  0
 14 17  1  0  0  0  0
 15 18  1  0  0  0  0
 16 21  1  0  0  0  0
 16 32  1  0  0  0  0
 17 22  2  0  0  0  0
 17 33  1  0  0  0  0
 18 19  2  0  0  0  0
 18 34  1  0  0  0  0
 19 23  1  0  0  0  0
 20 21  2  0  0  0  0
 20 22  1  0  0  0  0
 22 35  1  0  0  0  0
 23 36  1  0  0  0  0
 23 37  1  0  0  0  0
 23 38  1  0  0  0  0
 24 39  1  0  0  0  0
 24 40  1  0  0  0  0
 24 41  1  0  0  0  0
M  END
> <PUBCHEM_COMPOUND_CID>
17395375

> <PUBCHEM_CONFORMER_RMSD>
1

> <PUBCHEM_CONFORMER_DIVERSEORDER>
1
43
123
67
114
61
45
92
24
130
78
9
119
4
72
68
32
59
40
56
8
23
126
48
101
117
89
135
90
28
115
96
51
36
55
100
6
134
38
107
124
54
83
118
105
53
80
46
31
104
13
98
16
82
110
129
22
77
103
57
76
122
85
25
81
121
26
12
111
64
75
65
112
52
74
60
88
128
116
35
37
19
99
84
2
42
70
10
102
44
108
29
87
58
95
132
21
91
133
73
34
15
86
97
106
79
113
11
20
66
71
30
49
17
120
14
33
7
94
50
127
63
18
93
125
39
69
41
3
62
131
109
5
27
47

> <PUBCHEM_MMFF94_PARTIAL_CHARGES>
27
1 -0.19
11 0.57
13 0.63
14 0.09
15 0.35
16 -0.15
17 -0.15
18 -0.15
19 -0.04
2 -0.43
20 0.08
21 0.19
22 -0.15
23 0.18
24 0.28
3 -0.57
31 0.37
32 0.15
33 0.15
34 0.15
35 0.15
4 -0.02
5 -0.57
6 -0.36
7 -0.49
8 -0.41
9 0.34

> <PUBCHEM_EFFECTIVE_ROTOR_COUNT>
8

> <PUBCHEM_PHARMACOPHORE_FEATURES>
7
1 12 hydrophobe
1 3 acceptor
1 5 acceptor
1 6 acceptor
1 7 donor
5 4 8 15 18 19 rings
6 14 16 17 20 21 22 rings

> <PUBCHEM_HEAVY_ATOM_COUNT>
24

> <PUBCHEM_ATOM_DEF_STEREO_COUNT>
0

> <PUBCHEM_ATOM_UDEF_STEREO_COUNT>
1

> <PUBCHEM_BOND_DEF_STEREO_COUNT>
0

> <PUBCHEM_BOND_UDEF_STEREO_COUNT>
0

> <PUBCHEM_ISOTOPIC_ATOM_COUNT>
0

> <PUBCHEM_COMPONENT_COUNT>
1

> <PUBCHEM_CACTVS_TAUTO_COUNT>
3

> <PUBCHEM_CONFORMER_ID>
01096EAF00000001

> <PUBCHEM_MMFF94_ENERGY>
54.2723

> <PUBCHEM_FEATURE_SELFOVERLAP>
35.52

> <PUBCHEM_SHAPE_FINGERPRINT>
10692045 39 5328196459113825412
12236239 1 16443071590415288604
12516196 113 18333448724973428377
12596602 18 17894346687626194099
12616971 3 16878238540756784604
13073987 5 18040715896298813056
13402501 40 18410291428017691826
13533116 47 18186802444087674248
13668630 136 18059858329662159939
13673619 4 18413386557644776580
13685833 64 18408601465596919914
13782708 43 18341898519125032162
14123256 34 18272643546003730155
14251764 30 18341894112377641351
14341114 176 18113616776620231361
14347332 77 17559686207697891818
14528608 73 11024108737564503673
14556957 393 15266771234354712886
15183329 4 11527678487417186903
15238133 3 5833701401297841074
15510800 12 18130212762903663051
1813 80 17704075071042681701
18222031 100 17560806489967060557
18335252 98 18410290286093863786
19141452 34 18334860476629096759
20281389 69 7565348621780138579
20554085 129 5400800523558122671
21130935 74 18187362133945010187
21267235 1 18187359978725521414
21424621 283 7420954170857106863
21623969 137 18040714779243325438
21641784 216 15482394247932834183
21682296 61 18410568475489613027
23522609 53 18123998399849532852
23559900 14 18336834096096540137
2838139 119 9655582889533389971
3004659 81 18060697290976711614
3383291 50 18059288744106171275
4325135 7 18272930497622931996
437815 12 18342738503349078449
46194498 28 18131072619761792780
465052 167 18260261932398562590
5104073 3 17968947525738159344
5718773 13 18341053038197863826
636775 8 18189606328595759950
77188 2 18411697647882622941
8863177 126 18408604755705574114

> <PUBCHEM_SHAPE_MULTIPOLES>
447.33
18.31
2.52
1.2
8.45
0.83
-0.76
14.43
3.49
-0.32
-0.54
-0.4
-0.7
2.13

> <PUBCHEM_SHAPE_SELFOVERLAP>
942.135

> <PUBCHEM_SHAPE_VOLUME>
253.6

> <PUBCHEM_COORDINATE_TYPE>
2
5
10

$$$$

