6796
  -OEChem-06261201303D

 23 25  0     0  0  0  0  0  0999 V2000
   -2.7846    0.8792    0.0000 N   0  0  0  0  0  0  0  0  0  0  0  0
    0.7179   -0.3936   -0.0002 C   0  0  0  0  0  0  0  0  0  0  0  0
   -0.7223   -0.4018   -0.0001 C   0  0  0  0  0  0  0  0  0  0  0  0
    1.3957    0.8496    0.0000 C   0  0  0  0  0  0  0  0  0  0  0  0
   -1.4402    0.8169    0.0000 C   0  0  0  0  0  0  0  0  0  0  0  0
    0.6591    2.0346    0.0000 C   0  0  0  0  0  0  0  0  0  0  0  0
   -0.7335    2.0080    0.0000 C   0  0  0  0  0  0  0  0  0  0  0  0
    1.5237   -1.5598   -0.0001 C   0  0  0  0  0  0  0  0  0  0  0  0
   -1.5115   -1.5750    0.0000 C   0  0  0  0  0  0  0  0  0  0  0  0
    2.8004    0.9000    0.0000 C   0  0  0  0  0  0  0  0  0  0  0  0
    2.9198   -1.4976    0.0000 C   0  0  0  0  0  0  0  0  0  0  0  0
    3.5585   -0.2669    0.0001 C   0  0  0  0  0  0  0  0  0  0  0  0
   -2.8998   -1.5192    0.0001 C   0  0  0  0  0  0  0  0  0  0  0  0
   -3.4835   -0.2743    0.0001 C   0  0  0  0  0  0  0  0  0  0  0  0
    1.1597    3.0010    0.0001 H   0  0  0  0  0  0  0  0  0  0  0  0
   -1.2685    2.9564    0.0000 H   0  0  0  0  0  0  0  0  0  0  0  0
    1.0767   -2.5506   -0.0002 H   0  0  0  0  0  0  0  0  0  0  0  0
   -1.0557   -2.5615    0.0000 H   0  0  0  0  0  0  0  0  0  0  0  0
    3.3195    1.8568    0.0001 H   0  0  0  0  0  0  0  0  0  0  0  0
    3.5028   -2.4139    0.0001 H   0  0  0  0  0  0  0  0  0  0  0  0
    4.6429   -0.2132    0.0002 H   0  0  0  0  0  0  0  0  0  0  0  0
   -3.4973   -2.4231    0.0002 H   0  0  0  0  0  0  0  0  0  0  0  0
   -4.5623   -0.1622    0.0001 H   0  0  0  0  0  0  0  0  0  0  0  0
  1  5  1  0  0  0  0
  1 14  2  0  0  0  0
  2  3  1  0  0  0  0
  2  4  1  0  0  0  0
  2  8  2  0  0  0  0
  3  5  2  0  0  0  0
  3  9  1  0  0  0  0
  4  6  1  0  0  0  0
  4 10  2  0  0  0  0
  5  7  1  0  0  0  0
  6  7  2  0  0  0  0
  6 15  1  0  0  0  0
  7 16  1  0  0  0  0
  8 11  1  0  0  0  0
  8 17  1  0  0  0  0
  9 13  2  0  0  0  0
  9 18  1  0  0  0  0
 10 12  1  0  0  0  0
 10 19  1  0  0  0  0
 11 12  2  0  0  0  0
 11 20  1  0  0  0  0
 12 21  1  0  0  0  0
 13 14  1  0  0  0  0
 13 22  1  0  0  0  0
 14 23  1  0  0  0  0
M  END
> <PUBCHEM_COMPOUND_CID>
6796

> <PUBCHEM_CONFORMER_RMSD>
0.4

> <PUBCHEM_CONFORMER_DIVERSEORDER>
1

> <PUBCHEM_MMFF94_PARTIAL_CHARGES>
20
1 -0.62
10 -0.15
11 -0.15
12 -0.15
13 -0.15
14 0.16
15 0.15
16 0.15
17 0.15
18 0.15
19 0.15
20 0.15
21 0.15
22 0.15
23 0.15
5 0.31
6 -0.15
7 -0.15
8 -0.15
9 -0.15

> <PUBCHEM_EFFECTIVE_ROTOR_COUNT>
0

> <PUBCHEM_PHARMACOPHORE_FEATURES>
4
1 1 acceptor
6 1 3 5 9 13 14 rings
6 2 3 4 5 6 7 rings
6 2 4 8 10 11 12 rings

> <PUBCHEM_HEAVY_ATOM_COUNT>
14

> <PUBCHEM_ATOM_DEF_STEREO_COUNT>
0

> <PUBCHEM_ATOM_UDEF_STEREO_COUNT>
0

> <PUBCHEM_BOND_DEF_STEREO_COUNT>
0

> <PUBCHEM_BOND_UDEF_STEREO_COUNT>
0

> <PUBCHEM_ISOTOPIC_ATOM_COUNT>
0

> <PUBCHEM_COMPONENT_COUNT>
1

> <PUBCHEM_CACTVS_TAUTO_COUNT>
1

> <PUBCHEM_CONFORMER_ID>
00001A8C00000001

> <PUBCHEM_MMFF94_ENERGY>
47.581

> <PUBCHEM_FEATURE_SELFOVERLAP>
20.35

> <PUBCHEM_SHAPE_FINGERPRINT>
10608611 8 18410579482731065796
10967382 1 18266741277106399142
11132069 177 18409736161812900144
11471102 20 18411142402904195559
11769659 78 18410860957718111586
12032990 46 18410849958291120226
12382932 28 18408041827105319450
13140716 1 18410856611205849322
13221675 6 18410855460149416706
14144814 61 18410011039551188451
14325111 11 18410575080383994336
15196674 1 18410573980861791078
15375462 189 18273213127159699483
15442244 35 18266177429773935890
15536298 74 18261673688597228352
16945 1 18410855464449756196
17844478 74 17988917881949550477
17990270 104 18340488846270126986
193761 8 17474108082165603591
200 152 18041008310704685567
20201158 50 18412265021224155651
20510252 161 18116153444519564184
20645477 70 18053392007142209623
20871998 184 18187085104227243727
21267235 1 18410846664051412070
21501502 16 18410290319767851752
21501925 9 18338527360639442874
22721475 48 18410852157308867172
2334 1 18410575050335131970
23402539 116 18335151919902992231
23463225 33 18411699885248197902
23552423 10 18270961237077672165
23559900 14 18264495160373411450
2748010 2 18410296899668253406
3312278 4 18411416211100525672
335352 9 18122626316642620437
34934 24 18410584980273023142
5104073 3 18410856559645097802
528886 8 18409735045052909338
53812653 166 18261679160216882136
7364860 26 18191305974879717928
8809292 202 18272365352086732002

> <PUBCHEM_SHAPE_MULTIPOLES>
283.13
5.41
2.13
0.61
0.09
0.36
0
-1.56
0
-0.01
0
-0.02
-0.01
0

> <PUBCHEM_SHAPE_SELFOVERLAP>
642.157

> <PUBCHEM_SHAPE_VOLUME>
146.4

> <PUBCHEM_COORDINATE_TYPE>
2
5
10

$$$$

