17395988
  -OEChem-06241222533D

 51 52  0     1  0  0  0  0  0999 V2000
    1.5634   -1.4168    0.2197 O   0  0  0  0  0  0  0  0  0  0  0  0
   -4.4097    1.8415   -0.0574 O   0  0  0  0  0  0  0  0  0  0  0  0
   -0.8537   -3.6236    0.9629 O   0  0  0  0  0  0  0  0  0  0  0  0
   -5.5432   -0.1562    0.0949 O   0  0  0  0  0  0  0  0  0  0  0  0
    2.8668   -1.3378   -1.6761 O   0  0  0  0  0  0  0  0  0  0  0  0
   -1.0547   -0.4431   -0.7534 N   0  0  0  0  0  0  0  0  0  0  0  0
    5.2284   -0.0682   -1.0850 N   0  0  0  0  0  0  0  0  0  0  0  0
   -1.4154   -1.5357   -0.0088 C   0  0  0  0  0  0  0  0  0  0  0  0
   -2.7284   -1.3708    0.3735 C   0  0  0  0  0  0  0  0  0  0  0  0
   -3.1726   -0.1358   -0.1600 C   0  0  0  0  0  0  0  0  0  0  0  0
   -2.1177    0.4163   -0.8525 C   0  0  0  0  0  0  0  0  0  0  0  0
   -0.5006   -2.6528    0.2878 C   0  0  0  0  0  0  0  0  0  0  0  0
    0.9304   -2.6104   -0.2538 C   0  0  2  0  0  0  0  0  0  0  0  0
   -3.5278   -2.3084    1.1904 C   0  0  0  0  0  0  0  0  0  0  0  0
   -2.0029    1.6806   -1.6054 C   0  0  0  0  0  0  0  0  0  0  0  0
   -4.4688    0.4679   -0.0304 C   0  0  0  0  0  0  0  0  0  0  0  0
    1.7451   -3.7879    0.2572 C   0  0  0  0  0  0  0  0  0  0  0  0
    3.0901    0.3366    0.0066 C   0  0  0  0  0  0  0  0  0  0  0  0
    2.5232   -0.8687   -0.5850 C   0  0  0  0  0  0  0  0  0  0  0  0
    4.4078    0.7197   -0.2441 C   0  0  0  0  0  0  0  0  0  0  0  0
    4.9187    1.8809    0.3359 C   0  0  0  0  0  0  0  0  0  0  0  0
    2.2834    1.1147    0.8369 C   0  0  0  0  0  0  0  0  0  0  0  0
   -5.6415    2.5608    0.0649 C   0  0  0  0  0  0  0  0  0  0  0  0
    4.1120    2.6588    1.1663 C   0  0  0  0  0  0  0  0  0  0  0  0
    2.7944    2.2757    1.4169 C   0  0  0  0  0  0  0  0  0  0  0  0
    6.3262    2.3168    0.0866 C   0  0  0  0  0  0  0  0  0  0  0  0
   -5.3528    4.0459    0.0113 C   0  0  0  0  0  0  0  0  0  0  0  0
   -0.1468   -0.2908   -1.1702 H   0  0  0  0  0  0  0  0  0  0  0  0
    0.8667   -2.6367   -1.3486 H   0  0  0  0  0  0  0  0  0  0  0  0
   -4.4477   -1.8555    1.5693 H   0  0  0  0  0  0  0  0  0  0  0  0
   -2.9657   -2.6411    2.0691 H   0  0  0  0  0  0  0  0  0  0  0  0
   -3.8031   -3.1892    0.6014 H   0  0  0  0  0  0  0  0  0  0  0  0
   -2.8608    1.8219   -2.2706 H   0  0  0  0  0  0  0  0  0  0  0  0
   -1.1030    1.6961   -2.2299 H   0  0  0  0  0  0  0  0  0  0  0  0
   -1.9452    2.5337   -0.9218 H   0  0  0  0  0  0  0  0  0  0  0  0
    1.8192   -3.7744    1.3508 H   0  0  0  0  0  0  0  0  0  0  0  0
    1.3038   -4.7427   -0.0463 H   0  0  0  0  0  0  0  0  0  0  0  0
    2.7702   -3.7485   -0.1266 H   0  0  0  0  0  0  0  0  0  0  0  0
    1.2486    0.8541    1.0423 H   0  0  0  0  0  0  0  0  0  0  0  0
    4.4933    3.5668    1.6260 H   0  0  0  0  0  0  0  0  0  0  0  0
   -6.3077    2.2810   -0.7584 H   0  0  0  0  0  0  0  0  0  0  0  0
   -6.1162    2.3075    1.0191 H   0  0  0  0  0  0  0  0  0  0  0  0
    2.1654    2.8834    2.0608 H   0  0  0  0  0  0  0  0  0  0  0  0
    7.0324    1.5566    0.4371 H   0  0  0  0  0  0  0  0  0  0  0  0
    6.4883    2.5031   -0.9803 H   0  0  0  0  0  0  0  0  0  0  0  0
    6.5637    3.2461    0.6161 H   0  0  0  0  0  0  0  0  0  0  0  0
    4.8720   -0.9189   -1.4985 H   0  0  0  0  0  0  0  0  0  0  0  0
    6.1840    0.2001   -1.2738 H   0  0  0  0  0  0  0  0  0  0  0  0
   -6.2747    4.6271    0.1011 H   0  0  0  0  0  0  0  0  0  0  0  0
   -4.8588    4.3082   -0.9300 H   0  0  0  0  0  0  0  0  0  0  0  0
   -4.6718    4.3351    0.8185 H   0  0  0  0  0  0  0  0  0  0  0  0
  1 13  1  0  0  0  0
  1 19  1  0  0  0  0
  2 16  1  0  0  0  0
  2 23  1  0  0  0  0
  3 12  2  0  0  0  0
  4 16  2  0  0  0  0
  5 19  2  0  0  0  0
  6  8  1  0  0  0  0
  6 11  1  0  0  0  0
  6 28  1  0  0  0  0
  7 20  1  0  0  0  0
  7 47  1  0  0  0  0
  7 48  1  0  0  0  0
  8  9  2  0  0  0  0
  8 12  1  0  0  0  0
  9 10  1  0  0  0  0
  9 14  1  0  0  0  0
 10 11  2  0  0  0  0
 10 16  1  0  0  0  0
 11 15  1  0  0  0  0
 12 13  1  0  0  0  0
 13 17  1  0  0  0  0
 13 29  1  0  0  0  0
 14 30  1  0  0  0  0
 14 31  1  0  0  0  0
 14 32  1  0  0  0  0
 15 33  1  0  0  0  0
 15 34  1  0  0  0  0
 15 35  1  0  0  0  0
 17 36  1  0  0  0  0
 17 37  1  0  0  0  0
 17 38  1  0  0  0  0
 18 19  1  0  0  0  0
 18 20  1  0  0  0  0
 18 22  2  0  0  0  0
 20 21  2  0  0  0  0
 21 24  1  0  0  0  0
 21 26  1  0  0  0  0
 22 25  1  0  0  0  0
 22 39  1  0  0  0  0
 23 27  1  0  0  0  0
 23 41  1  0  0  0  0
 23 42  1  0  0  0  0
 24 25  2  0  0  0  0
 24 40  1  0  0  0  0
 25 43  1  0  0  0  0
 26 44  1  0  0  0  0
 26 45  1  0  0  0  0
 26 46  1  0  0  0  0
 27 49  1  0  0  0  0
 27 50  1  0  0  0  0
 27 51  1  0  0  0  0
M  END
> <PUBCHEM_COMPOUND_CID>
17395988

> <PUBCHEM_CONFORMER_RMSD>
1

> <PUBCHEM_CONFORMER_DIVERSEORDER>
6
224
57
21
31
154
188
158
116
36
160
95
93
206
125
193
46
152
191
180
127
173
151
234
237
41
23
202
75
181
186
69
222
205
231
235
5
137
94
174
113
232
221
38
12
120
56
179
78
141
238
105
51
72
199
146
26
196
97
61
79
225
228
177
85
178
175
63
71
74
201
117
131
134
54
139
107
37
212
114
52
73
230
106
195
220
90
68
19
43
207
149
164
11
28
99
148
67
24
102
187
156
82
40
159
16
110
119
189
83
184
34
39
84
163
118
203
87
135
18
213
211
91
35
96
147
20
1
209
122
92
168
215
53
166
48
111
98
217
172
100
126
229
233
169
192
62
108
7
115
101
239
138
65
208
185
214
219
132
194
29
161
80
210
64
55
182
198
88
197
42
136
204
162
142
129
22
133
165
32
44
130
81
171
140
27
33
170
86
49
183
128
176
157
15
103
218
143
89
227
77
70
112
123
145
76
13
4
66
25
59
30
124
200
155
3
58
50
9
109
45
150
144
47
190
17
121
240
153
2
14
8
216
10
60
236
104
223
226
167

> <PUBCHEM_MMFF94_PARTIAL_CHARGES>
31
1 -0.43
10 -0.09
11 -0.33
12 0.59
13 0.34
14 0.18
15 0.18
16 0.81
18 0.09
19 0.63
2 -0.43
20 0.1
21 -0.14
22 -0.15
23 0.28
24 -0.15
25 -0.15
26 0.14
28 0.27
3 -0.57
39 0.15
4 -0.57
40 0.15
43 0.15
47 0.4
48 0.4
5 -0.57
6 0.03
7 -0.9
8 -0.24
9 -0.18

> <PUBCHEM_EFFECTIVE_ROTOR_COUNT>
8

> <PUBCHEM_PHARMACOPHORE_FEATURES>
9
1 3 acceptor
1 4 acceptor
1 5 acceptor
1 6 cation
1 6 donor
1 7 cation
1 7 donor
5 6 8 9 10 11 rings
6 18 20 21 22 24 25 rings

> <PUBCHEM_HEAVY_ATOM_COUNT>
27

> <PUBCHEM_ATOM_DEF_STEREO_COUNT>
0

> <PUBCHEM_ATOM_UDEF_STEREO_COUNT>
1

> <PUBCHEM_BOND_DEF_STEREO_COUNT>
0

> <PUBCHEM_BOND_UDEF_STEREO_COUNT>
0

> <PUBCHEM_ISOTOPIC_ATOM_COUNT>
0

> <PUBCHEM_COMPONENT_COUNT>
1

> <PUBCHEM_CACTVS_TAUTO_COUNT>
36

> <PUBCHEM_CONFORMER_ID>
0109711400000006

> <PUBCHEM_MMFF94_ENERGY>
69.5711

> <PUBCHEM_FEATURE_SELFOVERLAP>
45.669

> <PUBCHEM_SHAPE_FINGERPRINT>
10165383 225 18271515502997566134
11595378 159 17559414461106936634
12107183 9 18270979989928474962
12403259 415 18337380544606079814
12769317 202 18334867159281607185
12788726 201 17459470146447843737
12925494 130 18339081601043415873
13140716 1 18201158879297524979
13402501 40 18336544911331441528
13878862 14 17911257323060359477
13944108 23 17903352946183538760
13965767 371 17988089983905867630
14790565 3 18340482270755104196
14848178 96 18337114578730031321
17980427 26 18267039403735328703
18608769 82 18264485088443110963
21033648 29 18263370183663011392
21279426 13 18261099782609334228
22122407 14 17830161765122943985
23559900 14 18129933589322398118
23845131 108 18271807964828206579
2747138 104 18128518407105997203
2838139 119 18333736809878219462
34797466 226 17822289145913629637
350125 39 18056193811334625718
508706 21 18193844747380954086
5104073 3 18130787888587805731
5252454 2 18342463676575313628
5265222 85 18125142859374717494
633830 44 18262527008430926711
7064713 232 18272649013286036756
7288768 16 18201722842725428619
7808743 9 18270401573217467356

> <PUBCHEM_SHAPE_MULTIPOLES>
516.34
13.35
4.67
1.14
0.07
0.72
0.11
-14.57
-0.34
-2.17
-1.14
0.44
-0.1
1.91

> <PUBCHEM_SHAPE_SELFOVERLAP>
1094.305

> <PUBCHEM_SHAPE_VOLUME>
290.3

> <PUBCHEM_COORDINATE_TYPE>
2
5
10

$$$$

