17395683
  -OEChem-06241222513D

 37 38  0     1  0  0  0  0  0999 V2000
    0.5222    1.5569   -0.7414 O   0  0  0  0  0  0  0  0  0  0  0  0
   -5.9211   -0.7382    0.9626 O   0  0  0  0  0  0  0  0  0  0  0  0
   -1.7256    0.3482   -1.4481 O   0  0  0  0  0  0  0  0  0  0  0  0
    5.8672   -0.9187    1.4549 O   0  5  0  0  0  0  0  0  0  0  0  0
    6.1317   -1.2795   -0.6942 O   0  0  0  0  0  0  0  0  0  0  0  0
   -2.6760    0.5936    0.6861 N   0  0  0  0  0  0  0  0  0  0  0  0
    5.4604   -0.8451    0.2713 N   0  3  0  0  0  0  0  0  0  0  0  0
   -4.8275   -0.0876    1.5211 N   0  0  0  0  0  0  0  0  0  0  0  0
   -0.4645    1.4566    0.2721 C   0  0  2  0  0  0  0  0  0  0  0  0
    1.7328    0.9613   -0.4914 C   0  0  0  0  0  0  0  0  0  0  0  0
    3.0297   -1.0167    0.0014 C   0  0  0  0  0  0  0  0  0  0  0  0
   -1.6857    0.7268   -0.2810 C   0  0  0  0  0  0  0  0  0  0  0  0
    1.7989   -0.4113   -0.2521 C   0  0  0  0  0  0  0  0  0  0  0  0
   -0.8256    2.8633    0.7228 C   0  0  0  0  0  0  0  0  0  0  0  0
    4.1945   -0.2492    0.0156 C   0  0  0  0  0  0  0  0  0  0  0  0
    2.8975    1.7288   -0.4769 C   0  0  0  0  0  0  0  0  0  0  0  0
    4.1286    1.1237   -0.2233 C   0  0  0  0  0  0  0  0  0  0  0  0
    3.0662   -2.4895    0.2535 C   0  0  0  0  0  0  0  0  0  0  0  0
   -3.9333   -0.0032    0.5320 C   0  0  0  0  0  0  0  0  0  0  0  0
   -4.4023   -0.5777   -0.6620 C   0  0  0  0  0  0  0  0  0  0  0  0
   -5.6558   -1.0249   -0.3377 C   0  0  0  0  0  0  0  0  0  0  0  0
   -6.7123   -1.7178   -1.0854 C   0  0  0  0  0  0  0  0  0  0  0  0
   -0.1003    0.8962    1.1441 H   0  0  0  0  0  0  0  0  0  0  0  0
    0.8905   -1.0083   -0.2736 H   0  0  0  0  0  0  0  0  0  0  0  0
    0.0745    3.4129    1.0197 H   0  0  0  0  0  0  0  0  0  0  0  0
   -1.5203    2.8692    1.5676 H   0  0  0  0  0  0  0  0  0  0  0  0
   -1.2849    3.4285   -0.0965 H   0  0  0  0  0  0  0  0  0  0  0  0
    2.8515    2.7985   -0.6620 H   0  0  0  0  0  0  0  0  0  0  0  0
    5.0278    1.7348   -0.2151 H   0  0  0  0  0  0  0  0  0  0  0  0
   -2.4995    0.9385    1.6257 H   0  0  0  0  0  0  0  0  0  0  0  0
    3.6800   -2.9937   -0.5002 H   0  0  0  0  0  0  0  0  0  0  0  0
    3.4686   -2.6994    1.2500 H   0  0  0  0  0  0  0  0  0  0  0  0
    2.0667   -2.9359    0.2082 H   0  0  0  0  0  0  0  0  0  0  0  0
   -3.9306   -0.6708   -1.6281 H   0  0  0  0  0  0  0  0  0  0  0  0
   -6.4071   -1.9045   -2.1197 H   0  0  0  0  0  0  0  0  0  0  0  0
   -7.6270   -1.1173   -1.1053 H   0  0  0  0  0  0  0  0  0  0  0  0
   -6.9435   -2.6816   -0.6213 H   0  0  0  0  0  0  0  0  0  0  0  0
  1  9  1  0  0  0  0
  1 10  1  0  0  0  0
  2  8  1  0  0  0  0
  2 21  1  0  0  0  0
  3 12  2  0  0  0  0
  4  7  1  0  0  0  0
  5  7  2  0  0  0  0
  6 12  1  0  0  0  0
  6 19  1  0  0  0  0
  6 30  1  0  0  0  0
  7 15  1  0  0  0  0
  8 19  2  0  0  0  0
  9 12  1  0  0  0  0
  9 14  1  0  0  0  0
  9 23  1  0  0  0  0
 10 13  2  0  0  0  0
 10 16  1  0  0  0  0
 11 13  1  0  0  0  0
 11 15  2  0  0  0  0
 11 18  1  0  0  0  0
 13 24  1  0  0  0  0
 14 25  1  0  0  0  0
 14 26  1  0  0  0  0
 14 27  1  0  0  0  0
 15 17  1  0  0  0  0
 16 17  2  0  0  0  0
 16 28  1  0  0  0  0
 17 29  1  0  0  0  0
 18 31  1  0  0  0  0
 18 32  1  0  0  0  0
 18 33  1  0  0  0  0
 19 20  1  0  0  0  0
 20 21  2  0  0  0  0
 20 34  1  0  0  0  0
 21 22  1  0  0  0  0
 22 35  1  0  0  0  0
 22 36  1  0  0  0  0
 22 37  1  0  0  0  0
M  CHG  2   4  -1   7   1
M  END
> <PUBCHEM_COMPOUND_CID>
17395683

> <PUBCHEM_CONFORMER_RMSD>
0.8

> <PUBCHEM_CONFORMER_DIVERSEORDER>
1
48
81
34
23
80
70
66
50
16
18
12
57
54
86
36
77
29
84
88
72
68
59
85
61
42
17
71
87
2
22
62
53
60
63
11
78
65
82
51
67
64
56
55
69
21
49
44
79
40
47
20
3
28
30
10
52
75
24
74
8
7
37
27
58
25
83
26
15
41
43
35
45
38
32
73
19
4
6
5
14
39
76
31
13
9
46
33

> <PUBCHEM_MMFF94_PARTIAL_CHARGES>
26
1 -0.36
10 0.08
11 -0.14
12 0.57
13 -0.15
15 0.13
16 -0.15
17 -0.15
18 0.14
19 0.35
2 -0.02
20 -0.15
21 -0.04
22 0.18
24 0.15
28 0.15
29 0.15
3 -0.57
30 0.37
34 0.15
4 -0.52
5 -0.52
6 -0.49
7 0.91
8 -0.41
9 0.34

> <PUBCHEM_EFFECTIVE_ROTOR_COUNT>
6

> <PUBCHEM_PHARMACOPHORE_FEATURES>
8
1 1 acceptor
1 3 acceptor
1 4 acceptor
1 4 anion
1 5 acceptor
1 6 donor
5 2 8 19 20 21 rings
6 10 11 13 15 16 17 rings

> <PUBCHEM_HEAVY_ATOM_COUNT>
22

> <PUBCHEM_ATOM_DEF_STEREO_COUNT>
0

> <PUBCHEM_ATOM_UDEF_STEREO_COUNT>
1

> <PUBCHEM_BOND_DEF_STEREO_COUNT>
0

> <PUBCHEM_BOND_UDEF_STEREO_COUNT>
0

> <PUBCHEM_ISOTOPIC_ATOM_COUNT>
0

> <PUBCHEM_COMPONENT_COUNT>
1

> <PUBCHEM_CACTVS_TAUTO_COUNT>
3

> <PUBCHEM_CONFORMER_ID>
01096FE300000001

> <PUBCHEM_MMFF94_ENERGY>
59.8445

> <PUBCHEM_FEATURE_SELFOVERLAP>
40.685

> <PUBCHEM_SHAPE_FINGERPRINT>
10 15 14779269687194952435
100836 57 7276829091154972552
10447042 23 18343866602057344804
106641 1 16950570934685356810
11089746 13 11167932542448546414
11796584 16 17561086865468781361
12107183 9 17830724718948663745
12236239 1 18040994021190242397
12516196 113 18261112959115460521
12555020 224 18202003184348049419
12596602 18 17312821567543257915
12760667 363 18413106169516104129
12892183 10 15791999121797129605
12954195 1 16701753738933476541
13533116 47 18337389348840819216
13544653 18 18342451539404260981
13668630 136 18413109438139619503
13685833 64 18201714025658651731
13862211 1 18410576184206563143
14849402 71 17822861862618193808
15183329 4 16630537249805157173
17134984 74 17774729658347913355
17492 89 18191869144198380606
17857418 61 18408886222477134255
17870717 6 16343703219150562459
18222031 100 18060418023924706916
18335252 114 9655308003342732859
200 152 18342455954187458129
20028762 73 18334296465935421678
20645477 70 18130788940632915197
21267235 1 18409441518978214886
21315764 119 14764355976153704731
21637258 2 18342183262492538945
22061861 79 17703513216506088223
22224240 67 18337115545429975952
23522609 53 18121745487892596860
23559900 14 18058449795105794513
2871803 45 17918276454382240728
293599 30 9007056868185824000
3004659 81 18130791148251328044
314194 84 18337386050806654179
3411729 13 16517102700635912168
351380 3 18334576836888583719
463206 1 18339923701826333395
465052 167 18187922846256770053
5104073 3 18262524818187925808
559249 180 18260830389613198815
5718773 13 17845664762883303410

> <PUBCHEM_SHAPE_MULTIPOLES>
408.46
16.1
2.22
1.08
9.38
0.48
-0.12
-10.73
-0.88
-0.98
-0.1
0.67
-0.05
-1.18

> <PUBCHEM_SHAPE_SELFOVERLAP>
862.714

> <PUBCHEM_SHAPE_VOLUME>
230.7

> <PUBCHEM_COORDINATE_TYPE>
2
5
10

$$$$

