11671
  -OEChem-06261205582D

 15 14  0     0  0  0  0  0  0999 V2000
    2.5369   -0.8170    0.0000 O   0  0  0  0  0  0  0  0  0  0  0  0
    5.1350   -0.3170    0.0000 O   0  0  0  0  0  0  0  0  0  0  0  0
    4.2690    1.1830    0.0000 O   0  0  0  0  0  0  0  0  0  0  0  0
    3.4030   -0.3170    0.0000 C   0  0  0  0  0  0  0  0  0  0  0  0
    2.9030    0.5490    0.0000 C   0  0  0  0  0  0  0  0  0  0  0  0
    3.9030   -1.1830    0.0000 C   0  0  0  0  0  0  0  0  0  0  0  0
    4.2690    0.1830    0.0000 C   0  0  0  0  0  0  0  0  0  0  0  0
    3.4399    0.8590    0.0000 H   0  0  0  0  0  0  0  0  0  0  0  0
    2.5930    1.0860    0.0000 H   0  0  0  0  0  0  0  0  0  0  0  0
    2.3660    0.2390    0.0000 H   0  0  0  0  0  0  0  0  0  0  0  0
    3.3660   -1.4930    0.0000 H   0  0  0  0  0  0  0  0  0  0  0  0
    4.2130   -1.7200    0.0000 H   0  0  0  0  0  0  0  0  0  0  0  0
    4.4399   -0.8730    0.0000 H   0  0  0  0  0  0  0  0  0  0  0  0
    2.0000   -0.5070    0.0000 H   0  0  0  0  0  0  0  0  0  0  0  0
    5.6720   -0.0070    0.0000 H   0  0  0  0  0  0  0  0  0  0  0  0
  1  4  1  0  0  0  0
  1 14  1  0  0  0  0
  2  7  1  0  0  0  0
  2 15  1  0  0  0  0
  3  7  2  0  0  0  0
  4  5  1  0  0  0  0
  4  6  1  0  0  0  0
  4  7  1  0  0  0  0
  5  8  1  0  0  0  0
  5  9  1  0  0  0  0
  5 10  1  0  0  0  0
  6 11  1  0  0  0  0
  6 12  1  0  0  0  0
  6 13  1  0  0  0  0
M  END
> <PUBCHEM_COMPOUND_CID>
11671

> <PUBCHEM_COMPOUND_CANONICALIZED>
1

> <PUBCHEM_CACTVS_COMPLEXITY>
84.9

> <PUBCHEM_CACTVS_HBOND_ACCEPTOR>
3

> <PUBCHEM_CACTVS_HBOND_DONOR>
2

> <PUBCHEM_CACTVS_ROTATABLE_BOND>
1

> <PUBCHEM_CACTVS_SUBSKEYS>
AAADccBgMAAAAAAAAAAAAAAAAAAAAAAAAAAAAAAAAAAAAAAAAAAAGgAACAAADESAgAACCAAAAgAIAACQCAIAAAAAAAAAAAFAAAABAAAAAAAAQAAAAAABAAAAAAAAAAAAAAAAAAAAAAAAAAAAAAAAAAAAAA==

> <PUBCHEM_IUPAC_OPENEYE_NAME>
2-hydroxy-2-methyl-propanoic acid

> <PUBCHEM_IUPAC_CAS_NAME>
2-hydroxy-2-methylpropanoic acid

> <PUBCHEM_IUPAC_NAME>
2-hydroxy-2-methylpropanoic acid

> <PUBCHEM_IUPAC_SYSTEMATIC_NAME>
2-methyl-2-oxidanyl-propanoic acid

> <PUBCHEM_IUPAC_TRADITIONAL_NAME>
2-hydroxy-2-methyl-propionic acid

> <PUBCHEM_IUPAC_INCHI>
InChI=1S/C4H8O3/c1-4(2,7)3(5)6/h7H,1-2H3,(H,5,6)

> <PUBCHEM_IUPAC_INCHIKEY>
BWLBGMIXKSTLSX-UHFFFAOYSA-N

> <PUBCHEM_XLOGP3>
-0.4

> <PUBCHEM_EXACT_MASS>
104.047344

> <PUBCHEM_MOLECULAR_FORMULA>
C4H8O3

> <PUBCHEM_MOLECULAR_WEIGHT>
104.10452

> <PUBCHEM_OPENEYE_CAN_SMILES>
CC(C)(C(=O)O)O

> <PUBCHEM_OPENEYE_ISO_SMILES>
CC(C)(C(=O)O)O

> <PUBCHEM_CACTVS_TPSA>
57.5

> <PUBCHEM_MONOISOTOPIC_WEIGHT>
104.047344

> <PUBCHEM_TOTAL_CHARGE>
0

> <PUBCHEM_HEAVY_ATOM_COUNT>
7

> <PUBCHEM_ATOM_DEF_STEREO_COUNT>
0

> <PUBCHEM_ATOM_UDEF_STEREO_COUNT>
0

> <PUBCHEM_BOND_DEF_STEREO_COUNT>
0

> <PUBCHEM_BOND_UDEF_STEREO_COUNT>
0

> <PUBCHEM_ISOTOPIC_ATOM_COUNT>
0

> <PUBCHEM_COMPONENT_COUNT>
1

> <PUBCHEM_CACTVS_TAUTO_COUNT>
1

> <PUBCHEM_COORDINATE_TYPE>
1
5
255

$$$$

