12444
  -OEChem-06261206563D

 24 26  0     0  0  0  0  0  0999 V2000
    2.9982    2.6754    0.0015 Br  0  0  0  0  0  0  0  0  0  0  0  0
    0.1521    2.4808   -0.0021 O   0  0  0  0  0  0  0  0  0  0  0  0
   -0.5883   -2.8090   -0.0009 O   0  0  0  0  0  0  0  0  0  0  0  0
    1.1813    0.3294   -0.0002 C   0  0  0  0  0  0  0  0  0  0  0  0
    0.9694   -1.0509   -0.0003 C   0  0  0  0  0  0  0  0  0  0  0  0
   -1.3354    0.7155   -0.0003 C   0  0  0  0  0  0  0  0  0  0  0  0
   -1.5472   -0.6647    0.0001 C   0  0  0  0  0  0  0  0  0  0  0  0
    0.0366    1.2630   -0.0009 C   0  0  0  0  0  0  0  0  0  0  0  0
   -0.4025   -1.5984   -0.0005 C   0  0  0  0  0  0  0  0  0  0  0  0
    2.4866    0.8355    0.0004 C   0  0  0  0  0  0  0  0  0  0  0  0
    2.0630   -1.9251    0.0000 C   0  0  0  0  0  0  0  0  0  0  0  0
   -2.4289    1.5898   -0.0002 C   0  0  0  0  0  0  0  0  0  0  0  0
   -2.8526   -1.1708    0.0007 C   0  0  0  0  0  0  0  0  0  0  0  0
    3.5735   -0.0392    0.0007 C   0  0  0  0  0  0  0  0  0  0  0  0
    3.3622   -1.4166    0.0003 C   0  0  0  0  0  0  0  0  0  0  0  0
   -3.7282    1.0813    0.0007 C   0  0  0  0  0  0  0  0  0  0  0  0
   -3.9396   -0.2960    0.0012 C   0  0  0  0  0  0  0  0  0  0  0  0
    1.9248   -3.0030   -0.0001 H   0  0  0  0  0  0  0  0  0  0  0  0
   -2.2958    2.6683   -0.0005 H   0  0  0  0  0  0  0  0  0  0  0  0
   -3.0441   -2.2405    0.0010 H   0  0  0  0  0  0  0  0  0  0  0  0
    4.5982    0.3250    0.0012 H   0  0  0  0  0  0  0  0  0  0  0  0
    4.2099   -2.0958    0.0006 H   0  0  0  0  0  0  0  0  0  0  0  0
   -4.5762    1.7601    0.0009 H   0  0  0  0  0  0  0  0  0  0  0  0
   -4.9520   -0.6893    0.0018 H   0  0  0  0  0  0  0  0  0  0  0  0
  1 10  1  0  0  0  0
  2  8  2  0  0  0  0
  3  9  2  0  0  0  0
  4  5  2  0  0  0  0
  4  8  1  0  0  0  0
  4 10  1  0  0  0  0
  5  9  1  0  0  0  0
  5 11  1  0  0  0  0
  6  7  1  0  0  0  0
  6  8  1  0  0  0  0
  6 12  2  0  0  0  0
  7  9  1  0  0  0  0
  7 13  2  0  0  0  0
 10 14  2  0  0  0  0
 11 15  2  0  0  0  0
 11 18  1  0  0  0  0
 12 16  1  0  0  0  0
 12 19  1  0  0  0  0
 13 17  1  0  0  0  0
 13 20  1  0  0  0  0
 14 15  1  0  0  0  0
 14 21  1  0  0  0  0
 15 22  1  0  0  0  0
 16 17  2  0  0  0  0
 16 23  1  0  0  0  0
 17 24  1  0  0  0  0
M  END
> <PUBCHEM_COMPOUND_CID>
12444

> <PUBCHEM_CONFORMER_RMSD>
0.4

> <PUBCHEM_CONFORMER_DIVERSEORDER>
1

> <PUBCHEM_MMFF94_PARTIAL_CHARGES>
24
1 -0.11
10 0.11
11 -0.15
12 -0.15
13 -0.15
14 -0.15
15 -0.15
16 -0.15
17 -0.15
18 0.15
19 0.15
2 -0.57
20 0.15
21 0.15
22 0.15
23 0.15
24 0.15
3 -0.57
4 0.09
5 0.09
6 0.09
7 0.09
8 0.4
9 0.4

> <PUBCHEM_EFFECTIVE_ROTOR_COUNT>
0

> <PUBCHEM_PHARMACOPHORE_FEATURES>
6
1 1 hydrophobe
1 2 acceptor
1 3 acceptor
6 4 5 10 11 14 15 rings
6 4 5 6 7 8 9 rings
6 6 7 12 13 16 17 rings

> <PUBCHEM_HEAVY_ATOM_COUNT>
17

> <PUBCHEM_ATOM_DEF_STEREO_COUNT>
0

> <PUBCHEM_ATOM_UDEF_STEREO_COUNT>
0

> <PUBCHEM_BOND_DEF_STEREO_COUNT>
0

> <PUBCHEM_BOND_UDEF_STEREO_COUNT>
0

> <PUBCHEM_ISOTOPIC_ATOM_COUNT>
0

> <PUBCHEM_COMPONENT_COUNT>
1

> <PUBCHEM_CACTVS_TAUTO_COUNT>
1

> <PUBCHEM_CONFORMER_ID>
0000309C00000001

> <PUBCHEM_MMFF94_ENERGY>
55.5906

> <PUBCHEM_FEATURE_SELFOVERLAP>
30.488

> <PUBCHEM_SHAPE_FINGERPRINT>
10411042 1 16969422397258472143
10608611 8 18411984662939006925
10616163 171 18194398884019253590
10967382 1 18338517434822270116
10980938 120 18411136896655992616
11132069 177 18337116751487214659
11471102 20 18411142471333554422
11680986 33 18268986501298728690
13140716 1 18411134783521527337
13221675 6 18410856594031377838
13380535 76 18339083666204565162
13583140 156 16916246389305929401
13897977 150 18410858775916968773
14178342 30 18050019787535856832
15196674 1 18410575097569092807
15309172 13 18409721868362322619
15442244 35 18337672035087620824
15536298 74 18334576836962293544
16945 1 18194401091379099622
18186145 218 18334853960847080541
193761 8 18050567343946719719
19591789 44 18411135822787918819
200 152 18113911472318630005
20510252 161 18260830440039931440
20645477 70 18408608071636273551
21267235 1 18410283731335836751
21501502 16 18337112258946122214
221490 88 18340479002395248474
2334 1 18410293605444161477
23366157 5 18059576858906232000
23402539 116 18262248801650320246
23463225 33 18412262873671695500
23559900 14 18334579062229957168
238 59 17695108673998248269
2748010 2 18411418435914703535
335352 9 17978511158752880917
350125 39 18411414042200602545
474 4 17559952117808359756
5104073 3 18411980252429445105
528886 8 18338240465324392379
53812653 166 18334861597346431760
69090 78 18335425659886345103
7364860 26 18408040693761707612
8809292 202 18271801354277218051
9709674 26 18409725145106299942

> <PUBCHEM_SHAPE_MULTIPOLES>
344.06
6.39
2.83
0.61
1.56
0.26
0
1.03
0
-1.35
0
-0.03
0.02
0

> <PUBCHEM_SHAPE_SELFOVERLAP>
764.212

> <PUBCHEM_SHAPE_VOLUME>
188.8

> <PUBCHEM_COORDINATE_TYPE>
2
5
10

$$$$

