10673
  -OEChem-06261204493D

 28 29  0     0  0  0  0  0  0999 V2000
   -3.4755   -1.6745    0.1289 S   0  0  0  0  0  0  0  0  0  0  0  0
    4.3513   -0.7980   -0.0333 S   0  0  0  0  0  0  0  0  0  0  0  0
   -3.4928    1.2932   -0.1303 O   0  0  0  0  0  0  0  0  0  0  0  0
   -4.1568   -1.6322   -1.3555 O   0  0  0  0  0  0  0  0  0  0  0  0
    4.7613   -0.8330    1.5489 O   0  0  0  0  0  0  0  0  0  0  0  0
   -2.9917   -3.0300    0.3382 O   0  0  0  0  0  0  0  0  0  0  0  0
   -4.3973   -1.0591    1.0691 O   0  0  0  0  0  0  0  0  0  0  0  0
    5.2413    0.1325   -0.7100 O   0  0  0  0  0  0  0  0  0  0  0  0
    4.2475   -2.1808   -0.4757 O   0  0  0  0  0  0  0  0  0  0  0  0
   -1.3678    3.5248    0.7910 O   0  0  0  0  0  0  0  0  0  0  0  0
   -1.3094    2.9428   -0.2984 N   0  0  0  0  0  0  0  0  0  0  0  0
    0.3360   -0.3694   -0.0268 C   0  0  0  0  0  0  0  0  0  0  0  0
    0.1820    1.0322   -0.1477 C   0  0  0  0  0  0  0  0  0  0  0  0
   -2.0834   -0.6190    0.0215 C   0  0  0  0  0  0  0  0  0  0  0  0
   -0.8070   -1.1812    0.0567 C   0  0  0  0  0  0  0  0  0  0  0  0
   -1.1103    1.5808   -0.1816 C   0  0  0  0  0  0  0  0  0  0  0  0
    1.6283   -0.9180    0.0069 C   0  0  0  0  0  0  0  0  0  0  0  0
    2.7528   -0.0965   -0.0773 C   0  0  0  0  0  0  0  0  0  0  0  0
   -2.2349    0.7593   -0.0974 C   0  0  0  0  0  0  0  0  0  0  0  0
    1.3250    1.8440   -0.2313 C   0  0  0  0  0  0  0  0  0  0  0  0
    2.6014    1.2820   -0.1961 C   0  0  0  0  0  0  0  0  0  0  0  0
   -0.6772   -2.2573    0.1469 H   0  0  0  0  0  0  0  0  0  0  0  0
    1.7466   -1.9950    0.1075 H   0  0  0  0  0  0  0  0  0  0  0  0
    1.2596    2.9255   -0.3252 H   0  0  0  0  0  0  0  0  0  0  0  0
    3.4625    1.9418   -0.2555 H   0  0  0  0  0  0  0  0  0  0  0  0
   -3.4728    2.2594   -0.2116 H   0  0  0  0  0  0  0  0  0  0  0  0
   -3.5892   -1.9631   -2.0910 H   0  0  0  0  0  0  0  0  0  0  0  0
    4.1807   -1.3850    2.1239 H   0  0  0  0  0  0  0  0  0  0  0  0
  1  4  1  0  0  0  0
  1  6  2  0  0  0  0
  1  7  2  0  0  0  0
  1 14  1  0  0  0  0
  2  5  1  0  0  0  0
  2  8  2  0  0  0  0
  2  9  2  0  0  0  0
  2 18  1  0  0  0  0
  3 19  1  0  0  0  0
  3 26  1  0  0  0  0
  4 27  1  0  0  0  0
  5 28  1  0  0  0  0
 10 11  2  0  0  0  0
 11 16  1  0  0  0  0
 12 13  1  0  0  0  0
 12 15  2  0  0  0  0
 12 17  1  0  0  0  0
 13 16  2  0  0  0  0
 13 20  1  0  0  0  0
 14 15  1  0  0  0  0
 14 19  2  0  0  0  0
 15 22  1  0  0  0  0
 16 19  1  0  0  0  0
 17 18  2  0  0  0  0
 17 23  1  0  0  0  0
 18 21  1  0  0  0  0
 20 21  2  0  0  0  0
 20 24  1  0  0  0  0
 21 25  1  0  0  0  0
M  END
> <PUBCHEM_COMPOUND_CID>
10673

> <PUBCHEM_CONFORMER_RMSD>
0.6

> <PUBCHEM_CONFORMER_DIVERSEORDER>
1
4
3
2

> <PUBCHEM_MMFF94_PARTIAL_CHARGES>
26
1 1.49
10 -0.16
11 -0.14
14 -0.01
15 -0.15
16 0.3
17 -0.15
18 -0.01
19 0.08
2 1.49
20 -0.15
21 -0.15
22 0.15
23 0.15
24 0.15
25 0.15
26 0.45
27 0.5
28 0.5
3 -0.53
4 -0.68
5 -0.68
6 -0.65
7 -0.65
8 -0.65
9 -0.65

> <PUBCHEM_EFFECTIVE_ROTOR_COUNT>
3

> <PUBCHEM_PHARMACOPHORE_FEATURES>
11
1 3 donor
1 4 acceptor
1 5 acceptor
1 6 acceptor
1 7 acceptor
1 8 acceptor
1 9 acceptor
4 1 4 6 7 anion
4 2 5 8 9 anion
6 12 13 14 15 16 19 rings
6 12 13 17 18 20 21 rings

> <PUBCHEM_HEAVY_ATOM_COUNT>
21

> <PUBCHEM_ATOM_DEF_STEREO_COUNT>
0

> <PUBCHEM_ATOM_UDEF_STEREO_COUNT>
0

> <PUBCHEM_BOND_DEF_STEREO_COUNT>
0

> <PUBCHEM_BOND_UDEF_STEREO_COUNT>
0

> <PUBCHEM_ISOTOPIC_ATOM_COUNT>
0

> <PUBCHEM_COMPONENT_COUNT>
1

> <PUBCHEM_CACTVS_TAUTO_COUNT>
4

> <PUBCHEM_CONFORMER_ID>
000029B100000001

> <PUBCHEM_MMFF94_ENERGY>
47.1725

> <PUBCHEM_FEATURE_SELFOVERLAP>
55.958

> <PUBCHEM_SHAPE_FINGERPRINT>
10062212 137 18342741827273807995
10319926 262 18192174761855942202
10616163 171 18338514244078774974
10967382 1 18050846611347144061
11543360 7 15338833119170255454
11578080 2 17459492003678532601
11806522 49 18342737395363248908
12032990 46 18340483361792140151
12236239 1 17775282799001588222
12553582 1 18411418375754032491
12788726 201 18342455945956038282
13134695 92 18191310364752883221
13140716 1 18409726244876143913
13583140 156 14273446003040906607
138480 1 15457057458306886709
14178342 30 18196946671973693402
15042514 8 18411694426677197561
15196674 1 18412261731532369100
16945 1 18338229487414526341
17492 89 18412542133031551922
17804303 29 18408882949432668224
1813 80 17704064092942482950
18222031 100 18261962825389692703
19141452 34 18187640285207701751
200 152 18408892806514475143
20281475 54 18268142051057839151
20510252 161 18335420196777557200
21029758 11 18337958887553199133
21267235 1 18340758261321912523
221490 88 18126560120228643083
2297311 6 18335968827452295502
2334 1 18339078173316076357
23366157 5 17915740882085528660
23402539 116 18407764728985366935
23557571 272 18260537948519254398
23559900 14 18409737240124595528
23845131 108 17543335508006013057
2748010 2 18337964380837827125
3091708 16 9494972866762515049
312423 11 18272072899532087892
335352 9 18339642351572193925
5104073 3 18410856551313950752
54173680 148 18411134766167668892
7364860 26 17760082922183139753
8809292 202 18342735230214499963
8863177 126 17557127416824140267
9709674 26 18117837918224767934

> <PUBCHEM_SHAPE_MULTIPOLES>
387.93
9.05
3.02
0.86
5.79
1.47
0.09
-5.67
0.2
-2.2
0.22
0.04
-0.16
-0.23

> <PUBCHEM_SHAPE_SELFOVERLAP>
824.761

> <PUBCHEM_SHAPE_VOLUME>
217.2

> <PUBCHEM_COORDINATE_TYPE>
2
5
10

$$$$

