51090931
  -OEChem-06241223003D

 40 42  0     1  0  0  0  0  0999 V2000
   -5.9307   -2.6431   -0.1227 F   0  0  0  0  0  0  0  0  0  0  0  0
   -4.8943   -1.7965    1.5979 F   0  0  0  0  0  0  0  0  0  0  0  0
   -6.2401   -0.5513    0.4070 F   0  0  0  0  0  0  0  0  0  0  0  0
    1.3657    2.6439    1.0200 O   0  0  0  0  0  0  0  0  0  0  0  0
    3.9656   -2.4176   -0.7206 O   0  0  0  0  0  0  0  0  0  0  0  0
    6.0124   -1.5350    0.1952 O   0  0  0  0  0  0  0  0  0  0  0  0
   -3.4866    0.0334   -0.0574 N   0  0  1  0  0  0  0  0  0  0  0  0
    0.5604    1.4664   -0.8098 N   0  0  0  0  0  0  0  0  0  0  0  0
   -1.7882    1.5981   -0.1650 C   0  0  1  0  0  0  0  0  0  0  0  0
   -3.1116    2.3553   -0.2988 C   0  0  0  0  0  0  0  0  0  0  0  0
   -2.1339    0.1776   -0.5967 C   0  0  0  0  0  0  0  0  0  0  0  0
   -4.1809    1.2713   -0.4184 C   0  0  0  0  0  0  0  0  0  0  0  0
   -0.6555    2.2094   -0.9726 C   0  0  0  0  0  0  0  0  0  0  0  0
   -4.1638   -1.1522   -0.5605 C   0  0  0  0  0  0  0  0  0  0  0  0
   -5.3153   -1.5327    0.3425 C   0  0  0  0  0  0  0  0  0  0  0  0
    1.4879    1.7477    0.1891 C   0  0  0  0  0  0  0  0  0  0  0  0
    2.7096    0.9025    0.2074 C   0  0  0  0  0  0  0  0  0  0  0  0
    2.6622   -0.3953   -0.3073 C   0  0  0  0  0  0  0  0  0  0  0  0
    3.9037    1.4174    0.7419 C   0  0  0  0  0  0  0  0  0  0  0  0
    3.8221   -1.1418   -0.2694 C   0  0  0  0  0  0  0  0  0  0  0  0
    4.9909   -0.6378    0.2536 C   0  0  0  0  0  0  0  0  0  0  0  0
    5.0644    0.6405    0.7678 C   0  0  0  0  0  0  0  0  0  0  0  0
    5.3559   -2.6601   -0.4233 C   0  0  0  0  0  0  0  0  0  0  0  0
   -1.5067    1.5827    0.8982 H   0  0  0  0  0  0  0  0  0  0  0  0
   -3.2777    2.9811    0.5854 H   0  0  0  0  0  0  0  0  0  0  0  0
   -3.1302    3.0074   -1.1792 H   0  0  0  0  0  0  0  0  0  0  0  0
   -1.4448   -0.5552   -0.1638 H   0  0  0  0  0  0  0  0  0  0  0  0
   -2.1208    0.0763   -1.6898 H   0  0  0  0  0  0  0  0  0  0  0  0
   -4.5557    1.2504   -1.4496 H   0  0  0  0  0  0  0  0  0  0  0  0
   -5.0208    1.4834    0.2499 H   0  0  0  0  0  0  0  0  0  0  0  0
   -0.8929    2.2157   -2.0422 H   0  0  0  0  0  0  0  0  0  0  0  0
   -0.4885    3.2473   -0.6629 H   0  0  0  0  0  0  0  0  0  0  0  0
   -3.4676   -2.0006   -0.5623 H   0  0  0  0  0  0  0  0  0  0  0  0
   -4.5066   -1.0284   -1.5948 H   0  0  0  0  0  0  0  0  0  0  0  0
    0.7491    0.7473   -1.4997 H   0  0  0  0  0  0  0  0  0  0  0  0
    1.7579   -0.8437   -0.7023 H   0  0  0  0  0  0  0  0  0  0  0  0
    3.9442    2.4290    1.1386 H   0  0  0  0  0  0  0  0  0  0  0  0
    5.9874    1.0340    1.1781 H   0  0  0  0  0  0  0  0  0  0  0  0
    5.4254   -3.5213    0.2512 H   0  0  0  0  0  0  0  0  0  0  0  0
    5.8775   -2.9012   -1.3567 H   0  0  0  0  0  0  0  0  0  0  0  0
  1 15  1  0  0  0  0
  2 15  1  0  0  0  0
  3 15  1  0  0  0  0
  4 16  2  0  0  0  0
  5 20  1  0  0  0  0
  5 23  1  0  0  0  0
  6 21  1  0  0  0  0
  6 23  1  0  0  0  0
  7 11  1  0  0  0  0
  7 12  1  0  0  0  0
  7 14  1  0  0  0  0
  8 13  1  0  0  0  0
  8 16  1  0  0  0  0
  8 35  1  0  0  0  0
  9 10  1  0  0  0  0
  9 11  1  0  0  0  0
  9 13  1  0  0  0  0
  9 24  1  0  0  0  0
 10 12  1  0  0  0  0
 10 25  1  0  0  0  0
 10 26  1  0  0  0  0
 11 27  1  0  0  0  0
 11 28  1  0  0  0  0
 12 29  1  0  0  0  0
 12 30  1  0  0  0  0
 13 31  1  0  0  0  0
 13 32  1  0  0  0  0
 14 15  1  0  0  0  0
 14 33  1  0  0  0  0
 14 34  1  0  0  0  0
 16 17  1  0  0  0  0
 17 18  2  0  0  0  0
 17 19  1  0  0  0  0
 18 20  1  0  0  0  0
 18 36  1  0  0  0  0
 19 22  2  0  0  0  0
 19 37  1  0  0  0  0
 20 21  2  0  0  0  0
 21 22  1  0  0  0  0
 22 38  1  0  0  0  0
 23 39  1  0  0  0  0
 23 40  1  0  0  0  0
M  END
> <PUBCHEM_COMPOUND_CID>
51090931

> <PUBCHEM_CONFORMER_RMSD>
0.8

> <PUBCHEM_CONFORMER_DIVERSEORDER>
1
183
46
32
143
59
34
211
162
198
210
112
51
5
52
205
203
58
218
86
115
204
237
35
135
87
176
4
173
222
167
187
106
29
63
36
136
116
103
92
13
191
97
170
107
73
202
2
94
132
141
193
123
226
175
153
214
71
113
158
64
39
155
111
44
79
102
179
50
17
225
199
220
25
201
84
171
232
227
10
139
40
140
147
149
125
60
26
55
19
206
182
47
48
114
168
43
188
197
122
104
110
121
105
41
169
190
16
235
236
15
24
81
152
9
56
76
145
154
192
231
160
124
223
80
207
164
93
69
53
33
12
138
119
22
130
72
14
229
161
137
212
180
238
185
23
118
239
96
195
224
213
100
156
150
128
165
91
49
148
30
7
62
66
208
184
31
159
38
200
18
209
101
3
57
21
98
131
217
6
20
99
65
228
133
109
151
157
242
8
196
37
54
126
88
70
85
27
219
108
243
120
28
82
77
189
233
75
11
215
194
95
174
241
234
221
230
83
42
134
163
166
74
129
144
45
67
78
240
90
178
186
117
216
61
172
89
127
177
142
68
146
181

> <PUBCHEM_MMFF94_PARTIAL_CHARGES>
25
1 -0.34
11 0.27
12 0.27
13 0.3
14 0.27
15 1.02
16 0.54
17 0.09
18 -0.15
19 -0.15
2 -0.34
20 0.08
21 0.08
22 -0.15
23 0.56
3 -0.34
35 0.37
36 0.15
37 0.15
38 0.15
4 -0.57
5 -0.36
6 -0.36
7 -0.81
8 -0.73

> <PUBCHEM_EFFECTIVE_ROTOR_COUNT>
7.6

> <PUBCHEM_PHARMACOPHORE_FEATURES>
8
1 4 acceptor
1 5 acceptor
1 6 acceptor
1 7 cation
1 8 donor
5 5 6 20 21 23 rings
5 7 9 10 11 12 rings
6 17 18 19 20 21 22 rings

> <PUBCHEM_HEAVY_ATOM_COUNT>
23

> <PUBCHEM_ATOM_DEF_STEREO_COUNT>
0

> <PUBCHEM_ATOM_UDEF_STEREO_COUNT>
1

> <PUBCHEM_BOND_DEF_STEREO_COUNT>
0

> <PUBCHEM_BOND_UDEF_STEREO_COUNT>
0

> <PUBCHEM_ISOTOPIC_ATOM_COUNT>
0

> <PUBCHEM_COMPONENT_COUNT>
1

> <PUBCHEM_CACTVS_TAUTO_COUNT>
2

> <PUBCHEM_CONFORMER_ID>
030B95F300000001

> <PUBCHEM_MMFF94_ENERGY>
48.577

> <PUBCHEM_FEATURE_SELFOVERLAP>
40.75

> <PUBCHEM_SHAPE_FINGERPRINT>
108634 29 18201714038285493842
11197282 1 18411416219738764455
11796584 16 18198632231646421540
11809386 21 17988088914237471497
12107183 9 18189041157611126265
12596602 18 16588306021035070298
12623949 98 18261103063442343310
12633257 1 16370730292423334829
12760667 363 18409732855379068285
12892183 10 18113341903209383760
13103583 49 17822280327560144697
13255334 9 18338799017547644774
13402501 40 18411699902354785662
13533116 47 18336546002184692977
13551218 46 18335701616141349367
13911882 115 18411418380565561976
13955234 65 18044662996903468736
14123256 34 18335696178712843710
1420 369 18341612590409374573
14216079 64 18412545388980382407
14251751 18 18409448093876747685
14251764 30 18411138060576364138
14341114 176 18333449837238036980
14420673 8 18192427687150891759
14528608 73 10447929460100718665
14950920 106 17168145585998850955
15196674 1 18409732884811089884
15238133 3 6338943487267567570
15342816 4 17632026307584250824
15352361 1 18411420617731800573
15537594 2 18113618941674152092
17492 89 18410294696392637773
17627616 140 17630614629027774123
1768 124 18261956220210377279
17959699 21 9439399142537073420
1813 80 17632579357379553668
193927 3 17988357079675040529
20281389 69 7565348634633190605
20403669 9 18413387635512762779
21197605 99 18263083228129176326
21267235 1 18334010627719428038
21623969 137 18187366545387684214
21682296 61 18411697656830623411
221490 88 18336269046009488748
22393880 68 18129953397769082368
23424784 1240 18261386819179037294
23559900 14 18411430492463689325
25122255 55 18341610413024550751
2748736 6 8502375494818923579
3014063 24 18261961730901091247
3089732 80 18412542110976226483
312425 54 18334292114932486937
314194 84 18187936044770612612
316301 35 18412831295883255898
33382 64 18334294262605954224
3421961 26 18335423422198191744
4073 2 18411421756109500912
439807 62 18272368710729980314
465052 167 18113899399244617446
5104073 3 18187933923310119336
5365585 94 18201993309822421883
54583773 228 18340197588962233702
5486654 36 18337104665797845241
56633871 153 18265610984319015943
636775 8 18189888907458167438
6431902 208 18410580569626901839
7062679 13 18341615953347889162
7970288 3 18268431235675445615
8863177 126 18409166614863733966
9709674 26 18341894060848706712

> <PUBCHEM_SHAPE_MULTIPOLES>
423.94
15.99
3.13
0.92
5.5
0.57
0.11
12.88
2.21
0.48
-0.06
0.22
-0.02
1.9

> <PUBCHEM_SHAPE_SELFOVERLAP>
909.3

> <PUBCHEM_SHAPE_VOLUME>
236.7

> <PUBCHEM_COORDINATE_TYPE>
2
5
10

$$$$

