17396070
  -OEChem-06241222542D

 56 59  0     1  0  0  0  0  0999 V2000
    8.0524    1.2842    0.0000 S   0  0  0  0  0  0  0  0  0  0  0  0
    2.8660   -0.3546    0.0000 O   0  0  0  0  0  0  0  0  0  0  0  0
    6.5661   -0.0540    0.0000 O   0  0  0  0  0  0  0  0  0  0  0  0
    6.3301   -2.3546    0.0000 O   0  0  0  0  0  0  0  0  0  0  0  0
    5.4071    1.2332    0.0000 N   0  0  0  0  0  0  0  0  0  0  0  0
    9.7736    1.7455    0.0000 N   0  0  0  0  0  0  0  0  0  0  0  0
    8.6910    2.9479    0.0000 N   0  0  0  0  0  0  0  0  0  0  0  0
   10.2736    2.6115    0.0000 N   0  0  0  0  0  0  0  0  0  0  0  0
    9.6045    3.3546    0.0000 N   0  0  0  0  0  0  0  0  0  0  0  0
    4.5981    0.6454    0.0000 C   0  0  3  0  0  0  0  0  0  0  0  0
    3.7891    1.2332    0.0000 C   0  0  0  0  0  0  0  0  0  0  0  0
    4.0981    2.1842    0.0000 C   0  0  0  0  0  0  0  0  0  0  0  0
    5.0981    2.1842    0.0000 C   0  0  0  0  0  0  0  0  0  0  0  0
    4.5981   -0.3546    0.0000 C   0  0  0  0  0  0  0  0  0  0  0  0
    6.3582    0.9241    0.0000 C   0  0  0  0  0  0  0  0  0  0  0  0
    3.7320   -0.8546    0.0000 C   0  0  0  0  0  0  0  0  0  0  0  0
    5.4641   -0.8546    0.0000 C   0  0  0  0  0  0  0  0  0  0  0  0
    7.1013    1.5933    0.0000 C   0  0  0  0  0  0  0  0  0  0  0  0
    5.4641   -1.8546    0.0000 C   0  0  0  0  0  0  0  0  0  0  0  0
    3.7320   -1.8546    0.0000 C   0  0  0  0  0  0  0  0  0  0  0  0
    4.5981   -2.3546    0.0000 C   0  0  0  0  0  0  0  0  0  0  0  0
    2.0000   -0.8546    0.0000 C   0  0  0  0  0  0  0  0  0  0  0  0
    8.7955    1.9534    0.0000 C   0  0  0  0  0  0  0  0  0  0  0  0
    6.3301   -3.3546    0.0000 C   0  0  0  0  0  0  0  0  0  0  0  0
   10.1804    0.8319    0.0000 C   0  0  0  0  0  0  0  0  0  0  0  0
   11.1749    0.7274    0.0000 C   0  0  0  0  0  0  0  0  0  0  0  0
    9.5926    0.0229    0.0000 C   0  0  0  0  0  0  0  0  0  0  0  0
   10.9939   -0.9952    0.0000 C   0  0  0  0  0  0  0  0  0  0  0  0
   11.5816   -0.1862    0.0000 C   0  0  0  0  0  0  0  0  0  0  0  0
    9.9993   -0.8906    0.0000 C   0  0  0  0  0  0  0  0  0  0  0  0
   11.4006   -1.9087    0.0000 C   0  0  0  0  0  0  0  0  0  0  0  0
    5.1505    0.3639    0.0000 H   0  0  0  0  0  0  0  0  0  0  0  0
    3.2227    1.4853    0.0000 H   0  0  0  0  0  0  0  0  0  0  0  0
    3.4791    0.6962    0.0000 H   0  0  0  0  0  0  0  0  0  0  0  0
    4.1629    2.8008    0.0000 H   0  0  0  0  0  0  0  0  0  0  0  0
    3.4916    2.3131    0.0000 H   0  0  0  0  0  0  0  0  0  0  0  0
    5.7045    2.3131    0.0000 H   0  0  0  0  0  0  0  0  0  0  0  0
    5.0333    2.8008    0.0000 H   0  0  0  0  0  0  0  0  0  0  0  0
    6.0010   -0.5446    0.0000 H   0  0  0  0  0  0  0  0  0  0  0  0
    7.3924    2.1407    0.0000 H   0  0  0  0  0  0  0  0  0  0  0  0
    6.6127    1.9750    0.0000 H   0  0  0  0  0  0  0  0  0  0  0  0
    3.1951   -2.1646    0.0000 H   0  0  0  0  0  0  0  0  0  0  0  0
    4.5981   -2.9746    0.0000 H   0  0  0  0  0  0  0  0  0  0  0  0
    1.6900   -0.3177    0.0000 H   0  0  0  0  0  0  0  0  0  0  0  0
    1.4631   -1.1646    0.0000 H   0  0  0  0  0  0  0  0  0  0  0  0
    2.3100   -1.3916    0.0000 H   0  0  0  0  0  0  0  0  0  0  0  0
    5.7101   -3.3546    0.0000 H   0  0  0  0  0  0  0  0  0  0  0  0
    6.3301   -3.9746    0.0000 H   0  0  0  0  0  0  0  0  0  0  0  0
    6.9501   -3.3546    0.0000 H   0  0  0  0  0  0  0  0  0  0  0  0
   11.5393    1.2290    0.0000 H   0  0  0  0  0  0  0  0  0  0  0  0
    8.9760    0.0877    0.0000 H   0  0  0  0  0  0  0  0  0  0  0  0
   12.1982   -0.2510    0.0000 H   0  0  0  0  0  0  0  0  0  0  0  0
    9.6349   -1.3922    0.0000 H   0  0  0  0  0  0  0  0  0  0  0  0
   10.8342   -2.1609    0.0000 H   0  0  0  0  0  0  0  0  0  0  0  0
   11.6528   -2.4751    0.0000 H   0  0  0  0  0  0  0  0  0  0  0  0
   11.9670   -1.6565    0.0000 H   0  0  0  0  0  0  0  0  0  0  0  0
  1 18  1  0  0  0  0
  1 23  1  0  0  0  0
  2 16  1  0  0  0  0
  2 22  1  0  0  0  0
  3 15  2  0  0  0  0
  4 19  1  0  0  0  0
  4 24  1  0  0  0  0
  5 10  1  0  0  0  0
  5 13  1  0  0  0  0
  5 15  1  0  0  0  0
  6  8  1  0  0  0  0
  6 23  1  0  0  0  0
  6 25  1  0  0  0  0
  7  9  1  0  0  0  0
  7 23  2  0  0  0  0
  8  9  2  0  0  0  0
 10 11  1  0  0  0  0
 10 14  1  0  0  0  0
 10 32  1  0  0  0  0
 11 12  1  0  0  0  0
 11 33  1  0  0  0  0
 11 34  1  0  0  0  0
 12 13  1  0  0  0  0
 12 35  1  0  0  0  0
 12 36  1  0  0  0  0
 13 37  1  0  0  0  0
 13 38  1  0  0  0  0
 14 16  2  0  0  0  0
 14 17  1  0  0  0  0
 15 18  1  0  0  0  0
 16 20  1  0  0  0  0
 17 19  2  0  0  0  0
 17 39  1  0  0  0  0
 18 40  1  0  0  0  0
 18 41  1  0  0  0  0
 19 21  1  0  0  0  0
 20 21  2  0  0  0  0
 20 42  1  0  0  0  0
 21 43  1  0  0  0  0
 22 44  1  0  0  0  0
 22 45  1  0  0  0  0
 22 46  1  0  0  0  0
 24 47  1  0  0  0  0
 24 48  1  0  0  0  0
 24 49  1  0  0  0  0
 25 26  2  0  0  0  0
 25 27  1  0  0  0  0
 26 29  1  0  0  0  0
 26 50  1  0  0  0  0
 27 30  2  0  0  0  0
 27 51  1  0  0  0  0
 28 29  2  0  0  0  0
 28 30  1  0  0  0  0
 28 31  1  0  0  0  0
 29 52  1  0  0  0  0
 30 53  1  0  0  0  0
 31 54  1  0  0  0  0
 31 55  1  0  0  0  0
 31 56  1  0  0  0  0
M  END
> <PUBCHEM_COMPOUND_CID>
17396070

> <PUBCHEM_COMPOUND_CANONICALIZED>
1

> <PUBCHEM_CACTVS_COMPLEXITY>
592

> <PUBCHEM_CACTVS_HBOND_ACCEPTOR>
7

> <PUBCHEM_CACTVS_HBOND_DONOR>
0

> <PUBCHEM_CACTVS_ROTATABLE_BOND>
7

> <PUBCHEM_CACTVS_SUBSKEYS>
AAADceB7sABAAAAAAAAAAAAAAAAAAWLAAAAwYAAAAAAAAAAB0AAAHgQIAAAADCzF2Aaz1ocIBAiqAiVSdACCHCNhIpAdiAAObIiMJiLEuZuEMChmxhPI6CfwwLAOCQABAAAIAAASAAIAABAAAAAAAAAAAA==

> <PUBCHEM_IUPAC_OPENEYE_NAME>
1-[2-(2,5-dimethoxyphenyl)pyrrolidin-1-yl]-2-[1-(p-tolyl)tetrazol-5-yl]sulfanyl-ethanone

> <PUBCHEM_IUPAC_CAS_NAME>
1-[2-(2,5-dimethoxyphenyl)-1-pyrrolidinyl]-2-[[1-(4-methylphenyl)-5-tetrazolyl]thio]ethanone

> <PUBCHEM_IUPAC_NAME>
1-[2-(2,5-dimethoxyphenyl)pyrrolidin-1-yl]-2-[1-(4-methylphenyl)tetrazol-5-yl]sulfanylethanone

> <PUBCHEM_IUPAC_SYSTEMATIC_NAME>
1-[2-(2,5-dimethoxyphenyl)pyrrolidin-1-yl]-2-[[1-(4-methylphenyl)-1,2,3,4-tetrazol-5-yl]sulfanyl]ethanone

> <PUBCHEM_IUPAC_TRADITIONAL_NAME>
1-[2-(2,5-dimethoxyphenyl)pyrrolidino]-2-[[1-(p-tolyl)tetrazol-5-yl]thio]ethanone

> <PUBCHEM_IUPAC_INCHI>
InChI=1S/C22H25N5O3S/c1-15-6-8-16(9-7-15)27-22(23-24-25-27)31-14-21(28)26-12-4-5-19(26)18-13-17(29-2)10-11-20(18)30-3/h6-11,13,19H,4-5,12,14H2,1-3H3

> <PUBCHEM_IUPAC_INCHIKEY>
GIGWSUKLPWYVBF-UHFFFAOYSA-N

> <PUBCHEM_XLOGP3_AA>
3.9

> <PUBCHEM_EXACT_MASS>
439.167811

> <PUBCHEM_MOLECULAR_FORMULA>
C22H25N5O3S

> <PUBCHEM_MOLECULAR_WEIGHT>
439.5306

> <PUBCHEM_OPENEYE_CAN_SMILES>
CC1=CC=C(C=C1)N2C(=NN=N2)SCC(=O)N3CCCC3C4=C(C=CC(=C4)OC)OC

> <PUBCHEM_OPENEYE_ISO_SMILES>
CC1=CC=C(C=C1)N2C(=NN=N2)SCC(=O)N3CCCC3C4=C(C=CC(=C4)OC)OC

> <PUBCHEM_CACTVS_TPSA>
108

> <PUBCHEM_MONOISOTOPIC_WEIGHT>
439.167811

> <PUBCHEM_TOTAL_CHARGE>
0

> <PUBCHEM_HEAVY_ATOM_COUNT>
31

> <PUBCHEM_ATOM_DEF_STEREO_COUNT>
0

> <PUBCHEM_ATOM_UDEF_STEREO_COUNT>
1

> <PUBCHEM_BOND_DEF_STEREO_COUNT>
0

> <PUBCHEM_BOND_UDEF_STEREO_COUNT>
0

> <PUBCHEM_ISOTOPIC_ATOM_COUNT>
0

> <PUBCHEM_COMPONENT_COUNT>
1

> <PUBCHEM_CACTVS_TAUTO_COUNT>
1

> <PUBCHEM_COORDINATE_TYPE>
1
5
255

> <PUBCHEM_BONDANNOTATIONS>
10  14  3
14  16  8
14  17  8
16  20  8
17  19  8
19  21  8
20  21  8
25  26  8
25  27  8
26  29  8
27  30  8
28  29  8
28  30  8
6  23  8
6  8  8
7  23  8
7  9  8
8  9  8

$$$$

