10374
  -OEChem-06261204303D

 23 24  0     0  0  0  0  0  0999 V2000
    5.2090    1.0802    0.0943 Cl  0  0  0  0  0  0  0  0  0  0  0  0
   -0.2123   -1.2865   -0.1614 N   0  0  0  0  0  0  0  0  0  0  0  0
   -1.5751    0.6049    0.0889 N   0  0  0  0  0  0  0  0  0  0  0  0
   -2.5397   -1.5759   -0.1778 N   0  0  0  0  0  0  0  0  0  0  0  0
   -3.9600    0.3412    0.0770 N   0  0  0  0  0  0  0  0  0  0  0  0
   -2.9878    2.4598    0.3365 N   0  0  0  0  0  0  0  0  0  0  0  0
    1.0791   -0.7229   -0.1008 C   0  0  0  0  0  0  0  0  0  0  0  0
    2.1427   -1.4697    0.4056 C   0  0  0  0  0  0  0  0  0  0  0  0
    1.2925    0.5812   -0.5473 C   0  0  0  0  0  0  0  0  0  0  0  0
   -1.5022   -0.7267   -0.0801 C   0  0  0  0  0  0  0  0  0  0  0  0
    3.4201   -0.9121    0.4657 C   0  0  0  0  0  0  0  0  0  0  0  0
    2.5698    1.1387   -0.4874 C   0  0  0  0  0  0  0  0  0  0  0  0
    3.6335    0.3921    0.0192 C   0  0  0  0  0  0  0  0  0  0  0  0
   -2.8337    1.0676    0.1585 C   0  0  0  0  0  0  0  0  0  0  0  0
   -3.7358   -0.9721   -0.0909 C   0  0  0  0  0  0  0  0  0  0  0  0
   -0.2266   -2.3020   -0.1518 H   0  0  0  0  0  0  0  0  0  0  0  0
    1.9893   -2.4866    0.7575 H   0  0  0  0  0  0  0  0  0  0  0  0
    0.5042    1.1825   -0.9879 H   0  0  0  0  0  0  0  0  0  0  0  0
    4.2395   -1.5055    0.8631 H   0  0  0  0  0  0  0  0  0  0  0  0
    2.7236    2.1528   -0.8473 H   0  0  0  0  0  0  0  0  0  0  0  0
   -4.6085   -1.6090   -0.1634 H   0  0  0  0  0  0  0  0  0  0  0  0
   -2.1672    3.0460    0.4027 H   0  0  0  0  0  0  0  0  0  0  0  0
   -3.9167    2.8538    0.3944 H   0  0  0  0  0  0  0  0  0  0  0  0
  1 13  1  0  0  0  0
  2  7  1  0  0  0  0
  2 10  1  0  0  0  0
  2 16  1  0  0  0  0
  3 10  1  0  0  0  0
  3 14  2  0  0  0  0
  4 10  2  0  0  0  0
  4 15  1  0  0  0  0
  5 14  1  0  0  0  0
  5 15  2  0  0  0  0
  6 14  1  0  0  0  0
  6 22  1  0  0  0  0
  6 23  1  0  0  0  0
  7  8  2  0  0  0  0
  7  9  1  0  0  0  0
  8 11  1  0  0  0  0
  8 17  1  0  0  0  0
  9 12  2  0  0  0  0
  9 18  1  0  0  0  0
 11 13  2  0  0  0  0
 11 19  1  0  0  0  0
 12 13  1  0  0  0  0
 12 20  1  0  0  0  0
 15 21  1  0  0  0  0
M  END
> <PUBCHEM_COMPOUND_CID>
10374

> <PUBCHEM_CONFORMER_RMSD>
0.6

> <PUBCHEM_CONFORMER_DIVERSEORDER>
1
6
7
2
4
3
5

> <PUBCHEM_MMFF94_PARTIAL_CHARGES>
23
1 -0.18
10 0.72
11 -0.15
12 -0.15
13 0.18
14 0.72
15 0.47
16 0.4
17 0.15
18 0.15
19 0.15
2 -0.6
20 0.15
21 0.15
22 0.4
23 0.4
3 -0.62
4 -0.62
5 -0.62
6 -0.9
7 0.1
8 -0.15
9 -0.15

> <PUBCHEM_EFFECTIVE_ROTOR_COUNT>
2

> <PUBCHEM_PHARMACOPHORE_FEATURES>
6
1 2 donor
1 6 donor
4 2 3 4 10 cation
4 3 5 6 14 cation
6 3 4 5 10 14 15 rings
6 7 8 9 11 12 13 rings

> <PUBCHEM_HEAVY_ATOM_COUNT>
15

> <PUBCHEM_ATOM_DEF_STEREO_COUNT>
0

> <PUBCHEM_ATOM_UDEF_STEREO_COUNT>
0

> <PUBCHEM_BOND_DEF_STEREO_COUNT>
0

> <PUBCHEM_BOND_UDEF_STEREO_COUNT>
0

> <PUBCHEM_ISOTOPIC_ATOM_COUNT>
0

> <PUBCHEM_COMPONENT_COUNT>
1

> <PUBCHEM_CACTVS_TAUTO_COUNT>
9

> <PUBCHEM_CONFORMER_ID>
0000288600000001

> <PUBCHEM_MMFF94_ENERGY>
50.2817

> <PUBCHEM_FEATURE_SELFOVERLAP>
30.489

> <PUBCHEM_SHAPE_FINGERPRINT>
10608611 8 18408605893734543137
10646746 165 18333169466569061880
12107183 9 17836090348350194258
12162725 195 18413107268653243855
12251169 10 18343301461443762222
12346645 44 18412827975773198610
12932764 1 17240776068059420910
13897977 58 18409164394376022469
14144814 61 18413388756393543627
14325111 11 18411136956600918406
15196674 1 18411419539668537952
15442244 35 18196093459118519314
15536298 74 18409165537069646246
15669948 3 18187936044886942975
15775835 57 18410290315504552536
17492 89 18411418440395346019
17802600 8 18336551533838800033
17834072 32 18265894855386363273
18186145 218 18202002170081516254
18522853 276 18411702062617392277
19050596 39 18413388722165661203
200 152 18339091397610168847
20233049 118 18114184138059070752
20300324 65 18187649072531038559
20510252 161 18260261971427736745
21267235 1 18412535509759049066
21652331 79 18410855456081374257
23402539 116 18262244321851536255
23402655 69 18410015450456117372
23463225 33 18342457062315082518
23557571 272 17749383737277421319
23559900 14 17970067957941013462
26918003 58 17775284911735322379
2916195 48 18041851584910941832
3545911 37 18411980256249586382
4214541 1 18410575114933734208
474 4 17774437183885616860
4921388 177 15068915113647999509
4990 188 18187353347253688894
5104073 3 18341332274994726402
7364860 26 18263078967516110046
77779 3 18410291428196650122
9709674 26 18410568483309635086

> <PUBCHEM_SHAPE_MULTIPOLES>
285.66
9.06
1.83
0.67
2.55
0.45
-0.01
2.38
0.64
-0.84
0.15
0.16
0.02
-0.56

> <PUBCHEM_SHAPE_SELFOVERLAP>
602.095

> <PUBCHEM_SHAPE_VOLUME>
159.1

> <PUBCHEM_COORDINATE_TYPE>
2
5
10

$$$$

