582808
  -OEChem-06241222443D

 17 17  0     0  0  0  0  0  0999 V2000
    1.7875    1.2406    0.4533 S   0  0  0  0  0  0  0  0  0  0  0  0
   -2.5804   -0.4738    0.4410 O   0  0  0  0  0  0  0  0  0  0  0  0
   -1.8610    0.6746    0.1086 N   0  0  0  0  0  0  0  0  0  0  0  0
    1.1892   -1.3748   -0.4308 C   0  0  0  0  0  0  0  0  0  0  0  0
   -0.2987   -1.1458   -0.2000 C   0  0  0  0  0  0  0  0  0  0  0  0
    2.0618   -0.5644    0.5210 C   0  0  0  0  0  0  0  0  0  0  0  0
   -0.6633    0.3193   -0.2276 C   0  0  0  0  0  0  0  0  0  0  0  0
    0.3648    1.3244   -0.6656 C   0  0  0  0  0  0  0  0  0  0  0  0
    1.4106   -2.4408   -0.2995 H   0  0  0  0  0  0  0  0  0  0  0  0
    1.4515   -1.1352   -1.4692 H   0  0  0  0  0  0  0  0  0  0  0  0
   -0.5572   -1.5722    0.7769 H   0  0  0  0  0  0  0  0  0  0  0  0
   -0.8686   -1.6729   -0.9737 H   0  0  0  0  0  0  0  0  0  0  0  0
    1.8856   -0.8855    1.5534 H   0  0  0  0  0  0  0  0  0  0  0  0
    3.1184   -0.7509    0.3028 H   0  0  0  0  0  0  0  0  0  0  0  0
    0.6727    1.1196   -1.6949 H   0  0  0  0  0  0  0  0  0  0  0  0
   -0.0581    2.3326   -0.6297 H   0  0  0  0  0  0  0  0  0  0  0  0
   -3.4476   -0.1012    0.6736 H   0  0  0  0  0  0  0  0  0  0  0  0
  1  6  1  0  0  0  0
  1  8  1  0  0  0  0
  2  3  1  0  0  0  0
  2 17  1  0  0  0  0
  3  7  2  0  0  0  0
  4  5  1  0  0  0  0
  4  6  1  0  0  0  0
  4  9  1  0  0  0  0
  4 10  1  0  0  0  0
  5  7  1  0  0  0  0
  5 11  1  0  0  0  0
  5 12  1  0  0  0  0
  6 13  1  0  0  0  0
  6 14  1  0  0  0  0
  7  8  1  0  0  0  0
  8 15  1  0  0  0  0
  8 16  1  0  0  0  0
M  END
> <PUBCHEM_COMPOUND_CID>
582808

> <PUBCHEM_CONFORMER_RMSD>
0.4

> <PUBCHEM_CONFORMER_DIVERSEORDER>
1
2

> <PUBCHEM_MMFF94_PARTIAL_CHARGES>
8
1 -0.46
17 0.4
2 -0.34
3 -0.51
5 0.06
6 0.23
7 0.33
8 0.29

> <PUBCHEM_EFFECTIVE_ROTOR_COUNT>
1

> <PUBCHEM_PHARMACOPHORE_FEATURES>
3
1 2 anion
1 3 acceptor
6 1 4 5 6 7 8 rings

> <PUBCHEM_HEAVY_ATOM_COUNT>
8

> <PUBCHEM_ATOM_DEF_STEREO_COUNT>
0

> <PUBCHEM_ATOM_UDEF_STEREO_COUNT>
0

> <PUBCHEM_BOND_DEF_STEREO_COUNT>
0

> <PUBCHEM_BOND_UDEF_STEREO_COUNT>
1

> <PUBCHEM_ISOTOPIC_ATOM_COUNT>
0

> <PUBCHEM_COMPONENT_COUNT>
1

> <PUBCHEM_CACTVS_TAUTO_COUNT>
2

> <PUBCHEM_CONFORMER_ID>
0008E49800000001

> <PUBCHEM_MMFF94_ENERGY>
16.6157

> <PUBCHEM_FEATURE_SELFOVERLAP>
15.223

> <PUBCHEM_SHAPE_FINGERPRINT>
10857977 72 18272093811369006635
18185500 45 16825882755831297134
20096714 4 18334300838047701850
21040471 1 18264768753425549620
23552449 11 18343022202807300339
29004967 10 18340485676637042546
5084963 1 18411138034637638360

> <PUBCHEM_SHAPE_MULTIPOLES>
157.64
2.86
1.61
0.78
1.08
0.05
-0.03
-0.05
0.77
-0.56
-0.17
-0.11
-0.05
0.12

> <PUBCHEM_SHAPE_SELFOVERLAP>
293.081

> <PUBCHEM_SHAPE_VOLUME>
99.9

> <PUBCHEM_COORDINATE_TYPE>
2
5
10

$$$$

