13897
  -OEChem-06241222402D

 28 27  0     0  0  0  0  0  0999 V2000
    6.5010    6.1200    0.0000 Na  0  3  0  0  0  0  0  0  0  0  0  0
    3.9030    3.6200    0.0000 O   0  0  0  0  0  0  0  0  0  0  0  0
    6.5010    5.1200    0.0000 O   0  5  0  0  0  0  0  0  0  0  0  0
    4.7690    5.1200    0.0000 O   0  0  0  0  0  0  0  0  0  0  0  0
    3.9030    1.6200    0.0000 C   0  0  0  0  0  0  0  0  0  0  0  0
    4.7690    2.1200    0.0000 C   0  0  0  0  0  0  0  0  0  0  0  0
    4.7690    3.1200    0.0000 C   0  0  0  0  0  0  0  0  0  0  0  0
    3.9030    0.6200    0.0000 C   0  0  0  0  0  0  0  0  0  0  0  0
    3.0369    2.1200    0.0000 C   0  0  0  0  0  0  0  0  0  0  0  0
    5.6350    1.6200    0.0000 C   0  0  0  0  0  0  0  0  0  0  0  0
    5.6350    3.6200    0.0000 C   0  0  0  0  0  0  0  0  0  0  0  0
    6.5010    3.1200    0.0000 C   0  0  0  0  0  0  0  0  0  0  0  0
    6.5010    2.1200    0.0000 C   0  0  0  0  0  0  0  0  0  0  0  0
    7.3671    3.6200    0.0000 C   0  0  0  0  0  0  0  0  0  0  0  0
    5.6350    4.6200    0.0000 C   0  0  0  0  0  0  0  0  0  0  0  0
    3.9030    2.2400    0.0000 H   0  0  0  0  0  0  0  0  0  0  0  0
    3.2830    0.6200    0.0000 H   0  0  0  0  0  0  0  0  0  0  0  0
    3.9030    0.0000    0.0000 H   0  0  0  0  0  0  0  0  0  0  0  0
    4.5230    0.6200    0.0000 H   0  0  0  0  0  0  0  0  0  0  0  0
    3.3469    2.6569    0.0000 H   0  0  0  0  0  0  0  0  0  0  0  0
    2.5000    2.4300    0.0000 H   0  0  0  0  0  0  0  0  0  0  0  0
    2.7269    1.5831    0.0000 H   0  0  0  0  0  0  0  0  0  0  0  0
    5.6350    1.0000    0.0000 H   0  0  0  0  0  0  0  0  0  0  0  0
    7.0380    1.8100    0.0000 H   0  0  0  0  0  0  0  0  0  0  0  0
    7.9040    3.9300    0.0000 H   0  0  0  0  0  0  0  0  0  0  0  0
    7.0571    4.1569    0.0000 H   0  0  0  0  0  0  0  0  0  0  0  0
    7.6771    3.0831    0.0000 H   0  0  0  0  0  0  0  0  0  0  0  0
    3.3660    3.3100    0.0000 H   0  0  0  0  0  0  0  0  0  0  0  0
  2  7  1  0  0  0  0
  2 28  1  0  0  0  0
  3 15  1  0  0  0  0
  4 15  2  0  0  0  0
  5  6  1  0  0  0  0
  5  8  1  0  0  0  0
  5  9  1  0  0  0  0
  5 16  1  0  0  0  0
  6  7  2  0  0  0  0
  6 10  1  0  0  0  0
  7 11  1  0  0  0  0
  8 17  1  0  0  0  0
  8 18  1  0  0  0  0
  8 19  1  0  0  0  0
  9 20  1  0  0  0  0
  9 21  1  0  0  0  0
  9 22  1  0  0  0  0
 10 13  2  0  0  0  0
 10 23  1  0  0  0  0
 11 12  2  0  0  0  0
 11 15  1  0  0  0  0
 12 13  1  0  0  0  0
 12 14  1  0  0  0  0
 13 24  1  0  0  0  0
 14 25  1  0  0  0  0
 14 26  1  0  0  0  0
 14 27  1  0  0  0  0
M  CHG  2   1   1   3  -1
M  END
> <PUBCHEM_COMPOUND_CID>
13897

> <PUBCHEM_COMPOUND_CANONICALIZED>
1

> <PUBCHEM_CACTVS_COMPLEXITY>
207

> <PUBCHEM_CACTVS_HBOND_ACCEPTOR>
3

> <PUBCHEM_CACTVS_HBOND_DONOR>
1

> <PUBCHEM_CACTVS_ROTATABLE_BOND>
1

> <PUBCHEM_CACTVS_SUBSKEYS>
AAADccBwMCAAAAAAAAAAAAAAAAAAAAAAAAAwAAAAAAAAAAABAAAAGgAACAAADQSAmAAyDoAAAgCIAiDSCAACAAAkIAAIiAEECMgIJzaCFRKAcUAl4BEImQeIyPCOwAADAAAYAACAAAYAADAAAAAAAAAAAA==

> <PUBCHEM_IUPAC_OPENEYE_NAME>
sodium 2-hydroxy-3-isopropyl-6-methyl-benzoate

> <PUBCHEM_IUPAC_CAS_NAME>
sodium 2-hydroxy-6-methyl-3-propan-2-ylbenzoate

> <PUBCHEM_IUPAC_NAME>
sodium 2-hydroxy-6-methyl-3-propan-2-ylbenzoate

> <PUBCHEM_IUPAC_SYSTEMATIC_NAME>
sodium 6-methyl-2-oxidanyl-3-propan-2-yl-benzoate

> <PUBCHEM_IUPAC_TRADITIONAL_NAME>
sodium 2-hydroxy-3-isopropyl-6-methyl-benzoate

> <PUBCHEM_IUPAC_INCHI>
InChI=1S/C11H14O3.Na/c1-6(2)8-5-4-7(3)9(10(8)12)11(13)14;/h4-6,12H,1-3H3,(H,13,14);/q;+1/p-1

> <PUBCHEM_IUPAC_INCHIKEY>
HTXDULDRRFEGRQ-UHFFFAOYSA-M

> <PUBCHEM_EXACT_MASS>
216.076239

> <PUBCHEM_MOLECULAR_FORMULA>
C11H13NaO3

> <PUBCHEM_MOLECULAR_WEIGHT>
216.208889

> <PUBCHEM_OPENEYE_CAN_SMILES>
CC1=C(C(=C(C=C1)C(C)C)O)C(=O)[O-].[Na+]

> <PUBCHEM_OPENEYE_ISO_SMILES>
CC1=C(C(=C(C=C1)C(C)C)O)C(=O)[O-].[Na+]

> <PUBCHEM_CACTVS_TPSA>
60.4

> <PUBCHEM_MONOISOTOPIC_WEIGHT>
216.076239

> <PUBCHEM_TOTAL_CHARGE>
0

> <PUBCHEM_HEAVY_ATOM_COUNT>
15

> <PUBCHEM_ATOM_DEF_STEREO_COUNT>
0

> <PUBCHEM_ATOM_UDEF_STEREO_COUNT>
0

> <PUBCHEM_BOND_DEF_STEREO_COUNT>
0

> <PUBCHEM_BOND_UDEF_STEREO_COUNT>
0

> <PUBCHEM_ISOTOPIC_ATOM_COUNT>
0

> <PUBCHEM_COMPONENT_COUNT>
2

> <PUBCHEM_CACTVS_TAUTO_COUNT>
13

> <PUBCHEM_COORDINATE_TYPE>
1
5
255

> <PUBCHEM_BONDANNOTATIONS>
10  13  8
11  12  8
12  13  8
6  10  8
6  7  8
7  11  8

$$$$

