13058
  -OEChem-06261207423D

 26 28  0     0  0  0  0  0  0999 V2000
    0.6573    2.0987    0.3901 C   0  0  0  0  0  0  0  0  0  0  0  0
   -0.6574    2.0987   -0.3900 C   0  0  0  0  0  0  0  0  0  0  0  0
    1.4353    0.8254    0.1590 C   0  0  0  0  0  0  0  0  0  0  0  0
   -1.4354    0.8254   -0.1592 C   0  0  0  0  0  0  0  0  0  0  0  0
    0.7419   -0.3967   -0.0099 C   0  0  0  0  0  0  0  0  0  0  0  0
   -0.7419   -0.3967    0.0097 C   0  0  0  0  0  0  0  0  0  0  0  0
    2.8378    0.8587    0.1711 C   0  0  0  0  0  0  0  0  0  0  0  0
   -2.8377    0.8586   -0.1711 C   0  0  0  0  0  0  0  0  0  0  0  0
    1.5080   -1.5597   -0.2044 C   0  0  0  0  0  0  0  0  0  0  0  0
   -1.5080   -1.5597    0.2042 C   0  0  0  0  0  0  0  0  0  0  0  0
    3.5694   -0.3100   -0.0149 C   0  0  0  0  0  0  0  0  0  0  0  0
   -3.5694   -0.3100    0.0152 C   0  0  0  0  0  0  0  0  0  0  0  0
    2.9055   -1.5163   -0.2069 C   0  0  0  0  0  0  0  0  0  0  0  0
   -2.9054   -1.5164    0.2071 C   0  0  0  0  0  0  0  0  0  0  0  0
    0.4603    2.1884    1.4661 H   0  0  0  0  0  0  0  0  0  0  0  0
    1.2474    2.9718    0.0879 H   0  0  0  0  0  0  0  0  0  0  0  0
   -0.4604    2.1885   -1.4660 H   0  0  0  0  0  0  0  0  0  0  0  0
   -1.2476    2.9719   -0.0877 H   0  0  0  0  0  0  0  0  0  0  0  0
    3.3646    1.7971    0.3234 H   0  0  0  0  0  0  0  0  0  0  0  0
   -3.3647    1.7971   -0.3233 H   0  0  0  0  0  0  0  0  0  0  0  0
    1.0368   -2.5254   -0.3677 H   0  0  0  0  0  0  0  0  0  0  0  0
   -1.0367   -2.5254    0.3675 H   0  0  0  0  0  0  0  0  0  0  0  0
    4.6548   -0.2797   -0.0114 H   0  0  0  0  0  0  0  0  0  0  0  0
   -4.6547   -0.2797    0.0120 H   0  0  0  0  0  0  0  0  0  0  0  0
    3.4738   -2.4297   -0.3584 H   0  0  0  0  0  0  0  0  0  0  0  0
   -3.4737   -2.4297    0.3587 H   0  0  0  0  0  0  0  0  0  0  0  0
  1  2  1  0  0  0  0
  1  3  1  0  0  0  0
  1 15  1  0  0  0  0
  1 16  1  0  0  0  0
  2  4  1  0  0  0  0
  2 17  1  0  0  0  0
  2 18  1  0  0  0  0
  3  5  1  0  0  0  0
  3  7  2  0  0  0  0
  4  6  1  0  0  0  0
  4  8  2  0  0  0  0
  5  6  1  0  0  0  0
  5  9  2  0  0  0  0
  6 10  2  0  0  0  0
  7 11  1  0  0  0  0
  7 19  1  0  0  0  0
  8 12  1  0  0  0  0
  8 20  1  0  0  0  0
  9 13  1  0  0  0  0
  9 21  1  0  0  0  0
 10 14  1  0  0  0  0
 10 22  1  0  0  0  0
 11 13  2  0  0  0  0
 11 23  1  0  0  0  0
 12 14  2  0  0  0  0
 12 24  1  0  0  0  0
 13 25  1  0  0  0  0
 14 26  1  0  0  0  0
M  END
> <PUBCHEM_COMPOUND_CID>
13058

> <PUBCHEM_CONFORMER_RMSD>
0.4

> <PUBCHEM_CONFORMER_DIVERSEORDER>
1
2

> <PUBCHEM_MMFF94_PARTIAL_CHARGES>
20
1 0.14
10 -0.15
11 -0.15
12 -0.15
13 -0.15
14 -0.15
19 0.15
2 0.14
20 0.15
21 0.15
22 0.15
23 0.15
24 0.15
25 0.15
26 0.15
3 -0.14
4 -0.14
7 -0.15
8 -0.15
9 -0.15

> <PUBCHEM_EFFECTIVE_ROTOR_COUNT>
0.4

> <PUBCHEM_PHARMACOPHORE_FEATURES>
3
6 1 2 3 4 5 6 rings
6 3 5 7 9 11 13 rings
6 4 6 8 10 12 14 rings

> <PUBCHEM_HEAVY_ATOM_COUNT>
14

> <PUBCHEM_ATOM_DEF_STEREO_COUNT>
0

> <PUBCHEM_ATOM_UDEF_STEREO_COUNT>
0

> <PUBCHEM_BOND_DEF_STEREO_COUNT>
0

> <PUBCHEM_BOND_UDEF_STEREO_COUNT>
0

> <PUBCHEM_ISOTOPIC_ATOM_COUNT>
0

> <PUBCHEM_COMPONENT_COUNT>
1

> <PUBCHEM_CACTVS_TAUTO_COUNT>
1

> <PUBCHEM_CONFORMER_ID>
0000330200000001

> <PUBCHEM_MMFF94_ENERGY>
41.0283

> <PUBCHEM_FEATURE_SELFOVERLAP>
15.268

> <PUBCHEM_SHAPE_FINGERPRINT>
10608611 8 18410579482709934308
10618630 7 18411417323602576356
10967382 1 18266458711218499330
11132069 177 18410018727568924672
11471102 20 18409453570144705461
12032990 46 18410569591400121699
12382932 28 18408886247724646866
13140716 1 18338236075809715882
13296908 3 18410854364917061891
14115302 16 18131059450653104047
14144814 61 18409448093908539235
15196674 1 18410856563934756870
15219456 202 18409732845876581896
15536298 74 18261392217746673464
16945 1 18410857663446631492
17844478 74 18273207621169822585
17990270 104 18340207367019567545
200 152 17895204272816038487
20201158 50 18410576192791235923
20510252 161 18262238953068842504
20588541 1 18410573993741405237
21267235 1 18410846668330548610
21501502 16 18410571794723469888
22721475 48 18410570686616632772
2334 1 18410856529580481634
23402539 116 18337122249050732374
23463225 33 18412262822311488028
23559900 14 18265902543820597018
2748010 2 18410578357438708094
3312278 4 18411134766362672384
335352 9 18122626320948137245
5104073 3 18410856563966445354
528886 8 18409173198816379834
53812653 166 18334298617507580984
69090 78 18334863814082488263
7364860 26 18192149291581719424
81228 2 18268417121906119216
8809292 202 18343297076345839882
9709674 26 18409727382826465718

> <PUBCHEM_SHAPE_MULTIPOLES>
288.11
5.55
2.16
0.66
0
0.44
0
-1.57
0
0
0
0
0.03
0.37

> <PUBCHEM_SHAPE_SELFOVERLAP>
639.879

> <PUBCHEM_SHAPE_VOLUME>
143.7

> <PUBCHEM_COORDINATE_TYPE>
2
5
10

$$$$

