17396491
  -OEChem-06241222573D

 62 65  0     0  0  0  0  0  0999 V2000
   -4.1258   -0.0723    0.8158 S   0  0  0  0  0  0  0  0  0  0  0  0
   -3.8606    0.1758    2.2260 O   0  0  0  0  0  0  0  0  0  0  0  0
   -5.5001   -0.1188    0.3358 O   0  0  0  0  0  0  0  0  0  0  0  0
   -0.2609    4.5332    0.3263 O   0  0  0  0  0  0  0  0  0  0  0  0
    6.0297   -1.1441   -0.6430 O   0  0  0  0  0  0  0  0  0  0  0  0
    3.7828   -2.7772   -0.6071 O   0  0  0  0  0  0  0  0  0  0  0  0
   -3.3326   -1.5162    0.3505 N   0  0  0  0  0  0  0  0  0  0  0  0
    0.8641    2.4982    0.5762 N   0  0  0  0  0  0  0  0  0  0  0  0
   -3.7792   -2.1043   -0.9392 C   0  0  0  0  0  0  0  0  0  0  0  0
   -1.8771   -1.5963    0.6329 C   0  0  0  0  0  0  0  0  0  0  0  0
   -3.1012   -3.4250   -1.2951 C   0  0  0  0  0  0  0  0  0  0  0  0
   -1.6056   -2.8476    1.4608 C   0  0  0  0  0  0  0  0  0  0  0  0
   -2.9323   -4.3939   -0.1256 C   0  0  0  0  0  0  0  0  0  0  0  0
   -1.6452   -4.1511    0.6648 C   0  0  0  0  0  0  0  0  0  0  0  0
    2.0374    3.1029    1.2030 C   0  0  0  0  0  0  0  0  0  0  0  0
    3.2914    2.7801    0.3997 C   0  0  0  0  0  0  0  0  0  0  0  0
   -3.2490    1.1075   -0.1258 C   0  0  0  0  0  0  0  0  0  0  0  0
    0.9002    1.0345    0.4338 C   0  0  0  0  0  0  0  0  0  0  0  0
    3.4173    1.2992    0.1538 C   0  0  0  0  0  0  0  0  0  0  0  0
    2.2757    0.4777    0.1525 C   0  0  0  0  0  0  0  0  0  0  0  0
   -0.2166    3.3090    0.2132 C   0  0  0  0  0  0  0  0  0  0  0  0
   -1.4129    2.6620   -0.3474 C   0  0  0  0  0  0  0  0  0  0  0  0
   -2.1131    1.7188    0.4048 C   0  0  0  0  0  0  0  0  0  0  0  0
   -3.6846    1.4392   -1.4087 C   0  0  0  0  0  0  0  0  0  0  0  0
    4.6726    0.7424   -0.1266 C   0  0  0  0  0  0  0  0  0  0  0  0
    2.4169   -0.8949   -0.0985 C   0  0  0  0  0  0  0  0  0  0  0  0
   -1.8486    2.9937   -1.6303 C   0  0  0  0  0  0  0  0  0  0  0  0
    4.7988   -0.6230   -0.3798 C   0  0  0  0  0  0  0  0  0  0  0  0
    3.6725   -1.4415   -0.3627 C   0  0  0  0  0  0  0  0  0  0  0  0
   -2.9844    2.3823   -2.1611 C   0  0  0  0  0  0  0  0  0  0  0  0
    6.7897   -1.6062    0.4719 C   0  0  0  0  0  0  0  0  0  0  0  0
    2.5808   -3.5441   -0.5707 C   0  0  0  0  0  0  0  0  0  0  0  0
   -3.6139   -1.3976   -1.7579 H   0  0  0  0  0  0  0  0  0  0  0  0
   -4.8569   -2.2945   -0.8706 H   0  0  0  0  0  0  0  0  0  0  0  0
   -1.5566   -0.7563    1.2514 H   0  0  0  0  0  0  0  0  0  0  0  0
   -1.2825   -1.5644   -0.2856 H   0  0  0  0  0  0  0  0  0  0  0  0
   -3.7091   -3.9098   -2.0697 H   0  0  0  0  0  0  0  0  0  0  0  0
   -2.1279   -3.2317   -1.7631 H   0  0  0  0  0  0  0  0  0  0  0  0
   -0.6093   -2.7604    1.9121 H   0  0  0  0  0  0  0  0  0  0  0  0
   -2.3210   -2.9091    2.2907 H   0  0  0  0  0  0  0  0  0  0  0  0
   -3.8060   -4.3695    0.5357 H   0  0  0  0  0  0  0  0  0  0  0  0
   -2.8776   -5.4107   -0.5346 H   0  0  0  0  0  0  0  0  0  0  0  0
   -1.5046   -4.9835    1.3653 H   0  0  0  0  0  0  0  0  0  0  0  0
   -0.7878   -4.1806   -0.0195 H   0  0  0  0  0  0  0  0  0  0  0  0
    2.1078    2.6975    2.2200 H   0  0  0  0  0  0  0  0  0  0  0  0
    1.9211    4.1879    1.2905 H   0  0  0  0  0  0  0  0  0  0  0  0
    3.2538    3.2870   -0.5723 H   0  0  0  0  0  0  0  0  0  0  0  0
    4.1680    3.1514    0.9428 H   0  0  0  0  0  0  0  0  0  0  0  0
    0.5378    0.6160    1.3796 H   0  0  0  0  0  0  0  0  0  0  0  0
    0.2385    0.7223   -0.3788 H   0  0  0  0  0  0  0  0  0  0  0  0
   -1.7858    1.4934    1.4161 H   0  0  0  0  0  0  0  0  0  0  0  0
   -4.5653    0.9753   -1.8436 H   0  0  0  0  0  0  0  0  0  0  0  0
    5.5556    1.3774   -0.1461 H   0  0  0  0  0  0  0  0  0  0  0  0
    1.5043   -1.4822   -0.0751 H   0  0  0  0  0  0  0  0  0  0  0  0
   -1.3103    3.7254   -2.2271 H   0  0  0  0  0  0  0  0  0  0  0  0
   -3.3229    2.6398   -3.1605 H   0  0  0  0  0  0  0  0  0  0  0  0
    6.9974   -0.7824    1.1622 H   0  0  0  0  0  0  0  0  0  0  0  0
    6.2596   -2.4093    0.9937 H   0  0  0  0  0  0  0  0  0  0  0  0
    7.7400   -1.9987    0.0998 H   0  0  0  0  0  0  0  0  0  0  0  0
    2.1252   -3.5351    0.4254 H   0  0  0  0  0  0  0  0  0  0  0  0
    1.8795   -3.2342   -1.3530 H   0  0  0  0  0  0  0  0  0  0  0  0
    2.8549   -4.5826   -0.7842 H   0  0  0  0  0  0  0  0  0  0  0  0
  1  2  2  0  0  0  0
  1  3  2  0  0  0  0
  1  7  1  0  0  0  0
  1 17  1  0  0  0  0
  4 21  2  0  0  0  0
  5 28  1  0  0  0  0
  5 31  1  0  0  0  0
  6 29  1  0  0  0  0
  6 32  1  0  0  0  0
  7  9  1  0  0  0  0
  7 10  1  0  0  0  0
  8 15  1  0  0  0  0
  8 18  1  0  0  0  0
  8 21  1  0  0  0  0
  9 11  1  0  0  0  0
  9 33  1  0  0  0  0
  9 34  1  0  0  0  0
 10 12  1  0  0  0  0
 10 35  1  0  0  0  0
 10 36  1  0  0  0  0
 11 13  1  0  0  0  0
 11 37  1  0  0  0  0
 11 38  1  0  0  0  0
 12 14  1  0  0  0  0
 12 39  1  0  0  0  0
 12 40  1  0  0  0  0
 13 14  1  0  0  0  0
 13 41  1  0  0  0  0
 13 42  1  0  0  0  0
 14 43  1  0  0  0  0
 14 44  1  0  0  0  0
 15 16  1  0  0  0  0
 15 45  1  0  0  0  0
 15 46  1  0  0  0  0
 16 19  1  0  0  0  0
 16 47  1  0  0  0  0
 16 48  1  0  0  0  0
 17 23  1  0  0  0  0
 17 24  2  0  0  0  0
 18 20  1  0  0  0  0
 18 49  1  0  0  0  0
 18 50  1  0  0  0  0
 19 20  1  0  0  0  0
 19 25  2  0  0  0  0
 20 26  2  0  0  0  0
 21 22  1  0  0  0  0
 22 23  2  0  0  0  0
 22 27  1  0  0  0  0
 23 51  1  0  0  0  0
 24 30  1  0  0  0  0
 24 52  1  0  0  0  0
 25 28  1  0  0  0  0
 25 53  1  0  0  0  0
 26 29  1  0  0  0  0
 26 54  1  0  0  0  0
 27 30  2  0  0  0  0
 27 55  1  0  0  0  0
 28 29  2  0  0  0  0
 30 56  1  0  0  0  0
 31 57  1  0  0  0  0
 31 58  1  0  0  0  0
 31 59  1  0  0  0  0
 32 60  1  0  0  0  0
 32 61  1  0  0  0  0
 32 62  1  0  0  0  0
M  END
> <PUBCHEM_COMPOUND_CID>
17396491

> <PUBCHEM_CONFORMER_RMSD>
1

> <PUBCHEM_CONFORMER_DIVERSEORDER>
1
106
74
111
107
66
104
118
96
18
108
79
91
60
127
51
101
81
89
19
62
57
67
109
125
68
43
17
52
16
44
128
88
72
115
61
24
93
11
69
100
82
71
131
39
136
135
29
137
98
119
5
28
25
134
73
112
23
132
70
48
54
113
49
76
85
138
22
117
87
35
90
129
130
97
78
139
26
21
75
120
65
34
123
50
30
124
45
53
42
10
12
56
15
41
99
64
94
92
37
95
3
105
103
59
80
63
58
121
102
33
133
86
20
9
2
122
4
116
32
36
140
40
84
55
114
14
38
47
13
27
7
110
46
83
31
126
8
77
6

> <PUBCHEM_MMFF94_PARTIAL_CHARGES>
34
1 1.45
10 0.36
15 0.3
16 0.14
17 -0.01
18 0.44
19 -0.14
2 -0.65
20 -0.14
21 0.54
22 0.09
23 -0.15
24 -0.15
25 -0.15
26 -0.15
27 -0.15
28 0.08
29 0.08
3 -0.65
30 -0.15
31 0.28
32 0.28
4 -0.57
5 -0.36
51 0.15
52 0.15
53 0.15
54 0.15
55 0.15
56 0.15
6 -0.36
7 -0.85
8 -0.66
9 0.36

> <PUBCHEM_EFFECTIVE_ROTOR_COUNT>
8.2

> <PUBCHEM_PHARMACOPHORE_FEATURES>
9
1 2 acceptor
1 3 acceptor
1 4 acceptor
1 5 acceptor
1 6 acceptor
6 17 22 23 24 27 30 rings
6 19 20 25 26 28 29 rings
6 8 15 16 18 19 20 rings
7 7 9 10 11 12 13 14 rings

> <PUBCHEM_HEAVY_ATOM_COUNT>
32

> <PUBCHEM_ATOM_DEF_STEREO_COUNT>
0

> <PUBCHEM_ATOM_UDEF_STEREO_COUNT>
0

> <PUBCHEM_BOND_DEF_STEREO_COUNT>
0

> <PUBCHEM_BOND_UDEF_STEREO_COUNT>
0

> <PUBCHEM_ISOTOPIC_ATOM_COUNT>
0

> <PUBCHEM_COMPONENT_COUNT>
1

> <PUBCHEM_CACTVS_TAUTO_COUNT>
1

> <PUBCHEM_CONFORMER_ID>
0109730B00000001

> <PUBCHEM_MMFF94_ENERGY>
94.581

> <PUBCHEM_FEATURE_SELFOVERLAP>
45.714

> <PUBCHEM_SHAPE_FINGERPRINT>
10675989 125 16468127600919091260
107951 10 17202202005429403609
11136131 41 17981057310837016440
11552529 35 17896036538445763863
11756154 67 18340760443387182759
12633257 1 18260817207519706425
12788726 201 18268711782775222930
13122387 1 17979073013468880155
13402501 40 18410853278311181715
1361 2 16896806761961347483
14251757 5 18342735234747162410
14279260 333 18194406809057718342
14659021 117 18337124452680269456
14910302 57 18338807710319144569
15320467 1 18337389439172600726
15927050 60 17760649570457343925
17627616 140 18055923335695729450
19315958 150 18264488374299119689
19611394 137 18261967319169982248
20764821 26 18410292488948096974
20775438 99 17758444804476284847
20775530 9 18266741273048990763
21133410 171 17473040155718267046
21987440 362 15754946679621804677
23559900 14 18264214616671381377
3380486 145 18268974410976808201
463206 1 18339636750576046034
508706 21 18272097066991289459
56633871 153 18266449924443613683
6433294 58 18410009961867811890
9709674 26 18194685856585634859

> <PUBCHEM_SHAPE_MULTIPOLES>
623.09
11.56
6.19
1.37
12.15
1.77
0.11
6.11
0.75
-2.51
0.4
-1.51
-0.32
1.63

> <PUBCHEM_SHAPE_SELFOVERLAP>
1313.013

> <PUBCHEM_SHAPE_VOLUME>
350.7

> <PUBCHEM_COORDINATE_TYPE>
2
5
10

$$$$

