5407
  -OEChem-06261200403D

 46 49  0     1  0  0  0  0  0999 V2000
   -3.1579    0.8052   -0.5382 O   0  0  0  0  0  0  0  0  0  0  0  0
   -4.6902   -0.2631   -1.7943 O   0  0  0  0  0  0  0  0  0  0  0  0
    5.6717   -0.0480    0.7317 O   0  0  0  0  0  0  0  0  0  0  0  0
   -0.5308   -0.6488    0.1998 C   0  0  2  0  0  0  0  0  0  0  0  0
    0.4417    0.5722    0.1521 C   0  0  1  0  0  0  0  0  0  0  0  0
   -1.7601   -0.3618    1.1274 C   0  0  1  0  0  0  0  0  0  0  0  0
   -2.4940    0.9423    0.7468 C   0  0  1  0  0  0  0  0  0  0  0  0
    1.7445    0.3011   -0.6931 C   0  0  1  0  0  0  0  0  0  0  0  0
   -0.3432    1.8145   -0.3109 C   0  0  0  0  0  0  0  0  0  0  0  0
   -1.5084    2.1146    0.6243 C   0  0  0  0  0  0  0  0  0  0  0  0
    0.2161   -1.9230    0.6447 C   0  0  0  0  0  0  0  0  0  0  0  0
   -2.7931   -1.4943    1.1095 C   0  0  0  0  0  0  0  0  0  0  0  0
    2.3648   -1.0056   -0.1987 C   0  0  0  0  0  0  0  0  0  0  0  0
    1.4562   -2.2037   -0.1951 C   0  0  0  0  0  0  0  0  0  0  0  0
   -3.5715    1.3511    1.7699 C   0  0  0  0  0  0  0  0  0  0  0  0
    1.4512    0.1820   -2.2061 C   0  0  0  0  0  0  0  0  0  0  0  0
    2.7212    1.4612   -0.5432 C   0  0  0  0  0  0  0  0  0  0  0  0
   -3.4754   -1.6064   -0.2403 C   0  0  0  0  0  0  0  0  0  0  0  0
   -3.8549   -0.3002   -0.8929 C   0  0  0  0  0  0  0  0  0  0  0  0
    3.6216   -1.1124    0.2603 C   0  0  0  0  0  0  0  0  0  0  0  0
    3.9733    1.3639   -0.0854 C   0  0  0  0  0  0  0  0  0  0  0  0
    4.5173    0.0593    0.3319 C   0  0  0  0  0  0  0  0  0  0  0  0
   -0.8986   -0.8208   -0.8194 H   0  0  0  0  0  0  0  0  0  0  0  0
    0.7661    0.7630    1.1879 H   0  0  0  0  0  0  0  0  0  0  0  0
   -1.3817   -0.2633    2.1545 H   0  0  0  0  0  0  0  0  0  0  0  0
   -0.7233    1.6725   -1.3292 H   0  0  0  0  0  0  0  0  0  0  0  0
    0.2986    2.7004   -0.3318 H   0  0  0  0  0  0  0  0  0  0  0  0
   -1.1122    2.3769    1.6139 H   0  0  0  0  0  0  0  0  0  0  0  0
   -2.0281    3.0013    0.2389 H   0  0  0  0  0  0  0  0  0  0  0  0
   -0.4356   -2.7989    0.5656 H   0  0  0  0  0  0  0  0  0  0  0  0
    0.5013   -1.8324    1.7010 H   0  0  0  0  0  0  0  0  0  0  0  0
   -3.5509   -1.3164    1.8815 H   0  0  0  0  0  0  0  0  0  0  0  0
   -2.3500   -2.4562    1.3843 H   0  0  0  0  0  0  0  0  0  0  0  0
    1.1687   -2.4590   -1.2214 H   0  0  0  0  0  0  0  0  0  0  0  0
    1.9624   -3.0896    0.2077 H   0  0  0  0  0  0  0  0  0  0  0  0
   -3.9932    2.3307    1.5137 H   0  0  0  0  0  0  0  0  0  0  0  0
   -4.4231    0.6639    1.7754 H   0  0  0  0  0  0  0  0  0  0  0  0
   -3.1603    1.4106    2.7827 H   0  0  0  0  0  0  0  0  0  0  0  0
    1.1252    1.1367   -2.6353 H   0  0  0  0  0  0  0  0  0  0  0  0
    2.3475   -0.1251   -2.7605 H   0  0  0  0  0  0  0  0  0  0  0  0
    0.6701   -0.5521   -2.4265 H   0  0  0  0  0  0  0  0  0  0  0  0
    2.3917    2.4468   -0.8631 H   0  0  0  0  0  0  0  0  0  0  0  0
   -4.3877   -2.2025   -0.1222 H   0  0  0  0  0  0  0  0  0  0  0  0
   -2.8237   -2.1384   -0.9427 H   0  0  0  0  0  0  0  0  0  0  0  0
    4.0233   -2.0564    0.6132 H   0  0  0  0  0  0  0  0  0  0  0  0
    4.6199    2.2313   -0.0220 H   0  0  0  0  0  0  0  0  0  0  0  0
  1  7  1  0  0  0  0
  1 19  1  0  0  0  0
  2 19  2  0  0  0  0
  3 22  2  0  0  0  0
  4  5  1  0  0  0  0
  4  6  1  0  0  0  0
  4 11  1  0  0  0  0
  4 23  1  0  0  0  0
  5  8  1  0  0  0  0
  5  9  1  0  0  0  0
  5 24  1  0  0  0  0
  6  7  1  0  0  0  0
  6 12  1  0  0  0  0
  6 25  1  0  0  0  0
  7 10  1  0  0  0  0
  7 15  1  0  0  0  0
  8 13  1  0  0  0  0
  8 16  1  0  0  0  0
  8 17  1  0  0  0  0
  9 10  1  0  0  0  0
  9 26  1  0  0  0  0
  9 27  1  0  0  0  0
 10 28  1  0  0  0  0
 10 29  1  0  0  0  0
 11 14  1  0  0  0  0
 11 30  1  0  0  0  0
 11 31  1  0  0  0  0
 12 18  1  0  0  0  0
 12 32  1  0  0  0  0
 12 33  1  0  0  0  0
 13 14  1  0  0  0  0
 13 20  2  0  0  0  0
 14 34  1  0  0  0  0
 14 35  1  0  0  0  0
 15 36  1  0  0  0  0
 15 37  1  0  0  0  0
 15 38  1  0  0  0  0
 16 39  1  0  0  0  0
 16 40  1  0  0  0  0
 16 41  1  0  0  0  0
 17 21  2  0  0  0  0
 17 42  1  0  0  0  0
 18 19  1  0  0  0  0
 18 43  1  0  0  0  0
 18 44  1  0  0  0  0
 20 22  1  0  0  0  0
 20 45  1  0  0  0  0
 21 22  1  0  0  0  0
 21 46  1  0  0  0  0
M  END
> <PUBCHEM_COMPOUND_CID>
5407

> <PUBCHEM_CONFORMER_RMSD>
0.6

> <PUBCHEM_CONFORMER_DIVERSEORDER>
2
29
36
31
17
16
5
33
14
34
23
4
1
18
32
13
24
8
21
10
7
27
11
35
20
30
3
25
28
6
26
9
12
22
15
19

> <PUBCHEM_MMFF94_PARTIAL_CHARGES>
16
1 -0.43
13 -0.28
14 0.14
17 -0.29
18 0.06
19 0.66
2 -0.57
20 -0.14
21 -0.14
22 0.54
3 -0.57
42 0.15
45 0.15
46 0.15
7 0.28
8 0.28

> <PUBCHEM_EFFECTIVE_ROTOR_COUNT>
1.4

> <PUBCHEM_PHARMACOPHORE_FEATURES>
6
1 2 acceptor
1 3 acceptor
6 1 6 7 12 18 19 rings
6 4 5 6 7 9 10 rings
6 4 5 8 11 13 14 rings
6 8 13 17 20 21 22 rings

> <PUBCHEM_HEAVY_ATOM_COUNT>
22

> <PUBCHEM_ATOM_DEF_STEREO_COUNT>
0

> <PUBCHEM_ATOM_UDEF_STEREO_COUNT>
5

> <PUBCHEM_BOND_DEF_STEREO_COUNT>
0

> <PUBCHEM_BOND_UDEF_STEREO_COUNT>
0

> <PUBCHEM_ISOTOPIC_ATOM_COUNT>
0

> <PUBCHEM_COMPONENT_COUNT>
1

> <PUBCHEM_CACTVS_TAUTO_COUNT>
3

> <PUBCHEM_CONFORMER_ID>
0000151F00000002

> <PUBCHEM_MMFF94_ENERGY>
60.8431

> <PUBCHEM_FEATURE_SELFOVERLAP>
30.575

> <PUBCHEM_SHAPE_FINGERPRINT>
10062212 137 18413388717955181019
10366900 7 18408041801857904648
10369192 42 13251940190466735918
11132069 177 18340762727971537640
11315181 36 18341894065813515680
11370993 70 18272657835106703086
12011746 2 18343021099702409806
12077114 3 16845855706624981079
121448 382 18411703158145685547
12166972 35 17845936217078371767
12236239 1 18186521046799896779
12293681 4 15267064787195684141
12403260 363 18335706009761017840
124424 183 15554448500301471678
12507557 5 18131351882202019800
12553582 1 18270097106901260085
12633257 1 18411695513357022120
12788726 201 17530965834947367969
128620 24 16515684437761751484
13134695 92 16630241429368705340
13140716 1 18270385127428962792
13224815 77 18335410275075860592
13583140 156 16486972886251730449
13675066 3 16845285021293242784
14178342 30 18339342133189203561
14223421 5 18337383967478444606
14289901 80 16732973249841984633
14787075 74 18186806851030022912
15196674 1 18412822469767361712
15295992 7 13973956606567277309
15788980 27 17060338513417740800
1601671 61 11167949073751112928
16945 1 18198329843988409675
17349148 13 18272371953567152994
17492 89 18410852191685553802
17834072 14 18273217482319626372
17862501 102 18411986875289970874
17980427 23 18409722950557431572
1813 80 16629953439385691342
18186145 218 18272074015996699022
19050596 39 18335975437138243936
192875 21 18412829066484135708
200 152 18333737905289948159
20715895 44 17988373684008207293
21267235 1 18340195328263562874
23175994 123 14117516562766956894
23402539 116 18334580135228158156
23419403 2 17046331942213092955
23557571 272 17385438842958752667
23559900 14 18342179912930056328
2748010 2 18198882795289906770
296302 2 17749386000751560192
3286 77 17676215653955150344
34934 24 18262797496892116217
351380 180 18408045104608581800
439807 62 18122358887323084335
5104073 3 18412539891095047480
5283173 99 18129678498709549429
53917941 68 18270127949684054117
633830 44 18262215786220716252
9709674 26 18337383954456717510

> <PUBCHEM_SHAPE_MULTIPOLES>
435.14
8.89
2.1
1.39
3.56
0.12
0.42
-0.16
-0.26
-0.33
-0.32
-1.01
-0.12
-0.64

> <PUBCHEM_SHAPE_SELFOVERLAP>
940.655

> <PUBCHEM_SHAPE_VOLUME>
233.7

> <PUBCHEM_COORDINATE_TYPE>
2
5
10

$$$$

