12572
  -OEChem-06261207062D

 33 33  0     0  0  0  0  0  0999 V2000
    3.1756    1.1059    0.0000 O   0  0  0  0  0  0  0  0  0  0  0  0
    5.1294   -2.7420    0.0000 O   0  0  0  0  0  0  0  0  0  0  0  0
    4.5768    2.1239    0.0000 O   0  0  0  0  0  0  0  0  0  0  0  0
    4.2634   -1.2420    0.0000 N   0  0  0  0  0  0  0  0  0  0  0  0
    3.3973   -2.7420    0.0000 N   0  0  0  0  0  0  0  0  0  0  0  0
    3.4543   -0.6542    0.0000 N   0  0  0  0  0  0  0  0  0  0  0  0
    2.9945    2.8284    0.0000 N   0  0  0  0  0  0  0  0  0  0  0  0
    5.0724   -0.6542    0.0000 C   0  0  0  0  0  0  0  0  0  0  0  0
    4.7634    0.2969    0.0000 C   0  0  0  0  0  0  0  0  0  0  0  0
    4.2634   -2.2420    0.0000 C   0  0  0  0  0  0  0  0  0  0  0  0
    3.7634    0.2969    0.0000 C   0  0  0  0  0  0  0  0  0  0  0  0
    6.0234   -0.9632    0.0000 C   0  0  0  0  0  0  0  0  0  0  0  0
    3.3973   -3.7420    0.0000 C   0  0  0  0  0  0  0  0  0  0  0  0
    2.5313   -2.2420    0.0000 C   0  0  0  0  0  0  0  0  0  0  0  0
    3.5823    2.0194    0.0000 C   0  0  0  0  0  0  0  0  0  0  0  0
    3.4013    3.7420    0.0000 C   0  0  0  0  0  0  0  0  0  0  0  0
    2.0000    2.7239    0.0000 C   0  0  0  0  0  0  0  0  0  0  0  0
    5.1278    0.7984    0.0000 H   0  0  0  0  0  0  0  0  0  0  0  0
    5.8318   -1.5529    0.0000 H   0  0  0  0  0  0  0  0  0  0  0  0
    6.6131   -1.1548    0.0000 H   0  0  0  0  0  0  0  0  0  0  0  0
    6.2150   -0.3736    0.0000 H   0  0  0  0  0  0  0  0  0  0  0  0
    2.8413   -1.7050    0.0000 H   0  0  0  0  0  0  0  0  0  0  0  0
    1.9944   -1.9320    0.0000 H   0  0  0  0  0  0  0  0  0  0  0  0
    2.2213   -2.7789    0.0000 H   0  0  0  0  0  0  0  0  0  0  0  0
    2.7773   -3.7420    0.0000 H   0  0  0  0  0  0  0  0  0  0  0  0
    3.3973   -4.3620    0.0000 H   0  0  0  0  0  0  0  0  0  0  0  0
    4.0173   -3.7420    0.0000 H   0  0  0  0  0  0  0  0  0  0  0  0
    1.9352    3.3405    0.0000 H   0  0  0  0  0  0  0  0  0  0  0  0
    1.3834    2.6591    0.0000 H   0  0  0  0  0  0  0  0  0  0  0  0
    2.0648    2.1073    0.0000 H   0  0  0  0  0  0  0  0  0  0  0  0
    3.9677    3.4898    0.0000 H   0  0  0  0  0  0  0  0  0  0  0  0
    3.6534    4.3084    0.0000 H   0  0  0  0  0  0  0  0  0  0  0  0
    2.8349    3.9942    0.0000 H   0  0  0  0  0  0  0  0  0  0  0  0
  1 11  1  0  0  0  0
  1 15  1  0  0  0  0
  2 10  2  0  0  0  0
  3 15  2  0  0  0  0
  4  6  1  0  0  0  0
  4  8  1  0  0  0  0
  4 10  1  0  0  0  0
  5 10  1  0  0  0  0
  5 13  1  0  0  0  0
  5 14  1  0  0  0  0
  6 11  2  0  0  0  0
  7 15  1  0  0  0  0
  7 16  1  0  0  0  0
  7 17  1  0  0  0  0
  8  9  2  0  0  0  0
  8 12  1  0  0  0  0
  9 11  1  0  0  0  0
  9 18  1  0  0  0  0
 12 19  1  0  0  0  0
 12 20  1  0  0  0  0
 12 21  1  0  0  0  0
 13 25  1  0  0  0  0
 13 26  1  0  0  0  0
 13 27  1  0  0  0  0
 14 22  1  0  0  0  0
 14 23  1  0  0  0  0
 14 24  1  0  0  0  0
 16 31  1  0  0  0  0
 16 32  1  0  0  0  0
 16 33  1  0  0  0  0
 17 28  1  0  0  0  0
 17 29  1  0  0  0  0
 17 30  1  0  0  0  0
M  END
> <PUBCHEM_COMPOUND_CID>
12572

> <PUBCHEM_COMPOUND_CANONICALIZED>
1

> <PUBCHEM_CACTVS_COMPLEXITY>
306

> <PUBCHEM_CACTVS_HBOND_ACCEPTOR>
4

> <PUBCHEM_CACTVS_HBOND_DONOR>
0

> <PUBCHEM_CACTVS_ROTATABLE_BOND>
2

> <PUBCHEM_CACTVS_SUBSKEYS>
AAADceBzsAAAAAAAAAAAAAAAAAAAAWAAAAAAAAAAAAAAAAABgAAAHgAIAAAACAiBlgQzjJMIBACqASRiXACQDAAhIgAWGCA+bBiEJgBE4coMlihODhpAYCAAAAAAAAAAAAAAAAAAAAAAAAAAAAAAAAAAAA==

> <PUBCHEM_IUPAC_OPENEYE_NAME>
[1-(dimethylcarbamoyl)-5-methyl-pyrazol-3-yl] N,N-dimethylcarbamate

> <PUBCHEM_IUPAC_CAS_NAME>
N,N-dimethylcarbamic acid [1-[dimethylamino(oxo)methyl]-5-methyl-3-pyrazolyl] ester

> <PUBCHEM_IUPAC_NAME>
[1-(dimethylcarbamoyl)-5-methylpyrazol-3-yl] N,N-dimethylcarbamate

> <PUBCHEM_IUPAC_SYSTEMATIC_NAME>
[1-(dimethylcarbamoyl)-5-methyl-pyrazol-3-yl] N,N-dimethylcarbamate

> <PUBCHEM_IUPAC_TRADITIONAL_NAME>
N,N-dimethylcarbamic acid [1-(dimethylcarbamoyl)-5-methyl-pyrazol-3-yl] ester

> <PUBCHEM_IUPAC_INCHI>
InChI=1S/C10H16N4O3/c1-7-6-8(17-10(16)13(4)5)11-14(7)9(15)12(2)3/h6H,1-5H3

> <PUBCHEM_IUPAC_INCHIKEY>
RDBIYWSVMRVKSG-UHFFFAOYSA-N

> <PUBCHEM_XLOGP3_AA>
0.6

> <PUBCHEM_EXACT_MASS>
240.12224

> <PUBCHEM_MOLECULAR_FORMULA>
C10H16N4O3

> <PUBCHEM_MOLECULAR_WEIGHT>
240.25904

> <PUBCHEM_OPENEYE_CAN_SMILES>
CC1=CC(=NN1C(=O)N(C)C)OC(=O)N(C)C

> <PUBCHEM_OPENEYE_ISO_SMILES>
CC1=CC(=NN1C(=O)N(C)C)OC(=O)N(C)C

> <PUBCHEM_CACTVS_TPSA>
67.7

> <PUBCHEM_MONOISOTOPIC_WEIGHT>
240.12224

> <PUBCHEM_TOTAL_CHARGE>
0

> <PUBCHEM_HEAVY_ATOM_COUNT>
17

> <PUBCHEM_ATOM_DEF_STEREO_COUNT>
0

> <PUBCHEM_ATOM_UDEF_STEREO_COUNT>
0

> <PUBCHEM_BOND_DEF_STEREO_COUNT>
0

> <PUBCHEM_BOND_UDEF_STEREO_COUNT>
0

> <PUBCHEM_ISOTOPIC_ATOM_COUNT>
0

> <PUBCHEM_COMPONENT_COUNT>
1

> <PUBCHEM_CACTVS_TAUTO_COUNT>
1

> <PUBCHEM_COORDINATE_TYPE>
1
5
255

> <PUBCHEM_BONDANNOTATIONS>
4  6  8
4  8  8
6  11  8
8  9  8
9  11  8

$$$$

