17396097
  -OEChem-06241222543D

 66 70  0     1  0  0  0  0  0999 V2000
    2.8569    2.7947   -0.9204 S   0  0  0  0  0  0  0  0  0  0  0  0
   -1.5659    1.5468    1.8016 O   0  0  0  0  0  0  0  0  0  0  0  0
    3.6904    3.7416   -0.2120 O   0  0  0  0  0  0  0  0  0  0  0  0
    3.0247    2.5671   -2.3392 O   0  0  0  0  0  0  0  0  0  0  0  0
    2.6243   -2.2721   -0.9605 O   0  0  0  0  0  0  0  0  0  0  0  0
    3.2576   -2.3717    1.9630 O   0  0  0  0  0  0  0  0  0  0  0  0
   -3.0698    1.3616    0.0344 N   0  0  0  0  0  0  0  0  0  0  0  0
    1.2110    3.1570   -0.6074 N   0  0  0  0  0  0  0  0  0  0  0  0
   -5.1047    0.0590   -0.0260 C   0  0  0  0  0  0  0  0  0  0  0  0
   -6.0914   -0.7457    0.7682 C   0  0  0  0  0  0  0  0  0  0  0  0
   -6.1462    0.7536    0.8014 C   0  0  0  0  0  0  0  0  0  0  0  0
   -3.6675    0.1020    0.4146 C   0  0  1  0  0  0  0  0  0  0  0  0
   -2.8990   -1.0836   -0.1298 C   0  0  0  0  0  0  0  0  0  0  0  0
   -1.6090    3.2583    0.1357 C   0  0  0  0  0  0  0  0  0  0  0  0
   -2.0671    1.9752    0.7654 C   0  0  0  0  0  0  0  0  0  0  0  0
   -1.1494    3.0107   -1.3022 C   0  0  0  0  0  0  0  0  0  0  0  0
   -0.5198    3.9300    0.9740 C   0  0  0  0  0  0  0  0  0  0  0  0
    0.2234    2.3474   -1.3765 C   0  0  0  0  0  0  0  0  0  0  0  0
    0.8447    3.2585    0.8340 C   0  0  0  0  0  0  0  0  0  0  0  0
   -2.2555   -0.9900   -1.3637 C   0  0  0  0  0  0  0  0  0  0  0  0
   -2.8339   -2.2688    0.6029 C   0  0  0  0  0  0  0  0  0  0  0  0
   -1.5466   -2.0817   -1.8651 C   0  0  0  0  0  0  0  0  0  0  0  0
   -2.1251   -3.3605    0.1014 C   0  0  0  0  0  0  0  0  0  0  0  0
   -1.4814   -3.2669   -1.1326 C   0  0  0  0  0  0  0  0  0  0  0  0
    2.9895    1.2377   -0.0995 C   0  0  0  0  0  0  0  0  0  0  0  0
    2.7354    0.0571   -0.7969 C   0  0  0  0  0  0  0  0  0  0  0  0
    3.3592    1.1868    1.2417 C   0  0  0  0  0  0  0  0  0  0  0  0
   -0.7232   -4.4339   -1.6688 C   0  0  0  0  0  0  0  0  0  0  0  0
    2.8541   -1.1828   -0.1585 C   0  0  0  0  0  0  0  0  0  0  0  0
    3.4539   -0.0435    1.8916 C   0  0  0  0  0  0  0  0  0  0  0  0
    3.1748   -1.2309    1.2051 C   0  0  0  0  0  0  0  0  0  0  0  0
    3.4363   -3.4040   -0.6486 C   0  0  0  0  0  0  0  0  0  0  0  0
    2.8146   -4.2348    0.4634 C   0  0  0  0  0  0  0  0  0  0  0  0
    2.3047   -3.3740    1.6090 C   0  0  0  0  0  0  0  0  0  0  0  0
   -5.2277    0.0876   -1.1031 H   0  0  0  0  0  0  0  0  0  0  0  0
   -6.8693   -1.2670    0.2238 H   0  0  0  0  0  0  0  0  0  0  0  0
   -5.7589   -1.2528    1.6654 H   0  0  0  0  0  0  0  0  0  0  0  0
   -5.8417    1.2486    1.7154 H   0  0  0  0  0  0  0  0  0  0  0  0
   -6.9617    1.2399    0.2802 H   0  0  0  0  0  0  0  0  0  0  0  0
   -3.6165    0.0561    1.5114 H   0  0  0  0  0  0  0  0  0  0  0  0
   -3.4496    1.8286   -0.7833 H   0  0  0  0  0  0  0  0  0  0  0  0
   -2.4839    3.9223    0.1171 H   0  0  0  0  0  0  0  0  0  0  0  0
   -1.8602    2.4289   -1.8958 H   0  0  0  0  0  0  0  0  0  0  0  0
   -1.0802    3.9873   -1.8012 H   0  0  0  0  0  0  0  0  0  0  0  0
   -0.8032    3.9729    2.0325 H   0  0  0  0  0  0  0  0  0  0  0  0
   -0.4257    4.9713    0.6374 H   0  0  0  0  0  0  0  0  0  0  0  0
    0.1683    1.3297   -0.9771 H   0  0  0  0  0  0  0  0  0  0  0  0
    0.5169    2.2902   -2.4294 H   0  0  0  0  0  0  0  0  0  0  0  0
    1.5822    3.8676    1.3671 H   0  0  0  0  0  0  0  0  0  0  0  0
    0.8174    2.2672    1.2939 H   0  0  0  0  0  0  0  0  0  0  0  0
   -2.3021   -0.0862   -1.9641 H   0  0  0  0  0  0  0  0  0  0  0  0
   -3.3294   -2.3552    1.5660 H   0  0  0  0  0  0  0  0  0  0  0  0
   -1.0514   -1.9994   -2.8290 H   0  0  0  0  0  0  0  0  0  0  0  0
   -2.0829   -4.2778    0.6824 H   0  0  0  0  0  0  0  0  0  0  0  0
    2.4588    0.0848   -1.8483 H   0  0  0  0  0  0  0  0  0  0  0  0
    3.5692    2.0914    1.8051 H   0  0  0  0  0  0  0  0  0  0  0  0
   -1.3028   -4.9309   -2.4531 H   0  0  0  0  0  0  0  0  0  0  0  0
    0.2369   -4.1117   -2.0861 H   0  0  0  0  0  0  0  0  0  0  0  0
   -0.5048   -5.1675   -0.8856 H   0  0  0  0  0  0  0  0  0  0  0  0
    3.7257   -0.0692    2.9441 H   0  0  0  0  0  0  0  0  0  0  0  0
    3.5092   -4.0149   -1.5554 H   0  0  0  0  0  0  0  0  0  0  0  0
    4.4631   -3.0991   -0.4045 H   0  0  0  0  0  0  0  0  0  0  0  0
    1.9779   -4.8254    0.0739 H   0  0  0  0  0  0  0  0  0  0  0  0
    3.5670   -4.9436    0.8281 H   0  0  0  0  0  0  0  0  0  0  0  0
    1.3277   -2.9274    1.3788 H   0  0  0  0  0  0  0  0  0  0  0  0
    2.1487   -4.0051    2.4911 H   0  0  0  0  0  0  0  0  0  0  0  0
  1  3  2  0  0  0  0
  1  4  2  0  0  0  0
  1  8  1  0  0  0  0
  1 25  1  0  0  0  0
  2 15  2  0  0  0  0
  5 29  1  0  0  0  0
  5 32  1  0  0  0  0
  6 31  1  0  0  0  0
  6 34  1  0  0  0  0
  7 12  1  0  0  0  0
  7 15  1  0  0  0  0
  7 41  1  0  0  0  0
  8 18  1  0  0  0  0
  8 19  1  0  0  0  0
  9 10  1  0  0  0  0
  9 11  1  0  0  0  0
  9 12  1  0  0  0  0
  9 35  1  0  0  0  0
 10 11  1  0  0  0  0
 10 36  1  0  0  0  0
 10 37  1  0  0  0  0
 11 38  1  0  0  0  0
 11 39  1  0  0  0  0
 12 13  1  0  0  0  0
 12 40  1  0  0  0  0
 13 20  2  0  0  0  0
 13 21  1  0  0  0  0
 14 15  1  0  0  0  0
 14 16  1  0  0  0  0
 14 17  1  0  0  0  0
 14 42  1  0  0  0  0
 16 18  1  0  0  0  0
 16 43  1  0  0  0  0
 16 44  1  0  0  0  0
 17 19  1  0  0  0  0
 17 45  1  0  0  0  0
 17 46  1  0  0  0  0
 18 47  1  0  0  0  0
 18 48  1  0  0  0  0
 19 49  1  0  0  0  0
 19 50  1  0  0  0  0
 20 22  1  0  0  0  0
 20 51  1  0  0  0  0
 21 23  2  0  0  0  0
 21 52  1  0  0  0  0
 22 24  2  0  0  0  0
 22 53  1  0  0  0  0
 23 24  1  0  0  0  0
 23 54  1  0  0  0  0
 24 28  1  0  0  0  0
 25 26  2  0  0  0  0
 25 27  1  0  0  0  0
 26 29  1  0  0  0  0
 26 55  1  0  0  0  0
 27 30  2  0  0  0  0
 27 56  1  0  0  0  0
 28 57  1  0  0  0  0
 28 58  1  0  0  0  0
 28 59  1  0  0  0  0
 29 31  2  0  0  0  0
 30 31  1  0  0  0  0
 30 60  1  0  0  0  0
 32 33  1  0  0  0  0
 32 61  1  0  0  0  0
 32 62  1  0  0  0  0
 33 34  1  0  0  0  0
 33 63  1  0  0  0  0
 33 64  1  0  0  0  0
 34 65  1  0  0  0  0
 34 66  1  0  0  0  0
M  END
> <PUBCHEM_COMPOUND_CID>
17396097

> <PUBCHEM_CONFORMER_RMSD>
1.2

> <PUBCHEM_CONFORMER_DIVERSEORDER>
1
40
152
95
150
60
77
87
21
156
71
97
80
94
126
104
117
25
68
48
91
45
51
123
121
19
145
109
73
133
159
29
157
55
58
168
65
119
81
135
108
86
147
33
6
67
102
111
128
84
2
34
107
143
82
76
118
89
165
17
144
101
57
63
62
93
16
18
115
149
120
140
12
72
163
64
14
113
129
28
141
69
138
151
32
153
50
134
96
53
44
158
52
98
137
20
9
124
132
41
136
114
112
103
4
78
74
30
70
47
46
75
56
155
122
146
166
43
85
164
3
131
148
59
8
31
130
54
24
37
154
83
23
142
26
35
125
38
61
39
106
88
27
22
5
11
99
127
7
105
162
36
160
110
100
116
42
15
161
79
167
49
139
66
13
92
90
10

> <PUBCHEM_MMFF94_PARTIAL_CHARGES>
44
1 1.45
10 -0.2
11 -0.2
12 0.54
13 -0.14
14 0.06
15 0.57
18 0.36
19 0.36
2 -0.57
20 -0.15
21 -0.15
22 -0.15
23 -0.15
24 -0.14
25 -0.01
26 -0.15
27 -0.15
28 0.14
29 0.08
3 -0.65
30 -0.15
31 0.08
32 0.28
34 0.28
35 0.1
36 0.1
37 0.1
38 0.1
39 0.1
4 -0.65
41 0.37
5 -0.36
51 0.15
52 0.15
53 0.15
54 0.15
55 0.15
56 0.15
6 -0.36
60 0.15
7 -0.73
8 -0.85
9 -0.19

> <PUBCHEM_EFFECTIVE_ROTOR_COUNT>
9.8

> <PUBCHEM_PHARMACOPHORE_FEATURES>
10
1 2 acceptor
1 3 acceptor
1 4 acceptor
1 5 acceptor
1 6 acceptor
1 7 donor
6 13 20 21 22 23 24 rings
6 25 26 27 29 30 31 rings
6 8 14 16 17 18 19 rings
7 5 6 29 31 32 33 34 rings

> <PUBCHEM_HEAVY_ATOM_COUNT>
34

> <PUBCHEM_ATOM_DEF_STEREO_COUNT>
0

> <PUBCHEM_ATOM_UDEF_STEREO_COUNT>
1

> <PUBCHEM_BOND_DEF_STEREO_COUNT>
0

> <PUBCHEM_BOND_UDEF_STEREO_COUNT>
0

> <PUBCHEM_ISOTOPIC_ATOM_COUNT>
0

> <PUBCHEM_COMPONENT_COUNT>
1

> <PUBCHEM_CACTVS_TAUTO_COUNT>
2

> <PUBCHEM_CONFORMER_ID>
0109718100000001

> <PUBCHEM_MMFF94_ENERGY>
84.3726

> <PUBCHEM_FEATURE_SELFOVERLAP>
50.775

> <PUBCHEM_SHAPE_FINGERPRINT>
11135926 11 18269844120669730692
11513181 2 18113329791422442639
12156800 1 15823455934429240322
12553582 1 18336836307297711709
13122387 1 17831866015938734962
13140716 1 18193565462600304496
14705955 166 16733253646877597881
14725015 67 15817914954171023693
150020 26 17828493800802358355
15297060 5 18044366137558982544
19311894 1 18047185246860520774
19319366 153 18200305503253880684
20764821 26 18050023098639072523
20775530 9 18266749149923832112
21421861 104 18342178843119261168
238918 7 16894853513882628338
35225 105 17679027246826062902
463206 1 16175674412821166535
508706 21 17256245372128872015

> <PUBCHEM_SHAPE_MULTIPOLES>
664.24
9.46
6.75
1.79
9.86
1.48
-0.13
1.35
2.84
-3.94
-1.14
-0.96
0.26
-1.93

> <PUBCHEM_SHAPE_SELFOVERLAP>
1409.515

> <PUBCHEM_SHAPE_VOLUME>
371.4

> <PUBCHEM_COORDINATE_TYPE>
2
5
10

$$$$

