13733
  -OEChem-06241222403D

 30 30  0     0  0  0  0  0  0999 V2000
    1.4008    3.2182   -0.1917 O   0  5  0  0  0  0  0  0  0  0  0  0
   -0.7241    2.6679   -0.0501 O   0  0  0  0  0  0  0  0  0  0  0  0
    4.2711   -2.2611    0.0221 O   0  5  0  0  0  0  0  0  0  0  0  0
    4.8101   -0.1350   -0.1419 O   0  0  0  0  0  0  0  0  0  0  0  0
   -1.4946    0.3168    0.1406 N   0  0  0  0  0  0  0  0  0  0  0  0
   -2.4216   -0.6535    0.2375 N   0  0  0  0  0  0  0  0  0  0  0  0
    0.4905    2.3636   -0.0900 N   0  3  0  0  0  0  0  0  0  0  0  0
    3.9571   -1.0486   -0.0400 N   0  3  0  0  0  0  0  0  0  0  0  0
   -0.1280   -0.0043    0.0953 C   0  0  0  0  0  0  0  0  0  0  0  0
    0.8512    0.9890   -0.0172 C   0  0  0  0  0  0  0  0  0  0  0  0
   -4.7135   -1.3834    0.3595 C   0  0  0  0  0  0  0  0  0  0  0  0
   -3.6674   -0.2881    0.2747 C   0  0  0  0  0  0  0  0  0  0  0  0
    0.2606   -1.3467    0.1627 C   0  0  0  0  0  0  0  0  0  0  0  0
    2.2020    0.6440   -0.0618 C   0  0  0  0  0  0  0  0  0  0  0  0
    2.5820   -0.6964    0.0059 C   0  0  0  0  0  0  0  0  0  0  0  0
    1.6114   -1.6918    0.1181 C   0  0  0  0  0  0  0  0  0  0  0  0
   -5.1295   -1.8301   -1.0298 C   0  0  0  0  0  0  0  0  0  0  0  0
   -4.1579    1.1396    0.2062 C   0  0  0  0  0  0  0  0  0  0  0  0
   -4.2951   -2.2323    0.9119 H   0  0  0  0  0  0  0  0  0  0  0  0
   -5.5791   -1.0193    0.9219 H   0  0  0  0  0  0  0  0  0  0  0  0
   -0.4645   -2.1517    0.2504 H   0  0  0  0  0  0  0  0  0  0  0  0
    2.9622    1.4166   -0.1497 H   0  0  0  0  0  0  0  0  0  0  0  0
   -1.7722    1.2860    0.1014 H   0  0  0  0  0  0  0  0  0  0  0  0
    1.8704   -2.7461    0.1731 H   0  0  0  0  0  0  0  0  0  0  0  0
   -4.2715   -2.2097   -1.5945 H   0  0  0  0  0  0  0  0  0  0  0  0
   -5.5587   -0.9981   -1.5977 H   0  0  0  0  0  0  0  0  0  0  0  0
   -5.8782   -2.6255   -0.9672 H   0  0  0  0  0  0  0  0  0  0  0  0
   -3.8368    1.5956   -0.7344 H   0  0  0  0  0  0  0  0  0  0  0  0
   -5.2497    1.1742    0.2494 H   0  0  0  0  0  0  0  0  0  0  0  0
   -3.7603    1.7084    1.0510 H   0  0  0  0  0  0  0  0  0  0  0  0
  1  7  1  0  0  0  0
  2  7  2  0  0  0  0
  3  8  1  0  0  0  0
  4  8  2  0  0  0  0
  5  6  1  0  0  0  0
  5  9  1  0  0  0  0
  5 23  1  0  0  0  0
  6 12  2  0  0  0  0
  7 10  1  0  0  0  0
  8 15  1  0  0  0  0
  9 10  2  0  0  0  0
  9 13  1  0  0  0  0
 10 14  1  0  0  0  0
 11 12  1  0  0  0  0
 11 17  1  0  0  0  0
 11 19  1  0  0  0  0
 11 20  1  0  0  0  0
 12 18  1  0  0  0  0
 13 16  2  0  0  0  0
 13 21  1  0  0  0  0
 14 15  2  0  0  0  0
 14 22  1  0  0  0  0
 15 16  1  0  0  0  0
 16 24  1  0  0  0  0
 17 25  1  0  0  0  0
 17 26  1  0  0  0  0
 17 27  1  0  0  0  0
 18 28  1  0  0  0  0
 18 29  1  0  0  0  0
 18 30  1  0  0  0  0
M  CHG  4   1  -1   3  -1   7   1   8   1
M  END
> <PUBCHEM_COMPOUND_CID>
13733

> <PUBCHEM_CONFORMER_RMSD>
0.6

> <PUBCHEM_CONFORMER_DIVERSEORDER>
1
3
4
5
2

> <PUBCHEM_MMFF94_PARTIAL_CHARGES>
21
1 -0.52
10 0.13
11 0.06
12 0.33
13 -0.15
14 -0.15
15 0.13
16 -0.15
18 0.06
2 -0.52
21 0.15
22 0.15
23 0.4
24 0.15
3 -0.52
4 -0.52
5 -0.46
6 -0.49
7 0.91
8 0.91
9 0.1

> <PUBCHEM_EFFECTIVE_ROTOR_COUNT>
5

> <PUBCHEM_PHARMACOPHORE_FEATURES>
10
1 1 acceptor
1 1 anion
1 17 hydrophobe
1 2 acceptor
1 3 acceptor
1 3 anion
1 4 acceptor
1 5 donor
1 6 acceptor
6 9 10 13 14 15 16 rings

> <PUBCHEM_HEAVY_ATOM_COUNT>
18

> <PUBCHEM_ATOM_DEF_STEREO_COUNT>
0

> <PUBCHEM_ATOM_UDEF_STEREO_COUNT>
0

> <PUBCHEM_BOND_DEF_STEREO_COUNT>
0

> <PUBCHEM_BOND_UDEF_STEREO_COUNT>
1

> <PUBCHEM_ISOTOPIC_ATOM_COUNT>
0

> <PUBCHEM_COMPONENT_COUNT>
1

> <PUBCHEM_CACTVS_TAUTO_COUNT>
1

> <PUBCHEM_CONFORMER_ID>
000035A500000001

> <PUBCHEM_MMFF94_ENERGY>
65.2533

> <PUBCHEM_FEATURE_SELFOVERLAP>
50.904

> <PUBCHEM_SHAPE_FINGERPRINT>
11471102 20 18341051813545874695
11680986 33 18125434211657779282
11806522 49 18410573980883013554
12032990 46 18411134770636761482
13862211 1 18411704292054065818
14178000 29 18335419071227119654
14251717 144 18339645521294825295
14252887 29 18113889494438583502
14576447 43 18409172082257271327
14787075 74 18201716237150168386
15196674 1 18411135852815337929
15442244 35 18409444782905537321
15848700 24 18411704279052521638
17357779 13 18059310798398303485
18186145 218 17489311850351341283
18222031 100 18336557052993205203
200 152 18261114058917472347
20645477 70 18198630934745555299
20671657 1 18265609875562942629
21029758 11 18412262839385894753
21267235 1 18410002231021936499
21296965 67 18410856585684036392
21421861 104 17698439176038427491
221490 88 18197773293974564235
23402539 116 18336551606811156550
23557571 272 17971749128214700860
23559900 14 18338244761003779963
23622692 118 18187654544773158543
2748010 2 18339096981020388356
312423 11 18264194843337899227
314194 84 18411133611001288723
3286 77 18342176618541979815
34934 24 18268432519775059083
5104073 3 18408321090469376467
68521 5 18268987755698490228
7364860 26 18265050232570860945
7471813 234 18041287573799820105
9709674 26 18198059175883113219
9981440 41 17257099168698840601

> <PUBCHEM_SHAPE_MULTIPOLES>
327.03
9.59
2.76
0.67
5.56
1.91
0.05
-5.98
0.81
-0.86
0.24
0.44
-0.13
-0.53

> <PUBCHEM_SHAPE_SELFOVERLAP>
675.26

> <PUBCHEM_SHAPE_VOLUME>
188.2

> <PUBCHEM_COORDINATE_TYPE>
2
5
10

$$$$

