5836
  -OEChem-06261200553D

 43 47  0     1  0  0  0  0  0999 V2000
    1.5949    1.0164    1.1984 O   0  0  0  0  0  0  0  0  0  0  0  0
    1.8670    2.9633   -0.5831 O   0  0  0  0  0  0  0  0  0  0  0  0
    3.8220   -0.7909    0.7809 O   0  0  0  0  0  0  0  0  0  0  0  0
   -3.5267   -0.7514    0.4245 N   0  0  1  0  0  0  0  0  0  0  0  0
   -0.7365    0.5736    0.6677 C   0  0  1  0  0  0  0  0  0  0  0  0
   -1.6890    0.6478   -0.5148 C   0  0  2  0  0  0  0  0  0  0  0  0
   -2.3215   -0.7946   -0.4067 C   0  0  2  0  0  0  0  0  0  0  0  0
    0.3327    1.6713    0.8267 C   0  0  2  0  0  0  0  0  0  0  0  0
   -1.6409    0.3262    1.9462 C   0  0  0  0  0  0  0  0  0  0  0  0
    0.2225   -0.5637    0.2862 C   0  0  0  0  0  0  0  0  0  0  0  0
   -1.4697   -1.8477   -1.1464 C   0  0  0  0  0  0  0  0  0  0  0  0
   -3.2088    0.1281    1.6150 C   0  0  0  0  0  0  0  0  0  0  0  0
   -0.0500   -1.6786   -0.5509 C   0  0  0  0  0  0  0  0  0  0  0  0
    0.5112    2.5481   -0.4450 C   0  0  2  0  0  0  0  0  0  0  0  0
   -1.0071    1.0850   -1.7851 C   0  0  0  0  0  0  0  0  0  0  0  0
    1.5031   -0.2421    0.6672 C   0  0  0  0  0  0  0  0  0  0  0  0
    0.0174    1.9522   -1.7409 C   0  0  0  0  0  0  0  0  0  0  0  0
   -4.7055   -0.3124   -0.3038 C   0  0  0  0  0  0  0  0  0  0  0  0
    1.0064   -2.5376   -0.8435 C   0  0  0  0  0  0  0  0  0  0  0  0
    2.5561   -1.0906    0.3951 C   0  0  0  0  0  0  0  0  0  0  0  0
    2.2954   -2.2526   -0.3499 C   0  0  0  0  0  0  0  0  0  0  0  0
    4.6270   -0.0499   -0.1378 C   0  0  0  0  0  0  0  0  0  0  0  0
   -2.4472    1.4274   -0.3575 H   0  0  0  0  0  0  0  0  0  0  0  0
   -2.8965   -0.7139   -1.3474 H   0  0  0  0  0  0  0  0  0  0  0  0
    0.0945    2.3422    1.6607 H   0  0  0  0  0  0  0  0  0  0  0  0
   -1.5646    1.1714    2.6397 H   0  0  0  0  0  0  0  0  0  0  0  0
   -1.2902   -0.5675    2.4769 H   0  0  0  0  0  0  0  0  0  0  0  0
   -1.4229   -1.7181   -2.2347 H   0  0  0  0  0  0  0  0  0  0  0  0
   -1.8343   -2.8544   -0.9153 H   0  0  0  0  0  0  0  0  0  0  0  0
   -3.6990   -0.2975    2.4980 H   0  0  0  0  0  0  0  0  0  0  0  0
   -3.6363    1.1292    1.4696 H   0  0  0  0  0  0  0  0  0  0  0  0
   -0.0723    3.4664   -0.3004 H   0  0  0  0  0  0  0  0  0  0  0  0
   -1.3849    0.7407   -2.7420 H   0  0  0  0  0  0  0  0  0  0  0  0
    0.4596    2.2966   -2.6712 H   0  0  0  0  0  0  0  0  0  0  0  0
   -4.5989    0.6824   -0.7507 H   0  0  0  0  0  0  0  0  0  0  0  0
   -5.5660   -0.2764    0.3745 H   0  0  0  0  0  0  0  0  0  0  0  0
   -4.9760   -1.0257   -1.0915 H   0  0  0  0  0  0  0  0  0  0  0  0
    0.8510   -3.4144   -1.4654 H   0  0  0  0  0  0  0  0  0  0  0  0
    3.1110   -2.9308   -0.5920 H   0  0  0  0  0  0  0  0  0  0  0  0
    2.4028    2.1679   -0.7410 H   0  0  0  0  0  0  0  0  0  0  0  0
    4.6579   -0.5427   -1.1149 H   0  0  0  0  0  0  0  0  0  0  0  0
    5.6437   -0.0023    0.2618 H   0  0  0  0  0  0  0  0  0  0  0  0
    4.2451    0.9693   -0.2405 H   0  0  0  0  0  0  0  0  0  0  0  0
  1  8  1  0  0  0  0
  1 16  1  0  0  0  0
  2 14  1  0  0  0  0
  2 40  1  0  0  0  0
  3 20  1  0  0  0  0
  3 22  1  0  0  0  0
  4  7  1  0  0  0  0
  4 12  1  0  0  0  0
  4 18  1  0  0  0  0
  5  6  1  0  0  0  0
  5  8  1  0  0  0  0
  5  9  1  0  0  0  0
  5 10  1  0  0  0  0
  6  7  1  0  0  0  0
  6 15  1  0  0  0  0
  6 23  1  0  0  0  0
  7 11  1  0  0  0  0
  7 24  1  0  0  0  0
  8 14  1  0  0  0  0
  8 25  1  0  0  0  0
  9 12  1  0  0  0  0
  9 26  1  0  0  0  0
  9 27  1  0  0  0  0
 10 13  2  0  0  0  0
 10 16  1  0  0  0  0
 11 13  1  0  0  0  0
 11 28  1  0  0  0  0
 11 29  1  0  0  0  0
 12 30  1  0  0  0  0
 12 31  1  0  0  0  0
 13 19  1  0  0  0  0
 14 17  1  0  0  0  0
 14 32  1  0  0  0  0
 15 17  2  0  0  0  0
 15 33  1  0  0  0  0
 16 20  2  0  0  0  0
 17 34  1  0  0  0  0
 18 35  1  0  0  0  0
 18 36  1  0  0  0  0
 18 37  1  0  0  0  0
 19 21  2  0  0  0  0
 19 38  1  0  0  0  0
 20 21  1  0  0  0  0
 21 39  1  0  0  0  0
 22 41  1  0  0  0  0
 22 42  1  0  0  0  0
 22 43  1  0  0  0  0
M  END
> <PUBCHEM_COMPOUND_CID>
5836

> <PUBCHEM_CONFORMER_RMSD>
0.6

> <PUBCHEM_CONFORMER_DIVERSEORDER>
1
2

> <PUBCHEM_MMFF94_PARTIAL_CHARGES>
26
1 -0.36
10 -0.14
11 0.14
12 0.27
13 -0.14
14 0.42
15 -0.29
16 0.08
17 -0.29
18 0.27
19 -0.15
2 -0.68
20 0.08
21 -0.15
22 0.28
3 -0.36
33 0.15
34 0.15
38 0.15
39 0.15
4 -0.81
40 0.4
5 0.14
6 0.14
7 0.27
8 0.28

> <PUBCHEM_EFFECTIVE_ROTOR_COUNT>
2.2

> <PUBCHEM_PHARMACOPHORE_FEATURES>
10
1 1 acceptor
1 2 acceptor
1 2 donor
1 3 acceptor
1 4 cation
5 1 5 8 10 16 rings
6 10 13 16 19 20 21 rings
6 4 5 6 7 9 12 rings
6 5 6 7 10 11 13 rings
6 5 6 8 14 15 17 rings

> <PUBCHEM_HEAVY_ATOM_COUNT>
22

> <PUBCHEM_ATOM_DEF_STEREO_COUNT>
5

> <PUBCHEM_ATOM_UDEF_STEREO_COUNT>
0

> <PUBCHEM_BOND_DEF_STEREO_COUNT>
0

> <PUBCHEM_BOND_UDEF_STEREO_COUNT>
0

> <PUBCHEM_ISOTOPIC_ATOM_COUNT>
0

> <PUBCHEM_COMPONENT_COUNT>
1

> <PUBCHEM_CACTVS_TAUTO_COUNT>
1

> <PUBCHEM_CONFORMER_ID>
000016CC00000001

> <PUBCHEM_MMFF94_ENERGY>
150.6591

> <PUBCHEM_FEATURE_SELFOVERLAP>
52.207

> <PUBCHEM_SHAPE_FINGERPRINT>
10863032 1 17898571140185927513
10948715 1 17907289958151589557
12011746 2 18260267473112330039
12403814 3 18342745143104637486
12423570 1 12099964445709811565
12592029 89 17769359540151085317
13027679 85 18187655694954014001
13132413 78 17968090966882006265
13140716 1 18189911811384132714
13172582 1 18408609145056571234
13681431 1 18058709378127535813
14142880 1 18190747633542172120
14181834 199 18341602669008547253
144361 1 18126862494510850336
14790565 3 18334287644009025760
14955137 171 18190434139478599298
1601671 61 18337953501590584341
16945 1 18041297528990543899
17357779 13 18268445670880504365
17492 54 18129367234028928236
1813 80 18269821146614870375
19868273 325 18271245044232135062
20600515 1 17416945374607028789
2334 1 17902243212570014858
23419403 2 17900292919666016569
23557571 272 18058165214524467414
2748010 2 17974295622656152750
5845 1 10226161014210458293
7364860 26 18340204064327198221
81228 2 17626930229760147745

> <PUBCHEM_SHAPE_MULTIPOLES>
430.16
5.77
2.66
1.53
0.16
0.65
0.04
-1.73
1.06
1.39
-1.08
-0.7
0.46
-0.14

> <PUBCHEM_SHAPE_SELFOVERLAP>
961.509

> <PUBCHEM_SHAPE_VOLUME>
227.3

> <PUBCHEM_COORDINATE_TYPE>
2
5
10

$$$$

