8793
  -OEChem-06261203073D

 38 39  0     0  0  0  0  0  0999 V2000
   -1.8577    0.0170    0.0315 N   0  0  0  0  0  0  0  0  0  0  0  0
    1.8673    0.0359   -0.0030 N   0  0  0  0  0  0  0  0  0  0  0  0
   -0.5206    0.0168   -0.5399 C   0  0  0  0  0  0  0  0  0  0  0  0
    0.5258    0.0540    0.5699 C   0  0  0  0  0  0  0  0  0  0  0  0
   -2.8712    0.0082   -1.0247 C   0  0  0  0  0  0  0  0  0  0  0  0
    2.8784    0.0343    1.0444 C   0  0  0  0  0  0  0  0  0  0  0  0
   -4.2595   -0.0022   -0.4797 C   0  0  0  0  0  0  0  0  0  0  0  0
    4.2730    0.0085    0.4777 C   0  0  0  0  0  0  0  0  0  0  0  0
   -4.8991   -1.2152   -0.2235 C   0  0  0  0  0  0  0  0  0  0  0  0
    4.8892   -1.2112    0.2343 C   0  0  0  0  0  0  0  0  0  0  0  0
   -4.9183    1.2008   -0.2259 C   0  0  0  0  0  0  0  0  0  0  0  0
    4.9228    1.2045    0.2061 C   0  0  0  0  0  0  0  0  0  0  0  0
   -6.1973   -1.2251    0.2865 C   0  0  0  0  0  0  0  0  0  0  0  0
    6.1811   -1.2353   -0.2910 C   0  0  0  0  0  0  0  0  0  0  0  0
   -6.2166    1.1907    0.2842 C   0  0  0  0  0  0  0  0  0  0  0  0
    6.2148    1.1802   -0.3194 C   0  0  0  0  0  0  0  0  0  0  0  0
   -6.8560   -0.0222    0.5403 C   0  0  0  0  0  0  0  0  0  0  0  0
    6.8438   -0.0397   -0.5678 C   0  0  0  0  0  0  0  0  0  0  0  0
   -0.3740   -0.8859   -1.1464 H   0  0  0  0  0  0  0  0  0  0  0  0
   -0.3885    0.8865   -1.1962 H   0  0  0  0  0  0  0  0  0  0  0  0
    0.3887    0.9572    1.1782 H   0  0  0  0  0  0  0  0  0  0  0  0
    0.3884   -0.8158    1.2247 H   0  0  0  0  0  0  0  0  0  0  0  0
   -2.7343   -0.8709   -1.6683 H   0  0  0  0  0  0  0  0  0  0  0  0
   -2.7470    0.8824   -1.6778 H   0  0  0  0  0  0  0  0  0  0  0  0
    2.7473   -0.8365    1.7001 H   0  0  0  0  0  0  0  0  0  0  0  0
    2.7695    0.9180    1.6872 H   0  0  0  0  0  0  0  0  0  0  0  0
   -1.9786    0.8475    0.6113 H   0  0  0  0  0  0  0  0  0  0  0  0
    1.9900    0.8540   -0.5997 H   0  0  0  0  0  0  0  0  0  0  0  0
   -4.3965   -2.1596   -0.4151 H   0  0  0  0  0  0  0  0  0  0  0  0
    4.3815   -2.1483    0.4445 H   0  0  0  0  0  0  0  0  0  0  0  0
   -4.4308    2.1527   -0.4193 H   0  0  0  0  0  0  0  0  0  0  0  0
    4.4413    2.1600    0.3942 H   0  0  0  0  0  0  0  0  0  0  0  0
   -6.6951   -2.1694    0.4865 H   0  0  0  0  0  0  0  0  0  0  0  0
    6.6709   -2.1850   -0.4850 H   0  0  0  0  0  0  0  0  0  0  0  0
   -6.7295    2.1273    0.4824 H   0  0  0  0  0  0  0  0  0  0  0  0
    6.7308    2.1111   -0.5355 H   0  0  0  0  0  0  0  0  0  0  0  0
   -7.8668   -0.0299    0.9376 H   0  0  0  0  0  0  0  0  0  0  0  0
    7.8496   -0.0586   -0.9771 H   0  0  0  0  0  0  0  0  0  0  0  0
  1  3  1  0  0  0  0
  1  5  1  0  0  0  0
  1 27  1  0  0  0  0
  2  4  1  0  0  0  0
  2  6  1  0  0  0  0
  2 28  1  0  0  0  0
  3  4  1  0  0  0  0
  3 19  1  0  0  0  0
  3 20  1  0  0  0  0
  4 21  1  0  0  0  0
  4 22  1  0  0  0  0
  5  7  1  0  0  0  0
  5 23  1  0  0  0  0
  5 24  1  0  0  0  0
  6  8  1  0  0  0  0
  6 25  1  0  0  0  0
  6 26  1  0  0  0  0
  7  9  2  0  0  0  0
  7 11  1  0  0  0  0
  8 10  2  0  0  0  0
  8 12  1  0  0  0  0
  9 13  1  0  0  0  0
  9 29  1  0  0  0  0
 10 14  1  0  0  0  0
 10 30  1  0  0  0  0
 11 15  2  0  0  0  0
 11 31  1  0  0  0  0
 12 16  2  0  0  0  0
 12 32  1  0  0  0  0
 13 17  2  0  0  0  0
 13 33  1  0  0  0  0
 14 18  2  0  0  0  0
 14 34  1  0  0  0  0
 15 17  1  0  0  0  0
 15 35  1  0  0  0  0
 16 18  1  0  0  0  0
 16 36  1  0  0  0  0
 17 37  1  0  0  0  0
 18 38  1  0  0  0  0
M  END
> <PUBCHEM_COMPOUND_CID>
8793

> <PUBCHEM_CONFORMER_RMSD>
0.8

> <PUBCHEM_CONFORMER_DIVERSEORDER>
1
9
22
2
25
27
21
33
10
23
3
13
8
29
4
18
12
31
19
24
30
15
11
20
28
7
26
32
6
14
16
17
5

> <PUBCHEM_MMFF94_PARTIAL_CHARGES>
30
1 -0.9
10 -0.15
11 -0.15
12 -0.15
13 -0.15
14 -0.15
15 -0.15
16 -0.15
17 -0.15
18 -0.15
2 -0.9
27 0.36
28 0.36
29 0.15
3 0.27
30 0.15
31 0.15
32 0.15
33 0.15
34 0.15
35 0.15
36 0.15
37 0.15
38 0.15
4 0.27
5 0.41
6 0.41
7 -0.14
8 -0.14
9 -0.15

> <PUBCHEM_EFFECTIVE_ROTOR_COUNT>
7

> <PUBCHEM_PHARMACOPHORE_FEATURES>
6
1 1 cation
1 1 donor
1 2 cation
1 2 donor
6 7 9 11 13 15 17 rings
6 8 10 12 14 16 18 rings

> <PUBCHEM_HEAVY_ATOM_COUNT>
18

> <PUBCHEM_ATOM_DEF_STEREO_COUNT>
0

> <PUBCHEM_ATOM_UDEF_STEREO_COUNT>
0

> <PUBCHEM_BOND_DEF_STEREO_COUNT>
0

> <PUBCHEM_BOND_UDEF_STEREO_COUNT>
0

> <PUBCHEM_ISOTOPIC_ATOM_COUNT>
0

> <PUBCHEM_COMPONENT_COUNT>
1

> <PUBCHEM_CACTVS_TAUTO_COUNT>
1

> <PUBCHEM_CONFORMER_ID>
0000225900000001

> <PUBCHEM_MMFF94_ENERGY>
32.0144

> <PUBCHEM_FEATURE_SELFOVERLAP>
30.446

> <PUBCHEM_SHAPE_FINGERPRINT>
10299344 5 18410855464428676675
10638233 991 16917058949915904156
10968037 39 15698281110327238331
11089746 13 6050440418624747603
11315181 36 18273495659732131397
11524674 6 16515687723897342423
11724838 91 12391506474039080146
12091667 2 17821450158232726469
12166972 35 18411697664666573848
12236239 1 18410575088958247585
12516196 113 17561083604961141829
12730499 353 17847062207897218770
13533116 47 17060066994808186858
13914758 101 6194569883219485063
14123256 10 15698281113878432942
1420 363 16917067763251779873
14251732 16 18272369745964408355
14251752 14 17822010929873013177
14251764 18 18186240619916694671
14251764 46 18411139134128173490
14933364 13 18410855460133702885
15183329 4 15791729710924383521
15716309 27 18272934925385833363
17844677 252 18410290315452214193
20281389 69 17676210169366328929
21095086 128 18343302569587970731
21150785 3 17774999081740641374
220451 1 17989209256535942795
22224240 67 15195285305391487920
23035841 295 18342741822984148107
23081809 10 18113909251092583231
23198884 109 18272368681187065801
23402539 116 7925912582425960043
23536379 177 18409167722680271416
28498 318 16081363090294968732
29717793 49 17603863417203648332
328311 84 18260261958194980302
34797466 226 17275097337090977902
4073 2 18130784504443837074
4325135 7 15698281113910367283
4463277 17 18410857659156990917
542803 24 18410862057197954437
5758199 1 17418092126606584673

> <PUBCHEM_SHAPE_MULTIPOLES>
360.47
23.6
1.27
0.86
0.17
0.03
0
0.26
-0.14
0
0
-0.03
0
0.01

> <PUBCHEM_SHAPE_SELFOVERLAP>
744.585

> <PUBCHEM_SHAPE_VOLUME>
205.3

> <PUBCHEM_COORDINATE_TYPE>
2
5
10

$$$$

