14194
  -OEChem-06241222423D

 47 49  0     0  0  0  0  0  0999 V2000
   -1.4880    4.0693   -2.3748 Cl  0  0  0  0  0  0  0  0  0  0  0  0
    2.3704   -0.5879    3.0045 O   0  0  0  0  0  0  0  0  0  0  0  0
    1.9815    0.5601    1.0143 N   0  0  0  0  0  0  0  0  0  0  0  0
    2.2734   -2.8049   -1.7289 N   0  0  0  0  0  0  0  0  0  0  0  0
   -0.6926    0.0667    2.3661 N   0  0  0  0  0  0  0  0  0  0  0  0
    3.2911    0.1902    0.4776 C   0  0  0  0  0  0  0  0  0  0  0  0
    3.1383   -0.6947   -0.7591 C   0  0  0  0  0  0  0  0  0  0  0  0
    1.1127    1.3543    0.1888 C   0  0  0  0  0  0  0  0  0  0  0  0
    2.3437   -1.9836   -0.5266 C   0  0  0  0  0  0  0  0  0  0  0  0
   -0.2940    1.3011    0.2761 C   0  0  0  0  0  0  0  0  0  0  0  0
    1.6748    0.1699    2.3231 C   0  0  0  0  0  0  0  0  0  0  0  0
   -1.0088    0.3151    1.1402 C   0  0  0  0  0  0  0  0  0  0  0  0
    0.4352    0.7796    2.9279 C   0  0  0  0  0  0  0  0  0  0  0  0
    1.6736    2.2235   -0.7681 C   0  0  0  0  0  0  0  0  0  0  0  0
   -1.0904    2.1499   -0.5143 C   0  0  0  0  0  0  0  0  0  0  0  0
   -2.1510   -0.4529    0.5652 C   0  0  0  0  0  0  0  0  0  0  0  0
    0.8752    3.0490   -1.5637 C   0  0  0  0  0  0  0  0  0  0  0  0
   -0.5058    3.0211   -1.4281 C   0  0  0  0  0  0  0  0  0  0  0  0
    1.5646   -2.0968   -2.7965 C   0  0  0  0  0  0  0  0  0  0  0  0
    1.6161   -4.0817   -1.4438 C   0  0  0  0  0  0  0  0  0  0  0  0
   -2.1658   -0.7477   -0.7925 C   0  0  0  0  0  0  0  0  0  0  0  0
   -3.1874   -0.8655    1.3937 C   0  0  0  0  0  0  0  0  0  0  0  0
   -3.2337   -1.4660   -1.3304 C   0  0  0  0  0  0  0  0  0  0  0  0
   -4.2552   -1.5840    0.8558 C   0  0  0  0  0  0  0  0  0  0  0  0
   -4.2783   -1.8842   -0.5062 C   0  0  0  0  0  0  0  0  0  0  0  0
    3.8881    1.0846    0.2746 H   0  0  0  0  0  0  0  0  0  0  0  0
    3.8625   -0.3667    1.2293 H   0  0  0  0  0  0  0  0  0  0  0  0
    4.1460   -0.9589   -1.1066 H   0  0  0  0  0  0  0  0  0  0  0  0
    2.6933   -0.1035   -1.5628 H   0  0  0  0  0  0  0  0  0  0  0  0
    1.3350   -1.7525   -0.1619 H   0  0  0  0  0  0  0  0  0  0  0  0
    2.8472   -2.5465    0.2700 H   0  0  0  0  0  0  0  0  0  0  0  0
    0.4587    0.6153    4.0109 H   0  0  0  0  0  0  0  0  0  0  0  0
    0.3945    1.8646    2.7817 H   0  0  0  0  0  0  0  0  0  0  0  0
    2.7465    2.3255   -0.8991 H   0  0  0  0  0  0  0  0  0  0  0  0
   -2.1741    2.1383   -0.4146 H   0  0  0  0  0  0  0  0  0  0  0  0
    1.3521    3.7210   -2.2730 H   0  0  0  0  0  0  0  0  0  0  0  0
    0.5878   -1.7208   -2.4730 H   0  0  0  0  0  0  0  0  0  0  0  0
    1.3970   -2.7649   -3.6502 H   0  0  0  0  0  0  0  0  0  0  0  0
    2.1537   -1.2675   -3.1988 H   0  0  0  0  0  0  0  0  0  0  0  0
    2.1617   -4.6316   -0.6688 H   0  0  0  0  0  0  0  0  0  0  0  0
    0.5810   -3.9476   -1.1088 H   0  0  0  0  0  0  0  0  0  0  0  0
    1.6113   -4.7204   -2.3341 H   0  0  0  0  0  0  0  0  0  0  0  0
   -1.3551   -0.4665   -1.4577 H   0  0  0  0  0  0  0  0  0  0  0  0
   -3.1957   -0.6359    2.4555 H   0  0  0  0  0  0  0  0  0  0  0  0
   -3.2481   -1.7065   -2.3894 H   0  0  0  0  0  0  0  0  0  0  0  0
   -5.0696   -1.9083    1.4970 H   0  0  0  0  0  0  0  0  0  0  0  0
   -5.1091   -2.4448   -0.9247 H   0  0  0  0  0  0  0  0  0  0  0  0
  1 18  1  0  0  0  0
  2 11  2  0  0  0  0
  3  6  1  0  0  0  0
  3  8  1  0  0  0  0
  3 11  1  0  0  0  0
  4  9  1  0  0  0  0
  4 19  1  0  0  0  0
  4 20  1  0  0  0  0
  5 12  2  0  0  0  0
  5 13  1  0  0  0  0
  6  7  1  0  0  0  0
  6 26  1  0  0  0  0
  6 27  1  0  0  0  0
  7  9  1  0  0  0  0
  7 28  1  0  0  0  0
  7 29  1  0  0  0  0
  8 10  2  0  0  0  0
  8 14  1  0  0  0  0
  9 30  1  0  0  0  0
  9 31  1  0  0  0  0
 10 12  1  0  0  0  0
 10 15  1  0  0  0  0
 11 13  1  0  0  0  0
 12 16  1  0  0  0  0
 13 32  1  0  0  0  0
 13 33  1  0  0  0  0
 14 17  2  0  0  0  0
 14 34  1  0  0  0  0
 15 18  2  0  0  0  0
 15 35  1  0  0  0  0
 16 21  2  0  0  0  0
 16 22  1  0  0  0  0
 17 18  1  0  0  0  0
 17 36  1  0  0  0  0
 19 37  1  0  0  0  0
 19 38  1  0  0  0  0
 19 39  1  0  0  0  0
 20 40  1  0  0  0  0
 20 41  1  0  0  0  0
 20 42  1  0  0  0  0
 21 23  1  0  0  0  0
 21 43  1  0  0  0  0
 22 24  2  0  0  0  0
 22 44  1  0  0  0  0
 23 25  2  0  0  0  0
 23 45  1  0  0  0  0
 24 25  1  0  0  0  0
 24 46  1  0  0  0  0
 25 47  1  0  0  0  0
M  END
> <PUBCHEM_COMPOUND_CID>
14194

> <PUBCHEM_CONFORMER_RMSD>
0.8

> <PUBCHEM_CONFORMER_DIVERSEORDER>
1
22
25
20
3
16
9
7
12
27
13
19
26
24
2
15
21
5
17
18
10
23
11
4
8
6
14

> <PUBCHEM_MMFF94_PARTIAL_CHARGES>
32
1 -0.18
10 0.09
11 0.57
12 0.28
13 0.31
14 -0.15
15 -0.15
16 0.09
17 -0.15
18 0.18
19 0.27
2 -0.57
20 0.27
21 -0.15
22 -0.15
23 -0.15
24 -0.15
25 -0.15
3 -0.48
34 0.15
35 0.15
36 0.15
4 -0.81
43 0.15
44 0.15
45 0.15
46 0.15
47 0.15
5 -0.7
6 0.3
8 0.12
9 0.27

> <PUBCHEM_EFFECTIVE_ROTOR_COUNT>
5.4

> <PUBCHEM_PHARMACOPHORE_FEATURES>
6
1 2 acceptor
1 4 cation
1 5 acceptor
6 16 21 22 23 24 25 rings
6 8 10 14 15 17 18 rings
7 3 5 8 10 11 12 13 rings

> <PUBCHEM_HEAVY_ATOM_COUNT>
25

> <PUBCHEM_ATOM_DEF_STEREO_COUNT>
0

> <PUBCHEM_ATOM_UDEF_STEREO_COUNT>
0

> <PUBCHEM_BOND_DEF_STEREO_COUNT>
0

> <PUBCHEM_BOND_UDEF_STEREO_COUNT>
0

> <PUBCHEM_ISOTOPIC_ATOM_COUNT>
0

> <PUBCHEM_COMPONENT_COUNT>
1

> <PUBCHEM_CACTVS_TAUTO_COUNT>
1

> <PUBCHEM_CONFORMER_ID>
0000377200000001

> <PUBCHEM_MMFF94_ENERGY>
91.8955

> <PUBCHEM_FEATURE_SELFOVERLAP>
30.458

> <PUBCHEM_SHAPE_FINGERPRINT>
10064457 181 17533784793038911466
11578080 2 18040721384861290297
12156800 1 17480324677922972879
12788726 201 17986970711297664813
13583140 156 16732994123768399569
14004458 79 17987252194637125257
14840074 17 18195253209287203548
14863182 85 17823977827410910099
15664445 248 18272925008000242385
17492 54 18054200178226568372
17921350 177 17842587074754124911
17980427 26 16624083996417423716
1813 80 18341880892805797507
20600515 1 18129401327152542857
20645477 70 17984425135947208063
20775530 9 18043516420718075390
21285901 2 18265353844378396813
22889148 1 17413302821238391772
23419403 2 17679597893455862989
238 59 16980701762765702437
26353 1 18129356315779223093
338550 245 17755872909456884567
38695281 34 17834949776629879013
469060 322 17978471482388852486
484985 159 16815423642803782670
5262128 65 18201429225812933289

> <PUBCHEM_SHAPE_MULTIPOLES>
495.55
5.65
4.42
2.97
4.8
1.76
-1.19
-4.64
0.03
-0.79
4.97
-1.25
-0.33
1.4

> <PUBCHEM_SHAPE_SELFOVERLAP>
1049.141

> <PUBCHEM_SHAPE_VOLUME>
277.7

> <PUBCHEM_COORDINATE_TYPE>
2
5
10

$$$$

