17396016
  -OEChem-06241222532D

 37 39  0     0  0  0  0  0  0999 V2000
   10.7475    1.6241    0.0000 Br  0  0  0  0  0  0  0  0  0  0  0  0
    6.8335    0.7993    0.0000 S   0  0  0  0  0  0  0  0  0  0  0  0
    5.5443   -1.9670    0.0000 S   0  0  0  0  0  0  0  0  0  0  0  0
    6.6272    1.7778    0.0000 O   0  0  0  0  0  0  0  0  0  0  0  0
    7.0397   -0.1792    0.0000 O   0  0  0  0  0  0  0  0  0  0  0  0
    5.8550    0.5930    0.0000 N   0  0  0  0  0  0  0  0  0  0  0  0
    3.7320   -2.1622    0.0000 N   0  0  0  0  0  0  0  0  0  0  0  0
    6.1279   -1.1622    0.0000 N   0  0  0  0  0  0  0  0  0  0  0  0
    4.5981   -0.6622    0.0000 C   0  0  0  0  0  0  0  0  0  0  0  0
    5.5443   -0.3575    0.0000 C   0  0  0  0  0  0  0  0  0  0  0  0
    3.7320   -0.1622    0.0000 C   0  0  0  0  0  0  0  0  0  0  0  0
    7.8120    1.0055    0.0000 C   0  0  0  0  0  0  0  0  0  0  0  0
    4.5981   -1.6622    0.0000 C   0  0  0  0  0  0  0  0  0  0  0  0
    2.8660   -0.6622    0.0000 C   0  0  0  0  0  0  0  0  0  0  0  0
    8.4798    0.2612    0.0000 C   0  0  0  0  0  0  0  0  0  0  0  0
    2.8660   -1.6622    0.0000 C   0  0  0  0  0  0  0  0  0  0  0  0
    9.4583    0.4674    0.0000 C   0  0  0  0  0  0  0  0  0  0  0  0
    8.1226    1.9560    0.0000 C   0  0  0  0  0  0  0  0  0  0  0  0
    3.7320    0.8378    0.0000 C   0  0  0  0  0  0  0  0  0  0  0  0
    9.7690    1.4179    0.0000 C   0  0  0  0  0  0  0  0  0  0  0  0
    9.1011    2.1622    0.0000 C   0  0  0  0  0  0  0  0  0  0  0  0
    2.0000   -2.1622    0.0000 C   0  0  0  0  0  0  0  0  0  0  0  0
   10.1262   -0.2769    0.0000 C   0  0  0  0  0  0  0  0  0  0  0  0
    5.4409    1.0545    0.0000 H   0  0  0  0  0  0  0  0  0  0  0  0
    2.3291   -0.3522    0.0000 H   0  0  0  0  0  0  0  0  0  0  0  0
    8.2872   -0.3281    0.0000 H   0  0  0  0  0  0  0  0  0  0  0  0
    7.7086    2.4175    0.0000 H   0  0  0  0  0  0  0  0  0  0  0  0
    4.3520    0.8378    0.0000 H   0  0  0  0  0  0  0  0  0  0  0  0
    3.7320    1.4578    0.0000 H   0  0  0  0  0  0  0  0  0  0  0  0
    3.1120    0.8378    0.0000 H   0  0  0  0  0  0  0  0  0  0  0  0
    9.2938    2.7515    0.0000 H   0  0  0  0  0  0  0  0  0  0  0  0
    1.6900   -1.6253    0.0000 H   0  0  0  0  0  0  0  0  0  0  0  0
    1.4631   -2.4722    0.0000 H   0  0  0  0  0  0  0  0  0  0  0  0
    2.3100   -2.6992    0.0000 H   0  0  0  0  0  0  0  0  0  0  0  0
    9.6647   -0.6910    0.0000 H   0  0  0  0  0  0  0  0  0  0  0  0
   10.5402   -0.7384    0.0000 H   0  0  0  0  0  0  0  0  0  0  0  0
   10.5876    0.1372    0.0000 H   0  0  0  0  0  0  0  0  0  0  0  0
  1 20  1  0  0  0  0
  2  4  2  0  0  0  0
  2  5  2  0  0  0  0
  2  6  1  0  0  0  0
  2 12  1  0  0  0  0
  3  8  1  0  0  0  0
  3 13  1  0  0  0  0
  6 10  1  0  0  0  0
  6 24  1  0  0  0  0
  7 13  1  0  0  0  0
  7 16  2  0  0  0  0
  8 10  2  0  0  0  0
  9 10  1  0  0  0  0
  9 11  1  0  0  0  0
  9 13  2  0  0  0  0
 11 14  2  0  0  0  0
 11 19  1  0  0  0  0
 12 15  2  0  0  0  0
 12 18  1  0  0  0  0
 14 16  1  0  0  0  0
 14 25  1  0  0  0  0
 15 17  1  0  0  0  0
 15 26  1  0  0  0  0
 16 22  1  0  0  0  0
 17 20  2  0  0  0  0
 17 23  1  0  0  0  0
 18 21  2  0  0  0  0
 18 27  1  0  0  0  0
 19 28  1  0  0  0  0
 19 29  1  0  0  0  0
 19 30  1  0  0  0  0
 20 21  1  0  0  0  0
 21 31  1  0  0  0  0
 22 32  1  0  0  0  0
 22 33  1  0  0  0  0
 22 34  1  0  0  0  0
 23 35  1  0  0  0  0
 23 36  1  0  0  0  0
 23 37  1  0  0  0  0
M  END
> <PUBCHEM_COMPOUND_CID>
17396016

> <PUBCHEM_COMPOUND_CANONICALIZED>
1

> <PUBCHEM_CACTVS_COMPLEXITY>
527

> <PUBCHEM_CACTVS_HBOND_ACCEPTOR>
6

> <PUBCHEM_CACTVS_HBOND_DONOR>
1

> <PUBCHEM_CACTVS_ROTATABLE_BOND>
3

> <PUBCHEM_CACTVS_SUBSKEYS>
AAADccBzMABgEAAAAAAAAAAAAAAAAWAAAAA8QAAAAAAAAFgB/AAAHARQQAABrAiBXgAzsdJIEAKkAyZiZHDD0DAhAiwImDgwZLgIIGLA0dGEJAxggADIyhcQgAAOgAEAgAAAgAAAAgEAAAEAAAAAAAAAAA==

> <PUBCHEM_IUPAC_OPENEYE_NAME>
4-bromo-N-(4,6-dimethylisothiazolo[5,4-b]pyridin-3-yl)-3-methyl-benzenesulfonamide

> <PUBCHEM_IUPAC_CAS_NAME>
4-bromo-N-(4,6-dimethyl-3-isothiazolo[5,4-b]pyridinyl)-3-methylbenzenesulfonamide

> <PUBCHEM_IUPAC_NAME>
4-bromo-N-(4,6-dimethyl-[1,2]thiazolo[5,4-b]pyridin-3-yl)-3-methylbenzenesulfonamide

> <PUBCHEM_IUPAC_SYSTEMATIC_NAME>
4-bromanyl-N-(4,6-dimethyl-[1,2]thiazolo[5,4-b]pyridin-3-yl)-3-methyl-benzenesulfonamide

> <PUBCHEM_IUPAC_TRADITIONAL_NAME>
4-bromo-N-(4,6-dimethylisothiazolo[5,4-b]pyridin-3-yl)-3-methyl-benzenesulfonamide

> <PUBCHEM_IUPAC_INCHI>
InChI=1S/C15H14BrN3O2S2/c1-8-7-11(4-5-12(8)16)23(20,21)19-14-13-9(2)6-10(3)17-15(13)22-18-14/h4-7H,1-3H3,(H,18,19)

> <PUBCHEM_IUPAC_INCHIKEY>
LMWNHXAKWKRLTE-UHFFFAOYSA-N

> <PUBCHEM_XLOGP3_AA>
4.3

> <PUBCHEM_EXACT_MASS>
410.971081

> <PUBCHEM_MOLECULAR_FORMULA>
C15H14BrN3O2S2

> <PUBCHEM_MOLECULAR_WEIGHT>
412.32456

> <PUBCHEM_OPENEYE_CAN_SMILES>
CC1=CC(=NC2=C1C(=NS2)NS(=O)(=O)C3=CC(=C(C=C3)Br)C)C

> <PUBCHEM_OPENEYE_ISO_SMILES>
CC1=CC(=NC2=C1C(=NS2)NS(=O)(=O)C3=CC(=C(C=C3)Br)C)C

> <PUBCHEM_CACTVS_TPSA>
109

> <PUBCHEM_MONOISOTOPIC_WEIGHT>
410.971081

> <PUBCHEM_TOTAL_CHARGE>
0

> <PUBCHEM_HEAVY_ATOM_COUNT>
23

> <PUBCHEM_ATOM_DEF_STEREO_COUNT>
0

> <PUBCHEM_ATOM_UDEF_STEREO_COUNT>
0

> <PUBCHEM_BOND_DEF_STEREO_COUNT>
0

> <PUBCHEM_BOND_UDEF_STEREO_COUNT>
0

> <PUBCHEM_ISOTOPIC_ATOM_COUNT>
0

> <PUBCHEM_COMPONENT_COUNT>
1

> <PUBCHEM_CACTVS_TAUTO_COUNT>
2

> <PUBCHEM_COORDINATE_TYPE>
1
5
255

> <PUBCHEM_BONDANNOTATIONS>
11  14  8
12  15  8
12  18  8
14  16  8
15  17  8
17  20  8
18  21  8
20  21  8
3  13  8
3  8  8
7  13  8
7  16  8
8  10  8
9  10  8
9  11  8
9  13  8

$$$$

