7847038
  -OEChem-06241222483D

 46 48  0     1  0  0  0  0  0999 V2000
   -2.6986    3.4502    1.9262 Cl  0  0  0  0  0  0  0  0  0  0  0  0
    2.3989    1.5438    1.6028 S   0  0  0  0  0  0  0  0  0  0  0  0
    1.7744   -3.2587   -0.3072 O   0  0  0  0  0  0  0  0  0  0  0  0
   -0.1876   -2.0411   -1.8388 O   0  0  0  0  0  0  0  0  0  0  0  0
    1.4954   -2.1713    1.7082 O   0  0  0  0  0  0  0  0  0  0  0  0
   -1.7757   -2.7829   -0.3096 N   0  0  0  0  0  0  0  0  0  0  0  0
    2.8432    0.5345   -0.7288 N   0  0  0  0  0  0  0  0  0  0  0  0
   -2.8695   -1.9459   -0.7464 C   0  0  2  0  0  0  0  0  0  0  0  0
   -2.8256   -0.5900   -0.0752 C   0  0  0  0  0  0  0  0  0  0  0  0
   -4.2056   -2.6567   -0.5406 C   0  0  0  0  0  0  0  0  0  0  0  0
    3.9394   -0.6855    1.1181 C   0  0  0  0  0  0  0  0  0  0  0  0
    3.6140   -2.0661    0.5181 C   0  0  0  0  0  0  0  0  0  0  0  0
    3.0991    0.3913    0.5506 C   0  0  0  0  0  0  0  0  0  0  0  0
   -3.2346    0.5469   -0.7723 C   0  0  0  0  0  0  0  0  0  0  0  0
   -2.3777   -0.4776    1.2410 C   0  0  0  0  0  0  0  0  0  0  0  0
   -0.5211   -2.7570   -0.8985 C   0  0  0  0  0  0  0  0  0  0  0  0
    1.6754    2.3267    0.2476 C   0  0  0  0  0  0  0  0  0  0  0  0
    2.0276    1.6404   -0.9186 C   0  0  0  0  0  0  0  0  0  0  0  0
    0.4267   -3.7356   -0.2384 C   0  0  0  0  0  0  0  0  0  0  0  0
    2.1779   -2.4819    0.7417 C   0  0  0  0  0  0  0  0  0  0  0  0
   -3.1957    1.7962   -0.1532 C   0  0  0  0  0  0  0  0  0  0  0  0
   -2.3388    0.7716    1.8601 C   0  0  0  0  0  0  0  0  0  0  0  0
   -2.7478    1.9085    1.1630 C   0  0  0  0  0  0  0  0  0  0  0  0
    0.8554    3.4662    0.2185 C   0  0  0  0  0  0  0  0  0  0  0  0
    1.5404    2.1135   -2.1563 C   0  0  0  0  0  0  0  0  0  0  0  0
    0.3868    3.9133   -1.0195 C   0  0  0  0  0  0  0  0  0  0  0  0
    0.7236    3.2472   -2.1926 C   0  0  0  0  0  0  0  0  0  0  0  0
   -2.7344   -1.7936   -1.8255 H   0  0  0  0  0  0  0  0  0  0  0  0
   -1.9318   -3.3839    0.4948 H   0  0  0  0  0  0  0  0  0  0  0  0
   -4.3926   -2.8560    0.5210 H   0  0  0  0  0  0  0  0  0  0  0  0
   -5.0376   -2.0523   -0.9181 H   0  0  0  0  0  0  0  0  0  0  0  0
   -4.2184   -3.6188   -1.0643 H   0  0  0  0  0  0  0  0  0  0  0  0
    3.8322   -0.7442    2.2085 H   0  0  0  0  0  0  0  0  0  0  0  0
    4.9929   -0.4554    0.9180 H   0  0  0  0  0  0  0  0  0  0  0  0
    3.8162   -2.0445   -0.5601 H   0  0  0  0  0  0  0  0  0  0  0  0
    4.2594   -2.8293    0.9661 H   0  0  0  0  0  0  0  0  0  0  0  0
   -3.5871    0.4725   -1.7975 H   0  0  0  0  0  0  0  0  0  0  0  0
   -2.0664   -1.3467    1.8137 H   0  0  0  0  0  0  0  0  0  0  0  0
    0.3814   -4.6733   -0.8026 H   0  0  0  0  0  0  0  0  0  0  0  0
    0.1368   -3.9633    0.7935 H   0  0  0  0  0  0  0  0  0  0  0  0
   -3.5164    2.6737   -0.7087 H   0  0  0  0  0  0  0  0  0  0  0  0
   -1.9892    0.8442    2.8868 H   0  0  0  0  0  0  0  0  0  0  0  0
    0.5894    3.9917    1.1304 H   0  0  0  0  0  0  0  0  0  0  0  0
    1.7967    1.6004   -3.0788 H   0  0  0  0  0  0  0  0  0  0  0  0
   -0.2504    4.7926   -1.0638 H   0  0  0  0  0  0  0  0  0  0  0  0
    0.3489    3.6090   -3.1462 H   0  0  0  0  0  0  0  0  0  0  0  0
  1 23  1  0  0  0  0
  2 13  1  0  0  0  0
  2 17  1  0  0  0  0
  3 19  1  0  0  0  0
  3 20  1  0  0  0  0
  4 16  2  0  0  0  0
  5 20  2  0  0  0  0
  6  8  1  0  0  0  0
  6 16  1  0  0  0  0
  6 29  1  0  0  0  0
  7 13  2  0  0  0  0
  7 18  1  0  0  0  0
  8  9  1  0  0  0  0
  8 10  1  0  0  0  0
  8 28  1  0  0  0  0
  9 14  2  0  0  0  0
  9 15  1  0  0  0  0
 10 30  1  0  0  0  0
 10 31  1  0  0  0  0
 10 32  1  0  0  0  0
 11 12  1  0  0  0  0
 11 13  1  0  0  0  0
 11 33  1  0  0  0  0
 11 34  1  0  0  0  0
 12 20  1  0  0  0  0
 12 35  1  0  0  0  0
 12 36  1  0  0  0  0
 14 21  1  0  0  0  0
 14 37  1  0  0  0  0
 15 22  2  0  0  0  0
 15 38  1  0  0  0  0
 16 19  1  0  0  0  0
 17 18  1  0  0  0  0
 17 24  2  0  0  0  0
 18 25  2  0  0  0  0
 19 39  1  0  0  0  0
 19 40  1  0  0  0  0
 21 23  2  0  0  0  0
 21 41  1  0  0  0  0
 22 23  1  0  0  0  0
 22 42  1  0  0  0  0
 24 26  1  0  0  0  0
 24 43  1  0  0  0  0
 25 27  1  0  0  0  0
 25 44  1  0  0  0  0
 26 27  2  0  0  0  0
 26 45  1  0  0  0  0
 27 46  1  0  0  0  0
M  END
> <PUBCHEM_COMPOUND_CID>
7847038

> <PUBCHEM_CONFORMER_RMSD>
1.2

> <PUBCHEM_CONFORMER_DIVERSEORDER>
1
21
231
185
73
135
47
93
10
187
79
58
143
60
65
86
38
49
217
76
48
31
148
236
70
89
164
151
19
173
32
186
42
145
100
168
104
7
134
120
88
220
27
212
154
190
25
40
102
97
235
85
170
222
116
78
94
4
91
152
119
132
28
61
67
129
196
117
197
3
105
127
109
131
192
198
96
63
14
74
9
207
216
199
64
144
118
44
230
218
24
113
108
228
194
90
54
45
179
181
184
103
37
158
142
161
182
82
204
20
171
195
110
95
188
133
205
163
227
15
209
226
22
101
5
159
13
157
177
233
35
69
53
136
128
200
178
180
215
191
39
214
83
50
225
55
17
111
66
77
99
232
2
68
107
126
140
56
115
213
176
33
98
237
122
124
162
12
80
139
193
18
8
106
203
174
51
167
189
52
146
155
221
201
210
147
208
229
87
166
75
211
72
123
114
153
165
41
59
92
137
223
84
121
6
23
11
224
149
175
183
71
156
130
16
46
202
169
34
160
150
43
29
125
138
62
206
26
81
141
36
219
234
57
172
30
238
112

> <PUBCHEM_MMFF94_PARTIAL_CHARGES>
35
1 -0.18
11 0.18
12 0.06
13 0.2
14 -0.15
15 -0.15
16 0.57
17 0.04
18 0.23
19 0.34
2 -0.08
20 0.66
21 -0.15
22 -0.15
23 0.18
24 -0.15
25 -0.15
26 -0.15
27 -0.15
29 0.37
3 -0.43
37 0.15
38 0.15
4 -0.57
41 0.15
42 0.15
43 0.15
44 0.15
45 0.15
46 0.15
5 -0.57
6 -0.73
7 -0.57
8 0.44
9 -0.14

> <PUBCHEM_EFFECTIVE_ROTOR_COUNT>
9

> <PUBCHEM_PHARMACOPHORE_FEATURES>
7
1 4 acceptor
1 5 acceptor
1 6 donor
1 7 acceptor
5 2 7 13 17 18 rings
6 17 18 24 25 26 27 rings
6 9 14 15 21 22 23 rings

> <PUBCHEM_HEAVY_ATOM_COUNT>
27

> <PUBCHEM_ATOM_DEF_STEREO_COUNT>
1

> <PUBCHEM_ATOM_UDEF_STEREO_COUNT>
0

> <PUBCHEM_BOND_DEF_STEREO_COUNT>
0

> <PUBCHEM_BOND_UDEF_STEREO_COUNT>
0

> <PUBCHEM_ISOTOPIC_ATOM_COUNT>
0

> <PUBCHEM_COMPONENT_COUNT>
1

> <PUBCHEM_CACTVS_TAUTO_COUNT>
4

> <PUBCHEM_CONFORMER_ID>
0077BC7E00000001

> <PUBCHEM_MMFF94_ENERGY>
46.1713

> <PUBCHEM_FEATURE_SELFOVERLAP>
35.591

> <PUBCHEM_SHAPE_FINGERPRINT>
10675989 125 18050016493765854685
10708813 3 18409737248397466818
11513181 2 17317049370230425575
12156800 1 6543086163809452627
12403259 327 17605277478518598800
12422481 6 16970800067605349593
12788726 201 17754996637433383593
13122387 1 18337672034918809167
13402501 40 16897923367236337752
13965767 371 18048037659970627490
14840074 17 18053925514962714108
17859628 37 17976534232493565567
20715895 44 18268731436978066719
20764821 26 16752414007048698358
21141583 151 16393226004027726828
22749437 52 18336555931837909867
238 59 17771904935196720552
25265897 201 16952521644749472175
3493558 16 18339940293986053461
35225 105 16190267221133276414
4409770 3 16897644091489527014

> <PUBCHEM_SHAPE_MULTIPOLES>
533.8
6.56
5.91
1.94
1.71
0.1
-0.14
1.69
1.37
-0.07
-0.9
-0.15
-1.35
-2.45

> <PUBCHEM_SHAPE_SELFOVERLAP>
1115.461

> <PUBCHEM_SHAPE_VOLUME>
303.9

> <PUBCHEM_COORDINATE_TYPE>
2
5
10

$$$$

