17396373
  -OEChem-06241222563D

 37 38  0     0  0  0  0  0  0999 V2000
    3.7164   -1.7195   -1.0288 F   0  0  0  0  0  0  0  0  0  0  0  0
    3.4049   -2.9807    0.7285 F   0  0  0  0  0  0  0  0  0  0  0  0
    5.2167   -1.7664    0.5933 F   0  0  0  0  0  0  0  0  0  0  0  0
   -3.1081   -1.4091   -1.3786 O   0  0  0  0  0  0  0  0  0  0  0  0
    3.2054   -0.7481    0.9771 O   0  0  0  0  0  0  0  0  0  0  0  0
   -1.1593    1.5815   -0.2536 O   0  0  0  0  0  0  0  0  0  0  0  0
    0.6049    0.2161    0.4792 N   0  0  0  0  0  0  0  0  0  0  0  0
   -1.6598   -0.4746    0.9001 C   0  0  0  0  0  0  0  0  0  0  0  0
   -3.1098   -0.1901    0.6856 C   0  0  0  0  0  0  0  0  0  0  0  0
   -0.7287    0.5746    0.2997 C   0  0  0  0  0  0  0  0  0  0  0  0
   -3.7708   -0.6703   -0.4451 C   0  0  0  0  0  0  0  0  0  0  0  0
    1.7537    0.9299    0.0627 C   0  0  0  0  0  0  0  0  0  0  0  0
   -3.8037    0.5650    1.6310 C   0  0  0  0  0  0  0  0  0  0  0  0
    3.0318    0.4336    0.3201 C   0  0  0  0  0  0  0  0  0  0  0  0
   -5.1258   -0.3952   -0.6300 C   0  0  0  0  0  0  0  0  0  0  0  0
    1.5986    2.1412   -0.6113 C   0  0  0  0  0  0  0  0  0  0  0  0
   -5.1586    0.8401    1.4458 C   0  0  0  0  0  0  0  0  0  0  0  0
   -5.8197    0.3601    0.3154 C   0  0  0  0  0  0  0  0  0  0  0  0
    4.1546    1.1487   -0.0967 C   0  0  0  0  0  0  0  0  0  0  0  0
    2.7216    2.8562   -1.0280 C   0  0  0  0  0  0  0  0  0  0  0  0
    3.9994    2.3601   -0.7706 C   0  0  0  0  0  0  0  0  0  0  0  0
   -3.8616   -1.8592   -2.5027 C   0  0  0  0  0  0  0  0  0  0  0  0
    3.8978   -1.7940    0.3068 C   0  0  0  0  0  0  0  0  0  0  0  0
   -1.4492   -0.5363    1.9762 H   0  0  0  0  0  0  0  0  0  0  0  0
   -1.3958   -1.4575    0.4898 H   0  0  0  0  0  0  0  0  0  0  0  0
    0.7961   -0.6578    0.9649 H   0  0  0  0  0  0  0  0  0  0  0  0
   -3.3007    0.9475    2.5153 H   0  0  0  0  0  0  0  0  0  0  0  0
   -5.7049   -0.7340   -1.4821 H   0  0  0  0  0  0  0  0  0  0  0  0
    0.6474    2.5943   -0.8498 H   0  0  0  0  0  0  0  0  0  0  0  0
   -5.6988    1.4287    2.1816 H   0  0  0  0  0  0  0  0  0  0  0  0
   -6.8747    0.5751    0.1723 H   0  0  0  0  0  0  0  0  0  0  0  0
    5.1566    0.7794    0.1032 H   0  0  0  0  0  0  0  0  0  0  0  0
    2.6025    3.7999   -1.5526 H   0  0  0  0  0  0  0  0  0  0  0  0
    4.8736    2.9179   -1.0935 H   0  0  0  0  0  0  0  0  0  0  0  0
   -3.1781   -2.4294   -3.1406 H   0  0  0  0  0  0  0  0  0  0  0  0
   -4.2306   -1.0209   -3.1034 H   0  0  0  0  0  0  0  0  0  0  0  0
   -4.6625   -2.5442   -2.2043 H   0  0  0  0  0  0  0  0  0  0  0  0
  1 23  1  0  0  0  0
  2 23  1  0  0  0  0
  3 23  1  0  0  0  0
  4 11  1  0  0  0  0
  4 22  1  0  0  0  0
  5 14  1  0  0  0  0
  5 23  1  0  0  0  0
  6 10  2  0  0  0  0
  7 10  1  0  0  0  0
  7 12  1  0  0  0  0
  7 26  1  0  0  0  0
  8  9  1  0  0  0  0
  8 10  1  0  0  0  0
  8 24  1  0  0  0  0
  8 25  1  0  0  0  0
  9 11  1  0  0  0  0
  9 13  2  0  0  0  0
 11 15  2  0  0  0  0
 12 14  1  0  0  0  0
 12 16  2  0  0  0  0
 13 17  1  0  0  0  0
 13 27  1  0  0  0  0
 14 19  2  0  0  0  0
 15 18  1  0  0  0  0
 15 28  1  0  0  0  0
 16 20  1  0  0  0  0
 16 29  1  0  0  0  0
 17 18  2  0  0  0  0
 17 30  1  0  0  0  0
 18 31  1  0  0  0  0
 19 21  1  0  0  0  0
 19 32  1  0  0  0  0
 20 21  2  0  0  0  0
 20 33  1  0  0  0  0
 21 34  1  0  0  0  0
 22 35  1  0  0  0  0
 22 36  1  0  0  0  0
 22 37  1  0  0  0  0
M  END
> <PUBCHEM_COMPOUND_CID>
17396373

> <PUBCHEM_CONFORMER_RMSD>
0.8

> <PUBCHEM_CONFORMER_DIVERSEORDER>
1
100
120
129
41
33
190
111
220
154
161
134
234
186
93
15
176
3
208
183
54
13
126
215
94
195
140
238
191
151
91
174
21
28
170
187
231
44
82
71
199
131
101
175
193
219
207
70
206
119
165
211
205
243
164
139
216
147
189
48
237
96
109
9
32
223
77
239
117
72
133
141
85
203
225
103
136
81
65
60
8
217
233
244
25
114
66
22
97
132
102
198
98
135
181
47
214
196
204
242
188
137
229
75
51
201
34
153
88
118
150
10
107
246
143
142
218
212
20
68
19
235
67
73
152
232
58
78
230
156
122
43
27
163
106
83
221
87
124
158
145
92
123
168
155
209
69
63
236
24
39
202
210
62
53
116
76
11
115
222
173
61
112
7
36
213
148
144
185
227
37
29
166
121
162
228
84
192
159
80
104
18
157
125
17
105
95
45
40
113
197
177
224
178
171
6
160
110
89
49
179
184
42
169
23
146
57
138
59
240
55
194
16
79
12
245
30
35
90
46
2
38
172
5
200
167
64
86
128
180
14
52
130
99
149
50
74
127
182
241
226
4
26
56
31
108

> <PUBCHEM_MMFF94_PARTIAL_CHARGES>
32
1 -0.34
10 0.57
11 0.08
12 0.12
13 -0.15
14 0.08
15 -0.15
16 -0.15
17 -0.15
18 -0.15
19 -0.15
2 -0.34
20 -0.15
21 -0.15
22 0.28
23 1.3
26 0.37
27 0.15
28 0.15
29 0.15
3 -0.34
30 0.15
31 0.15
32 0.15
33 0.15
34 0.15
4 -0.36
5 -0.36
6 -0.57
7 -0.55
8 0.2
9 -0.14

> <PUBCHEM_EFFECTIVE_ROTOR_COUNT>
7

> <PUBCHEM_PHARMACOPHORE_FEATURES>
6
1 4 acceptor
1 5 acceptor
1 6 acceptor
1 7 donor
6 12 14 16 19 20 21 rings
6 9 11 13 15 17 18 rings

> <PUBCHEM_HEAVY_ATOM_COUNT>
23

> <PUBCHEM_ATOM_DEF_STEREO_COUNT>
0

> <PUBCHEM_ATOM_UDEF_STEREO_COUNT>
0

> <PUBCHEM_BOND_DEF_STEREO_COUNT>
0

> <PUBCHEM_BOND_UDEF_STEREO_COUNT>
0

> <PUBCHEM_ISOTOPIC_ATOM_COUNT>
0

> <PUBCHEM_COMPONENT_COUNT>
1

> <PUBCHEM_CACTVS_TAUTO_COUNT>
2

> <PUBCHEM_CONFORMER_ID>
0109729500000001

> <PUBCHEM_MMFF94_ENERGY>
78.5194

> <PUBCHEM_FEATURE_SELFOVERLAP>
30.446

> <PUBCHEM_SHAPE_FINGERPRINT>
10369192 42 16625993882564417372
10595046 47 18337107840031682865
10622 236 18043272183503473391
10912923 1 18113892745939641577
11796584 16 17603579707904882255
12107183 9 18049432948958940025
12236239 1 18335136489008559897
12553582 1 18201162164873302834
12596602 18 17240770549616906474
12616971 3 18410015433497956395
12788726 201 17822837762781014913
13167823 11 18260546706205652851
13533116 47 18409164403066359721
15081414 286 17774997947363692036
15250474 111 18114754737101787823
15806764 133 16559033774946195693
17349148 13 17240481408018284693
17818456 19 17824814774855675945
17844677 252 18201996655660051689
17857418 61 18187651318361142923
1813 80 18267575978531318590
18186145 218 17131836434710078545
18681886 176 16805878473373261676
19489759 90 16226044509800598841
20281475 54 18261397715246783561
20511986 3 18186813456331047201
20554085 129 16154268464107169307
20612939 158 18343017787559950905
20645477 56 16701742631815615537
20645477 70 18131635551922921144
21033648 144 17413877530839085180
21033648 29 16773529780384562765
21054139 6 18045508508686211804
21065201 7 16226313863910283405
21315763 178 18334296435769845336
21728266 224 17386298610171565919
22224240 67 18336273332724584248
2297311 6 14908174275179336843
23557571 272 15285622314284640433
23559900 14 18273210864107547320
300161 21 18260268516705077849
3004659 81 18186794798955988894
338550 245 17967812760212222238
3421961 26 18343299306056001560
345986 75 18264212585283589840
34797466 226 15864346888083834057
46194498 28 16630232659045688046
463206 1 18335987471652496282
5281201 14 17846781805918604997
573450 72 17748828514492482955
633830 44 18059860558412167329
7064713 232 17530970219244203343
7164475 11 18411417358037051264
8272917 22 18341606002045625980
90127 26 17561082514677946713
9709674 26 18059568036405070642
9841814 1 17775294867643750640
9971528 1 18411703188289402680
9981440 41 17254570292350867793

> <PUBCHEM_SHAPE_MULTIPOLES>
428.92
13.21
2.62
1.49
5.62
0.53
-0.56
1.82
0.24
-4.26
-0.68
1.8
0.47
-2.98

> <PUBCHEM_SHAPE_SELFOVERLAP>
915.355

> <PUBCHEM_SHAPE_VOLUME>
238.1

> <PUBCHEM_COORDINATE_TYPE>
2
5
10

$$$$

