13927
  -OEChem-06241222413D

 29 30  0     1  0  0  0  0  0999 V2000
   -2.6634   -2.8589    0.3578 Br  0  0  0  0  0  0  0  0  0  0  0  0
    1.6234   -0.1824   -0.9939 O   0  0  0  0  0  0  0  0  0  0  0  0
    3.8174    1.6294    0.1358 O   0  0  0  0  0  0  0  0  0  0  0  0
    2.3695   -2.8564   -0.6107 O   0  0  0  0  0  0  0  0  0  0  0  0
   -1.0856    2.7777   -0.3713 O   0  0  0  0  0  0  0  0  0  0  0  0
   -0.4366    0.5731   -0.1811 N   0  0  0  0  0  0  0  0  0  0  0  0
   -2.7426    1.2560   -0.0845 N   0  0  0  0  0  0  0  0  0  0  0  0
   -4.4577   -0.2669    0.2067 N   0  0  0  0  0  0  0  0  0  0  0  0
    3.0475    0.5905    0.7369 C   0  0  1  0  0  0  0  0  0  0  0  0
    1.6493    1.0905    1.0180 C   0  0  0  0  0  0  0  0  0  0  0  0
    0.9543    0.8924   -0.3192 C   0  0  1  0  0  0  0  0  0  0  0  0
    2.8174   -0.5308   -0.2667 C   0  0  1  0  0  0  0  0  0  0  0  0
    2.5840   -1.8817    0.3971 C   0  0  0  0  0  0  0  0  0  0  0  0
   -0.8367   -0.7421   -0.0084 C   0  0  0  0  0  0  0  0  0  0  0  0
   -1.4101    1.5986   -0.2199 C   0  0  0  0  0  0  0  0  0  0  0  0
   -2.1149   -1.1003    0.1254 C   0  0  0  0  0  0  0  0  0  0  0  0
   -3.1149    0.0114    0.0781 C   0  0  0  0  0  0  0  0  0  0  0  0
    3.5799    0.2630    1.6347 H   0  0  0  0  0  0  0  0  0  0  0  0
    1.1867    0.4733    1.7977 H   0  0  0  0  0  0  0  0  0  0  0  0
    1.6036    2.1343    1.3439 H   0  0  0  0  0  0  0  0  0  0  0  0
    1.0762    1.7859   -0.9428 H   0  0  0  0  0  0  0  0  0  0  0  0
    3.6277   -0.6056   -1.0004 H   0  0  0  0  0  0  0  0  0  0  0  0
    1.7261   -1.8803    1.0735 H   0  0  0  0  0  0  0  0  0  0  0  0
    3.4693   -2.1762    0.9705 H   0  0  0  0  0  0  0  0  0  0  0  0
    3.8921    2.3490    0.7855 H   0  0  0  0  0  0  0  0  0  0  0  0
   -0.0691   -1.5000    0.0094 H   0  0  0  0  0  0  0  0  0  0  0  0
    2.2370   -3.7084   -0.1613 H   0  0  0  0  0  0  0  0  0  0  0  0
   -4.7976   -1.2144    0.3340 H   0  0  0  0  0  0  0  0  0  0  0  0
   -5.1493    0.4744    0.1763 H   0  0  0  0  0  0  0  0  0  0  0  0
  1 16  1  0  0  0  0
  2 11  1  0  0  0  0
  2 12  1  0  0  0  0
  3  9  1  0  0  0  0
  3 25  1  0  0  0  0
  4 13  1  0  0  0  0
  4 27  1  0  0  0  0
  5 15  2  0  0  0  0
  6 11  1  0  0  0  0
  6 14  1  0  0  0  0
  6 15  1  0  0  0  0
  7 15  1  0  0  0  0
  7 17  2  0  0  0  0
  8 17  1  0  0  0  0
  8 28  1  0  0  0  0
  8 29  1  0  0  0  0
  9 10  1  0  0  0  0
  9 12  1  0  0  0  0
  9 18  1  0  0  0  0
 10 11  1  0  0  0  0
 10 19  1  0  0  0  0
 10 20  1  0  0  0  0
 11 21  1  0  0  0  0
 12 13  1  0  0  0  0
 12 22  1  0  0  0  0
 13 23  1  0  0  0  0
 13 24  1  0  0  0  0
 14 16  2  0  0  0  0
 14 26  1  0  0  0  0
 16 17  1  0  0  0  0
M  END
> <PUBCHEM_COMPOUND_CID>
13927

> <PUBCHEM_CONFORMER_RMSD>
0.6

> <PUBCHEM_CONFORMER_DIVERSEORDER>
1
8
17
6
10
9
16
15
3
5
12
11
7
2
14
4
13

> <PUBCHEM_MMFF94_PARTIAL_CHARGES>
21
1 -0.11
11 0.58
12 0.28
13 0.28
14 -0.04
15 0.84
16 0.12
17 0.49
2 -0.56
25 0.4
26 0.15
27 0.4
28 0.4
29 0.4
3 -0.68
4 -0.68
5 -0.57
6 -0.47
7 -0.66
8 -0.85
9 0.28

> <PUBCHEM_EFFECTIVE_ROTOR_COUNT>
3

> <PUBCHEM_PHARMACOPHORE_FEATURES>
11
1 1 hydrophobe
1 2 acceptor
1 3 acceptor
1 3 donor
1 4 acceptor
1 4 donor
1 5 acceptor
1 7 donor
1 8 donor
5 2 9 10 11 12 rings
6 6 7 14 15 16 17 rings

> <PUBCHEM_HEAVY_ATOM_COUNT>
17

> <PUBCHEM_ATOM_DEF_STEREO_COUNT>
2

> <PUBCHEM_ATOM_UDEF_STEREO_COUNT>
1

> <PUBCHEM_BOND_DEF_STEREO_COUNT>
0

> <PUBCHEM_BOND_UDEF_STEREO_COUNT>
0

> <PUBCHEM_ISOTOPIC_ATOM_COUNT>
0

> <PUBCHEM_COMPONENT_COUNT>
1

> <PUBCHEM_CACTVS_TAUTO_COUNT>
3

> <PUBCHEM_CONFORMER_ID>
0000366700000001

> <PUBCHEM_MMFF94_ENERGY>
47.1953

> <PUBCHEM_FEATURE_SELFOVERLAP>
55.871

> <PUBCHEM_SHAPE_FINGERPRINT>
10366900 7 18114472158117612449
10608611 8 18337960081354063040
10616163 171 18339359643618290890
10618630 7 18343019982330372135
10922523 26 18272652393483106231
10967382 1 18411138021863603567
12382932 28 18339081488619424363
12500047 106 18341337793790434572
12553582 1 17981310206426216115
12932764 1 17603880995734800340
13140716 1 18193843630415378217
13380535 21 18409162225375340056
14178342 30 18338522911064140275
14223421 5 18409451384048673130
14252887 29 18341604898101790331
15219456 202 18335425698472452900
15375358 24 18340775849027964145
15375462 6 18409731759498035772
16945 1 18411980256265579589
17804303 29 18265890457117877558
17834074 16 18409728478000531834
19049666 15 18191030199350729504
19107657 46 18339361851236723295
19784866 170 18337955571749068280
20510252 161 18336266838048353697
20645477 70 18260269676377883567
20871998 184 18262799549617321935
21501502 16 18335703896373240536
23184049 29 18339929323885451538
23402539 116 18129955455448683872
23559900 14 18410579504691023612
2748010 2 18337388249471499383
3312278 4 18338795611327362163
34934 24 18339930320491852999
69090 78 18334582334784339055
7364860 26 18335420201330922046
81228 2 18272646874666830833
8809292 202 18412542124029849042
9709674 26 18409448124000060790

> <PUBCHEM_SHAPE_MULTIPOLES>
317.37
6.54
2.88
0.8
0.97
1.2
0.05
1.04
0.72
0.43
-0.17
-0.32
0.04
0.62

> <PUBCHEM_SHAPE_SELFOVERLAP>
653.048

> <PUBCHEM_SHAPE_VOLUME>
186.4

> <PUBCHEM_COORDINATE_TYPE>
2
5
10

$$$$

