13332
  -OEChem-06261209012D

 60 62  0     0  0  0  0  0  0999 V2000
    3.7320   -0.2500    0.0000 O   0  0  0  0  0  0  0  0  0  0  0  0
    7.1962   -0.2500    0.0000 O   0  0  0  0  0  0  0  0  0  0  0  0
    5.4641    2.7500    0.0000 O   0  0  0  0  0  0  0  0  0  0  0  0
    5.4641   -0.2500    0.0000 N   0  0  0  0  0  0  0  0  0  0  0  0
    4.5981    1.2500    0.0000 N   0  0  0  0  0  0  0  0  0  0  0  0
    5.4641   -1.2500    0.0000 C   0  0  0  0  0  0  0  0  0  0  0  0
    3.7320    1.7500    0.0000 C   0  0  0  0  0  0  0  0  0  0  0  0
    4.5981   -1.7500    0.0000 C   0  0  0  0  0  0  0  0  0  0  0  0
    6.3301   -1.7500    0.0000 C   0  0  0  0  0  0  0  0  0  0  0  0
    3.7320    2.7500    0.0000 C   0  0  0  0  0  0  0  0  0  0  0  0
    2.8660    1.2500    0.0000 C   0  0  0  0  0  0  0  0  0  0  0  0
    6.3301    1.2500    0.0000 C   0  0  0  0  0  0  0  0  0  0  0  0
    4.5981   -2.7500    0.0000 C   0  0  0  0  0  0  0  0  0  0  0  0
    6.3301   -2.7500    0.0000 C   0  0  0  0  0  0  0  0  0  0  0  0
    2.8660    3.2500    0.0000 C   0  0  0  0  0  0  0  0  0  0  0  0
    2.0000    1.7500    0.0000 C   0  0  0  0  0  0  0  0  0  0  0  0
    5.4641   -3.2500    0.0000 C   0  0  0  0  0  0  0  0  0  0  0  0
    2.0000    2.7500    0.0000 C   0  0  0  0  0  0  0  0  0  0  0  0
    4.5981    0.2500    0.0000 C   0  0  0  0  0  0  0  0  0  0  0  0
    6.3301    0.2500    0.0000 C   0  0  0  0  0  0  0  0  0  0  0  0
    5.4641    1.7500    0.0000 C   0  0  0  0  0  0  0  0  0  0  0  0
    7.1962    1.7500    0.0000 C   0  0  0  0  0  0  0  0  0  0  0  0
    8.0622    1.2500    0.0000 C   0  0  0  0  0  0  0  0  0  0  0  0
    8.9282    1.7500    0.0000 C   0  0  0  0  0  0  0  0  0  0  0  0
    9.7942    1.2500    0.0000 C   0  0  0  0  0  0  0  0  0  0  0  0
   10.6603    1.7500    0.0000 C   0  0  0  0  0  0  0  0  0  0  0  0
    3.7320    1.1300    0.0000 H   0  0  0  0  0  0  0  0  0  0  0  0
    6.0010   -0.9400    0.0000 H   0  0  0  0  0  0  0  0  0  0  0  0
    4.3860   -1.1674    0.0000 H   0  0  0  0  0  0  0  0  0  0  0  0
    3.9875   -1.8577    0.0000 H   0  0  0  0  0  0  0  0  0  0  0  0
    6.9407   -1.8577    0.0000 H   0  0  0  0  0  0  0  0  0  0  0  0
    6.5422   -1.1674    0.0000 H   0  0  0  0  0  0  0  0  0  0  0  0
    4.3426    2.6423    0.0000 H   0  0  0  0  0  0  0  0  0  0  0  0
    3.9441    3.3326    0.0000 H   0  0  0  0  0  0  0  0  0  0  0  0
    2.4675    0.7751    0.0000 H   0  0  0  0  0  0  0  0  0  0  0  0
    3.2646    0.7751    0.0000 H   0  0  0  0  0  0  0  0  0  0  0  0
    6.8671    0.9400    0.0000 H   0  0  0  0  0  0  0  0  0  0  0  0
    1.3894    1.8577    0.0000 H   0  0  0  0  0  0  0  0  0  0  0  0
    1.7880    1.1674    0.0000 H   0  0  0  0  0  0  0  0  0  0  0  0
    3.2646    3.7250    0.0000 H   0  0  0  0  0  0  0  0  0  0  0  0
    2.4675    3.7250    0.0000 H   0  0  0  0  0  0  0  0  0  0  0  0
    6.5422   -3.3326    0.0000 H   0  0  0  0  0  0  0  0  0  0  0  0
    6.9407   -2.6423    0.0000 H   0  0  0  0  0  0  0  0  0  0  0  0
    3.9875   -2.6423    0.0000 H   0  0  0  0  0  0  0  0  0  0  0  0
    4.3860   -3.3326    0.0000 H   0  0  0  0  0  0  0  0  0  0  0  0
    1.7880    3.3326    0.0000 H   0  0  0  0  0  0  0  0  0  0  0  0
    1.3894    2.6423    0.0000 H   0  0  0  0  0  0  0  0  0  0  0  0
    5.0656   -3.7250    0.0000 H   0  0  0  0  0  0  0  0  0  0  0  0
    5.8626   -3.7250    0.0000 H   0  0  0  0  0  0  0  0  0  0  0  0
    7.5947    2.2250    0.0000 H   0  0  0  0  0  0  0  0  0  0  0  0
    6.7976    2.2250    0.0000 H   0  0  0  0  0  0  0  0  0  0  0  0
    7.6636    0.7751    0.0000 H   0  0  0  0  0  0  0  0  0  0  0  0
    8.4607    0.7751    0.0000 H   0  0  0  0  0  0  0  0  0  0  0  0
    9.3267    2.2250    0.0000 H   0  0  0  0  0  0  0  0  0  0  0  0
    8.5297    2.2250    0.0000 H   0  0  0  0  0  0  0  0  0  0  0  0
    9.3957    0.7751    0.0000 H   0  0  0  0  0  0  0  0  0  0  0  0
   10.1928    0.7751    0.0000 H   0  0  0  0  0  0  0  0  0  0  0  0
   10.9703    1.2131    0.0000 H   0  0  0  0  0  0  0  0  0  0  0  0
   11.1972    2.0600    0.0000 H   0  0  0  0  0  0  0  0  0  0  0  0
   10.3503    2.2869    0.0000 H   0  0  0  0  0  0  0  0  0  0  0  0
  1 19  2  0  0  0  0
  2 20  2  0  0  0  0
  3 21  2  0  0  0  0
  4  6  1  0  0  0  0
  4 19  1  0  0  0  0
  4 20  1  0  0  0  0
  5  7  1  0  0  0  0
  5 19  1  0  0  0  0
  5 21  1  0  0  0  0
  6  8  1  0  0  0  0
  6  9  1  0  0  0  0
  6 28  1  0  0  0  0
  7 10  1  0  0  0  0
  7 11  1  0  0  0  0
  7 27  1  0  0  0  0
  8 13  1  0  0  0  0
  8 29  1  0  0  0  0
  8 30  1  0  0  0  0
  9 14  1  0  0  0  0
  9 31  1  0  0  0  0
  9 32  1  0  0  0  0
 10 15  1  0  0  0  0
 10 33  1  0  0  0  0
 10 34  1  0  0  0  0
 11 16  1  0  0  0  0
 11 35  1  0  0  0  0
 11 36  1  0  0  0  0
 12 20  1  0  0  0  0
 12 21  1  0  0  0  0
 12 22  1  0  0  0  0
 12 37  1  0  0  0  0
 13 17  1  0  0  0  0
 13 44  1  0  0  0  0
 13 45  1  0  0  0  0
 14 17  1  0  0  0  0
 14 42  1  0  0  0  0
 14 43  1  0  0  0  0
 15 18  1  0  0  0  0
 15 40  1  0  0  0  0
 15 41  1  0  0  0  0
 16 18  1  0  0  0  0
 16 38  1  0  0  0  0
 16 39  1  0  0  0  0
 17 48  1  0  0  0  0
 17 49  1  0  0  0  0
 18 46  1  0  0  0  0
 18 47  1  0  0  0  0
 22 23  1  0  0  0  0
 22 50  1  0  0  0  0
 22 51  1  0  0  0  0
 23 24  1  0  0  0  0
 23 52  1  0  0  0  0
 23 53  1  0  0  0  0
 24 25  1  0  0  0  0
 24 54  1  0  0  0  0
 24 55  1  0  0  0  0
 25 26  1  0  0  0  0
 25 56  1  0  0  0  0
 25 57  1  0  0  0  0
 26 58  1  0  0  0  0
 26 59  1  0  0  0  0
 26 60  1  0  0  0  0
M  END
> <PUBCHEM_COMPOUND_CID>
13332

> <PUBCHEM_COMPOUND_CANONICALIZED>
1

> <PUBCHEM_CACTVS_COMPLEXITY>
481

> <PUBCHEM_CACTVS_HBOND_ACCEPTOR>
3

> <PUBCHEM_CACTVS_HBOND_DONOR>
0

> <PUBCHEM_CACTVS_ROTATABLE_BOND>
6

> <PUBCHEM_CACTVS_SUBSKEYS>
AAADcfB7MAAAAAAAAAAAAAAAAAAAAAAAAAA8YIAAAAAAAAAAAAAAHgAAAAAADSjBgAQDAAMAAAAIAAEQEAAAAAAAAAAAAAEIAACAABoIwAAEAAAIByKAAAEYiECMAAAAAAAAAAAAAAAAAAAAAAAAAAAAAA==

> <PUBCHEM_IUPAC_OPENEYE_NAME>
1,3-dicyclohexyl-5-pentyl-hexahydropyrimidine-2,4,6-trione

> <PUBCHEM_IUPAC_CAS_NAME>
1,3-dicyclohexyl-5-pentyl-1,3-diazinane-2,4,6-trione

> <PUBCHEM_IUPAC_NAME>
1,3-dicyclohexyl-5-pentyl-1,3-diazinane-2,4,6-trione

> <PUBCHEM_IUPAC_SYSTEMATIC_NAME>
1,3-dicyclohexyl-5-pentyl-1,3-diazinane-2,4,6-trione

> <PUBCHEM_IUPAC_TRADITIONAL_NAME>
5-amyl-1,3-dicyclohexyl-barbituric acid

> <PUBCHEM_IUPAC_INCHI>
InChI=1S/C21H34N2O3/c1-2-3-6-15-18-19(24)22(16-11-7-4-8-12-16)21(26)23(20(18)25)17-13-9-5-10-14-17/h16-18H,2-15H2,1H3

> <PUBCHEM_IUPAC_INCHIKEY>
FIGXAXHTWHEEOX-UHFFFAOYSA-N

> <PUBCHEM_XLOGP3_AA>
5.4

> <PUBCHEM_EXACT_MASS>
362.256943

> <PUBCHEM_MOLECULAR_FORMULA>
C21H34N2O3

> <PUBCHEM_MOLECULAR_WEIGHT>
362.50626

> <PUBCHEM_OPENEYE_CAN_SMILES>
CCCCCC1C(=O)N(C(=O)N(C1=O)C2CCCCC2)C3CCCCC3

> <PUBCHEM_OPENEYE_ISO_SMILES>
CCCCCC1C(=O)N(C(=O)N(C1=O)C2CCCCC2)C3CCCCC3

> <PUBCHEM_CACTVS_TPSA>
57.7

> <PUBCHEM_MONOISOTOPIC_WEIGHT>
362.256943

> <PUBCHEM_TOTAL_CHARGE>
0

> <PUBCHEM_HEAVY_ATOM_COUNT>
26

> <PUBCHEM_ATOM_DEF_STEREO_COUNT>
0

> <PUBCHEM_ATOM_UDEF_STEREO_COUNT>
0

> <PUBCHEM_BOND_DEF_STEREO_COUNT>
0

> <PUBCHEM_BOND_UDEF_STEREO_COUNT>
0

> <PUBCHEM_ISOTOPIC_ATOM_COUNT>
0

> <PUBCHEM_COMPONENT_COUNT>
1

> <PUBCHEM_CACTVS_TAUTO_COUNT>
2

> <PUBCHEM_COORDINATE_TYPE>
1
5
255

$$$$

