51090980
  -OEChem-06241223012D

 45 47  0     0  0  0  0  0  0999 V2000
   11.6065    1.0547    0.0000 O   0  0  0  0  0  0  0  0  0  0  0  0
    6.3301   -1.7500    0.0000 O   0  0  0  0  0  0  0  0  0  0  0  0
   11.6065   -0.5547    0.0000 O   0  0  0  0  0  0  0  0  0  0  0  0
    6.3301    2.2500    0.0000 O   0  0  0  0  0  0  0  0  0  0  0  0
    5.4641    0.7500    0.0000 N   0  0  0  0  0  0  0  0  0  0  0  0
    3.7320   -0.2500    0.0000 N   0  0  0  0  0  0  0  0  0  0  0  0
    5.4641   -0.2500    0.0000 C   0  0  0  0  0  0  0  0  0  0  0  0
    4.5981    1.2500    0.0000 C   0  0  0  0  0  0  0  0  0  0  0  0
    6.3301   -0.7500    0.0000 C   0  0  0  0  0  0  0  0  0  0  0  0
    6.3301    1.2500    0.0000 C   0  0  0  0  0  0  0  0  0  0  0  0
    3.7320    0.7500    0.0000 C   0  0  0  0  0  0  0  0  0  0  0  0
    8.9282    0.7500    0.0000 C   0  0  0  0  0  0  0  0  0  0  0  0
   10.6603    0.7500    0.0000 C   0  0  0  0  0  0  0  0  0  0  0  0
   10.6603   -0.2500    0.0000 C   0  0  0  0  0  0  0  0  0  0  0  0
    7.1962    0.7500    0.0000 C   0  0  0  0  0  0  0  0  0  0  0  0
    9.7942    1.2500    0.0000 C   0  0  0  0  0  0  0  0  0  0  0  0
    8.0622    1.2500    0.0000 C   0  0  0  0  0  0  0  0  0  0  0  0
    8.9282   -0.2500    0.0000 C   0  0  0  0  0  0  0  0  0  0  0  0
    9.7942   -0.7500    0.0000 C   0  0  0  0  0  0  0  0  0  0  0  0
    2.8660    1.2500    0.0000 C   0  0  0  0  0  0  0  0  0  0  0  0
   12.1901    0.2500    0.0000 C   0  0  0  0  0  0  0  0  0  0  0  0
    2.0000    0.7500    0.0000 C   0  0  0  0  0  0  0  0  0  0  0  0
    2.8660   -0.7500    0.0000 C   0  0  0  0  0  0  0  0  0  0  0  0
    2.0000   -0.2500    0.0000 C   0  0  0  0  0  0  0  0  0  0  0  0
    5.4641   -2.2500    0.0000 C   0  0  0  0  0  0  0  0  0  0  0  0
    4.8535   -0.1423    0.0000 H   0  0  0  0  0  0  0  0  0  0  0  0
    5.2520   -0.8326    0.0000 H   0  0  0  0  0  0  0  0  0  0  0  0
    4.9966    1.7250    0.0000 H   0  0  0  0  0  0  0  0  0  0  0  0
    4.1996    1.7250    0.0000 H   0  0  0  0  0  0  0  0  0  0  0  0
    6.9407   -0.8577    0.0000 H   0  0  0  0  0  0  0  0  0  0  0  0
    6.5422   -0.1674    0.0000 H   0  0  0  0  0  0  0  0  0  0  0  0
    7.1962    0.1300    0.0000 H   0  0  0  0  0  0  0  0  0  0  0  0
    9.7942    1.8700    0.0000 H   0  0  0  0  0  0  0  0  0  0  0  0
    8.0622    1.8700    0.0000 H   0  0  0  0  0  0  0  0  0  0  0  0
    8.3913   -0.5600    0.0000 H   0  0  0  0  0  0  0  0  0  0  0  0
    9.7942   -1.3700    0.0000 H   0  0  0  0  0  0  0  0  0  0  0  0
    2.8660    1.8700    0.0000 H   0  0  0  0  0  0  0  0  0  0  0  0
   12.6510   -0.1647    0.0000 H   0  0  0  0  0  0  0  0  0  0  0  0
   12.6510    0.6647    0.0000 H   0  0  0  0  0  0  0  0  0  0  0  0
    1.4631    1.0600    0.0000 H   0  0  0  0  0  0  0  0  0  0  0  0
    2.8660   -1.3700    0.0000 H   0  0  0  0  0  0  0  0  0  0  0  0
    1.4631   -0.5600    0.0000 H   0  0  0  0  0  0  0  0  0  0  0  0
    5.1541   -1.7131    0.0000 H   0  0  0  0  0  0  0  0  0  0  0  0
    4.9272   -2.5600    0.0000 H   0  0  0  0  0  0  0  0  0  0  0  0
    5.7741   -2.7869    0.0000 H   0  0  0  0  0  0  0  0  0  0  0  0
  1 13  1  0  0  0  0
  1 21  1  0  0  0  0
  2  9  1  0  0  0  0
  2 25  1  0  0  0  0
  3 14  1  0  0  0  0
  3 21  1  0  0  0  0
  4 10  2  0  0  0  0
  5  7  1  0  0  0  0
  5  8  1  0  0  0  0
  5 10  1  0  0  0  0
  6 11  1  0  0  0  0
  6 23  2  0  0  0  0
  7  9  1  0  0  0  0
  7 26  1  0  0  0  0
  7 27  1  0  0  0  0
  8 11  1  0  0  0  0
  8 28  1  0  0  0  0
  8 29  1  0  0  0  0
  9 30  1  0  0  0  0
  9 31  1  0  0  0  0
 10 15  1  0  0  0  0
 11 20  2  0  0  0  0
 12 16  2  0  0  0  0
 12 17  1  0  0  0  0
 12 18  1  0  0  0  0
 13 14  2  0  0  0  0
 13 16  1  0  0  0  0
 14 19  1  0  0  0  0
 15 17  2  0  0  0  0
 15 32  1  0  0  0  0
 16 33  1  0  0  0  0
 17 34  1  0  0  0  0
 18 19  2  0  0  0  0
 18 35  1  0  0  0  0
 19 36  1  0  0  0  0
 20 22  1  0  0  0  0
 20 37  1  0  0  0  0
 21 38  1  0  0  0  0
 21 39  1  0  0  0  0
 22 24  2  0  0  0  0
 22 40  1  0  0  0  0
 23 24  1  0  0  0  0
 23 41  1  0  0  0  0
 24 42  1  0  0  0  0
 25 43  1  0  0  0  0
 25 44  1  0  0  0  0
 25 45  1  0  0  0  0
M  END
> <PUBCHEM_COMPOUND_CID>
51090980

> <PUBCHEM_COMPOUND_CANONICALIZED>
1

> <PUBCHEM_CACTVS_COMPLEXITY>
457

> <PUBCHEM_CACTVS_HBOND_ACCEPTOR>
5

> <PUBCHEM_CACTVS_HBOND_DONOR>
0

> <PUBCHEM_CACTVS_ROTATABLE_BOND>
7

> <PUBCHEM_CACTVS_SUBSKEYS>
AAADceB7OAAAAAAAAAAAAAAAAAAAASAAAAA8QAAAAAAAAEgBwAAAHgAAAAAADAzhngc+jpMIFACoAzV3VACCiCAxIiAI2CA+7NgfZuLEsZu1MCpkxhHe6YeQwBAOIAABAAAAQABAAAIAAACAAAAAAAAAAA==

> <PUBCHEM_IUPAC_OPENEYE_NAME>
(E)-3-(1,3-benzodioxol-5-yl)-N-(2-methoxyethyl)-N-(2-pyridylmethyl)prop-2-enamide

> <PUBCHEM_IUPAC_CAS_NAME>
(E)-3-(1,3-benzodioxol-5-yl)-N-(2-methoxyethyl)-N-(2-pyridinylmethyl)-2-propenamide

> <PUBCHEM_IUPAC_NAME>
(E)-3-(1,3-benzodioxol-5-yl)-N-(2-methoxyethyl)-N-(pyridin-2-ylmethyl)prop-2-enamide

> <PUBCHEM_IUPAC_SYSTEMATIC_NAME>
(E)-3-(1,3-benzodioxol-5-yl)-N-(2-methoxyethyl)-N-(pyridin-2-ylmethyl)prop-2-enamide

> <PUBCHEM_IUPAC_TRADITIONAL_NAME>
(E)-3-(1,3-benzodioxol-5-yl)-N-(2-methoxyethyl)-N-(2-pyridylmethyl)acrylamide

> <PUBCHEM_IUPAC_INCHI>
InChI=1S/C19H20N2O4/c1-23-11-10-21(13-16-4-2-3-9-20-16)19(22)8-6-15-5-7-17-18(12-15)25-14-24-17/h2-9,12H,10-11,13-14H2,1H3/b8-6+

> <PUBCHEM_IUPAC_INCHIKEY>
AHDCRNKDCTVNAW-SOFGYWHQSA-N

> <PUBCHEM_XLOGP3_AA>
1.9

> <PUBCHEM_EXACT_MASS>
340.142307

> <PUBCHEM_MOLECULAR_FORMULA>
C19H20N2O4

> <PUBCHEM_MOLECULAR_WEIGHT>
340.3731

> <PUBCHEM_OPENEYE_CAN_SMILES>
COCCN(CC1=CC=CC=N1)C(=O)C=CC2=CC3=C(C=C2)OCO3

> <PUBCHEM_OPENEYE_ISO_SMILES>
COCCN(CC1=CC=CC=N1)C(=O)/C=C/C2=CC3=C(C=C2)OCO3

> <PUBCHEM_CACTVS_TPSA>
60.9

> <PUBCHEM_MONOISOTOPIC_WEIGHT>
340.142307

> <PUBCHEM_TOTAL_CHARGE>
0

> <PUBCHEM_HEAVY_ATOM_COUNT>
25

> <PUBCHEM_ATOM_DEF_STEREO_COUNT>
0

> <PUBCHEM_ATOM_UDEF_STEREO_COUNT>
0

> <PUBCHEM_BOND_DEF_STEREO_COUNT>
1

> <PUBCHEM_BOND_UDEF_STEREO_COUNT>
0

> <PUBCHEM_ISOTOPIC_ATOM_COUNT>
0

> <PUBCHEM_COMPONENT_COUNT>
1

> <PUBCHEM_CACTVS_TAUTO_COUNT>
1

> <PUBCHEM_COORDINATE_TYPE>
1
5
255

> <PUBCHEM_BONDANNOTATIONS>
11  20  8
12  16  8
12  18  8
13  14  8
13  16  8
14  19  8
18  19  8
20  22  8
22  24  8
23  24  8
6  11  8
6  23  8

$$$$

