17395574
  -OEChem-06241222513D

 42 45  0     1  0  0  0  0  0999 V2000
    0.3473   -2.7123    0.0577 S   0  0  0  0  0  0  0  0  0  0  0  0
   -1.7062   -1.3472    1.8720 O   0  0  0  0  0  0  0  0  0  0  0  0
    1.6474   -0.3997   -0.6829 N   0  0  0  0  0  0  0  0  0  0  0  0
    2.4810    1.4956   -1.4778 N   0  0  0  0  0  0  0  0  0  0  0  0
    0.4101    0.3326   -2.2588 N   0  0  0  0  0  0  0  0  0  0  0  0
   -2.8232   -0.6938   -0.0802 N   0  0  0  0  0  0  0  0  0  0  0  0
   -0.1801   -0.8499   -1.8201 N   0  0  0  0  0  0  0  0  0  0  0  0
    2.7617   -0.2021    0.0704 C   0  0  0  0  0  0  0  0  0  0  0  0
    1.5256    0.6131   -1.5695 C   0  0  0  0  0  0  0  0  0  0  0  0
    0.5974   -1.2757   -0.8564 C   0  0  0  0  0  0  0  0  0  0  0  0
   -1.4585   -2.8055    0.0030 C   0  0  2  0  0  0  0  0  0  0  0  0
    3.2733    1.0006   -0.4485 C   0  0  0  0  0  0  0  0  0  0  0  0
   -2.0119   -1.5541    0.6925 C   0  0  0  0  0  0  0  0  0  0  0  0
    3.3740   -0.9010    1.1122 C   0  0  0  0  0  0  0  0  0  0  0  0
    4.4540    1.5314    0.1001 C   0  0  0  0  0  0  0  0  0  0  0  0
   -1.8991   -4.0833    0.7158 C   0  0  0  0  0  0  0  0  0  0  0  0
   -2.8059    0.7240    0.2109 C   0  0  0  0  0  0  0  0  0  0  0  0
    4.5471   -0.3512    1.6404 C   0  0  0  0  0  0  0  0  0  0  0  0
    5.0788    0.8414    1.1457 C   0  0  0  0  0  0  0  0  0  0  0  0
   -3.6849   -1.1798   -1.1682 C   0  0  0  0  0  0  0  0  0  0  0  0
   -1.6526    1.3159    0.7260 C   0  0  0  0  0  0  0  0  0  0  0  0
   -3.9423    1.4982   -0.0229 C   0  0  0  0  0  0  0  0  0  0  0  0
   -1.6358    2.6821    1.0071 C   0  0  0  0  0  0  0  0  0  0  0  0
   -3.9254    2.8644    0.2583 C   0  0  0  0  0  0  0  0  0  0  0  0
   -2.7722    3.4563    0.7733 C   0  0  0  0  0  0  0  0  0  0  0  0
   -1.7424   -2.8694   -1.0479 H   0  0  0  0  0  0  0  0  0  0  0  0
   -0.0031    0.8722   -3.0099 H   0  0  0  0  0  0  0  0  0  0  0  0
    2.9693   -1.8269    1.5033 H   0  0  0  0  0  0  0  0  0  0  0  0
    4.8767    2.4577   -0.2759 H   0  0  0  0  0  0  0  0  0  0  0  0
   -1.5937   -4.0967    1.7686 H   0  0  0  0  0  0  0  0  0  0  0  0
   -1.4973   -4.9768    0.2252 H   0  0  0  0  0  0  0  0  0  0  0  0
   -2.9921   -4.1610    0.7007 H   0  0  0  0  0  0  0  0  0  0  0  0
    5.0549   -0.8644    2.4535 H   0  0  0  0  0  0  0  0  0  0  0  0
    5.9922    1.2414    1.5786 H   0  0  0  0  0  0  0  0  0  0  0  0
   -3.3615   -0.7275   -2.1099 H   0  0  0  0  0  0  0  0  0  0  0  0
   -4.7283   -0.9288   -0.9620 H   0  0  0  0  0  0  0  0  0  0  0  0
   -3.6548   -2.2670   -1.2556 H   0  0  0  0  0  0  0  0  0  0  0  0
   -0.7414    0.7541    0.9029 H   0  0  0  0  0  0  0  0  0  0  0  0
   -4.8656    1.0793   -0.4080 H   0  0  0  0  0  0  0  0  0  0  0  0
   -0.7361    3.1440    1.4031 H   0  0  0  0  0  0  0  0  0  0  0  0
   -4.8110    3.4673    0.0794 H   0  0  0  0  0  0  0  0  0  0  0  0
   -2.7588    4.5202    0.9916 H   0  0  0  0  0  0  0  0  0  0  0  0
  1 10  1  0  0  0  0
  1 11  1  0  0  0  0
  2 13  2  0  0  0  0
  3  8  1  0  0  0  0
  3  9  1  0  0  0  0
  3 10  1  0  0  0  0
  4  9  2  0  0  0  0
  4 12  1  0  0  0  0
  5  7  1  0  0  0  0
  5  9  1  0  0  0  0
  5 27  1  0  0  0  0
  6 13  1  0  0  0  0
  6 17  1  0  0  0  0
  6 20  1  0  0  0  0
  7 10  2  0  0  0  0
  8 12  1  0  0  0  0
  8 14  2  0  0  0  0
 11 13  1  0  0  0  0
 11 16  1  0  0  0  0
 11 26  1  0  0  0  0
 12 15  2  0  0  0  0
 14 18  1  0  0  0  0
 14 28  1  0  0  0  0
 15 19  1  0  0  0  0
 15 29  1  0  0  0  0
 16 30  1  0  0  0  0
 16 31  1  0  0  0  0
 16 32  1  0  0  0  0
 17 21  2  0  0  0  0
 17 22  1  0  0  0  0
 18 19  2  0  0  0  0
 18 33  1  0  0  0  0
 19 34  1  0  0  0  0
 20 35  1  0  0  0  0
 20 36  1  0  0  0  0
 20 37  1  0  0  0  0
 21 23  1  0  0  0  0
 21 38  1  0  0  0  0
 22 24  2  0  0  0  0
 22 39  1  0  0  0  0
 23 25  2  0  0  0  0
 23 40  1  0  0  0  0
 24 25  1  0  0  0  0
 24 41  1  0  0  0  0
 25 42  1  0  0  0  0
M  END
> <PUBCHEM_COMPOUND_CID>
17395574

> <PUBCHEM_CONFORMER_RMSD>
0.8

> <PUBCHEM_CONFORMER_DIVERSEORDER>
7
107
106
25
153
54
43
55
95
20
176
158
74
163
102
17
21
115
36
67
12
165
162
40
150
144
86
79
123
24
161
141
167
27
47
87
16
88
30
112
159
99
113
37
15
117
33
6
172
104
80
66
63
81
29
140
127
9
125
11
170
28
168
45
154
84
22
175
91
50
134
145
78
92
105
14
122
13
97
157
56
4
73
155
174
57
89
71
121
114
126
160
169
69
18
1
8
131
10
120
70
72
23
48
100
2
118
5
119
77
62
103
116
19
75
94
178
76
151
96
109
147
3
32
64
93
38
166
85
111
49
60
129
53
26
46
34
136
108
42
61
41
44
51
52
164
83
59
137
110
35
58
65
68
171
128
39
133
31
132
82
98
124
148
177
142
156
146
138
149
143
139
152
130
135
173
90
101

> <PUBCHEM_MMFF94_PARTIAL_CHARGES>
34
1 -0.37
10 0.6
11 0.29
12 0.23
13 0.57
14 -0.15
15 -0.15
17 0.12
18 -0.15
19 -0.15
2 -0.57
20 0.3
21 -0.15
22 -0.15
23 -0.15
24 -0.15
25 -0.15
27 0.4
28 0.15
29 0.15
3 0.29
33 0.15
34 0.15
38 0.15
39 0.15
4 -0.57
40 0.15
41 0.15
42 0.15
5 -0.44
6 -0.48
7 -0.49
8 -0.15
9 0.27

> <PUBCHEM_EFFECTIVE_ROTOR_COUNT>
5

> <PUBCHEM_PHARMACOPHORE_FEATURES>
8
1 16 hydrophobe
1 2 acceptor
1 5 donor
4 3 4 5 9 cation
5 3 4 8 9 12 rings
5 3 5 7 9 10 rings
6 17 21 22 23 24 25 rings
6 8 12 14 15 18 19 rings

> <PUBCHEM_HEAVY_ATOM_COUNT>
25

> <PUBCHEM_ATOM_DEF_STEREO_COUNT>
0

> <PUBCHEM_ATOM_UDEF_STEREO_COUNT>
1

> <PUBCHEM_BOND_DEF_STEREO_COUNT>
0

> <PUBCHEM_BOND_UDEF_STEREO_COUNT>
0

> <PUBCHEM_ISOTOPIC_ATOM_COUNT>
0

> <PUBCHEM_COMPONENT_COUNT>
1

> <PUBCHEM_CACTVS_TAUTO_COUNT>
2

> <PUBCHEM_CONFORMER_ID>
01096F7600000007

> <PUBCHEM_MMFF94_ENERGY>
95.2267

> <PUBCHEM_FEATURE_SELFOVERLAP>
41.036

> <PUBCHEM_SHAPE_FINGERPRINT>
11370993 70 18267025135842927681
11421498 54 17753369501873950535
11552529 35 18198352766762125314
11582403 64 17605013557151555062
11640471 11 18201429307295927569
11725454 13 17458358445823700058
12107183 9 18197509634806878666
12596599 1 17561086891122833042
12633257 1 17774727566677045816
12655364 131 17474434560163700378
12788726 201 18055337055495416555
13009979 54 17985541153008007330
13140716 1 18049996693512614715
13583140 156 17677057833081792066
13965767 371 17842275053832776549
13994607 96 18187370878614333036
14251764 3 17241058659996361928
14739800 52 18119821218617470856
14955137 171 16458512333342390459
15420108 30 17979090601581912819
17780758 139 18269856241652411506
17818456 19 18412830174859907258
192875 21 18341338803355630173
20567600 299 16608854085562717429
20642791 105 18201164248380781943
20715895 44 18055078919993705525
21304303 282 18265637492703725415
21427221 339 18130509729626176778
21591340 35 17249194165379203352
21756936 100 18115320986307282824
22749437 52 18338792433078333041
23419403 2 17331699950765416167
23557571 272 18042106713719124671
23559900 14 18042962271610884302
238 59 15647342986816686480
3117164 225 18339371859327928218
3493558 16 16956769143930559290
4340502 62 18265891540051269505
469060 322 17242184448297443367
474 4 18125154090060009777
6328613 192 18340757248395017460
7064713 232 18340778129898555416
7097593 13 18202286901028195330
9849439 229 18267009734438915829
9981440 41 18410857693880798307

> <PUBCHEM_SHAPE_MULTIPOLES>
487.56
8.59
3.98
1.62
6.57
1.31
0.43
-5.05
-2.51
-4.76
-1.23
0.7
0.06
-0.7

> <PUBCHEM_SHAPE_SELFOVERLAP>
1061.222

> <PUBCHEM_SHAPE_VOLUME>
269.4

> <PUBCHEM_COORDINATE_TYPE>
2
5
10

$$$$

