14317
  -OEChem-06241222433D

 14 14  0     0  0  0  0  0  0999 V2000
    2.5380    0.4888    1.4654 Cl  0  0  0  0  0  0  0  0  0  0  0  0
    2.5132   -1.9895   -0.0056 Cl  0  0  0  0  0  0  0  0  0  0  0  0
    2.5317    0.5020   -1.4612 Cl  0  0  0  0  0  0  0  0  0  0  0  0
    0.5953    2.5045    0.0012 Cl  0  0  0  0  0  0  0  0  0  0  0  0
   -4.0918   -0.1664    0.0013 Cl  0  0  0  0  0  0  0  0  0  0  0  0
   -0.3027   -1.3950   -0.0008 N   0  0  0  0  0  0  0  0  0  0  0  0
    0.3513   -0.2117   -0.0003 C   0  0  0  0  0  0  0  0  0  0  0  0
    1.8422   -0.3117   -0.0005 C   0  0  0  0  0  0  0  0  0  0  0  0
   -0.2784    1.0225    0.0005 C   0  0  0  0  0  0  0  0  0  0  0  0
   -1.6687    1.0438    0.0006 C   0  0  0  0  0  0  0  0  0  0  0  0
   -2.3769   -0.1528    0.0001 C   0  0  0  0  0  0  0  0  0  0  0  0
   -1.6533   -1.3345   -0.0007 C   0  0  0  0  0  0  0  0  0  0  0  0
   -2.2019    1.9919    0.0014 H   0  0  0  0  0  0  0  0  0  0  0  0
   -2.1471   -2.3016   -0.0009 H   0  0  0  0  0  0  0  0  0  0  0  0
  1  8  1  0  0  0  0
  2  8  1  0  0  0  0
  3  8  1  0  0  0  0
  4  9  1  0  0  0  0
  5 11  1  0  0  0  0
  6  7  1  0  0  0  0
  6 12  2  0  0  0  0
  7  8  1  0  0  0  0
  7  9  2  0  0  0  0
  9 10  1  0  0  0  0
 10 11  2  0  0  0  0
 10 13  1  0  0  0  0
 11 12  1  0  0  0  0
 12 14  1  0  0  0  0
M  END
> <PUBCHEM_COMPOUND_CID>
14317

> <PUBCHEM_CONFORMER_RMSD>
0.4

> <PUBCHEM_CONFORMER_DIVERSEORDER>
1

> <PUBCHEM_MMFF94_PARTIAL_CHARGES>
14
1 -0.29
10 -0.15
11 0.18
12 0.16
13 0.15
14 0.15
2 -0.29
3 -0.29
4 -0.18
5 -0.18
6 -0.62
7 0.17
8 1.01
9 0.18

> <PUBCHEM_EFFECTIVE_ROTOR_COUNT>
1

> <PUBCHEM_PHARMACOPHORE_FEATURES>
2
1 6 acceptor
6 6 7 9 10 11 12 rings

> <PUBCHEM_HEAVY_ATOM_COUNT>
12

> <PUBCHEM_ATOM_DEF_STEREO_COUNT>
0

> <PUBCHEM_ATOM_UDEF_STEREO_COUNT>
0

> <PUBCHEM_BOND_DEF_STEREO_COUNT>
0

> <PUBCHEM_BOND_UDEF_STEREO_COUNT>
0

> <PUBCHEM_ISOTOPIC_ATOM_COUNT>
0

> <PUBCHEM_COMPONENT_COUNT>
1

> <PUBCHEM_CACTVS_TAUTO_COUNT>
1

> <PUBCHEM_CONFORMER_ID>
000037ED00000001

> <PUBCHEM_MMFF94_ENERGY>
29.561

> <PUBCHEM_FEATURE_SELFOVERLAP>
10.148

> <PUBCHEM_SHAPE_FINGERPRINT>
10130415 120 18273498991677232979
12032990 46 18339357569454918611
12423570 1 12502649996625552310
12524768 44 18260553337434762798
12932764 1 18040154024060188815
13380536 305 18338790096626517645
14993402 34 18409720755865449237
15310529 11 16774082847370107965
16945 1 18410575041950834757
18186145 218 17968092036666303953
193761 8 17906170646803485639
20559304 39 18342457032318948064
20645476 183 17774148003326341519
20711985 344 17753862190135323316
2334 1 18338516460102057773
23463225 33 18340484590052761431
23552423 10 18195524783883709885
23559900 14 17468203684110388518
241688 4 18194399115768094304
2748010 2 18265903638367039293
369184 2 17967824863471798563
5084963 1 18198339748346550498
53812653 166 18262239919599721944
53812654 25 18408891741040676326
7364860 26 18409728439788846868

> <PUBCHEM_SHAPE_MULTIPOLES>
251.32
5.08
2.04
1.01
3.54
0.42
0
-1.12
-0.01
-0.84
0
-0.97
0.19
0

> <PUBCHEM_SHAPE_SELFOVERLAP>
476.44

> <PUBCHEM_SHAPE_VOLUME>
154.1

> <PUBCHEM_COORDINATE_TYPE>
2
5
10

$$$$

