5155
  -OEChem-06261200323D

 28 29  0     1  0  0  0  0  0999 V2000
    1.8165   -0.2575   -0.6246 O   0  0  0  0  0  0  0  0  0  0  0  0
    4.3009    0.4613   -1.7417 O   0  0  0  0  0  0  0  0  0  0  0  0
   -1.0836   -2.7580   -0.1647 O   0  0  0  0  0  0  0  0  0  0  0  0
   -4.2319    0.5817   -0.4520 O   0  0  0  0  0  0  0  0  0  0  0  0
   -0.3965   -0.5510    0.1507 N   0  0  0  0  0  0  0  0  0  0  0  0
   -2.6433   -1.0825   -0.3059 N   0  0  0  0  0  0  0  0  0  0  0  0
    1.0030   -0.8929    0.3773 C   0  0  2  0  0  0  0  0  0  0  0  0
    2.7147    0.6628    0.0332 C   0  0  1  0  0  0  0  0  0  0  0  0
    1.4616   -0.3594    1.6808 C   0  0  0  0  0  0  0  0  0  0  0  0
    2.4417    0.5200    1.4878 C   0  0  0  0  0  0  0  0  0  0  0  0
    4.1431    0.3049   -0.3414 C   0  0  0  0  0  0  0  0  0  0  0  0
   -0.7485    0.7822    0.2008 C   0  0  0  0  0  0  0  0  0  0  0  0
   -1.3406   -1.5536   -0.1083 C   0  0  0  0  0  0  0  0  0  0  0  0
   -1.9959    1.2297    0.0112 C   0  0  0  0  0  0  0  0  0  0  0  0
   -3.0673    0.2372   -0.2696 C   0  0  0  0  0  0  0  0  0  0  0  0
   -2.3736    2.6751    0.0663 C   0  0  0  0  0  0  0  0  0  0  0  0
    1.1635   -1.9736    0.3145 H   0  0  0  0  0  0  0  0  0  0  0  0
    2.4643    1.6703   -0.3170 H   0  0  0  0  0  0  0  0  0  0  0  0
    1.0699   -0.6469    2.6452 H   0  0  0  0  0  0  0  0  0  0  0  0
    2.9528    1.0597    2.2708 H   0  0  0  0  0  0  0  0  0  0  0  0
    4.3675   -0.7407   -0.1053 H   0  0  0  0  0  0  0  0  0  0  0  0
    4.8717    0.9431    0.1689 H   0  0  0  0  0  0  0  0  0  0  0  0
    0.0393    1.5006    0.3948 H   0  0  0  0  0  0  0  0  0  0  0  0
   -3.3539   -1.7836   -0.4959 H   0  0  0  0  0  0  0  0  0  0  0  0
   -2.7980    2.9961   -0.8905 H   0  0  0  0  0  0  0  0  0  0  0  0
   -1.5114    3.3159    0.2793 H   0  0  0  0  0  0  0  0  0  0  0  0
   -3.1170    2.8464    0.8517 H   0  0  0  0  0  0  0  0  0  0  0  0
    4.1370    1.3959   -1.9543 H   0  0  0  0  0  0  0  0  0  0  0  0
  1  7  1  0  0  0  0
  1  8  1  0  0  0  0
  2 11  1  0  0  0  0
  2 28  1  0  0  0  0
  3 13  2  0  0  0  0
  4 15  2  0  0  0  0
  5  7  1  0  0  0  0
  5 12  1  0  0  0  0
  5 13  1  0  0  0  0
  6 13  1  0  0  0  0
  6 15  1  0  0  0  0
  6 24  1  0  0  0  0
  7  9  1  0  0  0  0
  7 17  1  0  0  0  0
  8 10  1  0  0  0  0
  8 11  1  0  0  0  0
  8 18  1  0  0  0  0
  9 10  2  0  0  0  0
  9 19  1  0  0  0  0
 10 20  1  0  0  0  0
 11 21  1  0  0  0  0
 11 22  1  0  0  0  0
 12 14  2  0  0  0  0
 12 23  1  0  0  0  0
 14 15  1  0  0  0  0
 14 16  1  0  0  0  0
 16 25  1  0  0  0  0
 16 26  1  0  0  0  0
 16 27  1  0  0  0  0
M  END
> <PUBCHEM_COMPOUND_CID>
5155

> <PUBCHEM_CONFORMER_RMSD>
0.6

> <PUBCHEM_CONFORMER_DIVERSEORDER>
1
17
25
27
7
12
4
23
18
9
21
22
3
5
2
13
26
15
20
8
24
14
28
11
16
10
6
19

> <PUBCHEM_MMFF94_PARTIAL_CHARGES>
21
1 -0.56
10 -0.29
11 0.28
12 -0.04
13 0.69
14 -0.12
15 0.62
16 0.14
19 0.15
2 -0.68
20 0.15
23 0.15
24 0.37
28 0.4
3 -0.57
4 -0.57
5 -0.47
6 -0.49
7 0.72
8 0.42
9 -0.29

> <PUBCHEM_EFFECTIVE_ROTOR_COUNT>
2.6

> <PUBCHEM_PHARMACOPHORE_FEATURES>
8
1 1 acceptor
1 2 acceptor
1 2 donor
1 3 acceptor
1 4 acceptor
1 6 donor
5 1 7 8 9 10 rings
6 5 6 12 13 14 15 rings

> <PUBCHEM_HEAVY_ATOM_COUNT>
16

> <PUBCHEM_ATOM_DEF_STEREO_COUNT>
0

> <PUBCHEM_ATOM_UDEF_STEREO_COUNT>
2

> <PUBCHEM_BOND_DEF_STEREO_COUNT>
0

> <PUBCHEM_BOND_UDEF_STEREO_COUNT>
0

> <PUBCHEM_ISOTOPIC_ATOM_COUNT>
0

> <PUBCHEM_COMPONENT_COUNT>
1

> <PUBCHEM_CACTVS_TAUTO_COUNT>
3

> <PUBCHEM_CONFORMER_ID>
0000142300000001

> <PUBCHEM_MMFF94_ENERGY>
32.2267

> <PUBCHEM_FEATURE_SELFOVERLAP>
40.598

> <PUBCHEM_SHAPE_FINGERPRINT>
10498660 4 18411426106953465861
12173636 292 18410301336464617301
12186901 62 18410002217683133270
12236239 1 17846786208592080672
12491281 212 18272364291498503840
13538477 17 18201451241535698355
13764800 53 18342737403747630851
14993402 34 18342462538651780965
15279307 12 18131079237710244850
15342168 16 15984809399218302454
15669948 3 18341060618091973811
15775835 57 17917996087406911108
16945 1 18337686229954462795
18186145 218 17603874433103802721
19784866 240 14129050422414992364
204376 136 15554155987860170944
20510252 161 18260553342046481985
20645476 183 18060140916549992935
20645477 56 18408324359045099920
20671657 1 18269563882806598850
20871999 31 18337674088145564903
21524375 3 18271530912944643387
22802520 49 18040711442264485930
23048698 100 17203617015968016137
23366157 5 17840305858867820915
23402539 116 18335151876979543660
23493267 7 18273211976135039235
23526113 38 17531516689729805046
23557571 272 18044946657922651832
23559900 14 18187646882693719128
2748010 2 18193280925770516461
458136 41 18119235406167244363
474 4 17131542835389045972
53812653 8 18341335569292611921
6049 1 17823135631779223608
7364860 26 17756437310918833867
77492 1 17775016673510045394
81228 2 17973460801463162539

> <PUBCHEM_SHAPE_MULTIPOLES>
295.83
6.82
2
1.14
2.51
0.22
-0.16
-2.25
2.25
-1.97
0.05
1.39
-0.09
-0.27

> <PUBCHEM_SHAPE_SELFOVERLAP>
624.766

> <PUBCHEM_SHAPE_VOLUME>
165.2

> <PUBCHEM_COORDINATE_TYPE>
2
5
10

$$$$

