13747
  -OEChem-06241222403D

 31 32  0     0  0  0  0  0  0999 V2000
    3.6597   -1.8917    1.4152 Cl  0  0  0  0  0  0  0  0  0  0  0  0
   -3.6493   -1.9101   -1.4045 Cl  0  0  0  0  0  0  0  0  0  0  0  0
    1.0957    2.1880   -0.4264 N   0  0  0  0  0  0  0  0  0  0  0  0
   -1.1065    2.1933    0.4136 N   0  0  0  0  0  0  0  0  0  0  0  0
    2.2985    0.2408    0.3965 C   0  0  0  0  0  0  0  0  0  0  0  0
   -2.2992    0.2352   -0.3980 C   0  0  0  0  0  0  0  0  0  0  0  0
    1.6083    0.8992   -0.6215 C   0  0  0  0  0  0  0  0  0  0  0  0
   -1.6159    0.8942    0.6174 C   0  0  0  0  0  0  0  0  0  0  0  0
    2.8022   -1.0419    0.1810 C   0  0  0  0  0  0  0  0  0  0  0  0
   -2.7961   -1.0489   -0.1752 C   0  0  0  0  0  0  0  0  0  0  0  0
    1.4221    0.2748   -1.8547 C   0  0  0  0  0  0  0  0  0  0  0  0
   -1.4229    0.2865    1.8529 C   0  0  0  0  0  0  0  0  0  0  0  0
    2.4899    0.9249    1.7146 C   0  0  0  0  0  0  0  0  0  0  0  0
   -2.4943    0.9108   -1.7200 C   0  0  0  0  0  0  0  0  0  0  0  0
    2.6158   -1.6663   -1.0523 C   0  0  0  0  0  0  0  0  0  0  0  0
   -2.6065   -1.6652    1.0616 C   0  0  0  0  0  0  0  0  0  0  0  0
    1.9258   -1.0080   -2.0702 C   0  0  0  0  0  0  0  0  0  0  0  0
   -1.9198   -0.9975    2.0757 C   0  0  0  0  0  0  0  0  0  0  0  0
   -0.0071    2.1818   -0.0057 C   0  0  0  0  0  0  0  0  0  0  0  0
    0.8886    0.7783   -2.6570 H   0  0  0  0  0  0  0  0  0  0  0  0
   -0.8920    0.7987    2.6508 H   0  0  0  0  0  0  0  0  0  0  0  0
    1.8274    0.4844    2.4668 H   0  0  0  0  0  0  0  0  0  0  0  0
    3.5271    0.8327    2.0550 H   0  0  0  0  0  0  0  0  0  0  0  0
    2.2962    2.0011    1.6845 H   0  0  0  0  0  0  0  0  0  0  0  0
   -1.8289    0.4703   -2.4695 H   0  0  0  0  0  0  0  0  0  0  0  0
   -3.5308    0.8106   -2.0602 H   0  0  0  0  0  0  0  0  0  0  0  0
   -2.3072    1.9882   -1.6954 H   0  0  0  0  0  0  0  0  0  0  0  0
    3.0015   -2.6658   -1.2363 H   0  0  0  0  0  0  0  0  0  0  0  0
   -2.9869   -2.6658    1.2514 H   0  0  0  0  0  0  0  0  0  0  0  0
    1.7806   -1.4940   -3.0306 H   0  0  0  0  0  0  0  0  0  0  0  0
   -1.7721   -1.4772    3.0388 H   0  0  0  0  0  0  0  0  0  0  0  0
  1  9  1  0  0  0  0
  2 10  1  0  0  0  0
  3  7  1  0  0  0  0
  3 19  2  0  0  0  0
  4  8  1  0  0  0  0
  4 19  2  0  0  0  0
  5  7  2  0  0  0  0
  5  9  1  0  0  0  0
  5 13  1  0  0  0  0
  6  8  2  0  0  0  0
  6 10  1  0  0  0  0
  6 14  1  0  0  0  0
  7 11  1  0  0  0  0
  8 12  1  0  0  0  0
  9 15  2  0  0  0  0
 10 16  2  0  0  0  0
 11 17  2  0  0  0  0
 11 20  1  0  0  0  0
 12 18  2  0  0  0  0
 12 21  1  0  0  0  0
 13 22  1  0  0  0  0
 13 23  1  0  0  0  0
 13 24  1  0  0  0  0
 14 25  1  0  0  0  0
 14 26  1  0  0  0  0
 14 27  1  0  0  0  0
 15 17  1  0  0  0  0
 15 28  1  0  0  0  0
 16 18  1  0  0  0  0
 16 29  1  0  0  0  0
 17 30  1  0  0  0  0
 18 31  1  0  0  0  0
M  END
> <PUBCHEM_COMPOUND_CID>
13747

> <PUBCHEM_CONFORMER_RMSD>
0.6

> <PUBCHEM_CONFORMER_DIVERSEORDER>
1
5
6
7
2
4
3

> <PUBCHEM_MMFF94_PARTIAL_CHARGES>
25
1 -0.18
10 0.18
11 -0.15
12 -0.15
13 0.14
14 0.14
15 -0.15
16 -0.15
17 -0.15
18 -0.15
19 0.6
2 -0.18
20 0.15
21 0.15
28 0.15
29 0.15
3 -0.48
30 0.15
31 0.15
4 -0.48
5 -0.14
6 -0.14
7 0.18
8 0.18
9 0.18

> <PUBCHEM_EFFECTIVE_ROTOR_COUNT>
2

> <PUBCHEM_PHARMACOPHORE_FEATURES>
5
1 3 acceptor
1 4 acceptor
3 3 4 19 cation
6 5 7 9 11 15 17 rings
6 6 8 10 12 16 18 rings

> <PUBCHEM_HEAVY_ATOM_COUNT>
19

> <PUBCHEM_ATOM_DEF_STEREO_COUNT>
0

> <PUBCHEM_ATOM_UDEF_STEREO_COUNT>
0

> <PUBCHEM_BOND_DEF_STEREO_COUNT>
0

> <PUBCHEM_BOND_UDEF_STEREO_COUNT>
0

> <PUBCHEM_ISOTOPIC_ATOM_COUNT>
0

> <PUBCHEM_COMPONENT_COUNT>
1

> <PUBCHEM_CACTVS_TAUTO_COUNT>
1

> <PUBCHEM_CONFORMER_ID>
000035B300000001

> <PUBCHEM_MMFF94_ENERGY>
54.9254

> <PUBCHEM_FEATURE_SELFOVERLAP>
25.411

> <PUBCHEM_SHAPE_FINGERPRINT>
11471102 22 17459485505619547824
11582403 64 16248937432080267908
12363563 72 18411703187893704974
12633257 1 17895760732799777202
13083527 12 18189354384753060760
13464514 151 11959732659962986926
14787075 74 15579523752157974401
15664445 248 16196181584900741863
17492 54 13316100923672501763
17834072 14 18338817661594514116
20626108 58 17752508476884597711
21069387 34 18271260377276197559
21475661 188 8139045197889428763
21731516 1 18266717182308129123
232386 152 18129090307364580714
23419403 2 16335607454447400056
23559900 14 18129679594358460168
23728640 28 17910107250317406274
2637199 183 12678912297605074199
350125 39 9079115531481341261
3797600 57 15358830972294831906
5161694 15 15841836659110185963
5262128 65 18341885273303252184
549884 4 13039193588819647740
6442390 28 9871453370670047997
81228 2 18192990645589525528
8988823 20 16443351915010586003

> <PUBCHEM_SHAPE_MULTIPOLES>
384.79
5.96
2.38
2.18
0.03
0.36
0.01
-3.81
0.02
-0.01
-0.01
0
-0.55
-0.03

> <PUBCHEM_SHAPE_SELFOVERLAP>
815.461

> <PUBCHEM_SHAPE_VOLUME>
214.7

> <PUBCHEM_COORDINATE_TYPE>
2
5
10

$$$$

