17395610
  -OEChem-06241222513D

 50 53  0     0  0  0  0  0  0999 V2000
   -0.0305    0.5549   -1.7324 S   0  0  0  0  0  0  0  0  0  0  0  0
    2.6162    1.7929    2.0175 O   0  0  0  0  0  0  0  0  0  0  0  0
    3.9503    3.2230    0.6094 O   0  0  0  0  0  0  0  0  0  0  0  0
    1.4508   -3.4614    0.1133 O   0  0  0  0  0  0  0  0  0  0  0  0
   -3.7251    1.4699   -0.7328 O   0  0  0  0  0  0  0  0  0  0  0  0
   -2.2520    2.6185   -2.0633 O   0  0  0  0  0  0  0  0  0  0  0  0
    1.5555   -1.4781   -1.1522 N   0  0  0  0  0  0  0  0  0  0  0  0
   -0.6954   -1.4389   -0.2272 N   0  0  0  0  0  0  0  0  0  0  0  0
    4.4587   -2.3163   -0.0067 C   0  0  0  0  0  0  0  0  0  0  0  0
    4.3485   -0.8346    0.1310 C   0  0  0  0  0  0  0  0  0  0  0  0
    3.4786   -2.9223   -1.0229 C   0  0  0  0  0  0  0  0  0  0  0  0
    3.4743   -0.2888    1.0740 C   0  0  0  0  0  0  0  0  0  0  0  0
    3.4069    1.0864    1.1642 C   0  0  0  0  0  0  0  0  0  0  0  0
    4.1687    1.9031    0.3602 C   0  0  0  0  0  0  0  0  0  0  0  0
    5.1267   -0.0001   -0.6906 C   0  0  0  0  0  0  0  0  0  0  0  0
    5.0396    1.3897   -0.5786 C   0  0  0  0  0  0  0  0  0  0  0  0
    2.0335   -2.6686   -0.6206 C   0  0  0  0  0  0  0  0  0  0  0  0
    2.9663    3.1457    1.6608 C   0  0  0  0  0  0  0  0  0  0  0  0
   -1.7795   -0.5857   -0.2936 C   0  0  0  0  0  0  0  0  0  0  0  0
    0.2835   -0.9388   -0.9480 C   0  0  0  0  0  0  0  0  0  0  0  0
   -1.6091    0.5467   -1.0622 C   0  0  0  0  0  0  0  0  0  0  0  0
   -2.9988   -0.8847    0.4040 C   0  0  0  0  0  0  0  0  0  0  0  0
   -3.9988   -1.6259   -0.2256 C   0  0  0  0  0  0  0  0  0  0  0  0
   -3.1832   -0.4340    1.7112 C   0  0  0  0  0  0  0  0  0  0  0  0
   -2.4979    1.6253   -1.3482 C   0  0  0  0  0  0  0  0  0  0  0  0
   -5.1832   -1.9161    0.4517 C   0  0  0  0  0  0  0  0  0  0  0  0
   -4.3674   -0.7244    2.3885 C   0  0  0  0  0  0  0  0  0  0  0  0
   -5.3675   -1.4654    1.7588 C   0  0  0  0  0  0  0  0  0  0  0  0
   -4.7038    2.4932   -0.9476 C   0  0  0  0  0  0  0  0  0  0  0  0
   -5.9659    2.1346   -0.1924 C   0  0  0  0  0  0  0  0  0  0  0  0
    5.4828   -2.5853   -0.2958 H   0  0  0  0  0  0  0  0  0  0  0  0
    4.3010   -2.7839    0.9744 H   0  0  0  0  0  0  0  0  0  0  0  0
    3.6290   -4.0064   -1.0838 H   0  0  0  0  0  0  0  0  0  0  0  0
    3.6629   -2.5186   -2.0257 H   0  0  0  0  0  0  0  0  0  0  0  0
    2.8693   -0.9160    1.7201 H   0  0  0  0  0  0  0  0  0  0  0  0
    5.8038   -0.4297   -1.4250 H   0  0  0  0  0  0  0  0  0  0  0  0
    5.6370    2.0365   -1.2110 H   0  0  0  0  0  0  0  0  0  0  0  0
    2.0600    3.6672    1.3319 H   0  0  0  0  0  0  0  0  0  0  0  0
    3.3611    3.6521    2.5491 H   0  0  0  0  0  0  0  0  0  0  0  0
    2.1606   -0.9215   -1.7502 H   0  0  0  0  0  0  0  0  0  0  0  0
   -3.8710   -1.9843   -1.2443 H   0  0  0  0  0  0  0  0  0  0  0  0
   -2.4136    0.1453    2.2161 H   0  0  0  0  0  0  0  0  0  0  0  0
   -5.9623   -2.4922   -0.0388 H   0  0  0  0  0  0  0  0  0  0  0  0
   -4.5115   -0.3727    3.4059 H   0  0  0  0  0  0  0  0  0  0  0  0
   -6.2899   -1.6906    2.2858 H   0  0  0  0  0  0  0  0  0  0  0  0
   -4.9203    2.5691   -2.0187 H   0  0  0  0  0  0  0  0  0  0  0  0
   -4.3133    3.4505   -0.5856 H   0  0  0  0  0  0  0  0  0  0  0  0
   -6.3565    1.1695   -0.5311 H   0  0  0  0  0  0  0  0  0  0  0  0
   -5.7596    2.0365    0.8783 H   0  0  0  0  0  0  0  0  0  0  0  0
   -6.7367    2.8970   -0.3350 H   0  0  0  0  0  0  0  0  0  0  0  0
  1 20  1  0  0  0  0
  1 21  1  0  0  0  0
  2 13  1  0  0  0  0
  2 18  1  0  0  0  0
  3 14  1  0  0  0  0
  3 18  1  0  0  0  0
  4 17  2  0  0  0  0
  5 25  1  0  0  0  0
  5 29  1  0  0  0  0
  6 25  2  0  0  0  0
  7 17  1  0  0  0  0
  7 20  1  0  0  0  0
  7 40  1  0  0  0  0
  8 19  1  0  0  0  0
  8 20  2  0  0  0  0
  9 10  1  0  0  0  0
  9 11  1  0  0  0  0
  9 31  1  0  0  0  0
  9 32  1  0  0  0  0
 10 12  2  0  0  0  0
 10 15  1  0  0  0  0
 11 17  1  0  0  0  0
 11 33  1  0  0  0  0
 11 34  1  0  0  0  0
 12 13  1  0  0  0  0
 12 35  1  0  0  0  0
 13 14  2  0  0  0  0
 14 16  1  0  0  0  0
 15 16  2  0  0  0  0
 15 36  1  0  0  0  0
 16 37  1  0  0  0  0
 18 38  1  0  0  0  0
 18 39  1  0  0  0  0
 19 21  2  0  0  0  0
 19 22  1  0  0  0  0
 21 25  1  0  0  0  0
 22 23  2  0  0  0  0
 22 24  1  0  0  0  0
 23 26  1  0  0  0  0
 23 41  1  0  0  0  0
 24 27  2  0  0  0  0
 24 42  1  0  0  0  0
 26 28  2  0  0  0  0
 26 43  1  0  0  0  0
 27 28  1  0  0  0  0
 27 44  1  0  0  0  0
 28 45  1  0  0  0  0
 29 30  1  0  0  0  0
 29 46  1  0  0  0  0
 29 47  1  0  0  0  0
 30 48  1  0  0  0  0
 30 49  1  0  0  0  0
 30 50  1  0  0  0  0
M  END
> <PUBCHEM_COMPOUND_CID>
17395610

> <PUBCHEM_CONFORMER_RMSD>
1

> <PUBCHEM_CONFORMER_DIVERSEORDER>
1
30
12
47
26
4
42
53
45
34
6
36
21
19
38
3
37
15
33
24
13
52
10
14
48
41
31
5
8
39
43
22
29
7
17
35
27
20
44
25
11
50
49
46
9
2
16
55
54
32
23
40
18
51
28

> <PUBCHEM_MMFF94_PARTIAL_CHARGES>
38
1 -0.08
10 -0.14
11 0.06
12 -0.15
13 0.08
14 0.08
15 -0.15
16 -0.15
17 0.57
18 0.56
19 0.17
2 -0.36
20 0.44
21 -0.05
22 0.05
23 -0.15
24 -0.15
25 0.81
26 -0.15
27 -0.15
28 -0.15
29 0.28
3 -0.36
35 0.15
36 0.15
37 0.15
4 -0.57
40 0.37
41 0.15
42 0.15
43 0.15
44 0.15
45 0.15
5 -0.43
6 -0.57
7 -0.49
8 -0.57
9 0.14

> <PUBCHEM_EFFECTIVE_ROTOR_COUNT>
9.6

> <PUBCHEM_PHARMACOPHORE_FEATURES>
9
1 2 acceptor
1 3 acceptor
1 4 acceptor
1 6 acceptor
1 7 donor
5 1 8 19 20 21 rings
5 2 3 13 14 18 rings
6 10 12 13 14 15 16 rings
6 22 23 24 26 27 28 rings

> <PUBCHEM_HEAVY_ATOM_COUNT>
30

> <PUBCHEM_ATOM_DEF_STEREO_COUNT>
0

> <PUBCHEM_ATOM_UDEF_STEREO_COUNT>
0

> <PUBCHEM_BOND_DEF_STEREO_COUNT>
0

> <PUBCHEM_BOND_UDEF_STEREO_COUNT>
0

> <PUBCHEM_ISOTOPIC_ATOM_COUNT>
0

> <PUBCHEM_COMPONENT_COUNT>
1

> <PUBCHEM_CACTVS_TAUTO_COUNT>
4

> <PUBCHEM_CONFORMER_ID>
01096F9A00000001

> <PUBCHEM_MMFF94_ENERGY>
67.4758

> <PUBCHEM_FEATURE_SELFOVERLAP>
45.824

> <PUBCHEM_SHAPE_FINGERPRINT>
10165383 225 18266167337228479452
10319926 262 18059306464802883170
11045977 3 18340487888714057239
11545043 162 18059292170930318422
11578080 2 18336540599643362033
11595378 159 16630250319502803228
12422481 6 18342448232590653429
12925494 130 18336550525002072793
13583140 156 18335423516681976935
13782708 43 18202279243234285082
14508693 111 15983681235483939082
14840074 17 18269271262221242423
15081414 286 18040996263785643610
151778 21 18335703785242284424
17349148 13 15697997440137248011
20465049 17 18115290182738266246
21033648 29 18410864239178751048
21792961 116 18122336042333825782
22122407 14 17822569525262879345
23559900 14 18130217276249009647
3459 110 18409721885536929985
4015057 19 18192169293618600021
5081480 168 16662305507743438636
5104073 3 18201439220069923514
5252454 2 18043536002079989264
552612 73 18411418445095949505
6004065 56 18056196865927012403
6086070 43 18041286546679858630

> <PUBCHEM_SHAPE_MULTIPOLES>
581.93
13.67
3.84
1.87
4.74
0.5
-0.55
2.1
-3.06
-1.88
0.12
1.12
0.67
3.71

> <PUBCHEM_SHAPE_SELFOVERLAP>
1256.38

> <PUBCHEM_SHAPE_VOLUME>
322.3

> <PUBCHEM_COORDINATE_TYPE>
2
5
10

$$$$

