10454
  -OEChem-06261204343D

 19 18  0     0  0  0  0  0  0999 V2000
    2.4381   -0.0750    0.0550 S   0  0  0  0  0  0  0  0  0  0  0  0
   -4.8550   -0.4975   -0.1836 S   0  0  0  0  0  0  0  0  0  0  0  0
    3.0320    1.0448   -0.6554 O   0  0  0  0  0  0  0  0  0  0  0  0
    2.5333   -0.1669    1.5021 O   0  0  0  0  0  0  0  0  0  0  0  0
   -2.1454   -0.2266    0.3100 N   0  0  0  0  0  0  0  0  0  0  0  0
    0.7336   -0.1723   -0.3935 C   0  0  0  0  0  0  0  0  0  0  0  0
   -0.0483    1.0187    0.1436 C   0  0  0  0  0  0  0  0  0  0  0  0
   -1.5197    0.9729   -0.2487 C   0  0  0  0  0  0  0  0  0  0  0  0
    3.1272   -1.5672   -0.6238 C   0  0  0  0  0  0  0  0  0  0  0  0
   -3.2956   -0.3311    0.0942 C   0  0  0  0  0  0  0  0  0  0  0  0
    0.6823   -0.2101   -1.4862 H   0  0  0  0  0  0  0  0  0  0  0  0
    0.3498   -1.1132    0.0127 H   0  0  0  0  0  0  0  0  0  0  0  0
    0.0357    1.0518    1.2370 H   0  0  0  0  0  0  0  0  0  0  0  0
    0.3903    1.9511   -0.2318 H   0  0  0  0  0  0  0  0  0  0  0  0
   -1.6057    0.9815   -1.3436 H   0  0  0  0  0  0  0  0  0  0  0  0
   -2.0118    1.8779    0.1326 H   0  0  0  0  0  0  0  0  0  0  0  0
    2.9803   -1.5625   -1.7053 H   0  0  0  0  0  0  0  0  0  0  0  0
    4.1937   -1.5861   -0.3905 H   0  0  0  0  0  0  0  0  0  0  0  0
    2.6288   -2.4246   -0.1679 H   0  0  0  0  0  0  0  0  0  0  0  0
  1  3  2  0  0  0  0
  1  4  2  0  0  0  0
  1  6  1  0  0  0  0
  1  9  1  0  0  0  0
  2 10  2  0  0  0  0
  5  8  1  0  0  0  0
  5 10  2  0  0  0  0
  6  7  1  0  0  0  0
  6 11  1  0  0  0  0
  6 12  1  0  0  0  0
  7  8  1  0  0  0  0
  7 13  1  0  0  0  0
  7 14  1  0  0  0  0
  8 15  1  0  0  0  0
  8 16  1  0  0  0  0
  9 17  1  0  0  0  0
  9 18  1  0  0  0  0
  9 19  1  0  0  0  0
M  END
> <PUBCHEM_COMPOUND_CID>
10454

> <PUBCHEM_CONFORMER_RMSD>
0.6

> <PUBCHEM_CONFORMER_DIVERSEORDER>
1
60
20
62
58
53
19
6
39
42
7
54
17
37
44
48
31
16
56
36
51
13
3
49
50
59
27
11
43
18
45
22
9
57
61
24
55
52
28
10
38
32
40
46
47
2
15
41
29
25
14
12
33
30
26
23
34
21
8
35
5
4

> <PUBCHEM_MMFF94_PARTIAL_CHARGES>
9
1 1.09
10 0.57
2 -0.27
3 -0.65
4 -0.65
5 -0.55
6 0.11
8 0.25
9 0.11

> <PUBCHEM_EFFECTIVE_ROTOR_COUNT>
4

> <PUBCHEM_PHARMACOPHORE_FEATURES>
4
1 2 acceptor
1 3 acceptor
1 4 acceptor
1 5 acceptor

> <PUBCHEM_HEAVY_ATOM_COUNT>
10

> <PUBCHEM_ATOM_DEF_STEREO_COUNT>
0

> <PUBCHEM_ATOM_UDEF_STEREO_COUNT>
0

> <PUBCHEM_BOND_DEF_STEREO_COUNT>
0

> <PUBCHEM_BOND_UDEF_STEREO_COUNT>
0

> <PUBCHEM_ISOTOPIC_ATOM_COUNT>
0

> <PUBCHEM_COMPONENT_COUNT>
1

> <PUBCHEM_CACTVS_TAUTO_COUNT>
1

> <PUBCHEM_CONFORMER_ID>
000028D600000001

> <PUBCHEM_MMFF94_ENERGY>
6.2101

> <PUBCHEM_FEATURE_SELFOVERLAP>
20.319

> <PUBCHEM_SHAPE_FINGERPRINT>
11062470 55 17632859702906049581
12932764 1 17095250236613977844
14251717 144 18408042914075352407
14252887 29 18409726244559366499
14325111 11 18410571811950909397
177051 138 18335701675743260270
18186145 218 17346596387400349685
20211469 26 18186800309683885591
20279233 1 16558746793425850177
20281407 28 18333730204571828889
20281475 54 18334293150335862415
20645477 70 18343021103375261527
21119208 17 15913610575174751907
22485316 2 18260832583718929919
23402539 116 12463294652867395595
23402655 69 13183022917121459727
4047638 21 10303812090065340879
581208 293 18407762529645658535
8030462 33 16486967453329019228

> <PUBCHEM_SHAPE_MULTIPOLES>
196.77
8.24
1.21
0.88
7.23
0.15
0.21
2.6
-0.26
-0.73
-0.2
-0.58
-0.01
0.11

> <PUBCHEM_SHAPE_SELFOVERLAP>
346.605

> <PUBCHEM_SHAPE_VOLUME>
129.4

> <PUBCHEM_COORDINATE_TYPE>
2
5
10

$$$$

