10530
  -OEChem-06261204393D

 32 32  0     1  0  0  0  0  0999 V2000
    0.6739    3.8636    0.5827 S   0  0  0  0  0  0  0  0  0  0  0  0
   -1.1405   -0.5059    1.8367 O   0  0  0  0  0  0  0  0  0  0  0  0
    1.6291   -0.2482   -1.9282 O   0  0  0  0  0  0  0  0  0  0  0  0
   -0.2411    1.4777    1.1169 N   0  0  0  0  0  0  0  0  0  0  0  0
    1.0271    1.6807   -0.8738 N   0  0  0  0  0  0  0  0  0  0  0  0
   -0.2437   -0.4110   -0.4192 C   0  0  1  0  0  0  0  0  0  0  0  0
    0.1093   -1.8997   -0.2808 C   0  0  0  0  0  0  0  0  0  0  0  0
    1.4254   -2.1386    0.4681 C   0  0  0  0  0  0  0  0  0  0  0  0
   -1.4954   -0.2598   -1.2970 C   0  0  0  0  0  0  0  0  0  0  0  0
   -0.5725    0.1469    0.9631 C   0  0  0  0  0  0  0  0  0  0  0  0
    0.9020    0.3309   -1.1224 C   0  0  0  0  0  0  0  0  0  0  0  0
    2.6157   -1.4490   -0.2001 C   0  0  0  0  0  0  0  0  0  0  0  0
    1.2852   -1.6458    1.9104 C   0  0  0  0  0  0  0  0  0  0  0  0
   -2.6812   -0.8940   -0.6472 C   0  0  0  0  0  0  0  0  0  0  0  0
    0.4918    2.1755    0.1905 C   0  0  0  0  0  0  0  0  0  0  0  0
   -3.7851   -0.2233   -0.2998 C   0  0  0  0  0  0  0  0  0  0  0  0
   -0.6741   -2.4637    0.2397 H   0  0  0  0  0  0  0  0  0  0  0  0
    0.1963   -2.3568   -1.2763 H   0  0  0  0  0  0  0  0  0  0  0  0
    1.6130   -3.2197    0.4883 H   0  0  0  0  0  0  0  0  0  0  0  0
   -1.3362   -0.7259   -2.2780 H   0  0  0  0  0  0  0  0  0  0  0  0
   -1.6944    0.8014   -1.4990 H   0  0  0  0  0  0  0  0  0  0  0  0
    2.7511   -0.3852    0.0071 H   0  0  0  0  0  0  0  0  0  0  0  0
    2.7983   -1.7988   -1.2205 H   0  0  0  0  0  0  0  0  0  0  0  0
    3.5028   -1.8563    0.3151 H   0  0  0  0  0  0  0  0  0  0  0  0
    1.3894   -0.5679    2.0420 H   0  0  0  0  0  0  0  0  0  0  0  0
    2.1342   -2.0537    2.4780 H   0  0  0  0  0  0  0  0  0  0  0  0
    0.4070   -2.0596    2.4122 H   0  0  0  0  0  0  0  0  0  0  0  0
   -0.5289    1.9432    1.9717 H   0  0  0  0  0  0  0  0  0  0  0  0
   -2.6821   -1.9708   -0.5043 H   0  0  0  0  0  0  0  0  0  0  0  0
   -4.6287   -0.7440    0.1401 H   0  0  0  0  0  0  0  0  0  0  0  0
   -3.8674    0.8485   -0.4428 H   0  0  0  0  0  0  0  0  0  0  0  0
   -0.0655    3.8791    1.7005 H   0  0  0  0  0  0  0  0  0  0  0  0
  1 15  1  0  0  0  0
  1 32  1  0  0  0  0
  2 10  2  0  0  0  0
  3 11  2  0  0  0  0
  4 10  1  0  0  0  0
  4 15  1  0  0  0  0
  4 28  1  0  0  0  0
  5 11  1  0  0  0  0
  5 15  2  0  0  0  0
  6  7  1  0  0  0  0
  6  9  1  0  0  0  0
  6 10  1  0  0  0  0
  6 11  1  0  0  0  0
  7  8  1  0  0  0  0
  7 17  1  0  0  0  0
  7 18  1  0  0  0  0
  8 12  1  0  0  0  0
  8 13  1  0  0  0  0
  8 19  1  0  0  0  0
  9 14  1  0  0  0  0
  9 20  1  0  0  0  0
  9 21  1  0  0  0  0
 12 22  1  0  0  0  0
 12 23  1  0  0  0  0
 12 24  1  0  0  0  0
 13 25  1  0  0  0  0
 13 26  1  0  0  0  0
 13 27  1  0  0  0  0
 14 16  2  0  0  0  0
 14 29  1  0  0  0  0
 16 30  1  0  0  0  0
 16 31  1  0  0  0  0
M  END
> <PUBCHEM_COMPOUND_CID>
10530

> <PUBCHEM_CONFORMER_RMSD>
0.6

> <PUBCHEM_CONFORMER_DIVERSEORDER>
1
2
3

> <PUBCHEM_MMFF94_PARTIAL_CHARGES>
17
1 -0.32
10 0.57
11 0.72
14 -0.29
15 0.65
16 -0.3
2 -0.57
28 0.37
29 0.15
3 -0.57
30 0.15
31 0.15
32 0.18
4 -0.49
5 -0.66
6 0.12
9 0.14

> <PUBCHEM_EFFECTIVE_ROTOR_COUNT>
4.4

> <PUBCHEM_PHARMACOPHORE_FEATURES>
7
1 16 hydrophobe
1 2 acceptor
1 3 acceptor
1 4 donor
1 5 donor
3 8 12 13 hydrophobe
6 4 5 6 10 11 15 rings

> <PUBCHEM_HEAVY_ATOM_COUNT>
16

> <PUBCHEM_ATOM_DEF_STEREO_COUNT>
0

> <PUBCHEM_ATOM_UDEF_STEREO_COUNT>
1

> <PUBCHEM_BOND_DEF_STEREO_COUNT>
0

> <PUBCHEM_BOND_UDEF_STEREO_COUNT>
0

> <PUBCHEM_ISOTOPIC_ATOM_COUNT>
0

> <PUBCHEM_COMPONENT_COUNT>
1

> <PUBCHEM_CACTVS_TAUTO_COUNT>
5

> <PUBCHEM_CONFORMER_ID>
0000292200000001

> <PUBCHEM_MMFF94_ENERGY>
68.6711

> <PUBCHEM_FEATURE_SELFOVERLAP>
35.557

> <PUBCHEM_SHAPE_FINGERPRINT>
12423570 1 5607097882461186182
12725867 57 18117019816964232293
13024252 1 13752701035401096154
13132413 78 18261970625160935413
13380536 261 18196352909312863380
141345 1 8455215164659680603
14617773 55 17554615375823956042
14817 1 15388276078243510144
15852999 172 17468474815782022332
15906896 17 17476337870261438569
16945 1 17681804372542733701
19010151 120 18334858346188128734
19765921 60 17609496021477022481
21524375 3 17540551123388078549
22112679 90 18116976978760046181
22344851 341 17903357004927159391
23388829 49 18196922486522076534
23419403 2 17339616713341200788
25 1 17682947809102031453
305870 269 18051432685721186597
4175511 376 18264488382102368839
430814 3 17475832777991939385
68419 9 17836344318308855350
7364860 26 18338248054811120759
81228 2 17546190930579596493

> <PUBCHEM_SHAPE_MULTIPOLES>
311.42
3.29
3.25
1.62
4.67
1.82
0.2
-0.03
0.65
-2.73
-0.28
-0.21
-0.45
0.55

> <PUBCHEM_SHAPE_SELFOVERLAP>
635.757

> <PUBCHEM_SHAPE_VOLUME>
182.4

> <PUBCHEM_COORDINATE_TYPE>
2
5
10

$$$$

