13677
  -OEChem-06241222393D

 20 20  0     0  0  0  0  0  0999 V2000
   -0.3414    3.1094    0.3593 Cl  0  0  0  0  0  0  0  0  0  0  0  0
   -0.3309   -3.1107   -0.3585 Cl  0  0  0  0  0  0  0  0  0  0  0  0
   -3.1008    1.5609    0.1796 Cl  0  0  0  0  0  0  0  0  0  0  0  0
   -3.0960   -1.5700   -0.1815 Cl  0  0  0  0  0  0  0  0  0  0  0  0
    2.0132    1.3546    0.1540 O   0  0  0  0  0  0  0  0  0  0  0  0
    2.0172   -1.3485   -0.1550 O   0  0  0  0  0  0  0  0  0  0  0  0
    0.8206    0.6941    0.0808 C   0  0  0  0  0  0  0  0  0  0  0  0
    0.8228   -0.6917   -0.0782 C   0  0  0  0  0  0  0  0  0  0  0  0
   -0.3885    1.3852    0.1599 C   0  0  0  0  0  0  0  0  0  0  0  0
   -0.3842   -1.3863   -0.1584 C   0  0  0  0  0  0  0  0  0  0  0  0
   -1.5954    0.6904    0.0800 C   0  0  0  0  0  0  0  0  0  0  0  0
   -1.5933   -0.6952   -0.0792 C   0  0  0  0  0  0  0  0  0  0  0  0
    2.5738    1.8117   -1.0737 C   0  0  0  0  0  0  0  0  0  0  0  0
    2.5829   -1.8039    1.0709 C   0  0  0  0  0  0  0  0  0  0  0  0
    2.8866    0.9614   -1.6876 H   0  0  0  0  0  0  0  0  0  0  0  0
    3.4552    2.4162   -0.8428 H   0  0  0  0  0  0  0  0  0  0  0  0
    1.8634    2.4300   -1.6312 H   0  0  0  0  0  0  0  0  0  0  0  0
    2.8949   -0.9526    1.6840 H   0  0  0  0  0  0  0  0  0  0  0  0
    3.4655   -2.4058    0.8375 H   0  0  0  0  0  0  0  0  0  0  0  0
    1.8761   -2.4244    1.6305 H   0  0  0  0  0  0  0  0  0  0  0  0
  1  9  1  0  0  0  0
  2 10  1  0  0  0  0
  3 11  1  0  0  0  0
  4 12  1  0  0  0  0
  5  7  1  0  0  0  0
  5 13  1  0  0  0  0
  6  8  1  0  0  0  0
  6 14  1  0  0  0  0
  7  8  2  0  0  0  0
  7  9  1  0  0  0  0
  8 10  1  0  0  0  0
  9 11  2  0  0  0  0
 10 12  2  0  0  0  0
 11 12  1  0  0  0  0
 13 15  1  0  0  0  0
 13 16  1  0  0  0  0
 13 17  1  0  0  0  0
 14 18  1  0  0  0  0
 14 19  1  0  0  0  0
 14 20  1  0  0  0  0
M  END
> <PUBCHEM_COMPOUND_CID>
13677

> <PUBCHEM_CONFORMER_RMSD>
0.6

> <PUBCHEM_CONFORMER_DIVERSEORDER>
2
1

> <PUBCHEM_MMFF94_PARTIAL_CHARGES>
14
1 -0.18
10 0.18
11 0.18
12 0.18
13 0.28
14 0.28
2 -0.18
3 -0.18
4 -0.18
5 -0.36
6 -0.36
7 0.08
8 0.08
9 0.18

> <PUBCHEM_EFFECTIVE_ROTOR_COUNT>
2

> <PUBCHEM_PHARMACOPHORE_FEATURES>
3
1 5 acceptor
1 6 acceptor
6 7 8 9 10 11 12 rings

> <PUBCHEM_HEAVY_ATOM_COUNT>
14

> <PUBCHEM_ATOM_DEF_STEREO_COUNT>
0

> <PUBCHEM_ATOM_UDEF_STEREO_COUNT>
0

> <PUBCHEM_BOND_DEF_STEREO_COUNT>
0

> <PUBCHEM_BOND_UDEF_STEREO_COUNT>
0

> <PUBCHEM_ISOTOPIC_ATOM_COUNT>
0

> <PUBCHEM_COMPONENT_COUNT>
1

> <PUBCHEM_CACTVS_TAUTO_COUNT>
1

> <PUBCHEM_CONFORMER_ID>
0000356D00000002

> <PUBCHEM_MMFF94_ENERGY>
57.1705

> <PUBCHEM_FEATURE_SELFOVERLAP>
15.229

> <PUBCHEM_SHAPE_FINGERPRINT>
10967382 1 18121499317503743945
11206711 2 18265613170013894573
12423570 1 13801938450398643558
13140716 1 18409730707283529771
16945 1 18121213453017676807
193761 8 18410575084826596227
20511035 2 18335432286788559806
21501502 16 18411418410498295015
2334 1 18409730629958287239
23388829 49 18121793982082343049
23419403 2 15882177706547317178
23463225 33 18412265068558232913
23526114 1 18410291410905790397
23552423 10 18343301461438487318
23559900 14 18116145766051910494
241688 4 18409733997175730923
2748010 2 18409449189314947773
5255222 1 18122915217849907141
53812653 8 18267297630042794933
90316 7 17194615512504385730

> <PUBCHEM_SHAPE_MULTIPOLES>
283.85
4.01
3.61
0.82
0.72
0
0
0
0
-0.06
0
-0.4
0
-0.9

> <PUBCHEM_SHAPE_SELFOVERLAP>
554.883

> <PUBCHEM_SHAPE_VOLUME>
175.7

> <PUBCHEM_COORDINATE_TYPE>
2
5
10

$$$$

