10079
  -OEChem-06261204182D

 68 69  0     1  0  0  0  0  0999 V2000
    5.8194    0.0000    0.0000 Cl  0  0  0  0  0  0  0  0  0  0  0  0
    2.1200    6.1200    0.0000 O   0  0  0  0  0  0  0  0  0  0  0  0
    4.6200    6.9860    0.0000 O   0  0  0  0  0  0  0  0  0  0  0  0
    5.0597    5.7780    0.0000 N   0  0  0  0  0  0  0  0  0  0  0  0
    7.5315    6.7215    0.0000 N   0  0  3  0  0  0  0  0  0  0  0  0
    3.1200    6.1200    0.0000 C   0  0  0  0  0  0  0  0  0  0  0  0
    5.8257    6.4208    0.0000 C   0  0  0  0  0  0  0  0  0  0  0  0
    4.1200    6.1200    0.0000 C   0  0  0  0  0  0  0  0  0  0  0  0
    6.7654    6.0787    0.0000 C   0  0  0  0  0  0  0  0  0  0  0  0
    3.1200    5.1200    0.0000 C   0  0  0  0  0  0  0  0  0  0  0  0
    3.1200    7.1200    0.0000 C   0  0  0  0  0  0  0  0  0  0  0  0
    8.4712    6.3795    0.0000 C   0  0  0  0  0  0  0  0  0  0  0  0
    9.2372    7.0223    0.0000 C   0  0  0  0  0  0  0  0  0  0  0  0
    5.2334    4.7932    0.0000 C   0  0  0  0  0  0  0  0  0  0  0  0
    2.2540    4.6200    0.0000 C   0  0  0  0  0  0  0  0  0  0  0  0
    3.9860    7.6200    0.0000 C   0  0  0  0  0  0  0  0  0  0  0  0
    3.9860    4.6200    0.0000 C   0  0  0  0  0  0  0  0  0  0  0  0
    2.2540    7.6200    0.0000 C   0  0  0  0  0  0  0  0  0  0  0  0
    7.3578    7.7063    0.0000 C   0  0  0  0  0  0  0  0  0  0  0  0
    1.6200    6.9860    0.0000 C   0  0  0  0  0  0  0  0  0  0  0  0
   10.1769    6.6803    0.0000 C   0  0  0  0  0  0  0  0  0  0  0  0
    3.9860    8.6200    0.0000 C   0  0  0  0  0  0  0  0  0  0  0  0
    2.2540    3.6200    0.0000 C   0  0  0  0  0  0  0  0  0  0  0  0
    2.2540    8.6200    0.0000 C   0  0  0  0  0  0  0  0  0  0  0  0
    3.9860    3.6200    0.0000 C   0  0  0  0  0  0  0  0  0  0  0  0
    0.6200    6.9860    0.0000 C   0  0  0  0  0  0  0  0  0  0  0  0
    3.1200    3.1200    0.0000 C   0  0  0  0  0  0  0  0  0  0  0  0
    3.1200    9.1200    0.0000 C   0  0  0  0  0  0  0  0  0  0  0  0
   10.3506    5.6955    0.0000 C   0  0  0  0  0  0  0  0  0  0  0  0
   10.9429    7.3231    0.0000 C   0  0  0  0  0  0  0  0  0  0  0  0
   11.2902    5.3534    0.0000 C   0  0  0  0  0  0  0  0  0  0  0  0
   11.8826    6.9810    0.0000 C   0  0  0  0  0  0  0  0  0  0  0  0
   12.0563    5.9962    0.0000 C   0  0  0  0  0  0  0  0  0  0  0  0
    6.1357    6.9577    0.0000 H   0  0  0  0  0  0  0  0  0  0  0  0
    5.3508    6.8193    0.0000 H   0  0  0  0  0  0  0  0  0  0  0  0
    6.4554    5.5418    0.0000 H   0  0  0  0  0  0  0  0  0  0  0  0
    7.2404    5.6802    0.0000 H   0  0  0  0  0  0  0  0  0  0  0  0
    8.1612    5.8426    0.0000 H   0  0  0  0  0  0  0  0  0  0  0  0
    8.9461    5.9810    0.0000 H   0  0  0  0  0  0  0  0  0  0  0  0
    9.5472    7.5592    0.0000 H   0  0  0  0  0  0  0  0  0  0  0  0
    8.7623    7.4208    0.0000 H   0  0  0  0  0  0  0  0  0  0  0  0
    4.6228    4.6855    0.0000 H   0  0  0  0  0  0  0  0  0  0  0  0
    5.3411    4.1827    0.0000 H   0  0  0  0  0  0  0  0  0  0  0  0
    5.8440    4.9010    0.0000 H   0  0  0  0  0  0  0  0  0  0  0  0
    1.7170    4.9300    0.0000 H   0  0  0  0  0  0  0  0  0  0  0  0
    4.5230    7.3100    0.0000 H   0  0  0  0  0  0  0  0  0  0  0  0
    4.5230    4.9300    0.0000 H   0  0  0  0  0  0  0  0  0  0  0  0
    1.7170    7.3100    0.0000 H   0  0  0  0  0  0  0  0  0  0  0  0
    7.9684    7.8140    0.0000 H   0  0  0  0  0  0  0  0  0  0  0  0
    7.2502    8.3169    0.0000 H   0  0  0  0  0  0  0  0  0  0  0  0
    6.7472    7.5987    0.0000 H   0  0  0  0  0  0  0  0  0  0  0  0
    2.2026    7.1981    0.0000 H   0  0  0  0  0  0  0  0  0  0  0  0
    1.5123    7.5966    0.0000 H   0  0  0  0  0  0  0  0  0  0  0  0
    4.5230    8.9300    0.0000 H   0  0  0  0  0  0  0  0  0  0  0  0
    1.7170    3.3100    0.0000 H   0  0  0  0  0  0  0  0  0  0  0  0
    1.7170    8.9300    0.0000 H   0  0  0  0  0  0  0  0  0  0  0  0
    4.5230    3.3100    0.0000 H   0  0  0  0  0  0  0  0  0  0  0  0
    0.6200    7.6060    0.0000 H   0  0  0  0  0  0  0  0  0  0  0  0
    0.0000    6.9860    0.0000 H   0  0  0  0  0  0  0  0  0  0  0  0
    0.6200    6.3660    0.0000 H   0  0  0  0  0  0  0  0  0  0  0  0
    3.1200    2.5000    0.0000 H   0  0  0  0  0  0  0  0  0  0  0  0
    3.1200    9.7400    0.0000 H   0  0  0  0  0  0  0  0  0  0  0  0
    9.8756    5.2969    0.0000 H   0  0  0  0  0  0  0  0  0  0  0  0
   10.8353    7.9336    0.0000 H   0  0  0  0  0  0  0  0  0  0  0  0
   11.3979    4.7429    0.0000 H   0  0  0  0  0  0  0  0  0  0  0  0
   12.3576    7.3796    0.0000 H   0  0  0  0  0  0  0  0  0  0  0  0
   12.6389    5.7842    0.0000 H   0  0  0  0  0  0  0  0  0  0  0  0
    6.8194    0.0000    0.0000 H   0  0  0  0  0  0  0  0  0  0  0  0
  1 68  1  0  0  0  0
  2  6  1  0  0  0  0
  2 20  1  0  0  0  0
  3  8  2  0  0  0  0
  4  7  1  0  0  0  0
  4  8  1  0  0  0  0
  4 14  1  0  0  0  0
  5  9  1  0  0  0  0
  5 12  1  0  0  0  0
  5 19  1  0  0  0  0
  6  8  1  0  0  0  0
  6 10  1  0  0  0  0
  6 11  1  0  0  0  0
  7  9  1  0  0  0  0
  7 34  1  0  0  0  0
  7 35  1  0  0  0  0
  9 36  1  0  0  0  0
  9 37  1  0  0  0  0
 10 15  2  0  0  0  0
 10 17  1  0  0  0  0
 11 16  2  0  0  0  0
 11 18  1  0  0  0  0
 12 13  1  0  0  0  0
 12 38  1  0  0  0  0
 12 39  1  0  0  0  0
 13 21  1  0  0  0  0
 13 40  1  0  0  0  0
 13 41  1  0  0  0  0
 14 42  1  0  0  0  0
 14 43  1  0  0  0  0
 14 44  1  0  0  0  0
 15 23  1  0  0  0  0
 15 45  1  0  0  0  0
 16 22  1  0  0  0  0
 16 46  1  0  0  0  0
 17 25  2  0  0  0  0
 17 47  1  0  0  0  0
 18 24  2  0  0  0  0
 18 48  1  0  0  0  0
 19 49  1  0  0  0  0
 19 50  1  0  0  0  0
 19 51  1  0  0  0  0
 20 26  1  0  0  0  0
 20 52  1  0  0  0  0
 20 53  1  0  0  0  0
 21 29  2  0  0  0  0
 21 30  1  0  0  0  0
 22 28  2  0  0  0  0
 22 54  1  0  0  0  0
 23 27  2  0  0  0  0
 23 55  1  0  0  0  0
 24 28  1  0  0  0  0
 24 56  1  0  0  0  0
 25 27  1  0  0  0  0
 25 57  1  0  0  0  0
 26 58  1  0  0  0  0
 26 59  1  0  0  0  0
 26 60  1  0  0  0  0
 27 61  1  0  0  0  0
 28 62  1  0  0  0  0
 29 31  1  0  0  0  0
 29 63  1  0  0  0  0
 30 32  2  0  0  0  0
 30 64  1  0  0  0  0
 31 33  2  0  0  0  0
 31 65  1  0  0  0  0
 32 33  1  0  0  0  0
 32 66  1  0  0  0  0
 33 67  1  0  0  0  0
M  END
> <PUBCHEM_COMPOUND_CID>
10079

> <PUBCHEM_COMPOUND_CANONICALIZED>
1

> <PUBCHEM_CACTVS_COMPLEXITY>
516

> <PUBCHEM_CACTVS_HBOND_ACCEPTOR>
3

> <PUBCHEM_CACTVS_HBOND_DONOR>
1

> <PUBCHEM_CACTVS_ROTATABLE_BOND>
11

> <PUBCHEM_CACTVS_SUBSKEYS>
AAADcfB7MAAEAAAAAAAAAAAAAAAAAAAAAAAwYMAAAAAAAAABUAAAHgAAAAAADEThmAYyAIMABACIAiFSEAICAAAgAAAIiAFICIgKZjKAtR2XMAAkxgGYqAeYyOCOgAAAAAAAAAAAAAAAAAAAAAAAAAAAAA==

> <PUBCHEM_IUPAC_OPENEYE_NAME>
2-ethoxy-N-methyl-N-[2-[methyl(2-phenylethyl)amino]ethyl]-2,2-diphenyl-acetamide hydrochloride

> <PUBCHEM_IUPAC_CAS_NAME>
2-ethoxy-N-methyl-N-[2-[methyl(2-phenylethyl)amino]ethyl]-2,2-diphenylacetamide hydrochloride

> <PUBCHEM_IUPAC_NAME>
2-ethoxy-N-methyl-N-[2-[methyl(2-phenylethyl)amino]ethyl]-2,2-diphenylacetamide hydrochloride

> <PUBCHEM_IUPAC_SYSTEMATIC_NAME>
2-ethoxy-N-methyl-N-[2-[methyl(2-phenylethyl)amino]ethyl]-2,2-diphenyl-ethanamide hydrochloride

> <PUBCHEM_IUPAC_TRADITIONAL_NAME>
2-ethoxy-N-methyl-N-[2-[methyl(phenethyl)amino]ethyl]-2,2-diphenyl-acetamide hydrochloride

> <PUBCHEM_IUPAC_INCHI>
InChI=1S/C28H34N2O2.ClH/c1-4-32-28(25-16-10-6-11-17-25,26-18-12-7-13-19-26)27(31)30(3)23-22-29(2)21-20-24-14-8-5-9-15-24;/h5-19H,4,20-23H2,1-3H3;1H

> <PUBCHEM_IUPAC_INCHIKEY>
DQPNQXUUCWOWCK-UHFFFAOYSA-N

> <PUBCHEM_EXACT_MASS>
466.238706

> <PUBCHEM_MOLECULAR_FORMULA>
C28H35ClN2O2

> <PUBCHEM_MOLECULAR_WEIGHT>
467.0427

> <PUBCHEM_OPENEYE_CAN_SMILES>
CCOC(C1=CC=CC=C1)(C2=CC=CC=C2)C(=O)N(C)CCN(C)CCC3=CC=CC=C3.Cl

> <PUBCHEM_OPENEYE_ISO_SMILES>
CCOC(C1=CC=CC=C1)(C2=CC=CC=C2)C(=O)N(C)CCN(C)CCC3=CC=CC=C3.Cl

> <PUBCHEM_CACTVS_TPSA>
32.8

> <PUBCHEM_MONOISOTOPIC_WEIGHT>
466.238706

> <PUBCHEM_TOTAL_CHARGE>
0

> <PUBCHEM_HEAVY_ATOM_COUNT>
33

> <PUBCHEM_ATOM_DEF_STEREO_COUNT>
0

> <PUBCHEM_ATOM_UDEF_STEREO_COUNT>
0

> <PUBCHEM_BOND_DEF_STEREO_COUNT>
0

> <PUBCHEM_BOND_UDEF_STEREO_COUNT>
0

> <PUBCHEM_ISOTOPIC_ATOM_COUNT>
0

> <PUBCHEM_COMPONENT_COUNT>
2

> <PUBCHEM_CACTVS_TAUTO_COUNT>
1

> <PUBCHEM_COORDINATE_TYPE>
1
5
255

> <PUBCHEM_BONDANNOTATIONS>
10  15  8
10  17  8
11  16  8
11  18  8
15  23  8
16  22  8
17  25  8
18  24  8
21  29  8
21  30  8
22  28  8
23  27  8
24  28  8
25  27  8
29  31  8
30  32  8
31  33  8
32  33  8

$$$$

