11561
  -OEChem-06261205503D

 12 12  0     0  0  0  0  0  0999 V2000
    3.0343   -1.2014   -0.0003 I   0  0  0  0  0  0  0  0  0  0  0  0
   -2.8180   -1.3261   -0.0005 Br  0  0  0  0  0  0  0  0  0  0  0  0
    0.0160   -0.9728    0.0005 C   0  0  0  0  0  0  0  0  0  0  0  0
    1.1972   -0.2306    0.0002 C   0  0  0  0  0  0  0  0  0  0  0  0
   -1.2172   -0.3208    0.0004 C   0  0  0  0  0  0  0  0  0  0  0  0
    1.1450    1.1633   -0.0002 C   0  0  0  0  0  0  0  0  0  0  0  0
   -1.2692    1.0732    0.0001 C   0  0  0  0  0  0  0  0  0  0  0  0
   -0.0882    1.8152   -0.0002 C   0  0  0  0  0  0  0  0  0  0  0  0
    0.0515   -2.0601    0.0005 H   0  0  0  0  0  0  0  0  0  0  0  0
    2.0531    1.7608   -0.0004 H   0  0  0  0  0  0  0  0  0  0  0  0
   -2.2218    1.5967   -0.0002 H   0  0  0  0  0  0  0  0  0  0  0  0
   -0.1288    2.9006   -0.0005 H   0  0  0  0  0  0  0  0  0  0  0  0
  1  4  1  0  0  0  0
  2  5  1  0  0  0  0
  3  4  1  0  0  0  0
  3  5  2  0  0  0  0
  3  9  1  0  0  0  0
  4  6  2  0  0  0  0
  5  7  1  0  0  0  0
  6  8  1  0  0  0  0
  6 10  1  0  0  0  0
  7  8  2  0  0  0  0
  7 11  1  0  0  0  0
  8 12  1  0  0  0  0
M  END
> <PUBCHEM_COMPOUND_CID>
11561

> <PUBCHEM_CONFORMER_RMSD>
0.4

> <PUBCHEM_CONFORMER_DIVERSEORDER>
1

> <PUBCHEM_MMFF94_PARTIAL_CHARGES>
12
1 -0.08
10 0.15
11 0.15
12 0.15
2 -0.11
3 -0.15
4 0.08
5 0.11
6 -0.15
7 -0.15
8 -0.15
9 0.15

> <PUBCHEM_EFFECTIVE_ROTOR_COUNT>
0

> <PUBCHEM_PHARMACOPHORE_FEATURES>
3
1 1 hydrophobe
1 2 hydrophobe
6 3 4 5 6 7 8 rings

> <PUBCHEM_HEAVY_ATOM_COUNT>
8

> <PUBCHEM_ATOM_DEF_STEREO_COUNT>
0

> <PUBCHEM_ATOM_UDEF_STEREO_COUNT>
0

> <PUBCHEM_BOND_DEF_STEREO_COUNT>
0

> <PUBCHEM_BOND_UDEF_STEREO_COUNT>
0

> <PUBCHEM_ISOTOPIC_ATOM_COUNT>
0

> <PUBCHEM_COMPONENT_COUNT>
1

> <PUBCHEM_CACTVS_TAUTO_COUNT>
1

> <PUBCHEM_CONFORMER_ID>
00002D2900000001

> <PUBCHEM_MMFF94_ENERGY>
15.6759

> <PUBCHEM_FEATURE_SELFOVERLAP>
15.223

> <PUBCHEM_SHAPE_FINGERPRINT>
10857977 72 18335996345234037810
12716758 59 17832140894083153286
14128692 85 18412257337701567638
16945 1 18194402431551437700
20645477 70 18123479284991568183
20871998 184 18115311201596257830
20871998 22 18334566958358580606
21040471 1 17690280829919850400
23552423 10 18272928345390349910
241688 4 18412263960303923848
2748010 2 18410584971709663828
29004967 10 18197498415945722707
5084963 1 18260830397111220810

> <PUBCHEM_SHAPE_MULTIPOLES>
182.51
4.12
1.94
0.67
1.15
0.49
0
-2.78
0
-0.36
0
0.07
-0.06
0

> <PUBCHEM_SHAPE_SELFOVERLAP>
339.847

> <PUBCHEM_SHAPE_VOLUME>
119.7

> <PUBCHEM_COORDINATE_TYPE>
2
5
10

$$$$

