9906
  -OEChem-06261204103D

 15 15  0     0  0  0  0  0  0999 V2000
   -0.6644    2.3742    0.0007 F   0  0  0  0  0  0  0  0  0  0  0  0
   -0.6646   -2.3734   -0.0008 F   0  0  0  0  0  0  0  0  0  0  0  0
   -2.7395    1.2519   -0.0007 F   0  0  0  0  0  0  0  0  0  0  0  0
   -2.7386   -0.6272   -1.0839 F   0  0  0  0  0  0  0  0  0  0  0  0
   -2.7174   -0.6289    1.0906 F   0  0  0  0  0  0  0  0  0  0  0  0
    2.0613   -2.3676   -0.0012 F   0  0  0  0  0  0  0  0  0  0  0  0
    2.0615    2.3682   -0.0002 F   0  0  0  0  0  0  0  0  0  0  0  0
    3.4284    0.0003   -0.0010 F   0  0  0  0  0  0  0  0  0  0  0  0
   -0.7007    0.0003   -0.0005 C   0  0  0  0  0  0  0  0  0  0  0  0
   -0.0032    1.2084   -0.0002 C   0  0  0  0  0  0  0  0  0  0  0  0
   -0.0032   -1.2076   -0.0006 C   0  0  0  0  0  0  0  0  0  0  0  0
   -2.1922    0.0004   -0.0007 C   0  0  0  0  0  0  0  0  0  0  0  0
    1.3917   -1.2076   -0.0007 C   0  0  0  0  0  0  0  0  0  0  0  0
    1.3917    1.2084   -0.0003 C   0  0  0  0  0  0  0  0  0  0  0  0
    2.0891    0.0003   -0.0005 C   0  0  0  0  0  0  0  0  0  0  0  0
  1 10  1  0  0  0  0
  2 11  1  0  0  0  0
  3 12  1  0  0  0  0
  4 12  1  0  0  0  0
  5 12  1  0  0  0  0
  6 13  1  0  0  0  0
  7 14  1  0  0  0  0
  8 15  1  0  0  0  0
  9 10  2  0  0  0  0
  9 11  1  0  0  0  0
  9 12  1  0  0  0  0
 10 14  1  0  0  0  0
 11 13  2  0  0  0  0
 13 15  1  0  0  0  0
 14 15  2  0  0  0  0
M  END
> <PUBCHEM_COMPOUND_CID>
9906

> <PUBCHEM_CONFORMER_RMSD>
0.4

> <PUBCHEM_CONFORMER_DIVERSEORDER>
1

> <PUBCHEM_MMFF94_PARTIAL_CHARGES>
15
1 -0.19
10 0.19
11 0.19
12 1.16
13 0.19
14 0.19
15 0.19
2 -0.19
3 -0.34
4 -0.34
5 -0.34
6 -0.19
7 -0.19
8 -0.19
9 -0.14

> <PUBCHEM_EFFECTIVE_ROTOR_COUNT>
1

> <PUBCHEM_PHARMACOPHORE_FEATURES>
1
6 9 10 11 13 14 15 rings

> <PUBCHEM_HEAVY_ATOM_COUNT>
15

> <PUBCHEM_ATOM_DEF_STEREO_COUNT>
0

> <PUBCHEM_ATOM_UDEF_STEREO_COUNT>
0

> <PUBCHEM_BOND_DEF_STEREO_COUNT>
0

> <PUBCHEM_BOND_UDEF_STEREO_COUNT>
0

> <PUBCHEM_ISOTOPIC_ATOM_COUNT>
0

> <PUBCHEM_COMPONENT_COUNT>
1

> <PUBCHEM_CACTVS_TAUTO_COUNT>
1

> <PUBCHEM_CONFORMER_ID>
000026B200000001

> <PUBCHEM_MMFF94_ENERGY>
16.8394

> <PUBCHEM_FEATURE_SELFOVERLAP>
5.074

> <PUBCHEM_SHAPE_FINGERPRINT>
10967382 1 18338516477065662116
11206711 2 18340484573004768012
11471102 20 18267870665038558101
11471102 22 18269814498279673211
12423570 1 17750516354581953207
12524768 44 18340769251836910594
13140716 1 18266459793930053538
16945 1 18410575072041999078
17844478 74 17988633074072871985
17990270 104 18340488966524007986
193761 8 17546165203815164230
20201158 50 18342460356560338171
21501502 16 18194120956532581024
2334 1 17906453225665730766
23402655 69 18265349472313166557
23463225 33 18269558415397626794
23552423 10 18411419518257154533
23559900 14 17469319697002626750
241688 4 17906452478293916360
2748010 2 18122065570376693318
5084963 1 18113342993972087281
528886 8 18410579517275089385

> <PUBCHEM_SHAPE_MULTIPOLES>
250.5
3.97
2.35
0.68
0.44
0.08
0
0
0.01
-0.74
0
0.33
-0.08
0

> <PUBCHEM_SHAPE_SELFOVERLAP>
546.145

> <PUBCHEM_SHAPE_VOLUME>
136.3

> <PUBCHEM_COORDINATE_TYPE>
2
5
10

$$$$

