4698
  -OEChem-06261200173D

 48 49  0     1  0  0  0  0  0999 V2000
   -3.4612   -1.0438    1.9124 S   0  0  0  0  0  0  0  0  0  0  0  0
   -1.4896    1.2637    1.3361 O   0  0  0  0  0  0  0  0  0  0  0  0
    2.7878   -1.6134    1.1897 O   0  0  0  0  0  0  0  0  0  0  0  0
   -1.9463    2.7000   -0.4211 O   0  0  0  0  0  0  0  0  0  0  0  0
    4.2056    0.1950    1.4710 O   0  0  0  0  0  0  0  0  0  0  0  0
    1.5295    0.8416   -2.1123 N   0  0  0  0  0  0  0  0  0  0  0  0
    1.0863    1.0112    0.6802 C   0  0  1  0  0  0  0  0  0  0  0  0
    0.0447    1.4156   -0.3623 C   0  0  0  0  0  0  0  0  0  0  0  0
    2.3037    0.3249    0.0625 C   0  0  0  0  0  0  0  0  0  0  0  0
    0.3111    1.3447   -1.6859 C   0  0  0  0  0  0  0  0  0  0  0  0
    2.4887    0.2932   -1.2764 C   0  0  0  0  0  0  0  0  0  0  0  0
    1.5360    2.2456    1.4777 C   0  0  0  0  0  0  0  0  0  0  0  0
   -1.2495    1.8860    0.1566 C   0  0  0  0  0  0  0  0  0  0  0  0
   -0.6311    1.7250   -2.7969 C   0  0  0  0  0  0  0  0  0  0  0  0
    3.6758   -0.3080   -1.9790 C   0  0  0  0  0  0  0  0  0  0  0  0
    3.2265   -0.3468    0.9912 C   0  0  0  0  0  0  0  0  0  0  0  0
   -2.7226    1.6193    1.9703 C   0  0  0  0  0  0  0  0  0  0  0  0
   -3.8339    0.6901    1.5081 C   0  0  0  0  0  0  0  0  0  0  0  0
    3.5873   -2.4008    2.0782 C   0  0  0  0  0  0  0  0  0  0  0  0
   -2.5873   -1.5674    0.4421 C   0  0  0  0  0  0  0  0  0  0  0  0
   -3.2220   -1.5137   -0.7953 C   0  0  0  0  0  0  0  0  0  0  0  0
   -1.2771   -2.0255    0.5435 C   0  0  0  0  0  0  0  0  0  0  0  0
   -2.5401   -1.9218   -1.9418 C   0  0  0  0  0  0  0  0  0  0  0  0
   -0.5953   -2.4334   -0.6029 C   0  0  0  0  0  0  0  0  0  0  0  0
   -1.2269   -2.3815   -1.8456 C   0  0  0  0  0  0  0  0  0  0  0  0
    0.6428    0.2841    1.3721 H   0  0  0  0  0  0  0  0  0  0  0  0
    2.0369    2.9780    0.8334 H   0  0  0  0  0  0  0  0  0  0  0  0
    2.2345    1.9704    2.2754 H   0  0  0  0  0  0  0  0  0  0  0  0
    0.6905    2.7493    1.9583 H   0  0  0  0  0  0  0  0  0  0  0  0
    1.7015    0.8001   -3.1104 H   0  0  0  0  0  0  0  0  0  0  0  0
   -0.4264    1.1443   -3.7039 H   0  0  0  0  0  0  0  0  0  0  0  0
   -1.6757    1.5220   -2.5442 H   0  0  0  0  0  0  0  0  0  0  0  0
   -0.5189    2.7856   -3.0429 H   0  0  0  0  0  0  0  0  0  0  0  0
    4.1755    0.4497   -2.5922 H   0  0  0  0  0  0  0  0  0  0  0  0
    3.3529   -1.1242   -2.6342 H   0  0  0  0  0  0  0  0  0  0  0  0
    4.4208   -0.7138   -1.2887 H   0  0  0  0  0  0  0  0  0  0  0  0
   -2.9844    2.6669    1.7781 H   0  0  0  0  0  0  0  0  0  0  0  0
   -2.5694    1.5337    3.0523 H   0  0  0  0  0  0  0  0  0  0  0  0
   -4.7604    0.9576    2.0265 H   0  0  0  0  0  0  0  0  0  0  0  0
   -4.0179    0.8081    0.4367 H   0  0  0  0  0  0  0  0  0  0  0  0
    3.1323   -3.3917    2.1564 H   0  0  0  0  0  0  0  0  0  0  0  0
    3.6094   -1.9449    3.0727 H   0  0  0  0  0  0  0  0  0  0  0  0
    4.6005   -2.5098    1.6797 H   0  0  0  0  0  0  0  0  0  0  0  0
   -4.2482   -1.1694   -0.8933 H   0  0  0  0  0  0  0  0  0  0  0  0
   -0.7685   -2.0709    1.5031 H   0  0  0  0  0  0  0  0  0  0  0  0
   -3.0319   -1.8825   -2.9094 H   0  0  0  0  0  0  0  0  0  0  0  0
    0.4281   -2.7890   -0.5287 H   0  0  0  0  0  0  0  0  0  0  0  0
   -0.6951   -2.6974   -2.7383 H   0  0  0  0  0  0  0  0  0  0  0  0
  1 18  1  0  0  0  0
  1 20  1  0  0  0  0
  2 13  1  0  0  0  0
  2 17  1  0  0  0  0
  3 16  1  0  0  0  0
  3 19  1  0  0  0  0
  4 13  2  0  0  0  0
  5 16  2  0  0  0  0
  6 10  1  0  0  0  0
  6 11  1  0  0  0  0
  6 30  1  0  0  0  0
  7  8  1  0  0  0  0
  7  9  1  0  0  0  0
  7 12  1  0  0  0  0
  7 26  1  0  0  0  0
  8 10  2  0  0  0  0
  8 13  1  0  0  0  0
  9 11  2  0  0  0  0
  9 16  1  0  0  0  0
 10 14  1  0  0  0  0
 11 15  1  0  0  0  0
 12 27  1  0  0  0  0
 12 28  1  0  0  0  0
 12 29  1  0  0  0  0
 14 31  1  0  0  0  0
 14 32  1  0  0  0  0
 14 33  1  0  0  0  0
 15 34  1  0  0  0  0
 15 35  1  0  0  0  0
 15 36  1  0  0  0  0
 17 18  1  0  0  0  0
 17 37  1  0  0  0  0
 17 38  1  0  0  0  0
 18 39  1  0  0  0  0
 18 40  1  0  0  0  0
 19 41  1  0  0  0  0
 19 42  1  0  0  0  0
 19 43  1  0  0  0  0
 20 21  2  0  0  0  0
 20 22  1  0  0  0  0
 21 23  1  0  0  0  0
 21 44  1  0  0  0  0
 22 24  2  0  0  0  0
 22 45  1  0  0  0  0
 23 25  2  0  0  0  0
 23 46  1  0  0  0  0
 24 25  1  0  0  0  0
 24 47  1  0  0  0  0
 25 48  1  0  0  0  0
M  END
> <PUBCHEM_COMPOUND_CID>
4698

> <PUBCHEM_CONFORMER_RMSD>
1

> <PUBCHEM_CONFORMER_DIVERSEORDER>
9
109
19
164
126
18
223
139
217
153
35
115
257
221
154
53
32
260
216
38
17
168
209
175
80
204
235
232
131
271
108
218
98
278
270
264
101
243
202
134
83
22
249
122
86
166
150
129
251
118
21
81
226
64
207
127
28
198
85
227
236
280
192
147
205
279
157
6
137
277
194
59
12
281
71
186
170
105
178
187
149
231
68
141
272
224
94
130
151
203
214
107
266
54
176
169
40
142
172
111
167
182
55
160
37
116
230
136
74
263
267
155
273
180
5
222
199
27
30
13
93
253
123
66
234
57
148
258
42
104
120
173
135
248
252
51
56
242
133
124
268
177
76
138
61
250
200
90
60
29
20
99
210
244
282
283
73
259
229
237
256
112
121
3
161
171
34
197
144
117
89
206
106
165
46
114
158
254
245
181
84
41
233
100
79
69
33
25
275
77
274
262
212
132
63
146
96
26
241
265
58
82
91
191
97
65
179
215
8
125
220
15
48
110
239
195
39
211
50
196
87
67
193
11
75
95
78
31
189
201
92
44
184
2
208
47
276
102
190
119
188
62
24
23
72
261
14
219
163
4
143
162
1
10
52
128
269
228
174
247
185
240
183
36
70
49
159
7
238
43
88
255
113
16
156
103
225
213
145
45
140
246
152

> <PUBCHEM_MMFF94_PARTIAL_CHARGES>
30
1 -0.33
10 -0.04
11 -0.04
13 0.71
14 0.14
15 0.14
16 0.71
17 0.28
18 0.23
19 0.28
2 -0.43
20 0.1
21 -0.15
22 -0.15
23 -0.15
24 -0.15
25 -0.15
3 -0.43
30 0.4
4 -0.57
44 0.15
45 0.15
46 0.15
47 0.15
48 0.15
5 -0.57
6 -0.6
7 0.28
8 -0.12
9 -0.12

> <PUBCHEM_EFFECTIVE_ROTOR_COUNT>
8.4

> <PUBCHEM_PHARMACOPHORE_FEATURES>
6
1 4 acceptor
1 5 acceptor
1 6 cation
1 6 donor
6 20 21 22 23 24 25 rings
6 6 7 8 9 10 11 rings

> <PUBCHEM_HEAVY_ATOM_COUNT>
25

> <PUBCHEM_ATOM_DEF_STEREO_COUNT>
0

> <PUBCHEM_ATOM_UDEF_STEREO_COUNT>
1

> <PUBCHEM_BOND_DEF_STEREO_COUNT>
0

> <PUBCHEM_BOND_UDEF_STEREO_COUNT>
0

> <PUBCHEM_ISOTOPIC_ATOM_COUNT>
0

> <PUBCHEM_COMPONENT_COUNT>
1

> <PUBCHEM_CACTVS_TAUTO_COUNT>
3

> <PUBCHEM_CONFORMER_ID>
0000125A00000009

> <PUBCHEM_MMFF94_ENERGY>
61.6651

> <PUBCHEM_FEATURE_SELFOVERLAP>
30.446

> <PUBCHEM_SHAPE_FINGERPRINT>
10366900 7 15358237377591588977
104564 63 18412260653263579934
11578080 2 18198363795779634341
12156800 1 16669154318581162783
12422481 6 18192137408219160211
12553582 1 18342730776317537842
12633257 1 17676482813547115073
12716301 132 17896017962300836629
16752209 62 18335128796115516711
19777482 4 18199209354707044191
20905425 154 17686016829786421759
21731516 1 18339919299241709660
23419403 2 17249263116852172649
23559900 14 17531792619782397424
35225 105 18188211021424816077
4340502 62 17900556871503791901
484985 159 17975166375910473758
5265222 85 17753290332809848460
81228 2 18261109617314321551

> <PUBCHEM_SHAPE_MULTIPOLES>
489.88
6.55
3.11
2.73
1.98
0.35
0.77
2.14
-3.11
-1.19
-0.03
0.46
0.06
-1.64

> <PUBCHEM_SHAPE_SELFOVERLAP>
1009.164

> <PUBCHEM_SHAPE_VOLUME>
283.7

> <PUBCHEM_COORDINATE_TYPE>
2
5
10

$$$$

