7722
  -OEChem-06261202163D

 18 18  0     0  0  0  0  0  0999 V2000
    3.3213    0.0000   -0.9564 Cl  0  0  0  0  0  0  0  0  0  0  0  0
    0.9615    0.0000    0.3441 C   0  0  0  0  0  0  0  0  0  0  0  0
   -1.7919    0.0000   -0.1051 C   0  0  0  0  0  0  0  0  0  0  0  0
    0.2732    1.2080    0.2318 C   0  0  0  0  0  0  0  0  0  0  0  0
    0.2732   -1.2080    0.2318 C   0  0  0  0  0  0  0  0  0  0  0  0
   -1.1035    1.2080    0.0073 C   0  0  0  0  0  0  0  0  0  0  0  0
   -1.1035   -1.2080    0.0073 C   0  0  0  0  0  0  0  0  0  0  0  0
    2.4334    0.0000    0.5841 C   0  0  0  0  0  0  0  0  0  0  0  0
   -3.2638    0.0000   -0.3449 C   0  0  0  0  0  0  0  0  0  0  0  0
    0.7982    2.1559    0.3158 H   0  0  0  0  0  0  0  0  0  0  0  0
    0.7982   -2.1559    0.3158 H   0  0  0  0  0  0  0  0  0  0  0  0
   -1.6284    2.1556   -0.0804 H   0  0  0  0  0  0  0  0  0  0  0  0
   -1.6282   -2.1556   -0.0805 H   0  0  0  0  0  0  0  0  0  0  0  0
    2.7436   -0.8815    1.1553 H   0  0  0  0  0  0  0  0  0  0  0  0
    2.7435    0.8815    1.1552 H   0  0  0  0  0  0  0  0  0  0  0  0
   -3.7371   -0.8806    0.1027 H   0  0  0  0  0  0  0  0  0  0  0  0
   -3.7372    0.8802    0.1033 H   0  0  0  0  0  0  0  0  0  0  0  0
   -3.4692    0.0004   -1.4199 H   0  0  0  0  0  0  0  0  0  0  0  0
  1  8  1  0  0  0  0
  2  4  2  0  0  0  0
  2  5  1  0  0  0  0
  2  8  1  0  0  0  0
  3  6  2  0  0  0  0
  3  7  1  0  0  0  0
  3  9  1  0  0  0  0
  4  6  1  0  0  0  0
  4 10  1  0  0  0  0
  5  7  2  0  0  0  0
  5 11  1  0  0  0  0
  6 12  1  0  0  0  0
  7 13  1  0  0  0  0
  8 14  1  0  0  0  0
  8 15  1  0  0  0  0
  9 16  1  0  0  0  0
  9 17  1  0  0  0  0
  9 18  1  0  0  0  0
M  END
> <PUBCHEM_COMPOUND_CID>
7722

> <PUBCHEM_CONFORMER_RMSD>
0.4

> <PUBCHEM_CONFORMER_DIVERSEORDER>
1
2

> <PUBCHEM_MMFF94_PARTIAL_CHARGES>
13
1 -0.29
10 0.15
11 0.15
12 0.15
13 0.15
2 -0.14
3 -0.14
4 -0.15
5 -0.15
6 -0.15
7 -0.15
8 0.43
9 0.14

> <PUBCHEM_EFFECTIVE_ROTOR_COUNT>
1

> <PUBCHEM_PHARMACOPHORE_FEATURES>
1
6 2 3 4 5 6 7 rings

> <PUBCHEM_HEAVY_ATOM_COUNT>
9

> <PUBCHEM_ATOM_DEF_STEREO_COUNT>
0

> <PUBCHEM_ATOM_UDEF_STEREO_COUNT>
0

> <PUBCHEM_BOND_DEF_STEREO_COUNT>
0

> <PUBCHEM_BOND_UDEF_STEREO_COUNT>
0

> <PUBCHEM_ISOTOPIC_ATOM_COUNT>
0

> <PUBCHEM_COMPONENT_COUNT>
1

> <PUBCHEM_CACTVS_TAUTO_COUNT>
1

> <PUBCHEM_CONFORMER_ID>
00001E2A00000001

> <PUBCHEM_MMFF94_ENERGY>
19.0402

> <PUBCHEM_FEATURE_SELFOVERLAP>
5.074

> <PUBCHEM_SHAPE_FINGERPRINT>
11206711 2 18339933700557502693
12032990 46 18336260154925993619
12897270 3 18410855468981847084
14325111 11 18411704308890543400
14993402 34 18131631175129648572
15310529 11 16702030789344525417
16714656 1 18410856563966405402
16945 1 18410860962102587427
20201158 50 17967525792478339086
20645464 45 17968676933786433744
20645476 183 17846774075241352310
21040471 1 18339089296806411577
21293036 1 18413106143282044292
23235685 24 18412831295587544717
23402655 69 18121804948194751301
23552423 10 18056481651536764588
2748010 2 18050857623785566403
29004967 10 18333454235442595963
5084963 1 18187085061298708544

> <PUBCHEM_SHAPE_MULTIPOLES>
187.09
4.51
1.26
0.81
1.02
0
0.08
0
1.25
-0.27
-0.08
0.41
0
0

> <PUBCHEM_SHAPE_SELFOVERLAP>
372.386

> <PUBCHEM_SHAPE_VOLUME>
108.8

> <PUBCHEM_COORDINATE_TYPE>
2
5
10

$$$$

