17395353
  -OEChem-06241222492D

 42 43  0     0  0  0  0  0  0999 V2000
    3.0000   -1.1550    0.0000 S   0  0  0  0  0  0  0  0  0  0  0  0
    2.0000   -1.1550    0.0000 O   0  0  0  0  0  0  0  0  0  0  0  0
    4.0000   -1.1550    0.0000 O   0  0  0  0  0  0  0  0  0  0  0  0
    2.1340    3.3450    0.0000 O   0  0  0  0  0  0  0  0  0  0  0  0
    3.0000   -5.1550    0.0000 O   0  0  0  0  0  0  0  0  0  0  0  0
    3.0000   -0.1550    0.0000 N   0  0  0  0  0  0  0  0  0  0  0  0
    3.0000    1.8450    0.0000 N   0  0  0  0  0  0  0  0  0  0  0  0
    3.8660    3.3450    0.0000 N   0  0  0  0  0  0  0  0  0  0  0  0
    2.1340    0.3450    0.0000 C   0  0  0  0  0  0  0  0  0  0  0  0
    3.8660    0.3450    0.0000 C   0  0  0  0  0  0  0  0  0  0  0  0
    2.1340    1.3450    0.0000 C   0  0  0  0  0  0  0  0  0  0  0  0
    3.8660    1.3450    0.0000 C   0  0  0  0  0  0  0  0  0  0  0  0
    3.0000   -2.1550    0.0000 C   0  0  0  0  0  0  0  0  0  0  0  0
    3.0000    2.8450    0.0000 C   0  0  0  0  0  0  0  0  0  0  0  0
    2.1340   -2.6550    0.0000 C   0  0  0  0  0  0  0  0  0  0  0  0
    3.8660   -2.6550    0.0000 C   0  0  0  0  0  0  0  0  0  0  0  0
    2.1340   -3.6550    0.0000 C   0  0  0  0  0  0  0  0  0  0  0  0
    3.8660   -3.6550    0.0000 C   0  0  0  0  0  0  0  0  0  0  0  0
    3.0000   -4.1550    0.0000 C   0  0  0  0  0  0  0  0  0  0  0  0
    3.8660    4.3450    0.0000 C   0  0  0  0  0  0  0  0  0  0  0  0
    4.7320    4.8450    0.0000 C   0  0  0  0  0  0  0  0  0  0  0  0
    2.1340   -5.6550    0.0000 C   0  0  0  0  0  0  0  0  0  0  0  0
    5.5981    5.3450    0.0000 C   0  0  0  0  0  0  0  0  0  0  0  0
    4.0781   -0.2376    0.0000 H   0  0  0  0  0  0  0  0  0  0  0  0
    4.4766    0.4527    0.0000 H   0  0  0  0  0  0  0  0  0  0  0  0
    1.5234    0.4527    0.0000 H   0  0  0  0  0  0  0  0  0  0  0  0
    1.9219   -0.2376    0.0000 H   0  0  0  0  0  0  0  0  0  0  0  0
    4.4766    1.2373    0.0000 H   0  0  0  0  0  0  0  0  0  0  0  0
    4.0781    1.9276    0.0000 H   0  0  0  0  0  0  0  0  0  0  0  0
    1.9219    1.9276    0.0000 H   0  0  0  0  0  0  0  0  0  0  0  0
    1.5234    1.2373    0.0000 H   0  0  0  0  0  0  0  0  0  0  0  0
    1.5970   -2.3450    0.0000 H   0  0  0  0  0  0  0  0  0  0  0  0
    4.4030   -2.3450    0.0000 H   0  0  0  0  0  0  0  0  0  0  0  0
    4.4030    3.0350    0.0000 H   0  0  0  0  0  0  0  0  0  0  0  0
    1.5970   -3.9650    0.0000 H   0  0  0  0  0  0  0  0  0  0  0  0
    4.4030   -3.9650    0.0000 H   0  0  0  0  0  0  0  0  0  0  0  0
    3.6540    4.9276    0.0000 H   0  0  0  0  0  0  0  0  0  0  0  0
    3.2554    4.2373    0.0000 H   0  0  0  0  0  0  0  0  0  0  0  0
    1.8240   -5.1181    0.0000 H   0  0  0  0  0  0  0  0  0  0  0  0
    1.5970   -5.9650    0.0000 H   0  0  0  0  0  0  0  0  0  0  0  0
    2.4440   -6.1919    0.0000 H   0  0  0  0  0  0  0  0  0  0  0  0
    6.1350    5.6550    0.0000 H   0  0  0  0  0  0  0  0  0  0  0  0
  1  2  2  0  0  0  0
  1  3  2  0  0  0  0
  1  6  1  0  0  0  0
  1 13  1  0  0  0  0
  4 14  2  0  0  0  0
  5 19  1  0  0  0  0
  5 22  1  0  0  0  0
  6  9  1  0  0  0  0
  6 10  1  0  0  0  0
  7 11  1  0  0  0  0
  7 12  1  0  0  0  0
  7 14  1  0  0  0  0
  8 14  1  0  0  0  0
  8 20  1  0  0  0  0
  8 34  1  0  0  0  0
  9 11  1  0  0  0  0
  9 26  1  0  0  0  0
  9 27  1  0  0  0  0
 10 12  1  0  0  0  0
 10 24  1  0  0  0  0
 10 25  1  0  0  0  0
 11 30  1  0  0  0  0
 11 31  1  0  0  0  0
 12 28  1  0  0  0  0
 12 29  1  0  0  0  0
 13 15  2  0  0  0  0
 13 16  1  0  0  0  0
 15 17  1  0  0  0  0
 15 32  1  0  0  0  0
 16 18  2  0  0  0  0
 16 33  1  0  0  0  0
 17 19  2  0  0  0  0
 17 35  1  0  0  0  0
 18 19  1  0  0  0  0
 18 36  1  0  0  0  0
 20 21  1  0  0  0  0
 20 37  1  0  0  0  0
 20 38  1  0  0  0  0
 21 23  3  0  0  0  0
 22 39  1  0  0  0  0
 22 40  1  0  0  0  0
 22 41  1  0  0  0  0
 23 42  1  0  0  0  0
M  END
> <PUBCHEM_COMPOUND_CID>
17395353

> <PUBCHEM_COMPOUND_CANONICALIZED>
1

> <PUBCHEM_CACTVS_COMPLEXITY>
547

> <PUBCHEM_CACTVS_HBOND_ACCEPTOR>
5

> <PUBCHEM_CACTVS_HBOND_DONOR>
1

> <PUBCHEM_CACTVS_ROTATABLE_BOND>
4

> <PUBCHEM_CACTVS_SUBSKEYS>
AAADceBzOABAAAAAAAAAAAAAAAAAAAAAAAA8QAAAAAAAAAABAAAAHgQQQAAACATB0AYzB4PABALIGCBCEHBCCBAgIAAIiJgOCIiMZiKEMRqQMCAsxhOIqAeAQAAAAIAAAAAAAAABAAAAAAAAAAAAAAAAAA==

> <PUBCHEM_IUPAC_OPENEYE_NAME>
4-(4-methoxyphenyl)sulfonyl-N-prop-2-ynyl-piperazine-1-carboxamide

> <PUBCHEM_IUPAC_CAS_NAME>
4-(4-methoxyphenyl)sulfonyl-N-prop-2-ynyl-1-piperazinecarboxamide

> <PUBCHEM_IUPAC_NAME>
4-(4-methoxyphenyl)sulfonyl-N-prop-2-ynylpiperazine-1-carboxamide

> <PUBCHEM_IUPAC_SYSTEMATIC_NAME>
4-(4-methoxyphenyl)sulfonyl-N-prop-2-ynyl-piperazine-1-carboxamide

> <PUBCHEM_IUPAC_TRADITIONAL_NAME>
4-(4-methoxyphenyl)sulfonyl-N-propargyl-piperazine-1-carboxamide

> <PUBCHEM_IUPAC_INCHI>
InChI=1S/C15H19N3O4S/c1-3-8-16-15(19)17-9-11-18(12-10-17)23(20,21)14-6-4-13(22-2)5-7-14/h1,4-7H,8-12H2,2H3,(H,16,19)

> <PUBCHEM_IUPAC_INCHIKEY>
FOQNLNXHFXGWKP-UHFFFAOYSA-N

> <PUBCHEM_XLOGP3_AA>
0.3

> <PUBCHEM_EXACT_MASS>
337.109627

> <PUBCHEM_MOLECULAR_FORMULA>
C15H19N3O4S

> <PUBCHEM_MOLECULAR_WEIGHT>
337.39406

> <PUBCHEM_OPENEYE_CAN_SMILES>
COC1=CC=C(C=C1)S(=O)(=O)N2CCN(CC2)C(=O)NCC#C

> <PUBCHEM_OPENEYE_ISO_SMILES>
COC1=CC=C(C=C1)S(=O)(=O)N2CCN(CC2)C(=O)NCC#C

> <PUBCHEM_CACTVS_TPSA>
87.3

> <PUBCHEM_MONOISOTOPIC_WEIGHT>
337.109627

> <PUBCHEM_TOTAL_CHARGE>
0

> <PUBCHEM_HEAVY_ATOM_COUNT>
23

> <PUBCHEM_ATOM_DEF_STEREO_COUNT>
0

> <PUBCHEM_ATOM_UDEF_STEREO_COUNT>
0

> <PUBCHEM_BOND_DEF_STEREO_COUNT>
0

> <PUBCHEM_BOND_UDEF_STEREO_COUNT>
0

> <PUBCHEM_ISOTOPIC_ATOM_COUNT>
0

> <PUBCHEM_COMPONENT_COUNT>
1

> <PUBCHEM_CACTVS_TAUTO_COUNT>
2

> <PUBCHEM_COORDINATE_TYPE>
1
5
255

> <PUBCHEM_BONDANNOTATIONS>
13  15  8
13  16  8
15  17  8
16  18  8
17  19  8
18  19  8

$$$$

