14327
  -OEChem-06241222433D

 29 30  0     0  0  0  0  0  0999 V2000
   -4.5003   -0.3262   -0.0436 O   0  0  0  0  0  0  0  0  0  0  0  0
    1.1094    0.4540    0.0605 C   0  0  0  0  0  0  0  0  0  0  0  0
    1.7677    0.0546   -1.2718 C   0  0  0  0  0  0  0  0  0  0  0  0
    1.7680   -0.2795    1.2421 C   0  0  0  0  0  0  0  0  0  0  0  0
    3.2788    0.2778   -1.2369 C   0  0  0  0  0  0  0  0  0  0  0  0
    3.2790   -0.0549    1.2664 C   0  0  0  0  0  0  0  0  0  0  0  0
    3.9276   -0.4434   -0.0591 C   0  0  0  0  0  0  0  0  0  0  0  0
   -0.3937    0.2450    0.0322 C   0  0  0  0  0  0  0  0  0  0  0  0
   -1.2484    1.3352    0.1767 C   0  0  0  0  0  0  0  0  0  0  0  0
   -0.9123   -1.0366   -0.1374 C   0  0  0  0  0  0  0  0  0  0  0  0
   -2.6298    1.1426    0.1515 C   0  0  0  0  0  0  0  0  0  0  0  0
   -2.2936   -1.2291   -0.1626 C   0  0  0  0  0  0  0  0  0  0  0  0
   -3.1524   -0.1395   -0.0181 C   0  0  0  0  0  0  0  0  0  0  0  0
    1.3000    1.5277    0.2031 H   0  0  0  0  0  0  0  0  0  0  0  0
    1.3344    0.6366   -2.0948 H   0  0  0  0  0  0  0  0  0  0  0  0
    1.5744   -1.0009   -1.5008 H   0  0  0  0  0  0  0  0  0  0  0  0
    1.5747   -1.3581    1.1876 H   0  0  0  0  0  0  0  0  0  0  0  0
    1.3348    0.0674    2.1885 H   0  0  0  0  0  0  0  0  0  0  0  0
    3.4873    1.3524   -1.1671 H   0  0  0  0  0  0  0  0  0  0  0  0
    3.7243   -0.0731   -2.1745 H   0  0  0  0  0  0  0  0  0  0  0  0
    3.7248   -0.6385    2.0797 H   0  0  0  0  0  0  0  0  0  0  0  0
    3.4876    1.0007    1.4797 H   0  0  0  0  0  0  0  0  0  0  0  0
    3.8413   -1.5275   -0.2031 H   0  0  0  0  0  0  0  0  0  0  0  0
    4.9976   -0.2095   -0.0281 H   0  0  0  0  0  0  0  0  0  0  0  0
   -0.8567    2.3398    0.3097 H   0  0  0  0  0  0  0  0  0  0  0  0
   -0.2623   -1.8994   -0.2517 H   0  0  0  0  0  0  0  0  0  0  0  0
   -3.2881    1.9998    0.2650 H   0  0  0  0  0  0  0  0  0  0  0  0
   -2.6949   -2.2301   -0.2953 H   0  0  0  0  0  0  0  0  0  0  0  0
   -4.9399    0.5339    0.0703 H   0  0  0  0  0  0  0  0  0  0  0  0
  1 13  1  0  0  0  0
  1 29  1  0  0  0  0
  2  3  1  0  0  0  0
  2  4  1  0  0  0  0
  2  8  1  0  0  0  0
  2 14  1  0  0  0  0
  3  5  1  0  0  0  0
  3 15  1  0  0  0  0
  3 16  1  0  0  0  0
  4  6  1  0  0  0  0
  4 17  1  0  0  0  0
  4 18  1  0  0  0  0
  5  7  1  0  0  0  0
  5 19  1  0  0  0  0
  5 20  1  0  0  0  0
  6  7  1  0  0  0  0
  6 21  1  0  0  0  0
  6 22  1  0  0  0  0
  7 23  1  0  0  0  0
  7 24  1  0  0  0  0
  8  9  2  0  0  0  0
  8 10  1  0  0  0  0
  9 11  1  0  0  0  0
  9 25  1  0  0  0  0
 10 12  2  0  0  0  0
 10 26  1  0  0  0  0
 11 13  2  0  0  0  0
 11 27  1  0  0  0  0
 12 13  1  0  0  0  0
 12 28  1  0  0  0  0
M  END
> <PUBCHEM_COMPOUND_CID>
14327

> <PUBCHEM_CONFORMER_RMSD>
0.6

> <PUBCHEM_CONFORMER_DIVERSEORDER>
1
2
3

> <PUBCHEM_MMFF94_PARTIAL_CHARGES>
13
1 -0.53
10 -0.15
11 -0.15
12 -0.15
13 0.08
2 0.14
25 0.15
26 0.15
27 0.15
28 0.15
29 0.45
8 -0.14
9 -0.15

> <PUBCHEM_EFFECTIVE_ROTOR_COUNT>
2.2

> <PUBCHEM_PHARMACOPHORE_FEATURES>
3
1 1 donor
6 2 3 4 5 6 7 rings
6 8 9 10 11 12 13 rings

> <PUBCHEM_HEAVY_ATOM_COUNT>
13

> <PUBCHEM_ATOM_DEF_STEREO_COUNT>
0

> <PUBCHEM_ATOM_UDEF_STEREO_COUNT>
0

> <PUBCHEM_BOND_DEF_STEREO_COUNT>
0

> <PUBCHEM_BOND_UDEF_STEREO_COUNT>
0

> <PUBCHEM_ISOTOPIC_ATOM_COUNT>
0

> <PUBCHEM_COMPONENT_COUNT>
1

> <PUBCHEM_CACTVS_TAUTO_COUNT>
2

> <PUBCHEM_CONFORMER_ID>
000037F700000001

> <PUBCHEM_MMFF94_ENERGY>
23.6264

> <PUBCHEM_FEATURE_SELFOVERLAP>
15.223

> <PUBCHEM_SHAPE_FINGERPRINT>
10219947 1 16128655262727095438
10608611 8 17385729114155352608
11031198 65 15195279820454480590
11471102 20 15769774658962910878
12236239 1 17917712409364970724
12932764 1 17989211434079015452
13296908 3 17385442128777473964
13538477 17 18059293167003846643
13581323 91 18410298025071004138
13760787 19 17489869324110891867
14115302 16 17988641861280729371
14144814 61 18130787875618162776
14251717 144 16559034904417027722
14993402 34 17989485220995480150
15219456 202 17095526209848222192
15775835 57 17346311575128548710
16945 1 18408604760253378729
17844478 74 17095520712195274376
18175812 5 17313106319463710588
18186145 218 16702301252331089678
190213 19 17917711305379066650
19026448 4 16370723738503532105
19026448 5 17132115749523843861
19049666 15 17241880093829440376
19422 9 17917710227310672490
200 152 16917353631916750297
20201158 50 17167577202590033518
20279233 1 17530683208165086662
20281407 28 17967807232657480726
20510252 161 18041278854694501849
20528008 55 16877946018412012503
20645464 45 17603590728996704675
20645476 183 17774716468297390999
20645477 70 15626234540979872786
21119208 17 17775566442055847870
21639500 275 16343134719635242924
23048698 100 17418091014078146868
23402539 116 18114191847467279773
23402655 69 16343709841151577470
23557571 272 18187361056446171848
23559900 14 18114457968146767414
474 4 17344617137875107460
69090 78 16877951520565851375
7364860 26 18043531612238752296
77492 1 17917992784698243272
8272917 22 16844737567850753619

> <PUBCHEM_SHAPE_MULTIPOLES>
261.66
7.17
1.11
1.11
0.78
0
-0.05
-0.11
0.66
-1.19
-0.01
0.72
0.01
-0.34

> <PUBCHEM_SHAPE_SELFOVERLAP>
545.455

> <PUBCHEM_SHAPE_VOLUME>
147.7

> <PUBCHEM_COORDINATE_TYPE>
2
5
10

$$$$

