11408
  -OEChem-06261205383D

 30 30  0     0  0  0  0  0  0999 V2000
    6.3002   -0.4631   -0.7907 F   0  0  0  0  0  0  0  0  0  0  0  0
   -0.1054   -0.0871    0.0985 O   0  0  0  0  0  0  0  0  0  0  0  0
   -1.0537   -2.1441    0.5092 O   0  0  0  0  0  0  0  0  0  0  0  0
    3.6497   -0.0533    0.2258 C   0  0  0  0  0  0  0  0  0  0  0  0
    2.2240    0.4663    0.0533 C   0  0  0  0  0  0  0  0  0  0  0  0
    4.6780    1.0513   -0.0229 C   0  0  0  0  0  0  0  0  0  0  0  0
    1.1951   -0.6370    0.2572 C   0  0  0  0  0  0  0  0  0  0  0  0
    6.0991    0.5322    0.1130 C   0  0  0  0  0  0  0  0  0  0  0  0
   -1.1448   -0.9539    0.2514 C   0  0  0  0  0  0  0  0  0  0  0  0
   -2.4429   -0.2592    0.0602 C   0  0  0  0  0  0  0  0  0  0  0  0
   -3.5133   -0.9718   -0.4402 C   0  0  0  0  0  0  0  0  0  0  0  0
   -2.5389    1.0775    0.3893 C   0  0  0  0  0  0  0  0  0  0  0  0
   -4.7329   -0.3193   -0.6197 C   0  0  0  0  0  0  0  0  0  0  0  0
   -3.7587    1.7299    0.2100 C   0  0  0  0  0  0  0  0  0  0  0  0
   -4.8557    1.0314   -0.2944 C   0  0  0  0  0  0  0  0  0  0  0  0
    3.7767   -0.4529    1.2393 H   0  0  0  0  0  0  0  0  0  0  0  0
    3.8227   -0.8817   -0.4718 H   0  0  0  0  0  0  0  0  0  0  0  0
    2.0293    1.2819    0.7608 H   0  0  0  0  0  0  0  0  0  0  0  0
    2.0949    0.8996   -0.9465 H   0  0  0  0  0  0  0  0  0  0  0  0
    4.5213    1.8772    0.6799 H   0  0  0  0  0  0  0  0  0  0  0  0
    4.5410    1.4458   -1.0366 H   0  0  0  0  0  0  0  0  0  0  0  0
    1.2920   -1.0582    1.2648 H   0  0  0  0  0  0  0  0  0  0  0  0
    1.3475   -1.4335   -0.4807 H   0  0  0  0  0  0  0  0  0  0  0  0
    6.2866    0.1272    1.1118 H   0  0  0  0  0  0  0  0  0  0  0  0
    6.8255    1.3241   -0.0896 H   0  0  0  0  0  0  0  0  0  0  0  0
   -3.4292   -2.0228   -0.7000 H   0  0  0  0  0  0  0  0  0  0  0  0
   -1.7041    1.6402    0.7962 H   0  0  0  0  0  0  0  0  0  0  0  0
   -5.5870   -0.8628   -1.0131 H   0  0  0  0  0  0  0  0  0  0  0  0
   -3.8556    2.7811    0.4659 H   0  0  0  0  0  0  0  0  0  0  0  0
   -5.8055    1.5393   -0.4335 H   0  0  0  0  0  0  0  0  0  0  0  0
  1  8  1  0  0  0  0
  2  7  1  0  0  0  0
  2  9  1  0  0  0  0
  3  9  2  0  0  0  0
  4  5  1  0  0  0  0
  4  6  1  0  0  0  0
  4 16  1  0  0  0  0
  4 17  1  0  0  0  0
  5  7  1  0  0  0  0
  5 18  1  0  0  0  0
  5 19  1  0  0  0  0
  6  8  1  0  0  0  0
  6 20  1  0  0  0  0
  6 21  1  0  0  0  0
  7 22  1  0  0  0  0
  7 23  1  0  0  0  0
  8 24  1  0  0  0  0
  8 25  1  0  0  0  0
  9 10  1  0  0  0  0
 10 11  2  0  0  0  0
 10 12  1  0  0  0  0
 11 13  1  0  0  0  0
 11 26  1  0  0  0  0
 12 14  2  0  0  0  0
 12 27  1  0  0  0  0
 13 15  2  0  0  0  0
 13 28  1  0  0  0  0
 14 15  1  0  0  0  0
 14 29  1  0  0  0  0
 15 30  1  0  0  0  0
M  END
> <PUBCHEM_COMPOUND_CID>
11408

> <PUBCHEM_CONFORMER_RMSD>
0.8

> <PUBCHEM_CONFORMER_DIVERSEORDER>
1
79
11
48
22
14
64
78
70
107
84
41
56
43
60
83
59
52
86
8
54
72
75
71
67
26
69
112
29
34
7
99
106
80
33
65
35
15
68
2
47
6
76
97
5
87
38
100
55
51
104
3
19
74
23
63
46
12
39
95
102
66
57
10
61
105
96
111
4
37
58
18
13
17
50
113
108
90
36
45
30
91
81
89
24
25
77
31
82
103
85
44
42
16
53
101
21
88
98
28
94
49
93
9
92
109
62
110
73
40
32
20
27

> <PUBCHEM_MMFF94_PARTIAL_CHARGES>
17
1 -0.34
10 0.09
11 -0.15
12 -0.15
13 -0.15
14 -0.15
15 -0.15
2 -0.43
26 0.15
27 0.15
28 0.15
29 0.15
3 -0.57
30 0.15
7 0.28
8 0.34
9 0.63

> <PUBCHEM_EFFECTIVE_ROTOR_COUNT>
7

> <PUBCHEM_PHARMACOPHORE_FEATURES>
2
1 3 acceptor
6 10 11 12 13 14 15 rings

> <PUBCHEM_HEAVY_ATOM_COUNT>
15

> <PUBCHEM_ATOM_DEF_STEREO_COUNT>
0

> <PUBCHEM_ATOM_UDEF_STEREO_COUNT>
0

> <PUBCHEM_BOND_DEF_STEREO_COUNT>
0

> <PUBCHEM_BOND_UDEF_STEREO_COUNT>
0

> <PUBCHEM_ISOTOPIC_ATOM_COUNT>
0

> <PUBCHEM_COMPONENT_COUNT>
1

> <PUBCHEM_CACTVS_TAUTO_COUNT>
1

> <PUBCHEM_CONFORMER_ID>
00002C9000000001

> <PUBCHEM_MMFF94_ENERGY>
26.752

> <PUBCHEM_FEATURE_SELFOVERLAP>
10.148

> <PUBCHEM_SHAPE_FINGERPRINT>
10803635 8 15285361747050451165
13668630 136 16153419554951566636
13740256 8 8502362347844441453
14251718 22 18113338587615183932
14573314 32 18260823822064696148
15183329 4 18409726305501350074
15242439 84 18261109656528183496
15501527 16 18411134731834349952
15778101 99 18262233426179181369
17834072 33 18334017194328992486
17834072 8 18408599271754640596
17834076 25 18201721747656285316
19489759 90 18260548922377103160
200 152 13984659256804253562
20281389 69 17918279753286662108
20300324 65 18186242814465569689
20645477 56 18413106156193300299
20645477 70 17240754130162889734
20828058 44 10735879477777254065
23402539 116 18334582325677329557
23402655 69 18187650236198104869
23559900 14 18187091611429978776
3004659 81 18339922714875210370
351380 180 18259987050576744968
351380 3 6916264035529913180
3545911 37 18410572889945353179
4214541 1 18410292493348370664
42788 4 18408887326172966044
441001 317 18335421270350647417
49783359 22 10375871866084091072
542803 24 17275385396152150668

> <PUBCHEM_SHAPE_MULTIPOLES>
289.68
14.18
1.49
0.71
19.68
0.1
0.03
-3.67
2.64
-1.3
-0.16
-0.03
0.04
-0.07

> <PUBCHEM_SHAPE_SELFOVERLAP>
583.383

> <PUBCHEM_SHAPE_VOLUME>
169.8

> <PUBCHEM_COORDINATE_TYPE>
2
5
10

$$$$

