6617
  -OEChem-06261201252D

 29 29  0     1  0  0  0  0  0999 V2000
    3.0000   -3.1550    0.0000 Cl  0  0  0  0  0  0  0  0  0  0  0  0
    4.0000    0.8450    0.0000 O   0  0  0  0  0  0  0  0  0  0  0  0
    3.0000    2.8450    0.0000 O   0  0  0  0  0  0  0  0  0  0  0  0
    3.0000    0.8450    0.0000 C   0  0  3  0  0  0  0  0  0  0  0  0
    3.0000    1.8450    0.0000 C   0  0  0  0  0  0  0  0  0  0  0  0
    3.0000   -0.1550    0.0000 C   0  0  0  0  0  0  0  0  0  0  0  0
    2.0000    0.8450    0.0000 C   0  0  0  0  0  0  0  0  0  0  0  0
    4.0000    1.8450    0.0000 C   0  0  0  0  0  0  0  0  0  0  0  0
    2.0000    1.8450    0.0000 C   0  0  0  0  0  0  0  0  0  0  0  0
    2.1340   -0.6550    0.0000 C   0  0  0  0  0  0  0  0  0  0  0  0
    3.8660   -0.6550    0.0000 C   0  0  0  0  0  0  0  0  0  0  0  0
    2.1340   -1.6550    0.0000 C   0  0  0  0  0  0  0  0  0  0  0  0
    3.8660   -1.6550    0.0000 C   0  0  0  0  0  0  0  0  0  0  0  0
    3.0000   -2.1550    0.0000 C   0  0  0  0  0  0  0  0  0  0  0  0
    2.0000    1.4650    0.0000 H   0  0  0  0  0  0  0  0  0  0  0  0
    1.3800    0.8450    0.0000 H   0  0  0  0  0  0  0  0  0  0  0  0
    2.0000    0.2250    0.0000 H   0  0  0  0  0  0  0  0  0  0  0  0
    4.0000    1.2250    0.0000 H   0  0  0  0  0  0  0  0  0  0  0  0
    4.6200    1.8450    0.0000 H   0  0  0  0  0  0  0  0  0  0  0  0
    4.0000    2.4650    0.0000 H   0  0  0  0  0  0  0  0  0  0  0  0
    2.0000    2.4650    0.0000 H   0  0  0  0  0  0  0  0  0  0  0  0
    1.3800    1.8450    0.0000 H   0  0  0  0  0  0  0  0  0  0  0  0
    2.0000    1.2250    0.0000 H   0  0  0  0  0  0  0  0  0  0  0  0
    4.3100    0.3081    0.0000 H   0  0  0  0  0  0  0  0  0  0  0  0
    2.4631    3.1550    0.0000 H   0  0  0  0  0  0  0  0  0  0  0  0
    1.5970   -0.3450    0.0000 H   0  0  0  0  0  0  0  0  0  0  0  0
    4.4030   -0.3450    0.0000 H   0  0  0  0  0  0  0  0  0  0  0  0
    1.5970   -1.9650    0.0000 H   0  0  0  0  0  0  0  0  0  0  0  0
    4.4030   -1.9650    0.0000 H   0  0  0  0  0  0  0  0  0  0  0  0
  1 14  1  0  0  0  0
  2  4  1  0  0  0  0
  2 24  1  0  0  0  0
  3  5  1  0  0  0  0
  3 25  1  0  0  0  0
  4  5  1  0  0  0  0
  4  6  1  0  0  0  0
  4  7  1  0  0  0  0
  5  8  1  0  0  0  0
  5  9  1  0  0  0  0
  6 10  2  0  0  0  0
  6 11  1  0  0  0  0
  7 15  1  0  0  0  0
  7 16  1  0  0  0  0
  7 17  1  0  0  0  0
  8 18  1  0  0  0  0
  8 19  1  0  0  0  0
  8 20  1  0  0  0  0
  9 21  1  0  0  0  0
  9 22  1  0  0  0  0
  9 23  1  0  0  0  0
 10 12  1  0  0  0  0
 10 26  1  0  0  0  0
 11 13  2  0  0  0  0
 11 27  1  0  0  0  0
 12 14  2  0  0  0  0
 12 28  1  0  0  0  0
 13 14  1  0  0  0  0
 13 29  1  0  0  0  0
M  END
> <PUBCHEM_COMPOUND_CID>
6617

> <PUBCHEM_COMPOUND_CANONICALIZED>
1

> <PUBCHEM_CACTVS_COMPLEXITY>
198

> <PUBCHEM_CACTVS_HBOND_ACCEPTOR>
2

> <PUBCHEM_CACTVS_HBOND_DONOR>
2

> <PUBCHEM_CACTVS_ROTATABLE_BOND>
2

> <PUBCHEM_CACTVS_SUBSKEYS>
AAADccBwMAAEAAAAAAAAAAAAAAAAAAAAAAAwAAAAAAAAAAABAAAAGgIACAAADEaAmCAyAIAAAgCAAiBCAAACAAAgBQAIiAAACogJJiKBExCAcAAkwAEJmAeAwOAOhAAAAAAAAAAIAAAAAAAAAAAAAAAAAA==

> <PUBCHEM_IUPAC_OPENEYE_NAME>
2-(4-chlorophenyl)-3-methyl-butane-2,3-diol

> <PUBCHEM_IUPAC_CAS_NAME>
2-(4-chlorophenyl)-3-methylbutane-2,3-diol

> <PUBCHEM_IUPAC_NAME>
2-(4-chlorophenyl)-3-methylbutane-2,3-diol

> <PUBCHEM_IUPAC_SYSTEMATIC_NAME>
2-(4-chlorophenyl)-3-methyl-butane-2,3-diol

> <PUBCHEM_IUPAC_TRADITIONAL_NAME>
2-(4-chlorophenyl)-3-methyl-butane-2,3-diol

> <PUBCHEM_IUPAC_INCHI>
InChI=1S/C11H15ClO2/c1-10(2,13)11(3,14)8-4-6-9(12)7-5-8/h4-7,13-14H,1-3H3

> <PUBCHEM_IUPAC_INCHIKEY>
HTYIXCKSEQQCJO-UHFFFAOYSA-N

> <PUBCHEM_XLOGP3_AA>
1.8

> <PUBCHEM_EXACT_MASS>
214.076057

> <PUBCHEM_MOLECULAR_FORMULA>
C11H15ClO2

> <PUBCHEM_MOLECULAR_WEIGHT>
214.6886

> <PUBCHEM_OPENEYE_CAN_SMILES>
CC(C)(C(C)(C1=CC=C(C=C1)Cl)O)O

> <PUBCHEM_OPENEYE_ISO_SMILES>
CC(C)(C(C)(C1=CC=C(C=C1)Cl)O)O

> <PUBCHEM_CACTVS_TPSA>
40.5

> <PUBCHEM_MONOISOTOPIC_WEIGHT>
214.076057

> <PUBCHEM_TOTAL_CHARGE>
0

> <PUBCHEM_HEAVY_ATOM_COUNT>
14

> <PUBCHEM_ATOM_DEF_STEREO_COUNT>
0

> <PUBCHEM_ATOM_UDEF_STEREO_COUNT>
1

> <PUBCHEM_BOND_DEF_STEREO_COUNT>
0

> <PUBCHEM_BOND_UDEF_STEREO_COUNT>
0

> <PUBCHEM_ISOTOPIC_ATOM_COUNT>
0

> <PUBCHEM_COMPONENT_COUNT>
1

> <PUBCHEM_CACTVS_TAUTO_COUNT>
1

> <PUBCHEM_COORDINATE_TYPE>
1
5
255

> <PUBCHEM_BONDANNOTATIONS>
10  12  8
11  13  8
12  14  8
13  14  8
4  7  3
6  10  8
6  11  8

$$$$

