582863
  -OEChem-06241222442D

 73 72  0     1  0  0  0  0  0999 V2000
    6.0981    2.3170    0.0000 Si  0  0  0  0  0  0  0  0  0  0  0  0
    3.5000   -1.1830    0.0000 Si  0  0  0  0  0  0  0  0  0  0  0  0
    7.8301    0.3170    0.0000 Si  0  0  0  0  0  0  0  0  0  0  0  0
    6.9641   -2.1830    0.0000 Si  0  0  0  0  0  0  0  0  0  0  0  0
    5.2320    1.8170    0.0000 O   0  0  0  0  0  0  0  0  0  0  0  0
    4.3660   -0.6830    0.0000 O   0  0  0  0  0  0  0  0  0  0  0  0
    6.9641    0.8170    0.0000 O   0  0  0  0  0  0  0  0  0  0  0  0
    6.9641   -1.1830    0.0000 O   0  0  0  0  0  0  0  0  0  0  0  0
    2.0000   -0.0491    0.0000 O   0  0  0  0  0  0  0  0  0  0  0  0
    3.5000    1.8170    0.0000 N   0  0  0  0  0  0  0  0  0  0  0  0
    5.2320    0.8170    0.0000 C   0  0  3  0  0  0  0  0  0  0  0  0
    4.3660    0.3170    0.0000 C   0  0  3  0  0  0  0  0  0  0  0  0
    6.0981    0.3170    0.0000 C   0  0  3  0  0  0  0  0  0  0  0  0
    3.5000    0.8170    0.0000 C   0  0  3  0  0  0  0  0  0  0  0  0
    6.0981   -0.6830    0.0000 C   0  0  0  0  0  0  0  0  0  0  0  0
    6.9641    2.8170    0.0000 C   0  0  0  0  0  0  0  0  0  0  0  0
    5.5981    3.1830    0.0000 C   0  0  0  0  0  0  0  0  0  0  0  0
    6.5981    1.4510    0.0000 C   0  0  0  0  0  0  0  0  0  0  0  0
    2.6340   -1.6830    0.0000 C   0  0  0  0  0  0  0  0  0  0  0  0
    4.0000   -2.0490    0.0000 C   0  0  0  0  0  0  0  0  0  0  0  0
    2.6340   -0.6830    0.0000 C   0  0  0  0  0  0  0  0  0  0  0  0
    8.6961   -0.1830    0.0000 C   0  0  0  0  0  0  0  0  0  0  0  0
    8.3301    1.1830    0.0000 C   0  0  0  0  0  0  0  0  0  0  0  0
    7.3301   -0.5490    0.0000 C   0  0  0  0  0  0  0  0  0  0  0  0
    2.5000    0.8170    0.0000 C   0  0  0  0  0  0  0  0  0  0  0  0
    6.9641   -3.1830    0.0000 C   0  0  0  0  0  0  0  0  0  0  0  0
    7.9641   -2.1830    0.0000 C   0  0  0  0  0  0  0  0  0  0  0  0
    5.9641   -2.1830    0.0000 C   0  0  0  0  0  0  0  0  0  0  0  0
    4.6951    1.1270    0.0000 H   0  0  0  0  0  0  0  0  0  0  0  0
    4.9029    0.0070    0.0000 H   0  0  0  0  0  0  0  0  0  0  0  0
    6.0981    0.9370    0.0000 H   0  0  0  0  0  0  0  0  0  0  0  0
    4.0369    1.1270    0.0000 H   0  0  0  0  0  0  0  0  0  0  0  0
    5.4875   -0.5754    0.0000 H   0  0  0  0  0  0  0  0  0  0  0  0
    5.8860   -1.2656    0.0000 H   0  0  0  0  0  0  0  0  0  0  0  0
    6.0611    1.1410    0.0000 H   0  0  0  0  0  0  0  0  0  0  0  0
    6.9081    0.9140    0.0000 H   0  0  0  0  0  0  0  0  0  0  0  0
    7.1350    1.7610    0.0000 H   0  0  0  0  0  0  0  0  0  0  0  0
    6.1350    3.4930    0.0000 H   0  0  0  0  0  0  0  0  0  0  0  0
    5.2881    3.7200    0.0000 H   0  0  0  0  0  0  0  0  0  0  0  0
    5.0611    2.8730    0.0000 H   0  0  0  0  0  0  0  0  0  0  0  0
    7.2741    2.2800    0.0000 H   0  0  0  0  0  0  0  0  0  0  0  0
    7.5010    3.1270    0.0000 H   0  0  0  0  0  0  0  0  0  0  0  0
    6.6541    3.3539    0.0000 H   0  0  0  0  0  0  0  0  0  0  0  0
    2.3240   -1.1461    0.0000 H   0  0  0  0  0  0  0  0  0  0  0  0
    2.0970   -1.9930    0.0000 H   0  0  0  0  0  0  0  0  0  0  0  0
    2.9440   -2.2200    0.0000 H   0  0  0  0  0  0  0  0  0  0  0  0
    3.4630   -2.3590    0.0000 H   0  0  0  0  0  0  0  0  0  0  0  0
    4.3100   -2.5860    0.0000 H   0  0  0  0  0  0  0  0  0  0  0  0
    4.5369   -1.7390    0.0000 H   0  0  0  0  0  0  0  0  0  0  0  0
    2.9440   -0.1461    0.0000 H   0  0  0  0  0  0  0  0  0  0  0  0
    2.0970   -0.3730    0.0000 H   0  0  0  0  0  0  0  0  0  0  0  0
    2.3240   -1.2200    0.0000 H   0  0  0  0  0  0  0  0  0  0  0  0
    6.7932   -0.2390    0.0000 H   0  0  0  0  0  0  0  0  0  0  0  0
    7.0201   -1.0860    0.0000 H   0  0  0  0  0  0  0  0  0  0  0  0
    7.8670   -0.8590    0.0000 H   0  0  0  0  0  0  0  0  0  0  0  0
    8.8670    0.8730    0.0000 H   0  0  0  0  0  0  0  0  0  0  0  0
    8.6401    1.7200    0.0000 H   0  0  0  0  0  0  0  0  0  0  0  0
    7.7932    1.4930    0.0000 H   0  0  0  0  0  0  0  0  0  0  0  0
    8.3861   -0.7199    0.0000 H   0  0  0  0  0  0  0  0  0  0  0  0
    9.2331   -0.4930    0.0000 H   0  0  0  0  0  0  0  0  0  0  0  0
    9.0061    0.3539    0.0000 H   0  0  0  0  0  0  0  0  0  0  0  0
    2.9630    2.1270    0.0000 H   0  0  0  0  0  0  0  0  0  0  0  0
    4.0369    2.1270    0.0000 H   0  0  0  0  0  0  0  0  0  0  0  0
    2.1900    1.3540    0.0000 H   0  0  0  0  0  0  0  0  0  0  0  0
    6.3441   -3.1830    0.0000 H   0  0  0  0  0  0  0  0  0  0  0  0
    6.9641   -3.8030    0.0000 H   0  0  0  0  0  0  0  0  0  0  0  0
    7.5841   -3.1830    0.0000 H   0  0  0  0  0  0  0  0  0  0  0  0
    7.9641   -2.8030    0.0000 H   0  0  0  0  0  0  0  0  0  0  0  0
    8.5841   -2.1830    0.0000 H   0  0  0  0  0  0  0  0  0  0  0  0
    7.9641   -1.5630    0.0000 H   0  0  0  0  0  0  0  0  0  0  0  0
    5.9641   -1.5630    0.0000 H   0  0  0  0  0  0  0  0  0  0  0  0
    5.3441   -2.1830    0.0000 H   0  0  0  0  0  0  0  0  0  0  0  0
    5.9641   -2.8030    0.0000 H   0  0  0  0  0  0  0  0  0  0  0  0
  1  5  1  0  0  0  0
  1 16  1  0  0  0  0
  1 17  1  0  0  0  0
  1 18  1  0  0  0  0
  2  6  1  0  0  0  0
  2 19  1  0  0  0  0
  2 20  1  0  0  0  0
  2 21  1  0  0  0  0
  3  7  1  0  0  0  0
  3 22  1  0  0  0  0
  3 23  1  0  0  0  0
  3 24  1  0  0  0  0
  4  8  1  0  0  0  0
  4 26  1  0  0  0  0
  4 27  1  0  0  0  0
  4 28  1  0  0  0  0
  5 11  1  0  0  0  0
  6 12  1  0  0  0  0
  7 13  1  0  0  0  0
  8 15  1  0  0  0  0
  9 25  2  0  0  0  0
 10 14  1  0  0  0  0
 10 62  1  0  0  0  0
 10 63  1  0  0  0  0
 11 12  1  0  0  0  0
 11 13  1  0  0  0  0
 11 29  1  0  0  0  0
 12 14  1  0  0  0  0
 12 30  1  0  0  0  0
 13 15  1  0  0  0  0
 13 31  1  0  0  0  0
 14 25  1  0  0  0  0
 14 32  1  0  0  0  0
 15 33  1  0  0  0  0
 15 34  1  0  0  0  0
 16 41  1  0  0  0  0
 16 42  1  0  0  0  0
 16 43  1  0  0  0  0
 17 38  1  0  0  0  0
 17 39  1  0  0  0  0
 17 40  1  0  0  0  0
 18 35  1  0  0  0  0
 18 36  1  0  0  0  0
 18 37  1  0  0  0  0
 19 44  1  0  0  0  0
 19 45  1  0  0  0  0
 19 46  1  0  0  0  0
 20 47  1  0  0  0  0
 20 48  1  0  0  0  0
 20 49  1  0  0  0  0
 21 50  1  0  0  0  0
 21 51  1  0  0  0  0
 21 52  1  0  0  0  0
 22 59  1  0  0  0  0
 22 60  1  0  0  0  0
 22 61  1  0  0  0  0
 23 56  1  0  0  0  0
 23 57  1  0  0  0  0
 23 58  1  0  0  0  0
 24 53  1  0  0  0  0
 24 54  1  0  0  0  0
 24 55  1  0  0  0  0
 25 64  1  0  0  0  0
 26 65  1  0  0  0  0
 26 66  1  0  0  0  0
 26 67  1  0  0  0  0
 27 68  1  0  0  0  0
 27 69  1  0  0  0  0
 27 70  1  0  0  0  0
 28 71  1  0  0  0  0
 28 72  1  0  0  0  0
 28 73  1  0  0  0  0
M  END
> <PUBCHEM_COMPOUND_CID>
582863

> <PUBCHEM_COMPOUND_CANONICALIZED>
1

> <PUBCHEM_CACTVS_COMPLEXITY>
480

> <PUBCHEM_CACTVS_HBOND_ACCEPTOR>
6

> <PUBCHEM_CACTVS_HBOND_DONOR>
1

> <PUBCHEM_CACTVS_ROTATABLE_BOND>
13

> <PUBCHEM_CACTVS_SUBSKEYS>
AAADcfB6OAwAAAAAAAAAAAAAAAAAAAAAAAAAAAAAAAAAAAAAAAAAHhAQAEAACDzhgAZCAABAAAEIAAgQgAAAAAAAAAAAAIGAAAADABYAgAAAAAAHMAAAAAH6XAFAAAAAAAAAAAAAAAAAAAAAAAAAAAAAAA==

> <PUBCHEM_IUPAC_OPENEYE_NAME>
2-amino-3,4,5,6-tetrakis(trimethylsilyloxy)hexanal

> <PUBCHEM_IUPAC_CAS_NAME>
2-amino-3,4,5,6-tetrakis(trimethylsilyloxy)hexanal

> <PUBCHEM_IUPAC_NAME>
2-amino-3,4,5,6-tetrakis(trimethylsilyloxy)hexanal

> <PUBCHEM_IUPAC_SYSTEMATIC_NAME>
2-azanyl-3,4,5,6-tetrakis(trimethylsilyloxy)hexanal

> <PUBCHEM_IUPAC_TRADITIONAL_NAME>
2-amino-3,4,5,6-tetrakis(trimethylsilyloxy)hexanal

> <PUBCHEM_IUPAC_INCHI>
InChI=1S/C18H45NO5Si4/c1-25(2,3)21-14-16(22-26(4,5)6)18(24-28(10,11)12)17(15(19)13-20)23-27(7,8)9/h13,15-18H,14,19H2,1-12H3

> <PUBCHEM_IUPAC_INCHIKEY>
RAQZXFWGVLXRMC-UHFFFAOYSA-N

> <PUBCHEM_EXACT_MASS>
467.23748

> <PUBCHEM_MOLECULAR_FORMULA>
C18H45NO5Si4

> <PUBCHEM_MOLECULAR_WEIGHT>
467.8956

> <PUBCHEM_OPENEYE_CAN_SMILES>
C[Si](C)(C)OCC(C(C(C(C=O)N)O[Si](C)(C)C)O[Si](C)(C)C)O[Si](C)(C)C

> <PUBCHEM_OPENEYE_ISO_SMILES>
C[Si](C)(C)OCC(C(C(C(C=O)N)O[Si](C)(C)C)O[Si](C)(C)C)O[Si](C)(C)C

> <PUBCHEM_CACTVS_TPSA>
80

> <PUBCHEM_MONOISOTOPIC_WEIGHT>
467.23748

> <PUBCHEM_TOTAL_CHARGE>
0

> <PUBCHEM_HEAVY_ATOM_COUNT>
28

> <PUBCHEM_ATOM_DEF_STEREO_COUNT>
0

> <PUBCHEM_ATOM_UDEF_STEREO_COUNT>
4

> <PUBCHEM_BOND_DEF_STEREO_COUNT>
0

> <PUBCHEM_BOND_UDEF_STEREO_COUNT>
0

> <PUBCHEM_ISOTOPIC_ATOM_COUNT>
0

> <PUBCHEM_COMPONENT_COUNT>
1

> <PUBCHEM_CACTVS_TAUTO_COUNT>
4

> <PUBCHEM_COORDINATE_TYPE>
1
5
255

> <PUBCHEM_BONDANNOTATIONS>
14  10  3
13  15  3
11  5  3
12  6  3

$$$$

