12819
  -OEChem-06261207242D

 21 22  0     0  0  0  0  0  0999 V2000
    2.5369   -0.2673    0.0000 O   0  0  0  0  0  0  0  0  0  0  0  0
    3.4030   -1.7673    0.0000 O   0  0  0  0  0  0  0  0  0  0  0  0
    5.1350    0.2327    0.0000 C   0  0  0  0  0  0  0  0  0  0  0  0
    5.1350    1.2327    0.0000 C   0  0  0  0  0  0  0  0  0  0  0  0
    4.2690   -0.2673    0.0000 C   0  0  0  0  0  0  0  0  0  0  0  0
    4.2690    1.7327    0.0000 C   0  0  0  0  0  0  0  0  0  0  0  0
    6.0290   -0.3020    0.0000 C   0  0  0  0  0  0  0  0  0  0  0  0
    3.4030    0.2327    0.0000 C   0  0  0  0  0  0  0  0  0  0  0  0
    6.0290    1.7673    0.0000 C   0  0  0  0  0  0  0  0  0  0  0  0
    3.4030    1.2327    0.0000 C   0  0  0  0  0  0  0  0  0  0  0  0
    6.9350    0.2119    0.0000 C   0  0  0  0  0  0  0  0  0  0  0  0
    6.9350    1.2535    0.0000 C   0  0  0  0  0  0  0  0  0  0  0  0
    4.2690   -1.2673    0.0000 C   0  0  0  0  0  0  0  0  0  0  0  0
    4.2690    2.3527    0.0000 H   0  0  0  0  0  0  0  0  0  0  0  0
    6.0218   -0.9220    0.0000 H   0  0  0  0  0  0  0  0  0  0  0  0
    6.0218    2.3873    0.0000 H   0  0  0  0  0  0  0  0  0  0  0  0
    2.8660    1.5427    0.0000 H   0  0  0  0  0  0  0  0  0  0  0  0
    7.4708   -0.1002    0.0000 H   0  0  0  0  0  0  0  0  0  0  0  0
    7.4708    1.5656    0.0000 H   0  0  0  0  0  0  0  0  0  0  0  0
    4.8059   -1.5773    0.0000 H   0  0  0  0  0  0  0  0  0  0  0  0
    2.0000    0.0427    0.0000 H   0  0  0  0  0  0  0  0  0  0  0  0
  1  8  1  0  0  0  0
  1 21  1  0  0  0  0
  2 13  2  0  0  0  0
  3  4  1  0  0  0  0
  3  5  1  0  0  0  0
  3  7  2  0  0  0  0
  4  6  1  0  0  0  0
  4  9  2  0  0  0  0
  5  8  2  0  0  0  0
  5 13  1  0  0  0  0
  6 10  2  0  0  0  0
  6 14  1  0  0  0  0
  7 11  1  0  0  0  0
  7 15  1  0  0  0  0
  8 10  1  0  0  0  0
  9 12  1  0  0  0  0
  9 16  1  0  0  0  0
 10 17  1  0  0  0  0
 11 12  2  0  0  0  0
 11 18  1  0  0  0  0
 12 19  1  0  0  0  0
 13 20  1  0  0  0  0
M  END
> <PUBCHEM_COMPOUND_CID>
12819

> <PUBCHEM_COMPOUND_CANONICALIZED>
1

> <PUBCHEM_CACTVS_COMPLEXITY>
191

> <PUBCHEM_CACTVS_HBOND_ACCEPTOR>
2

> <PUBCHEM_CACTVS_HBOND_DONOR>
1

> <PUBCHEM_CACTVS_ROTATABLE_BOND>
1

> <PUBCHEM_CACTVS_SUBSKEYS>
AAADccBwMAAAAAAAAAAAAAAAAAAAAAAAAAAwYAAAAAAAAADBUAAAGgAACAAADASgmAIwBsAAAgCIAihSgAACAAAkIAAIiAEGCMgIJjaCFRKAcUAk4BEImQeIyPCOoAADAAAYAABAAAYAADAAAAAAAAAAAA==

> <PUBCHEM_IUPAC_OPENEYE_NAME>
2-hydroxynaphthalene-1-carbaldehyde

> <PUBCHEM_IUPAC_CAS_NAME>
2-hydroxy-1-naphthalenecarboxaldehyde

> <PUBCHEM_IUPAC_NAME>
2-hydroxynaphthalene-1-carbaldehyde

> <PUBCHEM_IUPAC_SYSTEMATIC_NAME>
2-oxidanylnaphthalene-1-carbaldehyde

> <PUBCHEM_IUPAC_TRADITIONAL_NAME>
2-hydroxynaphthalene-1-carbaldehyde

> <PUBCHEM_IUPAC_INCHI>
InChI=1S/C11H8O2/c12-7-10-9-4-2-1-3-8(9)5-6-11(10)13/h1-7,13H

> <PUBCHEM_IUPAC_INCHIKEY>
NTCCNERMXRIPTR-UHFFFAOYSA-N

> <PUBCHEM_XLOGP3_AA>
2.8

> <PUBCHEM_EXACT_MASS>
172.052429

> <PUBCHEM_MOLECULAR_FORMULA>
C11H8O2

> <PUBCHEM_MOLECULAR_WEIGHT>
172.18002

> <PUBCHEM_OPENEYE_CAN_SMILES>
C1=CC=C2C(=C1)C=CC(=C2C=O)O

> <PUBCHEM_OPENEYE_ISO_SMILES>
C1=CC=C2C(=C1)C=CC(=C2C=O)O

> <PUBCHEM_CACTVS_TPSA>
37.3

> <PUBCHEM_MONOISOTOPIC_WEIGHT>
172.052429

> <PUBCHEM_TOTAL_CHARGE>
0

> <PUBCHEM_HEAVY_ATOM_COUNT>
13

> <PUBCHEM_ATOM_DEF_STEREO_COUNT>
0

> <PUBCHEM_ATOM_UDEF_STEREO_COUNT>
0

> <PUBCHEM_BOND_DEF_STEREO_COUNT>
0

> <PUBCHEM_BOND_UDEF_STEREO_COUNT>
0

> <PUBCHEM_ISOTOPIC_ATOM_COUNT>
0

> <PUBCHEM_COMPONENT_COUNT>
1

> <PUBCHEM_CACTVS_TAUTO_COUNT>
4

> <PUBCHEM_COORDINATE_TYPE>
1
5
255

> <PUBCHEM_BONDANNOTATIONS>
11  12  8
3  4  8
3  5  8
3  7  8
4  6  8
4  9  8
5  8  8
6  10  8
7  11  8
8  10  8
9  12  8

$$$$

