17395495
  -OEChem-06241222503D

 42 45  0     1  0  0  0  0  0999 V2000
   -3.2894    2.7404    0.8067 O   0  0  0  0  0  0  0  0  0  0  0  0
    1.2429   -0.8345    1.2206 N   0  0  2  0  0  0  0  0  0  0  0  0
   -1.4077   -0.8612    0.5312 N   0  0  0  0  0  0  0  0  0  0  0  0
   -3.1916    0.5861   -0.1216 N   0  0  0  0  0  0  0  0  0  0  0  0
    1.4425   -2.2750    1.3730 C   0  0  0  0  0  0  0  0  0  0  0  0
    1.9235   -2.8919    0.0680 C   0  0  0  0  0  0  0  0  0  0  0  0
    3.2384   -2.2499   -0.3499 C   0  0  0  0  0  0  0  0  0  0  0  0
    2.1672   -0.0951    0.4805 C   0  0  0  0  0  0  0  0  0  0  0  0
    3.1464   -0.7438   -0.3110 C   0  0  0  0  0  0  0  0  0  0  0  0
    0.2875   -0.1829    2.1049 C   0  0  0  0  0  0  0  0  0  0  0  0
    4.0855   -0.0014   -1.0483 C   0  0  0  0  0  0  0  0  0  0  0  0
    2.1621    1.3136    0.4615 C   0  0  0  0  0  0  0  0  0  0  0  0
   -0.9455    0.1450    1.3419 C   0  0  0  0  0  0  0  0  0  0  0  0
    4.0552    1.3883   -1.0368 C   0  0  0  0  0  0  0  0  0  0  0  0
    3.0913    2.0455   -0.2846 C   0  0  0  0  0  0  0  0  0  0  0  0
   -1.5306    1.3444    1.4644 C   0  0  0  0  0  0  0  0  0  0  0  0
    5.0502    2.1675   -1.8275 C   0  0  0  0  0  0  0  0  0  0  0  0
   -2.4837   -0.6244   -0.1584 C   0  0  0  0  0  0  0  0  0  0  0  0
   -2.7581    1.6382    0.6895 C   0  0  0  0  0  0  0  0  0  0  0  0
   -3.0186   -1.6941   -1.0529 C   0  0  0  0  0  0  0  0  0  0  0  0
   -4.3362    0.7585   -0.8918 C   0  0  0  0  0  0  0  0  0  0  0  0
   -4.1244   -1.4674   -1.7691 C   0  0  0  0  0  0  0  0  0  0  0  0
   -4.8071   -0.2061   -1.6901 C   0  0  0  0  0  0  0  0  0  0  0  0
    2.1678   -2.4603    2.1751 H   0  0  0  0  0  0  0  0  0  0  0  0
    0.5054   -2.7625    1.6668 H   0  0  0  0  0  0  0  0  0  0  0  0
    1.1681   -2.7373   -0.7135 H   0  0  0  0  0  0  0  0  0  0  0  0
    2.0554   -3.9733    0.1835 H   0  0  0  0  0  0  0  0  0  0  0  0
    3.4945   -2.5896   -1.3604 H   0  0  0  0  0  0  0  0  0  0  0  0
    4.0419   -2.5669    0.3260 H   0  0  0  0  0  0  0  0  0  0  0  0
    0.7236    0.6749    2.6303 H   0  0  0  0  0  0  0  0  0  0  0  0
    0.0048   -0.8751    2.9104 H   0  0  0  0  0  0  0  0  0  0  0  0
    4.8411   -0.5218   -1.6335 H   0  0  0  0  0  0  0  0  0  0  0  0
    1.4349    1.8918    1.0238 H   0  0  0  0  0  0  0  0  0  0  0  0
    3.0488    3.1315   -0.2638 H   0  0  0  0  0  0  0  0  0  0  0  0
   -1.1427    2.1205    2.1141 H   0  0  0  0  0  0  0  0  0  0  0  0
    4.6435    3.1381   -2.1311 H   0  0  0  0  0  0  0  0  0  0  0  0
    5.9529    2.3374   -1.2324 H   0  0  0  0  0  0  0  0  0  0  0  0
    5.3279    1.6362   -2.7442 H   0  0  0  0  0  0  0  0  0  0  0  0
   -2.4919   -2.6400   -1.1018 H   0  0  0  0  0  0  0  0  0  0  0  0
   -4.8444    1.7142   -0.8251 H   0  0  0  0  0  0  0  0  0  0  0  0
   -4.5292   -2.2301   -2.4247 H   0  0  0  0  0  0  0  0  0  0  0  0
   -5.7006   -0.0588   -2.2854 H   0  0  0  0  0  0  0  0  0  0  0  0
  1 19  2  0  0  0  0
  2  5  1  0  0  0  0
  2  8  1  0  0  0  0
  2 10  1  0  0  0  0
  3 13  1  0  0  0  0
  3 18  2  0  0  0  0
  4 18  1  0  0  0  0
  4 19  1  0  0  0  0
  4 21  1  0  0  0  0
  5  6  1  0  0  0  0
  5 24  1  0  0  0  0
  5 25  1  0  0  0  0
  6  7  1  0  0  0  0
  6 26  1  0  0  0  0
  6 27  1  0  0  0  0
  7  9  1  0  0  0  0
  7 28  1  0  0  0  0
  7 29  1  0  0  0  0
  8  9  2  0  0  0  0
  8 12  1  0  0  0  0
  9 11  1  0  0  0  0
 10 13  1  0  0  0  0
 10 30  1  0  0  0  0
 10 31  1  0  0  0  0
 11 14  2  0  0  0  0
 11 32  1  0  0  0  0
 12 15  2  0  0  0  0
 12 33  1  0  0  0  0
 13 16  2  0  0  0  0
 14 15  1  0  0  0  0
 14 17  1  0  0  0  0
 15 34  1  0  0  0  0
 16 19  1  0  0  0  0
 16 35  1  0  0  0  0
 17 36  1  0  0  0  0
 17 37  1  0  0  0  0
 17 38  1  0  0  0  0
 18 20  1  0  0  0  0
 20 22  2  0  0  0  0
 20 39  1  0  0  0  0
 21 23  2  0  0  0  0
 21 40  1  0  0  0  0
 22 23  1  0  0  0  0
 22 41  1  0  0  0  0
 23 42  1  0  0  0  0
M  END
> <PUBCHEM_COMPOUND_CID>
17395495

> <PUBCHEM_CONFORMER_RMSD>
0.6

> <PUBCHEM_CONFORMER_DIVERSEORDER>
1
24
2
28
16
21
22
18
27
23
6
19
4
14
20
12
13
15
17
8
9
26
7
5
25
3
11
10

> <PUBCHEM_MMFF94_PARTIAL_CHARGES>
30
1 -0.57
10 0.51
11 -0.15
12 -0.15
13 0.03
14 -0.14
15 -0.15
16 -0.14
17 0.14
18 0.5
19 0.62
2 -0.84
20 -0.14
21 -0.04
22 -0.15
23 -0.15
3 -0.62
32 0.15
33 0.15
34 0.15
35 0.15
39 0.15
4 -0.23
40 0.15
41 0.15
42 0.15
5 0.37
7 0.14
8 0.1
9 -0.14

> <PUBCHEM_EFFECTIVE_ROTOR_COUNT>
2.8

> <PUBCHEM_PHARMACOPHORE_FEATURES>
6
1 1 acceptor
1 2 cation
6 2 5 6 7 8 9 rings
6 3 4 13 16 18 19 rings
6 4 18 20 21 22 23 rings
6 8 9 11 12 14 15 rings

> <PUBCHEM_HEAVY_ATOM_COUNT>
23

> <PUBCHEM_ATOM_DEF_STEREO_COUNT>
0

> <PUBCHEM_ATOM_UDEF_STEREO_COUNT>
0

> <PUBCHEM_BOND_DEF_STEREO_COUNT>
0

> <PUBCHEM_BOND_UDEF_STEREO_COUNT>
0

> <PUBCHEM_ISOTOPIC_ATOM_COUNT>
0

> <PUBCHEM_COMPONENT_COUNT>
1

> <PUBCHEM_CACTVS_TAUTO_COUNT>
1

> <PUBCHEM_CONFORMER_ID>
01096F2700000001

> <PUBCHEM_MMFF94_ENERGY>
69.1815

> <PUBCHEM_FEATURE_SELFOVERLAP>
30.503

> <PUBCHEM_SHAPE_FINGERPRINT>
10165383 225 15910195603437951186
10498660 4 17418375774583682269
105312 117 17772731807386570924
10756046 5 18334293214217039890
10759866 29 18334860523636529382
10928967 22 17168439159883234383
11725454 13 16916796128098034818
12363563 72 15285366157812753827
12553582 1 17968384455293830355
12670546 177 18411143528122323743
12707595 3 16226057673252946731
12714826 92 16950286208792793491
12788726 201 17749101240742397753
13009979 54 17824824696393802690
13134695 92 16771569505776550418
13544653 18 5617265801481755762
15163728 17 17203601550270863782
15664445 248 17898310311354964209
15842332 3 18116143553156750898
16752209 62 17677061234421414631
19862831 5 18407760339196318467
20693207 138 17095536079920542921
21033648 29 15195568996323208340
22393880 68 18113611296822528764
22950370 63 9078847273078687064
23557571 272 17386587824067297857
23559900 14 17750254610748096251
23598291 2 18264208178509837313
238 59 18339637837603542722
238918 7 9724593758574325331
2838139 119 17632303311578965748
3004659 81 18262251026443619775
3082319 5 18335703866255611659
312425 83 18200603625703257397
340366 18 17830736817581268695
469060 322 15553587506173697419
474 4 18060698377455867828
495365 180 15410346579743662027
574716 61 18341334469812704397
633830 44 17987507277055613633
7471813 234 18125166180609466362
960060 61 18114480980460421599

> <PUBCHEM_SHAPE_MULTIPOLES>
452.52
10.01
2.83
1.82
1.74
0.47
0.04
-3.15
-7.17
-1.61
0
0.48
-0.1
-2.34

> <PUBCHEM_SHAPE_SELFOVERLAP>
993.877

> <PUBCHEM_SHAPE_VOLUME>
242.5

> <PUBCHEM_COORDINATE_TYPE>
2
5
10

$$$$

