12807
  -OEChem-06261207233D

 21 21  0     0  0  0  0  0  0999 V2000
    3.0489   -1.2253   -0.7092 O   0  5  0  0  0  0  0  0  0  0  0  0
    3.7511    0.7137    0.0640 O   0  0  0  0  0  0  0  0  0  0  0  0
    2.8785   -0.1320   -0.1592 N   0  3  0  0  0  0  0  0  0  0  0  0
   -0.8478   -0.2002   -0.2796 C   0  0  0  0  0  0  0  0  0  0  0  0
    0.5803   -0.3716   -0.4968 C   0  0  0  0  0  0  0  0  0  0  0  0
    1.5485    0.1831    0.2581 C   0  0  0  0  0  0  0  0  0  0  0  0
   -1.5353   -1.0756    0.5610 C   0  0  0  0  0  0  0  0  0  0  0  0
   -1.5295    0.8398   -0.9113 C   0  0  0  0  0  0  0  0  0  0  0  0
   -2.9047   -0.9110    0.7698 C   0  0  0  0  0  0  0  0  0  0  0  0
   -2.8988    1.0046   -0.7025 C   0  0  0  0  0  0  0  0  0  0  0  0
    1.4951    1.0455    1.4677 C   0  0  0  0  0  0  0  0  0  0  0  0
   -3.5863    0.1291    0.1381 C   0  0  0  0  0  0  0  0  0  0  0  0
    0.7966   -0.9792   -1.3736 H   0  0  0  0  0  0  0  0  0  0  0  0
   -1.0182   -1.8913    1.0606 H   0  0  0  0  0  0  0  0  0  0  0  0
   -1.0077    1.5305   -1.5695 H   0  0  0  0  0  0  0  0  0  0  0  0
   -3.4402   -1.5926    1.4242 H   0  0  0  0  0  0  0  0  0  0  0  0
   -3.4297    1.8144   -1.1942 H   0  0  0  0  0  0  0  0  0  0  0  0
    1.8718    2.0523    1.2574 H   0  0  0  0  0  0  0  0  0  0  0  0
    2.0780    0.6145    2.2893 H   0  0  0  0  0  0  0  0  0  0  0  0
    0.4689    1.1588    1.8324 H   0  0  0  0  0  0  0  0  0  0  0  0
   -4.6525    0.2574    0.3007 H   0  0  0  0  0  0  0  0  0  0  0  0
  1  3  1  0  0  0  0
  2  3  2  0  0  0  0
  3  6  1  0  0  0  0
  4  5  1  0  0  0  0
  4  7  2  0  0  0  0
  4  8  1  0  0  0  0
  5  6  2  0  0  0  0
  5 13  1  0  0  0  0
  6 11  1  0  0  0  0
  7  9  1  0  0  0  0
  7 14  1  0  0  0  0
  8 10  2  0  0  0  0
  8 15  1  0  0  0  0
  9 12  2  0  0  0  0
  9 16  1  0  0  0  0
 10 12  1  0  0  0  0
 10 17  1  0  0  0  0
 11 18  1  0  0  0  0
 11 19  1  0  0  0  0
 11 20  1  0  0  0  0
 12 21  1  0  0  0  0
M  CHG  2   1  -1   3   1
M  END
> <PUBCHEM_COMPOUND_CID>
12807

> <PUBCHEM_CONFORMER_RMSD>
0.6

> <PUBCHEM_CONFORMER_DIVERSEORDER>
1
3
2

> <PUBCHEM_MMFF94_PARTIAL_CHARGES>
18
1 -0.52
10 -0.15
11 0.14
12 -0.15
13 0.15
14 0.15
15 0.15
16 0.15
17 0.15
2 -0.52
21 0.15
3 0.84
4 0.03
5 -0.18
6 0.07
7 -0.15
8 -0.15
9 -0.15

> <PUBCHEM_EFFECTIVE_ROTOR_COUNT>
2

> <PUBCHEM_PHARMACOPHORE_FEATURES>
4
1 1 acceptor
1 1 anion
1 2 acceptor
6 4 7 8 9 10 12 rings

> <PUBCHEM_HEAVY_ATOM_COUNT>
12

> <PUBCHEM_ATOM_DEF_STEREO_COUNT>
0

> <PUBCHEM_ATOM_UDEF_STEREO_COUNT>
0

> <PUBCHEM_BOND_DEF_STEREO_COUNT>
0

> <PUBCHEM_BOND_UDEF_STEREO_COUNT>
1

> <PUBCHEM_ISOTOPIC_ATOM_COUNT>
0

> <PUBCHEM_COMPONENT_COUNT>
1

> <PUBCHEM_CACTVS_TAUTO_COUNT>
1

> <PUBCHEM_CONFORMER_ID>
0000320700000001

> <PUBCHEM_MMFF94_ENERGY>
36.4809

> <PUBCHEM_FEATURE_SELFOVERLAP>
20.376

> <PUBCHEM_SHAPE_FINGERPRINT>
10130415 120 18114184193798647914
10219947 1 17167858686193452614
10608611 8 18413393141581767108
10857977 72 18202286866578825073
11031198 65 18113615677414539316
11062470 55 9295285041024477255
124424 183 18261679263090180234
12932764 1 18261402125977827447
13024252 1 15554449596261859039
14144814 61 17275109444033877753
14325111 11 18201439202784422623
15219456 202 18410571811935130670
15775835 57 17676210147569505076
16945 1 17775013383881471095
17844478 74 18410006633025603449
190213 19 16271928220231913963
19422 9 16343703257019388674
20201158 50 18334293188431548207
20279233 1 18410576188670348510
20645464 45 18411139130202497311
20645477 70 18041279979954905966
20653085 51 17530975678590494897
20715346 28 18409454648086609617
20871998 184 18272360928813839763
369184 2 17821732710956142831
74978 22 16660934274624408964
77492 1 15502375629646910455

> <PUBCHEM_SHAPE_MULTIPOLES>
230.23
6.18
1.18
1.05
1.98
0.05
-0.28
-0.18
0.05
-0.47
0.02
0.36
-0.11
0.85

> <PUBCHEM_SHAPE_SELFOVERLAP>
478.118

> <PUBCHEM_SHAPE_VOLUME>
131.9

> <PUBCHEM_COORDINATE_TYPE>
2
5
10

$$$$

