47205212
  -OEChem-06241222582D

 33 35  0     1  0  0  0  0  0999 V2000
    6.5136   -1.1958    0.0000 O   0  0  0  0  0  0  0  0  0  0  0  0
    4.8406   -0.7475    0.0000 N   0  0  0  0  0  0  0  0  0  0  0  0
    3.2574   -2.9058    0.0000 N   0  0  0  0  0  0  0  0  0  0  0  0
    2.2588   -2.8535    0.0000 N   0  0  0  0  0  0  0  0  0  0  0  0
    7.7974    1.4772    0.0000 C   0  0  3  0  0  0  0  0  0  0  0  0
    8.0562    2.4432    0.0000 C   0  0  3  0  0  0  0  0  0  0  0  0
    7.3196    3.4258    0.0000 C   0  0  0  0  0  0  0  0  0  0  0  0
    6.0653    0.4773    0.0000 C   0  0  3  0  0  0  0  0  0  0  0  0
    5.5653    1.3433    0.0000 C   0  0  0  0  0  0  0  0  0  0  0  0
    9.6293    0.7184    0.0000 C   0  0  0  0  0  0  0  0  0  0  0  0
    9.8881    1.6844    0.0000 C   0  0  0  0  0  0  0  0  0  0  0  0
    5.8065   -0.4887    0.0000 C   0  0  0  0  0  0  0  0  0  0  0  0
    4.5817   -1.7134    0.0000 C   0  0  0  0  0  0  0  0  0  0  0  0
    3.6158   -1.9722    0.0000 C   0  0  0  0  0  0  0  0  0  0  0  0
    2.8387   -1.3429    0.0000 C   0  0  0  0  0  0  0  0  0  0  0  0
    2.0000   -1.8876    0.0000 C   0  0  0  0  0  0  0  0  0  0  0  0
    7.8379    0.8586    0.0000 H   0  0  0  0  0  0  0  0  0  0  0  0
    8.0633    1.8232    0.0000 H   0  0  0  0  0  0  0  0  0  0  0  0
    7.6374    3.9582    0.0000 H   0  0  0  0  0  0  0  0  0  0  0  0
    6.7064    3.5178    0.0000 H   0  0  0  0  0  0  0  0  0  0  0  0
    6.5572    0.0998    0.0000 H   0  0  0  0  0  0  0  0  0  0  0  0
    5.2946    1.9011    0.0000 H   0  0  0  0  0  0  0  0  0  0  0  0
    5.0176    1.0528    0.0000 H   0  0  0  0  0  0  0  0  0  0  0  0
    9.4173    0.1358    0.0000 H   0  0  0  0  0  0  0  0  0  0  0  0
   10.2206    0.5320    0.0000 H   0  0  0  0  0  0  0  0  0  0  0  0
   10.4794    1.4979    0.0000 H   0  0  0  0  0  0  0  0  0  0  0  0
   10.1002    2.2670    0.0000 H   0  0  0  0  0  0  0  0  0  0  0  0
    4.4022   -0.3091    0.0000 H   0  0  0  0  0  0  0  0  0  0  0  0
    4.6358   -2.3311    0.0000 H   0  0  0  0  0  0  0  0  0  0  0  0
    5.1994   -1.7674    0.0000 H   0  0  0  0  0  0  0  0  0  0  0  0
    2.8711   -0.7238    0.0000 H   0  0  0  0  0  0  0  0  0  0  0  0
    3.5951   -3.4258    0.0000 H   0  0  0  0  0  0  0  0  0  0  0  0
    1.4212   -1.6654    0.0000 H   0  0  0  0  0  0  0  0  0  0  0  0
  1 12  2  0  0  0  0
  2 12  1  0  0  0  0
  2 13  1  0  0  0  0
  2 28  1  0  0  0  0
  3  4  1  0  0  0  0
  3 14  1  0  0  0  0
  3 32  1  0  0  0  0
  4 16  2  0  0  0  0
  5  7  1  0  0  0  0
  5  8  1  0  0  0  0
  5 10  1  0  0  0  0
  5 17  1  0  0  0  0
  6  7  1  0  0  0  0
  6  9  1  0  0  0  0
  6 11  1  0  0  0  0
  6 18  1  0  0  0  0
  7 19  1  0  0  0  0
  7 20  1  0  0  0  0
  8  9  1  0  0  0  0
  8 12  1  0  0  0  0
  8 21  1  0  0  0  0
  9 22  1  0  0  0  0
  9 23  1  0  0  0  0
 10 11  1  0  0  0  0
 10 24  1  0  0  0  0
 10 25  1  0  0  0  0
 11 26  1  0  0  0  0
 11 27  1  0  0  0  0
 13 14  1  0  0  0  0
 13 29  1  0  0  0  0
 13 30  1  0  0  0  0
 14 15  2  0  0  0  0
 15 16  1  0  0  0  0
 15 31  1  0  0  0  0
 16 33  1  0  0  0  0
M  END
> <PUBCHEM_COMPOUND_CID>
47205212

> <PUBCHEM_COMPOUND_CANONICALIZED>
1

> <PUBCHEM_CACTVS_COMPLEXITY>
281

> <PUBCHEM_CACTVS_HBOND_ACCEPTOR>
2

> <PUBCHEM_CACTVS_HBOND_DONOR>
2

> <PUBCHEM_CACTVS_ROTATABLE_BOND>
3

> <PUBCHEM_CACTVS_SUBSKEYS>
AAADceBzIAAAAAAAAAAAAAAAAAAAAeMEAAAwAAAAAAAAAAABgAAAHgAYAAAADQjBlgQ8gJLjAACqATV3UACQBAAgggAYOaE4ZBgAYJIAwcEUhAhAHgCAQAEYiMCOgAAAAAAAAAAAAAQAACAAAQAACAAAAA==

> <PUBCHEM_IUPAC_OPENEYE_NAME>
N-(1H-pyrazol-5-ylmethyl)norbornane-2-carboxamide

> <PUBCHEM_IUPAC_CAS_NAME>
N-(1H-pyrazol-5-ylmethyl)-3-bicyclo[2.2.1]heptanecarboxamide

> <PUBCHEM_IUPAC_NAME>
N-(1H-pyrazol-5-ylmethyl)bicyclo[2.2.1]heptane-3-carboxamide

> <PUBCHEM_IUPAC_SYSTEMATIC_NAME>
N-(1H-pyrazol-5-ylmethyl)bicyclo[2.2.1]heptane-3-carboxamide

> <PUBCHEM_IUPAC_TRADITIONAL_NAME>
N-(1H-pyrazol-5-ylmethyl)norbornane-2-carboxamide

> <PUBCHEM_IUPAC_INCHI>
InChI=1S/C12H17N3O/c16-12(13-7-10-3-4-14-15-10)11-6-8-1-2-9(11)5-8/h3-4,8-9,11H,1-2,5-7H2,(H,13,16)(H,14,15)

> <PUBCHEM_IUPAC_INCHIKEY>
QYEKFUKKROILCA-UHFFFAOYSA-N

> <PUBCHEM_XLOGP3_AA>
1.4

> <PUBCHEM_EXACT_MASS>
219.137162

> <PUBCHEM_MOLECULAR_FORMULA>
C12H17N3O

> <PUBCHEM_MOLECULAR_WEIGHT>
219.28288

> <PUBCHEM_OPENEYE_CAN_SMILES>
C1CC2CC1CC2C(=O)NCC3=CC=NN3

> <PUBCHEM_OPENEYE_ISO_SMILES>
C1CC2CC1CC2C(=O)NCC3=CC=NN3

> <PUBCHEM_CACTVS_TPSA>
57.8

> <PUBCHEM_MONOISOTOPIC_WEIGHT>
219.137162

> <PUBCHEM_TOTAL_CHARGE>
0

> <PUBCHEM_HEAVY_ATOM_COUNT>
16

> <PUBCHEM_ATOM_DEF_STEREO_COUNT>
0

> <PUBCHEM_ATOM_UDEF_STEREO_COUNT>
3

> <PUBCHEM_BOND_DEF_STEREO_COUNT>
0

> <PUBCHEM_BOND_UDEF_STEREO_COUNT>
0

> <PUBCHEM_ISOTOPIC_ATOM_COUNT>
0

> <PUBCHEM_COMPONENT_COUNT>
1

> <PUBCHEM_CACTVS_TAUTO_COUNT>
4

> <PUBCHEM_COORDINATE_TYPE>
1
5
255

> <PUBCHEM_BONDANNOTATIONS>
14  15  8
15  16  8
3  14  8
3  4  8
4  16  8
5  10  3
6  11  3
8  12  3

$$$$

