8683
  -OEChem-06261203003D

 28 29  0     0  0  0  0  0  0999 V2000
   -0.5055    0.9306   -0.2572 N   0  0  0  0  0  0  0  0  0  0  0  0
    1.6961    2.5292    0.5818 N   0  0  0  0  0  0  0  0  0  0  0  0
    4.6503   -1.2733    0.0018 N   0  0  0  0  0  0  0  0  0  0  0  0
    0.7944    0.3930   -0.1876 C   0  0  0  0  0  0  0  0  0  0  0  0
    1.8773    1.1743    0.2241 C   0  0  0  0  0  0  0  0  0  0  0  0
   -1.7850    0.3605   -0.0929 C   0  0  0  0  0  0  0  0  0  0  0  0
    0.9991   -0.9445   -0.5357 C   0  0  0  0  0  0  0  0  0  0  0  0
    3.1565    0.6214    0.2869 C   0  0  0  0  0  0  0  0  0  0  0  0
    3.3569   -0.7143   -0.0616 C   0  0  0  0  0  0  0  0  0  0  0  0
    2.2781   -1.4972   -0.4729 C   0  0  0  0  0  0  0  0  0  0  0  0
   -2.8770    0.8860   -0.7838 C   0  0  0  0  0  0  0  0  0  0  0  0
   -1.9586   -0.7289    0.7609 C   0  0  0  0  0  0  0  0  0  0  0  0
   -4.1424    0.3225   -0.6207 C   0  0  0  0  0  0  0  0  0  0  0  0
   -3.2241   -1.2925    0.9239 C   0  0  0  0  0  0  0  0  0  0  0  0
   -4.3160   -0.7667    0.2330 C   0  0  0  0  0  0  0  0  0  0  0  0
   -0.5290    1.9097   -0.5258 H   0  0  0  0  0  0  0  0  0  0  0  0
    0.1840   -1.5738   -0.8830 H   0  0  0  0  0  0  0  0  0  0  0  0
    3.9987    1.2311    0.6076 H   0  0  0  0  0  0  0  0  0  0  0  0
    2.4225   -2.5378   -0.7520 H   0  0  0  0  0  0  0  0  0  0  0  0
   -2.7546    1.7340   -1.4526 H   0  0  0  0  0  0  0  0  0  0  0  0
   -1.1314   -1.1445    1.3296 H   0  0  0  0  0  0  0  0  0  0  0  0
   -4.9927    0.7317   -1.1584 H   0  0  0  0  0  0  0  0  0  0  0  0
   -3.3607   -2.1372    1.5927 H   0  0  0  0  0  0  0  0  0  0  0  0
    0.7707    2.9346    0.6004 H   0  0  0  0  0  0  0  0  0  0  0  0
    2.4884    3.0785    0.8882 H   0  0  0  0  0  0  0  0  0  0  0  0
   -5.3016   -1.2047    0.3610 H   0  0  0  0  0  0  0  0  0  0  0  0
    5.4328   -0.7065    0.3005 H   0  0  0  0  0  0  0  0  0  0  0  0
    4.7959   -2.2419   -0.2501 H   0  0  0  0  0  0  0  0  0  0  0  0
  1  4  1  0  0  0  0
  1  6  1  0  0  0  0
  1 16  1  0  0  0  0
  2  5  1  0  0  0  0
  2 24  1  0  0  0  0
  2 25  1  0  0  0  0
  3  9  1  0  0  0  0
  3 27  1  0  0  0  0
  3 28  1  0  0  0  0
  4  5  2  0  0  0  0
  4  7  1  0  0  0  0
  5  8  1  0  0  0  0
  6 11  2  0  0  0  0
  6 12  1  0  0  0  0
  7 10  2  0  0  0  0
  7 17  1  0  0  0  0
  8  9  2  0  0  0  0
  8 18  1  0  0  0  0
  9 10  1  0  0  0  0
 10 19  1  0  0  0  0
 11 13  1  0  0  0  0
 11 20  1  0  0  0  0
 12 14  2  0  0  0  0
 12 21  1  0  0  0  0
 13 15  2  0  0  0  0
 13 22  1  0  0  0  0
 14 15  1  0  0  0  0
 14 23  1  0  0  0  0
 15 26  1  0  0  0  0
M  END
> <PUBCHEM_COMPOUND_CID>
8683

> <PUBCHEM_CONFORMER_RMSD>
0.6

> <PUBCHEM_CONFORMER_DIVERSEORDER>
1
5
3
2
4

> <PUBCHEM_MMFF94_PARTIAL_CHARGES>
28
1 -0.6
10 -0.15
11 -0.15
12 -0.15
13 -0.15
14 -0.15
15 -0.15
16 0.4
17 0.15
18 0.15
19 0.15
2 -0.9
20 0.15
21 0.15
22 0.15
23 0.15
24 0.4
25 0.4
26 0.15
27 0.4
28 0.4
3 -0.9
4 0.1
5 0.1
6 0.1
7 -0.15
8 -0.15
9 0.1

> <PUBCHEM_EFFECTIVE_ROTOR_COUNT>
2

> <PUBCHEM_PHARMACOPHORE_FEATURES>
8
1 1 cation
1 1 donor
1 2 cation
1 2 donor
1 3 cation
1 3 donor
6 4 5 7 8 9 10 rings
6 6 11 12 13 14 15 rings

> <PUBCHEM_HEAVY_ATOM_COUNT>
15

> <PUBCHEM_ATOM_DEF_STEREO_COUNT>
0

> <PUBCHEM_ATOM_UDEF_STEREO_COUNT>
0

> <PUBCHEM_BOND_DEF_STEREO_COUNT>
0

> <PUBCHEM_BOND_UDEF_STEREO_COUNT>
0

> <PUBCHEM_ISOTOPIC_ATOM_COUNT>
0

> <PUBCHEM_COMPONENT_COUNT>
1

> <PUBCHEM_CACTVS_TAUTO_COUNT>
1

> <PUBCHEM_CONFORMER_ID>
000021EB00000001

> <PUBCHEM_MMFF94_ENERGY>
77.219

> <PUBCHEM_FEATURE_SELFOVERLAP>
40.6

> <PUBCHEM_SHAPE_FINGERPRINT>
10465860 250 18341619269220676466
10608611 8 18413112740710890229
11471102 20 18335423452257174772
11543360 7 16917053456905764126
11615757 297 17894625929224957473
12032990 46 18412542119581491588
12236239 1 16588026813975009119
12251169 10 18186518791298748070
124424 183 18342740744910381350
12500047 106 17989213689300712839
13296908 3 18272931592343349683
14115302 16 17846769724175425775
14252887 29 17749668593037251734
15219456 202 18412547574374749185
15242439 84 18272656774660913109
15375358 24 18413674612511189807
15653759 3 18202563968988632619
17804303 29 18343861125995147839
18175812 5 18342176644058569421
18186145 218 17988651800320329509
19049666 15 18270123547004543365
19141452 34 18339353060393652091
200 152 17967538978027755655
20201158 50 18411417336514085803
20279233 1 18413668015483705623
20645476 183 14476956758020545979
20645477 70 18334298668846774079
20671657 53 18335977657567497632
20871998 22 17969493991290632470
21065201 7 17632585933142827185
21730867 7 18409445847571974064
221490 88 18341044104106199066
23402539 116 17917719032167663863
23559900 14 18202568366966747468
26918003 58 18334013904273157155
3286 77 18410292493026675869
474 4 16300099795822100736
5104073 3 18410573989504610545
69090 78 18410016503351222439
7364860 26 18337389323308437620
77492 1 16660362554527279677
8809292 202 18273491269326210187
9709674 26 18199748042622338579

> <PUBCHEM_SHAPE_MULTIPOLES>
293.75
8.42
1.73
0.84
1.52
0.51
-0.02
-2.36
-0.03
-0.99
-0.21
0.38
-0.04
0.99

> <PUBCHEM_SHAPE_SELFOVERLAP>
631.083

> <PUBCHEM_SHAPE_VOLUME>
161.5

> <PUBCHEM_COORDINATE_TYPE>
2
5
10

$$$$

