17395505
  -OEChem-06241222503D

 35 35  0     0  0  0  0  0  0999 V2000
   -2.2221   -1.7928   -0.2790 O   0  0  0  0  0  0  0  0  0  0  0  0
    3.9249    0.6488   -0.3702 O   0  0  0  0  0  0  0  0  0  0  0  0
    3.5634   -1.4242    0.5397 O   0  0  0  0  0  0  0  0  0  0  0  0
   -0.1747    1.1522    0.1143 N   0  0  0  0  0  0  0  0  0  0  0  0
   -2.8930    0.4060   -0.1008 N   0  0  0  0  0  0  0  0  0  0  0  0
   -0.5392   -0.1592   -0.0454 C   0  0  0  0  0  0  0  0  0  0  0  0
    0.6109   -0.9168   -0.0703 C   0  0  0  0  0  0  0  0  0  0  0  0
    1.7054   -0.0296    0.0801 C   0  0  0  0  0  0  0  0  0  0  0  0
    1.1906    1.2430    0.1926 C   0  0  0  0  0  0  0  0  0  0  0  0
   -4.3071    0.1285   -0.1698 C   0  0  0  0  0  0  0  0  0  0  0  0
   -1.9357   -0.6018   -0.1623 C   0  0  0  0  0  0  0  0  0  0  0  0
    0.6905   -2.3846   -0.2257 C   0  0  0  0  0  0  0  0  0  0  0  0
    1.8547    2.5496    0.3675 C   0  0  0  0  0  0  0  0  0  0  0  0
   -5.0408    1.2817   -0.8422 C   0  0  0  0  0  0  0  0  0  0  0  0
   -4.8666   -0.1461    1.2206 C   0  0  0  0  0  0  0  0  0  0  0  0
    3.1044   -0.3498    0.1149 C   0  0  0  0  0  0  0  0  0  0  0  0
    5.3343    0.3951   -0.3642 C   0  0  0  0  0  0  0  0  0  0  0  0
   -4.4523   -0.7705   -0.7811 H   0  0  0  0  0  0  0  0  0  0  0  0
   -0.8033    1.9410    0.1663 H   0  0  0  0  0  0  0  0  0  0  0  0
   -2.6228    1.3704    0.0555 H   0  0  0  0  0  0  0  0  0  0  0  0
    0.3873   -2.8839    0.7002 H   0  0  0  0  0  0  0  0  0  0  0  0
    0.0395   -2.7306   -1.0352 H   0  0  0  0  0  0  0  0  0  0  0  0
    1.6977   -2.7258   -0.4787 H   0  0  0  0  0  0  0  0  0  0  0  0
    2.3340    2.8664   -0.5643 H   0  0  0  0  0  0  0  0  0  0  0  0
    1.1411    3.3292    0.6552 H   0  0  0  0  0  0  0  0  0  0  0  0
    2.6158    2.5008    1.1530 H   0  0  0  0  0  0  0  0  0  0  0  0
   -4.9275    2.2118   -0.2739 H   0  0  0  0  0  0  0  0  0  0  0  0
   -4.6447    1.4600   -1.8479 H   0  0  0  0  0  0  0  0  0  0  0  0
   -6.1104    1.0659   -0.9327 H   0  0  0  0  0  0  0  0  0  0  0  0
   -4.7309    0.7182    1.8804 H   0  0  0  0  0  0  0  0  0  0  0  0
   -4.3593   -0.9978    1.6866 H   0  0  0  0  0  0  0  0  0  0  0  0
   -5.9363   -0.3754    1.1739 H   0  0  0  0  0  0  0  0  0  0  0  0
    5.8395    1.2729   -0.7755 H   0  0  0  0  0  0  0  0  0  0  0  0
    5.5641   -0.4707   -0.9920 H   0  0  0  0  0  0  0  0  0  0  0  0
    5.6837    0.2348    0.6600 H   0  0  0  0  0  0  0  0  0  0  0  0
  1 11  2  0  0  0  0
  2 16  1  0  0  0  0
  2 17  1  0  0  0  0
  3 16  2  0  0  0  0
  4  6  1  0  0  0  0
  4  9  1  0  0  0  0
  4 19  1  0  0  0  0
  5 10  1  0  0  0  0
  5 11  1  0  0  0  0
  5 20  1  0  0  0  0
  6  7  2  0  0  0  0
  6 11  1  0  0  0  0
  7  8  1  0  0  0  0
  7 12  1  0  0  0  0
  8  9  2  0  0  0  0
  8 16  1  0  0  0  0
  9 13  1  0  0  0  0
 10 14  1  0  0  0  0
 10 15  1  0  0  0  0
 10 18  1  0  0  0  0
 12 21  1  0  0  0  0
 12 22  1  0  0  0  0
 12 23  1  0  0  0  0
 13 24  1  0  0  0  0
 13 25  1  0  0  0  0
 13 26  1  0  0  0  0
 14 27  1  0  0  0  0
 14 28  1  0  0  0  0
 14 29  1  0  0  0  0
 15 30  1  0  0  0  0
 15 31  1  0  0  0  0
 15 32  1  0  0  0  0
 17 33  1  0  0  0  0
 17 34  1  0  0  0  0
 17 35  1  0  0  0  0
M  END
> <PUBCHEM_COMPOUND_CID>
17395505

> <PUBCHEM_CONFORMER_RMSD>
0.6

> <PUBCHEM_CONFORMER_DIVERSEORDER>
2
19
47
38
42
11
27
9
40
32
30
8
43
1
36
46
41
4
29
15
7
33
13
24
14
10
3
37
16
12
44
31
20
18
26
34
21
6
35
25
17
23
28
39
45
5
22

> <PUBCHEM_MMFF94_PARTIAL_CHARGES>
17
1 -0.57
10 0.3
11 0.71
12 0.18
13 0.18
16 0.81
17 0.28
19 0.27
2 -0.43
20 0.37
3 -0.57
4 0.03
5 -0.73
6 -0.24
7 -0.18
8 -0.09
9 -0.33

> <PUBCHEM_EFFECTIVE_ROTOR_COUNT>
5

> <PUBCHEM_PHARMACOPHORE_FEATURES>
7
1 1 acceptor
1 3 acceptor
1 4 cation
1 4 donor
1 5 donor
3 10 14 15 hydrophobe
5 4 6 7 8 9 rings

> <PUBCHEM_HEAVY_ATOM_COUNT>
17

> <PUBCHEM_ATOM_DEF_STEREO_COUNT>
0

> <PUBCHEM_ATOM_UDEF_STEREO_COUNT>
0

> <PUBCHEM_BOND_DEF_STEREO_COUNT>
0

> <PUBCHEM_BOND_UDEF_STEREO_COUNT>
0

> <PUBCHEM_ISOTOPIC_ATOM_COUNT>
0

> <PUBCHEM_COMPONENT_COUNT>
1

> <PUBCHEM_CACTVS_TAUTO_COUNT>
5

> <PUBCHEM_CONFORMER_ID>
01096F3100000002

> <PUBCHEM_MMFF94_ENERGY>
23.1346

> <PUBCHEM_FEATURE_SELFOVERLAP>
35.523

> <PUBCHEM_SHAPE_FINGERPRINT>
10967382 1 18409168835340648966
11401426 45 18261115153769837132
11471102 20 18409735087986667055
13140716 1 18335984147331666987
13675066 3 18202563969088833489
13760787 19 18202002114410543106
13862211 1 18336270123508248870
13922767 16 18334861601615018657
14911166 2 18334856112942122612
14993402 34 18334292059361337190
15048467 5 17846497028533900492
15099037 51 18334857212200458420
15196674 1 18411702097161967863
15242433 33 18412544314689802374
15475509 8 17678989773558775748
1601671 61 18409448098435563052
16945 1 18336272313651075143
18186145 218 18261396602618197289
19784866 9 18202285818533108034
20645477 70 18338802328735899591
21267235 1 18339071692500693938
21709351 56 18336553737647419485
231179 274 18343305894219231391
23402539 116 18187090545971906749
23402655 69 18261681466957133501
23557571 272 5256412682341988915
23558518 356 17910116806873295226
23559900 14 18041560244441590696
25 1 18412832390788608415
2748010 2 18193561068795701364
293599 30 18410854339600659556
335352 9 18409449176815142132
34934 24 18337116679200783722
350125 39 18265891350829855499
4072396 5 18338814414931814386
4340502 62 16845573110988769946
5104073 3 18336549291902678762
537710 114 18411979170261228916
602551 16 16343406324893152283

> <PUBCHEM_SHAPE_MULTIPOLES>
322.28
10.06
2
0.78
4.16
0.01
-0.08
2.12
0.34
-0.77
0
0.58
0.05
0.28

> <PUBCHEM_SHAPE_SELFOVERLAP>
659.832

> <PUBCHEM_SHAPE_VOLUME>
189

> <PUBCHEM_COORDINATE_TYPE>
2
5
10

$$$$

