12364
  -OEChem-06261206523D

 22 21  0     0  0  0  0  0  0999 V2000
    3.3603    1.2772    0.0798 O   0  0  0  0  0  0  0  0  0  0  0  0
   -3.3605   -1.2771    0.0799 O   0  0  0  0  0  0  0  0  0  0  0  0
    4.2441   -0.8444    0.0594 N   0  0  0  0  0  0  0  0  0  0  0  0
   -4.2439    0.8448    0.0595 N   0  0  0  0  0  0  0  0  0  0  0  0
    0.6776    0.3589   -0.1021 C   0  0  0  0  0  0  0  0  0  0  0  0
   -0.6776   -0.3595   -0.1021 C   0  0  0  0  0  0  0  0  0  0  0  0
    1.8512   -0.6189   -0.0619 C   0  0  0  0  0  0  0  0  0  0  0  0
   -1.8510    0.6187   -0.0619 C   0  0  0  0  0  0  0  0  0  0  0  0
    3.2050    0.0608    0.0247 C   0  0  0  0  0  0  0  0  0  0  0  0
   -3.2051   -0.0606    0.0246 C   0  0  0  0  0  0  0  0  0  0  0  0
    0.7581    0.9946   -0.9925 H   0  0  0  0  0  0  0  0  0  0  0  0
    0.7330    1.0280    0.7659 H   0  0  0  0  0  0  0  0  0  0  0  0
   -0.7582   -0.9950   -0.9926 H   0  0  0  0  0  0  0  0  0  0  0  0
   -0.7333   -1.0285    0.7658 H   0  0  0  0  0  0  0  0  0  0  0  0
    1.8398   -1.2471   -0.9607 H   0  0  0  0  0  0  0  0  0  0  0  0
    1.7523   -1.2801    0.8078 H   0  0  0  0  0  0  0  0  0  0  0  0
   -1.8394    1.2469   -0.9607 H   0  0  0  0  0  0  0  0  0  0  0  0
   -1.7519    1.2797    0.8078 H   0  0  0  0  0  0  0  0  0  0  0  0
    5.2070   -0.5312    0.1240 H   0  0  0  0  0  0  0  0  0  0  0  0
    4.0919   -1.8472    0.0194 H   0  0  0  0  0  0  0  0  0  0  0  0
   -4.0915    1.8475    0.0194 H   0  0  0  0  0  0  0  0  0  0  0  0
   -5.2069    0.5317    0.1241 H   0  0  0  0  0  0  0  0  0  0  0  0
  1  9  2  0  0  0  0
  2 10  2  0  0  0  0
  3  9  1  0  0  0  0
  3 19  1  0  0  0  0
  3 20  1  0  0  0  0
  4 10  1  0  0  0  0
  4 21  1  0  0  0  0
  4 22  1  0  0  0  0
  5  6  1  0  0  0  0
  5  7  1  0  0  0  0
  5 11  1  0  0  0  0
  5 12  1  0  0  0  0
  6  8  1  0  0  0  0
  6 13  1  0  0  0  0
  6 14  1  0  0  0  0
  7  9  1  0  0  0  0
  7 15  1  0  0  0  0
  7 16  1  0  0  0  0
  8 10  1  0  0  0  0
  8 17  1  0  0  0  0
  8 18  1  0  0  0  0
M  END
> <PUBCHEM_COMPOUND_CID>
12364

> <PUBCHEM_CONFORMER_RMSD>
0.6

> <PUBCHEM_CONFORMER_DIVERSEORDER>
1
78
21
70
3
19
79
28
82
6
61
95
80
26
40
74
5
34
73
48
66
62
8
75
71
58
42
77
33
72
67
27
12
51
76
84
87
52
25
10
64
15
89
47
24
83
90
37
57
2
85
23
38
20
88
35
91
96
49
22
81
59
50
65
13
30
97
17
11
94
54
32
18
53
69
92
43
31
68
60
45
44
39
86
56
63
14
46
4
55
36
9
93
41
7
16
29

> <PUBCHEM_MMFF94_PARTIAL_CHARGES>
12
1 -0.57
10 0.57
19 0.37
2 -0.57
20 0.37
21 0.37
22 0.37
3 -0.8
4 -0.8
7 0.06
8 0.06
9 0.57

> <PUBCHEM_EFFECTIVE_ROTOR_COUNT>
5

> <PUBCHEM_PHARMACOPHORE_FEATURES>
5
1 1 acceptor
1 2 acceptor
1 3 donor
1 4 donor
4 5 6 7 8 hydrophobe

> <PUBCHEM_HEAVY_ATOM_COUNT>
10

> <PUBCHEM_ATOM_DEF_STEREO_COUNT>
0

> <PUBCHEM_ATOM_UDEF_STEREO_COUNT>
0

> <PUBCHEM_BOND_DEF_STEREO_COUNT>
0

> <PUBCHEM_BOND_UDEF_STEREO_COUNT>
0

> <PUBCHEM_ISOTOPIC_ATOM_COUNT>
0

> <PUBCHEM_COMPONENT_COUNT>
1

> <PUBCHEM_CACTVS_TAUTO_COUNT>
3

> <PUBCHEM_CONFORMER_ID>
0000304C00000001

> <PUBCHEM_MMFF94_ENERGY>
10.4761

> <PUBCHEM_FEATURE_SELFOVERLAP>
25.371

> <PUBCHEM_SHAPE_FINGERPRINT>
11062470 55 18413670218685714981
12932764 1 17417824945069914622
14325111 11 18410573972271837015
18186145 218 18060707190628357036
190213 19 17458061573156988082
20279233 1 18113612404776216239
20645477 70 18042123313784081071
20719005 15 18410293614324285391
20828058 44 18409450288589458523
22485316 2 18341898493175685427
23402539 116 18260276260467445324

> <PUBCHEM_SHAPE_MULTIPOLES>
184.09
8.6
1.08
0.58
0
0
0.01
0
-0.39
0
-0.02
0
0
0.03

> <PUBCHEM_SHAPE_SELFOVERLAP>
342.315

> <PUBCHEM_SHAPE_VOLUME>
114.8

> <PUBCHEM_COORDINATE_TYPE>
2
5
10

$$$$

