9302
  -OEChem-06261203353D

 20 20  0     0  0  0  0  0  0999 V2000
   -3.1153   -0.6068   -0.0740 O   0  0  0  0  0  0  0  0  0  0  0  0
    2.8904    0.4913   -1.0227 O   0  0  0  0  0  0  0  0  0  0  0  0
   -1.2656    0.7912    0.0646 N   0  0  0  0  0  0  0  0  0  0  0  0
    0.0910    0.9497    0.1470 N   0  0  0  0  0  0  0  0  0  0  0  0
    2.8416   -0.1738    1.2062 N   0  0  0  0  0  0  0  0  0  0  0  0
    0.3296   -1.4242   -0.4894 C   0  0  0  0  0  0  0  0  0  0  0  0
   -0.9939   -1.6441    0.1987 C   0  0  0  0  0  0  0  0  0  0  0  0
    0.8342   -0.0795   -0.0873 C   0  0  0  0  0  0  0  0  0  0  0  0
   -1.8969   -0.4480    0.0227 C   0  0  0  0  0  0  0  0  0  0  0  0
   -2.0221    2.0319    0.0550 C   0  0  0  0  0  0  0  0  0  0  0  0
    2.3071    0.1123   -0.0208 C   0  0  0  0  0  0  0  0  0  0  0  0
    0.2143   -1.4296   -1.5790 H   0  0  0  0  0  0  0  0  0  0  0  0
    1.0449   -2.2044   -0.2124 H   0  0  0  0  0  0  0  0  0  0  0  0
   -0.8518   -1.7944    1.2755 H   0  0  0  0  0  0  0  0  0  0  0  0
   -1.4865   -2.5329   -0.2089 H   0  0  0  0  0  0  0  0  0  0  0  0
   -1.7049    2.6315   -0.8033 H   0  0  0  0  0  0  0  0  0  0  0  0
   -1.8154    2.5772    0.9805 H   0  0  0  0  0  0  0  0  0  0  0  0
   -3.0963    1.8436   -0.0166 H   0  0  0  0  0  0  0  0  0  0  0  0
    3.8374   -0.0821    1.3775 H   0  0  0  0  0  0  0  0  0  0  0  0
    2.2719   -0.4866    1.9860 H   0  0  0  0  0  0  0  0  0  0  0  0
  1  9  2  0  0  0  0
  2 11  2  0  0  0  0
  3  4  1  0  0  0  0
  3  9  1  0  0  0  0
  3 10  1  0  0  0  0
  4  8  2  0  0  0  0
  5 11  1  0  0  0  0
  5 19  1  0  0  0  0
  5 20  1  0  0  0  0
  6  7  1  0  0  0  0
  6  8  1  0  0  0  0
  6 12  1  0  0  0  0
  6 13  1  0  0  0  0
  7  9  1  0  0  0  0
  7 14  1  0  0  0  0
  7 15  1  0  0  0  0
  8 11  1  0  0  0  0
 10 16  1  0  0  0  0
 10 17  1  0  0  0  0
 10 18  1  0  0  0  0
M  END
> <PUBCHEM_COMPOUND_CID>
9302

> <PUBCHEM_CONFORMER_RMSD>
0.4

> <PUBCHEM_CONFORMER_DIVERSEORDER>
1
5
4
3
6
2

> <PUBCHEM_MMFF94_PARTIAL_CHARGES>
13
1 -0.57
10 0.3
11 0.63
19 0.37
2 -0.57
20 0.37
3 -0.3
4 -0.51
5 -0.8
6 0.06
7 0.06
8 0.39
9 0.57

> <PUBCHEM_EFFECTIVE_ROTOR_COUNT>
1.6

> <PUBCHEM_PHARMACOPHORE_FEATURES>
5
1 1 acceptor
1 2 acceptor
1 4 acceptor
1 5 donor
6 3 4 6 7 8 9 rings

> <PUBCHEM_HEAVY_ATOM_COUNT>
11

> <PUBCHEM_ATOM_DEF_STEREO_COUNT>
0

> <PUBCHEM_ATOM_UDEF_STEREO_COUNT>
0

> <PUBCHEM_BOND_DEF_STEREO_COUNT>
0

> <PUBCHEM_BOND_UDEF_STEREO_COUNT>
0

> <PUBCHEM_ISOTOPIC_ATOM_COUNT>
0

> <PUBCHEM_COMPONENT_COUNT>
1

> <PUBCHEM_CACTVS_TAUTO_COUNT>
2

> <PUBCHEM_CONFORMER_ID>
0000245600000001

> <PUBCHEM_MMFF94_ENERGY>
22.0462

> <PUBCHEM_FEATURE_SELFOVERLAP>
25.372

> <PUBCHEM_SHAPE_FINGERPRINT>
10857977 72 18261961751626405907
11206711 2 18409169913488372901
12897270 3 18407758131741273519
12932764 1 17530966890760268742
13380535 21 18045484555458481177
13380535 76 18194409007462755605
14325111 11 18410009978873555828
15310529 11 16988570065057350911
16945 1 18409449154802449399
20645464 45 17676497116168089898
20871998 184 18116146680030481823
21028194 46 18261393390177747770
21040471 1 18337107985590799710
23235685 24 18409729551784436951
23402655 69 18191603033015851637
23552423 10 18198900499166284238
2748010 2 18192704768566021159
369184 2 18411991234270443026
5084963 1 18040988544800906902

> <PUBCHEM_SHAPE_MULTIPOLES>
199.69
4.19
1.67
0.8
1.15
0.19
0.05
0.62
0.12
-1.15
-0.04
0.55
-0.01
-0.1

> <PUBCHEM_SHAPE_SELFOVERLAP>
405.728

> <PUBCHEM_SHAPE_VOLUME>
116

> <PUBCHEM_COORDINATE_TYPE>
2
5
10

$$$$

