4963
  -OEChem-06261200262D

 47 47  0     0  0  0  0  0  0999 V2000
    3.7320    1.3100    0.0000 S   0  0  0  0  0  0  0  0  0  0  0  0
    3.7320    2.3100    0.0000 S   0  0  0  0  0  0  0  0  0  0  0  0
    6.3301    2.8100    0.0000 O   0  0  0  0  0  0  0  0  0  0  0  0
    6.3301    0.8100    0.0000 O   0  0  0  0  0  0  0  0  0  0  0  0
    5.4641   -0.6900    0.0000 N   0  0  0  0  0  0  0  0  0  0  0  0
    7.1962   -3.6900    0.0000 N   0  0  0  0  0  0  0  0  0  0  0  0
    8.0622   -2.1900    0.0000 N   0  0  0  0  0  0  0  0  0  0  0  0
    5.4641   -3.6900    0.0000 N   0  0  0  0  0  0  0  0  0  0  0  0
    4.5981   -0.1900    0.0000 C   0  0  0  0  0  0  0  0  0  0  0  0
    5.4641   -1.6900    0.0000 C   0  0  0  0  0  0  0  0  0  0  0  0
    4.5981    0.8100    0.0000 C   0  0  0  0  0  0  0  0  0  0  0  0
    5.4641    1.3100    0.0000 C   0  0  0  0  0  0  0  0  0  0  0  0
    6.3301   -2.1900    0.0000 C   0  0  0  0  0  0  0  0  0  0  0  0
    3.7320   -0.6900    0.0000 C   0  0  0  0  0  0  0  0  0  0  0  0
    5.4641    2.3100    0.0000 C   0  0  0  0  0  0  0  0  0  0  0  0
    6.3301   -3.1900    0.0000 C   0  0  0  0  0  0  0  0  0  0  0  0
    7.1962   -1.6900    0.0000 C   0  0  0  0  0  0  0  0  0  0  0  0
    6.3301   -0.1900    0.0000 C   0  0  0  0  0  0  0  0  0  0  0  0
    2.8660    2.8100    0.0000 C   0  0  0  0  0  0  0  0  0  0  0  0
    2.8660    3.8100    0.0000 C   0  0  0  0  0  0  0  0  0  0  0  0
    8.0622   -3.1900    0.0000 C   0  0  0  0  0  0  0  0  0  0  0  0
    2.0000    4.3100    0.0000 C   0  0  0  0  0  0  0  0  0  0  0  0
    8.9282   -3.6900    0.0000 C   0  0  0  0  0  0  0  0  0  0  0  0
    4.8535   -1.5823    0.0000 H   0  0  0  0  0  0  0  0  0  0  0  0
    5.2520   -2.2726    0.0000 H   0  0  0  0  0  0  0  0  0  0  0  0
    5.6762    0.7274    0.0000 H   0  0  0  0  0  0  0  0  0  0  0  0
    6.0747    1.4177    0.0000 H   0  0  0  0  0  0  0  0  0  0  0  0
    3.4220   -0.1531    0.0000 H   0  0  0  0  0  0  0  0  0  0  0  0
    3.1951   -1.0000    0.0000 H   0  0  0  0  0  0  0  0  0  0  0  0
    4.0420   -1.2269    0.0000 H   0  0  0  0  0  0  0  0  0  0  0  0
    5.2520    2.8926    0.0000 H   0  0  0  0  0  0  0  0  0  0  0  0
    4.8535    2.2023    0.0000 H   0  0  0  0  0  0  0  0  0  0  0  0
    7.1962   -1.0700    0.0000 H   0  0  0  0  0  0  0  0  0  0  0  0
    6.8671   -0.5000    0.0000 H   0  0  0  0  0  0  0  0  0  0  0  0
    2.2554    2.9177    0.0000 H   0  0  0  0  0  0  0  0  0  0  0  0
    2.6540    2.2274    0.0000 H   0  0  0  0  0  0  0  0  0  0  0  0
    3.4766    3.7023    0.0000 H   0  0  0  0  0  0  0  0  0  0  0  0
    3.0781    4.3926    0.0000 H   0  0  0  0  0  0  0  0  0  0  0  0
    5.4641   -4.3100    0.0000 H   0  0  0  0  0  0  0  0  0  0  0  0
    4.9272   -3.3800    0.0000 H   0  0  0  0  0  0  0  0  0  0  0  0
    2.3100    4.8469    0.0000 H   0  0  0  0  0  0  0  0  0  0  0  0
    1.4631    4.6200    0.0000 H   0  0  0  0  0  0  0  0  0  0  0  0
    1.6900    3.7731    0.0000 H   0  0  0  0  0  0  0  0  0  0  0  0
    8.6182   -4.2269    0.0000 H   0  0  0  0  0  0  0  0  0  0  0  0
    9.4651   -4.0000    0.0000 H   0  0  0  0  0  0  0  0  0  0  0  0
    9.2382   -3.1531    0.0000 H   0  0  0  0  0  0  0  0  0  0  0  0
    6.3301    3.4300    0.0000 H   0  0  0  0  0  0  0  0  0  0  0  0
  1  2  1  0  0  0  0
  1 11  1  0  0  0  0
  2 19  1  0  0  0  0
  3 15  1  0  0  0  0
  3 47  1  0  0  0  0
  4 18  2  0  0  0  0
  5  9  1  0  0  0  0
  5 10  1  0  0  0  0
  5 18  1  0  0  0  0
  6 16  2  0  0  0  0
  6 21  1  0  0  0  0
  7 17  1  0  0  0  0
  7 21  2  0  0  0  0
  8 16  1  0  0  0  0
  8 39  1  0  0  0  0
  8 40  1  0  0  0  0
  9 11  2  3  0  0  0
  9 14  1  0  0  0  0
 10 13  1  0  0  0  0
 10 24  1  0  0  0  0
 10 25  1  0  0  0  0
 11 12  1  0  0  0  0
 12 15  1  0  0  0  0
 12 26  1  0  0  0  0
 12 27  1  0  0  0  0
 13 16  1  0  0  0  0
 13 17  2  0  0  0  0
 14 28  1  0  0  0  0
 14 29  1  0  0  0  0
 14 30  1  0  0  0  0
 15 31  1  0  0  0  0
 15 32  1  0  0  0  0
 17 33  1  0  0  0  0
 18 34  1  0  0  0  0
 19 20  1  0  0  0  0
 19 35  1  0  0  0  0
 19 36  1  0  0  0  0
 20 22  1  0  0  0  0
 20 37  1  0  0  0  0
 20 38  1  0  0  0  0
 21 23  1  0  0  0  0
 22 41  1  0  0  0  0
 22 42  1  0  0  0  0
 22 43  1  0  0  0  0
 23 44  1  0  0  0  0
 23 45  1  0  0  0  0
 23 46  1  0  0  0  0
M  END
> <PUBCHEM_COMPOUND_CID>
4963

> <PUBCHEM_COMPOUND_CANONICALIZED>
1

> <PUBCHEM_CACTVS_COMPLEXITY>
396

> <PUBCHEM_CACTVS_HBOND_ACCEPTOR>
7

> <PUBCHEM_CACTVS_HBOND_DONOR>
2

> <PUBCHEM_CACTVS_ROTATABLE_BOND>
9

> <PUBCHEM_CACTVS_SUBSKEYS>
AAADceBzsABgAAAAAAAAAAAAAAAAAAAAAAAsAAAAAAAAAAABgAAAHgQQCAAADAjl2wavsJdIEgCoAhZn9ACAgCkxAKABWCA4RBiAGIBASUAERAgIRgLIACIAAAAAAAAAAAAAAAAAAAAAAAAAAAAAAAAAAA==

> <PUBCHEM_IUPAC_OPENEYE_NAME>
N-[(4-amino-2-methyl-pyrimidin-5-yl)methyl]-N-[4-hydroxy-1-methyl-2-(propyldisulfanyl)but-1-enyl]formamide

> <PUBCHEM_IUPAC_CAS_NAME>
N-[(4-amino-2-methyl-5-pyrimidinyl)methyl]-N-[5-hydroxy-3-(propyldisulfanyl)pent-2-en-2-yl]formamide

> <PUBCHEM_IUPAC_NAME>
N-[(4-amino-2-methylpyrimidin-5-yl)methyl]-N-[5-hydroxy-3-(propyldisulfanyl)pent-2-en-2-yl]formamide

> <PUBCHEM_IUPAC_SYSTEMATIC_NAME>
N-[(4-azanyl-2-methyl-pyrimidin-5-yl)methyl]-N-[5-oxidanyl-3-(propyldisulfanyl)pent-2-en-2-yl]methanamide

> <PUBCHEM_IUPAC_TRADITIONAL_NAME>
N-[(4-amino-2-methyl-pyrimidin-5-yl)methyl]-N-[4-hydroxy-1-methyl-2-(propyldisulfanyl)but-1-enyl]formamide

> <PUBCHEM_IUPAC_INCHI>
InChI=1S/C15H24N4O2S2/c1-4-7-22-23-14(5-6-20)11(2)19(10-21)9-13-8-17-12(3)18-15(13)16/h8,10,20H,4-7,9H2,1-3H3,(H2,16,17,18)

> <PUBCHEM_IUPAC_INCHIKEY>
UDCIYVVYDCXLSX-UHFFFAOYSA-N

> <PUBCHEM_XLOGP3_AA>
1.1

> <PUBCHEM_EXACT_MASS>
356.134068

> <PUBCHEM_MOLECULAR_FORMULA>
C15H24N4O2S2

> <PUBCHEM_MOLECULAR_WEIGHT>
356.50666

> <PUBCHEM_OPENEYE_CAN_SMILES>
CCCSSC(=C(C)N(CC1=CN=C(N=C1N)C)C=O)CCO

> <PUBCHEM_OPENEYE_ISO_SMILES>
CCCSSC(=C(C)N(CC1=CN=C(N=C1N)C)C=O)CCO

> <PUBCHEM_CACTVS_TPSA>
143

> <PUBCHEM_MONOISOTOPIC_WEIGHT>
356.134068

> <PUBCHEM_TOTAL_CHARGE>
0

> <PUBCHEM_HEAVY_ATOM_COUNT>
23

> <PUBCHEM_ATOM_DEF_STEREO_COUNT>
0

> <PUBCHEM_ATOM_UDEF_STEREO_COUNT>
0

> <PUBCHEM_BOND_DEF_STEREO_COUNT>
0

> <PUBCHEM_BOND_UDEF_STEREO_COUNT>
1

> <PUBCHEM_ISOTOPIC_ATOM_COUNT>
0

> <PUBCHEM_COMPONENT_COUNT>
1

> <PUBCHEM_CACTVS_TAUTO_COUNT>
3

> <PUBCHEM_COORDINATE_TYPE>
1
5
255

> <PUBCHEM_BONDANNOTATIONS>
13  16  8
13  17  8
6  16  8
6  21  8
7  17  8
7  21  8
9  11  1

$$$$

