13507
  -OEChem-06241222393D

 49 52  0     0  0  0  0  0  0999 V2000
   -3.1137    4.0989    0.0943 S   0  0  0  0  0  0  0  0  0  0  0  0
   -5.5817   -3.3829    0.0476 S   0  0  0  0  0  0  0  0  0  0  0  0
    6.2728   -1.9629   -0.2580 S   0  0  0  0  0  0  0  0  0  0  0  0
   -0.4194    2.8657   -0.3257 O   0  0  0  0  0  0  0  0  0  0  0  0
   -2.8762    4.7055   -1.4041 O   0  0  0  0  0  0  0  0  0  0  0  0
   -5.6940   -3.7471    1.6374 O   0  0  0  0  0  0  0  0  0  0  0  0
   -4.5332    4.2247    0.3856 O   0  0  0  0  0  0  0  0  0  0  0  0
   -2.1175    4.6770    0.9810 O   0  0  0  0  0  0  0  0  0  0  0  0
    7.0545   -1.6962    1.1495 O   0  0  0  0  0  0  0  0  0  0  0  0
   -6.8192   -2.7116   -0.3225 O   0  0  0  0  0  0  0  0  0  0  0  0
   -5.1454   -4.5767   -0.6596 O   0  0  0  0  0  0  0  0  0  0  0  0
    6.1294   -3.4004   -0.4059 O   0  0  0  0  0  0  0  0  0  0  0  0
    6.9029   -1.1616   -1.2911 O   0  0  0  0  0  0  0  0  0  0  0  0
    0.1708    0.1928   -0.5367 N   0  0  0  0  0  0  0  0  0  0  0  0
    0.7270    0.0133    0.5704 N   0  0  0  0  0  0  0  0  0  0  0  0
   -2.1945   -0.3524   -0.2499 C   0  0  0  0  0  0  0  0  0  0  0  0
   -3.5240    0.0903   -0.0515 C   0  0  0  0  0  0  0  0  0  0  0  0
   -1.1614    0.5947   -0.3397 C   0  0  0  0  0  0  0  0  0  0  0  0
   -2.7427    2.3940   -0.0401 C   0  0  0  0  0  0  0  0  0  0  0  0
   -3.7813    1.4670    0.0515 C   0  0  0  0  0  0  0  0  0  0  0  0
   -1.4353    1.9588   -0.2353 C   0  0  0  0  0  0  0  0  0  0  0  0
   -4.5571   -0.8569    0.0383 C   0  0  0  0  0  0  0  0  0  0  0  0
    4.4257    0.0880    0.0857 C   0  0  0  0  0  0  0  0  0  0  0  0
   -4.2832   -2.2210   -0.0660 C   0  0  0  0  0  0  0  0  0  0  0  0
    3.1014    0.5466    0.2832 C   0  0  0  0  0  0  0  0  0  0  0  0
   -1.9373   -1.7292   -0.3527 C   0  0  0  0  0  0  0  0  0  0  0  0
    4.6668   -1.2919   -0.0151 C   0  0  0  0  0  0  0  0  0  0  0  0
    2.0574   -0.3883    0.3742 C   0  0  0  0  0  0  0  0  0  0  0  0
   -2.9758   -2.6562   -0.2612 C   0  0  0  0  0  0  0  0  0  0  0  0
    3.6173   -2.2065    0.0776 C   0  0  0  0  0  0  0  0  0  0  0  0
    2.3152   -1.7556    0.2719 C   0  0  0  0  0  0  0  0  0  0  0  0
    5.4698    1.0228   -0.0053 C   0  0  0  0  0  0  0  0  0  0  0  0
    2.8603    1.9264    0.3839 C   0  0  0  0  0  0  0  0  0  0  0  0
    5.2120    2.3901    0.0970 C   0  0  0  0  0  0  0  0  0  0  0  0
    3.9097    2.8411    0.2912 C   0  0  0  0  0  0  0  0  0  0  0  0
   -4.8069    1.7966    0.2016 H   0  0  0  0  0  0  0  0  0  0  0  0
   -5.5782   -0.5167    0.1986 H   0  0  0  0  0  0  0  0  0  0  0  0
   -0.9321   -2.1120   -0.5105 H   0  0  0  0  0  0  0  0  0  0  0  0
   -2.7379   -3.7134   -0.3390 H   0  0  0  0  0  0  0  0  0  0  0  0
    3.7724   -3.2788    0.0077 H   0  0  0  0  0  0  0  0  0  0  0  0
    1.5072   -2.4790    0.3460 H   0  0  0  0  0  0  0  0  0  0  0  0
    6.5137    0.7536   -0.1060 H   0  0  0  0  0  0  0  0  0  0  0  0
    1.8653    2.3195    0.5610 H   0  0  0  0  0  0  0  0  0  0  0  0
    6.0294    3.1031    0.0377 H   0  0  0  0  0  0  0  0  0  0  0  0
    3.7110    3.9053    0.3791 H   0  0  0  0  0  0  0  0  0  0  0  0
   -0.7554    3.7746   -0.3390 H   0  0  0  0  0  0  0  0  0  0  0  0
   -3.4537    4.3291   -2.1092 H   0  0  0  0  0  0  0  0  0  0  0  0
   -5.9212   -2.9917    2.2291 H   0  0  0  0  0  0  0  0  0  0  0  0
    6.6627   -2.1342    1.9413 H   0  0  0  0  0  0  0  0  0  0  0  0
  1  5  1  0  0  0  0
  1  7  2  0  0  0  0
  1  8  2  0  0  0  0
  1 19  1  0  0  0  0
  2  6  1  0  0  0  0
  2 10  2  0  0  0  0
  2 11  2  0  0  0  0
  2 24  1  0  0  0  0
  3  9  1  0  0  0  0
  3 12  2  0  0  0  0
  3 13  2  0  0  0  0
  3 27  1  0  0  0  0
  4 21  1  0  0  0  0
  4 46  1  0  0  0  0
  5 47  1  0  0  0  0
  6 48  1  0  0  0  0
  9 49  1  0  0  0  0
 14 15  2  0  0  0  0
 14 18  1  0  0  0  0
 15 28  1  0  0  0  0
 16 17  1  0  0  0  0
 16 18  2  0  0  0  0
 16 26  1  0  0  0  0
 17 20  2  0  0  0  0
 17 22  1  0  0  0  0
 18 21  1  0  0  0  0
 19 20  1  0  0  0  0
 19 21  2  0  0  0  0
 20 36  1  0  0  0  0
 22 24  2  0  0  0  0
 22 37  1  0  0  0  0
 23 25  1  0  0  0  0
 23 27  1  0  0  0  0
 23 32  2  0  0  0  0
 24 29  1  0  0  0  0
 25 28  1  0  0  0  0
 25 33  2  0  0  0  0
 26 29  2  0  0  0  0
 26 38  1  0  0  0  0
 27 30  2  0  0  0  0
 28 31  2  0  0  0  0
 29 39  1  0  0  0  0
 30 31  1  0  0  0  0
 30 40  1  0  0  0  0
 31 41  1  0  0  0  0
 32 34  1  0  0  0  0
 32 42  1  0  0  0  0
 33 35  1  0  0  0  0
 33 43  1  0  0  0  0
 34 35  2  0  0  0  0
 34 44  1  0  0  0  0
 35 45  1  0  0  0  0
M  END
> <PUBCHEM_COMPOUND_CID>
13507

> <PUBCHEM_CONFORMER_RMSD>
0.8

> <PUBCHEM_CONFORMER_DIVERSEORDER>
1
6
2
4
7
5
8
3

> <PUBCHEM_MMFF94_PARTIAL_CHARGES>
45
1 1.49
10 -0.65
11 -0.65
12 -0.65
13 -0.65
14 -0.18
15 -0.18
18 0.18
19 -0.01
2 1.49
20 -0.15
21 0.08
22 -0.15
24 -0.01
26 -0.15
27 -0.01
28 0.18
29 -0.15
3 1.49
30 -0.15
31 -0.15
32 -0.15
33 -0.15
34 -0.15
35 -0.15
36 0.15
37 0.15
38 0.15
39 0.15
4 -0.53
40 0.15
41 0.15
42 0.15
43 0.15
44 0.15
45 0.15
46 0.45
47 0.5
48 0.5
49 0.5
5 -0.68
6 -0.68
7 -0.65
8 -0.65
9 -0.68

> <PUBCHEM_EFFECTIVE_ROTOR_COUNT>
5

> <PUBCHEM_PHARMACOPHORE_FEATURES>
17
1 10 acceptor
1 11 acceptor
1 12 acceptor
1 13 acceptor
1 4 donor
1 5 acceptor
1 6 acceptor
1 7 acceptor
1 8 acceptor
1 9 acceptor
4 1 5 7 8 anion
4 2 6 10 11 anion
4 3 9 12 13 anion
6 16 17 18 19 20 21 rings
6 16 17 22 24 26 29 rings
6 23 25 27 28 30 31 rings
6 23 25 32 33 34 35 rings

> <PUBCHEM_HEAVY_ATOM_COUNT>
35

> <PUBCHEM_ATOM_DEF_STEREO_COUNT>
0

> <PUBCHEM_ATOM_UDEF_STEREO_COUNT>
0

> <PUBCHEM_BOND_DEF_STEREO_COUNT>
0

> <PUBCHEM_BOND_UDEF_STEREO_COUNT>
0

> <PUBCHEM_ISOTOPIC_ATOM_COUNT>
0

> <PUBCHEM_COMPONENT_COUNT>
1

> <PUBCHEM_CACTVS_TAUTO_COUNT>
3

> <PUBCHEM_CONFORMER_ID>
000034C300000001

> <PUBCHEM_MMFF94_ENERGY>
86.9966

> <PUBCHEM_FEATURE_SELFOVERLAP>
86.489

> <PUBCHEM_SHAPE_FINGERPRINT>
10050765 1 18410293623315542912
10319926 262 18335431205021278112
10411042 1 18338517418581885023
10595046 47 18413106139730868948
10940486 97 18199176459716379892
11062273 19 17550104758826659661
11227688 84 18191041018816941183
11763715 3 18197757956519678469
11963148 33 18123197792550359378
12107183 9 17907866450331795010
12107698 1 18411982451368803854
12516196 113 18194684765943880083
12788726 201 18271254833016725107
13248334 5 17617379477542542673
13690498 29 18335695040335578982
13782708 43 17822010874038795718
14347332 77 18410013225979893702
14394314 77 18265610980023652499
14790565 3 17905042912962205081
15042514 8 18410572877930902333
15064981 194 18340474673343203093
15082195 135 17844800400741058348
15131766 46 15649896967676208737
15230672 131 17836081543968878694
15250474 111 18200041783931175570
15320467 1 18121782729495049750
15361156 5 18200859734597770906
15890870 6 17905045107880683153
15927050 60 18050569835634971499
17492 89 18410294701119783842
17844677 252 18409725184187870640
18393751 57 17323823066348804672
18608769 82 18263647252119288072
19301679 30 18338511950540046915
19311894 1 18266458887697735456
21033648 144 18268442389526380284
21049683 271 17768247912980003253
21133410 171 17548194017544539923
21792965 96 18118376631276583572
21796203 349 17766244632922426179
23559900 14 18263655103087344632
23576562 1 18341880910634832244
249057 3 18194120939648481324
4046055 25 18340209562359779453
4073 2 18271520988108893170
4144715 1 18263638640604117538
5104073 3 18333454235801227688
513202 73 18410849954481677331
6004065 56 17907022777327576611
6057620 51 18198900306657666740
6698420 124 17971470960274151201
6700243 42 17898255442841335708

> <PUBCHEM_SHAPE_MULTIPOLES>
663.18
17.34
6.37
0.85
12.33
3.77
0.04
-15.04
0.16
-9.6
0.02
-0.07
-0.05
0.72

> <PUBCHEM_SHAPE_SELFOVERLAP>
1441.096

> <PUBCHEM_SHAPE_VOLUME>
362.8

> <PUBCHEM_COORDINATE_TYPE>
2
5
10

$$$$

