4904
  -OEChem-06261200242D

 47 49  0     0  0  0  0  0  0999 V2000
    2.3100    0.0000    0.0000 O   0  0  0  0  0  0  0  0  0  0  0  0
    5.8100   -0.8660    0.0000 N   0  0  0  0  0  0  0  0  0  0  0  0
    6.3100    0.0000    0.0000 C   0  0  0  0  0  0  0  0  0  0  0  0
    6.3100   -1.7320    0.0000 C   0  0  0  0  0  0  0  0  0  0  0  0
    4.8100   -0.8660    0.0000 C   0  0  0  0  0  0  0  0  0  0  0  0
    7.3100    0.0000    0.0000 C   0  0  0  0  0  0  0  0  0  0  0  0
    7.3100   -1.7320    0.0000 C   0  0  0  0  0  0  0  0  0  0  0  0
    4.3100    0.0000    0.0000 C   0  0  0  0  0  0  0  0  0  0  0  0
    7.8100   -0.8660    0.0000 C   0  0  0  0  0  0  0  0  0  0  0  0
    3.3100    0.0000    0.0000 C   0  0  0  0  0  0  0  0  0  0  0  0
    3.3100   -1.0000    0.0000 C   0  0  0  0  0  0  0  0  0  0  0  0
    3.3100    1.0000    0.0000 C   0  0  0  0  0  0  0  0  0  0  0  0
    4.1760    1.5000    0.0000 C   0  0  0  0  0  0  0  0  0  0  0  0
    2.4440   -1.5000    0.0000 C   0  0  0  0  0  0  0  0  0  0  0  0
    2.4440    1.5000    0.0000 C   0  0  0  0  0  0  0  0  0  0  0  0
    4.1760   -1.5000    0.0000 C   0  0  0  0  0  0  0  0  0  0  0  0
    4.1760    2.5000    0.0000 C   0  0  0  0  0  0  0  0  0  0  0  0
    2.4440   -2.5000    0.0000 C   0  0  0  0  0  0  0  0  0  0  0  0
    2.4440    2.5000    0.0000 C   0  0  0  0  0  0  0  0  0  0  0  0
    4.1760   -2.5000    0.0000 C   0  0  0  0  0  0  0  0  0  0  0  0
    3.3100    3.0000    0.0000 C   0  0  0  0  0  0  0  0  0  0  0  0
    3.3100   -3.0000    0.0000 C   0  0  0  0  0  0  0  0  0  0  0  0
    4.2274   -1.0781    0.0000 H   0  0  0  0  0  0  0  0  0  0  0  0
    4.9177   -1.4766    0.0000 H   0  0  0  0  0  0  0  0  0  0  0  0
    6.4177    0.6106    0.0000 H   0  0  0  0  0  0  0  0  0  0  0  0
    5.7274    0.2121    0.0000 H   0  0  0  0  0  0  0  0  0  0  0  0
    5.7274   -1.9441    0.0000 H   0  0  0  0  0  0  0  0  0  0  0  0
    6.4177   -2.3426    0.0000 H   0  0  0  0  0  0  0  0  0  0  0  0
    7.8926    0.2121    0.0000 H   0  0  0  0  0  0  0  0  0  0  0  0
    7.2023    0.6106    0.0000 H   0  0  0  0  0  0  0  0  0  0  0  0
    7.2023   -2.3426    0.0000 H   0  0  0  0  0  0  0  0  0  0  0  0
    7.8926   -1.9441    0.0000 H   0  0  0  0  0  0  0  0  0  0  0  0
    4.8926    0.2121    0.0000 H   0  0  0  0  0  0  0  0  0  0  0  0
    4.2023    0.6106    0.0000 H   0  0  0  0  0  0  0  0  0  0  0  0
    8.2850   -1.2646    0.0000 H   0  0  0  0  0  0  0  0  0  0  0  0
    8.2850   -0.4675    0.0000 H   0  0  0  0  0  0  0  0  0  0  0  0
    2.0000    0.5369    0.0000 H   0  0  0  0  0  0  0  0  0  0  0  0
    4.7130    1.1900    0.0000 H   0  0  0  0  0  0  0  0  0  0  0  0
    1.9070   -1.1900    0.0000 H   0  0  0  0  0  0  0  0  0  0  0  0
    1.9070    1.1900    0.0000 H   0  0  0  0  0  0  0  0  0  0  0  0
    4.7130   -1.1900    0.0000 H   0  0  0  0  0  0  0  0  0  0  0  0
    4.7130    2.8100    0.0000 H   0  0  0  0  0  0  0  0  0  0  0  0
    1.9070   -2.8100    0.0000 H   0  0  0  0  0  0  0  0  0  0  0  0
    1.9070    2.8100    0.0000 H   0  0  0  0  0  0  0  0  0  0  0  0
    4.7130   -2.8100    0.0000 H   0  0  0  0  0  0  0  0  0  0  0  0
    3.3100    3.6200    0.0000 H   0  0  0  0  0  0  0  0  0  0  0  0
    3.3100   -3.6200    0.0000 H   0  0  0  0  0  0  0  0  0  0  0  0
  1 10  1  0  0  0  0
  1 37  1  0  0  0  0
  2  3  1  0  0  0  0
  2  4  1  0  0  0  0
  2  5  1  0  0  0  0
  3  6  1  0  0  0  0
  3 25  1  0  0  0  0
  3 26  1  0  0  0  0
  4  7  1  0  0  0  0
  4 27  1  0  0  0  0
  4 28  1  0  0  0  0
  5  8  1  0  0  0  0
  5 23  1  0  0  0  0
  5 24  1  0  0  0  0
  6  9  1  0  0  0  0
  6 29  1  0  0  0  0
  6 30  1  0  0  0  0
  7  9  1  0  0  0  0
  7 31  1  0  0  0  0
  7 32  1  0  0  0  0
  8 10  1  0  0  0  0
  8 33  1  0  0  0  0
  8 34  1  0  0  0  0
  9 35  1  0  0  0  0
  9 36  1  0  0  0  0
 10 11  1  0  0  0  0
 10 12  1  0  0  0  0
 11 14  2  0  0  0  0
 11 16  1  0  0  0  0
 12 13  2  0  0  0  0
 12 15  1  0  0  0  0
 13 17  1  0  0  0  0
 13 38  1  0  0  0  0
 14 18  1  0  0  0  0
 14 39  1  0  0  0  0
 15 19  2  0  0  0  0
 15 40  1  0  0  0  0
 16 20  2  0  0  0  0
 16 41  1  0  0  0  0
 17 21  2  0  0  0  0
 17 42  1  0  0  0  0
 18 22  2  0  0  0  0
 18 43  1  0  0  0  0
 19 21  1  0  0  0  0
 19 44  1  0  0  0  0
 20 22  1  0  0  0  0
 20 45  1  0  0  0  0
 21 46  1  0  0  0  0
 22 47  1  0  0  0  0
M  END
> <PUBCHEM_COMPOUND_CID>
4904

> <PUBCHEM_COMPOUND_CANONICALIZED>
1

> <PUBCHEM_CACTVS_COMPLEXITY>
294

> <PUBCHEM_CACTVS_HBOND_ACCEPTOR>
2

> <PUBCHEM_CACTVS_HBOND_DONOR>
1

> <PUBCHEM_CACTVS_ROTATABLE_BOND>
5

> <PUBCHEM_CACTVS_SUBSKEYS>
AAADceB6IAAAAAAAAAAAAAAAAAAAAAAAAAA8YIAAAAAAAAABQAAAHgAACAAADETBmAQwAIMAAgCAAiBCAAACAAAgAAAIiAAICIgIJiKAkRCEcAAmwAGImAeQwOAOgAAAAAAAAAAAAAAAAAAAAAAAAAAAAA==

> <PUBCHEM_IUPAC_OPENEYE_NAME>
1,1-diphenyl-3-(1-piperidyl)propan-1-ol

> <PUBCHEM_IUPAC_CAS_NAME>
1,1-diphenyl-3-(1-piperidinyl)-1-propanol

> <PUBCHEM_IUPAC_NAME>
1,1-diphenyl-3-piperidin-1-ylpropan-1-ol

> <PUBCHEM_IUPAC_SYSTEMATIC_NAME>
1,1-diphenyl-3-piperidin-1-yl-propan-1-ol

> <PUBCHEM_IUPAC_TRADITIONAL_NAME>
1,1-diphenyl-3-piperidino-propan-1-ol

> <PUBCHEM_IUPAC_INCHI>
InChI=1S/C20H25NO/c22-20(18-10-4-1-5-11-18,19-12-6-2-7-13-19)14-17-21-15-8-3-9-16-21/h1-2,4-7,10-13,22H,3,8-9,14-17H2

> <PUBCHEM_IUPAC_INCHIKEY>
RQXCLMGKHJWMOA-UHFFFAOYSA-N

> <PUBCHEM_XLOGP3>
3.8

> <PUBCHEM_EXACT_MASS>
295.193614

> <PUBCHEM_MOLECULAR_FORMULA>
C20H25NO

> <PUBCHEM_MOLECULAR_WEIGHT>
295.4186

> <PUBCHEM_OPENEYE_CAN_SMILES>
C1CCN(CC1)CCC(C2=CC=CC=C2)(C3=CC=CC=C3)O

> <PUBCHEM_OPENEYE_ISO_SMILES>
C1CCN(CC1)CCC(C2=CC=CC=C2)(C3=CC=CC=C3)O

> <PUBCHEM_CACTVS_TPSA>
23.5

> <PUBCHEM_MONOISOTOPIC_WEIGHT>
295.193614

> <PUBCHEM_TOTAL_CHARGE>
0

> <PUBCHEM_HEAVY_ATOM_COUNT>
22

> <PUBCHEM_ATOM_DEF_STEREO_COUNT>
0

> <PUBCHEM_ATOM_UDEF_STEREO_COUNT>
0

> <PUBCHEM_BOND_DEF_STEREO_COUNT>
0

> <PUBCHEM_BOND_UDEF_STEREO_COUNT>
0

> <PUBCHEM_ISOTOPIC_ATOM_COUNT>
0

> <PUBCHEM_COMPONENT_COUNT>
1

> <PUBCHEM_CACTVS_TAUTO_COUNT>
1

> <PUBCHEM_COORDINATE_TYPE>
1
5
255

> <PUBCHEM_BONDANNOTATIONS>
11  14  8
11  16  8
12  13  8
12  15  8
13  17  8
14  18  8
15  19  8
16  20  8
17  21  8
18  22  8
19  21  8
20  22  8

$$$$

