4119
  -OEChem-06251223543D

 34 36  0     0  0  0  0  0  0999 V2000
    0.3482   -0.6628   -0.0308 O   0  0  0  0  0  0  0  0  0  0  0  0
   -4.1456   -2.1915   -0.1156 O   0  0  0  0  0  0  0  0  0  0  0  0
   -0.8234    3.2352    0.1472 O   0  0  0  0  0  0  0  0  0  0  0  0
   -1.4567    0.9612    0.0371 C   0  0  0  0  0  0  0  0  0  0  0  0
   -0.9874   -0.3499   -0.0212 C   0  0  0  0  0  0  0  0  0  0  0  0
   -2.8290    1.2208    0.0449 C   0  0  0  0  0  0  0  0  0  0  0  0
    1.2695    0.3727    0.0118 C   0  0  0  0  0  0  0  0  0  0  0  0
   -0.4824    2.0618    0.0916 C   0  0  0  0  0  0  0  0  0  0  0  0
   -1.8905   -1.4120   -0.0717 C   0  0  0  0  0  0  0  0  0  0  0  0
   -3.7301    0.1566   -0.0062 C   0  0  0  0  0  0  0  0  0  0  0  0
   -3.2621   -1.1570   -0.0643 C   0  0  0  0  0  0  0  0  0  0  0  0
    0.9424    1.6731    0.0763 C   0  0  0  0  0  0  0  0  0  0  0  0
    2.6766   -0.0754    0.0028 C   0  0  0  0  0  0  0  0  0  0  0  0
   -3.4087    2.5968    0.1053 C   0  0  0  0  0  0  0  0  0  0  0  0
    3.6689    0.7385   -0.5493 C   0  0  0  0  0  0  0  0  0  0  0  0
    3.0220   -1.3149    0.5470 C   0  0  0  0  0  0  0  0  0  0  0  0
    4.9981    0.3156   -0.5573 C   0  0  0  0  0  0  0  0  0  0  0  0
    4.3512   -1.7378    0.5391 C   0  0  0  0  0  0  0  0  0  0  0  0
    5.3392   -0.9225   -0.0131 C   0  0  0  0  0  0  0  0  0  0  0  0
   -3.6000   -3.5085   -0.1736 C   0  0  0  0  0  0  0  0  0  0  0  0
   -1.4677   -2.4103   -0.1158 H   0  0  0  0  0  0  0  0  0  0  0  0
   -4.8031    0.3343   -0.0017 H   0  0  0  0  0  0  0  0  0  0  0  0
    1.6635    2.4796    0.1375 H   0  0  0  0  0  0  0  0  0  0  0  0
   -3.1175    3.1037    1.0309 H   0  0  0  0  0  0  0  0  0  0  0  0
   -3.1089    3.1862   -0.7673 H   0  0  0  0  0  0  0  0  0  0  0  0
   -4.5050    2.5760    0.0989 H   0  0  0  0  0  0  0  0  0  0  0  0
    3.4417    1.6995   -1.0030 H   0  0  0  0  0  0  0  0  0  0  0  0
    2.2747   -1.9674    0.9918 H   0  0  0  0  0  0  0  0  0  0  0  0
    5.7671    0.9477   -0.9917 H   0  0  0  0  0  0  0  0  0  0  0  0
    4.6175   -2.7011    0.9644 H   0  0  0  0  0  0  0  0  0  0  0  0
    6.3740   -1.2521   -0.0200 H   0  0  0  0  0  0  0  0  0  0  0  0
   -3.0260   -3.7468    0.7284 H   0  0  0  0  0  0  0  0  0  0  0  0
   -3.0194   -3.6640   -1.0892 H   0  0  0  0  0  0  0  0  0  0  0  0
   -4.4433   -4.2061   -0.2085 H   0  0  0  0  0  0  0  0  0  0  0  0
  1  5  1  0  0  0  0
  1  7  1  0  0  0  0
  2 11  1  0  0  0  0
  2 20  1  0  0  0  0
  3  8  2  0  0  0  0
  4  5  2  0  0  0  0
  4  6  1  0  0  0  0
  4  8  1  0  0  0  0
  5  9  1  0  0  0  0
  6 10  2  0  0  0  0
  6 14  1  0  0  0  0
  7 12  2  0  0  0  0
  7 13  1  0  0  0  0
  8 12  1  0  0  0  0
  9 11  2  0  0  0  0
  9 21  1  0  0  0  0
 10 11  1  0  0  0  0
 10 22  1  0  0  0  0
 12 23  1  0  0  0  0
 13 15  2  0  0  0  0
 13 16  1  0  0  0  0
 14 24  1  0  0  0  0
 14 25  1  0  0  0  0
 14 26  1  0  0  0  0
 15 17  1  0  0  0  0
 15 27  1  0  0  0  0
 16 18  2  0  0  0  0
 16 28  1  0  0  0  0
 17 19  2  0  0  0  0
 17 29  1  0  0  0  0
 18 19  1  0  0  0  0
 18 30  1  0  0  0  0
 19 31  1  0  0  0  0
 20 32  1  0  0  0  0
 20 33  1  0  0  0  0
 20 34  1  0  0  0  0
M  END
> <PUBCHEM_COMPOUND_CID>
4119

> <PUBCHEM_CONFORMER_RMSD>
0.6

> <PUBCHEM_CONFORMER_DIVERSEORDER>
2
1

> <PUBCHEM_MMFF94_PARTIAL_CHARGES>
28
1 -0.16
10 -0.15
11 0.08
12 -0.14
13 0.03
14 0.14
15 -0.15
16 -0.15
17 -0.15
18 -0.15
19 -0.15
2 -0.36
20 0.28
21 0.15
22 0.15
23 0.15
27 0.15
28 0.15
29 0.15
3 -0.57
30 0.15
31 0.15
4 0.09
5 0.08
6 -0.14
7 0.05
8 0.47
9 -0.15

> <PUBCHEM_EFFECTIVE_ROTOR_COUNT>
2

> <PUBCHEM_PHARMACOPHORE_FEATURES>
6
1 1 acceptor
1 2 acceptor
1 3 acceptor
6 1 4 5 7 8 12 rings
6 13 15 16 17 18 19 rings
6 4 5 6 9 10 11 rings

> <PUBCHEM_HEAVY_ATOM_COUNT>
20

> <PUBCHEM_ATOM_DEF_STEREO_COUNT>
0

> <PUBCHEM_ATOM_UDEF_STEREO_COUNT>
0

> <PUBCHEM_BOND_DEF_STEREO_COUNT>
0

> <PUBCHEM_BOND_UDEF_STEREO_COUNT>
0

> <PUBCHEM_ISOTOPIC_ATOM_COUNT>
0

> <PUBCHEM_COMPONENT_COUNT>
1

> <PUBCHEM_CACTVS_TAUTO_COUNT>
1

> <PUBCHEM_CONFORMER_ID>
0000101700000002

> <PUBCHEM_MMFF94_ENERGY>
73.2083

> <PUBCHEM_FEATURE_SELFOVERLAP>
30.474

> <PUBCHEM_SHAPE_FINGERPRINT>
10062212 137 18342458170437756859
10319926 262 18190765183564410770
10369192 42 16955095309819034912
10411042 1 18265896848435662071
10493431 412 18045772645070625617
10616163 171 18409448124200507838
10906281 52 18189042244232304045
11045515 52 18131635568929237021
11046707 91 18408323280586081402
12107183 9 17765439034105921978
12236239 1 17917426557531852820
12403814 3 17703787089153724061
12553582 1 18264779765632590983
13140716 1 18334294258094955945
13167823 11 18342457058431916058
13288520 33 18408601470123885278
13760787 19 18271523199505074472
138480 1 15960334687027802577
14790565 3 17904759226130149561
14866123 147 18409444800565649571
15042514 8 18410289250790448073
15196674 1 18411418423504607148
15250474 111 18271253815067894754
15352361 1 18338518534387106655
17492 89 18411699928589131386
17804303 29 18333450932639287905
18681886 176 18410573973464021914
19141452 34 18339921631498927493
200 152 18273214188290836762
20281475 54 18413109454933970344
21267235 1 18411972568258314898
21478907 32 18338518522203584387
221490 88 18053661378452589859
22950370 63 18338792325588106091
2297311 6 18260818320222145900
23366157 5 18129664067709299972
23402539 116 18337678610714284172
23557571 272 18187076286764834516
23559900 14 18262804085682996080
3004659 81 18202850950403904886
3178227 256 18340752833385435017
335352 9 18266741461822005573
3421961 26 18048878485929181027
4214541 1 18411699928324601292
465052 167 18118114780333243311
474 4 17417515935976170364
5104073 3 18407762551679437664
54173680 148 18410294718220700713
559249 180 18198628915704893842
573450 72 18341900731254502082
633830 44 16701730648809477800
77779 3 18411980282557421318
7970288 3 18264493875377304879
8863177 126 17626656108432937891
9709674 26 18190457345429746038

> <PUBCHEM_SHAPE_MULTIPOLES>
393.98
10.08
3.19
0.67
8.79
0.4
0
4.71
0.49
-4.21
-0.08
0.25
0.03
-0.72

> <PUBCHEM_SHAPE_SELFOVERLAP>
871.131

> <PUBCHEM_SHAPE_VOLUME>
211.9

> <PUBCHEM_COORDINATE_TYPE>
2
5
10

$$$$

