12131
  -OEChem-06261206342D

 65 64  0     0  0  0  0  0  0999 V2000
    9.7942    2.7500    0.0000 O   0  0  0  0  0  0  0  0  0  0  0  0
    8.0622    0.7500    0.0000 O   0  0  0  0  0  0  0  0  0  0  0  0
    7.1962    2.2500    0.0000 O   0  0  0  0  0  0  0  0  0  0  0  0
   10.6603    1.2500    0.0000 O   0  0  0  0  0  0  0  0  0  0  0  0
    8.9282   -0.7500    0.0000 O   0  0  0  0  0  0  0  0  0  0  0  0
    6.3301    3.7500    0.0000 O   0  0  0  0  0  0  0  0  0  0  0  0
    8.9282    2.2500    0.0000 C   0  0  0  0  0  0  0  0  0  0  0  0
   12.3923    2.2500    0.0000 C   0  0  0  0  0  0  0  0  0  0  0  0
   13.2583    2.7500    0.0000 C   0  0  0  0  0  0  0  0  0  0  0  0
    7.1962   -1.7500    0.0000 C   0  0  0  0  0  0  0  0  0  0  0  0
    4.5981    2.7500    0.0000 C   0  0  0  0  0  0  0  0  0  0  0  0
   11.5263    2.7500    0.0000 C   0  0  0  0  0  0  0  0  0  0  0  0
    8.0622    2.7500    0.0000 C   0  0  0  0  0  0  0  0  0  0  0  0
    8.9282    1.2500    0.0000 C   0  0  0  0  0  0  0  0  0  0  0  0
    6.3301   -2.2500    0.0000 C   0  0  0  0  0  0  0  0  0  0  0  0
    3.7320    2.2500    0.0000 C   0  0  0  0  0  0  0  0  0  0  0  0
    7.1962   -0.7500    0.0000 C   0  0  0  0  0  0  0  0  0  0  0  0
    5.4641    2.2500    0.0000 C   0  0  0  0  0  0  0  0  0  0  0  0
   14.1244    2.2500    0.0000 C   0  0  0  0  0  0  0  0  0  0  0  0
    2.8660    2.7500    0.0000 C   0  0  0  0  0  0  0  0  0  0  0  0
    6.3301   -3.2500    0.0000 C   0  0  0  0  0  0  0  0  0  0  0  0
   10.6603    2.2500    0.0000 C   0  0  0  0  0  0  0  0  0  0  0  0
    6.3301    2.7500    0.0000 C   0  0  0  0  0  0  0  0  0  0  0  0
    8.0622   -0.2500    0.0000 C   0  0  0  0  0  0  0  0  0  0  0  0
   14.9904    2.7500    0.0000 C   0  0  0  0  0  0  0  0  0  0  0  0
    5.4641   -3.7500    0.0000 C   0  0  0  0  0  0  0  0  0  0  0  0
    2.0000    2.2500    0.0000 C   0  0  0  0  0  0  0  0  0  0  0  0
    9.4651    1.9400    0.0000 H   0  0  0  0  0  0  0  0  0  0  0  0
   11.9938    1.7750    0.0000 H   0  0  0  0  0  0  0  0  0  0  0  0
   12.7908    1.7750    0.0000 H   0  0  0  0  0  0  0  0  0  0  0  0
   13.6569    3.2250    0.0000 H   0  0  0  0  0  0  0  0  0  0  0  0
   12.8598    3.2250    0.0000 H   0  0  0  0  0  0  0  0  0  0  0  0
    7.4082   -2.3326    0.0000 H   0  0  0  0  0  0  0  0  0  0  0  0
    7.8067   -1.6423    0.0000 H   0  0  0  0  0  0  0  0  0  0  0  0
    4.9966    3.2250    0.0000 H   0  0  0  0  0  0  0  0  0  0  0  0
    4.1996    3.2250    0.0000 H   0  0  0  0  0  0  0  0  0  0  0  0
   11.9248    3.2250    0.0000 H   0  0  0  0  0  0  0  0  0  0  0  0
   11.1278    3.2250    0.0000 H   0  0  0  0  0  0  0  0  0  0  0  0
    9.1403    0.6674    0.0000 H   0  0  0  0  0  0  0  0  0  0  0  0
    9.5388    1.3577    0.0000 H   0  0  0  0  0  0  0  0  0  0  0  0
    8.4607    3.2250    0.0000 H   0  0  0  0  0  0  0  0  0  0  0  0
    7.6636    3.2250    0.0000 H   0  0  0  0  0  0  0  0  0  0  0  0
    6.1181   -1.6674    0.0000 H   0  0  0  0  0  0  0  0  0  0  0  0
    5.7196   -2.3577    0.0000 H   0  0  0  0  0  0  0  0  0  0  0  0
    3.3335    1.7750    0.0000 H   0  0  0  0  0  0  0  0  0  0  0  0
    4.1306    1.7750    0.0000 H   0  0  0  0  0  0  0  0  0  0  0  0
    6.9841   -0.1674    0.0000 H   0  0  0  0  0  0  0  0  0  0  0  0
    6.5856   -0.8577    0.0000 H   0  0  0  0  0  0  0  0  0  0  0  0
    5.0656    1.7750    0.0000 H   0  0  0  0  0  0  0  0  0  0  0  0
    5.8626    1.7750    0.0000 H   0  0  0  0  0  0  0  0  0  0  0  0
   13.7258    1.7750    0.0000 H   0  0  0  0  0  0  0  0  0  0  0  0
   14.5229    1.7750    0.0000 H   0  0  0  0  0  0  0  0  0  0  0  0
    3.2646    3.2250    0.0000 H   0  0  0  0  0  0  0  0  0  0  0  0
    2.4675    3.2250    0.0000 H   0  0  0  0  0  0  0  0  0  0  0  0
    6.5422   -3.8326    0.0000 H   0  0  0  0  0  0  0  0  0  0  0  0
    6.9407   -3.1423    0.0000 H   0  0  0  0  0  0  0  0  0  0  0  0
   15.3004    2.2131    0.0000 H   0  0  0  0  0  0  0  0  0  0  0  0
   15.5273    3.0600    0.0000 H   0  0  0  0  0  0  0  0  0  0  0  0
   14.6804    3.2869    0.0000 H   0  0  0  0  0  0  0  0  0  0  0  0
    5.1541   -3.2131    0.0000 H   0  0  0  0  0  0  0  0  0  0  0  0
    4.9272   -4.0600    0.0000 H   0  0  0  0  0  0  0  0  0  0  0  0
    5.7741   -4.2869    0.0000 H   0  0  0  0  0  0  0  0  0  0  0  0
    1.6900    2.7869    0.0000 H   0  0  0  0  0  0  0  0  0  0  0  0
    1.4631    1.9400    0.0000 H   0  0  0  0  0  0  0  0  0  0  0  0
    2.3100    1.7131    0.0000 H   0  0  0  0  0  0  0  0  0  0  0  0
  1  7  1  0  0  0  0
  1 22  1  0  0  0  0
  2 14  1  0  0  0  0
  2 24  1  0  0  0  0
  3 13  1  0  0  0  0
  3 23  1  0  0  0  0
  4 22  2  0  0  0  0
  5 24  2  0  0  0  0
  6 23  2  0  0  0  0
  7 13  1  0  0  0  0
  7 14  1  0  0  0  0
  7 28  1  0  0  0  0
  8  9  1  0  0  0  0
  8 12  1  0  0  0  0
  8 29  1  0  0  0  0
  8 30  1  0  0  0  0
  9 19  1  0  0  0  0
  9 31  1  0  0  0  0
  9 32  1  0  0  0  0
 10 15  1  0  0  0  0
 10 17  1  0  0  0  0
 10 33  1  0  0  0  0
 10 34  1  0  0  0  0
 11 16  1  0  0  0  0
 11 18  1  0  0  0  0
 11 35  1  0  0  0  0
 11 36  1  0  0  0  0
 12 22  1  0  0  0  0
 12 37  1  0  0  0  0
 12 38  1  0  0  0  0
 13 41  1  0  0  0  0
 13 42  1  0  0  0  0
 14 39  1  0  0  0  0
 14 40  1  0  0  0  0
 15 21  1  0  0  0  0
 15 43  1  0  0  0  0
 15 44  1  0  0  0  0
 16 20  1  0  0  0  0
 16 45  1  0  0  0  0
 16 46  1  0  0  0  0
 17 24  1  0  0  0  0
 17 47  1  0  0  0  0
 17 48  1  0  0  0  0
 18 23  1  0  0  0  0
 18 49  1  0  0  0  0
 18 50  1  0  0  0  0
 19 25  1  0  0  0  0
 19 51  1  0  0  0  0
 19 52  1  0  0  0  0
 20 27  1  0  0  0  0
 20 53  1  0  0  0  0
 20 54  1  0  0  0  0
 21 26  1  0  0  0  0
 21 55  1  0  0  0  0
 21 56  1  0  0  0  0
 25 57  1  0  0  0  0
 25 58  1  0  0  0  0
 25 59  1  0  0  0  0
 26 60  1  0  0  0  0
 26 61  1  0  0  0  0
 26 62  1  0  0  0  0
 27 63  1  0  0  0  0
 27 64  1  0  0  0  0
 27 65  1  0  0  0  0
M  END
> <PUBCHEM_COMPOUND_CID>
12131

> <PUBCHEM_COMPOUND_CANONICALIZED>
1

> <PUBCHEM_CACTVS_COMPLEXITY>
382

> <PUBCHEM_CACTVS_HBOND_ACCEPTOR>
6

> <PUBCHEM_CACTVS_HBOND_DONOR>
0

> <PUBCHEM_CACTVS_ROTATABLE_BOND>
20

> <PUBCHEM_CACTVS_SUBSKEYS>
AAADcfB4OAAAAAAAAAAAAAAAAAAAAAAAAAAAAAAAAAAAAAAAAAAAGgAAAAAACBSggAICCAAABAAIAACQCAAAAAAAAAAAAAEAAAABABIAAAACAAAFAAACAAGISAAAAAAAAAAAAAAAAAAAAAAAAAAAAAAAAA==

> <PUBCHEM_IUPAC_OPENEYE_NAME>
2,3-di(hexanoyloxy)propyl hexanoate

> <PUBCHEM_IUPAC_CAS_NAME>
hexanoic acid 2,3-bis(1-oxohexoxy)propyl ester

> <PUBCHEM_IUPAC_NAME>
2,3-di(hexanoyloxy)propyl hexanoate

> <PUBCHEM_IUPAC_SYSTEMATIC_NAME>
2,3-di(hexanoyloxy)propyl hexanoate

> <PUBCHEM_IUPAC_TRADITIONAL_NAME>
hexanoic acid 2,3-dicaproyloxypropyl ester

> <PUBCHEM_IUPAC_INCHI>
InChI=1S/C21H38O6/c1-4-7-10-13-19(22)25-16-18(27-21(24)15-12-9-6-3)17-26-20(23)14-11-8-5-2/h18H,4-17H2,1-3H3

> <PUBCHEM_IUPAC_INCHIKEY>
MAYCICSNZYXLHB-UHFFFAOYSA-N

> <PUBCHEM_XLOGP3_AA>
5.7

> <PUBCHEM_EXACT_MASS>
386.266839

> <PUBCHEM_MOLECULAR_FORMULA>
C21H38O6

> <PUBCHEM_MOLECULAR_WEIGHT>
386.52282

> <PUBCHEM_OPENEYE_CAN_SMILES>
CCCCCC(=O)OCC(COC(=O)CCCCC)OC(=O)CCCCC

> <PUBCHEM_OPENEYE_ISO_SMILES>
CCCCCC(=O)OCC(COC(=O)CCCCC)OC(=O)CCCCC

> <PUBCHEM_CACTVS_TPSA>
78.9

> <PUBCHEM_MONOISOTOPIC_WEIGHT>
386.266839

> <PUBCHEM_TOTAL_CHARGE>
0

> <PUBCHEM_HEAVY_ATOM_COUNT>
27

> <PUBCHEM_ATOM_DEF_STEREO_COUNT>
0

> <PUBCHEM_ATOM_UDEF_STEREO_COUNT>
0

> <PUBCHEM_BOND_DEF_STEREO_COUNT>
0

> <PUBCHEM_BOND_UDEF_STEREO_COUNT>
0

> <PUBCHEM_ISOTOPIC_ATOM_COUNT>
0

> <PUBCHEM_COMPONENT_COUNT>
1

> <PUBCHEM_CACTVS_TAUTO_COUNT>
1

> <PUBCHEM_COORDINATE_TYPE>
1
5
255

$$$$

