51090991
  -OEChem-06241223012D

 51 52  0     0  0  0  0  0  0999 V2000
    6.3301    1.6900    0.0000 O   0  0  0  0  0  0  0  0  0  0  0  0
    2.8660   -1.3100    0.0000 O   0  0  0  0  0  0  0  0  0  0  0  0
    4.5981   -1.3100    0.0000 N   0  0  0  0  0  0  0  0  0  0  0  0
    4.5981    1.6900    0.0000 N   0  0  0  0  0  0  0  0  0  0  0  0
    4.5981    0.6900    0.0000 C   0  0  0  0  0  0  0  0  0  0  0  0
    3.7320    0.1900    0.0000 C   0  0  0  0  0  0  0  0  0  0  0  0
    5.4641    0.1900    0.0000 C   0  0  0  0  0  0  0  0  0  0  0  0
    3.7320   -0.8100    0.0000 C   0  0  0  0  0  0  0  0  0  0  0  0
    5.4641   -0.8100    0.0000 C   0  0  0  0  0  0  0  0  0  0  0  0
    4.5981   -2.3100    0.0000 C   0  0  0  0  0  0  0  0  0  0  0  0
    3.7320   -2.8100    0.0000 C   0  0  0  0  0  0  0  0  0  0  0  0
    5.4641    2.1900    0.0000 C   0  0  0  0  0  0  0  0  0  0  0  0
    2.8660   -2.3100    0.0000 C   0  0  0  0  0  0  0  0  0  0  0  0
    3.7320   -3.8100    0.0000 C   0  0  0  0  0  0  0  0  0  0  0  0
    5.4641    3.1900    0.0000 C   0  0  0  0  0  0  0  0  0  0  0  0
    2.0000   -2.8100    0.0000 C   0  0  0  0  0  0  0  0  0  0  0  0
    2.8660   -4.3100    0.0000 C   0  0  0  0  0  0  0  0  0  0  0  0
    2.0000   -3.8100    0.0000 C   0  0  0  0  0  0  0  0  0  0  0  0
    6.3301    3.6900    0.0000 C   0  0  0  0  0  0  0  0  0  0  0  0
    4.5981    3.6900    0.0000 C   0  0  0  0  0  0  0  0  0  0  0  0
    7.1962    3.1900    0.0000 C   0  0  0  0  0  0  0  0  0  0  0  0
    2.0000   -0.8100    0.0000 C   0  0  0  0  0  0  0  0  0  0  0  0
    8.0622    3.6900    0.0000 C   0  0  0  0  0  0  0  0  0  0  0  0
    5.1350    1.0000    0.0000 H   0  0  0  0  0  0  0  0  0  0  0  0
    6.0747    0.0823    0.0000 H   0  0  0  0  0  0  0  0  0  0  0  0
    5.6762    0.7726    0.0000 H   0  0  0  0  0  0  0  0  0  0  0  0
    3.5200    0.7726    0.0000 H   0  0  0  0  0  0  0  0  0  0  0  0
    3.1215    0.0823    0.0000 H   0  0  0  0  0  0  0  0  0  0  0  0
    5.6762   -1.3926    0.0000 H   0  0  0  0  0  0  0  0  0  0  0  0
    6.0747   -0.7023    0.0000 H   0  0  0  0  0  0  0  0  0  0  0  0
    3.1215   -0.7023    0.0000 H   0  0  0  0  0  0  0  0  0  0  0  0
    3.5200   -1.3926    0.0000 H   0  0  0  0  0  0  0  0  0  0  0  0
    4.8101   -2.8926    0.0000 H   0  0  0  0  0  0  0  0  0  0  0  0
    5.2087   -2.2023    0.0000 H   0  0  0  0  0  0  0  0  0  0  0  0
    4.0611    2.0000    0.0000 H   0  0  0  0  0  0  0  0  0  0  0  0
    4.2690   -4.1200    0.0000 H   0  0  0  0  0  0  0  0  0  0  0  0
    1.4631   -2.5000    0.0000 H   0  0  0  0  0  0  0  0  0  0  0  0
    2.8660   -4.9300    0.0000 H   0  0  0  0  0  0  0  0  0  0  0  0
    6.3301    4.3100    0.0000 H   0  0  0  0  0  0  0  0  0  0  0  0
    1.4631   -4.1200    0.0000 H   0  0  0  0  0  0  0  0  0  0  0  0
    4.9081    4.2269    0.0000 H   0  0  0  0  0  0  0  0  0  0  0  0
    4.0611    4.0000    0.0000 H   0  0  0  0  0  0  0  0  0  0  0  0
    4.2881    3.1531    0.0000 H   0  0  0  0  0  0  0  0  0  0  0  0
    6.7976    2.7151    0.0000 H   0  0  0  0  0  0  0  0  0  0  0  0
    7.5947    2.7151    0.0000 H   0  0  0  0  0  0  0  0  0  0  0  0
    2.3100   -0.2731    0.0000 H   0  0  0  0  0  0  0  0  0  0  0  0
    1.4631   -0.5000    0.0000 H   0  0  0  0  0  0  0  0  0  0  0  0
    1.6900   -1.3469    0.0000 H   0  0  0  0  0  0  0  0  0  0  0  0
    8.3722    3.1531    0.0000 H   0  0  0  0  0  0  0  0  0  0  0  0
    8.5991    4.0000    0.0000 H   0  0  0  0  0  0  0  0  0  0  0  0
    7.7522    4.2269    0.0000 H   0  0  0  0  0  0  0  0  0  0  0  0
  1 12  2  0  0  0  0
  2 13  1  0  0  0  0
  2 22  1  0  0  0  0
  3  8  1  0  0  0  0
  3  9  1  0  0  0  0
  3 10  1  0  0  0  0
  4  5  1  0  0  0  0
  4 12  1  0  0  0  0
  4 35  1  0  0  0  0
  5  6  1  0  0  0  0
  5  7  1  0  0  0  0
  5 24  1  0  0  0  0
  6  8  1  0  0  0  0
  6 27  1  0  0  0  0
  6 28  1  0  0  0  0
  7  9  1  0  0  0  0
  7 25  1  0  0  0  0
  7 26  1  0  0  0  0
  8 31  1  0  0  0  0
  8 32  1  0  0  0  0
  9 29  1  0  0  0  0
  9 30  1  0  0  0  0
 10 11  1  0  0  0  0
 10 33  1  0  0  0  0
 10 34  1  0  0  0  0
 11 13  1  0  0  0  0
 11 14  2  0  0  0  0
 12 15  1  0  0  0  0
 13 16  2  0  0  0  0
 14 17  1  0  0  0  0
 14 36  1  0  0  0  0
 15 19  2  0  0  0  0
 15 20  1  0  0  0  0
 16 18  1  0  0  0  0
 16 37  1  0  0  0  0
 17 18  2  0  0  0  0
 17 38  1  0  0  0  0
 18 40  1  0  0  0  0
 19 21  1  0  0  0  0
 19 39  1  0  0  0  0
 20 41  1  0  0  0  0
 20 42  1  0  0  0  0
 20 43  1  0  0  0  0
 21 23  1  0  0  0  0
 21 44  1  0  0  0  0
 21 45  1  0  0  0  0
 22 46  1  0  0  0  0
 22 47  1  0  0  0  0
 22 48  1  0  0  0  0
 23 49  1  0  0  0  0
 23 50  1  0  0  0  0
 23 51  1  0  0  0  0
M  END
> <PUBCHEM_COMPOUND_CID>
51090991

> <PUBCHEM_COMPOUND_CANONICALIZED>
1

> <PUBCHEM_CACTVS_COMPLEXITY>
400

> <PUBCHEM_CACTVS_HBOND_ACCEPTOR>
3

> <PUBCHEM_CACTVS_HBOND_DONOR>
1

> <PUBCHEM_CACTVS_ROTATABLE_BOND>
6

> <PUBCHEM_CACTVS_SUBSKEYS>
AAADceB7MAAAAAAAAAAAAAAAAAAAAAAAAAA8QAAAAAAAAAABAAAAHgAQAAAADCzBmAYyBoPABACIAiFSEACCCAAgIAAIiIEODMgMJiKE8RuEMChm1hGIqYeQwCAOAAAAAAAIAAAAAAAAABAAAAAAAAAAAA==

> <PUBCHEM_IUPAC_OPENEYE_NAME>
(Z)-N-[1-[(2-methoxyphenyl)methyl]-4-piperidyl]-2-methyl-pent-2-enamide

> <PUBCHEM_IUPAC_CAS_NAME>
(Z)-N-[1-[(2-methoxyphenyl)methyl]-4-piperidinyl]-2-methyl-2-pentenamide

> <PUBCHEM_IUPAC_NAME>
(Z)-N-[1-[(2-methoxyphenyl)methyl]piperidin-4-yl]-2-methylpent-2-enamide

> <PUBCHEM_IUPAC_SYSTEMATIC_NAME>
(Z)-N-[1-[(2-methoxyphenyl)methyl]piperidin-4-yl]-2-methyl-pent-2-enamide

> <PUBCHEM_IUPAC_TRADITIONAL_NAME>
(Z)-2-methyl-N-(1-o-anisyl-4-piperidyl)pent-2-enamide

> <PUBCHEM_IUPAC_INCHI>
InChI=1S/C19H28N2O2/c1-4-7-15(2)19(22)20-17-10-12-21(13-11-17)14-16-8-5-6-9-18(16)23-3/h5-9,17H,4,10-14H2,1-3H3,(H,20,22)/b15-7-

> <PUBCHEM_IUPAC_INCHIKEY>
FLPKBACCXZQUHS-CHHVJCJISA-N

> <PUBCHEM_XLOGP3_AA>
3.2

> <PUBCHEM_EXACT_MASS>
316.215078

> <PUBCHEM_MOLECULAR_FORMULA>
C19H28N2O2

> <PUBCHEM_MOLECULAR_WEIGHT>
316.43782

> <PUBCHEM_OPENEYE_CAN_SMILES>
CCC=C(C)C(=O)NC1CCN(CC1)CC2=CC=CC=C2OC

> <PUBCHEM_OPENEYE_ISO_SMILES>
CC/C=C(/C)\C(=O)NC1CCN(CC1)CC2=CC=CC=C2OC

> <PUBCHEM_CACTVS_TPSA>
41.6

> <PUBCHEM_MONOISOTOPIC_WEIGHT>
316.215078

> <PUBCHEM_TOTAL_CHARGE>
0

> <PUBCHEM_HEAVY_ATOM_COUNT>
23

> <PUBCHEM_ATOM_DEF_STEREO_COUNT>
0

> <PUBCHEM_ATOM_UDEF_STEREO_COUNT>
0

> <PUBCHEM_BOND_DEF_STEREO_COUNT>
1

> <PUBCHEM_BOND_UDEF_STEREO_COUNT>
0

> <PUBCHEM_ISOTOPIC_ATOM_COUNT>
0

> <PUBCHEM_COMPONENT_COUNT>
1

> <PUBCHEM_CACTVS_TAUTO_COUNT>
2

> <PUBCHEM_COORDINATE_TYPE>
1
5
255

> <PUBCHEM_BONDANNOTATIONS>
11  13  8
11  14  8
13  16  8
14  17  8
16  18  8
17  18  8

$$$$

