17395695
  -OEChem-06241222513D

 45 47  0     0  0  0  0  0  0999 V2000
    1.5564    1.1184   -0.0547 S   0  0  0  0  0  0  0  0  0  0  0  0
   -1.1571    2.1700   -0.1087 O   0  0  0  0  0  0  0  0  0  0  0  0
   -6.6592    0.8149    0.4995 O   0  0  0  0  0  0  0  0  0  0  0  0
   -6.8310   -1.2010   -0.5787 O   0  0  0  0  0  0  0  0  0  0  0  0
   -2.6071   -1.1422   -0.0140 N   0  0  0  0  0  0  0  0  0  0  0  0
    4.1444    0.0913    0.0080 N   0  0  0  0  0  0  0  0  0  0  0  0
    6.0345   -1.3693    0.0840 N   0  0  0  0  0  0  0  0  0  0  0  0
    2.5077   -1.3723    0.0561 N   0  0  0  0  0  0  0  0  0  0  0  0
    3.6991   -2.0594    0.0945 N   0  0  0  0  0  0  0  0  0  0  0  0
   -3.7791    0.7425   -0.0926 C   0  0  0  0  0  0  0  0  0  0  0  0
   -2.5036    0.2235   -0.0591 C   0  0  0  0  0  0  0  0  0  0  0  0
   -4.6811   -0.3499   -0.0664 C   0  0  0  0  0  0  0  0  0  0  0  0
   -3.9293   -1.5029   -0.0175 C   0  0  0  0  0  0  0  0  0  0  0  0
   -1.2138    0.9400   -0.0673 C   0  0  0  0  0  0  0  0  0  0  0  0
   -4.1417    2.1745   -0.1463 C   0  0  0  0  0  0  0  0  0  0  0  0
    0.0551    0.0974   -0.0230 C   0  0  0  0  0  0  0  0  0  0  0  0
   -4.3279   -2.9234    0.0266 C   0  0  0  0  0  0  0  0  0  0  0  0
    4.9205    1.2469   -0.0344 C   0  0  0  0  0  0  0  0  0  0  0  0
    2.7895   -0.0918    0.0047 C   0  0  0  0  0  0  0  0  0  0  0  0
    4.6854   -1.1833    0.0654 C   0  0  0  0  0  0  0  0  0  0  0  0
   -6.1163   -0.3116   -0.0854 C   0  0  0  0  0  0  0  0  0  0  0  0
    6.2565    1.1090   -0.0185 C   0  0  0  0  0  0  0  0  0  0  0  0
    6.7708   -0.2962    0.0445 C   0  0  0  0  0  0  0  0  0  0  0  0
    4.3464    2.6312   -0.0968 C   0  0  0  0  0  0  0  0  0  0  0  0
    8.2687   -0.4739    0.0655 C   0  0  0  0  0  0  0  0  0  0  0  0
   -8.0875    0.9176    0.5147 C   0  0  0  0  0  0  0  0  0  0  0  0
   -1.8320   -1.7903    0.0174 H   0  0  0  0  0  0  0  0  0  0  0  0
   -5.0989    2.3345   -0.6515 H   0  0  0  0  0  0  0  0  0  0  0  0
   -3.4152    2.7620   -0.7143 H   0  0  0  0  0  0  0  0  0  0  0  0
   -4.2092    2.5910    0.8637 H   0  0  0  0  0  0  0  0  0  0  0  0
    0.0607   -0.5666   -0.8935 H   0  0  0  0  0  0  0  0  0  0  0  0
    0.0464   -0.4929    0.8990 H   0  0  0  0  0  0  0  0  0  0  0  0
   -5.0800   -3.0909    0.8043 H   0  0  0  0  0  0  0  0  0  0  0  0
   -3.4775   -3.5784    0.2436 H   0  0  0  0  0  0  0  0  0  0  0  0
   -4.7518   -3.2316   -0.9345 H   0  0  0  0  0  0  0  0  0  0  0  0
    6.9538    1.9359   -0.0477 H   0  0  0  0  0  0  0  0  0  0  0  0
    3.7526    2.7703   -1.0054 H   0  0  0  0  0  0  0  0  0  0  0  0
    5.1312    3.3969   -0.1229 H   0  0  0  0  0  0  0  0  0  0  0  0
    3.7389    2.8454    0.7878 H   0  0  0  0  0  0  0  0  0  0  0  0
    8.5719   -1.0770   -0.7953 H   0  0  0  0  0  0  0  0  0  0  0  0
    8.7899    0.4859    0.0247 H   0  0  0  0  0  0  0  0  0  0  0  0
    8.5568   -0.9935    0.9840 H   0  0  0  0  0  0  0  0  0  0  0  0
   -8.4748    0.9332   -0.5084 H   0  0  0  0  0  0  0  0  0  0  0  0
   -8.5191    0.0863    1.0798 H   0  0  0  0  0  0  0  0  0  0  0  0
   -8.3557    1.8557    1.0073 H   0  0  0  0  0  0  0  0  0  0  0  0
  1 16  1  0  0  0  0
  1 19  1  0  0  0  0
  2 14  2  0  0  0  0
  3 21  1  0  0  0  0
  3 26  1  0  0  0  0
  4 21  2  0  0  0  0
  5 11  1  0  0  0  0
  5 13  1  0  0  0  0
  5 27  1  0  0  0  0
  6 18  1  0  0  0  0
  6 19  1  0  0  0  0
  6 20  1  0  0  0  0
  7 20  1  0  0  0  0
  7 23  2  0  0  0  0
  8  9  1  0  0  0  0
  8 19  2  0  0  0  0
  9 20  2  0  0  0  0
 10 11  2  0  0  0  0
 10 12  1  0  0  0  0
 10 15  1  0  0  0  0
 11 14  1  0  0  0  0
 12 13  2  0  0  0  0
 12 21  1  0  0  0  0
 13 17  1  0  0  0  0
 14 16  1  0  0  0  0
 15 28  1  0  0  0  0
 15 29  1  0  0  0  0
 15 30  1  0  0  0  0
 16 31  1  0  0  0  0
 16 32  1  0  0  0  0
 17 33  1  0  0  0  0
 17 34  1  0  0  0  0
 17 35  1  0  0  0  0
 18 22  2  0  0  0  0
 18 24  1  0  0  0  0
 22 23  1  0  0  0  0
 22 36  1  0  0  0  0
 23 25  1  0  0  0  0
 24 37  1  0  0  0  0
 24 38  1  0  0  0  0
 24 39  1  0  0  0  0
 25 40  1  0  0  0  0
 25 41  1  0  0  0  0
 25 42  1  0  0  0  0
 26 43  1  0  0  0  0
 26 44  1  0  0  0  0
 26 45  1  0  0  0  0
M  END
> <PUBCHEM_COMPOUND_CID>
17395695

> <PUBCHEM_CONFORMER_RMSD>
1.2

> <PUBCHEM_CONFORMER_DIVERSEORDER>
1
47
37
36
75
27
40
72
39
8
85
84
51
38
11
21
12
61
20
6
3
25
42
30
78
41
10
16
28
34
50
46
57
9
52
7
59
2
31
14
62
15
65
18
86
26
81
63
19
29
48
70
17
67
68
54
35
24
32
55
76
83
74
71
56
58
4
66
77
49
82
80
23
22
44
13
69
5
43
79
64
53
60
73
33
45

> <PUBCHEM_MMFF94_PARTIAL_CHARGES>
28
1 -0.29
10 -0.18
11 -0.24
12 -0.09
13 -0.33
14 0.59
15 0.18
16 0.29
17 0.18
18 -0.17
19 0.24
2 -0.57
20 0.31
21 0.81
22 -0.14
23 0.37
24 0.14
25 0.06
26 0.28
27 0.27
3 -0.43
36 0.15
4 -0.57
5 0.03
6 0.33
7 -0.58
8 -0.34
9 -0.34

> <PUBCHEM_EFFECTIVE_ROTOR_COUNT>
6

> <PUBCHEM_PHARMACOPHORE_FEATURES>
9
1 2 acceptor
1 4 acceptor
1 5 cation
1 5 donor
1 7 acceptor
4 6 7 9 20 cation
5 5 10 11 12 13 rings
5 6 8 9 19 20 rings
6 6 7 18 20 22 23 rings

> <PUBCHEM_HEAVY_ATOM_COUNT>
26

> <PUBCHEM_ATOM_DEF_STEREO_COUNT>
0

> <PUBCHEM_ATOM_UDEF_STEREO_COUNT>
0

> <PUBCHEM_BOND_DEF_STEREO_COUNT>
0

> <PUBCHEM_BOND_UDEF_STEREO_COUNT>
0

> <PUBCHEM_ISOTOPIC_ATOM_COUNT>
0

> <PUBCHEM_COMPONENT_COUNT>
1

> <PUBCHEM_CACTVS_TAUTO_COUNT>
18

> <PUBCHEM_CONFORMER_ID>
01096FEF00000001

> <PUBCHEM_MMFF94_ENERGY>
53.2626

> <PUBCHEM_FEATURE_SELFOVERLAP>
45.799

> <PUBCHEM_SHAPE_FINGERPRINT>
10299344 5 18407758140209921153
10595046 47 18411699902760668816
10835480 77 18339929190736476329
10968037 39 18413390934585495487
11135926 11 18343029899542442223
11315181 36 17603584119606409011
11524674 6 16805324375384049863
11719270 70 18333454261956802294
12107183 9 17761774370213528432
12166972 35 17989204829116075660
12236239 1 18334857204032575229
12516196 113 18113902649780863073
13533116 47 17203058473252356530
14251764 18 18260829293942799101
14251764 46 18410293622576551400
14394314 77 18411979204916723857
14933364 13 18411136939510888884
15183329 4 18413109463270762714
15361156 5 18059566932835761117
17844677 252 18410569600196161420
18681886 176 18335989697210024768
21267235 1 18411978065800415132
21315763 28 18410294704908310020
22224240 67 16515691039458905702
23035841 295 18413109459096984515
23522609 53 18043504189110269353
23559900 14 18265059046376729881
3004659 81 18272654541278107448
335352 9 18410577289110203021
34797466 226 17895187797274245676
3545911 37 18412263943282348876
4073 2 18059288760742045234
4214541 1 18411419535416151997
4325135 7 18412544314710693564
439807 62 18411418419014734168
5104073 3 18408888442780191208
999808 66 17988913441591852571

> <PUBCHEM_SHAPE_MULTIPOLES>
496.4
23.56
2.37
0.63
1.89
0.18
0
1.72
-1.22
-0.57
0.04
-0.19
-0.02
-0.46

> <PUBCHEM_SHAPE_SELFOVERLAP>
1051.789

> <PUBCHEM_SHAPE_VOLUME>
281.4

> <PUBCHEM_COORDINATE_TYPE>
2
5
10

$$$$

