583051
  -OEChem-06241222442D

 24 25  0     1  0  0  0  0  0999 V2000
    6.2619   -0.6084    0.0000 O   0  0  0  0  0  0  0  0  0  0  0  0
    5.9674    1.3531    0.0000 O   0  0  0  0  0  0  0  0  0  0  0  0
    4.6783    0.1964    0.0000 N   0  0  0  0  0  0  0  0  0  0  0  0
    4.6783   -1.4131    0.0000 C   0  0  0  0  0  0  0  0  0  0  0  0
    5.2619   -0.6084    0.0000 C   0  0  3  0  0  0  0  0  0  0  0  0
    3.7320   -1.1084    0.0000 C   0  0  0  0  0  0  0  0  0  0  0  0
    3.7320   -0.1084    0.0000 C   0  0  0  0  0  0  0  0  0  0  0  0
    2.8660    0.3916    0.0000 C   0  0  0  0  0  0  0  0  0  0  0  0
    2.8660   -1.6084    0.0000 C   0  0  0  0  0  0  0  0  0  0  0  0
    2.0000   -0.1084    0.0000 C   0  0  0  0  0  0  0  0  0  0  0  0
    2.0000   -1.1084    0.0000 C   0  0  0  0  0  0  0  0  0  0  0  0
    4.9889    1.1469    0.0000 C   0  0  0  0  0  0  0  0  0  0  0  0
    2.8660    1.3916    0.0000 C   0  0  0  0  0  0  0  0  0  0  0  0
    5.5436   -1.1607    0.0000 H   0  0  0  0  0  0  0  0  0  0  0  0
    4.4272   -1.9800    0.0000 H   0  0  0  0  0  0  0  0  0  0  0  0
    5.2156   -1.7223    0.0000 H   0  0  0  0  0  0  0  0  0  0  0  0
    2.8660   -2.2284    0.0000 H   0  0  0  0  0  0  0  0  0  0  0  0
    1.4631    0.2016    0.0000 H   0  0  0  0  0  0  0  0  0  0  0  0
    1.4631   -1.4184    0.0000 H   0  0  0  0  0  0  0  0  0  0  0  0
    4.5749    1.6084    0.0000 H   0  0  0  0  0  0  0  0  0  0  0  0
    3.4860    1.3916    0.0000 H   0  0  0  0  0  0  0  0  0  0  0  0
    2.8660    2.0116    0.0000 H   0  0  0  0  0  0  0  0  0  0  0  0
    2.2460    1.3916    0.0000 H   0  0  0  0  0  0  0  0  0  0  0  0
    6.5719   -1.1453    0.0000 H   0  0  0  0  0  0  0  0  0  0  0  0
  1  5  1  0  0  0  0
  1 24  1  0  0  0  0
  2 12  2  0  0  0  0
  3  5  1  0  0  0  0
  3  7  1  0  0  0  0
  3 12  1  0  0  0  0
  4  5  1  0  0  0  0
  4  6  1  0  0  0  0
  4 15  1  0  0  0  0
  4 16  1  0  0  0  0
  5 14  1  0  0  0  0
  6  7  1  0  0  0  0
  6  9  2  0  0  0  0
  7  8  2  0  0  0  0
  8 10  1  0  0  0  0
  8 13  1  0  0  0  0
  9 11  1  0  0  0  0
  9 17  1  0  0  0  0
 10 11  2  0  0  0  0
 10 18  1  0  0  0  0
 11 19  1  0  0  0  0
 12 20  1  0  0  0  0
 13 21  1  0  0  0  0
 13 22  1  0  0  0  0
 13 23  1  0  0  0  0
M  END
> <PUBCHEM_COMPOUND_CID>
583051

> <PUBCHEM_COMPOUND_CANONICALIZED>
1

> <PUBCHEM_CACTVS_COMPLEXITY>
207

> <PUBCHEM_CACTVS_HBOND_ACCEPTOR>
2

> <PUBCHEM_CACTVS_HBOND_DONOR>
1

> <PUBCHEM_CACTVS_ROTATABLE_BOND>
0

> <PUBCHEM_CACTVS_SUBSKEYS>
AAADccByMAAAAAAAAAAAAAAAAAAAAWAAAAAwAAAAAAAAAFgBAAAAHgAACAAADAjhmAYywIMAAgCIAiRC0ACCAAAhAAAIiAAIRIgIMCLAkZGEYAhkxgHIyAewwPAOAAACAAACAAAAAAQAAAQAAAAAAAAAAA==

> <PUBCHEM_IUPAC_OPENEYE_NAME>
2-hydroxy-7-methyl-indoline-1-carbaldehyde

> <PUBCHEM_IUPAC_CAS_NAME>
2-hydroxy-7-methyl-2,3-dihydroindole-1-carboxaldehyde

> <PUBCHEM_IUPAC_NAME>
2-hydroxy-7-methyl-2,3-dihydroindole-1-carbaldehyde

> <PUBCHEM_IUPAC_SYSTEMATIC_NAME>
7-methyl-2-oxidanyl-2,3-dihydroindole-1-carbaldehyde

> <PUBCHEM_IUPAC_TRADITIONAL_NAME>
2-hydroxy-7-methyl-indoline-1-carbaldehyde

> <PUBCHEM_IUPAC_INCHI>
InChI=1S/C10H11NO2/c1-7-3-2-4-8-5-9(13)11(6-12)10(7)8/h2-4,6,9,13H,5H2,1H3

> <PUBCHEM_IUPAC_INCHIKEY>
FPINTTMHJYBYMO-UHFFFAOYSA-N

> <PUBCHEM_XLOGP3_AA>
1.7

> <PUBCHEM_EXACT_MASS>
177.078979

> <PUBCHEM_MOLECULAR_FORMULA>
C10H11NO2

> <PUBCHEM_MOLECULAR_WEIGHT>
177.19984

> <PUBCHEM_OPENEYE_CAN_SMILES>
CC1=CC=CC2=C1N(C(C2)O)C=O

> <PUBCHEM_OPENEYE_ISO_SMILES>
CC1=CC=CC2=C1N(C(C2)O)C=O

> <PUBCHEM_CACTVS_TPSA>
40.5

> <PUBCHEM_MONOISOTOPIC_WEIGHT>
177.078979

> <PUBCHEM_TOTAL_CHARGE>
0

> <PUBCHEM_HEAVY_ATOM_COUNT>
13

> <PUBCHEM_ATOM_DEF_STEREO_COUNT>
0

> <PUBCHEM_ATOM_UDEF_STEREO_COUNT>
1

> <PUBCHEM_BOND_DEF_STEREO_COUNT>
0

> <PUBCHEM_BOND_UDEF_STEREO_COUNT>
0

> <PUBCHEM_ISOTOPIC_ATOM_COUNT>
0

> <PUBCHEM_COMPONENT_COUNT>
1

> <PUBCHEM_CACTVS_TAUTO_COUNT>
1

> <PUBCHEM_COORDINATE_TYPE>
1
5
255

> <PUBCHEM_BONDANNOTATIONS>
5  1  3
10  11  8
6  7  8
6  9  8
7  8  8
8  10  8
9  11  8

$$$$

