13557
  -OEChem-06241222393D

 16 15  0     0  0  0  0  0  0999 V2000
    0.2219   -0.6525    0.1044 O   0  0  0  0  0  0  0  0  0  0  0  0
   -0.9613    0.0061   -0.3371 C   0  0  0  0  0  0  0  0  0  0  0  0
   -2.1768   -0.7427    0.1878 C   0  0  0  0  0  0  0  0  0  0  0  0
   -0.9371    1.4510    0.1378 C   0  0  0  0  0  0  0  0  0  0  0  0
    1.3378   -0.0418   -0.3602 C   0  0  0  0  0  0  0  0  0  0  0  0
    2.5156   -0.0201    0.2674 C   0  0  0  0  0  0  0  0  0  0  0  0
   -1.0081   -0.0213   -1.4345 H   0  0  0  0  0  0  0  0  0  0  0  0
   -3.1088   -0.2780   -0.1478 H   0  0  0  0  0  0  0  0  0  0  0  0
   -2.1613   -1.7829   -0.1552 H   0  0  0  0  0  0  0  0  0  0  0  0
   -2.1737   -0.7731    1.2830 H   0  0  0  0  0  0  0  0  0  0  0  0
   -1.8965    1.9403   -0.0621 H   0  0  0  0  0  0  0  0  0  0  0  0
   -0.1673    2.0472   -0.3628 H   0  0  0  0  0  0  0  0  0  0  0  0
   -0.7412    1.5095    1.2147 H   0  0  0  0  0  0  0  0  0  0  0  0
    1.2328    0.4018   -1.3421 H   0  0  0  0  0  0  0  0  0  0  0  0
    3.3728    0.4669   -0.1838 H   0  0  0  0  0  0  0  0  0  0  0  0
    2.6401   -0.4859    1.2385 H   0  0  0  0  0  0  0  0  0  0  0  0
  1  2  1  0  0  0  0
  1  5  1  0  0  0  0
  2  3  1  0  0  0  0
  2  4  1  0  0  0  0
  2  7  1  0  0  0  0
  3  8  1  0  0  0  0
  3  9  1  0  0  0  0
  3 10  1  0  0  0  0
  4 11  1  0  0  0  0
  4 12  1  0  0  0  0
  4 13  1  0  0  0  0
  5  6  2  0  0  0  0
  5 14  1  0  0  0  0
  6 15  1  0  0  0  0
  6 16  1  0  0  0  0
M  END
> <PUBCHEM_COMPOUND_CID>
13557

> <PUBCHEM_CONFORMER_RMSD>
0.4

> <PUBCHEM_CONFORMER_DIVERSEORDER>
1
6
4
3
5
2

> <PUBCHEM_MMFF94_PARTIAL_CHARGES>
7
1 -0.36
14 0.15
15 0.15
16 0.15
2 0.28
5 -0.07
6 -0.3

> <PUBCHEM_EFFECTIVE_ROTOR_COUNT>
2

> <PUBCHEM_PHARMACOPHORE_FEATURES>
2
1 1 acceptor
3 2 3 4 hydrophobe

> <PUBCHEM_HEAVY_ATOM_COUNT>
6

> <PUBCHEM_ATOM_DEF_STEREO_COUNT>
0

> <PUBCHEM_ATOM_UDEF_STEREO_COUNT>
0

> <PUBCHEM_BOND_DEF_STEREO_COUNT>
0

> <PUBCHEM_BOND_UDEF_STEREO_COUNT>
0

> <PUBCHEM_ISOTOPIC_ATOM_COUNT>
0

> <PUBCHEM_COMPONENT_COUNT>
1

> <PUBCHEM_CACTVS_TAUTO_COUNT>
1

> <PUBCHEM_CONFORMER_ID>
000034F500000001

> <PUBCHEM_MMFF94_ENERGY>
13.9532

> <PUBCHEM_FEATURE_SELFOVERLAP>
10.148

> <PUBCHEM_SHAPE_FINGERPRINT>
10857977 72 18336554798034784467
139733 1 9006788574511061663
16714656 1 18261391130882557855
20096714 4 18120935272159757756
21040471 1 17978505665368701501
23552449 1 18409452517682967732
24536 1 18337963414242955412
29004967 10 18334851676014149859
5460574 1 8718834188689288270

> <PUBCHEM_SHAPE_MULTIPOLES>
117.61
3.17
1.12
0.67
1.17
0.42
-0.01
-0.51
0.32
-0.54
0.07
0.02
0.01
0.02

> <PUBCHEM_SHAPE_SELFOVERLAP>
207.061

> <PUBCHEM_SHAPE_VOLUME>
78.2

> <PUBCHEM_COORDINATE_TYPE>
2
5
10

$$$$

