47205769
  -OEChem-06241223003D

 38 38  0     0  0  0  0  0  0999 V2000
    2.1959    2.6804   -0.9281 S   0  0  0  0  0  0  0  0  0  0  0  0
   -1.5554    1.7832    1.4851 O   0  0  0  0  0  0  0  0  0  0  0  0
    0.0007   -2.1011    1.0181 O   0  0  0  0  0  0  0  0  0  0  0  0
    3.5203   -1.4968    0.7471 O   0  0  0  0  0  0  0  0  0  0  0  0
   -1.6418   -0.1349    0.1148 N   0  0  0  0  0  0  0  0  0  0  0  0
    1.3474    0.5640    0.2899 N   0  0  0  0  0  0  0  0  0  0  0  0
    0.5407   -2.8226   -1.0970 N   0  0  0  0  0  0  0  0  0  0  0  0
    3.6831    0.6153   -0.3019 N   0  0  0  0  0  0  0  0  0  0  0  0
   -2.9410   -0.5850    0.5319 C   0  0  0  0  0  0  0  0  0  0  0  0
   -4.0606   -0.0064   -0.3267 C   0  0  0  0  0  0  0  0  0  0  0  0
   -5.4481   -0.4615    0.1314 C   0  0  0  0  0  0  0  0  0  0  0  0
   -0.9555   -0.9554   -0.8891 C   0  0  0  0  0  0  0  0  0  0  0  0
   -1.0559    1.0369    0.6440 C   0  0  0  0  0  0  0  0  0  0  0  0
   -6.5462    0.1779   -0.7042 C   0  0  0  0  0  0  0  0  0  0  0  0
    0.2732    1.4195    0.1413 C   0  0  0  0  0  0  0  0  0  0  0  0
   -0.1180   -2.0085   -0.2006 C   0  0  0  0  0  0  0  0  0  0  0  0
    0.5380    2.6145   -0.4943 C   0  0  0  0  0  0  0  0  0  0  0  0
    2.4132    1.1247   -0.2369 C   0  0  0  0  0  0  0  0  0  0  0  0
    4.1694   -0.6277    0.1741 C   0  0  0  0  0  0  0  0  0  0  0  0
    5.6406   -0.8164   -0.0987 C   0  0  0  0  0  0  0  0  0  0  0  0
   -2.9680   -1.6809    0.5236 H   0  0  0  0  0  0  0  0  0  0  0  0
   -3.0962   -0.2710    1.5712 H   0  0  0  0  0  0  0  0  0  0  0  0
   -3.9104   -0.2956   -1.3743 H   0  0  0  0  0  0  0  0  0  0  0  0
   -4.0093    1.0897   -0.2996 H   0  0  0  0  0  0  0  0  0  0  0  0
   -5.5976   -0.1954    1.1842 H   0  0  0  0  0  0  0  0  0  0  0  0
   -5.5235   -1.5525    0.0575 H   0  0  0  0  0  0  0  0  0  0  0  0
   -0.3227   -0.3443   -1.5386 H   0  0  0  0  0  0  0  0  0  0  0  0
   -1.7021   -1.4445   -1.5251 H   0  0  0  0  0  0  0  0  0  0  0  0
   -7.5288   -0.1618   -0.3624 H   0  0  0  0  0  0  0  0  0  0  0  0
   -6.5167    1.2691   -0.6225 H   0  0  0  0  0  0  0  0  0  0  0  0
   -6.4420   -0.0909   -1.7603 H   0  0  0  0  0  0  0  0  0  0  0  0
   -0.1374    3.4276   -0.7208 H   0  0  0  0  0  0  0  0  0  0  0  0
    1.1522   -3.5656   -0.7753 H   0  0  0  0  0  0  0  0  0  0  0  0
    0.4390   -2.7177   -2.1015 H   0  0  0  0  0  0  0  0  0  0  0  0
    4.3545    1.2274   -0.7593 H   0  0  0  0  0  0  0  0  0  0  0  0
    6.2050    0.0321    0.2980 H   0  0  0  0  0  0  0  0  0  0  0  0
    5.8051   -0.8922   -1.1770 H   0  0  0  0  0  0  0  0  0  0  0  0
    5.9932   -1.7322    0.3837 H   0  0  0  0  0  0  0  0  0  0  0  0
  1 17  1  0  0  0  0
  1 18  1  0  0  0  0
  2 13  2  0  0  0  0
  3 16  2  0  0  0  0
  4 19  2  0  0  0  0
  5  9  1  0  0  0  0
  5 12  1  0  0  0  0
  5 13  1  0  0  0  0
  6 15  1  0  0  0  0
  6 18  2  0  0  0  0
  7 16  1  0  0  0  0
  7 33  1  0  0  0  0
  7 34  1  0  0  0  0
  8 18  1  0  0  0  0
  8 19  1  0  0  0  0
  8 35  1  0  0  0  0
  9 10  1  0  0  0  0
  9 21  1  0  0  0  0
  9 22  1  0  0  0  0
 10 11  1  0  0  0  0
 10 23  1  0  0  0  0
 10 24  1  0  0  0  0
 11 14  1  0  0  0  0
 11 25  1  0  0  0  0
 11 26  1  0  0  0  0
 12 16  1  0  0  0  0
 12 27  1  0  0  0  0
 12 28  1  0  0  0  0
 13 15  1  0  0  0  0
 14 29  1  0  0  0  0
 14 30  1  0  0  0  0
 14 31  1  0  0  0  0
 15 17  2  0  0  0  0
 17 32  1  0  0  0  0
 19 20  1  0  0  0  0
 20 36  1  0  0  0  0
 20 37  1  0  0  0  0
 20 38  1  0  0  0  0
M  END
> <PUBCHEM_COMPOUND_CID>
47205769

> <PUBCHEM_CONFORMER_RMSD>
1.2

> <PUBCHEM_CONFORMER_DIVERSEORDER>
1
35
3
48
80
75
29
60
61
71
44
39
30
32
49
40
12
78
73
25
86
14
56
19
89
7
76
41
67
36
13
9
27
66
26
90
50
18
46
51
22
54
74
62
21
53
77
52
8
47
31
65
84
79
64
42
57
81
45
11
23
10
88
33
72
34
69
83
85
6
28
58
59
43
20
87
5
24
4
55
91
2
68
70
63
15
37
17
38
82
16

> <PUBCHEM_MMFF94_PARTIAL_CHARGES>
21
1 -0.08
12 0.36
13 0.72
15 0.14
16 0.57
17 -0.11
18 0.44
19 0.57
2 -0.57
20 0.06
3 -0.57
32 0.15
33 0.37
34 0.37
35 0.37
4 -0.57
5 -0.66
6 -0.57
7 -0.8
8 -0.49
9 0.3

> <PUBCHEM_EFFECTIVE_ROTOR_COUNT>
9

> <PUBCHEM_PHARMACOPHORE_FEATURES>
7
1 14 hydrophobe
1 2 acceptor
1 3 acceptor
1 4 acceptor
1 7 donor
1 8 donor
5 1 6 15 17 18 rings

> <PUBCHEM_HEAVY_ATOM_COUNT>
20

> <PUBCHEM_ATOM_DEF_STEREO_COUNT>
0

> <PUBCHEM_ATOM_UDEF_STEREO_COUNT>
0

> <PUBCHEM_BOND_DEF_STEREO_COUNT>
0

> <PUBCHEM_BOND_UDEF_STEREO_COUNT>
0

> <PUBCHEM_ISOTOPIC_ATOM_COUNT>
0

> <PUBCHEM_COMPONENT_COUNT>
1

> <PUBCHEM_CACTVS_TAUTO_COUNT>
6

> <PUBCHEM_CONFORMER_ID>
02D04D8900000001

> <PUBCHEM_MMFF94_ENERGY>
35.5761

> <PUBCHEM_FEATURE_SELFOVERLAP>
35.52

> <PUBCHEM_SHAPE_FINGERPRINT>
10062212 137 18115311072995223775
12011746 2 18411975880142323982
12236239 1 18186519891258671177
12507560 14 18408039593880977308
12553582 1 18341623616149631510
12592029 89 18130794464219314627
12670545 2 18411696573939195742
12715332 25 18187366484962781999
12788726 201 17969203603872316800
12838862 33 18339942441295763668
13533116 47 18113900451179542120
13690532 89 18410009927181136385
13836976 161 18409730634527619991
13862211 1 18334014990894764095
15099037 51 18342458123187815863
15420108 30 17469305394065153585
17492 54 18200857531733118596
192875 21 18334289855663761081
19784866 9 18408039611598468371
20028762 73 17967817136915856751
20645476 183 18053088528446408421
20645477 70 18341891857525105125
20691752 17 18053357045696768638
21267235 1 18411130360090359882
21709351 56 18341341011596470647
22713019 99 18334009484419422030
23402539 116 18114187423186832206
23559900 14 18115590318984335960
23566358 2 18192995044336942421
2748010 2 17043717488436271644
335352 9 18411981347171377407
34934 24 18267586797897088156
465052 167 18272364261370617667
6138700 20 18339641239154746750
633830 44 17416977131990899809
81539 233 18341050731836602023
9999458 23 17989209213654692023

> <PUBCHEM_SHAPE_MULTIPOLES>
377.91
10.68
2.76
0.98
8.88
0.28
-0.04
-2.03
1.15
-2.03
0.47
0.21
0.03
-0.58

> <PUBCHEM_SHAPE_SELFOVERLAP>
747.446

> <PUBCHEM_SHAPE_VOLUME>
226

> <PUBCHEM_COORDINATE_TYPE>
2
5
10

$$$$

