14054
  -OEChem-06241222413D

 33 32  0     1  0  0  0  0  0999 V2000
   -7.0718   -0.6977   -0.1201 Cl  0  0  0  0  0  0  0  0  0  0  0  0
   -3.1129    1.5027   -0.6293 O   0  0  0  0  0  0  0  0  0  0  0  0
    4.3124    0.4133    0.0969 O   0  0  0  0  0  0  0  0  0  0  0  0
    3.2662   -1.6085   -0.2755 O   0  0  0  0  0  0  0  0  0  0  0  0
   -1.8361   -0.4360    0.0531 C   0  0  0  0  0  0  0  0  0  0  0  0
   -0.5728    0.4026    0.2791 C   0  0  0  0  0  0  0  0  0  0  0  0
   -3.1176    0.3830    0.2532 C   0  0  2  0  0  0  0  0  0  0  0  0
    0.6925   -0.4261    0.0323 C   0  0  0  0  0  0  0  0  0  0  0  0
   -4.3663   -0.4705   -0.0045 C   0  0  0  0  0  0  0  0  0  0  0  0
    1.9712    0.3899    0.2211 C   0  0  0  0  0  0  0  0  0  0  0  0
   -5.6518    0.3236    0.2074 C   0  0  0  0  0  0  0  0  0  0  0  0
    3.2312   -0.4150   -0.0097 C   0  0  0  0  0  0  0  0  0  0  0  0
    5.5847   -0.2021   -0.1287 C   0  0  0  0  0  0  0  0  0  0  0  0
    6.6711    0.8409    0.0248 C   0  0  0  0  0  0  0  0  0  0  0  0
   -1.8125   -0.8286   -0.9715 H   0  0  0  0  0  0  0  0  0  0  0  0
   -1.8361   -1.2957    0.7338 H   0  0  0  0  0  0  0  0  0  0  0  0
   -0.5686    1.2678   -0.3940 H   0  0  0  0  0  0  0  0  0  0  0  0
   -0.5663    0.7891    1.3053 H   0  0  0  0  0  0  0  0  0  0  0  0
   -3.1450    0.7745    1.2765 H   0  0  0  0  0  0  0  0  0  0  0  0
    0.7043   -1.2865    0.7134 H   0  0  0  0  0  0  0  0  0  0  0  0
    0.6714   -0.8353   -0.9857 H   0  0  0  0  0  0  0  0  0  0  0  0
   -4.3467   -0.8397   -1.0381 H   0  0  0  0  0  0  0  0  0  0  0  0
   -4.3557   -1.3451    0.6574 H   0  0  0  0  0  0  0  0  0  0  0  0
    1.9714    1.2297   -0.4834 H   0  0  0  0  0  0  0  0  0  0  0  0
    2.0066    0.7853    1.2425 H   0  0  0  0  0  0  0  0  0  0  0  0
   -5.7285    0.6800    1.2390 H   0  0  0  0  0  0  0  0  0  0  0  0
   -5.7093    1.1845   -0.4647 H   0  0  0  0  0  0  0  0  0  0  0  0
   -3.0854    1.1635   -1.5404 H   0  0  0  0  0  0  0  0  0  0  0  0
    5.7366   -1.0050    0.6013 H   0  0  0  0  0  0  0  0  0  0  0  0
    5.6137   -0.6205   -1.1410 H   0  0  0  0  0  0  0  0  0  0  0  0
    7.6595    0.4037   -0.1415 H   0  0  0  0  0  0  0  0  0  0  0  0
    6.5224    1.6599   -0.6868 H   0  0  0  0  0  0  0  0  0  0  0  0
    6.6434    1.2816    1.0268 H   0  0  0  0  0  0  0  0  0  0  0  0
  1 11  1  0  0  0  0
  2  7  1  0  0  0  0
  2 28  1  0  0  0  0
  3 12  1  0  0  0  0
  3 13  1  0  0  0  0
  4 12  2  0  0  0  0
  5  6  1  0  0  0  0
  5  7  1  0  0  0  0
  5 15  1  0  0  0  0
  5 16  1  0  0  0  0
  6  8  1  0  0  0  0
  6 17  1  0  0  0  0
  6 18  1  0  0  0  0
  7  9  1  0  0  0  0
  7 19  1  0  0  0  0
  8 10  1  0  0  0  0
  8 20  1  0  0  0  0
  8 21  1  0  0  0  0
  9 11  1  0  0  0  0
  9 22  1  0  0  0  0
  9 23  1  0  0  0  0
 10 12  1  0  0  0  0
 10 24  1  0  0  0  0
 10 25  1  0  0  0  0
 11 26  1  0  0  0  0
 11 27  1  0  0  0  0
 13 14  1  0  0  0  0
 13 29  1  0  0  0  0
 13 30  1  0  0  0  0
 14 31  1  0  0  0  0
 14 32  1  0  0  0  0
 14 33  1  0  0  0  0
M  END
> <PUBCHEM_COMPOUND_CID>
14054

> <PUBCHEM_CONFORMER_RMSD>
1

> <PUBCHEM_CONFORMER_DIVERSEORDER>
6
639
46
771
29
729
248
792
74
596
137
142
102
784
301
608
47
188
809
607
668
375
709
404
5
643
539
326
750
80
19
39
204
719
151
237
329
152
170
199
3
532
389
88
274
354
492
708
114
68
43
30
637
385
25
2
742
295
76
111
150
764
93
477
51
446
355
465
124
212
54
641
220
302
293
467
676
89
161
128
4
503
42
335
644
127
618
609
214
741
685
35
236
361
308
163
769
767
219
11
279
141
156
109
612
559
285
195
400
234
278
395
397
34
286
136
529
516
69
38
372
70
61
635
26
24
724
560
45
216
108
315
249
377
7
512
282
268
298
619
9
31
77
17
327
481
98
14
81
263
10
706
1
497
353
444
264
241
55
720
454
483
521
583
476
238
314

> <PUBCHEM_MMFF94_PARTIAL_CHARGES>
10
1 -0.29
10 0.06
11 0.29
12 0.66
13 0.28
2 -0.68
28 0.4
3 -0.43
4 -0.57
7 0.28

> <PUBCHEM_EFFECTIVE_ROTOR_COUNT>
9

> <PUBCHEM_PHARMACOPHORE_FEATURES>
4
1 2 acceptor
1 2 donor
1 4 acceptor
4 5 6 8 10 hydrophobe

> <PUBCHEM_HEAVY_ATOM_COUNT>
14

> <PUBCHEM_ATOM_DEF_STEREO_COUNT>
0

> <PUBCHEM_ATOM_UDEF_STEREO_COUNT>
1

> <PUBCHEM_BOND_DEF_STEREO_COUNT>
0

> <PUBCHEM_BOND_UDEF_STEREO_COUNT>
0

> <PUBCHEM_ISOTOPIC_ATOM_COUNT>
0

> <PUBCHEM_COMPONENT_COUNT>
1

> <PUBCHEM_CACTVS_TAUTO_COUNT>
1

> <PUBCHEM_CONFORMER_ID>
000036E600000006

> <PUBCHEM_MMFF94_ENERGY>
8.9192

> <PUBCHEM_FEATURE_SELFOVERLAP>
20.297

> <PUBCHEM_SHAPE_FINGERPRINT>
10968037 39 18412826876635948351
114248 4 18412262847959933576
12091667 2 18060419115130892297
12714333 28 17917993875561862296
13073987 5 18338797930535907568
13533116 47 16371001962174695686
14123238 8 18410855468718102906
14123256 10 18410293601101708439
1420 363 18413384341251585411
14251718 22 18411138038916742299
14251732 16 18409166584677468243
14251764 18 18407760335165153787
14251764 46 17313103051304821474
17834072 33 18260831484096486764
17834076 25 18410573980861765098
20645477 70 18189332532360892174
20767249 213 18343582928067953924
220451 1 16008751320811029095
22224240 67 18273218565237070978
22896161 15 18409729530568147655
23035841 295 5184347399953872108
23402539 116 17988927752037675815
23521765 1 18335420162074738707
28498 318 10015596003813349936
33684 2 18411702084092189859
3545911 37 18334857212458972986
42788 4 18408040719246421505
4325135 7 18410855447296007821
8209 1 18410855455838475752

> <PUBCHEM_SHAPE_MULTIPOLES>
272.38
18.51
1.07
0.65
0.9
0.04
0
-0.06
-0.64
-0.12
-0.11
0.14
-0.04
0.18

> <PUBCHEM_SHAPE_SELFOVERLAP>
493.131

> <PUBCHEM_SHAPE_VOLUME>
174.6

> <PUBCHEM_COORDINATE_TYPE>
2
5
10

$$$$

