9234
  -OEChem-06261203313D

 17 18  0     0  0  0  0  0  0999 V2000
    0.0002   -0.0004   -1.2842 O   0  0  0  0  0  0  0  0  0  0  0  0
   -0.0003   -1.0831   -0.3249 C   0  0  0  0  0  0  0  0  0  0  0  0
    0.0003    1.0829   -0.3254 C   0  0  0  0  0  0  0  0  0  0  0  0
    1.2559   -0.7650    0.4840 C   0  0  0  0  0  0  0  0  0  0  0  0
   -1.2566   -0.7644    0.4834 C   0  0  0  0  0  0  0  0  0  0  0  0
    1.2564    0.7646    0.4834 C   0  0  0  0  0  0  0  0  0  0  0  0
   -1.2559    0.7653    0.4837 C   0  0  0  0  0  0  0  0  0  0  0  0
   -0.0004   -2.0660   -0.8009 H   0  0  0  0  0  0  0  0  0  0  0  0
    0.0006    2.0656   -0.8020 H   0  0  0  0  0  0  0  0  0  0  0  0
    2.1503   -1.1305   -0.0329 H   0  0  0  0  0  0  0  0  0  0  0  0
    1.2382   -1.1939    1.4901 H   0  0  0  0  0  0  0  0  0  0  0  0
   -1.2399   -1.1939    1.4893 H   0  0  0  0  0  0  0  0  0  0  0  0
   -2.1511   -1.1288   -0.0340 H   0  0  0  0  0  0  0  0  0  0  0  0
    1.2393    1.1943    1.4892 H   0  0  0  0  0  0  0  0  0  0  0  0
    2.1510    1.1291   -0.0338 H   0  0  0  0  0  0  0  0  0  0  0  0
   -2.1503    1.1308   -0.0330 H   0  0  0  0  0  0  0  0  0  0  0  0
   -1.2381    1.1944    1.4898 H   0  0  0  0  0  0  0  0  0  0  0  0
  1  2  1  0  0  0  0
  1  3  1  0  0  0  0
  2  4  1  0  0  0  0
  2  5  1  0  0  0  0
  2  8  1  0  0  0  0
  3  6  1  0  0  0  0
  3  7  1  0  0  0  0
  3  9  1  0  0  0  0
  4  6  1  0  0  0  0
  4 10  1  0  0  0  0
  4 11  1  0  0  0  0
  5  7  1  0  0  0  0
  5 12  1  0  0  0  0
  5 13  1  0  0  0  0
  6 14  1  0  0  0  0
  6 15  1  0  0  0  0
  7 16  1  0  0  0  0
  7 17  1  0  0  0  0
M  END
> <PUBCHEM_COMPOUND_CID>
9234

> <PUBCHEM_CONFORMER_RMSD>
0.4

> <PUBCHEM_CONFORMER_DIVERSEORDER>
1

> <PUBCHEM_MMFF94_PARTIAL_CHARGES>
3
1 -0.56
2 0.28
3 0.28

> <PUBCHEM_EFFECTIVE_ROTOR_COUNT>
1

> <PUBCHEM_PHARMACOPHORE_FEATURES>
2
1 1 acceptor
7 1 2 3 4 5 6 7 rings

> <PUBCHEM_HEAVY_ATOM_COUNT>
7

> <PUBCHEM_ATOM_DEF_STEREO_COUNT>
0

> <PUBCHEM_ATOM_UDEF_STEREO_COUNT>
0

> <PUBCHEM_BOND_DEF_STEREO_COUNT>
0

> <PUBCHEM_BOND_UDEF_STEREO_COUNT>
0

> <PUBCHEM_ISOTOPIC_ATOM_COUNT>
0

> <PUBCHEM_COMPONENT_COUNT>
1

> <PUBCHEM_CACTVS_TAUTO_COUNT>
1

> <PUBCHEM_CONFORMER_ID>
0000241200000001

> <PUBCHEM_MMFF94_ENERGY>
23.5524

> <PUBCHEM_FEATURE_SELFOVERLAP>
10.148

> <PUBCHEM_SHAPE_FINGERPRINT>
137420 1 7266041662094218901
21040471 1 18266727164028591353
29004967 10 15769498620887412785
5943 1 11643963313653560149

> <PUBCHEM_SHAPE_MULTIPOLES>
138.19
1.54
1.3
0.95
0
0
0.17
0
-0.42
0
-0.03
0
0
0

> <PUBCHEM_SHAPE_SELFOVERLAP>
291.305

> <PUBCHEM_SHAPE_VOLUME>
81.9

> <PUBCHEM_COORDINATE_TYPE>
2
5
10

$$$$

