14043
  -OEChem-06241222412D

 32 31  0     1  0  0  0  0  0999 V2000
    4.5981    0.7500    0.0000 S   0  0  0  0  0  0  0  0  0  0  0  0
    4.5981   -0.2500    0.0000 S   0  0  0  0  0  0  0  0  0  0  0  0
    7.1962    2.2500    0.0000 O   0  0  0  0  0  0  0  0  0  0  0  0
    2.8660   -3.2500    0.0000 O   0  0  0  0  0  0  0  0  0  0  0  0
    6.3301    3.7500    0.0000 O   0  0  0  0  0  0  0  0  0  0  0  0
    2.0000   -1.7500    0.0000 O   0  0  0  0  0  0  0  0  0  0  0  0
    4.5981   -2.2500    0.0000 N   0  0  0  0  0  0  0  0  0  0  0  0
    4.5981    2.7500    0.0000 N   0  0  0  0  0  0  0  0  0  0  0  0
    5.4641    2.2500    0.0000 C   0  0  3  0  0  0  0  0  0  0  0  0
    3.7320   -1.7500    0.0000 C   0  0  3  0  0  0  0  0  0  0  0  0
    3.7320   -0.7500    0.0000 C   0  0  0  0  0  0  0  0  0  0  0  0
    5.4641    1.2500    0.0000 C   0  0  0  0  0  0  0  0  0  0  0  0
    6.3301    2.7500    0.0000 C   0  0  0  0  0  0  0  0  0  0  0  0
    2.8660   -2.2500    0.0000 C   0  0  0  0  0  0  0  0  0  0  0  0
    8.0622    2.7500    0.0000 C   0  0  0  0  0  0  0  0  0  0  0  0
    2.0000   -3.7500    0.0000 C   0  0  0  0  0  0  0  0  0  0  0  0
    3.7320   -2.6000    0.0000 H   0  0  0  0  0  0  0  0  0  0  0  0
    5.4641    3.1000    0.0000 H   0  0  0  0  0  0  0  0  0  0  0  0
    5.6762    0.6674    0.0000 H   0  0  0  0  0  0  0  0  0  0  0  0
    6.0747    1.3577    0.0000 H   0  0  0  0  0  0  0  0  0  0  0  0
    3.5200   -0.1674    0.0000 H   0  0  0  0  0  0  0  0  0  0  0  0
    3.1215   -0.8577    0.0000 H   0  0  0  0  0  0  0  0  0  0  0  0
    4.5981   -2.8700    0.0000 H   0  0  0  0  0  0  0  0  0  0  0  0
    5.1350   -1.9400    0.0000 H   0  0  0  0  0  0  0  0  0  0  0  0
    4.0611    2.4400    0.0000 H   0  0  0  0  0  0  0  0  0  0  0  0
    4.5981    3.3700    0.0000 H   0  0  0  0  0  0  0  0  0  0  0  0
    8.3722    2.2131    0.0000 H   0  0  0  0  0  0  0  0  0  0  0  0
    8.5991    3.0600    0.0000 H   0  0  0  0  0  0  0  0  0  0  0  0
    7.7522    3.2869    0.0000 H   0  0  0  0  0  0  0  0  0  0  0  0
    1.6900   -3.2131    0.0000 H   0  0  0  0  0  0  0  0  0  0  0  0
    1.4631   -4.0600    0.0000 H   0  0  0  0  0  0  0  0  0  0  0  0
    2.3100   -4.2869    0.0000 H   0  0  0  0  0  0  0  0  0  0  0  0
  1  2  1  0  0  0  0
  1 12  1  0  0  0  0
  2 11  1  0  0  0  0
  3 13  1  0  0  0  0
  3 15  1  0  0  0  0
  4 14  1  0  0  0  0
  4 16  1  0  0  0  0
  5 13  2  0  0  0  0
  6 14  2  0  0  0  0
  7 10  1  0  0  0  0
  7 23  1  0  0  0  0
  7 24  1  0  0  0  0
  8  9  1  0  0  0  0
  8 25  1  0  0  0  0
  8 26  1  0  0  0  0
  9 12  1  0  0  0  0
  9 13  1  0  0  0  0
  9 18  1  0  0  0  0
 10 11  1  0  0  0  0
 10 14  1  0  0  0  0
 10 17  1  0  0  0  0
 11 21  1  0  0  0  0
 11 22  1  0  0  0  0
 12 19  1  0  0  0  0
 12 20  1  0  0  0  0
 15 27  1  0  0  0  0
 15 28  1  0  0  0  0
 15 29  1  0  0  0  0
 16 30  1  0  0  0  0
 16 31  1  0  0  0  0
 16 32  1  0  0  0  0
M  END
> <PUBCHEM_COMPOUND_CID>
14043

> <PUBCHEM_COMPOUND_CANONICALIZED>
1

> <PUBCHEM_CACTVS_COMPLEXITY>
216

> <PUBCHEM_CACTVS_HBOND_ACCEPTOR>
8

> <PUBCHEM_CACTVS_HBOND_DONOR>
2

> <PUBCHEM_CACTVS_ROTATABLE_BOND>
9

> <PUBCHEM_CACTVS_SUBSKEYS>
AAADceBzOABgAAAAAAAAAAAAAAAAAAAAAAAAAAAAAAAAAAAAAAAAHgQQAAAACCjFwAaCCABABAAIAACQCAAAAAAAAAAAAIGAAAACAAAAAAABAAAAEAAAAAAAAAAAAAAAAAAAAAAAAAAAAAAAAAAAAAAAAA==

> <PUBCHEM_IUPAC_OPENEYE_NAME>
methyl 2-amino-3-[(2-amino-3-methoxy-3-oxo-propyl)disulfanyl]propanoate

> <PUBCHEM_IUPAC_CAS_NAME>
2-amino-3-[(2-amino-3-methoxy-3-oxopropyl)disulfanyl]propanoic acid methyl ester

> <PUBCHEM_IUPAC_NAME>
methyl 2-amino-3-[(2-amino-3-methoxy-3-oxopropyl)disulfanyl]propanoate

> <PUBCHEM_IUPAC_SYSTEMATIC_NAME>
methyl 2-azanyl-3-[(2-azanyl-3-methoxy-3-oxidanylidene-propyl)disulfanyl]propanoate

> <PUBCHEM_IUPAC_TRADITIONAL_NAME>
2-amino-3-[(2-amino-3-keto-3-methoxy-propyl)disulfanyl]propionic acid methyl ester

> <PUBCHEM_IUPAC_INCHI>
InChI=1S/C8H16N2O4S2/c1-13-7(11)5(9)3-15-16-4-6(10)8(12)14-2/h5-6H,3-4,9-10H2,1-2H3

> <PUBCHEM_IUPAC_INCHIKEY>
NXPNPYNCKSWEHA-UHFFFAOYSA-N

> <PUBCHEM_XLOGP3_AA>
-1.1

> <PUBCHEM_EXACT_MASS>
268.055149

> <PUBCHEM_MOLECULAR_FORMULA>
C8H16N2O4S2

> <PUBCHEM_MOLECULAR_WEIGHT>
268.35364

> <PUBCHEM_OPENEYE_CAN_SMILES>
COC(=O)C(CSSCC(C(=O)OC)N)N

> <PUBCHEM_OPENEYE_ISO_SMILES>
COC(=O)C(CSSCC(C(=O)OC)N)N

> <PUBCHEM_CACTVS_TPSA>
155

> <PUBCHEM_MONOISOTOPIC_WEIGHT>
268.055149

> <PUBCHEM_TOTAL_CHARGE>
0

> <PUBCHEM_HEAVY_ATOM_COUNT>
16

> <PUBCHEM_ATOM_DEF_STEREO_COUNT>
0

> <PUBCHEM_ATOM_UDEF_STEREO_COUNT>
2

> <PUBCHEM_BOND_DEF_STEREO_COUNT>
0

> <PUBCHEM_BOND_UDEF_STEREO_COUNT>
0

> <PUBCHEM_ISOTOPIC_ATOM_COUNT>
0

> <PUBCHEM_COMPONENT_COUNT>
1

> <PUBCHEM_CACTVS_TAUTO_COUNT>
1

> <PUBCHEM_COORDINATE_TYPE>
1
5
255

> <PUBCHEM_BONDANNOTATIONS>
10  17  3
9  18  3

$$$$

