854188
  -OEChem-06241222472D

 38 40  0     0  0  0  0  0  0999 V2000
    4.9889   -1.3338    0.0000 O   0  0  0  0  0  0  0  0  0  0  0  0
    4.9889    2.1767    0.0000 O   0  0  0  0  0  0  0  0  0  0  0  0
   10.7619   -0.4446    0.0000 O   0  0  0  0  0  0  0  0  0  0  0  0
   10.7619   -2.1767    0.0000 O   0  0  0  0  0  0  0  0  0  0  0  0
    5.2619    0.4214    0.0000 N   0  0  0  0  0  0  0  0  0  0  0  0
    6.2619    0.4214    0.0000 C   0  0  0  0  0  0  0  0  0  0  0  0
    3.7320    0.9214    0.0000 C   0  0  0  0  0  0  0  0  0  0  0  0
    3.7320   -0.0786    0.0000 C   0  0  0  0  0  0  0  0  0  0  0  0
    4.6783   -0.3833    0.0000 C   0  0  0  0  0  0  0  0  0  0  0  0
    4.6783    1.2261    0.0000 C   0  0  0  0  0  0  0  0  0  0  0  0
    8.2619    0.4214    0.0000 C   0  0  0  0  0  0  0  0  0  0  0  0
    9.2619    0.4214    0.0000 C   0  0  0  0  0  0  0  0  0  0  0  0
    6.7619   -0.4446    0.0000 C   0  0  0  0  0  0  0  0  0  0  0  0
    6.7619    1.2874    0.0000 C   0  0  0  0  0  0  0  0  0  0  0  0
    7.7619   -0.4446    0.0000 C   0  0  0  0  0  0  0  0  0  0  0  0
    7.7619    1.2874    0.0000 C   0  0  0  0  0  0  0  0  0  0  0  0
    2.8660   -0.5786    0.0000 C   0  0  0  0  0  0  0  0  0  0  0  0
    2.8660    1.4214    0.0000 C   0  0  0  0  0  0  0  0  0  0  0  0
    9.7619   -0.4446    0.0000 C   0  0  0  0  0  0  0  0  0  0  0  0
    2.0000   -0.0786    0.0000 C   0  0  0  0  0  0  0  0  0  0  0  0
    2.0000    0.9214    0.0000 C   0  0  0  0  0  0  0  0  0  0  0  0
   11.2619   -1.3106    0.0000 C   0  0  0  0  0  0  0  0  0  0  0  0
   12.2619   -1.3106    0.0000 C   0  0  0  0  0  0  0  0  0  0  0  0
    9.8445    0.6335    0.0000 H   0  0  0  0  0  0  0  0  0  0  0  0
    9.1542    1.0320    0.0000 H   0  0  0  0  0  0  0  0  0  0  0  0
    6.4519   -0.9815    0.0000 H   0  0  0  0  0  0  0  0  0  0  0  0
    6.4519    1.8244    0.0000 H   0  0  0  0  0  0  0  0  0  0  0  0
    8.0719   -0.9815    0.0000 H   0  0  0  0  0  0  0  0  0  0  0  0
    8.0719    1.8244    0.0000 H   0  0  0  0  0  0  0  0  0  0  0  0
    2.8660    2.0414    0.0000 H   0  0  0  0  0  0  0  0  0  0  0  0
    2.8660   -1.1986    0.0000 H   0  0  0  0  0  0  0  0  0  0  0  0
    9.1793   -0.6567    0.0000 H   0  0  0  0  0  0  0  0  0  0  0  0
    9.8695   -1.0552    0.0000 H   0  0  0  0  0  0  0  0  0  0  0  0
    1.4631    1.2314    0.0000 H   0  0  0  0  0  0  0  0  0  0  0  0
    1.4631   -0.3886    0.0000 H   0  0  0  0  0  0  0  0  0  0  0  0
   12.2619   -1.9306    0.0000 H   0  0  0  0  0  0  0  0  0  0  0  0
   12.8819   -1.3106    0.0000 H   0  0  0  0  0  0  0  0  0  0  0  0
   12.2619   -0.6906    0.0000 H   0  0  0  0  0  0  0  0  0  0  0  0
  1  9  2  0  0  0  0
  2 10  2  0  0  0  0
  3 19  1  0  0  0  0
  3 22  1  0  0  0  0
  4 22  2  0  0  0  0
  5  6  1  0  0  0  0
  5  9  1  0  0  0  0
  5 10  1  0  0  0  0
  6 13  2  0  0  0  0
  6 14  1  0  0  0  0
  7  8  1  0  0  0  0
  7 10  1  0  0  0  0
  7 18  2  0  0  0  0
  8  9  1  0  0  0  0
  8 17  2  0  0  0  0
 11 12  1  0  0  0  0
 11 15  2  0  0  0  0
 11 16  1  0  0  0  0
 12 19  1  0  0  0  0
 12 24  1  0  0  0  0
 12 25  1  0  0  0  0
 13 15  1  0  0  0  0
 13 26  1  0  0  0  0
 14 16  2  0  0  0  0
 14 27  1  0  0  0  0
 15 28  1  0  0  0  0
 16 29  1  0  0  0  0
 17 20  1  0  0  0  0
 17 31  1  0  0  0  0
 18 21  1  0  0  0  0
 18 30  1  0  0  0  0
 19 32  1  0  0  0  0
 19 33  1  0  0  0  0
 20 21  2  0  0  0  0
 20 35  1  0  0  0  0
 21 34  1  0  0  0  0
 22 23  1  0  0  0  0
 23 36  1  0  0  0  0
 23 37  1  0  0  0  0
 23 38  1  0  0  0  0
M  END
> <PUBCHEM_COMPOUND_CID>
854188

> <PUBCHEM_COMPOUND_CANONICALIZED>
1

> <PUBCHEM_CACTVS_COMPLEXITY>
457

> <PUBCHEM_CACTVS_HBOND_ACCEPTOR>
4

> <PUBCHEM_CACTVS_HBOND_DONOR>
0

> <PUBCHEM_CACTVS_ROTATABLE_BOND>
5

> <PUBCHEM_CACTVS_SUBSKEYS>
AAADccB6OAAAAAAAAAAAAAAAAAAAAWAAAAAwYAAAAAAAAFgBQAAAHgAAAAAADAihmAIyyIMABACIAiXSWACCAAAlAgAIiAEAZMgIIDLAlZGGIQhkxCHIyYedyKCOiAAAAAAQAAAQAAAAACAAAAAAAAAAAA==

> <PUBCHEM_IUPAC_OPENEYE_NAME>
2-[4-(1,3-dioxoisoindolin-2-yl)phenyl]ethyl acetate

> <PUBCHEM_IUPAC_CAS_NAME>
acetic acid 2-[4-(1,3-dioxo-2-isoindolyl)phenyl]ethyl ester

> <PUBCHEM_IUPAC_NAME>
2-[4-(1,3-dioxoisoindol-2-yl)phenyl]ethyl acetate

> <PUBCHEM_IUPAC_SYSTEMATIC_NAME>
2-[4-[1,3-bis(oxidanylidene)isoindol-2-yl]phenyl]ethyl ethanoate

> <PUBCHEM_IUPAC_TRADITIONAL_NAME>
acetic acid 2-(4-phthalimidophenyl)ethyl ester

> <PUBCHEM_IUPAC_INCHI>
InChI=1S/C18H15NO4/c1-12(20)23-11-10-13-6-8-14(9-7-13)19-17(21)15-4-2-3-5-16(15)18(19)22/h2-9H,10-11H2,1H3

> <PUBCHEM_IUPAC_INCHIKEY>
RVCBIKBWDIMUDC-UHFFFAOYSA-N

> <PUBCHEM_XLOGP3>
2.6

> <PUBCHEM_EXACT_MASS>
309.100108

> <PUBCHEM_MOLECULAR_FORMULA>
C18H15NO4

> <PUBCHEM_MOLECULAR_WEIGHT>
309.316

> <PUBCHEM_OPENEYE_CAN_SMILES>
CC(=O)OCCC1=CC=C(C=C1)N2C(=O)C3=CC=CC=C3C2=O

> <PUBCHEM_OPENEYE_ISO_SMILES>
CC(=O)OCCC1=CC=C(C=C1)N2C(=O)C3=CC=CC=C3C2=O

> <PUBCHEM_CACTVS_TPSA>
63.7

> <PUBCHEM_MONOISOTOPIC_WEIGHT>
309.100108

> <PUBCHEM_TOTAL_CHARGE>
0

> <PUBCHEM_HEAVY_ATOM_COUNT>
23

> <PUBCHEM_ATOM_DEF_STEREO_COUNT>
0

> <PUBCHEM_ATOM_UDEF_STEREO_COUNT>
0

> <PUBCHEM_BOND_DEF_STEREO_COUNT>
0

> <PUBCHEM_BOND_UDEF_STEREO_COUNT>
0

> <PUBCHEM_ISOTOPIC_ATOM_COUNT>
0

> <PUBCHEM_COMPONENT_COUNT>
1

> <PUBCHEM_CACTVS_TAUTO_COUNT>
1

> <PUBCHEM_COORDINATE_TYPE>
1
5
255

> <PUBCHEM_BONDANNOTATIONS>
11  15  8
11  16  8
13  15  8
14  16  8
17  20  8
18  21  8
20  21  8
6  13  8
6  14  8
7  18  8
7  8  8
8  17  8

$$$$

