47205259
  -OEChem-06241222582D

 36 36  0     1  0  0  0  0  0999 V2000
    2.8660   -2.8170    0.0000 S   0  0  0  0  0  0  0  0  0  0  0  0
    2.3660   -3.6830    0.0000 O   0  0  0  0  0  0  0  0  0  0  0  0
    3.3660   -3.6830    0.0000 O   0  0  0  0  0  0  0  0  0  0  0  0
    4.5981    0.1830    0.0000 O   0  0  0  0  0  0  0  0  0  0  0  0
    2.8660   -0.8170    0.0000 N   0  0  0  0  0  0  0  0  0  0  0  0
    3.7320    1.6830    0.0000 N   0  0  0  0  0  0  0  0  0  0  0  0
    2.0000   -1.3170    0.0000 C   0  0  0  0  0  0  0  0  0  0  0  0
    3.7320   -1.3170    0.0000 C   0  0  0  0  0  0  0  0  0  0  0  0
    2.0000   -2.3170    0.0000 C   0  0  0  0  0  0  0  0  0  0  0  0
    3.7320   -2.3170    0.0000 C   0  0  0  0  0  0  0  0  0  0  0  0
    2.8660    0.1830    0.0000 C   0  0  0  0  0  0  0  0  0  0  0  0
    3.7320    0.6830    0.0000 C   0  0  0  0  0  0  0  0  0  0  0  0
    4.5981    2.1830    0.0000 C   0  0  3  0  0  0  0  0  0  0  0  0
    4.5981    3.1830    0.0000 C   0  0  0  0  0  0  0  0  0  0  0  0
    5.4641    1.6830    0.0000 C   0  0  0  0  0  0  0  0  0  0  0  0
    5.4641    3.6830    0.0000 C   0  0  0  0  0  0  0  0  0  0  0  0
    1.7880   -0.7344    0.0000 H   0  0  0  0  0  0  0  0  0  0  0  0
    1.3894   -1.4246    0.0000 H   0  0  0  0  0  0  0  0  0  0  0  0
    4.3426   -1.4246    0.0000 H   0  0  0  0  0  0  0  0  0  0  0  0
    3.9441   -0.7344    0.0000 H   0  0  0  0  0  0  0  0  0  0  0  0
    1.3894   -2.2093    0.0000 H   0  0  0  0  0  0  0  0  0  0  0  0
    1.7880   -2.8996    0.0000 H   0  0  0  0  0  0  0  0  0  0  0  0
    3.9441   -2.8996    0.0000 H   0  0  0  0  0  0  0  0  0  0  0  0
    4.3426   -2.2093    0.0000 H   0  0  0  0  0  0  0  0  0  0  0  0
    2.6540    0.7656    0.0000 H   0  0  0  0  0  0  0  0  0  0  0  0
    2.2554    0.0754    0.0000 H   0  0  0  0  0  0  0  0  0  0  0  0
    4.5981    1.5630    0.0000 H   0  0  0  0  0  0  0  0  0  0  0  0
    3.1951    1.9930    0.0000 H   0  0  0  0  0  0  0  0  0  0  0  0
    4.3860    3.7656    0.0000 H   0  0  0  0  0  0  0  0  0  0  0  0
    3.9875    3.0753    0.0000 H   0  0  0  0  0  0  0  0  0  0  0  0
    5.1541    1.1461    0.0000 H   0  0  0  0  0  0  0  0  0  0  0  0
    6.0010    1.3730    0.0000 H   0  0  0  0  0  0  0  0  0  0  0  0
    5.7741    2.2200    0.0000 H   0  0  0  0  0  0  0  0  0  0  0  0
    5.7741    3.1461    0.0000 H   0  0  0  0  0  0  0  0  0  0  0  0
    6.0010    3.9930    0.0000 H   0  0  0  0  0  0  0  0  0  0  0  0
    5.1541    4.2200    0.0000 H   0  0  0  0  0  0  0  0  0  0  0  0
  1  2  2  0  0  0  0
  1  3  2  0  0  0  0
  1  9  1  0  0  0  0
  1 10  1  0  0  0  0
  4 12  2  0  0  0  0
  5  7  1  0  0  0  0
  5  8  1  0  0  0  0
  5 11  1  0  0  0  0
  6 12  1  0  0  0  0
  6 13  1  0  0  0  0
  6 28  1  0  0  0  0
  7  9  1  0  0  0  0
  7 17  1  0  0  0  0
  7 18  1  0  0  0  0
  8 10  1  0  0  0  0
  8 19  1  0  0  0  0
  8 20  1  0  0  0  0
  9 21  1  0  0  0  0
  9 22  1  0  0  0  0
 10 23  1  0  0  0  0
 10 24  1  0  0  0  0
 11 12  1  0  0  0  0
 11 25  1  0  0  0  0
 11 26  1  0  0  0  0
 13 14  1  0  0  0  0
 13 15  1  0  0  0  0
 13 27  1  0  0  0  0
 14 16  1  0  0  0  0
 14 29  1  0  0  0  0
 14 30  1  0  0  0  0
 15 31  1  0  0  0  0
 15 32  1  0  0  0  0
 15 33  1  0  0  0  0
 16 34  1  0  0  0  0
 16 35  1  0  0  0  0
 16 36  1  0  0  0  0
M  END
> <PUBCHEM_COMPOUND_CID>
47205259

> <PUBCHEM_COMPOUND_CANONICALIZED>
1

> <PUBCHEM_CACTVS_COMPLEXITY>
321

> <PUBCHEM_CACTVS_HBOND_ACCEPTOR>
4

> <PUBCHEM_CACTVS_HBOND_DONOR>
1

> <PUBCHEM_CACTVS_ROTATABLE_BOND>
4

> <PUBCHEM_CACTVS_SUBSKEYS>
AAADceBzMABAAAAAAAAAAAAAAAAAAAAAAAAsAAAAAAAAAAAAAAAAHgQQAAAACCjFwASCAAPAAAoIAAEQEHBAAAAAABAAAICIAAAAQAAAACAUAAAAFgCgAAAAAAAAAAAAAAAAAAAAAAAAAAAAAAAAAAAAAA==

> <PUBCHEM_IUPAC_OPENEYE_NAME>
2-(1,1-dioxo-1,4-thiazinan-4-yl)-N-sec-butyl-acetamide

> <PUBCHEM_IUPAC_CAS_NAME>
N-butan-2-yl-2-(1,1-dioxo-1,4-thiazinan-4-yl)acetamide

> <PUBCHEM_IUPAC_NAME>
N-butan-2-yl-2-(1,1-dioxo-1,4-thiazinan-4-yl)acetamide

> <PUBCHEM_IUPAC_SYSTEMATIC_NAME>
2-[1,1-bis(oxidanylidene)-1,4-thiazinan-4-yl]-N-butan-2-yl-ethanamide

> <PUBCHEM_IUPAC_TRADITIONAL_NAME>
2-(1,1-diketo-1,4-thiazinan-4-yl)-N-sec-butyl-acetamide

> <PUBCHEM_IUPAC_INCHI>
InChI=1S/C10H20N2O3S/c1-3-9(2)11-10(13)8-12-4-6-16(14,15)7-5-12/h9H,3-8H2,1-2H3,(H,11,13)

> <PUBCHEM_IUPAC_INCHIKEY>
PTZOAKMVHRWODL-UHFFFAOYSA-N

> <PUBCHEM_XLOGP3_AA>
0.1

> <PUBCHEM_EXACT_MASS>
248.119464

> <PUBCHEM_MOLECULAR_FORMULA>
C10H20N2O3S

> <PUBCHEM_MOLECULAR_WEIGHT>
248.3424

> <PUBCHEM_OPENEYE_CAN_SMILES>
CCC(C)NC(=O)CN1CCS(=O)(=O)CC1

> <PUBCHEM_OPENEYE_ISO_SMILES>
CCC(C)NC(=O)CN1CCS(=O)(=O)CC1

> <PUBCHEM_CACTVS_TPSA>
74.9

> <PUBCHEM_MONOISOTOPIC_WEIGHT>
248.119464

> <PUBCHEM_TOTAL_CHARGE>
0

> <PUBCHEM_HEAVY_ATOM_COUNT>
16

> <PUBCHEM_ATOM_DEF_STEREO_COUNT>
0

> <PUBCHEM_ATOM_UDEF_STEREO_COUNT>
1

> <PUBCHEM_BOND_DEF_STEREO_COUNT>
0

> <PUBCHEM_BOND_UDEF_STEREO_COUNT>
0

> <PUBCHEM_ISOTOPIC_ATOM_COUNT>
0

> <PUBCHEM_COMPONENT_COUNT>
1

> <PUBCHEM_CACTVS_TAUTO_COUNT>
2

> <PUBCHEM_COORDINATE_TYPE>
1
5
255

> <PUBCHEM_BONDANNOTATIONS>
13  15  3

$$$$

