47205221
  -OEChem-06241222582D

 33 35  0     0  0  0  0  0  0999 V2000
    6.6353   -0.9292    0.0000 O   0  0  0  0  0  0  0  0  0  0  0  0
    4.6783   -2.9511    0.0000 N   0  0  0  0  0  0  0  0  0  0  0  0
    6.2781    0.7656    0.0000 N   0  0  0  0  0  0  0  0  0  0  0  0
    8.5189    2.2298    0.0000 N   0  0  0  0  0  0  0  0  0  0  0  0
    8.5206    3.2298    0.0000 N   0  0  0  0  0  0  0  0  0  0  0  0
    4.6783   -1.3416    0.0000 C   0  0  0  0  0  0  0  0  0  0  0  0
    3.7320   -1.6464    0.0000 C   0  0  0  0  0  0  0  0  0  0  0  0
    4.9889   -0.3911    0.0000 C   0  0  0  0  0  0  0  0  0  0  0  0
    3.7320   -2.6464    0.0000 C   0  0  0  0  0  0  0  0  0  0  0  0
    5.2619   -2.1464    0.0000 C   0  0  0  0  0  0  0  0  0  0  0  0
    5.9674   -0.1849    0.0000 C   0  0  0  0  0  0  0  0  0  0  0  0
    2.8660   -1.1464    0.0000 C   0  0  0  0  0  0  0  0  0  0  0  0
    2.8660   -3.1464    0.0000 C   0  0  0  0  0  0  0  0  0  0  0  0
    7.2566    0.9719    0.0000 C   0  0  0  0  0  0  0  0  0  0  0  0
    2.0000   -1.6464    0.0000 C   0  0  0  0  0  0  0  0  0  0  0  0
    7.5673    1.9224    0.0000 C   0  0  0  0  0  0  0  0  0  0  0  0
    2.0000   -2.6464    0.0000 C   0  0  0  0  0  0  0  0  0  0  0  0
    6.9809    2.7324    0.0000 C   0  0  0  0  0  0  0  0  0  0  0  0
    7.5701    3.5404    0.0000 C   0  0  0  0  0  0  0  0  0  0  0  0
    4.9684    0.2286    0.0000 H   0  0  0  0  0  0  0  0  0  0  0  0
    4.3751   -0.3038    0.0000 H   0  0  0  0  0  0  0  0  0  0  0  0
    5.8819   -2.1464    0.0000 H   0  0  0  0  0  0  0  0  0  0  0  0
    4.8709   -3.5404    0.0000 H   0  0  0  0  0  0  0  0  0  0  0  0
    2.8660   -0.5264    0.0000 H   0  0  0  0  0  0  0  0  0  0  0  0
    2.8660   -3.7664    0.0000 H   0  0  0  0  0  0  0  0  0  0  0  0
    7.2772    0.3522    0.0000 H   0  0  0  0  0  0  0  0  0  0  0  0
    7.8704    0.8845    0.0000 H   0  0  0  0  0  0  0  0  0  0  0  0
    5.8640    1.2271    0.0000 H   0  0  0  0  0  0  0  0  0  0  0  0
    1.4631   -1.3364    0.0000 H   0  0  0  0  0  0  0  0  0  0  0  0
    1.4631   -2.9564    0.0000 H   0  0  0  0  0  0  0  0  0  0  0  0
    6.3609    2.7335    0.0000 H   0  0  0  0  0  0  0  0  0  0  0  0
    9.0198    1.8644    0.0000 H   0  0  0  0  0  0  0  0  0  0  0  0
    7.3795    4.1304    0.0000 H   0  0  0  0  0  0  0  0  0  0  0  0
  1 11  2  0  0  0  0
  2  9  1  0  0  0  0
  2 10  1  0  0  0  0
  2 23  1  0  0  0  0
  3 11  1  0  0  0  0
  3 14  1  0  0  0  0
  3 28  1  0  0  0  0
  4  5  1  0  0  0  0
  4 16  1  0  0  0  0
  4 32  1  0  0  0  0
  5 19  2  0  0  0  0
  6  7  1  0  0  0  0
  6  8  1  0  0  0  0
  6 10  2  0  0  0  0
  7  9  1  0  0  0  0
  7 12  2  0  0  0  0
  8 11  1  0  0  0  0
  8 20  1  0  0  0  0
  8 21  1  0  0  0  0
  9 13  2  0  0  0  0
 10 22  1  0  0  0  0
 12 15  1  0  0  0  0
 12 24  1  0  0  0  0
 13 17  1  0  0  0  0
 13 25  1  0  0  0  0
 14 16  1  0  0  0  0
 14 26  1  0  0  0  0
 14 27  1  0  0  0  0
 15 17  2  0  0  0  0
 15 29  1  0  0  0  0
 16 18  2  0  0  0  0
 17 30  1  0  0  0  0
 18 19  1  0  0  0  0
 18 31  1  0  0  0  0
 19 33  1  0  0  0  0
M  END
> <PUBCHEM_COMPOUND_CID>
47205221

> <PUBCHEM_COMPOUND_CANONICALIZED>
1

> <PUBCHEM_CACTVS_COMPLEXITY>
323

> <PUBCHEM_CACTVS_HBOND_ACCEPTOR>
2

> <PUBCHEM_CACTVS_HBOND_DONOR>
3

> <PUBCHEM_CACTVS_ROTATABLE_BOND>
4

> <PUBCHEM_CACTVS_SUBSKEYS>
AAADccBzoAAAAAAAAAAAAAAAAAAAAWLAAAAwAAAAAAAAAFgB/AAAHgAYAAAADAjBngQ8wPLrkACqAzV3VACShCAxgiAY+aE4ZJgIYPLA1dGUpAhgngDIyAccicCegAAAAAACAAAAAAAAAAQAAAAAAAAAAA==

> <PUBCHEM_IUPAC_OPENEYE_NAME>
2-(1H-indol-3-yl)-N-(1H-pyrazol-5-ylmethyl)acetamide

> <PUBCHEM_IUPAC_CAS_NAME>
2-(1H-indol-3-yl)-N-(1H-pyrazol-5-ylmethyl)acetamide

> <PUBCHEM_IUPAC_NAME>
2-(1H-indol-3-yl)-N-(1H-pyrazol-5-ylmethyl)acetamide

> <PUBCHEM_IUPAC_SYSTEMATIC_NAME>
2-(1H-indol-3-yl)-N-(1H-pyrazol-5-ylmethyl)ethanamide

> <PUBCHEM_IUPAC_TRADITIONAL_NAME>
2-(1H-indol-3-yl)-N-(1H-pyrazol-5-ylmethyl)acetamide

> <PUBCHEM_IUPAC_INCHI>
InChI=1S/C14H14N4O/c19-14(16-9-11-5-6-17-18-11)7-10-8-15-13-4-2-1-3-12(10)13/h1-6,8,15H,7,9H2,(H,16,19)(H,17,18)

> <PUBCHEM_IUPAC_INCHIKEY>
TWWXQRLDXSQTIJ-UHFFFAOYSA-N

> <PUBCHEM_XLOGP3>
1

> <PUBCHEM_EXACT_MASS>
254.116761

> <PUBCHEM_MOLECULAR_FORMULA>
C14H14N4O

> <PUBCHEM_MOLECULAR_WEIGHT>
254.28716

> <PUBCHEM_OPENEYE_CAN_SMILES>
C1=CC=C2C(=C1)C(=CN2)CC(=O)NCC3=CC=NN3

> <PUBCHEM_OPENEYE_ISO_SMILES>
C1=CC=C2C(=C1)C(=CN2)CC(=O)NCC3=CC=NN3

> <PUBCHEM_CACTVS_TPSA>
73.6

> <PUBCHEM_MONOISOTOPIC_WEIGHT>
254.116761

> <PUBCHEM_TOTAL_CHARGE>
0

> <PUBCHEM_HEAVY_ATOM_COUNT>
19

> <PUBCHEM_ATOM_DEF_STEREO_COUNT>
0

> <PUBCHEM_ATOM_UDEF_STEREO_COUNT>
0

> <PUBCHEM_BOND_DEF_STEREO_COUNT>
0

> <PUBCHEM_BOND_UDEF_STEREO_COUNT>
0

> <PUBCHEM_ISOTOPIC_ATOM_COUNT>
0

> <PUBCHEM_COMPONENT_COUNT>
1

> <PUBCHEM_CACTVS_TAUTO_COUNT>
4

> <PUBCHEM_COORDINATE_TYPE>
1
5
255

> <PUBCHEM_BONDANNOTATIONS>
12  15  8
13  17  8
15  17  8
16  18  8
18  19  8
2  10  8
2  9  8
4  16  8
4  5  8
5  19  8
6  10  8
6  7  8
7  12  8
7  9  8
9  13  8

$$$$

