12606
  -OEChem-06261207093D

 18 18  0     0  0  0  0  0  0999 V2000
   -0.9579    2.3471   -0.0001 F   0  0  0  0  0  0  0  0  0  0  0  0
    2.4872   -1.3767   -0.0003 O   0  0  0  0  0  0  0  0  0  0  0  0
    1.1929    0.5915    0.0004 N   0  0  0  0  0  0  0  0  0  0  0  0
    3.5025    0.6702   -0.0002 N   0  0  0  0  0  0  0  0  0  0  0  0
   -0.1217    0.1239    0.0004 C   0  0  0  0  0  0  0  0  0  0  0  0
   -1.1856    1.0259    0.0001 C   0  0  0  0  0  0  0  0  0  0  0  0
   -0.3709   -1.2486    0.0003 C   0  0  0  0  0  0  0  0  0  0  0  0
   -2.4987    0.5555   -0.0003 C   0  0  0  0  0  0  0  0  0  0  0  0
   -1.6841   -1.7189    0.0000 C   0  0  0  0  0  0  0  0  0  0  0  0
   -2.7480   -0.8170   -0.0002 C   0  0  0  0  0  0  0  0  0  0  0  0
    2.3843   -0.1527   -0.0001 C   0  0  0  0  0  0  0  0  0  0  0  0
    0.3988   -2.0076    0.0006 H   0  0  0  0  0  0  0  0  0  0  0  0
    1.2988    1.6031    0.0004 H   0  0  0  0  0  0  0  0  0  0  0  0
   -3.3269    1.2580   -0.0006 H   0  0  0  0  0  0  0  0  0  0  0  0
   -1.8797   -2.7875    0.0000 H   0  0  0  0  0  0  0  0  0  0  0  0
   -3.7705   -1.1831   -0.0004 H   0  0  0  0  0  0  0  0  0  0  0  0
    4.4396    0.2814   -0.0006 H   0  0  0  0  0  0  0  0  0  0  0  0
    3.4212    1.6813   -0.0001 H   0  0  0  0  0  0  0  0  0  0  0  0
  1  6  1  0  0  0  0
  2 11  2  0  0  0  0
  3  5  1  0  0  0  0
  3 11  1  0  0  0  0
  3 13  1  0  0  0  0
  4 11  1  0  0  0  0
  4 17  1  0  0  0  0
  4 18  1  0  0  0  0
  5  6  1  0  0  0  0
  5  7  2  0  0  0  0
  6  8  2  0  0  0  0
  7  9  1  0  0  0  0
  7 12  1  0  0  0  0
  8 10  1  0  0  0  0
  8 14  1  0  0  0  0
  9 10  2  0  0  0  0
  9 15  1  0  0  0  0
 10 16  1  0  0  0  0
M  END
> <PUBCHEM_COMPOUND_CID>
12606

> <PUBCHEM_CONFORMER_RMSD>
0.4

> <PUBCHEM_CONFORMER_DIVERSEORDER>
1
12
20
21
16
15
10
3
7
6
2
11
14
17
13
18
19
8
4
9
5

> <PUBCHEM_MMFF94_PARTIAL_CHARGES>
18
1 -0.19
10 -0.15
11 0.69
12 0.15
13 0.37
14 0.15
15 0.15
16 0.15
17 0.37
18 0.37
2 -0.57
3 -0.55
4 -0.8
5 0.12
6 0.19
7 -0.15
8 -0.15
9 -0.15

> <PUBCHEM_EFFECTIVE_ROTOR_COUNT>
2

> <PUBCHEM_PHARMACOPHORE_FEATURES>
4
1 2 acceptor
1 3 donor
1 4 donor
6 5 6 7 8 9 10 rings

> <PUBCHEM_HEAVY_ATOM_COUNT>
11

> <PUBCHEM_ATOM_DEF_STEREO_COUNT>
0

> <PUBCHEM_ATOM_UDEF_STEREO_COUNT>
0

> <PUBCHEM_BOND_DEF_STEREO_COUNT>
0

> <PUBCHEM_BOND_UDEF_STEREO_COUNT>
0

> <PUBCHEM_ISOTOPIC_ATOM_COUNT>
0

> <PUBCHEM_COMPONENT_COUNT>
1

> <PUBCHEM_CACTVS_TAUTO_COUNT>
3

> <PUBCHEM_CONFORMER_ID>
0000313E00000001

> <PUBCHEM_MMFF94_ENERGY>
27.8211

> <PUBCHEM_FEATURE_SELFOVERLAP>
20.346

> <PUBCHEM_SHAPE_FINGERPRINT>
10857977 72 18336557001310757289
12897270 3 18410292476131558734
12932764 1 17458072551320301950
13024252 1 17561083592440048083
14325111 11 18410575114770093472
16945 1 18410575110564868423
193761 8 17689999359596653775
19973954 147 18337669819037411876
20201158 50 18408605829447281206
20871998 184 18187923937352926167
23552423 10 18272931579142131582
2748010 2 18193562155591219327
369184 2 18407760347875949715
5084963 1 18187931741060199715
6333449 129 18408326570504662861

> <PUBCHEM_SHAPE_MULTIPOLES>
203.27
4.54
1.8
0.58
3.14
0.32
0
-0.35
0
-0.62
0
-0.06
-0.02
0

> <PUBCHEM_SHAPE_SELFOVERLAP>
423.838

> <PUBCHEM_SHAPE_VOLUME>
114.8

> <PUBCHEM_COORDINATE_TYPE>
2
5
10

$$$$

