4654
  -OEChem-06261200163D

 23 23  0     1  0  0  0  0  0999 V2000
    4.1960   -0.6240   -0.3929 F   0  0  0  0  0  0  0  0  0  0  0  0
   -1.7622   -1.5929   -1.0255 O   0  0  0  0  0  0  0  0  0  0  0  0
   -3.4471   -1.1819    0.4455 O   0  0  0  0  0  0  0  0  0  0  0  0
   -3.2386    1.4965   -0.2342 N   0  0  0  0  0  0  0  0  0  0  0  0
   -1.0557    1.0096    0.7673 C   0  0  0  0  0  0  0  0  0  0  0  0
   -2.0460    0.6549   -0.3503 C   0  0  1  0  0  0  0  0  0  0  0  0
    0.3569    0.5703    0.4547 C   0  0  0  0  0  0  0  0  0  0  0  0
    0.7751   -0.6912    0.8437 C   0  0  0  0  0  0  0  0  0  0  0  0
    1.2039    1.4385   -0.2133 C   0  0  0  0  0  0  0  0  0  0  0  0
   -2.5130   -0.7826   -0.2354 C   0  0  0  0  0  0  0  0  0  0  0  0
    2.0785   -1.0963    0.5566 C   0  0  0  0  0  0  0  0  0  0  0  0
    2.5074    1.0332   -0.5007 C   0  0  0  0  0  0  0  0  0  0  0  0
    2.9447   -0.2341   -0.1156 C   0  0  0  0  0  0  0  0  0  0  0  0
   -1.3711    0.5747    1.7257 H   0  0  0  0  0  0  0  0  0  0  0  0
   -1.0420    2.0965    0.9312 H   0  0  0  0  0  0  0  0  0  0  0  0
   -1.6174    0.8248   -1.3445 H   0  0  0  0  0  0  0  0  0  0  0  0
    0.1098   -1.3691    1.3704 H   0  0  0  0  0  0  0  0  0  0  0  0
    0.8718    2.4263   -0.5193 H   0  0  0  0  0  0  0  0  0  0  0  0
   -3.6843    1.3508    0.6708 H   0  0  0  0  0  0  0  0  0  0  0  0
   -3.9214    1.2328   -0.9433 H   0  0  0  0  0  0  0  0  0  0  0  0
    2.4193   -2.0829    0.8564 H   0  0  0  0  0  0  0  0  0  0  0  0
    3.1818    1.7039   -1.0250 H   0  0  0  0  0  0  0  0  0  0  0  0
   -2.0546   -2.5278   -0.9729 H   0  0  0  0  0  0  0  0  0  0  0  0
  1 13  1  0  0  0  0
  2 10  1  0  0  0  0
  2 23  1  0  0  0  0
  3 10  2  0  0  0  0
  4  6  1  0  0  0  0
  4 19  1  0  0  0  0
  4 20  1  0  0  0  0
  5  6  1  0  0  0  0
  5  7  1  0  0  0  0
  5 14  1  0  0  0  0
  5 15  1  0  0  0  0
  6 10  1  0  0  0  0
  6 16  1  0  0  0  0
  7  8  2  0  0  0  0
  7  9  1  0  0  0  0
  8 11  1  0  0  0  0
  8 17  1  0  0  0  0
  9 12  2  0  0  0  0
  9 18  1  0  0  0  0
 11 13  2  0  0  0  0
 11 21  1  0  0  0  0
 12 13  1  0  0  0  0
 12 22  1  0  0  0  0
M  END
> <PUBCHEM_COMPOUND_CID>
4654

> <PUBCHEM_CONFORMER_RMSD>
0.6

> <PUBCHEM_CONFORMER_DIVERSEORDER>
1
5
10
4
9
6
8
7
3
2

> <PUBCHEM_MMFF94_PARTIAL_CHARGES>
20
1 -0.19
10 0.66
11 -0.15
12 -0.15
13 0.19
17 0.15
18 0.15
19 0.36
2 -0.65
20 0.36
21 0.15
22 0.15
23 0.5
3 -0.57
4 -0.99
5 0.14
6 0.33
7 -0.14
8 -0.15
9 -0.15

> <PUBCHEM_EFFECTIVE_ROTOR_COUNT>
3

> <PUBCHEM_PHARMACOPHORE_FEATURES>
6
1 2 acceptor
1 3 acceptor
1 4 cation
1 4 donor
3 2 3 10 anion
6 7 8 9 11 12 13 rings

> <PUBCHEM_HEAVY_ATOM_COUNT>
13

> <PUBCHEM_ATOM_DEF_STEREO_COUNT>
0

> <PUBCHEM_ATOM_UDEF_STEREO_COUNT>
1

> <PUBCHEM_BOND_DEF_STEREO_COUNT>
0

> <PUBCHEM_BOND_UDEF_STEREO_COUNT>
0

> <PUBCHEM_ISOTOPIC_ATOM_COUNT>
0

> <PUBCHEM_COMPONENT_COUNT>
1

> <PUBCHEM_CACTVS_TAUTO_COUNT>
1

> <PUBCHEM_CONFORMER_ID>
0000122E00000001

> <PUBCHEM_MMFF94_ENERGY>
22.6023

> <PUBCHEM_FEATURE_SELFOVERLAP>
30.503

> <PUBCHEM_SHAPE_FINGERPRINT>
11401426 45 18272092729744136160
11769659 78 18335708230090103270
12897270 3 18131075891898636993
12932764 1 18114745927933504401
13296908 3 18260271832366881376
14128692 85 18335986393610112008
14325111 11 18342174449293662904
15775835 57 18130222760900991157
16945 1 18196378013285886448
17844478 74 18130499726621016027
18186145 218 17846502534444473300
19422 9 18337663118935896411
20279233 1 17022911167641296860
20645476 183 18341335577951495111
21119208 17 18412545443902126460
23402539 116 18201722890497387814
23402655 69 18059575844539881796
23552423 10 18343025458408451849
23559900 14 18041003977467727730
305870 269 8790893977418932012
3312278 4 18409729598939452025
465052 167 18117832202045744607
528886 8 18130792295144915272
7364860 26 18116155467670797392
81228 2 16444453770846812520
93112 12 18342178881668296517
9939556 21 18412545422448577357

> <PUBCHEM_SHAPE_MULTIPOLES>
243.54
5.92
1.6
0.87
0.33
0.05
0.03
-0.96
-0.91
-0.55
-0.11
-0.05
-0.1
-0.29

> <PUBCHEM_SHAPE_SELFOVERLAP>
503.884

> <PUBCHEM_SHAPE_VOLUME>
139.3

> <PUBCHEM_COORDINATE_TYPE>
2
5
10

$$$$

