4647
  -OEChem-06261200163D

 32 32  0     1  0  0  0  0  0999 V2000
    5.0274    1.8724   -0.3290 Cl  0  0  0  0  0  0  0  0  0  0  0  0
    5.4952   -0.9227    0.3783 Cl  0  0  0  0  0  0  0  0  0  0  0  0
   -0.0411    1.3693   -1.5106 O   0  0  0  0  0  0  0  0  0  0  0  0
    0.5578   -2.6891   -0.2135 O   0  0  0  0  0  0  0  0  0  0  0  0
    3.0180    0.4926    1.5829 O   0  0  0  0  0  0  0  0  0  0  0  0
    2.0096   -0.1775   -0.3940 N   0  0  0  0  0  0  0  0  0  0  0  0
   -5.7453    0.3041    0.8448 N   0  0  0  0  0  0  0  0  0  0  0  0
    0.6627   -0.2714    0.1365 C   0  0  1  0  0  0  0  0  0  0  0  0
   -0.3552    0.0821   -0.9691 C   0  0  1  0  0  0  0  0  0  0  0  0
   -1.7873    0.1416   -0.4878 C   0  0  0  0  0  0  0  0  0  0  0  0
    0.4568   -1.6573    0.7595 C   0  0  0  0  0  0  0  0  0  0  0  0
   -2.7424   -0.6478   -1.1057 C   0  0  0  0  0  0  0  0  0  0  0  0
   -2.1140    0.9836    0.5619 C   0  0  0  0  0  0  0  0  0  0  0  0
    3.0841    0.2022    0.3894 C   0  0  0  0  0  0  0  0  0  0  0  0
   -4.0633   -0.5934   -0.6610 C   0  0  0  0  0  0  0  0  0  0  0  0
   -3.4350    1.0379    1.0066 C   0  0  0  0  0  0  0  0  0  0  0  0
   -4.4097    0.2492    0.3953 C   0  0  0  0  0  0  0  0  0  0  0  0
    4.3816    0.2241   -0.3842 C   0  0  0  0  0  0  0  0  0  0  0  0
    0.5980    0.4706    0.9417 H   0  0  0  0  0  0  0  0  0  0  0  0
   -0.2637   -0.6310   -1.7981 H   0  0  0  0  0  0  0  0  0  0  0  0
   -0.5264   -1.7297    1.2351 H   0  0  0  0  0  0  0  0  0  0  0  0
    1.2144   -1.8484    1.5277 H   0  0  0  0  0  0  0  0  0  0  0  0
    2.1661   -0.4735   -1.3532 H   0  0  0  0  0  0  0  0  0  0  0  0
   -2.4848   -1.3085   -1.9283 H   0  0  0  0  0  0  0  0  0  0  0  0
   -1.3725    1.6147    1.0419 H   0  0  0  0  0  0  0  0  0  0  0  0
    0.8816    1.3402   -1.8160 H   0  0  0  0  0  0  0  0  0  0  0  0
   -4.8137   -1.2130   -1.1456 H   0  0  0  0  0  0  0  0  0  0  0  0
   -3.6929    1.7007    1.8287 H   0  0  0  0  0  0  0  0  0  0  0  0
    0.4161   -3.5326    0.2489 H   0  0  0  0  0  0  0  0  0  0  0  0
    4.2543   -0.0616   -1.4313 H   0  0  0  0  0  0  0  0  0  0  0  0
   -5.9968    0.9143    1.6111 H   0  0  0  0  0  0  0  0  0  0  0  0
   -6.4522   -0.2680    0.4024 H   0  0  0  0  0  0  0  0  0  0  0  0
  1 18  1  0  0  0  0
  2 18  1  0  0  0  0
  3  9  1  0  0  0  0
  3 26  1  0  0  0  0
  4 11  1  0  0  0  0
  4 29  1  0  0  0  0
  5 14  2  0  0  0  0
  6  8  1  0  0  0  0
  6 14  1  0  0  0  0
  6 23  1  0  0  0  0
  7 17  1  0  0  0  0
  7 31  1  0  0  0  0
  7 32  1  0  0  0  0
  8  9  1  0  0  0  0
  8 11  1  0  0  0  0
  8 19  1  0  0  0  0
  9 10  1  0  0  0  0
  9 20  1  0  0  0  0
 10 12  2  0  0  0  0
 10 13  1  0  0  0  0
 11 21  1  0  0  0  0
 11 22  1  0  0  0  0
 12 15  1  0  0  0  0
 12 24  1  0  0  0  0
 13 16  2  0  0  0  0
 13 25  1  0  0  0  0
 14 18  1  0  0  0  0
 15 17  2  0  0  0  0
 15 27  1  0  0  0  0
 16 17  1  0  0  0  0
 16 28  1  0  0  0  0
 18 30  1  0  0  0  0
M  END
> <PUBCHEM_COMPOUND_CID>
4647

> <PUBCHEM_CONFORMER_RMSD>
0.8

> <PUBCHEM_CONFORMER_DIVERSEORDER>
1
46
20
15
13
48
41
23
37
22
17
51
4
21
32
45
8
44
9
34
14
52
38
36
31
12
29
24
10
35
39
2
25
7
28
19
26
40
50
27
49
5
6
42
30
43
16
18
47
53
3
33
11

> <PUBCHEM_MMFF94_PARTIAL_CHARGES>
27
1 -0.29
10 -0.14
11 0.28
12 -0.15
13 -0.15
14 0.57
15 -0.15
16 -0.15
17 0.1
18 0.64
2 -0.29
23 0.37
24 0.15
25 0.15
26 0.4
27 0.15
28 0.15
29 0.4
3 -0.68
31 0.4
32 0.4
4 -0.68
5 -0.57
6 -0.73
7 -0.9
8 0.3
9 0.42

> <PUBCHEM_EFFECTIVE_ROTOR_COUNT>
6

> <PUBCHEM_PHARMACOPHORE_FEATURES>
9
1 3 acceptor
1 3 donor
1 4 acceptor
1 4 donor
1 5 acceptor
1 6 donor
1 7 cation
1 7 donor
6 10 12 13 15 16 17 rings

> <PUBCHEM_HEAVY_ATOM_COUNT>
18

> <PUBCHEM_ATOM_DEF_STEREO_COUNT>
0

> <PUBCHEM_ATOM_UDEF_STEREO_COUNT>
2

> <PUBCHEM_BOND_DEF_STEREO_COUNT>
0

> <PUBCHEM_BOND_UDEF_STEREO_COUNT>
0

> <PUBCHEM_ISOTOPIC_ATOM_COUNT>
0

> <PUBCHEM_COMPONENT_COUNT>
1

> <PUBCHEM_CACTVS_TAUTO_COUNT>
2

> <PUBCHEM_CONFORMER_ID>
0000122700000001

> <PUBCHEM_MMFF94_ENERGY>
46.6288

> <PUBCHEM_FEATURE_SELFOVERLAP>
45.675

> <PUBCHEM_SHAPE_FINGERPRINT>
106641 1 17845647049862966473
12236239 1 18408885127191928149
12507560 40 18265892652378785725
12596602 18 18272646823084863377
12916748 109 16081083792502641320
13288520 33 13614519667104412331
14251764 18 18335426764447184322
14341114 328 18187079555182394065
14787075 74 18334575702943435977
15295992 7 18041002787239619218
15309172 13 18202286913670581974
17834072 8 14490466483129392108
18186145 218 18187097143400414808
200 152 16128658560971964861
204376 136 18272088270961596786
20645477 56 14635164403746159008
21029758 11 8574709100640423390
212847 35 18040154015955655000
22079108 93 18336829693037247016
22224240 67 18201999902670963771
22854114 59 18341895207552032257
23402539 116 17676777512664832647
23493267 7 16515684476807035651
23557571 272 15482392066073765959
23559900 14 16805590504400088940
347723 3 4823218290478865502
458136 41 18410009974631836298
465052 167 17489862748051712090
474 4 18409726231653657632
5104073 3 17386296393304095570
5283173 99 7997706254855791522
542803 24 18334575733008063964
633830 44 17822866294185074564

> <PUBCHEM_SHAPE_MULTIPOLES>
346.6
11.74
1.63
1.17
3.56
0.56
0.01
-2.42
-1.88
1.14
0.02
-0.32
-0.17
-0.84

> <PUBCHEM_SHAPE_SELFOVERLAP>
689.455

> <PUBCHEM_SHAPE_VOLUME>
205.9

> <PUBCHEM_COORDINATE_TYPE>
2
5
10

$$$$

