582720
  -OEChem-06241222433D

 48 49  0     0  0  0  0  0  0999 V2000
   -2.5871   -1.5259   -0.4075 Si  0  0  0  0  0  0  0  0  0  0  0  0
   -3.5555    1.0707    0.5881 Si  0  0  0  0  0  0  0  0  0  0  0  0
   -2.2308    0.1446   -0.0646 N   0  0  0  0  0  0  0  0  0  0  0  0
    3.3204    1.9676   -0.6460 N   0  0  0  0  0  0  0  0  0  0  0  0
   -0.8402    0.5674    0.2053 C   0  0  0  0  0  0  0  0  0  0  0  0
   -4.4218   -1.7972   -0.7134 C   0  0  0  0  0  0  0  0  0  0  0  0
   -1.7230   -2.0220   -2.0314 C   0  0  0  0  0  0  0  0  0  0  0  0
   -1.9535   -2.7175    0.8944 C   0  0  0  0  0  0  0  0  0  0  0  0
   -3.4325    2.8388   -0.1017 C   0  0  0  0  0  0  0  0  0  0  0  0
   -3.3911    1.2001    2.4580 C   0  0  0  0  0  0  0  0  0  0  0  0
   -5.2784    0.4820    0.1488 C   0  0  0  0  0  0  0  0  0  0  0  0
    0.0985    0.2793   -0.9649 C   0  0  0  0  0  0  0  0  0  0  0  0
    1.5110    0.7247   -0.7163 C   0  0  0  0  0  0  0  0  0  0  0  0
    2.5291   -0.0543   -0.1330 C   0  0  0  0  0  0  0  0  0  0  0  0
    2.0050    1.9555   -1.0248 C   0  0  0  0  0  0  0  0  0  0  0  0
    3.6680    0.7533   -0.0981 C   0  0  0  0  0  0  0  0  0  0  0  0
    2.6124   -1.3664    0.3737 C   0  0  0  0  0  0  0  0  0  0  0  0
    4.8908    0.3126    0.4205 C   0  0  0  0  0  0  0  0  0  0  0  0
    3.8291   -1.8208    0.8954 C   0  0  0  0  0  0  0  0  0  0  0  0
    4.9495   -0.9925    0.9175 C   0  0  0  0  0  0  0  0  0  0  0  0
   -0.4689    0.0863    1.1217 H   0  0  0  0  0  0  0  0  0  0  0  0
   -0.7911    1.6470    0.4037 H   0  0  0  0  0  0  0  0  0  0  0  0
   -5.0266   -1.9340    0.1810 H   0  0  0  0  0  0  0  0  0  0  0  0
   -4.8505   -1.2276   -1.5364 H   0  0  0  0  0  0  0  0  0  0  0  0
   -4.4530   -2.8171   -1.1297 H   0  0  0  0  0  0  0  0  0  0  0  0
   -1.6280   -1.1705   -2.7103 H   0  0  0  0  0  0  0  0  0  0  0  0
   -0.7453   -2.4756   -1.8503 H   0  0  0  0  0  0  0  0  0  0  0  0
   -2.3303   -2.7796   -2.5381 H   0  0  0  0  0  0  0  0  0  0  0  0
   -0.8698   -2.6253    1.0128 H   0  0  0  0  0  0  0  0  0  0  0  0
   -2.4214   -2.5157    1.8626 H   0  0  0  0  0  0  0  0  0  0  0  0
   -2.1794   -3.7508    0.6149 H   0  0  0  0  0  0  0  0  0  0  0  0
   -3.4725    2.8211   -1.1947 H   0  0  0  0  0  0  0  0  0  0  0  0
   -4.2647    3.4450    0.2681 H   0  0  0  0  0  0  0  0  0  0  0  0
   -2.4971    3.3127    0.2081 H   0  0  0  0  0  0  0  0  0  0  0  0
   -2.4294    1.6425    2.7344 H   0  0  0  0  0  0  0  0  0  0  0  0
   -4.1873    1.8274    2.8697 H   0  0  0  0  0  0  0  0  0  0  0  0
   -3.4607    0.2110    2.9203 H   0  0  0  0  0  0  0  0  0  0  0  0
   -5.9141    1.3296    0.4521 H   0  0  0  0  0  0  0  0  0  0  0  0
   -5.5062    0.4236   -0.9155 H   0  0  0  0  0  0  0  0  0  0  0  0
   -5.6919   -0.3075    0.7752 H   0  0  0  0  0  0  0  0  0  0  0  0
    0.1811   -0.7873   -1.1569 H   0  0  0  0  0  0  0  0  0  0  0  0
   -0.2745    0.7560   -1.8804 H   0  0  0  0  0  0  0  0  0  0  0  0
    1.5541    2.8281   -1.4764 H   0  0  0  0  0  0  0  0  0  0  0  0
    3.9466    2.7537   -0.7524 H   0  0  0  0  0  0  0  0  0  0  0  0
    1.7490   -2.0253    0.3660 H   0  0  0  0  0  0  0  0  0  0  0  0
    5.7636    0.9567    0.4381 H   0  0  0  0  0  0  0  0  0  0  0  0
    3.8991   -2.8318    1.2880 H   0  0  0  0  0  0  0  0  0  0  0  0
    5.8844   -1.3660    1.3275 H   0  0  0  0  0  0  0  0  0  0  0  0
  1  3  1  0  0  0  0
  1  6  1  0  0  0  0
  1  7  1  0  0  0  0
  1  8  1  0  0  0  0
  2  3  1  0  0  0  0
  2  9  1  0  0  0  0
  2 10  1  0  0  0  0
  2 11  1  0  0  0  0
  3  5  1  0  0  0  0
  4 15  1  0  0  0  0
  4 16  1  0  0  0  0
  4 44  1  0  0  0  0
  5 12  1  0  0  0  0
  5 21  1  0  0  0  0
  5 22  1  0  0  0  0
  6 23  1  0  0  0  0
  6 24  1  0  0  0  0
  6 25  1  0  0  0  0
  7 26  1  0  0  0  0
  7 27  1  0  0  0  0
  7 28  1  0  0  0  0
  8 29  1  0  0  0  0
  8 30  1  0  0  0  0
  8 31  1  0  0  0  0
  9 32  1  0  0  0  0
  9 33  1  0  0  0  0
  9 34  1  0  0  0  0
 10 35  1  0  0  0  0
 10 36  1  0  0  0  0
 10 37  1  0  0  0  0
 11 38  1  0  0  0  0
 11 39  1  0  0  0  0
 11 40  1  0  0  0  0
 12 13  1  0  0  0  0
 12 41  1  0  0  0  0
 12 42  1  0  0  0  0
 13 14  1  0  0  0  0
 13 15  2  0  0  0  0
 14 16  1  0  0  0  0
 14 17  2  0  0  0  0
 15 43  1  0  0  0  0
 16 18  2  0  0  0  0
 17 19  1  0  0  0  0
 17 45  1  0  0  0  0
 18 20  1  0  0  0  0
 18 46  1  0  0  0  0
 19 20  2  0  0  0  0
 19 47  1  0  0  0  0
 20 48  1  0  0  0  0
M  END
> <PUBCHEM_COMPOUND_CID>
582720

> <PUBCHEM_CONFORMER_RMSD>
0.8

> <PUBCHEM_CONFORMER_DIVERSEORDER>
1
6
7
3
2
5
4

> <PUBCHEM_MMFF94_PARTIAL_CHARGES>
25
1 0.59
10 -0.08
11 -0.08
12 0.18
13 -0.18
15 -0.3
16 -0.15
17 -0.15
18 -0.15
19 -0.15
2 0.59
20 -0.15
3 -0.96
4 0.03
43 0.15
44 0.27
45 0.15
46 0.15
47 0.15
48 0.15
5 0.27
6 -0.08
7 -0.08
8 -0.08
9 -0.08

> <PUBCHEM_EFFECTIVE_ROTOR_COUNT>
5

> <PUBCHEM_PHARMACOPHORE_FEATURES>
4
1 4 cation
1 4 donor
5 4 13 14 15 16 rings
6 14 16 17 18 19 20 rings

> <PUBCHEM_HEAVY_ATOM_COUNT>
20

> <PUBCHEM_ATOM_DEF_STEREO_COUNT>
0

> <PUBCHEM_ATOM_UDEF_STEREO_COUNT>
0

> <PUBCHEM_BOND_DEF_STEREO_COUNT>
0

> <PUBCHEM_BOND_UDEF_STEREO_COUNT>
0

> <PUBCHEM_ISOTOPIC_ATOM_COUNT>
0

> <PUBCHEM_COMPONENT_COUNT>
1

> <PUBCHEM_CACTVS_TAUTO_COUNT>
1

> <PUBCHEM_CONFORMER_ID>
0008E44000000001

> <PUBCHEM_MMFF94_ENERGY>
54.8787

> <PUBCHEM_FEATURE_SELFOVERLAP>
20.39

> <PUBCHEM_SHAPE_FINGERPRINT>
10616163 171 18338513036786834886
12107183 9 17907582771630666584
12236239 1 18335986393757759638
12467345 10 18412266150990426339
12553582 1 18059023907568461546
12596602 18 18114185211726905480
12633257 1 18411976992058545652
12670546 56 18408890602879715021
12788726 201 18043245739516139471
13167823 11 18411702071270636958
13533116 47 18341334375344749839
13583140 156 18130210593696868489
14251751 93 18341335603974116601
14386348 63 15913326900963685408
14790565 3 18056751037019937676
15442244 35 18342459257217535044
15537594 2 18201715206664290858
17349148 13 18114183059832453197
17492 89 18410291402074120223
17818456 19 18115022029816281672
17857418 61 18341337729402659873
1813 80 16773791545750863220
19050596 39 18411418380280712084
200 152 18339369552118178175
20281475 54 18130790044961710980
20511986 3 18337409174319712625
20554085 129 17387143168398574329
20645477 70 17632304423811665718
21065198 48 18410012104898185196
21728266 224 18187374186176760367
23402539 116 18408328774635451341
23419403 2 13915467999992468399
23557571 272 16950553363926617516
23559900 14 18339088072909927048
23598288 3 18189889825657333295
23598291 2 18343580741776632820
23622692 88 18411136973923141276
23728640 28 18259988141556830927
312423 11 18340195293871812430
341906 21 17385438842990609184
3633792 109 18129119882747096239
4214541 1 18411984680245437725
5104073 3 18410855421505209360
559249 180 18410863195422583055
573450 72 18333453131752032251
5924683 9 18334301942039160199
7064713 232 18186810209520556794
7097593 13 18341893000160368868
9709674 26 18410568474714308950
9862522 239 18265055911013407741
9981440 41 17894904174967120819

> <PUBCHEM_SHAPE_MULTIPOLES>
438.05
11.06
2.81
1.48
6.21
0.29
-0.29
-0.58
-2.6
-1.94
0.22
-0.78
0.11
-1.99

> <PUBCHEM_SHAPE_SELFOVERLAP>
867.613

> <PUBCHEM_SHAPE_VOLUME>
264.8

> <PUBCHEM_COORDINATE_TYPE>
2
5
10

$$$$

