12795
  -OEChem-06261207233D

 21 21  0     0  0  0  0  0  0999 V2000
    0.0005    3.2797   -0.3682 Cl  0  0  0  0  0  0  0  0  0  0  0  0
   -0.0001   -1.0310    0.4598 N   0  0  0  0  0  0  0  0  0  0  0  0
   -1.1996    1.0099    0.0679 N   0  0  0  0  0  0  0  0  0  0  0  0
    1.1999    1.0096    0.0678 N   0  0  0  0  0  0  0  0  0  0  0  0
    2.4130   -1.0388    0.4603 C   0  0  0  0  0  0  0  0  0  0  0  0
   -2.4134   -1.0384    0.4603 C   0  0  0  0  0  0  0  0  0  0  0  0
    1.1222   -0.3068    0.3206 C   0  0  0  0  0  0  0  0  0  0  0  0
   -1.1221   -0.3066    0.3207 C   0  0  0  0  0  0  0  0  0  0  0  0
    2.9161   -1.5900   -0.8716 C   0  0  0  0  0  0  0  0  0  0  0  0
   -2.9165   -1.5894   -0.8717 C   0  0  0  0  0  0  0  0  0  0  0  0
    0.0001    1.6019   -0.0460 C   0  0  0  0  0  0  0  0  0  0  0  0
    3.1705   -0.3692    0.8849 H   0  0  0  0  0  0  0  0  0  0  0  0
    2.2916   -1.8644    1.1716 H   0  0  0  0  0  0  0  0  0  0  0  0
   -2.2921   -1.8639    1.1716 H   0  0  0  0  0  0  0  0  0  0  0  0
   -3.1707   -0.3685    0.8848 H   0  0  0  0  0  0  0  0  0  0  0  0
    2.1943   -2.2900   -1.3059 H   0  0  0  0  0  0  0  0  0  0  0  0
    3.8633   -2.1196   -0.7291 H   0  0  0  0  0  0  0  0  0  0  0  0
    3.0799   -0.7839   -1.5947 H   0  0  0  0  0  0  0  0  0  0  0  0
   -3.0800   -0.7833   -1.5948 H   0  0  0  0  0  0  0  0  0  0  0  0
   -3.8638   -2.1188   -0.7294 H   0  0  0  0  0  0  0  0  0  0  0  0
   -2.1948   -2.2895   -1.3060 H   0  0  0  0  0  0  0  0  0  0  0  0
  1 11  1  0  0  0  0
  2  7  2  0  0  0  0
  2  8  1  0  0  0  0
  3  8  2  0  0  0  0
  3 11  1  0  0  0  0
  4  7  1  0  0  0  0
  4 11  2  0  0  0  0
  5  7  1  0  0  0  0
  5  9  1  0  0  0  0
  5 12  1  0  0  0  0
  5 13  1  0  0  0  0
  6  8  1  0  0  0  0
  6 10  1  0  0  0  0
  6 14  1  0  0  0  0
  6 15  1  0  0  0  0
  9 16  1  0  0  0  0
  9 17  1  0  0  0  0
  9 18  1  0  0  0  0
 10 19  1  0  0  0  0
 10 20  1  0  0  0  0
 10 21  1  0  0  0  0
M  END
> <PUBCHEM_COMPOUND_CID>
12795

> <PUBCHEM_CONFORMER_RMSD>
0.4

> <PUBCHEM_CONFORMER_DIVERSEORDER>
1
9
4
5
2
3
7
6
8

> <PUBCHEM_MMFF94_PARTIAL_CHARGES>
9
1 -0.18
11 0.8
2 -0.62
3 -0.62
4 -0.62
5 0.14
6 0.14
7 0.48
8 0.48

> <PUBCHEM_EFFECTIVE_ROTOR_COUNT>
2

> <PUBCHEM_PHARMACOPHORE_FEATURES>
6
1 10 hydrophobe
1 9 hydrophobe
3 2 3 8 cation
3 2 4 7 cation
3 3 4 11 cation
6 2 3 4 7 8 11 rings

> <PUBCHEM_HEAVY_ATOM_COUNT>
11

> <PUBCHEM_ATOM_DEF_STEREO_COUNT>
0

> <PUBCHEM_ATOM_UDEF_STEREO_COUNT>
0

> <PUBCHEM_BOND_DEF_STEREO_COUNT>
0

> <PUBCHEM_BOND_UDEF_STEREO_COUNT>
0

> <PUBCHEM_ISOTOPIC_ATOM_COUNT>
0

> <PUBCHEM_COMPONENT_COUNT>
1

> <PUBCHEM_CACTVS_TAUTO_COUNT>
4

> <PUBCHEM_CONFORMER_ID>
000031FB00000001

> <PUBCHEM_MMFF94_ENERGY>
11.5883

> <PUBCHEM_FEATURE_SELFOVERLAP>
33.219

> <PUBCHEM_SHAPE_FINGERPRINT>
1 1 17692251833245619917
12138202 97 17760924443519993374
12423570 1 17976846206095920105
12716758 59 17760648466206961674
14128692 85 18335134271929923394
20645477 70 18050579439324419919
20711985 344 18197219358766749746
20871998 184 18120083137715713807
20871998 22 18408321077357899706
21040471 1 17476364271541536000
21524375 3 17120010379652217864
23552423 10 18201148940594859082
23559900 14 17469326298457121942
241688 4 18412263968883315553
2748010 2 18411427210506729777
53812653 217 18051692449263416186
7364860 26 18119527626635255633
81228 2 18268713994219227832

> <PUBCHEM_SHAPE_MULTIPOLES>
213.3
3.82
2.92
0.84
0
3.16
0.11
-3.65
0.78
0
0.67
0
-0.25
0

> <PUBCHEM_SHAPE_SELFOVERLAP>
418.441

> <PUBCHEM_SHAPE_VOLUME>
127

> <PUBCHEM_COORDINATE_TYPE>
2
5
10

$$$$

