12838
  -OEChem-06261207262D

 16 16  0     0  0  0  0  0  0999 V2000
    4.5981    3.0000    0.0000 N   0  0  0  0  0  0  0  0  0  0  0  0
    2.0000    1.5000    0.0000 N   0  0  0  0  0  0  0  0  0  0  0  0
    7.1962   -1.5000    0.0000 N   0  0  0  0  0  0  0  0  0  0  0  0
    4.5981   -3.0000    0.0000 N   0  0  0  0  0  0  0  0  0  0  0  0
    4.5981    1.0000    0.0000 C   0  0  0  0  0  0  0  0  0  0  0  0
    3.7320    0.5000    0.0000 C   0  0  0  0  0  0  0  0  0  0  0  0
    5.4641   -0.5000    0.0000 C   0  0  0  0  0  0  0  0  0  0  0  0
    4.5981   -1.0000    0.0000 C   0  0  0  0  0  0  0  0  0  0  0  0
    5.4641    0.5000    0.0000 C   0  0  0  0  0  0  0  0  0  0  0  0
    3.7320   -0.5000    0.0000 C   0  0  0  0  0  0  0  0  0  0  0  0
    4.5981    2.0000    0.0000 C   0  0  0  0  0  0  0  0  0  0  0  0
    2.8660    1.0000    0.0000 C   0  0  0  0  0  0  0  0  0  0  0  0
    6.3301   -1.0000    0.0000 C   0  0  0  0  0  0  0  0  0  0  0  0
    4.5981   -2.0000    0.0000 C   0  0  0  0  0  0  0  0  0  0  0  0
    6.0010    0.8100    0.0000 H   0  0  0  0  0  0  0  0  0  0  0  0
    3.1951   -0.8100    0.0000 H   0  0  0  0  0  0  0  0  0  0  0  0
  1 11  3  0  0  0  0
  2 12  3  0  0  0  0
  3 13  3  0  0  0  0
  4 14  3  0  0  0  0
  5  6  2  0  0  0  0
  5  9  1  0  0  0  0
  5 11  1  0  0  0  0
  6 10  1  0  0  0  0
  6 12  1  0  0  0  0
  7  8  1  0  0  0  0
  7  9  2  0  0  0  0
  7 13  1  0  0  0  0
  8 10  2  0  0  0  0
  8 14  1  0  0  0  0
  9 15  1  0  0  0  0
 10 16  1  0  0  0  0
M  END
> <PUBCHEM_COMPOUND_CID>
12838

> <PUBCHEM_COMPOUND_CANONICALIZED>
1

> <PUBCHEM_CACTVS_COMPLEXITY>
332

> <PUBCHEM_CACTVS_HBOND_ACCEPTOR>
4

> <PUBCHEM_CACTVS_HBOND_DONOR>
0

> <PUBCHEM_CACTVS_ROTATABLE_BOND>
0

> <PUBCHEM_CACTVS_SUBSKEYS>
AAADcQBzgAAAAAAAAAAAAAAAAAAAAAAAAAAwAAAAAAAAAAABAAAAHAAAAAAADACBGAAwAIAAAACQBiBCAAAiAAAgAAAAiAAAAIgIoCKAEBCAIAAggAAIiA8AgMAOwAACAAAQAACAAAQAACAAAAAAAAAAAA==

> <PUBCHEM_IUPAC_OPENEYE_NAME>
benzene-1,2,4,5-tetracarbonitrile

> <PUBCHEM_IUPAC_CAS_NAME>
benzene-1,2,4,5-tetracarbonitrile

> <PUBCHEM_IUPAC_NAME>
benzene-1,2,4,5-tetracarbonitrile

> <PUBCHEM_IUPAC_SYSTEMATIC_NAME>
benzene-1,2,4,5-tetracarbonitrile

> <PUBCHEM_IUPAC_TRADITIONAL_NAME>
benzene-1,2,4,5-tetracarbonitrile

> <PUBCHEM_IUPAC_INCHI>
InChI=1S/C10H2N4/c11-3-7-1-8(4-12)10(6-14)2-9(7)5-13/h1-2H

> <PUBCHEM_IUPAC_INCHIKEY>
FAAXSAZENACQBT-UHFFFAOYSA-N

> <PUBCHEM_XLOGP3_AA>
0.8

> <PUBCHEM_EXACT_MASS>
178.027946

> <PUBCHEM_MOLECULAR_FORMULA>
C10H2N4

> <PUBCHEM_MOLECULAR_WEIGHT>
178.14968

> <PUBCHEM_OPENEYE_CAN_SMILES>
C1=C(C(=CC(=C1C#N)C#N)C#N)C#N

> <PUBCHEM_OPENEYE_ISO_SMILES>
C1=C(C(=CC(=C1C#N)C#N)C#N)C#N

> <PUBCHEM_CACTVS_TPSA>
95.2

> <PUBCHEM_MONOISOTOPIC_WEIGHT>
178.027946

> <PUBCHEM_TOTAL_CHARGE>
0

> <PUBCHEM_HEAVY_ATOM_COUNT>
14

> <PUBCHEM_ATOM_DEF_STEREO_COUNT>
0

> <PUBCHEM_ATOM_UDEF_STEREO_COUNT>
0

> <PUBCHEM_BOND_DEF_STEREO_COUNT>
0

> <PUBCHEM_BOND_UDEF_STEREO_COUNT>
0

> <PUBCHEM_ISOTOPIC_ATOM_COUNT>
0

> <PUBCHEM_COMPONENT_COUNT>
1

> <PUBCHEM_CACTVS_TAUTO_COUNT>
1

> <PUBCHEM_COORDINATE_TYPE>
1
5
255

> <PUBCHEM_BONDANNOTATIONS>
5  6  8
5  9  8
6  10  8
7  8  8
7  9  8
8  10  8

$$$$

