12079
  -OEChem-06261206293D

 15 15  0     0  0  0  0  0  0999 V2000
    3.2886   -0.0255    0.0003 O   0  5  0  0  0  0  0  0  0  0  0  0
    2.2139    1.8886   -0.0004 O   0  0  0  0  0  0  0  0  0  0  0  0
    2.2210    0.6338    0.0001 N   0  3  0  0  0  0  0  0  0  0  0  0
   -3.6634    1.2836    0.0002 N   0  0  0  0  0  0  0  0  0  0  0  0
    0.9829   -0.0614    0.0000 C   0  0  0  0  0  0  0  0  0  0  0  0
   -0.2174    0.6494    0.0000 C   0  0  0  0  0  0  0  0  0  0  0  0
    0.9673   -1.4563    0.0000 C   0  0  0  0  0  0  0  0  0  0  0  0
   -1.4330   -0.0347   -0.0001 C   0  0  0  0  0  0  0  0  0  0  0  0
   -0.2483   -2.1403   -0.0001 C   0  0  0  0  0  0  0  0  0  0  0  0
   -1.4484   -1.4296   -0.0001 C   0  0  0  0  0  0  0  0  0  0  0  0
   -2.6632    0.6924    0.0001 C   0  0  0  0  0  0  0  0  0  0  0  0
   -0.2276    1.7378    0.0000 H   0  0  0  0  0  0  0  0  0  0  0  0
    1.8823   -2.0432    0.0000 H   0  0  0  0  0  0  0  0  0  0  0  0
   -0.2606   -3.2264   -0.0001 H   0  0  0  0  0  0  0  0  0  0  0  0
   -2.3879   -1.9772   -0.0001 H   0  0  0  0  0  0  0  0  0  0  0  0
  1  3  1  0  0  0  0
  2  3  2  0  0  0  0
  3  5  1  0  0  0  0
  4 11  3  0  0  0  0
  5  6  1  0  0  0  0
  5  7  2  0  0  0  0
  6  8  2  0  0  0  0
  6 12  1  0  0  0  0
  7  9  1  0  0  0  0
  7 13  1  0  0  0  0
  8 10  1  0  0  0  0
  8 11  1  0  0  0  0
  9 10  2  0  0  0  0
  9 14  1  0  0  0  0
 10 15  1  0  0  0  0
M  CHG  2   1  -1   3   1
M  END
> <PUBCHEM_COMPOUND_CID>
12079

> <PUBCHEM_CONFORMER_RMSD>
0.4

> <PUBCHEM_CONFORMER_DIVERSEORDER>
1

> <PUBCHEM_MMFF94_PARTIAL_CHARGES>
15
1 -0.52
10 -0.15
11 0.48
12 0.15
13 0.15
14 0.15
15 0.15
2 -0.52
3 0.91
4 -0.56
5 0.13
6 -0.15
7 -0.15
8 0.07
9 -0.15

> <PUBCHEM_EFFECTIVE_ROTOR_COUNT>
1

> <PUBCHEM_PHARMACOPHORE_FEATURES>
5
1 1 acceptor
1 1 anion
1 2 acceptor
1 4 acceptor
6 5 6 7 8 9 10 rings

> <PUBCHEM_HEAVY_ATOM_COUNT>
11

> <PUBCHEM_ATOM_DEF_STEREO_COUNT>
0

> <PUBCHEM_ATOM_UDEF_STEREO_COUNT>
0

> <PUBCHEM_BOND_DEF_STEREO_COUNT>
0

> <PUBCHEM_BOND_UDEF_STEREO_COUNT>
0

> <PUBCHEM_ISOTOPIC_ATOM_COUNT>
0

> <PUBCHEM_COMPONENT_COUNT>
1

> <PUBCHEM_CACTVS_TAUTO_COUNT>
1

> <PUBCHEM_CONFORMER_ID>
00002F2F00000001

> <PUBCHEM_MMFF94_ENERGY>
26.7379

> <PUBCHEM_FEATURE_SELFOVERLAP>
25.453

> <PUBCHEM_SHAPE_FINGERPRINT>
1 1 18338800125369892199
13380535 76 18410577305425324295
14325111 11 18410856529590927201
14897335 6 18408892853627168423
15775835 57 18344143687614454084
16945 1 18338799034363744263
19973954 147 18122906426088950780
20653085 51 18339914927128454770
20871998 184 17973715883612547303
21028194 46 18412821374255327993
21040471 1 18410575058893476519
21524375 3 18411422817018826119
23235685 24 18410580612354645105
23402655 69 18191600838108189189
23552423 10 18056200172576511398
23559900 14 18261104159503100052
241688 4 16968011727491171643
2748010 2 18338229358470315110
528862 383 18199194068860454531
528886 8 18410298029218285003

> <PUBCHEM_SHAPE_MULTIPOLES>
204.67
4.43
1.95
0.58
0.75
0.56
0
-2.55
0
-0.06
0
0.04
0.04
0

> <PUBCHEM_SHAPE_SELFOVERLAP>
430.979

> <PUBCHEM_SHAPE_VOLUME>
113.9

> <PUBCHEM_COORDINATE_TYPE>
2
5
10

$$$$

