12417
  -OEChem-06261206553D

 16 15  0     0  0  0  0  0  0999 V2000
   -2.0312   -0.0089    0.0000 O   0  0  0  0  0  0  0  0  0  0  0  0
    0.4089   -0.0099   -0.0001 C   0  0  0  0  0  0  0  0  0  0  0  0
    1.1409    0.4606    1.2607 C   0  0  0  0  0  0  0  0  0  0  0  0
    0.3109   -1.5385   -0.0094 C   0  0  0  0  0  0  0  0  0  0  0  0
    1.1486    0.4756   -1.2505 C   0  0  0  0  0  0  0  0  0  0  0  0
   -0.9780    0.6211   -0.0007 C   0  0  0  0  0  0  0  0  0  0  0  0
    2.1548    0.0484    1.3090 H   0  0  0  0  0  0  0  0  0  0  0  0
    1.2206    1.5535    1.2914 H   0  0  0  0  0  0  0  0  0  0  0  0
    0.6064    0.1505    2.1661 H   0  0  0  0  0  0  0  0  0  0  0  0
   -0.2299   -1.9074    0.8699 H   0  0  0  0  0  0  0  0  0  0  0  0
   -0.2256   -1.8969   -0.8956 H   0  0  0  0  0  0  0  0  0  0  0  0
    1.3047   -1.9998   -0.0096 H   0  0  0  0  0  0  0  0  0  0  0  0
    2.1626    0.0636   -1.2976 H   0  0  0  0  0  0  0  0  0  0  0  0
    0.6194    0.1765   -2.1628 H   0  0  0  0  0  0  0  0  0  0  0  0
    1.2288    1.5687   -1.2676 H   0  0  0  0  0  0  0  0  0  0  0  0
   -0.9959    1.7258   -0.0002 H   0  0  0  0  0  0  0  0  0  0  0  0
  1  6  2  0  0  0  0
  2  3  1  0  0  0  0
  2  4  1  0  0  0  0
  2  5  1  0  0  0  0
  2  6  1  0  0  0  0
  3  7  1  0  0  0  0
  3  8  1  0  0  0  0
  3  9  1  0  0  0  0
  4 10  1  0  0  0  0
  4 11  1  0  0  0  0
  4 12  1  0  0  0  0
  5 13  1  0  0  0  0
  5 14  1  0  0  0  0
  5 15  1  0  0  0  0
  6 16  1  0  0  0  0
M  END
> <PUBCHEM_COMPOUND_CID>
12417

> <PUBCHEM_CONFORMER_RMSD>
0.4

> <PUBCHEM_CONFORMER_DIVERSEORDER>
1

> <PUBCHEM_MMFF94_PARTIAL_CHARGES>
4
1 -0.57
16 0.06
2 0.06
6 0.45

> <PUBCHEM_EFFECTIVE_ROTOR_COUNT>
1

> <PUBCHEM_PHARMACOPHORE_FEATURES>
2
1 1 acceptor
4 2 3 4 5 hydrophobe

> <PUBCHEM_HEAVY_ATOM_COUNT>
6

> <PUBCHEM_ATOM_DEF_STEREO_COUNT>
0

> <PUBCHEM_ATOM_UDEF_STEREO_COUNT>
0

> <PUBCHEM_BOND_DEF_STEREO_COUNT>
0

> <PUBCHEM_BOND_UDEF_STEREO_COUNT>
0

> <PUBCHEM_ISOTOPIC_ATOM_COUNT>
0

> <PUBCHEM_COMPONENT_COUNT>
1

> <PUBCHEM_CACTVS_TAUTO_COUNT>
1

> <PUBCHEM_CONFORMER_ID>
0000308100000001

> <PUBCHEM_MMFF94_ENERGY>
10.7909

> <PUBCHEM_FEATURE_SELFOVERLAP>
10.148

> <PUBCHEM_SHAPE_FINGERPRINT>
137420 1 14183172705323280244
20096714 4 17202466823757834964
21040471 1 18410573950976426535
24536 1 18059573658786324925
29004967 10 17412720058642843314
5943 1 5470654764596621766

> <PUBCHEM_SHAPE_MULTIPOLES>
117.61
1.78
1.16
1.15
0.93
0.56
0.01
-0.29
0
-0.13
-0.01
-0.61
-0.26
0

> <PUBCHEM_SHAPE_SELFOVERLAP>
212.088

> <PUBCHEM_SHAPE_VOLUME>
77.3

> <PUBCHEM_COORDINATE_TYPE>
2
5
10

$$$$

