11188
  -OEChem-06261205222D

 25 24  0     1  0  0  0  0  0999 V2000
    6.0010   -0.0950    0.0000 O   0  0  0  0  0  0  0  0  0  0  0  0
    4.2690   -1.0950    0.0000 O   0  0  0  0  0  0  0  0  0  0  0  0
    2.5369   -0.0950    0.0000 O   0  0  0  0  0  0  0  0  0  0  0  0
    6.8671    1.4050    0.0000 O   0  0  0  0  0  0  0  0  0  0  0  0
    4.2690   -0.0950    0.0000 C   0  0  3  0  0  0  0  0  0  0  0  0
    5.1350    0.4050    0.0000 C   0  0  0  0  0  0  0  0  0  0  0  0
    7.7331   -0.0950    0.0000 C   0  0  0  0  0  0  0  0  0  0  0  0
    8.5991    0.4050    0.0000 C   0  0  0  0  0  0  0  0  0  0  0  0
    3.4030    0.4050    0.0000 C   0  0  0  0  0  0  0  0  0  0  0  0
    6.8671    0.4050    0.0000 C   0  0  0  0  0  0  0  0  0  0  0  0
    9.4651   -0.0950    0.0000 C   0  0  0  0  0  0  0  0  0  0  0  0
    5.0051   -0.5200    0.0000 H   0  0  0  0  0  0  0  0  0  0  0  0
    5.5335    0.8799    0.0000 H   0  0  0  0  0  0  0  0  0  0  0  0
    4.7365    0.8799    0.0000 H   0  0  0  0  0  0  0  0  0  0  0  0
    7.3346   -0.5699    0.0000 H   0  0  0  0  0  0  0  0  0  0  0  0
    8.1316   -0.5699    0.0000 H   0  0  0  0  0  0  0  0  0  0  0  0
    8.9976    0.8799    0.0000 H   0  0  0  0  0  0  0  0  0  0  0  0
    8.2006    0.8799    0.0000 H   0  0  0  0  0  0  0  0  0  0  0  0
    3.8015    0.8799    0.0000 H   0  0  0  0  0  0  0  0  0  0  0  0
    3.0044    0.8799    0.0000 H   0  0  0  0  0  0  0  0  0  0  0  0
    9.1551   -0.6319    0.0000 H   0  0  0  0  0  0  0  0  0  0  0  0
   10.0021   -0.4050    0.0000 H   0  0  0  0  0  0  0  0  0  0  0  0
    9.7751    0.4419    0.0000 H   0  0  0  0  0  0  0  0  0  0  0  0
    3.7320   -1.4050    0.0000 H   0  0  0  0  0  0  0  0  0  0  0  0
    2.0000    0.2150    0.0000 H   0  0  0  0  0  0  0  0  0  0  0  0
  1  6  1  0  0  0  0
  1 10  1  0  0  0  0
  2  5  1  0  0  0  0
  2 24  1  0  0  0  0
  3  9  1  0  0  0  0
  3 25  1  0  0  0  0
  4 10  2  0  0  0  0
  5  6  1  0  0  0  0
  5  9  1  0  0  0  0
  5 12  1  0  0  0  0
  6 13  1  0  0  0  0
  6 14  1  0  0  0  0
  7  8  1  0  0  0  0
  7 10  1  0  0  0  0
  7 15  1  0  0  0  0
  7 16  1  0  0  0  0
  8 11  1  0  0  0  0
  8 17  1  0  0  0  0
  8 18  1  0  0  0  0
  9 19  1  0  0  0  0
  9 20  1  0  0  0  0
 11 21  1  0  0  0  0
 11 22  1  0  0  0  0
 11 23  1  0  0  0  0
M  END
> <PUBCHEM_COMPOUND_CID>
11188

> <PUBCHEM_COMPOUND_CANONICALIZED>
1

> <PUBCHEM_CACTVS_COMPLEXITY>
113

> <PUBCHEM_CACTVS_HBOND_ACCEPTOR>
4

> <PUBCHEM_CACTVS_HBOND_DONOR>
2

> <PUBCHEM_CACTVS_ROTATABLE_BOND>
6

> <PUBCHEM_CACTVS_SUBSKEYS>
AAADccBgOAAAAAAAAAAAAAAAAAAAAAAAAAAAAAAAAAAAAAAAAAAAGgAACAAACBSggAICCAAABgAIAACQCAAAAAAAAAAAAAEAAAABEBAAAAACQAAFAAADAAAAAAAAAAAAAAAAAAAAAAAAAAAAAAAAAAAAAA==

> <PUBCHEM_IUPAC_OPENEYE_NAME>
2,3-dihydroxypropyl butanoate

> <PUBCHEM_IUPAC_CAS_NAME>
butanoic acid 2,3-dihydroxypropyl ester

> <PUBCHEM_IUPAC_NAME>
2,3-dihydroxypropyl butanoate

> <PUBCHEM_IUPAC_SYSTEMATIC_NAME>
2,3-bis(oxidanyl)propyl butanoate

> <PUBCHEM_IUPAC_TRADITIONAL_NAME>
butyric acid glyceryl ester

> <PUBCHEM_IUPAC_INCHI>
InChI=1S/C7H14O4/c1-2-3-7(10)11-5-6(9)4-8/h6,8-9H,2-5H2,1H3

> <PUBCHEM_IUPAC_INCHIKEY>
RIEABXYBQSLTFR-UHFFFAOYSA-N

> <PUBCHEM_XLOGP3>
-0.2

> <PUBCHEM_EXACT_MASS>
162.089209

> <PUBCHEM_MOLECULAR_FORMULA>
C7H14O4

> <PUBCHEM_MOLECULAR_WEIGHT>
162.18366

> <PUBCHEM_OPENEYE_CAN_SMILES>
CCCC(=O)OCC(CO)O

> <PUBCHEM_OPENEYE_ISO_SMILES>
CCCC(=O)OCC(CO)O

> <PUBCHEM_CACTVS_TPSA>
66.8

> <PUBCHEM_MONOISOTOPIC_WEIGHT>
162.089209

> <PUBCHEM_TOTAL_CHARGE>
0

> <PUBCHEM_HEAVY_ATOM_COUNT>
11

> <PUBCHEM_ATOM_DEF_STEREO_COUNT>
0

> <PUBCHEM_ATOM_UDEF_STEREO_COUNT>
1

> <PUBCHEM_BOND_DEF_STEREO_COUNT>
0

> <PUBCHEM_BOND_UDEF_STEREO_COUNT>
0

> <PUBCHEM_ISOTOPIC_ATOM_COUNT>
0

> <PUBCHEM_COMPONENT_COUNT>
1

> <PUBCHEM_CACTVS_TAUTO_COUNT>
1

> <PUBCHEM_COORDINATE_TYPE>
1
5
255

> <PUBCHEM_BONDANNOTATIONS>
5  12  3

$$$$

