5685
  -OEChem-06261200492D

 48 50  0     1  0  0  0  0  0999 V2000
    9.7942   -0.7500    0.0000 O   0  0  0  0  0  0  0  0  0  0  0  0
    9.7942    1.2500    0.0000 O   0  0  0  0  0  0  0  0  0  0  0  0
    4.5981   -0.7500    0.0000 O   0  0  0  0  0  0  0  0  0  0  0  0
    4.5981    1.2500    0.0000 O   0  0  0  0  0  0  0  0  0  0  0  0
    2.8660   -1.7500    0.0000 O   0  0  0  0  0  0  0  0  0  0  0  0
    7.1962   -0.2500    0.0000 N   0  0  0  0  0  0  0  0  0  0  0  0
    8.9282   -0.2500    0.0000 C   0  0  3  0  0  0  0  0  0  0  0  0
    8.0622   -0.7500    0.0000 C   0  0  0  0  0  0  0  0  0  0  0  0
    8.9282    0.7500    0.0000 C   0  0  0  0  0  0  0  0  0  0  0  0
    6.3301   -0.7500    0.0000 C   0  0  0  0  0  0  0  0  0  0  0  0
   10.6603   -0.2500    0.0000 C   0  0  0  0  0  0  0  0  0  0  0  0
   10.6603    0.7500    0.0000 C   0  0  0  0  0  0  0  0  0  0  0  0
    5.4641   -0.2500    0.0000 C   0  0  0  0  0  0  0  0  0  0  0  0
   11.5542   -0.7847    0.0000 C   0  0  0  0  0  0  0  0  0  0  0  0
   11.5542    1.2847    0.0000 C   0  0  0  0  0  0  0  0  0  0  0  0
   12.4603   -0.2708    0.0000 C   0  0  0  0  0  0  0  0  0  0  0  0
   12.4603    0.7708    0.0000 C   0  0  0  0  0  0  0  0  0  0  0  0
    3.7320   -0.2500    0.0000 C   0  0  0  0  0  0  0  0  0  0  0  0
    3.7320    0.7500    0.0000 C   0  0  0  0  0  0  0  0  0  0  0  0
    2.8660   -0.7500    0.0000 C   0  0  0  0  0  0  0  0  0  0  0  0
    2.8660    1.2500    0.0000 C   0  0  0  0  0  0  0  0  0  0  0  0
    2.0000   -0.2500    0.0000 C   0  0  0  0  0  0  0  0  0  0  0  0
    2.0000    0.7500    0.0000 C   0  0  0  0  0  0  0  0  0  0  0  0
    4.5981    2.2500    0.0000 C   0  0  0  0  0  0  0  0  0  0  0  0
    2.0000   -2.2500    0.0000 C   0  0  0  0  0  0  0  0  0  0  0  0
    8.9282   -0.8700    0.0000 H   0  0  0  0  0  0  0  0  0  0  0  0
    7.6636   -1.2250    0.0000 H   0  0  0  0  0  0  0  0  0  0  0  0
    8.4607   -1.2250    0.0000 H   0  0  0  0  0  0  0  0  0  0  0  0
    8.7162    1.3326    0.0000 H   0  0  0  0  0  0  0  0  0  0  0  0
    8.3176    0.6423    0.0000 H   0  0  0  0  0  0  0  0  0  0  0  0
    7.1962    0.3700    0.0000 H   0  0  0  0  0  0  0  0  0  0  0  0
    5.9316   -1.2250    0.0000 H   0  0  0  0  0  0  0  0  0  0  0  0
    6.7287   -1.2250    0.0000 H   0  0  0  0  0  0  0  0  0  0  0  0
    5.8626    0.2249    0.0000 H   0  0  0  0  0  0  0  0  0  0  0  0
    5.0656    0.2249    0.0000 H   0  0  0  0  0  0  0  0  0  0  0  0
   11.5470   -1.4046    0.0000 H   0  0  0  0  0  0  0  0  0  0  0  0
   11.5470    1.9046    0.0000 H   0  0  0  0  0  0  0  0  0  0  0  0
   12.9960   -0.5829    0.0000 H   0  0  0  0  0  0  0  0  0  0  0  0
   12.9960    1.0829    0.0000 H   0  0  0  0  0  0  0  0  0  0  0  0
    2.8660    1.8700    0.0000 H   0  0  0  0  0  0  0  0  0  0  0  0
    1.4631   -0.5600    0.0000 H   0  0  0  0  0  0  0  0  0  0  0  0
    1.4631    1.0600    0.0000 H   0  0  0  0  0  0  0  0  0  0  0  0
    5.2181    2.2500    0.0000 H   0  0  0  0  0  0  0  0  0  0  0  0
    4.5981    2.8700    0.0000 H   0  0  0  0  0  0  0  0  0  0  0  0
    3.9781    2.2500    0.0000 H   0  0  0  0  0  0  0  0  0  0  0  0
    1.6900   -1.7131    0.0000 H   0  0  0  0  0  0  0  0  0  0  0  0
    1.4631   -2.5600    0.0000 H   0  0  0  0  0  0  0  0  0  0  0  0
    2.3100   -2.7869    0.0000 H   0  0  0  0  0  0  0  0  0  0  0  0
  1  7  1  0  0  0  0
  1 11  1  0  0  0  0
  2  9  1  0  0  0  0
  2 12  1  0  0  0  0
  3 13  1  0  0  0  0
  3 18  1  0  0  0  0
  4 19  1  0  0  0  0
  4 24  1  0  0  0  0
  5 20  1  0  0  0  0
  5 25  1  0  0  0  0
  6  8  1  0  0  0  0
  6 10  1  0  0  0  0
  6 31  1  0  0  0  0
  7  8  1  0  0  0  0
  7  9  1  0  0  0  0
  7 26  1  0  0  0  0
  8 27  1  0  0  0  0
  8 28  1  0  0  0  0
  9 29  1  0  0  0  0
  9 30  1  0  0  0  0
 10 13  1  0  0  0  0
 10 32  1  0  0  0  0
 10 33  1  0  0  0  0
 11 12  1  0  0  0  0
 11 14  2  0  0  0  0
 12 15  2  0  0  0  0
 13 34  1  0  0  0  0
 13 35  1  0  0  0  0
 14 16  1  0  0  0  0
 14 36  1  0  0  0  0
 15 17  1  0  0  0  0
 15 37  1  0  0  0  0
 16 17  2  0  0  0  0
 16 38  1  0  0  0  0
 17 39  1  0  0  0  0
 18 19  2  0  0  0  0
 18 20  1  0  0  0  0
 19 21  1  0  0  0  0
 20 22  2  0  0  0  0
 21 23  2  0  0  0  0
 21 40  1  0  0  0  0
 22 23  1  0  0  0  0
 22 41  1  0  0  0  0
 23 42  1  0  0  0  0
 24 43  1  0  0  0  0
 24 44  1  0  0  0  0
 24 45  1  0  0  0  0
 25 46  1  0  0  0  0
 25 47  1  0  0  0  0
 25 48  1  0  0  0  0
M  END
> <PUBCHEM_COMPOUND_CID>
5685

> <PUBCHEM_COMPOUND_CANONICALIZED>
1

> <PUBCHEM_CACTVS_COMPLEXITY>
371

> <PUBCHEM_CACTVS_HBOND_ACCEPTOR>
6

> <PUBCHEM_CACTVS_HBOND_DONOR>
1

> <PUBCHEM_CACTVS_ROTATABLE_BOND>
8

> <PUBCHEM_CACTVS_SUBSKEYS>
AAADceB6OAAAAAAAAAAAAAAAAAAAAAAAAAA0YIAAAAAAAACRQAAAHgAQAAAACBThkAYyBoLABACAACBCAAACCAAgIAAIiIAOiIgPJyKEMRqHOCKn0BWaqAeAYAwAAAAACAAAQAAAAAAQAACAAAAAAAAAAA==

> <PUBCHEM_IUPAC_OPENEYE_NAME>
N-(2,3-dihydro-1,4-benzodioxin-3-ylmethyl)-2-(2,6-dimethoxyphenoxy)ethanamine

> <PUBCHEM_IUPAC_CAS_NAME>
N-(2,3-dihydro-1,4-benzodioxin-3-ylmethyl)-2-(2,6-dimethoxyphenoxy)ethanamine

> <PUBCHEM_IUPAC_NAME>
N-(2,3-dihydro-1,4-benzodioxin-3-ylmethyl)-2-(2,6-dimethoxyphenoxy)ethanamine

> <PUBCHEM_IUPAC_SYSTEMATIC_NAME>
N-(2,3-dihydro-1,4-benzodioxin-3-ylmethyl)-2-(2,6-dimethoxyphenoxy)ethanamine

> <PUBCHEM_IUPAC_TRADITIONAL_NAME>
2,3-dihydro-1,4-benzodioxin-3-ylmethyl-[2-(2,6-dimethoxyphenoxy)ethyl]amine

> <PUBCHEM_IUPAC_INCHI>
InChI=1S/C19H23NO5/c1-21-17-8-5-9-18(22-2)19(17)23-11-10-20-12-14-13-24-15-6-3-4-7-16(15)25-14/h3-9,14,20H,10-13H2,1-2H3

> <PUBCHEM_IUPAC_INCHIKEY>
GYSZUJHYXCZAKI-UHFFFAOYSA-N

> <PUBCHEM_XLOGP3_AA>
2.9

> <PUBCHEM_EXACT_MASS>
345.157623

> <PUBCHEM_MOLECULAR_FORMULA>
C19H23NO5

> <PUBCHEM_MOLECULAR_WEIGHT>
345.38962

> <PUBCHEM_OPENEYE_CAN_SMILES>
COC1=C(C(=CC=C1)OC)OCCNCC2COC3=CC=CC=C3O2

> <PUBCHEM_OPENEYE_ISO_SMILES>
COC1=C(C(=CC=C1)OC)OCCNCC2COC3=CC=CC=C3O2

> <PUBCHEM_CACTVS_TPSA>
58.2

> <PUBCHEM_MONOISOTOPIC_WEIGHT>
345.157623

> <PUBCHEM_TOTAL_CHARGE>
0

> <PUBCHEM_HEAVY_ATOM_COUNT>
25

> <PUBCHEM_ATOM_DEF_STEREO_COUNT>
0

> <PUBCHEM_ATOM_UDEF_STEREO_COUNT>
1

> <PUBCHEM_BOND_DEF_STEREO_COUNT>
0

> <PUBCHEM_BOND_UDEF_STEREO_COUNT>
0

> <PUBCHEM_ISOTOPIC_ATOM_COUNT>
0

> <PUBCHEM_COMPONENT_COUNT>
1

> <PUBCHEM_CACTVS_TAUTO_COUNT>
1

> <PUBCHEM_COORDINATE_TYPE>
1
5
255

> <PUBCHEM_BONDANNOTATIONS>
11  12  8
11  14  8
12  15  8
14  16  8
15  17  8
16  17  8
18  19  8
18  20  8
19  21  8
20  22  8
21  23  8
22  23  8
7  8  3

$$$$

