12847
  -OEChem-06261207273D

 31 31  0     0  0  0  0  0  0999 V2000
   -0.4573    2.5269    0.1761 O   0  0  0  0  0  0  0  0  0  0  0  0
   -1.2202   -1.8950    0.9263 O   0  0  0  0  0  0  0  0  0  0  0  0
    3.0742   -0.4742   -0.1240 O   0  0  0  0  0  0  0  0  0  0  0  0
    1.3252    1.0565   -0.1181 N   0  0  0  0  0  0  0  0  0  0  0  0
    0.9246   -1.2639    0.2730 N   0  0  0  0  0  0  0  0  0  0  0  0
   -0.9718    0.2068   -0.2278 C   0  0  0  0  0  0  0  0  0  0  0  0
   -1.0974   -0.0279   -1.7445 C   0  0  0  0  0  0  0  0  0  0  0  0
   -2.3633    0.5425    0.3362 C   0  0  0  0  0  0  0  0  0  0  0  0
   -0.0340    1.3860   -0.0142 C   0  0  0  0  0  0  0  0  0  0  0  0
   -0.4597   -1.0797    0.4030 C   0  0  0  0  0  0  0  0  0  0  0  0
   -2.0442   -1.1695   -2.0379 C   0  0  0  0  0  0  0  0  0  0  0  0
   -2.2854    0.8706    1.8106 C   0  0  0  0  0  0  0  0  0  0  0  0
    1.8638   -0.2476   -0.0187 C   0  0  0  0  0  0  0  0  0  0  0  0
    2.2826    2.1531   -0.2198 C   0  0  0  0  0  0  0  0  0  0  0  0
    1.4630   -2.5849    0.5798 C   0  0  0  0  0  0  0  0  0  0  0  0
   -0.1217   -0.2583   -2.1904 H   0  0  0  0  0  0  0  0  0  0  0  0
   -1.4529    0.8813   -2.2460 H   0  0  0  0  0  0  0  0  0  0  0  0
   -3.0629   -0.2941    0.2353 H   0  0  0  0  0  0  0  0  0  0  0  0
   -2.8084    1.3929   -0.1957 H   0  0  0  0  0  0  0  0  0  0  0  0
   -1.7428   -2.1148   -1.5798 H   0  0  0  0  0  0  0  0  0  0  0  0
   -3.0788   -0.9500   -1.7627 H   0  0  0  0  0  0  0  0  0  0  0  0
   -2.0555   -1.3467   -3.1202 H   0  0  0  0  0  0  0  0  0  0  0  0
   -1.8280    0.0739    2.4037 H   0  0  0  0  0  0  0  0  0  0  0  0
   -1.7501    1.7982    2.0258 H   0  0  0  0  0  0  0  0  0  0  0  0
   -3.3007    1.0089    2.2007 H   0  0  0  0  0  0  0  0  0  0  0  0
    2.7615    2.2814    0.7560 H   0  0  0  0  0  0  0  0  0  0  0  0
    1.7976    3.0885   -0.5110 H   0  0  0  0  0  0  0  0  0  0  0  0
    3.0532    1.9051   -0.9562 H   0  0  0  0  0  0  0  0  0  0  0  0
    0.6848   -3.3525    0.5615 H   0  0  0  0  0  0  0  0  0  0  0  0
    1.9124   -2.5482    1.5771 H   0  0  0  0  0  0  0  0  0  0  0  0
    2.2409   -2.8465   -0.1439 H   0  0  0  0  0  0  0  0  0  0  0  0
  1  9  2  0  0  0  0
  2 10  2  0  0  0  0
  3 13  2  0  0  0  0
  4  9  1  0  0  0  0
  4 13  1  0  0  0  0
  4 14  1  0  0  0  0
  5 10  1  0  0  0  0
  5 13  1  0  0  0  0
  5 15  1  0  0  0  0
  6  7  1  0  0  0  0
  6  8  1  0  0  0  0
  6  9  1  0  0  0  0
  6 10  1  0  0  0  0
  7 11  1  0  0  0  0
  7 16  1  0  0  0  0
  7 17  1  0  0  0  0
  8 12  1  0  0  0  0
  8 18  1  0  0  0  0
  8 19  1  0  0  0  0
 11 20  1  0  0  0  0
 11 21  1  0  0  0  0
 11 22  1  0  0  0  0
 12 23  1  0  0  0  0
 12 24  1  0  0  0  0
 12 25  1  0  0  0  0
 14 26  1  0  0  0  0
 14 27  1  0  0  0  0
 14 28  1  0  0  0  0
 15 29  1  0  0  0  0
 15 30  1  0  0  0  0
 15 31  1  0  0  0  0
M  END
> <PUBCHEM_COMPOUND_CID>
12847

> <PUBCHEM_CONFORMER_RMSD>
0.6

> <PUBCHEM_CONFORMER_DIVERSEORDER>
1
3
2

> <PUBCHEM_MMFF94_PARTIAL_CHARGES>
11
1 -0.57
10 0.57
13 0.69
14 0.3
15 0.3
2 -0.57
3 -0.57
4 -0.42
5 -0.42
6 0.12
9 0.57

> <PUBCHEM_EFFECTIVE_ROTOR_COUNT>
2.6

> <PUBCHEM_PHARMACOPHORE_FEATURES>
6
1 1 acceptor
1 11 hydrophobe
1 12 hydrophobe
1 2 acceptor
1 3 acceptor
6 4 5 6 9 10 13 rings

> <PUBCHEM_HEAVY_ATOM_COUNT>
15

> <PUBCHEM_ATOM_DEF_STEREO_COUNT>
0

> <PUBCHEM_ATOM_UDEF_STEREO_COUNT>
0

> <PUBCHEM_BOND_DEF_STEREO_COUNT>
0

> <PUBCHEM_BOND_UDEF_STEREO_COUNT>
0

> <PUBCHEM_ISOTOPIC_ATOM_COUNT>
0

> <PUBCHEM_COMPONENT_COUNT>
1

> <PUBCHEM_CACTVS_TAUTO_COUNT>
1

> <PUBCHEM_CONFORMER_ID>
0000322F00000001

> <PUBCHEM_MMFF94_ENERGY>
36.3499

> <PUBCHEM_FEATURE_SELFOVERLAP>
30.446

> <PUBCHEM_SHAPE_FINGERPRINT>
12138202 97 17268383550970777102
12423570 1 16738291433209476669
13140716 1 18340760447512702432
13898156 1 17894928333624865335
14617773 55 18041562421045692661
14761567 1 18201731651640282726
14817 1 16969088746448707751
15852999 172 17697352570876649686
16945 1 18268412693683872264
19930374 2 4724944409307851457
20871998 184 17326063248180260654
22112679 90 17895205380463946053
22344851 12 11409283268469273323
23236772 104 17823981121703222809
2334 1 18124023542834996576
23419403 2 17632012078256956603
23559900 14 18338216208593959676
241688 4 17691430901918322978
2748010 2 18198055881257594330
5084963 1 17971196065080777145
528886 8 18411697664824037072
535629 181 18114472162428183189
53812653 217 18046076113798703900

> <PUBCHEM_SHAPE_MULTIPOLES>
281.12
3.37
2.51
1.45
1.04
0.02
0.38
-0.21
-0.05
0.95
-0.4
-1.37
0.31
-0.87

> <PUBCHEM_SHAPE_SELFOVERLAP>
575.841

> <PUBCHEM_SHAPE_VOLUME>
162

> <PUBCHEM_COORDINATE_TYPE>
2
5
10

$$$$

