586322
  -OEChem-06241222463D

 35 36  0     1  0  0  0  0  0999 V2000
    1.0832   -1.4252   -0.4658 S   0  0  0  0  0  0  0  0  0  0  0  0
   -0.5446    0.9420   -1.9198 O   0  0  0  0  0  0  0  0  0  0  0  0
   -0.9727    0.9442    0.3870 N   0  0  0  0  0  0  0  0  0  0  0  0
    2.2171    1.0126   -0.2742 N   0  0  0  0  0  0  0  0  0  0  0  0
    4.1707    0.0510   -1.1065 N   0  0  0  0  0  0  0  0  0  0  0  0
   -2.3349    1.4225    0.3638 C   0  0  1  0  0  0  0  0  0  0  0  0
   -3.3206    0.2821    0.2044 C   0  0  0  0  0  0  0  0  0  0  0  0
   -2.6164    2.2431    1.6245 C   0  0  0  0  0  0  0  0  0  0  0  0
   -3.0256   -0.9465    0.7668 C   0  0  0  0  0  0  0  0  0  0  0  0
   -4.4911    0.4973   -0.4999 C   0  0  0  0  0  0  0  0  0  0  0  0
   -3.9325   -1.9961    0.6196 C   0  0  0  0  0  0  0  0  0  0  0  0
   -5.3981   -0.5521   -0.6469 C   0  0  0  0  0  0  0  0  0  0  0  0
   -0.2247    0.7555   -0.7554 C   0  0  0  0  0  0  0  0  0  0  0  0
   -5.1187   -1.7989   -0.0871 C   0  0  0  0  0  0  0  0  0  0  0  0
    1.1625    0.2992   -0.4704 C   0  0  0  0  0  0  0  0  0  0  0  0
    3.4296    0.3498   -0.0200 C   0  0  0  0  0  0  0  0  0  0  0  0
    3.7874    0.0489    1.2806 C   0  0  0  0  0  0  0  0  0  0  0  0
    4.9966   -0.6075    1.4815 C   0  0  0  0  0  0  0  0  0  0  0  0
    5.7933   -0.9351    0.3899 C   0  0  0  0  0  0  0  0  0  0  0  0
    5.3393   -0.5870   -0.8720 C   0  0  0  0  0  0  0  0  0  0  0  0
   -2.4244    2.0848   -0.5073 H   0  0  0  0  0  0  0  0  0  0  0  0
   -3.6302    2.6576    1.6079 H   0  0  0  0  0  0  0  0  0  0  0  0
   -1.9099    3.0762    1.7103 H   0  0  0  0  0  0  0  0  0  0  0  0
   -2.5194    1.6333    2.5303 H   0  0  0  0  0  0  0  0  0  0  0  0
   -0.5596    0.7106    1.2861 H   0  0  0  0  0  0  0  0  0  0  0  0
   -2.1195   -1.1243    1.3374 H   0  0  0  0  0  0  0  0  0  0  0  0
   -4.7179    1.4650   -0.9375 H   0  0  0  0  0  0  0  0  0  0  0  0
   -3.7171   -2.9658    1.0589 H   0  0  0  0  0  0  0  0  0  0  0  0
   -6.3221   -0.3985   -1.1966 H   0  0  0  0  0  0  0  0  0  0  0  0
   -5.8254   -2.6158   -0.2006 H   0  0  0  0  0  0  0  0  0  0  0  0
    3.1567    0.3115    2.1229 H   0  0  0  0  0  0  0  0  0  0  0  0
    5.3176   -0.8632    2.4868 H   0  0  0  0  0  0  0  0  0  0  0  0
    2.3504   -1.7073   -0.7972 H   0  0  0  0  0  0  0  0  0  0  0  0
    6.7395   -1.4470    0.5228 H   0  0  0  0  0  0  0  0  0  0  0  0
    5.9231   -0.8204   -1.7563 H   0  0  0  0  0  0  0  0  0  0  0  0
  1 15  1  0  0  0  0
  1 33  1  0  0  0  0
  2 13  2  0  0  0  0
  3  6  1  0  0  0  0
  3 13  1  0  0  0  0
  3 25  1  0  0  0  0
  4 15  2  0  0  0  0
  4 16  1  0  0  0  0
  5 16  1  0  0  0  0
  5 20  2  0  0  0  0
  6  7  1  0  0  0  0
  6  8  1  0  0  0  0
  6 21  1  0  0  0  0
  7  9  2  0  0  0  0
  7 10  1  0  0  0  0
  8 22  1  0  0  0  0
  8 23  1  0  0  0  0
  8 24  1  0  0  0  0
  9 11  1  0  0  0  0
  9 26  1  0  0  0  0
 10 12  2  0  0  0  0
 10 27  1  0  0  0  0
 11 14  2  0  0  0  0
 11 28  1  0  0  0  0
 12 14  1  0  0  0  0
 12 29  1  0  0  0  0
 13 15  1  0  0  0  0
 14 30  1  0  0  0  0
 16 17  2  0  0  0  0
 17 18  1  0  0  0  0
 17 31  1  0  0  0  0
 18 19  2  0  0  0  0
 18 32  1  0  0  0  0
 19 20  1  0  0  0  0
 19 34  1  0  0  0  0
 20 35  1  0  0  0  0
M  END
> <PUBCHEM_COMPOUND_CID>
586322

> <PUBCHEM_CONFORMER_RMSD>
0.8

> <PUBCHEM_CONFORMER_DIVERSEORDER>
1
18
28
13
12
24
11
17
5
26
2
21
20
23
10
22
7
25
19
4
27
30
9
6
3
29
14
15
8
16

> <PUBCHEM_MMFF94_PARTIAL_CHARGES>
30
1 -0.32
10 -0.15
11 -0.15
12 -0.15
13 0.63
14 -0.15
15 0.59
16 0.49
17 -0.15
18 -0.15
19 -0.15
2 -0.57
20 0.16
25 0.37
26 0.15
27 0.15
28 0.15
29 0.15
3 -0.73
30 0.15
31 0.15
32 0.15
33 0.18
34 0.15
35 0.15
4 -0.63
5 -0.62
6 0.44
7 -0.14
9 -0.15

> <PUBCHEM_EFFECTIVE_ROTOR_COUNT>
5

> <PUBCHEM_PHARMACOPHORE_FEATURES>
6
1 2 acceptor
1 3 donor
1 4 acceptor
1 5 acceptor
6 5 16 17 18 19 20 rings
6 7 9 10 11 12 14 rings

> <PUBCHEM_HEAVY_ATOM_COUNT>
20

> <PUBCHEM_ATOM_DEF_STEREO_COUNT>
0

> <PUBCHEM_ATOM_UDEF_STEREO_COUNT>
1

> <PUBCHEM_BOND_DEF_STEREO_COUNT>
0

> <PUBCHEM_BOND_UDEF_STEREO_COUNT>
1

> <PUBCHEM_ISOTOPIC_ATOM_COUNT>
0

> <PUBCHEM_COMPONENT_COUNT>
1

> <PUBCHEM_CACTVS_TAUTO_COUNT>
6

> <PUBCHEM_CONFORMER_ID>
0008F25200000001

> <PUBCHEM_MMFF94_ENERGY>
57.8411

> <PUBCHEM_FEATURE_SELFOVERLAP>
30.49

> <PUBCHEM_SHAPE_FINGERPRINT>
10 15 17822587031997347194
10366900 7 18260265248118674427
10912923 1 18272079522614478712
11045977 3 18259991443974581953
11046707 91 18273494567792385065
11315181 36 18412260631699052928
11545043 162 17749669692390455136
12166972 35 18059852806096444309
12236239 1 18131632283674322278
12403259 118 17822010938663908184
12596602 18 18409173220971854792
12633257 1 18340477958544447257
12839892 36 18339089275685704570
12930653 34 17896031208317464117
13167823 11 17917712383347383682
13583140 156 17386010623459970728
13675066 3 17458346372976663892
14178342 30 18263349442959938001
14251752 14 17131845287043747175
14848160 23 18334018272101968155
15183329 4 17203341017792019735
15188451 53 18335993011991256298
15788980 27 17060618901736044551
17349148 13 18271800211836788783
17834072 33 17989485212901411108
17834072 8 13470690351682623535
17844677 252 17458060482662914112
17857418 61 17775291581851032210
17862501 102 18411136930852194216
17959699 21 8502363452136696938
18186145 218 12535341277274181957
18222031 100 18202001023562527804
18927931 339 18113330912719629359
19433438 28 17313105280519539888
19489759 90 18334579074756442361
200 152 16988844994604233196
20028762 73 18114747027403733878
20645477 56 16008759013171484164
20645477 70 15338840893482886200
21033648 29 16443642301469378192
21682296 61 17459456931160469598
22061861 79 14764350461589594514
22079108 93 13767927888603071975
22224240 67 15140961738872138343
23198884 109 13614244797824404207
23402539 116 17632300085768089941
23402655 69 9655579604073240812
23557571 272 17822842195408959057
23559900 14 18340494348603839801
26918003 58 18408888430058682469
2871803 45 15195289767957375960
2916195 48 8070024454444587718
293599 30 9799698103526703405
29717793 49 17060058185856817614
3004659 81 18060702762369381869
3286 77 18410575059257759272
465052 167 18130784547340599582
5104073 3 18335414626257969145
5283173 99 15410348748401440471
559249 180 18202570592334767683
5718773 13 18116721703923410695
960060 61 16415479342148096390

> <PUBCHEM_SHAPE_MULTIPOLES>
394.63
14.02
1.79
1.33
6.9
0.09
0.02
-5.52
1.34
-2.29
0.5
0.63
0.25
-0.19

> <PUBCHEM_SHAPE_SELFOVERLAP>
826.61

> <PUBCHEM_SHAPE_VOLUME>
224.2

> <PUBCHEM_COORDINATE_TYPE>
2
5
10

$$$$

