3703
  -OEChem-06251223363D

 34 36  0     1  0  0  0  0  0999 V2000
   -3.3424    0.1086   -2.6095 Cl  0  0  0  0  0  0  0  0  0  0  0  0
   -5.5275   -0.0686   -0.2289 Cl  0  0  0  0  0  0  0  0  0  0  0  0
    3.1790    2.0558   -0.6968 N   0  0  0  0  0  0  0  0  0  0  0  0
    0.3579    0.3206    1.0273 C   0  0  2  0  0  0  0  0  0  0  0  0
    2.5356    1.2508    0.3300 C   0  0  1  0  0  0  0  0  0  0  0  0
    1.0338    1.5856    0.4444 C   0  0  0  0  0  0  0  0  0  0  0  0
    1.2447   -0.7601    0.4572 C   0  0  0  0  0  0  0  0  0  0  0  0
    2.4791   -0.2265    0.0525 C   0  0  0  0  0  0  0  0  0  0  0  0
   -1.1127    0.2243    0.6964 C   0  0  0  0  0  0  0  0  0  0  0  0
    0.9964   -2.1229    0.3712 C   0  0  0  0  0  0  0  0  0  0  0  0
    3.4771   -1.0487   -0.4501 C   0  0  0  0  0  0  0  0  0  0  0  0
   -1.5312    0.2101   -0.6356 C   0  0  0  0  0  0  0  0  0  0  0  0
   -2.0572    0.1486    1.7217 C   0  0  0  0  0  0  0  0  0  0  0  0
    1.9912   -2.9505   -0.1525 C   0  0  0  0  0  0  0  0  0  0  0  0
    3.2220   -2.4171   -0.5613 C   0  0  0  0  0  0  0  0  0  0  0  0
    3.1903    3.4652   -0.3263 C   0  0  0  0  0  0  0  0  0  0  0  0
   -2.8893    0.1204   -0.9410 C   0  0  0  0  0  0  0  0  0  0  0  0
   -3.4154    0.0592    1.4162 C   0  0  0  0  0  0  0  0  0  0  0  0
   -3.8314    0.0450    0.0849 C   0  0  0  0  0  0  0  0  0  0  0  0
    0.5009    0.3169    2.1168 H   0  0  0  0  0  0  0  0  0  0  0  0
    0.6248    1.8322   -0.5453 H   0  0  0  0  0  0  0  0  0  0  0  0
    0.8505    2.4590    1.0817 H   0  0  0  0  0  0  0  0  0  0  0  0
    3.0324    1.3850    1.3002 H   0  0  0  0  0  0  0  0  0  0  0  0
    2.6931    1.9477   -1.5867 H   0  0  0  0  0  0  0  0  0  0  0  0
    0.0547   -2.5467    0.7034 H   0  0  0  0  0  0  0  0  0  0  0  0
    4.4406   -0.6474   -0.7463 H   0  0  0  0  0  0  0  0  0  0  0  0
   -0.8015    0.2584   -1.4406 H   0  0  0  0  0  0  0  0  0  0  0  0
   -1.7486    0.1582    2.7636 H   0  0  0  0  0  0  0  0  0  0  0  0
    1.8152   -4.0196   -0.2352 H   0  0  0  0  0  0  0  0  0  0  0  0
    3.9887   -3.0780   -0.9567 H   0  0  0  0  0  0  0  0  0  0  0  0
    3.7695    4.0236   -1.0686 H   0  0  0  0  0  0  0  0  0  0  0  0
    3.6727    3.6213    0.6442 H   0  0  0  0  0  0  0  0  0  0  0  0
    2.1863    3.8998   -0.3045 H   0  0  0  0  0  0  0  0  0  0  0  0
   -4.1358    0.0011    2.2283 H   0  0  0  0  0  0  0  0  0  0  0  0
  1 17  1  0  0  0  0
  2 19  1  0  0  0  0
  3  5  1  0  0  0  0
  3 16  1  0  0  0  0
  3 24  1  0  0  0  0
  4  6  1  0  0  0  0
  4  7  1  0  0  0  0
  4  9  1  0  0  0  0
  4 20  1  0  0  0  0
  5  6  1  0  0  0  0
  5  8  1  0  0  0  0
  5 23  1  0  0  0  0
  6 21  1  0  0  0  0
  6 22  1  0  0  0  0
  7  8  1  0  0  0  0
  7 10  2  0  0  0  0
  8 11  2  0  0  0  0
  9 12  2  0  0  0  0
  9 13  1  0  0  0  0
 10 14  1  0  0  0  0
 10 25  1  0  0  0  0
 11 15  1  0  0  0  0
 11 26  1  0  0  0  0
 12 17  1  0  0  0  0
 12 27  1  0  0  0  0
 13 18  2  0  0  0  0
 13 28  1  0  0  0  0
 14 15  2  0  0  0  0
 14 29  1  0  0  0  0
 15 30  1  0  0  0  0
 16 31  1  0  0  0  0
 16 32  1  0  0  0  0
 16 33  1  0  0  0  0
 17 19  2  0  0  0  0
 18 19  1  0  0  0  0
 18 34  1  0  0  0  0
M  END
> <PUBCHEM_COMPOUND_CID>
3703

> <PUBCHEM_CONFORMER_RMSD>
0.6

> <PUBCHEM_CONFORMER_DIVERSEORDER>
7
16
18
39
38
30
26
36
3
15
29
12
25
41
28
11
17
24
6
13
19
8
40
37
35
5
20
33
34
21
10
14
22
31
1
32
9
23
2
4
27

> <PUBCHEM_MMFF94_PARTIAL_CHARGES>
26
1 -0.18
10 -0.15
11 -0.15
12 -0.15
13 -0.15
14 -0.15
15 -0.15
16 0.27
17 0.18
18 -0.15
19 0.18
2 -0.18
24 0.36
25 0.15
26 0.15
27 0.15
28 0.15
29 0.15
3 -0.9
30 0.15
34 0.15
4 0.29
5 0.41
7 -0.14
8 -0.14
9 -0.14

> <PUBCHEM_EFFECTIVE_ROTOR_COUNT>
2.6

> <PUBCHEM_PHARMACOPHORE_FEATURES>
5
1 3 cation
1 3 donor
5 4 5 6 7 8 rings
6 7 8 10 11 14 15 rings
6 9 12 13 17 18 19 rings

> <PUBCHEM_HEAVY_ATOM_COUNT>
19

> <PUBCHEM_ATOM_DEF_STEREO_COUNT>
0

> <PUBCHEM_ATOM_UDEF_STEREO_COUNT>
2

> <PUBCHEM_BOND_DEF_STEREO_COUNT>
0

> <PUBCHEM_BOND_UDEF_STEREO_COUNT>
0

> <PUBCHEM_ISOTOPIC_ATOM_COUNT>
0

> <PUBCHEM_COMPONENT_COUNT>
1

> <PUBCHEM_CACTVS_TAUTO_COUNT>
1

> <PUBCHEM_CONFORMER_ID>
00000E7700000007

> <PUBCHEM_MMFF94_ENERGY>
52.1088

> <PUBCHEM_FEATURE_SELFOVERLAP>
25.451

> <PUBCHEM_SHAPE_FINGERPRINT>
11471102 20 18411131454995706290
11582403 64 17268394601832348336
11725454 13 17558857012363400356
11759241 127 17845096164788969999
12236239 1 17675924321912255747
12553582 1 18120087540289963402
12730499 353 18268983211607007177
13009979 54 17459461333111420962
13134695 92 18270685406294851422
13140716 1 18338232644827269690
13533116 47 18260828186052344011
13911987 19 18055605496043034222
14250199 8 18410008866239571352
15502722 9 18411416198379244948
15961568 22 16701730528202378077
16752209 62 16443065045502074241
16945 1 18411131476692225274
17134986 127 18124865773438176236
17818456 19 17244129742017907793
1813 80 17897993875407514286
18186145 218 17775006838246024849
19422 9 17967526904690174371
19784866 34 18190178975535302128
19786989 88 18342461395905526617
200 152 18187931728597440491
20361792 2 18117564143654913706
20645477 70 18413110562887865787
20671657 53 18193837269795633418
21499 59 18266175028845194800
21639500 275 18411136918215199128
22112679 90 17240760722177955609
2255824 54 18335133207168398082
23114952 82 18202278126056763900
232386 152 16443640076602594987
23402539 116 18048032158545269274
23526113 38 17916582197031830419
23557571 272 17060338539488238349
23559900 14 18412262847965449067
23598291 2 17895737604168798865
238 59 18270139970600813559
2748010 2 18123449615309274138
3060560 45 18411411779306394564
312423 11 18040985280921226417
46194498 28 18343867731670654501
465052 167 17676206858521647447
474 4 18336826390529383640
5281201 14 18271528692810678325
6025842 7 18409448055332818413
6049 1 17703500082174362925
6327066 14 17910955743030947844
633830 44 18043229289474819468
7471813 234 18114187492154352168
77492 1 17676203589275691873
81228 2 17474675430529669832
8272917 22 18409161121611059845
9981440 41 15725888502776244048

> <PUBCHEM_SHAPE_MULTIPOLES>
389.77
8.46
2.74
1.51
7.89
0.53
0.54
0.37
1.99
-5.43
0.45
1.89
0.1
-0.08

> <PUBCHEM_SHAPE_SELFOVERLAP>
828.992

> <PUBCHEM_SHAPE_VOLUME>
219.6

> <PUBCHEM_COORDINATE_TYPE>
2
5
10

$$$$

