9537
  -OEChem-06261203472D

 21 20  0     0  0  0  0  0  0999 V2000
    8.9282   -0.5000    0.0000 F   0  0  0  0  0  0  0  0  0  0  0  0
    2.0000    0.5000    0.0000 N   0  0  0  0  0  0  0  0  0  0  0  0
    5.4641   -0.5000    0.0000 C   0  0  0  0  0  0  0  0  0  0  0  0
    6.3301    0.0000    0.0000 C   0  0  0  0  0  0  0  0  0  0  0  0
    4.5981    0.0000    0.0000 C   0  0  0  0  0  0  0  0  0  0  0  0
    7.1962   -0.5000    0.0000 C   0  0  0  0  0  0  0  0  0  0  0  0
    3.7320   -0.5000    0.0000 C   0  0  0  0  0  0  0  0  0  0  0  0
    8.0622    0.0000    0.0000 C   0  0  0  0  0  0  0  0  0  0  0  0
    2.8660    0.0000    0.0000 C   0  0  0  0  0  0  0  0  0  0  0  0
    5.0656   -0.9749    0.0000 H   0  0  0  0  0  0  0  0  0  0  0  0
    5.8626   -0.9749    0.0000 H   0  0  0  0  0  0  0  0  0  0  0  0
    6.7287    0.4749    0.0000 H   0  0  0  0  0  0  0  0  0  0  0  0
    5.9316    0.4749    0.0000 H   0  0  0  0  0  0  0  0  0  0  0  0
    4.9966    0.4749    0.0000 H   0  0  0  0  0  0  0  0  0  0  0  0
    4.1996    0.4749    0.0000 H   0  0  0  0  0  0  0  0  0  0  0  0
    6.7976   -0.9749    0.0000 H   0  0  0  0  0  0  0  0  0  0  0  0
    7.5947   -0.9749    0.0000 H   0  0  0  0  0  0  0  0  0  0  0  0
    3.3335   -0.9749    0.0000 H   0  0  0  0  0  0  0  0  0  0  0  0
    4.1306   -0.9749    0.0000 H   0  0  0  0  0  0  0  0  0  0  0  0
    8.4607    0.4749    0.0000 H   0  0  0  0  0  0  0  0  0  0  0  0
    7.6636    0.4749    0.0000 H   0  0  0  0  0  0  0  0  0  0  0  0
  1  8  1  0  0  0  0
  2  9  3  0  0  0  0
  3  4  1  0  0  0  0
  3  5  1  0  0  0  0
  3 10  1  0  0  0  0
  3 11  1  0  0  0  0
  4  6  1  0  0  0  0
  4 12  1  0  0  0  0
  4 13  1  0  0  0  0
  5  7  1  0  0  0  0
  5 14  1  0  0  0  0
  5 15  1  0  0  0  0
  6  8  1  0  0  0  0
  6 16  1  0  0  0  0
  6 17  1  0  0  0  0
  7  9  1  0  0  0  0
  7 18  1  0  0  0  0
  7 19  1  0  0  0  0
  8 20  1  0  0  0  0
  8 21  1  0  0  0  0
M  END
> <PUBCHEM_COMPOUND_CID>
9537

> <PUBCHEM_COMPOUND_CANONICALIZED>
1

> <PUBCHEM_CACTVS_COMPLEXITY>
92.3

> <PUBCHEM_CACTVS_HBOND_ACCEPTOR>
2

> <PUBCHEM_CACTVS_HBOND_DONOR>
0

> <PUBCHEM_CACTVS_ROTATABLE_BOND>
5

> <PUBCHEM_CACTVS_SUBSKEYS>
AAADccBiAQAAAAAAAAAAAAAAAAAAAAAAAAAAAAAAAAAAAAAAAAAAHQAAAAAACACBAAAAAAAAAAAQBAAAAAAAAAAAAAAAAAAAAAAAgAIAAAAAAAAAAAAAAAkAgAAAAAAAAAAAAAAAAAAAAAAAAAAAAAAAAA==

> <PUBCHEM_IUPAC_OPENEYE_NAME>
7-fluoroheptanenitrile

> <PUBCHEM_IUPAC_CAS_NAME>
7-fluoroheptanenitrile

> <PUBCHEM_IUPAC_NAME>
7-fluoroheptanenitrile

> <PUBCHEM_IUPAC_SYSTEMATIC_NAME>
7-fluoranylheptanenitrile

> <PUBCHEM_IUPAC_TRADITIONAL_NAME>
7-fluoroenanthonitrile

> <PUBCHEM_IUPAC_INCHI>
InChI=1S/C7H12FN/c8-6-4-2-1-3-5-7-9/h1-6H2

> <PUBCHEM_IUPAC_INCHIKEY>
CFSMWCPJTYADHU-UHFFFAOYSA-N

> <PUBCHEM_XLOGP3_AA>
1.9

> <PUBCHEM_EXACT_MASS>
129.095378

> <PUBCHEM_MOLECULAR_FORMULA>
C7H12FN

> <PUBCHEM_MOLECULAR_WEIGHT>
129.175283

> <PUBCHEM_OPENEYE_CAN_SMILES>
C(CCCF)CCC#N

> <PUBCHEM_OPENEYE_ISO_SMILES>
C(CCCF)CCC#N

> <PUBCHEM_CACTVS_TPSA>
23.8

> <PUBCHEM_MONOISOTOPIC_WEIGHT>
129.095378

> <PUBCHEM_TOTAL_CHARGE>
0

> <PUBCHEM_HEAVY_ATOM_COUNT>
9

> <PUBCHEM_ATOM_DEF_STEREO_COUNT>
0

> <PUBCHEM_ATOM_UDEF_STEREO_COUNT>
0

> <PUBCHEM_BOND_DEF_STEREO_COUNT>
0

> <PUBCHEM_BOND_UDEF_STEREO_COUNT>
0

> <PUBCHEM_ISOTOPIC_ATOM_COUNT>
0

> <PUBCHEM_COMPONENT_COUNT>
1

> <PUBCHEM_CACTVS_TAUTO_COUNT>
1

> <PUBCHEM_COORDINATE_TYPE>
1
5
255

$$$$

