9795
  -OEChem-06261204043D

 17 17  0     0  0  0  0  0  0999 V2000
    1.8740    2.0803   -0.0013 F   0  0  0  0  0  0  0  0  0  0  0  0
    2.0595    0.2115    1.0836 F   0  0  0  0  0  0  0  0  0  0  0  0
    2.0370    0.2055   -1.0908 F   0  0  0  0  0  0  0  0  0  0  0  0
   -0.4368   -2.9213   -0.0001 O   0  5  0  0  0  0  0  0  0  0  0  0
    1.3967   -1.7139    0.0006 O   0  0  0  0  0  0  0  0  0  0  0  0
    0.1468   -1.8116    0.0009 N   0  3  0  0  0  0  0  0  0  0  0  0
   -0.0312    0.6335    0.0013 C   0  0  0  0  0  0  0  0  0  0  0  0
   -0.6355   -0.6238    0.0020 C   0  0  0  0  0  0  0  0  0  0  0  0
   -0.8181    1.7853    0.0005 C   0  0  0  0  0  0  0  0  0  0  0  0
    1.4563    0.7811    0.0004 C   0  0  0  0  0  0  0  0  0  0  0  0
   -2.0264   -0.7291    0.0019 C   0  0  0  0  0  0  0  0  0  0  0  0
   -2.2090    1.6798    0.0003 C   0  0  0  0  0  0  0  0  0  0  0  0
   -2.8132    0.4226    0.0009 C   0  0  0  0  0  0  0  0  0  0  0  0
   -0.3698    2.7750   -0.0002 H   0  0  0  0  0  0  0  0  0  0  0  0
   -2.5352   -1.6897    0.0021 H   0  0  0  0  0  0  0  0  0  0  0  0
   -2.8220    2.5765   -0.0005 H   0  0  0  0  0  0  0  0  0  0  0  0
   -3.8962    0.3412    0.0007 H   0  0  0  0  0  0  0  0  0  0  0  0
  1 10  1  0  0  0  0
  2 10  1  0  0  0  0
  3 10  1  0  0  0  0
  4  6  1  0  0  0  0
  5  6  2  0  0  0  0
  6  8  1  0  0  0  0
  7  8  1  0  0  0  0
  7  9  2  0  0  0  0
  7 10  1  0  0  0  0
  8 11  2  0  0  0  0
  9 12  1  0  0  0  0
  9 14  1  0  0  0  0
 11 13  1  0  0  0  0
 11 15  1  0  0  0  0
 12 13  2  0  0  0  0
 12 16  1  0  0  0  0
 13 17  1  0  0  0  0
M  CHG  2   4  -1   6   1
M  END
> <PUBCHEM_COMPOUND_CID>
9795

> <PUBCHEM_CONFORMER_RMSD>
0.6

> <PUBCHEM_CONFORMER_DIVERSEORDER>
1

> <PUBCHEM_MMFF94_PARTIAL_CHARGES>
17
1 -0.34
10 1.16
11 -0.15
12 -0.15
13 -0.15
14 0.15
15 0.15
16 0.15
17 0.15
2 -0.34
3 -0.34
4 -0.52
5 -0.52
6 0.91
7 -0.14
8 0.13
9 -0.15

> <PUBCHEM_EFFECTIVE_ROTOR_COUNT>
2

> <PUBCHEM_PHARMACOPHORE_FEATURES>
4
1 4 acceptor
1 4 anion
1 5 acceptor
6 7 8 9 11 12 13 rings

> <PUBCHEM_HEAVY_ATOM_COUNT>
13

> <PUBCHEM_ATOM_DEF_STEREO_COUNT>
0

> <PUBCHEM_ATOM_UDEF_STEREO_COUNT>
0

> <PUBCHEM_BOND_DEF_STEREO_COUNT>
0

> <PUBCHEM_BOND_UDEF_STEREO_COUNT>
0

> <PUBCHEM_ISOTOPIC_ATOM_COUNT>
0

> <PUBCHEM_COMPONENT_COUNT>
1

> <PUBCHEM_CACTVS_TAUTO_COUNT>
1

> <PUBCHEM_CONFORMER_ID>
0000264300000001

> <PUBCHEM_MMFF94_ENERGY>
39.544

> <PUBCHEM_FEATURE_SELFOVERLAP>
20.379

> <PUBCHEM_SHAPE_FINGERPRINT>
12423570 1 11370703243902318635
12524768 44 18047465630287432845
16945 1 18338516473103192581
18185500 45 17617655900782631775
193761 8 18338797801803251238
20871998 184 17684362858764646998
21040471 1 18410573955086680070
22802520 49 17973135384649042894
2334 1 18410573959724532237
23552423 10 18196650915903441685
23559900 14 18262222375713450588
241688 4 17114383096268083425
2748010 2 18411697682061856893
5084963 1 18113330916571699041
66348 1 18411696591018857309
7364860 26 18044943625575650079

> <PUBCHEM_SHAPE_MULTIPOLES>
228.99
3.17
2.49
0.7
0.92
1.1
0
-0.87
0
-0.49
0
-0.23
-0.08
0

> <PUBCHEM_SHAPE_SELFOVERLAP>
492.214

> <PUBCHEM_SHAPE_VOLUME>
126.3

> <PUBCHEM_COORDINATE_TYPE>
2
5
10

$$$$

