854032
  -OEChem-06241222473D

 28 29  0     1  0  0  0  0  0999 V2000
    3.5020   -2.6229    0.1867 S   0  0  0  0  0  0  0  0  0  0  0  0
    2.4745    2.3018    0.0455 O   0  0  0  0  0  0  0  0  0  0  0  0
   -5.3019   -0.5824    0.5015 O   0  0  0  0  0  0  0  0  0  0  0  0
    1.3835   -0.9724    0.3470 N   0  0  0  0  0  0  0  0  0  0  0  0
    3.3132    0.1183    0.0583 N   0  0  0  0  0  0  0  0  0  0  0  0
    0.9829    0.4100    0.3239 C   0  0  2  0  0  0  0  0  0  0  0  0
    0.0296    0.7129   -0.8136 C   0  0  0  0  0  0  0  0  0  0  0  0
    2.3320    1.0882    0.1275 C   0  0  0  0  0  0  0  0  0  0  0  0
   -1.3967    0.3669   -0.4621 C   0  0  0  0  0  0  0  0  0  0  0  0
    2.7548   -1.1354    0.1919 C   0  0  0  0  0  0  0  0  0  0  0  0
    4.7327    0.3818   -0.1288 C   0  0  0  0  0  0  0  0  0  0  0  0
   -1.8747   -0.9045   -0.7372 C   0  0  0  0  0  0  0  0  0  0  0  0
   -2.2028    1.3262    0.1303 C   0  0  0  0  0  0  0  0  0  0  0  0
   -3.1926   -1.2249   -0.4117 C   0  0  0  0  0  0  0  0  0  0  0  0
   -3.5208    1.0059    0.4558 C   0  0  0  0  0  0  0  0  0  0  0  0
   -4.0157   -0.2697    0.1847 C   0  0  0  0  0  0  0  0  0  0  0  0
    0.5911    0.6758    1.3115 H   0  0  0  0  0  0  0  0  0  0  0  0
    0.3239    0.1856   -1.7316 H   0  0  0  0  0  0  0  0  0  0  0  0
    0.0720    1.7793   -1.0732 H   0  0  0  0  0  0  0  0  0  0  0  0
    0.7442   -1.7460    0.4999 H   0  0  0  0  0  0  0  0  0  0  0  0
    5.0722   -0.1197   -1.0397 H   0  0  0  0  0  0  0  0  0  0  0  0
    5.2862   -0.0209    0.7245 H   0  0  0  0  0  0  0  0  0  0  0  0
    4.9149    1.4563   -0.2110 H   0  0  0  0  0  0  0  0  0  0  0  0
   -1.2428   -1.6552   -1.2027 H   0  0  0  0  0  0  0  0  0  0  0  0
   -1.8257    2.3214    0.3477 H   0  0  0  0  0  0  0  0  0  0  0  0
   -3.5726   -2.2202   -0.6256 H   0  0  0  0  0  0  0  0  0  0  0  0
   -4.1516    1.7589    0.9206 H   0  0  0  0  0  0  0  0  0  0  0  0
   -5.7247    0.1950    0.9055 H   0  0  0  0  0  0  0  0  0  0  0  0
  1 10  2  0  0  0  0
  2  8  2  0  0  0  0
  3 16  1  0  0  0  0
  3 28  1  0  0  0  0
  4  6  1  0  0  0  0
  4 10  1  0  0  0  0
  4 20  1  0  0  0  0
  5  8  1  0  0  0  0
  5 10  1  0  0  0  0
  5 11  1  0  0  0  0
  6  7  1  0  0  0  0
  6  8  1  0  0  0  0
  6 17  1  0  0  0  0
  7  9  1  0  0  0  0
  7 18  1  0  0  0  0
  7 19  1  0  0  0  0
  9 12  2  0  0  0  0
  9 13  1  0  0  0  0
 11 21  1  0  0  0  0
 11 22  1  0  0  0  0
 11 23  1  0  0  0  0
 12 14  1  0  0  0  0
 12 24  1  0  0  0  0
 13 15  2  0  0  0  0
 13 25  1  0  0  0  0
 14 16  2  0  0  0  0
 14 26  1  0  0  0  0
 15 16  1  0  0  0  0
 15 27  1  0  0  0  0
M  END
> <PUBCHEM_COMPOUND_CID>
854032

> <PUBCHEM_CONFORMER_RMSD>
0.6

> <PUBCHEM_CONFORMER_DIVERSEORDER>
1
2
5
4
3

> <PUBCHEM_MMFF94_PARTIAL_CHARGES>
22
1 -0.38
10 0.5
11 0.3
12 -0.15
13 -0.15
14 -0.15
15 -0.15
16 0.08
2 -0.57
20 0.37
24 0.15
25 0.15
26 0.15
27 0.15
28 0.45
3 -0.53
4 -0.73
5 -0.42
6 0.36
7 0.14
8 0.57
9 -0.14

> <PUBCHEM_EFFECTIVE_ROTOR_COUNT>
2.6

> <PUBCHEM_PHARMACOPHORE_FEATURES>
6
1 1 acceptor
1 2 acceptor
1 3 donor
1 4 donor
5 4 5 6 8 10 rings
6 9 12 13 14 15 16 rings

> <PUBCHEM_HEAVY_ATOM_COUNT>
16

> <PUBCHEM_ATOM_DEF_STEREO_COUNT>
1

> <PUBCHEM_ATOM_UDEF_STEREO_COUNT>
0

> <PUBCHEM_BOND_DEF_STEREO_COUNT>
0

> <PUBCHEM_BOND_UDEF_STEREO_COUNT>
0

> <PUBCHEM_ISOTOPIC_ATOM_COUNT>
0

> <PUBCHEM_COMPONENT_COUNT>
1

> <PUBCHEM_CACTVS_TAUTO_COUNT>
4

> <PUBCHEM_CONFORMER_ID>
000D081000000001

> <PUBCHEM_MMFF94_ENERGY>
33.7645

> <PUBCHEM_FEATURE_SELFOVERLAP>
30.446

> <PUBCHEM_SHAPE_FINGERPRINT>
10616163 171 18262519182568678607
12107183 9 17831293170501853729
12251169 10 18334576832545981157
12507560 40 18411983602446036333
12616999 72 18272926138141228214
13296908 3 17632587079725008925
13533116 47 18410013239165482547
14144814 61 18335424594517995889
14252887 29 18202561778423430032
14341114 176 18335413586606558579
15196674 1 18339361971564132515
15375462 189 18409454704116389338
15442244 35 18264208187189501168
15477762 27 18413107277686127704
15536298 74 18408324410373730162
17804303 29 18338230591373926983
17834074 16 18411980251986540434
1813 80 17489581298781326668
19050596 39 18335986367713701121
19422 9 18410572932889809899
200 152 18261123967396163277
20279233 1 15985385590234104585
20281475 54 18408893927121267598
20645477 70 18341623654018750119
21065198 48 18334573577134857177
21267235 1 18409439276409245687
221490 88 18341607101483732242
22445834 79 18410295826079475071
22485316 2 18341334469548894991
2255824 54 18341612556340072460
23402539 116 17060347344266263852
23463225 33 18335703861923649655
23559900 14 18409455807601140128
26918003 58 18130788928349244281
2871803 45 18060426841070572307
42 15 18411697699373601263
4214541 1 18410012178044705793
474 4 18127691522178957252
5104073 3 18337111275403887065
6049 1 17988092191324093764
7364860 26 18408043992212058476
77779 3 18410574006763522153
9709674 26 18413103944433407643

> <PUBCHEM_SHAPE_MULTIPOLES>
311.42
9.48
2.01
0.75
2.66
0.46
-0.06
2.06
1.17
-1.86
0.08
0.2
0.03
-0.35

> <PUBCHEM_SHAPE_SELFOVERLAP>
651.226

> <PUBCHEM_SHAPE_VOLUME>
180.1

> <PUBCHEM_COORDINATE_TYPE>
2
5
10

$$$$

