7717
  -OEChem-06261202162D

 49 48  0     0  0  0  0  0  0999 V2000
    9.1360    5.8285    0.0000 Cl  0  5  0  0  0  0  0  0  0  0  0  0
    5.7331    9.5369    0.0000 N   0  3  0  0  0  0  0  0  0  0  0  0
    3.1350    5.0369    0.0000 C   0  0  0  0  0  0  0  0  0  0  0  0
    4.0010    5.5369    0.0000 C   0  0  0  0  0  0  0  0  0  0  0  0
    3.1350    4.0369    0.0000 C   0  0  0  0  0  0  0  0  0  0  0  0
    4.0010    6.5369    0.0000 C   0  0  0  0  0  0  0  0  0  0  0  0
    2.2690    3.5369    0.0000 C   0  0  0  0  0  0  0  0  0  0  0  0
    4.8671    7.0369    0.0000 C   0  0  0  0  0  0  0  0  0  0  0  0
    2.2690    2.5369    0.0000 C   0  0  0  0  0  0  0  0  0  0  0  0
    4.8671    8.0369    0.0000 C   0  0  0  0  0  0  0  0  0  0  0  0
    1.4030    2.0369    0.0000 C   0  0  0  0  0  0  0  0  0  0  0  0
    5.7331    8.5369    0.0000 C   0  0  0  0  0  0  0  0  0  0  0  0
    1.4030    1.0369    0.0000 C   0  0  0  0  0  0  0  0  0  0  0  0
    0.5369    0.5369    0.0000 C   0  0  0  0  0  0  0  0  0  0  0  0
    4.8671   10.0369    0.0000 C   0  0  0  0  0  0  0  0  0  0  0  0
    6.5991   10.0369    0.0000 C   0  0  0  0  0  0  0  0  0  0  0  0
    4.8671   11.0369    0.0000 C   0  0  0  0  0  0  0  0  0  0  0  0
    6.5991   11.0369    0.0000 C   0  0  0  0  0  0  0  0  0  0  0  0
    5.7331   11.5369    0.0000 C   0  0  0  0  0  0  0  0  0  0  0  0
    2.9230    5.6195    0.0000 H   0  0  0  0  0  0  0  0  0  0  0  0
    2.5244    4.9293    0.0000 H   0  0  0  0  0  0  0  0  0  0  0  0
    4.2131    4.9543    0.0000 H   0  0  0  0  0  0  0  0  0  0  0  0
    4.6116    5.6446    0.0000 H   0  0  0  0  0  0  0  0  0  0  0  0
    3.3471    3.4543    0.0000 H   0  0  0  0  0  0  0  0  0  0  0  0
    3.7456    4.1446    0.0000 H   0  0  0  0  0  0  0  0  0  0  0  0
    3.7890    7.1195    0.0000 H   0  0  0  0  0  0  0  0  0  0  0  0
    3.3905    6.4293    0.0000 H   0  0  0  0  0  0  0  0  0  0  0  0
    2.0569    4.1195    0.0000 H   0  0  0  0  0  0  0  0  0  0  0  0
    1.6584    3.4293    0.0000 H   0  0  0  0  0  0  0  0  0  0  0  0
    5.0791    6.4543    0.0000 H   0  0  0  0  0  0  0  0  0  0  0  0
    5.4776    7.1446    0.0000 H   0  0  0  0  0  0  0  0  0  0  0  0
    2.4810    1.9543    0.0000 H   0  0  0  0  0  0  0  0  0  0  0  0
    2.8796    2.6446    0.0000 H   0  0  0  0  0  0  0  0  0  0  0  0
    4.6550    8.6195    0.0000 H   0  0  0  0  0  0  0  0  0  0  0  0
    4.2565    7.9293    0.0000 H   0  0  0  0  0  0  0  0  0  0  0  0
    1.1909    2.6196    0.0000 H   0  0  0  0  0  0  0  0  0  0  0  0
    0.7924    1.9293    0.0000 H   0  0  0  0  0  0  0  0  0  0  0  0
    5.9451    7.9543    0.0000 H   0  0  0  0  0  0  0  0  0  0  0  0
    6.3437    8.6446    0.0000 H   0  0  0  0  0  0  0  0  0  0  0  0
    1.6150    0.4543    0.0000 H   0  0  0  0  0  0  0  0  0  0  0  0
    2.0135    1.1446    0.0000 H   0  0  0  0  0  0  0  0  0  0  0  0
    0.2269    1.0739    0.0000 H   0  0  0  0  0  0  0  0  0  0  0  0
    0.0000    0.2269    0.0000 H   0  0  0  0  0  0  0  0  0  0  0  0
    0.8469    0.0000    0.0000 H   0  0  0  0  0  0  0  0  0  0  0  0
    4.3301    9.7269    0.0000 H   0  0  0  0  0  0  0  0  0  0  0  0
    7.1360    9.7269    0.0000 H   0  0  0  0  0  0  0  0  0  0  0  0
    4.3301   11.3469    0.0000 H   0  0  0  0  0  0  0  0  0  0  0  0
    7.1360   11.3469    0.0000 H   0  0  0  0  0  0  0  0  0  0  0  0
    5.7331   12.1569    0.0000 H   0  0  0  0  0  0  0  0  0  0  0  0
  2 12  1  0  0  0  0
  2 15  2  0  0  0  0
  2 16  1  0  0  0  0
  3  4  1  0  0  0  0
  3  5  1  0  0  0  0
  3 20  1  0  0  0  0
  3 21  1  0  0  0  0
  4  6  1  0  0  0  0
  4 22  1  0  0  0  0
  4 23  1  0  0  0  0
  5  7  1  0  0  0  0
  5 24  1  0  0  0  0
  5 25  1  0  0  0  0
  6  8  1  0  0  0  0
  6 26  1  0  0  0  0
  6 27  1  0  0  0  0
  7  9  1  0  0  0  0
  7 28  1  0  0  0  0
  7 29  1  0  0  0  0
  8 10  1  0  0  0  0
  8 30  1  0  0  0  0
  8 31  1  0  0  0  0
  9 11  1  0  0  0  0
  9 32  1  0  0  0  0
  9 33  1  0  0  0  0
 10 12  1  0  0  0  0
 10 34  1  0  0  0  0
 10 35  1  0  0  0  0
 11 13  1  0  0  0  0
 11 36  1  0  0  0  0
 11 37  1  0  0  0  0
 12 38  1  0  0  0  0
 12 39  1  0  0  0  0
 13 14  1  0  0  0  0
 13 40  1  0  0  0  0
 13 41  1  0  0  0  0
 14 42  1  0  0  0  0
 14 43  1  0  0  0  0
 14 44  1  0  0  0  0
 15 17  1  0  0  0  0
 15 45  1  0  0  0  0
 16 18  2  0  0  0  0
 16 46  1  0  0  0  0
 17 19  2  0  0  0  0
 17 47  1  0  0  0  0
 18 19  1  0  0  0  0
 18 48  1  0  0  0  0
 19 49  1  0  0  0  0
M  CHG  2   1  -1   2   1
M  END
> <PUBCHEM_COMPOUND_CID>
7717

> <PUBCHEM_COMPOUND_CANONICALIZED>
1

> <PUBCHEM_CACTVS_COMPLEXITY>
161

> <PUBCHEM_CACTVS_HBOND_ACCEPTOR>
1

> <PUBCHEM_CACTVS_HBOND_DONOR>
0

> <PUBCHEM_CACTVS_ROTATABLE_BOND>
11

> <PUBCHEM_CACTVS_SUBSKEYS>
AAADceB6AAAEAAAAAAAAAAAAAAAAAAAAAAAsAAAAAAAAAAABgAAAHAAAAAAACADBEgQ+gJMMEACgADBnRACCgCAxAiAI2CA4ZJgIIOLAkZGEIAhggADIyAcQgIAAAAAAAAAAAAAAAAAAAAAAAAAAAAAAAA==

> <PUBCHEM_IUPAC_OPENEYE_NAME>
1-dodecylpyridin-1-ium chloride

> <PUBCHEM_IUPAC_CAS_NAME>
1-dodecylpyridin-1-ium chloride

> <PUBCHEM_IUPAC_NAME>
1-dodecylpyridin-1-ium chloride

> <PUBCHEM_IUPAC_SYSTEMATIC_NAME>
1-dodecylpyridin-1-ium chloride

> <PUBCHEM_IUPAC_TRADITIONAL_NAME>
1-laurylpyridin-1-ium chloride

> <PUBCHEM_IUPAC_INCHI>
InChI=1S/C17H30N.ClH/c1-2-3-4-5-6-7-8-9-10-12-15-18-16-13-11-14-17-18;/h11,13-14,16-17H,2-10,12,15H2,1H3;1H/q+1;/p-1

> <PUBCHEM_IUPAC_INCHIKEY>
GKQHIYSTBXDYNQ-UHFFFAOYSA-M

> <PUBCHEM_EXACT_MASS>
283.206678

> <PUBCHEM_MOLECULAR_FORMULA>
C17H30ClN

> <PUBCHEM_MOLECULAR_WEIGHT>
283.8798

> <PUBCHEM_OPENEYE_CAN_SMILES>
CCCCCCCCCCCC[N+]1=CC=CC=C1.[Cl-]

> <PUBCHEM_OPENEYE_ISO_SMILES>
CCCCCCCCCCCC[N+]1=CC=CC=C1.[Cl-]

> <PUBCHEM_CACTVS_TPSA>
3.9

> <PUBCHEM_MONOISOTOPIC_WEIGHT>
283.206678

> <PUBCHEM_TOTAL_CHARGE>
0

> <PUBCHEM_HEAVY_ATOM_COUNT>
19

> <PUBCHEM_ATOM_DEF_STEREO_COUNT>
0

> <PUBCHEM_ATOM_UDEF_STEREO_COUNT>
0

> <PUBCHEM_BOND_DEF_STEREO_COUNT>
0

> <PUBCHEM_BOND_UDEF_STEREO_COUNT>
0

> <PUBCHEM_ISOTOPIC_ATOM_COUNT>
0

> <PUBCHEM_COMPONENT_COUNT>
2

> <PUBCHEM_CACTVS_TAUTO_COUNT>
1

> <PUBCHEM_COORDINATE_TYPE>
1
5
255

> <PUBCHEM_BONDANNOTATIONS>
15  17  8
16  18  8
17  19  8
18  19  8
2  15  8
2  16  8

$$$$

