10356
  -OEChem-06261204293D

 21 21  0     0  0  0  0  0  0999 V2000
   -2.7773    1.1550    0.0011 O   0  0  0  0  0  0  0  0  0  0  0  0
   -2.9071   -1.1143   -0.0014 O   0  0  0  0  0  0  0  0  0  0  0  0
    1.3596   -1.1920    0.0002 C   0  0  0  0  0  0  0  0  0  0  0  0
    1.2897    1.2231    0.0001 C   0  0  0  0  0  0  0  0  0  0  0  0
    2.0219    0.0357    0.0001 C   0  0  0  0  0  0  0  0  0  0  0  0
   -0.7669   -0.0450    0.0005 C   0  0  0  0  0  0  0  0  0  0  0  0
   -0.0348   -1.2322    0.0004 C   0  0  0  0  0  0  0  0  0  0  0  0
   -0.1046    1.1826    0.0003 C   0  0  0  0  0  0  0  0  0  0  0  0
    2.1424   -2.4615    0.0000 C   0  0  0  0  0  0  0  0  0  0  0  0
    1.9977    2.5359   -0.0010 C   0  0  0  0  0  0  0  0  0  0  0  0
   -2.2205   -0.0872   -0.0004 C   0  0  0  0  0  0  0  0  0  0  0  0
    3.1090    0.0664    0.0035 H   0  0  0  0  0  0  0  0  0  0  0  0
   -0.5435   -2.1935    0.0024 H   0  0  0  0  0  0  0  0  0  0  0  0
   -0.6462    2.1250    0.0020 H   0  0  0  0  0  0  0  0  0  0  0  0
    3.1087   -2.3312   -0.4990 H   0  0  0  0  0  0  0  0  0  0  0  0
    2.3209   -2.7927    1.0278 H   0  0  0  0  0  0  0  0  0  0  0  0
    1.6096   -3.2536   -0.5372 H   0  0  0  0  0  0  0  0  0  0  0  0
    3.0056    2.4459   -0.4202 H   0  0  0  0  0  0  0  0  0  0  0  0
    1.4612    3.2696   -0.6123 H   0  0  0  0  0  0  0  0  0  0  0  0
    2.0792    2.9194    1.0209 H   0  0  0  0  0  0  0  0  0  0  0  0
   -3.7576    1.1155    0.0010 H   0  0  0  0  0  0  0  0  0  0  0  0
  1 11  1  0  0  0  0
  1 21  1  0  0  0  0
  2 11  2  0  0  0  0
  3  5  2  0  0  0  0
  3  7  1  0  0  0  0
  3  9  1  0  0  0  0
  4  5  1  0  0  0  0
  4  8  2  0  0  0  0
  4 10  1  0  0  0  0
  5 12  1  0  0  0  0
  6  7  2  0  0  0  0
  6  8  1  0  0  0  0
  6 11  1  0  0  0  0
  7 13  1  0  0  0  0
  8 14  1  0  0  0  0
  9 15  1  0  0  0  0
  9 16  1  0  0  0  0
  9 17  1  0  0  0  0
 10 18  1  0  0  0  0
 10 19  1  0  0  0  0
 10 20  1  0  0  0  0
M  END
> <PUBCHEM_COMPOUND_CID>
10356

> <PUBCHEM_CONFORMER_RMSD>
0.4

> <PUBCHEM_CONFORMER_DIVERSEORDER>
1
2

> <PUBCHEM_MMFF94_PARTIAL_CHARGES>
15
1 -0.65
10 0.14
11 0.63
12 0.15
13 0.15
14 0.15
2 -0.57
21 0.5
3 -0.14
4 -0.14
5 -0.15
6 0.09
7 -0.15
8 -0.15
9 0.14

> <PUBCHEM_EFFECTIVE_ROTOR_COUNT>
1

> <PUBCHEM_PHARMACOPHORE_FEATURES>
4
1 1 acceptor
1 2 acceptor
3 1 2 11 anion
6 3 4 5 6 7 8 rings

> <PUBCHEM_HEAVY_ATOM_COUNT>
11

> <PUBCHEM_ATOM_DEF_STEREO_COUNT>
0

> <PUBCHEM_ATOM_UDEF_STEREO_COUNT>
0

> <PUBCHEM_BOND_DEF_STEREO_COUNT>
0

> <PUBCHEM_BOND_UDEF_STEREO_COUNT>
0

> <PUBCHEM_ISOTOPIC_ATOM_COUNT>
0

> <PUBCHEM_COMPONENT_COUNT>
1

> <PUBCHEM_CACTVS_TAUTO_COUNT>
1

> <PUBCHEM_CONFORMER_ID>
0000287400000001

> <PUBCHEM_MMFF94_ENERGY>
29.6313

> <PUBCHEM_FEATURE_SELFOVERLAP>
20.355

> <PUBCHEM_SHAPE_FINGERPRINT>
1 1 18338516314110132164
13380535 76 18124600782049750586
14128692 85 18337386170649214798
14325111 11 18266740182037685057
14648413 74 18412825810988349305
16945 1 18410855438748335814
17990270 104 18411702109883287555
19021347 11 18338799996547097462
19973954 147 18411136948353946625
20645477 70 18410300181757133903
20871998 22 18118681260628170030
21040471 1 17978509733035001120
21501502 16 18410573989894850325
23552423 10 18411135827187958951
241688 4 17978508964240825002
2748010 2 18121508109354566006
5084963 1 18115020805777008513
528862 383 18269847436346871034
7364860 26 18407478855898601000
81228 2 17544751695802760514

> <PUBCHEM_SHAPE_MULTIPOLES>
214.64
3.76
2.53
0.6
2.63
0.15
0
-0.19
0
-2.07
0
-0.05
0
0

> <PUBCHEM_SHAPE_SELFOVERLAP>
447.861

> <PUBCHEM_SHAPE_VOLUME>
124.1

> <PUBCHEM_COORDINATE_TYPE>
2
5
10

$$$$

