14238
  -OEChem-06241222423D

 16 15  0     0  0  0  0  0  0999 V2000
   -1.0711    0.0736    0.0000 C   0  0  0  0  0  0  0  0  0  0  0  0
    0.3270    0.4841    0.0002 C   0  0  0  0  0  0  0  0  0  0  0  0
   -1.4131   -1.3909   -0.0001 C   0  0  0  0  0  0  0  0  0  0  0  0
    1.3953   -0.3289    0.0003 C   0  0  0  0  0  0  0  0  0  0  0  0
    2.8067    0.1629   -0.0003 C   0  0  0  0  0  0  0  0  0  0  0  0
   -2.0448    0.9992   -0.0001 C   0  0  0  0  0  0  0  0  0  0  0  0
    0.5054    1.5586   -0.0001 H   0  0  0  0  0  0  0  0  0  0  0  0
   -1.0097   -1.8839    0.8910 H   0  0  0  0  0  0  0  0  0  0  0  0
   -1.0094   -1.8839   -0.8910 H   0  0  0  0  0  0  0  0  0  0  0  0
   -2.4958   -1.5594   -0.0003 H   0  0  0  0  0  0  0  0  0  0  0  0
    1.2739   -1.4083    0.0004 H   0  0  0  0  0  0  0  0  0  0  0  0
    3.3298   -0.2072    0.8868 H   0  0  0  0  0  0  0  0  0  0  0  0
    2.8673    1.2558   -0.0006 H   0  0  0  0  0  0  0  0  0  0  0  0
    3.3293   -0.2077   -0.8875 H   0  0  0  0  0  0  0  0  0  0  0  0
   -3.0925    0.7155   -0.0002 H   0  0  0  0  0  0  0  0  0  0  0  0
   -1.8273    2.0629    0.0001 H   0  0  0  0  0  0  0  0  0  0  0  0
  1  2  1  0  0  0  0
  1  3  1  0  0  0  0
  1  6  2  0  0  0  0
  2  4  2  0  0  0  0
  2  7  1  0  0  0  0
  3  8  1  0  0  0  0
  3  9  1  0  0  0  0
  3 10  1  0  0  0  0
  4  5  1  0  0  0  0
  4 11  1  0  0  0  0
  5 12  1  0  0  0  0
  5 13  1  0  0  0  0
  5 14  1  0  0  0  0
  6 15  1  0  0  0  0
  6 16  1  0  0  0  0
M  END
> <PUBCHEM_COMPOUND_CID>
14238

> <PUBCHEM_CONFORMER_RMSD>
0.4

> <PUBCHEM_CONFORMER_DIVERSEORDER>
1

> <PUBCHEM_MMFF94_PARTIAL_CHARGES>
10
1 -0.14
11 0.15
15 0.15
16 0.15
2 -0.15
3 0.14
4 -0.29
5 0.14
6 -0.3
7 0.15

> <PUBCHEM_EFFECTIVE_ROTOR_COUNT>
1

> <PUBCHEM_PHARMACOPHORE_FEATURES>
1
1 5 hydrophobe

> <PUBCHEM_HEAVY_ATOM_COUNT>
6

> <PUBCHEM_ATOM_DEF_STEREO_COUNT>
0

> <PUBCHEM_ATOM_UDEF_STEREO_COUNT>
0

> <PUBCHEM_BOND_DEF_STEREO_COUNT>
0

> <PUBCHEM_BOND_UDEF_STEREO_COUNT>
1

> <PUBCHEM_ISOTOPIC_ATOM_COUNT>
0

> <PUBCHEM_COMPONENT_COUNT>
1

> <PUBCHEM_CACTVS_TAUTO_COUNT>
1

> <PUBCHEM_CONFORMER_ID>
0000379E00000001

> <PUBCHEM_MMFF94_ENERGY>
4.8419

> <PUBCHEM_FEATURE_SELFOVERLAP>
5.074

> <PUBCHEM_SHAPE_FINGERPRINT>
12932741 1 17749392542292784936
14390081 3 18260272949269556872
16714656 1 18341893025803636957
20096714 4 18341331192504769793
21040471 1 18338517568061227813
23552423 10 18272649060794498462
23552449 1 18335986380535494393
24536 1 18337122184678911732
29004967 10 17167856448605220482
5460574 1 9295285040929596608

> <PUBCHEM_SHAPE_MULTIPOLES>
123.48
3.49
1.17
0.62
2.04
0.27
0
-0.36
0
-0.75
0
0
0
0

> <PUBCHEM_SHAPE_SELFOVERLAP>
221.03

> <PUBCHEM_SHAPE_VOLUME>
81.4

> <PUBCHEM_COORDINATE_TYPE>
2
5
10

$$$$

