3990
  -OEChem-06251223482D

 66 66  0     1  0  0  0  0  0999 V2000
    5.4641    0.5950    0.0000 O   0  0  0  0  0  0  0  0  0  0  0  0
    6.3301    0.0950    0.0000 O   0  0  0  0  0  0  0  0  0  0  0  0
    2.8660    3.0950    0.0000 O   0  0  0  0  0  0  0  0  0  0  0  0
    2.0000    1.5950    0.0000 O   0  0  0  0  0  0  0  0  0  0  0  0
    3.7320   -5.4050    0.0000 O   0  0  0  0  0  0  0  0  0  0  0  0
    5.4641   -1.4050    0.0000 N   0  0  0  0  0  0  0  0  0  0  0  0
    3.7320    0.5950    0.0000 N   0  0  0  0  0  0  0  0  0  0  0  0
    8.0622   -0.9050    0.0000 N   0  0  0  0  0  0  0  0  0  0  0  0
    6.3301    5.0950    0.0000 N   0  0  0  0  0  0  0  0  0  0  0  0
    8.9282   -5.4050    0.0000 N   0  0  0  0  0  0  0  0  0  0  0  0
    4.5981   -0.9050    0.0000 C   0  0  3  0  0  0  0  0  0  0  0  0
    3.7320    1.5950    0.0000 C   0  0  3  0  0  0  0  0  0  0  0  0
    4.5981    2.0950    0.0000 C   0  0  0  0  0  0  0  0  0  0  0  0
    7.1962   -1.4050    0.0000 C   0  0  3  0  0  0  0  0  0  0  0  0
    7.1962   -2.4050    0.0000 C   0  0  0  0  0  0  0  0  0  0  0  0
    3.7320   -1.4050    0.0000 C   0  0  0  0  0  0  0  0  0  0  0  0
    4.5981    3.0950    0.0000 C   0  0  0  0  0  0  0  0  0  0  0  0
    8.0622   -2.9050    0.0000 C   0  0  0  0  0  0  0  0  0  0  0  0
    4.5981    0.0950    0.0000 C   0  0  0  0  0  0  0  0  0  0  0  0
    6.3301   -0.9050    0.0000 C   0  0  0  0  0  0  0  0  0  0  0  0
    5.4641    3.5950    0.0000 C   0  0  0  0  0  0  0  0  0  0  0  0
    8.0622   -3.9050    0.0000 C   0  0  0  0  0  0  0  0  0  0  0  0
    3.7320   -2.4050    0.0000 C   0  0  0  0  0  0  0  0  0  0  0  0
    2.8660    2.0950    0.0000 C   0  0  0  0  0  0  0  0  0  0  0  0
    5.4641    4.5950    0.0000 C   0  0  0  0  0  0  0  0  0  0  0  0
    8.9282   -4.4050    0.0000 C   0  0  0  0  0  0  0  0  0  0  0  0
    2.8660   -2.9050    0.0000 C   0  0  0  0  0  0  0  0  0  0  0  0
    4.5981   -2.9050    0.0000 C   0  0  0  0  0  0  0  0  0  0  0  0
    2.8660   -3.9050    0.0000 C   0  0  0  0  0  0  0  0  0  0  0  0
    4.5981   -3.9050    0.0000 C   0  0  0  0  0  0  0  0  0  0  0  0
    3.7320   -4.4050    0.0000 C   0  0  0  0  0  0  0  0  0  0  0  0
    4.5981   -1.7550    0.0000 H   0  0  0  0  0  0  0  0  0  0  0  0
    4.4682    1.1700    0.0000 H   0  0  0  0  0  0  0  0  0  0  0  0
    4.8101    1.5124    0.0000 H   0  0  0  0  0  0  0  0  0  0  0  0
    5.2087    2.2027    0.0000 H   0  0  0  0  0  0  0  0  0  0  0  0
    7.9323   -1.8300    0.0000 H   0  0  0  0  0  0  0  0  0  0  0  0
    6.5856   -2.2973    0.0000 H   0  0  0  0  0  0  0  0  0  0  0  0
    6.9841   -2.9876    0.0000 H   0  0  0  0  0  0  0  0  0  0  0  0
    3.5200   -0.8224    0.0000 H   0  0  0  0  0  0  0  0  0  0  0  0
    3.1215   -1.5127    0.0000 H   0  0  0  0  0  0  0  0  0  0  0  0
    4.3860    3.6776    0.0000 H   0  0  0  0  0  0  0  0  0  0  0  0
    3.9875    2.9873    0.0000 H   0  0  0  0  0  0  0  0  0  0  0  0
    8.6728   -3.0127    0.0000 H   0  0  0  0  0  0  0  0  0  0  0  0
    8.2742   -2.3224    0.0000 H   0  0  0  0  0  0  0  0  0  0  0  0
    5.4641   -2.0250    0.0000 H   0  0  0  0  0  0  0  0  0  0  0  0
    3.1951    0.2850    0.0000 H   0  0  0  0  0  0  0  0  0  0  0  0
    5.6762    3.0124    0.0000 H   0  0  0  0  0  0  0  0  0  0  0  0
    6.0747    3.7027    0.0000 H   0  0  0  0  0  0  0  0  0  0  0  0
    7.4516   -3.7973    0.0000 H   0  0  0  0  0  0  0  0  0  0  0  0
    7.8501   -4.4876    0.0000 H   0  0  0  0  0  0  0  0  0  0  0  0
    5.2520    5.1776    0.0000 H   0  0  0  0  0  0  0  0  0  0  0  0
    4.8535    4.4873    0.0000 H   0  0  0  0  0  0  0  0  0  0  0  0
    8.5991   -1.2150    0.0000 H   0  0  0  0  0  0  0  0  0  0  0  0
    8.0622   -0.2850    0.0000 H   0  0  0  0  0  0  0  0  0  0  0  0
    9.5388   -4.5127    0.0000 H   0  0  0  0  0  0  0  0  0  0  0  0
    9.1403   -3.8224    0.0000 H   0  0  0  0  0  0  0  0  0  0  0  0
    2.3291   -2.5950    0.0000 H   0  0  0  0  0  0  0  0  0  0  0  0
    5.1350   -2.5950    0.0000 H   0  0  0  0  0  0  0  0  0  0  0  0
    2.3291   -4.2150    0.0000 H   0  0  0  0  0  0  0  0  0  0  0  0
    5.1350   -4.2150    0.0000 H   0  0  0  0  0  0  0  0  0  0  0  0
    6.3301    5.7150    0.0000 H   0  0  0  0  0  0  0  0  0  0  0  0
    6.8671    4.7850    0.0000 H   0  0  0  0  0  0  0  0  0  0  0  0
    9.4651   -5.7150    0.0000 H   0  0  0  0  0  0  0  0  0  0  0  0
    8.3913   -5.7150    0.0000 H   0  0  0  0  0  0  0  0  0  0  0  0
    2.3291    3.4050    0.0000 H   0  0  0  0  0  0  0  0  0  0  0  0
    3.1951   -5.7150    0.0000 H   0  0  0  0  0  0  0  0  0  0  0  0
  1 19  2  0  0  0  0
  2 20  2  0  0  0  0
  3 24  1  0  0  0  0
  3 65  1  0  0  0  0
  4 24  2  0  0  0  0
  5 31  1  0  0  0  0
  5 66  1  0  0  0  0
  6 11  1  0  0  0  0
  6 20  1  0  0  0  0
  6 45  1  0  0  0  0
  7 12  1  0  0  0  0
  7 19  1  0  0  0  0
  7 46  1  0  0  0  0
  8 14  1  0  0  0  0
  8 53  1  0  0  0  0
  8 54  1  0  0  0  0
  9 25  1  0  0  0  0
  9 61  1  0  0  0  0
  9 62  1  0  0  0  0
 10 26  1  0  0  0  0
 10 63  1  0  0  0  0
 10 64  1  0  0  0  0
 11 16  1  0  0  0  0
 11 19  1  0  0  0  0
 11 32  1  0  0  0  0
 12 13  1  0  0  0  0
 12 24  1  0  0  0  0
 12 33  1  0  0  0  0
 13 17  1  0  0  0  0
 13 34  1  0  0  0  0
 13 35  1  0  0  0  0
 14 15  1  0  0  0  0
 14 20  1  0  0  0  0
 14 36  1  0  0  0  0
 15 18  1  0  0  0  0
 15 37  1  0  0  0  0
 15 38  1  0  0  0  0
 16 23  1  0  0  0  0
 16 39  1  0  0  0  0
 16 40  1  0  0  0  0
 17 21  1  0  0  0  0
 17 41  1  0  0  0  0
 17 42  1  0  0  0  0
 18 22  1  0  0  0  0
 18 43  1  0  0  0  0
 18 44  1  0  0  0  0
 21 25  1  0  0  0  0
 21 47  1  0  0  0  0
 21 48  1  0  0  0  0
 22 26  1  0  0  0  0
 22 49  1  0  0  0  0
 22 50  1  0  0  0  0
 23 27  2  0  0  0  0
 23 28  1  0  0  0  0
 25 51  1  0  0  0  0
 25 52  1  0  0  0  0
 26 55  1  0  0  0  0
 26 56  1  0  0  0  0
 27 29  1  0  0  0  0
 27 57  1  0  0  0  0
 28 30  2  0  0  0  0
 28 58  1  0  0  0  0
 29 31  2  0  0  0  0
 29 59  1  0  0  0  0
 30 31  1  0  0  0  0
 30 60  1  0  0  0  0
M  END
> <PUBCHEM_COMPOUND_CID>
3990

> <PUBCHEM_COMPOUND_CANONICALIZED>
1

> <PUBCHEM_CACTVS_COMPLEXITY>
554

> <PUBCHEM_CACTVS_HBOND_ACCEPTOR>
8

> <PUBCHEM_CACTVS_HBOND_DONOR>
7

> <PUBCHEM_CACTVS_ROTATABLE_BOND>
15

> <PUBCHEM_CACTVS_SUBSKEYS>
AAADcfB7uAAAAAAAAAAAAAAAAAAAAAAAAAAwAAAAAAAAAAABAAAAHgAQCAAADCzBmAQwDoLAAgCIAiHSGAACAAAgIAAIiIGOCIgKZjKCkTOUcAAk1hGYmAeYyKCOIAAAAAAAAABAAAAAAAAAAAAAAAAAAA==

> <PUBCHEM_IUPAC_OPENEYE_NAME>
6-amino-2-[[2-(2,6-diaminohexanoylamino)-3-(4-hydroxyphenyl)propanoyl]amino]hexanoic acid

> <PUBCHEM_IUPAC_CAS_NAME>
6-amino-2-[[2-[(2,6-diamino-1-oxohexyl)amino]-3-(4-hydroxyphenyl)-1-oxopropyl]amino]hexanoic acid

> <PUBCHEM_IUPAC_NAME>
6-amino-2-[[2-(2,6-diaminohexanoylamino)-3-(4-hydroxyphenyl)propanoyl]amino]hexanoic acid

> <PUBCHEM_IUPAC_SYSTEMATIC_NAME>
6-azanyl-2-[[2-[2,6-bis(azanyl)hexanoylamino]-3-(4-hydroxyphenyl)propanoyl]amino]hexanoic acid

> <PUBCHEM_IUPAC_TRADITIONAL_NAME>
6-amino-2-[[2-(2,6-diaminohexanoylamino)-3-(4-hydroxyphenyl)propanoyl]amino]hexanoic acid

> <PUBCHEM_IUPAC_INCHI>
InChI=1S/C21H35N5O5/c22-11-3-1-5-16(24)19(28)26-18(13-14-7-9-15(27)10-8-14)20(29)25-17(21(30)31)6-2-4-12-23/h7-10,16-18,27H,1-6,11-13,22-24H2,(H,25,29)(H,26,28)(H,30,31)

> <PUBCHEM_IUPAC_INCHIKEY>
WINFHLHJTRGLCV-UHFFFAOYSA-N

> <PUBCHEM_XLOGP3>
-4.5

> <PUBCHEM_EXACT_MASS>
437.263819

> <PUBCHEM_MOLECULAR_FORMULA>
C21H35N5O5

> <PUBCHEM_MOLECULAR_WEIGHT>
437.5331

> <PUBCHEM_OPENEYE_CAN_SMILES>
C1=CC(=CC=C1CC(C(=O)NC(CCCCN)C(=O)O)NC(=O)C(CCCCN)N)O

> <PUBCHEM_OPENEYE_ISO_SMILES>
C1=CC(=CC=C1CC(C(=O)NC(CCCCN)C(=O)O)NC(=O)C(CCCCN)N)O

> <PUBCHEM_CACTVS_TPSA>
194

> <PUBCHEM_MONOISOTOPIC_WEIGHT>
437.263819

> <PUBCHEM_TOTAL_CHARGE>
0

> <PUBCHEM_HEAVY_ATOM_COUNT>
31

> <PUBCHEM_ATOM_DEF_STEREO_COUNT>
0

> <PUBCHEM_ATOM_UDEF_STEREO_COUNT>
3

> <PUBCHEM_BOND_DEF_STEREO_COUNT>
0

> <PUBCHEM_BOND_UDEF_STEREO_COUNT>
0

> <PUBCHEM_ISOTOPIC_ATOM_COUNT>
0

> <PUBCHEM_COMPONENT_COUNT>
1

> <PUBCHEM_CACTVS_TAUTO_COUNT>
8

> <PUBCHEM_COORDINATE_TYPE>
1
5
255

> <PUBCHEM_BONDANNOTATIONS>
11  32  3
12  33  3
14  36  3
23  27  8
23  28  8
27  29  8
28  30  8
29  31  8
30  31  8

$$$$

