3814
  -OEChem-06251223413D

 53 60  0     1  0  0  0  0  0999 V2000
    1.4503   -1.6502    1.2664 O   0  0  0  0  0  0  0  0  0  0  0  0
    3.3222   -0.5716   -1.6066 O   0  0  0  0  0  0  0  0  0  0  0  0
    3.5864   -3.2362    0.7046 O   0  0  0  0  0  0  0  0  0  0  0  0
    5.0420   -2.3843   -0.8288 O   0  0  0  0  0  0  0  0  0  0  0  0
   -5.1022    1.2452   -0.0971 O   0  0  0  0  0  0  0  0  0  0  0  0
    1.4810    0.4867    0.2987 N   0  0  0  0  0  0  0  0  0  0  0  0
   -0.5093   -1.7250    0.1205 N   0  0  0  0  0  0  0  0  0  0  0  0
   -3.8932    3.2505   -0.1200 N   0  0  0  0  0  0  0  0  0  0  0  0
    2.3062   -0.6815    0.6367 C   0  0  2  0  0  0  0  0  0  0  0  0
    2.8236   -1.4320   -0.6041 C   0  0  1  0  0  0  0  0  0  0  0  0
    0.7811   -2.3441    0.2174 C   0  0  1  0  0  0  0  0  0  0  0  0
    1.6037   -2.2094   -1.0619 C   0  0  0  0  0  0  0  0  0  0  0  0
    0.1136    0.6500    0.1907 C   0  0  0  0  0  0  0  0  0  0  0  0
   -0.8438   -0.4041    0.1333 C   0  0  0  0  0  0  0  0  0  0  0  0
   -0.4617    1.9704    0.0852 C   0  0  0  0  0  0  0  0  0  0  0  0
   -2.2307   -0.0008    0.0457 C   0  0  0  0  0  0  0  0  0  0  0  0
    3.3660   -0.3748    1.7070 C   0  0  0  0  0  0  0  0  0  0  0  0
    1.9189    1.8097    0.1072 C   0  0  0  0  0  0  0  0  0  0  0  0
   -1.7471   -2.3456    0.0246 C   0  0  0  0  0  0  0  0  0  0  0  0
    0.8004    2.6984    0.0411 C   0  0  0  0  0  0  0  0  0  0  0  0
   -1.8021    2.3460    0.0224 C   0  0  0  0  0  0  0  0  0  0  0  0
   -2.7175    1.3025    0.0153 C   0  0  0  0  0  0  0  0  0  0  0  0
   -2.7860   -1.3624   -0.0093 C   0  0  0  0  0  0  0  0  0  0  0  0
    3.9495   -2.3797   -0.2812 C   0  0  0  0  0  0  0  0  0  0  0  0
   -2.5044    3.6596   -0.0718 C   0  0  0  0  0  0  0  0  0  0  0  0
    3.2251    2.3307   -0.0121 C   0  0  0  0  0  0  0  0  0  0  0  0
   -4.0600    1.8700   -0.0733 C   0  0  0  0  0  0  0  0  0  0  0  0
   -2.0440   -3.7215   -0.0378 C   0  0  0  0  0  0  0  0  0  0  0  0
    1.0494    4.0887   -0.0916 C   0  0  0  0  0  0  0  0  0  0  0  0
   -4.1197   -1.8347   -0.1032 C   0  0  0  0  0  0  0  0  0  0  0  0
    3.4247    3.7068   -0.1505 C   0  0  0  0  0  0  0  0  0  0  0  0
    2.3512    4.5790   -0.1805 C   0  0  0  0  0  0  0  0  0  0  0  0
   -3.3735   -4.1331   -0.1279 C   0  0  0  0  0  0  0  0  0  0  0  0
   -4.3997   -3.2033   -0.1591 C   0  0  0  0  0  0  0  0  0  0  0  0
    0.6648   -3.3874    0.5216 H   0  0  0  0  0  0  0  0  0  0  0  0
    1.8565   -3.1982   -1.4630 H   0  0  0  0  0  0  0  0  0  0  0  0
    1.0611   -1.6897   -1.8614 H   0  0  0  0  0  0  0  0  0  0  0  0
    3.6479   -1.2677    2.2764 H   0  0  0  0  0  0  0  0  0  0  0  0
    4.2822    0.0452    1.2861 H   0  0  0  0  0  0  0  0  0  0  0  0
    2.9775    0.3301    2.4524 H   0  0  0  0  0  0  0  0  0  0  0  0
    3.4341   -1.0898   -2.4221 H   0  0  0  0  0  0  0  0  0  0  0  0
   -2.3462    4.2814    0.8125 H   0  0  0  0  0  0  0  0  0  0  0  0
   -2.2612    4.1980   -0.9910 H   0  0  0  0  0  0  0  0  0  0  0  0
    4.0931    1.6811   -0.0187 H   0  0  0  0  0  0  0  0  0  0  0  0
   -1.2549   -4.4674   -0.0189 H   0  0  0  0  0  0  0  0  0  0  0  0
    0.2198    4.7897   -0.1407 H   0  0  0  0  0  0  0  0  0  0  0  0
   -4.9539   -1.1427   -0.1356 H   0  0  0  0  0  0  0  0  0  0  0  0
   -4.6677    3.9037   -0.1836 H   0  0  0  0  0  0  0  0  0  0  0  0
    4.4366    4.0934   -0.2388 H   0  0  0  0  0  0  0  0  0  0  0  0
    2.5201    5.6466   -0.2882 H   0  0  0  0  0  0  0  0  0  0  0  0
   -3.6042   -5.1940   -0.1754 H   0  0  0  0  0  0  0  0  0  0  0  0
    4.3069   -3.8625    0.9298 H   0  0  0  0  0  0  0  0  0  0  0  0
   -5.4311   -3.5375   -0.2307 H   0  0  0  0  0  0  0  0  0  0  0  0
  1  9  1  0  0  0  0
  1 11  1  0  0  0  0
  2 10  1  0  0  0  0
  2 41  1  0  0  0  0
  3 24  1  0  0  0  0
  3 52  1  0  0  0  0
  4 24  2  0  0  0  0
  5 27  2  0  0  0  0
  6  9  1  0  0  0  0
  6 13  1  0  0  0  0
  6 18  1  0  0  0  0
  7 11  1  0  0  0  0
  7 14  1  0  0  0  0
  7 19  1  0  0  0  0
  8 25  1  0  0  0  0
  8 27  1  0  0  0  0
  8 48  1  0  0  0  0
  9 10  1  0  0  0  0
  9 17  1  0  0  0  0
 10 12  1  0  0  0  0
 10 24  1  0  0  0  0
 11 12  1  0  0  0  0
 11 35  1  0  0  0  0
 12 36  1  0  0  0  0
 12 37  1  0  0  0  0
 13 14  2  0  0  0  0
 13 15  1  0  0  0  0
 14 16  1  0  0  0  0
 15 20  1  0  0  0  0
 15 21  2  0  0  0  0
 16 22  2  0  0  0  0
 16 23  1  0  0  0  0
 17 38  1  0  0  0  0
 17 39  1  0  0  0  0
 17 40  1  0  0  0  0
 18 20  1  0  0  0  0
 18 26  2  0  0  0  0
 19 23  1  0  0  0  0
 19 28  2  0  0  0  0
 20 29  2  0  0  0  0
 21 22  1  0  0  0  0
 21 25  1  0  0  0  0
 22 27  1  0  0  0  0
 23 30  2  0  0  0  0
 25 42  1  0  0  0  0
 25 43  1  0  0  0  0
 26 31  1  0  0  0  0
 26 44  1  0  0  0  0
 28 33  1  0  0  0  0
 28 45  1  0  0  0  0
 29 32  1  0  0  0  0
 29 46  1  0  0  0  0
 30 34  1  0  0  0  0
 30 47  1  0  0  0  0
 31 32  2  0  0  0  0
 31 49  1  0  0  0  0
 32 50  1  0  0  0  0
 33 34  2  0  0  0  0
 33 51  1  0  0  0  0
 34 53  1  0  0  0  0
M  END
> <PUBCHEM_COMPOUND_CID>
3814

> <PUBCHEM_CONFORMER_RMSD>
0.8

> <PUBCHEM_CONFORMER_DIVERSEORDER>
1
2

> <PUBCHEM_MMFF94_PARTIAL_CHARGES>
41
1 -0.56
10 0.34
11 0.54
13 -0.05
14 -0.05
15 -0.01
16 -0.01
18 -0.15
19 -0.15
2 -0.68
21 -0.14
22 0.09
24 0.66
25 0.44
26 -0.15
27 0.54
28 -0.15
29 -0.15
3 -0.65
30 -0.15
31 -0.15
32 -0.15
33 -0.15
34 -0.15
4 -0.57
41 0.4
44 0.15
45 0.15
46 0.15
47 0.15
48 0.37
49 0.15
5 -0.57
50 0.15
51 0.15
52 0.5
53 0.15
6 -0.04
7 -0.04
8 -0.73
9 0.54

> <PUBCHEM_EFFECTIVE_ROTOR_COUNT>
2

> <PUBCHEM_PHARMACOPHORE_FEATURES>
18
1 1 acceptor
1 2 acceptor
1 2 donor
1 3 acceptor
1 4 acceptor
1 5 acceptor
1 6 cation
1 7 cation
1 8 donor
3 3 4 24 anion
5 1 9 10 11 12 rings
5 6 13 15 18 20 rings
5 7 14 16 19 23 rings
5 8 21 22 25 27 rings
6 13 14 15 16 21 22 rings
6 18 20 26 29 31 32 rings
6 19 23 28 30 33 34 rings
7 1 6 7 9 11 13 14 rings

> <PUBCHEM_HEAVY_ATOM_COUNT>
34

> <PUBCHEM_ATOM_DEF_STEREO_COUNT>
0

> <PUBCHEM_ATOM_UDEF_STEREO_COUNT>
3

> <PUBCHEM_BOND_DEF_STEREO_COUNT>
0

> <PUBCHEM_BOND_UDEF_STEREO_COUNT>
0

> <PUBCHEM_ISOTOPIC_ATOM_COUNT>
0

> <PUBCHEM_COMPONENT_COUNT>
1

> <PUBCHEM_CACTVS_TAUTO_COUNT>
2

> <PUBCHEM_CONFORMER_ID>
00000EE600000001

> <PUBCHEM_MMFF94_ENERGY>
138.5401

> <PUBCHEM_FEATURE_SELFOVERLAP>
93.225

> <PUBCHEM_SHAPE_FINGERPRINT>
10616163 171 18194403290708609113
10675989 125 18270420303918336335
10967382 1 17978231887337271721
1100329 8 18338515356379995241
11513181 2 18115305557988294943
11578080 2 17386588868103254899
12553582 1 18051421952376504108
13140716 1 18410586075532258824
138480 1 18266176132551504494
13911987 19 17838056270624488701
14223421 5 18266177240710907237
14725015 67 17976542702707318904
14790565 3 17832978721664430944
14955137 171 17906424951922707185
15320467 1 18410573967992694055
15324884 4 17894915165545890558
15484559 13 17761794149265680085
15513586 35 16468200890340764832
15815584 197 17691668001362113718
15927050 60 18337666421623913461
16112460 7 18262504975560194609
16114785 44 16035851151341317450
16728300 4 17480347450256379896
17492 89 18338237063884789291
18681886 176 18194973056727481457
19319366 153 17558820930359199106
19591789 44 17833831955825174867
19930381 70 17978793402676553615
20028762 73 16603778103980711735
20600515 1 18193582148922608088
20642791 35 18338790096832460391
20691752 17 17346605148859365928
20775438 99 17833034569661738917
20905425 154 18263918839347761604
21033648 29 17899436438741911305
21133410 32 16412059797021270346
21421861 104 18269273461154547915
21796203 349 17835199649131601361
22113638 7 18195250137778581189
22311459 1 18338516469383634495
23558518 356 18271242721008515705
23559900 14 18335143106920185928
266924 87 18194686956292571429
283562 15 17832418705432019009
3178227 256 18122609807738433321
350125 39 18195248819165995312
3882209 13 17905370352478281943
4280585 95 18337954601582299030
484989 97 18413109481537276175
5309563 4 17546445579665869243
9709674 26 18409452462153880325

> <PUBCHEM_SHAPE_MULTIPOLES>
655.41
8.44
6.53
0.88
3.55
2.25
-0.06
-2.05
0.64
-1.04
0.52
-0.72
-0.46
0.06

> <PUBCHEM_SHAPE_SELFOVERLAP>
1543.434

> <PUBCHEM_SHAPE_VOLUME>
327.1

> <PUBCHEM_COORDINATE_TYPE>
2
5
10

$$$$

