14029
  -OEChem-06241222413D

 30 29  0     0  0  0  0  0  0999 V2000
   -0.3269   -0.5421    0.6144 P   0  0  0  0  0  0  0  0  0  0  0  0
    2.1778   -0.2760   -0.9415 P   0  0  0  0  0  0  0  0  0  0  0  0
   -1.6874   -1.3180    0.1995 O   0  0  0  0  0  0  0  0  0  0  0  0
   -0.7072    1.0230    0.4356 O   0  0  0  0  0  0  0  0  0  0  0  0
    0.6934   -0.8283   -0.6088 O   0  0  0  0  0  0  0  0  0  0  0  0
    0.1994   -0.9060    1.9738 O   0  0  0  0  0  0  0  0  0  0  0  0
    1.8263    1.3047   -1.0293 O   0  0  0  0  0  0  0  0  0  0  0  0
    2.7659   -0.2888    0.5701 O   0  0  0  0  0  0  0  0  0  0  0  0
   -2.2927   -1.0693   -1.0577 C   0  0  0  0  0  0  0  0  0  0  0  0
   -1.6979    1.5775    1.2837 C   0  0  0  0  0  0  0  0  0  0  0  0
   -3.5381   -1.9207   -1.1825 C   0  0  0  0  0  0  0  0  0  0  0  0
   -1.8831    3.0390    0.9357 C   0  0  0  0  0  0  0  0  0  0  0  0
    1.2620    1.7514   -2.2541 C   0  0  0  0  0  0  0  0  0  0  0  0
    3.2088   -1.5464    1.0612 C   0  0  0  0  0  0  0  0  0  0  0  0
   -2.5536   -0.0105   -1.1416 H   0  0  0  0  0  0  0  0  0  0  0  0
   -1.5878   -1.3210   -1.8559 H   0  0  0  0  0  0  0  0  0  0  0  0
   -2.6403    1.0372    1.1542 H   0  0  0  0  0  0  0  0  0  0  0  0
   -1.3758    1.4762    2.3248 H   0  0  0  0  0  0  0  0  0  0  0  0
   -4.0294   -1.7558   -2.1454 H   0  0  0  0  0  0  0  0  0  0  0  0
   -3.2901   -2.9832   -1.0895 H   0  0  0  0  0  0  0  0  0  0  0  0
   -4.2459   -1.6876   -0.3801 H   0  0  0  0  0  0  0  0  0  0  0  0
   -2.6397    3.5007    1.5762 H   0  0  0  0  0  0  0  0  0  0  0  0
   -0.9410    3.5851    1.0506 H   0  0  0  0  0  0  0  0  0  0  0  0
   -2.1892    3.1497   -0.1099 H   0  0  0  0  0  0  0  0  0  0  0  0
    1.0860    2.8284   -2.1718 H   0  0  0  0  0  0  0  0  0  0  0  0
    0.2985    1.2677   -2.4508 H   0  0  0  0  0  0  0  0  0  0  0  0
    1.9492    1.5844   -3.0913 H   0  0  0  0  0  0  0  0  0  0  0  0
    2.4172   -2.3033    1.0270 H   0  0  0  0  0  0  0  0  0  0  0  0
    3.5059   -1.4159    2.1062 H   0  0  0  0  0  0  0  0  0  0  0  0
    4.0846   -1.8947    0.5021 H   0  0  0  0  0  0  0  0  0  0  0  0
  1  3  1  0  0  0  0
  1  4  1  0  0  0  0
  1  5  1  0  0  0  0
  1  6  2  0  0  0  0
  2  5  1  0  0  0  0
  2  7  1  0  0  0  0
  2  8  1  0  0  0  0
  3  9  1  0  0  0  0
  4 10  1  0  0  0  0
  7 13  1  0  0  0  0
  8 14  1  0  0  0  0
  9 11  1  0  0  0  0
  9 15  1  0  0  0  0
  9 16  1  0  0  0  0
 10 12  1  0  0  0  0
 10 17  1  0  0  0  0
 10 18  1  0  0  0  0
 11 19  1  0  0  0  0
 11 20  1  0  0  0  0
 11 21  1  0  0  0  0
 12 22  1  0  0  0  0
 12 23  1  0  0  0  0
 12 24  1  0  0  0  0
 13 25  1  0  0  0  0
 13 26  1  0  0  0  0
 13 27  1  0  0  0  0
 14 28  1  0  0  0  0
 14 29  1  0  0  0  0
 14 30  1  0  0  0  0
M  END
> <PUBCHEM_COMPOUND_CID>
14029

> <PUBCHEM_CONFORMER_RMSD>
0.8

> <PUBCHEM_CONFORMER_DIVERSEORDER>
1
43
11
76
12
39
28
30
19
58
74
70
67
34
82
54
3
47
71
31
37
9
64
22
10
83
38
49
60
35
5
20
61
65
41
48
56
16
63
46
40
4
79
44
29
80
17
23
2
59
53
6
21
85
62
77
75
84
18
8
24
50
73
57
7
68
66
51
14
69
15
27
52
36
81
33
45
13
25
78
72
26
42
55
32

> <PUBCHEM_MMFF94_PARTIAL_CHARGES>
12
1 1.51
10 0.28
13 0.28
14 0.28
2 0.3
3 -0.55
4 -0.55
5 -0.37
6 -0.7
7 -0.38
8 -0.38
9 0.28

> <PUBCHEM_EFFECTIVE_ROTOR_COUNT>
8

> <PUBCHEM_PHARMACOPHORE_FEATURES>
1
1 6 acceptor

> <PUBCHEM_HEAVY_ATOM_COUNT>
14

> <PUBCHEM_ATOM_DEF_STEREO_COUNT>
0

> <PUBCHEM_ATOM_UDEF_STEREO_COUNT>
0

> <PUBCHEM_BOND_DEF_STEREO_COUNT>
0

> <PUBCHEM_BOND_UDEF_STEREO_COUNT>
0

> <PUBCHEM_ISOTOPIC_ATOM_COUNT>
0

> <PUBCHEM_COMPONENT_COUNT>
1

> <PUBCHEM_CACTVS_TAUTO_COUNT>
1

> <PUBCHEM_CONFORMER_ID>
000036CD00000001

> <PUBCHEM_MMFF94_ENERGY>
11.1076

> <PUBCHEM_FEATURE_SELFOVERLAP>
5.074

> <PUBCHEM_SHAPE_FINGERPRINT>
1 1 17106767857538916329
14004458 79 18113334206970406437
14817 1 7248760084032385969
15852999 172 17243578890633514974
17775402 16 17834942084422332749
20233049 118 18265358173731804543
20671657 53 17773900694830431190
20711985 344 17824516665565118029
21524375 3 17905878528919103409
21947302 44 17273706342558537958
23419403 2 17761260653586602972
23557571 272 17821445746626177539
23598291 2 18269827756907278998
3060560 45 17399784399216610629
4175511 376 17469331331313767213
6992083 37 18125723628097617678
81228 2 17968082128118801507

> <PUBCHEM_SHAPE_MULTIPOLES>
260.6
4.73
2.71
1.92
0.35
1.74
-0.46
-2.31
-0.34
-2.47
0.03
0.6
0.43
-2.27

> <PUBCHEM_SHAPE_SELFOVERLAP>
452.335

> <PUBCHEM_SHAPE_VOLUME>
173.3

> <PUBCHEM_COORDINATE_TYPE>
2
5
10

$$$$

