9560
  -OEChem-06261203493D

 27 26  0     0  0  0  0  0  0999 V2000
   -1.8614    0.0698   -0.4469 P   0  0  0  0  0  0  0  0  0  0  0  0
   -0.9883   -1.1540    0.1149 O   0  0  0  0  0  0  0  0  0  0  0  0
   -3.3768   -0.4092   -0.1320 O   0  0  0  0  0  0  0  0  0  0  0  0
   -1.6117    1.2456    0.6396 O   0  0  0  0  0  0  0  0  0  0  0  0
   -1.5972    0.4518   -1.8755 O   0  0  0  0  0  0  0  0  0  0  0  0
    2.9345    1.2950   -0.0467 O   0  0  0  0  0  0  0  0  0  0  0  0
    3.3271   -0.9645   -0.3108 O   0  0  0  0  0  0  0  0  0  0  0  0
    0.3909   -1.1198    0.1625 C   0  0  0  0  0  0  0  0  0  0  0  0
    1.0449   -2.3488    0.7160 C   0  0  0  0  0  0  0  0  0  0  0  0
    1.0956   -0.0582   -0.2588 C   0  0  0  0  0  0  0  0  0  0  0  0
   -4.4362    0.4992   -0.3769 C   0  0  0  0  0  0  0  0  0  0  0  0
   -1.8405    0.9581    2.0082 C   0  0  0  0  0  0  0  0  0  0  0  0
    2.5763   -0.0074   -0.2145 C   0  0  0  0  0  0  0  0  0  0  0  0
    4.3430    1.5424    0.0209 C   0  0  0  0  0  0  0  0  0  0  0  0
    0.3109   -2.9544    1.2597 H   0  0  0  0  0  0  0  0  0  0  0  0
    1.8370   -2.1090    1.4323 H   0  0  0  0  0  0  0  0  0  0  0  0
    1.4495   -2.9689   -0.0898 H   0  0  0  0  0  0  0  0  0  0  0  0
    0.6257    0.8436   -0.6321 H   0  0  0  0  0  0  0  0  0  0  0  0
   -4.3055    1.4075    0.2165 H   0  0  0  0  0  0  0  0  0  0  0  0
   -5.3785    0.0227   -0.0959 H   0  0  0  0  0  0  0  0  0  0  0  0
   -4.4679    0.7528   -1.4397 H   0  0  0  0  0  0  0  0  0  0  0  0
   -1.1183    0.2230    2.3708 H   0  0  0  0  0  0  0  0  0  0  0  0
   -2.8568    0.5911    2.1682 H   0  0  0  0  0  0  0  0  0  0  0  0
   -1.7115    1.8811    2.5795 H   0  0  0  0  0  0  0  0  0  0  0  0
    4.7791    1.0160    0.8752 H   0  0  0  0  0  0  0  0  0  0  0  0
    4.4934    2.6167    0.1563 H   0  0  0  0  0  0  0  0  0  0  0  0
    4.8264    1.2345   -0.9112 H   0  0  0  0  0  0  0  0  0  0  0  0
  1  2  1  0  0  0  0
  1  3  1  0  0  0  0
  1  4  1  0  0  0  0
  1  5  2  0  0  0  0
  2  8  1  0  0  0  0
  3 11  1  0  0  0  0
  4 12  1  0  0  0  0
  6 13  1  0  0  0  0
  6 14  1  0  0  0  0
  7 13  2  0  0  0  0
  8  9  1  0  0  0  0
  8 10  2  0  0  0  0
  9 15  1  0  0  0  0
  9 16  1  0  0  0  0
  9 17  1  0  0  0  0
 10 13  1  0  0  0  0
 10 18  1  0  0  0  0
 11 19  1  0  0  0  0
 11 20  1  0  0  0  0
 11 21  1  0  0  0  0
 12 22  1  0  0  0  0
 12 23  1  0  0  0  0
 12 24  1  0  0  0  0
 14 25  1  0  0  0  0
 14 26  1  0  0  0  0
 14 27  1  0  0  0  0
M  END
> <PUBCHEM_COMPOUND_CID>
9560

> <PUBCHEM_CONFORMER_RMSD>
0.6

> <PUBCHEM_CONFORMER_DIVERSEORDER>
17
46
71
42
57
60
116
81
36
143
38
32
56
39
141
112
28
137
105
44
136
9
80
120
138
126
61
23
139
14
41
8
21
88
114
102
53
82
5
124
10
115
106
107
134
4
63
122
54
97
47
78
22
33
144
87
7
65
95
58
132
135
89
59
94
93
2
117
37
79
51
77
128
129
83
140
72
35
25
84
74
15
133
100
29
64
110
18
20
131
73
13
99
6
19
75
24
11
127
1
92
96
98
34
50
119
12
113
90
67
101
68
104
109
49
108
66
85
40
62
3
45
70
125
76
55
86
26
16
121
31
111
130
43
91
69
103
118
142
52
27
48
30
123

> <PUBCHEM_MMFF94_PARTIAL_CHARGES>
15
1 1.51
10 -0.14
11 0.28
12 0.28
13 0.71
14 0.28
18 0.15
2 -0.35
3 -0.55
4 -0.55
5 -0.7
6 -0.43
7 -0.57
8 -0.06
9 0.14

> <PUBCHEM_EFFECTIVE_ROTOR_COUNT>
6

> <PUBCHEM_PHARMACOPHORE_FEATURES>
2
1 5 acceptor
1 7 acceptor

> <PUBCHEM_HEAVY_ATOM_COUNT>
14

> <PUBCHEM_ATOM_DEF_STEREO_COUNT>
0

> <PUBCHEM_ATOM_UDEF_STEREO_COUNT>
0

> <PUBCHEM_BOND_DEF_STEREO_COUNT>
0

> <PUBCHEM_BOND_UDEF_STEREO_COUNT>
1

> <PUBCHEM_ISOTOPIC_ATOM_COUNT>
0

> <PUBCHEM_COMPONENT_COUNT>
1

> <PUBCHEM_CACTVS_TAUTO_COUNT>
1

> <PUBCHEM_CONFORMER_ID>
0000255800000011

> <PUBCHEM_MMFF94_ENERGY>
27.9906

> <PUBCHEM_FEATURE_SELFOVERLAP>
10.149

> <PUBCHEM_SHAPE_FINGERPRINT>
11132069 177 17846778481777155583
12162725 195 18040710394392614504
12251169 10 12895078405397545960
13294875 104 14901468554860083679
13581323 91 12823290204609038871
14123260 362 18263628598844381748
15048467 5 18411703206002093133
15207287 21 16630529514178654091
15342168 16 18200869557172588428
15775835 57 18272654519555123662
170605 34 18408884053102119910
18186145 218 18410004455851483982
19422 9 17749381624158825387
20300324 65 17385720266570149800
20653085 51 17604968460116240282
20711983 171 17023171777682935297
20871999 31 17386301882931260735
21028194 46 18131633400181423822
21524375 3 18409448068618835202
228727 97 17967252009466068257
22926399 37 18334576819708785753
22959321 54 18334293150072300312
23236772 104 18113891671960343257
23402539 116 18041007202249565428
23402655 69 18187083961750293972
23557571 272 17898000236116851478
23598291 2 17823963740133963416
25610 137 18335417959268212435
81228 2 17626368044675305138

> <PUBCHEM_SHAPE_MULTIPOLES>
256.75
7.13
1.74
1.22
0.78
0.66
-0.27
-3.18
0.88
1.3
-0.47
-0.98
-0.33
-0.28

> <PUBCHEM_SHAPE_SELFOVERLAP>
477.298

> <PUBCHEM_SHAPE_VOLUME>
162.3

> <PUBCHEM_COORDINATE_TYPE>
2
5
10

$$$$

