47205803
  -OEChem-06241223003D

 36 37  0     0  0  0  0  0  0999 V2000
   -0.5059   -0.8600    0.7093 O   0  0  0  0  0  0  0  0  0  0  0  0
   -3.0124    0.4933   -1.3576 O   0  0  0  0  0  0  0  0  0  0  0  0
    1.1865    0.6643    0.2004 N   0  0  0  0  0  0  0  0  0  0  0  0
   -2.3627    0.8215    0.8491 N   0  0  0  0  0  0  0  0  0  0  0  0
    1.6526    2.0450   -0.0470 C   0  0  0  0  0  0  0  0  0  0  0  0
    3.1541    1.9846   -0.3479 C   0  0  0  0  0  0  0  0  0  0  0  0
    3.4396    0.5229   -0.2363 C   0  0  0  0  0  0  0  0  0  0  0  0
    2.2902   -0.2053    0.0779 C   0  0  0  0  0  0  0  0  0  0  0  0
   -0.1154    0.2892    0.5028 C   0  0  0  0  0  0  0  0  0  0  0  0
    4.6644   -0.1033   -0.4113 C   0  0  0  0  0  0  0  0  0  0  0  0
    2.3457   -1.5837    0.2241 C   0  0  0  0  0  0  0  0  0  0  0  0
   -1.1038    1.4294    0.5724 C   0  0  0  0  0  0  0  0  0  0  0  0
    4.7288   -1.4888   -0.2658 C   0  0  0  0  0  0  0  0  0  0  0  0
    3.5772   -2.2231    0.0499 C   0  0  0  0  0  0  0  0  0  0  0  0
   -4.5047   -0.2199    0.4104 C   0  0  0  0  0  0  0  0  0  0  0  0
   -3.2356    0.3926   -0.1541 C   0  0  0  0  0  0  0  0  0  0  0  0
   -5.4610   -0.6898   -0.6819 C   0  0  0  0  0  0  0  0  0  0  0  0
   -6.7375   -1.2688   -0.0943 C   0  0  0  0  0  0  0  0  0  0  0  0
    1.0935    2.4662   -0.8899 H   0  0  0  0  0  0  0  0  0  0  0  0
    1.4443    2.6555    0.8387 H   0  0  0  0  0  0  0  0  0  0  0  0
    3.3695    2.3557   -1.3547 H   0  0  0  0  0  0  0  0  0  0  0  0
    3.7267    2.5597    0.3863 H   0  0  0  0  0  0  0  0  0  0  0  0
    5.5548    0.4663   -0.6560 H   0  0  0  0  0  0  0  0  0  0  0  0
    1.4767   -2.1825    0.4673 H   0  0  0  0  0  0  0  0  0  0  0  0
   -1.1421    1.9691   -0.3772 H   0  0  0  0  0  0  0  0  0  0  0  0
   -0.8541    2.1027    1.3961 H   0  0  0  0  0  0  0  0  0  0  0  0
    5.6764   -2.0034   -0.3977 H   0  0  0  0  0  0  0  0  0  0  0  0
    3.6432   -3.3024    0.1600 H   0  0  0  0  0  0  0  0  0  0  0  0
   -2.6247    0.6832    1.8211 H   0  0  0  0  0  0  0  0  0  0  0  0
   -4.9944    0.5323    1.0404 H   0  0  0  0  0  0  0  0  0  0  0  0
   -4.2222   -1.0640    1.0508 H   0  0  0  0  0  0  0  0  0  0  0  0
   -5.7159    0.1478   -1.3422 H   0  0  0  0  0  0  0  0  0  0  0  0
   -4.9721   -1.4476   -1.3057 H   0  0  0  0  0  0  0  0  0  0  0  0
   -6.5194   -2.1304    0.5448 H   0  0  0  0  0  0  0  0  0  0  0  0
   -7.4070   -1.6001   -0.8943 H   0  0  0  0  0  0  0  0  0  0  0  0
   -7.2679   -0.5217    0.5048 H   0  0  0  0  0  0  0  0  0  0  0  0
  1  9  2  0  0  0  0
  2 16  2  0  0  0  0
  3  5  1  0  0  0  0
  3  8  1  0  0  0  0
  3  9  1  0  0  0  0
  4 12  1  0  0  0  0
  4 16  1  0  0  0  0
  4 29  1  0  0  0  0
  5  6  1  0  0  0  0
  5 19  1  0  0  0  0
  5 20  1  0  0  0  0
  6  7  1  0  0  0  0
  6 21  1  0  0  0  0
  6 22  1  0  0  0  0
  7  8  1  0  0  0  0
  7 10  2  0  0  0  0
  8 11  2  0  0  0  0
  9 12  1  0  0  0  0
 10 13  1  0  0  0  0
 10 23  1  0  0  0  0
 11 14  1  0  0  0  0
 11 24  1  0  0  0  0
 12 25  1  0  0  0  0
 12 26  1  0  0  0  0
 13 14  2  0  0  0  0
 13 27  1  0  0  0  0
 14 28  1  0  0  0  0
 15 16  1  0  0  0  0
 15 17  1  0  0  0  0
 15 30  1  0  0  0  0
 15 31  1  0  0  0  0
 17 18  1  0  0  0  0
 17 32  1  0  0  0  0
 17 33  1  0  0  0  0
 18 34  1  0  0  0  0
 18 35  1  0  0  0  0
 18 36  1  0  0  0  0
M  END
> <PUBCHEM_COMPOUND_CID>
47205803

> <PUBCHEM_CONFORMER_RMSD>
0.8

> <PUBCHEM_CONFORMER_DIVERSEORDER>
1
89
44
24
64
75
30
90
107
21
31
69
88
32
104
74
109
99
39
70
13
63
18
41
97
101
85
108
67
46
83
79
27
80
23
81
76
20
98
42
68
14
102
62
65
71
34
2
100
47
82
28
25
36
50
6
43
87
59
16
29
37
91
8
26
40
56
15
57
3
86
9
51
4
72
35
58
103
17
11
60
92
54
33
49
48
45
55
10
19
105
84
78
22
73
5
52
77
106
94
93
61
66
12
38
7
53
96
95

> <PUBCHEM_MMFF94_PARTIAL_CHARGES>
21
1 -0.57
10 -0.15
11 -0.15
12 0.36
13 -0.15
14 -0.15
15 0.06
16 0.57
2 -0.57
23 0.15
24 0.15
27 0.15
28 0.15
29 0.37
3 -0.48
4 -0.73
5 0.3
6 0.14
7 -0.14
8 0.12
9 0.57

> <PUBCHEM_EFFECTIVE_ROTOR_COUNT>
6.6

> <PUBCHEM_PHARMACOPHORE_FEATURES>
6
1 1 acceptor
1 18 hydrophobe
1 2 acceptor
1 4 donor
5 3 5 6 7 8 rings
6 7 8 10 11 13 14 rings

> <PUBCHEM_HEAVY_ATOM_COUNT>
18

> <PUBCHEM_ATOM_DEF_STEREO_COUNT>
0

> <PUBCHEM_ATOM_UDEF_STEREO_COUNT>
0

> <PUBCHEM_BOND_DEF_STEREO_COUNT>
0

> <PUBCHEM_BOND_UDEF_STEREO_COUNT>
0

> <PUBCHEM_ISOTOPIC_ATOM_COUNT>
0

> <PUBCHEM_COMPONENT_COUNT>
1

> <PUBCHEM_CACTVS_TAUTO_COUNT>
2

> <PUBCHEM_CONFORMER_ID>
02D04DAB00000001

> <PUBCHEM_MMFF94_ENERGY>
44.565

> <PUBCHEM_FEATURE_SELFOVERLAP>
30.531

> <PUBCHEM_SHAPE_FINGERPRINT>
11089746 13 12535622747950715350
11471102 20 18342734131356980304
11806522 49 18410008879652046000
12236239 1 17967529090485708041
12730499 353 18269548343203581984
13167823 11 18334295379249809191
13533116 47 18261391118008335457
13675066 3 6194844782843663897
13690532 89 18409447015913809472
13836976 161 18411132516095390654
13862211 1 18340767165401157386
13955234 65 18189621544488165064
1420 369 18113616815428041199
14251717 144 18412260666628308530
14350574 20 18342174466610389863
14576447 43 18409165536990401470
14863182 85 16805316721625558910
15048467 5 10735875062572122286
15188451 53 14779845806641593853
15477762 27 18410854386866496144
17492 89 18116710909726031694
17844677 252 18411414017026858861
18186145 218 17917993909890283577
200 152 18333450958435432977
20028762 73 18259705618154815902
20369508 70 18334297561230631544
20645477 70 18411417323761000774
21267235 1 18334006220655961222
212847 35 11600009838386092183
221357 26 18272093811812332765
221490 88 18270109115624428146
22950370 63 18260266318361875395
23402539 116 18334575797285029753
23503953 91 13840274654288866537
23557571 272 17489875938228743693
23559900 14 18270399382325334201
23596394 208 17917721226848628271
2838139 119 8861848732158182707
2871803 45 18202283619135117603
29717793 49 18259985989846254805
3004659 81 18413673513031230083
314194 84 18187928335868824939
351380 3 17967535662366004247
42630746 31 18336266756707485064
46194498 28 17846779576772433100
465052 167 18186516592539340879
5104073 3 18114464556004296233
5281201 14 18059856185697967573
602551 16 15430331199699589228
6025842 7 18339921503029807972
76465 3 18267869556915805778

> <PUBCHEM_SHAPE_MULTIPOLES>
348.73
13.06
2.02
0.83
18.69
0.02
-0.07
6.37
-2.37
-2.1
0.01
0.44
-0.06
-0.34

> <PUBCHEM_SHAPE_SELFOVERLAP>
726.864

> <PUBCHEM_SHAPE_VOLUME>
199

> <PUBCHEM_COORDINATE_TYPE>
2
5
10

$$$$

