13754
  -OEChem-06241222403D

 40 40  0     0  0  0  0  0  0999 V2000
   -1.8894    0.3621    0.5476 P   0  0  0  0  0  0  0  0  0  0  0  0
   -1.0077   -0.8801    0.0094 O   0  0  0  0  0  0  0  0  0  0  0  0
   -3.4189   -0.0731    0.2342 O   0  0  0  0  0  0  0  0  0  0  0  0
   -1.5854    1.5349   -0.5305 O   0  0  0  0  0  0  0  0  0  0  0  0
   -1.6157    0.7669    1.9687 O   0  0  0  0  0  0  0  0  0  0  0  0
    1.0125    0.2059    0.3513 N   0  0  0  0  0  0  0  0  0  0  0  0
    3.0865   -0.8976   -0.1855 N   0  0  0  0  0  0  0  0  0  0  0  0
    3.1114    1.3442    0.7111 C   0  0  0  0  0  0  0  0  0  0  0  0
    2.3547    0.1400    0.2634 C   0  0  0  0  0  0  0  0  0  0  0  0
    2.8944    1.6550    2.2044 C   0  0  0  0  0  0  0  0  0  0  0  0
    2.7880    2.5911   -0.1339 C   0  0  0  0  0  0  0  0  0  0  0  0
    0.3589   -0.9003   -0.0619 C   0  0  0  0  0  0  0  0  0  0  0  0
    2.3702   -1.9700   -0.5823 C   0  0  0  0  0  0  0  0  0  0  0  0
    0.9922   -2.0286   -0.5431 C   0  0  0  0  0  0  0  0  0  0  0  0
    3.1419   -3.1428   -1.0870 C   0  0  0  0  0  0  0  0  0  0  0  0
   -3.9667   -1.1705    0.9437 C   0  0  0  0  0  0  0  0  0  0  0  0
   -1.7964    1.3006   -1.9125 C   0  0  0  0  0  0  0  0  0  0  0  0
   -5.3937   -1.3895    0.4881 C   0  0  0  0  0  0  0  0  0  0  0  0
   -1.4367    2.5517   -2.6853 C   0  0  0  0  0  0  0  0  0  0  0  0
    4.1834    1.1425    0.5816 H   0  0  0  0  0  0  0  0  0  0  0  0
    1.8495    1.9104    2.4131 H   0  0  0  0  0  0  0  0  0  0  0  0
    3.5190    2.4975    2.5196 H   0  0  0  0  0  0  0  0  0  0  0  0
    3.1565    0.7890    2.8223 H   0  0  0  0  0  0  0  0  0  0  0  0
    2.9743    2.3981   -1.1962 H   0  0  0  0  0  0  0  0  0  0  0  0
    3.4112    3.4384    0.1710 H   0  0  0  0  0  0  0  0  0  0  0  0
    1.7381    2.8863   -0.0278 H   0  0  0  0  0  0  0  0  0  0  0  0
    0.4390   -2.9013   -0.8674 H   0  0  0  0  0  0  0  0  0  0  0  0
    2.8670   -3.3620   -2.1236 H   0  0  0  0  0  0  0  0  0  0  0  0
    4.2190   -2.9473   -1.0577 H   0  0  0  0  0  0  0  0  0  0  0  0
    2.9422   -4.0244   -0.4696 H   0  0  0  0  0  0  0  0  0  0  0  0
   -3.3670   -2.0648    0.7484 H   0  0  0  0  0  0  0  0  0  0  0  0
   -3.9404   -0.9551    2.0164 H   0  0  0  0  0  0  0  0  0  0  0  0
   -1.1742    0.4658   -2.2471 H   0  0  0  0  0  0  0  0  0  0  0  0
   -2.8471    1.0467   -2.0820 H   0  0  0  0  0  0  0  0  0  0  0  0
   -5.8481   -2.2315    1.0177 H   0  0  0  0  0  0  0  0  0  0  0  0
   -5.9970   -0.4930    0.6655 H   0  0  0  0  0  0  0  0  0  0  0  0
   -5.4284   -1.5883   -0.5882 H   0  0  0  0  0  0  0  0  0  0  0  0
   -1.5901    2.4062   -3.7582 H   0  0  0  0  0  0  0  0  0  0  0  0
   -2.0452    3.3990   -2.3526 H   0  0  0  0  0  0  0  0  0  0  0  0
   -0.3902    2.8236   -2.5113 H   0  0  0  0  0  0  0  0  0  0  0  0
  1  2  1  0  0  0  0
  1  3  1  0  0  0  0
  1  4  1  0  0  0  0
  1  5  2  0  0  0  0
  2 12  1  0  0  0  0
  3 16  1  0  0  0  0
  4 17  1  0  0  0  0
  6  9  1  0  0  0  0
  6 12  2  0  0  0  0
  7  9  2  0  0  0  0
  7 13  1  0  0  0  0
  8  9  1  0  0  0  0
  8 10  1  0  0  0  0
  8 11  1  0  0  0  0
  8 20  1  0  0  0  0
 10 21  1  0  0  0  0
 10 22  1  0  0  0  0
 10 23  1  0  0  0  0
 11 24  1  0  0  0  0
 11 25  1  0  0  0  0
 11 26  1  0  0  0  0
 12 14  1  0  0  0  0
 13 14  2  0  0  0  0
 13 15  1  0  0  0  0
 14 27  1  0  0  0  0
 15 28  1  0  0  0  0
 15 29  1  0  0  0  0
 15 30  1  0  0  0  0
 16 18  1  0  0  0  0
 16 31  1  0  0  0  0
 16 32  1  0  0  0  0
 17 19  1  0  0  0  0
 17 33  1  0  0  0  0
 17 34  1  0  0  0  0
 18 35  1  0  0  0  0
 18 36  1  0  0  0  0
 18 37  1  0  0  0  0
 19 38  1  0  0  0  0
 19 39  1  0  0  0  0
 19 40  1  0  0  0  0
M  END
> <PUBCHEM_COMPOUND_CID>
13754

> <PUBCHEM_CONFORMER_RMSD>
0.8

> <PUBCHEM_CONFORMER_DIVERSEORDER>
1
121
130
116
4
50
69
12
6
20
58
36
47
92
115
7
108
70
139
34
40
112
38
99
140
19
3
41
126
97
51
22
89
55
107
23
2
15
74
78
106
84
16
135
27
67
30
82
37
72
33
138
44
80
111
43
83
63
18
48
32
28
110
35
141
96
93
134
64
54
91
11
9
98
118
132
46
87
73
77
57
88
60
24
17
21
31
119
137
71
65
75
142
113
26
122
39
94
10
14
129
56
103
95
59
49
101
8
85
86
42
128
123
29
120
81
62
68
13
61
90
76
114
100
45
105
136
125
102
66
53
131
52
133
79
104
25
5
109
117
127
124

> <PUBCHEM_MMFF94_PARTIAL_CHARGES>
16
1 1.51
12 0.39
13 0.17
14 -0.15
15 0.14
16 0.28
17 0.28
2 -0.35
27 0.15
3 -0.55
4 -0.55
5 -0.7
6 -0.62
7 -0.62
8 0.14
9 0.48

> <PUBCHEM_EFFECTIVE_ROTOR_COUNT>
7

> <PUBCHEM_PHARMACOPHORE_FEATURES>
4
1 5 acceptor
3 6 7 9 cation
3 8 10 11 hydrophobe
6 6 7 9 12 13 14 rings

> <PUBCHEM_HEAVY_ATOM_COUNT>
19

> <PUBCHEM_ATOM_DEF_STEREO_COUNT>
0

> <PUBCHEM_ATOM_UDEF_STEREO_COUNT>
0

> <PUBCHEM_BOND_DEF_STEREO_COUNT>
0

> <PUBCHEM_BOND_UDEF_STEREO_COUNT>
0

> <PUBCHEM_ISOTOPIC_ATOM_COUNT>
0

> <PUBCHEM_COMPONENT_COUNT>
1

> <PUBCHEM_CACTVS_TAUTO_COUNT>
3

> <PUBCHEM_CONFORMER_ID>
000035BA00000001

> <PUBCHEM_MMFF94_ENERGY>
24.3077

> <PUBCHEM_FEATURE_SELFOVERLAP>
20.297

> <PUBCHEM_SHAPE_FINGERPRINT>
10165383 225 18191015704237395920
12403259 226 18270115850106988662
13294875 104 16838283567375723504
20600515 1 16773516560417138301
21041028 32 17677888131489518896
21524375 3 18264215703846557906
21639500 275 18041579012905192780
22182313 1 18340501052641080988
229495 10 18261405437724699677
23557571 272 18059859476117396845
23559900 14 18410853304381984331
2748010 2 18268162005301803796
31174 14 18333447659768635250
3286 77 18261381303987016875
350125 39 18262516975556264250
45790113 50 17822565092555318819
458136 41 18189327992326628890
6049 1 18341053037511327540
621550 34 18339647750018894093
621550 5 17981573229858971718
6442390 28 17827075108959177866
6913067 236 18196676028635380055
6992083 37 16446453864439270380
7364860 26 18040712580737034378
81228 2 17560510824439600365

> <PUBCHEM_SHAPE_MULTIPOLES>
361.42
7.6
3.15
1.89
7.5
0.41
-0.46
2.44
2.23
-2.54
-1.65
0.37
-1.55
2.78

> <PUBCHEM_SHAPE_SELFOVERLAP>
701.706

> <PUBCHEM_SHAPE_VOLUME>
221.5

> <PUBCHEM_COORDINATE_TYPE>
2
5
10

$$$$

