13491
  -OEChem-06261214452D

 62 63  0     0  0  0  0  0  0999 V2000
    5.0430    0.0000    0.0000 Cl  0  5  0  0  0  0  0  0  0  0  0  0
    1.4030   10.6811    0.0000 O   0  0  0  0  0  0  0  0  0  0  0  0
    1.4030    8.6811    0.0000 O   0  0  0  0  0  0  0  0  0  0  0  0
    6.5807    4.6266    0.0000 O   0  0  0  0  0  0  0  0  0  0  0  0
    8.3242    5.6065    0.0000 O   0  0  0  0  0  0  0  0  0  0  0  0
    5.8010    9.1602    0.0000 N   0  3  0  0  0  0  0  0  0  0  0  0
    4.8950   10.7157    0.0000 C   0  0  0  0  0  0  0  0  0  0  0  0
    4.0010   10.1811    0.0000 C   0  0  0  0  0  0  0  0  0  0  0  0
    4.0010    9.1811    0.0000 C   0  0  0  0  0  0  0  0  0  0  0  0
    4.8950    8.6464    0.0000 C   0  0  0  0  0  0  0  0  0  0  0  0
    5.8010   10.2019    0.0000 C   0  0  0  0  0  0  0  0  0  0  0  0
    4.8834    7.6465    0.0000 C   0  0  0  0  0  0  0  0  0  0  0  0
    3.1350   10.6811    0.0000 C   0  0  0  0  0  0  0  0  0  0  0  0
    3.1350    8.6811    0.0000 C   0  0  0  0  0  0  0  0  0  0  0  0
    5.7436    7.1365    0.0000 C   0  0  0  0  0  0  0  0  0  0  0  0
    2.2690   10.1811    0.0000 C   0  0  0  0  0  0  0  0  0  0  0  0
    2.2690    9.1811    0.0000 C   0  0  0  0  0  0  0  0  0  0  0  0
    5.7320    6.1365    0.0000 C   0  0  0  0  0  0  0  0  0  0  0  0
    6.6154    7.6264    0.0000 C   0  0  0  0  0  0  0  0  0  0  0  0
    6.5922    5.6266    0.0000 C   0  0  0  0  0  0  0  0  0  0  0  0
    7.4755    7.1164    0.0000 C   0  0  0  0  0  0  0  0  0  0  0  0
    7.4640    6.1165    0.0000 C   0  0  0  0  0  0  0  0  0  0  0  0
    1.4030    7.6810    0.0000 C   0  0  0  0  0  0  0  0  0  0  0  0
    1.4030   11.6811    0.0000 C   0  0  0  0  0  0  0  0  0  0  0  0
    0.5369    7.1810    0.0000 C   0  0  0  0  0  0  0  0  0  0  0  0
    0.5369   12.1811    0.0000 C   0  0  0  0  0  0  0  0  0  0  0  0
    5.7089    4.1367    0.0000 C   0  0  0  0  0  0  0  0  0  0  0  0
    9.1959    6.0965    0.0000 C   0  0  0  0  0  0  0  0  0  0  0  0
    5.6974    3.1367    0.0000 C   0  0  0  0  0  0  0  0  0  0  0  0
   10.0561    5.5865    0.0000 C   0  0  0  0  0  0  0  0  0  0  0  0
    5.2886   11.1947    0.0000 H   0  0  0  0  0  0  0  0  0  0  0  0
    4.4904   11.1855    0.0000 H   0  0  0  0  0  0  0  0  0  0  0  0
    6.4119   10.0958    0.0000 H   0  0  0  0  0  0  0  0  0  0  0  0
    6.0101   10.7856    0.0000 H   0  0  0  0  0  0  0  0  0  0  0  0
    6.3368    8.8482    0.0000 H   0  0  0  0  0  0  0  0  0  0  0  0
    4.2741    7.7612    0.0000 H   0  0  0  0  0  0  0  0  0  0  0  0
    4.6646    7.0663    0.0000 H   0  0  0  0  0  0  0  0  0  0  0  0
    3.1350   11.3011    0.0000 H   0  0  0  0  0  0  0  0  0  0  0  0
    3.1350    8.0610    0.0000 H   0  0  0  0  0  0  0  0  0  0  0  0
    5.1916    5.8328    0.0000 H   0  0  0  0  0  0  0  0  0  0  0  0
    6.6225    8.2464    0.0000 H   0  0  0  0  0  0  0  0  0  0  0  0
    8.0160    7.4202    0.0000 H   0  0  0  0  0  0  0  0  0  0  0  0
    1.6150    7.0984    0.0000 H   0  0  0  0  0  0  0  0  0  0  0  0
    2.0135    7.7887    0.0000 H   0  0  0  0  0  0  0  0  0  0  0  0
    2.0135   11.5734    0.0000 H   0  0  0  0  0  0  0  0  0  0  0  0
    1.6150   12.2637    0.0000 H   0  0  0  0  0  0  0  0  0  0  0  0
    0.2269    7.7180    0.0000 H   0  0  0  0  0  0  0  0  0  0  0  0
    0.0000    6.8710    0.0000 H   0  0  0  0  0  0  0  0  0  0  0  0
    0.8469    6.6441    0.0000 H   0  0  0  0  0  0  0  0  0  0  0  0
    0.8469   12.7180    0.0000 H   0  0  0  0  0  0  0  0  0  0  0  0
    0.0000   12.4911    0.0000 H   0  0  0  0  0  0  0  0  0  0  0  0
    0.2269   11.6441    0.0000 H   0  0  0  0  0  0  0  0  0  0  0  0
    5.5036    4.7217    0.0000 H   0  0  0  0  0  0  0  0  0  0  0  0
    5.0971    4.0361    0.0000 H   0  0  0  0  0  0  0  0  0  0  0  0
    9.5999    6.5668    0.0000 H   0  0  0  0  0  0  0  0  0  0  0  0
    8.8029    6.5760    0.0000 H   0  0  0  0  0  0  0  0  0  0  0  0
    5.0774    3.1439    0.0000 H   0  0  0  0  0  0  0  0  0  0  0  0
    5.6902    2.5168    0.0000 H   0  0  0  0  0  0  0  0  0  0  0  0
    6.3173    3.1296    0.0000 H   0  0  0  0  0  0  0  0  0  0  0  0
    9.7399    5.0532    0.0000 H   0  0  0  0  0  0  0  0  0  0  0  0
   10.5894    5.2703    0.0000 H   0  0  0  0  0  0  0  0  0  0  0  0
   10.3723    6.1198    0.0000 H   0  0  0  0  0  0  0  0  0  0  0  0
  2 16  1  0  0  0  0
  2 24  1  0  0  0  0
  3 17  1  0  0  0  0
  3 23  1  0  0  0  0
  4 20  1  0  0  0  0
  4 27  1  0  0  0  0
  5 22  1  0  0  0  0
  5 28  1  0  0  0  0
  6 10  2  0  0  0  0
  6 11  1  0  0  0  0
  6 35  1  0  0  0  0
  7  8  1  0  0  0  0
  7 11  1  0  0  0  0
  7 31  1  0  0  0  0
  7 32  1  0  0  0  0
  8  9  1  0  0  0  0
  8 13  2  0  0  0  0
  9 10  1  0  0  0  0
  9 14  2  0  0  0  0
 10 12  1  0  0  0  0
 11 33  1  0  0  0  0
 11 34  1  0  0  0  0
 12 15  1  0  0  0  0
 12 36  1  0  0  0  0
 12 37  1  0  0  0  0
 13 16  1  0  0  0  0
 13 38  1  0  0  0  0
 14 17  1  0  0  0  0
 14 39  1  0  0  0  0
 15 18  2  0  0  0  0
 15 19  1  0  0  0  0
 16 17  2  0  0  0  0
 18 20  1  0  0  0  0
 18 40  1  0  0  0  0
 19 21  2  0  0  0  0
 19 41  1  0  0  0  0
 20 22  2  0  0  0  0
 21 22  1  0  0  0  0
 21 42  1  0  0  0  0
 23 25  1  0  0  0  0
 23 43  1  0  0  0  0
 23 44  1  0  0  0  0
 24 26  1  0  0  0  0
 24 45  1  0  0  0  0
 24 46  1  0  0  0  0
 25 47  1  0  0  0  0
 25 48  1  0  0  0  0
 25 49  1  0  0  0  0
 26 50  1  0  0  0  0
 26 51  1  0  0  0  0
 26 52  1  0  0  0  0
 27 29  1  0  0  0  0
 27 53  1  0  0  0  0
 27 54  1  0  0  0  0
 28 30  1  0  0  0  0
 28 55  1  0  0  0  0
 28 56  1  0  0  0  0
 29 57  1  0  0  0  0
 29 58  1  0  0  0  0
 29 59  1  0  0  0  0
 30 60  1  0  0  0  0
 30 61  1  0  0  0  0
 30 62  1  0  0  0  0
M  CHG  2   1  -1   6   1
M  END
> <PUBCHEM_COMPOUND_CID>
13491

> <PUBCHEM_COMPOUND_CANONICALIZED>
1

> <PUBCHEM_CACTVS_COMPLEXITY>
511

> <PUBCHEM_CACTVS_HBOND_ACCEPTOR>
5

> <PUBCHEM_CACTVS_HBOND_DONOR>
1

> <PUBCHEM_CACTVS_ROTATABLE_BOND>
10

> <PUBCHEM_CACTVS_SUBSKEYS>
AAADcfB6OAAEAAAAAAAAAAAAAAAAAAAAAAAwYIAAAAAAAACBQAAAHgAQAAAADAzhmAYyBoLABACgAyBiBAACCAAgIAAIiIA2iJgNJqKEsRuCOCKk0BEKqAeQ0PAOoAABAAAQQABAAAIAACCAAAAAAAAAAA==

> <PUBCHEM_IUPAC_OPENEYE_NAME>
1-[(3,4-diethoxyphenyl)methyl]-6,7-diethoxy-3,4-dihydroisoquinolin-2-ium chloride

> <PUBCHEM_IUPAC_CAS_NAME>
1-[(3,4-diethoxyphenyl)methyl]-6,7-diethoxy-3,4-dihydroisoquinolin-2-ium chloride

> <PUBCHEM_IUPAC_NAME>
1-[(3,4-diethoxyphenyl)methyl]-6,7-diethoxy-3,4-dihydroisoquinolin-2-ium chloride

> <PUBCHEM_IUPAC_SYSTEMATIC_NAME>
1-[(3,4-diethoxyphenyl)methyl]-6,7-diethoxy-3,4-dihydroisoquinolin-2-ium chloride

> <PUBCHEM_IUPAC_TRADITIONAL_NAME>
1-(3,4-diethoxybenzyl)-6,7-diethoxy-3,4-dihydroisoquinolin-2-ium chloride

> <PUBCHEM_IUPAC_INCHI>
InChI=1S/C24H31NO4.ClH/c1-5-26-21-10-9-17(14-22(21)27-6-2)13-20-19-16-24(29-8-4)23(28-7-3)15-18(19)11-12-25-20;/h9-10,14-16H,5-8,11-13H2,1-4H3;1H

> <PUBCHEM_IUPAC_INCHIKEY>
STBFLOYKRMKBRN-UHFFFAOYSA-N

> <PUBCHEM_EXACT_MASS>
433.201986

> <PUBCHEM_MOLECULAR_FORMULA>
C24H32ClNO4

> <PUBCHEM_MOLECULAR_WEIGHT>
433.96818

> <PUBCHEM_OPENEYE_CAN_SMILES>
CCOC1=C(C=C(C=C1)CC2=[NH+]CCC3=CC(=C(C=C32)OCC)OCC)OCC.[Cl-]

> <PUBCHEM_OPENEYE_ISO_SMILES>
CCOC1=C(C=C(C=C1)CC2=[NH+]CCC3=CC(=C(C=C32)OCC)OCC)OCC.[Cl-]

> <PUBCHEM_CACTVS_TPSA>
50.9

> <PUBCHEM_MONOISOTOPIC_WEIGHT>
433.201986

> <PUBCHEM_TOTAL_CHARGE>
0

> <PUBCHEM_HEAVY_ATOM_COUNT>
30

> <PUBCHEM_ATOM_DEF_STEREO_COUNT>
0

> <PUBCHEM_ATOM_UDEF_STEREO_COUNT>
0

> <PUBCHEM_BOND_DEF_STEREO_COUNT>
0

> <PUBCHEM_BOND_UDEF_STEREO_COUNT>
0

> <PUBCHEM_ISOTOPIC_ATOM_COUNT>
0

> <PUBCHEM_COMPONENT_COUNT>
2

> <PUBCHEM_CACTVS_TAUTO_COUNT>
1

> <PUBCHEM_COORDINATE_TYPE>
1
5
255

> <PUBCHEM_BONDANNOTATIONS>
13  16  8
14  17  8
15  18  8
15  19  8
16  17  8
18  20  8
19  21  8
20  22  8
21  22  8
8  13  8
8  9  8
9  14  8

$$$$

