4340
  -OEChem-06261200033D

 27 28  0     1  0  0  0  0  0999 V2000
   -1.9125   -1.4024    1.1821 S   0  0  0  0  0  0  0  0  0  0  0  0
    0.5961   -1.0012    0.3881 O   0  0  0  0  0  0  0  0  0  0  0  0
    0.7342    2.5800    1.1249 O   0  0  0  0  0  0  0  0  0  0  0  0
    0.7943    0.6644   -1.9473 O   0  0  0  0  0  0  0  0  0  0  0  0
    3.1180   -2.0938    0.2600 O   0  0  0  0  0  0  0  0  0  0  0  0
   -1.9032    0.6100   -0.4877 N   0  0  0  0  0  0  0  0  0  0  0  0
   -0.9346    0.9243    0.5945 C   0  0  2  0  0  0  0  0  0  0  0  0
    0.1705    1.8331    0.0444 C   0  0  2  0  0  0  0  0  0  0  0  0
    1.2847    1.0655   -0.6693 C   0  0  1  0  0  0  0  0  0  0  0  0
   -0.4086   -0.3885    1.1903 C   0  0  1  0  0  0  0  0  0  0  0  0
    1.7222   -0.1581    0.1458 C   0  0  2  0  0  0  0  0  0  0  0  0
    2.7718   -1.0003   -0.5706 C   0  0  0  0  0  0  0  0  0  0  0  0
   -2.4784   -0.5145   -0.2101 C   0  0  0  0  0  0  0  0  0  0  0  0
   -3.5546   -1.1185   -1.0452 C   0  0  0  0  0  0  0  0  0  0  0  0
   -1.4879    1.4750    1.3699 H   0  0  0  0  0  0  0  0  0  0  0  0
   -0.2660    2.5632   -0.6488 H   0  0  0  0  0  0  0  0  0  0  0  0
    2.1474    1.7203   -0.8358 H   0  0  0  0  0  0  0  0  0  0  0  0
   -0.0330   -0.2577    2.2104 H   0  0  0  0  0  0  0  0  0  0  0  0
    2.1250    0.1549    1.1182 H   0  0  0  0  0  0  0  0  0  0  0  0
    3.6733   -0.4213   -0.7933 H   0  0  0  0  0  0  0  0  0  0  0  0
    2.3808   -1.4181   -1.5034 H   0  0  0  0  0  0  0  0  0  0  0  0
    0.0244    3.1211    1.5108 H   0  0  0  0  0  0  0  0  0  0  0  0
    0.0811    0.0189   -1.8055 H   0  0  0  0  0  0  0  0  0  0  0  0
   -3.1671   -2.0021   -1.5603 H   0  0  0  0  0  0  0  0  0  0  0  0
   -3.9005   -0.3982   -1.7920 H   0  0  0  0  0  0  0  0  0  0  0  0
   -4.4017   -1.4109   -0.4182 H   0  0  0  0  0  0  0  0  0  0  0  0
    3.5012   -1.7338    1.0781 H   0  0  0  0  0  0  0  0  0  0  0  0
  1 10  1  0  0  0  0
  1 13  1  0  0  0  0
  2 10  1  0  0  0  0
  2 11  1  0  0  0  0
  3  8  1  0  0  0  0
  3 22  1  0  0  0  0
  4  9  1  0  0  0  0
  4 23  1  0  0  0  0
  5 12  1  0  0  0  0
  5 27  1  0  0  0  0
  6  7  1  0  0  0  0
  6 13  2  0  0  0  0
  7  8  1  0  0  0  0
  7 10  1  0  0  0  0
  7 15  1  0  0  0  0
  8  9  1  0  0  0  0
  8 16  1  0  0  0  0
  9 11  1  0  0  0  0
  9 17  1  0  0  0  0
 10 18  1  0  0  0  0
 11 12  1  0  0  0  0
 11 19  1  0  0  0  0
 12 20  1  0  0  0  0
 12 21  1  0  0  0  0
 13 14  1  0  0  0  0
 14 24  1  0  0  0  0
 14 25  1  0  0  0  0
 14 26  1  0  0  0  0
M  END
> <PUBCHEM_COMPOUND_CID>
4340

> <PUBCHEM_CONFORMER_RMSD>
0.6

> <PUBCHEM_CONFORMER_DIVERSEORDER>
1
34
24
19
36
2
48
23
37
18
29
46
47
40
12
50
3
17
28
22
39
38
14
16
43
49
51
15
30
5
26
4
31
13
44
10
8
11
20
7
9
35
27
6
25
32
42
21
33
45
41

> <PUBCHEM_MMFF94_PARTIAL_CHARGES>
17
1 -0.37
10 0.51
11 0.28
12 0.28
13 0.53
14 0.06
2 -0.56
22 0.4
23 0.4
27 0.4
3 -0.68
4 -0.68
5 -0.68
6 -0.7
7 0.25
8 0.28
9 0.28

> <PUBCHEM_EFFECTIVE_ROTOR_COUNT>
2

> <PUBCHEM_PHARMACOPHORE_FEATURES>
10
1 2 acceptor
1 3 acceptor
1 3 donor
1 4 acceptor
1 4 donor
1 5 acceptor
1 5 donor
1 6 acceptor
5 1 6 7 10 13 rings
6 2 7 8 9 10 11 rings

> <PUBCHEM_HEAVY_ATOM_COUNT>
14

> <PUBCHEM_ATOM_DEF_STEREO_COUNT>
0

> <PUBCHEM_ATOM_UDEF_STEREO_COUNT>
5

> <PUBCHEM_BOND_DEF_STEREO_COUNT>
0

> <PUBCHEM_BOND_UDEF_STEREO_COUNT>
0

> <PUBCHEM_ISOTOPIC_ATOM_COUNT>
0

> <PUBCHEM_COMPONENT_COUNT>
1

> <PUBCHEM_CACTVS_TAUTO_COUNT>
1

> <PUBCHEM_CONFORMER_ID>
000010F400000001

> <PUBCHEM_MMFF94_ENERGY>
34.1235

> <PUBCHEM_FEATURE_SELFOVERLAP>
50.93

> <PUBCHEM_SHAPE_FINGERPRINT>
10857977 72 13840536329498036547
11769659 78 18334583472444406750
12326174 3 17680127608715347624
12423570 1 16119402021759883065
12808571 1 12103848964303207967
13024252 1 12893628213895296224
14128692 85 18413385453579400414
14761567 1 18054763144832350316
14817 1 5581071085101664956
15557651 10 13614241464497272407
15852999 172 17768266617024052273
16945 1 17846215587405004058
18186145 218 17845953852952872647
20201158 50 18271244923957460394
20361792 2 18114170934944415759
20645477 70 18118700833305873759
20653085 51 15482376604143962295
21296965 67 18335143128157613146
22112679 90 17970601143127294208
22802520 49 17845927421212202431
23419403 2 17551006585535798952
23559900 14 18267593584203794498
2748010 2 17331947336069148592
5084963 1 17631444575516778379
528886 8 17131835408233928629
6338986 31 18335988652652471134
7364860 26 18189905209802743937
81228 2 18049149261984082448

> <PUBCHEM_SHAPE_MULTIPOLES>
263.5
4.28
2.11
1.31
1.35
0.44
0.19
-2.76
1.29
-1.22
-0.51
0.29
0.11
0.07

> <PUBCHEM_SHAPE_SELFOVERLAP>
531.458

> <PUBCHEM_SHAPE_VOLUME>
156.6

> <PUBCHEM_COORDINATE_TYPE>
2
5
10

$$$$

