854039
  -OEChem-06241222473D

 19 19  0     0  0  0  0  0  0999 V2000
   -3.4923    0.0490    0.0102 O   0  0  0  0  0  0  0  0  0  0  0  0
    3.4923    0.0492   -0.0064 O   0  0  0  0  0  0  0  0  0  0  0  0
    0.0001    0.5269   -0.0011 N   0  0  0  0  0  0  0  0  0  0  0  0
   -2.2597    1.9827   -0.0052 N   0  0  0  0  0  0  0  0  0  0  0  0
    2.2593    1.9828    0.0045 N   0  0  0  0  0  0  0  0  0  0  0  0
   -1.1487   -0.1857   -0.0030 C   0  0  0  0  0  0  0  0  0  0  0  0
    1.1488   -0.1858    0.0012 C   0  0  0  0  0  0  0  0  0  0  0  0
   -1.2025   -1.5701   -0.0027 C   0  0  0  0  0  0  0  0  0  0  0  0
    1.2026   -1.5703    0.0021 C   0  0  0  0  0  0  0  0  0  0  0  0
    0.0001   -2.2683   -0.0001 C   0  0  0  0  0  0  0  0  0  0  0  0
   -2.3739    0.5948   -0.0050 C   0  0  0  0  0  0  0  0  0  0  0  0
    2.3739    0.5949    0.0056 C   0  0  0  0  0  0  0  0  0  0  0  0
   -2.1402   -2.1154   -0.0044 H   0  0  0  0  0  0  0  0  0  0  0  0
    2.1404   -2.1155    0.0048 H   0  0  0  0  0  0  0  0  0  0  0  0
    0.0001   -3.3541    0.0005 H   0  0  0  0  0  0  0  0  0  0  0  0
   -1.3583    2.4493   -0.0099 H   0  0  0  0  0  0  0  0  0  0  0  0
   -3.0840    2.5741   -0.0002 H   0  0  0  0  0  0  0  0  0  0  0  0
    1.3577    2.4492    0.0067 H   0  0  0  0  0  0  0  0  0  0  0  0
    3.0836    2.5743    0.0011 H   0  0  0  0  0  0  0  0  0  0  0  0
  1 11  2  0  0  0  0
  2 12  2  0  0  0  0
  3  6  2  0  0  0  0
  3  7  1  0  0  0  0
  4 11  1  0  0  0  0
  4 16  1  0  0  0  0
  4 17  1  0  0  0  0
  5 12  1  0  0  0  0
  5 18  1  0  0  0  0
  5 19  1  0  0  0  0
  6  8  1  0  0  0  0
  6 11  1  0  0  0  0
  7  9  2  0  0  0  0
  7 12  1  0  0  0  0
  8 10  2  0  0  0  0
  8 13  1  0  0  0  0
  9 10  1  0  0  0  0
  9 14  1  0  0  0  0
 10 15  1  0  0  0  0
M  END
> <PUBCHEM_COMPOUND_CID>
854039

> <PUBCHEM_CONFORMER_RMSD>
0.6

> <PUBCHEM_CONFORMER_DIVERSEORDER>
1
9
5
8
10
2
3
7
4
6

> <PUBCHEM_MMFF94_PARTIAL_CHARGES>
19
1 -0.57
10 -0.15
11 0.54
12 0.54
13 0.15
14 0.15
15 0.15
16 0.37
17 0.37
18 0.37
19 0.37
2 -0.57
3 -0.62
4 -0.8
5 -0.8
6 0.4
7 0.4
8 -0.15
9 -0.15

> <PUBCHEM_EFFECTIVE_ROTOR_COUNT>
2

> <PUBCHEM_PHARMACOPHORE_FEATURES>
6
1 1 acceptor
1 2 acceptor
1 3 acceptor
1 4 donor
1 5 donor
6 3 6 7 8 9 10 rings

> <PUBCHEM_HEAVY_ATOM_COUNT>
12

> <PUBCHEM_ATOM_DEF_STEREO_COUNT>
0

> <PUBCHEM_ATOM_UDEF_STEREO_COUNT>
0

> <PUBCHEM_BOND_DEF_STEREO_COUNT>
0

> <PUBCHEM_BOND_UDEF_STEREO_COUNT>
0

> <PUBCHEM_ISOTOPIC_ATOM_COUNT>
0

> <PUBCHEM_COMPONENT_COUNT>
1

> <PUBCHEM_CACTVS_TAUTO_COUNT>
3

> <PUBCHEM_CONFORMER_ID>
000D081700000001

> <PUBCHEM_MMFF94_ENERGY>
29.6003

> <PUBCHEM_FEATURE_SELFOVERLAP>
30.446

> <PUBCHEM_SHAPE_FINGERPRINT>
1 1 18409730702793714742
100427 49 16824740362896843783
13380535 76 18410857659151924035
14325111 11 18410855481608292513
14648413 74 17979632665229952329
15775835 57 18410569591400017760
16945 1 18410856559640055910
20653085 51 18339069394260407682
20871998 184 18046054961206577463
21028194 46 18413105060929251433
21040471 1 18410856555466407910
21524375 3 18410857659156925954
23235685 24 18410580582221243778
23402539 116 18262531315903264325
23402655 69 18192164896073502149
23526114 1 18121499325814272782
23552423 10 18194122052097394603
23559900 14 18260822680294725580
2748010 2 18049441439729001143
305870 269 18270685405714498674
5084963 1 18113617884721715720
528886 8 18410017623804605498
6333449 129 18337392613042032527
7364860 26 18118966033886458991
81228 2 17832715564670178603

> <PUBCHEM_SHAPE_MULTIPOLES>
220.27
4.5
2.16
0.58
0
0.28
0
-2.04
0
0
0
0
0.04
0

> <PUBCHEM_SHAPE_SELFOVERLAP>
465.335

> <PUBCHEM_SHAPE_VOLUME>
122.2

> <PUBCHEM_COORDINATE_TYPE>
2
5
10

$$$$

