47205697
  -OEChem-06241222593D

 35 35  0     0  0  0  0  0  0999 V2000
   -2.9949   -0.5316    1.3456 O   0  0  0  0  0  0  0  0  0  0  0  0
   -0.3065    0.9341   -0.6540 O   0  0  0  0  0  0  0  0  0  0  0  0
   -2.3557   -0.8023   -0.8696 N   0  0  0  0  0  0  0  0  0  0  0  0
    1.2391   -0.7819   -0.2235 N   0  0  0  0  0  0  0  0  0  0  0  0
   -4.5288    0.1195   -0.4108 C   0  0  0  0  0  0  0  0  0  0  0  0
   -5.5028    0.5320    0.6889 C   0  0  0  0  0  0  0  0  0  0  0  0
    2.4570   -0.0809   -0.0565 C   0  0  0  0  0  0  0  0  0  0  0  0
   -1.0499   -1.3554   -0.5993 C   0  0  0  0  0  0  0  0  0  0  0  0
   -3.2280   -0.4329    0.1438 C   0  0  0  0  0  0  0  0  0  0  0  0
    3.6426   -0.7623    0.2184 C   0  0  0  0  0  0  0  0  0  0  0  0
   -0.0166   -0.2478   -0.5003 C   0  0  0  0  0  0  0  0  0  0  0  0
   -6.8093    1.0507    0.1109 C   0  0  0  0  0  0  0  0  0  0  0  0
    2.4622    1.3091   -0.1713 C   0  0  0  0  0  0  0  0  0  0  0  0
    4.8333   -0.0537    0.3789 C   0  0  0  0  0  0  0  0  0  0  0  0
    3.6668   -2.2511    0.3457 C   0  0  0  0  0  0  0  0  0  0  0  0
    3.6530    2.0179   -0.0111 C   0  0  0  0  0  0  0  0  0  0  0  0
    4.8384    1.3365    0.2640 C   0  0  0  0  0  0  0  0  0  0  0  0
   -4.9838   -0.6510   -1.0446 H   0  0  0  0  0  0  0  0  0  0  0  0
   -4.2929    0.9823   -1.0452 H   0  0  0  0  0  0  0  0  0  0  0  0
   -5.0500    1.3085    1.3170 H   0  0  0  0  0  0  0  0  0  0  0  0
   -5.7124   -0.3225    1.3434 H   0  0  0  0  0  0  0  0  0  0  0  0
   -1.0718   -1.9229    0.3367 H   0  0  0  0  0  0  0  0  0  0  0  0
   -0.7913   -2.0224   -1.4274 H   0  0  0  0  0  0  0  0  0  0  0  0
   -2.6276   -0.6670   -1.8391 H   0  0  0  0  0  0  0  0  0  0  0  0
    1.2927   -1.7927   -0.1299 H   0  0  0  0  0  0  0  0  0  0  0  0
   -7.3040    0.2827   -0.4922 H   0  0  0  0  0  0  0  0  0  0  0  0
   -7.4912    1.3415    0.9162 H   0  0  0  0  0  0  0  0  0  0  0  0
   -6.6375    1.9273   -0.5219 H   0  0  0  0  0  0  0  0  0  0  0  0
    1.5912    1.9124   -0.3817 H   0  0  0  0  0  0  0  0  0  0  0  0
    5.7662   -0.5683    0.5934 H   0  0  0  0  0  0  0  0  0  0  0  0
    3.0188   -2.5782    1.1656 H   0  0  0  0  0  0  0  0  0  0  0  0
    3.3434   -2.7228   -0.5881 H   0  0  0  0  0  0  0  0  0  0  0  0
    4.6741   -2.6235    0.5630 H   0  0  0  0  0  0  0  0  0  0  0  0
    3.6585    3.1005   -0.1002 H   0  0  0  0  0  0  0  0  0  0  0  0
    5.7654    1.8885    0.3887 H   0  0  0  0  0  0  0  0  0  0  0  0
  1  9  2  0  0  0  0
  2 11  2  0  0  0  0
  3  8  1  0  0  0  0
  3  9  1  0  0  0  0
  3 24  1  0  0  0  0
  4  7  1  0  0  0  0
  4 11  1  0  0  0  0
  4 25  1  0  0  0  0
  5  6  1  0  0  0  0
  5  9  1  0  0  0  0
  5 18  1  0  0  0  0
  5 19  1  0  0  0  0
  6 12  1  0  0  0  0
  6 20  1  0  0  0  0
  6 21  1  0  0  0  0
  7 10  1  0  0  0  0
  7 13  2  0  0  0  0
  8 11  1  0  0  0  0
  8 22  1  0  0  0  0
  8 23  1  0  0  0  0
 10 14  2  0  0  0  0
 10 15  1  0  0  0  0
 12 26  1  0  0  0  0
 12 27  1  0  0  0  0
 12 28  1  0  0  0  0
 13 16  1  0  0  0  0
 13 29  1  0  0  0  0
 14 17  1  0  0  0  0
 14 30  1  0  0  0  0
 15 31  1  0  0  0  0
 15 32  1  0  0  0  0
 15 33  1  0  0  0  0
 16 17  2  0  0  0  0
 16 34  1  0  0  0  0
 17 35  1  0  0  0  0
M  END
> <PUBCHEM_COMPOUND_CID>
47205697

> <PUBCHEM_CONFORMER_RMSD>
0.8

> <PUBCHEM_CONFORMER_DIVERSEORDER>
1
97
102
72
121
42
31
123
10
46
16
7
56
115
49
122
52
39
13
25
54
116
85
22
65
103
126
79
109
5
66
77
78
19
84
18
48
112
88
59
69
104
37
83
55
44
24
101
87
110
23
81
45
12
90
6
26
62
4
68
74
99
27
11
89
33
63
105
125
93
61
32
40
91
120
28
34
98
15
35
108
8
17
67
71
9
119
64
38
36
2
124
100
73
117
60
113
111
75
57
127
92
51
43
30
86
14
95
80
21
76
106
3
53
118
47
70
58
20
82
41
50
29
96
114
107
94

> <PUBCHEM_MMFF94_PARTIAL_CHARGES>
21
1 -0.57
10 -0.14
11 0.57
13 -0.15
14 -0.15
15 0.14
16 -0.15
17 -0.15
2 -0.57
24 0.37
25 0.37
29 0.15
3 -0.73
30 0.15
34 0.15
35 0.15
4 -0.55
5 0.06
7 0.12
8 0.36
9 0.57

> <PUBCHEM_EFFECTIVE_ROTOR_COUNT>
7

> <PUBCHEM_PHARMACOPHORE_FEATURES>
6
1 1 acceptor
1 12 hydrophobe
1 2 acceptor
1 3 donor
1 4 donor
6 7 10 13 14 16 17 rings

> <PUBCHEM_HEAVY_ATOM_COUNT>
17

> <PUBCHEM_ATOM_DEF_STEREO_COUNT>
0

> <PUBCHEM_ATOM_UDEF_STEREO_COUNT>
0

> <PUBCHEM_BOND_DEF_STEREO_COUNT>
0

> <PUBCHEM_BOND_UDEF_STEREO_COUNT>
0

> <PUBCHEM_ISOTOPIC_ATOM_COUNT>
0

> <PUBCHEM_COMPONENT_COUNT>
1

> <PUBCHEM_CACTVS_TAUTO_COUNT>
4

> <PUBCHEM_CONFORMER_ID>
02D04D4100000001

> <PUBCHEM_MMFF94_ENERGY>
37.4668

> <PUBCHEM_FEATURE_SELFOVERLAP>
30.446

> <PUBCHEM_SHAPE_FINGERPRINT>
10354089 29 18411135827288218176
10688039 33 18059856198878768797
11089746 13 17748832882184332496
117890 112 18186521007839489409
12107183 9 17831295373725202483
12236239 1 18040157300972594631
12596602 18 18343298163631559561
13167372 99 18261390117819233689
13533116 47 18201439241597780483
13675066 3 17917711296889495407
13785724 45 17685771724034539862
1420 363 6411292451660041757
14251764 18 18411703162571988869
14251764 75 16626562326145338836
14341114 176 18343578564302137877
14445660 50 18336549309309491486
15048467 5 18187647981351051440
15188451 53 16558457571383056099
15348495 7 17774714273848483161
17834072 33 18261397693814320719
20157964 124 18333730256312149935
20281389 69 18341048610302469365
20645477 70 18410864282482111758
20767249 213 18186801379457757409
21267235 1 18340487885221202666
212847 35 18040999544085597145
21637258 2 12823293456337203497
22950370 63 11455885863229057183
23402539 116 16805612460431154637
23402655 69 18261115115347233812
23503953 91 18334305240426428434
26918003 58 18060139821216943864
2767999 5 17676207987823570785
2838139 119 18265904730191410493
300161 21 17894635833377415402
351380 180 18411136948549125561
351380 3 12463568465939045913
5104073 3 18269848518942569234
5374978 207 18343868826934904040
5924683 9 18057599876918000091
602551 16 15913043158518465138
8272917 22 18335137613868407486

> <PUBCHEM_SHAPE_MULTIPOLES>
328.15
14.35
1.75
0.84
17.84
0.05
0.08
-4.61
2.71
-2.18
0.02
0.47
0.08
-0.36

> <PUBCHEM_SHAPE_SELFOVERLAP>
662.296

> <PUBCHEM_SHAPE_VOLUME>
191.5

> <PUBCHEM_COORDINATE_TYPE>
2
5
10

$$$$

