13915
  -OEChem-06241222403D

 24 25  0     1  0  0  0  0  0999 V2000
    2.0356    1.5412    1.8812 N   0  0  0  0  0  0  0  0  0  0  0  0
    0.8142   -2.5278    1.7086 N   0  0  0  0  0  0  0  0  0  0  0  0
    2.0097    1.7250   -1.7414 N   0  0  0  0  0  0  0  0  0  0  0  0
    0.8416   -2.3666   -1.9159 N   0  0  0  0  0  0  0  0  0  0  0  0
   -1.1770    0.3009    1.3127 C   0  0  2  0  0  0  0  0  0  0  0  0
   -1.1788    0.4071   -1.2831 C   0  0  1  0  0  0  0  0  0  0  0  0
    0.2631   -0.1004    0.8015 C   0  0  0  0  0  0  0  0  0  0  0  0
    0.2621   -0.0342   -0.8085 C   0  0  0  0  0  0  0  0  0  0  0  0
   -2.2368   -0.6790    0.7455 C   0  0  0  0  0  0  0  0  0  0  0  0
   -2.2375   -0.6163   -0.7964 C   0  0  0  0  0  0  0  0  0  0  0  0
   -1.5293    1.6641    0.7402 C   0  0  0  0  0  0  0  0  0  0  0  0
   -1.5301    1.7189   -0.6004 C   0  0  0  0  0  0  0  0  0  0  0  0
    1.2584    0.8213    1.4079 C   0  0  0  0  0  0  0  0  0  0  0  0
    0.5728   -1.4648    1.3113 C   0  0  0  0  0  0  0  0  0  0  0  0
    1.2444    0.9545   -1.3328 C   0  0  0  0  0  0  0  0  0  0  0  0
    0.5875   -1.3439   -1.4303 C   0  0  0  0  0  0  0  0  0  0  0  0
   -1.2301    0.3224    2.4081 H   0  0  0  0  0  0  0  0  0  0  0  0
   -1.2336    0.5177   -2.3730 H   0  0  0  0  0  0  0  0  0  0  0  0
   -3.2335   -0.4083    1.1184 H   0  0  0  0  0  0  0  0  0  0  0  0
   -2.0599   -1.7064    1.0814 H   0  0  0  0  0  0  0  0  0  0  0  0
   -2.0574   -1.6127   -1.2143 H   0  0  0  0  0  0  0  0  0  0  0  0
   -3.2349   -0.3183   -1.1461 H   0  0  0  0  0  0  0  0  0  0  0  0
   -1.7575    2.5135    1.3699 H   0  0  0  0  0  0  0  0  0  0  0  0
   -1.7592    2.6168   -1.1584 H   0  0  0  0  0  0  0  0  0  0  0  0
  1 13  3  0  0  0  0
  2 14  3  0  0  0  0
  3 15  3  0  0  0  0
  4 16  3  0  0  0  0
  5  7  1  0  0  0  0
  5  9  1  0  0  0  0
  5 11  1  0  0  0  0
  5 17  1  0  0  0  0
  6  8  1  0  0  0  0
  6 10  1  0  0  0  0
  6 12  1  0  0  0  0
  6 18  1  0  0  0  0
  7  8  1  0  0  0  0
  7 13  1  0  0  0  0
  7 14  1  0  0  0  0
  8 15  1  0  0  0  0
  8 16  1  0  0  0  0
  9 10  1  0  0  0  0
  9 19  1  0  0  0  0
  9 20  1  0  0  0  0
 10 21  1  0  0  0  0
 10 22  1  0  0  0  0
 11 12  2  0  0  0  0
 11 23  1  0  0  0  0
 12 24  1  0  0  0  0
M  END
> <PUBCHEM_COMPOUND_CID>
13915

> <PUBCHEM_CONFORMER_RMSD>
0.4

> <PUBCHEM_CONFORMER_DIVERSEORDER>
1

> <PUBCHEM_MMFF94_PARTIAL_CHARGES>
16
1 -0.56
11 -0.29
12 -0.29
13 0.36
14 0.36
15 0.36
16 0.36
2 -0.56
23 0.15
24 0.15
3 -0.56
4 -0.56
5 0.14
6 0.14
7 0.4
8 0.4

> <PUBCHEM_EFFECTIVE_ROTOR_COUNT>
0.8

> <PUBCHEM_PHARMACOPHORE_FEATURES>
5
1 1 acceptor
1 2 acceptor
1 3 acceptor
1 4 acceptor
8 5 6 7 8 9 10 11 12 rings

> <PUBCHEM_HEAVY_ATOM_COUNT>
16

> <PUBCHEM_ATOM_DEF_STEREO_COUNT>
0

> <PUBCHEM_ATOM_UDEF_STEREO_COUNT>
2

> <PUBCHEM_BOND_DEF_STEREO_COUNT>
0

> <PUBCHEM_BOND_UDEF_STEREO_COUNT>
0

> <PUBCHEM_ISOTOPIC_ATOM_COUNT>
0

> <PUBCHEM_COMPONENT_COUNT>
1

> <PUBCHEM_CACTVS_TAUTO_COUNT>
1

> <PUBCHEM_CONFORMER_ID>
0000365B00000001

> <PUBCHEM_MMFF94_ENERGY>
50.3343

> <PUBCHEM_FEATURE_SELFOVERLAP>
25.372

> <PUBCHEM_SHAPE_FINGERPRINT>
10863032 1 13205540236331505181
12423570 1 16744531019963158575
13024252 1 17410825372469800000
141345 1 18337673005702639906
144361 1 15954709954558953085
14817 1 14424315744274778252
16945 1 12924020205545809081
22344851 341 14148160334032272923
23419403 2 9285812705612523621
2748010 2 5362457718097404285
54276843 12 9581568345144565981
5845 1 10133348510210227338

> <PUBCHEM_SHAPE_MULTIPOLES>
309.35
2.5
2.28
2.21
0.86
0.31
-0.03
-0.27
0.03
-1.02
-0.01
-1.05
0.12
0

> <PUBCHEM_SHAPE_SELFOVERLAP>
668.657

> <PUBCHEM_SHAPE_VOLUME>
157.6

> <PUBCHEM_COORDINATE_TYPE>
2
5
10

$$$$

