3854
  -OEChem-06251223432D

100104  0     1  0  0  0  0  0999 V2000
   15.7619    5.6292    0.0000 F   0  0  0  0  0  0  0  0  0  0  0  0
   10.7619   -3.0311    0.0000 O   0  0  0  0  0  0  0  0  0  0  0  0
   10.7619    0.4330    0.0000 O   0  0  0  0  0  0  0  0  0  0  0  0
    9.2619    1.2990    0.0000 O   0  0  0  0  0  0  0  0  0  0  0  0
    4.9889    3.0543    0.0000 O   0  0  0  0  0  0  0  0  0  0  0  0
   14.2619   -3.8971    0.0000 O   0  0  0  0  0  0  0  0  0  0  0  0
   12.2619   -2.1651    0.0000 N   0  0  0  0  0  0  0  0  0  0  0  0
    5.2619    1.2990    0.0000 N   0  0  0  0  0  0  0  0  0  0  0  0
   14.2619   -2.1651    0.0000 N   0  0  0  0  0  0  0  0  0  0  0  0
   10.7619   -1.2990    0.0000 C   0  0  3  0  0  0  0  0  0  0  0  0
    9.7619   -1.2990    0.0000 C   0  0  0  0  0  0  0  0  0  0  0  0
    9.2619   -0.4330    0.0000 C   0  0  3  0  0  0  0  0  0  0  0  0
    8.2619   -0.4330    0.0000 C   0  0  0  0  0  0  0  0  0  0  0  0
   11.2619   -0.4330    0.0000 C   0  0  0  0  0  0  0  0  0  0  0  0
    7.7619    0.4330    0.0000 C   0  0  0  0  0  0  0  0  0  0  0  0
    6.7619    0.4330    0.0000 C   0  0  0  0  0  0  0  0  0  0  0  0
   11.2619   -2.1651    0.0000 C   0  0  0  0  0  0  0  0  0  0  0  0
   12.2619   -0.4330    0.0000 C   0  0  0  0  0  0  0  0  0  0  0  0
    6.2619    1.2990    0.0000 C   0  0  0  0  0  0  0  0  0  0  0  0
   12.7619   -3.0311    0.0000 C   0  0  3  0  0  0  0  0  0  0  0  0
    9.7619    0.4330    0.0000 C   0  0  0  0  0  0  0  0  0  0  0  0
   12.2619   -3.8971    0.0000 C   0  0  0  0  0  0  0  0  0  0  0  0
   12.7619   -4.7631    0.0000 C   0  0  0  0  0  0  0  0  0  0  0  0
    4.6783    0.4943    0.0000 C   0  0  0  0  0  0  0  0  0  0  0  0
   12.7619    0.4330    0.0000 C   0  0  0  0  0  0  0  0  0  0  0  0
    3.7320    0.7990    0.0000 C   0  0  0  0  0  0  0  0  0  0  0  0
    4.6783    2.1038    0.0000 C   0  0  0  0  0  0  0  0  0  0  0  0
    3.7320    1.7990    0.0000 C   0  0  0  0  0  0  0  0  0  0  0  0
   13.7619   -3.0311    0.0000 C   0  0  0  0  0  0  0  0  0  0  0  0
   12.2619   -5.6292    0.0000 C   0  0  0  0  0  0  0  0  0  0  0  0
   13.7619   -4.7631    0.0000 C   0  0  0  0  0  0  0  0  0  0  0  0
   13.7619    0.4330    0.0000 C   0  0  0  0  0  0  0  0  0  0  0  0
   12.2619    1.2990    0.0000 C   0  0  0  0  0  0  0  0  0  0  0  0
    2.8660    0.2990    0.0000 C   0  0  0  0  0  0  0  0  0  0  0  0
    2.8660    2.2990    0.0000 C   0  0  0  0  0  0  0  0  0  0  0  0
   14.2619    1.2990    0.0000 C   0  0  0  0  0  0  0  0  0  0  0  0
   12.7619    2.1651    0.0000 C   0  0  0  0  0  0  0  0  0  0  0  0
   13.7619    2.1651    0.0000 C   0  0  0  0  0  0  0  0  0  0  0  0
    2.0000    0.7990    0.0000 C   0  0  0  0  0  0  0  0  0  0  0  0
    2.0000    1.7990    0.0000 C   0  0  0  0  0  0  0  0  0  0  0  0
   15.2619   -2.1651    0.0000 C   0  0  0  0  0  0  0  0  0  0  0  0
   14.2619    3.0311    0.0000 C   0  0  0  0  0  0  0  0  0  0  0  0
   15.7619   -1.2990    0.0000 C   0  0  0  0  0  0  0  0  0  0  0  0
   15.7619   -3.0311    0.0000 C   0  0  0  0  0  0  0  0  0  0  0  0
   15.2619    3.0311    0.0000 C   0  0  0  0  0  0  0  0  0  0  0  0
   13.7619    3.8971    0.0000 C   0  0  0  0  0  0  0  0  0  0  0  0
   16.7619   -1.2990    0.0000 C   0  0  0  0  0  0  0  0  0  0  0  0
   16.7619   -3.0311    0.0000 C   0  0  0  0  0  0  0  0  0  0  0  0
   15.7619    3.8971    0.0000 C   0  0  0  0  0  0  0  0  0  0  0  0
   14.2619    4.7631    0.0000 C   0  0  0  0  0  0  0  0  0  0  0  0
   17.2619   -2.1651    0.0000 C   0  0  0  0  0  0  0  0  0  0  0  0
   15.2619    4.7631    0.0000 C   0  0  0  0  0  0  0  0  0  0  0  0
   11.3819   -1.2990    0.0000 H   0  0  0  0  0  0  0  0  0  0  0  0
    9.1793   -1.5111    0.0000 H   0  0  0  0  0  0  0  0  0  0  0  0
    9.8695   -1.9096    0.0000 H   0  0  0  0  0  0  0  0  0  0  0  0
    8.9519   -0.9699    0.0000 H   0  0  0  0  0  0  0  0  0  0  0  0
    7.6793   -0.6451    0.0000 H   0  0  0  0  0  0  0  0  0  0  0  0
    8.3695   -1.0436    0.0000 H   0  0  0  0  0  0  0  0  0  0  0  0
   11.3695    0.1776    0.0000 H   0  0  0  0  0  0  0  0  0  0  0  0
   10.6793   -0.2210    0.0000 H   0  0  0  0  0  0  0  0  0  0  0  0
    8.3445    0.6451    0.0000 H   0  0  0  0  0  0  0  0  0  0  0  0
    7.6542    1.0436    0.0000 H   0  0  0  0  0  0  0  0  0  0  0  0
    6.1793    0.2210    0.0000 H   0  0  0  0  0  0  0  0  0  0  0  0
    6.8695   -0.1776    0.0000 H   0  0  0  0  0  0  0  0  0  0  0  0
   12.1542   -1.0436    0.0000 H   0  0  0  0  0  0  0  0  0  0  0  0
   12.8445   -0.6451    0.0000 H   0  0  0  0  0  0  0  0  0  0  0  0
    6.8445    1.5111    0.0000 H   0  0  0  0  0  0  0  0  0  0  0  0
    6.1542    1.9096    0.0000 H   0  0  0  0  0  0  0  0  0  0  0  0
   13.0719   -2.4942    0.0000 H   0  0  0  0  0  0  0  0  0  0  0  0
   12.5719   -1.6281    0.0000 H   0  0  0  0  0  0  0  0  0  0  0  0
   11.7869   -3.4986    0.0000 H   0  0  0  0  0  0  0  0  0  0  0  0
   11.7869   -4.2956    0.0000 H   0  0  0  0  0  0  0  0  0  0  0  0
   12.1419   -4.7631    0.0000 H   0  0  0  0  0  0  0  0  0  0  0  0
    4.4272   -0.0726    0.0000 H   0  0  0  0  0  0  0  0  0  0  0  0
    5.2156    0.1851    0.0000 H   0  0  0  0  0  0  0  0  0  0  0  0
   11.7249   -5.3192    0.0000 H   0  0  0  0  0  0  0  0  0  0  0  0
   11.9519   -6.1661    0.0000 H   0  0  0  0  0  0  0  0  0  0  0  0
   12.7988   -5.9392    0.0000 H   0  0  0  0  0  0  0  0  0  0  0  0
   13.7619   -5.3831    0.0000 H   0  0  0  0  0  0  0  0  0  0  0  0
   14.3819   -4.7631    0.0000 H   0  0  0  0  0  0  0  0  0  0  0  0
   13.7619   -4.1431    0.0000 H   0  0  0  0  0  0  0  0  0  0  0  0
   14.0719   -0.1039    0.0000 H   0  0  0  0  0  0  0  0  0  0  0  0
   11.6419    1.2990    0.0000 H   0  0  0  0  0  0  0  0  0  0  0  0
   11.0719    0.9699    0.0000 H   0  0  0  0  0  0  0  0  0  0  0  0
    2.8660   -0.3210    0.0000 H   0  0  0  0  0  0  0  0  0  0  0  0
    2.8660    2.9190    0.0000 H   0  0  0  0  0  0  0  0  0  0  0  0
   13.9519   -1.6281    0.0000 H   0  0  0  0  0  0  0  0  0  0  0  0
   14.8819    1.2990    0.0000 H   0  0  0  0  0  0  0  0  0  0  0  0
   12.4519    2.7020    0.0000 H   0  0  0  0  0  0  0  0  0  0  0  0
    1.4631    0.4890    0.0000 H   0  0  0  0  0  0  0  0  0  0  0  0
    1.4631    2.1090    0.0000 H   0  0  0  0  0  0  0  0  0  0  0  0
   15.4519   -0.7621    0.0000 H   0  0  0  0  0  0  0  0  0  0  0  0
   15.4519   -3.5680    0.0000 H   0  0  0  0  0  0  0  0  0  0  0  0
   15.5719    2.4942    0.0000 H   0  0  0  0  0  0  0  0  0  0  0  0
   13.1419    3.8971    0.0000 H   0  0  0  0  0  0  0  0  0  0  0  0
   17.0719   -0.7621    0.0000 H   0  0  0  0  0  0  0  0  0  0  0  0
   17.0719   -3.5680    0.0000 H   0  0  0  0  0  0  0  0  0  0  0  0
   16.3819    3.8971    0.0000 H   0  0  0  0  0  0  0  0  0  0  0  0
   13.9519    5.3001    0.0000 H   0  0  0  0  0  0  0  0  0  0  0  0
   17.8819   -2.1651    0.0000 H   0  0  0  0  0  0  0  0  0  0  0  0
  1 52  1  0  0  0  0
  2 17  2  0  0  0  0
  3 21  1  0  0  0  0
  3 84  1  0  0  0  0
  4 21  2  0  0  0  0
  5 27  2  0  0  0  0
  6 29  2  0  0  0  0
  7 17  1  0  0  0  0
  7 20  1  0  0  0  0
  7 70  1  0  0  0  0
  8 19  1  0  0  0  0
  8 24  1  0  0  0  0
  8 27  1  0  0  0  0
  9 29  1  0  0  0  0
  9 41  1  0  0  0  0
  9 87  1  0  0  0  0
 10 11  1  0  0  0  0
 10 14  1  0  0  0  0
 10 17  1  0  0  0  0
 10 53  1  0  0  0  0
 11 12  1  0  0  0  0
 11 54  1  0  0  0  0
 11 55  1  0  0  0  0
 12 13  1  0  0  0  0
 12 21  1  0  0  0  0
 12 56  1  0  0  0  0
 13 15  1  0  0  0  0
 13 57  1  0  0  0  0
 13 58  1  0  0  0  0
 14 18  1  0  0  0  0
 14 59  1  0  0  0  0
 14 60  1  0  0  0  0
 15 16  1  0  0  0  0
 15 61  1  0  0  0  0
 15 62  1  0  0  0  0
 16 19  1  0  0  0  0
 16 63  1  0  0  0  0
 16 64  1  0  0  0  0
 18 25  1  0  0  0  0
 18 65  1  0  0  0  0
 18 66  1  0  0  0  0
 19 67  1  0  0  0  0
 19 68  1  0  0  0  0
 20 22  1  0  0  0  0
 20 29  1  0  0  0  0
 20 69  1  0  0  0  0
 22 23  1  0  0  0  0
 22 71  1  0  0  0  0
 22 72  1  0  0  0  0
 23 30  1  0  0  0  0
 23 31  1  0  0  0  0
 23 73  1  0  0  0  0
 24 26  1  0  0  0  0
 24 74  1  0  0  0  0
 24 75  1  0  0  0  0
 25 32  2  0  0  0  0
 25 33  1  0  0  0  0
 26 28  1  0  0  0  0
 26 34  2  0  0  0  0
 27 28  1  0  0  0  0
 28 35  2  0  0  0  0
 30 76  1  0  0  0  0
 30 77  1  0  0  0  0
 30 78  1  0  0  0  0
 31 79  1  0  0  0  0
 31 80  1  0  0  0  0
 31 81  1  0  0  0  0
 32 36  1  0  0  0  0
 32 82  1  0  0  0  0
 33 37  2  0  0  0  0
 33 83  1  0  0  0  0
 34 39  1  0  0  0  0
 34 85  1  0  0  0  0
 35 40  1  0  0  0  0
 35 86  1  0  0  0  0
 36 38  2  0  0  0  0
 36 88  1  0  0  0  0
 37 38  1  0  0  0  0
 37 89  1  0  0  0  0
 38 42  1  0  0  0  0
 39 40  2  0  0  0  0
 39 90  1  0  0  0  0
 40 91  1  0  0  0  0
 41 43  2  0  0  0  0
 41 44  1  0  0  0  0
 42 45  2  0  0  0  0
 42 46  1  0  0  0  0
 43 47  1  0  0  0  0
 43 92  1  0  0  0  0
 44 48  2  0  0  0  0
 44 93  1  0  0  0  0
 45 49  1  0  0  0  0
 45 94  1  0  0  0  0
 46 50  2  0  0  0  0
 46 95  1  0  0  0  0
 47 51  2  0  0  0  0
 47 96  1  0  0  0  0
 48 51  1  0  0  0  0
 48 97  1  0  0  0  0
 49 52  2  0  0  0  0
 49 98  1  0  0  0  0
 50 52  1  0  0  0  0
 50 99  1  0  0  0  0
 51100  1  0  0  0  0
M  END
> <PUBCHEM_COMPOUND_CID>
3854

> <PUBCHEM_COMPOUND_CANONICALIZED>
1

> <PUBCHEM_CACTVS_COMPLEXITY>
1140

> <PUBCHEM_CACTVS_HBOND_ACCEPTOR>
6

> <PUBCHEM_CACTVS_HBOND_DONOR>
3

> <PUBCHEM_CACTVS_ROTATABLE_BOND>
18

> <PUBCHEM_CACTVS_SUBSKEYS>
AAADcfB/OQAAAAAAAAAAAAAAAAAAAWAAAAAwYMGAAAAAAFgBVAAAHwAQCAAADSjBmAwyyIPAAgCIAiXSWACCAAAlAgAIiIGIZMgIYDLAlbGUYQhklgDIyYec3+KOwAAAAAAQAACAAAAAACAAAAAAAAAAAA==

> <PUBCHEM_IUPAC_OPENEYE_NAME>
6-[4-(4-fluorophenyl)phenyl]-4-[[3-methyl-1-(phenylcarbamoyl)butyl]carbamoyl]-2-[4-(1-oxoisoindolin-2-yl)butyl]hexanoic acid

> <PUBCHEM_IUPAC_CAS_NAME>
4-[[(1-anilino-4-methyl-1-oxopentan-2-yl)amino]-oxomethyl]-6-[4-(4-fluorophenyl)phenyl]-2-[4-(3-oxo-1H-isoindol-2-yl)butyl]hexanoic acid

> <PUBCHEM_IUPAC_NAME>
4-[(1-anilino-4-methyl-1-oxopentan-2-yl)carbamoyl]-6-[4-(4-fluorophenyl)phenyl]-2-[4-(3-oxo-1H-isoindol-2-yl)butyl]hexanoic acid

> <PUBCHEM_IUPAC_SYSTEMATIC_NAME>
6-[4-(4-fluorophenyl)phenyl]-4-[(4-methyl-1-oxidanylidene-1-phenylazanyl-pentan-2-yl)carbamoyl]-2-[4-(3-oxidanylidene-1H-isoindol-2-yl)butyl]hexanoic acid

> <PUBCHEM_IUPAC_TRADITIONAL_NAME>
6-[4-(4-fluorophenyl)phenyl]-2-[4-(1-ketoisoindolin-2-yl)butyl]-4-[[3-methyl-1-(phenylcarbamoyl)butyl]carbamoyl]hexanoic acid

> <PUBCHEM_IUPAC_INCHI>
InChI=1S/C43H48FN3O5/c1-29(2)26-39(41(49)45-37-12-4-3-5-13-37)46-40(48)33(20-17-30-15-18-31(19-16-30)32-21-23-36(44)24-22-32)27-34(43(51)52)10-8-9-25-47-28-35-11-6-7-14-38(35)42(47)50/h3-7,11-16,18-19,21-24,29,33-34,39H,8-10,17,20,25-28H2,1-2H3,(H,45,49)(H,46,48)(H,51,52)

> <PUBCHEM_IUPAC_INCHIKEY>
WSHMSPGZDPZGRV-UHFFFAOYSA-N

> <PUBCHEM_XLOGP3_AA>
7.9

> <PUBCHEM_EXACT_MASS>
705.3578

> <PUBCHEM_MOLECULAR_FORMULA>
C43H48FN3O5

> <PUBCHEM_MOLECULAR_WEIGHT>
705.856723

> <PUBCHEM_OPENEYE_CAN_SMILES>
CC(C)CC(C(=O)NC1=CC=CC=C1)NC(=O)C(CCC2=CC=C(C=C2)C3=CC=C(C=C3)F)CC(CCCCN4CC5=CC=CC=C5C4=O)C(=O)O

> <PUBCHEM_OPENEYE_ISO_SMILES>
CC(C)CC(C(=O)NC1=CC=CC=C1)NC(=O)C(CCC2=CC=C(C=C2)C3=CC=C(C=C3)F)CC(CCCCN4CC5=CC=CC=C5C4=O)C(=O)O

> <PUBCHEM_CACTVS_TPSA>
116

> <PUBCHEM_MONOISOTOPIC_WEIGHT>
705.3578

> <PUBCHEM_TOTAL_CHARGE>
0

> <PUBCHEM_HEAVY_ATOM_COUNT>
52

> <PUBCHEM_ATOM_DEF_STEREO_COUNT>
0

> <PUBCHEM_ATOM_UDEF_STEREO_COUNT>
3

> <PUBCHEM_BOND_DEF_STEREO_COUNT>
0

> <PUBCHEM_BOND_UDEF_STEREO_COUNT>
0

> <PUBCHEM_ISOTOPIC_ATOM_COUNT>
0

> <PUBCHEM_COMPONENT_COUNT>
1

> <PUBCHEM_CACTVS_TAUTO_COUNT>
6

> <PUBCHEM_COORDINATE_TYPE>
1
5
255

> <PUBCHEM_BONDANNOTATIONS>
10  14  3
12  13  3
20  22  3
25  32  8
25  33  8
26  28  8
26  34  8
28  35  8
32  36  8
33  37  8
34  39  8
35  40  8
36  38  8
37  38  8
39  40  8
41  43  8
41  44  8
42  45  8
42  46  8
43  47  8
44  48  8
45  49  8
46  50  8
47  51  8
48  51  8
49  52  8
50  52  8

$$$$

