12773
  -OEChem-06261207213D

 17 17  0     0  0  0  0  0  0999 V2000
   -2.7732   -0.2898   -0.5103 O   0  0  0  0  0  0  0  0  0  0  0  0
   -1.5011    1.8737    0.5579 O   0  0  0  0  0  0  0  0  0  0  0  0
    2.9346    0.7717   -0.4206 N   0  0  0  0  0  0  0  0  0  0  0  0
    1.6704    0.3349   -0.1028 C   0  0  0  0  0  0  0  0  0  0  0  0
    0.6273    1.1830   -0.1386 C   0  0  0  0  0  0  0  0  0  0  0  0
    1.5824   -1.0406    0.3500 C   0  0  0  0  0  0  0  0  0  0  0  0
   -1.4345   -0.3698   -0.1569 C   0  0  0  0  0  0  0  0  0  0  0  0
   -0.8065    0.9394    0.1585 C   0  0  0  0  0  0  0  0  0  0  0  0
   -0.8155   -1.5562   -0.0964 C   0  0  0  0  0  0  0  0  0  0  0  0
    0.5161   -1.8463    0.3591 C   0  0  0  0  0  0  0  0  0  0  0  0
    0.8236    2.2232   -0.4009 H   0  0  0  0  0  0  0  0  0  0  0  0
    2.5132   -1.4650    0.7267 H   0  0  0  0  0  0  0  0  0  0  0  0
   -1.3890   -2.4492   -0.3418 H   0  0  0  0  0  0  0  0  0  0  0  0
    0.6541   -2.8617    0.7269 H   0  0  0  0  0  0  0  0  0  0  0  0
    3.0799    1.7299   -0.7142 H   0  0  0  0  0  0  0  0  0  0  0  0
    3.7223    0.1376   -0.3683 H   0  0  0  0  0  0  0  0  0  0  0  0
   -3.0992   -1.1883   -0.6905 H   0  0  0  0  0  0  0  0  0  0  0  0
  1  7  1  0  0  0  0
  1 17  1  0  0  0  0
  2  8  2  0  0  0  0
  3  4  1  0  0  0  0
  3 15  1  0  0  0  0
  3 16  1  0  0  0  0
  4  5  2  0  0  0  0
  4  6  1  0  0  0  0
  5  8  1  0  0  0  0
  5 11  1  0  0  0  0
  6 10  2  0  0  0  0
  6 12  1  0  0  0  0
  7  8  1  0  0  0  0
  7  9  2  0  0  0  0
  9 10  1  0  0  0  0
  9 13  1  0  0  0  0
 10 14  1  0  0  0  0
M  END
> <PUBCHEM_COMPOUND_CID>
12773

> <PUBCHEM_CONFORMER_RMSD>
0.4

> <PUBCHEM_CONFORMER_DIVERSEORDER>
2
1

> <PUBCHEM_MMFF94_PARTIAL_CHARGES>
17
1 -0.53
10 -0.15
11 0.15
12 0.15
13 0.15
14 0.15
15 0.4
16 0.4
17 0.45
2 -0.57
3 -0.9
4 0.1
5 -0.14
6 -0.15
7 0.09
8 0.54
9 -0.15

> <PUBCHEM_EFFECTIVE_ROTOR_COUNT>
0

> <PUBCHEM_PHARMACOPHORE_FEATURES>
5
1 1 donor
1 2 acceptor
1 3 cation
1 3 donor
7 4 5 6 7 8 9 10 rings

> <PUBCHEM_HEAVY_ATOM_COUNT>
10

> <PUBCHEM_ATOM_DEF_STEREO_COUNT>
0

> <PUBCHEM_ATOM_UDEF_STEREO_COUNT>
0

> <PUBCHEM_BOND_DEF_STEREO_COUNT>
0

> <PUBCHEM_BOND_UDEF_STEREO_COUNT>
0

> <PUBCHEM_ISOTOPIC_ATOM_COUNT>
0

> <PUBCHEM_COMPONENT_COUNT>
1

> <PUBCHEM_CACTVS_TAUTO_COUNT>
11

> <PUBCHEM_CONFORMER_ID>
000031E500000002

> <PUBCHEM_MMFF94_ENERGY>
35.9941

> <PUBCHEM_FEATURE_SELFOVERLAP>
25.371

> <PUBCHEM_SHAPE_FINGERPRINT>
12423570 1 12458725249840452458
12897270 3 18409730621241784716
16945 1 18336266756021442434
18185500 45 18411426106668408206
21040471 1 18410292553393445368
23235685 24 18341336595531319756
23552423 10 18196936784299646551
241688 4 17836374013522939570
2748010 2 18267022945377678798
5084963 1 18188214332813050186
66348 1 18411419483881448930

> <PUBCHEM_SHAPE_MULTIPOLES>
189.08
3.08
1.94
0.68
0.34
0.2
-0.01
-0.54
0.49
-0.15
-0.26
-0.02
-0.01
-0.39

> <PUBCHEM_SHAPE_SELFOVERLAP>
392.035

> <PUBCHEM_SHAPE_VOLUME>
105.8

> <PUBCHEM_COORDINATE_TYPE>
2
5
10

$$$$

