7596
  -OEChem-06261202113D

 28 29  0     0  0  0  0  0  0999 V2000
    1.1253   -2.3253    0.1866 S   0  0  0  0  0  0  0  0  0  0  0  0
   -1.2760   -1.2982   -0.0914 N   0  0  0  0  0  0  0  0  0  0  0  0
    0.6736    0.2076   -0.1710 N   0  0  0  0  0  0  0  0  0  0  0  0
   -2.4188   -0.4746   -0.0465 C   0  0  0  0  0  0  0  0  0  0  0  0
   -3.6775   -1.0371    0.1688 C   0  0  0  0  0  0  0  0  0  0  0  0
   -2.2928    0.9046   -0.2178 C   0  0  0  0  0  0  0  0  0  0  0  0
    2.0659    0.2954   -0.0740 C   0  0  0  0  0  0  0  0  0  0  0  0
   -4.8085   -0.2219    0.2126 C   0  0  0  0  0  0  0  0  0  0  0  0
   -3.4237    1.7199   -0.1738 C   0  0  0  0  0  0  0  0  0  0  0  0
    0.0513   -0.9253   -0.0440 C   0  0  0  0  0  0  0  0  0  0  0  0
    2.8548    0.1538   -1.2157 C   0  0  0  0  0  0  0  0  0  0  0  0
    2.6660    0.5241    1.1643 C   0  0  0  0  0  0  0  0  0  0  0  0
   -4.6816    1.1565    0.0413 C   0  0  0  0  0  0  0  0  0  0  0  0
    4.2435    0.2404   -1.1191 C   0  0  0  0  0  0  0  0  0  0  0  0
    4.0549    0.6109    1.2608 C   0  0  0  0  0  0  0  0  0  0  0  0
    4.8436    0.4691    0.1189 C   0  0  0  0  0  0  0  0  0  0  0  0
   -1.4766   -2.2911   -0.0084 H   0  0  0  0  0  0  0  0  0  0  0  0
   -3.7911   -2.1097    0.3041 H   0  0  0  0  0  0  0  0  0  0  0  0
   -1.3468    1.3958   -0.4062 H   0  0  0  0  0  0  0  0  0  0  0  0
   -5.7879   -0.6603    0.3798 H   0  0  0  0  0  0  0  0  0  0  0  0
   -3.3265    2.7929   -0.3113 H   0  0  0  0  0  0  0  0  0  0  0  0
    2.3972   -0.0216   -2.1860 H   0  0  0  0  0  0  0  0  0  0  0  0
    2.0604    0.6381    2.0597 H   0  0  0  0  0  0  0  0  0  0  0  0
   -5.5623    1.7912    0.0744 H   0  0  0  0  0  0  0  0  0  0  0  0
    4.8577    0.1307   -2.0081 H   0  0  0  0  0  0  0  0  0  0  0  0
    4.5222    0.7893    2.2248 H   0  0  0  0  0  0  0  0  0  0  0  0
    5.9249    0.5368    0.1941 H   0  0  0  0  0  0  0  0  0  0  0  0
    1.5954   -1.9852    1.3953 H   0  0  0  0  0  0  0  0  0  0  0  0
  1 10  1  0  0  0  0
  1 28  1  0  0  0  0
  2  4  1  0  0  0  0
  2 10  1  0  0  0  0
  2 17  1  0  0  0  0
  3  7  1  0  0  0  0
  3 10  2  0  0  0  0
  4  5  2  0  0  0  0
  4  6  1  0  0  0  0
  5  8  1  0  0  0  0
  5 18  1  0  0  0  0
  6  9  2  0  0  0  0
  6 19  1  0  0  0  0
  7 11  2  0  0  0  0
  7 12  1  0  0  0  0
  8 13  2  0  0  0  0
  8 20  1  0  0  0  0
  9 13  1  0  0  0  0
  9 21  1  0  0  0  0
 11 14  1  0  0  0  0
 11 22  1  0  0  0  0
 12 15  2  0  0  0  0
 12 23  1  0  0  0  0
 13 24  1  0  0  0  0
 14 16  2  0  0  0  0
 14 25  1  0  0  0  0
 15 16  1  0  0  0  0
 15 26  1  0  0  0  0
 16 27  1  0  0  0  0
M  END
> <PUBCHEM_COMPOUND_CID>
7596

> <PUBCHEM_CONFORMER_RMSD>
0.6

> <PUBCHEM_CONFORMER_DIVERSEORDER>
1
7
6
2
3
5
4

> <PUBCHEM_MMFF94_PARTIAL_CHARGES>
28
1 -0.32
10 0.64
11 -0.15
12 -0.15
13 -0.15
14 -0.15
15 -0.15
16 -0.15
17 0.4
18 0.15
19 0.15
2 -0.55
20 0.15
21 0.15
22 0.15
23 0.15
24 0.15
25 0.15
26 0.15
27 0.15
28 0.18
3 -0.63
4 0.1
5 -0.15
6 -0.15
7 0.18
8 -0.15
9 -0.15

> <PUBCHEM_EFFECTIVE_ROTOR_COUNT>
3

> <PUBCHEM_PHARMACOPHORE_FEATURES>
4
1 2 donor
3 2 3 10 cation
6 4 5 6 8 9 13 rings
6 7 11 12 14 15 16 rings

> <PUBCHEM_HEAVY_ATOM_COUNT>
16

> <PUBCHEM_ATOM_DEF_STEREO_COUNT>
0

> <PUBCHEM_ATOM_UDEF_STEREO_COUNT>
0

> <PUBCHEM_BOND_DEF_STEREO_COUNT>
0

> <PUBCHEM_BOND_UDEF_STEREO_COUNT>
0

> <PUBCHEM_ISOTOPIC_ATOM_COUNT>
0

> <PUBCHEM_COMPONENT_COUNT>
1

> <PUBCHEM_CACTVS_TAUTO_COUNT>
2

> <PUBCHEM_CONFORMER_ID>
00001DAC00000001

> <PUBCHEM_MMFF94_ENERGY>
62.9373

> <PUBCHEM_FEATURE_SELFOVERLAP>
20.297

> <PUBCHEM_SHAPE_FINGERPRINT>
10354089 29 16917064452074841204
10366900 7 18341614789706898091
10498660 4 18409450323160518257
10646746 165 18335140894996197800
10912923 1 17346598543141616448
11132069 177 18342457054131459805
11287383 113 16805605832737518991
11552529 35 16199287803653876801
12107183 9 16697263470225495353
12236239 1 17632578232435361220
12403259 415 18113898221748474888
12596602 18 17131829828807992016
12788726 201 17269458856390479986
12916748 109 18410851044986281608
13081056 2 18186802461072325241
13675066 3 18334293137118742006
14341114 328 17275102829689497985
15536298 74 18338233885487515191
18186145 218 17676202463899503066
19784866 9 18341618161024370218
200 152 14562805564907308050
20645477 56 18113901524398899215
20645477 70 16588012529293695318
212847 35 18409730681745899240
22854114 59 18408604760105711753
23048698 100 16486976180570643932
231179 274 18186803590780462866
23402539 116 18260836972669058957
23402655 69 16732982020497694368
23557571 272 18261098648427069607
23559900 14 18186515506503055700
2916195 48 18114472158444699216
3268164 11 18335994094824019413
351380 180 18186805763891645832
3545911 37 18410853291702485799
4028521 119 18040154037045421465
474 4 17846493742472435955
4921388 177 16298678187675170335
495365 180 17240491290986115114
4990 188 17894624864131278966
5104073 3 18268986661024974083
5281201 14 17240474823575177944
542803 24 17775565333906832181
633830 44 18260272923420469548
6430166 295 18411420609321110036
69090 78 17458347403183304934
7364860 26 18190462855572385518

> <PUBCHEM_SHAPE_MULTIPOLES>
323.16
10.92
1.64
0.99
2.13
0.69
0.03
-3.6
0.36
0.83
0.07
-1.23
-0.14
0.28

> <PUBCHEM_SHAPE_SELFOVERLAP>
678.973

> <PUBCHEM_SHAPE_VOLUME>
182.5

> <PUBCHEM_COORDINATE_TYPE>
2
5
10

$$$$

