11287
  -OEChem-06261205293D

 24 25  0     0  0  0  0  0  0999 V2000
    0.0000   -0.2266   -0.0001 C   0  0  0  0  0  0  0  0  0  0  0  0
   -0.0001    1.1887    0.0000 C   0  0  0  0  0  0  0  0  0  0  0  0
    1.2250   -0.9134   -0.0001 C   0  0  0  0  0  0  0  0  0  0  0  0
   -1.2249   -0.9134   -0.0002 C   0  0  0  0  0  0  0  0  0  0  0  0
    1.2249    1.8755    0.0001 C   0  0  0  0  0  0  0  0  0  0  0  0
   -1.2252    1.8754    0.0001 C   0  0  0  0  0  0  0  0  0  0  0  0
    2.4327   -0.2147   -0.0001 C   0  0  0  0  0  0  0  0  0  0  0  0
   -2.4326   -0.2150   -0.0002 C   0  0  0  0  0  0  0  0  0  0  0  0
    2.4326    1.1770    0.0000 C   0  0  0  0  0  0  0  0  0  0  0  0
   -2.4327    1.1767    0.0000 C   0  0  0  0  0  0  0  0  0  0  0  0
    1.3572   -2.4049    0.0000 C   0  0  0  0  0  0  0  0  0  0  0  0
   -1.3569   -2.4051    0.0004 C   0  0  0  0  0  0  0  0  0  0  0  0
    1.2487    2.9633    0.0002 H   0  0  0  0  0  0  0  0  0  0  0  0
   -1.2493    2.9632    0.0002 H   0  0  0  0  0  0  0  0  0  0  0  0
    3.3893   -0.7311   -0.0001 H   0  0  0  0  0  0  0  0  0  0  0  0
   -3.3891   -0.7316   -0.0002 H   0  0  0  0  0  0  0  0  0  0  0  0
    0.9804   -2.8584    0.9177 H   0  0  0  0  0  0  0  0  0  0  0  0
    0.9802   -2.8585   -0.9177 H   0  0  0  0  0  0  0  0  0  0  0  0
    2.4188   -2.6914   -0.0001 H   0  0  0  0  0  0  0  0  0  0  0  0
   -0.9799   -2.8582    0.9183 H   0  0  0  0  0  0  0  0  0  0  0  0
   -2.4184   -2.6918    0.0005 H   0  0  0  0  0  0  0  0  0  0  0  0
   -0.9800   -2.8589   -0.9172 H   0  0  0  0  0  0  0  0  0  0  0  0
    3.3729    1.7207    0.0001 H   0  0  0  0  0  0  0  0  0  0  0  0
   -3.3732    1.7201    0.0000 H   0  0  0  0  0  0  0  0  0  0  0  0
  1  2  1  0  0  0  0
  1  3  2  0  0  0  0
  1  4  1  0  0  0  0
  2  5  2  0  0  0  0
  2  6  1  0  0  0  0
  3  7  1  0  0  0  0
  3 11  1  0  0  0  0
  4  8  2  0  0  0  0
  4 12  1  0  0  0  0
  5  9  1  0  0  0  0
  5 13  1  0  0  0  0
  6 10  2  0  0  0  0
  6 14  1  0  0  0  0
  7  9  2  0  0  0  0
  7 15  1  0  0  0  0
  8 10  1  0  0  0  0
  8 16  1  0  0  0  0
  9 23  1  0  0  0  0
 10 24  1  0  0  0  0
 11 17  1  0  0  0  0
 11 18  1  0  0  0  0
 11 19  1  0  0  0  0
 12 20  1  0  0  0  0
 12 21  1  0  0  0  0
 12 22  1  0  0  0  0
M  END
> <PUBCHEM_COMPOUND_CID>
11287

> <PUBCHEM_CONFORMER_RMSD>
0.4

> <PUBCHEM_CONFORMER_DIVERSEORDER>
1

> <PUBCHEM_MMFF94_PARTIAL_CHARGES>
16
10 -0.15
11 0.14
12 0.14
13 0.15
14 0.15
15 0.15
16 0.15
23 0.15
24 0.15
3 -0.14
4 -0.14
5 -0.15
6 -0.15
7 -0.15
8 -0.15
9 -0.15

> <PUBCHEM_EFFECTIVE_ROTOR_COUNT>
0

> <PUBCHEM_PHARMACOPHORE_FEATURES>
2
6 1 2 3 5 7 9 rings
6 1 2 4 6 8 10 rings

> <PUBCHEM_HEAVY_ATOM_COUNT>
12

> <PUBCHEM_ATOM_DEF_STEREO_COUNT>
0

> <PUBCHEM_ATOM_UDEF_STEREO_COUNT>
0

> <PUBCHEM_BOND_DEF_STEREO_COUNT>
0

> <PUBCHEM_BOND_UDEF_STEREO_COUNT>
0

> <PUBCHEM_ISOTOPIC_ATOM_COUNT>
0

> <PUBCHEM_COMPONENT_COUNT>
1

> <PUBCHEM_CACTVS_TAUTO_COUNT>
1

> <PUBCHEM_CONFORMER_ID>
00002C1700000001

> <PUBCHEM_MMFF94_ENERGY>
49.1884

> <PUBCHEM_FEATURE_SELFOVERLAP>
10.175

> <PUBCHEM_SHAPE_FINGERPRINT>
10967382 1 18410574010979283685
11206711 2 18123468276251027036
12423570 1 14151617215585422533
12524768 44 18339922713830400215
13140716 1 18266459802103224264
13380535 76 18410863161004718406
16945 1 18410855460128324196
193761 8 18410575084663390727
21040471 1 18410856585515315748
21501502 16 18410857654861737799
2334 1 17978509728412706884
23463225 33 18342745152105821000
23552423 10 18341610438351164972
23559900 14 18261945324595077292
241688 4 17617658104011054242
2748010 2 18122344566777472485
2897 32 18411981390099801556
5084963 1 18186238433008110225
5255222 1 18410859858175075653
528886 8 18337958861440530096
66348 1 18410572928589528839
7364860 26 18261958573746355994

> <PUBCHEM_SHAPE_MULTIPOLES>
246.95
3.4
2.67
0.62
0
0.94
0
-0.45
0
0
0
0
0
0

> <PUBCHEM_SHAPE_SELFOVERLAP>
540.617

> <PUBCHEM_SHAPE_VOLUME>
126.7

> <PUBCHEM_COORDINATE_TYPE>
2
5
10

$$$$

