7625
  -OEChem-06261202123D

 22 22  0     0  0  0  0  0  0999 V2000
    3.4764   -0.0214    1.0610 O   0  0  0  0  0  0  0  0  0  0  0  0
    3.8926    0.0093   -1.2002 N   0  0  0  0  0  0  0  0  0  0  0  0
    0.6697    0.0058    0.7446 C   0  0  0  0  0  0  0  0  0  0  0  0
   -0.7706    0.0018    0.3570 C   0  0  0  0  0  0  0  0  0  0  0  0
    1.5992    0.0171   -0.4747 C   0  0  0  0  0  0  0  0  0  0  0  0
   -1.4491    1.2081    0.1826 C   0  0  0  0  0  0  0  0  0  0  0  0
   -1.4390   -1.2080    0.1686 C   0  0  0  0  0  0  0  0  0  0  0  0
    3.0671   -0.0010   -0.0961 C   0  0  0  0  0  0  0  0  0  0  0  0
   -2.7960    1.2047   -0.1801 C   0  0  0  0  0  0  0  0  0  0  0  0
   -2.7859   -1.2113   -0.1942 C   0  0  0  0  0  0  0  0  0  0  0  0
   -3.4643   -0.0050   -0.3685 C   0  0  0  0  0  0  0  0  0  0  0  0
    0.8875   -0.8690    1.3717 H   0  0  0  0  0  0  0  0  0  0  0  0
    0.8815    0.8740    1.3826 H   0  0  0  0  0  0  0  0  0  0  0  0
    1.4137    0.9120   -1.0819 H   0  0  0  0  0  0  0  0  0  0  0  0
    1.4008   -0.8565   -1.1084 H   0  0  0  0  0  0  0  0  0  0  0  0
   -0.9391    2.1573    0.3244 H   0  0  0  0  0  0  0  0  0  0  0  0
   -0.9212   -2.1545    0.2995 H   0  0  0  0  0  0  0  0  0  0  0  0
   -3.3242    2.1438   -0.3165 H   0  0  0  0  0  0  0  0  0  0  0  0
   -3.3064   -2.1531   -0.3415 H   0  0  0  0  0  0  0  0  0  0  0  0
   -4.5129   -0.0077   -0.6512 H   0  0  0  0  0  0  0  0  0  0  0  0
    3.5307    0.0265   -2.1483 H   0  0  0  0  0  0  0  0  0  0  0  0
    4.9018   -0.0003   -1.0972 H   0  0  0  0  0  0  0  0  0  0  0  0
  1  8  2  0  0  0  0
  2  8  1  0  0  0  0
  2 21  1  0  0  0  0
  2 22  1  0  0  0  0
  3  4  1  0  0  0  0
  3  5  1  0  0  0  0
  3 12  1  0  0  0  0
  3 13  1  0  0  0  0
  4  6  2  0  0  0  0
  4  7  1  0  0  0  0
  5  8  1  0  0  0  0
  5 14  1  0  0  0  0
  5 15  1  0  0  0  0
  6  9  1  0  0  0  0
  6 16  1  0  0  0  0
  7 10  2  0  0  0  0
  7 17  1  0  0  0  0
  9 11  2  0  0  0  0
  9 18  1  0  0  0  0
 10 11  1  0  0  0  0
 10 19  1  0  0  0  0
 11 20  1  0  0  0  0
M  END
> <PUBCHEM_COMPOUND_CID>
7625

> <PUBCHEM_CONFORMER_RMSD>
0.6

> <PUBCHEM_CONFORMER_DIVERSEORDER>
1
11
10
2
6
5
7
4
3
9
8

> <PUBCHEM_MMFF94_PARTIAL_CHARGES>
18
1 -0.57
10 -0.15
11 -0.15
16 0.15
17 0.15
18 0.15
19 0.15
2 -0.8
20 0.15
21 0.37
22 0.37
3 0.14
4 -0.14
5 0.06
6 -0.15
7 -0.15
8 0.57
9 -0.15

> <PUBCHEM_EFFECTIVE_ROTOR_COUNT>
3

> <PUBCHEM_PHARMACOPHORE_FEATURES>
3
1 1 acceptor
1 2 donor
6 4 6 7 9 10 11 rings

> <PUBCHEM_HEAVY_ATOM_COUNT>
11

> <PUBCHEM_ATOM_DEF_STEREO_COUNT>
0

> <PUBCHEM_ATOM_UDEF_STEREO_COUNT>
0

> <PUBCHEM_BOND_DEF_STEREO_COUNT>
0

> <PUBCHEM_BOND_UDEF_STEREO_COUNT>
0

> <PUBCHEM_ISOTOPIC_ATOM_COUNT>
0

> <PUBCHEM_COMPONENT_COUNT>
1

> <PUBCHEM_CACTVS_TAUTO_COUNT>
2

> <PUBCHEM_CONFORMER_ID>
00001DC900000001

> <PUBCHEM_MMFF94_ENERGY>
22.9721

> <PUBCHEM_FEATURE_SELFOVERLAP>
15.223

> <PUBCHEM_SHAPE_FINGERPRINT>
12932764 1 18410572885887737048
13024252 1 17561080298542926043
13296908 3 17530683208259895590
14144814 61 18060420218167412576
14325111 11 18412265064184183282
14993402 34 17989488515425267879
15669948 3 18341334405124742762
15775835 57 17704070719892377989
18186145 218 17967530203040395912
20201158 50 17821727242951241182
20279233 1 17748549238370281158
20281407 28 17967530147026615626
20645477 70 16226045643366042636
21061003 4 17022614248062429883
22485316 2 16298108683047831687
23402539 116 18335714857266936765
23559900 14 18259988206297143258
3248919 1 17561082505771156962
528716 315 18341608200868440967
6333449 129 18333735723541559145
77492 1 17703798028181686552

> <PUBCHEM_SHAPE_MULTIPOLES>
215.52
6.76
1.16
0.89
4.8
0
0.02
0.01
1.22
-1.14
0
0.66
0
-0.01

> <PUBCHEM_SHAPE_SELFOVERLAP>
439.032

> <PUBCHEM_SHAPE_VOLUME>
124.6

> <PUBCHEM_COORDINATE_TYPE>
2
5
10

$$$$

