17395345
  -OEChem-06241222492D

 43 46  0     0  0  0  0  0  0999 V2000
    5.5443   -1.1923    0.0000 S   0  0  0  0  0  0  0  0  0  0  0  0
    8.6279   -2.9857    0.0000 O   0  0  0  0  0  0  0  0  0  0  0  0
    7.6279    0.4784    0.0000 O   0  0  0  0  0  0  0  0  0  0  0  0
    7.6279   -1.2536    0.0000 N   0  0  0  0  0  0  0  0  0  0  0  0
    5.8550    1.3676    0.0000 N   0  0  0  0  0  0  0  0  0  0  0  0
    3.7320   -1.3876    0.0000 N   0  0  0  0  0  0  0  0  0  0  0  0
    8.6279   -1.2536    0.0000 C   0  0  0  0  0  0  0  0  0  0  0  0
    7.1279   -2.1196    0.0000 C   0  0  0  0  0  0  0  0  0  0  0  0
    5.5443    0.4171    0.0000 C   0  0  0  0  0  0  0  0  0  0  0  0
    6.1279   -0.3876    0.0000 C   0  0  0  0  0  0  0  0  0  0  0  0
    4.5981    0.1124    0.0000 C   0  0  0  0  0  0  0  0  0  0  0  0
    7.1279   -0.3876    0.0000 C   0  0  0  0  0  0  0  0  0  0  0  0
    9.1279   -2.1196    0.0000 C   0  0  0  0  0  0  0  0  0  0  0  0
    7.6279   -2.9857    0.0000 C   0  0  0  0  0  0  0  0  0  0  0  0
    4.5981   -0.8876    0.0000 C   0  0  0  0  0  0  0  0  0  0  0  0
    3.7320    0.6124    0.0000 C   0  0  0  0  0  0  0  0  0  0  0  0
    2.8660    0.1124    0.0000 C   0  0  0  0  0  0  0  0  0  0  0  0
    2.8660   -0.8876    0.0000 C   0  0  0  0  0  0  0  0  0  0  0  0
    6.8066    1.6750    0.0000 C   0  0  0  0  0  0  0  0  0  0  0  0
    5.2686    2.1777    0.0000 C   0  0  0  0  0  0  0  0  0  0  0  0
    3.7320    1.6124    0.0000 C   0  0  0  0  0  0  0  0  0  0  0  0
    6.8083    2.6750    0.0000 C   0  0  0  0  0  0  0  0  0  0  0  0
    5.8578    2.9857    0.0000 C   0  0  0  0  0  0  0  0  0  0  0  0
    2.0000   -1.3876    0.0000 C   0  0  0  0  0  0  0  0  0  0  0  0
    9.2105   -1.0416    0.0000 H   0  0  0  0  0  0  0  0  0  0  0  0
    8.5202   -0.6430    0.0000 H   0  0  0  0  0  0  0  0  0  0  0  0
    6.6530   -1.7211    0.0000 H   0  0  0  0  0  0  0  0  0  0  0  0
    6.6530   -2.5182    0.0000 H   0  0  0  0  0  0  0  0  0  0  0  0
    9.6028   -2.5182    0.0000 H   0  0  0  0  0  0  0  0  0  0  0  0
    9.6028   -1.7211    0.0000 H   0  0  0  0  0  0  0  0  0  0  0  0
    7.0453   -3.1977    0.0000 H   0  0  0  0  0  0  0  0  0  0  0  0
    7.7356   -3.5963    0.0000 H   0  0  0  0  0  0  0  0  0  0  0  0
    2.3291    0.4224    0.0000 H   0  0  0  0  0  0  0  0  0  0  0  0
    4.6486    2.1788    0.0000 H   0  0  0  0  0  0  0  0  0  0  0  0
    7.3075    1.3097    0.0000 H   0  0  0  0  0  0  0  0  0  0  0  0
    4.3520    1.6124    0.0000 H   0  0  0  0  0  0  0  0  0  0  0  0
    3.7320    2.2324    0.0000 H   0  0  0  0  0  0  0  0  0  0  0  0
    3.1120    1.6124    0.0000 H   0  0  0  0  0  0  0  0  0  0  0  0
    5.6672    3.5757    0.0000 H   0  0  0  0  0  0  0  0  0  0  0  0
    7.3105    3.0386    0.0000 H   0  0  0  0  0  0  0  0  0  0  0  0
    1.6900   -0.8507    0.0000 H   0  0  0  0  0  0  0  0  0  0  0  0
    1.4631   -1.6976    0.0000 H   0  0  0  0  0  0  0  0  0  0  0  0
    2.3100   -1.9245    0.0000 H   0  0  0  0  0  0  0  0  0  0  0  0
  1 10  1  0  0  0  0
  1 15  1  0  0  0  0
  2 13  1  0  0  0  0
  2 14  1  0  0  0  0
  3 12  2  0  0  0  0
  4  7  1  0  0  0  0
  4  8  1  0  0  0  0
  4 12  1  0  0  0  0
  5  9  1  0  0  0  0
  5 19  1  0  0  0  0
  5 20  1  0  0  0  0
  6 15  1  0  0  0  0
  6 18  2  0  0  0  0
  7 13  1  0  0  0  0
  7 25  1  0  0  0  0
  7 26  1  0  0  0  0
  8 14  1  0  0  0  0
  8 27  1  0  0  0  0
  8 28  1  0  0  0  0
  9 10  2  0  0  0  0
  9 11  1  0  0  0  0
 10 12  1  0  0  0  0
 11 15  2  0  0  0  0
 11 16  1  0  0  0  0
 13 29  1  0  0  0  0
 13 30  1  0  0  0  0
 14 31  1  0  0  0  0
 14 32  1  0  0  0  0
 16 17  2  0  0  0  0
 16 21  1  0  0  0  0
 17 18  1  0  0  0  0
 17 33  1  0  0  0  0
 18 24  1  0  0  0  0
 19 22  2  0  0  0  0
 19 35  1  0  0  0  0
 20 23  2  0  0  0  0
 20 34  1  0  0  0  0
 21 36  1  0  0  0  0
 21 37  1  0  0  0  0
 21 38  1  0  0  0  0
 22 23  1  0  0  0  0
 22 40  1  0  0  0  0
 23 39  1  0  0  0  0
 24 41  1  0  0  0  0
 24 42  1  0  0  0  0
 24 43  1  0  0  0  0
M  END
> <PUBCHEM_COMPOUND_CID>
17395345

> <PUBCHEM_COMPOUND_CANONICALIZED>
1

> <PUBCHEM_CACTVS_COMPLEXITY>
465

> <PUBCHEM_CACTVS_HBOND_ACCEPTOR>
4

> <PUBCHEM_CACTVS_HBOND_DONOR>
0

> <PUBCHEM_CACTVS_ROTATABLE_BOND>
2

> <PUBCHEM_CACTVS_SUBSKEYS>
AAADceB7MABAAAAAAAAAAAAAAAAAAWJAAAAsWAAAAAAAAFgB/gAAHgQAAAAADAjh3gY+wdMMFAisAzV3VACD0KB1CjgI2DU4ZNgKIPrg1dGHJYxghgD4yUcYiYCOgAAAAAAAAAAAAAAAAAAAAAAAAAAAAA==

> <PUBCHEM_IUPAC_OPENEYE_NAME>
(4,6-dimethyl-3-pyrrol-1-yl-thieno[2,3-b]pyridin-2-yl)-morpholino-methanone

> <PUBCHEM_IUPAC_CAS_NAME>
[4,6-dimethyl-3-(1-pyrrolyl)-2-thieno[2,3-b]pyridinyl]-(4-morpholinyl)methanone

> <PUBCHEM_IUPAC_NAME>
(4,6-dimethyl-3-pyrrol-1-ylthieno[2,3-b]pyridin-2-yl)-morpholin-4-ylmethanone

> <PUBCHEM_IUPAC_SYSTEMATIC_NAME>
(4,6-dimethyl-3-pyrrol-1-yl-thieno[2,3-b]pyridin-2-yl)-morpholin-4-yl-methanone

> <PUBCHEM_IUPAC_TRADITIONAL_NAME>
(4,6-dimethyl-3-pyrrol-1-yl-thieno[2,3-b]pyridin-2-yl)-morpholino-methanone

> <PUBCHEM_IUPAC_INCHI>
InChI=1S/C18H19N3O2S/c1-12-11-13(2)19-17-14(12)15(20-5-3-4-6-20)16(24-17)18(22)21-7-9-23-10-8-21/h3-6,11H,7-10H2,1-2H3

> <PUBCHEM_IUPAC_INCHIKEY>
KHRDZORPOMVCRG-UHFFFAOYSA-N

> <PUBCHEM_XLOGP3_AA>
2.8

> <PUBCHEM_EXACT_MASS>
341.119798

> <PUBCHEM_MOLECULAR_FORMULA>
C18H19N3O2S

> <PUBCHEM_MOLECULAR_WEIGHT>
341.42736

> <PUBCHEM_OPENEYE_CAN_SMILES>
CC1=CC(=NC2=C1C(=C(S2)C(=O)N3CCOCC3)N4C=CC=C4)C

> <PUBCHEM_OPENEYE_ISO_SMILES>
CC1=CC(=NC2=C1C(=C(S2)C(=O)N3CCOCC3)N4C=CC=C4)C

> <PUBCHEM_CACTVS_TPSA>
75.6

> <PUBCHEM_MONOISOTOPIC_WEIGHT>
341.119798

> <PUBCHEM_TOTAL_CHARGE>
0

> <PUBCHEM_HEAVY_ATOM_COUNT>
24

> <PUBCHEM_ATOM_DEF_STEREO_COUNT>
0

> <PUBCHEM_ATOM_UDEF_STEREO_COUNT>
0

> <PUBCHEM_BOND_DEF_STEREO_COUNT>
0

> <PUBCHEM_BOND_UDEF_STEREO_COUNT>
0

> <PUBCHEM_ISOTOPIC_ATOM_COUNT>
0

> <PUBCHEM_COMPONENT_COUNT>
1

> <PUBCHEM_CACTVS_TAUTO_COUNT>
15

> <PUBCHEM_COORDINATE_TYPE>
1
5
255

> <PUBCHEM_BONDANNOTATIONS>
1  10  8
1  15  8
11  15  8
11  16  8
16  17  8
17  18  8
19  22  8
20  23  8
22  23  8
5  19  8
5  20  8
6  15  8
6  18  8
9  10  8
9  11  8

$$$$

