586070
  -OEChem-06241222452D

 40 43  0     1  0  0  0  0  0999 V2000
    6.8862   -0.3076    0.0000 O   0  0  0  0  0  0  0  0  0  0  0  0
    6.8890    1.3019    0.0000 O   0  0  0  0  0  0  0  0  0  0  0  0
    4.4026    0.5015    0.0000 O   0  0  0  0  0  0  0  0  0  0  0  0
    4.6783   -1.2591    0.0000 N   0  0  0  0  0  0  0  0  0  0  0  0
    3.7066    2.4706    0.0000 N   0  0  0  0  0  0  0  0  0  0  0  0
    4.6783   -2.8686    0.0000 N   0  0  0  0  0  0  0  0  0  0  0  0
    2.8660   -1.0638    0.0000 N   0  0  0  0  0  0  0  0  0  0  0  0
    3.3992    3.4222    0.0000 N   0  3  0  0  0  0  0  0  0  0  0  0
    2.0000   -2.5638    0.0000 N   0  0  0  0  0  0  0  0  0  0  0  0
    2.8660   -4.0638    0.0000 N   0  0  0  0  0  0  0  0  0  0  0  0
    3.0918    4.3738    0.0000 N   0  5  0  0  0  0  0  0  0  0  0  0
    5.9405   -0.0012    0.0000 C   0  0  3  0  0  0  0  0  0  0  0  0
    5.9422    0.9988    0.0000 C   0  0  3  0  0  0  0  0  0  0  0  0
    4.9889   -0.3086    0.0000 C   0  0  3  0  0  0  0  0  0  0  0  0
    4.9917    1.3095    0.0000 C   0  0  3  0  0  0  0  0  0  0  0  0
    7.4712    0.4961    0.0000 C   0  0  0  0  0  0  0  0  0  0  0  0
    4.6844    2.2610    0.0000 C   0  0  0  0  0  0  0  0  0  0  0  0
    8.2812    1.0825    0.0000 C   0  0  0  0  0  0  0  0  0  0  0  0
    8.2792   -0.0930    0.0000 C   0  0  0  0  0  0  0  0  0  0  0  0
    3.7320   -1.5638    0.0000 C   0  0  0  0  0  0  0  0  0  0  0  0
    5.2619   -2.0638    0.0000 C   0  0  0  0  0  0  0  0  0  0  0  0
    3.7320   -2.5638    0.0000 C   0  0  0  0  0  0  0  0  0  0  0  0
    2.8660   -3.0638    0.0000 C   0  0  0  0  0  0  0  0  0  0  0  0
    2.0000   -1.5638    0.0000 C   0  0  0  0  0  0  0  0  0  0  0  0
    5.9402   -0.6212    0.0000 H   0  0  0  0  0  0  0  0  0  0  0  0
    5.9441    1.6188    0.0000 H   0  0  0  0  0  0  0  0  0  0  0  0
    4.3764   -0.4045    0.0000 H   0  0  0  0  0  0  0  0  0  0  0  0
    4.3795    1.4075    0.0000 H   0  0  0  0  0  0  0  0  0  0  0  0
    5.2985    2.3463    0.0000 H   0  0  0  0  0  0  0  0  0  0  0  0
    4.7071    2.8806    0.0000 H   0  0  0  0  0  0  0  0  0  0  0  0
    7.9139   -0.5940    0.0000 H   0  0  0  0  0  0  0  0  0  0  0  0
    8.6448    0.5803    0.0000 H   0  0  0  0  0  0  0  0  0  0  0  0
    8.7835    1.4461    0.0000 H   0  0  0  0  0  0  0  0  0  0  0  0
    7.9177    1.5848    0.0000 H   0  0  0  0  0  0  0  0  0  0  0  0
    8.7802   -0.4583    0.0000 H   0  0  0  0  0  0  0  0  0  0  0  0
    8.6445    0.4079    0.0000 H   0  0  0  0  0  0  0  0  0  0  0  0
    5.8819   -2.0638    0.0000 H   0  0  0  0  0  0  0  0  0  0  0  0
    1.4631   -1.2538    0.0000 H   0  0  0  0  0  0  0  0  0  0  0  0
    2.3291   -4.3738    0.0000 H   0  0  0  0  0  0  0  0  0  0  0  0
    3.4030   -4.3738    0.0000 H   0  0  0  0  0  0  0  0  0  0  0  0
  1 12  1  0  0  0  0
  1 16  1  0  0  0  0
  2 13  1  0  0  0  0
  2 16  1  0  0  0  0
  3 14  1  0  0  0  0
  3 15  1  0  0  0  0
  4 14  1  0  0  0  0
  4 20  1  0  0  0  0
  4 21  1  0  0  0  0
  5  8  2  0  0  0  0
  5 17  1  0  0  0  0
  6 21  2  0  0  0  0
  6 22  1  0  0  0  0
  7 20  2  0  0  0  0
  7 24  1  0  0  0  0
  8 11  2  0  0  0  0
  9 23  1  0  0  0  0
  9 24  2  0  0  0  0
 10 23  1  0  0  0  0
 10 39  1  0  0  0  0
 10 40  1  0  0  0  0
 12 13  1  0  0  0  0
 12 14  1  0  0  0  0
 12 25  1  0  0  0  0
 13 15  1  0  0  0  0
 13 26  1  0  0  0  0
 14 27  1  0  0  0  0
 15 17  1  0  0  0  0
 15 28  1  0  0  0  0
 16 18  1  0  0  0  0
 16 19  1  0  0  0  0
 17 29  1  0  0  0  0
 17 30  1  0  0  0  0
 18 32  1  0  0  0  0
 18 33  1  0  0  0  0
 18 34  1  0  0  0  0
 19 31  1  0  0  0  0
 19 35  1  0  0  0  0
 19 36  1  0  0  0  0
 20 22  1  0  0  0  0
 21 37  1  0  0  0  0
 22 23  2  0  0  0  0
 24 38  1  0  0  0  0
M  CHG  2   8   1  11  -1
M  END
> <PUBCHEM_COMPOUND_CID>
586070

> <PUBCHEM_COMPOUND_CANONICALIZED>
1

> <PUBCHEM_CACTVS_COMPLEXITY>
541

> <PUBCHEM_CACTVS_HBOND_ACCEPTOR>
9

> <PUBCHEM_CACTVS_HBOND_DONOR>
1

> <PUBCHEM_CACTVS_ROTATABLE_BOND>
3

> <PUBCHEM_CACTVS_SUBSKEYS>
AAADceBz8AAAAAAAAAAAAAAAAAAAAWJEgAAsAAAAAAASAFgB+AAAHgAYAAAACBzhlwYH+L9MFACiAQZhZACAgC0REKABUCAoVBCTSAJAyEA/BAgPAALWACCwEAAAAAAAAAAAAAAAAAAAAAAAAAAAAAAAAA==

> <PUBCHEM_IUPAC_OPENEYE_NAME>
9-[6-(azidomethyl)-2,2-dimethyl-3a,4,6,6a-tetrahydrofuro[3,4-d][1,3]dioxol-4-yl]purin-6-amine

> <PUBCHEM_IUPAC_CAS_NAME>
9-[6-(azidomethyl)-2,2-dimethyl-3a,4,6,6a-tetrahydrofuro[3,4-d][1,3]dioxol-4-yl]-6-purinamine

> <PUBCHEM_IUPAC_NAME>
9-[6-(azidomethyl)-2,2-dimethyl-3a,4,6,6a-tetrahydrofuro[3,4-d][1,3]dioxol-4-yl]purin-6-amine

> <PUBCHEM_IUPAC_SYSTEMATIC_NAME>
9-[6-(azidomethyl)-2,2-dimethyl-3a,4,6,6a-tetrahydrofuro[3,4-d][1,3]dioxol-4-yl]purin-6-amine

> <PUBCHEM_IUPAC_TRADITIONAL_NAME>
[9-[6-(azidomethyl)-2,2-dimethyl-3a,4,6,6a-tetrahydrofuro[3,4-d][1,3]dioxol-4-yl]purin-6-yl]amine

> <PUBCHEM_IUPAC_INCHI>
InChI=1S/C13H16N8O3/c1-13(2)23-8-6(3-19-20-15)22-12(9(8)24-13)21-5-18-7-10(14)16-4-17-11(7)21/h4-6,8-9,12H,3H2,1-2H3,(H2,14,16,17)

> <PUBCHEM_IUPAC_INCHIKEY>
QWAPXRJZRIFMTR-UHFFFAOYSA-N

> <PUBCHEM_XLOGP3_AA>
0.7

> <PUBCHEM_EXACT_MASS>
332.134536

> <PUBCHEM_MOLECULAR_FORMULA>
C13H16N8O3

> <PUBCHEM_MOLECULAR_WEIGHT>
332.31794

> <PUBCHEM_OPENEYE_CAN_SMILES>
CC1(OC2C(OC(C2O1)N3C=NC4=C3N=CN=C4N)CN=[N+]=[N-])C

> <PUBCHEM_OPENEYE_ISO_SMILES>
CC1(OC2C(OC(C2O1)N3C=NC4=C3N=CN=C4N)CN=[N+]=[N-])C

> <PUBCHEM_CACTVS_TPSA>
112

> <PUBCHEM_MONOISOTOPIC_WEIGHT>
332.134536

> <PUBCHEM_TOTAL_CHARGE>
0

> <PUBCHEM_HEAVY_ATOM_COUNT>
24

> <PUBCHEM_ATOM_DEF_STEREO_COUNT>
0

> <PUBCHEM_ATOM_UDEF_STEREO_COUNT>
4

> <PUBCHEM_BOND_DEF_STEREO_COUNT>
0

> <PUBCHEM_BOND_UDEF_STEREO_COUNT>
0

> <PUBCHEM_ISOTOPIC_ATOM_COUNT>
0

> <PUBCHEM_COMPONENT_COUNT>
1

> <PUBCHEM_CACTVS_TAUTO_COUNT>
3

> <PUBCHEM_COORDINATE_TYPE>
1
5
255

> <PUBCHEM_BONDANNOTATIONS>
12  1  3
15  17  3
13  2  3
20  22  8
22  23  8
14  4  3
4  20  8
4  21  8
6  21  8
6  22  8
7  20  8
7  24  8
9  23  8
9  24  8

$$$$

