11815
  -OEChem-06261206092D

 17 18  0     0  0  0  0  0  0999 V2000
    4.9889   -1.7552    0.0000 O   0  0  0  0  0  0  0  0  0  0  0  0
    4.9889    1.7552    0.0000 O   0  0  0  0  0  0  0  0  0  0  0  0
    3.7320    0.5000    0.0000 C   0  0  0  0  0  0  0  0  0  0  0  0
    3.7320   -0.5000    0.0000 C   0  0  0  0  0  0  0  0  0  0  0  0
    5.2619    0.0000    0.0000 C   0  0  0  0  0  0  0  0  0  0  0  0
    4.6783    0.8047    0.0000 C   0  0  0  0  0  0  0  0  0  0  0  0
    4.6783   -0.8047    0.0000 C   0  0  0  0  0  0  0  0  0  0  0  0
    2.8660    1.0000    0.0000 C   0  0  0  0  0  0  0  0  0  0  0  0
    2.8660   -1.0000    0.0000 C   0  0  0  0  0  0  0  0  0  0  0  0
    2.0000   -0.5000    0.0000 C   0  0  0  0  0  0  0  0  0  0  0  0
    2.0000    0.5000    0.0000 C   0  0  0  0  0  0  0  0  0  0  0  0
    5.7227   -0.4147    0.0000 H   0  0  0  0  0  0  0  0  0  0  0  0
    5.7227    0.4147    0.0000 H   0  0  0  0  0  0  0  0  0  0  0  0
    2.8660    1.6200    0.0000 H   0  0  0  0  0  0  0  0  0  0  0  0
    2.8660   -1.6200    0.0000 H   0  0  0  0  0  0  0  0  0  0  0  0
    1.4631    0.8100    0.0000 H   0  0  0  0  0  0  0  0  0  0  0  0
    1.4631   -0.8100    0.0000 H   0  0  0  0  0  0  0  0  0  0  0  0
  1  7  2  0  0  0  0
  2  6  2  0  0  0  0
  3  4  1  0  0  0  0
  3  6  1  0  0  0  0
  3  8  2  0  0  0  0
  4  7  1  0  0  0  0
  4  9  2  0  0  0  0
  5  6  1  0  0  0  0
  5  7  1  0  0  0  0
  5 12  1  0  0  0  0
  5 13  1  0  0  0  0
  8 11  1  0  0  0  0
  8 14  1  0  0  0  0
  9 10  1  0  0  0  0
  9 15  1  0  0  0  0
 10 11  2  0  0  0  0
 10 17  1  0  0  0  0
 11 16  1  0  0  0  0
M  END
> <PUBCHEM_COMPOUND_CID>
11815

> <PUBCHEM_COMPOUND_CANONICALIZED>
1

> <PUBCHEM_CACTVS_COMPLEXITY>
186

> <PUBCHEM_CACTVS_HBOND_ACCEPTOR>
2

> <PUBCHEM_CACTVS_HBOND_DONOR>
0

> <PUBCHEM_CACTVS_ROTATABLE_BOND>
0

> <PUBCHEM_CACTVS_SUBSKEYS>
AAADcYBwMAAAAAAAAAAAAAAAAAAAAYAAAAAwAAAAAAAAAGABAAAAGgAAAAAADASAmAAwAIAAAACIAqBSAAACAAAkAAAIiAEAAMgIIDKIFRCAIQAggAAIiYcJiICOgAAAAAAQAAAAAAAAACAAAAAACAAAAA==

> <PUBCHEM_IUPAC_OPENEYE_NAME>
indane-1,3-dione

> <PUBCHEM_IUPAC_CAS_NAME>
indene-1,3-dione

> <PUBCHEM_IUPAC_NAME>
indene-1,3-dione

> <PUBCHEM_IUPAC_SYSTEMATIC_NAME>
indene-1,3-dione

> <PUBCHEM_IUPAC_TRADITIONAL_NAME>
indane-1,3-quinone

> <PUBCHEM_IUPAC_INCHI>
InChI=1S/C9H6O2/c10-8-5-9(11)7-4-2-1-3-6(7)8/h1-4H,5H2

> <PUBCHEM_IUPAC_INCHIKEY>
UHKAJLSKXBADFT-UHFFFAOYSA-N

> <PUBCHEM_XLOGP3>
0.6

> <PUBCHEM_EXACT_MASS>
146.036779

> <PUBCHEM_MOLECULAR_FORMULA>
C9H6O2

> <PUBCHEM_MOLECULAR_WEIGHT>
146.14274

> <PUBCHEM_OPENEYE_CAN_SMILES>
C1C(=O)C2=CC=CC=C2C1=O

> <PUBCHEM_OPENEYE_ISO_SMILES>
C1C(=O)C2=CC=CC=C2C1=O

> <PUBCHEM_CACTVS_TPSA>
34.1

> <PUBCHEM_MONOISOTOPIC_WEIGHT>
146.036779

> <PUBCHEM_TOTAL_CHARGE>
0

> <PUBCHEM_HEAVY_ATOM_COUNT>
11

> <PUBCHEM_ATOM_DEF_STEREO_COUNT>
0

> <PUBCHEM_ATOM_UDEF_STEREO_COUNT>
0

> <PUBCHEM_BOND_DEF_STEREO_COUNT>
0

> <PUBCHEM_BOND_UDEF_STEREO_COUNT>
0

> <PUBCHEM_ISOTOPIC_ATOM_COUNT>
0

> <PUBCHEM_COMPONENT_COUNT>
1

> <PUBCHEM_CACTVS_TAUTO_COUNT>
2

> <PUBCHEM_COORDINATE_TYPE>
1
5
255

> <PUBCHEM_BONDANNOTATIONS>
10  11  8
3  4  8
3  8  8
4  9  8
8  11  8
9  10  8

$$$$

