12472
  -OEChem-06261206582D

 20 19  0     0  0  0  0  0  0999 V2000
    3.4030   -1.5000    0.0000 O   0  0  0  0  0  0  0  0  0  0  0  0
    4.2690    0.0000    0.0000 N   0  0  0  0  0  0  0  0  0  0  0  0
    2.5369    0.0000    0.0000 N   0  0  0  0  0  0  0  0  0  0  0  0
    5.1350   -0.5000    0.0000 C   0  0  0  0  0  0  0  0  0  0  0  0
    4.2690    1.0000    0.0000 C   0  0  0  0  0  0  0  0  0  0  0  0
    5.1350    1.5000    0.0000 C   0  0  0  0  0  0  0  0  0  0  0  0
    6.0010    0.0000    0.0000 C   0  0  0  0  0  0  0  0  0  0  0  0
    3.4030   -0.5000    0.0000 C   0  0  0  0  0  0  0  0  0  0  0  0
    4.0569    1.5826    0.0000 H   0  0  0  0  0  0  0  0  0  0  0  0
    3.6584    0.8923    0.0000 H   0  0  0  0  0  0  0  0  0  0  0  0
    4.7365   -0.9749    0.0000 H   0  0  0  0  0  0  0  0  0  0  0  0
    5.5335   -0.9749    0.0000 H   0  0  0  0  0  0  0  0  0  0  0  0
    5.4450    0.9631    0.0000 H   0  0  0  0  0  0  0  0  0  0  0  0
    5.6720    1.8100    0.0000 H   0  0  0  0  0  0  0  0  0  0  0  0
    4.8250    2.0369    0.0000 H   0  0  0  0  0  0  0  0  0  0  0  0
    6.3110   -0.5369    0.0000 H   0  0  0  0  0  0  0  0  0  0  0  0
    6.5380    0.3100    0.0000 H   0  0  0  0  0  0  0  0  0  0  0  0
    5.6910    0.5369    0.0000 H   0  0  0  0  0  0  0  0  0  0  0  0
    2.0000   -0.3100    0.0000 H   0  0  0  0  0  0  0  0  0  0  0  0
    2.5369    0.6200    0.0000 H   0  0  0  0  0  0  0  0  0  0  0  0
  1  8  2  0  0  0  0
  2  4  1  0  0  0  0
  2  5  1  0  0  0  0
  2  8  1  0  0  0  0
  3  8  1  0  0  0  0
  3 19  1  0  0  0  0
  3 20  1  0  0  0  0
  4  7  1  0  0  0  0
  4 11  1  0  0  0  0
  4 12  1  0  0  0  0
  5  6  1  0  0  0  0
  5  9  1  0  0  0  0
  5 10  1  0  0  0  0
  6 13  1  0  0  0  0
  6 14  1  0  0  0  0
  6 15  1  0  0  0  0
  7 16  1  0  0  0  0
  7 17  1  0  0  0  0
  7 18  1  0  0  0  0
M  END
> <PUBCHEM_COMPOUND_CID>
12472

> <PUBCHEM_COMPOUND_CANONICALIZED>
1

> <PUBCHEM_CACTVS_COMPLEXITY>
78.5

> <PUBCHEM_CACTVS_HBOND_ACCEPTOR>
1

> <PUBCHEM_CACTVS_HBOND_DONOR>
1

> <PUBCHEM_CACTVS_ROTATABLE_BOND>
2

> <PUBCHEM_CACTVS_SUBSKEYS>
AAADccBjIAAAAAAAAAAAAAAAAAAAAAAAAAAAAAAAAAAAAAAAAAAAHgAQAAAAAADBAAQDAANAAAAIAAAAEAAAAAAAAAAAAAAIAACAAAAAAAAAAAAABgKAAAAAAAAAAAAAAAAAAAAAAAAAAAAAAAAAAAAAAA==

> <PUBCHEM_IUPAC_OPENEYE_NAME>
1,1-diethylurea

> <PUBCHEM_IUPAC_CAS_NAME>
1,1-diethylurea

> <PUBCHEM_IUPAC_NAME>
1,1-diethylurea

> <PUBCHEM_IUPAC_SYSTEMATIC_NAME>
1,1-diethylurea

> <PUBCHEM_IUPAC_TRADITIONAL_NAME>
1,1-diethylurea

> <PUBCHEM_IUPAC_INCHI>
InChI=1S/C5H12N2O/c1-3-7(4-2)5(6)8/h3-4H2,1-2H3,(H2,6,8)

> <PUBCHEM_IUPAC_INCHIKEY>
TUMNHQRORINJKE-UHFFFAOYSA-N

> <PUBCHEM_XLOGP3>
-0.2

> <PUBCHEM_EXACT_MASS>
116.094963

> <PUBCHEM_MOLECULAR_FORMULA>
C5H12N2O

> <PUBCHEM_MOLECULAR_WEIGHT>
116.16158

> <PUBCHEM_OPENEYE_CAN_SMILES>
CCN(CC)C(=O)N

> <PUBCHEM_OPENEYE_ISO_SMILES>
CCN(CC)C(=O)N

> <PUBCHEM_CACTVS_TPSA>
46.3

> <PUBCHEM_MONOISOTOPIC_WEIGHT>
116.094963

> <PUBCHEM_TOTAL_CHARGE>
0

> <PUBCHEM_HEAVY_ATOM_COUNT>
8

> <PUBCHEM_ATOM_DEF_STEREO_COUNT>
0

> <PUBCHEM_ATOM_UDEF_STEREO_COUNT>
0

> <PUBCHEM_BOND_DEF_STEREO_COUNT>
0

> <PUBCHEM_BOND_UDEF_STEREO_COUNT>
0

> <PUBCHEM_ISOTOPIC_ATOM_COUNT>
0

> <PUBCHEM_COMPONENT_COUNT>
1

> <PUBCHEM_CACTVS_TAUTO_COUNT>
2

> <PUBCHEM_COORDINATE_TYPE>
1
5
255

$$$$

