13197
  -OEChem-06261207533D

 21 21  0     1  0  0  0  0  0999 V2000
    0.4096    0.6883   -0.3361 C   0  0  1  0  0  0  0  0  0  0  0  0
    0.4081   -0.6893    0.3369 C   0  0  1  0  0  0  0  0  0  0  0  0
   -0.9795    1.2252    0.0106 C   0  0  0  0  0  0  0  0  0  0  0  0
   -0.9845   -1.2225   -0.0033 C   0  0  0  0  0  0  0  0  0  0  0  0
   -1.8975    0.0034   -0.0055 C   0  0  0  0  0  0  0  0  0  0  0  0
    1.5251    1.6075    0.1374 C   0  0  0  0  0  0  0  0  0  0  0  0
    1.5186   -1.6127   -0.1400 C   0  0  0  0  0  0  0  0  0  0  0  0
    0.4848    0.5715   -1.4258 H   0  0  0  0  0  0  0  0  0  0  0  0
    0.4879   -0.5723    1.4262 H   0  0  0  0  0  0  0  0  0  0  0  0
   -1.3106    1.9925   -0.6966 H   0  0  0  0  0  0  0  0  0  0  0  0
   -0.9871    1.6740    1.0116 H   0  0  0  0  0  0  0  0  0  0  0  0
   -1.3194   -1.9778    0.7150 H   0  0  0  0  0  0  0  0  0  0  0  0
   -0.9947   -1.6863   -0.9974 H   0  0  0  0  0  0  0  0  0  0  0  0
   -2.5565    0.0086    0.8695 H   0  0  0  0  0  0  0  0  0  0  0  0
   -2.5360    0.0011   -0.8956 H   0  0  0  0  0  0  0  0  0  0  0  0
    2.5054    1.2106   -0.1436 H   0  0  0  0  0  0  0  0  0  0  0  0
    1.4233    2.5998   -0.3143 H   0  0  0  0  0  0  0  0  0  0  0  0
    1.5094    1.7292    1.2257 H   0  0  0  0  0  0  0  0  0  0  0  0
    1.4148   -2.6045    0.3124 H   0  0  0  0  0  0  0  0  0  0  0  0
    1.4987   -1.7347   -1.2281 H   0  0  0  0  0  0  0  0  0  0  0  0
    2.5015   -1.2193    0.1375 H   0  0  0  0  0  0  0  0  0  0  0  0
  1  2  1  0  0  0  0
  1  3  1  0  0  0  0
  1  6  1  0  0  0  0
  1  8  1  0  0  0  0
  2  4  1  0  0  0  0
  2  7  1  0  0  0  0
  2  9  1  0  0  0  0
  3  5  1  0  0  0  0
  3 10  1  0  0  0  0
  3 11  1  0  0  0  0
  4  5  1  0  0  0  0
  4 12  1  0  0  0  0
  4 13  1  0  0  0  0
  5 14  1  0  0  0  0
  5 15  1  0  0  0  0
  6 16  1  0  0  0  0
  6 17  1  0  0  0  0
  6 18  1  0  0  0  0
  7 19  1  0  0  0  0
  7 20  1  0  0  0  0
  7 21  1  0  0  0  0
M  END
> <PUBCHEM_COMPOUND_CID>
13197

> <PUBCHEM_CONFORMER_RMSD>
0.4

> <PUBCHEM_CONFORMER_DIVERSEORDER>
2
1
4
3

> <PUBCHEM_MMFF94_PARTIAL_CHARGES>
0

> <PUBCHEM_EFFECTIVE_ROTOR_COUNT>
1

> <PUBCHEM_PHARMACOPHORE_FEATURES>
1
5 1 2 3 4 5 rings

> <PUBCHEM_HEAVY_ATOM_COUNT>
7

> <PUBCHEM_ATOM_DEF_STEREO_COUNT>
1

> <PUBCHEM_ATOM_UDEF_STEREO_COUNT>
1

> <PUBCHEM_BOND_DEF_STEREO_COUNT>
0

> <PUBCHEM_BOND_UDEF_STEREO_COUNT>
0

> <PUBCHEM_ISOTOPIC_ATOM_COUNT>
0

> <PUBCHEM_COMPONENT_COUNT>
1

> <PUBCHEM_CACTVS_TAUTO_COUNT>
1

> <PUBCHEM_CONFORMER_ID>
0000338D00000002

> <PUBCHEM_MMFF94_ENERGY>
10.0682

> <PUBCHEM_FEATURE_SELFOVERLAP>
5.074

> <PUBCHEM_SHAPE_FINGERPRINT>
16714656 1 17689430911621090862
18185500 45 17980479288803726459
20096714 4 18410571760490345081
21040471 1 17979353058152747036
23552423 10 18271522009704311470
29004967 10 18122339339834188195

> <PUBCHEM_SHAPE_MULTIPOLES>
144.06
2.12
1.92
0.65
0.22
0
0
0
0
-0.76
0
-0.02
0
0.07

> <PUBCHEM_SHAPE_SELFOVERLAP>
275.016

> <PUBCHEM_SHAPE_VOLUME>
87.9

> <PUBCHEM_COORDINATE_TYPE>
2
5
10

$$$$

