17395743
  -OEChem-06241222523D

 51 53  0     0  0  0  0  0  0999 V2000
    9.1962    0.6106    0.2011 F   0  0  0  0  0  0  0  0  0  0  0  0
    7.9059    0.7038    1.9491 F   0  0  0  0  0  0  0  0  0  0  0  0
   -0.3927   -1.0441    1.3511 O   0  0  0  0  0  0  0  0  0  0  0  0
   -6.5804   -0.1864   -1.1277 O   0  0  0  0  0  0  0  0  0  0  0  0
    1.0367    0.2463   -1.6940 O   0  0  0  0  0  0  0  0  0  0  0  0
    7.0688    1.2659   -0.0784 O   0  0  0  0  0  0  0  0  0  0  0  0
   -2.0993   -2.3675    0.4221 N   0  0  0  0  0  0  0  0  0  0  0  0
   -3.3451    0.3779    1.1711 N   0  0  0  0  0  0  0  0  0  0  0  0
   -4.8791   -1.1027    0.1051 N   0  0  0  0  0  0  0  0  0  0  0  0
    1.4318   -1.6848   -0.4704 N   0  0  0  0  0  0  0  0  0  0  0  0
   -3.0872   -2.0516    1.4003 C   0  0  0  0  0  0  0  0  0  0  0  0
   -2.5085   -3.2909   -0.6500 C   0  0  0  0  0  0  0  0  0  0  0  0
   -3.8365   -0.8649    0.8469 C   0  0  0  0  0  0  0  0  0  0  0  0
   -0.7901   -1.8207    0.4784 C   0  0  0  0  0  0  0  0  0  0  0  0
   -3.9949    1.5133    0.6833 C   0  0  0  0  0  0  0  0  0  0  0  0
    0.1317   -2.2674   -0.6426 C   0  0  0  0  0  0  0  0  0  0  0  0
   -5.1296    1.3495   -0.1229 C   0  0  0  0  0  0  0  0  0  0  0  0
   -2.2393   -4.7331   -0.2730 C   0  0  0  0  0  0  0  0  0  0  0  0
   -5.5878   -0.0369   -0.4219 C   0  0  0  0  0  0  0  0  0  0  0  0
   -3.5454    2.8029    0.9788 C   0  0  0  0  0  0  0  0  0  0  0  0
   -5.8094    2.4599   -0.6307 C   0  0  0  0  0  0  0  0  0  0  0  0
   -4.2224    3.9139    0.4729 C   0  0  0  0  0  0  0  0  0  0  0  0
   -5.3508    3.7423   -0.3295 C   0  0  0  0  0  0  0  0  0  0  0  0
    1.7848   -0.4558   -1.0187 C   0  0  0  0  0  0  0  0  0  0  0  0
    3.1779   -0.0029   -0.7712 C   0  0  0  0  0  0  0  0  0  0  0  0
    3.8025    0.8569   -1.6748 C   0  0  0  0  0  0  0  0  0  0  0  0
    3.8611   -0.4367    0.3649 C   0  0  0  0  0  0  0  0  0  0  0  0
    5.1102    1.2827   -1.4424 C   0  0  0  0  0  0  0  0  0  0  0  0
    5.1690   -0.0109    0.5973 C   0  0  0  0  0  0  0  0  0  0  0  0
    5.7934    0.8488   -0.3063 C   0  0  0  0  0  0  0  0  0  0  0  0
    7.9287    0.3830    0.6322 C   0  0  0  0  0  0  0  0  0  0  0  0
   -2.6153   -1.7801    2.3502 H   0  0  0  0  0  0  0  0  0  0  0  0
   -3.7589   -2.8988    1.5699 H   0  0  0  0  0  0  0  0  0  0  0  0
   -2.0017   -3.0545   -1.5873 H   0  0  0  0  0  0  0  0  0  0  0  0
   -3.5775   -3.1623   -0.8486 H   0  0  0  0  0  0  0  0  0  0  0  0
   -2.5226    0.4998    1.7496 H   0  0  0  0  0  0  0  0  0  0  0  0
    0.2646   -3.3501   -0.6284 H   0  0  0  0  0  0  0  0  0  0  0  0
   -0.2649   -1.9400   -1.6073 H   0  0  0  0  0  0  0  0  0  0  0  0
   -2.5312   -5.3995   -1.0907 H   0  0  0  0  0  0  0  0  0  0  0  0
   -2.8139   -5.0191    0.6144 H   0  0  0  0  0  0  0  0  0  0  0  0
   -1.1846   -4.9131   -0.0485 H   0  0  0  0  0  0  0  0  0  0  0  0
   -2.6677    2.9519    1.6025 H   0  0  0  0  0  0  0  0  0  0  0  0
    2.1149   -2.2392    0.0341 H   0  0  0  0  0  0  0  0  0  0  0  0
   -6.6897    2.3478   -1.2569 H   0  0  0  0  0  0  0  0  0  0  0  0
   -3.8696    4.9148    0.7046 H   0  0  0  0  0  0  0  0  0  0  0  0
   -5.8738    4.6104   -0.7206 H   0  0  0  0  0  0  0  0  0  0  0  0
    3.2886    1.2026   -2.5679 H   0  0  0  0  0  0  0  0  0  0  0  0
    3.3988   -1.0754    1.1117 H   0  0  0  0  0  0  0  0  0  0  0  0
    5.5920    1.9518   -2.1501 H   0  0  0  0  0  0  0  0  0  0  0  0
    5.6548   -0.3442    1.5096 H   0  0  0  0  0  0  0  0  0  0  0  0
    7.7118   -0.6812    0.4867 H   0  0  0  0  0  0  0  0  0  0  0  0
  1 31  1  0  0  0  0
  2 31  1  0  0  0  0
  3 14  2  0  0  0  0
  4 19  2  0  0  0  0
  5 24  2  0  0  0  0
  6 30  1  0  0  0  0
  6 31  1  0  0  0  0
  7 11  1  0  0  0  0
  7 12  1  0  0  0  0
  7 14  1  0  0  0  0
  8 13  1  0  0  0  0
  8 15  1  0  0  0  0
  8 36  1  0  0  0  0
  9 13  2  0  0  0  0
  9 19  1  0  0  0  0
 10 16  1  0  0  0  0
 10 24  1  0  0  0  0
 10 43  1  0  0  0  0
 11 13  1  0  0  0  0
 11 32  1  0  0  0  0
 11 33  1  0  0  0  0
 12 18  1  0  0  0  0
 12 34  1  0  0  0  0
 12 35  1  0  0  0  0
 14 16  1  0  0  0  0
 15 17  1  0  0  0  0
 15 20  2  0  0  0  0
 16 37  1  0  0  0  0
 16 38  1  0  0  0  0
 17 19  1  0  0  0  0
 17 21  2  0  0  0  0
 18 39  1  0  0  0  0
 18 40  1  0  0  0  0
 18 41  1  0  0  0  0
 20 22  1  0  0  0  0
 20 42  1  0  0  0  0
 21 23  1  0  0  0  0
 21 44  1  0  0  0  0
 22 23  2  0  0  0  0
 22 45  1  0  0  0  0
 23 46  1  0  0  0  0
 24 25  1  0  0  0  0
 25 26  2  0  0  0  0
 25 27  1  0  0  0  0
 26 28  1  0  0  0  0
 26 47  1  0  0  0  0
 27 29  2  0  0  0  0
 27 48  1  0  0  0  0
 28 30  2  0  0  0  0
 28 49  1  0  0  0  0
 29 30  1  0  0  0  0
 29 50  1  0  0  0  0
 31 51  1  0  0  0  0
M  END
> <PUBCHEM_COMPOUND_CID>
17395743

> <PUBCHEM_CONFORMER_RMSD>
1

> <PUBCHEM_CONFORMER_DIVERSEORDER>
1
130
54
77
117
33
69
11
62
86
83
15
108
97
28
40
132
47
67
51
53
120
19
60
95
58
103
20
61
75
42
98
127
96
37
84
57
82
129
111
76
56
32
52
73
12
101
125
80
112
46
99
44
45
7
94
92
22
68
136
72
87
14
110
109
122
131
38
30
107
55
78
25
9
100
123
74
90
63
124
71
106
29
119
39
133
43
48
91
17
36
104
21
88
26
128
64
2
5
89
135
34
85
24
10
126
3
93
31
41
59
49
118
50
13
81
27
8
115
116
134
70
16
79
18
102
66
105
35
23
65
121
4
6
113
114

> <PUBCHEM_MMFF94_PARTIAL_CHARGES>
40
1 -0.34
10 -0.73
11 0.36
12 0.3
13 0.44
14 0.57
15 0.1
16 0.36
17 0.09
19 0.69
2 -0.34
20 -0.15
21 -0.15
22 -0.15
23 -0.15
24 0.54
25 0.09
26 -0.15
27 -0.15
28 -0.15
29 -0.15
3 -0.57
30 0.08
31 0.96
36 0.4
4 -0.57
42 0.15
43 0.37
44 0.15
45 0.15
46 0.15
47 0.15
48 0.15
49 0.15
5 -0.57
50 0.15
6 -0.36
7 -0.66
8 -0.55
9 -0.66

> <PUBCHEM_EFFECTIVE_ROTOR_COUNT>
10

> <PUBCHEM_PHARMACOPHORE_FEATURES>
10
1 10 donor
1 3 acceptor
1 4 acceptor
1 5 acceptor
1 6 acceptor
1 8 donor
1 9 donor
6 15 17 20 21 22 23 rings
6 25 26 27 28 29 30 rings
6 8 9 13 15 17 19 rings

> <PUBCHEM_HEAVY_ATOM_COUNT>
31

> <PUBCHEM_ATOM_DEF_STEREO_COUNT>
0

> <PUBCHEM_ATOM_UDEF_STEREO_COUNT>
0

> <PUBCHEM_BOND_DEF_STEREO_COUNT>
0

> <PUBCHEM_BOND_UDEF_STEREO_COUNT>
0

> <PUBCHEM_ISOTOPIC_ATOM_COUNT>
0

> <PUBCHEM_COMPONENT_COUNT>
1

> <PUBCHEM_CACTVS_TAUTO_COUNT>
6

> <PUBCHEM_CONFORMER_ID>
0109701F00000001

> <PUBCHEM_MMFF94_ENERGY>
92.0411

> <PUBCHEM_FEATURE_SELFOVERLAP>
50.804

> <PUBCHEM_SHAPE_FINGERPRINT>
100830 39 18409448059627895986
10554248 39 14851872644529952060
10580692 12 18410291420387606230
10838868 160 18261951968741341953
10951579 204 18193817436364895684
11135609 187 18194964274438142105
11135609 201 18263352755070703569
11477941 20 18041291984995107717
12107183 9 18060422417676146690
14251764 30 9583508811342739277
14294032 229 18334570236357591931
14420673 8 9583509928878248517
15021287 119 16630806599862546516
15064981 113 18334006215933882998
15461852 350 18040718017933542430
15669420 48 17676212351642056807
15684393 108 13984658161693478517
16728433 281 18191564515501831636
19304671 126 17389653408953119197
20511986 3 18060146443882635896
20982279 24 14476414807096470760
21133410 221 17606141501505568936
21859007 373 18187650180980922976
23522609 53 17488442124053875020
2838139 119 18410293592506674636
393628 179 18334590043729110624
44249763 50 17749400204598954022
4938544 92 18336266756512280230
5372103 7 17487918885526438805
6299153 45 18131354158930403914
6371009 1 18413669097937121813
9981440 41 18342165718379765123

> <PUBCHEM_SHAPE_MULTIPOLES>
580.02
21.45
4.4
1.36
40.6
1.59
0
-16.16
-2.49
-9.41
0.1
0.91
-0.12
-0.07

> <PUBCHEM_SHAPE_SELFOVERLAP>
1241.961

> <PUBCHEM_SHAPE_VOLUME>
320.6

> <PUBCHEM_COORDINATE_TYPE>
2
5
10

$$$$

