5700
  -OEChem-06261200492D

 75 75  0     1  0  0  0  0  0999 V2000
    2.8660   -1.8971    0.0000 O   0  0  0  0  0  0  0  0  0  0  0  0
    3.2320   -0.5311    0.0000 O   0  0  0  0  0  0  0  0  0  0  0  0
    2.8660   -2.8971    0.0000 O   0  0  0  0  0  0  0  0  0  0  0  0
    2.8660   -5.8971    0.0000 O   0  0  0  0  0  0  0  0  0  0  0  0
    2.0000   -4.3971    0.0000 O   0  0  0  0  0  0  0  0  0  0  0  0
    6.7320    0.3349    0.0000 C   0  0  0  0  0  0  0  0  0  0  0  0
    7.2320    1.2010    0.0000 C   0  0  0  0  0  0  0  0  0  0  0  0
    5.7320    0.3349    0.0000 C   0  0  0  0  0  0  0  0  0  0  0  0
    8.2320    1.2010    0.0000 C   0  0  0  0  0  0  0  0  0  0  0  0
    5.2320   -0.5311    0.0000 C   0  0  0  0  0  0  0  0  0  0  0  0
    8.7320    2.0670    0.0000 C   0  0  0  0  0  0  0  0  0  0  0  0
    4.2320   -0.5311    0.0000 C   0  0  0  0  0  0  0  0  0  0  0  0
    9.7320    2.0670    0.0000 C   0  0  0  0  0  0  0  0  0  0  0  0
    3.7320   -1.3971    0.0000 C   0  0  3  0  0  0  0  0  0  0  0  0
   10.2321    2.9330    0.0000 C   0  0  0  0  0  0  0  0  0  0  0  0
   11.2321    2.9330    0.0000 C   0  0  0  0  0  0  0  0  0  0  0  0
   11.7321    3.7990    0.0000 C   0  0  0  0  0  0  0  0  0  0  0  0
    4.5981   -1.8971    0.0000 C   0  0  0  0  0  0  0  0  0  0  0  0
   12.7321    3.7990    0.0000 C   0  0  0  0  0  0  0  0  0  0  0  0
    3.7320   -3.3971    0.0000 C   0  0  3  0  0  0  0  0  0  0  0  0
    4.5981   -2.8971    0.0000 C   0  0  0  0  0  0  0  0  0  0  0  0
   13.2321    4.6651    0.0000 C   0  0  0  0  0  0  0  0  0  0  0  0
    3.7320   -4.3971    0.0000 C   0  0  0  0  0  0  0  0  0  0  0  0
    2.2320   -0.5311    0.0000 C   0  0  0  0  0  0  0  0  0  0  0  0
   14.2321    4.6651    0.0000 C   0  0  0  0  0  0  0  0  0  0  0  0
    2.8660   -4.8971    0.0000 C   0  0  0  0  0  0  0  0  0  0  0  0
   14.7321    5.5311    0.0000 C   0  0  0  0  0  0  0  0  0  0  0  0
   15.7321    5.5311    0.0000 C   0  0  0  0  0  0  0  0  0  0  0  0
    2.0000   -6.3971    0.0000 C   0  0  0  0  0  0  0  0  0  0  0  0
   16.2320    6.3971    0.0000 C   0  0  0  0  0  0  0  0  0  0  0  0
   17.2320    6.3971    0.0000 C   0  0  0  0  0  0  0  0  0  0  0  0
    6.6244   -0.2756    0.0000 H   0  0  0  0  0  0  0  0  0  0  0  0
    7.3147    0.1229    0.0000 H   0  0  0  0  0  0  0  0  0  0  0  0
    7.3397    1.8115    0.0000 H   0  0  0  0  0  0  0  0  0  0  0  0
    6.6494    1.4130    0.0000 H   0  0  0  0  0  0  0  0  0  0  0  0
    5.8397    0.9455    0.0000 H   0  0  0  0  0  0  0  0  0  0  0  0
    5.1494    0.5470    0.0000 H   0  0  0  0  0  0  0  0  0  0  0  0
    8.1244    0.5904    0.0000 H   0  0  0  0  0  0  0  0  0  0  0  0
    8.8147    0.9889    0.0000 H   0  0  0  0  0  0  0  0  0  0  0  0
    5.1244   -1.1417    0.0000 H   0  0  0  0  0  0  0  0  0  0  0  0
    5.8147   -0.7431    0.0000 H   0  0  0  0  0  0  0  0  0  0  0  0
    8.8397    2.6776    0.0000 H   0  0  0  0  0  0  0  0  0  0  0  0
    8.1494    2.2790    0.0000 H   0  0  0  0  0  0  0  0  0  0  0  0
    4.3397    0.0795    0.0000 H   0  0  0  0  0  0  0  0  0  0  0  0
    3.6494   -0.3190    0.0000 H   0  0  0  0  0  0  0  0  0  0  0  0
    9.6244    1.4564    0.0000 H   0  0  0  0  0  0  0  0  0  0  0  0
   10.3147    1.8549    0.0000 H   0  0  0  0  0  0  0  0  0  0  0  0
   10.3397    3.5436    0.0000 H   0  0  0  0  0  0  0  0  0  0  0  0
    9.6494    3.1451    0.0000 H   0  0  0  0  0  0  0  0  0  0  0  0
   11.1244    2.3224    0.0000 H   0  0  0  0  0  0  0  0  0  0  0  0
   11.8147    2.7210    0.0000 H   0  0  0  0  0  0  0  0  0  0  0  0
   11.8397    4.4096    0.0000 H   0  0  0  0  0  0  0  0  0  0  0  0
   11.1494    4.0111    0.0000 H   0  0  0  0  0  0  0  0  0  0  0  0
    5.1350   -1.5871    0.0000 H   0  0  0  0  0  0  0  0  0  0  0  0
   12.6244    3.1885    0.0000 H   0  0  0  0  0  0  0  0  0  0  0  0
   13.3147    3.5870    0.0000 H   0  0  0  0  0  0  0  0  0  0  0  0
    2.9959   -3.8221    0.0000 H   0  0  0  0  0  0  0  0  0  0  0  0
    5.1350   -3.2071    0.0000 H   0  0  0  0  0  0  0  0  0  0  0  0
   13.3397    5.2756    0.0000 H   0  0  0  0  0  0  0  0  0  0  0  0
   12.6494    4.8771    0.0000 H   0  0  0  0  0  0  0  0  0  0  0  0
    3.9441   -4.9797    0.0000 H   0  0  0  0  0  0  0  0  0  0  0  0
    4.3426   -4.2895    0.0000 H   0  0  0  0  0  0  0  0  0  0  0  0
    2.2320    0.0889    0.0000 H   0  0  0  0  0  0  0  0  0  0  0  0
    1.6120   -0.5311    0.0000 H   0  0  0  0  0  0  0  0  0  0  0  0
    2.2320   -1.1511    0.0000 H   0  0  0  0  0  0  0  0  0  0  0  0
   14.5421    4.1281    0.0000 H   0  0  0  0  0  0  0  0  0  0  0  0
   14.4221    6.0680    0.0000 H   0  0  0  0  0  0  0  0  0  0  0  0
   16.0421    4.9942    0.0000 H   0  0  0  0  0  0  0  0  0  0  0  0
    1.6900   -5.8602    0.0000 H   0  0  0  0  0  0  0  0  0  0  0  0
    1.4631   -6.7071    0.0000 H   0  0  0  0  0  0  0  0  0  0  0  0
    2.3100   -6.9340    0.0000 H   0  0  0  0  0  0  0  0  0  0  0  0
   15.9220    6.9340    0.0000 H   0  0  0  0  0  0  0  0  0  0  0  0
   17.2320    5.7771    0.0000 H   0  0  0  0  0  0  0  0  0  0  0  0
   17.8521    6.3971    0.0000 H   0  0  0  0  0  0  0  0  0  0  0  0
   17.2320    7.0171    0.0000 H   0  0  0  0  0  0  0  0  0  0  0  0
  1  3  1  0  0  0  0
  1 14  1  0  0  0  0
  2 14  1  0  0  0  0
  2 24  1  0  0  0  0
  3 20  1  0  0  0  0
  4 26  1  0  0  0  0
  4 29  1  0  0  0  0
  5 26  2  0  0  0  0
  6  7  1  0  0  0  0
  6  8  1  0  0  0  0
  6 32  1  0  0  0  0
  6 33  1  0  0  0  0
  7  9  1  0  0  0  0
  7 34  1  0  0  0  0
  7 35  1  0  0  0  0
  8 10  1  0  0  0  0
  8 36  1  0  0  0  0
  8 37  1  0  0  0  0
  9 11  1  0  0  0  0
  9 38  1  0  0  0  0
  9 39  1  0  0  0  0
 10 12  1  0  0  0  0
 10 40  1  0  0  0  0
 10 41  1  0  0  0  0
 11 13  1  0  0  0  0
 11 42  1  0  0  0  0
 11 43  1  0  0  0  0
 12 14  1  0  0  0  0
 12 44  1  0  0  0  0
 12 45  1  0  0  0  0
 13 15  1  0  0  0  0
 13 46  1  0  0  0  0
 13 47  1  0  0  0  0
 14 18  1  0  0  0  0
 15 16  1  0  0  0  0
 15 48  1  0  0  0  0
 15 49  1  0  0  0  0
 16 17  1  0  0  0  0
 16 50  1  0  0  0  0
 16 51  1  0  0  0  0
 17 19  1  0  0  0  0
 17 52  1  0  0  0  0
 17 53  1  0  0  0  0
 18 21  2  0  0  0  0
 18 54  1  0  0  0  0
 19 22  1  0  0  0  0
 19 55  1  0  0  0  0
 19 56  1  0  0  0  0
 20 21  1  0  0  0  0
 20 23  1  0  0  0  0
 20 57  1  0  0  0  0
 21 58  1  0  0  0  0
 22 25  1  0  0  0  0
 22 59  1  0  0  0  0
 22 60  1  0  0  0  0
 23 26  1  0  0  0  0
 23 61  1  0  0  0  0
 23 62  1  0  0  0  0
 24 63  1  0  0  0  0
 24 64  1  0  0  0  0
 24 65  1  0  0  0  0
 25 27  2  3  0  0  0
 25 66  1  0  0  0  0
 27 28  1  0  0  0  0
 27 67  1  0  0  0  0
 28 30  2  3  0  0  0
 28 68  1  0  0  0  0
 29 69  1  0  0  0  0
 29 70  1  0  0  0  0
 29 71  1  0  0  0  0
 30 31  1  0  0  0  0
 30 72  1  0  0  0  0
 31 73  1  0  0  0  0
 31 74  1  0  0  0  0
 31 75  1  0  0  0  0
M  END
> <PUBCHEM_COMPOUND_CID>
5700

> <PUBCHEM_COMPOUND_CANONICALIZED>
1

> <PUBCHEM_CACTVS_COMPLEXITY>
540

> <PUBCHEM_CACTVS_HBOND_ACCEPTOR>
5

> <PUBCHEM_CACTVS_HBOND_DONOR>
0

> <PUBCHEM_CACTVS_ROTATABLE_BOND>
19

> <PUBCHEM_CACTVS_SUBSKEYS>
AAADcfB4OAAAAAAAAAAAAAAAAAAAAAAAAAAgAAAAAAAAAAAAAAAAGgAABAAACBSggAICCAAABACIACDSCAAAAAAgAAAICAEAAAgYBBYAIQAAEAAFoAAIoAOAwKAAAAAAAAAAAAAAAAAAAAAAAAAAAAAAAA==

> <PUBCHEM_IUPAC_OPENEYE_NAME>
methyl 2-(6-methoxy-6-octadeca-14,16-dienyl-3H-1,2-dioxin-3-yl)acetate

> <PUBCHEM_IUPAC_CAS_NAME>
2-(6-methoxy-6-octadeca-14,16-dienyl-3H-1,2-dioxin-3-yl)acetic acid methyl ester

> <PUBCHEM_IUPAC_NAME>
methyl 2-(6-methoxy-6-octadeca-14,16-dienyl-3H-1,2-dioxin-3-yl)acetate

> <PUBCHEM_IUPAC_SYSTEMATIC_NAME>
methyl 2-(6-methoxy-6-octadeca-14,16-dienyl-3H-1,2-dioxin-3-yl)ethanoate

> <PUBCHEM_IUPAC_TRADITIONAL_NAME>
2-(6-methoxy-6-octadeca-14,16-dienyl-3H-o-dioxin-3-yl)acetic acid methyl ester

> <PUBCHEM_IUPAC_INCHI>
InChI=1S/C26H44O5/c1-4-5-6-7-8-9-10-11-12-13-14-15-16-17-18-19-21-26(29-3)22-20-24(30-31-26)23-25(27)28-2/h4-7,20,22,24H,8-19,21,23H2,1-3H3

> <PUBCHEM_IUPAC_INCHIKEY>
JYPVJTWYQWZBBU-UHFFFAOYSA-N

> <PUBCHEM_XLOGP3_AA>
8.1

> <PUBCHEM_EXACT_MASS>
436.318875

> <PUBCHEM_MOLECULAR_FORMULA>
C26H44O5

> <PUBCHEM_MOLECULAR_WEIGHT>
436.62456

> <PUBCHEM_OPENEYE_CAN_SMILES>
CC=CC=CCCCCCCCCCCCCCC1(C=CC(OO1)CC(=O)OC)OC

> <PUBCHEM_OPENEYE_ISO_SMILES>
CC=CC=CCCCCCCCCCCCCCC1(C=CC(OO1)CC(=O)OC)OC

> <PUBCHEM_CACTVS_TPSA>
54

> <PUBCHEM_MONOISOTOPIC_WEIGHT>
436.318875

> <PUBCHEM_TOTAL_CHARGE>
0

> <PUBCHEM_HEAVY_ATOM_COUNT>
31

> <PUBCHEM_ATOM_DEF_STEREO_COUNT>
0

> <PUBCHEM_ATOM_UDEF_STEREO_COUNT>
2

> <PUBCHEM_BOND_DEF_STEREO_COUNT>
0

> <PUBCHEM_BOND_UDEF_STEREO_COUNT>
2

> <PUBCHEM_ISOTOPIC_ATOM_COUNT>
0

> <PUBCHEM_COMPONENT_COUNT>
1

> <PUBCHEM_CACTVS_TAUTO_COUNT>
1

> <PUBCHEM_COORDINATE_TYPE>
1
5
255

> <PUBCHEM_BONDANNOTATIONS>
14  12  3
20  57  3
25  27  1
28  30  1

$$$$

