12350
  -OEChem-06261206503D

 19 18  0     0  0  0  0  0  0999 V2000
   -1.2754    0.4201    0.0238 C   0  0  0  0  0  0  0  0  0  0  0  0
    0.0890   -0.2711   -0.0046 C   0  0  0  0  0  0  0  0  0  0  0  0
   -2.4153   -0.5977   -0.0021 C   0  0  0  0  0  0  0  0  0  0  0  0
    1.2290    0.7473   -0.0122 C   0  0  0  0  0  0  0  0  0  0  0  0
   -3.7728    0.0868   -0.0075 C   0  0  0  0  0  0  0  0  0  0  0  0
    2.5373    0.0786   -0.0029 C   0  0  0  0  0  0  0  0  0  0  0  0
    3.6082   -0.4640    0.0054 C   0  0  0  0  0  0  0  0  0  0  0  0
   -1.3559    1.0405    0.9247 H   0  0  0  0  0  0  0  0  0  0  0  0
   -1.3638    1.0909   -0.8395 H   0  0  0  0  0  0  0  0  0  0  0  0
    0.1604   -0.9119   -0.8929 H   0  0  0  0  0  0  0  0  0  0  0  0
    0.1838   -0.9303    0.8681 H   0  0  0  0  0  0  0  0  0  0  0  0
   -2.3464   -1.2562    0.8716 H   0  0  0  0  0  0  0  0  0  0  0  0
   -2.3299   -1.2307   -0.8931 H   0  0  0  0  0  0  0  0  0  0  0  0
    1.1485    1.4015    0.8638 H   0  0  0  0  0  0  0  0  0  0  0  0
    1.1502    1.3867   -0.8992 H   0  0  0  0  0  0  0  0  0  0  0  0
   -4.5735   -0.6593   -0.0248 H   0  0  0  0  0  0  0  0  0  0  0  0
   -3.8861    0.7271   -0.8882 H   0  0  0  0  0  0  0  0  0  0  0  0
   -3.9039    0.7051    0.8863 H   0  0  0  0  0  0  0  0  0  0  0  0
    4.5580   -0.9456    0.0127 H   0  0  0  0  0  0  0  0  0  0  0  0
  1  2  1  0  0  0  0
  1  3  1  0  0  0  0
  1  8  1  0  0  0  0
  1  9  1  0  0  0  0
  2  4  1  0  0  0  0
  2 10  1  0  0  0  0
  2 11  1  0  0  0  0
  3  5  1  0  0  0  0
  3 12  1  0  0  0  0
  3 13  1  0  0  0  0
  4  6  1  0  0  0  0
  4 14  1  0  0  0  0
  4 15  1  0  0  0  0
  5 16  1  0  0  0  0
  5 17  1  0  0  0  0
  5 18  1  0  0  0  0
  6  7  3  0  0  0  0
  7 19  1  0  0  0  0
M  END
> <PUBCHEM_COMPOUND_CID>
12350

> <PUBCHEM_CONFORMER_RMSD>
0.4

> <PUBCHEM_CONFORMER_DIVERSEORDER>
1
12
10
17
16
5
6
11
7
8
4
13
15
14
9
2
3

> <PUBCHEM_MMFF94_PARTIAL_CHARGES>
4
19 0.18
4 0.2
6 -0.2
7 -0.18

> <PUBCHEM_EFFECTIVE_ROTOR_COUNT>
3

> <PUBCHEM_PHARMACOPHORE_FEATURES>
3
1 5 hydrophobe
1 7 hydrophobe
5 1 2 3 4 6 hydrophobe

> <PUBCHEM_HEAVY_ATOM_COUNT>
7

> <PUBCHEM_ATOM_DEF_STEREO_COUNT>
0

> <PUBCHEM_ATOM_UDEF_STEREO_COUNT>
0

> <PUBCHEM_BOND_DEF_STEREO_COUNT>
0

> <PUBCHEM_BOND_UDEF_STEREO_COUNT>
0

> <PUBCHEM_ISOTOPIC_ATOM_COUNT>
0

> <PUBCHEM_COMPONENT_COUNT>
1

> <PUBCHEM_CACTVS_TAUTO_COUNT>
1

> <PUBCHEM_CONFORMER_ID>
0000303E00000001

> <PUBCHEM_MMFF94_ENERGY>
-2.3442

> <PUBCHEM_FEATURE_SELFOVERLAP>
15.223

> <PUBCHEM_SHAPE_FINGERPRINT>
11062470 55 5256403898632630107
12932764 1 15554177969101819649
14325111 11 18410855425837021187
20719005 15 18410573981521213035
21293036 1 13686294673320759014
3248919 1 15719662169979600917
5460574 1 9367349232147957056

> <PUBCHEM_SHAPE_MULTIPOLES>
144.06
6.71
0.82
0.62
0.67
0.02
0
-0.85
0.01
-0.05
0
0
0
0

> <PUBCHEM_SHAPE_SELFOVERLAP>
251.717

> <PUBCHEM_SHAPE_VOLUME>
94.8

> <PUBCHEM_COORDINATE_TYPE>
2
5
10

$$$$

