13154
  -OEChem-06261207492D

 44 39  0     1  0  0  0  0  0999 V2000
    6.8671    4.2410    0.0000 Al  0  1  0  0  0  0  0  0  0  0  0  0
    4.2690   -1.2590    0.0000 Al  0  1  0  0  0  0  0  0  0  0  0  0
    7.8010    7.3326    0.0000 O   0  0  0  0  0  0  0  0  0  0  0  0
    2.5369   -4.2590    0.0000 O   0  0  0  0  0  0  0  0  0  0  0  0
    5.9332    7.3326    0.0000 O   0  0  0  0  0  0  0  0  0  0  0  0
    3.4030   -6.7590    0.0000 O   0  0  0  0  0  0  0  0  0  0  0  0
    6.8671    1.2410    0.0000 O   0  0  0  0  0  0  0  0  0  0  0  0
    4.2690    1.7410    0.0000 O   0  0  0  0  0  0  0  0  0  0  0  0
    7.7680    4.6749    0.0000 O   0  5  0  0  0  0  0  0  0  0  0  0
    3.4030   -1.7590    0.0000 O   0  5  0  0  0  0  0  0  0  0  0  0
    8.9655    5.8724    0.0000 O   0  0  0  0  0  0  0  0  0  0  0  0
    4.2690   -3.2590    0.0000 O   0  0  0  0  0  0  0  0  0  0  0  0
    5.9661    4.6749    0.0000 O   0  5  0  0  0  0  0  0  0  0  0  0
    5.1350   -1.7590    0.0000 O   0  5  0  0  0  0  0  0  0  0  0  0
    4.7686    5.8724    0.0000 O   0  0  0  0  0  0  0  0  0  0  0  0
    6.0010   -3.2590    0.0000 O   0  0  0  0  0  0  0  0  0  0  0  0
    6.8671    3.2410    0.0000 O   0  5  0  0  0  0  0  0  0  0  0  0
    4.2690   -0.2590    0.0000 O   0  5  0  0  0  0  0  0  0  0  0  0
    5.1350    3.2410    0.0000 O   0  0  0  0  0  0  0  0  0  0  0  0
    6.0010   -0.2590    0.0000 O   0  0  0  0  0  0  0  0  0  0  0  0
    7.3671    6.4317    0.0000 C   0  0  2  0  0  0  0  0  0  0  0  0
    2.5369   -3.2590    0.0000 C   0  0  2  0  0  0  0  0  0  0  0  0
    6.3671    6.4317    0.0000 C   0  0  2  0  0  0  0  0  0  0  0  0
    4.2690   -6.2590    0.0000 C   0  0  2  0  0  0  0  0  0  0  0  0
    6.0010    1.7410    0.0000 C   0  0  2  0  0  0  0  0  0  0  0  0
    5.1350    1.2410    0.0000 C   0  0  2  0  0  0  0  0  0  0  0  0
    7.9906    5.6498    0.0000 C   0  0  0  0  0  0  0  0  0  0  0  0
    3.4030   -2.7590    0.0000 C   0  0  0  0  0  0  0  0  0  0  0  0
    5.7436    5.6498    0.0000 C   0  0  0  0  0  0  0  0  0  0  0  0
    5.1350   -2.7590    0.0000 C   0  0  0  0  0  0  0  0  0  0  0  0
    6.0010    2.7410    0.0000 C   0  0  0  0  0  0  0  0  0  0  0  0
    5.1350    0.2410    0.0000 C   0  0  0  0  0  0  0  0  0  0  0  0
    7.0372    6.9566    0.0000 H   0  0  0  0  0  0  0  0  0  0  0  0
    2.0000   -2.9490    0.0000 H   0  0  0  0  0  0  0  0  0  0  0  0
    5.7510    6.5011    0.0000 H   0  0  0  0  0  0  0  0  0  0  0  0
    4.7645   -6.6317    0.0000 H   0  0  0  0  0  0  0  0  0  0  0  0
    6.5380    2.0510    0.0000 H   0  0  0  0  0  0  0  0  0  0  0  0
    5.1350    1.8610    0.0000 H   0  0  0  0  0  0  0  0  0  0  0  0
    8.4192    7.3790    0.0000 H   0  0  0  0  0  0  0  0  0  0  0  0
    2.0000   -4.5690    0.0000 H   0  0  0  0  0  0  0  0  0  0  0  0
    5.3149    7.3790    0.0000 H   0  0  0  0  0  0  0  0  0  0  0  0
    3.4030   -7.3790    0.0000 H   0  0  0  0  0  0  0  0  0  0  0  0
    6.8671    0.6210    0.0000 H   0  0  0  0  0  0  0  0  0  0  0  0
    3.7320    1.4310    0.0000 H   0  0  0  0  0  0  0  0  0  0  0  0
 21  3  1  1  0  0  0
  3 39  1  0  0  0  0
 22  4  1  1  0  0  0
  4 40  1  0  0  0  0
 23  5  1  6  0  0  0
  5 41  1  0  0  0  0
 24  6  1  6  0  0  0
  6 42  1  0  0  0  0
 25  7  1  6  0  0  0
  7 43  1  0  0  0  0
 26  8  1  6  0  0  0
  8 44  1  0  0  0  0
  9 27  1  0  0  0  0
 10 28  1  0  0  0  0
 11 27  2  0  0  0  0
 12 28  2  0  0  0  0
 13 29  1  0  0  0  0
 14 30  1  0  0  0  0
 15 29  2  0  0  0  0
 16 30  2  0  0  0  0
 17 31  1  0  0  0  0
 18 32  1  0  0  0  0
 19 31  2  0  0  0  0
 20 32  2  0  0  0  0
 21 23  1  0  0  0  0
 21 27  1  0  0  0  0
 21 33  1  0  0  0  0
 22 24  1  0  0  0  0
 22 28  1  0  0  0  0
 22 34  1  0  0  0  0
 23 29  1  0  0  0  0
 23 35  1  0  0  0  0
 24 30  1  0  0  0  0
 24 36  1  0  0  0  0
 25 26  1  0  0  0  0
 25 31  1  0  0  0  0
 25 37  1  0  0  0  0
 26 32  1  0  0  0  0
 26 38  1  0  0  0  0
M  CHG  8   1   3   2   3   9  -1  10  -1  13  -1  14  -1  17  -1  18  -1
M  END
> <PUBCHEM_COMPOUND_CID>
13154

> <PUBCHEM_COMPOUND_CANONICALIZED>
1

> <PUBCHEM_CACTVS_COMPLEXITY>
123

> <PUBCHEM_CACTVS_HBOND_ACCEPTOR>
18

> <PUBCHEM_CACTVS_HBOND_DONOR>
6

> <PUBCHEM_CACTVS_ROTATABLE_BOND>
3

> <PUBCHEM_CACTVS_SUBSKEYS>
AAADccBwPgAAABAAAAAAAAAAAAAAAAAAAAAAAAAAAAAAAAAAAAAAGgAACAAACBSggAIACAAAAgAIAACQCAIAAAAAAAAAAAFAAAABEBQAAAAAQAAFIAABAABDAAAAAAAAAAAAAAAAAAAAAAAAAAAAAAAAAA==

> <PUBCHEM_IUPAC_OPENEYE_NAME>
dialuminum (2R,3R)-2,3-dihydroxybutanedioate

> <PUBCHEM_IUPAC_CAS_NAME>
dialuminum (2R,3R)-2,3-dihydroxybutanedioate

> <PUBCHEM_IUPAC_NAME>
dialuminum (2R,3R)-2,3-dihydroxybutanedioate

> <PUBCHEM_IUPAC_SYSTEMATIC_NAME>
dialuminum (2R,3R)-2,3-bis(oxidanyl)butanedioate

> <PUBCHEM_IUPAC_TRADITIONAL_NAME>
dialuminum (2R,3R)-2,3-dihydroxysuccinate

> <PUBCHEM_IUPAC_INCHI>
InChI=1S/3C4H6O6.2Al/c3*5-1(3(7)8)2(6)4(9)10;;/h3*1-2,5-6H,(H,7,8)(H,9,10);;/q;;;2*+3/p-6/t3*1-,2-;;/m111../s1

> <PUBCHEM_IUPAC_INCHIKEY>
YGIMPIJCOSFCOM-YDXPQRMKSA-H

> <PUBCHEM_EXACT_MASS>
497.965441

> <PUBCHEM_MOLECULAR_FORMULA>
C12H12Al2O18

> <PUBCHEM_MOLECULAR_WEIGHT>
498.175957

> <PUBCHEM_OPENEYE_CAN_SMILES>
C(C(C(=O)[O-])O)(C(=O)[O-])O.C(C(C(=O)[O-])O)(C(=O)[O-])O.C(C(C(=O)[O-])O)(C(=O)[O-])O.[Al+3].[Al+3]

> <PUBCHEM_OPENEYE_ISO_SMILES>
[C@@H]([C@H](C(=O)[O-])O)(C(=O)[O-])O.[C@@H]([C@H](C(=O)[O-])O)(C(=O)[O-])O.[C@@H]([C@H](C(=O)[O-])O)(C(=O)[O-])O.[Al+3].[Al+3]

> <PUBCHEM_CACTVS_TPSA>
362

> <PUBCHEM_MONOISOTOPIC_WEIGHT>
497.965441

> <PUBCHEM_TOTAL_CHARGE>
0

> <PUBCHEM_HEAVY_ATOM_COUNT>
32

> <PUBCHEM_ATOM_DEF_STEREO_COUNT>
6

> <PUBCHEM_ATOM_UDEF_STEREO_COUNT>
0

> <PUBCHEM_BOND_DEF_STEREO_COUNT>
0

> <PUBCHEM_BOND_UDEF_STEREO_COUNT>
0

> <PUBCHEM_ISOTOPIC_ATOM_COUNT>
0

> <PUBCHEM_COMPONENT_COUNT>
5

> <PUBCHEM_CACTVS_TAUTO_COUNT>
1

> <PUBCHEM_COORDINATE_TYPE>
1
5
255

> <PUBCHEM_BONDANNOTATIONS>
21  3  5
22  4  5
23  5  6
24  6  6
25  7  6
26  8  6

$$$$

