17396203
  -OEChem-06241222553D

 47 49  0     0  0  0  0  0  0999 V2000
   -4.1764   -1.3111   -2.7333 Cl  0  0  0  0  0  0  0  0  0  0  0  0
    2.5537   -1.1202    1.5629 S   0  0  0  0  0  0  0  0  0  0  0  0
    4.5705   -0.8846   -0.6266 F   0  0  0  0  0  0  0  0  0  0  0  0
   -3.5481    0.9715    2.6181 F   0  0  0  0  0  0  0  0  0  0  0  0
   -0.3553   -3.0832   -1.2533 O   0  0  0  0  0  0  0  0  0  0  0  0
    3.8255   -1.8043    1.6600 O   0  0  0  0  0  0  0  0  0  0  0  0
    1.8919   -0.6060    2.7430 O   0  0  0  0  0  0  0  0  0  0  0  0
   -0.8869    2.1328   -1.5367 O   0  0  0  0  0  0  0  0  0  0  0  0
    1.4548   -2.1032    0.6926 N   0  0  0  0  0  0  0  0  0  0  0  0
    1.1762    3.4848   -0.3340 N   0  0  0  0  0  0  0  0  0  0  0  0
   -1.8787    1.8705    0.5758 N   0  0  0  0  0  0  0  0  0  0  0  0
    0.0588   -1.5834    0.6040 C   0  0  0  0  0  0  0  0  0  0  0  0
    1.9337   -2.5804   -0.6378 C   0  0  0  0  0  0  0  0  0  0  0  0
   -0.8338   -2.6747    0.0300 C   0  0  0  0  0  0  0  0  0  0  0  0
    0.9621   -3.6295   -1.1598 C   0  0  0  0  0  0  0  0  0  0  0  0
    2.7444    0.2138    0.4223 C   0  0  0  0  0  0  0  0  0  0  0  0
    1.8915    1.3153    0.4938 C   0  0  0  0  0  0  0  0  0  0  0  0
    3.7450    0.1683   -0.5485 C   0  0  0  0  0  0  0  0  0  0  0  0
    2.0389    2.3711   -0.4058 C   0  0  0  0  0  0  0  0  0  0  0  0
    3.8925    1.2243   -1.4478 C   0  0  0  0  0  0  0  0  0  0  0  0
    3.0394    2.3257   -1.3766 C   0  0  0  0  0  0  0  0  0  0  0  0
   -0.0948    3.4416    0.3201 C   0  0  0  0  0  0  0  0  0  0  0  0
   -0.9831    2.4079   -0.3449 C   0  0  0  0  0  0  0  0  0  0  0  0
   -2.8656    0.8830    0.3442 C   0  0  0  0  0  0  0  0  0  0  0  0
   -3.0174    0.3373   -0.9306 C   0  0  0  0  0  0  0  0  0  0  0  0
   -3.6849    0.4544    1.3886 C   0  0  0  0  0  0  0  0  0  0  0  0
   -3.9890   -0.6367   -1.1610 C   0  0  0  0  0  0  0  0  0  0  0  0
   -4.6564   -0.5198    1.1581 C   0  0  0  0  0  0  0  0  0  0  0  0
   -4.8084   -1.0651   -0.1166 C   0  0  0  0  0  0  0  0  0  0  0  0
   -0.3121   -1.3002    1.5931 H   0  0  0  0  0  0  0  0  0  0  0  0
    0.0318   -0.7142   -0.0599 H   0  0  0  0  0  0  0  0  0  0  0  0
    1.9567   -1.7487   -1.3484 H   0  0  0  0  0  0  0  0  0  0  0  0
    2.9305   -3.0223   -0.5518 H   0  0  0  0  0  0  0  0  0  0  0  0
   -0.8740   -3.5469    0.6938 H   0  0  0  0  0  0  0  0  0  0  0  0
   -1.8548   -2.3101   -0.0920 H   0  0  0  0  0  0  0  0  0  0  0  0
    1.2618   -3.9523   -2.1617 H   0  0  0  0  0  0  0  0  0  0  0  0
    0.9423   -4.5161   -0.5148 H   0  0  0  0  0  0  0  0  0  0  0  0
    1.1280    1.3381    1.2646 H   0  0  0  0  0  0  0  0  0  0  0  0
    4.6714    1.1884   -2.2038 H   0  0  0  0  0  0  0  0  0  0  0  0
    3.1645    3.1415   -2.0839 H   0  0  0  0  0  0  0  0  0  0  0  0
    1.3565    4.2445   -0.9817 H   0  0  0  0  0  0  0  0  0  0  0  0
   -0.5922    4.4123    0.2120 H   0  0  0  0  0  0  0  0  0  0  0  0
    0.0179    3.2642    1.3950 H   0  0  0  0  0  0  0  0  0  0  0  0
   -1.8398    2.2141    1.5329 H   0  0  0  0  0  0  0  0  0  0  0  0
   -2.4122    0.6248   -1.7788 H   0  0  0  0  0  0  0  0  0  0  0  0
   -5.2939   -0.8535    1.9715 H   0  0  0  0  0  0  0  0  0  0  0  0
   -5.5691   -1.8239   -0.2813 H   0  0  0  0  0  0  0  0  0  0  0  0
  1 27  1  0  0  0  0
  2  6  2  0  0  0  0
  2  7  2  0  0  0  0
  2  9  1  0  0  0  0
  2 16  1  0  0  0  0
  3 18  1  0  0  0  0
  4 26  1  0  0  0  0
  5 14  1  0  0  0  0
  5 15  1  0  0  0  0
  8 23  2  0  0  0  0
  9 12  1  0  0  0  0
  9 13  1  0  0  0  0
 10 19  1  0  0  0  0
 10 22  1  0  0  0  0
 10 41  1  0  0  0  0
 11 23  1  0  0  0  0
 11 24  1  0  0  0  0
 11 44  1  0  0  0  0
 12 14  1  0  0  0  0
 12 30  1  0  0  0  0
 12 31  1  0  0  0  0
 13 15  1  0  0  0  0
 13 32  1  0  0  0  0
 13 33  1  0  0  0  0
 14 34  1  0  0  0  0
 14 35  1  0  0  0  0
 15 36  1  0  0  0  0
 15 37  1  0  0  0  0
 16 17  1  0  0  0  0
 16 18  2  0  0  0  0
 17 19  2  0  0  0  0
 17 38  1  0  0  0  0
 18 20  1  0  0  0  0
 19 21  1  0  0  0  0
 20 21  2  0  0  0  0
 20 39  1  0  0  0  0
 21 40  1  0  0  0  0
 22 23  1  0  0  0  0
 22 42  1  0  0  0  0
 22 43  1  0  0  0  0
 24 25  1  0  0  0  0
 24 26  2  0  0  0  0
 25 27  2  0  0  0  0
 25 45  1  0  0  0  0
 26 28  1  0  0  0  0
 27 29  1  0  0  0  0
 28 29  2  0  0  0  0
 28 46  1  0  0  0  0
 29 47  1  0  0  0  0
M  END
> <PUBCHEM_COMPOUND_CID>
17396203

> <PUBCHEM_CONFORMER_RMSD>
1.2

> <PUBCHEM_CONFORMER_DIVERSEORDER>
4
66
68
14
77
98
28
106
133
114
126
63
86
108
90
115
44
22
74
36
65
83
25
64
127
129
67
15
107
19
80
56
39
26
130
21
2
122
121
87
104
57
50
124
134
72
131
132
123
101
33
5
116
120
97
45
10
6
47
85
48
17
78
40
118
128
138
43
41
139
137
105
31
11
89
3
79
109
113
91
135
84
96
23
119
29
20
102
58
136
59
110
61
24
7
94
93
88
54
37
35
100
76
103
70
75
9
112
82
32
13
117
69
60
99
1
95
51
81
49
42
71
111
30
62
52
8
46
53
55
27
12
16
73
34
18
125
92
38

> <PUBCHEM_MMFF94_PARTIAL_CHARGES>
37
1 -0.18
10 -0.87
11 -0.55
12 0.36
13 0.36
14 0.28
15 0.28
16 -0.01
17 -0.15
18 0.19
19 0.1
2 1.45
20 -0.15
21 -0.15
22 0.43
23 0.57
24 0.12
25 -0.15
26 0.19
27 0.18
28 -0.15
29 -0.15
3 -0.19
38 0.15
39 0.15
4 -0.19
40 0.15
41 0.4
44 0.37
45 0.15
46 0.15
47 0.15
5 -0.56
6 -0.65
7 -0.65
8 -0.57
9 -0.85

> <PUBCHEM_EFFECTIVE_ROTOR_COUNT>
8.2

> <PUBCHEM_PHARMACOPHORE_FEATURES>
10
1 10 cation
1 10 donor
1 11 donor
1 5 acceptor
1 6 acceptor
1 7 acceptor
1 8 acceptor
6 16 17 18 19 20 21 rings
6 24 25 26 27 28 29 rings
6 5 9 12 13 14 15 rings

> <PUBCHEM_HEAVY_ATOM_COUNT>
29

> <PUBCHEM_ATOM_DEF_STEREO_COUNT>
0

> <PUBCHEM_ATOM_UDEF_STEREO_COUNT>
0

> <PUBCHEM_BOND_DEF_STEREO_COUNT>
0

> <PUBCHEM_BOND_UDEF_STEREO_COUNT>
0

> <PUBCHEM_ISOTOPIC_ATOM_COUNT>
0

> <PUBCHEM_COMPONENT_COUNT>
1

> <PUBCHEM_CACTVS_TAUTO_COUNT>
2

> <PUBCHEM_CONFORMER_ID>
010971EB00000004

> <PUBCHEM_MMFF94_ENERGY>
68.1976

> <PUBCHEM_FEATURE_SELFOVERLAP>
50.761

> <PUBCHEM_SHAPE_FINGERPRINT>
11828532 37 16081376190351578863
12156800 1 14284194506459635240
12422481 6 17757854573197385458
12553582 1 18411140242451580857
12596599 1 17894918416645690245
13122387 1 18339362950800702493
13224815 77 18201716310111741483
13583140 156 17275110535040519451
14117953 113 18264500662015404767
14747281 78 17489035958879933309
14840074 17 18341884161555510797
15001296 14 18120939404519527283
15297060 5 17895741899162605155
17138139 8 17177170197045631679
17492 54 18271525299464637549
19319366 153 17916862405673293450
20764821 26 18051970608646862823
21315764 371 17604450491503158971
235170 7 16415478212324187069
238 59 18129401340079596733
25222932 49 17559379276709020675
2637199 183 18339346488381123374
3737641 26 18117542145101403758
445580 8 18334010627160284757
463206 1 18410859815705073965
6287921 2 18114733962482016239

> <PUBCHEM_SHAPE_MULTIPOLES>
549.56
8.8
4.2
2.06
5.33
0.12
0.32
0.86
-0.74
-2.13
-1.05
0.97
0.44
-1.96

> <PUBCHEM_SHAPE_SELFOVERLAP>
1150.327

> <PUBCHEM_SHAPE_VOLUME>
312.6

> <PUBCHEM_COORDINATE_TYPE>
2
5
10

$$$$

