47205559
  -OEChem-06241222592D

 29 29  0     0  0  0  0  0  0999 V2000
    3.7320   -0.1900    0.0000 O   0  0  0  0  0  0  0  0  0  0  0  0
    5.4641    0.8100    0.0000 O   0  0  0  0  0  0  0  0  0  0  0  0
    8.0622   -0.6900    0.0000 N   0  0  0  0  0  0  0  0  0  0  0  0
    4.5981   -0.6900    0.0000 N   0  0  0  0  0  0  0  0  0  0  0  0
    9.7942   -0.6900    0.0000 N   0  0  0  0  0  0  0  0  0  0  0  0
    8.9282    0.8100    0.0000 N   0  0  0  0  0  0  0  0  0  0  0  0
    7.1962   -0.1900    0.0000 C   0  0  0  0  0  0  0  0  0  0  0  0
    6.3301   -0.6900    0.0000 C   0  0  0  0  0  0  0  0  0  0  0  0
    5.4641   -0.1900    0.0000 C   0  0  0  0  0  0  0  0  0  0  0  0
    8.9282   -0.1900    0.0000 C   0  0  0  0  0  0  0  0  0  0  0  0
    2.8660   -0.6900    0.0000 C   0  0  0  0  0  0  0  0  0  0  0  0
    2.0000   -0.1900    0.0000 C   0  0  0  0  0  0  0  0  0  0  0  0
   10.6603   -0.1900    0.0000 C   0  0  0  0  0  0  0  0  0  0  0  0
    9.7942    1.3100    0.0000 C   0  0  0  0  0  0  0  0  0  0  0  0
   10.6603    0.8100    0.0000 C   0  0  0  0  0  0  0  0  0  0  0  0
    7.5947    0.2849    0.0000 H   0  0  0  0  0  0  0  0  0  0  0  0
    6.7976    0.2849    0.0000 H   0  0  0  0  0  0  0  0  0  0  0  0
    5.9316   -1.1650    0.0000 H   0  0  0  0  0  0  0  0  0  0  0  0
    6.7287   -1.1650    0.0000 H   0  0  0  0  0  0  0  0  0  0  0  0
    8.0622   -1.3100    0.0000 H   0  0  0  0  0  0  0  0  0  0  0  0
    4.5981   -1.3100    0.0000 H   0  0  0  0  0  0  0  0  0  0  0  0
    2.4675   -1.1650    0.0000 H   0  0  0  0  0  0  0  0  0  0  0  0
    3.2646   -1.1650    0.0000 H   0  0  0  0  0  0  0  0  0  0  0  0
    2.3100    0.3469    0.0000 H   0  0  0  0  0  0  0  0  0  0  0  0
    1.4631    0.1200    0.0000 H   0  0  0  0  0  0  0  0  0  0  0  0
    1.6900   -0.7269    0.0000 H   0  0  0  0  0  0  0  0  0  0  0  0
   11.1972   -0.5000    0.0000 H   0  0  0  0  0  0  0  0  0  0  0  0
    9.7942    1.9300    0.0000 H   0  0  0  0  0  0  0  0  0  0  0  0
   11.1972    1.1200    0.0000 H   0  0  0  0  0  0  0  0  0  0  0  0
  1  4  1  0  0  0  0
  1 11  1  0  0  0  0
  2  9  2  0  0  0  0
  3  7  1  0  0  0  0
  3 10  1  0  0  0  0
  3 20  1  0  0  0  0
  4  9  1  0  0  0  0
  4 21  1  0  0  0  0
  5 10  1  0  0  0  0
  5 13  2  0  0  0  0
  6 10  2  0  0  0  0
  6 14  1  0  0  0  0
  7  8  1  0  0  0  0
  7 16  1  0  0  0  0
  7 17  1  0  0  0  0
  8  9  1  0  0  0  0
  8 18  1  0  0  0  0
  8 19  1  0  0  0  0
 11 12  1  0  0  0  0
 11 22  1  0  0  0  0
 11 23  1  0  0  0  0
 12 24  1  0  0  0  0
 12 25  1  0  0  0  0
 12 26  1  0  0  0  0
 13 15  1  0  0  0  0
 13 27  1  0  0  0  0
 14 15  2  0  0  0  0
 14 28  1  0  0  0  0
 15 29  1  0  0  0  0
M  END
> <PUBCHEM_COMPOUND_CID>
47205559

> <PUBCHEM_COMPOUND_CANONICALIZED>
1

> <PUBCHEM_CACTVS_COMPLEXITY>
183

> <PUBCHEM_CACTVS_HBOND_ACCEPTOR>
5

> <PUBCHEM_CACTVS_HBOND_DONOR>
2

> <PUBCHEM_CACTVS_ROTATABLE_BOND>
6

> <PUBCHEM_CACTVS_SUBSKEYS>
AAADccBzsAAAAAAAAAAAAAAAAAAAAAAAAAAsAAAAAAAAAAABgAAAHgAUAAAACADhkgY/kJbYEACoADF3dACAgCkRAqApUKE4ZBCACIhASUAEBAgIEAJAACAAAAAAAAAAAAAAAAAAAAAAAAAAAAAAAAAAAA==

> <PUBCHEM_IUPAC_OPENEYE_NAME>
N-ethoxy-3-(pyrimidin-2-ylamino)propanamide

> <PUBCHEM_IUPAC_CAS_NAME>
N-ethoxy-3-(2-pyrimidinylamino)propanamide

> <PUBCHEM_IUPAC_NAME>
N-ethoxy-3-(pyrimidin-2-ylamino)propanamide

> <PUBCHEM_IUPAC_SYSTEMATIC_NAME>
N-ethoxy-3-(pyrimidin-2-ylamino)propanamide

> <PUBCHEM_IUPAC_TRADITIONAL_NAME>
N-ethoxy-3-(2-pyrimidylamino)propionamide

> <PUBCHEM_IUPAC_INCHI>
InChI=1S/C9H14N4O2/c1-2-15-13-8(14)4-7-12-9-10-5-3-6-11-9/h3,5-6H,2,4,7H2,1H3,(H,13,14)(H,10,11,12)

> <PUBCHEM_IUPAC_INCHIKEY>
AXPHNKGUXKFSCB-UHFFFAOYSA-N

> <PUBCHEM_XLOGP3_AA>
0.7

> <PUBCHEM_EXACT_MASS>
210.111676

> <PUBCHEM_MOLECULAR_FORMULA>
C9H14N4O2

> <PUBCHEM_MOLECULAR_WEIGHT>
210.23306

> <PUBCHEM_OPENEYE_CAN_SMILES>
CCONC(=O)CCNC1=NC=CC=N1

> <PUBCHEM_OPENEYE_ISO_SMILES>
CCONC(=O)CCNC1=NC=CC=N1

> <PUBCHEM_CACTVS_TPSA>
76.1

> <PUBCHEM_MONOISOTOPIC_WEIGHT>
210.111676

> <PUBCHEM_TOTAL_CHARGE>
0

> <PUBCHEM_HEAVY_ATOM_COUNT>
15

> <PUBCHEM_ATOM_DEF_STEREO_COUNT>
0

> <PUBCHEM_ATOM_UDEF_STEREO_COUNT>
0

> <PUBCHEM_BOND_DEF_STEREO_COUNT>
0

> <PUBCHEM_BOND_UDEF_STEREO_COUNT>
0

> <PUBCHEM_ISOTOPIC_ATOM_COUNT>
0

> <PUBCHEM_COMPONENT_COUNT>
1

> <PUBCHEM_CACTVS_TAUTO_COUNT>
6

> <PUBCHEM_COORDINATE_TYPE>
1
5
255

> <PUBCHEM_BONDANNOTATIONS>
13  15  8
14  15  8
5  10  8
5  13  8
6  10  8
6  14  8

$$$$

