17396458
  -OEChem-06241222562D

 60 64  0     0  0  0  0  0  0999 V2000
   14.2045   -2.6081    0.0000 S   0  0  0  0  0  0  0  0  0  0  0  0
   15.4472    2.8034    0.0000 F   0  0  0  0  0  0  0  0  0  0  0  0
    9.7942   -2.3034    0.0000 O   0  0  0  0  0  0  0  0  0  0  0  0
   12.3923    0.1966    0.0000 O   0  0  0  0  0  0  0  0  0  0  0  0
    2.8660   -1.3034    0.0000 O   0  0  0  0  0  0  0  0  0  0  0  0
    7.1962    0.1966    0.0000 N   0  0  0  0  0  0  0  0  0  0  0  0
    8.9282   -0.8034    0.0000 N   0  0  0  0  0  0  0  0  0  0  0  0
   11.5263   -1.3034    0.0000 N   0  0  0  0  0  0  0  0  0  0  0  0
   12.3923   -2.8034    0.0000 N   0  0  0  0  0  0  0  0  0  0  0  0
    8.0622    0.6966    0.0000 C   0  0  0  0  0  0  0  0  0  0  0  0
    7.1962   -0.8034    0.0000 C   0  0  0  0  0  0  0  0  0  0  0  0
    8.9282    0.1966    0.0000 C   0  0  0  0  0  0  0  0  0  0  0  0
    8.0622   -1.3034    0.0000 C   0  0  0  0  0  0  0  0  0  0  0  0
    6.3301    0.6966    0.0000 C   0  0  0  0  0  0  0  0  0  0  0  0
    9.7942   -1.3034    0.0000 C   0  0  0  0  0  0  0  0  0  0  0  0
    5.4641    0.1966    0.0000 C   0  0  0  0  0  0  0  0  0  0  0  0
   10.6603   -0.8034    0.0000 C   0  0  0  0  0  0  0  0  0  0  0  0
    4.5981    0.6966    0.0000 C   0  0  0  0  0  0  0  0  0  0  0  0
    5.4641   -0.8034    0.0000 C   0  0  0  0  0  0  0  0  0  0  0  0
   12.3923   -0.8034    0.0000 C   0  0  0  0  0  0  0  0  0  0  0  0
   13.2583   -1.3034    0.0000 C   0  0  0  0  0  0  0  0  0  0  0  0
   11.5263   -2.3034    0.0000 C   0  0  0  0  0  0  0  0  0  0  0  0
    3.7320    0.1966    0.0000 C   0  0  0  0  0  0  0  0  0  0  0  0
    4.5981   -1.3034    0.0000 C   0  0  0  0  0  0  0  0  0  0  0  0
   14.2045   -0.9987    0.0000 C   0  0  0  0  0  0  0  0  0  0  0  0
   13.2583   -2.3034    0.0000 C   0  0  0  0  0  0  0  0  0  0  0  0
    3.7320   -0.8034    0.0000 C   0  0  0  0  0  0  0  0  0  0  0  0
   14.5152   -0.0482    0.0000 C   0  0  0  0  0  0  0  0  0  0  0  0
   14.7882   -1.8034    0.0000 C   0  0  0  0  0  0  0  0  0  0  0  0
   15.4937    0.1581    0.0000 C   0  0  0  0  0  0  0  0  0  0  0  0
   13.8474    0.6961    0.0000 C   0  0  0  0  0  0  0  0  0  0  0  0
   15.8044    1.1086    0.0000 C   0  0  0  0  0  0  0  0  0  0  0  0
   14.1580    1.6467    0.0000 C   0  0  0  0  0  0  0  0  0  0  0  0
   15.1365    1.8529    0.0000 C   0  0  0  0  0  0  0  0  0  0  0  0
    2.0000   -0.8034    0.0000 C   0  0  0  0  0  0  0  0  0  0  0  0
    6.5856   -0.6957    0.0000 H   0  0  0  0  0  0  0  0  0  0  0  0
    6.9841   -1.3860    0.0000 H   0  0  0  0  0  0  0  0  0  0  0  0
    8.4607    1.1715    0.0000 H   0  0  0  0  0  0  0  0  0  0  0  0
    7.6636    1.1715    0.0000 H   0  0  0  0  0  0  0  0  0  0  0  0
    9.5388    0.0889    0.0000 H   0  0  0  0  0  0  0  0  0  0  0  0
    9.1403    0.7792    0.0000 H   0  0  0  0  0  0  0  0  0  0  0  0
    7.6636   -1.7784    0.0000 H   0  0  0  0  0  0  0  0  0  0  0  0
    8.4607   -1.7784    0.0000 H   0  0  0  0  0  0  0  0  0  0  0  0
    6.7287    1.1715    0.0000 H   0  0  0  0  0  0  0  0  0  0  0  0
    5.9316    1.1715    0.0000 H   0  0  0  0  0  0  0  0  0  0  0  0
   11.0588   -0.3285    0.0000 H   0  0  0  0  0  0  0  0  0  0  0  0
   10.2617   -0.3285    0.0000 H   0  0  0  0  0  0  0  0  0  0  0  0
    4.5981    1.3166    0.0000 H   0  0  0  0  0  0  0  0  0  0  0  0
    6.0010   -1.1134    0.0000 H   0  0  0  0  0  0  0  0  0  0  0  0
   10.9893   -2.6134    0.0000 H   0  0  0  0  0  0  0  0  0  0  0  0
    3.1951    0.5066    0.0000 H   0  0  0  0  0  0  0  0  0  0  0  0
    4.5981   -1.9234    0.0000 H   0  0  0  0  0  0  0  0  0  0  0  0
   15.4082   -1.8034    0.0000 H   0  0  0  0  0  0  0  0  0  0  0  0
   15.9078   -0.3034    0.0000 H   0  0  0  0  0  0  0  0  0  0  0  0
   13.2407    0.5683    0.0000 H   0  0  0  0  0  0  0  0  0  0  0  0
   16.4111    1.2364    0.0000 H   0  0  0  0  0  0  0  0  0  0  0  0
   13.7440    2.1081    0.0000 H   0  0  0  0  0  0  0  0  0  0  0  0
    2.3100   -0.2665    0.0000 H   0  0  0  0  0  0  0  0  0  0  0  0
    1.4631   -0.4934    0.0000 H   0  0  0  0  0  0  0  0  0  0  0  0
    1.6900   -1.3403    0.0000 H   0  0  0  0  0  0  0  0  0  0  0  0
  1 26  1  0  0  0  0
  1 29  1  0  0  0  0
  2 34  1  0  0  0  0
  3 15  2  0  0  0  0
  4 20  2  0  0  0  0
  5 27  1  0  0  0  0
  5 35  1  0  0  0  0
  6 10  1  0  0  0  0
  6 11  1  0  0  0  0
  6 14  1  0  0  0  0
  7 12  1  0  0  0  0
  7 13  1  0  0  0  0
  7 15  1  0  0  0  0
  8 17  1  0  0  0  0
  8 20  1  0  0  0  0
  8 22  1  0  0  0  0
  9 22  2  0  0  0  0
  9 26  1  0  0  0  0
 10 12  1  0  0  0  0
 10 38  1  0  0  0  0
 10 39  1  0  0  0  0
 11 13  1  0  0  0  0
 11 36  1  0  0  0  0
 11 37  1  0  0  0  0
 12 40  1  0  0  0  0
 12 41  1  0  0  0  0
 13 42  1  0  0  0  0
 13 43  1  0  0  0  0
 14 16  1  0  0  0  0
 14 44  1  0  0  0  0
 14 45  1  0  0  0  0
 15 17  1  0  0  0  0
 16 18  2  0  0  0  0
 16 19  1  0  0  0  0
 17 46  1  0  0  0  0
 17 47  1  0  0  0  0
 18 23  1  0  0  0  0
 18 48  1  0  0  0  0
 19 24  2  0  0  0  0
 19 49  1  0  0  0  0
 20 21  1  0  0  0  0
 21 25  1  0  0  0  0
 21 26  2  0  0  0  0
 22 50  1  0  0  0  0
 23 27  2  0  0  0  0
 23 51  1  0  0  0  0
 24 27  1  0  0  0  0
 24 52  1  0  0  0  0
 25 28  1  0  0  0  0
 25 29  2  0  0  0  0
 28 30  2  0  0  0  0
 28 31  1  0  0  0  0
 29 53  1  0  0  0  0
 30 32  1  0  0  0  0
 30 54  1  0  0  0  0
 31 33  2  0  0  0  0
 31 55  1  0  0  0  0
 32 34  2  0  0  0  0
 32 56  1  0  0  0  0
 33 34  1  0  0  0  0
 33 57  1  0  0  0  0
 35 58  1  0  0  0  0
 35 59  1  0  0  0  0
 35 60  1  0  0  0  0
M  END
> <PUBCHEM_COMPOUND_CID>
17396458

> <PUBCHEM_COMPOUND_CANONICALIZED>
1

> <PUBCHEM_CACTVS_COMPLEXITY>
777

> <PUBCHEM_CACTVS_HBOND_ACCEPTOR>
7

> <PUBCHEM_CACTVS_HBOND_DONOR>
0

> <PUBCHEM_CACTVS_ROTATABLE_BOND>
6

> <PUBCHEM_CACTVS_SUBSKEYS>
AAADceB7sQBAAAAAAAAAAAAAAAAAASAAAAA8YIEAAAAAAEAB0AAAHwQAAAAADATF2A6zh4MABAisAiFTdACDCIFkKBAJiBGOTMgMZjqk/buUMahkxhGo6UeY2MKOoAAAAAAAAABAAAAAAAAAAAAAAAAAAA==

> <PUBCHEM_IUPAC_OPENEYE_NAME>
5-(4-fluorophenyl)-3-[2-[4-[(4-methoxyphenyl)methyl]piperazin-1-yl]-2-oxo-ethyl]thieno[2,3-d]pyrimidin-4-one

> <PUBCHEM_IUPAC_CAS_NAME>
5-(4-fluorophenyl)-3-[2-[4-[(4-methoxyphenyl)methyl]-1-piperazinyl]-2-oxoethyl]-4-thieno[2,3-d]pyrimidinone

> <PUBCHEM_IUPAC_NAME>
5-(4-fluorophenyl)-3-[2-[4-[(4-methoxyphenyl)methyl]piperazin-1-yl]-2-oxoethyl]thieno[2,3-d]pyrimidin-4-one

> <PUBCHEM_IUPAC_SYSTEMATIC_NAME>
5-(4-fluorophenyl)-3-[2-[4-[(4-methoxyphenyl)methyl]piperazin-1-yl]-2-oxidanylidene-ethyl]thieno[2,3-d]pyrimidin-4-one

> <PUBCHEM_IUPAC_TRADITIONAL_NAME>
5-(4-fluorophenyl)-3-[2-keto-2-(4-p-anisylpiperazino)ethyl]thieno[2,3-d]pyrimidin-4-one

> <PUBCHEM_IUPAC_INCHI>
InChI=1S/C26H25FN4O3S/c1-34-21-8-2-18(3-9-21)14-29-10-12-30(13-11-29)23(32)15-31-17-28-25-24(26(31)33)22(16-35-25)19-4-6-20(27)7-5-19/h2-9,16-17H,10-15H2,1H3

> <PUBCHEM_IUPAC_INCHIKEY>
MKOKLPVPSWGIDX-UHFFFAOYSA-N

> <PUBCHEM_XLOGP3_AA>
3.4

> <PUBCHEM_EXACT_MASS>
492.16314

> <PUBCHEM_MOLECULAR_FORMULA>
C26H25FN4O3S

> <PUBCHEM_MOLECULAR_WEIGHT>
492.565103

> <PUBCHEM_OPENEYE_CAN_SMILES>
COC1=CC=C(C=C1)CN2CCN(CC2)C(=O)CN3C=NC4=C(C3=O)C(=CS4)C5=CC=C(C=C5)F

> <PUBCHEM_OPENEYE_ISO_SMILES>
COC1=CC=C(C=C1)CN2CCN(CC2)C(=O)CN3C=NC4=C(C3=O)C(=CS4)C5=CC=C(C=C5)F

> <PUBCHEM_CACTVS_TPSA>
93.7

> <PUBCHEM_MONOISOTOPIC_WEIGHT>
492.16314

> <PUBCHEM_TOTAL_CHARGE>
0

> <PUBCHEM_HEAVY_ATOM_COUNT>
35

> <PUBCHEM_ATOM_DEF_STEREO_COUNT>
0

> <PUBCHEM_ATOM_UDEF_STEREO_COUNT>
0

> <PUBCHEM_BOND_DEF_STEREO_COUNT>
0

> <PUBCHEM_BOND_UDEF_STEREO_COUNT>
0

> <PUBCHEM_ISOTOPIC_ATOM_COUNT>
0

> <PUBCHEM_COMPONENT_COUNT>
1

> <PUBCHEM_CACTVS_TAUTO_COUNT>
1

> <PUBCHEM_COORDINATE_TYPE>
1
5
255

> <PUBCHEM_BONDANNOTATIONS>
1  26  8
1  29  8
16  18  8
16  19  8
18  23  8
19  24  8
20  21  8
21  25  8
21  26  8
23  27  8
24  27  8
25  29  8
28  30  8
28  31  8
30  32  8
31  33  8
32  34  8
33  34  8
8  20  8
8  22  8
9  22  8
9  26  8

$$$$

