17396379
  -OEChem-06241222562D

 57 61  0     0  0  0  0  0  0999 V2000
   10.7619    0.3660    0.0000 S   0  0  0  0  0  0  0  0  0  0  0  0
    6.7619    0.3660    0.0000 S   0  0  0  0  0  0  0  0  0  0  0  0
    4.6783    2.0368    0.0000 S   0  0  0  0  0  0  0  0  0  0  0  0
   10.7619   -0.6340    0.0000 O   0  0  0  0  0  0  0  0  0  0  0  0
   10.7619    1.3660    0.0000 O   0  0  0  0  0  0  0  0  0  0  0  0
   11.7619    0.3660    0.0000 N   0  0  0  0  0  0  0  0  0  0  0  0
   13.7619    0.3660    0.0000 N   0  0  0  0  0  0  0  0  0  0  0  0
    8.2619    1.2320    0.0000 N   0  0  0  0  0  0  0  0  0  0  0  0
    4.6783    0.4273    0.0000 N   0  0  0  0  0  0  0  0  0  0  0  0
   12.2619   -0.5000    0.0000 C   0  0  0  0  0  0  0  0  0  0  0  0
   12.2619    1.2320    0.0000 C   0  0  0  0  0  0  0  0  0  0  0  0
   13.2619   -0.5000    0.0000 C   0  0  0  0  0  0  0  0  0  0  0  0
   13.2619    1.2320    0.0000 C   0  0  0  0  0  0  0  0  0  0  0  0
   14.7619    0.3660    0.0000 C   0  0  0  0  0  0  0  0  0  0  0  0
   15.2619   -0.5000    0.0000 C   0  0  0  0  0  0  0  0  0  0  0  0
    9.7619    0.3660    0.0000 C   0  0  0  0  0  0  0  0  0  0  0  0
    9.2619   -0.5000    0.0000 C   0  0  0  0  0  0  0  0  0  0  0  0
   14.7619   -1.3660    0.0000 C   0  0  0  0  0  0  0  0  0  0  0  0
   16.2619   -0.5000    0.0000 C   0  0  0  0  0  0  0  0  0  0  0  0
    9.2619    1.2320    0.0000 C   0  0  0  0  0  0  0  0  0  0  0  0
    8.2619   -0.5000    0.0000 C   0  0  0  0  0  0  0  0  0  0  0  0
   15.2619   -2.2320    0.0000 C   0  0  0  0  0  0  0  0  0  0  0  0
   16.7619   -1.3660    0.0000 C   0  0  0  0  0  0  0  0  0  0  0  0
    7.7619    0.3660    0.0000 C   0  0  0  0  0  0  0  0  0  0  0  0
   16.2619   -2.2320    0.0000 C   0  0  0  0  0  0  0  0  0  0  0  0
    6.2619    1.2320    0.0000 C   0  0  0  0  0  0  0  0  0  0  0  0
    5.2619    1.2320    0.0000 C   0  0  0  0  0  0  0  0  0  0  0  0
    3.7320    1.7320    0.0000 C   0  0  0  0  0  0  0  0  0  0  0  0
    3.7320    0.7321    0.0000 C   0  0  0  0  0  0  0  0  0  0  0  0
    2.8660    2.2320    0.0000 C   0  0  0  0  0  0  0  0  0  0  0  0
    2.8660    0.2321    0.0000 C   0  0  0  0  0  0  0  0  0  0  0  0
    2.0000    1.7320    0.0000 C   0  0  0  0  0  0  0  0  0  0  0  0
    2.0000    0.7321    0.0000 C   0  0  0  0  0  0  0  0  0  0  0  0
   12.3695    1.8426    0.0000 H   0  0  0  0  0  0  0  0  0  0  0  0
   11.6793    1.4441    0.0000 H   0  0  0  0  0  0  0  0  0  0  0  0
   11.6793   -0.7121    0.0000 H   0  0  0  0  0  0  0  0  0  0  0  0
   12.3695   -1.1106    0.0000 H   0  0  0  0  0  0  0  0  0  0  0  0
   13.8445    1.4441    0.0000 H   0  0  0  0  0  0  0  0  0  0  0  0
   13.1542    1.8426    0.0000 H   0  0  0  0  0  0  0  0  0  0  0  0
   13.1542   -1.1106    0.0000 H   0  0  0  0  0  0  0  0  0  0  0  0
   13.8445   -0.7121    0.0000 H   0  0  0  0  0  0  0  0  0  0  0  0
   15.3445    0.5781    0.0000 H   0  0  0  0  0  0  0  0  0  0  0  0
   14.6542    0.9766    0.0000 H   0  0  0  0  0  0  0  0  0  0  0  0
    9.5719   -1.0369    0.0000 H   0  0  0  0  0  0  0  0  0  0  0  0
   14.1419   -1.3660    0.0000 H   0  0  0  0  0  0  0  0  0  0  0  0
   16.5719    0.0369    0.0000 H   0  0  0  0  0  0  0  0  0  0  0  0
    9.5719    1.7690    0.0000 H   0  0  0  0  0  0  0  0  0  0  0  0
    7.9519   -1.0369    0.0000 H   0  0  0  0  0  0  0  0  0  0  0  0
   14.9519   -2.7690    0.0000 H   0  0  0  0  0  0  0  0  0  0  0  0
   17.3819   -1.3660    0.0000 H   0  0  0  0  0  0  0  0  0  0  0  0
   16.5719   -2.7690    0.0000 H   0  0  0  0  0  0  0  0  0  0  0  0
    6.8445    1.4441    0.0000 H   0  0  0  0  0  0  0  0  0  0  0  0
    6.1542    1.8426    0.0000 H   0  0  0  0  0  0  0  0  0  0  0  0
    2.8660    2.8521    0.0000 H   0  0  0  0  0  0  0  0  0  0  0  0
    2.8660   -0.3879    0.0000 H   0  0  0  0  0  0  0  0  0  0  0  0
    1.4631    2.0420    0.0000 H   0  0  0  0  0  0  0  0  0  0  0  0
    1.4631    0.4221    0.0000 H   0  0  0  0  0  0  0  0  0  0  0  0
  1  4  2  0  0  0  0
  1  5  2  0  0  0  0
  1  6  1  0  0  0  0
  1 16  1  0  0  0  0
  2 24  1  0  0  0  0
  2 26  1  0  0  0  0
  3 27  1  0  0  0  0
  3 28  1  0  0  0  0
  6 10  1  0  0  0  0
  6 11  1  0  0  0  0
  7 12  1  0  0  0  0
  7 13  1  0  0  0  0
  7 14  1  0  0  0  0
  8 20  1  0  0  0  0
  8 24  2  0  0  0  0
  9 27  2  0  0  0  0
  9 29  1  0  0  0  0
 10 12  1  0  0  0  0
 10 36  1  0  0  0  0
 10 37  1  0  0  0  0
 11 13  1  0  0  0  0
 11 34  1  0  0  0  0
 11 35  1  0  0  0  0
 12 40  1  0  0  0  0
 12 41  1  0  0  0  0
 13 38  1  0  0  0  0
 13 39  1  0  0  0  0
 14 15  1  0  0  0  0
 14 42  1  0  0  0  0
 14 43  1  0  0  0  0
 15 18  2  0  0  0  0
 15 19  1  0  0  0  0
 16 17  1  0  0  0  0
 16 20  2  0  0  0  0
 17 21  2  0  0  0  0
 17 44  1  0  0  0  0
 18 22  1  0  0  0  0
 18 45  1  0  0  0  0
 19 23  2  0  0  0  0
 19 46  1  0  0  0  0
 20 47  1  0  0  0  0
 21 24  1  0  0  0  0
 21 48  1  0  0  0  0
 22 25  2  0  0  0  0
 22 49  1  0  0  0  0
 23 25  1  0  0  0  0
 23 50  1  0  0  0  0
 25 51  1  0  0  0  0
 26 27  1  0  0  0  0
 26 52  1  0  0  0  0
 26 53  1  0  0  0  0
 28 29  1  0  0  0  0
 28 30  2  0  0  0  0
 29 31  2  0  0  0  0
 30 32  1  0  0  0  0
 30 54  1  0  0  0  0
 31 33  1  0  0  0  0
 31 55  1  0  0  0  0
 32 33  2  0  0  0  0
 32 56  1  0  0  0  0
 33 57  1  0  0  0  0
M  END
> <PUBCHEM_COMPOUND_CID>
17396379

> <PUBCHEM_COMPOUND_CANONICALIZED>
1

> <PUBCHEM_CACTVS_COMPLEXITY>
720

> <PUBCHEM_CACTVS_HBOND_ACCEPTOR>
8

> <PUBCHEM_CACTVS_HBOND_DONOR>
0

> <PUBCHEM_CACTVS_ROTATABLE_BOND>
7

> <PUBCHEM_CACTVS_SUBSKEYS>
AAADceB7sABgAAAAAAAAAAAAAAAAAWAAAAA8eIEAAAAAAFgB/AAAHAQAQAAADAjFXgS8wbMIEAqkAzRnRHDD8LBxCjhI2Dw4ZJgIYOLgkZGUIAhggADoyAcQgAAOAAAAAAAAAQAAAAAAAAACAAAAAAAAAA==

> <PUBCHEM_IUPAC_OPENEYE_NAME>
2-[[5-(4-benzylpiperazin-1-yl)sulfonyl-2-pyridyl]sulfanylmethyl]-1,3-benzothiazole

> <PUBCHEM_IUPAC_CAS_NAME>
2-[[[5-[[4-(phenylmethyl)-1-piperazinyl]sulfonyl]-2-pyridinyl]thio]methyl]-1,3-benzothiazole

> <PUBCHEM_IUPAC_NAME>
2-[[5-(4-benzylpiperazin-1-yl)sulfonylpyridin-2-yl]sulfanylmethyl]-1,3-benzothiazole

> <PUBCHEM_IUPAC_SYSTEMATIC_NAME>
2-[[5-[4-(phenylmethyl)piperazin-1-yl]sulfonylpyridin-2-yl]sulfanylmethyl]-1,3-benzothiazole

> <PUBCHEM_IUPAC_TRADITIONAL_NAME>
2-[[[5-(4-benzylpiperazino)sulfonyl-2-pyridyl]thio]methyl]-1,3-benzothiazole

> <PUBCHEM_IUPAC_INCHI>
InChI=1S/C24H24N4O2S3/c29-33(30,28-14-12-27(13-15-28)17-19-6-2-1-3-7-19)20-10-11-23(25-16-20)31-18-24-26-21-8-4-5-9-22(21)32-24/h1-11,16H,12-15,17-18H2

> <PUBCHEM_IUPAC_INCHIKEY>
KYEDUIGVLTYJSZ-UHFFFAOYSA-N

> <PUBCHEM_XLOGP3_AA>
4.1

> <PUBCHEM_EXACT_MASS>
496.106139

> <PUBCHEM_MOLECULAR_FORMULA>
C24H24N4O2S3

> <PUBCHEM_MOLECULAR_WEIGHT>
496.66796

> <PUBCHEM_OPENEYE_CAN_SMILES>
C1CN(CCN1CC2=CC=CC=C2)S(=O)(=O)C3=CN=C(C=C3)SCC4=NC5=CC=CC=C5S4

> <PUBCHEM_OPENEYE_ISO_SMILES>
C1CN(CCN1CC2=CC=CC=C2)S(=O)(=O)C3=CN=C(C=C3)SCC4=NC5=CC=CC=C5S4

> <PUBCHEM_CACTVS_TPSA>
128

> <PUBCHEM_MONOISOTOPIC_WEIGHT>
496.106139

> <PUBCHEM_TOTAL_CHARGE>
0

> <PUBCHEM_HEAVY_ATOM_COUNT>
33

> <PUBCHEM_ATOM_DEF_STEREO_COUNT>
0

> <PUBCHEM_ATOM_UDEF_STEREO_COUNT>
0

> <PUBCHEM_BOND_DEF_STEREO_COUNT>
0

> <PUBCHEM_BOND_UDEF_STEREO_COUNT>
0

> <PUBCHEM_ISOTOPIC_ATOM_COUNT>
0

> <PUBCHEM_COMPONENT_COUNT>
1

> <PUBCHEM_CACTVS_TAUTO_COUNT>
1

> <PUBCHEM_COORDINATE_TYPE>
1
5
255

> <PUBCHEM_BONDANNOTATIONS>
15  18  8
15  19  8
16  17  8
16  20  8
17  21  8
18  22  8
19  23  8
21  24  8
22  25  8
23  25  8
28  29  8
28  30  8
29  31  8
3  27  8
3  28  8
30  32  8
31  33  8
32  33  8
8  20  8
8  24  8
9  27  8
9  29  8

$$$$

