586306
  -OEChem-06241222463D

 27 28  0     0  0  0  0  0  0999 V2000
   -2.7408    0.2345    0.2981 S   0  0  0  0  0  0  0  0  0  0  0  0
    1.3344   -3.5841    0.1351 F   0  0  0  0  0  0  0  0  0  0  0  0
    0.3427    1.7906   -0.4530 O   0  0  0  0  0  0  0  0  0  0  0  0
    2.6769    2.2601   -0.1446 O   0  0  0  0  0  0  0  0  0  0  0  0
   -2.9728   -1.0607    0.9159 O   0  0  0  0  0  0  0  0  0  0  0  0
   -2.2133    1.3409    1.0798 O   0  0  0  0  0  0  0  0  0  0  0  0
   -0.3639   -0.4551   -0.6122 C   0  0  0  0  0  0  0  0  0  0  0  0
   -1.6982    0.0006   -1.1044 C   0  0  0  0  0  0  0  0  0  0  0  0
    0.6384    0.4611   -0.2904 C   0  0  0  0  0  0  0  0  0  0  0  0
    1.8895    0.0170    0.1540 C   0  0  0  0  0  0  0  0  0  0  0  0
    2.9552    1.0144    0.4924 C   0  0  0  0  0  0  0  0  0  0  0  0
   -0.1263   -1.8214   -0.4683 C   0  0  0  0  0  0  0  0  0  0  0  0
    2.1156   -1.3550    0.3072 C   0  0  0  0  0  0  0  0  0  0  0  0
    1.1103   -2.2708   -0.0061 C   0  0  0  0  0  0  0  0  0  0  0  0
    1.3320    2.6578    0.1127 C   0  0  0  0  0  0  0  0  0  0  0  0
   -4.2794    0.7699   -0.4161 C   0  0  0  0  0  0  0  0  0  0  0  0
   -2.1612   -0.7499   -1.7537 H   0  0  0  0  0  0  0  0  0  0  0  0
   -1.6416    0.9383   -1.6647 H   0  0  0  0  0  0  0  0  0  0  0  0
    3.0109    1.1640    1.5767 H   0  0  0  0  0  0  0  0  0  0  0  0
    3.9318    0.6744    0.1337 H   0  0  0  0  0  0  0  0  0  0  0  0
   -0.8960   -2.5494   -0.7110 H   0  0  0  0  0  0  0  0  0  0  0  0
    3.0752   -1.7177    0.6658 H   0  0  0  0  0  0  0  0  0  0  0  0
    1.1910    3.6449   -0.3383 H   0  0  0  0  0  0  0  0  0  0  0  0
    1.1597    2.7640    1.1918 H   0  0  0  0  0  0  0  0  0  0  0  0
   -4.9904    0.9391    0.3952 H   0  0  0  0  0  0  0  0  0  0  0  0
   -4.1085    1.6981   -0.9644 H   0  0  0  0  0  0  0  0  0  0  0  0
   -4.6491   -0.0120   -1.0817 H   0  0  0  0  0  0  0  0  0  0  0  0
  1  5  2  0  0  0  0
  1  6  2  0  0  0  0
  1  8  1  0  0  0  0
  1 16  1  0  0  0  0
  2 14  1  0  0  0  0
  3  9  1  0  0  0  0
  3 15  1  0  0  0  0
  4 11  1  0  0  0  0
  4 15  1  0  0  0  0
  7  8  1  0  0  0  0
  7  9  1  0  0  0  0
  7 12  2  0  0  0  0
  8 17  1  0  0  0  0
  8 18  1  0  0  0  0
  9 10  2  0  0  0  0
 10 11  1  0  0  0  0
 10 13  1  0  0  0  0
 11 19  1  0  0  0  0
 11 20  1  0  0  0  0
 12 14  1  0  0  0  0
 12 21  1  0  0  0  0
 13 14  2  0  0  0  0
 13 22  1  0  0  0  0
 15 23  1  0  0  0  0
 15 24  1  0  0  0  0
 16 25  1  0  0  0  0
 16 26  1  0  0  0  0
 16 27  1  0  0  0  0
M  END
> <PUBCHEM_COMPOUND_CID>
586306

> <PUBCHEM_CONFORMER_RMSD>
0.6

> <PUBCHEM_CONFORMER_DIVERSEORDER>
1
6
9
5
7
2
4
3
8

> <PUBCHEM_MMFF94_PARTIAL_CHARGES>
18
1 1.09
10 -0.14
11 0.42
12 -0.15
13 -0.15
14 0.19
15 0.56
16 0.11
2 -0.19
21 0.15
22 0.15
3 -0.36
4 -0.56
5 -0.65
6 -0.65
7 -0.14
8 0.25
9 0.08

> <PUBCHEM_EFFECTIVE_ROTOR_COUNT>
2.8

> <PUBCHEM_PHARMACOPHORE_FEATURES>
6
1 3 acceptor
1 4 acceptor
1 5 acceptor
1 6 acceptor
6 3 4 9 10 11 15 rings
6 7 9 10 12 13 14 rings

> <PUBCHEM_HEAVY_ATOM_COUNT>
16

> <PUBCHEM_ATOM_DEF_STEREO_COUNT>
0

> <PUBCHEM_ATOM_UDEF_STEREO_COUNT>
0

> <PUBCHEM_BOND_DEF_STEREO_COUNT>
0

> <PUBCHEM_BOND_UDEF_STEREO_COUNT>
0

> <PUBCHEM_ISOTOPIC_ATOM_COUNT>
0

> <PUBCHEM_COMPONENT_COUNT>
1

> <PUBCHEM_CACTVS_TAUTO_COUNT>
1

> <PUBCHEM_CONFORMER_ID>
0008F24200000001

> <PUBCHEM_MMFF94_ENERGY>
37.9686

> <PUBCHEM_FEATURE_SELFOVERLAP>
30.528

> <PUBCHEM_SHAPE_FINGERPRINT>
10967382 1 18410296946944548612
10980938 120 18411140250967467533
11471102 22 18343011186184531313
12553582 1 17834387204702170675
13140716 1 18339093609455094114
14790565 3 18411411818040922868
14817 1 17401745446549537086
15309172 13 18339924792510259917
15442244 35 17975976780462202009
15502708 68 18411421687141636456
15775835 57 17822009779143654569
15906896 17 17756709628761499942
16945 1 18339089297022884294
17841504 4 18195523916406135803
19049666 15 17914623988740501309
193761 8 17761500583565867668
19591789 44 18410568509722490998
20510252 161 17543070078509193392
20559304 39 18334857272430344073
20645477 70 18341621442669339583
21524375 3 18115588128091630701
21639500 275 18338254712084380349
2334 1 18194972846411285686
23419403 2 17251224911842036161
23526113 38 17553514734788235935
2748010 2 18340775844965287494
305870 269 18410293571063486565
7364860 26 18336545009772785079
81228 2 17259633538758188982
8272917 22 18409165545701629565

> <PUBCHEM_SHAPE_MULTIPOLES>
302.37
5.13
3.03
0.87
4.69
1.07
0.01
-1.68
0.66
-2.51
0.12
0.42
-0.03
-0.04

> <PUBCHEM_SHAPE_SELFOVERLAP>
631.326

> <PUBCHEM_SHAPE_VOLUME>
174.2

> <PUBCHEM_COORDINATE_TYPE>
2
5
10

$$$$

