17395974
  -OEChem-06241222532D

 55 58  0     1  0  0  0  0  0999 V2000
    4.6783   -3.1716    0.0000 S   0  0  0  0  0  0  0  0  0  0  0  0
    7.2609    1.1721    0.0000 S   0  0  0  0  0  0  0  0  0  0  0  0
    5.5625   -2.0084    0.0000 O   0  0  0  0  0  0  0  0  0  0  0  0
    8.2119    1.4811    0.0000 O   0  0  0  0  0  0  0  0  0  0  0  0
    6.3098    0.8631    0.0000 O   0  0  0  0  0  0  0  0  0  0  0  0
    6.8497   -3.1673    0.0000 N   0  0  0  0  0  0  0  0  0  0  0  0
    4.6783   -4.7811    0.0000 N   0  0  0  0  0  0  0  0  0  0  0  0
    7.5699    0.2211    0.0000 N   0  0  0  0  0  0  0  0  0  0  0  0
    6.2619   -3.9764    0.0000 C   0  0  3  0  0  0  0  0  0  0  0  0
    6.8497   -4.7854    0.0000 C   0  0  0  0  0  0  0  0  0  0  0  0
    7.8007   -4.4764    0.0000 C   0  0  0  0  0  0  0  0  0  0  0  0
    7.8007   -3.4764    0.0000 C   0  0  0  0  0  0  0  0  0  0  0  0
    5.2619   -3.9764    0.0000 C   0  0  0  0  0  0  0  0  0  0  0  0
    6.5406   -2.2163    0.0000 C   0  0  0  0  0  0  0  0  0  0  0  0
    7.2098   -1.4731    0.0000 C   0  0  0  0  0  0  0  0  0  0  0  0
    6.9008   -0.5221    0.0000 C   0  0  0  0  0  0  0  0  0  0  0  0
    3.7320   -3.4764    0.0000 C   0  0  0  0  0  0  0  0  0  0  0  0
    3.7320   -4.4764    0.0000 C   0  0  0  0  0  0  0  0  0  0  0  0
    2.8660   -2.9764    0.0000 C   0  0  0  0  0  0  0  0  0  0  0  0
    2.8660   -4.9764    0.0000 C   0  0  0  0  0  0  0  0  0  0  0  0
    6.9519    2.1232    0.0000 C   0  0  0  0  0  0  0  0  0  0  0  0
    2.0000   -3.4764    0.0000 C   0  0  0  0  0  0  0  0  0  0  0  0
    2.0000   -4.4764    0.0000 C   0  0  0  0  0  0  0  0  0  0  0  0
    7.6210    2.8663    0.0000 C   0  0  0  0  0  0  0  0  0  0  0  0
    5.9737    2.3311    0.0000 C   0  0  0  0  0  0  0  0  0  0  0  0
    7.3120    3.8174    0.0000 C   0  0  0  0  0  0  0  0  0  0  0  0
    6.3338    4.0253    0.0000 C   0  0  0  0  0  0  0  0  0  0  0  0
    5.6647    3.2822    0.0000 C   0  0  0  0  0  0  0  0  0  0  0  0
    7.9811    4.5605    0.0000 C   0  0  0  0  0  0  0  0  0  0  0  0
    6.0248    4.9764    0.0000 C   0  0  0  0  0  0  0  0  0  0  0  0
    5.9804   -3.4239    0.0000 H   0  0  0  0  0  0  0  0  0  0  0  0
    6.3127   -5.0954    0.0000 H   0  0  0  0  0  0  0  0  0  0  0  0
    7.1018   -5.3518    0.0000 H   0  0  0  0  0  0  0  0  0  0  0  0
    7.9296   -5.0828    0.0000 H   0  0  0  0  0  0  0  0  0  0  0  0
    8.4173   -4.4115    0.0000 H   0  0  0  0  0  0  0  0  0  0  0  0
    8.4173   -3.5412    0.0000 H   0  0  0  0  0  0  0  0  0  0  0  0
    7.9296   -2.8699    0.0000 H   0  0  0  0  0  0  0  0  0  0  0  0
    7.5915   -1.9617    0.0000 H   0  0  0  0  0  0  0  0  0  0  0  0
    7.7572   -1.1821    0.0000 H   0  0  0  0  0  0  0  0  0  0  0  0
    6.5190   -0.0335    0.0000 H   0  0  0  0  0  0  0  0  0  0  0  0
    6.3533   -0.8131    0.0000 H   0  0  0  0  0  0  0  0  0  0  0  0
    8.1763    0.0922    0.0000 H   0  0  0  0  0  0  0  0  0  0  0  0
    2.8660   -2.3564    0.0000 H   0  0  0  0  0  0  0  0  0  0  0  0
    2.8660   -5.5964    0.0000 H   0  0  0  0  0  0  0  0  0  0  0  0
    1.4631   -3.1664    0.0000 H   0  0  0  0  0  0  0  0  0  0  0  0
    1.4631   -4.7864    0.0000 H   0  0  0  0  0  0  0  0  0  0  0  0
    8.2274    2.7374    0.0000 H   0  0  0  0  0  0  0  0  0  0  0  0
    5.5588    1.8703    0.0000 H   0  0  0  0  0  0  0  0  0  0  0  0
    5.0582    3.4111    0.0000 H   0  0  0  0  0  0  0  0  0  0  0  0
    8.4418    4.1457    0.0000 H   0  0  0  0  0  0  0  0  0  0  0  0
    8.3960    5.0213    0.0000 H   0  0  0  0  0  0  0  0  0  0  0  0
    7.5204    4.9754    0.0000 H   0  0  0  0  0  0  0  0  0  0  0  0
    6.6145    5.1679    0.0000 H   0  0  0  0  0  0  0  0  0  0  0  0
    5.8332    5.5660    0.0000 H   0  0  0  0  0  0  0  0  0  0  0  0
    5.4352    4.7848    0.0000 H   0  0  0  0  0  0  0  0  0  0  0  0
  1 13  1  0  0  0  0
  1 17  1  0  0  0  0
  2  4  2  0  0  0  0
  2  5  2  0  0  0  0
  2  8  1  0  0  0  0
  2 21  1  0  0  0  0
  3 14  2  0  0  0  0
  6  9  1  0  0  0  0
  6 12  1  0  0  0  0
  6 14  1  0  0  0  0
  7 13  2  0  0  0  0
  7 18  1  0  0  0  0
  8 16  1  0  0  0  0
  8 42  1  0  0  0  0
  9 10  1  0  0  0  0
  9 13  1  0  0  0  0
  9 31  1  0  0  0  0
 10 11  1  0  0  0  0
 10 32  1  0  0  0  0
 10 33  1  0  0  0  0
 11 12  1  0  0  0  0
 11 34  1  0  0  0  0
 11 35  1  0  0  0  0
 12 36  1  0  0  0  0
 12 37  1  0  0  0  0
 14 15  1  0  0  0  0
 15 16  1  0  0  0  0
 15 38  1  0  0  0  0
 15 39  1  0  0  0  0
 16 40  1  0  0  0  0
 16 41  1  0  0  0  0
 17 18  1  0  0  0  0
 17 19  2  0  0  0  0
 18 20  2  0  0  0  0
 19 22  1  0  0  0  0
 19 43  1  0  0  0  0
 20 23  1  0  0  0  0
 20 44  1  0  0  0  0
 21 24  2  0  0  0  0
 21 25  1  0  0  0  0
 22 23  2  0  0  0  0
 22 45  1  0  0  0  0
 23 46  1  0  0  0  0
 24 26  1  0  0  0  0
 24 47  1  0  0  0  0
 25 28  2  0  0  0  0
 25 48  1  0  0  0  0
 26 27  2  0  0  0  0
 26 29  1  0  0  0  0
 27 28  1  0  0  0  0
 27 30  1  0  0  0  0
 28 49  1  0  0  0  0
 29 50  1  0  0  0  0
 29 51  1  0  0  0  0
 29 52  1  0  0  0  0
 30 53  1  0  0  0  0
 30 54  1  0  0  0  0
 30 55  1  0  0  0  0
M  END
> <PUBCHEM_COMPOUND_CID>
17395974

> <PUBCHEM_COMPOUND_CANONICALIZED>
1

> <PUBCHEM_CACTVS_COMPLEXITY>
711

> <PUBCHEM_CACTVS_HBOND_ACCEPTOR>
6

> <PUBCHEM_CACTVS_HBOND_DONOR>
1

> <PUBCHEM_CACTVS_ROTATABLE_BOND>
6

> <PUBCHEM_CACTVS_SUBSKEYS>
AAADceB7MABgAAAAAAAAAAAAAAAAAWLAAAAwYAAAAAAAAFgB9AAAHgQQQAAADCjB3gQywbNIEAqsAyVyVHDD8LBhCjhImL04ZJgIYKrg0ZGUIAhglgDoyAcQgIAOkAAAgAAQAQAgAAEAACACAAAAAAAAAA==

> <PUBCHEM_IUPAC_OPENEYE_NAME>
N-[3-[2-(1,3-benzothiazol-2-yl)pyrrolidin-1-yl]-3-oxo-propyl]-3,4-dimethyl-benzenesulfonamide

> <PUBCHEM_IUPAC_CAS_NAME>
N-[3-[2-(1,3-benzothiazol-2-yl)-1-pyrrolidinyl]-3-oxopropyl]-3,4-dimethylbenzenesulfonamide

> <PUBCHEM_IUPAC_NAME>
N-[3-[2-(1,3-benzothiazol-2-yl)pyrrolidin-1-yl]-3-oxopropyl]-3,4-dimethylbenzenesulfonamide

> <PUBCHEM_IUPAC_SYSTEMATIC_NAME>
N-[3-[2-(1,3-benzothiazol-2-yl)pyrrolidin-1-yl]-3-oxidanylidene-propyl]-3,4-dimethyl-benzenesulfonamide

> <PUBCHEM_IUPAC_TRADITIONAL_NAME>
N-[3-[2-(1,3-benzothiazol-2-yl)pyrrolidino]-3-keto-propyl]-3,4-dimethyl-benzenesulfonamide

> <PUBCHEM_IUPAC_INCHI>
InChI=1S/C22H25N3O3S2/c1-15-9-10-17(14-16(15)2)30(27,28)23-12-11-21(26)25-13-5-7-19(25)22-24-18-6-3-4-8-20(18)29-22/h3-4,6,8-10,14,19,23H,5,7,11-13H2,1-2H3

> <PUBCHEM_IUPAC_INCHIKEY>
INPITBQTRGNPKE-UHFFFAOYSA-N

> <PUBCHEM_XLOGP3_AA>
3.6

> <PUBCHEM_EXACT_MASS>
443.133734

> <PUBCHEM_MOLECULAR_FORMULA>
C22H25N3O3S2

> <PUBCHEM_MOLECULAR_WEIGHT>
443.5822

> <PUBCHEM_OPENEYE_CAN_SMILES>
CC1=C(C=C(C=C1)S(=O)(=O)NCCC(=O)N2CCCC2C3=NC4=CC=CC=C4S3)C

> <PUBCHEM_OPENEYE_ISO_SMILES>
CC1=C(C=C(C=C1)S(=O)(=O)NCCC(=O)N2CCCC2C3=NC4=CC=CC=C4S3)C

> <PUBCHEM_CACTVS_TPSA>
116

> <PUBCHEM_MONOISOTOPIC_WEIGHT>
443.133734

> <PUBCHEM_TOTAL_CHARGE>
0

> <PUBCHEM_HEAVY_ATOM_COUNT>
30

> <PUBCHEM_ATOM_DEF_STEREO_COUNT>
0

> <PUBCHEM_ATOM_UDEF_STEREO_COUNT>
1

> <PUBCHEM_BOND_DEF_STEREO_COUNT>
0

> <PUBCHEM_BOND_UDEF_STEREO_COUNT>
0

> <PUBCHEM_ISOTOPIC_ATOM_COUNT>
0

> <PUBCHEM_COMPONENT_COUNT>
1

> <PUBCHEM_CACTVS_TAUTO_COUNT>
1

> <PUBCHEM_COORDINATE_TYPE>
1
5
255

> <PUBCHEM_BONDANNOTATIONS>
1  13  8
1  17  8
17  18  8
17  19  8
18  20  8
19  22  8
20  23  8
21  24  8
21  25  8
22  23  8
24  26  8
25  28  8
26  27  8
27  28  8
7  13  8
7  18  8
9  13  3

$$$$

