17396194
  -OEChem-06241222553D

 37 38  0     0  0  0  0  0  0999 V2000
    5.8650    1.7584    0.6895 Cl  0  0  0  0  0  0  0  0  0  0  0  0
    2.0505   -2.4686   -0.7528 O   0  0  0  0  0  0  0  0  0  0  0  0
    1.0365    2.3957    0.3762 O   0  0  0  0  0  0  0  0  0  0  0  0
   -6.0664   -0.3511   -0.0530 O   0  0  0  0  0  0  0  0  0  0  0  0
    1.0874    0.1201   -0.1937 N   0  0  0  0  0  0  0  0  0  0  0  0
   -3.8238   -0.9976    0.2808 N   0  0  0  0  0  0  0  0  0  0  0  0
   -0.9944    1.3482   -0.0593 C   0  0  0  0  0  0  0  0  0  0  0  0
    2.4689   -0.1877   -0.1355 C   0  0  0  0  0  0  0  0  0  0  0  0
   -3.1039    0.1763    0.0557 C   0  0  0  0  0  0  0  0  0  0  0  0
   -1.7133    0.1742    0.1653 C   0  0  0  0  0  0  0  0  0  0  0  0
    0.4553    1.3467    0.0540 C   0  0  0  0  0  0  0  0  0  0  0  0
    2.9227   -1.4764   -0.4167 C   0  0  0  0  0  0  0  0  0  0  0  0
   -1.6659    2.5241   -0.3940 C   0  0  0  0  0  0  0  0  0  0  0  0
   -3.7753    1.3522   -0.2789 C   0  0  0  0  0  0  0  0  0  0  0  0
    3.3786    0.8127    0.2066 C   0  0  0  0  0  0  0  0  0  0  0  0
   -3.0564    2.5261   -0.5037 C   0  0  0  0  0  0  0  0  0  0  0  0
    4.2860   -1.7647   -0.3558 C   0  0  0  0  0  0  0  0  0  0  0  0
    4.7420    0.5246    0.2675 C   0  0  0  0  0  0  0  0  0  0  0  0
    5.1957   -0.7641   -0.0137 C   0  0  0  0  0  0  0  0  0  0  0  0
   -5.2106   -1.1873    0.2178 C   0  0  0  0  0  0  0  0  0  0  0  0
    1.5162   -3.2496    0.3139 C   0  0  0  0  0  0  0  0  0  0  0  0
   -5.5947   -2.6121    0.5295 C   0  0  0  0  0  0  0  0  0  0  0  0
   -1.2246   -0.7490    0.4654 H   0  0  0  0  0  0  0  0  0  0  0  0
    0.5166   -0.6641   -0.4967 H   0  0  0  0  0  0  0  0  0  0  0  0
   -1.1246    3.4483   -0.5786 H   0  0  0  0  0  0  0  0  0  0  0  0
   -4.8484    1.4322   -0.3825 H   0  0  0  0  0  0  0  0  0  0  0  0
    3.0948    1.8296    0.4358 H   0  0  0  0  0  0  0  0  0  0  0  0
   -3.5783    3.4421   -0.7657 H   0  0  0  0  0  0  0  0  0  0  0  0
    4.6469   -2.7661   -0.5741 H   0  0  0  0  0  0  0  0  0  0  0  0
   -3.2629   -1.8125    0.5202 H   0  0  0  0  0  0  0  0  0  0  0  0
    6.2552   -1.0031    0.0297 H   0  0  0  0  0  0  0  0  0  0  0  0
    2.3147   -3.8027    0.8186 H   0  0  0  0  0  0  0  0  0  0  0  0
    0.9860   -2.6174    1.0331 H   0  0  0  0  0  0  0  0  0  0  0  0
    0.8075   -3.9669   -0.1088 H   0  0  0  0  0  0  0  0  0  0  0  0
   -5.2419   -2.8816    1.5290 H   0  0  0  0  0  0  0  0  0  0  0  0
   -5.1496   -3.2846   -0.2091 H   0  0  0  0  0  0  0  0  0  0  0  0
   -6.6825   -2.7183    0.4973 H   0  0  0  0  0  0  0  0  0  0  0  0
  1 18  1  0  0  0  0
  2 12  1  0  0  0  0
  2 21  1  0  0  0  0
  3 11  2  0  0  0  0
  4 20  2  0  0  0  0
  5  8  1  0  0  0  0
  5 11  1  0  0  0  0
  5 24  1  0  0  0  0
  6  9  1  0  0  0  0
  6 20  1  0  0  0  0
  6 30  1  0  0  0  0
  7 10  2  0  0  0  0
  7 11  1  0  0  0  0
  7 13  1  0  0  0  0
  8 12  2  0  0  0  0
  8 15  1  0  0  0  0
  9 10  1  0  0  0  0
  9 14  2  0  0  0  0
 10 23  1  0  0  0  0
 12 17  1  0  0  0  0
 13 16  2  0  0  0  0
 13 25  1  0  0  0  0
 14 16  1  0  0  0  0
 14 26  1  0  0  0  0
 15 18  2  0  0  0  0
 15 27  1  0  0  0  0
 16 28  1  0  0  0  0
 17 19  2  0  0  0  0
 17 29  1  0  0  0  0
 18 19  1  0  0  0  0
 19 31  1  0  0  0  0
 20 22  1  0  0  0  0
 21 32  1  0  0  0  0
 21 33  1  0  0  0  0
 21 34  1  0  0  0  0
 22 35  1  0  0  0  0
 22 36  1  0  0  0  0
 22 37  1  0  0  0  0
M  END
> <PUBCHEM_COMPOUND_CID>
17396194

> <PUBCHEM_CONFORMER_RMSD>
0.8

> <PUBCHEM_CONFORMER_DIVERSEORDER>
2
23
29
18
20
33
35
36
15
32
28
22
31
13
10
34
30
37
14
21
12
38
8
9
24
39
1
26
16
11
5
19
7
27
4
25
17
3
6

> <PUBCHEM_MMFF94_PARTIAL_CHARGES>
31
1 -0.18
10 -0.15
11 0.54
12 0.08
13 -0.15
14 -0.15
15 -0.15
16 -0.15
17 -0.15
18 0.18
19 -0.15
2 -0.36
20 0.57
21 0.28
22 0.06
23 0.15
24 0.37
25 0.15
26 0.15
27 0.15
28 0.15
29 0.15
3 -0.57
30 0.37
31 0.15
4 -0.57
5 -0.55
6 -0.55
7 0.09
8 0.12
9 0.12

> <PUBCHEM_EFFECTIVE_ROTOR_COUNT>
6

> <PUBCHEM_PHARMACOPHORE_FEATURES>
7
1 2 acceptor
1 3 acceptor
1 4 acceptor
1 5 donor
1 6 donor
6 7 9 10 13 14 16 rings
6 8 12 15 17 18 19 rings

> <PUBCHEM_HEAVY_ATOM_COUNT>
22

> <PUBCHEM_ATOM_DEF_STEREO_COUNT>
0

> <PUBCHEM_ATOM_UDEF_STEREO_COUNT>
0

> <PUBCHEM_BOND_DEF_STEREO_COUNT>
0

> <PUBCHEM_BOND_UDEF_STEREO_COUNT>
0

> <PUBCHEM_ISOTOPIC_ATOM_COUNT>
0

> <PUBCHEM_COMPONENT_COUNT>
1

> <PUBCHEM_CACTVS_TAUTO_COUNT>
4

> <PUBCHEM_CONFORMER_ID>
010971E200000002

> <PUBCHEM_MMFF94_ENERGY>
80.0801

> <PUBCHEM_FEATURE_SELFOVERLAP>
35.52

> <PUBCHEM_SHAPE_FINGERPRINT>
10616163 171 18337953518643866063
10835480 77 18410865386114951709
108634 29 18271793623479107770
11963148 33 18341057306984230570
12596602 18 17313095346070364987
13402501 40 18412260601945791219
13685833 64 18341045230104997059
13911882 115 18261383447376307190
1454969 45 18339923689115368684
146900 427 17676490519214549984
14787075 74 18260834761272649576
15183329 4 10159710109435984772
15196674 1 18410012177917806444
15352361 1 18411979148702022319
15537594 2 17894916191514878197
17492 89 18266178516564692166
18681886 176 18412824695151485484
20261772 1 18040720251063367678
20286276 3 18119522395607675724
20567600 347 17989207079415116834
21197605 99 18263641754134348838
21267235 1 18334851749661564270
21673915 165 18409729556042805711
221490 88 18263641939118148878
22224240 67 18188498960786165344
22393880 68 18196649816392255918
23559900 14 18048885392384142910
239999 70 18187361086705927278
2871803 45 18413107290033349154
329604 57 18343297050559815502
33824 294 18409731785647641114
3421961 26 18336826369297263649
4073 2 18411981394711689329
4214541 1 18339079414182102621
4325135 7 18272086068102394652
463206 1 18337952264930504199
474229 33 18410295783536016442
5104073 3 18262805180525195352
5486654 2 18337104563055934748
9709674 26 18341324604062088386

> <PUBCHEM_SHAPE_MULTIPOLES>
427.05
13.81
3.33
0.72
4.06
1.06
0
3.84
1.64
0.83
-0.03
-0.16
0.02
1.56

> <PUBCHEM_SHAPE_SELFOVERLAP>
899.379

> <PUBCHEM_SHAPE_VOLUME>
240.2

> <PUBCHEM_COORDINATE_TYPE>
2
5
10

$$$$

