17396444
  -OEChem-06241222563D

 44 46  0     0  0  0  0  0  0999 V2000
   -8.1730    0.1406   -0.6236 Cl  0  0  0  0  0  0  0  0  0  0  0  0
   -5.4984   -1.1482   -0.5652 S   0  0  0  0  0  0  0  0  0  0  0  0
    2.0486    1.4122   -2.2306 O   0  0  0  0  0  0  0  0  0  0  0  0
   -1.8059   -0.3198    0.4128 N   0  0  0  0  0  0  0  0  0  0  0  0
    0.7368    0.6896   -0.4356 N   0  0  0  0  0  0  0  0  0  0  0  0
   -1.6337    0.2240   -0.9422 C   0  0  0  0  0  0  0  0  0  0  0  0
   -0.5633   -0.9568    0.8722 C   0  0  0  0  0  0  0  0  0  0  0  0
   -0.5019    1.2499   -0.9710 C   0  0  0  0  0  0  0  0  0  0  0  0
    0.5993    0.0383    0.8718 C   0  0  0  0  0  0  0  0  0  0  0  0
   -2.9147   -1.2726    0.4469 C   0  0  0  0  0  0  0  0  0  0  0  0
    1.9334    0.8660   -1.1343 C   0  0  0  0  0  0  0  0  0  0  0  0
   -4.2481   -0.5827    0.4591 C   0  0  0  0  0  0  0  0  0  0  0  0
    3.1737    0.3711   -0.5221 C   0  0  0  0  0  0  0  0  0  0  0  0
    3.6035   -0.9320   -0.7731 C   0  0  0  0  0  0  0  0  0  0  0  0
    3.9208    1.2037    0.3112 C   0  0  0  0  0  0  0  0  0  0  0  0
   -4.6464    0.5001    1.2117 C   0  0  0  0  0  0  0  0  0  0  0  0
    4.7805   -1.4022   -0.1907 C   0  0  0  0  0  0  0  0  0  0  0  0
    5.0978    0.7333    0.8934 C   0  0  0  0  0  0  0  0  0  0  0  0
    5.5276   -0.5697    0.6426 C   0  0  0  0  0  0  0  0  0  0  0  0
   -5.9960    0.8705    0.9441 C   0  0  0  0  0  0  0  0  0  0  0  0
   -6.5776    0.0568   -0.0032 C   0  0  0  0  0  0  0  0  0  0  0  0
    5.2407   -2.7954   -0.4589 C   0  0  0  0  0  0  0  0  0  0  0  0
    5.8963    1.6233    1.7848 C   0  0  0  0  0  0  0  0  0  0  0  0
   -2.5483    0.7236   -1.2816 H   0  0  0  0  0  0  0  0  0  0  0  0
   -1.4134   -0.5803   -1.6570 H   0  0  0  0  0  0  0  0  0  0  0  0
   -0.3115   -1.8131    0.2323 H   0  0  0  0  0  0  0  0  0  0  0  0
   -0.6878   -1.3340    1.8945 H   0  0  0  0  0  0  0  0  0  0  0  0
   -0.7564    2.1200   -0.3533 H   0  0  0  0  0  0  0  0  0  0  0  0
   -0.3529    1.6094   -1.9944 H   0  0  0  0  0  0  0  0  0  0  0  0
    0.4213    0.8333    1.6065 H   0  0  0  0  0  0  0  0  0  0  0  0
    1.5164   -0.4761    1.1665 H   0  0  0  0  0  0  0  0  0  0  0  0
   -2.8742   -1.8540    1.3789 H   0  0  0  0  0  0  0  0  0  0  0  0
   -2.8351   -2.0029   -0.3692 H   0  0  0  0  0  0  0  0  0  0  0  0
    3.0201   -1.5794   -1.4239 H   0  0  0  0  0  0  0  0  0  0  0  0
    3.5826    2.2185    0.5078 H   0  0  0  0  0  0  0  0  0  0  0  0
   -4.0075    1.0061    1.9244 H   0  0  0  0  0  0  0  0  0  0  0  0
    6.4452   -0.9365    1.0967 H   0  0  0  0  0  0  0  0  0  0  0  0
   -6.5086    1.6934    1.4260 H   0  0  0  0  0  0  0  0  0  0  0  0
    4.3926   -3.4632   -0.6444 H   0  0  0  0  0  0  0  0  0  0  0  0
    5.7871   -3.2030    0.3985 H   0  0  0  0  0  0  0  0  0  0  0  0
    5.8978   -2.8119   -1.3341 H   0  0  0  0  0  0  0  0  0  0  0  0
    5.5657    1.5103    2.8219 H   0  0  0  0  0  0  0  0  0  0  0  0
    6.9638    1.3843    1.7283 H   0  0  0  0  0  0  0  0  0  0  0  0
    5.7881    2.6739    1.4944 H   0  0  0  0  0  0  0  0  0  0  0  0
  1 21  1  0  0  0  0
  2 12  1  0  0  0  0
  2 21  1  0  0  0  0
  3 11  2  0  0  0  0
  4  6  1  0  0  0  0
  4  7  1  0  0  0  0
  4 10  1  0  0  0  0
  5  8  1  0  0  0  0
  5  9  1  0  0  0  0
  5 11  1  0  0  0  0
  6  8  1  0  0  0  0
  6 24  1  0  0  0  0
  6 25  1  0  0  0  0
  7  9  1  0  0  0  0
  7 26  1  0  0  0  0
  7 27  1  0  0  0  0
  8 28  1  0  0  0  0
  8 29  1  0  0  0  0
  9 30  1  0  0  0  0
  9 31  1  0  0  0  0
 10 12  1  0  0  0  0
 10 32  1  0  0  0  0
 10 33  1  0  0  0  0
 11 13  1  0  0  0  0
 12 16  2  0  0  0  0
 13 14  2  0  0  0  0
 13 15  1  0  0  0  0
 14 17  1  0  0  0  0
 14 34  1  0  0  0  0
 15 18  2  0  0  0  0
 15 35  1  0  0  0  0
 16 20  1  0  0  0  0
 16 36  1  0  0  0  0
 17 19  2  0  0  0  0
 17 22  1  0  0  0  0
 18 19  1  0  0  0  0
 18 23  1  0  0  0  0
 19 37  1  0  0  0  0
 20 21  2  0  0  0  0
 20 38  1  0  0  0  0
 22 39  1  0  0  0  0
 22 40  1  0  0  0  0
 22 41  1  0  0  0  0
 23 42  1  0  0  0  0
 23 43  1  0  0  0  0
 23 44  1  0  0  0  0
M  END
> <PUBCHEM_COMPOUND_CID>
17396444

> <PUBCHEM_CONFORMER_RMSD>
0.8

> <PUBCHEM_CONFORMER_DIVERSEORDER>
1
94
75
47
80
73
54
93
39
92
77
66
86
83
61
52
76
81
59
43
26
53
68
22
33
45
18
50
31
95
46
67
17
13
91
32
49
65
82
42
57
55
79
51
78
7
25
2
84
56
58
85
74
41
34
29
89
11
48
63
87
6
72
64
15
24
5
16
38
10
69
23
37
28
8
35
21
4
9
36
62
19
12
30
60
40
14
20
3
90
88
27
44
70
71

> <PUBCHEM_MMFF94_PARTIAL_CHARGES>
28
1 -0.12
10 0.45
11 0.54
12 -0.14
13 0.09
14 -0.15
15 -0.15
16 -0.15
17 -0.14
18 -0.14
19 -0.15
2 -0.08
20 -0.15
21 0.16
22 0.14
23 0.14
3 -0.57
34 0.15
35 0.15
36 0.15
37 0.15
38 0.15
4 -0.81
5 -0.66
6 0.27
7 0.27
8 0.3
9 0.3

> <PUBCHEM_EFFECTIVE_ROTOR_COUNT>
5.2

> <PUBCHEM_PHARMACOPHORE_FEATURES>
5
1 3 acceptor
1 4 cation
5 2 12 16 20 21 rings
6 13 14 15 17 18 19 rings
6 4 5 6 7 8 9 rings

> <PUBCHEM_HEAVY_ATOM_COUNT>
23

> <PUBCHEM_ATOM_DEF_STEREO_COUNT>
0

> <PUBCHEM_ATOM_UDEF_STEREO_COUNT>
0

> <PUBCHEM_BOND_DEF_STEREO_COUNT>
0

> <PUBCHEM_BOND_UDEF_STEREO_COUNT>
0

> <PUBCHEM_ISOTOPIC_ATOM_COUNT>
0

> <PUBCHEM_COMPONENT_COUNT>
1

> <PUBCHEM_CACTVS_TAUTO_COUNT>
1

> <PUBCHEM_CONFORMER_ID>
010972DC00000001

> <PUBCHEM_MMFF94_ENERGY>
49.3954

> <PUBCHEM_FEATURE_SELFOVERLAP>
25.371

> <PUBCHEM_SHAPE_FINGERPRINT>
10 15 15791738489869328019
10366900 7 5617544007593261030
11089746 13 18411702059161402897
11524674 6 16702017566016084411
11796584 16 16845564288767462106
12236239 1 18407758136621907075
12596602 18 17822010904193127155
12616971 3 17561080255398210855
13073987 5 18113896048748328179
13533116 47 18261388988226880498
13914758 101 18340769334380545921
14211702 104 18268982112418068075
14251752 14 14979965782760151165
14251758 9 17917704708578358043
14251764 18 17240483594351564049
14294032 229 16198471077184336013
14347424 109 18259989305624213434
14565420 104 17896333424487936904
14856354 85 14189568646884109587
15131766 46 17097795473453413424
15142383 8 16774086171511336405
15183329 4 18131346423573088159
173720 79 15719395074442653838
19141452 34 18341611482070890031
19489759 90 17894344489209346099
20157964 124 17822008705312029690
20511986 3 18041010522064599967
20567600 234 16515687736217695449
21130935 74 18334292076420666763
21150785 3 16008752381778688289
21267235 1 16630253580174109088
21315764 268 18259988184279780793
21344244 78 16878512358028716938
21521721 280 9079108969298028533
21781051 124 15769480002246442075
21859007 373 17631752541989499677
22079108 93 6988315015122779382
22224240 67 18336836282677479208
23035841 295 12031792457345719177
23402539 116 18260266344021097821
23536379 177 18186237342566497499
23559900 14 17988066808726484262
23569943 247 17984703578234891115
29717793 49 18131911555142906341
3004659 81 17131826569486645950
335352 9 17632857508272901911
3472631 163 4967318154733843560
34797466 226 16081079355822731153
4073 2 18337954472153363050
4325135 7 14056717933712237633
4340502 62 16515682260303036335
465052 167 15482667974846486496
5104073 3 18186791479126020403
5207 217 4751155229322083693
8988823 20 18040716965787516488
9862886 166 15864076425972625535
9971528 1 18343578534448363588

> <PUBCHEM_SHAPE_MULTIPOLES>
463.22
19.68
1.75
1.39
21.01
0.76
-0.34
0.8
3.09
-2.99
0.1
-0.64
-0.52
0.44

> <PUBCHEM_SHAPE_SELFOVERLAP>
958.15

> <PUBCHEM_SHAPE_VOLUME>
267.7

> <PUBCHEM_COORDINATE_TYPE>
2
5
10

$$$$

