47205712
  -OEChem-06241223002D

 44 44  0     0  0  0  0  0  0999 V2000
    2.0000    1.0950    0.0000 O   0  0  0  0  0  0  0  0  0  0  0  0
    5.4641    2.0950    0.0000 O   0  0  0  0  0  0  0  0  0  0  0  0
    3.7320    1.0950    0.0000 N   0  0  0  0  0  0  0  0  0  0  0  0
    4.5981    3.5950    0.0000 N   0  0  0  0  0  0  0  0  0  0  0  0
    4.5981    0.5950    0.0000 C   0  0  0  0  0  0  0  0  0  0  0  0
    5.4641    1.0950    0.0000 C   0  0  0  0  0  0  0  0  0  0  0  0
    2.8660   -3.4050    0.0000 C   0  0  0  0  0  0  0  0  0  0  0  0
    6.3301    0.5950    0.0000 C   0  0  0  0  0  0  0  0  0  0  0  0
    2.8660   -2.4050    0.0000 C   0  0  0  0  0  0  0  0  0  0  0  0
    2.8660    0.5950    0.0000 C   0  0  0  0  0  0  0  0  0  0  0  0
    2.8660   -0.4050    0.0000 C   0  0  0  0  0  0  0  0  0  0  0  0
    3.7320    2.0950    0.0000 C   0  0  0  0  0  0  0  0  0  0  0  0
    3.7320   -1.9050    0.0000 C   0  0  0  0  0  0  0  0  0  0  0  0
    2.0000   -1.9050    0.0000 C   0  0  0  0  0  0  0  0  0  0  0  0
    3.7320   -0.9050    0.0000 C   0  0  0  0  0  0  0  0  0  0  0  0
    2.0000   -0.9050    0.0000 C   0  0  0  0  0  0  0  0  0  0  0  0
    2.0000   -3.9050    0.0000 C   0  0  0  0  0  0  0  0  0  0  0  0
    3.7320   -3.9050    0.0000 C   0  0  0  0  0  0  0  0  0  0  0  0
    7.1962    1.0950    0.0000 C   0  0  0  0  0  0  0  0  0  0  0  0
    4.5981    2.5950    0.0000 C   0  0  0  0  0  0  0  0  0  0  0  0
    4.1996    0.1201    0.0000 H   0  0  0  0  0  0  0  0  0  0  0  0
    4.9966    0.1201    0.0000 H   0  0  0  0  0  0  0  0  0  0  0  0
    5.8626    1.5700    0.0000 H   0  0  0  0  0  0  0  0  0  0  0  0
    5.0656    1.5700    0.0000 H   0  0  0  0  0  0  0  0  0  0  0  0
    2.8660   -4.0250    0.0000 H   0  0  0  0  0  0  0  0  0  0  0  0
    5.9316    0.1201    0.0000 H   0  0  0  0  0  0  0  0  0  0  0  0
    6.7287    0.1201    0.0000 H   0  0  0  0  0  0  0  0  0  0  0  0
    3.5200    2.6776    0.0000 H   0  0  0  0  0  0  0  0  0  0  0  0
    3.1215    1.9873    0.0000 H   0  0  0  0  0  0  0  0  0  0  0  0
    4.2690   -2.2150    0.0000 H   0  0  0  0  0  0  0  0  0  0  0  0
    1.4631   -2.2150    0.0000 H   0  0  0  0  0  0  0  0  0  0  0  0
    4.2690   -0.5950    0.0000 H   0  0  0  0  0  0  0  0  0  0  0  0
    1.4631   -0.5950    0.0000 H   0  0  0  0  0  0  0  0  0  0  0  0
    1.6900   -3.3681    0.0000 H   0  0  0  0  0  0  0  0  0  0  0  0
    3.4220   -4.4419    0.0000 H   0  0  0  0  0  0  0  0  0  0  0  0
    4.2690   -4.2150    0.0000 H   0  0  0  0  0  0  0  0  0  0  0  0
    4.0420   -3.3681    0.0000 H   0  0  0  0  0  0  0  0  0  0  0  0
    1.4631   -4.2150    0.0000 H   0  0  0  0  0  0  0  0  0  0  0  0
    2.3100   -4.4419    0.0000 H   0  0  0  0  0  0  0  0  0  0  0  0
    7.5062    0.5581    0.0000 H   0  0  0  0  0  0  0  0  0  0  0  0
    7.7331    1.4050    0.0000 H   0  0  0  0  0  0  0  0  0  0  0  0
    6.8862    1.6319    0.0000 H   0  0  0  0  0  0  0  0  0  0  0  0
    5.1350    3.9050    0.0000 H   0  0  0  0  0  0  0  0  0  0  0  0
    4.0611    3.9050    0.0000 H   0  0  0  0  0  0  0  0  0  0  0  0
  1 10  2  0  0  0  0
  2 20  2  0  0  0  0
  3  5  1  0  0  0  0
  3 10  1  0  0  0  0
  3 12  1  0  0  0  0
  4 20  1  0  0  0  0
  4 43  1  0  0  0  0
  4 44  1  0  0  0  0
  5  6  1  0  0  0  0
  5 21  1  0  0  0  0
  5 22  1  0  0  0  0
  6  8  1  0  0  0  0
  6 23  1  0  0  0  0
  6 24  1  0  0  0  0
  7  9  1  0  0  0  0
  7 17  1  0  0  0  0
  7 18  1  0  0  0  0
  7 25  1  0  0  0  0
  8 19  1  0  0  0  0
  8 26  1  0  0  0  0
  8 27  1  0  0  0  0
  9 13  2  0  0  0  0
  9 14  1  0  0  0  0
 10 11  1  0  0  0  0
 11 15  2  0  0  0  0
 11 16  1  0  0  0  0
 12 20  1  0  0  0  0
 12 28  1  0  0  0  0
 12 29  1  0  0  0  0
 13 15  1  0  0  0  0
 13 30  1  0  0  0  0
 14 16  2  0  0  0  0
 14 31  1  0  0  0  0
 15 32  1  0  0  0  0
 16 33  1  0  0  0  0
 17 34  1  0  0  0  0
 17 38  1  0  0  0  0
 17 39  1  0  0  0  0
 18 35  1  0  0  0  0
 18 36  1  0  0  0  0
 18 37  1  0  0  0  0
 19 40  1  0  0  0  0
 19 41  1  0  0  0  0
 19 42  1  0  0  0  0
M  END
> <PUBCHEM_COMPOUND_CID>
47205712

> <PUBCHEM_COMPOUND_CANONICALIZED>
1

> <PUBCHEM_CACTVS_COMPLEXITY>
320

> <PUBCHEM_CACTVS_HBOND_ACCEPTOR>
2

> <PUBCHEM_CACTVS_HBOND_DONOR>
1

> <PUBCHEM_CACTVS_ROTATABLE_BOND>
7

> <PUBCHEM_CACTVS_SUBSKEYS>
AAADceB7MAAAAAAAAAAAAAAAAAAAAAAAAAAwAAAAAAAAAAABAAAAHgAQAAAADQDBmAQyAINAAACIAiFSEACCAAAkAAAIiAGIBMgIYDKAlTGUIQhglgCIiYcYiMCOwAAAAAAAAACAAAAAAAAAAAAAAAAAAA==

> <PUBCHEM_IUPAC_OPENEYE_NAME>
N-(2-amino-2-oxo-ethyl)-N-butyl-4-isopropyl-benzamide

> <PUBCHEM_IUPAC_CAS_NAME>
N-(2-amino-2-oxoethyl)-N-butyl-4-propan-2-ylbenzamide

> <PUBCHEM_IUPAC_NAME>
N-(2-amino-2-oxoethyl)-N-butyl-4-propan-2-ylbenzamide

> <PUBCHEM_IUPAC_SYSTEMATIC_NAME>
N-(2-azanyl-2-oxidanylidene-ethyl)-N-butyl-4-propan-2-yl-benzamide

> <PUBCHEM_IUPAC_TRADITIONAL_NAME>
N-(2-amino-2-keto-ethyl)-N-butyl-4-isopropyl-benzamide

> <PUBCHEM_IUPAC_INCHI>
InChI=1S/C16H24N2O2/c1-4-5-10-18(11-15(17)19)16(20)14-8-6-13(7-9-14)12(2)3/h6-9,12H,4-5,10-11H2,1-3H3,(H2,17,19)

> <PUBCHEM_IUPAC_INCHIKEY>
QDMKLJBANADRHI-UHFFFAOYSA-N

> <PUBCHEM_XLOGP3_AA>
2.7

> <PUBCHEM_EXACT_MASS>
276.183778

> <PUBCHEM_MOLECULAR_FORMULA>
C16H24N2O2

> <PUBCHEM_MOLECULAR_WEIGHT>
276.37396

> <PUBCHEM_OPENEYE_CAN_SMILES>
CCCCN(CC(=O)N)C(=O)C1=CC=C(C=C1)C(C)C

> <PUBCHEM_OPENEYE_ISO_SMILES>
CCCCN(CC(=O)N)C(=O)C1=CC=C(C=C1)C(C)C

> <PUBCHEM_CACTVS_TPSA>
63.4

> <PUBCHEM_MONOISOTOPIC_WEIGHT>
276.183778

> <PUBCHEM_TOTAL_CHARGE>
0

> <PUBCHEM_HEAVY_ATOM_COUNT>
20

> <PUBCHEM_ATOM_DEF_STEREO_COUNT>
0

> <PUBCHEM_ATOM_UDEF_STEREO_COUNT>
0

> <PUBCHEM_BOND_DEF_STEREO_COUNT>
0

> <PUBCHEM_BOND_UDEF_STEREO_COUNT>
0

> <PUBCHEM_ISOTOPIC_ATOM_COUNT>
0

> <PUBCHEM_COMPONENT_COUNT>
1

> <PUBCHEM_CACTVS_TAUTO_COUNT>
9

> <PUBCHEM_COORDINATE_TYPE>
1
5
255

> <PUBCHEM_BONDANNOTATIONS>
11  15  8
11  16  8
13  15  8
14  16  8
9  13  8
9  14  8

$$$$

