7846962
  -OEChem-06241222482D

 43 45  0     1  0  0  0  0  0999 V2000
    4.6783    2.4413    0.0000 S   0  0  0  0  0  0  0  0  0  0  0  0
    8.2619   -0.0955    0.0000 O   0  0  0  0  0  0  0  0  0  0  0  0
   12.8497   -2.6366    0.0000 O   0  0  0  0  0  0  0  0  0  0  0  0
    8.2619    1.6366    0.0000 O   0  0  0  0  0  0  0  0  0  0  0  0
    9.2619   -1.8275    0.0000 O   0  0  0  0  0  0  0  0  0  0  0  0
   10.7619   -0.9615    0.0000 N   0  0  0  0  0  0  0  0  0  0  0  0
    4.6783    0.8318    0.0000 N   0  0  0  0  0  0  0  0  0  0  0  0
    6.2619    1.6366    0.0000 C   0  0  0  0  0  0  0  0  0  0  0  0
    6.7619    0.7705    0.0000 C   0  0  0  0  0  0  0  0  0  0  0  0
    9.2619   -0.0955    0.0000 C   0  0  2  0  0  0  0  0  0  0  0  0
    5.2619    1.6366    0.0000 C   0  0  0  0  0  0  0  0  0  0  0  0
    7.7619    0.7705    0.0000 C   0  0  0  0  0  0  0  0  0  0  0  0
    3.7320    2.1366    0.0000 C   0  0  0  0  0  0  0  0  0  0  0  0
    3.7320    1.1366    0.0000 C   0  0  0  0  0  0  0  0  0  0  0  0
    9.7619   -0.9615    0.0000 C   0  0  0  0  0  0  0  0  0  0  0  0
   11.2619   -1.8275    0.0000 C   0  0  0  0  0  0  0  0  0  0  0  0
    9.7619    0.7705    0.0000 C   0  0  0  0  0  0  0  0  0  0  0  0
   12.2619   -1.8275    0.0000 C   0  0  0  0  0  0  0  0  0  0  0  0
    2.8660    2.6366    0.0000 C   0  0  0  0  0  0  0  0  0  0  0  0
    2.8660    0.6366    0.0000 C   0  0  0  0  0  0  0  0  0  0  0  0
    2.0000    2.1366    0.0000 C   0  0  0  0  0  0  0  0  0  0  0  0
    2.0000    1.1366    0.0000 C   0  0  0  0  0  0  0  0  0  0  0  0
   12.8497   -1.0185    0.0000 C   0  0  0  0  0  0  0  0  0  0  0  0
   13.8007   -1.3275    0.0000 C   0  0  0  0  0  0  0  0  0  0  0  0
   13.8007   -2.3275    0.0000 C   0  0  0  0  0  0  0  0  0  0  0  0
    6.8445    1.8486    0.0000 H   0  0  0  0  0  0  0  0  0  0  0  0
    6.1542    2.2471    0.0000 H   0  0  0  0  0  0  0  0  0  0  0  0
    6.1793    0.5585    0.0000 H   0  0  0  0  0  0  0  0  0  0  0  0
    6.8695    0.1600    0.0000 H   0  0  0  0  0  0  0  0  0  0  0  0
    8.9519   -0.6324    0.0000 H   0  0  0  0  0  0  0  0  0  0  0  0
   10.6793   -2.0396    0.0000 H   0  0  0  0  0  0  0  0  0  0  0  0
   11.3695   -2.4381    0.0000 H   0  0  0  0  0  0  0  0  0  0  0  0
   10.2988    0.4605    0.0000 H   0  0  0  0  0  0  0  0  0  0  0  0
   10.0719    1.3075    0.0000 H   0  0  0  0  0  0  0  0  0  0  0  0
    9.2249    1.0805    0.0000 H   0  0  0  0  0  0  0  0  0  0  0  0
   11.0719   -0.4246    0.0000 H   0  0  0  0  0  0  0  0  0  0  0  0
    2.8660    3.2566    0.0000 H   0  0  0  0  0  0  0  0  0  0  0  0
    2.8660    0.0166    0.0000 H   0  0  0  0  0  0  0  0  0  0  0  0
    1.4631    2.4466    0.0000 H   0  0  0  0  0  0  0  0  0  0  0  0
    1.4631    0.8266    0.0000 H   0  0  0  0  0  0  0  0  0  0  0  0
   12.6581   -0.4289    0.0000 H   0  0  0  0  0  0  0  0  0  0  0  0
   14.3023   -0.9631    0.0000 H   0  0  0  0  0  0  0  0  0  0  0  0
   14.3023   -2.6920    0.0000 H   0  0  0  0  0  0  0  0  0  0  0  0
  1 11  1  0  0  0  0
  1 13  1  0  0  0  0
 10  2  1  1  0  0  0
  2 12  1  0  0  0  0
  3 18  1  0  0  0  0
  3 25  1  0  0  0  0
  4 12  2  0  0  0  0
  5 15  2  0  0  0  0
  6 15  1  0  0  0  0
  6 16  1  0  0  0  0
  6 36  1  0  0  0  0
  7 11  2  0  0  0  0
  7 14  1  0  0  0  0
  8  9  1  0  0  0  0
  8 11  1  0  0  0  0
  8 26  1  0  0  0  0
  8 27  1  0  0  0  0
  9 12  1  0  0  0  0
  9 28  1  0  0  0  0
  9 29  1  0  0  0  0
 10 15  1  0  0  0  0
 10 17  1  0  0  0  0
 10 30  1  0  0  0  0
 13 14  1  0  0  0  0
 13 19  2  0  0  0  0
 14 20  2  0  0  0  0
 16 18  1  0  0  0  0
 16 31  1  0  0  0  0
 16 32  1  0  0  0  0
 17 33  1  0  0  0  0
 17 34  1  0  0  0  0
 17 35  1  0  0  0  0
 18 23  2  0  0  0  0
 19 21  1  0  0  0  0
 19 37  1  0  0  0  0
 20 22  1  0  0  0  0
 20 38  1  0  0  0  0
 21 22  2  0  0  0  0
 21 39  1  0  0  0  0
 22 40  1  0  0  0  0
 23 24  1  0  0  0  0
 23 41  1  0  0  0  0
 24 25  2  0  0  0  0
 24 42  1  0  0  0  0
 25 43  1  0  0  0  0
M  END
> <PUBCHEM_COMPOUND_CID>
7846962

> <PUBCHEM_COMPOUND_CANONICALIZED>
1

> <PUBCHEM_CACTVS_COMPLEXITY>
476

> <PUBCHEM_CACTVS_HBOND_ACCEPTOR>
6

> <PUBCHEM_CACTVS_HBOND_DONOR>
1

> <PUBCHEM_CACTVS_ROTATABLE_BOND>
8

> <PUBCHEM_CACTVS_SUBSKEYS>
AAADceB7OABAAAAAAAAAAAAAAAAAAWJAAAAwAAAAAAAAAFgB/AAAHgQQAAAACBzh1gYyzbLIFEisAa3y3AKD+KBlKjhImL3+bNgOJrLktb+HOSjk1hH46Ye8EQIAAAAAAAAAAQAAAAAAAAACAAAAAAAAAA==

> <PUBCHEM_IUPAC_OPENEYE_NAME>
[(1S)-2-(2-furylmethylamino)-1-methyl-2-oxo-ethyl] 3-(1,3-benzothiazol-2-yl)propanoate

> <PUBCHEM_IUPAC_CAS_NAME>
3-(1,3-benzothiazol-2-yl)propanoic acid [(2S)-1-(2-furanylmethylamino)-1-oxopropan-2-yl] ester

> <PUBCHEM_IUPAC_NAME>
[(2S)-1-(furan-2-ylmethylamino)-1-oxopropan-2-yl] 3-(1,3-benzothiazol-2-yl)propanoate

> <PUBCHEM_IUPAC_SYSTEMATIC_NAME>
[(2S)-1-(furan-2-ylmethylamino)-1-oxidanylidene-propan-2-yl] 3-(1,3-benzothiazol-2-yl)propanoate

> <PUBCHEM_IUPAC_TRADITIONAL_NAME>
3-(1,3-benzothiazol-2-yl)propionic acid [(1S)-2-(2-furfurylamino)-2-keto-1-methyl-ethyl] ester

> <PUBCHEM_IUPAC_INCHI>
InChI=1S/C18H18N2O4S/c1-12(18(22)19-11-13-5-4-10-23-13)24-17(21)9-8-16-20-14-6-2-3-7-15(14)25-16/h2-7,10,12H,8-9,11H2,1H3,(H,19,22)/t12-/m0/s1

> <PUBCHEM_IUPAC_INCHIKEY>
IGDCRHCAKBXUAC-LBPRGKRZSA-N

> <PUBCHEM_XLOGP3_AA>
2.8

> <PUBCHEM_EXACT_MASS>
358.098728

> <PUBCHEM_MOLECULAR_FORMULA>
C18H18N2O4S

> <PUBCHEM_MOLECULAR_WEIGHT>
358.41152

> <PUBCHEM_OPENEYE_CAN_SMILES>
CC(C(=O)NCC1=CC=CO1)OC(=O)CCC2=NC3=CC=CC=C3S2

> <PUBCHEM_OPENEYE_ISO_SMILES>
C[C@@H](C(=O)NCC1=CC=CO1)OC(=O)CCC2=NC3=CC=CC=C3S2

> <PUBCHEM_CACTVS_TPSA>
110

> <PUBCHEM_MONOISOTOPIC_WEIGHT>
358.098728

> <PUBCHEM_TOTAL_CHARGE>
0

> <PUBCHEM_HEAVY_ATOM_COUNT>
25

> <PUBCHEM_ATOM_DEF_STEREO_COUNT>
1

> <PUBCHEM_ATOM_UDEF_STEREO_COUNT>
0

> <PUBCHEM_BOND_DEF_STEREO_COUNT>
0

> <PUBCHEM_BOND_UDEF_STEREO_COUNT>
0

> <PUBCHEM_ISOTOPIC_ATOM_COUNT>
0

> <PUBCHEM_COMPONENT_COUNT>
1

> <PUBCHEM_CACTVS_TAUTO_COUNT>
4

> <PUBCHEM_COORDINATE_TYPE>
1
5
255

> <PUBCHEM_BONDANNOTATIONS>
1  11  8
1  13  8
13  14  8
13  19  8
14  20  8
18  23  8
19  21  8
10  2  5
20  22  8
21  22  8
23  24  8
24  25  8
3  18  8
3  25  8
7  11  8
7  14  8

$$$$

