854332
  -OEChem-06241222482D

 39 41  0     0  0  0  0  0  0999 V2000
    6.3904   -1.5085    0.0000 O   0  0  0  0  0  0  0  0  0  0  0  0
    4.6420    1.5261    0.0000 O   0  0  0  0  0  0  0  0  0  0  0  0
    8.1224   -1.5085    0.0000 O   0  0  0  0  0  0  0  0  0  0  0  0
    2.8602   -1.5327    0.0000 O   0  0  0  0  0  0  0  0  0  0  0  0
    2.9100    1.5461    0.0000 O   0  0  0  0  0  0  0  0  0  0  0  0
    3.7320   -3.0293    0.0000 O   0  0  0  0  0  0  0  0  0  0  0  0
    6.3743    1.5330    0.0000 C   0  0  0  0  0  0  0  0  0  0  0  0
    7.2723    2.0608    0.0000 C   0  0  0  0  0  0  0  0  0  0  0  0
    6.3904    0.4915    0.0000 C   0  0  0  0  0  0  0  0  0  0  0  0
    8.1744    1.5399    0.0000 C   0  0  0  0  0  0  0  0  0  0  0  0
    8.1664    0.4983    0.0000 C   0  0  0  0  0  0  0  0  0  0  0  0
    7.2564   -0.0085    0.0000 C   0  0  0  0  0  0  0  0  0  0  0  0
    5.5243   -0.0085    0.0000 C   0  0  0  0  0  0  0  0  0  0  0  0
    5.5243   -1.0085    0.0000 C   0  0  0  0  0  0  0  0  0  0  0  0
    7.2564   -1.0085    0.0000 C   0  0  0  0  0  0  0  0  0  0  0  0
    4.6304    0.5261    0.0000 C   0  0  0  0  0  0  0  0  0  0  0  0
    4.6304   -1.5432    0.0000 C   0  0  0  0  0  0  0  0  0  0  0  0
    3.7243    0.0123    0.0000 C   0  0  0  0  0  0  0  0  0  0  0  0
    3.7243   -1.0293    0.0000 C   0  0  0  0  0  0  0  0  0  0  0  0
    3.7818    2.0361    0.0000 C   0  0  0  0  0  0  0  0  0  0  0  0
    2.8641   -2.5327    0.0000 C   0  0  0  0  0  0  0  0  0  0  0  0
    3.7933    3.0360    0.0000 C   0  0  0  0  0  0  0  0  0  0  0  0
    2.0000   -3.0360    0.0000 C   0  0  0  0  0  0  0  0  0  0  0  0
    6.1563    2.1134    0.0000 H   0  0  0  0  0  0  0  0  0  0  0  0
    5.7652    1.4175    0.0000 H   0  0  0  0  0  0  0  0  0  0  0  0
    7.6696    2.5367    0.0000 H   0  0  0  0  0  0  0  0  0  0  0  0
    6.8714    2.5336    0.0000 H   0  0  0  0  0  0  0  0  0  0  0  0
    8.7844    1.4291    0.0000 H   0  0  0  0  0  0  0  0  0  0  0  0
    8.3880    2.1220    0.0000 H   0  0  0  0  0  0  0  0  0  0  0  0
    8.3709   -0.0870    0.0000 H   0  0  0  0  0  0  0  0  0  0  0  0
    8.7780    0.5997    0.0000 H   0  0  0  0  0  0  0  0  0  0  0  0
    4.6376   -2.1631    0.0000 H   0  0  0  0  0  0  0  0  0  0  0  0
    3.1886    0.3244    0.0000 H   0  0  0  0  0  0  0  0  0  0  0  0
    4.4133    3.0288    0.0000 H   0  0  0  0  0  0  0  0  0  0  0  0
    3.8005    3.6560    0.0000 H   0  0  0  0  0  0  0  0  0  0  0  0
    3.1734    3.0432    0.0000 H   0  0  0  0  0  0  0  0  0  0  0  0
    1.6879   -2.5003    0.0000 H   0  0  0  0  0  0  0  0  0  0  0  0
    1.4643   -3.3481    0.0000 H   0  0  0  0  0  0  0  0  0  0  0  0
    2.3121   -3.5717    0.0000 H   0  0  0  0  0  0  0  0  0  0  0  0
  1 14  1  0  0  0  0
  1 15  1  0  0  0  0
  2 16  1  0  0  0  0
  2 20  1  0  0  0  0
  3 15  2  0  0  0  0
  4 19  1  0  0  0  0
  4 21  1  0  0  0  0
  5 20  2  0  0  0  0
  6 21  2  0  0  0  0
  7  8  1  0  0  0  0
  7  9  1  0  0  0  0
  7 24  1  0  0  0  0
  7 25  1  0  0  0  0
  8 10  1  0  0  0  0
  8 26  1  0  0  0  0
  8 27  1  0  0  0  0
  9 12  2  0  0  0  0
  9 13  1  0  0  0  0
 10 11  1  0  0  0  0
 10 28  1  0  0  0  0
 10 29  1  0  0  0  0
 11 12  1  0  0  0  0
 11 30  1  0  0  0  0
 11 31  1  0  0  0  0
 12 15  1  0  0  0  0
 13 14  2  0  0  0  0
 13 16  1  0  0  0  0
 14 17  1  0  0  0  0
 16 18  2  0  0  0  0
 17 19  2  0  0  0  0
 17 32  1  0  0  0  0
 18 19  1  0  0  0  0
 18 33  1  0  0  0  0
 20 22  1  0  0  0  0
 21 23  1  0  0  0  0
 22 34  1  0  0  0  0
 22 35  1  0  0  0  0
 22 36  1  0  0  0  0
 23 37  1  0  0  0  0
 23 38  1  0  0  0  0
 23 39  1  0  0  0  0
M  END
> <PUBCHEM_COMPOUND_CID>
854332

> <PUBCHEM_COMPOUND_CANONICALIZED>
1

> <PUBCHEM_CACTVS_COMPLEXITY>
563

> <PUBCHEM_CACTVS_HBOND_ACCEPTOR>
6

> <PUBCHEM_CACTVS_HBOND_DONOR>
0

> <PUBCHEM_CACTVS_ROTATABLE_BOND>
4

> <PUBCHEM_CACTVS_SUBSKEYS>
AAADceB4OAAAAAAAAAAAAAAAAAAAAAAAAAAwQIAAAAAAAACRAAAAGgAAAAAADASAmAAyDoAABACIAiDSCAACCAAgIAAAiAEGCMgMJzKEMRqCOiClwBUIqQeI6OyOIAAACAAIAABAAAAQABAAAAAAAAAAAA==

> <PUBCHEM_IUPAC_OPENEYE_NAME>
(1-acetoxy-6-oxo-7,8,9,10-tetrahydrobenzo[c]chromen-3-yl) acetate

> <PUBCHEM_IUPAC_CAS_NAME>
acetic acid (1-acetyloxy-6-oxo-7,8,9,10-tetrahydrobenzo[c][1]benzopyran-3-yl) ester

> <PUBCHEM_IUPAC_NAME>
(1-acetyloxy-6-oxo-7,8,9,10-tetrahydrobenzo[c]chromen-3-yl) acetate

> <PUBCHEM_IUPAC_SYSTEMATIC_NAME>
(1-acetyloxy-6-oxidanylidene-7,8,9,10-tetrahydrobenzo[c]chromen-3-yl) ethanoate

> <PUBCHEM_IUPAC_TRADITIONAL_NAME>
acetic acid (1-acetoxy-6-keto-7,8,9,10-tetrahydrobenzo[c]chromen-3-yl) ester

> <PUBCHEM_IUPAC_INCHI>
InChI=1S/C17H16O6/c1-9(18)21-11-7-14(22-10(2)19)16-12-5-3-4-6-13(12)17(20)23-15(16)8-11/h7-8H,3-6H2,1-2H3

> <PUBCHEM_IUPAC_INCHIKEY>
PLLGDMBVGDJBGT-UHFFFAOYSA-N

> <PUBCHEM_XLOGP3_AA>
2.4

> <PUBCHEM_EXACT_MASS>
316.094688

> <PUBCHEM_MOLECULAR_FORMULA>
C17H16O6

> <PUBCHEM_MOLECULAR_WEIGHT>
316.30534

> <PUBCHEM_OPENEYE_CAN_SMILES>
CC(=O)OC1=CC(=C2C3=C(CCCC3)C(=O)OC2=C1)OC(=O)C

> <PUBCHEM_OPENEYE_ISO_SMILES>
CC(=O)OC1=CC(=C2C3=C(CCCC3)C(=O)OC2=C1)OC(=O)C

> <PUBCHEM_CACTVS_TPSA>
78.9

> <PUBCHEM_MONOISOTOPIC_WEIGHT>
316.094688

> <PUBCHEM_TOTAL_CHARGE>
0

> <PUBCHEM_HEAVY_ATOM_COUNT>
23

> <PUBCHEM_ATOM_DEF_STEREO_COUNT>
0

> <PUBCHEM_ATOM_UDEF_STEREO_COUNT>
0

> <PUBCHEM_BOND_DEF_STEREO_COUNT>
0

> <PUBCHEM_BOND_UDEF_STEREO_COUNT>
0

> <PUBCHEM_ISOTOPIC_ATOM_COUNT>
0

> <PUBCHEM_COMPONENT_COUNT>
1

> <PUBCHEM_CACTVS_TAUTO_COUNT>
1

> <PUBCHEM_COORDINATE_TYPE>
1
5
255

> <PUBCHEM_BONDANNOTATIONS>
1  14  8
1  15  8
12  15  8
13  14  8
13  16  8
14  17  8
16  18  8
17  19  8
18  19  8
9  12  8
9  13  8

$$$$

