4511
  -OEChem-06261200112D

 20 20  0     0  0  0  0  0  0999 V2000
    3.7320    1.9400    0.0000 O   0  0  0  0  0  0  0  0  0  0  0  0
    6.3301   -2.5600    0.0000 O   0  5  0  0  0  0  0  0  0  0  0  0
    2.8660   -2.5600    0.0000 O   0  5  0  0  0  0  0  0  0  0  0  0
    7.1962   -1.0600    0.0000 O   0  0  0  0  0  0  0  0  0  0  0  0
    2.0000   -1.0600    0.0000 O   0  0  0  0  0  0  0  0  0  0  0  0
    6.3301   -1.5600    0.0000 N   0  3  0  0  0  0  0  0  0  0  0  0
    2.8660   -1.5600    0.0000 N   0  3  0  0  0  0  0  0  0  0  0  0
    5.4641    1.9400    0.0000 N   0  0  0  0  0  0  0  0  0  0  0  0
    4.5981    0.4400    0.0000 C   0  0  0  0  0  0  0  0  0  0  0  0
    5.4641   -1.0600    0.0000 C   0  0  0  0  0  0  0  0  0  0  0  0
    3.7320   -1.0600    0.0000 C   0  0  0  0  0  0  0  0  0  0  0  0
    3.7320   -0.0600    0.0000 C   0  0  0  0  0  0  0  0  0  0  0  0
    5.4641   -0.0600    0.0000 C   0  0  0  0  0  0  0  0  0  0  0  0
    4.5981   -1.5600    0.0000 C   0  0  0  0  0  0  0  0  0  0  0  0
    4.5981    1.4400    0.0000 C   0  0  0  0  0  0  0  0  0  0  0  0
    3.1951    0.2500    0.0000 H   0  0  0  0  0  0  0  0  0  0  0  0
    6.0010    0.2500    0.0000 H   0  0  0  0  0  0  0  0  0  0  0  0
    4.5981   -2.1800    0.0000 H   0  0  0  0  0  0  0  0  0  0  0  0
    5.4641    2.5600    0.0000 H   0  0  0  0  0  0  0  0  0  0  0  0
    6.0010    1.6300    0.0000 H   0  0  0  0  0  0  0  0  0  0  0  0
  1 15  2  0  0  0  0
  2  6  1  0  0  0  0
  3  7  1  0  0  0  0
  4  6  2  0  0  0  0
  5  7  2  0  0  0  0
  6 10  1  0  0  0  0
  7 11  1  0  0  0  0
  8 15  1  0  0  0  0
  8 19  1  0  0  0  0
  8 20  1  0  0  0  0
  9 12  2  0  0  0  0
  9 13  1  0  0  0  0
  9 15  1  0  0  0  0
 10 13  2  0  0  0  0
 10 14  1  0  0  0  0
 11 12  1  0  0  0  0
 11 14  2  0  0  0  0
 12 16  1  0  0  0  0
 13 17  1  0  0  0  0
 14 18  1  0  0  0  0
M  CHG  4   2  -1   3  -1   6   1   7   1
M  END
> <PUBCHEM_COMPOUND_CID>
4511

> <PUBCHEM_COMPOUND_CANONICALIZED>
1

> <PUBCHEM_CACTVS_COMPLEXITY>
272

> <PUBCHEM_CACTVS_HBOND_ACCEPTOR>
5

> <PUBCHEM_CACTVS_HBOND_DONOR>
1

> <PUBCHEM_CACTVS_ROTATABLE_BOND>
1

> <PUBCHEM_CACTVS_SUBSKEYS>
AAADcYBjOAAAAAAAAAAAAAAAAAAAAAAAAAAwAAAAAAAAAAABAAAAHgAUAAAADAiBmAAwwIBQQACJAiVSUwCCAAAkAgAgiAEAZMoIIDKA1dGAIQBggAAIyYcciACOAAAAQAQAAAAAAACACAAAAAAAAAAAAA==

> <PUBCHEM_IUPAC_OPENEYE_NAME>
3,5-dinitrobenzamide

> <PUBCHEM_IUPAC_CAS_NAME>
3,5-dinitrobenzamide

> <PUBCHEM_IUPAC_NAME>
3,5-dinitrobenzamide

> <PUBCHEM_IUPAC_SYSTEMATIC_NAME>
3,5-dinitrobenzamide

> <PUBCHEM_IUPAC_TRADITIONAL_NAME>
3,5-dinitrobenzamide

> <PUBCHEM_IUPAC_INCHI>
InChI=1S/C7H5N3O5/c8-7(11)4-1-5(9(12)13)3-6(2-4)10(14)15/h1-3H,(H2,8,11)

> <PUBCHEM_IUPAC_INCHIKEY>
UUKWKUSGGZNXGA-UHFFFAOYSA-N

> <PUBCHEM_XLOGP3>
0.8

> <PUBCHEM_EXACT_MASS>
211.02292

> <PUBCHEM_MOLECULAR_FORMULA>
C7H5N3O5

> <PUBCHEM_MOLECULAR_WEIGHT>
211.1317

> <PUBCHEM_OPENEYE_CAN_SMILES>
C1=C(C=C(C=C1[N+](=O)[O-])[N+](=O)[O-])C(=O)N

> <PUBCHEM_OPENEYE_ISO_SMILES>
C1=C(C=C(C=C1[N+](=O)[O-])[N+](=O)[O-])C(=O)N

> <PUBCHEM_CACTVS_TPSA>
135

> <PUBCHEM_MONOISOTOPIC_WEIGHT>
211.02292

> <PUBCHEM_TOTAL_CHARGE>
0

> <PUBCHEM_HEAVY_ATOM_COUNT>
15

> <PUBCHEM_ATOM_DEF_STEREO_COUNT>
0

> <PUBCHEM_ATOM_UDEF_STEREO_COUNT>
0

> <PUBCHEM_BOND_DEF_STEREO_COUNT>
0

> <PUBCHEM_BOND_UDEF_STEREO_COUNT>
0

> <PUBCHEM_ISOTOPIC_ATOM_COUNT>
0

> <PUBCHEM_COMPONENT_COUNT>
1

> <PUBCHEM_CACTVS_TAUTO_COUNT>
2

> <PUBCHEM_COORDINATE_TYPE>
1
5
255

> <PUBCHEM_BONDANNOTATIONS>
10  13  8
10  14  8
11  12  8
11  14  8
9  12  8
9  13  8

$$$$

