17396325
  -OEChem-06241222563D

 35 37  0     0  0  0  0  0  0999 V2000
   -2.4644   -2.6950    1.0139 S   0  0  0  0  0  0  0  0  0  0  0  0
   -0.6897   -2.6699   -1.4820 S   0  0  0  0  0  0  0  0  0  0  0  0
    5.1113    0.5351    0.9949 F   0  0  0  0  0  0  0  0  0  0  0  0
    0.0313    2.0461   -0.6161 N   0  0  0  0  0  0  0  0  0  0  0  0
   -1.1898    0.5080    0.5964 N   0  0  0  0  0  0  0  0  0  0  0  0
   -3.5823    0.5370    0.4159 N   0  0  0  0  0  0  0  0  0  0  0  0
   -2.2663    2.1137   -0.8250 N   0  0  0  0  0  0  0  0  0  0  0  0
   -4.6063    2.1189   -0.9798 N   0  0  0  0  0  0  0  0  0  0  0  0
    0.2227   -2.4150    0.8990 N   0  0  0  0  0  0  0  0  0  0  0  0
    1.3266   -2.3517    0.0666 N   0  0  0  0  0  0  0  0  0  0  0  0
    1.3246    1.6619   -0.2058 C   0  0  0  0  0  0  0  0  0  0  0  0
   -2.4208    0.0608    0.8924 C   0  0  0  0  0  0  0  0  0  0  0  0
   -1.1900    1.5354   -0.2683 C   0  0  0  0  0  0  0  0  0  0  0  0
   -2.5067   -1.0796    1.8489 C   0  0  0  0  0  0  0  0  0  0  0  0
    2.3845    1.7026   -1.1117 C   0  0  0  0  0  0  0  0  0  0  0  0
    1.5438    1.2407    1.1057 C   0  0  0  0  0  0  0  0  0  0  0  0
   -3.4276    1.5625   -0.4371 C   0  0  0  0  0  0  0  0  0  0  0  0
    3.6636    1.3220   -0.7060 C   0  0  0  0  0  0  0  0  0  0  0  0
    2.8229    0.8600    1.5114 C   0  0  0  0  0  0  0  0  0  0  0  0
    3.8828    0.9007    0.6055 C   0  0  0  0  0  0  0  0  0  0  0  0
   -0.8918   -2.5792    0.2191 C   0  0  0  0  0  0  0  0  0  0  0  0
    0.9905   -2.4716   -1.2000 C   0  0  0  0  0  0  0  0  0  0  0  0
    1.9311   -2.4434   -2.3379 C   0  0  0  0  0  0  0  0  0  0  0  0
   -1.6897   -1.0268    2.5773 H   0  0  0  0  0  0  0  0  0  0  0  0
   -3.4409   -1.0172    2.4175 H   0  0  0  0  0  0  0  0  0  0  0  0
    0.0091    2.7071   -1.3852 H   0  0  0  0  0  0  0  0  0  0  0  0
    2.2260    2.0271   -2.1370 H   0  0  0  0  0  0  0  0  0  0  0  0
    0.7574    1.2374    1.8542 H   0  0  0  0  0  0  0  0  0  0  0  0
    4.4889    1.3524   -1.4112 H   0  0  0  0  0  0  0  0  0  0  0  0
    2.9962    0.5405    2.5348 H   0  0  0  0  0  0  0  0  0  0  0  0
    1.8920   -3.3793   -2.9043 H   0  0  0  0  0  0  0  0  0  0  0  0
    1.7030   -1.6139   -3.0150 H   0  0  0  0  0  0  0  0  0  0  0  0
    2.9584   -2.3100   -1.9833 H   0  0  0  0  0  0  0  0  0  0  0  0
   -5.5037    1.7360   -0.7161 H   0  0  0  0  0  0  0  0  0  0  0  0
   -4.5388    2.8927   -1.6265 H   0  0  0  0  0  0  0  0  0  0  0  0
  1 14  1  0  0  0  0
  1 21  1  0  0  0  0
  2 21  1  0  0  0  0
  2 22  1  0  0  0  0
  3 20  1  0  0  0  0
  4 11  1  0  0  0  0
  4 13  1  0  0  0  0
  4 26  1  0  0  0  0
  5 12  1  0  0  0  0
  5 13  2  0  0  0  0
  6 12  2  0  0  0  0
  6 17  1  0  0  0  0
  7 13  1  0  0  0  0
  7 17  2  0  0  0  0
  8 17  1  0  0  0  0
  8 34  1  0  0  0  0
  8 35  1  0  0  0  0
  9 10  1  0  0  0  0
  9 21  2  0  0  0  0
 10 22  2  0  0  0  0
 11 15  2  0  0  0  0
 11 16  1  0  0  0  0
 12 14  1  0  0  0  0
 14 24  1  0  0  0  0
 14 25  1  0  0  0  0
 15 18  1  0  0  0  0
 15 27  1  0  0  0  0
 16 19  2  0  0  0  0
 16 28  1  0  0  0  0
 18 20  2  0  0  0  0
 18 29  1  0  0  0  0
 19 20  1  0  0  0  0
 19 30  1  0  0  0  0
 22 23  1  0  0  0  0
 23 31  1  0  0  0  0
 23 32  1  0  0  0  0
 23 33  1  0  0  0  0
M  END
> <PUBCHEM_COMPOUND_CID>
17396325

> <PUBCHEM_CONFORMER_RMSD>
1

> <PUBCHEM_CONFORMER_DIVERSEORDER>
1
103
74
39
62
47
36
63
28
101
49
4
104
55
31
83
94
66
29
25
64
98
9
27
76
24
65
89
32
57
80
18
99
38
86
8
81
59
70
108
97
107
90
2
21
15
17
23
105
93
95
44
100
77
92
22
35
40
72
52
6
37
30
79
102
50
88
61
69
41
85
10
5
54
26
56
46
78
33
87
75
14
7
19
96
73
53
82
43
58
68
3
16
91
67
84
20
12
71
11
42
13
51
106
34
48
45
60

> <PUBCHEM_MMFF94_PARTIAL_CHARGES>
30
1 -0.29
10 -0.34
11 0.1
12 0.48
13 0.72
14 0.37
15 -0.15
16 -0.15
17 0.72
18 -0.15
19 -0.15
2 -0.08
20 0.19
21 0.43
22 0.2
23 0.18
26 0.4
27 0.15
28 0.15
29 0.15
3 -0.19
30 0.15
34 0.4
35 0.4
4 -0.6
5 -0.62
6 -0.62
7 -0.62
8 -0.9
9 -0.34

> <PUBCHEM_EFFECTIVE_ROTOR_COUNT>
5

> <PUBCHEM_PHARMACOPHORE_FEATURES>
9
1 10 acceptor
1 4 donor
1 8 donor
1 9 acceptor
4 4 5 7 13 cation
4 6 7 8 17 cation
5 2 9 10 21 22 rings
6 11 15 16 18 19 20 rings
6 5 6 7 12 13 17 rings

> <PUBCHEM_HEAVY_ATOM_COUNT>
23

> <PUBCHEM_ATOM_DEF_STEREO_COUNT>
0

> <PUBCHEM_ATOM_UDEF_STEREO_COUNT>
0

> <PUBCHEM_BOND_DEF_STEREO_COUNT>
0

> <PUBCHEM_BOND_UDEF_STEREO_COUNT>
0

> <PUBCHEM_ISOTOPIC_ATOM_COUNT>
0

> <PUBCHEM_COMPONENT_COUNT>
1

> <PUBCHEM_CACTVS_TAUTO_COUNT>
9

> <PUBCHEM_CONFORMER_ID>
0109726500000001

> <PUBCHEM_MMFF94_ENERGY>
56.3509

> <PUBCHEM_FEATURE_SELFOVERLAP>
47.208

> <PUBCHEM_SHAPE_FINGERPRINT>
104564 63 18195248810623221582
10616163 171 18201435835487994713
11524674 6 17968392203736293278
12422481 6 18120627194562324619
12553582 1 17404018124204424616
13726171 33 17839985664560814972
14251751 93 18342176618420679866
16752209 62 18194693574394023675
17093844 170 18268991062928920212
19777482 4 17322687274957549231
20691752 17 17702377545643677053
20905425 154 18411411804438206490
22182313 1 18269820039172671531
23419403 2 17972284504172613743
238 59 18261398896331083293
2748010 2 18267846415500236971
3027735 51 17896611587259346495
3298306 158 18410858805955470237
35225 105 17971464105215299949
465052 167 17698143064309187179
508706 21 18340195323989766319
81228 2 17541952987469557226
90525 40 18269829813832441313
9862522 239 18335702685087078506

> <PUBCHEM_SHAPE_MULTIPOLES>
438.89
6.9
3.92
1.72
2.72
2.38
0.15
-4.09
-1.13
-1.78
1.58
0.25
0.77
1.73

> <PUBCHEM_SHAPE_SELFOVERLAP>
916.701

> <PUBCHEM_SHAPE_VOLUME>
253.1

> <PUBCHEM_COORDINATE_TYPE>
2
5
10

$$$$

