17395931
  -OEChem-06241222533D

 39 41  0     0  0  0  0  0  0999 V2000
   -1.9878    2.0112    0.7286 Cl  0  0  0  0  0  0  0  0  0  0  0  0
   -8.1328    0.4736   -0.2881 F   0  0  0  0  0  0  0  0  0  0  0  0
    5.3815    1.8856   -0.5213 O   0  0  0  0  0  0  0  0  0  0  0  0
    5.9913   -0.7796   -0.0411 O   0  0  0  0  0  0  0  0  0  0  0  0
    1.5012   -2.9670    0.7023 O   0  0  0  0  0  0  0  0  0  0  0  0
    0.6918    0.8931    0.0021 N   0  0  0  0  0  0  0  0  0  0  0  0
   -0.0662   -1.3096    0.4877 N   0  0  0  0  0  0  0  0  0  0  0  0
    2.0319    0.5012   -0.0152 C   0  0  0  0  0  0  0  0  0  0  0  0
    2.3483   -0.8413    0.2257 C   0  0  0  0  0  0  0  0  0  0  0  0
    3.0615    1.4122   -0.2660 C   0  0  0  0  0  0  0  0  0  0  0  0
    3.6773   -1.2738    0.2172 C   0  0  0  0  0  0  0  0  0  0  0  0
    4.3900    0.9840   -0.2749 C   0  0  0  0  0  0  0  0  0  0  0  0
    4.6965   -0.3556   -0.0340 C   0  0  0  0  0  0  0  0  0  0  0  0
   -0.2893   -0.0416    0.2545 C   0  0  0  0  0  0  0  0  0  0  0  0
    1.2316   -1.7888    0.4900 C   0  0  0  0  0  0  0  0  0  0  0  0
   -1.7087    0.3898    0.2694 C   0  0  0  0  0  0  0  0  0  0  0  0
   -2.6249   -0.5043   -0.0941 C   0  0  0  0  0  0  0  0  0  0  0  0
   -4.0698   -0.2476   -0.1449 C   0  0  0  0  0  0  0  0  0  0  0  0
   -4.7552   -0.3554   -1.3551 C   0  0  0  0  0  0  0  0  0  0  0  0
   -4.7569    0.1042    1.0169 C   0  0  0  0  0  0  0  0  0  0  0  0
    5.9403    2.5579    0.6053 C   0  0  0  0  0  0  0  0  0  0  0  0
    6.5204   -1.2248   -1.2885 C   0  0  0  0  0  0  0  0  0  0  0  0
   -6.1276   -0.1116   -1.4034 C   0  0  0  0  0  0  0  0  0  0  0  0
   -6.1295    0.3480    0.9685 C   0  0  0  0  0  0  0  0  0  0  0  0
   -6.8148    0.2403   -0.2418 C   0  0  0  0  0  0  0  0  0  0  0  0
    2.8302    2.4579   -0.4555 H   0  0  0  0  0  0  0  0  0  0  0  0
    0.4709    1.8662   -0.1739 H   0  0  0  0  0  0  0  0  0  0  0  0
    3.9292   -2.3142    0.4045 H   0  0  0  0  0  0  0  0  0  0  0  0
   -2.3535   -1.5045   -0.4240 H   0  0  0  0  0  0  0  0  0  0  0  0
   -4.2330   -0.6281   -2.2690 H   0  0  0  0  0  0  0  0  0  0  0  0
   -4.2450    0.1819    1.9731 H   0  0  0  0  0  0  0  0  0  0  0  0
    6.7200    3.2360    0.2475 H   0  0  0  0  0  0  0  0  0  0  0  0
    6.3915    1.8404    1.2978 H   0  0  0  0  0  0  0  0  0  0  0  0
    5.1738    3.1462    1.1198 H   0  0  0  0  0  0  0  0  0  0  0  0
    7.5609   -1.5225   -1.1325 H   0  0  0  0  0  0  0  0  0  0  0  0
    6.4943   -0.4184   -2.0282 H   0  0  0  0  0  0  0  0  0  0  0  0
    5.9598   -2.0903   -1.6557 H   0  0  0  0  0  0  0  0  0  0  0  0
   -6.6616   -0.1955   -2.3453 H   0  0  0  0  0  0  0  0  0  0  0  0
   -6.6656    0.6192    1.8733 H   0  0  0  0  0  0  0  0  0  0  0  0
  1 16  1  0  0  0  0
  2 25  1  0  0  0  0
  3 12  1  0  0  0  0
  3 21  1  0  0  0  0
  4 13  1  0  0  0  0
  4 22  1  0  0  0  0
  5 15  2  0  0  0  0
  6  8  1  0  0  0  0
  6 14  1  0  0  0  0
  6 27  1  0  0  0  0
  7 14  2  0  0  0  0
  7 15  1  0  0  0  0
  8  9  1  0  0  0  0
  8 10  2  0  0  0  0
  9 11  2  0  0  0  0
  9 15  1  0  0  0  0
 10 12  1  0  0  0  0
 10 26  1  0  0  0  0
 11 13  1  0  0  0  0
 11 28  1  0  0  0  0
 12 13  2  0  0  0  0
 14 16  1  0  0  0  0
 16 17  2  0  0  0  0
 17 18  1  0  0  0  0
 17 29  1  0  0  0  0
 18 19  2  0  0  0  0
 18 20  1  0  0  0  0
 19 23  1  0  0  0  0
 19 30  1  0  0  0  0
 20 24  2  0  0  0  0
 20 31  1  0  0  0  0
 21 32  1  0  0  0  0
 21 33  1  0  0  0  0
 21 34  1  0  0  0  0
 22 35  1  0  0  0  0
 22 36  1  0  0  0  0
 22 37  1  0  0  0  0
 23 25  2  0  0  0  0
 23 38  1  0  0  0  0
 24 25  1  0  0  0  0
 24 39  1  0  0  0  0
M  END
> <PUBCHEM_COMPOUND_CID>
17395931

> <PUBCHEM_CONFORMER_RMSD>
0.8

> <PUBCHEM_CONFORMER_DIVERSEORDER>
1
6
2
7
3
4
5

> <PUBCHEM_MMFF94_PARTIAL_CHARGES>
33
1 -0.14
10 -0.15
11 -0.15
12 0.08
13 0.08
14 0.49
15 0.69
16 0.15
17 -0.18
18 0.03
19 -0.15
2 -0.19
20 -0.15
21 0.28
22 0.28
23 -0.15
24 -0.15
25 0.19
26 0.15
27 0.4
28 0.15
29 0.15
3 -0.36
30 0.15
31 0.15
38 0.15
39 0.15
4 -0.36
5 -0.57
6 -0.55
7 -0.66
8 0.1
9 0.09

> <PUBCHEM_EFFECTIVE_ROTOR_COUNT>
4

> <PUBCHEM_PHARMACOPHORE_FEATURES>
8
1 3 acceptor
1 4 acceptor
1 5 acceptor
1 6 donor
1 7 donor
6 18 19 20 23 24 25 rings
6 6 7 8 9 14 15 rings
6 8 9 10 11 12 13 rings

> <PUBCHEM_HEAVY_ATOM_COUNT>
25

> <PUBCHEM_ATOM_DEF_STEREO_COUNT>
0

> <PUBCHEM_ATOM_UDEF_STEREO_COUNT>
0

> <PUBCHEM_BOND_DEF_STEREO_COUNT>
1

> <PUBCHEM_BOND_UDEF_STEREO_COUNT>
0

> <PUBCHEM_ISOTOPIC_ATOM_COUNT>
0

> <PUBCHEM_COMPONENT_COUNT>
1

> <PUBCHEM_CACTVS_TAUTO_COUNT>
3

> <PUBCHEM_CONFORMER_ID>
010970DB00000001

> <PUBCHEM_MMFF94_ENERGY>
100.0172

> <PUBCHEM_FEATURE_SELFOVERLAP>
40.66

> <PUBCHEM_SHAPE_FINGERPRINT>
10 15 17131835317997729212
10299344 5 17894911832824698839
10411042 1 17909272717673909826
10595046 47 18408044022556248539
10693767 8 18189334748775494582
11796584 16 14851609868669476974
12107183 9 17543063941538887803
12166972 35 18273492377470457996
12236239 1 18040997332520311357
12403259 415 18131074844132546860
12516196 113 18335423456984931625
12730499 353 18131631200984290010
12788726 201 17895193376615734891
13533116 47 18260265257483958224
14170010 4 18131069320467071988
14840074 17 18333453136426866741
15183329 4 17821440261915991636
15276724 80 18268996565452361781
16993438 75 18057880234992730843
19489759 90 15430035470644281347
200 152 18408888460197319625
20028762 73 18260268581641608766
20157964 124 18411139121955415140
21049683 118 17986972764539452962
21150785 3 17895196563518534149
21267235 1 18409158943777719770
21521721 280 18410009901427027344
21641784 216 18129930290945946125
221357 26 18335137618221221332
2297311 6 15285355112127338499
23035841 295 17313104163991547103
23081809 10 17676202468210184145
23522609 53 17532629322309000409
23559900 14 18337397020026956545
25147074 1 18190459557348096003
255183 451 17900817460139386614
29717793 49 17967810561710588662
3004659 81 18410294722088172680
335352 9 18412538826534053070
34797466 226 17458620099616341804
3545911 37 18131631192842488219
4073 2 18060414673634101043
4325135 7 18260830427355223047
4340502 62 16343992394560575816
5283156 175 17676204701867497647
7495541 125 16008755688613394906

> <PUBCHEM_SHAPE_MULTIPOLES>
481.51
19.48
2.03
1.02
14.16
0.13
0.18
3.22
4.22
-3.65
-0.42
0.77
-0.12
-0.19

> <PUBCHEM_SHAPE_SELFOVERLAP>
1041.83

> <PUBCHEM_SHAPE_VOLUME>
265.7

> <PUBCHEM_COORDINATE_TYPE>
2
5
10

$$$$

