47205587
  -OEChem-06241222592D

 33 34  0     1  0  0  0  0  0999 V2000
    4.5032   -1.0050    0.0000 S   0  0  0  0  0  0  0  0  0  0  0  0
    6.7985    0.9211    0.0000 O   0  0  0  0  0  0  0  0  0  0  0  0
    8.7006    0.3031    0.0000 N   0  0  0  0  0  0  0  0  0  0  0  0
    6.2633   -0.7262    0.0000 N   0  0  0  0  0  0  0  0  0  0  0  0
    4.0032    0.5339    0.0000 N   0  0  0  0  0  0  0  0  0  0  0  0
    5.0032    0.5339    0.0000 N   0  0  0  0  0  0  0  0  0  0  0  0
    9.5096    1.7043    0.0000 N   0  0  0  0  0  0  0  0  0  0  0  0
    7.9575   -0.3661    0.0000 C   0  0  3  0  0  0  0  0  0  0  0  0
    2.7431   -0.7262    0.0000 C   0  0  0  0  0  0  0  0  0  0  0  0
    7.0064   -0.0570    0.0000 C   0  0  0  0  0  0  0  0  0  0  0  0
    8.1654   -1.3442    0.0000 C   0  0  0  0  0  0  0  0  0  0  0  0
    3.6942   -0.4172    0.0000 C   0  0  0  0  0  0  0  0  0  0  0  0
    2.0000   -0.0570    0.0000 C   0  0  0  0  0  0  0  0  0  0  0  0
    2.5352   -1.7043    0.0000 C   0  0  0  0  0  0  0  0  0  0  0  0
    9.6788    0.0952    0.0000 C   0  0  0  0  0  0  0  0  0  0  0  0
    5.3122   -0.4172    0.0000 C   0  0  0  0  0  0  0  0  0  0  0  0
    8.5961    1.2976    0.0000 C   0  0  0  0  0  0  0  0  0  0  0  0
   10.1788    0.9612    0.0000 C   0  0  0  0  0  0  0  0  0  0  0  0
    8.5472   -0.5577    0.0000 H   0  0  0  0  0  0  0  0  0  0  0  0
    3.2039   -1.1410    0.0000 H   0  0  0  0  0  0  0  0  0  0  0  0
    7.5590   -1.4731    0.0000 H   0  0  0  0  0  0  0  0  0  0  0  0
    8.2943   -1.9507    0.0000 H   0  0  0  0  0  0  0  0  0  0  0  0
    8.7719   -1.2153    0.0000 H   0  0  0  0  0  0  0  0  0  0  0  0
    1.9288   -1.5754    0.0000 H   0  0  0  0  0  0  0  0  0  0  0  0
    2.4063   -2.3108    0.0000 H   0  0  0  0  0  0  0  0  0  0  0  0
    2.4149    0.4037    0.0000 H   0  0  0  0  0  0  0  0  0  0  0  0
    1.5392    0.3578    0.0000 H   0  0  0  0  0  0  0  0  0  0  0  0
    1.5851   -0.5178    0.0000 H   0  0  0  0  0  0  0  0  0  0  0  0
    3.1417   -1.8332    0.0000 H   0  0  0  0  0  0  0  0  0  0  0  0
    6.3922   -1.3326    0.0000 H   0  0  0  0  0  0  0  0  0  0  0  0
    9.9310   -0.4712    0.0000 H   0  0  0  0  0  0  0  0  0  0  0  0
    8.0592    1.6076    0.0000 H   0  0  0  0  0  0  0  0  0  0  0  0
   10.7954    1.0260    0.0000 H   0  0  0  0  0  0  0  0  0  0  0  0
  1 12  1  0  0  0  0
  1 16  1  0  0  0  0
  2 10  2  0  0  0  0
  3  8  1  0  0  0  0
  3 15  1  0  0  0  0
  3 17  1  0  0  0  0
  4 10  1  0  0  0  0
  4 16  1  0  0  0  0
  4 30  1  0  0  0  0
  5  6  1  0  0  0  0
  5 12  2  0  0  0  0
  6 16  2  0  0  0  0
  7 17  2  0  0  0  0
  7 18  1  0  0  0  0
  8 10  1  0  0  0  0
  8 11  1  0  0  0  0
  8 19  1  0  0  0  0
  9 12  1  0  0  0  0
  9 13  1  0  0  0  0
  9 14  1  0  0  0  0
  9 20  1  0  0  0  0
 11 21  1  0  0  0  0
 11 22  1  0  0  0  0
 11 23  1  0  0  0  0
 13 26  1  0  0  0  0
 13 27  1  0  0  0  0
 13 28  1  0  0  0  0
 14 24  1  0  0  0  0
 14 25  1  0  0  0  0
 14 29  1  0  0  0  0
 15 18  2  0  0  0  0
 15 31  1  0  0  0  0
 17 32  1  0  0  0  0
 18 33  1  0  0  0  0
M  END
> <PUBCHEM_COMPOUND_CID>
47205587

> <PUBCHEM_COMPOUND_CANONICALIZED>
1

> <PUBCHEM_CACTVS_COMPLEXITY>
301

> <PUBCHEM_CACTVS_HBOND_ACCEPTOR>
5

> <PUBCHEM_CACTVS_HBOND_DONOR>
1

> <PUBCHEM_CACTVS_ROTATABLE_BOND>
4

> <PUBCHEM_CACTVS_SUBSKEYS>
AAADccBzoABAAAAAAAAAAAAAAAAAAWLAAAAAAAAAAAAAAAAB4AAAHgQYAAAADSjBwgQvkBfMEAiuABE3dAAQgK9RErkdQAG4MACASAAgCCAUAAAYGQKAACAAAAAAAAAAAAAAAAAAAAAAAAAAAAAAAAAAAA==

> <PUBCHEM_IUPAC_OPENEYE_NAME>
2-imidazol-1-yl-N-(5-isopropyl-1,3,4-thiadiazol-2-yl)propanamide

> <PUBCHEM_IUPAC_CAS_NAME>
2-(1-imidazolyl)-N-(5-propan-2-yl-1,3,4-thiadiazol-2-yl)propanamide

> <PUBCHEM_IUPAC_NAME>
2-imidazol-1-yl-N-(5-propan-2-yl-1,3,4-thiadiazol-2-yl)propanamide

> <PUBCHEM_IUPAC_SYSTEMATIC_NAME>
2-imidazol-1-yl-N-(5-propan-2-yl-1,3,4-thiadiazol-2-yl)propanamide

> <PUBCHEM_IUPAC_TRADITIONAL_NAME>
2-imidazol-1-yl-N-(5-isopropyl-1,3,4-thiadiazol-2-yl)propionamide

> <PUBCHEM_IUPAC_INCHI>
InChI=1S/C11H15N5OS/c1-7(2)10-14-15-11(18-10)13-9(17)8(3)16-5-4-12-6-16/h4-8H,1-3H3,(H,13,15,17)

> <PUBCHEM_IUPAC_INCHIKEY>
ZSGHMEOGUQPHTP-UHFFFAOYSA-N

> <PUBCHEM_XLOGP3_AA>
1.4

> <PUBCHEM_EXACT_MASS>
265.099731

> <PUBCHEM_MOLECULAR_FORMULA>
C11H15N5OS

> <PUBCHEM_MOLECULAR_WEIGHT>
265.3347

> <PUBCHEM_OPENEYE_CAN_SMILES>
CC(C)C1=NN=C(S1)NC(=O)C(C)N2C=CN=C2

> <PUBCHEM_OPENEYE_ISO_SMILES>
CC(C)C1=NN=C(S1)NC(=O)C(C)N2C=CN=C2

> <PUBCHEM_CACTVS_TPSA>
101

> <PUBCHEM_MONOISOTOPIC_WEIGHT>
265.099731

> <PUBCHEM_TOTAL_CHARGE>
0

> <PUBCHEM_HEAVY_ATOM_COUNT>
18

> <PUBCHEM_ATOM_DEF_STEREO_COUNT>
0

> <PUBCHEM_ATOM_UDEF_STEREO_COUNT>
1

> <PUBCHEM_BOND_DEF_STEREO_COUNT>
0

> <PUBCHEM_BOND_UDEF_STEREO_COUNT>
0

> <PUBCHEM_ISOTOPIC_ATOM_COUNT>
0

> <PUBCHEM_COMPONENT_COUNT>
1

> <PUBCHEM_CACTVS_TAUTO_COUNT>
5

> <PUBCHEM_COORDINATE_TYPE>
1
5
255

> <PUBCHEM_BONDANNOTATIONS>
1  12  8
1  16  8
15  18  8
3  15  8
3  17  8
5  12  8
5  6  8
6  16  8
7  17  8
7  18  8
8  11  3

$$$$

