12930
  -OEChem-06261207333D

 29 29  0     1  0  0  0  0  0999 V2000
   -1.3938   -0.2758    0.3227 O   0  0  0  0  0  0  0  0  0  0  0  0
   -2.5148   -0.2323   -0.5195 N   0  0  0  0  0  0  0  0  0  0  0  0
   -4.4314    1.0453   -0.8995 N   0  0  0  0  0  0  0  0  0  0  0  0
   -3.0345    1.7083    0.7837 N   0  0  0  0  0  0  0  0  0  0  0  0
    0.6562   -1.4586    0.8191 C   0  0  0  0  0  0  0  0  0  0  0  0
   -0.6069   -1.3974   -0.0478 C   0  0  1  0  0  0  0  0  0  0  0  0
    1.7113   -0.4806    0.3596 C   0  0  0  0  0  0  0  0  0  0  0  0
   -1.4528   -2.6537    0.1174 C   0  0  0  0  0  0  0  0  0  0  0  0
    2.6469   -0.8835   -0.5797 C   0  0  0  0  0  0  0  0  0  0  0  0
    1.7236    0.8014    0.8853 C   0  0  0  0  0  0  0  0  0  0  0  0
    3.6213    0.0197   -1.0045 C   0  0  0  0  0  0  0  0  0  0  0  0
    2.6980    1.7045    0.4604 C   0  0  0  0  0  0  0  0  0  0  0  0
    3.6468    1.3136   -0.4845 C   0  0  0  0  0  0  0  0  0  0  0  0
   -3.2701    0.7890   -0.2126 C   0  0  0  0  0  0  0  0  0  0  0  0
    1.0890   -2.4673    0.7945 H   0  0  0  0  0  0  0  0  0  0  0  0
    0.4088   -1.2571    1.8697 H   0  0  0  0  0  0  0  0  0  0  0  0
   -0.3248   -1.3009   -1.1050 H   0  0  0  0  0  0  0  0  0  0  0  0
   -0.8578   -3.5545   -0.0655 H   0  0  0  0  0  0  0  0  0  0  0  0
   -1.8714   -2.7137    1.1284 H   0  0  0  0  0  0  0  0  0  0  0  0
   -2.2969   -2.6786   -0.5797 H   0  0  0  0  0  0  0  0  0  0  0  0
    2.6337   -1.8881   -0.9925 H   0  0  0  0  0  0  0  0  0  0  0  0
    0.9883    1.1157    1.6204 H   0  0  0  0  0  0  0  0  0  0  0  0
    4.3596   -0.2842   -1.7408 H   0  0  0  0  0  0  0  0  0  0  0  0
    2.7177    2.7124    0.8648 H   0  0  0  0  0  0  0  0  0  0  0  0
    4.4052    2.0170   -0.8155 H   0  0  0  0  0  0  0  0  0  0  0  0
   -4.7319    0.4482   -1.6622 H   0  0  0  0  0  0  0  0  0  0  0  0
   -5.0218    1.8361   -0.6659 H   0  0  0  0  0  0  0  0  0  0  0  0
   -3.6736    2.4762    0.9578 H   0  0  0  0  0  0  0  0  0  0  0  0
   -2.2110    1.6433    1.3723 H   0  0  0  0  0  0  0  0  0  0  0  0
  1  2  1  0  0  0  0
  1  6  1  0  0  0  0
  2 14  2  0  0  0  0
  3 14  1  0  0  0  0
  3 26  1  0  0  0  0
  3 27  1  0  0  0  0
  4 14  1  0  0  0  0
  4 28  1  0  0  0  0
  4 29  1  0  0  0  0
  5  6  1  0  0  0  0
  5  7  1  0  0  0  0
  5 15  1  0  0  0  0
  5 16  1  0  0  0  0
  6  8  1  0  0  0  0
  6 17  1  0  0  0  0
  7  9  2  0  0  0  0
  7 10  1  0  0  0  0
  8 18  1  0  0  0  0
  8 19  1  0  0  0  0
  8 20  1  0  0  0  0
  9 11  1  0  0  0  0
  9 21  1  0  0  0  0
 10 12  2  0  0  0  0
 10 22  1  0  0  0  0
 11 13  2  0  0  0  0
 11 23  1  0  0  0  0
 12 13  1  0  0  0  0
 12 24  1  0  0  0  0
 13 25  1  0  0  0  0
M  END
> <PUBCHEM_COMPOUND_CID>
12930

> <PUBCHEM_CONFORMER_RMSD>
0.6

> <PUBCHEM_CONFORMER_DIVERSEORDER>
1
52
2
51
27
57
41
3
55
49
42
36
11
29
56
60
37
23
32
54
63
53
18
24
58
21
34
38
4
8
48
31
39
9
50
33
12
62
14
16
30
15
44
43
19
59
40
35
13
5
10
46
61
45
22
17
6
28
47
20
26
25
7

> <PUBCHEM_MMFF94_PARTIAL_CHARGES>
22
1 -0.22
10 -0.15
11 -0.15
12 -0.15
13 -0.15
14 0.55
2 -0.51
21 0.15
22 0.15
23 0.15
24 0.15
25 0.15
26 0.4
27 0.4
28 0.4
29 0.4
3 -0.85
4 -0.85
5 0.14
6 0.28
7 -0.14
9 -0.15

> <PUBCHEM_EFFECTIVE_ROTOR_COUNT>
4

> <PUBCHEM_PHARMACOPHORE_FEATURES>
4
1 3 donor
1 4 donor
4 2 3 4 14 cation
6 7 9 10 11 12 13 rings

> <PUBCHEM_HEAVY_ATOM_COUNT>
14

> <PUBCHEM_ATOM_DEF_STEREO_COUNT>
0

> <PUBCHEM_ATOM_UDEF_STEREO_COUNT>
1

> <PUBCHEM_BOND_DEF_STEREO_COUNT>
0

> <PUBCHEM_BOND_UDEF_STEREO_COUNT>
0

> <PUBCHEM_ISOTOPIC_ATOM_COUNT>
0

> <PUBCHEM_COMPONENT_COUNT>
1

> <PUBCHEM_CACTVS_TAUTO_COUNT>
2

> <PUBCHEM_CONFORMER_ID>
0000328200000001

> <PUBCHEM_MMFF94_ENERGY>
35.8952

> <PUBCHEM_FEATURE_SELFOVERLAP>
20.352

> <PUBCHEM_SHAPE_FINGERPRINT>
10498660 4 18272095997861165125
10608611 8 18263643953183257184
122479 349 18059853948109403875
13294875 104 18339096950997510634
13618510 140 18411702101483282993
13764800 53 18201714012204089715
14123255 52 18343587351836861173
14252887 29 9079106791264351693
15279308 100 18408318869939628478
15775835 57 18273216408424815012
17134986 127 18341336659934951126
1741750 31 18410857637713796722
17834072 14 8718548264094856171
1798214 55 18342179968295035301
18186145 218 18334857251013536353
20233049 118 18411981390643354280
20361792 2 13912592823771343842
20645477 56 18337668599050376680
20645477 70 17313650586910950358
20653085 51 18410285891693720514
20671657 1 18340777047271579634
20671657 53 14057004944215919338
21524375 3 18341618165208775227
22802520 49 18187356580825940296
22926399 65 18340763750479826044
231179 274 17989210377548676676
23402655 69 18186801383125282708
23557571 272 18192987119584308310
23559900 14 18333724724932225958
25 1 18337665407974266498
251288 83 10159690279487628620
2637199 183 18336253656513549537
4028521 119 18410296908543349485
549884 4 18113907069196624704
7832392 63 18342176626989534932
81228 2 17912923885834216123
93112 12 18260545606572627974
9882013 296 11095877151480713614

> <PUBCHEM_SHAPE_MULTIPOLES>
267.3
7.34
2.21
0.96
3.29
0.73
-0.01
-4.31
-2.18
0.96
0.28
-0.21
-0.1
0.27

> <PUBCHEM_SHAPE_SELFOVERLAP>
540.457

> <PUBCHEM_SHAPE_VOLUME>
156.7

> <PUBCHEM_COORDINATE_TYPE>
2
5
10

$$$$

