13544
  -OEChem-06241222393D

 16 15  0     1  0  0  0  0  0999 V2000
   -0.4626   -0.3698   -0.2287 O   0  0  0  0  0  0  0  0  0  0  0  0
   -2.6950   -0.7800   -0.1675 O   0  0  0  0  0  0  0  0  0  0  0  0
   -1.7251    0.0091    0.3038 N   0  0  0  0  0  0  0  0  0  0  0  0
    0.5340    0.4988    0.3027 C   0  0  1  0  0  0  0  0  0  0  0  0
    1.9039    0.0770   -0.2330 C   0  0  0  0  0  0  0  0  0  0  0  0
    0.2027    1.9304   -0.0971 C   0  0  0  0  0  0  0  0  0  0  0  0
    2.2421   -1.3655    0.1198 C   0  0  0  0  0  0  0  0  0  0  0  0
    0.5470    0.4134    1.3980 H   0  0  0  0  0  0  0  0  0  0  0  0
    1.9200    0.1709   -1.3259 H   0  0  0  0  0  0  0  0  0  0  0  0
    2.6814    0.7386    0.1660 H   0  0  0  0  0  0  0  0  0  0  0  0
    0.0194    2.0084   -1.1749 H   0  0  0  0  0  0  0  0  0  0  0  0
   -0.6897    2.3109    0.4109 H   0  0  0  0  0  0  0  0  0  0  0  0
    1.0255    2.6057    0.1612 H   0  0  0  0  0  0  0  0  0  0  0  0
    1.5345   -2.0660   -0.3344 H   0  0  0  0  0  0  0  0  0  0  0  0
    2.2296   -1.5163    1.2039 H   0  0  0  0  0  0  0  0  0  0  0  0
    3.2428   -1.6171   -0.2458 H   0  0  0  0  0  0  0  0  0  0  0  0
  1  3  1  0  0  0  0
  1  4  1  0  0  0  0
  2  3  2  0  0  0  0
  4  5  1  0  0  0  0
  4  6  1  0  0  0  0
  4  8  1  0  0  0  0
  5  7  1  0  0  0  0
  5  9  1  0  0  0  0
  5 10  1  0  0  0  0
  6 11  1  0  0  0  0
  6 12  1  0  0  0  0
  6 13  1  0  0  0  0
  7 14  1  0  0  0  0
  7 15  1  0  0  0  0
  7 16  1  0  0  0  0
M  END
> <PUBCHEM_COMPOUND_CID>
13544

> <PUBCHEM_CONFORMER_RMSD>
0.4

> <PUBCHEM_CONFORMER_DIVERSEORDER>
2
22
25
3
8
10
21
17
1
4
32
11
13
9
18
19
14
7
12
16
20
28
15
30
31
29
5
6
27
23
26
24

> <PUBCHEM_MMFF94_PARTIAL_CHARGES>
4
1 -0.09
2 -0.3
3 0.12
4 0.28

> <PUBCHEM_EFFECTIVE_ROTOR_COUNT>
3

> <PUBCHEM_PHARMACOPHORE_FEATURES>
1
1 7 hydrophobe

> <PUBCHEM_HEAVY_ATOM_COUNT>
7

> <PUBCHEM_ATOM_DEF_STEREO_COUNT>
0

> <PUBCHEM_ATOM_UDEF_STEREO_COUNT>
1

> <PUBCHEM_BOND_DEF_STEREO_COUNT>
0

> <PUBCHEM_BOND_UDEF_STEREO_COUNT>
0

> <PUBCHEM_ISOTOPIC_ATOM_COUNT>
0

> <PUBCHEM_COMPONENT_COUNT>
1

> <PUBCHEM_CACTVS_TAUTO_COUNT>
1

> <PUBCHEM_CONFORMER_ID>
000034E800000002

> <PUBCHEM_MMFF94_ENERGY>
6.6297

> <PUBCHEM_FEATURE_SELFOVERLAP>
5.074

> <PUBCHEM_SHAPE_FINGERPRINT>
139733 1 9367340431754731808
21040471 1 17329710916581238640
23552423 10 18129091402423128494
23552449 1 18121785190754143840
23552449 11 18114187393142997528
29004967 10 18341610391275323368
5460574 1 10015590497058491275

> <PUBCHEM_SHAPE_MULTIPOLES>
127.34
3.22
1.6
0.62
1.01
0.68
-0.01
-1.9
0.08
-0.19
0.04
-0.06
0.02
-0.11

> <PUBCHEM_SHAPE_SELFOVERLAP>
221.366

> <PUBCHEM_SHAPE_VOLUME>
85.6

> <PUBCHEM_COORDINATE_TYPE>
2
5
10

$$$$

