10323
  -OEChem-06261204283D

 29 30  0     0  0  0  0  0  0999 V2000
   -3.4802   -2.4256   -0.2513 O   0  0  0  0  0  0  0  0  0  0  0  0
    1.6884    2.0722    0.1869 O   0  0  0  0  0  0  0  0  0  0  0  0
    0.7517   -0.0395    0.0361 N   0  0  0  0  0  0  0  0  0  0  0  0
   -0.5107    0.4495    0.0694 N   0  0  0  0  0  0  0  0  0  0  0  0
    5.6909   -0.8593   -0.0766 N   0  0  0  0  0  0  0  0  0  0  0  0
   -2.8622   -0.1196   -0.0151 C   0  0  0  0  0  0  0  0  0  0  0  0
   -3.8331   -1.1151   -0.1258 C   0  0  0  0  0  0  0  0  0  0  0  0
   -3.2442    1.2160    0.1109 C   0  0  0  0  0  0  0  0  0  0  0  0
    3.1642    0.2535    0.0377 C   0  0  0  0  0  0  0  0  0  0  0  0
   -5.1858   -0.7748   -0.1104 C   0  0  0  0  0  0  0  0  0  0  0  0
   -4.5970    1.5561    0.1261 C   0  0  0  0  0  0  0  0  0  0  0  0
   -1.4447   -0.4529   -0.0302 C   0  0  0  0  0  0  0  0  0  0  0  0
   -5.5678    0.5609    0.0155 C   0  0  0  0  0  0  0  0  0  0  0  0
    1.8058    0.8524    0.1006 C   0  0  0  0  0  0  0  0  0  0  0  0
    4.2023    1.0075   -0.4559 C   0  0  0  0  0  0  0  0  0  0  0  0
    3.3440   -1.0369    0.4762 C   0  0  0  0  0  0  0  0  0  0  0  0
    5.4491    0.4042   -0.4922 C   0  0  0  0  0  0  0  0  0  0  0  0
    4.6292   -1.5487    0.3982 C   0  0  0  0  0  0  0  0  0  0  0  0
   -2.5127    2.0149    0.1988 H   0  0  0  0  0  0  0  0  0  0  0  0
   -5.9530   -1.5397   -0.1960 H   0  0  0  0  0  0  0  0  0  0  0  0
   -4.8948    2.5960    0.2242 H   0  0  0  0  0  0  0  0  0  0  0  0
   -1.1781   -1.5208   -0.1313 H   0  0  0  0  0  0  0  0  0  0  0  0
   -6.6209    0.8259    0.0274 H   0  0  0  0  0  0  0  0  0  0  0  0
    4.0774    2.0242   -0.8097 H   0  0  0  0  0  0  0  0  0  0  0  0
    2.5602   -1.6528    0.8993 H   0  0  0  0  0  0  0  0  0  0  0  0
    0.8603   -1.0402   -0.0896 H   0  0  0  0  0  0  0  0  0  0  0  0
    6.3141    0.9390   -0.8706 H   0  0  0  0  0  0  0  0  0  0  0  0
    4.8470   -2.5575    0.7333 H   0  0  0  0  0  0  0  0  0  0  0  0
   -4.2858   -2.9669   -0.3152 H   0  0  0  0  0  0  0  0  0  0  0  0
  1  7  1  0  0  0  0
  1 29  1  0  0  0  0
  2 14  2  0  0  0  0
  3  4  1  0  0  0  0
  3 14  1  0  0  0  0
  3 26  1  0  0  0  0
  4 12  2  0  0  0  0
  5 17  2  0  0  0  0
  5 18  1  0  0  0  0
  6  7  1  0  0  0  0
  6  8  2  0  0  0  0
  6 12  1  0  0  0  0
  7 10  2  0  0  0  0
  8 11  1  0  0  0  0
  8 19  1  0  0  0  0
  9 14  1  0  0  0  0
  9 15  2  0  0  0  0
  9 16  1  0  0  0  0
 10 13  1  0  0  0  0
 10 20  1  0  0  0  0
 11 13  2  0  0  0  0
 11 21  1  0  0  0  0
 12 22  1  0  0  0  0
 13 23  1  0  0  0  0
 15 17  1  0  0  0  0
 15 24  1  0  0  0  0
 16 18  2  0  0  0  0
 16 25  1  0  0  0  0
 17 27  1  0  0  0  0
 18 28  1  0  0  0  0
M  END
> <PUBCHEM_COMPOUND_CID>
10323

> <PUBCHEM_CONFORMER_RMSD>
0.6

> <PUBCHEM_CONFORMER_DIVERSEORDER>
1
9
5
8
3
6
7
4
2

> <PUBCHEM_MMFF94_PARTIAL_CHARGES>
29
1 -0.53
10 -0.15
11 -0.15
12 0.3
13 -0.15
14 0.54
15 -0.15
16 -0.15
17 0.16
18 0.16
19 0.15
2 -0.57
20 0.15
21 0.15
22 0.06
23 0.15
24 0.15
25 0.15
26 0.37
27 0.15
28 0.15
29 0.45
3 -0.37
4 -0.51
5 -0.62
6 0.09
7 0.08
8 -0.15
9 0.09

> <PUBCHEM_EFFECTIVE_ROTOR_COUNT>
4

> <PUBCHEM_PHARMACOPHORE_FEATURES>
7
1 1 donor
1 2 acceptor
1 3 donor
1 4 acceptor
1 5 acceptor
6 5 9 15 16 17 18 rings
6 6 7 8 10 11 13 rings

> <PUBCHEM_HEAVY_ATOM_COUNT>
18

> <PUBCHEM_ATOM_DEF_STEREO_COUNT>
0

> <PUBCHEM_ATOM_UDEF_STEREO_COUNT>
0

> <PUBCHEM_BOND_DEF_STEREO_COUNT>
0

> <PUBCHEM_BOND_UDEF_STEREO_COUNT>
1

> <PUBCHEM_ISOTOPIC_ATOM_COUNT>
0

> <PUBCHEM_COMPONENT_COUNT>
1

> <PUBCHEM_CACTVS_TAUTO_COUNT>
9

> <PUBCHEM_CONFORMER_ID>
0000285300000001

> <PUBCHEM_MMFF94_ENERGY>
50.3991

> <PUBCHEM_FEATURE_SELFOVERLAP>
35.526

> <PUBCHEM_SHAPE_FINGERPRINT>
10595046 47 18341048527864342260
11315181 36 17603584123474238289
11405975 8 18261392213530892817
12107183 9 17691690407921017793
12236239 1 18342737424842613296
12516196 113 18113621188010807720
13073987 5 18411700988907236616
13167823 11 18412265016908167299
13533116 47 13984931974806872156
14251731 8 18408323306598640725
14341114 176 18410851045149941737
15183329 4 18412545439596479625
15196674 1 18411138026279877186
15242433 33 18413387640002720486
15250474 111 18340220617031631834
15788980 27 18413105060992490091
17492 89 18124313805499898291
17834072 33 18412543197924328892
17844677 252 18409441471053547217
17857418 61 18410016532761709798
19489759 90 16950281836637412209
200 152 18187083953471394305
20645477 70 18341894138764889834
21065198 57 18336549309235566921
21267235 1 18411975837524810843
220451 1 18411411817422932258
22950370 63 18342457053962687164
23402539 116 18187088360440383341
23536379 177 18413388760804542640
23559900 14 18335147436347746289
239999 70 18259698992005630278
26918003 58 17967252000754859643
29717793 49 18187358857580619988
300161 21 18342182158712239616
3004659 81 18343300401425811338
3545911 37 18407758149279942577
4073 2 17988075596087361698
4214541 1 18410293614387666849
42788 4 18412262843612296637
465052 167 18260544520325885846
5104073 3 18408323263385172577
542803 24 17846497032369782045
559249 180 18409734001587086683
6327066 14 17841440529778832325
77779 3 18411699859420482209
960060 61 18130780162394865726
9971528 1 18059858342140951580

> <PUBCHEM_SHAPE_MULTIPOLES>
343.75
15.18
1.77
0.65
2.25
0.26
0
1.56
0.77
-0.61
-0.03
0.16
0.01
-0.65

> <PUBCHEM_SHAPE_SELFOVERLAP>
739.221

> <PUBCHEM_SHAPE_VOLUME>
187.4

> <PUBCHEM_COORDINATE_TYPE>
2
5
10

$$$$

