17395496
  -OEChem-06241222503D

 40 42  0     0  0  0  0  0  0999 V2000
    6.0175   -1.8992   -1.4136 S   0  0  0  0  0  0  0  0  0  0  0  0
   -0.7425    3.3166    0.2789 S   0  0  0  0  0  0  0  0  0  0  0  0
    4.6918   -0.5712    1.9632 O   0  0  0  0  0  0  0  0  0  0  0  0
    1.9052   -0.4656   -0.3458 O   0  0  0  0  0  0  0  0  0  0  0  0
    4.5503   -0.0343   -0.3032 N   0  0  0  0  0  0  0  0  0  0  0  0
    1.4115    1.8103   -0.0051 N   0  0  0  0  0  0  0  0  0  0  0  0
   -0.7819    0.7572   -0.0818 N   0  0  0  0  0  0  0  0  0  0  0  0
    4.9883   -0.4429   -1.6167 C   0  0  0  0  0  0  0  0  0  0  0  0
    3.6947    1.1244   -0.1273 C   0  0  0  0  0  0  0  0  0  0  0  0
    4.9726   -0.7839    0.7867 C   0  0  0  0  0  0  0  0  0  0  0  0
    5.8498   -1.9402    0.3780 C   0  0  0  0  0  0  0  0  0  0  0  0
   -3.1904    0.2681   -0.0730 C   0  0  0  0  0  0  0  0  0  0  0  0
    2.2370    0.7050   -0.1902 C   0  0  0  0  0  0  0  0  0  0  0  0
   -3.3260   -0.7885    0.8277 C   0  0  0  0  0  0  0  0  0  0  0  0
   -2.0912    1.1849    0.0207 C   0  0  0  0  0  0  0  0  0  0  0  0
   -5.3470   -1.4873   -0.2970 C   0  0  0  0  0  0  0  0  0  0  0  0
   -4.4044   -1.6663    0.7156 C   0  0  0  0  0  0  0  0  0  0  0  0
   -4.1331    0.4467   -1.0856 C   0  0  0  0  0  0  0  0  0  0  0  0
    0.0151    1.7955    0.0394 C   0  0  0  0  0  0  0  0  0  0  0  0
   -5.2112   -0.4309   -1.1976 C   0  0  0  0  0  0  0  0  0  0  0  0
   -2.3367   -1.0109    1.9266 C   0  0  0  0  0  0  0  0  0  0  0  0
   -2.2695    2.5382    0.2178 C   0  0  0  0  0  0  0  0  0  0  0  0
   -6.4998   -2.4258   -0.4179 C   0  0  0  0  0  0  0  0  0  0  0  0
    5.5611    0.3695   -2.0725 H   0  0  0  0  0  0  0  0  0  0  0  0
    4.1161   -0.6713   -2.2354 H   0  0  0  0  0  0  0  0  0  0  0  0
    3.8861    1.5754    0.8526 H   0  0  0  0  0  0  0  0  0  0  0  0
    3.9129    1.8579   -0.9100 H   0  0  0  0  0  0  0  0  0  0  0  0
    5.3835   -2.8785    0.6894 H   0  0  0  0  0  0  0  0  0  0  0  0
    6.8308   -1.8374    0.8489 H   0  0  0  0  0  0  0  0  0  0  0  0
   -4.5135   -2.4937    1.4129 H   0  0  0  0  0  0  0  0  0  0  0  0
   -4.0444    1.2597   -1.8027 H   0  0  0  0  0  0  0  0  0  0  0  0
    1.8331    2.7278    0.1144 H   0  0  0  0  0  0  0  0  0  0  0  0
   -5.9371   -0.2830   -1.9928 H   0  0  0  0  0  0  0  0  0  0  0  0
   -2.6960   -1.7537    2.6478 H   0  0  0  0  0  0  0  0  0  0  0  0
   -2.1596   -0.0898    2.4919 H   0  0  0  0  0  0  0  0  0  0  0  0
   -1.3894   -1.3804    1.5212 H   0  0  0  0  0  0  0  0  0  0  0  0
   -3.1872    3.0995    0.3295 H   0  0  0  0  0  0  0  0  0  0  0  0
   -6.8161   -2.7898    0.5656 H   0  0  0  0  0  0  0  0  0  0  0  0
   -7.3669   -1.9329   -0.8706 H   0  0  0  0  0  0  0  0  0  0  0  0
   -6.2221   -3.2839   -1.0380 H   0  0  0  0  0  0  0  0  0  0  0  0
  1  8  1  0  0  0  0
  1 11  1  0  0  0  0
  2 19  1  0  0  0  0
  2 22  1  0  0  0  0
  3 10  2  0  0  0  0
  4 13  2  0  0  0  0
  5  8  1  0  0  0  0
  5  9  1  0  0  0  0
  5 10  1  0  0  0  0
  6 13  1  0  0  0  0
  6 19  1  0  0  0  0
  6 32  1  0  0  0  0
  7 15  1  0  0  0  0
  7 19  2  0  0  0  0
  8 24  1  0  0  0  0
  8 25  1  0  0  0  0
  9 13  1  0  0  0  0
  9 26  1  0  0  0  0
  9 27  1  0  0  0  0
 10 11  1  0  0  0  0
 11 28  1  0  0  0  0
 11 29  1  0  0  0  0
 12 14  2  0  0  0  0
 12 15  1  0  0  0  0
 12 18  1  0  0  0  0
 14 17  1  0  0  0  0
 14 21  1  0  0  0  0
 15 22  2  0  0  0  0
 16 17  2  0  0  0  0
 16 20  1  0  0  0  0
 16 23  1  0  0  0  0
 17 30  1  0  0  0  0
 18 20  2  0  0  0  0
 18 31  1  0  0  0  0
 20 33  1  0  0  0  0
 21 34  1  0  0  0  0
 21 35  1  0  0  0  0
 21 36  1  0  0  0  0
 22 37  1  0  0  0  0
 23 38  1  0  0  0  0
 23 39  1  0  0  0  0
 23 40  1  0  0  0  0
M  END
> <PUBCHEM_COMPOUND_CID>
17395496

> <PUBCHEM_CONFORMER_RMSD>
0.8

> <PUBCHEM_CONFORMER_DIVERSEORDER>
1
33
29
50
69
34
85
54
65
55
24
48
5
58
79
72
6
41
17
83
32
75
40
37
21
62
25
88
43
60
18
57
23
73
68
20
2
63
74
26
15
28
81
22
46
3
64
52
56
13
78
84
66
87
27
42
53
77
14
59
11
82
49
19
16
61
76
51
71
4
35
44
10
45
80
70
30
39
31
86
38
8
36
9
47
12
7
67

> <PUBCHEM_MMFF94_PARTIAL_CHARGES>
28
1 -0.46
10 0.57
11 0.29
12 0.05
13 0.57
14 -0.14
15 0.17
16 -0.14
17 -0.15
18 -0.15
19 0.44
2 -0.08
20 -0.15
21 0.14
22 -0.11
23 0.14
3 -0.57
30 0.15
31 0.15
32 0.37
33 0.15
37 0.15
4 -0.57
5 -0.66
6 -0.49
7 -0.57
8 0.53
9 0.36

> <PUBCHEM_EFFECTIVE_ROTOR_COUNT>
5.8

> <PUBCHEM_PHARMACOPHORE_FEATURES>
6
1 3 acceptor
1 4 acceptor
1 6 donor
5 1 5 8 10 11 rings
5 2 7 15 19 22 rings
6 12 14 16 17 18 20 rings

> <PUBCHEM_HEAVY_ATOM_COUNT>
23

> <PUBCHEM_ATOM_DEF_STEREO_COUNT>
0

> <PUBCHEM_ATOM_UDEF_STEREO_COUNT>
0

> <PUBCHEM_BOND_DEF_STEREO_COUNT>
0

> <PUBCHEM_BOND_UDEF_STEREO_COUNT>
0

> <PUBCHEM_ISOTOPIC_ATOM_COUNT>
0

> <PUBCHEM_COMPONENT_COUNT>
1

> <PUBCHEM_CACTVS_TAUTO_COUNT>
3

> <PUBCHEM_CONFORMER_ID>
01096F2800000001

> <PUBCHEM_MMFF94_ENERGY>
49.7169

> <PUBCHEM_FEATURE_SELFOVERLAP>
30.446

> <PUBCHEM_SHAPE_FINGERPRINT>
10 15 6627748902951440263
11545043 162 17823139093981975320
12166972 35 17989485195436744941
12363563 72 18337381669639676053
12760667 363 18411696595456236649
12892183 10 14346062153206852493
13583140 156 14851881538251648593
13782708 43 17749669705534157862
13862211 1 18409450271499357639
13955234 65 17900264100214765657
14123256 34 18408316679258686647
14216079 64 18335701616394660887
14251740 79 17989489649618666649
14251752 14 17989214780539066693
14251764 75 10231493933795326951
14347332 77 18341614853545870678
14848178 5 18335140890574512966
14866123 147 18410005581618719241
14931854 50 17846221072226596835
14950920 106 15574719118473306826
15183329 4 16415485955886353982
15250474 111 17986958646997988930
15352361 1 18411135827013872577
15880784 105 17675925404333646218
16990350 14 16464741109432611252
17349148 13 18273207625554382796
17492 89 18336262440307407740
17857418 61 17988648536192430242
17870717 6 17917710189188781583
18222031 100 18335417959215679260
18393751 57 7493015076731694405
18927931 339 18337663213177192327
19377110 9 5400505875621504356
193927 3 18408879650982174548
19958102 18 17274834540484159307
20028762 73 18260267430263546830
20374829 77 18412267225054022941
20403669 9 18409444778130502638
20691028 202 9871752394666956287
21279426 13 18271817817403808709
21315763 87 17895202069239625706
21703447 108 18339370673558966312
22849339 104 16773227367516313131
23198884 109 15554451799458925143
23522609 53 18049123826893265544
23559900 14 18272375226327509921
25122255 55 18409164437225826182
270888 7 9943812174900662415
2748736 6 9727640470787097519
2838139 119 10519716552739989071
3004659 81 18060703883719823438
3014063 24 17968099686024501951
312425 54 17022895770178798659
463206 1 18268148665344983011
465052 167 18260263010493343932
5104073 3 18114181951683821368
559249 180 18410577323137846109
5718773 13 18263650576456072151
77188 2 18335983065254174537
7970288 3 18336266756248939079
960060 61 16487254383357125644

> <PUBCHEM_SHAPE_MULTIPOLES>
454.35
16.58
2.92
1.36
9.15
1.53
0.26
-15.39
-3.16
-1.53
0.05
0.73
-0.58
0.39

> <PUBCHEM_SHAPE_SELFOVERLAP>
946.549

> <PUBCHEM_SHAPE_VOLUME>
261.8

> <PUBCHEM_COORDINATE_TYPE>
2
5
10

$$$$

