7154
  -OEChem-06261201503D

 27 27  0     0  0  0  0  0  0999 V2000
    1.1189   -1.9201   -0.4096 O   0  0  0  0  0  0  0  0  0  0  0  0
    2.9928    0.0727    1.4818 O   0  0  0  0  0  0  0  0  0  0  0  0
    0.2308    0.2540   -0.4528 N   0  0  0  0  0  0  0  0  0  0  0  0
   -1.1390    0.0439   -0.1630 C   0  0  0  0  0  0  0  0  0  0  0  0
   -2.0083    1.1200   -0.0869 C   0  0  0  0  0  0  0  0  0  0  0  0
    2.5779   -0.0958   -0.8862 C   0  0  0  0  0  0  0  0  0  0  0  0
   -1.5799   -1.2542    0.0398 C   0  0  0  0  0  0  0  0  0  0  0  0
    1.2271   -0.7065   -0.5644 C   0  0  0  0  0  0  0  0  0  0  0  0
   -3.3542    0.8926    0.2000 C   0  0  0  0  0  0  0  0  0  0  0  0
   -1.5450    2.5239   -0.3041 C   0  0  0  0  0  0  0  0  0  0  0  0
   -2.9259   -1.4817    0.3264 C   0  0  0  0  0  0  0  0  0  0  0  0
   -3.8131   -0.4083    0.4067 C   0  0  0  0  0  0  0  0  0  0  0  0
    3.4145    0.2189    0.3355 C   0  0  0  0  0  0  0  0  0  0  0  0
    4.8035    0.7406    0.0768 C   0  0  0  0  0  0  0  0  0  0  0  0
    0.5113    1.2206   -0.5926 H   0  0  0  0  0  0  0  0  0  0  0  0
    2.4492    0.8245   -1.4660 H   0  0  0  0  0  0  0  0  0  0  0  0
    3.1268   -0.8107   -1.5092 H   0  0  0  0  0  0  0  0  0  0  0  0
   -0.9650   -2.1400   -0.0054 H   0  0  0  0  0  0  0  0  0  0  0  0
   -4.0593    1.7170    0.2661 H   0  0  0  0  0  0  0  0  0  0  0  0
   -0.7869    2.7985    0.4369 H   0  0  0  0  0  0  0  0  0  0  0  0
   -1.1330    2.6421   -1.3118 H   0  0  0  0  0  0  0  0  0  0  0  0
   -2.3665    3.2423   -0.2057 H   0  0  0  0  0  0  0  0  0  0  0  0
   -3.2849   -2.4942    0.4871 H   0  0  0  0  0  0  0  0  0  0  0  0
   -4.8611   -0.5857    0.6299 H   0  0  0  0  0  0  0  0  0  0  0  0
    5.3735   -0.0002   -0.4892 H   0  0  0  0  0  0  0  0  0  0  0  0
    5.3113    0.9254    1.0275 H   0  0  0  0  0  0  0  0  0  0  0  0
    4.7443    1.6784   -0.4809 H   0  0  0  0  0  0  0  0  0  0  0  0
  1  8  2  0  0  0  0
  2 13  2  0  0  0  0
  3  4  1  0  0  0  0
  3  8  1  0  0  0  0
  3 15  1  0  0  0  0
  4  5  1  0  0  0  0
  4  7  2  0  0  0  0
  5  9  2  0  0  0  0
  5 10  1  0  0  0  0
  6  8  1  0  0  0  0
  6 13  1  0  0  0  0
  6 16  1  0  0  0  0
  6 17  1  0  0  0  0
  7 11  1  0  0  0  0
  7 18  1  0  0  0  0
  9 12  1  0  0  0  0
  9 19  1  0  0  0  0
 10 20  1  0  0  0  0
 10 21  1  0  0  0  0
 10 22  1  0  0  0  0
 11 12  2  0  0  0  0
 11 23  1  0  0  0  0
 12 24  1  0  0  0  0
 13 14  1  0  0  0  0
 14 25  1  0  0  0  0
 14 26  1  0  0  0  0
 14 27  1  0  0  0  0
M  END
> <PUBCHEM_COMPOUND_CID>
7154

> <PUBCHEM_CONFORMER_RMSD>
0.6

> <PUBCHEM_CONFORMER_DIVERSEORDER>
1
21
37
8
31
6
29
16
43
12
30
13
15
7
33
28
42
39
38
4
11
14
24
44
3
10
23
40
18
2
32
17
22
46
19
9
5
20
27
34
36
25
41
45
26
35

> <PUBCHEM_MMFF94_PARTIAL_CHARGES>
19
1 -0.57
10 0.14
11 -0.15
12 -0.15
13 0.45
14 0.06
15 0.37
18 0.15
19 0.15
2 -0.57
23 0.15
24 0.15
3 -0.55
4 0.12
5 -0.14
6 0.12
7 -0.15
8 0.57
9 -0.15

> <PUBCHEM_EFFECTIVE_ROTOR_COUNT>
4

> <PUBCHEM_PHARMACOPHORE_FEATURES>
5
1 1 acceptor
1 2 acceptor
1 3 donor
1 6 anion
6 4 5 7 9 11 12 rings

> <PUBCHEM_HEAVY_ATOM_COUNT>
14

> <PUBCHEM_ATOM_DEF_STEREO_COUNT>
0

> <PUBCHEM_ATOM_UDEF_STEREO_COUNT>
0

> <PUBCHEM_BOND_DEF_STEREO_COUNT>
0

> <PUBCHEM_BOND_UDEF_STEREO_COUNT>
0

> <PUBCHEM_ISOTOPIC_ATOM_COUNT>
0

> <PUBCHEM_COMPONENT_COUNT>
1

> <PUBCHEM_CACTVS_TAUTO_COUNT>
8

> <PUBCHEM_CONFORMER_ID>
00001BF200000001

> <PUBCHEM_MMFF94_ENERGY>
35.3636

> <PUBCHEM_FEATURE_SELFOVERLAP>
25.371

> <PUBCHEM_SHAPE_FINGERPRINT>
10608611 8 18263924500178091020
107287 299 17676202502717732726
11132069 177 18410005537893150613
12251169 10 18131070420268544612
12382932 28 18411415129011496611
12932764 1 17676493873167166062
13214271 11 18408041788809329463
13897977 58 18341326708838715148
15219456 202 18187922927929967038
16945 1 18340758312992986311
17846911 113 18410576201729135233
200 152 14907902652224535369
20510252 161 18335979878319011865
20528008 55 18333733541698166319
20645477 70 16950836020531129310
21119208 17 5545202735528989640
2297311 6 18337093614899376428
23048698 100 16917064447705878044
23402539 116 18340212907886342015
23557571 272 18260536832086298189
23559900 14 18337387266103213406
2748010 2 18052808441171213789
34934 24 18411704309586901655
474 4 16915367789985960908
6333449 129 18408042918359347879
7364860 26 18117556451674851158
81228 2 18198042850495941633
90316 7 17917997221326218109
9882013 296 18131634474097158652

> <PUBCHEM_SHAPE_MULTIPOLES>
271.39
7.78
1.82
0.86
6
0.54
0.12
0.85
1.52
-1.32
-0.18
0.53
-0.02
0.35

> <PUBCHEM_SHAPE_SELFOVERLAP>
556.116

> <PUBCHEM_SHAPE_VOLUME>
156.7

> <PUBCHEM_COORDINATE_TYPE>
2
5
10

$$$$

