586336
  -OEChem-06241222462D

 57 60  0     1  0  0  0  0  0999 V2000
    3.7359   -0.2109    0.0000 O   0  0  0  0  0  0  0  0  0  0  0  0
    2.8680   -0.7075    0.0000 O   0  0  0  0  0  0  0  0  0  0  0  0
   10.7332   -1.3231    0.0000 O   0  0  0  0  0  0  0  0  0  0  0  0
    6.1692    0.1678    0.0000 C   0  0  3  0  0  0  0  0  0  0  0  0
    5.1277    0.1838    0.0000 C   0  0  0  0  0  0  0  0  0  0  0  0
    4.6000   -0.7142    0.0000 C   0  0  3  0  0  0  0  0  0  0  0  0
    6.6692   -0.6983    0.0000 C   0  0  3  0  0  0  0  0  0  0  0  0
    3.7320   -1.2109    0.0000 C   0  0  0  0  0  0  0  0  0  0  0  0
    8.6601    1.2676    0.0000 C   0  0  3  0  0  0  0  0  0  0  0  0
    8.4013    0.3017    0.0000 C   0  0  3  0  0  0  0  0  0  0  0  0
   10.4921    0.5088    0.0000 C   0  0  0  0  0  0  0  0  0  0  0  0
    3.2287   -2.0750    0.0000 C   0  0  0  0  0  0  0  0  0  0  0  0
    4.2287   -2.0788    0.0000 C   0  0  0  0  0  0  0  0  0  0  0  0
    5.1208   -1.6163    0.0000 C   0  0  0  0  0  0  0  0  0  0  0  0
    6.1624   -1.6083    0.0000 C   0  0  0  0  0  0  0  0  0  0  0  0
   10.2332   -0.4571    0.0000 C   0  0  0  0  0  0  0  0  0  0  0  0
    5.1393    1.1838    0.0000 C   0  0  0  0  0  0  0  0  0  0  0  0
    4.2676    0.6938    0.0000 C   0  0  0  0  0  0  0  0  0  0  0  0
    8.2895    2.6163    0.0000 C   0  0  0  0  0  0  0  0  0  0  0  0
    7.4235    2.1163    0.0000 C   0  0  0  0  0  0  0  0  0  0  0  0
    8.1425   -0.6642    0.0000 C   0  0  0  0  0  0  0  0  0  0  0  0
   11.4921    0.5088    0.0000 C   0  0  0  0  0  0  0  0  0  0  0  0
   10.9921    1.3749    0.0000 C   0  0  0  0  0  0  0  0  0  0  0  0
    5.1247   -2.6163    0.0000 C   0  0  0  0  0  0  0  0  0  0  0  0
    2.0000   -1.2042    0.0000 C   0  0  0  0  0  0  0  0  0  0  0  0
    6.0460    0.7754    0.0000 H   0  0  0  0  0  0  0  0  0  0  0  0
    7.1110   -1.1333    0.0000 H   0  0  0  0  0  0  0  0  0  0  0  0
    9.1250    1.6779    0.0000 H   0  0  0  0  0  0  0  0  0  0  0  0
    4.3340   -2.6898    0.0000 H   0  0  0  0  0  0  0  0  0  0  0  0
    4.8121   -1.8690    0.0000 H   0  0  0  0  0  0  0  0  0  0  0  0
    2.6469   -1.8607    0.0000 H   0  0  0  0  0  0  0  0  0  0  0  0
    3.1187   -2.6851    0.0000 H   0  0  0  0  0  0  0  0  0  0  0  0
    6.4786   -2.1416    0.0000 H   0  0  0  0  0  0  0  0  0  0  0  0
    4.5837    1.2271    0.0000 H   0  0  0  0  0  0  0  0  0  0  0  0
    3.7342    1.0100    0.0000 H   0  0  0  0  0  0  0  0  0  0  0  0
    3.9514    0.1605    0.0000 H   0  0  0  0  0  0  0  0  0  0  0  0
    5.7593    1.1766    0.0000 H   0  0  0  0  0  0  0  0  0  0  0  0
    5.1465    1.8037    0.0000 H   0  0  0  0  0  0  0  0  0  0  0  0
    4.5193    1.1909    0.0000 H   0  0  0  0  0  0  0  0  0  0  0  0
    8.5250    3.1898    0.0000 H   0  0  0  0  0  0  0  0  0  0  0  0
    6.8270    2.2855    0.0000 H   0  0  0  0  0  0  0  0  0  0  0  0
    7.5436   -0.5037    0.0000 H   0  0  0  0  0  0  0  0  0  0  0  0
    7.9820   -1.2631    0.0000 H   0  0  0  0  0  0  0  0  0  0  0  0
    8.7414   -0.8247    0.0000 H   0  0  0  0  0  0  0  0  0  0  0  0
    3.7383    0.4091    0.0000 H   0  0  0  0  0  0  0  0  0  0  0  0
   11.4921   -0.1112    0.0000 H   0  0  0  0  0  0  0  0  0  0  0  0
   12.1121    0.5088    0.0000 H   0  0  0  0  0  0  0  0  0  0  0  0
   11.4921    1.1288    0.0000 H   0  0  0  0  0  0  0  0  0  0  0  0
   11.5290    1.0649    0.0000 H   0  0  0  0  0  0  0  0  0  0  0  0
   11.3021    1.9118    0.0000 H   0  0  0  0  0  0  0  0  0  0  0  0
   10.4551    1.6849    0.0000 H   0  0  0  0  0  0  0  0  0  0  0  0
    4.5047   -2.6187    0.0000 H   0  0  0  0  0  0  0  0  0  0  0  0
    5.1271   -3.2363    0.0000 H   0  0  0  0  0  0  0  0  0  0  0  0
    5.7447   -2.6139    0.0000 H   0  0  0  0  0  0  0  0  0  0  0  0
    1.6921   -0.6661    0.0000 H   0  0  0  0  0  0  0  0  0  0  0  0
    1.4619   -1.5121    0.0000 H   0  0  0  0  0  0  0  0  0  0  0  0
    2.3079   -1.7423    0.0000 H   0  0  0  0  0  0  0  0  0  0  0  0
  1  6  1  0  0  0  0
  1 45  1  0  0  0  0
  2  8  1  0  0  0  0
  2 25  1  0  0  0  0
  3 16  2  0  0  0  0
  4  5  1  0  0  0  0
  4  7  1  0  0  0  0
  4  9  1  0  0  0  0
  4 26  1  0  0  0  0
  5  6  1  0  0  0  0
  5 17  1  0  0  0  0
  5 18  1  0  0  0  0
  6  8  1  0  0  0  0
  6 14  1  0  0  0  0
  7 10  1  0  0  0  0
  7 15  1  0  0  0  0
  7 27  1  0  0  0  0
  8 12  1  0  0  0  0
  8 13  1  0  0  0  0
  9 11  1  0  0  0  0
  9 19  1  0  0  0  0
  9 28  1  0  0  0  0
 10 16  1  0  0  0  0
 10 20  1  0  0  0  0
 10 21  1  0  0  0  0
 11 16  1  0  0  0  0
 11 22  1  0  0  0  0
 11 23  1  0  0  0  0
 12 13  1  0  0  0  0
 12 31  1  0  0  0  0
 12 32  1  0  0  0  0
 13 29  1  0  0  0  0
 13 30  1  0  0  0  0
 14 15  2  0  0  0  0
 14 24  1  0  0  0  0
 15 33  1  0  0  0  0
 17 37  1  0  0  0  0
 17 38  1  0  0  0  0
 17 39  1  0  0  0  0
 18 34  1  0  0  0  0
 18 35  1  0  0  0  0
 18 36  1  0  0  0  0
 19 20  2  0  0  0  0
 19 40  1  0  0  0  0
 20 41  1  0  0  0  0
 21 42  1  0  0  0  0
 21 43  1  0  0  0  0
 21 44  1  0  0  0  0
 22 46  1  0  0  0  0
 22 47  1  0  0  0  0
 22 48  1  0  0  0  0
 23 49  1  0  0  0  0
 23 50  1  0  0  0  0
 23 51  1  0  0  0  0
 24 52  1  0  0  0  0
 24 53  1  0  0  0  0
 24 54  1  0  0  0  0
 25 55  1  0  0  0  0
 25 56  1  0  0  0  0
 25 57  1  0  0  0  0
M  END
> <PUBCHEM_COMPOUND_CID>
586336

> <PUBCHEM_COMPOUND_CANONICALIZED>
1

> <PUBCHEM_CACTVS_COMPLEXITY>
709

> <PUBCHEM_CACTVS_HBOND_ACCEPTOR>
3

> <PUBCHEM_CACTVS_HBOND_DONOR>
1

> <PUBCHEM_CACTVS_ROTATABLE_BOND>
2

> <PUBCHEM_CACTVS_SUBSKEYS>
AAADcfB4MAAAAAAAAAAAAAAAGAAAAAAAAAAwQIEAAAAAAACAAAAAGgAACAAAD0SAgAICAAAABgCIAqBSAAAAAAAgAAAICAEAAAgBBBIAAQAAUAAEwAALEAOIyPCPgAAAAAAAAACAAAQAACAAAAAAAAAAAA==

> <PUBCHEM_IUPAC_INCHI>
InChI=1S/C22H32O3/c1-13-12-15-16(14-8-9-20(15,6)17(23)18(14,2)3)19(4,5)22(13,24)21(25-7)10-11-21/h8-9,12,14-16,24H,10-11H2,1-7H3

> <PUBCHEM_IUPAC_INCHIKEY>
IEYBNNWOBBXBFE-UHFFFAOYSA-N

> <PUBCHEM_XLOGP3_AA>
2.9

> <PUBCHEM_EXACT_MASS>
344.235145

> <PUBCHEM_MOLECULAR_FORMULA>
C22H32O3

> <PUBCHEM_MOLECULAR_WEIGHT>
344.48768

> <PUBCHEM_OPENEYE_CAN_SMILES>
CC1=CC2C(C3C=CC2(C(=O)C3(C)C)C)C(C1(C4(CC4)OC)O)(C)C

> <PUBCHEM_OPENEYE_ISO_SMILES>
CC1=CC2C(C3C=CC2(C(=O)C3(C)C)C)C(C1(C4(CC4)OC)O)(C)C

> <PUBCHEM_CACTVS_TPSA>
46.5

> <PUBCHEM_MONOISOTOPIC_WEIGHT>
344.235145

> <PUBCHEM_TOTAL_CHARGE>
0

> <PUBCHEM_HEAVY_ATOM_COUNT>
25

> <PUBCHEM_ATOM_DEF_STEREO_COUNT>
0

> <PUBCHEM_ATOM_UDEF_STEREO_COUNT>
5

> <PUBCHEM_BOND_DEF_STEREO_COUNT>
0

> <PUBCHEM_BOND_UDEF_STEREO_COUNT>
0

> <PUBCHEM_ISOTOPIC_ATOM_COUNT>
0

> <PUBCHEM_COMPONENT_COUNT>
1

> <PUBCHEM_CACTVS_TAUTO_COUNT>
1

> <PUBCHEM_COORDINATE_TYPE>
1
5
255

> <PUBCHEM_BONDANNOTATIONS>
6  1  3
10  21  3
4  5  3
7  15  3
9  19  3

$$$$

