17395351
  -OEChem-06241222492D

 46 48  0     1  0  0  0  0  0999 V2000
    3.7320   -0.0194    0.0000 S   0  0  0  0  0  0  0  0  0  0  0  0
    4.7320   -0.0194    0.0000 O   0  0  0  0  0  0  0  0  0  0  0  0
    2.7320   -0.0194    0.0000 O   0  0  0  0  0  0  0  0  0  0  0  0
    3.7320    0.9806    0.0000 N   0  0  0  0  0  0  0  0  0  0  0  0
    3.7891    3.0684    0.0000 N   0  0  0  0  0  0  0  0  0  0  0  0
    5.4071    3.0684    0.0000 N   0  0  0  0  0  0  0  0  0  0  0  0
    4.5981    1.4806    0.0000 C   0  0  3  0  0  0  0  0  0  0  0  0
    4.5981    2.4806    0.0000 C   0  0  0  0  0  0  0  0  0  0  0  0
    5.4641    0.9806    0.0000 C   0  0  0  0  0  0  0  0  0  0  0  0
    3.7320   -1.0194    0.0000 C   0  0  0  0  0  0  0  0  0  0  0  0
    2.8660   -1.5194    0.0000 C   0  0  0  0  0  0  0  0  0  0  0  0
    4.5981   -1.5194    0.0000 C   0  0  0  0  0  0  0  0  0  0  0  0
    5.4641   -0.0194    0.0000 C   0  0  0  0  0  0  0  0  0  0  0  0
    6.3301    1.4806    0.0000 C   0  0  0  0  0  0  0  0  0  0  0  0
    2.8660   -2.5194    0.0000 C   0  0  0  0  0  0  0  0  0  0  0  0
    4.0981    4.0194    0.0000 C   0  0  0  0  0  0  0  0  0  0  0  0
    3.7320   -3.0194    0.0000 C   0  0  0  0  0  0  0  0  0  0  0  0
    2.8380    2.7594    0.0000 C   0  0  0  0  0  0  0  0  0  0  0  0
    4.5981   -2.5194    0.0000 C   0  0  0  0  0  0  0  0  0  0  0  0
    5.0981    4.0194    0.0000 C   0  0  0  0  0  0  0  0  0  0  0  0
    2.0000   -1.0194    0.0000 C   0  0  0  0  0  0  0  0  0  0  0  0
    6.3301   -0.5194    0.0000 C   0  0  0  0  0  0  0  0  0  0  0  0
    7.1962    0.9806    0.0000 C   0  0  0  0  0  0  0  0  0  0  0  0
    7.1962   -0.0194    0.0000 C   0  0  0  0  0  0  0  0  0  0  0  0
    3.7320   -4.0194    0.0000 C   0  0  0  0  0  0  0  0  0  0  0  0
    4.5981    0.8606    0.0000 H   0  0  0  0  0  0  0  0  0  0  0  0
    3.1951    1.2906    0.0000 H   0  0  0  0  0  0  0  0  0  0  0  0
    5.1350   -1.2094    0.0000 H   0  0  0  0  0  0  0  0  0  0  0  0
    4.9272   -0.3294    0.0000 H   0  0  0  0  0  0  0  0  0  0  0  0
    6.3301    2.1006    0.0000 H   0  0  0  0  0  0  0  0  0  0  0  0
    2.3291   -2.8294    0.0000 H   0  0  0  0  0  0  0  0  0  0  0  0
    3.7336    4.5210    0.0000 H   0  0  0  0  0  0  0  0  0  0  0  0
    2.6464    3.3490    0.0000 H   0  0  0  0  0  0  0  0  0  0  0  0
    2.2484    2.5678    0.0000 H   0  0  0  0  0  0  0  0  0  0  0  0
    3.0296    2.1697    0.0000 H   0  0  0  0  0  0  0  0  0  0  0  0
    5.1350   -2.8294    0.0000 H   0  0  0  0  0  0  0  0  0  0  0  0
    5.4625    4.5210    0.0000 H   0  0  0  0  0  0  0  0  0  0  0  0
    2.3100   -0.4825    0.0000 H   0  0  0  0  0  0  0  0  0  0  0  0
    1.4631   -0.7094    0.0000 H   0  0  0  0  0  0  0  0  0  0  0  0
    1.6900   -1.5564    0.0000 H   0  0  0  0  0  0  0  0  0  0  0  0
    6.3301   -1.1394    0.0000 H   0  0  0  0  0  0  0  0  0  0  0  0
    7.7331    1.2906    0.0000 H   0  0  0  0  0  0  0  0  0  0  0  0
    7.7331   -0.3294    0.0000 H   0  0  0  0  0  0  0  0  0  0  0  0
    3.1120   -4.0194    0.0000 H   0  0  0  0  0  0  0  0  0  0  0  0
    3.7320   -4.6394    0.0000 H   0  0  0  0  0  0  0  0  0  0  0  0
    4.3520   -4.0194    0.0000 H   0  0  0  0  0  0  0  0  0  0  0  0
  1  2  2  0  0  0  0
  1  3  2  0  0  0  0
  1  4  1  0  0  0  0
  1 10  1  0  0  0  0
  4  7  1  0  0  0  0
  4 27  1  0  0  0  0
  5  8  1  0  0  0  0
  5 16  1  0  0  0  0
  5 18  1  0  0  0  0
  6  8  2  0  0  0  0
  6 20  1  0  0  0  0
  7  8  1  0  0  0  0
  7  9  1  0  0  0  0
  7 26  1  0  0  0  0
  9 13  2  0  0  0  0
  9 14  1  0  0  0  0
 10 11  2  0  0  0  0
 10 12  1  0  0  0  0
 11 15  1  0  0  0  0
 11 21  1  0  0  0  0
 12 19  2  0  0  0  0
 12 28  1  0  0  0  0
 13 22  1  0  0  0  0
 13 29  1  0  0  0  0
 14 23  2  0  0  0  0
 14 30  1  0  0  0  0
 15 17  2  0  0  0  0
 15 31  1  0  0  0  0
 16 20  2  0  0  0  0
 16 32  1  0  0  0  0
 17 19  1  0  0  0  0
 17 25  1  0  0  0  0
 18 33  1  0  0  0  0
 18 34  1  0  0  0  0
 18 35  1  0  0  0  0
 19 36  1  0  0  0  0
 20 37  1  0  0  0  0
 21 38  1  0  0  0  0
 21 39  1  0  0  0  0
 21 40  1  0  0  0  0
 22 24  2  0  0  0  0
 22 41  1  0  0  0  0
 23 24  1  0  0  0  0
 23 42  1  0  0  0  0
 24 43  1  0  0  0  0
 25 44  1  0  0  0  0
 25 45  1  0  0  0  0
 25 46  1  0  0  0  0
M  END
> <PUBCHEM_COMPOUND_CID>
17395351

> <PUBCHEM_COMPOUND_CANONICALIZED>
1

> <PUBCHEM_CACTVS_COMPLEXITY>
527

> <PUBCHEM_CACTVS_HBOND_ACCEPTOR>
4

> <PUBCHEM_CACTVS_HBOND_DONOR>
1

> <PUBCHEM_CACTVS_ROTATABLE_BOND>
5

> <PUBCHEM_CACTVS_SUBSKEYS>
AAADceB7MABAAAAAAAAAAAAAAAAAAWAAAAAwYAAAAAAAAAAB0AAAHAQQQAAADCjBWwQ/kZdMEAKgAjJnZHDCgD0xEqAJyJg4NIiIaCKAmRGUIABogAKIiCcQgMAOEAACAAAEAAAgAAQAAAgAAAAAAAAAAA==

> <PUBCHEM_IUPAC_OPENEYE_NAME>
2,4-dimethyl-N-[(1-methylimidazol-2-yl)-phenyl-methyl]benzenesulfonamide

> <PUBCHEM_IUPAC_CAS_NAME>
2,4-dimethyl-N-[(1-methyl-2-imidazolyl)-phenylmethyl]benzenesulfonamide

> <PUBCHEM_IUPAC_NAME>
2,4-dimethyl-N-[(1-methylimidazol-2-yl)-phenylmethyl]benzenesulfonamide

> <PUBCHEM_IUPAC_SYSTEMATIC_NAME>
2,4-dimethyl-N-[(1-methylimidazol-2-yl)-phenyl-methyl]benzenesulfonamide

> <PUBCHEM_IUPAC_TRADITIONAL_NAME>
2,4-dimethyl-N-[(1-methylimidazol-2-yl)-phenyl-methyl]benzenesulfonamide

> <PUBCHEM_IUPAC_INCHI>
InChI=1S/C19H21N3O2S/c1-14-9-10-17(15(2)13-14)25(23,24)21-18(16-7-5-4-6-8-16)19-20-11-12-22(19)3/h4-13,18,21H,1-3H3

> <PUBCHEM_IUPAC_INCHIKEY>
NGVJITIRKHQJGD-UHFFFAOYSA-N

> <PUBCHEM_XLOGP3_AA>
2.9

> <PUBCHEM_EXACT_MASS>
355.135448

> <PUBCHEM_MOLECULAR_FORMULA>
C19H21N3O2S

> <PUBCHEM_MOLECULAR_WEIGHT>
355.45394

> <PUBCHEM_OPENEYE_CAN_SMILES>
CC1=CC(=C(C=C1)S(=O)(=O)NC(C2=CC=CC=C2)C3=NC=CN3C)C

> <PUBCHEM_OPENEYE_ISO_SMILES>
CC1=CC(=C(C=C1)S(=O)(=O)NC(C2=CC=CC=C2)C3=NC=CN3C)C

> <PUBCHEM_CACTVS_TPSA>
72.4

> <PUBCHEM_MONOISOTOPIC_WEIGHT>
355.135448

> <PUBCHEM_TOTAL_CHARGE>
0

> <PUBCHEM_HEAVY_ATOM_COUNT>
25

> <PUBCHEM_ATOM_DEF_STEREO_COUNT>
0

> <PUBCHEM_ATOM_UDEF_STEREO_COUNT>
1

> <PUBCHEM_BOND_DEF_STEREO_COUNT>
0

> <PUBCHEM_BOND_UDEF_STEREO_COUNT>
0

> <PUBCHEM_ISOTOPIC_ATOM_COUNT>
0

> <PUBCHEM_COMPONENT_COUNT>
1

> <PUBCHEM_CACTVS_TAUTO_COUNT>
1

> <PUBCHEM_COORDINATE_TYPE>
1
5
255

> <PUBCHEM_BONDANNOTATIONS>
10  11  8
10  12  8
11  15  8
12  19  8
13  22  8
14  23  8
15  17  8
16  20  8
17  19  8
22  24  8
23  24  8
7  4  3
5  16  8
5  8  8
6  20  8
6  8  8
9  13  8
9  14  8

$$$$

