17396189
  -OEChem-06241222553D

 42 43  0     1  0  0  0  0  0999 V2000
    5.9163   -1.9724    0.7358 F   0  0  0  0  0  0  0  0  0  0  0  0
    5.8450    2.7608    0.5929 F   0  0  0  0  0  0  0  0  0  0  0  0
    1.3813   -0.9783   -0.7996 O   0  0  0  0  0  0  0  0  0  0  0  0
   -0.4940   -1.5909    1.0235 O   0  0  0  0  0  0  0  0  0  0  0  0
   -6.2443    1.6345    0.4912 O   0  0  0  0  0  0  0  0  0  0  0  0
    1.2217    1.3060   -0.9118 O   0  0  0  0  0  0  0  0  0  0  0  0
   -2.7104    0.0973   -1.2871 N   0  0  0  0  0  0  0  0  0  0  0  0
   -2.2345   -0.4756   -0.1366 C   0  0  0  0  0  0  0  0  0  0  0  0
   -3.2137   -0.3657    0.8258 C   0  0  0  0  0  0  0  0  0  0  0  0
   -4.3172    0.2964    0.2331 C   0  0  0  0  0  0  0  0  0  0  0  0
   -3.9789    0.5705   -1.0736 C   0  0  0  0  0  0  0  0  0  0  0  0
   -0.8960   -1.0833   -0.0271 C   0  0  0  0  0  0  0  0  0  0  0  0
    0.0258   -1.0854   -1.2489 C   0  0  2  0  0  0  0  0  0  0  0  0
   -3.1300   -0.8485    2.2205 C   0  0  0  0  0  0  0  0  0  0  0  0
   -4.7308    1.2382   -2.1540 C   0  0  0  0  0  0  0  0  0  0  0  0
   -5.5727    0.6384    0.8399 C   0  0  0  0  0  0  0  0  0  0  0  0
   -0.0927   -2.3886   -2.0230 C   0  0  0  0  0  0  0  0  0  0  0  0
   -6.1565   -0.2172    1.9638 C   0  0  0  0  0  0  0  0  0  0  0  0
    1.8809    0.2938   -0.6658 C   0  0  0  0  0  0  0  0  0  0  0  0
    3.2602    0.3285   -0.2064 C   0  0  0  0  0  0  0  0  0  0  0  0
    3.9037    1.5524   -0.0229 C   0  0  0  0  0  0  0  0  0  0  0  0
    3.9400   -0.8622    0.0501 C   0  0  0  0  0  0  0  0  0  0  0  0
    5.2632   -0.8290    0.4900 C   0  0  0  0  0  0  0  0  0  0  0  0
    5.2269    1.5855    0.4169 C   0  0  0  0  0  0  0  0  0  0  0  0
    5.9067    0.3948    0.6733 C   0  0  0  0  0  0  0  0  0  0  0  0
   -2.2199    0.1571   -2.1680 H   0  0  0  0  0  0  0  0  0  0  0  0
   -0.2038   -0.2577   -1.9257 H   0  0  0  0  0  0  0  0  0  0  0  0
   -3.6376   -0.1689    2.9101 H   0  0  0  0  0  0  0  0  0  0  0  0
   -2.1023   -0.8996    2.5873 H   0  0  0  0  0  0  0  0  0  0  0  0
   -3.5713   -1.8455    2.3128 H   0  0  0  0  0  0  0  0  0  0  0  0
   -5.7369    0.8159   -2.2446 H   0  0  0  0  0  0  0  0  0  0  0  0
   -4.2368    1.1235   -3.1246 H   0  0  0  0  0  0  0  0  0  0  0  0
   -4.8238    2.3096   -1.9498 H   0  0  0  0  0  0  0  0  0  0  0  0
    0.6023   -2.3985   -2.8694 H   0  0  0  0  0  0  0  0  0  0  0  0
   -1.1096   -2.5371   -2.3991 H   0  0  0  0  0  0  0  0  0  0  0  0
    0.1642   -3.2456   -1.3900 H   0  0  0  0  0  0  0  0  0  0  0  0
   -5.8211    0.1578    2.9325 H   0  0  0  0  0  0  0  0  0  0  0  0
   -5.8866   -1.2678    1.8342 H   0  0  0  0  0  0  0  0  0  0  0  0
   -7.2488   -0.1541    1.9229 H   0  0  0  0  0  0  0  0  0  0  0  0
    3.3937    2.4923   -0.2166 H   0  0  0  0  0  0  0  0  0  0  0  0
    3.4751   -1.8353   -0.0803 H   0  0  0  0  0  0  0  0  0  0  0  0
    6.9370    0.4208    1.0156 H   0  0  0  0  0  0  0  0  0  0  0  0
  1 23  1  0  0  0  0
  2 24  1  0  0  0  0
  3 13  1  0  0  0  0
  3 19  1  0  0  0  0
  4 12  2  0  0  0  0
  5 16  2  0  0  0  0
  6 19  2  0  0  0  0
  7  8  1  0  0  0  0
  7 11  1  0  0  0  0
  7 26  1  0  0  0  0
  8  9  2  0  0  0  0
  8 12  1  0  0  0  0
  9 10  1  0  0  0  0
  9 14  1  0  0  0  0
 10 11  2  0  0  0  0
 10 16  1  0  0  0  0
 11 15  1  0  0  0  0
 12 13  1  0  0  0  0
 13 17  1  0  0  0  0
 13 27  1  0  0  0  0
 14 28  1  0  0  0  0
 14 29  1  0  0  0  0
 14 30  1  0  0  0  0
 15 31  1  0  0  0  0
 15 32  1  0  0  0  0
 15 33  1  0  0  0  0
 16 18  1  0  0  0  0
 17 34  1  0  0  0  0
 17 35  1  0  0  0  0
 17 36  1  0  0  0  0
 18 37  1  0  0  0  0
 18 38  1  0  0  0  0
 18 39  1  0  0  0  0
 19 20  1  0  0  0  0
 20 21  2  0  0  0  0
 20 22  1  0  0  0  0
 21 24  1  0  0  0  0
 21 40  1  0  0  0  0
 22 23  2  0  0  0  0
 22 41  1  0  0  0  0
 23 25  1  0  0  0  0
 24 25  2  0  0  0  0
 25 42  1  0  0  0  0
M  END
> <PUBCHEM_COMPOUND_CID>
17396189

> <PUBCHEM_CONFORMER_RMSD>
1.2

> <PUBCHEM_CONFORMER_DIVERSEORDER>
1
66
14
41
52
57
44
34
26
31
50
25
43
28
24
46
6
22
30
12
48
68
39
19
56
3
15
71
2
51
16
72
70
45
69
33
73
60
29
58
27
61
10
8
54
67
9
11
65
47
35
64
53
18
5
49
62
20
42
36
17
13
55
59
63
38
40
23
37
32
7
4
21

> <PUBCHEM_MMFF94_PARTIAL_CHARGES>
28
1 -0.19
10 -0.09
11 -0.33
12 0.59
13 0.34
14 0.18
15 0.18
16 0.6
18 0.06
19 0.63
2 -0.19
20 0.09
21 -0.15
22 -0.15
23 0.19
24 0.19
25 -0.15
26 0.27
3 -0.43
4 -0.57
40 0.15
41 0.15
42 0.15
5 -0.57
6 -0.57
7 0.03
8 -0.24
9 -0.18

> <PUBCHEM_EFFECTIVE_ROTOR_COUNT>
6

> <PUBCHEM_PHARMACOPHORE_FEATURES>
7
1 4 acceptor
1 5 acceptor
1 6 acceptor
1 7 cation
1 7 donor
5 7 8 9 10 11 rings
6 20 21 22 23 24 25 rings

> <PUBCHEM_HEAVY_ATOM_COUNT>
25

> <PUBCHEM_ATOM_DEF_STEREO_COUNT>
0

> <PUBCHEM_ATOM_UDEF_STEREO_COUNT>
1

> <PUBCHEM_BOND_DEF_STEREO_COUNT>
0

> <PUBCHEM_BOND_UDEF_STEREO_COUNT>
0

> <PUBCHEM_ISOTOPIC_ATOM_COUNT>
0

> <PUBCHEM_COMPONENT_COUNT>
1

> <PUBCHEM_CACTVS_TAUTO_COUNT>
52

> <PUBCHEM_CONFORMER_ID>
010971DD00000001

> <PUBCHEM_MMFF94_ENERGY>
51.4961

> <PUBCHEM_FEATURE_SELFOVERLAP>
35.52

> <PUBCHEM_SHAPE_FINGERPRINT>
10 15 17775286023862982288
10319926 262 17489581273317431897
10692045 39 18334852874642847914
11089746 13 17095810919731969816
12107183 9 18260834847457384282
12236239 1 16733264633656556567
12596602 18 18412260610413978322
12633257 1 17489579031286663133
12892183 10 17560808761429604358
13103583 49 13830130633030847805
13167372 99 18187926226517753952
13533116 47 18341332279859678146
13583140 156 18267584602825798394
13675066 3 17988927747668738662
13785724 45 17827914354628821278
14251764 30 15339122368364547034
14341114 176 17560796636863632292
15183329 4 18113339712838898468
15188451 53 16056595409942565067
15348495 7 17988640753390163944
1577012 14 17676490531946366724
16988056 13 13710714028042311121
1813 80 13254795763264961134
18222031 100 13686294647551241263
200 152 10447938282359203182
20567600 75 17775288308653721710
20871999 31 5112012720733471959
21033648 29 18201453457776103409
21033650 10 15358514399225069746
21637258 2 13398634913639189397
22950370 63 12391514195767870622
23198884 109 5761661360886158331
23402539 116 16805610265122571957
23559900 14 17631727313372831454
2767999 5 17385724703118243016
2838139 119 18186525414180763213
312425 54 17632576041437493211
351380 3 13254797936465028688
3737641 26 13685758163397502816
465052 167 12967123913186396376
474 4 17749381589989303063
5104073 3 18336557006233920498
54039377 194 12175637187389816528
5924683 9 17987233335726210523
7970288 3 12103846739547670049

> <PUBCHEM_SHAPE_MULTIPOLES>
471.48
16.61
1.96
1.76
4.83
0.04
-0.08
7.26
6.07
2.25
-0.37
-2.85
-0.36
0.55

> <PUBCHEM_SHAPE_SELFOVERLAP>
1009.077

> <PUBCHEM_SHAPE_VOLUME>
263.4

> <PUBCHEM_COORDINATE_TYPE>
2
5
10

$$$$

