17396554
  -OEChem-06241222572D

 32 32  0     1  0  0  0  0  0999 V2000
    5.5202   -0.3585    0.0000 S   0  0  0  0  0  0  0  0  0  0  0  0
    7.4223   -0.9766    0.0000 O   0  0  0  0  0  0  0  0  0  0  0  0
    9.1165   -0.6164    0.0000 O   0  0  0  0  0  0  0  0  0  0  0  0
    3.7601   -0.6373    0.0000 N   0  0  0  0  0  0  0  0  0  0  0  0
    4.2601    0.9016    0.0000 N   0  0  0  0  0  0  0  0  0  0  0  0
    7.9575    0.6707    0.0000 N   0  0  0  0  0  0  0  0  0  0  0  0
    3.2601    0.9016    0.0000 N   0  0  0  0  0  0  0  0  0  0  0  0
    9.6517    1.0308    0.0000 N   0  0  0  0  0  0  0  0  0  0  0  0
    6.2633    0.3106    0.0000 C   0  0  3  0  0  0  0  0  0  0  0  0
    4.5691   -0.0495    0.0000 C   0  0  0  0  0  0  0  0  0  0  0  0
    2.9511   -0.0495    0.0000 C   0  0  0  0  0  0  0  0  0  0  0  0
    6.0554    1.2888    0.0000 C   0  0  0  0  0  0  0  0  0  0  0  0
    7.2144    0.0016    0.0000 C   0  0  0  0  0  0  0  0  0  0  0  0
    3.7601   -1.6373    0.0000 C   0  0  0  0  0  0  0  0  0  0  0  0
    2.0000   -0.3585    0.0000 C   0  0  0  0  0  0  0  0  0  0  0  0
    8.9086    0.3617    0.0000 C   0  0  0  0  0  0  0  0  0  0  0  0
   10.6028    0.7218    0.0000 C   0  0  0  0  0  0  0  0  0  0  0  0
    5.6736    0.5022    0.0000 H   0  0  0  0  0  0  0  0  0  0  0  0
    6.6618    1.4177    0.0000 H   0  0  0  0  0  0  0  0  0  0  0  0
    5.9265    1.8952    0.0000 H   0  0  0  0  0  0  0  0  0  0  0  0
    5.4489    1.1598    0.0000 H   0  0  0  0  0  0  0  0  0  0  0  0
    3.1401   -1.6373    0.0000 H   0  0  0  0  0  0  0  0  0  0  0  0
    3.7601   -2.2573    0.0000 H   0  0  0  0  0  0  0  0  0  0  0  0
    4.3801   -1.6373    0.0000 H   0  0  0  0  0  0  0  0  0  0  0  0
    1.8084    0.2311    0.0000 H   0  0  0  0  0  0  0  0  0  0  0  0
    1.4103   -0.5501    0.0000 H   0  0  0  0  0  0  0  0  0  0  0  0
    2.1916   -0.9482    0.0000 H   0  0  0  0  0  0  0  0  0  0  0  0
    7.8286    1.2772    0.0000 H   0  0  0  0  0  0  0  0  0  0  0  0
    9.5228    1.6373    0.0000 H   0  0  0  0  0  0  0  0  0  0  0  0
   10.4112    0.1322    0.0000 H   0  0  0  0  0  0  0  0  0  0  0  0
   11.1924    0.5302    0.0000 H   0  0  0  0  0  0  0  0  0  0  0  0
   10.7943    1.3115    0.0000 H   0  0  0  0  0  0  0  0  0  0  0  0
  1  9  1  0  0  0  0
  1 10  1  0  0  0  0
  2 13  2  0  0  0  0
  3 16  2  0  0  0  0
  4 10  1  0  0  0  0
  4 11  1  0  0  0  0
  4 14  1  0  0  0  0
  5  7  1  0  0  0  0
  5 10  2  0  0  0  0
  6 13  1  0  0  0  0
  6 16  1  0  0  0  0
  6 28  1  0  0  0  0
  7 11  2  0  0  0  0
  8 16  1  0  0  0  0
  8 17  1  0  0  0  0
  8 29  1  0  0  0  0
  9 12  1  0  0  0  0
  9 13  1  0  0  0  0
  9 18  1  0  0  0  0
 11 15  1  0  0  0  0
 12 19  1  0  0  0  0
 12 20  1  0  0  0  0
 12 21  1  0  0  0  0
 14 22  1  0  0  0  0
 14 23  1  0  0  0  0
 14 24  1  0  0  0  0
 15 25  1  0  0  0  0
 15 26  1  0  0  0  0
 15 27  1  0  0  0  0
 17 30  1  0  0  0  0
 17 31  1  0  0  0  0
 17 32  1  0  0  0  0
M  END
> <PUBCHEM_COMPOUND_CID>
17396554

> <PUBCHEM_COMPOUND_CANONICALIZED>
1

> <PUBCHEM_CACTVS_COMPLEXITY>
301

> <PUBCHEM_CACTVS_HBOND_ACCEPTOR>
5

> <PUBCHEM_CACTVS_HBOND_DONOR>
2

> <PUBCHEM_CACTVS_ROTATABLE_BOND>
3

> <PUBCHEM_CACTVS_SUBSKEYS>
AAADccBzsABAAAAAAAAAAAAAAAAAAWAAAAAAAAAAAAAAAAABgAAAHgQYAAAACACFwwSDEAfMEAgqAAMwNAAQ0AtAALAVQIEYAACACAAACAAEAAAIHyIAAAAAAAAAAAAAAAAAAAAAAAAAAAAAAAAAAAAAAA==

> <PUBCHEM_IUPAC_OPENEYE_NAME>
2-[(4,5-dimethyl-1,2,4-triazol-3-yl)sulfanyl]-N-(methylcarbamoyl)propanamide

> <PUBCHEM_IUPAC_CAS_NAME>
2-[(4,5-dimethyl-1,2,4-triazol-3-yl)thio]-N-(methylcarbamoyl)propanamide

> <PUBCHEM_IUPAC_NAME>
2-[(4,5-dimethyl-1,2,4-triazol-3-yl)sulfanyl]-N-(methylcarbamoyl)propanamide

> <PUBCHEM_IUPAC_SYSTEMATIC_NAME>
2-[(4,5-dimethyl-1,2,4-triazol-3-yl)sulfanyl]-N-(methylcarbamoyl)propanamide

> <PUBCHEM_IUPAC_TRADITIONAL_NAME>
2-[(4,5-dimethyl-1,2,4-triazol-3-yl)thio]-N-(methylcarbamoyl)propionamide

> <PUBCHEM_IUPAC_INCHI>
InChI=1S/C9H15N5O2S/c1-5(7(15)11-8(16)10-3)17-9-13-12-6(2)14(9)4/h5H,1-4H3,(H2,10,11,15,16)

> <PUBCHEM_IUPAC_INCHIKEY>
IBUANRRFDNEPJT-UHFFFAOYSA-N

> <PUBCHEM_XLOGP3_AA>
0.6

> <PUBCHEM_EXACT_MASS>
257.094646

> <PUBCHEM_MOLECULAR_FORMULA>
C9H15N5O2S

> <PUBCHEM_MOLECULAR_WEIGHT>
257.3127

> <PUBCHEM_OPENEYE_CAN_SMILES>
CC1=NN=C(N1C)SC(C)C(=O)NC(=O)NC

> <PUBCHEM_OPENEYE_ISO_SMILES>
CC1=NN=C(N1C)SC(C)C(=O)NC(=O)NC

> <PUBCHEM_CACTVS_TPSA>
114

> <PUBCHEM_MONOISOTOPIC_WEIGHT>
257.094646

> <PUBCHEM_TOTAL_CHARGE>
0

> <PUBCHEM_HEAVY_ATOM_COUNT>
17

> <PUBCHEM_ATOM_DEF_STEREO_COUNT>
0

> <PUBCHEM_ATOM_UDEF_STEREO_COUNT>
1

> <PUBCHEM_BOND_DEF_STEREO_COUNT>
0

> <PUBCHEM_BOND_UDEF_STEREO_COUNT>
0

> <PUBCHEM_ISOTOPIC_ATOM_COUNT>
0

> <PUBCHEM_COMPONENT_COUNT>
1

> <PUBCHEM_CACTVS_TAUTO_COUNT>
5

> <PUBCHEM_COORDINATE_TYPE>
1
5
255

> <PUBCHEM_BONDANNOTATIONS>
4  10  8
4  11  8
5  10  8
5  7  8
7  11  8
9  12  3

$$$$

