11764
  -OEChem-06261206052D

 22 23  0     0  0  0  0  0  0999 V2000
    2.0000   -0.7379    0.0000 O   0  5  0  0  0  0  0  0  0  0  0  0
    7.0082   -0.7913    0.0000 O   0  5  0  0  0  0  0  0  0  0  0  0
    5.6686   -1.8892    0.0000 O   0  0  0  0  0  0  0  0  0  0  0  0
    3.3268   -1.8512    0.0000 O   0  0  0  0  0  0  0  0  0  0  0  0
    2.9849   -0.9116    0.0000 N   0  3  0  0  0  0  0  0  0  0  0  0
    6.0215   -0.9535    0.0000 N   0  3  0  0  0  0  0  0  0  0  0  0
    4.4936    0.3545    0.0000 C   0  0  0  0  0  0  0  0  0  0  0  0
    4.4936    1.3546    0.0000 C   0  0  0  0  0  0  0  0  0  0  0  0
    3.6276   -0.1455    0.0000 C   0  0  0  0  0  0  0  0  0  0  0  0
    5.3876   -0.1801    0.0000 C   0  0  0  0  0  0  0  0  0  0  0  0
    3.6276    1.8546    0.0000 C   0  0  0  0  0  0  0  0  0  0  0  0
    5.3876    1.8892    0.0000 C   0  0  0  0  0  0  0  0  0  0  0  0
    2.7616    0.3545    0.0000 C   0  0  0  0  0  0  0  0  0  0  0  0
    6.2936    0.3337    0.0000 C   0  0  0  0  0  0  0  0  0  0  0  0
    6.2936    1.3754    0.0000 C   0  0  0  0  0  0  0  0  0  0  0  0
    2.7616    1.3546    0.0000 C   0  0  0  0  0  0  0  0  0  0  0  0
    3.6276    2.4745    0.0000 H   0  0  0  0  0  0  0  0  0  0  0  0
    5.3804    2.5092    0.0000 H   0  0  0  0  0  0  0  0  0  0  0  0
    2.2246    0.0445    0.0000 H   0  0  0  0  0  0  0  0  0  0  0  0
    6.8294    0.0217    0.0000 H   0  0  0  0  0  0  0  0  0  0  0  0
    2.2246    1.6646    0.0000 H   0  0  0  0  0  0  0  0  0  0  0  0
    6.8294    1.6874    0.0000 H   0  0  0  0  0  0  0  0  0  0  0  0
  1  5  1  0  0  0  0
  2  6  1  0  0  0  0
  3  6  2  0  0  0  0
  4  5  2  0  0  0  0
  5  9  1  0  0  0  0
  6 10  1  0  0  0  0
  7  8  2  0  0  0  0
  7  9  1  0  0  0  0
  7 10  1  0  0  0  0
  8 11  1  0  0  0  0
  8 12  1  0  0  0  0
  9 13  2  0  0  0  0
 10 14  2  0  0  0  0
 11 16  2  0  0  0  0
 11 17  1  0  0  0  0
 12 15  2  0  0  0  0
 12 18  1  0  0  0  0
 13 16  1  0  0  0  0
 13 19  1  0  0  0  0
 14 15  1  0  0  0  0
 14 20  1  0  0  0  0
 15 22  1  0  0  0  0
 16 21  1  0  0  0  0
M  CHG  4   1  -1   2  -1   5   1   6   1
M  END
> <PUBCHEM_COMPOUND_CID>
11764

> <PUBCHEM_COMPOUND_CANONICALIZED>
1

> <PUBCHEM_CACTVS_COMPLEXITY>
268

> <PUBCHEM_CACTVS_HBOND_ACCEPTOR>
4

> <PUBCHEM_CACTVS_HBOND_DONOR>
0

> <PUBCHEM_CACTVS_ROTATABLE_BOND>
0

> <PUBCHEM_CACTVS_SUBSKEYS>
AAADcYBzOAAAAAAAAAAAAAAAAAAAAAAAAAAwYAAAAAAAAADBUAAAHAAEAAAADAiBGAAwwMAQQACBAiRCQwCCAAAgAgAoiAAAZIoIICKA0dGAIABggAAIyAcQgIAOgAAAQAASAAAAAACAACQAAAAAAAAAAA==

> <PUBCHEM_IUPAC_OPENEYE_NAME>
1,8-dinitronaphthalene

> <PUBCHEM_IUPAC_CAS_NAME>
1,8-dinitronaphthalene

> <PUBCHEM_IUPAC_NAME>
1,8-dinitronaphthalene

> <PUBCHEM_IUPAC_SYSTEMATIC_NAME>
1,8-dinitronaphthalene

> <PUBCHEM_IUPAC_TRADITIONAL_NAME>
1,8-dinitronaphthalene

> <PUBCHEM_IUPAC_INCHI>
InChI=1S/C10H6N2O4/c13-11(14)8-5-1-3-7-4-2-6-9(10(7)8)12(15)16/h1-6H

> <PUBCHEM_IUPAC_INCHIKEY>
AVCSMMMOCOTIHF-UHFFFAOYSA-N

> <PUBCHEM_XLOGP3>
2.5

> <PUBCHEM_EXACT_MASS>
218.032757

> <PUBCHEM_MOLECULAR_FORMULA>
C10H6N2O4

> <PUBCHEM_MOLECULAR_WEIGHT>
218.16564

> <PUBCHEM_OPENEYE_CAN_SMILES>
C1=CC2=C(C(=C1)[N+](=O)[O-])C(=CC=C2)[N+](=O)[O-]

> <PUBCHEM_OPENEYE_ISO_SMILES>
C1=CC2=C(C(=C1)[N+](=O)[O-])C(=CC=C2)[N+](=O)[O-]

> <PUBCHEM_CACTVS_TPSA>
91.6

> <PUBCHEM_MONOISOTOPIC_WEIGHT>
218.032757

> <PUBCHEM_TOTAL_CHARGE>
0

> <PUBCHEM_HEAVY_ATOM_COUNT>
16

> <PUBCHEM_ATOM_DEF_STEREO_COUNT>
0

> <PUBCHEM_ATOM_UDEF_STEREO_COUNT>
0

> <PUBCHEM_BOND_DEF_STEREO_COUNT>
0

> <PUBCHEM_BOND_UDEF_STEREO_COUNT>
0

> <PUBCHEM_ISOTOPIC_ATOM_COUNT>
0

> <PUBCHEM_COMPONENT_COUNT>
1

> <PUBCHEM_CACTVS_TAUTO_COUNT>
1

> <PUBCHEM_COORDINATE_TYPE>
1
5
255

> <PUBCHEM_BONDANNOTATIONS>
10  14  8
11  16  8
12  15  8
13  16  8
14  15  8
7  10  8
7  8  8
7  9  8
8  11  8
8  12  8
9  13  8

$$$$

