7847066
  -OEChem-06241222483D

 51 54  0     0  0  0  0  0  0999 V2000
    0.2706   -0.1045   -0.0688 O   0  0  0  0  0  0  0  0  0  0  0  0
   -1.4908    0.1773   -2.0448 O   0  0  0  0  0  0  0  0  0  0  0  0
    0.9084   -0.3424    2.1303 O   0  0  0  0  0  0  0  0  0  0  0  0
    5.1441   -0.2912   -0.5628 N   0  0  0  0  0  0  0  0  0  0  0  0
   -7.5727   -0.5064    1.3479 C   0  0  0  0  0  0  0  0  0  0  0  0
   -6.1899   -0.1461    1.9115 C   0  0  0  0  0  0  0  0  0  0  0  0
   -7.6470    0.0982   -0.0623 C   0  0  0  0  0  0  0  0  0  0  0  0
   -5.3787   -0.0635    0.6572 C   0  0  0  0  0  0  0  0  0  0  0  0
   -6.2059    0.0750   -0.4635 C   0  0  0  0  0  0  0  0  0  0  0  0
   -3.9999   -0.0663    0.5313 C   0  0  0  0  0  0  0  0  0  0  0  0
   -5.6714    0.2137   -1.7330 C   0  0  0  0  0  0  0  0  0  0  0  0
   -3.4520    0.0603   -0.7470 C   0  0  0  0  0  0  0  0  0  0  0  0
   -4.2817    0.1994   -1.8710 C   0  0  0  0  0  0  0  0  0  0  0  0
   -2.0073    0.0569   -0.9156 C   0  0  0  0  0  0  0  0  0  0  0  0
    2.5649   -0.2297    0.4191 C   0  0  0  0  0  0  0  0  0  0  0  0
    3.1200   -1.4423    0.0752 C   0  0  0  0  0  0  0  0  0  0  0  0
    3.2683    0.9618    0.2849 C   0  0  0  0  0  0  0  0  0  0  0  0
    4.4116   -1.4182   -0.4105 C   0  0  0  0  0  0  0  0  0  0  0  0
   -1.0939   -0.0946    0.3077 C   0  0  0  0  0  0  0  0  0  0  0  0
    4.5829    0.8839   -0.2206 C   0  0  0  0  0  0  0  0  0  0  0  0
    5.0935   -2.6866   -0.8083 C   0  0  0  0  0  0  0  0  0  0  0  0
    1.1758   -0.2351    0.9436 C   0  0  0  0  0  0  0  0  0  0  0  0
    2.3765   -2.7289    0.2136 C   0  0  0  0  0  0  0  0  0  0  0  0
    2.7138    2.2054    0.6320 C   0  0  0  0  0  0  0  0  0  0  0  0
    5.3015    2.0679   -0.3614 C   0  0  0  0  0  0  0  0  0  0  0  0
    5.8540   -3.3224    0.3512 C   0  0  0  0  0  0  0  0  0  0  0  0
    3.4551    3.3738    0.4808 C   0  0  0  0  0  0  0  0  0  0  0  0
    4.7505    3.3046   -0.0165 C   0  0  0  0  0  0  0  0  0  0  0  0
   -8.3886   -0.1647    1.9925 H   0  0  0  0  0  0  0  0  0  0  0  0
   -7.6562   -1.5998    1.2741 H   0  0  0  0  0  0  0  0  0  0  0  0
   -6.2083    0.8267    2.4133 H   0  0  0  0  0  0  0  0  0  0  0  0
   -5.8257   -0.9162    2.5971 H   0  0  0  0  0  0  0  0  0  0  0  0
   -8.2762   -0.5052   -0.7224 H   0  0  0  0  0  0  0  0  0  0  0  0
   -8.0133    1.1295   -0.0319 H   0  0  0  0  0  0  0  0  0  0  0  0
   -3.3963   -0.1632    1.4266 H   0  0  0  0  0  0  0  0  0  0  0  0
   -6.3106    0.3325   -2.6014 H   0  0  0  0  0  0  0  0  0  0  0  0
   -3.8616    0.3045   -2.8684 H   0  0  0  0  0  0  0  0  0  0  0  0
   -1.2699    0.7542    0.9778 H   0  0  0  0  0  0  0  0  0  0  0  0
   -1.3285   -1.0447    0.8002 H   0  0  0  0  0  0  0  0  0  0  0  0
    5.8115   -2.4619   -1.6081 H   0  0  0  0  0  0  0  0  0  0  0  0
    4.3965   -3.4073   -1.2491 H   0  0  0  0  0  0  0  0  0  0  0  0
    1.4624   -2.6485    0.8080 H   0  0  0  0  0  0  0  0  0  0  0  0
    2.9781   -3.4894    0.7195 H   0  0  0  0  0  0  0  0  0  0  0  0
    2.0850   -3.1012   -0.7744 H   0  0  0  0  0  0  0  0  0  0  0  0
    1.7033    2.2925    1.0234 H   0  0  0  0  0  0  0  0  0  0  0  0
    6.3183    2.0406   -0.7489 H   0  0  0  0  0  0  0  0  0  0  0  0
    5.1941   -3.5783    1.1853 H   0  0  0  0  0  0  0  0  0  0  0  0
    6.3504   -4.2393    0.0179 H   0  0  0  0  0  0  0  0  0  0  0  0
    6.6231   -2.6426    0.7341 H   0  0  0  0  0  0  0  0  0  0  0  0
    3.0236    4.3331    0.7498 H   0  0  0  0  0  0  0  0  0  0  0  0
    5.3361    4.2112   -0.1378 H   0  0  0  0  0  0  0  0  0  0  0  0
  1 19  1  0  0  0  0
  1 22  1  0  0  0  0
  2 14  2  0  0  0  0
  3 22  2  0  0  0  0
  4 18  2  0  0  0  0
  4 20  1  0  0  0  0
  5  6  1  0  0  0  0
  5  7  1  0  0  0  0
  5 29  1  0  0  0  0
  5 30  1  0  0  0  0
  6  8  1  0  0  0  0
  6 31  1  0  0  0  0
  6 32  1  0  0  0  0
  7  9  1  0  0  0  0
  7 33  1  0  0  0  0
  7 34  1  0  0  0  0
  8  9  2  0  0  0  0
  8 10  1  0  0  0  0
  9 11  1  0  0  0  0
 10 12  2  0  0  0  0
 10 35  1  0  0  0  0
 11 13  2  0  0  0  0
 11 36  1  0  0  0  0
 12 13  1  0  0  0  0
 12 14  1  0  0  0  0
 13 37  1  0  0  0  0
 14 19  1  0  0  0  0
 15 16  2  0  0  0  0
 15 17  1  0  0  0  0
 15 22  1  0  0  0  0
 16 18  1  0  0  0  0
 16 23  1  0  0  0  0
 17 20  1  0  0  0  0
 17 24  2  0  0  0  0
 18 21  1  0  0  0  0
 19 38  1  0  0  0  0
 19 39  1  0  0  0  0
 20 25  2  0  0  0  0
 21 26  1  0  0  0  0
 21 40  1  0  0  0  0
 21 41  1  0  0  0  0
 23 42  1  0  0  0  0
 23 43  1  0  0  0  0
 23 44  1  0  0  0  0
 24 27  1  0  0  0  0
 24 45  1  0  0  0  0
 25 28  1  0  0  0  0
 25 46  1  0  0  0  0
 26 47  1  0  0  0  0
 26 48  1  0  0  0  0
 26 49  1  0  0  0  0
 27 28  2  0  0  0  0
 27 50  1  0  0  0  0
 28 51  1  0  0  0  0
M  END
> <PUBCHEM_COMPOUND_CID>
7847066

> <PUBCHEM_CONFORMER_RMSD>
0.8

> <PUBCHEM_CONFORMER_DIVERSEORDER>
1
425
396
101
432
307
334
306
402
245
397
399
27
339
338
171
128
431
341
55
191
200
139
255
239
403
441
243
358
324
451
258
264
392
121
350
294
428
376
225
329
127
452
248
357
175
421
85
359
406
303
256
259
68
296
377
394
320
51
86
343
197
78
438
312
360
181
133
426
388
150
232
15
160
335
11
80
147
355
345
440
268
429
61
159
10
295
192
315
253
410
328
22
285
423
205
132
170
82
455
384
172
365
318
20
446
374
93
74
330
141
368
31
393
17
373
419
457
233
263
257
8
382
164
16
270
411
272
105
24
389
447
143
352
4
14
211
176
3
185
291
433
199
29
444
64
286
437
7
434
118
91
114
416
88
353
430
221
298
154
21
407
404
260
413
317
236
5
113
305
119
37
204
39
391
456
59
53
395
19
371
417
168
276
275
401
277
151
351
169
313
409
427
400
238
149
95
215
48
162
6
156
415
144
12
34
155
381
293
56
35
321
193
70
195
140
167
240
387
72
297
42
210
13
179
405
436
112
367
136
385
288
273
81
408
454
28
2
138
224
9
62
279
135
98
18
45
231
369
422
107
75
124
412
44
148
349
87
378
206
40
372
209
280
418
439
398
32
166
57
203
347
234
142
84
157
380
152
449
125
336
283
361
223
99
362
182
67
445
241
274
190
49
50
227
332
282
214
110
310
219
60
137
79
242
41
337
290
251
131
158
331
453
424
36
126
212
370
76
237
333
269
71
228
129
198
218
123
33
254
26
187
108
230
327
304
383
111
207
284
246
287
165
302
173
348
229
442
278
103
58
153
222
102
96
104
267
265
183
247
94
292
244
109
250
184
146
100
342
161
117
414
163
174
92
89
364
83
325
38
226
266
188
77
54
322
196
122
30
319
420
261
356
25
178
66
448
90
65
115
216
235
450
299
300
289
346
97
262
52
186
23
281
390
316
386
252
354
130
379
46
443
202
326
435
106
43
145
63
314
301
309
73
217
340
311
69
180
375
134
323
194
213
271
363
220
116
120
177
47
249
366
208
201
189
344
308

> <PUBCHEM_MMFF94_PARTIAL_CHARGES>
32
1 -0.43
10 -0.15
11 -0.15
12 0.09
13 -0.15
14 0.42
15 0.09
16 -0.14
18 0.17
19 0.34
2 -0.57
20 0.31
21 0.14
22 0.63
23 0.14
24 -0.15
25 -0.15
27 -0.15
28 -0.15
3 -0.57
35 0.15
36 0.15
37 0.15
4 -0.62
45 0.15
46 0.15
50 0.15
51 0.15
6 0.14
7 0.14
8 -0.14
9 -0.14

> <PUBCHEM_EFFECTIVE_ROTOR_COUNT>
6.6

> <PUBCHEM_PHARMACOPHORE_FEATURES>
8
1 2 acceptor
1 26 hydrophobe
1 3 acceptor
1 4 acceptor
5 5 6 7 8 9 rings
6 17 20 24 25 27 28 rings
6 4 15 16 17 18 20 rings
6 8 9 10 11 12 13 rings

> <PUBCHEM_HEAVY_ATOM_COUNT>
28

> <PUBCHEM_ATOM_DEF_STEREO_COUNT>
0

> <PUBCHEM_ATOM_UDEF_STEREO_COUNT>
0

> <PUBCHEM_BOND_DEF_STEREO_COUNT>
0

> <PUBCHEM_BOND_UDEF_STEREO_COUNT>
0

> <PUBCHEM_ISOTOPIC_ATOM_COUNT>
0

> <PUBCHEM_COMPONENT_COUNT>
1

> <PUBCHEM_CACTVS_TAUTO_COUNT>
4

> <PUBCHEM_CONFORMER_ID>
0077BC9A00000001

> <PUBCHEM_MMFF94_ENERGY>
86.78

> <PUBCHEM_FEATURE_SELFOVERLAP>
40.709

> <PUBCHEM_SHAPE_FINGERPRINT>
10 15 17203050668785608449
10165383 225 18201431434254409532
10299344 5 17894066304014287655
10411042 1 18193836184118622638
10554248 39 17313669356055528373
10638233 991 18113898230708155305
10675989 125 17970068847100101536
11181472 205 18116430535569074145
11497681 19 18120659033772197743
12236239 1 17603585223144023881
12516196 113 17561363972717102205
12596602 18 18409163286939150859
12616971 3 17894634768494519183
12730499 353 18273215283533793218
12788726 201 17023170643959152489
13533116 47 18408040710424605608
13673619 4 18200308948060473030
13782708 43 17845937441070789203
13955234 65 18412270544990078570
14170010 4 18409733963543947112
14341114 176 18412822482694669437
14461889 52 17131833132017404273
14933364 13 18413387644788415157
15021287 119 18187648062981595881
15081414 286 18343302530981192948
15131766 46 18044951073603732477
15183329 4 16370719310503364241
15238133 3 16515686649596172799
15419008 47 17917995000870324525
1577012 14 17530965766006416173
15799311 1 18114455691709222855
16991971 28 18125444357347654410
17844677 252 18410011078733603253
1979834 28 18130790006159897300
21033648 29 17775294854637451109
21049683 271 18200868578700292462
21315759 40 17530971285128958687
22033318 11 17751898436703755745
221357 26 18340771528618236980
22956985 138 14547083725356615552
2303208 19 17989484134848912419
23081809 10 17531251643287428877
23522609 53 17604692401484200361
23559900 14 17560798870278437135
249057 3 18408039611636008990
255183 451 17970053651689885366
2747138 104 17346586462379814473
3004659 81 16443061677704687528
3178227 256 18411701023853108922
34797466 226 17561357366450720205
394071 54 18340767044503971253
397830 11 18057878061880508075
4073 2 18199182901819079459
437795 51 18343578517157575161
44317340 157 18413107238583152775
46194498 28 18342178903612294084
5104073 3 17131570430606904049
54039377 194 18116147943415823694
54076057 127 18336820910145728722
5912855 24 18044383733961340655
9658208 31 17274815831574976866
9962374 69 18335997418728507174

> <PUBCHEM_SHAPE_MULTIPOLES>
553.64
20.38
2.97
1.49
29.39
0.43
0.08
-1.82
-0.94
-9.99
-0.23
2.5
-0.06
0.72

> <PUBCHEM_SHAPE_SELFOVERLAP>
1220.14

> <PUBCHEM_SHAPE_VOLUME>
300.4

> <PUBCHEM_COORDINATE_TYPE>
2
5
10

$$$$

