47205692
  -OEChem-06241222593D

 38 39  0     0  0  0  0  0  0999 V2000
    3.3555    2.0511    1.2086 O   0  0  0  0  0  0  0  0  0  0  0  0
    4.5467    1.8422   -0.8760 O   0  0  0  0  0  0  0  0  0  0  0  0
   -1.2099   -1.0584    1.3945 O   0  0  0  0  0  0  0  0  0  0  0  0
   -2.9399    0.7567   -1.2010 O   0  0  0  0  0  0  0  0  0  0  0  0
    0.0249   -2.4546    0.0062 N   0  0  0  0  0  0  0  0  0  0  0  0
   -3.4153   -1.2501   -0.1355 N   0  0  0  0  0  0  0  0  0  0  0  0
    2.1542   -1.2882    0.2764 C   0  0  0  0  0  0  0  0  0  0  0  0
    1.2686   -2.4081    0.7410 C   0  0  0  0  0  0  0  0  0  0  0  0
    3.1096    0.8644    0.5893 C   0  0  0  0  0  0  0  0  0  0  0  0
    2.2828   -0.1365    1.0566 C   0  0  0  0  0  0  0  0  0  0  0  0
    3.7897    0.7452   -0.6010 C   0  0  0  0  0  0  0  0  0  0  0  0
    2.8490   -1.4099   -0.9398 C   0  0  0  0  0  0  0  0  0  0  0  0
   -4.9575    0.5765    0.1250 C   0  0  0  0  0  0  0  0  0  0  0  0
    3.6803   -0.3814   -1.3900 C   0  0  0  0  0  0  0  0  0  0  0  0
   -2.2456   -1.9621   -0.5924 C   0  0  0  0  0  0  0  0  0  0  0  0
   -5.2490    2.0269   -0.2488 C   0  0  0  0  0  0  0  0  0  0  0  0
   -1.1169   -1.7710    0.3981 C   0  0  0  0  0  0  0  0  0  0  0  0
    4.2672    2.6651    0.2747 C   0  0  0  0  0  0  0  0  0  0  0  0
   -3.6637    0.0690   -0.4860 C   0  0  0  0  0  0  0  0  0  0  0  0
   -6.5307    2.5233    0.4001 C   0  0  0  0  0  0  0  0  0  0  0  0
    1.0497   -2.3152    1.8112 H   0  0  0  0  0  0  0  0  0  0  0  0
    1.7747   -3.3698    0.5996 H   0  0  0  0  0  0  0  0  0  0  0  0
    1.7533   -0.0250    1.9967 H   0  0  0  0  0  0  0  0  0  0  0  0
    2.7454   -2.3090   -1.5426 H   0  0  0  0  0  0  0  0  0  0  0  0
   -4.8811    0.4788    1.2147 H   0  0  0  0  0  0  0  0  0  0  0  0
   -5.7753   -0.0698   -0.2152 H   0  0  0  0  0  0  0  0  0  0  0  0
    4.2176   -0.4714   -2.3272 H   0  0  0  0  0  0  0  0  0  0  0  0
    0.0043   -2.9996   -0.8512 H   0  0  0  0  0  0  0  0  0  0  0  0
   -4.4158    2.6685    0.0621 H   0  0  0  0  0  0  0  0  0  0  0  0
   -5.3329    2.1223   -1.3380 H   0  0  0  0  0  0  0  0  0  0  0  0
   -1.9392   -1.5924   -1.5761 H   0  0  0  0  0  0  0  0  0  0  0  0
   -2.5012   -3.0237   -0.6587 H   0  0  0  0  0  0  0  0  0  0  0  0
    5.2099    2.8767    0.7923 H   0  0  0  0  0  0  0  0  0  0  0  0
    3.8337    3.6118   -0.0678 H   0  0  0  0  0  0  0  0  0  0  0  0
   -4.0636   -1.7364    0.4773 H   0  0  0  0  0  0  0  0  0  0  0  0
   -6.4622    2.4748    1.4916 H   0  0  0  0  0  0  0  0  0  0  0  0
   -6.7204    3.5635    0.1176 H   0  0  0  0  0  0  0  0  0  0  0  0
   -7.3892    1.9230    0.0823 H   0  0  0  0  0  0  0  0  0  0  0  0
  1  9  1  0  0  0  0
  1 18  1  0  0  0  0
  2 11  1  0  0  0  0
  2 18  1  0  0  0  0
  3 17  2  0  0  0  0
  4 19  2  0  0  0  0
  5  8  1  0  0  0  0
  5 17  1  0  0  0  0
  5 28  1  0  0  0  0
  6 15  1  0  0  0  0
  6 19  1  0  0  0  0
  6 35  1  0  0  0  0
  7  8  1  0  0  0  0
  7 10  2  0  0  0  0
  7 12  1  0  0  0  0
  8 21  1  0  0  0  0
  8 22  1  0  0  0  0
  9 10  1  0  0  0  0
  9 11  2  0  0  0  0
 10 23  1  0  0  0  0
 11 14  1  0  0  0  0
 12 14  2  0  0  0  0
 12 24  1  0  0  0  0
 13 16  1  0  0  0  0
 13 19  1  0  0  0  0
 13 25  1  0  0  0  0
 13 26  1  0  0  0  0
 14 27  1  0  0  0  0
 15 17  1  0  0  0  0
 15 31  1  0  0  0  0
 15 32  1  0  0  0  0
 16 20  1  0  0  0  0
 16 29  1  0  0  0  0
 16 30  1  0  0  0  0
 18 33  1  0  0  0  0
 18 34  1  0  0  0  0
 20 36  1  0  0  0  0
 20 37  1  0  0  0  0
 20 38  1  0  0  0  0
M  END
> <PUBCHEM_COMPOUND_CID>
47205692

> <PUBCHEM_CONFORMER_RMSD>
1.2

> <PUBCHEM_CONFORMER_DIVERSEORDER>
1
33
26
27
24
5
18
36
14
7
30
40
35
21
13
16
28
23
3
31
44
19
22
10
20
17
15
43
4
11
46
8
32
41
9
37
2
38
29
12
34
39
6
45
42
25

> <PUBCHEM_MMFF94_PARTIAL_CHARGES>
23
1 -0.36
10 -0.15
11 0.08
12 -0.15
13 0.06
14 -0.15
15 0.36
17 0.57
18 0.56
19 0.57
2 -0.36
23 0.15
24 0.15
27 0.15
28 0.37
3 -0.57
35 0.37
4 -0.57
5 -0.73
6 -0.73
7 -0.14
8 0.44
9 0.08

> <PUBCHEM_EFFECTIVE_ROTOR_COUNT>
8.6

> <PUBCHEM_PHARMACOPHORE_FEATURES>
9
1 1 acceptor
1 2 acceptor
1 20 hydrophobe
1 3 acceptor
1 4 acceptor
1 5 donor
1 6 donor
5 1 2 9 11 18 rings
6 7 9 10 11 12 14 rings

> <PUBCHEM_HEAVY_ATOM_COUNT>
20

> <PUBCHEM_ATOM_DEF_STEREO_COUNT>
0

> <PUBCHEM_ATOM_UDEF_STEREO_COUNT>
0

> <PUBCHEM_BOND_DEF_STEREO_COUNT>
0

> <PUBCHEM_BOND_UDEF_STEREO_COUNT>
0

> <PUBCHEM_ISOTOPIC_ATOM_COUNT>
0

> <PUBCHEM_COMPONENT_COUNT>
1

> <PUBCHEM_CACTVS_TAUTO_COUNT>
4

> <PUBCHEM_CONFORMER_ID>
02D04D3C00000001

> <PUBCHEM_MMFF94_ENERGY>
32.8866

> <PUBCHEM_FEATURE_SELFOVERLAP>
45.824

> <PUBCHEM_SHAPE_FINGERPRINT>
10498660 4 18409448055232617633
11069576 57 14635415178270609436
11720765 8 17896595284069548470
12363563 72 8069755121261197422
12596602 18 13829839249306012117
12633257 1 15769489833590098871
12788726 201 17458902760088546321
12892183 10 12319740249828756238
13878862 14 17914075324074965501
13965767 371 17917725594978197870
1420 369 9511455637332190773
14251764 30 11743021194577595056
14251764 38 18123753054137267980
14251764 75 18410285900637492089
14341114 328 16343695509098794539
14528608 73 18335989752902161703
14537116 161 17023474165810796897
14848178 5 9007052444786156129
14848178 96 18410295821842744449
15210252 30 18413386519059220936
15342168 16 18338520841501527799
17810953 82 18341331197084840189
17834072 32 18341050731124549261
17868525 174 17268084849001801699
17959699 21 18335700529092467843
18335252 114 18120661485549027831
193927 3 7492997501403564407
19752476 56 18334580148392524442
20238998 120 17547849651931211915
20403669 9 8502379940157196917
20621476 91 16271345471618832465
21315763 87 11383817252352589389
21734292 116 18338519741753257037
21864079 5 18411706460822347403
22289505 5 18114177545247354300
22956985 138 10289001814811900830
23503958 8 10591779687228142399
270888 7 18413108338037121933
2838139 119 18334864874379974852
3009799 131 18186791492838999758
312425 83 17821727217191955159
316301 35 9150912554723108980
3472631 163 18334858346678440861
4028521 119 18189329070421650378
44062 13 7565074843854359971
4463277 69 7637390831361321891
5104073 3 18131634495640918475
56616090 13 18412545435897903795
633830 44 18336272314015449295
76465 3 8862940580914864475
7808743 9 18056757637824969540
7970288 3 8646229029166006316
960060 61 5039657184650567059

> <PUBCHEM_SHAPE_MULTIPOLES>
378.15
13.05
3.2
1.15
17.1
0.59
0.02
12.84
1.34
-0.21
-0.41
-0.74
-0.03
0.15

> <PUBCHEM_SHAPE_SELFOVERLAP>
786.274

> <PUBCHEM_SHAPE_VOLUME>
214.8

> <PUBCHEM_COORDINATE_TYPE>
2
5
10

$$$$

