51090903
  -OEChem-06241223002D

 42 44  0     0  0  0  0  0  0999 V2000
    5.1646    2.8307    0.0000 O   0  0  0  0  0  0  0  0  0  0  0  0
    5.8412   -1.6700    0.0000 O   0  0  0  0  0  0  0  0  0  0  0  0
    2.9499   -0.0144    0.0000 O   0  0  0  0  0  0  0  0  0  0  0  0
    3.5823    3.5352    0.0000 N   0  0  0  0  0  0  0  0  0  0  0  0
    4.3511    1.0036    0.0000 N   0  0  0  0  0  0  0  0  0  0  0  0
    5.5322   -0.7189    0.0000 N   0  0  0  0  0  0  0  0  0  0  0  0
    2.4067    5.1532    0.0000 C   0  0  0  0  0  0  0  0  0  0  0  0
    2.0000    4.2397    0.0000 C   0  0  0  0  0  0  0  0  0  0  0  0
    3.4013    5.2578    0.0000 C   0  0  0  0  0  0  0  0  0  0  0  0
    2.5878    3.4307    0.0000 C   0  0  0  0  0  0  0  0  0  0  0  0
    3.9890    4.4488    0.0000 C   0  0  0  0  0  0  0  0  0  0  0  0
    4.1701    2.7262    0.0000 C   0  0  0  0  0  0  0  0  0  0  0  0
    3.7634    1.8126    0.0000 C   0  0  0  0  0  0  0  0  0  0  0  0
    3.9444    0.0901    0.0000 C   0  0  0  0  0  0  0  0  0  0  0  0
    4.5322   -0.7189    0.0000 C   0  0  0  0  0  0  0  0  0  0  0  0
    4.2232   -1.6700    0.0000 C   0  0  0  0  0  0  0  0  0  0  0  0
    5.0322   -2.2578    0.0000 C   0  0  0  0  0  0  0  0  0  0  0  0
    5.0322   -3.2578    0.0000 C   0  0  0  0  0  0  0  0  0  0  0  0
    4.1662   -3.7578    0.0000 C   0  0  0  0  0  0  0  0  0  0  0  0
    5.8982   -3.7578    0.0000 C   0  0  0  0  0  0  0  0  0  0  0  0
    4.1662   -4.7578    0.0000 C   0  0  0  0  0  0  0  0  0  0  0  0
    5.8982   -4.7578    0.0000 C   0  0  0  0  0  0  0  0  0  0  0  0
    5.0322   -5.2578    0.0000 C   0  0  0  0  0  0  0  0  0  0  0  0
    2.4500    5.7717    0.0000 H   0  0  0  0  0  0  0  0  0  0  0  0
    1.8052    5.3032    0.0000 H   0  0  0  0  0  0  0  0  0  0  0  0
    1.4860    4.5864    0.0000 H   0  0  0  0  0  0  0  0  0  0  0  0
    1.5693    3.7937    0.0000 H   0  0  0  0  0  0  0  0  0  0  0  0
    3.9585    5.5296    0.0000 H   0  0  0  0  0  0  0  0  0  0  0  0
    3.2304    5.8538    0.0000 H   0  0  0  0  0  0  0  0  0  0  0  0
    2.0305    3.1589    0.0000 H   0  0  0  0  0  0  0  0  0  0  0  0
    2.7587    2.8347    0.0000 H   0  0  0  0  0  0  0  0  0  0  0  0
    4.5030    4.1021    0.0000 H   0  0  0  0  0  0  0  0  0  0  0  0
    4.4197    4.8948    0.0000 H   0  0  0  0  0  0  0  0  0  0  0  0
    3.2494    2.1594    0.0000 H   0  0  0  0  0  0  0  0  0  0  0  0
    3.3327    1.3667    0.0000 H   0  0  0  0  0  0  0  0  0  0  0  0
    4.9677    1.0684    0.0000 H   0  0  0  0  0  0  0  0  0  0  0  0
    3.6335   -1.8616    0.0000 H   0  0  0  0  0  0  0  0  0  0  0  0
    3.6292   -3.4478    0.0000 H   0  0  0  0  0  0  0  0  0  0  0  0
    6.4352   -3.4478    0.0000 H   0  0  0  0  0  0  0  0  0  0  0  0
    3.6292   -5.0678    0.0000 H   0  0  0  0  0  0  0  0  0  0  0  0
    6.4352   -5.0678    0.0000 H   0  0  0  0  0  0  0  0  0  0  0  0
    5.0322   -5.8778    0.0000 H   0  0  0  0  0  0  0  0  0  0  0  0
  1 12  2  0  0  0  0
  2  6  1  0  0  0  0
  2 17  1  0  0  0  0
  3 14  2  0  0  0  0
  4 10  1  0  0  0  0
  4 11  1  0  0  0  0
  4 12  1  0  0  0  0
  5 13  1  0  0  0  0
  5 14  1  0  0  0  0
  5 36  1  0  0  0  0
  6 15  2  0  0  0  0
  7  8  1  0  0  0  0
  7  9  1  0  0  0  0
  7 24  1  0  0  0  0
  7 25  1  0  0  0  0
  8 10  1  0  0  0  0
  8 26  1  0  0  0  0
  8 27  1  0  0  0  0
  9 11  1  0  0  0  0
  9 28  1  0  0  0  0
  9 29  1  0  0  0  0
 10 30  1  0  0  0  0
 10 31  1  0  0  0  0
 11 32  1  0  0  0  0
 11 33  1  0  0  0  0
 12 13  1  0  0  0  0
 13 34  1  0  0  0  0
 13 35  1  0  0  0  0
 14 15  1  0  0  0  0
 15 16  1  0  0  0  0
 16 17  2  0  0  0  0
 16 37  1  0  0  0  0
 17 18  1  0  0  0  0
 18 19  2  0  0  0  0
 18 20  1  0  0  0  0
 19 21  1  0  0  0  0
 19 38  1  0  0  0  0
 20 22  2  0  0  0  0
 20 39  1  0  0  0  0
 21 23  2  0  0  0  0
 21 40  1  0  0  0  0
 22 23  1  0  0  0  0
 22 41  1  0  0  0  0
 23 42  1  0  0  0  0
M  END
> <PUBCHEM_COMPOUND_CID>
51090903

> <PUBCHEM_COMPOUND_CANONICALIZED>
1

> <PUBCHEM_CACTVS_COMPLEXITY>
417

> <PUBCHEM_CACTVS_HBOND_ACCEPTOR>
4

> <PUBCHEM_CACTVS_HBOND_DONOR>
1

> <PUBCHEM_CACTVS_ROTATABLE_BOND>
4

> <PUBCHEM_CACTVS_SUBSKEYS>
AAADceB7MAAAAAAAAAAAAAAAAAAAAWAAAAA8QAAAAAAAAAABwAAAHgAUAAAADAzBngQwhJPQAACpA6VyUgCCAAAmIgAomKG+bNoIZjqAlbOUMYhmxhmIyce/yKCOAAAAAAAAAAAAAAAAAAAAAAAAAAAAAA==

> <PUBCHEM_IUPAC_OPENEYE_NAME>
N-[2-oxo-2-(1-piperidyl)ethyl]-5-phenyl-isoxazole-3-carboxamide

> <PUBCHEM_IUPAC_CAS_NAME>
N-[2-oxo-2-(1-piperidinyl)ethyl]-5-phenyl-3-isoxazolecarboxamide

> <PUBCHEM_IUPAC_NAME>
N-(2-oxo-2-piperidin-1-ylethyl)-5-phenyl-1,2-oxazole-3-carboxamide

> <PUBCHEM_IUPAC_SYSTEMATIC_NAME>
N-(2-oxidanylidene-2-piperidin-1-yl-ethyl)-5-phenyl-1,2-oxazole-3-carboxamide

> <PUBCHEM_IUPAC_TRADITIONAL_NAME>
N-(2-keto-2-piperidino-ethyl)-5-phenyl-isoxazole-3-carboxamide

> <PUBCHEM_IUPAC_INCHI>
InChI=1S/C17H19N3O3/c21-16(20-9-5-2-6-10-20)12-18-17(22)14-11-15(23-19-14)13-7-3-1-4-8-13/h1,3-4,7-8,11H,2,5-6,9-10,12H2,(H,18,22)

> <PUBCHEM_IUPAC_INCHIKEY>
GAZHIVRJZOJADH-UHFFFAOYSA-N

> <PUBCHEM_XLOGP3_AA>
2

> <PUBCHEM_EXACT_MASS>
313.142641

> <PUBCHEM_MOLECULAR_FORMULA>
C17H19N3O3

> <PUBCHEM_MOLECULAR_WEIGHT>
313.35106

> <PUBCHEM_OPENEYE_CAN_SMILES>
C1CCN(CC1)C(=O)CNC(=O)C2=NOC(=C2)C3=CC=CC=C3

> <PUBCHEM_OPENEYE_ISO_SMILES>
C1CCN(CC1)C(=O)CNC(=O)C2=NOC(=C2)C3=CC=CC=C3

> <PUBCHEM_CACTVS_TPSA>
75.4

> <PUBCHEM_MONOISOTOPIC_WEIGHT>
313.142641

> <PUBCHEM_TOTAL_CHARGE>
0

> <PUBCHEM_HEAVY_ATOM_COUNT>
23

> <PUBCHEM_ATOM_DEF_STEREO_COUNT>
0

> <PUBCHEM_ATOM_UDEF_STEREO_COUNT>
0

> <PUBCHEM_BOND_DEF_STEREO_COUNT>
0

> <PUBCHEM_BOND_UDEF_STEREO_COUNT>
0

> <PUBCHEM_ISOTOPIC_ATOM_COUNT>
0

> <PUBCHEM_COMPONENT_COUNT>
1

> <PUBCHEM_CACTVS_TAUTO_COUNT>
2

> <PUBCHEM_COORDINATE_TYPE>
1
5
255

> <PUBCHEM_BONDANNOTATIONS>
15  16  8
16  17  8
18  19  8
18  20  8
19  21  8
2  17  8
2  6  8
20  22  8
21  23  8
22  23  8
6  15  8

$$$$

