4833
  -OEChem-06261200223D

 84 92  0     1  0  0  0  0  0999 V2000
    5.5516   -2.6101   -0.0034 O   0  0  0  0  0  0  0  0  0  0  0  0
    5.6680    2.0244   -0.3562 O   0  0  0  0  0  0  0  0  0  0  0  0
   -5.5356    2.6004   -0.2661 O   0  0  0  0  0  0  0  0  0  0  0  0
   -5.6801   -2.0294   -0.7732 O   0  0  0  0  0  0  0  0  0  0  0  0
    5.6366   -0.3035   -0.2476 N   0  0  0  0  0  0  0  0  0  0  0  0
    9.3299   -0.2904    0.3614 N   0  0  0  0  0  0  0  0  0  0  0  0
   -5.6724    0.2881   -0.5378 N   0  0  0  0  0  0  0  0  0  0  0  0
   -9.2839    0.2698    0.4436 N   0  0  0  0  0  0  0  0  0  0  0  0
    0.7684    1.2755    0.3564 C   0  0  2  0  0  0  0  0  0  0  0  0
    1.4009   -0.0980    0.1526 C   0  0  0  0  0  0  0  0  0  0  0  0
    2.8811   -0.1071    0.1573 C   0  0  0  0  0  0  0  0  0  0  0  0
    3.5463   -1.3942    0.5529 C   0  0  2  0  0  0  0  0  0  0  0  0
   -0.7333    1.3028    0.1153 C   0  0  0  0  0  0  0  0  0  0  0  0
    0.7009   -1.2383   -0.0610 C   0  0  0  0  0  0  0  0  0  0  0  0
   -1.4501    0.1064   -0.1040 C   0  0  0  0  0  0  0  0  0  0  0  0
   -0.7892   -1.1461   -0.1647 C   0  0  0  0  0  0  0  0  0  0  0  0
    3.5568    0.9894   -0.2273 C   0  0  0  0  0  0  0  0  0  0  0  0
   -2.8708    0.1693   -0.2467 C   0  0  0  0  0  0  0  0  0  0  0  0
    1.5423    2.3346   -0.4077 C   0  0  0  0  0  0  0  0  0  0  0  0
    4.9862   -1.5137    0.0504 C   0  0  0  0  0  0  0  0  0  0  0  0
    2.7535   -2.5838    0.0769 C   0  0  0  0  0  0  0  0  0  0  0  0
    1.4515   -2.4853   -0.2300 C   0  0  0  0  0  0  0  0  0  0  0  0
    2.8513    2.1830   -0.6573 C   0  0  0  0  0  0  0  0  0  0  0  0
    5.0442    0.9659   -0.2734 C   0  0  0  0  0  0  0  0  0  0  0  0
   -3.5246    1.4072   -0.1734 C   0  0  0  0  0  0  0  0  0  0  0  0
   -3.5963   -1.0102   -0.4433 C   0  0  0  0  0  0  0  0  0  0  0  0
    7.0612   -0.3762   -0.5590 C   0  0  0  0  0  0  0  0  0  0  0  0
   -1.4275    2.5200    0.2253 C   0  0  0  0  0  0  0  0  0  0  0  0
    7.9086   -0.1855    0.6904 C   0  0  0  0  0  0  0  0  0  0  0  0
   -1.5640   -2.3052   -0.3397 C   0  0  0  0  0  0  0  0  0  0  0  0
   -2.8056    2.5775    0.0663 C   0  0  0  0  0  0  0  0  0  0  0  0
   10.1462   -0.2270    1.5819 C   0  0  0  0  0  0  0  0  0  0  0  0
    9.7160    0.7602   -0.5910 C   0  0  0  0  0  0  0  0  0  0  0  0
   -2.9469   -2.2416   -0.4826 C   0  0  0  0  0  0  0  0  0  0  0  0
   11.6332   -0.3848    1.2603 C   0  0  0  0  0  0  0  0  0  0  0  0
   11.1888    0.6349   -0.9836 C   0  0  0  0  0  0  0  0  0  0  0  0
   -7.1208    0.3490   -0.7039 C   0  0  0  0  0  0  0  0  0  0  0  0
   -4.9951    1.4983   -0.3284 C   0  0  0  0  0  0  0  0  0  0  0  0
   -5.0674   -0.9775   -0.6004 C   0  0  0  0  0  0  0  0  0  0  0  0
   -7.8359    0.1770    0.6281 C   0  0  0  0  0  0  0  0  0  0  0  0
   12.0935    0.6533    0.2433 C   0  0  0  0  0  0  0  0  0  0  0  0
   -9.7581   -0.7992   -0.4463 C   0  0  0  0  0  0  0  0  0  0  0  0
   -9.9715    0.2247    1.7416 C   0  0  0  0  0  0  0  0  0  0  0  0
  -11.2640   -0.6873   -0.6893 C   0  0  0  0  0  0  0  0  0  0  0  0
  -11.4845    0.3704    1.5700 C   0  0  0  0  0  0  0  0  0  0  0  0
  -12.0393   -0.6877    0.6233 C   0  0  0  0  0  0  0  0  0  0  0  0
    0.8839    1.5164    1.4254 H   0  0  0  0  0  0  0  0  0  0  0  0
    3.6052   -1.4396    1.6490 H   0  0  0  0  0  0  0  0  0  0  0  0
    1.0615    3.2544   -0.7252 H   0  0  0  0  0  0  0  0  0  0  0  0
    3.2325   -3.5551   -0.0089 H   0  0  0  0  0  0  0  0  0  0  0  0
    0.9473   -3.3748   -0.5875 H   0  0  0  0  0  0  0  0  0  0  0  0
    3.3957    2.9580   -1.1863 H   0  0  0  0  0  0  0  0  0  0  0  0
    7.2892   -1.3403   -1.0294 H   0  0  0  0  0  0  0  0  0  0  0  0
    7.2430    0.3963   -1.3107 H   0  0  0  0  0  0  0  0  0  0  0  0
   -0.8982    3.4428    0.4498 H   0  0  0  0  0  0  0  0  0  0  0  0
    7.6815    0.7773    1.1667 H   0  0  0  0  0  0  0  0  0  0  0  0
    7.6409   -0.9647    1.4158 H   0  0  0  0  0  0  0  0  0  0  0  0
   -1.1188   -3.2950   -0.3725 H   0  0  0  0  0  0  0  0  0  0  0  0
   -3.2976    3.5429    0.1483 H   0  0  0  0  0  0  0  0  0  0  0  0
    9.9833    0.7207    2.1122 H   0  0  0  0  0  0  0  0  0  0  0  0
    9.8583   -1.0359    2.2645 H   0  0  0  0  0  0  0  0  0  0  0  0
    9.1695    0.6843   -1.5342 H   0  0  0  0  0  0  0  0  0  0  0  0
    9.5265    1.7585   -0.1751 H   0  0  0  0  0  0  0  0  0  0  0  0
   -3.4952   -3.1695   -0.6227 H   0  0  0  0  0  0  0  0  0  0  0  0
   12.2229   -0.2891    2.1790 H   0  0  0  0  0  0  0  0  0  0  0  0
   11.8185   -1.3915    0.8645 H   0  0  0  0  0  0  0  0  0  0  0  0
   11.3443   -0.2998   -1.5376 H   0  0  0  0  0  0  0  0  0  0  0  0
   11.4645    1.4548   -1.6567 H   0  0  0  0  0  0  0  0  0  0  0  0
   -7.3769   -0.4315   -1.4243 H   0  0  0  0  0  0  0  0  0  0  0  0
   -7.3950    1.3089   -1.1586 H   0  0  0  0  0  0  0  0  0  0  0  0
   -7.5003    0.9692    1.3098 H   0  0  0  0  0  0  0  0  0  0  0  0
   -7.5549   -0.7772    1.0933 H   0  0  0  0  0  0  0  0  0  0  0  0
   13.1306    0.4582   -0.0507 H   0  0  0  0  0  0  0  0  0  0  0  0
   12.0694    1.6499    0.7009 H   0  0  0  0  0  0  0  0  0  0  0  0
   -9.3111   -0.7380   -1.4415 H   0  0  0  0  0  0  0  0  0  0  0  0
   -9.5213   -1.7891   -0.0347 H   0  0  0  0  0  0  0  0  0  0  0  0
   -9.7499   -0.7126    2.2689 H   0  0  0  0  0  0  0  0  0  0  0  0
   -9.6208    1.0469    2.3773 H   0  0  0  0  0  0  0  0  0  0  0  0
  -11.4807    0.2366   -1.2408 H   0  0  0  0  0  0  0  0  0  0  0  0
  -11.6016   -1.5203   -1.3166 H   0  0  0  0  0  0  0  0  0  0  0  0
  -11.7153    1.3690    1.1778 H   0  0  0  0  0  0  0  0  0  0  0  0
  -11.9773    0.2884    2.5455 H   0  0  0  0  0  0  0  0  0  0  0  0
  -13.1021   -0.5025    0.4328 H   0  0  0  0  0  0  0  0  0  0  0  0
  -11.9628   -1.6759    1.0933 H   0  0  0  0  0  0  0  0  0  0  0  0
  1 20  2  0  0  0  0
  2 24  2  0  0  0  0
  3 38  2  0  0  0  0
  4 39  2  0  0  0  0
  5 20  1  0  0  0  0
  5 24  1  0  0  0  0
  5 27  1  0  0  0  0
  6 29  1  0  0  0  0
  6 32  1  0  0  0  0
  6 33  1  0  0  0  0
  7 37  1  0  0  0  0
  7 38  1  0  0  0  0
  7 39  1  0  0  0  0
  8 40  1  0  0  0  0
  8 42  1  0  0  0  0
  8 43  1  0  0  0  0
  9 10  1  0  0  0  0
  9 13  1  0  0  0  0
  9 19  1  0  0  0  0
  9 47  1  0  0  0  0
 10 11  1  0  0  0  0
 10 14  2  0  0  0  0
 11 12  1  0  0  0  0
 11 17  2  0  0  0  0
 12 20  1  0  0  0  0
 12 21  1  0  0  0  0
 12 48  1  0  0  0  0
 13 15  2  0  0  0  0
 13 28  1  0  0  0  0
 14 16  1  0  0  0  0
 14 22  1  0  0  0  0
 15 16  1  0  0  0  0
 15 18  1  0  0  0  0
 16 30  2  0  0  0  0
 17 23  1  0  0  0  0
 17 24  1  0  0  0  0
 18 25  2  0  0  0  0
 18 26  1  0  0  0  0
 19 23  2  0  0  0  0
 19 49  1  0  0  0  0
 21 22  2  0  0  0  0
 21 50  1  0  0  0  0
 22 51  1  0  0  0  0
 23 52  1  0  0  0  0
 25 31  1  0  0  0  0
 25 38  1  0  0  0  0
 26 34  2  0  0  0  0
 26 39  1  0  0  0  0
 27 29  1  0  0  0  0
 27 53  1  0  0  0  0
 27 54  1  0  0  0  0
 28 31  2  0  0  0  0
 28 55  1  0  0  0  0
 29 56  1  0  0  0  0
 29 57  1  0  0  0  0
 30 34  1  0  0  0  0
 30 58  1  0  0  0  0
 31 59  1  0  0  0  0
 32 35  1  0  0  0  0
 32 60  1  0  0  0  0
 32 61  1  0  0  0  0
 33 36  1  0  0  0  0
 33 62  1  0  0  0  0
 33 63  1  0  0  0  0
 34 64  1  0  0  0  0
 35 41  1  0  0  0  0
 35 65  1  0  0  0  0
 35 66  1  0  0  0  0
 36 41  1  0  0  0  0
 36 67  1  0  0  0  0
 36 68  1  0  0  0  0
 37 40  1  0  0  0  0
 37 69  1  0  0  0  0
 37 70  1  0  0  0  0
 40 71  1  0  0  0  0
 40 72  1  0  0  0  0
 41 73  1  0  0  0  0
 41 74  1  0  0  0  0
 42 44  1  0  0  0  0
 42 75  1  0  0  0  0
 42 76  1  0  0  0  0
 43 45  1  0  0  0  0
 43 77  1  0  0  0  0
 43 78  1  0  0  0  0
 44 46  1  0  0  0  0
 44 79  1  0  0  0  0
 44 80  1  0  0  0  0
 45 46  1  0  0  0  0
 45 81  1  0  0  0  0
 45 82  1  0  0  0  0
 46 83  1  0  0  0  0
 46 84  1  0  0  0  0
M  END
> <PUBCHEM_COMPOUND_CID>
4833

> <PUBCHEM_CONFORMER_RMSD>
1.2

> <PUBCHEM_CONFORMER_DIVERSEORDER>
1
14
12
6
11
13
10
2
9
8
7
5
4
3

> <PUBCHEM_MMFF94_PARTIAL_CHARGES>
46
1 -0.57
10 -0.14
11 -0.14
12 0.34
13 -0.14
14 -0.03
16 0.03
17 0.01
19 -0.29
2 -0.57
20 0.57
21 -0.29
22 -0.15
23 -0.15
24 0.62
25 0.09
26 0.09
27 0.3
28 -0.15
29 0.27
3 -0.57
30 -0.15
31 -0.15
32 0.27
33 0.27
34 -0.15
37 0.3
38 0.54
39 0.54
4 -0.57
40 0.27
42 0.27
43 0.27
49 0.15
5 -0.42
50 0.15
51 0.15
52 0.15
55 0.15
58 0.15
59 0.15
6 -0.81
64 0.15
7 -0.42
8 -0.81
9 0.42

> <PUBCHEM_EFFECTIVE_ROTOR_COUNT>
8.8

> <PUBCHEM_PHARMACOPHORE_FEATURES>
15
1 1 acceptor
1 2 acceptor
1 3 acceptor
1 4 acceptor
1 6 cation
1 8 cation
6 10 11 12 14 21 22 rings
6 13 15 18 25 28 31 rings
6 15 16 18 26 30 34 rings
6 5 11 12 17 20 24 rings
6 6 32 33 35 36 41 rings
6 7 18 25 26 38 39 rings
6 8 42 43 44 45 46 rings
6 9 10 11 17 19 23 rings
6 9 10 13 14 15 16 rings

> <PUBCHEM_HEAVY_ATOM_COUNT>
46

> <PUBCHEM_ATOM_DEF_STEREO_COUNT>
0

> <PUBCHEM_ATOM_UDEF_STEREO_COUNT>
2

> <PUBCHEM_BOND_DEF_STEREO_COUNT>
0

> <PUBCHEM_BOND_UDEF_STEREO_COUNT>
0

> <PUBCHEM_ISOTOPIC_ATOM_COUNT>
0

> <PUBCHEM_COMPONENT_COUNT>
1

> <PUBCHEM_CACTVS_TAUTO_COUNT>
1

> <PUBCHEM_CONFORMER_ID>
000012E100000001

> <PUBCHEM_MMFF94_ENERGY>
107.3768

> <PUBCHEM_FEATURE_SELFOVERLAP>
76.357

> <PUBCHEM_SHAPE_FINGERPRINT>
10580692 12 18410293626866237446
12013929 2 8646771092560838476
12013929 94 18408601453803826737
12664476 115 18411140229344794985
12741549 16 15123509207125074430
13947947 74 18408325488236409441
15247644 1 15769774667041215387
15274700 256 17458344143340310857
15347591 1 18054230101458903999
15890870 6 18412826888861876614
16067689 302 18335136544363756014
16087824 20 18410011048399585908
16728433 110 18342459226926488836
20501277 279 18333731316567588331
22082593 10 18340207487257520323
24771293 8 18336543915479660876
3092352 35 16988844973013294002
335352 9 18410295800135565902
335507 130 18411419514009848661
5028188 123 16877949308911057575
9663363 56 18410575080373386379

> <PUBCHEM_SHAPE_MULTIPOLES>
903.26
44.17
2.53
0.99
2.27
0.01
0.29
-0.63
11.16
-0.07
-0.34
-0.37
0
-1.3

> <PUBCHEM_SHAPE_SELFOVERLAP>
2028.735

> <PUBCHEM_SHAPE_VOLUME>
471

> <PUBCHEM_COORDINATE_TYPE>
2
5
10

$$$$

