7117
  -OEChem-06261201472D

 23 24  0     0  0  0  0  0  0999 V2000
    3.4030   -0.5843    0.0000 S   0  0  0  0  0  0  0  0  0  0  0  0
    2.5369   -1.0843    0.0000 O   0  0  0  0  0  0  0  0  0  0  0  0
    8.6651    1.4398    0.0000 O   0  0  0  0  0  0  0  0  0  0  0  0
    2.9030    0.2817    0.0000 O   0  0  0  0  0  0  0  0  0  0  0  0
    3.9030   -1.4503    0.0000 O   0  0  0  0  0  0  0  0  0  0  0  0
    6.0010   -0.0843    0.0000 C   0  0  0  0  0  0  0  0  0  0  0  0
    6.0010    0.9157    0.0000 C   0  0  0  0  0  0  0  0  0  0  0  0
    4.2690   -0.0843    0.0000 C   0  0  0  0  0  0  0  0  0  0  0  0
    5.1350   -0.5843    0.0000 C   0  0  0  0  0  0  0  0  0  0  0  0
    5.1350    1.4157    0.0000 C   0  0  0  0  0  0  0  0  0  0  0  0
    4.2690    0.9157    0.0000 C   0  0  0  0  0  0  0  0  0  0  0  0
    6.8950   -0.6190    0.0000 C   0  0  0  0  0  0  0  0  0  0  0  0
    6.8950    1.4503    0.0000 C   0  0  0  0  0  0  0  0  0  0  0  0
    7.8010    0.9365    0.0000 C   0  0  0  0  0  0  0  0  0  0  0  0
    7.8010   -0.1051    0.0000 C   0  0  0  0  0  0  0  0  0  0  0  0
    5.1350   -1.2043    0.0000 H   0  0  0  0  0  0  0  0  0  0  0  0
    5.1350    2.0357    0.0000 H   0  0  0  0  0  0  0  0  0  0  0  0
    3.7320    1.2257    0.0000 H   0  0  0  0  0  0  0  0  0  0  0  0
    6.8878   -1.2389    0.0000 H   0  0  0  0  0  0  0  0  0  0  0  0
    6.8878    2.0703    0.0000 H   0  0  0  0  0  0  0  0  0  0  0  0
    8.3368   -0.4172    0.0000 H   0  0  0  0  0  0  0  0  0  0  0  0
    2.0000   -0.7743    0.0000 H   0  0  0  0  0  0  0  0  0  0  0  0
    9.2033    1.1319    0.0000 H   0  0  0  0  0  0  0  0  0  0  0  0
  1  2  1  0  0  0  0
  1  4  2  0  0  0  0
  1  5  2  0  0  0  0
  1  8  1  0  0  0  0
  2 22  1  0  0  0  0
  3 14  1  0  0  0  0
  3 23  1  0  0  0  0
  6  7  2  0  0  0  0
  6  9  1  0  0  0  0
  6 12  1  0  0  0  0
  7 10  1  0  0  0  0
  7 13  1  0  0  0  0
  8  9  2  0  0  0  0
  8 11  1  0  0  0  0
  9 16  1  0  0  0  0
 10 11  2  0  0  0  0
 10 17  1  0  0  0  0
 11 18  1  0  0  0  0
 12 15  2  0  0  0  0
 12 19  1  0  0  0  0
 13 14  2  0  0  0  0
 13 20  1  0  0  0  0
 14 15  1  0  0  0  0
 15 21  1  0  0  0  0
M  END
> <PUBCHEM_COMPOUND_CID>
7117

> <PUBCHEM_COMPOUND_CANONICALIZED>
1

> <PUBCHEM_CACTVS_COMPLEXITY>
319

> <PUBCHEM_CACTVS_HBOND_ACCEPTOR>
4

> <PUBCHEM_CACTVS_HBOND_DONOR>
2

> <PUBCHEM_CACTVS_ROTATABLE_BOND>
1

> <PUBCHEM_CACTVS_SUBSKEYS>
AAADccBwOABAAAAAAAAAAAAAAAAAAAAAAAAwYAAAAAAAAADBUAAAGgQACAAADASA2AAwB8AAAoKAAiBCAHBCAEAgIAAIiBgGCIgIJiKCERKAcAAkwBEImAeAwLAOsAABgAAQAABgAAMAACAAAAAAAAAAAA==

> <PUBCHEM_IUPAC_OPENEYE_NAME>
6-hydroxynaphthalene-2-sulfonic acid

> <PUBCHEM_IUPAC_CAS_NAME>
6-hydroxy-2-naphthalenesulfonic acid

> <PUBCHEM_IUPAC_NAME>
6-hydroxynaphthalene-2-sulfonic acid

> <PUBCHEM_IUPAC_SYSTEMATIC_NAME>
6-oxidanylnaphthalene-2-sulfonic acid

> <PUBCHEM_IUPAC_TRADITIONAL_NAME>
6-hydroxynaphthalene-2-sulfonic acid

> <PUBCHEM_IUPAC_INCHI>
InChI=1S/C10H8O4S/c11-9-3-1-8-6-10(15(12,13)14)4-2-7(8)5-9/h1-6,11H,(H,12,13,14)

> <PUBCHEM_IUPAC_INCHIKEY>
VVPHSMHEYVOVLH-UHFFFAOYSA-N

> <PUBCHEM_XLOGP3>
0.3

> <PUBCHEM_EXACT_MASS>
224.01433

> <PUBCHEM_MOLECULAR_FORMULA>
C10H8O4S

> <PUBCHEM_MOLECULAR_WEIGHT>
224.23312

> <PUBCHEM_OPENEYE_CAN_SMILES>
C1=CC2=C(C=CC(=C2)S(=O)(=O)O)C=C1O

> <PUBCHEM_OPENEYE_ISO_SMILES>
C1=CC2=C(C=CC(=C2)S(=O)(=O)O)C=C1O

> <PUBCHEM_CACTVS_TPSA>
83

> <PUBCHEM_MONOISOTOPIC_WEIGHT>
224.01433

> <PUBCHEM_TOTAL_CHARGE>
0

> <PUBCHEM_HEAVY_ATOM_COUNT>
15

> <PUBCHEM_ATOM_DEF_STEREO_COUNT>
0

> <PUBCHEM_ATOM_UDEF_STEREO_COUNT>
0

> <PUBCHEM_BOND_DEF_STEREO_COUNT>
0

> <PUBCHEM_BOND_UDEF_STEREO_COUNT>
0

> <PUBCHEM_ISOTOPIC_ATOM_COUNT>
0

> <PUBCHEM_COMPONENT_COUNT>
1

> <PUBCHEM_CACTVS_TAUTO_COUNT>
3

> <PUBCHEM_COORDINATE_TYPE>
1
5
255

> <PUBCHEM_BONDANNOTATIONS>
10  11  8
12  15  8
13  14  8
14  15  8
6  12  8
6  7  8
6  9  8
7  10  8
7  13  8
8  11  8
8  9  8

$$$$

