17395678
  -OEChem-06241222512D

 37 39  0     0  0  0  0  0  0999 V2000
    4.2493   -4.6746    0.0000 Cl  0  0  0  0  0  0  0  0  0  0  0  0
    2.0000    3.9314    0.0000 S   0  0  0  0  0  0  0  0  0  0  0  0
    4.2493   -0.6746    0.0000 O   0  0  0  0  0  0  0  0  0  0  0  0
    4.2493    1.3254    0.0000 O   0  0  0  0  0  0  0  0  0  0  0  0
    5.1724    2.9132    0.0000 N   0  0  0  0  0  0  0  0  0  0  0  0
    5.9814    1.3254    0.0000 N   0  0  0  0  0  0  0  0  0  0  0  0
    5.4814    3.8643    0.0000 N   0  0  0  0  0  0  0  0  0  0  0  0
    4.2213    2.6042    0.0000 C   0  0  0  0  0  0  0  0  0  0  0  0
    5.9814    2.3254    0.0000 C   0  0  0  0  0  0  0  0  0  0  0  0
    3.4782    3.2733    0.0000 C   0  0  0  0  0  0  0  0  0  0  0  0
    6.7904    2.9132    0.0000 C   0  0  0  0  0  0  0  0  0  0  0  0
    6.4814    3.8643    0.0000 C   0  0  0  0  0  0  0  0  0  0  0  0
    3.5827    4.2678    0.0000 C   0  0  0  0  0  0  0  0  0  0  0  0
    2.5000    3.0654    0.0000 C   0  0  0  0  0  0  0  0  0  0  0  0
    5.1153    0.8254    0.0000 C   0  0  0  0  0  0  0  0  0  0  0  0
    5.1153   -0.1746    0.0000 C   0  0  0  0  0  0  0  0  0  0  0  0
    2.6691    4.6746    0.0000 C   0  0  0  0  0  0  0  0  0  0  0  0
    4.2493   -1.6746    0.0000 C   0  0  0  0  0  0  0  0  0  0  0  0
    3.3833   -2.1746    0.0000 C   0  0  0  0  0  0  0  0  0  0  0  0
    5.1153   -2.1746    0.0000 C   0  0  0  0  0  0  0  0  0  0  0  0
    3.3833   -3.1746    0.0000 C   0  0  0  0  0  0  0  0  0  0  0  0
    5.1153   -3.1746    0.0000 C   0  0  0  0  0  0  0  0  0  0  0  0
    4.2493   -3.6746    0.0000 C   0  0  0  0  0  0  0  0  0  0  0  0
    3.7327    2.2225    0.0000 H   0  0  0  0  0  0  0  0  0  0  0  0
    4.5124    2.0568    0.0000 H   0  0  0  0  0  0  0  0  0  0  0  0
    7.3800    2.7216    0.0000 H   0  0  0  0  0  0  0  0  0  0  0  0
    6.5183    1.0154    0.0000 H   0  0  0  0  0  0  0  0  0  0  0  0
    6.8458    4.3658    0.0000 H   0  0  0  0  0  0  0  0  0  0  0  0
    4.1196    4.5778    0.0000 H   0  0  0  0  0  0  0  0  0  0  0  0
    2.2478    2.4990    0.0000 H   0  0  0  0  0  0  0  0  0  0  0  0
    5.3274   -0.7572    0.0000 H   0  0  0  0  0  0  0  0  0  0  0  0
    5.7259   -0.0669    0.0000 H   0  0  0  0  0  0  0  0  0  0  0  0
    2.5402    5.2810    0.0000 H   0  0  0  0  0  0  0  0  0  0  0  0
    2.8464   -1.8646    0.0000 H   0  0  0  0  0  0  0  0  0  0  0  0
    5.6523   -1.8646    0.0000 H   0  0  0  0  0  0  0  0  0  0  0  0
    2.8464   -3.4846    0.0000 H   0  0  0  0  0  0  0  0  0  0  0  0
    5.6523   -3.4846    0.0000 H   0  0  0  0  0  0  0  0  0  0  0  0
  1 23  1  0  0  0  0
  2 14  1  0  0  0  0
  2 17  1  0  0  0  0
  3 16  1  0  0  0  0
  3 18  1  0  0  0  0
  4 15  2  0  0  0  0
  5  7  1  0  0  0  0
  5  8  1  0  0  0  0
  5  9  1  0  0  0  0
  6  9  1  0  0  0  0
  6 15  1  0  0  0  0
  6 27  1  0  0  0  0
  7 12  2  0  0  0  0
  8 10  1  0  0  0  0
  8 24  1  0  0  0  0
  8 25  1  0  0  0  0
  9 11  2  0  0  0  0
 10 13  1  0  0  0  0
 10 14  2  0  0  0  0
 11 12  1  0  0  0  0
 11 26  1  0  0  0  0
 12 28  1  0  0  0  0
 13 17  2  0  0  0  0
 13 29  1  0  0  0  0
 14 30  1  0  0  0  0
 15 16  1  0  0  0  0
 16 31  1  0  0  0  0
 16 32  1  0  0  0  0
 17 33  1  0  0  0  0
 18 19  2  0  0  0  0
 18 20  1  0  0  0  0
 19 21  1  0  0  0  0
 19 34  1  0  0  0  0
 20 22  2  0  0  0  0
 20 35  1  0  0  0  0
 21 23  2  0  0  0  0
 21 36  1  0  0  0  0
 22 23  1  0  0  0  0
 22 37  1  0  0  0  0
M  END
> <PUBCHEM_COMPOUND_CID>
17395678

> <PUBCHEM_COMPOUND_CANONICALIZED>
1

> <PUBCHEM_CACTVS_COMPLEXITY>
394

> <PUBCHEM_CACTVS_HBOND_ACCEPTOR>
4

> <PUBCHEM_CACTVS_HBOND_DONOR>
1

> <PUBCHEM_CACTVS_ROTATABLE_BOND>
6

> <PUBCHEM_CACTVS_SUBSKEYS>
AAADccB7MABEAAAAAAAAAAAAAAAAAWJAAAAwAAAAAAAAAAAB8AAAHgYYAAAADAbl2ia9t5LIBAiuAjN3dAKTDIMhrxBd2Dh+bpiOJqLl+1+HvCj83RP4qAeAQAAIACAAAAAAAAAAQAAAAAAAAAAAAAAAAA==

> <PUBCHEM_IUPAC_OPENEYE_NAME>
2-(4-chlorophenoxy)-N-[2-(3-thienylmethyl)pyrazol-3-yl]acetamide

> <PUBCHEM_IUPAC_CAS_NAME>
2-(4-chlorophenoxy)-N-[2-(3-thiophenylmethyl)-3-pyrazolyl]acetamide

> <PUBCHEM_IUPAC_NAME>
2-(4-chlorophenoxy)-N-[2-(thiophen-3-ylmethyl)pyrazol-3-yl]acetamide

> <PUBCHEM_IUPAC_SYSTEMATIC_NAME>
2-(4-chloranylphenoxy)-N-[2-(thiophen-3-ylmethyl)pyrazol-3-yl]ethanamide

> <PUBCHEM_IUPAC_TRADITIONAL_NAME>
2-(4-chlorophenoxy)-N-[2-(3-thenyl)pyrazol-3-yl]acetamide

> <PUBCHEM_IUPAC_INCHI>
InChI=1S/C16H14ClN3O2S/c17-13-1-3-14(4-2-13)22-10-16(21)19-15-5-7-18-20(15)9-12-6-8-23-11-12/h1-8,11H,9-10H2,(H,19,21)

> <PUBCHEM_IUPAC_INCHIKEY>
ZLQTYXSUMSJBBS-UHFFFAOYSA-N

> <PUBCHEM_XLOGP3_AA>
3.3

> <PUBCHEM_EXACT_MASS>
347.049525

> <PUBCHEM_MOLECULAR_FORMULA>
C16H14ClN3O2S

> <PUBCHEM_MOLECULAR_WEIGHT>
347.81926

> <PUBCHEM_OPENEYE_CAN_SMILES>
C1=CC(=CC=C1OCC(=O)NC2=CC=NN2CC3=CSC=C3)Cl

> <PUBCHEM_OPENEYE_ISO_SMILES>
C1=CC(=CC=C1OCC(=O)NC2=CC=NN2CC3=CSC=C3)Cl

> <PUBCHEM_CACTVS_TPSA>
84.4

> <PUBCHEM_MONOISOTOPIC_WEIGHT>
347.049525

> <PUBCHEM_TOTAL_CHARGE>
0

> <PUBCHEM_HEAVY_ATOM_COUNT>
23

> <PUBCHEM_ATOM_DEF_STEREO_COUNT>
0

> <PUBCHEM_ATOM_UDEF_STEREO_COUNT>
0

> <PUBCHEM_BOND_DEF_STEREO_COUNT>
0

> <PUBCHEM_BOND_UDEF_STEREO_COUNT>
0

> <PUBCHEM_ISOTOPIC_ATOM_COUNT>
0

> <PUBCHEM_COMPONENT_COUNT>
1

> <PUBCHEM_CACTVS_TAUTO_COUNT>
7

> <PUBCHEM_COORDINATE_TYPE>
1
5
255

> <PUBCHEM_BONDANNOTATIONS>
10  13  8
10  14  8
11  12  8
13  17  8
18  19  8
18  20  8
19  21  8
2  14  8
2  17  8
20  22  8
21  23  8
22  23  8
5  7  8
5  9  8
7  12  8
9  11  8

$$$$

