8866
  -OEChem-06261203112D

 18 16  0     1  0  0  0  0  0999 V2000
    5.7331    1.6200    0.0000 K   0  3  0  0  0  0  0  0  0  0  0  0
    4.8671    2.1200    0.0000 S   0  5  0  0  0  0  0  0  0  0  0  0
    4.0010    0.6200    0.0000 S   0  0  0  0  0  0  0  0  0  0  0  0
    3.1350    2.1200    0.0000 O   0  0  0  0  0  0  0  0  0  0  0  0
    2.2690    1.6200    0.0000 C   0  0  3  0  0  0  0  0  0  0  0  0
    1.4030    2.1200    0.0000 C   0  0  0  0  0  0  0  0  0  0  0  0
    2.2690    0.6200    0.0000 C   0  0  0  0  0  0  0  0  0  0  0  0
    0.5369    1.6200    0.0000 C   0  0  0  0  0  0  0  0  0  0  0  0
    4.0010    1.6200    0.0000 C   0  0  0  0  0  0  0  0  0  0  0  0
    2.2690    2.2400    0.0000 H   0  0  0  0  0  0  0  0  0  0  0  0
    1.8015    2.5950    0.0000 H   0  0  0  0  0  0  0  0  0  0  0  0
    1.0044    2.5950    0.0000 H   0  0  0  0  0  0  0  0  0  0  0  0
    1.6490    0.6200    0.0000 H   0  0  0  0  0  0  0  0  0  0  0  0
    2.2690    0.0000    0.0000 H   0  0  0  0  0  0  0  0  0  0  0  0
    2.8890    0.6200    0.0000 H   0  0  0  0  0  0  0  0  0  0  0  0
    0.2269    2.1569    0.0000 H   0  0  0  0  0  0  0  0  0  0  0  0
    0.0000    1.3100    0.0000 H   0  0  0  0  0  0  0  0  0  0  0  0
    0.8469    1.0831    0.0000 H   0  0  0  0  0  0  0  0  0  0  0  0
  2  9  1  0  0  0  0
  3  9  2  0  0  0  0
  4  5  1  0  0  0  0
  4  9  1  0  0  0  0
  5  6  1  0  0  0  0
  5  7  1  0  0  0  0
  5 10  1  0  0  0  0
  6  8  1  0  0  0  0
  6 11  1  0  0  0  0
  6 12  1  0  0  0  0
  7 13  1  0  0  0  0
  7 14  1  0  0  0  0
  7 15  1  0  0  0  0
  8 16  1  0  0  0  0
  8 17  1  0  0  0  0
  8 18  1  0  0  0  0
M  CHG  2   1   1   2  -1
M  END
> <PUBCHEM_COMPOUND_CID>
8866

> <PUBCHEM_COMPOUND_CANONICALIZED>
1

> <PUBCHEM_CACTVS_COMPLEXITY>
77

> <PUBCHEM_CACTVS_HBOND_ACCEPTOR>
3

> <PUBCHEM_CACTVS_HBOND_DONOR>
0

> <PUBCHEM_CACTVS_ROTATABLE_BOND>
2

> <PUBCHEM_CACTVS_SUBSKEYS>
AAADccBgIABgQAAAAAAAAAAAAAAAAAAAAAAAAAAAAAAAAAAAAAAAGgQAAAAACBSggAICAAAABAAEAAAAAAAAAAAAAAAAAAAAAAAAAAAAAAAAAAAAAAAAAAAAAAAAAAAAAAAAAAAAAAAAAAAAAAAAAAAAAA==

> <PUBCHEM_IUPAC_OPENEYE_NAME>
potassium sec-butoxymethanedithioate

> <PUBCHEM_IUPAC_CAS_NAME>
potassium butan-2-yloxymethanedithioate

> <PUBCHEM_IUPAC_NAME>
potassium butan-2-yloxymethanedithioate

> <PUBCHEM_IUPAC_SYSTEMATIC_NAME>
potassium butan-2-yloxymethanedithioate

> <PUBCHEM_IUPAC_TRADITIONAL_NAME>
potassium sec-butoxymethanedithioate

> <PUBCHEM_IUPAC_INCHI>
InChI=1S/C5H10OS2.K/c1-3-4(2)6-5(7)8;/h4H,3H2,1-2H3,(H,7,8);/q;+1/p-1

> <PUBCHEM_IUPAC_INCHIKEY>
UCEWNBKJSLZBOB-UHFFFAOYSA-M

> <PUBCHEM_EXACT_MASS>
187.973189

> <PUBCHEM_MOLECULAR_FORMULA>
C5H9KOS2

> <PUBCHEM_MOLECULAR_WEIGHT>
188.35266

> <PUBCHEM_OPENEYE_CAN_SMILES>
CCC(C)OC(=S)[S-].[K+]

> <PUBCHEM_OPENEYE_ISO_SMILES>
CCC(C)OC(=S)[S-].[K+]

> <PUBCHEM_CACTVS_TPSA>
42.3

> <PUBCHEM_MONOISOTOPIC_WEIGHT>
187.973189

> <PUBCHEM_TOTAL_CHARGE>
0

> <PUBCHEM_HEAVY_ATOM_COUNT>
9

> <PUBCHEM_ATOM_DEF_STEREO_COUNT>
0

> <PUBCHEM_ATOM_UDEF_STEREO_COUNT>
1

> <PUBCHEM_BOND_DEF_STEREO_COUNT>
0

> <PUBCHEM_BOND_UDEF_STEREO_COUNT>
0

> <PUBCHEM_ISOTOPIC_ATOM_COUNT>
0

> <PUBCHEM_COMPONENT_COUNT>
2

> <PUBCHEM_CACTVS_TAUTO_COUNT>
1

> <PUBCHEM_COORDINATE_TYPE>
1
5
255

> <PUBCHEM_BONDANNOTATIONS>
5  7  3

$$$$

