7350
  -OEChem-06261202013D

 30 29  0     1  0  0  0  0  0999 V2000
    1.9353   -0.4918    0.2089 N   0  0  0  0  0  0  0  0  0  0  0  0
   -2.3791   -0.3874   -0.0936 N   0  0  0  0  0  0  0  0  0  0  0  0
    1.2929    0.6725   -0.4022 C   0  0  1  0  0  0  0  0  0  0  0  0
   -0.1531    0.3478   -0.8154 C   0  0  0  0  0  0  0  0  0  0  0  0
   -1.0235   -0.0992    0.3625 C   0  0  0  0  0  0  0  0  0  0  0  0
    1.3220    1.8464    0.5762 C   0  0  0  0  0  0  0  0  0  0  0  0
    3.3256   -0.1890    0.5455 C   0  0  0  0  0  0  0  0  0  0  0  0
    1.8650   -1.6432   -0.6892 C   0  0  0  0  0  0  0  0  0  0  0  0
   -2.9767    0.7973   -0.7114 C   0  0  0  0  0  0  0  0  0  0  0  0
   -3.2082   -0.8534    1.0189 C   0  0  0  0  0  0  0  0  0  0  0  0
    1.8307    0.9766   -1.3115 H   0  0  0  0  0  0  0  0  0  0  0  0
   -0.5448    1.2735   -1.2544 H   0  0  0  0  0  0  0  0  0  0  0  0
   -0.1864   -0.3878   -1.6282 H   0  0  0  0  0  0  0  0  0  0  0  0
   -0.6027   -1.0047    0.8138 H   0  0  0  0  0  0  0  0  0  0  0  0
   -1.0427    0.6708    1.1431 H   0  0  0  0  0  0  0  0  0  0  0  0
    1.0217    1.5571    1.5895 H   0  0  0  0  0  0  0  0  0  0  0  0
    0.6464    2.6444    0.2469 H   0  0  0  0  0  0  0  0  0  0  0  0
    2.3183    2.2979    0.6368 H   0  0  0  0  0  0  0  0  0  0  0  0
    3.4029    0.5347    1.3627 H   0  0  0  0  0  0  0  0  0  0  0  0
    3.8933    0.1818   -0.3159 H   0  0  0  0  0  0  0  0  0  0  0  0
    3.8332   -1.0879    0.9161 H   0  0  0  0  0  0  0  0  0  0  0  0
    2.4589   -2.4742   -0.2887 H   0  0  0  0  0  0  0  0  0  0  0  0
    2.2508   -1.4169   -1.6901 H   0  0  0  0  0  0  0  0  0  0  0  0
    0.8525   -2.0478   -0.7774 H   0  0  0  0  0  0  0  0  0  0  0  0
   -2.5541    1.0007   -1.7000 H   0  0  0  0  0  0  0  0  0  0  0  0
   -2.8853    1.6914   -0.0838 H   0  0  0  0  0  0  0  0  0  0  0  0
   -4.0457    0.6322   -0.8956 H   0  0  0  0  0  0  0  0  0  0  0  0
   -2.7795   -1.7567    1.4672 H   0  0  0  0  0  0  0  0  0  0  0  0
   -4.2092   -1.1263    0.6661 H   0  0  0  0  0  0  0  0  0  0  0  0
   -3.3131   -0.0948    1.8032 H   0  0  0  0  0  0  0  0  0  0  0  0
  1  3  1  0  0  0  0
  1  7  1  0  0  0  0
  1  8  1  0  0  0  0
  2  5  1  0  0  0  0
  2  9  1  0  0  0  0
  2 10  1  0  0  0  0
  3  4  1  0  0  0  0
  3  6  1  0  0  0  0
  3 11  1  0  0  0  0
  4  5  1  0  0  0  0
  4 12  1  0  0  0  0
  4 13  1  0  0  0  0
  5 14  1  0  0  0  0
  5 15  1  0  0  0  0
  6 16  1  0  0  0  0
  6 17  1  0  0  0  0
  6 18  1  0  0  0  0
  7 19  1  0  0  0  0
  7 20  1  0  0  0  0
  7 21  1  0  0  0  0
  8 22  1  0  0  0  0
  8 23  1  0  0  0  0
  8 24  1  0  0  0  0
  9 25  1  0  0  0  0
  9 26  1  0  0  0  0
  9 27  1  0  0  0  0
 10 28  1  0  0  0  0
 10 29  1  0  0  0  0
 10 30  1  0  0  0  0
M  END
> <PUBCHEM_COMPOUND_CID>
7350

> <PUBCHEM_CONFORMER_RMSD>
0.6

> <PUBCHEM_CONFORMER_DIVERSEORDER>
29
25
15
34
5
39
33
40
14
2
42
19
3
38
21
9
13
1
30
18
7
20
36
12
24
4
27
16
35
37
23
22
28
10
17
31
8
32
6
26
11
41

> <PUBCHEM_MMFF94_PARTIAL_CHARGES>
8
1 -0.81
10 0.27
2 -0.81
3 0.27
5 0.27
7 0.27
8 0.27
9 0.27

> <PUBCHEM_EFFECTIVE_ROTOR_COUNT>
4

> <PUBCHEM_PHARMACOPHORE_FEATURES>
2
1 1 cation
1 2 cation

> <PUBCHEM_HEAVY_ATOM_COUNT>
10

> <PUBCHEM_ATOM_DEF_STEREO_COUNT>
0

> <PUBCHEM_ATOM_UDEF_STEREO_COUNT>
1

> <PUBCHEM_BOND_DEF_STEREO_COUNT>
0

> <PUBCHEM_BOND_UDEF_STEREO_COUNT>
0

> <PUBCHEM_ISOTOPIC_ATOM_COUNT>
0

> <PUBCHEM_COMPONENT_COUNT>
1

> <PUBCHEM_CACTVS_TAUTO_COUNT>
1

> <PUBCHEM_CONFORMER_ID>
00001CB60000001D

> <PUBCHEM_MMFF94_ENERGY>
22.5296

> <PUBCHEM_FEATURE_SELFOVERLAP>
10.149

> <PUBCHEM_SHAPE_FINGERPRINT>
10219947 1 18114187440793767590
11062470 55 18410300236842109012
124424 183 18271821158265697293
12897270 3 10087920770096165207
12932741 1 18201726141312987733
12932764 1 18263075540036742701
18186145 218 11887660802075074070
19973954 147 18342174445246836461
20201158 50 18340492252179367991
20279233 1 18341896315901650959
20281407 28 17989205988239650250
20653091 64 18343292656993225832
20711985 344 17762050343447811220
20715346 28 18272373040441811741
20871998 22 18043520819222937566
21293036 1 10231749041946454754
23552423 10 17346594149701172559
29004967 10 18335986449555333130
3248919 1 18342175578980617357
5084963 1 17989200426362496873

> <PUBCHEM_SHAPE_MULTIPOLES>
195.83
5.36
1.48
0.98
1.99
0.17
-0.02
-0.98
-0.93
-0.64
-0.02
0.26
-0.04
0.75

> <PUBCHEM_SHAPE_SELFOVERLAP>
353.703

> <PUBCHEM_SHAPE_VOLUME>
128.4

> <PUBCHEM_COORDINATE_TYPE>
2
5
10

$$$$

