17395672
  -OEChem-06241222513D

 47 50  0     1  0  0  0  0  0999 V2000
   -4.3896    2.0114   -0.2973 S   0  0  0  0  0  0  0  0  0  0  0  0
    0.6001   -0.6827   -1.9061 O   0  0  0  0  0  0  0  0  0  0  0  0
   -0.9011   -0.0919   -0.2427 N   0  0  0  0  0  0  0  0  0  0  0  0
   -2.0885   -0.1677   -1.0669 C   0  0  2  0  0  0  0  0  0  0  0  0
   -2.2933    1.1283   -1.8569 C   0  0  0  0  0  0  0  0  0  0  0  0
   -3.2806   -0.5931   -0.2393 C   0  0  0  0  0  0  0  0  0  0  0  0
   -2.7337    2.2899   -0.9814 C   0  0  0  0  0  0  0  0  0  0  0  0
    1.4535   -0.2097    0.3234 C   0  0  0  0  0  0  0  0  0  0  0  0
   -4.3068    0.2828    0.1559 C   0  0  0  0  0  0  0  0  0  0  0  0
    0.3646   -0.3609   -0.7430 C   0  0  0  0  0  0  0  0  0  0  0  0
   -3.3443   -1.9402    0.1712 C   0  0  0  0  0  0  0  0  0  0  0  0
    1.9428    1.2255    0.4802 C   0  0  0  0  0  0  0  0  0  0  0  0
    2.5881   -1.2081    0.1311 C   0  0  0  0  0  0  0  0  0  0  0  0
   -5.3698   -0.2072    0.9352 C   0  0  0  0  0  0  0  0  0  0  0  0
   -4.4012   -2.4119    0.9476 C   0  0  0  0  0  0  0  0  0  0  0  0
   -5.4153   -1.5440    1.3297 C   0  0  0  0  0  0  0  0  0  0  0  0
    2.4087    1.6725    1.7167 C   0  0  0  0  0  0  0  0  0  0  0  0
    2.5284   -2.4588    0.7462 C   0  0  0  0  0  0  0  0  0  0  0  0
    1.9253    2.0920   -0.6130 C   0  0  0  0  0  0  0  0  0  0  0  0
    3.6864   -0.8722   -0.6606 C   0  0  0  0  0  0  0  0  0  0  0  0
    2.8566    2.9856    1.8603 C   0  0  0  0  0  0  0  0  0  0  0  0
    3.5669   -3.3731    0.5700 C   0  0  0  0  0  0  0  0  0  0  0  0
    2.3734    3.4051   -0.4694 C   0  0  0  0  0  0  0  0  0  0  0  0
    4.7250   -1.7866   -0.8367 C   0  0  0  0  0  0  0  0  0  0  0  0
    2.8392    3.8519    0.7673 C   0  0  0  0  0  0  0  0  0  0  0  0
    4.6651   -3.0370   -0.2215 C   0  0  0  0  0  0  0  0  0  0  0  0
   -1.9151   -0.9521   -1.8170 H   0  0  0  0  0  0  0  0  0  0  0  0
   -3.0342    0.9647   -2.6514 H   0  0  0  0  0  0  0  0  0  0  0  0
   -1.3599    1.4050   -2.3633 H   0  0  0  0  0  0  0  0  0  0  0  0
   -2.0296    2.4557   -0.1592 H   0  0  0  0  0  0  0  0  0  0  0  0
   -2.7657    3.2104   -1.5731 H   0  0  0  0  0  0  0  0  0  0  0  0
   -1.0018    0.2183    0.7198 H   0  0  0  0  0  0  0  0  0  0  0  0
    0.9766   -0.4650    1.2829 H   0  0  0  0  0  0  0  0  0  0  0  0
   -2.5580   -2.6351   -0.1171 H   0  0  0  0  0  0  0  0  0  0  0  0
   -6.1804    0.4489    1.2475 H   0  0  0  0  0  0  0  0  0  0  0  0
   -4.4304   -3.4538    1.2520 H   0  0  0  0  0  0  0  0  0  0  0  0
   -6.2429   -1.9047    1.9331 H   0  0  0  0  0  0  0  0  0  0  0  0
    2.4290    1.0073    2.5759 H   0  0  0  0  0  0  0  0  0  0  0  0
    1.6773   -2.7348    1.3631 H   0  0  0  0  0  0  0  0  0  0  0  0
    1.5812    1.7748   -1.5925 H   0  0  0  0  0  0  0  0  0  0  0  0
    3.7599    0.0825   -1.1708 H   0  0  0  0  0  0  0  0  0  0  0  0
    3.2198    3.3334    2.8230 H   0  0  0  0  0  0  0  0  0  0  0  0
    3.5200   -4.3472    1.0481 H   0  0  0  0  0  0  0  0  0  0  0  0
    2.3625    4.0791   -1.3210 H   0  0  0  0  0  0  0  0  0  0  0  0
    5.5782   -1.5271   -1.4566 H   0  0  0  0  0  0  0  0  0  0  0  0
    3.1888    4.8740    0.8787 H   0  0  0  0  0  0  0  0  0  0  0  0
    5.4731   -3.7495   -0.3598 H   0  0  0  0  0  0  0  0  0  0  0  0
  1  7  1  0  0  0  0
  1  9  1  0  0  0  0
  2 10  2  0  0  0  0
  3  4  1  0  0  0  0
  3 10  1  0  0  0  0
  3 32  1  0  0  0  0
  4  5  1  0  0  0  0
  4  6  1  0  0  0  0
  4 27  1  0  0  0  0
  5  7  1  0  0  0  0
  5 28  1  0  0  0  0
  5 29  1  0  0  0  0
  6  9  1  0  0  0  0
  6 11  2  0  0  0  0
  7 30  1  0  0  0  0
  7 31  1  0  0  0  0
  8 10  1  0  0  0  0
  8 12  1  0  0  0  0
  8 13  1  0  0  0  0
  8 33  1  0  0  0  0
  9 14  2  0  0  0  0
 11 15  1  0  0  0  0
 11 34  1  0  0  0  0
 12 17  2  0  0  0  0
 12 19  1  0  0  0  0
 13 18  2  0  0  0  0
 13 20  1  0  0  0  0
 14 16  1  0  0  0  0
 14 35  1  0  0  0  0
 15 16  2  0  0  0  0
 15 36  1  0  0  0  0
 16 37  1  0  0  0  0
 17 21  1  0  0  0  0
 17 38  1  0  0  0  0
 18 22  1  0  0  0  0
 18 39  1  0  0  0  0
 19 23  2  0  0  0  0
 19 40  1  0  0  0  0
 20 24  2  0  0  0  0
 20 41  1  0  0  0  0
 21 25  2  0  0  0  0
 21 42  1  0  0  0  0
 22 26  2  0  0  0  0
 22 43  1  0  0  0  0
 23 25  1  0  0  0  0
 23 44  1  0  0  0  0
 24 26  1  0  0  0  0
 24 45  1  0  0  0  0
 25 46  1  0  0  0  0
 26 47  1  0  0  0  0
M  END
> <PUBCHEM_COMPOUND_CID>
17395672

> <PUBCHEM_CONFORMER_RMSD>
0.8

> <PUBCHEM_CONFORMER_DIVERSEORDER>
1
28
20
7
18
43
48
19
30
32
22
42
29
40
13
15
34
16
6
10
38
46
21
47
23
31
27
12
14
8
33
17
37
3
5
41
24
26
25
35
44
45
39
11
9
2
36
4

> <PUBCHEM_MMFF94_PARTIAL_CHARGES>
40
1 -0.33
10 0.57
11 -0.15
12 -0.14
13 -0.14
14 -0.15
15 -0.15
16 -0.15
17 -0.15
18 -0.15
19 -0.15
2 -0.57
20 -0.15
21 -0.15
22 -0.15
23 -0.15
24 -0.15
25 -0.15
26 -0.15
3 -0.73
32 0.37
34 0.15
35 0.15
36 0.15
37 0.15
38 0.15
39 0.15
4 0.44
40 0.15
41 0.15
42 0.15
43 0.15
44 0.15
45 0.15
46 0.15
47 0.15
6 -0.14
7 0.23
8 0.35
9 0.1

> <PUBCHEM_EFFECTIVE_ROTOR_COUNT>
5.8

> <PUBCHEM_PHARMACOPHORE_FEATURES>
6
1 2 acceptor
1 3 donor
6 1 4 5 6 7 9 rings
6 12 17 19 21 23 25 rings
6 13 18 20 22 24 26 rings
6 6 9 11 14 15 16 rings

> <PUBCHEM_HEAVY_ATOM_COUNT>
26

> <PUBCHEM_ATOM_DEF_STEREO_COUNT>
0

> <PUBCHEM_ATOM_UDEF_STEREO_COUNT>
1

> <PUBCHEM_BOND_DEF_STEREO_COUNT>
0

> <PUBCHEM_BOND_UDEF_STEREO_COUNT>
0

> <PUBCHEM_ISOTOPIC_ATOM_COUNT>
0

> <PUBCHEM_COMPONENT_COUNT>
1

> <PUBCHEM_CACTVS_TAUTO_COUNT>
2

> <PUBCHEM_CONFORMER_ID>
01096FD800000001

> <PUBCHEM_MMFF94_ENERGY>
68.4696

> <PUBCHEM_FEATURE_SELFOVERLAP>
30.46

> <PUBCHEM_SHAPE_FINGERPRINT>
10074138 170 17399252222840781960
10369192 42 18123756344647024564
11370993 144 18409446995045732025
11405975 8 18408884049281614147
11443803 9 16625160410249231244
11475781 23 17272886189412112975
11552529 35 18189050898633817683
12035758 1 18267604424827766256
12107183 9 18191855924626121657
12293681 4 18048595107955105281
12422481 6 17900583126902000016
12633046 712 18199191861220897695
12633257 1 18187911933409638971
12788726 201 17473276838828161618
12892183 10 18266169544757344947
12988421 55 17392230346312455760
13533116 47 18411135797703826315
13583140 156 18339090366596413335
13673619 4 18200582696238335775
13757389 114 16826416027772005436
13955234 65 18336824170073288472
14251757 5 17909551992872321708
14341114 176 18410287038734552121
14347329 18 16554264303689971269
14866123 147 16608011863639552506
14950920 106 18260813905222807811
14955137 171 18114170982569117838
15295992 7 18189063134821375829
15842332 3 17386868109306509847
17868525 174 18336828705258332433
17913733 40 18043818589152510992
17980427 23 13768796541359578458
1813 80 17895748634098346318
18393751 57 17544206977922831281
18785283 64 18268997497100971032
1979834 28 18055631712111484265
20600515 1 17977939408701789684
20681677 274 18411981364804738425
21033648 29 16952273133325394435
21049683 271 18341884183220316380
21065198 57 18411138039460119747
22849341 161 17676201416370555346
23559900 14 18273497879660505053
2818148 4 18269535260675702468
3117164 225 18337665421371040569
3421961 26 18411417306575830954
350125 39 18411411787242136260
4409770 3 17478336791080847540
44802255 64 8860649280846543578
49207404 50 18269841904355433145
5252454 2 17751646433497528913
6049 1 18272099304779981861
6287921 2 18199467675383180541
6371380 46 17981335791810324685
6442390 28 17907012872789535352
6703917 75 17835502844317668012
6823239 73 18343588455569765776
7495541 125 18412539933659623766
79837 15 17617115615930703618

> <PUBCHEM_SHAPE_MULTIPOLES>
528.07
11.51
4.52
1.49
9.29
1.72
-0.03
-5.93
-2.31
-5.53
-1.16
0.05
0.54
2.53

> <PUBCHEM_SHAPE_SELFOVERLAP>
1135.451

> <PUBCHEM_SHAPE_VOLUME>
290.4

> <PUBCHEM_COORDINATE_TYPE>
2
5
10

$$$$

