17396282
  -OEChem-06241222553D

 43 45  0     1  0  0  0  0  0999 V2000
    0.9571   -3.5687    0.5023 S   0  0  0  0  0  0  0  0  0  0  0  0
   -1.1887    0.9039    0.7677 F   0  0  0  0  0  0  0  0  0  0  0  0
    2.6970    0.6429   -0.4716 O   0  0  0  0  0  0  0  0  0  0  0  0
   -5.4151    2.9274    0.3471 O   0  0  0  0  0  0  0  0  0  0  0  0
    2.7209   -1.6549    0.0385 N   0  0  0  0  0  0  0  0  0  0  0  0
    0.3487   -1.1140   -0.0332 N   0  0  0  0  0  0  0  0  0  0  0  0
   -5.8369    0.7050   -0.3174 N   0  0  0  0  0  0  0  0  0  0  0  0
    5.4680    0.8115   -0.5981 C   0  0  2  0  0  0  0  0  0  0  0  0
    5.2279    1.8804    0.4783 C   0  0  0  0  0  0  0  0  0  0  0  0
    6.5218    2.6904    0.5636 C   0  0  0  0  0  0  0  0  0  0  0  0
    4.7971   -0.5112   -0.2587 C   0  0  0  0  0  0  0  0  0  0  0  0
    6.9628    0.7230   -0.6317 C   0  0  0  0  0  0  0  0  0  0  0  0
    7.5351    1.7524   -0.0001 C   0  0  0  0  0  0  0  0  0  0  0  0
    3.2794   -0.4131   -0.2488 C   0  0  0  0  0  0  0  0  0  0  0  0
    1.3566   -1.9418    0.1301 C   0  0  0  0  0  0  0  0  0  0  0  0
   -0.8322   -1.8075    0.1472 C   0  0  0  0  0  0  0  0  0  0  0  0
   -2.1078   -1.1619    0.0297 C   0  0  0  0  0  0  0  0  0  0  0  0
   -0.7045   -3.1482    0.4441 C   0  0  0  0  0  0  0  0  0  0  0  0
   -2.2434    0.1893    0.3485 C   0  0  0  0  0  0  0  0  0  0  0  0
   -3.2150   -1.8906   -0.4048 C   0  0  0  0  0  0  0  0  0  0  0  0
   -4.5935    0.0831   -0.2016 C   0  0  0  0  0  0  0  0  0  0  0  0
   -3.4862    0.8118    0.2328 C   0  0  0  0  0  0  0  0  0  0  0  0
   -4.4578   -1.2680   -0.5204 C   0  0  0  0  0  0  0  0  0  0  0  0
   -6.1654    2.0399   -0.0456 C   0  0  0  0  0  0  0  0  0  0  0  0
   -7.6259    2.3190   -0.2982 C   0  0  0  0  0  0  0  0  0  0  0  0
    5.1158    1.1735   -1.5728 H   0  0  0  0  0  0  0  0  0  0  0  0
    5.0203    1.4241    1.4554 H   0  0  0  0  0  0  0  0  0  0  0  0
    4.3773    2.5272    0.2379 H   0  0  0  0  0  0  0  0  0  0  0  0
    6.4691    3.6020   -0.0402 H   0  0  0  0  0  0  0  0  0  0  0  0
    6.7491    2.9618    1.5987 H   0  0  0  0  0  0  0  0  0  0  0  0
    5.1272   -0.8774    0.7222 H   0  0  0  0  0  0  0  0  0  0  0  0
    5.0800   -1.2691   -1.0009 H   0  0  0  0  0  0  0  0  0  0  0  0
    7.5124   -0.0524   -1.1463 H   0  0  0  0  0  0  0  0  0  0  0  0
    8.6020    1.9089    0.0654 H   0  0  0  0  0  0  0  0  0  0  0  0
    3.3357   -2.4480    0.2028 H   0  0  0  0  0  0  0  0  0  0  0  0
   -1.4621   -3.8943    0.6403 H   0  0  0  0  0  0  0  0  0  0  0  0
   -3.1466   -2.9398   -0.6802 H   0  0  0  0  0  0  0  0  0  0  0  0
   -3.5131    1.8595    0.4977 H   0  0  0  0  0  0  0  0  0  0  0  0
   -5.3115   -1.8468   -0.8641 H   0  0  0  0  0  0  0  0  0  0  0  0
   -6.5938    0.1057   -0.6401 H   0  0  0  0  0  0  0  0  0  0  0  0
   -7.8526    3.3598   -0.0511 H   0  0  0  0  0  0  0  0  0  0  0  0
   -7.8581    2.1450   -1.3525 H   0  0  0  0  0  0  0  0  0  0  0  0
   -8.2420    1.6647    0.3250 H   0  0  0  0  0  0  0  0  0  0  0  0
  1 15  1  0  0  0  0
  1 18  1  0  0  0  0
  2 19  1  0  0  0  0
  3 14  2  0  0  0  0
  4 24  2  0  0  0  0
  5 14  1  0  0  0  0
  5 15  1  0  0  0  0
  5 35  1  0  0  0  0
  6 15  2  0  0  0  0
  6 16  1  0  0  0  0
  7 21  1  0  0  0  0
  7 24  1  0  0  0  0
  7 40  1  0  0  0  0
  8  9  1  0  0  0  0
  8 11  1  0  0  0  0
  8 12  1  0  0  0  0
  8 26  1  0  0  0  0
  9 10  1  0  0  0  0
  9 27  1  0  0  0  0
  9 28  1  0  0  0  0
 10 13  1  0  0  0  0
 10 29  1  0  0  0  0
 10 30  1  0  0  0  0
 11 14  1  0  0  0  0
 11 31  1  0  0  0  0
 11 32  1  0  0  0  0
 12 13  2  0  0  0  0
 12 33  1  0  0  0  0
 13 34  1  0  0  0  0
 16 17  1  0  0  0  0
 16 18  2  0  0  0  0
 17 19  2  0  0  0  0
 17 20  1  0  0  0  0
 18 36  1  0  0  0  0
 19 22  1  0  0  0  0
 20 23  2  0  0  0  0
 20 37  1  0  0  0  0
 21 22  2  0  0  0  0
 21 23  1  0  0  0  0
 22 38  1  0  0  0  0
 23 39  1  0  0  0  0
 24 25  1  0  0  0  0
 25 41  1  0  0  0  0
 25 42  1  0  0  0  0
 25 43  1  0  0  0  0
M  END
> <PUBCHEM_COMPOUND_CID>
17396282

> <PUBCHEM_CONFORMER_RMSD>
0.8

> <PUBCHEM_CONFORMER_DIVERSEORDER>
1
76
54
29
39
98
20
66
116
48
141
122
31
90
142
117
113
89
145
93
82
50
127
40
42
148
154
147
72
59
75
41
149
43
107
110
139
94
146
152
133
25
64
151
97
15
114
140
78
34
35
3
143
109
108
2
77
136
106
105
111
126
46
22
52
30
45
58
65
83
32
112
86
73
144
63
47
131
16
38
27
37
21
68
101
62
49
60
120
67
80
36
118
95
138
55
100
23
61
11
85
128
84
135
70
71
150
153
102
4
129
6
121
96
134
5
119
28
87
125
44
69
115
18
79
130
57
24
88
124
74
53
81
7
14
91
123
99
132
17
92
26
19
51
104
137
13
56
33
10
8
9
103
12

> <PUBCHEM_MMFF94_PARTIAL_CHARGES>
32
1 -0.08
10 0.14
11 0.06
12 -0.29
13 -0.29
14 0.57
15 0.44
16 0.17
17 0.05
18 -0.11
19 0.19
2 -0.19
20 -0.15
21 0.12
22 -0.15
23 -0.15
24 0.57
25 0.06
3 -0.57
33 0.15
34 0.15
35 0.37
36 0.15
37 0.15
38 0.15
39 0.15
4 -0.57
40 0.37
5 -0.49
6 -0.57
7 -0.55
8 0.14

> <PUBCHEM_EFFECTIVE_ROTOR_COUNT>
7.6

> <PUBCHEM_PHARMACOPHORE_FEATURES>
7
1 3 acceptor
1 4 acceptor
1 5 donor
1 7 donor
5 1 6 15 16 18 rings
5 8 9 10 12 13 rings
6 17 19 20 21 22 23 rings

> <PUBCHEM_HEAVY_ATOM_COUNT>
25

> <PUBCHEM_ATOM_DEF_STEREO_COUNT>
0

> <PUBCHEM_ATOM_UDEF_STEREO_COUNT>
1

> <PUBCHEM_BOND_DEF_STEREO_COUNT>
0

> <PUBCHEM_BOND_UDEF_STEREO_COUNT>
0

> <PUBCHEM_ISOTOPIC_ATOM_COUNT>
0

> <PUBCHEM_COMPONENT_COUNT>
1

> <PUBCHEM_CACTVS_TAUTO_COUNT>
6

> <PUBCHEM_CONFORMER_ID>
0109723A00000001

> <PUBCHEM_MMFF94_ENERGY>
53.5771

> <PUBCHEM_FEATURE_SELFOVERLAP>
35.52

> <PUBCHEM_SHAPE_FINGERPRINT>
10 15 18202278118004724193
10050765 1 18411699898013060266
10280341 67 18335718134412126944
10411042 1 17618502082777628251
12107183 9 18271257088492039314
12293681 160 18113053848284208459
12403259 118 17702934834181570070
12760667 363 8142088675637931623
12838862 33 18340220638463874084
12895837 130 18262518091741223085
13248334 5 18123753320689711994
13402501 40 18262236617360929264
13540713 4 18268689710759992642
13540713 5 18340226153540083347
13673619 4 6411292425568523643
13690498 29 17459763519064219567
14117953 113 18343297081110585588
14123256 34 8358255951572129789
14251764 30 9439407921460749780
14394314 77 18410570713036211977
14429114 114 18266742561756048409
14556957 393 15574978534561244520
14617042 71 18336540638599436553
14790565 3 18047749588557282393
14931854 50 17967807258955052208
15198563 99 17683813107294349814
1577012 14 18411985758372023214
15778101 99 18411979152585721439
15840311 113 18269268149055501781
1768 4 18336537275375734881
17780758 139 11743853455569559095
18608769 82 18265329504699224227
19427546 20 18335424526706303175
19438510 23 18202563986057888739
20554085 129 18114195133418266810
20642791 178 18058999584762333365
20691028 202 18340769239517044044
20715895 44 18411135814894128088
21033648 144 18130796667680507991
21033648 29 18060128843159605514
21298829 104 18413106164815461876
21424621 283 18413670205790445714
21585482 111 18199187471944403125
23559900 14 18041566823487820672
270888 7 18411983571959174535
2748736 6 18412271622763086436
2838139 119 18334860459670572302
3472631 163 18334574667898424951
3627633 1 17763180241822721595
4073 2 18201995508714100914
5104073 3 17989489627664237602
5385378 56 18131354141819561050
543368 44 18408886265801542069
54583773 228 18410581683162583349
5969126 39 17975416819659163871
6327066 14 18410575080505495806
636775 72 18265055722241094568
6697151 62 16907810099318260475
6712543 237 15267059268236925913
7288768 16 18060137626383914331
77188 2 17403741537065216018
7970288 3 9007057954807612904
9980921 7 18060144228592284373
9981440 41 18271801281389933690

> <PUBCHEM_SHAPE_MULTIPOLES>
484.38
20.59
3.76
0.74
8.82
1.16
0
-24.34
2.02
-1.49
-0.68
0.23
-0.01
0.17

> <PUBCHEM_SHAPE_SELFOVERLAP>
1027.432

> <PUBCHEM_SHAPE_VOLUME>
272.3

> <PUBCHEM_COORDINATE_TYPE>
2
5
10

$$$$

