14003
  -OEChem-06241222412D

 52 54  0     1  0  0  0  0  0999 V2000
    5.0474    0.9579    0.0000 P   0  0  3  0  0  0  0  0  0  0  0  0
    5.4104    2.6514    0.0000 P   0  0  3  0  0  0  0  0  0  0  0  0
    5.7735    4.3450    0.0000 P   0  0  3  0  0  0  0  0  0  0  0  0
    6.1365    6.0386    0.0000 P   0  0  0  0  0  0  0  0  0  0  0  0
    4.4026   -2.4953    0.0000 O   0  0  0  0  0  0  0  0  0  0  0  0
    6.7485   -3.5871    0.0000 O   0  0  0  0  0  0  0  0  0  0  0  0
    6.7523   -1.4116    0.0000 O   0  0  0  0  0  0  0  0  0  0  0  0
    5.3548    0.0063    0.0000 O   0  0  0  0  0  0  0  0  0  0  0  0
    4.7400    1.9095    0.0000 O   0  0  0  0  0  0  0  0  0  0  0  0
    5.9990    1.2652    0.0000 O   0  0  0  0  0  0  0  0  0  0  0  0
    4.0958    0.6505    0.0000 O   0  0  0  0  0  0  0  0  0  0  0  0
    6.0809    3.3934    0.0000 O   0  0  0  0  0  0  0  0  0  0  0  0
    4.6685    3.3219    0.0000 O   0  0  0  0  0  0  0  0  0  0  0  0
    6.1524    1.9810    0.0000 O   0  0  0  0  0  0  0  0  0  0  0  0
    5.4661    5.2966    0.0000 O   0  0  0  0  0  0  0  0  0  0  0  0
    6.7251    4.6524    0.0000 O   0  0  0  0  0  0  0  0  0  0  0  0
    4.8219    4.0377    0.0000 O   0  0  0  0  0  0  0  0  0  0  0  0
    6.8070    6.7806    0.0000 O   0  0  0  0  0  0  0  0  0  0  0  0
    5.3946    6.7090    0.0000 O   0  0  0  0  0  0  0  0  0  0  0  0
    6.8785    5.3682    0.0000 O   0  0  0  0  0  0  0  0  0  0  0  0
    4.6783   -4.2558    0.0000 N   0  0  0  0  0  0  0  0  0  0  0  0
    4.6783   -5.8653    0.0000 N   0  0  0  0  0  0  0  0  0  0  0  0
    2.8660   -4.0606    0.0000 N   0  0  0  0  0  0  0  0  0  0  0  0
    2.0000   -5.5606    0.0000 N   0  0  0  0  0  0  0  0  0  0  0  0
    2.8660   -7.0606    0.0000 N   0  0  0  0  0  0  0  0  0  0  0  0
    5.9405   -2.9980    0.0000 C   0  0  2  0  0  0  0  0  0  0  0  0
    5.9422   -1.9980    0.0000 C   0  0  1  0  0  0  0  0  0  0  0  0
    4.9889   -3.3053    0.0000 C   0  0  1  0  0  0  0  0  0  0  0  0
    4.9917   -1.6873    0.0000 C   0  0  1  0  0  0  0  0  0  0  0  0
    4.6844   -0.7357    0.0000 C   0  0  0  0  0  0  0  0  0  0  0  0
    3.7320   -4.5606    0.0000 C   0  0  0  0  0  0  0  0  0  0  0  0
    5.2619   -5.0606    0.0000 C   0  0  0  0  0  0  0  0  0  0  0  0
    3.7320   -5.5606    0.0000 C   0  0  0  0  0  0  0  0  0  0  0  0
    2.8660   -6.0606    0.0000 C   0  0  0  0  0  0  0  0  0  0  0  0
    2.0000   -4.5606    0.0000 C   0  0  0  0  0  0  0  0  0  0  0  0
    6.4934   -2.7174    0.0000 H   0  0  0  0  0  0  0  0  0  0  0  0
    5.8463   -1.3854    0.0000 H   0  0  0  0  0  0  0  0  0  0  0  0
    5.4266   -3.7445    0.0000 H   0  0  0  0  0  0  0  0  0  0  0  0
    4.3795   -1.5892    0.0000 H   0  0  0  0  0  0  0  0  0  0  0  0
    4.3035   -0.2465    0.0000 H   0  0  0  0  0  0  0  0  0  0  0  0
    4.1364   -1.0258    0.0000 H   0  0  0  0  0  0  0  0  0  0  0  0
    7.3154   -3.3359    0.0000 H   0  0  0  0  0  0  0  0  0  0  0  0
    7.3182   -1.6647    0.0000 H   0  0  0  0  0  0  0  0  0  0  0  0
    5.8819   -5.0606    0.0000 H   0  0  0  0  0  0  0  0  0  0  0  0
    1.4631   -4.2506    0.0000 H   0  0  0  0  0  0  0  0  0  0  0  0
    2.3291   -7.3706    0.0000 H   0  0  0  0  0  0  0  0  0  0  0  0
    3.4030   -7.3706    0.0000 H   0  0  0  0  0  0  0  0  0  0  0  0
    6.4590    0.8496    0.0000 H   0  0  0  0  0  0  0  0  0  0  0  0
    4.0785    3.1313    0.0000 H   0  0  0  0  0  0  0  0  0  0  0  0
    7.1851    4.2367    0.0000 H   0  0  0  0  0  0  0  0  0  0  0  0
    4.8046    6.5184    0.0000 H   0  0  0  0  0  0  0  0  0  0  0  0
    6.6164    7.3706    0.0000 H   0  0  0  0  0  0  0  0  0  0  0  0
  1  8  1  0  0  0  0
  1  9  1  0  0  0  0
  1 10  1  0  0  0  0
  1 11  2  0  0  0  0
  2  9  1  0  0  0  0
  2 12  1  0  0  0  0
  2 13  1  0  0  0  0
  2 14  2  0  0  0  0
  3 12  1  0  0  0  0
  3 15  1  0  0  0  0
  3 16  1  0  0  0  0
  3 17  2  0  0  0  0
  4 15  1  0  0  0  0
  4 18  1  0  0  0  0
  4 19  1  0  0  0  0
  4 20  2  0  0  0  0
  5 28  1  0  0  0  0
  5 29  1  0  0  0  0
 26  6  1  1  0  0  0
  6 42  1  0  0  0  0
 27  7  1  1  0  0  0
  7 43  1  0  0  0  0
  8 30  1  0  0  0  0
 10 48  1  0  0  0  0
 13 49  1  0  0  0  0
 16 50  1  0  0  0  0
 18 52  1  0  0  0  0
 19 51  1  0  0  0  0
 28 21  1  6  0  0  0
 21 31  1  0  0  0  0
 21 32  1  0  0  0  0
 22 32  2  0  0  0  0
 22 33  1  0  0  0  0
 23 31  2  0  0  0  0
 23 35  1  0  0  0  0
 24 34  1  0  0  0  0
 24 35  2  0  0  0  0
 25 34  1  0  0  0  0
 25 46  1  0  0  0  0
 25 47  1  0  0  0  0
 26 27  1  0  0  0  0
 26 28  1  0  0  0  0
 26 36  1  0  0  0  0
 27 29  1  0  0  0  0
 27 37  1  0  0  0  0
 28 38  1  0  0  0  0
 29 30  1  6  0  0  0
 29 39  1  0  0  0  0
 30 40  1  0  0  0  0
 30 41  1  0  0  0  0
 31 33  1  0  0  0  0
 32 44  1  0  0  0  0
 33 34  2  0  0  0  0
 35 45  1  0  0  0  0
M  END
> <PUBCHEM_COMPOUND_CID>
14003

> <PUBCHEM_COMPOUND_CANONICALIZED>
1

> <PUBCHEM_CACTVS_COMPLEXITY>
967

> <PUBCHEM_CACTVS_HBOND_ACCEPTOR>
20

> <PUBCHEM_CACTVS_HBOND_DONOR>
8

> <PUBCHEM_CACTVS_ROTATABLE_BOND>
10

> <PUBCHEM_CACTVS_SUBSKEYS>
AAADceBzvgOAAAAAAAAAAAAAAAAAAWJAAAAsAAAAAAAAAFgB+AAAHgAQCCAACBzhlwYF8L9MFxCgQQZhZICAgC0REKABUCAoVBCDWAJAyEAeRAgPAALTACDwMAIAAAAAAAAAAAAAAAAAAAAAAAAAAAAAAA==

> <PUBCHEM_IUPAC_OPENEYE_NAME>
[[(2R,3S,4R,5R)-5-(6-aminopurin-9-yl)-3,4-dihydroxy-tetrahydrofuran-2-yl]methoxy-hydroxy-phosphoryl] [hydroxy(phosphonooxy)phosphoryl] hydrogen phosphate

> <PUBCHEM_IUPAC_CAS_NAME>
[[(2R,3S,4R,5R)-5-(6-aminopurin-9-yl)-3,4-dihydroxy-2-oxolanyl]methoxy-hydroxyphosphoryl] [hydroxy(phosphonooxy)phosphoryl] hydrogen phosphate

> <PUBCHEM_IUPAC_NAME>
[[(2R,3S,4R,5R)-5-(6-aminopurin-9-yl)-3,4-dihydroxyoxolan-2-yl]methoxy-hydroxyphosphoryl] [hydroxy(phosphonooxy)phosphoryl] hydrogen phosphate

> <PUBCHEM_IUPAC_SYSTEMATIC_NAME>
[[(2R,3S,4R,5R)-5-(6-aminopurin-9-yl)-3,4-bis(oxidanyl)oxolan-2-yl]methoxy-oxidanyl-phosphoryl] [oxidanyl(phosphonooxy)phosphoryl] hydrogen phosphate

> <PUBCHEM_IUPAC_TRADITIONAL_NAME>
[[(2R,3S,4R,5R)-5-adenin-9-yl-3,4-dihydroxy-tetrahydrofuran-2-yl]methoxy-hydroxy-phosphoryl] [hydroxy(phosphonooxy)phosphoryl] hydrogen phosphate

> <PUBCHEM_IUPAC_INCHI>
InChI=1S/C10H17N5O16P4/c11-8-5-9(13-2-12-8)15(3-14-5)10-7(17)6(16)4(28-10)1-27-33(21,22)30-35(25,26)31-34(23,24)29-32(18,19)20/h2-4,6-7,10,16-17H,1H2,(H,21,22)(H,23,24)(H,25,26)(H2,11,12,13)(H2,18,19,20)/t4-,6-,7-,10-/m1/s1

> <PUBCHEM_IUPAC_INCHIKEY>
WWMWAMFHUSTZTA-KQYNXXCUSA-N

> <PUBCHEM_XLOGP3>
-6.8

> <PUBCHEM_EXACT_MASS>
586.962076

> <PUBCHEM_MOLECULAR_FORMULA>
C10H17N5O16P4

> <PUBCHEM_MOLECULAR_WEIGHT>
587.160928

> <PUBCHEM_OPENEYE_CAN_SMILES>
C1=NC2=C(C(=N1)N)N=CN2C3C(C(C(O3)COP(=O)(O)OP(=O)(O)OP(=O)(O)OP(=O)(O)O)O)O

> <PUBCHEM_OPENEYE_ISO_SMILES>
C1=NC2=C(C(=N1)N)N=CN2[C@H]3[C@@H]([C@@H]([C@H](O3)COP(=O)(O)OP(=O)(O)OP(=O)(O)OP(=O)(O)O)O)O

> <PUBCHEM_CACTVS_TPSA>
326

> <PUBCHEM_MONOISOTOPIC_WEIGHT>
586.962076

> <PUBCHEM_TOTAL_CHARGE>
0

> <PUBCHEM_HEAVY_ATOM_COUNT>
35

> <PUBCHEM_ATOM_DEF_STEREO_COUNT>
4

> <PUBCHEM_ATOM_UDEF_STEREO_COUNT>
0

> <PUBCHEM_BOND_DEF_STEREO_COUNT>
0

> <PUBCHEM_BOND_UDEF_STEREO_COUNT>
0

> <PUBCHEM_ISOTOPIC_ATOM_COUNT>
0

> <PUBCHEM_COMPONENT_COUNT>
1

> <PUBCHEM_CACTVS_TAUTO_COUNT>
3

> <PUBCHEM_COORDINATE_TYPE>
1
5
255

> <PUBCHEM_BONDANNOTATIONS>
28  21  6
21  31  8
21  32  8
22  32  8
22  33  8
23  31  8
23  35  8
24  34  8
24  35  8
29  30  6
31  33  8
33  34  8
26  6  5
27  7  5

$$$$

