7053
  -OEChem-06261201422D

 22 23  0     0  0  0  0  0  0999 V2000
    4.6783   -0.9853    0.0000 N   0  0  0  0  0  0  0  0  0  0  0  0
    3.7320    0.3194    0.0000 C   0  0  0  0  0  0  0  0  0  0  0  0
    4.6783    0.6241    0.0000 C   0  0  0  0  0  0  0  0  0  0  0  0
    3.7320   -0.6806    0.0000 C   0  0  0  0  0  0  0  0  0  0  0  0
    5.2619   -0.1806    0.0000 C   0  0  0  0  0  0  0  0  0  0  0  0
    2.8660    0.8194    0.0000 C   0  0  0  0  0  0  0  0  0  0  0  0
    4.9889    1.5747    0.0000 C   0  0  0  0  0  0  0  0  0  0  0  0
    2.8660   -1.1806    0.0000 C   0  0  0  0  0  0  0  0  0  0  0  0
    6.2619   -0.1806    0.0000 C   0  0  0  0  0  0  0  0  0  0  0  0
    2.0000    0.3194    0.0000 C   0  0  0  0  0  0  0  0  0  0  0  0
    2.0000   -0.6806    0.0000 C   0  0  0  0  0  0  0  0  0  0  0  0
    4.8709   -1.5747    0.0000 H   0  0  0  0  0  0  0  0  0  0  0  0
    2.8660    1.4394    0.0000 H   0  0  0  0  0  0  0  0  0  0  0  0
    5.5783    1.3820    0.0000 H   0  0  0  0  0  0  0  0  0  0  0  0
    5.1815    2.1640    0.0000 H   0  0  0  0  0  0  0  0  0  0  0  0
    4.3996    1.7673    0.0000 H   0  0  0  0  0  0  0  0  0  0  0  0
    2.8660   -1.8006    0.0000 H   0  0  0  0  0  0  0  0  0  0  0  0
    6.2619   -0.8006    0.0000 H   0  0  0  0  0  0  0  0  0  0  0  0
    6.8819   -0.1806    0.0000 H   0  0  0  0  0  0  0  0  0  0  0  0
    6.2619    0.4394    0.0000 H   0  0  0  0  0  0  0  0  0  0  0  0
    1.4631    0.6294    0.0000 H   0  0  0  0  0  0  0  0  0  0  0  0
    1.4631   -0.9906    0.0000 H   0  0  0  0  0  0  0  0  0  0  0  0
  1  4  1  0  0  0  0
  1  5  1  0  0  0  0
  1 12  1  0  0  0  0
  2  3  1  0  0  0  0
  2  4  1  0  0  0  0
  2  6  2  0  0  0  0
  3  5  2  0  0  0  0
  3  7  1  0  0  0  0
  4  8  2  0  0  0  0
  5  9  1  0  0  0  0
  6 10  1  0  0  0  0
  6 13  1  0  0  0  0
  7 14  1  0  0  0  0
  7 15  1  0  0  0  0
  7 16  1  0  0  0  0
  8 11  1  0  0  0  0
  8 17  1  0  0  0  0
  9 18  1  0  0  0  0
  9 19  1  0  0  0  0
  9 20  1  0  0  0  0
 10 11  2  0  0  0  0
 10 21  1  0  0  0  0
 11 22  1  0  0  0  0
M  END
> <PUBCHEM_COMPOUND_CID>
7053

> <PUBCHEM_COMPOUND_CANONICALIZED>
1

> <PUBCHEM_CACTVS_COMPLEXITY>
144

> <PUBCHEM_CACTVS_HBOND_ACCEPTOR>
0

> <PUBCHEM_CACTVS_HBOND_DONOR>
1

> <PUBCHEM_CACTVS_ROTATABLE_BOND>
0

> <PUBCHEM_CACTVS_SUBSKEYS>
AAADccByAAAAAAAAAAAAAAAAAAAAAWAAAAAwAAAAAAAAAFgB8AAAHAAQAAAADAiBHgAywPLJkACgAyRiRACCgCAhAiAImSAwZJgIIOLAkZGEIAhgkADIyAcQgMAOgAAAAAACAAAAAAAAAAQAAAAAAAAAAA==

> <PUBCHEM_IUPAC_OPENEYE_NAME>
2,3-dimethyl-1H-indole

> <PUBCHEM_IUPAC_CAS_NAME>
2,3-dimethyl-1H-indole

> <PUBCHEM_IUPAC_NAME>
2,3-dimethyl-1H-indole

> <PUBCHEM_IUPAC_SYSTEMATIC_NAME>
2,3-dimethyl-1H-indole

> <PUBCHEM_IUPAC_TRADITIONAL_NAME>
2,3-dimethyl-1H-indole

> <PUBCHEM_IUPAC_INCHI>
InChI=1S/C10H11N/c1-7-8(2)11-10-6-4-3-5-9(7)10/h3-6,11H,1-2H3

> <PUBCHEM_IUPAC_INCHIKEY>
PYFVEIDRTLBMHG-UHFFFAOYSA-N

> <PUBCHEM_XLOGP3_AA>
2.8

> <PUBCHEM_EXACT_MASS>
145.089149

> <PUBCHEM_MOLECULAR_FORMULA>
C10H11N

> <PUBCHEM_MOLECULAR_WEIGHT>
145.20104

> <PUBCHEM_OPENEYE_CAN_SMILES>
CC1=C(NC2=CC=CC=C12)C

> <PUBCHEM_OPENEYE_ISO_SMILES>
CC1=C(NC2=CC=CC=C12)C

> <PUBCHEM_CACTVS_TPSA>
15.8

> <PUBCHEM_MONOISOTOPIC_WEIGHT>
145.089149

> <PUBCHEM_TOTAL_CHARGE>
0

> <PUBCHEM_HEAVY_ATOM_COUNT>
11

> <PUBCHEM_ATOM_DEF_STEREO_COUNT>
0

> <PUBCHEM_ATOM_UDEF_STEREO_COUNT>
0

> <PUBCHEM_BOND_DEF_STEREO_COUNT>
0

> <PUBCHEM_BOND_UDEF_STEREO_COUNT>
0

> <PUBCHEM_ISOTOPIC_ATOM_COUNT>
0

> <PUBCHEM_COMPONENT_COUNT>
1

> <PUBCHEM_CACTVS_TAUTO_COUNT>
1

> <PUBCHEM_COORDINATE_TYPE>
1
5
255

> <PUBCHEM_BONDANNOTATIONS>
1  4  8
1  5  8
10  11  8
2  3  8
2  4  8
2  6  8
3  5  8
4  8  8
6  10  8
8  11  8

$$$$

