13662
  -OEChem-06241222392D

 20 21  0     0  0  0  0  0  0999 V2000
    5.5202    1.0094    0.0000 O   0  0  0  0  0  0  0  0  0  0  0  0
    2.0000    1.0094    0.0000 O   0  0  0  0  0  0  0  0  0  0  0  0
    3.7601    0.7306    0.0000 N   0  0  0  0  0  0  0  0  0  0  0  0
    3.7601   -0.2694    0.0000 C   0  0  0  0  0  0  0  0  0  0  0  0
    4.5691    1.3184    0.0000 C   0  0  0  0  0  0  0  0  0  0  0  0
    2.9511    1.3184    0.0000 C   0  0  0  0  0  0  0  0  0  0  0  0
    2.8940   -0.7694    0.0000 C   0  0  0  0  0  0  0  0  0  0  0  0
    4.6261   -0.7694    0.0000 C   0  0  0  0  0  0  0  0  0  0  0  0
    4.2601    2.2694    0.0000 C   0  0  0  0  0  0  0  0  0  0  0  0
    3.2601    2.2694    0.0000 C   0  0  0  0  0  0  0  0  0  0  0  0
    2.8940   -1.7694    0.0000 C   0  0  0  0  0  0  0  0  0  0  0  0
    4.6261   -1.7694    0.0000 C   0  0  0  0  0  0  0  0  0  0  0  0
    3.7601   -2.2694    0.0000 C   0  0  0  0  0  0  0  0  0  0  0  0
    2.3571   -0.4594    0.0000 H   0  0  0  0  0  0  0  0  0  0  0  0
    5.1630   -0.4594    0.0000 H   0  0  0  0  0  0  0  0  0  0  0  0
    4.6245    2.7710    0.0000 H   0  0  0  0  0  0  0  0  0  0  0  0
    2.8956    2.7710    0.0000 H   0  0  0  0  0  0  0  0  0  0  0  0
    2.3571   -2.0794    0.0000 H   0  0  0  0  0  0  0  0  0  0  0  0
    5.1630   -2.0794    0.0000 H   0  0  0  0  0  0  0  0  0  0  0  0
    3.7601   -2.8894    0.0000 H   0  0  0  0  0  0  0  0  0  0  0  0
  1  5  2  0  0  0  0
  2  6  2  0  0  0  0
  3  4  1  0  0  0  0
  3  5  1  0  0  0  0
  3  6  1  0  0  0  0
  4  7  2  0  0  0  0
  4  8  1  0  0  0  0
  5  9  1  0  0  0  0
  6 10  1  0  0  0  0
  7 11  1  0  0  0  0
  7 14  1  0  0  0  0
  8 12  2  0  0  0  0
  8 15  1  0  0  0  0
  9 10  2  0  0  0  0
  9 16  1  0  0  0  0
 10 17  1  0  0  0  0
 11 13  2  0  0  0  0
 11 18  1  0  0  0  0
 12 13  1  0  0  0  0
 12 19  1  0  0  0  0
 13 20  1  0  0  0  0
M  END
> <PUBCHEM_COMPOUND_CID>
13662

> <PUBCHEM_COMPOUND_CANONICALIZED>
1

> <PUBCHEM_CACTVS_COMPLEXITY>
246

> <PUBCHEM_CACTVS_HBOND_ACCEPTOR>
2

> <PUBCHEM_CACTVS_HBOND_DONOR>
0

> <PUBCHEM_CACTVS_ROTATABLE_BOND>
1

> <PUBCHEM_CACTVS_SUBSKEYS>
AAADcYByMAAAAAAAAAAAAAAAAAAAAQAAAAAwAAAAAAAAAAABAAAAHgAAAAAACAiBkAAwwIMAAACIACVSUACCAAAhAgAIiAAAZMgIICLAkZGEIAhghCDIyYcQAAAAAAAAAAAAAAAAAAAAAAAAAAAAAAAAAA==

> <PUBCHEM_IUPAC_OPENEYE_NAME>
1-phenylpyrrole-2,5-dione

> <PUBCHEM_IUPAC_CAS_NAME>
1-phenylpyrrole-2,5-dione

> <PUBCHEM_IUPAC_NAME>
1-phenylpyrrole-2,5-dione

> <PUBCHEM_IUPAC_SYSTEMATIC_NAME>
1-phenylpyrrole-2,5-dione

> <PUBCHEM_IUPAC_TRADITIONAL_NAME>
maleanil

> <PUBCHEM_IUPAC_INCHI>
InChI=1S/C10H7NO2/c12-9-6-7-10(13)11(9)8-4-2-1-3-5-8/h1-7H

> <PUBCHEM_IUPAC_INCHIKEY>
HIDBROSJWZYGSZ-UHFFFAOYSA-N

> <PUBCHEM_XLOGP3>
1.1

> <PUBCHEM_EXACT_MASS>
173.047678

> <PUBCHEM_MOLECULAR_FORMULA>
C10H7NO2

> <PUBCHEM_MOLECULAR_WEIGHT>
173.16808

> <PUBCHEM_OPENEYE_CAN_SMILES>
C1=CC=C(C=C1)N2C(=O)C=CC2=O

> <PUBCHEM_OPENEYE_ISO_SMILES>
C1=CC=C(C=C1)N2C(=O)C=CC2=O

> <PUBCHEM_CACTVS_TPSA>
37.4

> <PUBCHEM_MONOISOTOPIC_WEIGHT>
173.047678

> <PUBCHEM_TOTAL_CHARGE>
0

> <PUBCHEM_HEAVY_ATOM_COUNT>
13

> <PUBCHEM_ATOM_DEF_STEREO_COUNT>
0

> <PUBCHEM_ATOM_UDEF_STEREO_COUNT>
0

> <PUBCHEM_BOND_DEF_STEREO_COUNT>
0

> <PUBCHEM_BOND_UDEF_STEREO_COUNT>
0

> <PUBCHEM_ISOTOPIC_ATOM_COUNT>
0

> <PUBCHEM_COMPONENT_COUNT>
1

> <PUBCHEM_CACTVS_TAUTO_COUNT>
1

> <PUBCHEM_COORDINATE_TYPE>
1
5
255

> <PUBCHEM_BONDANNOTATIONS>
11  13  8
12  13  8
4  7  8
4  8  8
7  11  8
8  12  8

$$$$

