6152
  -OEChem-06261201083D

 54 56  0     1  0  0  0  0  0999 V2000
    6.1407   -3.0704    0.2476 F   0  0  0  0  0  0  0  0  0  0  0  0
    3.5573    2.4727   -1.1504 O   0  0  0  0  0  0  0  0  0  0  0  0
   -1.1086    1.5128    0.7217 N   0  0  0  0  0  0  0  0  0  0  0  0
   -3.3370   -0.4607    0.6319 C   0  0  0  0  0  0  0  0  0  0  0  0
   -4.5592    0.2340   -0.0288 C   0  0  0  0  0  0  0  0  0  0  0  0
   -3.7466   -1.8978    1.0408 C   0  0  0  0  0  0  0  0  0  0  0  0
   -2.9153    0.3115    1.9073 C   0  0  0  0  0  0  0  0  0  0  0  0
   -2.1093   -0.5016   -0.3130 C   0  0  0  0  0  0  0  0  0  0  0  0
   -5.1806   -0.5711   -1.1830 C   0  0  1  0  0  0  0  0  0  0  0  0
   -4.3504   -2.7064   -0.1054 C   0  0  0  0  0  0  0  0  0  0  0  0
   -5.5417   -1.9897   -0.7302 C   0  0  0  0  0  0  0  0  0  0  0  0
   -2.2694    1.6667    1.6055 C   0  0  0  0  0  0  0  0  0  0  0  0
   -1.4814    0.8765   -0.5467 C   0  0  0  0  0  0  0  0  0  0  0  0
   -6.4162    0.1450   -1.7302 C   0  0  0  0  0  0  0  0  0  0  0  0
   -0.4721    2.8072    0.4795 C   0  0  0  0  0  0  0  0  0  0  0  0
    0.8024    2.6236   -0.3469 C   0  0  0  0  0  0  0  0  0  0  0  0
    1.8250    1.7252    0.3545 C   0  0  0  0  0  0  0  0  0  0  0  0
    3.1340    1.5881   -0.4102 C   0  0  0  0  0  0  0  0  0  0  0  0
    3.9367    0.3442   -0.2344 C   0  0  0  0  0  0  0  0  0  0  0  0
    3.8710   -0.3204    0.9696 C   0  0  0  0  0  0  0  0  0  0  0  0
    4.7143   -0.0940   -1.2831 C   0  0  0  0  0  0  0  0  0  0  0  0
    4.6221   -1.4843    1.1337 C   0  0  0  0  0  0  0  0  0  0  0  0
    5.4654   -1.2579   -1.1190 C   0  0  0  0  0  0  0  0  0  0  0  0
    5.4192   -1.9532    0.0895 C   0  0  0  0  0  0  0  0  0  0  0  0
   -4.2918    1.2309   -0.3965 H   0  0  0  0  0  0  0  0  0  0  0  0
   -5.3301    0.3952    0.7379 H   0  0  0  0  0  0  0  0  0  0  0  0
   -4.4830   -1.8477    1.8543 H   0  0  0  0  0  0  0  0  0  0  0  0
   -2.8821   -2.4402    1.4439 H   0  0  0  0  0  0  0  0  0  0  0  0
   -3.7808    0.4643    2.5643 H   0  0  0  0  0  0  0  0  0  0  0  0
   -2.1994   -0.2941    2.4806 H   0  0  0  0  0  0  0  0  0  0  0  0
   -1.3425   -1.1589    0.1211 H   0  0  0  0  0  0  0  0  0  0  0  0
   -2.3649   -0.9409   -1.2828 H   0  0  0  0  0  0  0  0  0  0  0  0
   -4.4550   -0.6397   -2.0023 H   0  0  0  0  0  0  0  0  0  0  0  0
   -4.6719   -3.6846    0.2706 H   0  0  0  0  0  0  0  0  0  0  0  0
   -3.5911   -2.9012   -0.8714 H   0  0  0  0  0  0  0  0  0  0  0  0
   -5.9084   -2.5729   -1.5833 H   0  0  0  0  0  0  0  0  0  0  0  0
   -6.3602   -1.9506    0.0002 H   0  0  0  0  0  0  0  0  0  0  0  0
   -3.0086    2.3526    1.1736 H   0  0  0  0  0  0  0  0  0  0  0  0
   -1.9486    2.1044    2.5590 H   0  0  0  0  0  0  0  0  0  0  0  0
   -0.6074    0.6824   -1.1749 H   0  0  0  0  0  0  0  0  0  0  0  0
   -2.1606    1.5119   -1.1279 H   0  0  0  0  0  0  0  0  0  0  0  0
   -6.8455   -0.4099   -2.5710 H   0  0  0  0  0  0  0  0  0  0  0  0
   -6.1572    1.1471   -2.0877 H   0  0  0  0  0  0  0  0  0  0  0  0
   -7.1904    0.2488   -0.9623 H   0  0  0  0  0  0  0  0  0  0  0  0
   -1.1498    3.4963   -0.0407 H   0  0  0  0  0  0  0  0  0  0  0  0
   -0.2035    3.2763    1.4345 H   0  0  0  0  0  0  0  0  0  0  0  0
    0.6121    2.2843   -1.3703 H   0  0  0  0  0  0  0  0  0  0  0  0
    1.2515    3.6187   -0.4718 H   0  0  0  0  0  0  0  0  0  0  0  0
    2.0605    2.1314    1.3450 H   0  0  0  0  0  0  0  0  0  0  0  0
    1.3950    0.7258    0.4808 H   0  0  0  0  0  0  0  0  0  0  0  0
    3.2724    0.0318    1.8032 H   0  0  0  0  0  0  0  0  0  0  0  0
    4.7555    0.4343   -2.2307 H   0  0  0  0  0  0  0  0  0  0  0  0
    4.5896   -2.0239    2.0757 H   0  0  0  0  0  0  0  0  0  0  0  0
    6.0853   -1.6239   -1.9321 H   0  0  0  0  0  0  0  0  0  0  0  0
  1 24  1  0  0  0  0
  2 18  2  0  0  0  0
  3 12  1  0  0  0  0
  3 13  1  0  0  0  0
  3 15  1  0  0  0  0
  4  5  1  0  0  0  0
  4  6  1  0  0  0  0
  4  7  1  0  0  0  0
  4  8  1  0  0  0  0
  5  9  1  0  0  0  0
  5 25  1  0  0  0  0
  5 26  1  0  0  0  0
  6 10  1  0  0  0  0
  6 27  1  0  0  0  0
  6 28  1  0  0  0  0
  7 12  1  0  0  0  0
  7 29  1  0  0  0  0
  7 30  1  0  0  0  0
  8 13  1  0  0  0  0
  8 31  1  0  0  0  0
  8 32  1  0  0  0  0
  9 11  1  0  0  0  0
  9 14  1  0  0  0  0
  9 33  1  0  0  0  0
 10 11  1  0  0  0  0
 10 34  1  0  0  0  0
 10 35  1  0  0  0  0
 11 36  1  0  0  0  0
 11 37  1  0  0  0  0
 12 38  1  0  0  0  0
 12 39  1  0  0  0  0
 13 40  1  0  0  0  0
 13 41  1  0  0  0  0
 14 42  1  0  0  0  0
 14 43  1  0  0  0  0
 14 44  1  0  0  0  0
 15 16  1  0  0  0  0
 15 45  1  0  0  0  0
 15 46  1  0  0  0  0
 16 17  1  0  0  0  0
 16 47  1  0  0  0  0
 16 48  1  0  0  0  0
 17 18  1  0  0  0  0
 17 49  1  0  0  0  0
 17 50  1  0  0  0  0
 18 19  1  0  0  0  0
 19 20  2  0  0  0  0
 19 21  1  0  0  0  0
 20 22  1  0  0  0  0
 20 51  1  0  0  0  0
 21 23  2  0  0  0  0
 21 52  1  0  0  0  0
 22 24  2  0  0  0  0
 22 53  1  0  0  0  0
 23 24  1  0  0  0  0
 23 54  1  0  0  0  0
M  END
> <PUBCHEM_COMPOUND_CID>
6152

> <PUBCHEM_CONFORMER_RMSD>
0.8

> <PUBCHEM_CONFORMER_DIVERSEORDER>
1
330
23
78
134
203
362
103
117
302
355
240
116
167
163
389
314
58
171
122
48
263
140
21
393
322
68
401
174
396
6
143
44
186
358
300
271
42
386
190
40
403
220
345
225
305
239
281
178
115
342
298
118
367
73
52
241
265
242
84
397
4
380
382
216
168
254
317
54
373
10
361
75
226
93
108
311
165
385
182
146
287
86
319
80
378
350
238
109
63
310
222
384
295
340
368
173
236
369
201
383
94
113
43
381
207
349
344
53
129
230
72
50
374
76
125
172
237
194
256
162
377
39
152
158
27
400
327
106
402
268
388
264
394
221
290
82
36
101
46
375
329
278
360
145
257
7
83
2
217
179
331
328
334
395
404
277
104
77
233
372
90
336
176
272
47
312
71
261
69
191
192
228
92
359
229
283
392
276
246
184
17
159
100
121
306
289
187
112
35
288
175
18
170
214
74
28
210
208
339
88
89
296
224
245
285
213
66
97
390
249
284
376
15
102
160
135
16
321
30
110
251
346
247
20
206
202
120
275
34
341
356
253
55
231
95
244
37
343
292
274
211
51
180
150
156
357
215
8
223
41
337
107
307
153
267
303
258
141
81
209
85
166
38
212
318
399
181
219
379
291
234
353
67
155
316
269
31
61
62
315
193
24
309
105
195
142
260
308
363
177
325
26
266
56
65
297
204
9
347
248
196
185
70
130
5
96
3
99
250
348
133
299
218
301
123
169
13
293
398
391
280
111
114
32
161
138
259
25
87
98
273
12
33
320
148
365
22
255
232
200
151
14
128
286
197
119
29
188
127
227
64
262
147
183
270
354
323
164
136
144
371
324
59
313
131
338
332
370
387
126
199
57
333
364
366
154
205
282
243
91
235
11
60
252
45
326
279
139
49
149
351
352
294
157
19
189
137
124
132
304
198
79
335

> <PUBCHEM_MMFF94_PARTIAL_CHARGES>
18
1 -0.19
12 0.27
13 0.27
15 0.27
17 0.06
18 0.42
19 0.09
2 -0.57
20 -0.15
21 -0.15
22 -0.15
23 -0.15
24 0.19
3 -0.81
51 0.15
52 0.15
53 0.15
54 0.15

> <PUBCHEM_EFFECTIVE_ROTOR_COUNT>
7

> <PUBCHEM_PHARMACOPHORE_FEATURES>
5
1 2 acceptor
1 3 cation
6 19 20 21 22 23 24 rings
6 3 4 7 8 12 13 rings
6 4 5 6 9 10 11 rings

> <PUBCHEM_HEAVY_ATOM_COUNT>
24

> <PUBCHEM_ATOM_DEF_STEREO_COUNT>
0

> <PUBCHEM_ATOM_UDEF_STEREO_COUNT>
1

> <PUBCHEM_BOND_DEF_STEREO_COUNT>
0

> <PUBCHEM_BOND_UDEF_STEREO_COUNT>
0

> <PUBCHEM_ISOTOPIC_ATOM_COUNT>
0

> <PUBCHEM_COMPONENT_COUNT>
1

> <PUBCHEM_CACTVS_TAUTO_COUNT>
2

> <PUBCHEM_CONFORMER_ID>
0000180800000001

> <PUBCHEM_MMFF94_ENERGY>
48.5186

> <PUBCHEM_FEATURE_SELFOVERLAP>
25.373

> <PUBCHEM_SHAPE_FINGERPRINT>
10498660 4 12679456478767566148
10622 236 18115599123503814775
10928967 22 18341598361436470018
11135609 201 9511166443893223668
11796584 16 17916876724524552985
12107183 9 18263911293476052857
12166972 35 18201153265589990415
12760667 363 18409167744318780977
12925494 130 8212495873085987179
13533116 47 18187929417546508065
1361 87 18059558197010256522
13782708 43 18193843640071118143
13885169 86 9150876313446284118
13914758 101 17967816081144776125
14848178 5 18333734597880313152
14849402 71 7997427013773738636
14866123 147 18263639731584372625
14910302 57 18202015299949657733
14931854 50 18060410344665827270
14950920 106 5761112695524497877
15052358 14 18200607977080231853
15163728 17 12823300112708669137
15183329 4 18272657857214529573
15188451 53 17603875532404303652
15250474 111 18411131472355072938
15342168 16 9583528611305530377
15475509 8 17203618103375685373
17349148 13 17459179699695498573
17857418 61 18408318904315080664
18222031 100 18261110764218561980
19377110 9 7997964674653427773
20028762 73 18260831522947248694
21279426 13 18271535230061866207
21302155 148 9727637211033182299
21315764 119 17704356597453355455
21401589 2 7565049550211718124
21703447 108 18188216385924203384
22061861 79 18273219677142964487
235170 7 15482660278613212658
23559900 14 18337681802323507897
25222932 49 17900819340911964966
2838139 119 10591755447086370286
3004659 81 18273500057045432524
312425 54 17822286929030042752
339767 52 18409736140422440306
3472631 163 11527950045055955003
3729539 64 18059583537422479475
437795 70 16916796218361109285
44062 13 18343303712149478981
46194498 28 15696000628215833964
5085150 59 17240766203389564999
5104073 3 17749380451764980569
559249 180 18334294318714874377
6034566 193 10735876179648585161
6443934 186 14491048051386103776
7970288 3 18338516451903169430
960060 61 17775283833492757236

> <PUBCHEM_SHAPE_MULTIPOLES>
475.78
16.4
3.18
1.48
4.13
0
0.13
-12.77
-4.81
1.85
0.21
-0.88
0.11
-1.05

> <PUBCHEM_SHAPE_SELFOVERLAP>
988.56

> <PUBCHEM_SHAPE_VOLUME>
271.5

> <PUBCHEM_COORDINATE_TYPE>
2
5
10

$$$$

