7846992
  -OEChem-06241222482D

 55 57  0     1  0  0  0  0  0999 V2000
    4.6783    2.9028    0.0000 S   0  0  0  0  0  0  0  0  0  0  0  0
    8.2619    0.3660    0.0000 O   0  0  0  0  0  0  0  0  0  0  0  0
    9.2619   -1.3660    0.0000 O   0  0  0  0  0  0  0  0  0  0  0  0
    8.2619    2.0981    0.0000 O   0  0  0  0  0  0  0  0  0  0  0  0
   10.7619   -0.5000    0.0000 N   0  0  0  0  0  0  0  0  0  0  0  0
    4.6783    1.2933    0.0000 N   0  0  0  0  0  0  0  0  0  0  0  0
   12.7619   -0.5000    0.0000 C   0  0  2  0  0  0  0  0  0  0  0  0
   12.2619   -1.3660    0.0000 C   0  0  0  0  0  0  0  0  0  0  0  0
   13.7619   -0.5000    0.0000 C   0  0  0  0  0  0  0  0  0  0  0  0
   12.2619    0.3660    0.0000 C   0  0  0  0  0  0  0  0  0  0  0  0
   11.2619   -1.3660    0.0000 C   0  0  0  0  0  0  0  0  0  0  0  0
   12.7619   -2.2320    0.0000 C   0  0  0  0  0  0  0  0  0  0  0  0
   14.2619    0.3660    0.0000 C   0  0  0  0  0  0  0  0  0  0  0  0
   10.7619   -2.2320    0.0000 C   0  0  0  0  0  0  0  0  0  0  0  0
   12.2619   -3.0981    0.0000 C   0  0  0  0  0  0  0  0  0  0  0  0
    9.2619    0.3660    0.0000 C   0  0  2  0  0  0  0  0  0  0  0  0
    9.7619   -0.5000    0.0000 C   0  0  0  0  0  0  0  0  0  0  0  0
   11.2619   -3.0981    0.0000 C   0  0  0  0  0  0  0  0  0  0  0  0
    6.2619    2.0981    0.0000 C   0  0  0  0  0  0  0  0  0  0  0  0
    6.7619    1.2320    0.0000 C   0  0  0  0  0  0  0  0  0  0  0  0
    9.7619    1.2320    0.0000 C   0  0  0  0  0  0  0  0  0  0  0  0
    5.2619    2.0981    0.0000 C   0  0  0  0  0  0  0  0  0  0  0  0
    7.7619    1.2320    0.0000 C   0  0  0  0  0  0  0  0  0  0  0  0
    3.7320    2.5981    0.0000 C   0  0  0  0  0  0  0  0  0  0  0  0
    3.7320    1.5981    0.0000 C   0  0  0  0  0  0  0  0  0  0  0  0
    2.8660    3.0981    0.0000 C   0  0  0  0  0  0  0  0  0  0  0  0
    2.8660    1.0981    0.0000 C   0  0  0  0  0  0  0  0  0  0  0  0
    2.0000    2.5981    0.0000 C   0  0  0  0  0  0  0  0  0  0  0  0
    2.0000    1.5981    0.0000 C   0  0  0  0  0  0  0  0  0  0  0  0
   12.1419   -0.5000    0.0000 H   0  0  0  0  0  0  0  0  0  0  0  0
   13.6542   -1.1106    0.0000 H   0  0  0  0  0  0  0  0  0  0  0  0
   14.3445   -0.7121    0.0000 H   0  0  0  0  0  0  0  0  0  0  0  0
   12.7988    0.6760    0.0000 H   0  0  0  0  0  0  0  0  0  0  0  0
   11.9519    0.9030    0.0000 H   0  0  0  0  0  0  0  0  0  0  0  0
   11.7249    0.0560    0.0000 H   0  0  0  0  0  0  0  0  0  0  0  0
   13.3819   -2.2320    0.0000 H   0  0  0  0  0  0  0  0  0  0  0  0
   14.7988    0.0560    0.0000 H   0  0  0  0  0  0  0  0  0  0  0  0
   14.5719    0.9030    0.0000 H   0  0  0  0  0  0  0  0  0  0  0  0
   13.7249    0.6760    0.0000 H   0  0  0  0  0  0  0  0  0  0  0  0
   11.0719    0.0369    0.0000 H   0  0  0  0  0  0  0  0  0  0  0  0
   10.1419   -2.2320    0.0000 H   0  0  0  0  0  0  0  0  0  0  0  0
    8.9519    0.9030    0.0000 H   0  0  0  0  0  0  0  0  0  0  0  0
   12.5719   -3.6350    0.0000 H   0  0  0  0  0  0  0  0  0  0  0  0
   10.9519   -3.6350    0.0000 H   0  0  0  0  0  0  0  0  0  0  0  0
    6.8445    2.3101    0.0000 H   0  0  0  0  0  0  0  0  0  0  0  0
    6.1542    2.7087    0.0000 H   0  0  0  0  0  0  0  0  0  0  0  0
    6.1793    1.0200    0.0000 H   0  0  0  0  0  0  0  0  0  0  0  0
    6.8695    0.6215    0.0000 H   0  0  0  0  0  0  0  0  0  0  0  0
   10.2988    0.9221    0.0000 H   0  0  0  0  0  0  0  0  0  0  0  0
   10.0719    1.7690    0.0000 H   0  0  0  0  0  0  0  0  0  0  0  0
    9.2249    1.5420    0.0000 H   0  0  0  0  0  0  0  0  0  0  0  0
    2.8660    3.7181    0.0000 H   0  0  0  0  0  0  0  0  0  0  0  0
    2.8660    0.4781    0.0000 H   0  0  0  0  0  0  0  0  0  0  0  0
    1.4631    2.9081    0.0000 H   0  0  0  0  0  0  0  0  0  0  0  0
    1.4631    1.2881    0.0000 H   0  0  0  0  0  0  0  0  0  0  0  0
  1 22  1  0  0  0  0
  1 24  1  0  0  0  0
 16  2  1  1  0  0  0
  2 23  1  0  0  0  0
  3 17  2  0  0  0  0
  4 23  2  0  0  0  0
  5 11  1  0  0  0  0
  5 17  1  0  0  0  0
  5 40  1  0  0  0  0
  6 22  2  0  0  0  0
  6 25  1  0  0  0  0
  7  8  1  0  0  0  0
  7  9  1  0  0  0  0
  7 10  1  1  0  0  0
  7 30  1  0  0  0  0
  8 11  1  0  0  0  0
  8 12  2  0  0  0  0
  9 13  1  0  0  0  0
  9 31  1  0  0  0  0
  9 32  1  0  0  0  0
 10 33  1  0  0  0  0
 10 34  1  0  0  0  0
 10 35  1  0  0  0  0
 11 14  2  0  0  0  0
 12 15  1  0  0  0  0
 12 36  1  0  0  0  0
 13 37  1  0  0  0  0
 13 38  1  0  0  0  0
 13 39  1  0  0  0  0
 14 18  1  0  0  0  0
 14 41  1  0  0  0  0
 15 18  2  0  0  0  0
 15 43  1  0  0  0  0
 16 17  1  0  0  0  0
 16 21  1  0  0  0  0
 16 42  1  0  0  0  0
 18 44  1  0  0  0  0
 19 20  1  0  0  0  0
 19 22  1  0  0  0  0
 19 45  1  0  0  0  0
 19 46  1  0  0  0  0
 20 23  1  0  0  0  0
 20 47  1  0  0  0  0
 20 48  1  0  0  0  0
 21 49  1  0  0  0  0
 21 50  1  0  0  0  0
 21 51  1  0  0  0  0
 24 25  1  0  0  0  0
 24 26  2  0  0  0  0
 25 27  2  0  0  0  0
 26 28  1  0  0  0  0
 26 52  1  0  0  0  0
 27 29  1  0  0  0  0
 27 53  1  0  0  0  0
 28 29  2  0  0  0  0
 28 54  1  0  0  0  0
 29 55  1  0  0  0  0
M  END
> <PUBCHEM_COMPOUND_CID>
7846992

> <PUBCHEM_COMPOUND_CANONICALIZED>
1

> <PUBCHEM_CACTVS_COMPLEXITY>
558

> <PUBCHEM_CACTVS_HBOND_ACCEPTOR>
5

> <PUBCHEM_CACTVS_HBOND_DONOR>
1

> <PUBCHEM_CACTVS_ROTATABLE_BOND>
9

> <PUBCHEM_CACTVS_SUBSKEYS>
AAADceB7MABAAAAAAAAAAAAAAAAAAWAAAAAwYAAAAAAAAFgB9AAAHgQQAAAADRyh3gIyybLIFAisAyXyXAKD8KBhCjhImD1wZJgKILLgkZWHIAhklAD4yAc0gMAOgAAAAAACAQAAAAAAAAQCAAAAAAAAAA==

> <PUBCHEM_IUPAC_OPENEYE_NAME>
[(1S)-1-methyl-2-[2-[(1S)-1-methylpropyl]anilino]-2-oxo-ethyl] 3-(1,3-benzothiazol-2-yl)propanoate

> <PUBCHEM_IUPAC_CAS_NAME>
3-(1,3-benzothiazol-2-yl)propanoic acid [(2S)-1-[2-[(2S)-butan-2-yl]anilino]-1-oxopropan-2-yl] ester

> <PUBCHEM_IUPAC_NAME>
[(2S)-1-[2-[(2S)-butan-2-yl]anilino]-1-oxopropan-2-yl] 3-(1,3-benzothiazol-2-yl)propanoate

> <PUBCHEM_IUPAC_SYSTEMATIC_NAME>
[(2S)-1-[[2-[(2S)-butan-2-yl]phenyl]amino]-1-oxidanylidene-propan-2-yl] 3-(1,3-benzothiazol-2-yl)propanoate

> <PUBCHEM_IUPAC_TRADITIONAL_NAME>
3-(1,3-benzothiazol-2-yl)propionic acid [(1S)-2-keto-1-methyl-2-[2-[(1S)-1-methylpropyl]anilino]ethyl] ester

> <PUBCHEM_IUPAC_INCHI>
InChI=1S/C23H26N2O3S/c1-4-15(2)17-9-5-6-10-18(17)25-23(27)16(3)28-22(26)14-13-21-24-19-11-7-8-12-20(19)29-21/h5-12,15-16H,4,13-14H2,1-3H3,(H,25,27)/t15-,16-/m0/s1

> <PUBCHEM_IUPAC_INCHIKEY>
BSCTVJGYRXBEGY-HOTGVXAUSA-N

> <PUBCHEM_XLOGP3_AA>
5.5

> <PUBCHEM_EXACT_MASS>
410.166414

> <PUBCHEM_MOLECULAR_FORMULA>
C23H26N2O3S

> <PUBCHEM_MOLECULAR_WEIGHT>
410.52914

> <PUBCHEM_OPENEYE_CAN_SMILES>
CCC(C)C1=CC=CC=C1NC(=O)C(C)OC(=O)CCC2=NC3=CC=CC=C3S2

> <PUBCHEM_OPENEYE_ISO_SMILES>
CC[C@H](C)C1=CC=CC=C1NC(=O)[C@H](C)OC(=O)CCC2=NC3=CC=CC=C3S2

> <PUBCHEM_CACTVS_TPSA>
96.5

> <PUBCHEM_MONOISOTOPIC_WEIGHT>
410.166414

> <PUBCHEM_TOTAL_CHARGE>
0

> <PUBCHEM_HEAVY_ATOM_COUNT>
29

> <PUBCHEM_ATOM_DEF_STEREO_COUNT>
2

> <PUBCHEM_ATOM_UDEF_STEREO_COUNT>
0

> <PUBCHEM_BOND_DEF_STEREO_COUNT>
0

> <PUBCHEM_BOND_UDEF_STEREO_COUNT>
0

> <PUBCHEM_ISOTOPIC_ATOM_COUNT>
0

> <PUBCHEM_COMPONENT_COUNT>
1

> <PUBCHEM_CACTVS_TAUTO_COUNT>
6

> <PUBCHEM_COORDINATE_TYPE>
1
5
255

> <PUBCHEM_BONDANNOTATIONS>
1  22  8
1  24  8
11  14  8
12  15  8
14  18  8
15  18  8
16  2  5
24  25  8
24  26  8
25  27  8
26  28  8
27  29  8
28  29  8
6  22  8
6  25  8
7  10  5
8  11  8
8  12  8

$$$$

