6583
  -OEChem-06261201242D

 10  9  0     0  0  0  0  0  0999 V2000
    4.2690   -0.9050    0.0000 S   0  0  0  0  0  0  0  0  0  0  0  0
    5.1350    0.5950    0.0000 N   0  0  0  0  0  0  0  0  0  0  0  0
    3.4030    0.5950    0.0000 N   0  0  0  0  0  0  0  0  0  0  0  0
    2.5369    0.0950    0.0000 N   0  0  0  0  0  0  0  0  0  0  0  0
    4.2690    0.0950    0.0000 C   0  0  0  0  0  0  0  0  0  0  0  0
    5.6719    0.2850    0.0000 H   0  0  0  0  0  0  0  0  0  0  0  0
    5.1350    1.2150    0.0000 H   0  0  0  0  0  0  0  0  0  0  0  0
    2.0000    0.4050    0.0000 H   0  0  0  0  0  0  0  0  0  0  0  0
    2.5369   -0.5250    0.0000 H   0  0  0  0  0  0  0  0  0  0  0  0
    3.7321   -1.2150    0.0000 H   0  0  0  0  0  0  0  0  0  0  0  0
  1  5  1  0  0  0  0
  1 10  1  0  0  0  0
  2  5  1  0  0  0  0
  2  6  1  0  0  0  0
  2  7  1  0  0  0  0
  3  4  1  0  0  0  0
  3  5  2  3  0  0  0
  4  8  1  0  0  0  0
  4  9  1  0  0  0  0
M  END
> <PUBCHEM_COMPOUND_CID>
6583

> <PUBCHEM_COMPOUND_CANONICALIZED>
1

> <PUBCHEM_CACTVS_COMPLEXITY>
48.9

> <PUBCHEM_CACTVS_HBOND_ACCEPTOR>
3

> <PUBCHEM_CACTVS_HBOND_DONOR>
3

> <PUBCHEM_CACTVS_ROTATABLE_BOND>
0

> <PUBCHEM_CACTVS_SUBSKEYS>
AAADcYADAABAAAAAAAAAAAAAAAAAAAAAAAAAAAAAAAAAAAAAAAAABAQYAAAAAAAAAAABAABCAAQgAAAAIAAAAAAAAAAAAAAAAAAAAAAAAAAAAAAAAAAAAAAAAAAAAAAAAAAAAAAAAAAAAAAAAAAAAAAAAA==

> <PUBCHEM_IUPAC_OPENEYE_NAME>
3-aminoisothiourea

> <PUBCHEM_IUPAC_CAS_NAME>
N'-aminocarbamimidothioic acid

> <PUBCHEM_IUPAC_NAME>
N'-aminocarbamimidothioic acid

> <PUBCHEM_IUPAC_SYSTEMATIC_NAME>
N'-azanylcarbamimidothioic acid

> <PUBCHEM_IUPAC_TRADITIONAL_NAME>
3-aminoisothiourea

> <PUBCHEM_IUPAC_INCHI>
InChI=1S/CH5N3S/c2-1(5)4-3/h3H2,(H3,2,4,5)

> <PUBCHEM_IUPAC_INCHIKEY>
BRWIZMBXBAOCCF-UHFFFAOYSA-N

> <PUBCHEM_XLOGP3_AA>
-0.3

> <PUBCHEM_EXACT_MASS>
91.020418

> <PUBCHEM_MOLECULAR_FORMULA>
CH5N3S

> <PUBCHEM_MOLECULAR_WEIGHT>
91.1355

> <PUBCHEM_OPENEYE_CAN_SMILES>
C(=NN)(N)S

> <PUBCHEM_OPENEYE_ISO_SMILES>
C(=NN)(N)S

> <PUBCHEM_CACTVS_TPSA>
65.4

> <PUBCHEM_MONOISOTOPIC_WEIGHT>
91.020418

> <PUBCHEM_TOTAL_CHARGE>
0

> <PUBCHEM_HEAVY_ATOM_COUNT>
5

> <PUBCHEM_ATOM_DEF_STEREO_COUNT>
0

> <PUBCHEM_ATOM_UDEF_STEREO_COUNT>
0

> <PUBCHEM_BOND_DEF_STEREO_COUNT>
0

> <PUBCHEM_BOND_UDEF_STEREO_COUNT>
1

> <PUBCHEM_ISOTOPIC_ATOM_COUNT>
0

> <PUBCHEM_COMPONENT_COUNT>
1

> <PUBCHEM_CACTVS_TAUTO_COUNT>
3

> <PUBCHEM_COORDINATE_TYPE>
1
5
255

$$$$

