8224
  -OEChem-06261202402D

 10  8  0     0  0  0  0  0  0999 V2000
    0.0000    1.0000    0.0000 Na  0  3  0  0  0  0  0  0  0  0  0  0
    2.5981    2.5000    0.0000 O   0  0  0  0  0  0  0  0  0  0  0  0
    0.8660    1.5000    0.0000 O   0  5  0  0  0  0  0  0  0  0  0  0
    1.7321    0.0000    0.0000 O   0  0  0  0  0  0  0  0  0  0  0  0
    3.4641    1.0000    0.0000 C   0  0  0  0  0  0  0  0  0  0  0  0
    2.5981    1.5000    0.0000 C   0  0  0  0  0  0  0  0  0  0  0  0
    1.7321    1.0000    0.0000 C   0  0  0  0  0  0  0  0  0  0  0  0
    3.1541    0.4631    0.0000 H   0  0  0  0  0  0  0  0  0  0  0  0
    4.0010    0.6900    0.0000 H   0  0  0  0  0  0  0  0  0  0  0  0
    3.7741    1.5369    0.0000 H   0  0  0  0  0  0  0  0  0  0  0  0
  2  6  2  0  0  0  0
  3  7  1  0  0  0  0
  4  7  2  0  0  0  0
  5  6  1  0  0  0  0
  5  8  1  0  0  0  0
  5  9  1  0  0  0  0
  5 10  1  0  0  0  0
  6  7  1  0  0  0  0
M  CHG  2   1   1   3  -1
M  END
> <PUBCHEM_COMPOUND_CID>
8224

> <PUBCHEM_COMPOUND_CANONICALIZED>
1

> <PUBCHEM_CACTVS_COMPLEXITY>
78.5

> <PUBCHEM_CACTVS_HBOND_ACCEPTOR>
3

> <PUBCHEM_CACTVS_HBOND_DONOR>
0

> <PUBCHEM_CACTVS_ROTATABLE_BOND>
0

> <PUBCHEM_CACTVS_SUBSKEYS>
AAADcQBAMCAAAAAAAAAAAAAAAAAAAAAAAAAAAAAAAAAAAAAAAAAAGgAAAAAACASAgAACCAAAAAAIAICQCAIAAAAAAAAAAAFAAAAAAAAAAAAAAAAAAAAAAAAAAAAAAAAAAAAAAAAAAAAAAAAAAAAAAAAAAA==

> <PUBCHEM_IUPAC_OPENEYE_NAME>
sodium 2-oxopropanoate

> <PUBCHEM_IUPAC_CAS_NAME>
sodium 2-oxopropanoate

> <PUBCHEM_IUPAC_NAME>
sodium 2-oxopropanoate

> <PUBCHEM_IUPAC_SYSTEMATIC_NAME>
sodium 2-oxidanylidenepropanoate

> <PUBCHEM_IUPAC_TRADITIONAL_NAME>
sodium pyruvate

> <PUBCHEM_IUPAC_INCHI>
InChI=1S/C3H4O3.Na/c1-2(4)3(5)6;/h1H3,(H,5,6);/q;+1/p-1

> <PUBCHEM_IUPAC_INCHIKEY>
DAEPDZWVDSPTHF-UHFFFAOYSA-M

> <PUBCHEM_EXACT_MASS>
109.997988

> <PUBCHEM_MOLECULAR_FORMULA>
C3H3NaO3

> <PUBCHEM_MOLECULAR_WEIGHT>
110.043889

> <PUBCHEM_OPENEYE_CAN_SMILES>
CC(=O)C(=O)[O-].[Na+]

> <PUBCHEM_OPENEYE_ISO_SMILES>
CC(=O)C(=O)[O-].[Na+]

> <PUBCHEM_CACTVS_TPSA>
57.2

> <PUBCHEM_MONOISOTOPIC_WEIGHT>
109.997988

> <PUBCHEM_TOTAL_CHARGE>
0

> <PUBCHEM_HEAVY_ATOM_COUNT>
7

> <PUBCHEM_ATOM_DEF_STEREO_COUNT>
0

> <PUBCHEM_ATOM_UDEF_STEREO_COUNT>
0

> <PUBCHEM_BOND_DEF_STEREO_COUNT>
0

> <PUBCHEM_BOND_UDEF_STEREO_COUNT>
0

> <PUBCHEM_ISOTOPIC_ATOM_COUNT>
0

> <PUBCHEM_COMPONENT_COUNT>
2

> <PUBCHEM_CACTVS_TAUTO_COUNT>
2

> <PUBCHEM_COORDINATE_TYPE>
1
5
255

$$$$

