12573
  -OEChem-06261207063D

 14 14  0     0  0  0  0  0  0999 V2000
    2.6231   -0.4224   -1.5935 Cl  0  0  0  0  0  0  0  0  0  0  0  0
    2.6530    1.0055    1.2434 Cl  0  0  0  0  0  0  0  0  0  0  0  0
    1.9031   -0.7479    0.3560 P   0  0  0  0  0  0  0  0  0  0  0  0
    0.1483   -0.3093    0.1538 C   0  0  0  0  0  0  0  0  0  0  0  0
   -0.2062    0.9749   -0.2598 C   0  0  0  0  0  0  0  0  0  0  0  0
   -0.8422   -1.2568    0.4126 C   0  0  0  0  0  0  0  0  0  0  0  0
   -1.5509    1.3117   -0.4145 C   0  0  0  0  0  0  0  0  0  0  0  0
   -2.1870   -0.9200    0.2578 C   0  0  0  0  0  0  0  0  0  0  0  0
   -2.5412    0.3643   -0.1558 C   0  0  0  0  0  0  0  0  0  0  0  0
    0.5339    1.7368   -0.4891 H   0  0  0  0  0  0  0  0  0  0  0  0
   -0.5886   -2.2637    0.7358 H   0  0  0  0  0  0  0  0  0  0  0  0
   -1.8271    2.3103   -0.7405 H   0  0  0  0  0  0  0  0  0  0  0  0
   -2.9584   -1.6576    0.4589 H   0  0  0  0  0  0  0  0  0  0  0  0
   -3.5882    0.6261   -0.2773 H   0  0  0  0  0  0  0  0  0  0  0  0
  1  3  1  0  0  0  0
  2  3  1  0  0  0  0
  3  4  1  0  0  0  0
  4  5  2  0  0  0  0
  4  6  1  0  0  0  0
  5  7  1  0  0  0  0
  5 10  1  0  0  0  0
  6  8  2  0  0  0  0
  6 11  1  0  0  0  0
  7  9  2  0  0  0  0
  7 12  1  0  0  0  0
  8  9  1  0  0  0  0
  8 13  1  0  0  0  0
  9 14  1  0  0  0  0
M  END
> <PUBCHEM_COMPOUND_CID>
12573

> <PUBCHEM_CONFORMER_RMSD>
0.4

> <PUBCHEM_CONFORMER_DIVERSEORDER>
1
2

> <PUBCHEM_MMFF94_PARTIAL_CHARGES>
14
1 -0.21
10 0.15
11 0.15
12 0.15
13 0.15
14 0.15
2 -0.21
3 0.41
4 0.01
5 -0.15
6 -0.15
7 -0.15
8 -0.15
9 -0.15

> <PUBCHEM_EFFECTIVE_ROTOR_COUNT>
1

> <PUBCHEM_PHARMACOPHORE_FEATURES>
1
6 4 5 6 7 8 9 rings

> <PUBCHEM_HEAVY_ATOM_COUNT>
9

> <PUBCHEM_ATOM_DEF_STEREO_COUNT>
0

> <PUBCHEM_ATOM_UDEF_STEREO_COUNT>
0

> <PUBCHEM_BOND_DEF_STEREO_COUNT>
0

> <PUBCHEM_BOND_UDEF_STEREO_COUNT>
0

> <PUBCHEM_ISOTOPIC_ATOM_COUNT>
0

> <PUBCHEM_COMPONENT_COUNT>
1

> <PUBCHEM_CACTVS_TAUTO_COUNT>
1

> <PUBCHEM_CONFORMER_ID>
0000311D00000001

> <PUBCHEM_MMFF94_ENERGY>
20.3136

> <PUBCHEM_FEATURE_SELFOVERLAP>
5.074

> <PUBCHEM_SHAPE_FINGERPRINT>
10857977 72 18271533000404185881
12716758 59 18341048617937368571
12897270 3 18271229582597977990
12932741 1 18259702315513771094
12932764 1 18408038532834040538
14390081 3 18409457998060899824
15310529 11 15863789486916480795
16945 1 18273495658909153147
20645464 45 18261402138978579226
20653085 51 17168983546792290185
20711985 344 16521852917606742590
21040471 1 18128260188643444521
23552423 10 17702944880099630082
2748010 2 18198341745791108303
29004967 10 17022907877659574242
3248919 1 16877951550298319106
369184 2 18338812172710738587
5084963 1 17773880993867704570

> <PUBCHEM_SHAPE_MULTIPOLES>
192.8
4.25
1.41
1.18
0.97
0.13
-0.25
0.2
-0.17
-0.12
0.13
1.12
0.02
0.81

> <PUBCHEM_SHAPE_SELFOVERLAP>
356.193

> <PUBCHEM_SHAPE_VOLUME>
124.7

> <PUBCHEM_COORDINATE_TYPE>
2
5
10

$$$$

