10801
  -OEChem-06261204583D

 23 22  0     0  0  0  0  0  0999 V2000
    0.9411   -2.3925   -0.7209 O   0  0  0  0  0  0  0  0  0  0  0  0
    1.1282    2.3599   -0.6927 O   0  0  0  0  0  0  0  0  0  0  0  0
    1.6957   -1.3932    1.1677 O   0  0  0  0  0  0  0  0  0  0  0  0
    1.8045    1.2968    1.1960 O   0  0  0  0  0  0  0  0  0  0  0  0
   -0.5663    0.0467   -1.0807 C   0  0  0  0  0  0  0  0  0  0  0  0
   -1.5279    0.0054    0.1155 C   0  0  0  0  0  0  0  0  0  0  0  0
    0.9204   -0.0008   -0.6827 C   0  0  0  0  0  0  0  0  0  0  0  0
   -3.0010    0.0996   -0.2922 C   0  0  0  0  0  0  0  0  0  0  0  0
   -3.9634    0.0279    0.8834 C   0  0  0  0  0  0  0  0  0  0  0  0
    1.2372   -1.3035    0.0368 C   0  0  0  0  0  0  0  0  0  0  0  0
    1.3316    1.2537    0.0699 C   0  0  0  0  0  0  0  0  0  0  0  0
   -0.7972   -0.7947   -1.7463 H   0  0  0  0  0  0  0  0  0  0  0  0
   -0.7650    0.9552   -1.6627 H   0  0  0  0  0  0  0  0  0  0  0  0
   -1.3005    0.8304    0.8011 H   0  0  0  0  0  0  0  0  0  0  0  0
   -1.3786   -0.9242    0.6775 H   0  0  0  0  0  0  0  0  0  0  0  0
    1.5396   -0.0122   -1.5907 H   0  0  0  0  0  0  0  0  0  0  0  0
   -3.2365   -0.7126   -0.9902 H   0  0  0  0  0  0  0  0  0  0  0  0
   -3.1688    1.0400   -0.8307 H   0  0  0  0  0  0  0  0  0  0  0  0
   -4.9977    0.1007    0.5335 H   0  0  0  0  0  0  0  0  0  0  0  0
   -3.7820    0.8472    1.5861 H   0  0  0  0  0  0  0  0  0  0  0  0
   -3.8511   -0.9182    1.4223 H   0  0  0  0  0  0  0  0  0  0  0  0
    1.1410   -3.2299   -0.2506 H   0  0  0  0  0  0  0  0  0  0  0  0
    1.3977    3.1797   -0.2262 H   0  0  0  0  0  0  0  0  0  0  0  0
  1 10  1  0  0  0  0
  1 22  1  0  0  0  0
  2 11  1  0  0  0  0
  2 23  1  0  0  0  0
  3 10  2  0  0  0  0
  4 11  2  0  0  0  0
  5  6  1  0  0  0  0
  5  7  1  0  0  0  0
  5 12  1  0  0  0  0
  5 13  1  0  0  0  0
  6  8  1  0  0  0  0
  6 14  1  0  0  0  0
  6 15  1  0  0  0  0
  7 10  1  0  0  0  0
  7 11  1  0  0  0  0
  7 16  1  0  0  0  0
  8  9  1  0  0  0  0
  8 17  1  0  0  0  0
  8 18  1  0  0  0  0
  9 19  1  0  0  0  0
  9 20  1  0  0  0  0
  9 21  1  0  0  0  0
M  END
> <PUBCHEM_COMPOUND_CID>
10801

> <PUBCHEM_CONFORMER_RMSD>
0.6

> <PUBCHEM_CONFORMER_DIVERSEORDER>
1
40
22
10
30
39
23
37
32
35
2
33
41
14
36
25
34
16
5
31
28
29
38
24
27
20
21
6
3
4
26
19
12
8
18
13
11
9
17
15
7

> <PUBCHEM_MMFF94_PARTIAL_CHARGES>
9
1 -0.65
10 0.66
11 0.66
2 -0.65
22 0.5
23 0.5
3 -0.57
4 -0.57
7 0.12

> <PUBCHEM_EFFECTIVE_ROTOR_COUNT>
5

> <PUBCHEM_PHARMACOPHORE_FEATURES>
9
1 1 acceptor
1 2 acceptor
1 3 acceptor
1 4 acceptor
1 7 anion
1 9 hydrophobe
3 1 3 10 anion
3 2 4 11 anion
4 5 6 7 8 hydrophobe

> <PUBCHEM_HEAVY_ATOM_COUNT>
11

> <PUBCHEM_ATOM_DEF_STEREO_COUNT>
0

> <PUBCHEM_ATOM_UDEF_STEREO_COUNT>
0

> <PUBCHEM_BOND_DEF_STEREO_COUNT>
0

> <PUBCHEM_BOND_UDEF_STEREO_COUNT>
0

> <PUBCHEM_ISOTOPIC_ATOM_COUNT>
0

> <PUBCHEM_COMPONENT_COUNT>
1

> <PUBCHEM_CACTVS_TAUTO_COUNT>
1

> <PUBCHEM_CONFORMER_ID>
00002A3100000001

> <PUBCHEM_MMFF94_ENERGY>
7.2433

> <PUBCHEM_FEATURE_SELFOVERLAP>
46.291

> <PUBCHEM_SHAPE_FINGERPRINT>
12932764 1 18410285922407032789
15775835 57 17749953254489370825
20559304 39 18040988596667601257
20653091 64 18340758355520867457
20711978 78 18337118959300884655
20871998 22 18121497118238265678
21040471 1 18047475513154958564
21061003 4 18193852658447183618
21524375 3 17977947886545543613
21730867 7 18342730793882476755
230 275 18335981982784421317
23552449 11 18342742952803152855
528862 383 18411709763509487339
81228 2 17402902613807763724

> <PUBCHEM_SHAPE_MULTIPOLES>
202.9
4.35
1.99
1.11
6.44
0.09
0.12
-0.18
1.41
-1.91
-0.17
-0.16
0
0.01

> <PUBCHEM_SHAPE_SELFOVERLAP>
384.199

> <PUBCHEM_SHAPE_VOLUME>
124.7

> <PUBCHEM_COORDINATE_TYPE>
2
5
10

$$$$

