5134
  -OEChem-06261200322D

 51 53  0     1  0  0  0  0  0999 V2000
    5.4839    1.9661    0.0000 S   0  0  3  0  0  0  0  0  0  0  0  0
    4.5317   -0.5355    0.0000 O   0  0  0  0  0  0  0  0  0  0  0  0
    6.8814    0.5482    0.0000 O   0  0  0  0  0  0  0  0  0  0  0  0
    6.8777   -1.6274    0.0000 O   0  0  0  0  0  0  0  0  0  0  0  0
    2.6062    5.2400    0.0000 O   0  0  0  0  0  0  0  0  0  0  0  0
    2.2432    3.5465    0.0000 O   0  0  0  0  0  0  0  0  0  0  0  0
    4.8074   -2.2961    0.0000 N   0  0  0  0  0  0  0  0  0  0  0  0
    4.8074   -3.9055    0.0000 N   0  0  0  0  0  0  0  0  0  0  0  0
    2.9952   -2.1008    0.0000 N   0  0  0  0  0  0  0  0  0  0  0  0
    4.5618    4.8208    0.0000 N   0  0  0  0  0  0  0  0  0  0  0  0
    2.1291   -3.6008    0.0000 N   0  0  0  0  0  0  0  0  0  0  0  0
    2.9952   -5.1008    0.0000 N   0  0  0  0  0  0  0  0  0  0  0  0
    5.1209    0.2725    0.0000 C   0  0  3  0  0  0  0  0  0  0  0  0
    6.0714   -0.0382    0.0000 C   0  0  3  0  0  0  0  0  0  0  0  0
    6.0697   -1.0382    0.0000 C   0  0  3  0  0  0  0  0  0  0  0  0
    4.8135    1.2241    0.0000 C   0  0  0  0  0  0  0  0  0  0  0  0
    5.1181   -1.3456    0.0000 C   0  0  3  0  0  0  0  0  0  0  0  0
    5.1765    2.9176    0.0000 C   0  0  0  0  0  0  0  0  0  0  0  0
    6.1543    2.7080    0.0000 C   0  0  0  0  0  0  0  0  0  0  0  0
    4.1988    3.1272    0.0000 C   0  0  0  0  0  0  0  0  0  0  0  0
    3.8612   -2.6008    0.0000 C   0  0  0  0  0  0  0  0  0  0  0  0
    5.3910   -3.1008    0.0000 C   0  0  0  0  0  0  0  0  0  0  0  0
    3.8914    4.0788    0.0000 C   0  0  3  0  0  0  0  0  0  0  0  0
    3.8612   -3.6008    0.0000 C   0  0  0  0  0  0  0  0  0  0  0  0
    2.9136    4.2884    0.0000 C   0  0  0  0  0  0  0  0  0  0  0  0
    2.9952   -4.1008    0.0000 C   0  0  0  0  0  0  0  0  0  0  0  0
    2.1291   -2.6008    0.0000 C   0  0  0  0  0  0  0  0  0  0  0  0
    4.5087    0.3705    0.0000 H   0  0  0  0  0  0  0  0  0  0  0  0
    5.9755    0.5743    0.0000 H   0  0  0  0  0  0  0  0  0  0  0  0
    5.9716   -1.6504    0.0000 H   0  0  0  0  0  0  0  0  0  0  0  0
    4.4326    1.7133    0.0000 H   0  0  0  0  0  0  0  0  0  0  0  0
    4.2656    0.9339    0.0000 H   0  0  0  0  0  0  0  0  0  0  0  0
    4.5055   -1.4415    0.0000 H   0  0  0  0  0  0  0  0  0  0  0  0
    4.8777    2.0960    0.0000 H   0  0  0  0  0  0  0  0  0  0  0  0
    5.7907    3.0029    0.0000 H   0  0  0  0  0  0  0  0  0  0  0  0
    5.1993    3.5372    0.0000 H   0  0  0  0  0  0  0  0  0  0  0  0
    6.6144    2.2924    0.0000 H   0  0  0  0  0  0  0  0  0  0  0  0
    5.6943    3.1237    0.0000 H   0  0  0  0  0  0  0  0  0  0  0  0
    6.5700    3.1681    0.0000 H   0  0  0  0  0  0  0  0  0  0  0  0
    3.5846    3.0420    0.0000 H   0  0  0  0  0  0  0  0  0  0  0  0
    4.1760    2.5077    0.0000 H   0  0  0  0  0  0  0  0  0  0  0  0
    7.4474    0.2950    0.0000 H   0  0  0  0  0  0  0  0  0  0  0  0
    7.4445   -1.3762    0.0000 H   0  0  0  0  0  0  0  0  0  0  0  0
    6.0110   -3.1008    0.0000 H   0  0  0  0  0  0  0  0  0  0  0  0
    4.4976    3.9489    0.0000 H   0  0  0  0  0  0  0  0  0  0  0  0
    5.1680    4.6909    0.0000 H   0  0  0  0  0  0  0  0  0  0  0  0
    4.3712    5.4108    0.0000 H   0  0  0  0  0  0  0  0  0  0  0  0
    1.5922   -2.2908    0.0000 H   0  0  0  0  0  0  0  0  0  0  0  0
    3.5321   -5.4108    0.0000 H   0  0  0  0  0  0  0  0  0  0  0  0
    2.4582   -5.4108    0.0000 H   0  0  0  0  0  0  0  0  0  0  0  0
    2.0000    5.3700    0.0000 H   0  0  0  0  0  0  0  0  0  0  0  0
  1 16  1  0  0  0  0
  1 18  1  0  0  0  0
  1 19  1  0  0  0  0
  1 34  1  0  0  0  0
  2 13  1  0  0  0  0
  2 17  1  0  0  0  0
  3 14  1  0  0  0  0
  3 42  1  0  0  0  0
  4 15  1  0  0  0  0
  4 43  1  0  0  0  0
  5 25  1  0  0  0  0
  5 51  1  0  0  0  0
  6 25  2  0  0  0  0
  7 17  1  0  0  0  0
  7 21  1  0  0  0  0
  7 22  1  0  0  0  0
  8 22  2  0  0  0  0
  8 24  1  0  0  0  0
  9 21  2  0  0  0  0
  9 27  1  0  0  0  0
 10 23  1  0  0  0  0
 10 46  1  0  0  0  0
 10 47  1  0  0  0  0
 11 26  1  0  0  0  0
 11 27  2  0  0  0  0
 12 26  1  0  0  0  0
 12 49  1  0  0  0  0
 12 50  1  0  0  0  0
 13 14  1  0  0  0  0
 13 16  1  0  0  0  0
 13 28  1  0  0  0  0
 14 15  1  0  0  0  0
 14 29  1  0  0  0  0
 15 17  1  0  0  0  0
 15 30  1  0  0  0  0
 16 31  1  0  0  0  0
 16 32  1  0  0  0  0
 17 33  1  0  0  0  0
 18 20  1  0  0  0  0
 18 35  1  0  0  0  0
 18 36  1  0  0  0  0
 19 37  1  0  0  0  0
 19 38  1  0  0  0  0
 19 39  1  0  0  0  0
 20 23  1  0  0  0  0
 20 40  1  0  0  0  0
 20 41  1  0  0  0  0
 21 24  1  0  0  0  0
 22 44  1  0  0  0  0
 23 25  1  0  0  0  0
 23 45  1  0  0  0  0
 24 26  2  0  0  0  0
 27 48  1  0  0  0  0
M  END
> <PUBCHEM_COMPOUND_CID>
5134

> <PUBCHEM_COMPOUND_CANONICALIZED>
1

> <PUBCHEM_CACTVS_COMPLEXITY>
533

> <PUBCHEM_CACTVS_HBOND_ACCEPTOR>
11

> <PUBCHEM_CACTVS_HBOND_DONOR>
6

> <PUBCHEM_CACTVS_ROTATABLE_BOND>
7

> <PUBCHEM_CACTVS_SUBSKEYS>
AAADceBzuABAAAAAAAAAAAAAAAAAAWJAAAAsAAAAAAAAAFgB+AAAHgQQCAAACDzl1waH+L9MFgyoAQbxbACAgC0RELABUKGoVBCDWBJgyEAeRAgPEALzACCwAAAAAAAAAAAAAAAAAAAAAAAAAAAAAAAAAA==

> <PUBCHEM_IUPAC_OPENEYE_NAME>
2-amino-4-[[5-(6-aminopurin-9-yl)-3,4-dihydroxy-tetrahydrofuran-2-yl]methyl-methyl-$l^{4}-sulfanyl]butanoic acid

> <PUBCHEM_IUPAC_CAS_NAME>
2-amino-4-[[5-(6-aminopurin-9-yl)-3,4-dihydroxy-2-oxolanyl]methyl-methyl-$l^{4}-sulfanyl]butanoic acid

> <PUBCHEM_IUPAC_NAME>
2-amino-4-[[5-(6-aminopurin-9-yl)-3,4-dihydroxyoxolan-2-yl]methyl-methyl-$l^{4}-sulfanyl]butanoic acid

> <PUBCHEM_IUPAC_SYSTEMATIC_NAME>
4-[[5-(6-aminopurin-9-yl)-3,4-bis(oxidanyl)oxolan-2-yl]methyl-methyl-$l^{4}-sulfanyl]-2-azanyl-butanoic acid

> <PUBCHEM_IUPAC_TRADITIONAL_NAME>
4-[(5-adenin-9-yl-3,4-dihydroxy-tetrahydrofuran-2-yl)methyl-methyl-sulfuranyl]-2-amino-butyric acid

> <PUBCHEM_IUPAC_INCHI>
InChI=1S/C15H24N6O5S/c1-27(3-2-7(16)15(24)25)4-8-10(22)11(23)14(26-8)21-6-20-9-12(17)18-5-19-13(9)21/h5-8,10-11,14,22-23,27H,2-4,16H2,1H3,(H,24,25)(H2,17,18,19)

> <PUBCHEM_IUPAC_INCHIKEY>
QOWKLNSTGYYNGX-UHFFFAOYSA-N

> <PUBCHEM_XLOGP3>
-3.5

> <PUBCHEM_EXACT_MASS>
400.152889

> <PUBCHEM_MOLECULAR_FORMULA>
C15H24N6O5S

> <PUBCHEM_MOLECULAR_WEIGHT>
400.45326

> <PUBCHEM_OPENEYE_CAN_SMILES>
CS(CCC(C(=O)O)N)CC1C(C(C(O1)N2C=NC3=C2N=CN=C3N)O)O

> <PUBCHEM_OPENEYE_ISO_SMILES>
CS(CCC(C(=O)O)N)CC1C(C(C(O1)N2C=NC3=C2N=CN=C3N)O)O

> <PUBCHEM_CACTVS_TPSA>
184

> <PUBCHEM_MONOISOTOPIC_WEIGHT>
400.152889

> <PUBCHEM_TOTAL_CHARGE>
0

> <PUBCHEM_HEAVY_ATOM_COUNT>
27

> <PUBCHEM_ATOM_DEF_STEREO_COUNT>
0

> <PUBCHEM_ATOM_UDEF_STEREO_COUNT>
0

> <PUBCHEM_BOND_DEF_STEREO_COUNT>
0

> <PUBCHEM_BOND_UDEF_STEREO_COUNT>
0

> <PUBCHEM_ISOTOPIC_ATOM_COUNT>
0

> <PUBCHEM_COMPONENT_COUNT>
1

> <PUBCHEM_CACTVS_TAUTO_COUNT>
3

> <PUBCHEM_COORDINATE_TYPE>
1
5
255

> <PUBCHEM_BONDANNOTATIONS>
11  26  8
11  27  8
21  24  8
24  26  8
7  21  8
7  22  8
8  22  8
8  24  8
9  21  8
9  27  8

$$$$

