9092
  -OEChem-06261203243D

 27 28  0     0  0  0  0  0  0999 V2000
    0.8276    0.1284   -1.0984 N   0  0  0  0  0  0  0  0  0  0  0  0
    0.2868    0.0235    0.2742 C   0  0  0  0  0  0  0  0  0  0  0  0
    1.5225   -0.0248    1.1924 C   0  0  0  0  0  0  0  0  0  0  0  0
   -0.5182   -1.2901    0.3777 C   0  0  0  0  0  0  0  0  0  0  0  0
   -0.6200    1.2195    0.6311 C   0  0  0  0  0  0  0  0  0  0  0  0
    2.6724   -0.3447    0.2573 C   0  0  0  0  0  0  0  0  0  0  0  0
   -1.8167   -1.2617   -0.4298 C   0  0  0  0  0  0  0  0  0  0  0  0
   -1.9309    1.2460   -0.1572 C   0  0  0  0  0  0  0  0  0  0  0  0
    2.2647    0.3764   -1.0066 C   0  0  0  0  0  0  0  0  0  0  0  0
   -2.6883   -0.0724   -0.0407 C   0  0  0  0  0  0  0  0  0  0  0  0
    1.4444   -0.7649    1.9953 H   0  0  0  0  0  0  0  0  0  0  0  0
    1.7061    0.9527    1.6566 H   0  0  0  0  0  0  0  0  0  0  0  0
   -0.7690   -1.4796    1.4303 H   0  0  0  0  0  0  0  0  0  0  0  0
    0.0899   -2.1437    0.0508 H   0  0  0  0  0  0  0  0  0  0  0  0
   -0.0871    2.1653    0.4685 H   0  0  0  0  0  0  0  0  0  0  0  0
   -0.8587    1.1816    1.7025 H   0  0  0  0  0  0  0  0  0  0  0  0
    0.3764    0.8697   -1.6302 H   0  0  0  0  0  0  0  0  0  0  0  0
    3.6338    0.0011    0.6477 H   0  0  0  0  0  0  0  0  0  0  0  0
    2.7362   -1.4260    0.0859 H   0  0  0  0  0  0  0  0  0  0  0  0
   -2.3716   -2.1917   -0.2608 H   0  0  0  0  0  0  0  0  0  0  0  0
   -1.5919   -1.2195   -1.5023 H   0  0  0  0  0  0  0  0  0  0  0  0
   -1.7311    1.4611   -1.2133 H   0  0  0  0  0  0  0  0  0  0  0  0
   -2.5613    2.0627    0.2132 H   0  0  0  0  0  0  0  0  0  0  0  0
    2.4566    1.4521   -0.9169 H   0  0  0  0  0  0  0  0  0  0  0  0
    2.7935    0.0000   -1.8864 H   0  0  0  0  0  0  0  0  0  0  0  0
   -3.5796   -0.0436   -0.6775 H   0  0  0  0  0  0  0  0  0  0  0  0
   -3.0383   -0.2003    0.9911 H   0  0  0  0  0  0  0  0  0  0  0  0
  1  2  1  0  0  0  0
  1  9  1  0  0  0  0
  1 17  1  0  0  0  0
  2  3  1  0  0  0  0
  2  4  1  0  0  0  0
  2  5  1  0  0  0  0
  3  6  1  0  0  0  0
  3 11  1  0  0  0  0
  3 12  1  0  0  0  0
  4  7  1  0  0  0  0
  4 13  1  0  0  0  0
  4 14  1  0  0  0  0
  5  8  1  0  0  0  0
  5 15  1  0  0  0  0
  5 16  1  0  0  0  0
  6  9  1  0  0  0  0
  6 18  1  0  0  0  0
  6 19  1  0  0  0  0
  7 10  1  0  0  0  0
  7 20  1  0  0  0  0
  7 21  1  0  0  0  0
  8 10  1  0  0  0  0
  8 22  1  0  0  0  0
  8 23  1  0  0  0  0
  9 24  1  0  0  0  0
  9 25  1  0  0  0  0
 10 26  1  0  0  0  0
 10 27  1  0  0  0  0
M  END
> <PUBCHEM_COMPOUND_CID>
9092

> <PUBCHEM_CONFORMER_RMSD>
0.4

> <PUBCHEM_CONFORMER_DIVERSEORDER>
1
2
8
5
3
4
6
7
9

> <PUBCHEM_MMFF94_PARTIAL_CHARGES>
4
1 -0.9
17 0.36
2 0.27
9 0.27

> <PUBCHEM_EFFECTIVE_ROTOR_COUNT>
1.8

> <PUBCHEM_PHARMACOPHORE_FEATURES>
4
1 1 cation
1 1 donor
5 1 2 3 6 9 rings
6 2 4 5 7 8 10 rings

> <PUBCHEM_HEAVY_ATOM_COUNT>
10

> <PUBCHEM_ATOM_DEF_STEREO_COUNT>
0

> <PUBCHEM_ATOM_UDEF_STEREO_COUNT>
0

> <PUBCHEM_BOND_DEF_STEREO_COUNT>
0

> <PUBCHEM_BOND_UDEF_STEREO_COUNT>
0

> <PUBCHEM_ISOTOPIC_ATOM_COUNT>
0

> <PUBCHEM_COMPONENT_COUNT>
1

> <PUBCHEM_CACTVS_TAUTO_COUNT>
1

> <PUBCHEM_CONFORMER_ID>
0000238400000001

> <PUBCHEM_MMFF94_ENERGY>
7.0403

> <PUBCHEM_FEATURE_SELFOVERLAP>
20.303

> <PUBCHEM_SHAPE_FINGERPRINT>
10857977 72 17968107377846289249
12138202 97 18113908190156520453
12423570 1 14649032410431008513
12716758 59 18188206614672260683
12932764 1 18333730208597855314
13024252 1 17988918964059665555
14993402 34 17846216687127797374
15310529 11 17275105024654993893
15775835 57 17917422146563757245
16945 1 18334015007852814281
20201158 50 17312821597523418166
20653085 51 17774425166192530964
21040471 1 18264773336176714529
23235685 24 18410011082780416645
23552423 10 18272090560089715770
2748010 2 18048609114201763915
29004967 10 16081367457780758378
369184 2 18259991478286834290
5084963 1 18130510828647174393

> <PUBCHEM_SHAPE_MULTIPOLES>
200.81
3.69
1.28
1.04
0.33
0.04
0.03
0.04
0.38
-0.72
-0.05
0.5
-0.06
-0.19

> <PUBCHEM_SHAPE_SELFOVERLAP>
405.501

> <PUBCHEM_SHAPE_VOLUME>
117.1

> <PUBCHEM_COORDINATE_TYPE>
2
5
10

$$$$

