12240
  -OEChem-06261206423D

 24 23  0     0  0  0  0  0  0999 V2000
    1.4368   -0.5057    1.3336 O   0  0  0  0  0  0  0  0  0  0  0  0
    1.4462    0.0079   -0.0053 C   0  0  0  0  0  0  0  0  0  0  0  0
    0.0732    0.6647   -0.2549 C   0  0  0  0  0  0  0  0  0  0  0  0
   -1.1427   -0.2232    0.0239 C   0  0  0  0  0  0  0  0  0  0  0  0
   -2.4473    0.5487   -0.1856 C   0  0  0  0  0  0  0  0  0  0  0  0
    1.6940   -1.1862   -0.9279 C   0  0  0  0  0  0  0  0  0  0  0  0
    2.6006    1.0067   -0.1094 C   0  0  0  0  0  0  0  0  0  0  0  0
   -3.6608   -0.3129    0.1257 C   0  0  0  0  0  0  0  0  0  0  0  0
    0.0291    1.0329   -1.2878 H   0  0  0  0  0  0  0  0  0  0  0  0
   -0.0070    1.5462    0.3958 H   0  0  0  0  0  0  0  0  0  0  0  0
   -1.1329   -1.0944   -0.6402 H   0  0  0  0  0  0  0  0  0  0  0  0
   -1.1071   -0.5977    1.0534 H   0  0  0  0  0  0  0  0  0  0  0  0
   -2.4643    1.4353    0.4590 H   0  0  0  0  0  0  0  0  0  0  0  0
   -2.5098    0.8995   -1.2223 H   0  0  0  0  0  0  0  0  0  0  0  0
    1.6405   -0.8942   -1.9817 H   0  0  0  0  0  0  0  0  0  0  0  0
    2.6824   -1.6237   -0.7446 H   0  0  0  0  0  0  0  0  0  0  0  0
    0.9736   -1.9913   -0.7490 H   0  0  0  0  0  0  0  0  0  0  0  0
    2.6649    1.4384   -1.1135 H   0  0  0  0  0  0  0  0  0  0  0  0
    2.4737    1.8220    0.6117 H   0  0  0  0  0  0  0  0  0  0  0  0
    3.5594    0.5314    0.1270 H   0  0  0  0  0  0  0  0  0  0  0  0
   -3.6452   -0.6514    1.1666 H   0  0  0  0  0  0  0  0  0  0  0  0
   -3.6923   -1.1947   -0.5222 H   0  0  0  0  0  0  0  0  0  0  0  0
   -4.5813    0.2577   -0.0321 H   0  0  0  0  0  0  0  0  0  0  0  0
    2.3000   -0.9200    1.5048 H   0  0  0  0  0  0  0  0  0  0  0  0
  1  2  1  0  0  0  0
  1 24  1  0  0  0  0
  2  3  1  0  0  0  0
  2  6  1  0  0  0  0
  2  7  1  0  0  0  0
  3  4  1  0  0  0  0
  3  9  1  0  0  0  0
  3 10  1  0  0  0  0
  4  5  1  0  0  0  0
  4 11  1  0  0  0  0
  4 12  1  0  0  0  0
  5  8  1  0  0  0  0
  5 13  1  0  0  0  0
  5 14  1  0  0  0  0
  6 15  1  0  0  0  0
  6 16  1  0  0  0  0
  6 17  1  0  0  0  0
  7 18  1  0  0  0  0
  7 19  1  0  0  0  0
  7 20  1  0  0  0  0
  8 21  1  0  0  0  0
  8 22  1  0  0  0  0
  8 23  1  0  0  0  0
M  END
> <PUBCHEM_COMPOUND_CID>
12240

> <PUBCHEM_CONFORMER_RMSD>
0.6

> <PUBCHEM_CONFORMER_DIVERSEORDER>
2
10
1
8
3
6
4
9
7
5

> <PUBCHEM_MMFF94_PARTIAL_CHARGES>
3
1 -0.68
2 0.28
24 0.4

> <PUBCHEM_EFFECTIVE_ROTOR_COUNT>
3

> <PUBCHEM_PHARMACOPHORE_FEATURES>
4
1 1 acceptor
1 1 donor
1 8 hydrophobe
3 2 6 7 hydrophobe

> <PUBCHEM_HEAVY_ATOM_COUNT>
8

> <PUBCHEM_ATOM_DEF_STEREO_COUNT>
0

> <PUBCHEM_ATOM_UDEF_STEREO_COUNT>
0

> <PUBCHEM_BOND_DEF_STEREO_COUNT>
0

> <PUBCHEM_BOND_UDEF_STEREO_COUNT>
0

> <PUBCHEM_ISOTOPIC_ATOM_COUNT>
0

> <PUBCHEM_COMPONENT_COUNT>
1

> <PUBCHEM_CACTVS_TAUTO_COUNT>
1

> <PUBCHEM_CONFORMER_ID>
00002FD000000002

> <PUBCHEM_MMFF94_ENERGY>
9.0852

> <PUBCHEM_FEATURE_SELFOVERLAP>
20.297

> <PUBCHEM_SHAPE_FINGERPRINT>
11062470 55 17703793596107934693
12932764 1 17775001336466693821
14325111 11 18335136505782162453
14390081 3 18060138743270076565
170605 34 18342455894274102844
21040471 1 17749682791803304950
23235685 24 18187650175899738285
23552333 60 18342178894589965952
23552423 10 18263074590701296615
29004967 10 18261109685896706672
3248919 1 18261399974610499885
5460574 1 7997973470593144421

> <PUBCHEM_SHAPE_MULTIPOLES>
158.77
5
1.06
0.89
4.23
0.15
0.21
-0.15
-0.03
-0.6
-0.19
-0.35
0.12
0.14

> <PUBCHEM_SHAPE_SELFOVERLAP>
282.09

> <PUBCHEM_SHAPE_VOLUME>
105.2

> <PUBCHEM_COORDINATE_TYPE>
2
5
10

$$$$

