17395407
  -OEChem-06241222503D

 53 57  0     0  0  0  0  0  0999 V2000
   -1.2997    0.2213   -1.6120 O   0  0  0  0  0  0  0  0  0  0  0  0
   -1.8981   -0.1041    0.6077 N   0  0  0  0  0  0  0  0  0  0  0  0
    4.9925   -0.7258    0.0710 N   0  0  0  0  0  0  0  0  0  0  0  0
    4.7435    1.6460    0.2829 N   0  0  0  0  0  0  0  0  0  0  0  0
    5.9568   -1.6623    0.2754 N   0  0  0  0  0  0  0  0  0  0  0  0
    6.7585    0.4044    0.7859 N   0  0  0  0  0  0  0  0  0  0  0  0
   -3.3306   -0.0961    0.4064 C   0  0  0  0  0  0  0  0  0  0  0  0
   -5.5843   -0.2886    1.5434 C   0  0  0  0  0  0  0  0  0  0  0  0
   -5.2951    1.2699   -0.4173 C   0  0  0  0  0  0  0  0  0  0  0  0
   -5.2639   -1.2258   -0.7746 C   0  0  0  0  0  0  0  0  0  0  0  0
   -4.0602   -0.2995    1.7528 C   0  0  0  0  0  0  0  0  0  0  0  0
   -3.7722    1.2534   -0.2002 C   0  0  0  0  0  0  0  0  0  0  0  0
   -3.7412   -1.2329   -0.5558 C   0  0  0  0  0  0  0  0  0  0  0  0
   -6.0008    1.0606    0.9334 C   0  0  0  0  0  0  0  0  0  0  0  0
   -5.9700   -1.4218    0.5777 C   0  0  0  0  0  0  0  0  0  0  0  0
   -5.6823    0.1282   -1.3727 C   0  0  0  0  0  0  0  0  0  0  0  0
   -0.9967    0.0574   -0.4333 C   0  0  0  0  0  0  0  0  0  0  0  0
    0.4405    0.0239    0.0640 C   0  0  0  0  0  0  0  0  0  0  0  0
    1.4787    0.1976   -1.0424 C   0  0  0  0  0  0  0  0  0  0  0  0
    2.8816    0.1778   -0.5310 C   0  0  0  0  0  0  0  0  0  0  0  0
    3.6782   -0.9041   -0.3889 C   0  0  0  0  0  0  0  0  0  0  0  0
    3.5231    1.4926   -0.1379 C   0  0  0  0  0  0  0  0  0  0  0  0
    3.2656   -2.3219   -0.6850 C   0  0  0  0  0  0  0  0  0  0  0  0
    2.6867    2.7510   -0.2402 C   0  0  0  0  0  0  0  0  0  0  0  0
    5.5072    0.5291    0.3920 C   0  0  0  0  0  0  0  0  0  0  0  0
    6.9823   -0.9302    0.6988 C   0  0  0  0  0  0  0  0  0  0  0  0
   -6.0909   -0.4326    2.5042 H   0  0  0  0  0  0  0  0  0  0  0  0
   -5.5979    2.2313   -0.8469 H   0  0  0  0  0  0  0  0  0  0  0  0
   -5.5438   -2.0352   -1.4580 H   0  0  0  0  0  0  0  0  0  0  0  0
   -3.7544   -1.2491    2.2114 H   0  0  0  0  0  0  0  0  0  0  0  0
   -3.7768    0.4897    2.4617 H   0  0  0  0  0  0  0  0  0  0  0  0
   -3.4834    2.0785    0.4647 H   0  0  0  0  0  0  0  0  0  0  0  0
   -3.2874    1.4547   -1.1613 H   0  0  0  0  0  0  0  0  0  0  0  0
   -3.2542   -1.1444   -1.5327 H   0  0  0  0  0  0  0  0  0  0  0  0
   -3.4293   -2.2034   -0.1475 H   0  0  0  0  0  0  0  0  0  0  0  0
   -7.0887    1.0892    0.7957 H   0  0  0  0  0  0  0  0  0  0  0  0
   -5.7452    1.8770    1.6201 H   0  0  0  0  0  0  0  0  0  0  0  0
   -7.0573   -1.4370    0.4336 H   0  0  0  0  0  0  0  0  0  0  0  0
   -5.6923   -2.3917    1.0083 H   0  0  0  0  0  0  0  0  0  0  0  0
   -6.7646    0.1401   -1.5509 H   0  0  0  0  0  0  0  0  0  0  0  0
   -5.1977    0.2735   -2.3460 H   0  0  0  0  0  0  0  0  0  0  0  0
   -1.5428   -0.2308    1.5513 H   0  0  0  0  0  0  0  0  0  0  0  0
    0.5935   -0.9394    0.5676 H   0  0  0  0  0  0  0  0  0  0  0  0
    0.5494    0.8057    0.8243 H   0  0  0  0  0  0  0  0  0  0  0  0
    1.2747    1.1108   -1.6120 H   0  0  0  0  0  0  0  0  0  0  0  0
    1.3418   -0.5968   -1.7873 H   0  0  0  0  0  0  0  0  0  0  0  0
    3.4276   -2.9586    0.1919 H   0  0  0  0  0  0  0  0  0  0  0  0
    2.2094   -2.4157   -0.9493 H   0  0  0  0  0  0  0  0  0  0  0  0
    3.8521   -2.7226   -1.5188 H   0  0  0  0  0  0  0  0  0  0  0  0
    3.2273    3.5970    0.1969 H   0  0  0  0  0  0  0  0  0  0  0  0
    2.4931    2.9824   -1.2912 H   0  0  0  0  0  0  0  0  0  0  0  0
    1.7461    2.6434    0.3023 H   0  0  0  0  0  0  0  0  0  0  0  0
    7.9257   -1.3897    0.9526 H   0  0  0  0  0  0  0  0  0  0  0  0
  1 17  2  0  0  0  0
  2  7  1  0  0  0  0
  2 17  1  0  0  0  0
  2 42  1  0  0  0  0
  3  5  1  0  0  0  0
  3 21  1  0  0  0  0
  3 25  1  0  0  0  0
  4 22  2  0  0  0  0
  4 25  1  0  0  0  0
  5 26  2  0  0  0  0
  6 25  2  0  0  0  0
  6 26  1  0  0  0  0
  7 11  1  0  0  0  0
  7 12  1  0  0  0  0
  7 13  1  0  0  0  0
  8 11  1  0  0  0  0
  8 14  1  0  0  0  0
  8 15  1  0  0  0  0
  8 27  1  0  0  0  0
  9 12  1  0  0  0  0
  9 14  1  0  0  0  0
  9 16  1  0  0  0  0
  9 28  1  0  0  0  0
 10 13  1  0  0  0  0
 10 15  1  0  0  0  0
 10 16  1  0  0  0  0
 10 29  1  0  0  0  0
 11 30  1  0  0  0  0
 11 31  1  0  0  0  0
 12 32  1  0  0  0  0
 12 33  1  0  0  0  0
 13 34  1  0  0  0  0
 13 35  1  0  0  0  0
 14 36  1  0  0  0  0
 14 37  1  0  0  0  0
 15 38  1  0  0  0  0
 15 39  1  0  0  0  0
 16 40  1  0  0  0  0
 16 41  1  0  0  0  0
 17 18  1  0  0  0  0
 18 19  1  0  0  0  0
 18 43  1  0  0  0  0
 18 44  1  0  0  0  0
 19 20  1  0  0  0  0
 19 45  1  0  0  0  0
 19 46  1  0  0  0  0
 20 21  2  0  0  0  0
 20 22  1  0  0  0  0
 21 23  1  0  0  0  0
 22 24  1  0  0  0  0
 23 47  1  0  0  0  0
 23 48  1  0  0  0  0
 23 49  1  0  0  0  0
 24 50  1  0  0  0  0
 24 51  1  0  0  0  0
 24 52  1  0  0  0  0
 26 53  1  0  0  0  0
M  END
> <PUBCHEM_COMPOUND_CID>
17395407

> <PUBCHEM_CONFORMER_RMSD>
0.8

> <PUBCHEM_CONFORMER_DIVERSEORDER>
8
11
25
1
28
21
3
31
7
24
15
2
12
27
26
6
30
22
4
32
10
17
5
19
29
9
23
16
14
20
18
13

> <PUBCHEM_MMFF94_PARTIAL_CHARGES>
19
1 -0.57
17 0.57
18 0.06
19 0.14
2 -0.73
20 -0.12
21 -0.17
22 0.37
23 0.14
24 0.06
25 0.31
26 0.37
3 0.6
4 -0.58
42 0.37
5 -0.71
53 0.15
6 -0.57
7 0.3

> <PUBCHEM_EFFECTIVE_ROTOR_COUNT>
6.2

> <PUBCHEM_PHARMACOPHORE_FEATURES>
10
1 1 acceptor
1 2 donor
1 4 acceptor
4 3 4 6 25 cation
5 3 5 6 25 26 rings
6 3 4 20 21 22 25 rings
6 7 8 10 11 13 15 rings
6 7 8 9 11 12 14 rings
6 7 9 10 12 13 16 rings
6 8 9 10 14 15 16 rings

> <PUBCHEM_HEAVY_ATOM_COUNT>
26

> <PUBCHEM_ATOM_DEF_STEREO_COUNT>
0

> <PUBCHEM_ATOM_UDEF_STEREO_COUNT>
0

> <PUBCHEM_BOND_DEF_STEREO_COUNT>
0

> <PUBCHEM_BOND_UDEF_STEREO_COUNT>
0

> <PUBCHEM_ISOTOPIC_ATOM_COUNT>
0

> <PUBCHEM_COMPONENT_COUNT>
1

> <PUBCHEM_CACTVS_TAUTO_COUNT>
2

> <PUBCHEM_CONFORMER_ID>
01096ECF00000008

> <PUBCHEM_MMFF94_ENERGY>
61.4864

> <PUBCHEM_FEATURE_SELFOVERLAP>
63.419

> <PUBCHEM_SHAPE_FINGERPRINT>
10688039 33 18201440302956226236
10693767 8 11671241747365441040
11315181 36 18202001019573405101
11524674 6 17346313791696132291
11545043 162 17417806214981651529
11719270 70 18260269663967995062
12107183 9 17611736104393136307
12166972 35 18342453716684076892
12236239 1 17603305959811811118
12516196 113 18410292514728378520
12596602 18 17458062672721811810
12616971 3 18259983738940532933
13533116 47 18259984907889217866
13631057 29 17241058596200113655
13668630 136 14549016589456814578
13782708 43 17846501439238466370
14251764 18 18260266326128961700
14341114 176 18412823582132580532
14848160 23 18060137622167327299
14849402 71 18263363586731005232
15021287 119 18410299085965142485
15183329 4 18410294717798499636
15348495 7 18129937880025862017
15352257 5 16559033813495503906
15419008 47 17632303379750225949
15475509 35 17059795398768090104
15788980 27 18342735209045631613
17093844 174 17203896262579373813
17844677 252 18411694392233394525
17857418 61 18334577940489333303
18927931 339 15985105206954436559
19377110 9 17385998481650813163
19489759 90 17775568637443603453
20511986 3 17894643559907659967
21130935 74 18335422365894764802
21150785 3 8934994859132577609
21315763 129 18413671309523395581
21623969 137 18411418427720758670
22224240 67 18334020480559346178
23081809 10 18343576317939394373
23198884 109 9943807790029105975
23522609 53 16199002089802986172
23559900 14 18272374131342750249
23569943 247 17487630833916016074
29717793 49 13326576280999897770
300161 21 17530962505756843543
3383291 50 17418084374771306699
351380 3 13901907799736965776
3633792 109 18338529611998995423
4015057 19 18340207363310487697
4073 2 18131065975120175730
4340502 62 18113898265104667534
5104073 3 18260824839639753011
542803 24 16877659063114963373
9995097 60 18411421751571615901

> <PUBCHEM_SHAPE_MULTIPOLES>
504.29
20.26
1.88
1.23
8.91
0.33
0.1
-2.61
4.59
1.56
-0.19
-1.53
-0.09
0.07

> <PUBCHEM_SHAPE_SELFOVERLAP>
1101.765

> <PUBCHEM_SHAPE_VOLUME>
265.1

> <PUBCHEM_COORDINATE_TYPE>
2
5
10

$$$$

