4414
  -OEChem-06261200062D

 50 53  0     1  0  0  0  0  0999 V2000
    2.9946   -1.4126    0.0000 S   0  0  0  0  0  0  0  0  0  0  0  0
    6.3096   -0.9646    0.0000 O   0  0  0  0  0  0  0  0  0  0  0  0
    3.7320    1.2539    0.0000 O   0  0  0  0  0  0  0  0  0  0  0  0
    4.0422   -4.2886    0.0000 O   0  5  0  0  0  0  0  0  0  0  0  0
    5.5871   -3.5054    0.0000 O   0  0  0  0  0  0  0  0  0  0  0  0
    3.7320    2.2539    0.0000 O   0  0  0  0  0  0  0  0  0  0  0  0
    4.5922   -1.6690    0.0000 N   0  0  0  0  0  0  0  0  0  0  0  0
    5.4641    1.2539    0.0000 N   0  0  0  0  0  0  0  0  0  0  0  0
    3.8866   -0.9605    0.0000 C   0  0  3  0  0  0  0  0  0  0  0  0
    3.1490   -2.4006    0.0000 C   0  0  0  0  0  0  0  0  0  0  0  0
    4.1364   -2.5591    0.0000 C   0  0  3  0  0  0  0  0  0  0  0  0
    4.5981   -0.2461    0.0000 C   0  0  3  0  0  0  0  0  0  0  0  0
    5.3096   -0.9605    0.0000 C   0  0  0  0  0  0  0  0  0  0  0  0
    2.1610   -2.5551    0.0000 C   0  0  0  0  0  0  0  0  0  0  0  0
    2.9906   -3.3880    0.0000 C   0  0  0  0  0  0  0  0  0  0  0  0
    4.5981    0.7539    0.0000 C   0  0  0  0  0  0  0  0  0  0  0  0
    4.5886   -3.4511    0.0000 C   0  0  0  0  0  0  0  0  0  0  0  0
    5.4641    2.2539    0.0000 C   0  0  0  0  0  0  0  0  0  0  0  0
    6.3301    2.7539    0.0000 C   0  0  0  0  0  0  0  0  0  0  0  0
    4.5981    2.7539    0.0000 C   0  0  0  0  0  0  0  0  0  0  0  0
    6.3301    3.7539    0.0000 C   0  0  0  0  0  0  0  0  0  0  0  0
    4.5981    3.7539    0.0000 C   0  0  0  0  0  0  0  0  0  0  0  0
    7.2241    2.2193    0.0000 C   0  0  0  0  0  0  0  0  0  0  0  0
    5.4641    4.2539    0.0000 C   0  0  0  0  0  0  0  0  0  0  0  0
    7.2241    4.2886    0.0000 C   0  0  0  0  0  0  0  0  0  0  0  0
    8.1301    2.7331    0.0000 C   0  0  0  0  0  0  0  0  0  0  0  0
    8.1301    3.7748    0.0000 C   0  0  0  0  0  0  0  0  0  0  0  0
    2.8660    2.7539    0.0000 C   0  0  0  0  0  0  0  0  0  0  0  0
    2.0000    2.2539    0.0000 C   0  0  0  0  0  0  0  0  0  0  0  0
    3.5222   -0.4589    0.0000 H   0  0  0  0  0  0  0  0  0  0  0  0
    4.7564   -2.5604    0.0000 H   0  0  0  0  0  0  0  0  0  0  0  0
    5.1711   -0.0094    0.0000 H   0  0  0  0  0  0  0  0  0  0  0  0
    2.0653   -1.9425    0.0000 H   0  0  0  0  0  0  0  0  0  0  0  0
    2.3784   -3.2898    0.0000 H   0  0  0  0  0  0  0  0  0  0  0  0
    2.8923   -4.0002    0.0000 H   0  0  0  0  0  0  0  0  0  0  0  0
    3.6027   -3.4863    0.0000 H   0  0  0  0  0  0  0  0  0  0  0  0
    1.5485   -2.6508    0.0000 H   0  0  0  0  0  0  0  0  0  0  0  0
    2.2568   -3.1676    0.0000 H   0  0  0  0  0  0  0  0  0  0  0  0
    6.0010    0.9439    0.0000 H   0  0  0  0  0  0  0  0  0  0  0  0
    4.0611    4.0639    0.0000 H   0  0  0  0  0  0  0  0  0  0  0  0
    7.2169    1.5993    0.0000 H   0  0  0  0  0  0  0  0  0  0  0  0
    5.4641    4.8739    0.0000 H   0  0  0  0  0  0  0  0  0  0  0  0
    7.2169    4.9086    0.0000 H   0  0  0  0  0  0  0  0  0  0  0  0
    8.6659    2.4211    0.0000 H   0  0  0  0  0  0  0  0  0  0  0  0
    8.6659    4.0868    0.0000 H   0  0  0  0  0  0  0  0  0  0  0  0
    3.2646    3.2289    0.0000 H   0  0  0  0  0  0  0  0  0  0  0  0
    2.4675    3.2289    0.0000 H   0  0  0  0  0  0  0  0  0  0  0  0
    1.6900    2.7909    0.0000 H   0  0  0  0  0  0  0  0  0  0  0  0
    1.4631    1.9439    0.0000 H   0  0  0  0  0  0  0  0  0  0  0  0
    2.3100    1.7170    0.0000 H   0  0  0  0  0  0  0  0  0  0  0  0
  1  9  1  0  0  0  0
  1 10  1  0  0  0  0
  2 13  2  0  0  0  0
  3 16  2  0  0  0  0
  4 17  1  0  0  0  0
  5 17  2  0  0  0  0
  6 20  1  0  0  0  0
  6 28  1  0  0  0  0
  7  9  1  0  0  0  0
  7 11  1  0  0  0  0
  7 13  1  0  0  0  0
  8 16  1  0  0  0  0
  8 18  1  0  0  0  0
  8 39  1  0  0  0  0
  9 12  1  0  0  0  0
  9 30  1  0  0  0  0
 10 11  1  0  0  0  0
 10 14  1  0  0  0  0
 10 15  1  0  0  0  0
 11 17  1  0  0  0  0
 11 31  1  0  0  0  0
 12 13  1  0  0  0  0
 12 16  1  0  0  0  0
 12 32  1  0  0  0  0
 14 33  1  0  0  0  0
 14 37  1  0  0  0  0
 14 38  1  0  0  0  0
 15 34  1  0  0  0  0
 15 35  1  0  0  0  0
 15 36  1  0  0  0  0
 18 19  1  0  0  0  0
 18 20  2  0  0  0  0
 19 21  1  0  0  0  0
 19 23  2  0  0  0  0
 20 22  1  0  0  0  0
 21 24  1  0  0  0  0
 21 25  2  0  0  0  0
 22 24  2  0  0  0  0
 22 40  1  0  0  0  0
 23 26  1  0  0  0  0
 23 41  1  0  0  0  0
 24 42  1  0  0  0  0
 25 27  1  0  0  0  0
 25 43  1  0  0  0  0
 26 27  2  0  0  0  0
 26 44  1  0  0  0  0
 27 45  1  0  0  0  0
 28 29  1  0  0  0  0
 28 46  1  0  0  0  0
 28 47  1  0  0  0  0
 29 48  1  0  0  0  0
 29 49  1  0  0  0  0
 29 50  1  0  0  0  0
M  CHG  1   4  -1
M  END
> <PUBCHEM_COMPOUND_CID>
4414

> <PUBCHEM_COMPOUND_CANONICALIZED>
1

> <PUBCHEM_CACTVS_COMPLEXITY>
693

> <PUBCHEM_CACTVS_HBOND_ACCEPTOR>
6

> <PUBCHEM_CACTVS_HBOND_DONOR>
1

> <PUBCHEM_CACTVS_ROTATABLE_BOND>
4

> <PUBCHEM_CACTVS_SUBSKEYS>
AAADceB7OABAAAAAAAAAAAAAAABYAWAAAAAwYAAABYAAAADBUAAAHgQQAAAADSzl2AayzsPABAiIAiXSWACCCABhIBAIiAGPTIgOJjrs8buHOCjk1hH46AeQwLAOoAABQAASEABAAAKAACQgAAAAAAAAAA==

> <PUBCHEM_IUPAC_OPENEYE_NAME>
6-[(2-ethoxy-1-naphthyl)carbamoyl]-3,3-dimethyl-7-oxo-4-thia-1-azabicyclo[3.2.0]heptane-2-carboxylate

> <PUBCHEM_IUPAC_CAS_NAME>
6-[[(2-ethoxy-1-naphthalenyl)amino]-oxomethyl]-3,3-dimethyl-7-oxo-4-thia-1-azabicyclo[3.2.0]heptane-2-carboxylate

> <PUBCHEM_IUPAC_NAME>
6-[(2-ethoxynaphthalen-1-yl)carbamoyl]-3,3-dimethyl-7-oxo-4-thia-1-azabicyclo[3.2.0]heptane-2-carboxylate

> <PUBCHEM_IUPAC_SYSTEMATIC_NAME>
6-[(2-ethoxynaphthalen-1-yl)carbamoyl]-3,3-dimethyl-7-oxidanylidene-4-thia-1-azabicyclo[3.2.0]heptane-2-carboxylate

> <PUBCHEM_IUPAC_TRADITIONAL_NAME>
6-[(2-ethoxy-1-naphthyl)carbamoyl]-7-keto-3,3-dimethyl-4-thia-1-azabicyclo[3.2.0]heptane-2-carboxylate

> <PUBCHEM_IUPAC_INCHI>
InChI=1S/C21H22N2O5S/c1-4-28-13-10-9-11-7-5-6-8-12(11)15(13)22-17(24)14-18(25)23-16(20(26)27)21(2,3)29-19(14)23/h5-10,14,16,19H,4H2,1-3H3,(H,22,24)(H,26,27)/p-1

> <PUBCHEM_IUPAC_INCHIKEY>
PLIGJUHHTJAZTH-UHFFFAOYSA-M

> <PUBCHEM_XLOGP3_AA>
3.6

> <PUBCHEM_EXACT_MASS>
413.117118

> <PUBCHEM_MOLECULAR_FORMULA>
C21H21N2O5S-

> <PUBCHEM_MOLECULAR_WEIGHT>
413.46684

> <PUBCHEM_OPENEYE_CAN_SMILES>
CCOC1=C(C2=CC=CC=C2C=C1)NC(=O)C3C4N(C3=O)C(C(S4)(C)C)C(=O)[O-]

> <PUBCHEM_OPENEYE_ISO_SMILES>
CCOC1=C(C2=CC=CC=C2C=C1)NC(=O)C3C4N(C3=O)C(C(S4)(C)C)C(=O)[O-]

> <PUBCHEM_CACTVS_TPSA>
124

> <PUBCHEM_MONOISOTOPIC_WEIGHT>
413.117118

> <PUBCHEM_TOTAL_CHARGE>
-1

> <PUBCHEM_HEAVY_ATOM_COUNT>
29

> <PUBCHEM_ATOM_DEF_STEREO_COUNT>
0

> <PUBCHEM_ATOM_UDEF_STEREO_COUNT>
3

> <PUBCHEM_BOND_DEF_STEREO_COUNT>
0

> <PUBCHEM_BOND_UDEF_STEREO_COUNT>
0

> <PUBCHEM_ISOTOPIC_ATOM_COUNT>
0

> <PUBCHEM_COMPONENT_COUNT>
1

> <PUBCHEM_CACTVS_TAUTO_COUNT>
5

> <PUBCHEM_COORDINATE_TYPE>
1
5
255

> <PUBCHEM_BONDANNOTATIONS>
9  1  3
11  17  3
12  16  3
18  19  8
18  20  8
19  21  8
19  23  8
20  22  8
21  24  8
21  25  8
22  24  8
23  26  8
25  27  8
26  27  8

$$$$

