5716
  -OEChem-06261200502D

 61 61  0     1  0  0  0  0  0999 V2000
    8.9282    6.7500    0.0000 F   0  0  0  0  0  0  0  0  0  0  0  0
    9.7942    5.2500    0.0000 F   0  0  0  0  0  0  0  0  0  0  0  0
    6.3301   -0.7500    0.0000 O   0  0  0  0  0  0  0  0  0  0  0  0
    3.7320   -3.2500    0.0000 O   0  0  0  0  0  0  0  0  0  0  0  0
    5.4641    2.7500    0.0000 O   0  0  0  0  0  0  0  0  0  0  0  0
    2.8660   -1.7500    0.0000 O   0  0  0  0  0  0  0  0  0  0  0  0
    8.0622    5.2500    0.0000 O   0  0  0  0  0  0  0  0  0  0  0  0
    8.9282    3.7500    0.0000 O   0  0  0  0  0  0  0  0  0  0  0  0
    5.4641    5.7500    0.0000 O   0  0  0  0  0  0  0  0  0  0  0  0
    7.1962    5.7500    0.0000 O   0  0  0  0  0  0  0  0  0  0  0  0
    5.4641    0.7500    0.0000 N   0  0  0  0  0  0  0  0  0  0  0  0
    4.5981   -1.7500    0.0000 N   0  0  0  0  0  0  0  0  0  0  0  0
    7.1962    2.7500    0.0000 N   0  0  0  0  0  0  0  0  0  0  0  0
    3.7320   -0.2500    0.0000 C   0  0  0  0  0  0  0  0  0  0  0  0
    4.5981   -0.7500    0.0000 C   0  0  3  0  0  0  0  0  0  0  0  0
    5.4641   -0.2500    0.0000 C   0  0  0  0  0  0  0  0  0  0  0  0
    3.7320    0.7500    0.0000 C   0  0  0  0  0  0  0  0  0  0  0  0
    2.8660   -0.7500    0.0000 C   0  0  0  0  0  0  0  0  0  0  0  0
    6.3301    1.2500    0.0000 C   0  0  3  0  0  0  0  0  0  0  0  0
    6.3301    2.2500    0.0000 C   0  0  0  0  0  0  0  0  0  0  0  0
    7.1962    0.7500    0.0000 C   0  0  0  0  0  0  0  0  0  0  0  0
    7.1962    3.7500    0.0000 C   0  0  3  0  0  0  0  0  0  0  0  0
    3.7320   -2.2500    0.0000 C   0  0  0  0  0  0  0  0  0  0  0  0
    6.3301    4.2500    0.0000 C   0  0  0  0  0  0  0  0  0  0  0  0
    8.0622    4.2500    0.0000 C   0  0  0  0  0  0  0  0  0  0  0  0
    6.3301    5.2500    0.0000 C   0  0  0  0  0  0  0  0  0  0  0  0
    2.8660   -3.7500    0.0000 C   0  0  0  0  0  0  0  0  0  0  0  0
    2.8660   -4.7500    0.0000 C   0  0  0  0  0  0  0  0  0  0  0  0
    2.0000   -5.2500    0.0000 C   0  0  0  0  0  0  0  0  0  0  0  0
    3.7320   -5.2500    0.0000 C   0  0  0  0  0  0  0  0  0  0  0  0
    8.9282    5.7500    0.0000 C   0  0  0  0  0  0  0  0  0  0  0  0
    2.0000   -6.2500    0.0000 C   0  0  0  0  0  0  0  0  0  0  0  0
    3.7320   -6.2500    0.0000 C   0  0  0  0  0  0  0  0  0  0  0  0
    2.8660   -6.7500    0.0000 C   0  0  0  0  0  0  0  0  0  0  0  0
    3.7320   -0.8700    0.0000 H   0  0  0  0  0  0  0  0  0  0  0  0
    5.3342   -1.1750    0.0000 H   0  0  0  0  0  0  0  0  0  0  0  0
    4.3520    0.7500    0.0000 H   0  0  0  0  0  0  0  0  0  0  0  0
    3.7320    1.3700    0.0000 H   0  0  0  0  0  0  0  0  0  0  0  0
    3.1120    0.7500    0.0000 H   0  0  0  0  0  0  0  0  0  0  0  0
    2.5560   -0.2131    0.0000 H   0  0  0  0  0  0  0  0  0  0  0  0
    2.3291   -1.0600    0.0000 H   0  0  0  0  0  0  0  0  0  0  0  0
    3.1760   -1.2869    0.0000 H   0  0  0  0  0  0  0  0  0  0  0  0
    5.5940    1.6750    0.0000 H   0  0  0  0  0  0  0  0  0  0  0  0
    4.9272    1.0600    0.0000 H   0  0  0  0  0  0  0  0  0  0  0  0
    5.1350   -2.0600    0.0000 H   0  0  0  0  0  0  0  0  0  0  0  0
    6.4600    3.3250    0.0000 H   0  0  0  0  0  0  0  0  0  0  0  0
    6.8862    0.2131    0.0000 H   0  0  0  0  0  0  0  0  0  0  0  0
    7.7331    0.4400    0.0000 H   0  0  0  0  0  0  0  0  0  0  0  0
    7.5062    1.2869    0.0000 H   0  0  0  0  0  0  0  0  0  0  0  0
    7.7331    2.4400    0.0000 H   0  0  0  0  0  0  0  0  0  0  0  0
    5.7196    4.3577    0.0000 H   0  0  0  0  0  0  0  0  0  0  0  0
    6.1181    3.6674    0.0000 H   0  0  0  0  0  0  0  0  0  0  0  0
    2.6540   -3.1674    0.0000 H   0  0  0  0  0  0  0  0  0  0  0  0
    2.2554   -3.8577    0.0000 H   0  0  0  0  0  0  0  0  0  0  0  0
    1.4631   -4.9400    0.0000 H   0  0  0  0  0  0  0  0  0  0  0  0
    4.2690   -4.9400    0.0000 H   0  0  0  0  0  0  0  0  0  0  0  0
    8.9282    5.1300    0.0000 H   0  0  0  0  0  0  0  0  0  0  0  0
    5.4641    6.3700    0.0000 H   0  0  0  0  0  0  0  0  0  0  0  0
    1.4631   -6.5600    0.0000 H   0  0  0  0  0  0  0  0  0  0  0  0
    4.2690   -6.5600    0.0000 H   0  0  0  0  0  0  0  0  0  0  0  0
    2.8660   -7.3700    0.0000 H   0  0  0  0  0  0  0  0  0  0  0  0
  1 31  1  0  0  0  0
  2 31  1  0  0  0  0
  3 16  2  0  0  0  0
  4 23  1  0  0  0  0
  4 27  1  0  0  0  0
  5 20  2  0  0  0  0
  6 23  2  0  0  0  0
  7 25  1  0  0  0  0
  7 31  1  0  0  0  0
  8 25  2  0  0  0  0
  9 26  1  0  0  0  0
  9 58  1  0  0  0  0
 10 26  2  0  0  0  0
 11 16  1  0  0  0  0
 11 19  1  0  0  0  0
 11 44  1  0  0  0  0
 12 15  1  0  0  0  0
 12 23  1  0  0  0  0
 12 45  1  0  0  0  0
 13 20  1  0  0  0  0
 13 22  1  0  0  0  0
 13 50  1  0  0  0  0
 14 15  1  0  0  0  0
 14 17  1  0  0  0  0
 14 18  1  0  0  0  0
 14 35  1  0  0  0  0
 15 16  1  0  0  0  0
 15 36  1  0  0  0  0
 17 37  1  0  0  0  0
 17 38  1  0  0  0  0
 17 39  1  0  0  0  0
 18 40  1  0  0  0  0
 18 41  1  0  0  0  0
 18 42  1  0  0  0  0
 19 20  1  0  0  0  0
 19 21  1  0  0  0  0
 19 43  1  0  0  0  0
 21 47  1  0  0  0  0
 21 48  1  0  0  0  0
 21 49  1  0  0  0  0
 22 24  1  0  0  0  0
 22 25  1  0  0  0  0
 22 46  1  0  0  0  0
 24 26  1  0  0  0  0
 24 51  1  0  0  0  0
 24 52  1  0  0  0  0
 27 28  1  0  0  0  0
 27 53  1  0  0  0  0
 27 54  1  0  0  0  0
 28 29  2  0  0  0  0
 28 30  1  0  0  0  0
 29 32  1  0  0  0  0
 29 55  1  0  0  0  0
 30 33  2  0  0  0  0
 30 56  1  0  0  0  0
 31 57  1  0  0  0  0
 32 34  2  0  0  0  0
 32 59  1  0  0  0  0
 33 34  1  0  0  0  0
 33 60  1  0  0  0  0
 34 61  1  0  0  0  0
M  END
> <PUBCHEM_COMPOUND_CID>
5716

> <PUBCHEM_COMPOUND_CANONICALIZED>
1

> <PUBCHEM_CACTVS_COMPLEXITY>
729

> <PUBCHEM_CACTVS_HBOND_ACCEPTOR>
10

> <PUBCHEM_CACTVS_HBOND_DONOR>
4

> <PUBCHEM_CACTVS_ROTATABLE_BOND>
14

> <PUBCHEM_CACTVS_SUBSKEYS>
AAADceB7PYAAAAAAAAAAAAAAAAAAAAAAAAAwAAAAAAAAAAABAAAAHwAQCAAADSjhmBYyCILABgCIAiHSGAACAAAgAAAIiIGICIkKZjqAsTidcAAm1gGYqAfDwCAOAAAAAAAAAAAAAAAAAAAAAAAAAAAAAA==

> <PUBCHEM_IUPAC_OPENEYE_NAME>
3-[2-[[2-(benzyloxycarbonylamino)-3-methyl-butanoyl]amino]propanoylamino]-4-(difluoromethoxy)-4-oxo-butanoic acid

> <PUBCHEM_IUPAC_CAS_NAME>
4-(difluoromethoxy)-3-[[2-[[3-methyl-1-oxo-2-(phenylmethoxycarbonylamino)butyl]amino]-1-oxopropyl]amino]-4-oxobutanoic acid

> <PUBCHEM_IUPAC_NAME>
4-(difluoromethoxy)-3-[2-[[3-methyl-2-(phenylmethoxycarbonylamino)butanoyl]amino]propanoylamino]-4-oxobutanoic acid

> <PUBCHEM_IUPAC_SYSTEMATIC_NAME>
4-[bis(fluoranyl)methoxy]-3-[2-[[3-methyl-2-(phenylmethoxycarbonylamino)butanoyl]amino]propanoylamino]-4-oxidanylidene-butanoic acid

> <PUBCHEM_IUPAC_TRADITIONAL_NAME>
3-[2-[[2-(benzyloxycarbonylamino)-3-methyl-butanoyl]amino]propanoylamino]-4-(difluoromethoxy)-4-keto-butyric acid

> <PUBCHEM_IUPAC_INCHI>
InChI=1S/C21H27F2N3O8/c1-11(2)16(26-21(32)33-10-13-7-5-4-6-8-13)18(30)24-12(3)17(29)25-14(9-15(27)28)19(31)34-20(22)23/h4-8,11-12,14,16,20H,9-10H2,1-3H3,(H,24,30)(H,25,29)(H,26,32)(H,27,28)

> <PUBCHEM_IUPAC_INCHIKEY>
STXXLGBPWMALRX-UHFFFAOYSA-N

> <PUBCHEM_XLOGP3_AA>
2.3

> <PUBCHEM_EXACT_MASS>
487.176621

> <PUBCHEM_MOLECULAR_FORMULA>
C21H27F2N3O8

> <PUBCHEM_MOLECULAR_WEIGHT>
487.451186

> <PUBCHEM_OPENEYE_CAN_SMILES>
CC(C)C(C(=O)NC(C)C(=O)NC(CC(=O)O)C(=O)OC(F)F)NC(=O)OCC1=CC=CC=C1

> <PUBCHEM_OPENEYE_ISO_SMILES>
CC(C)C(C(=O)NC(C)C(=O)NC(CC(=O)O)C(=O)OC(F)F)NC(=O)OCC1=CC=CC=C1

> <PUBCHEM_CACTVS_TPSA>
160

> <PUBCHEM_MONOISOTOPIC_WEIGHT>
487.176621

> <PUBCHEM_TOTAL_CHARGE>
0

> <PUBCHEM_HEAVY_ATOM_COUNT>
34

> <PUBCHEM_ATOM_DEF_STEREO_COUNT>
0

> <PUBCHEM_ATOM_UDEF_STEREO_COUNT>
3

> <PUBCHEM_BOND_DEF_STEREO_COUNT>
0

> <PUBCHEM_BOND_UDEF_STEREO_COUNT>
0

> <PUBCHEM_ISOTOPIC_ATOM_COUNT>
0

> <PUBCHEM_COMPONENT_COUNT>
1

> <PUBCHEM_CACTVS_TAUTO_COUNT>
8

> <PUBCHEM_COORDINATE_TYPE>
1
5
255

> <PUBCHEM_BONDANNOTATIONS>
15  36  3
19  43  3
22  46  3
28  29  8
28  30  8
29  32  8
30  33  8
32  34  8
33  34  8

$$$$

