13562
  -OEChem-06241222392D

 16 15  0     0  0  0  0  0  0999 V2000
    2.5369   -0.0600    0.0000 O   0  0  0  0  0  0  0  0  0  0  0  0
    6.0010   -1.0600    0.0000 O   0  0  0  0  0  0  0  0  0  0  0  0
    6.8671    0.4400    0.0000 N   0  0  0  0  0  0  0  0  0  0  0  0
    4.2690   -0.0600    0.0000 C   0  0  0  0  0  0  0  0  0  0  0  0
    5.1350    0.4400    0.0000 C   0  0  0  0  0  0  0  0  0  0  0  0
    3.4030    0.4400    0.0000 C   0  0  0  0  0  0  0  0  0  0  0  0
    6.0010   -0.0600    0.0000 C   0  0  0  0  0  0  0  0  0  0  0  0
    3.8705   -0.5349    0.0000 H   0  0  0  0  0  0  0  0  0  0  0  0
    4.6675   -0.5349    0.0000 H   0  0  0  0  0  0  0  0  0  0  0  0
    5.5335    0.9149    0.0000 H   0  0  0  0  0  0  0  0  0  0  0  0
    4.7365    0.9149    0.0000 H   0  0  0  0  0  0  0  0  0  0  0  0
    3.8015    0.9149    0.0000 H   0  0  0  0  0  0  0  0  0  0  0  0
    3.0044    0.9149    0.0000 H   0  0  0  0  0  0  0  0  0  0  0  0
    2.0000    0.2500    0.0000 H   0  0  0  0  0  0  0  0  0  0  0  0
    7.4040    0.1300    0.0000 H   0  0  0  0  0  0  0  0  0  0  0  0
    6.8671    1.0600    0.0000 H   0  0  0  0  0  0  0  0  0  0  0  0
  1  6  1  0  0  0  0
  1 14  1  0  0  0  0
  2  7  2  0  0  0  0
  3  7  1  0  0  0  0
  3 15  1  0  0  0  0
  3 16  1  0  0  0  0
  4  5  1  0  0  0  0
  4  6  1  0  0  0  0
  4  8  1  0  0  0  0
  4  9  1  0  0  0  0
  5  7  1  0  0  0  0
  5 10  1  0  0  0  0
  5 11  1  0  0  0  0
  6 12  1  0  0  0  0
  6 13  1  0  0  0  0
M  END
> <PUBCHEM_COMPOUND_CID>
13562

> <PUBCHEM_COMPOUND_CANONICALIZED>
1

> <PUBCHEM_CACTVS_COMPLEXITY>
62.7

> <PUBCHEM_CACTVS_HBOND_ACCEPTOR>
2

> <PUBCHEM_CACTVS_HBOND_DONOR>
2

> <PUBCHEM_CACTVS_ROTATABLE_BOND>
3

> <PUBCHEM_CACTVS_SUBSKEYS>
AAADccBiMAAAAAAAAAAAAAAAAAAAAAAAAAAAAAAAAAAAAAAAAAAAHgAQCAAACAChgAIAAABAAgAIAAEQEAAAAAAAAAAAAAEAAAAAEBAAgAAAQAAEEAAAAAAiAAAAAAAAAAAAAAAAAAAAAAAAAAAAAAAAAA==

> <PUBCHEM_IUPAC_OPENEYE_NAME>
4-hydroxybutanamide

> <PUBCHEM_IUPAC_CAS_NAME>
4-hydroxybutanamide

> <PUBCHEM_IUPAC_NAME>
4-hydroxybutanamide

> <PUBCHEM_IUPAC_SYSTEMATIC_NAME>
4-oxidanylbutanamide

> <PUBCHEM_IUPAC_TRADITIONAL_NAME>
4-hydroxybutyramide

> <PUBCHEM_IUPAC_INCHI>
InChI=1S/C4H9NO2/c5-4(7)2-1-3-6/h6H,1-3H2,(H2,5,7)

> <PUBCHEM_IUPAC_INCHIKEY>
LOESDOAIWSCMKM-UHFFFAOYSA-N

> <PUBCHEM_XLOGP3_AA>
-1.3

> <PUBCHEM_EXACT_MASS>
103.063329

> <PUBCHEM_MOLECULAR_FORMULA>
C4H9NO2

> <PUBCHEM_MOLECULAR_WEIGHT>
103.11976

> <PUBCHEM_OPENEYE_CAN_SMILES>
C(CC(=O)N)CO

> <PUBCHEM_OPENEYE_ISO_SMILES>
C(CC(=O)N)CO

> <PUBCHEM_CACTVS_TPSA>
63.3

> <PUBCHEM_MONOISOTOPIC_WEIGHT>
103.063329

> <PUBCHEM_TOTAL_CHARGE>
0

> <PUBCHEM_HEAVY_ATOM_COUNT>
7

> <PUBCHEM_ATOM_DEF_STEREO_COUNT>
0

> <PUBCHEM_ATOM_UDEF_STEREO_COUNT>
0

> <PUBCHEM_BOND_DEF_STEREO_COUNT>
0

> <PUBCHEM_BOND_UDEF_STEREO_COUNT>
0

> <PUBCHEM_ISOTOPIC_ATOM_COUNT>
0

> <PUBCHEM_COMPONENT_COUNT>
1

> <PUBCHEM_CACTVS_TAUTO_COUNT>
3

> <PUBCHEM_COORDINATE_TYPE>
1
5
255

$$$$

