7842
  -OEChem-06261202232D

  7  6  0     0  0  0  0  0  0999 V2000
    5.1350    0.1550    0.0000 Br  0  0  0  0  0  0  0  0  0  0  0  0
    4.2690    0.6550    0.0000 C   0  0  0  0  0  0  0  0  0  0  0  0
    3.4030    0.1550    0.0000 C   0  0  0  0  0  0  0  0  0  0  0  0
    2.5369   -0.3450    0.0000 C   0  0  0  0  0  0  0  0  0  0  0  0
    4.6675    1.1300    0.0000 H   0  0  0  0  0  0  0  0  0  0  0  0
    3.8705    1.1300    0.0000 H   0  0  0  0  0  0  0  0  0  0  0  0
    2.0000   -0.6550    0.0000 H   0  0  0  0  0  0  0  0  0  0  0  0
  1  2  1  0  0  0  0
  2  3  1  0  0  0  0
  2  5  1  0  0  0  0
  2  6  1  0  0  0  0
  3  4  3  0  0  0  0
  4  7  1  0  0  0  0
M  END
> <PUBCHEM_COMPOUND_CID>
7842

> <PUBCHEM_COMPOUND_CANONICALIZED>
1

> <PUBCHEM_CACTVS_COMPLEXITY>
38.5

> <PUBCHEM_CACTVS_HBOND_ACCEPTOR>
0

> <PUBCHEM_CACTVS_HBOND_DONOR>
0

> <PUBCHEM_CACTVS_ROTATABLE_BOND>
0

> <PUBCHEM_CACTVS_SUBSKEYS>
AAADcQBAAAAAEAAAAAAAAAAAAAAAAAAAAAAAAAAAAAAAAAAAAAAAGABAAAABSACAAAAAAAAAAABAGAAAAAAAAAAAAAAAAAAAAAAAAAAAAAAAAAAAAAAAAAAAAAAAAAAAAAAAAAAAAAAAAAAAAAAAAAAAAA==

> <PUBCHEM_IUPAC_OPENEYE_NAME>
3-bromoprop-1-yne

> <PUBCHEM_IUPAC_CAS_NAME>
3-bromo-1-propyne

> <PUBCHEM_IUPAC_NAME>
3-bromoprop-1-yne

> <PUBCHEM_IUPAC_SYSTEMATIC_NAME>
3-bromanylprop-1-yne

> <PUBCHEM_IUPAC_TRADITIONAL_NAME>
3-bromoprop-1-yne

> <PUBCHEM_IUPAC_INCHI>
InChI=1S/C3H3Br/c1-2-3-4/h1H,3H2

> <PUBCHEM_IUPAC_INCHIKEY>
YORCIIVHUBAYBQ-UHFFFAOYSA-N

> <PUBCHEM_XLOGP3_AA>
1.1

> <PUBCHEM_EXACT_MASS>
117.941812

> <PUBCHEM_MOLECULAR_FORMULA>
C3H3Br

> <PUBCHEM_MOLECULAR_WEIGHT>
118.95992

> <PUBCHEM_OPENEYE_CAN_SMILES>
C#CCBr

> <PUBCHEM_OPENEYE_ISO_SMILES>
C#CCBr

> <PUBCHEM_CACTVS_TPSA>
0

> <PUBCHEM_MONOISOTOPIC_WEIGHT>
117.941812

> <PUBCHEM_TOTAL_CHARGE>
0

> <PUBCHEM_HEAVY_ATOM_COUNT>
4

> <PUBCHEM_ATOM_DEF_STEREO_COUNT>
0

> <PUBCHEM_ATOM_UDEF_STEREO_COUNT>
0

> <PUBCHEM_BOND_DEF_STEREO_COUNT>
0

> <PUBCHEM_BOND_UDEF_STEREO_COUNT>
0

> <PUBCHEM_ISOTOPIC_ATOM_COUNT>
0

> <PUBCHEM_COMPONENT_COUNT>
1

> <PUBCHEM_CACTVS_TAUTO_COUNT>
1

> <PUBCHEM_COORDINATE_TYPE>
1
5
255

$$$$

