3323
  -OEChem-06251223202D

 74 76  0     1  0  0  0  0  0999 V2000
    9.9206    6.0449    0.0000 F   0  0  0  0  0  0  0  0  0  0  0  0
   10.5378    5.4674    0.0000 F   0  0  0  0  0  0  0  0  0  0  0  0
    8.6595    5.4050    0.0000 F   0  0  0  0  0  0  0  0  0  0  0  0
   11.2004    3.5225    0.0000 F   0  0  0  0  0  0  0  0  0  0  0  0
    9.9392    2.8827    0.0000 F   0  0  0  0  0  0  0  0  0  0  0  0
   11.0988    4.3616    0.0000 F   0  0  0  0  0  0  0  0  0  0  0  0
    8.3488    4.4545    0.0000 O   0  0  0  0  0  0  0  0  0  0  0  0
    2.0000   -5.4249    0.0000 O   0  0  0  0  0  0  0  0  0  0  0  0
    5.4641   -5.4249    0.0000 O   0  0  0  0  0  0  0  0  0  0  0  0
    5.4641    0.5751    0.0000 C   0  0  3  0  0  0  0  0  0  0  0  0
    6.4103    0.8798    0.0000 C   0  0  3  0  0  0  0  0  0  0  0  0
    5.4641   -0.4249    0.0000 C   0  0  3  0  0  0  0  0  0  0  0  0
    6.9939    0.0751    0.0000 C   0  0  0  0  0  0  0  0  0  0  0  0
    6.4103   -0.7296    0.0000 C   0  0  0  0  0  0  0  0  0  0  0  0
    4.5981    1.0751    0.0000 C   0  0  0  0  0  0  0  0  0  0  0  0
    6.7210    1.8304    0.0000 C   0  0  3  0  0  0  0  0  0  0  0  0
    4.5981   -0.9249    0.0000 C   0  0  0  0  0  0  0  0  0  0  0  0
    5.4641    1.5751    0.0000 C   0  0  0  0  0  0  0  0  0  0  0  0
    3.7320    0.5751    0.0000 C   0  0  0  0  0  0  0  0  0  0  0  0
    3.7320   -0.4249    0.0000 C   0  0  0  0  0  0  0  0  0  0  0  0
    7.6995    2.0366    0.0000 C   0  0  0  0  0  0  0  0  0  0  0  0
    6.0531    2.5747    0.0000 C   0  0  0  0  0  0  0  0  0  0  0  0
    4.5981   -1.9249    0.0000 C   0  0  0  0  0  0  0  0  0  0  0  0
    8.0102    2.9871    0.0000 C   0  0  0  0  0  0  0  0  0  0  0  0
    8.9887    3.1933    0.0000 C   0  0  0  0  0  0  0  0  0  0  0  0
    3.7320   -2.4249    0.0000 C   0  0  0  0  0  0  0  0  0  0  0  0
    9.2993    4.1438    0.0000 C   0  0  0  0  0  0  0  0  0  0  0  0
    3.7320   -3.4249    0.0000 C   0  0  0  0  0  0  0  0  0  0  0  0
    2.8660   -3.9249    0.0000 C   0  0  0  0  0  0  0  0  0  0  0  0
    9.6100    5.0944    0.0000 C   0  0  0  0  0  0  0  0  0  0  0  0
   10.2498    3.8332    0.0000 C   0  0  0  0  0  0  0  0  0  0  0  0
    4.5981   -3.9249    0.0000 C   0  0  0  0  0  0  0  0  0  0  0  0
    2.8660   -4.9249    0.0000 C   0  0  3  0  0  0  0  0  0  0  0  0
    4.5981   -4.9249    0.0000 C   0  0  3  0  0  0  0  0  0  0  0  0
    3.7320   -5.4249    0.0000 C   0  0  0  0  0  0  0  0  0  0  0  0
    5.4641   -3.4249    0.0000 C   0  0  0  0  0  0  0  0  0  0  0  0
    7.0228    0.9760    0.0000 H   0  0  0  0  0  0  0  0  0  0  0  0
    5.5297   -1.0414    0.0000 H   0  0  0  0  0  0  0  0  0  0  0  0
    7.4548   -0.3396    0.0000 H   0  0  0  0  0  0  0  0  0  0  0  0
    7.4548    0.4898    0.0000 H   0  0  0  0  0  0  0  0  0  0  0  0
    6.1593   -1.2965    0.0000 H   0  0  0  0  0  0  0  0  0  0  0  0
    6.9477   -1.0388    0.0000 H   0  0  0  0  0  0  0  0  0  0  0  0
    4.9966    1.5501    0.0000 H   0  0  0  0  0  0  0  0  0  0  0  0
    4.1996    1.5501    0.0000 H   0  0  0  0  0  0  0  0  0  0  0  0
    6.1143    1.7025    0.0000 H   0  0  0  0  0  0  0  0  0  0  0  0
    6.0841    1.5751    0.0000 H   0  0  0  0  0  0  0  0  0  0  0  0
    5.4641    2.1951    0.0000 H   0  0  0  0  0  0  0  0  0  0  0  0
    4.8441    1.5751    0.0000 H   0  0  0  0  0  0  0  0  0  0  0  0
    3.5200    1.1577    0.0000 H   0  0  0  0  0  0  0  0  0  0  0  0
    3.1215    0.4675    0.0000 H   0  0  0  0  0  0  0  0  0  0  0  0
    3.1215   -0.3172    0.0000 H   0  0  0  0  0  0  0  0  0  0  0  0
    3.5200   -1.0075    0.0000 H   0  0  0  0  0  0  0  0  0  0  0  0
    7.7201    1.4169    0.0000 H   0  0  0  0  0  0  0  0  0  0  0  0
    8.3133    1.9492    0.0000 H   0  0  0  0  0  0  0  0  0  0  0  0
    6.5146    2.9887    0.0000 H   0  0  0  0  0  0  0  0  0  0  0  0
    5.6391    3.0361    0.0000 H   0  0  0  0  0  0  0  0  0  0  0  0
    5.5917    2.1606    0.0000 H   0  0  0  0  0  0  0  0  0  0  0  0
    5.1350   -2.2349    0.0000 H   0  0  0  0  0  0  0  0  0  0  0  0
    7.9896    3.6068    0.0000 H   0  0  0  0  0  0  0  0  0  0  0  0
    7.3963    3.0745    0.0000 H   0  0  0  0  0  0  0  0  0  0  0  0
    9.0092    2.5737    0.0000 H   0  0  0  0  0  0  0  0  0  0  0  0
    9.6025    3.1060    0.0000 H   0  0  0  0  0  0  0  0  0  0  0  0
    3.1951   -2.1149    0.0000 H   0  0  0  0  0  0  0  0  0  0  0  0
    2.6540   -3.3423    0.0000 H   0  0  0  0  0  0  0  0  0  0  0  0
    2.2554   -4.0325    0.0000 H   0  0  0  0  0  0  0  0  0  0  0  0
    2.8660   -5.5449    0.0000 H   0  0  0  0  0  0  0  0  0  0  0  0
    4.5981   -5.5449    0.0000 H   0  0  0  0  0  0  0  0  0  0  0  0
    3.3335   -5.8998    0.0000 H   0  0  0  0  0  0  0  0  0  0  0  0
    4.1306   -5.8998    0.0000 H   0  0  0  0  0  0  0  0  0  0  0  0
    7.8873    4.0404    0.0000 H   0  0  0  0  0  0  0  0  0  0  0  0
    6.0010   -3.7349    0.0000 H   0  0  0  0  0  0  0  0  0  0  0  0
    5.4641   -2.8049    0.0000 H   0  0  0  0  0  0  0  0  0  0  0  0
    2.0000   -6.0449    0.0000 H   0  0  0  0  0  0  0  0  0  0  0  0
    5.4641   -6.0449    0.0000 H   0  0  0  0  0  0  0  0  0  0  0  0
  1 30  1  0  0  0  0
  2 30  1  0  0  0  0
  3 30  1  0  0  0  0
  4 31  1  0  0  0  0
  5 31  1  0  0  0  0
  6 31  1  0  0  0  0
  7 27  1  0  0  0  0
  7 70  1  0  0  0  0
  8 33  1  0  0  0  0
  8 73  1  0  0  0  0
  9 34  1  0  0  0  0
  9 74  1  0  0  0  0
 10 11  1  0  0  0  0
 10 12  1  0  0  0  0
 10 15  1  0  0  0  0
 10 18  1  0  0  0  0
 11 13  1  0  0  0  0
 11 16  1  0  0  0  0
 11 37  1  0  0  0  0
 12 14  1  0  0  0  0
 12 17  1  0  0  0  0
 12 38  1  0  0  0  0
 13 14  1  0  0  0  0
 13 39  1  0  0  0  0
 13 40  1  0  0  0  0
 14 41  1  0  0  0  0
 14 42  1  0  0  0  0
 15 19  1  0  0  0  0
 15 43  1  0  0  0  0
 15 44  1  0  0  0  0
 16 21  1  0  0  0  0
 16 22  1  0  0  0  0
 16 45  1  0  0  0  0
 17 20  1  0  0  0  0
 17 23  2  3  0  0  0
 18 46  1  0  0  0  0
 18 47  1  0  0  0  0
 18 48  1  0  0  0  0
 19 20  1  0  0  0  0
 19 49  1  0  0  0  0
 19 50  1  0  0  0  0
 20 51  1  0  0  0  0
 20 52  1  0  0  0  0
 21 24  1  0  0  0  0
 21 53  1  0  0  0  0
 21 54  1  0  0  0  0
 22 55  1  0  0  0  0
 22 56  1  0  0  0  0
 22 57  1  0  0  0  0
 23 26  1  0  0  0  0
 23 58  1  0  0  0  0
 24 25  1  0  0  0  0
 24 59  1  0  0  0  0
 24 60  1  0  0  0  0
 25 27  1  0  0  0  0
 25 61  1  0  0  0  0
 25 62  1  0  0  0  0
 26 28  2  3  0  0  0
 26 63  1  0  0  0  0
 27 30  1  0  0  0  0
 27 31  1  0  0  0  0
 28 29  1  0  0  0  0
 28 32  1  0  0  0  0
 29 33  1  0  0  0  0
 29 64  1  0  0  0  0
 29 65  1  0  0  0  0
 32 34  1  0  0  0  0
 32 36  2  0  0  0  0
 33 35  1  0  0  0  0
 33 66  1  0  0  0  0
 34 35  1  0  0  0  0
 34 67  1  0  0  0  0
 35 68  1  0  0  0  0
 35 69  1  0  0  0  0
 36 71  1  0  0  0  0
 36 72  1  0  0  0  0
M  END
> <PUBCHEM_COMPOUND_CID>
3323

> <PUBCHEM_COMPOUND_CANONICALIZED>
1

> <PUBCHEM_CACTVS_COMPLEXITY>
860

> <PUBCHEM_CACTVS_HBOND_ACCEPTOR>
9

> <PUBCHEM_CACTVS_HBOND_DONOR>
3

> <PUBCHEM_CACTVS_ROTATABLE_BOND>
6

> <PUBCHEM_CACTVS_SUBSKEYS>
AAADcfB4McAAAAAAAAAAAAAAAAAAAYAAAAAwYAAAAAAAAGAAAAAAGwAACAAAD1SggBICAAAAAgCAAiBCAAAAAAAgAAAACAAAAAgIFAIAAQAAQAAFwAAIkAOA4PQPgAAAAAAAAAAAAAAQACAAAQAACAAAAA==

> <PUBCHEM_IUPAC_OPENEYE_NAME>
5-[2-[7a-methyl-1-[6,6,6-trifluoro-5-hydroxy-1-methyl-5-(trifluoromethyl)hexyl]-2,3,3a,5,6,7-hexahydro-1H-inden-4-ylidene]ethylidene]-4-methylene-cyclohexane-1,3-diol

> <PUBCHEM_IUPAC_CAS_NAME>
5-[2-[7a-methyl-1-[7,7,7-trifluoro-6-hydroxy-6-(trifluoromethyl)heptan-2-yl]-2,3,3a,5,6,7-hexahydro-1H-inden-4-ylidene]ethylidene]-4-methylenecyclohexane-1,3-diol

> <PUBCHEM_IUPAC_NAME>
5-[2-[7a-methyl-1-[7,7,7-trifluoro-6-hydroxy-6-(trifluoromethyl)heptan-2-yl]-2,3,3a,5,6,7-hexahydro-1H-inden-4-ylidene]ethylidene]-4-methylidenecyclohexane-1,3-diol

> <PUBCHEM_IUPAC_SYSTEMATIC_NAME>
5-[2-[7a-methyl-1-[7,7,7-tris(fluoranyl)-6-oxidanyl-6-(trifluoromethyl)heptan-2-yl]-2,3,3a,5,6,7-hexahydro-1H-inden-4-ylidene]ethylidene]-4-methylidene-cyclohexane-1,3-diol

> <PUBCHEM_IUPAC_TRADITIONAL_NAME>
5-[2-[7a-methyl-1-[6,6,6-trifluoro-5-hydroxy-1-methyl-5-(trifluoromethyl)hexyl]-2,3,3a,5,6,7-hexahydro-1H-inden-4-ylidene]ethylidene]-4-methylene-cyclohexane-1,3-diol

> <PUBCHEM_IUPAC_INCHI>
InChI=1S/C27H38F6O3/c1-16(6-4-13-25(36,26(28,29)30)27(31,32)33)21-10-11-22-18(7-5-12-24(21,22)3)8-9-19-14-20(34)15-23(35)17(19)2/h8-9,16,20-23,34-36H,2,4-7,10-15H2,1,3H3

> <PUBCHEM_IUPAC_INCHIKEY>
XPYGGHVSFMUHLH-UHFFFAOYSA-N

> <PUBCHEM_XLOGP3_AA>
6.6

> <PUBCHEM_EXACT_MASS>
524.272514

> <PUBCHEM_MOLECULAR_FORMULA>
C27H38F6O3

> <PUBCHEM_MOLECULAR_WEIGHT>
524.579239

> <PUBCHEM_OPENEYE_CAN_SMILES>
CC(CCCC(C(F)(F)F)(C(F)(F)F)O)C1CCC2C1(CCCC2=CC=C3CC(CC(C3=C)O)O)C

> <PUBCHEM_OPENEYE_ISO_SMILES>
CC(CCCC(C(F)(F)F)(C(F)(F)F)O)C1CCC2C1(CCCC2=CC=C3CC(CC(C3=C)O)O)C

> <PUBCHEM_CACTVS_TPSA>
60.7

> <PUBCHEM_MONOISOTOPIC_WEIGHT>
524.272514

> <PUBCHEM_TOTAL_CHARGE>
0

> <PUBCHEM_HEAVY_ATOM_COUNT>
36

> <PUBCHEM_ATOM_DEF_STEREO_COUNT>
0

> <PUBCHEM_ATOM_UDEF_STEREO_COUNT>
6

> <PUBCHEM_BOND_DEF_STEREO_COUNT>
0

> <PUBCHEM_BOND_UDEF_STEREO_COUNT>
2

> <PUBCHEM_ISOTOPIC_ATOM_COUNT>
0

> <PUBCHEM_COMPONENT_COUNT>
1

> <PUBCHEM_CACTVS_TAUTO_COUNT>
1

> <PUBCHEM_COORDINATE_TYPE>
1
5
255

> <PUBCHEM_BONDANNOTATIONS>
10  18  3
11  13  3
12  14  3
16  22  3
17  23  1
26  28  1
33  8  3
34  9  3

$$$$

