11451
  -OEChem-06261205413D

 17 17  0     0  0  0  0  0  0999 V2000
    2.0065   -0.1925   -0.0943 S   0  0  0  0  0  0  0  0  0  0  0  0
    2.4684   -0.3015    1.4702 O   0  0  0  0  0  0  0  0  0  0  0  0
   -2.9015   -1.6153    0.0120 O   0  0  0  0  0  0  0  0  0  0  0  0
    2.1755   -1.5143   -0.6799 O   0  0  0  0  0  0  0  0  0  0  0  0
    2.6618    0.9672   -0.6788 O   0  0  0  0  0  0  0  0  0  0  0  0
    0.2970    0.1604   -0.0441 C   0  0  0  0  0  0  0  0  0  0  0  0
   -0.6305   -0.8814   -0.0353 C   0  0  0  0  0  0  0  0  0  0  0  0
   -0.1410    1.4845   -0.0137 C   0  0  0  0  0  0  0  0  0  0  0  0
   -1.9960   -0.5990    0.0039 C   0  0  0  0  0  0  0  0  0  0  0  0
   -1.5064    1.7668    0.0256 C   0  0  0  0  0  0  0  0  0  0  0  0
   -2.4339    0.7251    0.0344 C   0  0  0  0  0  0  0  0  0  0  0  0
   -0.2990   -1.9164   -0.0516 H   0  0  0  0  0  0  0  0  0  0  0  0
    0.5624    2.3123   -0.0120 H   0  0  0  0  0  0  0  0  0  0  0  0
   -1.8475    2.7976    0.0511 H   0  0  0  0  0  0  0  0  0  0  0  0
   -3.4962    0.9513    0.0653 H   0  0  0  0  0  0  0  0  0  0  0  0
    2.0347   -1.0185    1.9901 H   0  0  0  0  0  0  0  0  0  0  0  0
   -2.4252   -2.4630   -0.0128 H   0  0  0  0  0  0  0  0  0  0  0  0
  1  2  1  0  0  0  0
  1  4  2  0  0  0  0
  1  5  2  0  0  0  0
  1  6  1  0  0  0  0
  2 16  1  0  0  0  0
  3  9  1  0  0  0  0
  3 17  1  0  0  0  0
  6  7  1  0  0  0  0
  6  8  2  0  0  0  0
  7  9  2  0  0  0  0
  7 12  1  0  0  0  0
  8 10  1  0  0  0  0
  8 13  1  0  0  0  0
  9 11  1  0  0  0  0
 10 11  2  0  0  0  0
 10 14  1  0  0  0  0
 11 15  1  0  0  0  0
M  END
> <PUBCHEM_COMPOUND_CID>
11451

> <PUBCHEM_CONFORMER_RMSD>
0.4

> <PUBCHEM_CONFORMER_DIVERSEORDER>
1
2

> <PUBCHEM_MMFF94_PARTIAL_CHARGES>
17
1 1.49
10 -0.15
11 -0.15
12 0.15
13 0.15
14 0.15
15 0.15
16 0.5
17 0.45
2 -0.68
3 -0.53
4 -0.65
5 -0.65
6 -0.01
7 -0.15
8 -0.15
9 0.08

> <PUBCHEM_EFFECTIVE_ROTOR_COUNT>
1

> <PUBCHEM_PHARMACOPHORE_FEATURES>
6
1 2 acceptor
1 3 donor
1 4 acceptor
1 5 acceptor
4 1 2 4 5 anion
6 6 7 8 9 10 11 rings

> <PUBCHEM_HEAVY_ATOM_COUNT>
11

> <PUBCHEM_ATOM_DEF_STEREO_COUNT>
0

> <PUBCHEM_ATOM_UDEF_STEREO_COUNT>
0

> <PUBCHEM_BOND_DEF_STEREO_COUNT>
0

> <PUBCHEM_BOND_UDEF_STEREO_COUNT>
0

> <PUBCHEM_ISOTOPIC_ATOM_COUNT>
0

> <PUBCHEM_COMPONENT_COUNT>
1

> <PUBCHEM_CACTVS_TAUTO_COUNT>
3

> <PUBCHEM_CONFORMER_ID>
00002CBB00000001

> <PUBCHEM_MMFF94_ENERGY>
16.8735

> <PUBCHEM_FEATURE_SELFOVERLAP>
30.503

> <PUBCHEM_SHAPE_FINGERPRINT>
10857977 72 18334303036891616001
12524768 44 18412258454166367164
12716758 59 18192152809338815209
12897270 3 18409721842418419548
12932764 1 17489584618733153604
14128692 85 18266732489861897989
16945 1 18197498630583479933
193761 8 14808534748262327764
19973954 147 18337104669897315212
20645464 45 17531541943968310578
20871998 184 18187362121402505975
21040471 1 18050005785684138545
23552423 10 18271802466626157814
2748010 2 18335698385940691055
3248919 1 18336553801528583516
369184 2 17275105054514166601
5084963 1 18117555347672453384

> <PUBCHEM_SHAPE_MULTIPOLES>
206.75
4.2
1.71
0.81
0.74
0.1
0.19
-0.81
0.07
-0.71
-0.14
0.54
-0.04
-0.04

> <PUBCHEM_SHAPE_SELFOVERLAP>
419.536

> <PUBCHEM_SHAPE_VOLUME>
120.7

> <PUBCHEM_COORDINATE_TYPE>
2
5
10

$$$$

