47205495
  -OEChem-06241222592D

 28 29  0     1  0  0  0  0  0999 V2000
    3.7601   -1.1850    0.0000 S   0  0  0  0  0  0  0  0  0  0  0  0
    6.0554    0.7410    0.0000 O   0  0  0  0  0  0  0  0  0  0  0  0
    7.9575    0.1230    0.0000 N   0  0  0  0  0  0  0  0  0  0  0  0
    5.5202   -0.9062    0.0000 N   0  0  0  0  0  0  0  0  0  0  0  0
    8.7665    1.5243    0.0000 N   0  0  0  0  0  0  0  0  0  0  0  0
    4.2601    0.3538    0.0000 N   0  0  0  0  0  0  0  0  0  0  0  0
    7.2144   -0.5461    0.0000 C   0  0  3  0  0  0  0  0  0  0  0  0
    7.4223   -1.5243    0.0000 C   0  0  0  0  0  0  0  0  0  0  0  0
    6.2633   -0.2371    0.0000 C   0  0  0  0  0  0  0  0  0  0  0  0
    8.9356   -0.0849    0.0000 C   0  0  0  0  0  0  0  0  0  0  0  0
    7.8530    1.1175    0.0000 C   0  0  0  0  0  0  0  0  0  0  0  0
    4.5691   -0.5972    0.0000 C   0  0  0  0  0  0  0  0  0  0  0  0
    9.4356    0.7811    0.0000 C   0  0  0  0  0  0  0  0  0  0  0  0
    2.9511   -0.5972    0.0000 C   0  0  0  0  0  0  0  0  0  0  0  0
    3.2601    0.3538    0.0000 C   0  0  0  0  0  0  0  0  0  0  0  0
    2.0000   -0.9062    0.0000 C   0  0  0  0  0  0  0  0  0  0  0  0
    7.8040   -0.7377    0.0000 H   0  0  0  0  0  0  0  0  0  0  0  0
    6.8158   -1.6532    0.0000 H   0  0  0  0  0  0  0  0  0  0  0  0
    7.5512   -2.1307    0.0000 H   0  0  0  0  0  0  0  0  0  0  0  0
    8.0287   -1.3954    0.0000 H   0  0  0  0  0  0  0  0  0  0  0  0
    9.1878   -0.6513    0.0000 H   0  0  0  0  0  0  0  0  0  0  0  0
    7.3160    1.4275    0.0000 H   0  0  0  0  0  0  0  0  0  0  0  0
    5.6490   -1.5127    0.0000 H   0  0  0  0  0  0  0  0  0  0  0  0
   10.0522    0.8459    0.0000 H   0  0  0  0  0  0  0  0  0  0  0  0
    2.8956    0.8554    0.0000 H   0  0  0  0  0  0  0  0  0  0  0  0
    1.8084   -0.3166    0.0000 H   0  0  0  0  0  0  0  0  0  0  0  0
    1.4103   -1.0978    0.0000 H   0  0  0  0  0  0  0  0  0  0  0  0
    2.1916   -1.4959    0.0000 H   0  0  0  0  0  0  0  0  0  0  0  0
  1 12  1  0  0  0  0
  1 14  1  0  0  0  0
  2  9  2  0  0  0  0
  3  7  1  0  0  0  0
  3 10  1  0  0  0  0
  3 11  1  0  0  0  0
  4  9  1  0  0  0  0
  4 12  1  0  0  0  0
  4 23  1  0  0  0  0
  5 11  2  0  0  0  0
  5 13  1  0  0  0  0
  6 12  2  0  0  0  0
  6 15  1  0  0  0  0
  7  8  1  0  0  0  0
  7  9  1  0  0  0  0
  7 17  1  0  0  0  0
  8 18  1  0  0  0  0
  8 19  1  0  0  0  0
  8 20  1  0  0  0  0
 10 13  2  0  0  0  0
 10 21  1  0  0  0  0
 11 22  1  0  0  0  0
 13 24  1  0  0  0  0
 14 15  2  0  0  0  0
 14 16  1  0  0  0  0
 15 25  1  0  0  0  0
 16 26  1  0  0  0  0
 16 27  1  0  0  0  0
 16 28  1  0  0  0  0
M  END
> <PUBCHEM_COMPOUND_CID>
47205495

> <PUBCHEM_COMPOUND_CANONICALIZED>
1

> <PUBCHEM_CACTVS_COMPLEXITY>
263

> <PUBCHEM_CACTVS_HBOND_ACCEPTOR>
4

> <PUBCHEM_CACTVS_HBOND_DONOR>
1

> <PUBCHEM_CACTVS_ROTATABLE_BOND>
3

> <PUBCHEM_CACTVS_SUBSKEYS>
AAADccBzoABAAAAAAAAAAAAAAAAAAWLAAAAAAAAAAAAAAAAB4AAAHgQQAAAACCjB0gQvkRfMEAisABF3dAAA8K1RGrlJUA24cACASABACSAUAAAIEQLAACAAAAAAAAAAAAAAAAAAAAAAAAAAAAAAAAAAAA==

> <PUBCHEM_IUPAC_OPENEYE_NAME>
2-imidazol-1-yl-N-(5-methylthiazol-2-yl)propanamide

> <PUBCHEM_IUPAC_CAS_NAME>
2-(1-imidazolyl)-N-(5-methyl-2-thiazolyl)propanamide

> <PUBCHEM_IUPAC_NAME>
2-imidazol-1-yl-N-(5-methyl-1,3-thiazol-2-yl)propanamide

> <PUBCHEM_IUPAC_SYSTEMATIC_NAME>
2-imidazol-1-yl-N-(5-methyl-1,3-thiazol-2-yl)propanamide

> <PUBCHEM_IUPAC_TRADITIONAL_NAME>
2-imidazol-1-yl-N-(5-methylthiazol-2-yl)propionamide

> <PUBCHEM_IUPAC_INCHI>
InChI=1S/C10H12N4OS/c1-7-5-12-10(16-7)13-9(15)8(2)14-4-3-11-6-14/h3-6,8H,1-2H3,(H,12,13,15)

> <PUBCHEM_IUPAC_INCHIKEY>
ZCIKWVDSBXAWOU-UHFFFAOYSA-N

> <PUBCHEM_XLOGP3_AA>
1.2

> <PUBCHEM_EXACT_MASS>
236.073182

> <PUBCHEM_MOLECULAR_FORMULA>
C10H12N4OS

> <PUBCHEM_MOLECULAR_WEIGHT>
236.29348

> <PUBCHEM_OPENEYE_CAN_SMILES>
CC1=CN=C(S1)NC(=O)C(C)N2C=CN=C2

> <PUBCHEM_OPENEYE_ISO_SMILES>
CC1=CN=C(S1)NC(=O)C(C)N2C=CN=C2

> <PUBCHEM_CACTVS_TPSA>
88

> <PUBCHEM_MONOISOTOPIC_WEIGHT>
236.073182

> <PUBCHEM_TOTAL_CHARGE>
0

> <PUBCHEM_HEAVY_ATOM_COUNT>
16

> <PUBCHEM_ATOM_DEF_STEREO_COUNT>
0

> <PUBCHEM_ATOM_UDEF_STEREO_COUNT>
1

> <PUBCHEM_BOND_DEF_STEREO_COUNT>
0

> <PUBCHEM_BOND_UDEF_STEREO_COUNT>
0

> <PUBCHEM_ISOTOPIC_ATOM_COUNT>
0

> <PUBCHEM_COMPONENT_COUNT>
1

> <PUBCHEM_CACTVS_TAUTO_COUNT>
5

> <PUBCHEM_COORDINATE_TYPE>
1
5
255

> <PUBCHEM_BONDANNOTATIONS>
1  12  8
1  14  8
10  13  8
14  15  8
3  10  8
3  11  8
5  11  8
5  13  8
6  12  8
6  15  8
7  8  3

$$$$

