12816
  -OEChem-06261207242D

 27 28  0     0  0  0  0  0  0999 V2000
    4.2788    1.5794    0.0000 O   0  0  0  0  0  0  0  0  0  0  0  0
    6.3479   -1.2685    0.0000 O   0  0  0  0  0  0  0  0  0  0  0  0
    4.5878   -0.9897    0.0000 N   0  0  0  0  0  0  0  0  0  0  0  0
    5.5388    0.3193    0.0000 N   0  0  0  0  0  0  0  0  0  0  0  0
    4.0000   -0.1807    0.0000 C   0  0  0  0  0  0  0  0  0  0  0  0
    3.5000   -1.0467    0.0000 C   0  0  0  0  0  0  0  0  0  0  0  0
    3.5000    0.6853    0.0000 C   0  0  0  0  0  0  0  0  0  0  0  0
    2.5000   -1.0467    0.0000 C   0  0  0  0  0  0  0  0  0  0  0  0
    2.5000    0.6853    0.0000 C   0  0  0  0  0  0  0  0  0  0  0  0
    2.0000   -0.1807    0.0000 C   0  0  0  0  0  0  0  0  0  0  0  0
    4.5878    0.6283    0.0000 C   0  0  0  0  0  0  0  0  0  0  0  0
    5.5388   -0.6807    0.0000 C   0  0  0  0  0  0  0  0  0  0  0  0
    6.3479    0.9071    0.0000 C   0  0  0  0  0  0  0  0  0  0  0  0
    3.3923   -1.6573    0.0000 H   0  0  0  0  0  0  0  0  0  0  0  0
    4.0826   -1.2588    0.0000 H   0  0  0  0  0  0  0  0  0  0  0  0
    4.0826    0.8974    0.0000 H   0  0  0  0  0  0  0  0  0  0  0  0
    3.3923    1.2959    0.0000 H   0  0  0  0  0  0  0  0  0  0  0  0
    1.9174   -1.2588    0.0000 H   0  0  0  0  0  0  0  0  0  0  0  0
    2.6077   -1.6573    0.0000 H   0  0  0  0  0  0  0  0  0  0  0  0
    2.6077    1.2959    0.0000 H   0  0  0  0  0  0  0  0  0  0  0  0
    1.9174    0.8974    0.0000 H   0  0  0  0  0  0  0  0  0  0  0  0
    1.5250    0.2178    0.0000 H   0  0  0  0  0  0  0  0  0  0  0  0
    1.5250   -0.5792    0.0000 H   0  0  0  0  0  0  0  0  0  0  0  0
    4.3962   -1.5794    0.0000 H   0  0  0  0  0  0  0  0  0  0  0  0
    6.7123    0.4055    0.0000 H   0  0  0  0  0  0  0  0  0  0  0  0
    6.8494    1.2715    0.0000 H   0  0  0  0  0  0  0  0  0  0  0  0
    5.9834    1.4087    0.0000 H   0  0  0  0  0  0  0  0  0  0  0  0
  1 11  2  0  0  0  0
  2 12  2  0  0  0  0
  3  5  1  0  0  0  0
  3 12  1  0  0  0  0
  3 24  1  0  0  0  0
  4 11  1  0  0  0  0
  4 12  1  0  0  0  0
  4 13  1  0  0  0  0
  5  6  1  0  0  0  0
  5  7  1  0  0  0  0
  5 11  1  0  0  0  0
  6  8  1  0  0  0  0
  6 14  1  0  0  0  0
  6 15  1  0  0  0  0
  7  9  1  0  0  0  0
  7 16  1  0  0  0  0
  7 17  1  0  0  0  0
  8 10  1  0  0  0  0
  8 18  1  0  0  0  0
  8 19  1  0  0  0  0
  9 10  1  0  0  0  0
  9 20  1  0  0  0  0
  9 21  1  0  0  0  0
 10 22  1  0  0  0  0
 10 23  1  0  0  0  0
 13 25  1  0  0  0  0
 13 26  1  0  0  0  0
 13 27  1  0  0  0  0
M  END
> <PUBCHEM_COMPOUND_CID>
12816

> <PUBCHEM_COMPOUND_CANONICALIZED>
1

> <PUBCHEM_CACTVS_COMPLEXITY>
256

> <PUBCHEM_CACTVS_HBOND_ACCEPTOR>
2

> <PUBCHEM_CACTVS_HBOND_DONOR>
1

> <PUBCHEM_CACTVS_ROTATABLE_BOND>
0

> <PUBCHEM_CACTVS_SUBSKEYS>
AAADccBzMAAAAAAAAAAAAAAAAAAAAWAAAAAwAAAAAAAAAAAAAAAAHgAQAAAADIiBgAQDAAPAAAAIAAEQEAAAAAAAAAAAAAGIAACAQBIAgCAUAAAIFyIAAAEYiACOAAAAAAAAAAAAAAAAAAAAAAAAAAAAAA==

> <PUBCHEM_IUPAC_OPENEYE_NAME>
3-methyl-1,3-diazaspiro[4.5]decane-2,4-dione

> <PUBCHEM_IUPAC_CAS_NAME>
3-methyl-1,3-diazaspiro[4.5]decane-2,4-dione

> <PUBCHEM_IUPAC_NAME>
3-methyl-1,3-diazaspiro[4.5]decane-2,4-dione

> <PUBCHEM_IUPAC_SYSTEMATIC_NAME>
3-methyl-1,3-diazaspiro[4.5]decane-2,4-dione

> <PUBCHEM_IUPAC_TRADITIONAL_NAME>
3-methyl-1,3-diazaspiro[4.5]decane-2,4-quinone

> <PUBCHEM_IUPAC_INCHI>
InChI=1S/C9H14N2O2/c1-11-7(12)9(10-8(11)13)5-3-2-4-6-9/h2-6H2,1H3,(H,10,13)

> <PUBCHEM_IUPAC_INCHIKEY>
VSFUHUUDMVNIRO-UHFFFAOYSA-N

> <PUBCHEM_XLOGP3_AA>
0.7

> <PUBCHEM_EXACT_MASS>
182.105528

> <PUBCHEM_MOLECULAR_FORMULA>
C9H14N2O2

> <PUBCHEM_MOLECULAR_WEIGHT>
182.21966

> <PUBCHEM_OPENEYE_CAN_SMILES>
CN1C(=O)C2(CCCCC2)NC1=O

> <PUBCHEM_OPENEYE_ISO_SMILES>
CN1C(=O)C2(CCCCC2)NC1=O

> <PUBCHEM_CACTVS_TPSA>
49.4

> <PUBCHEM_MONOISOTOPIC_WEIGHT>
182.105528

> <PUBCHEM_TOTAL_CHARGE>
0

> <PUBCHEM_HEAVY_ATOM_COUNT>
13

> <PUBCHEM_ATOM_DEF_STEREO_COUNT>
0

> <PUBCHEM_ATOM_UDEF_STEREO_COUNT>
0

> <PUBCHEM_BOND_DEF_STEREO_COUNT>
0

> <PUBCHEM_BOND_UDEF_STEREO_COUNT>
0

> <PUBCHEM_ISOTOPIC_ATOM_COUNT>
0

> <PUBCHEM_COMPONENT_COUNT>
1

> <PUBCHEM_CACTVS_TAUTO_COUNT>
2

> <PUBCHEM_COORDINATE_TYPE>
1
5
255

$$$$

