5065
  -OEChem-06261200302D

 91 93  0     1  0  0  0  0  0999 V2000
    5.4641   -0.9827    0.0000 O   0  0  0  0  0  0  0  0  0  0  0  0
    5.4641    1.0173    0.0000 O   0  0  0  0  0  0  0  0  0  0  0  0
    7.1962    2.0173    0.0000 O   0  0  0  0  0  0  0  0  0  0  0  0
    8.9282    1.0173    0.0000 O   0  0  0  0  0  0  0  0  0  0  0  0
    4.5981    0.5173    0.0000 O   0  0  0  0  0  0  0  0  0  0  0  0
    6.3301    2.5173    0.0000 O   0  0  0  0  0  0  0  0  0  0  0  0
    8.9282    2.0173    0.0000 O   0  0  0  0  0  0  0  0  0  0  0  0
    8.9446   -5.0173    0.0000 O   0  0  0  0  0  0  0  0  0  0  0  0
   10.7263   -1.9586    0.0000 O   0  0  0  0  0  0  0  0  0  0  0  0
    9.7942   -0.4827    0.0000 O   0  0  0  0  0  0  0  0  0  0  0  0
    7.1962   -1.9827    0.0000 N   0  0  0  0  0  0  0  0  0  0  0  0
    7.1962   -3.9827    0.0000 N   0  0  0  0  0  0  0  0  0  0  0  0
    8.9561   -1.9480    0.0000 N   0  0  0  0  0  0  0  0  0  0  0  0
    9.8622   -3.5035    0.0000 N   0  0  0  0  0  0  0  0  0  0  0  0
    6.3301   -0.4827    0.0000 C   0  0  3  0  0  0  0  0  0  0  0  0
    6.3301    0.5173    0.0000 C   0  0  3  0  0  0  0  0  0  0  0  0
    7.1962   -0.9827    0.0000 C   0  0  0  0  0  0  0  0  0  0  0  0
    7.1962    1.0173    0.0000 C   0  0  3  0  0  0  0  0  0  0  0  0
    8.0622    0.5173    0.0000 C   0  0  0  0  0  0  0  0  0  0  0  0
    6.3301   -2.4827    0.0000 C   0  0  0  0  0  0  0  0  0  0  0  0
    8.0622   -2.4827    0.0000 C   0  0  0  0  0  0  0  0  0  0  0  0
    6.3301   -3.4827    0.0000 C   0  0  0  0  0  0  0  0  0  0  0  0
    8.0622   -3.4827    0.0000 C   0  0  0  0  0  0  0  0  0  0  0  0
    5.4362   -1.9480    0.0000 C   0  0  0  0  0  0  0  0  0  0  0  0
    4.5301   -2.4619    0.0000 C   0  0  0  0  0  0  0  0  0  0  0  0
    5.4362   -4.0174    0.0000 C   0  0  0  0  0  0  0  0  0  0  0  0
    4.5981   -0.4827    0.0000 C   0  0  0  0  0  0  0  0  0  0  0  0
    5.4641    2.0173    0.0000 C   0  0  0  0  0  0  0  0  0  0  0  0
    4.5301   -3.5035    0.0000 C   0  0  0  0  0  0  0  0  0  0  0  0
    8.0622    2.5173    0.0000 C   0  0  0  0  0  0  0  0  0  0  0  0
    3.7320   -0.9827    0.0000 C   0  0  0  0  0  0  0  0  0  0  0  0
    4.5981    2.5173    0.0000 C   0  0  0  0  0  0  0  0  0  0  0  0
    8.9561   -4.0174    0.0000 C   0  0  0  0  0  0  0  0  0  0  0  0
    8.0622    3.5173    0.0000 C   0  0  0  0  0  0  0  0  0  0  0  0
    3.6660   -1.9586    0.0000 C   0  0  0  0  0  0  0  0  0  0  0  0
    3.6660   -4.0068    0.0000 C   0  0  0  0  0  0  0  0  0  0  0  0
    2.8660   -0.4827    0.0000 C   0  0  0  0  0  0  0  0  0  0  0  0
    4.5981    3.5173    0.0000 C   0  0  0  0  0  0  0  0  0  0  0  0
    9.8622   -2.4619    0.0000 C   0  0  0  0  0  0  0  0  0  0  0  0
    9.7942    0.5173    0.0000 C   0  0  0  0  0  0  0  0  0  0  0  0
    8.9282    4.0173    0.0000 C   0  0  0  0  0  0  0  0  0  0  0  0
   10.6603    1.0173    0.0000 C   0  0  0  0  0  0  0  0  0  0  0  0
    2.0000   -0.9827    0.0000 C   0  0  0  0  0  0  0  0  0  0  0  0
    3.7320    4.0173    0.0000 C   0  0  0  0  0  0  0  0  0  0  0  0
   11.5263    0.5173    0.0000 C   0  0  0  0  0  0  0  0  0  0  0  0
    8.9282    5.0173    0.0000 C   0  0  0  0  0  0  0  0  0  0  0  0
   12.3923    1.0173    0.0000 C   0  0  0  0  0  0  0  0  0  0  0  0
    5.5940   -0.0577    0.0000 H   0  0  0  0  0  0  0  0  0  0  0  0
    5.5940    0.0923    0.0000 H   0  0  0  0  0  0  0  0  0  0  0  0
    7.8067   -1.0904    0.0000 H   0  0  0  0  0  0  0  0  0  0  0  0
    7.4082   -0.4001    0.0000 H   0  0  0  0  0  0  0  0  0  0  0  0
    6.4600    1.4423    0.0000 H   0  0  0  0  0  0  0  0  0  0  0  0
    7.6636    0.0423    0.0000 H   0  0  0  0  0  0  0  0  0  0  0  0
    8.4607    0.0423    0.0000 H   0  0  0  0  0  0  0  0  0  0  0  0
    5.4434   -1.3281    0.0000 H   0  0  0  0  0  0  0  0  0  0  0  0
    5.4434   -4.6373    0.0000 H   0  0  0  0  0  0  0  0  0  0  0  0
    3.3335   -1.4576    0.0000 H   0  0  0  0  0  0  0  0  0  0  0  0
    4.1306   -1.4576    0.0000 H   0  0  0  0  0  0  0  0  0  0  0  0
    3.9875    2.6250    0.0000 H   0  0  0  0  0  0  0  0  0  0  0  0
    4.3860    1.9347    0.0000 H   0  0  0  0  0  0  0  0  0  0  0  0
    7.8501    4.0999    0.0000 H   0  0  0  0  0  0  0  0  0  0  0  0
    7.4516    3.4096    0.0000 H   0  0  0  0  0  0  0  0  0  0  0  0
    3.9781   -1.4228    0.0000 H   0  0  0  0  0  0  0  0  0  0  0  0
    3.1303   -1.6465    0.0000 H   0  0  0  0  0  0  0  0  0  0  0  0
    3.3540   -2.4943    0.0000 H   0  0  0  0  0  0  0  0  0  0  0  0
    3.3540   -3.4711    0.0000 H   0  0  0  0  0  0  0  0  0  0  0  0
    3.1303   -4.3189    0.0000 H   0  0  0  0  0  0  0  0  0  0  0  0
    3.9781   -4.5426    0.0000 H   0  0  0  0  0  0  0  0  0  0  0  0
    3.2646   -0.0078    0.0000 H   0  0  0  0  0  0  0  0  0  0  0  0
    2.4675   -0.0078    0.0000 H   0  0  0  0  0  0  0  0  0  0  0  0
    5.2087    3.4096    0.0000 H   0  0  0  0  0  0  0  0  0  0  0  0
    4.8101    4.0999    0.0000 H   0  0  0  0  0  0  0  0  0  0  0  0
   10.3979   -3.8156    0.0000 H   0  0  0  0  0  0  0  0  0  0  0  0
    9.1403    3.4347    0.0000 H   0  0  0  0  0  0  0  0  0  0  0  0
    9.5388    4.1250    0.0000 H   0  0  0  0  0  0  0  0  0  0  0  0
   11.0588    1.4922    0.0000 H   0  0  0  0  0  0  0  0  0  0  0  0
   10.2617    1.4922    0.0000 H   0  0  0  0  0  0  0  0  0  0  0  0
    1.6900   -0.4458    0.0000 H   0  0  0  0  0  0  0  0  0  0  0  0
    1.4631   -1.2927    0.0000 H   0  0  0  0  0  0  0  0  0  0  0  0
    2.3100   -1.5196    0.0000 H   0  0  0  0  0  0  0  0  0  0  0  0
    4.0420    4.5542    0.0000 H   0  0  0  0  0  0  0  0  0  0  0  0
    3.1951    4.3273    0.0000 H   0  0  0  0  0  0  0  0  0  0  0  0
    3.4220    3.4804    0.0000 H   0  0  0  0  0  0  0  0  0  0  0  0
   11.1278    0.0423    0.0000 H   0  0  0  0  0  0  0  0  0  0  0  0
   11.9248    0.0423    0.0000 H   0  0  0  0  0  0  0  0  0  0  0  0
    9.5482    5.0173    0.0000 H   0  0  0  0  0  0  0  0  0  0  0  0
    8.9282    5.6373    0.0000 H   0  0  0  0  0  0  0  0  0  0  0  0
    8.3082    5.0173    0.0000 H   0  0  0  0  0  0  0  0  0  0  0  0
   12.7023    0.4804    0.0000 H   0  0  0  0  0  0  0  0  0  0  0  0
   12.9292    1.3273    0.0000 H   0  0  0  0  0  0  0  0  0  0  0  0
   12.0823    1.5542    0.0000 H   0  0  0  0  0  0  0  0  0  0  0  0
  1 15  1  0  0  0  0
  1 27  1  0  0  0  0
  2 16  1  0  0  0  0
  2 28  1  0  0  0  0
  3 18  1  0  0  0  0
  3 30  1  0  0  0  0
  4 19  1  0  0  0  0
  4 40  1  0  0  0  0
  5 27  2  0  0  0  0
  6 28  2  0  0  0  0
  7 30  2  0  0  0  0
  8 33  2  0  0  0  0
  9 39  2  0  0  0  0
 10 40  2  0  0  0  0
 11 17  1  0  0  0  0
 11 20  1  0  0  0  0
 11 21  1  0  0  0  0
 12 22  1  0  0  0  0
 12 23  2  0  0  0  0
 13 21  2  0  0  0  0
 13 39  1  0  0  0  0
 14 33  1  0  0  0  0
 14 39  1  0  0  0  0
 14 73  1  0  0  0  0
 15 16  1  0  0  0  0
 15 17  1  0  0  0  0
 15 48  1  0  0  0  0
 16 18  1  0  0  0  0
 16 49  1  0  0  0  0
 17 50  1  0  0  0  0
 17 51  1  0  0  0  0
 18 19  1  0  0  0  0
 18 52  1  0  0  0  0
 19 53  1  0  0  0  0
 19 54  1  0  0  0  0
 20 22  2  0  0  0  0
 20 24  1  0  0  0  0
 21 23  1  0  0  0  0
 22 26  1  0  0  0  0
 23 33  1  0  0  0  0
 24 25  2  0  0  0  0
 24 55  1  0  0  0  0
 25 29  1  0  0  0  0
 25 35  1  0  0  0  0
 26 29  2  0  0  0  0
 26 56  1  0  0  0  0
 27 31  1  0  0  0  0
 28 32  1  0  0  0  0
 29 36  1  0  0  0  0
 30 34  1  0  0  0  0
 31 37  1  0  0  0  0
 31 57  1  0  0  0  0
 31 58  1  0  0  0  0
 32 38  1  0  0  0  0
 32 59  1  0  0  0  0
 32 60  1  0  0  0  0
 34 41  1  0  0  0  0
 34 61  1  0  0  0  0
 34 62  1  0  0  0  0
 35 63  1  0  0  0  0
 35 64  1  0  0  0  0
 35 65  1  0  0  0  0
 36 66  1  0  0  0  0
 36 67  1  0  0  0  0
 36 68  1  0  0  0  0
 37 43  1  0  0  0  0
 37 69  1  0  0  0  0
 37 70  1  0  0  0  0
 38 44  1  0  0  0  0
 38 71  1  0  0  0  0
 38 72  1  0  0  0  0
 40 42  1  0  0  0  0
 41 46  1  0  0  0  0
 41 74  1  0  0  0  0
 41 75  1  0  0  0  0
 42 45  1  0  0  0  0
 42 76  1  0  0  0  0
 42 77  1  0  0  0  0
 43 78  1  0  0  0  0
 43 79  1  0  0  0  0
 43 80  1  0  0  0  0
 44 81  1  0  0  0  0
 44 82  1  0  0  0  0
 44 83  1  0  0  0  0
 45 47  1  0  0  0  0
 45 84  1  0  0  0  0
 45 85  1  0  0  0  0
 46 86  1  0  0  0  0
 46 87  1  0  0  0  0
 46 88  1  0  0  0  0
 47 89  1  0  0  0  0
 47 90  1  0  0  0  0
 47 91  1  0  0  0  0
M  END
> <PUBCHEM_COMPOUND_CID>
5065

> <PUBCHEM_COMPOUND_CANONICALIZED>
1

> <PUBCHEM_CACTVS_COMPLEXITY>
1230

> <PUBCHEM_CACTVS_HBOND_ACCEPTOR>
11

> <PUBCHEM_CACTVS_HBOND_DONOR>
1

> <PUBCHEM_CACTVS_ROTATABLE_BOND>
21

> <PUBCHEM_CACTVS_SUBSKEYS>
AAADcfB/vAAAAAAAAAAAAAAAAAAAAAAAAAAwQIAAAAAAAACBAAAAHgAQAAAADBzhmAYzyIPABACoAyfyfACCAAEhAgABiAEodIiLYDrA2ZGXIAhnhSLayAfwkIIOiAAAQAAQACAQAACAACAAQAAAAAAAAA==

> <PUBCHEM_IUPAC_OPENEYE_NAME>
[2,3,4-tri(butanoyloxy)-5-(7,8-dimethyl-2,4-dioxo-benzo[g]pteridin-10-yl)pentyl] butanoate

> <PUBCHEM_IUPAC_CAS_NAME>
butanoic acid [5-(7,8-dimethyl-2,4-dioxo-10-benzo[g]pteridinyl)-2,3,4-tris(1-oxobutoxy)pentyl] ester

> <PUBCHEM_IUPAC_NAME>
[2,3,4-tri(butanoyloxy)-5-(7,8-dimethyl-2,4-dioxobenzo[g]pteridin-10-yl)pentyl] butanoate

> <PUBCHEM_IUPAC_SYSTEMATIC_NAME>
[2,3,4-tri(butanoyloxy)-5-[7,8-dimethyl-2,4-bis(oxidanylidene)benzo[g]pteridin-10-yl]pentyl] butanoate

> <PUBCHEM_IUPAC_TRADITIONAL_NAME>
butyric acid [2,3,4-tributyryloxy-5-(2,4-diketo-7,8-dimethyl-benzo[g]pteridin-10-yl)pentyl] ester

> <PUBCHEM_IUPAC_INCHI>
InChI=1S/C33H44N4O10/c1-7-11-25(38)44-18-24(46-27(40)13-9-3)30(47-28(41)14-10-4)23(45-26(39)12-8-2)17-37-22-16-20(6)19(5)15-21(22)34-29-31(37)35-33(43)36-32(29)42/h15-16,23-24,30H,7-14,17-18H2,1-6H3,(H,36,42,43)

> <PUBCHEM_IUPAC_INCHIKEY>
MJNIWUJSIGSWKK-UHFFFAOYSA-N

> <PUBCHEM_XLOGP3>
4.1

> <PUBCHEM_EXACT_MASS>
656.305744

> <PUBCHEM_MOLECULAR_FORMULA>
C33H44N4O10

> <PUBCHEM_MOLECULAR_WEIGHT>
656.72326

> <PUBCHEM_OPENEYE_CAN_SMILES>
CCCC(=O)OCC(C(C(CN1C2=C(C=C(C(=C2)C)C)N=C3C1=NC(=O)NC3=O)OC(=O)CCC)OC(=O)CCC)OC(=O)CCC

> <PUBCHEM_OPENEYE_ISO_SMILES>
CCCC(=O)OCC(C(C(CN1C2=C(C=C(C(=C2)C)C)N=C3C1=NC(=O)NC3=O)OC(=O)CCC)OC(=O)CCC)OC(=O)CCC

> <PUBCHEM_CACTVS_TPSA>
179

> <PUBCHEM_MONOISOTOPIC_WEIGHT>
656.305744

> <PUBCHEM_TOTAL_CHARGE>
0

> <PUBCHEM_HEAVY_ATOM_COUNT>
47

> <PUBCHEM_ATOM_DEF_STEREO_COUNT>
0

> <PUBCHEM_ATOM_UDEF_STEREO_COUNT>
3

> <PUBCHEM_BOND_DEF_STEREO_COUNT>
0

> <PUBCHEM_BOND_UDEF_STEREO_COUNT>
0

> <PUBCHEM_ISOTOPIC_ATOM_COUNT>
0

> <PUBCHEM_COMPONENT_COUNT>
1

> <PUBCHEM_CACTVS_TAUTO_COUNT>
3

> <PUBCHEM_COORDINATE_TYPE>
1
5
255

> <PUBCHEM_BONDANNOTATIONS>
11  20  8
11  21  8
12  22  8
12  23  8
13  21  8
13  39  8
14  33  8
14  39  8
15  48  3
16  49  3
18  52  3
20  22  8
20  24  8
22  26  8
23  33  8
24  25  8
25  29  8
26  29  8

$$$$

