9546
  -OEChem-06261203483D

 33 32  0     0  0  0  0  0  0999 V2000
    6.7850    0.3377    0.0147 F   0  0  0  0  0  0  0  0  0  0  0  0
   -6.8501   -0.3361   -0.0297 O   0  0  0  0  0  0  0  0  0  0  0  0
   -0.6027    0.4079    0.0131 C   0  0  0  0  0  0  0  0  0  0  0  0
    0.6538   -0.4649   -0.0207 C   0  0  0  0  0  0  0  0  0  0  0  0
   -1.9034   -0.4005    0.0583 C   0  0  0  0  0  0  0  0  0  0  0  0
    1.9226    0.3908   -0.0333 C   0  0  0  0  0  0  0  0  0  0  0  0
   -3.1602    0.4725    0.0166 C   0  0  0  0  0  0  0  0  0  0  0  0
    3.1805   -0.4795   -0.0340 C   0  0  0  0  0  0  0  0  0  0  0  0
   -4.4567   -0.3391    0.0049 C   0  0  0  0  0  0  0  0  0  0  0  0
    4.4463    0.3739   -0.0128 C   0  0  0  0  0  0  0  0  0  0  0  0
   -5.7146    0.5191   -0.0002 C   0  0  0  0  0  0  0  0  0  0  0  0
    5.6996   -0.4819    0.0230 C   0  0  0  0  0  0  0  0  0  0  0  0
   -0.5645    1.0691    0.8877 H   0  0  0  0  0  0  0  0  0  0  0  0
   -0.6130    1.0552   -0.8728 H   0  0  0  0  0  0  0  0  0  0  0  0
    0.6624   -1.1244    0.8556 H   0  0  0  0  0  0  0  0  0  0  0  0
    0.6315   -1.1070   -0.9093 H   0  0  0  0  0  0  0  0  0  0  0  0
   -1.9220   -1.0942   -0.7915 H   0  0  0  0  0  0  0  0  0  0  0  0
   -1.9168   -1.0133    0.9679 H   0  0  0  0  0  0  0  0  0  0  0  0
    1.9312    1.0458    0.8465 H   0  0  0  0  0  0  0  0  0  0  0  0
    1.9219    1.0381   -0.9186 H   0  0  0  0  0  0  0  0  0  0  0  0
   -3.1605    1.1428    0.8848 H   0  0  0  0  0  0  0  0  0  0  0  0
   -3.1293    1.1093   -0.8761 H   0  0  0  0  0  0  0  0  0  0  0  0
    3.1697   -1.1396    0.8419 H   0  0  0  0  0  0  0  0  0  0  0  0
    3.1835   -1.1221   -0.9228 H   0  0  0  0  0  0  0  0  0  0  0  0
   -4.4804   -1.0053    0.8768 H   0  0  0  0  0  0  0  0  0  0  0  0
   -4.4705   -1.0016   -0.8701 H   0  0  0  0  0  0  0  0  0  0  0  0
    4.4439    1.0395    0.8586 H   0  0  0  0  0  0  0  0  0  0  0  0
    4.4806    1.0248   -0.8946 H   0  0  0  0  0  0  0  0  0  0  0  0
   -5.7473    1.1609   -0.8857 H   0  0  0  0  0  0  0  0  0  0  0  0
   -5.7733    1.1517    0.8910 H   0  0  0  0  0  0  0  0  0  0  0  0
    5.7449   -1.0924    0.9295 H   0  0  0  0  0  0  0  0  0  0  0  0
    5.7659   -1.1357   -0.8514 H   0  0  0  0  0  0  0  0  0  0  0  0
   -6.8293   -0.8796    0.7764 H   0  0  0  0  0  0  0  0  0  0  0  0
  1 12  1  0  0  0  0
  2 11  1  0  0  0  0
  2 33  1  0  0  0  0
  3  4  1  0  0  0  0
  3  5  1  0  0  0  0
  3 13  1  0  0  0  0
  3 14  1  0  0  0  0
  4  6  1  0  0  0  0
  4 15  1  0  0  0  0
  4 16  1  0  0  0  0
  5  7  1  0  0  0  0
  5 17  1  0  0  0  0
  5 18  1  0  0  0  0
  6  8  1  0  0  0  0
  6 19  1  0  0  0  0
  6 20  1  0  0  0  0
  7  9  1  0  0  0  0
  7 21  1  0  0  0  0
  7 22  1  0  0  0  0
  8 10  1  0  0  0  0
  8 23  1  0  0  0  0
  8 24  1  0  0  0  0
  9 11  1  0  0  0  0
  9 25  1  0  0  0  0
  9 26  1  0  0  0  0
 10 12  1  0  0  0  0
 10 27  1  0  0  0  0
 10 28  1  0  0  0  0
 11 29  1  0  0  0  0
 11 30  1  0  0  0  0
 12 31  1  0  0  0  0
 12 32  1  0  0  0  0
M  END
> <PUBCHEM_COMPOUND_CID>
9546

> <PUBCHEM_CONFORMER_RMSD>
0.8

> <PUBCHEM_CONFORMER_DIVERSEORDER>
1
144
68
153
165
145
150
361
398
12
223
127
389
233
8
162
2
182
75
332
353
199
31
392
65
339
86
11
152
243
225
271
87
134
9
368
386
277
45
92
309
195
181
158
49
129
191
363
278
244
6
362
48
74
201
299
89
107
381
40
403
178
54
23
365
58
397
37
402
115
52
185
22
257
79
238
367
34
177
248
249
18
345
122
188
408
25
143
355
62
80
290
359
239
41
3
394
132
16
200
259
72
406
29
289
99
120
114
373
124
64
147
395
215
294
341
30
207
241
261
90
78
333
340
366
374
24
379
250
61
69
306
390
404
4
214
336
320
170
88
14
305
396
228
356
292
284
354
222
131
311
272
387
255
81
135
276
98
291
32
357
85
348
262
370
166
202
256
321
385
313
226
242
43
301
410
174
217
383
179
168
83
335
10
20
380
206
175
28
393
110
297
7
198
405
15
351
47
44
13
378
391
197
234
73
364
36
59
388
66
111
346
303
71
307
21
376
204
142
19
160
253
407
82
237
399
163
280
409
266
118
326
39
60
400
137
369
246
171
108
94
112
375
285
180
26
371
100
331
146
46
167
224
17
102
247
240
172
156
126
372
51
213
121
5
184
401
133
334
186
119
317
338
173
35
91
154
384
319
360
93
123
327
208
205
342
352
151
76
328
314
141
55
302
84
377
312
63
113
193
149
273
56
176
227
95
189
264
103
347
296
104
155
139
96
138
77
106
148
252
192
316
196
268
38
270
318
67
210
283
42
231
322
281
216
350
136
254
164
229
27
235
97
190
53
33
304
212
298
101
140
330
128
260
274
279
236
117
287
157
57
315
183
344
220
293
50
382
159
125
209
324
286
310
105
267
203
169
349
269
221
230
308
275
211
265
109
219
329
187
218
70
130
358
263
116
245
323
295
325
161
251
343
194
282
232
288
258
337
300

> <PUBCHEM_MMFF94_PARTIAL_CHARGES>
5
1 -0.34
11 0.28
12 0.34
2 -0.68
33 0.4

> <PUBCHEM_EFFECTIVE_ROTOR_COUNT>
9

> <PUBCHEM_PHARMACOPHORE_FEATURES>
2
1 2 acceptor
1 2 donor

> <PUBCHEM_HEAVY_ATOM_COUNT>
12

> <PUBCHEM_ATOM_DEF_STEREO_COUNT>
0

> <PUBCHEM_ATOM_UDEF_STEREO_COUNT>
0

> <PUBCHEM_BOND_DEF_STEREO_COUNT>
0

> <PUBCHEM_BOND_UDEF_STEREO_COUNT>
0

> <PUBCHEM_ISOTOPIC_ATOM_COUNT>
0

> <PUBCHEM_COMPONENT_COUNT>
1

> <PUBCHEM_CACTVS_TAUTO_COUNT>
1

> <PUBCHEM_CONFORMER_ID>
0000254A00000001

> <PUBCHEM_MMFF94_ENERGY>
-0.3615

> <PUBCHEM_FEATURE_SELFOVERLAP>
10.148

> <PUBCHEM_SHAPE_FINGERPRINT>
12091667 2 18412262840245614233
12815109 37 18410573989446418436
13533116 47 16773809129521182952
14123238 8 18410573998036353029
1420 363 18408037416258425695
14251718 22 18410575097558530323
14251764 46 18411139138428376555
17834076 25 18410856563940038119
187816 3 15770056137923696661
20645477 70 18188488111725721158
20767249 213 18334857208026855628
23402539 116 18333455330975676719
23521765 1 18335420170664673287
33684 2 18412546517622805867
42788 4 18410855464713337893
8209 1 18410856563945312892

> <PUBCHEM_SHAPE_MULTIPOLES>
233.81
17.88
0.78
0.6
0.55
0
0
-0.07
-0.01
0.01
0
0.01
0
0

> <PUBCHEM_SHAPE_SELFOVERLAP>
415.412

> <PUBCHEM_SHAPE_VOLUME>
152.2

> <PUBCHEM_COORDINATE_TYPE>
2
5
10

$$$$

