9929
  -OEChem-06261204122D

 43 45  0     0  0  0  0  0  0999 V2000
    3.8611    0.0526    0.0000 O   0  0  0  0  0  0  0  0  0  0  0  0
    8.1244    0.1037    0.0000 N   0  0  0  0  0  0  0  0  0  0  0  0
    6.4302   -0.2564    0.0000 C   0  0  0  0  0  0  0  0  0  0  0  0
    5.4791    0.0526    0.0000 C   0  0  0  0  0  0  0  0  0  0  0  0
    7.1733    0.4127    0.0000 C   0  0  0  0  0  0  0  0  0  0  0  0
    4.6701   -0.5352    0.0000 C   0  0  0  0  0  0  0  0  0  0  0  0
    5.1701    1.0036    0.0000 C   0  0  0  0  0  0  0  0  0  0  0  0
    4.1701    1.0036    0.0000 C   0  0  0  0  0  0  0  0  0  0  0  0
    4.6701   -1.5352    0.0000 C   0  0  0  0  0  0  0  0  0  0  0  0
    3.5823    1.8126    0.0000 C   0  0  0  0  0  0  0  0  0  0  0  0
    8.8675    0.7728    0.0000 C   0  0  0  0  0  0  0  0  0  0  0  0
    8.3323   -0.8745    0.0000 C   0  0  0  0  0  0  0  0  0  0  0  0
    3.8041   -2.0352    0.0000 C   0  0  0  0  0  0  0  0  0  0  0  0
    5.5361   -2.0352    0.0000 C   0  0  0  0  0  0  0  0  0  0  0  0
    3.9890    2.7262    0.0000 C   0  0  0  0  0  0  0  0  0  0  0  0
    2.5878    1.7081    0.0000 C   0  0  0  0  0  0  0  0  0  0  0  0
    3.8041   -3.0352    0.0000 C   0  0  0  0  0  0  0  0  0  0  0  0
    5.5361   -3.0352    0.0000 C   0  0  0  0  0  0  0  0  0  0  0  0
    4.6701   -3.5352    0.0000 C   0  0  0  0  0  0  0  0  0  0  0  0
    3.4013    3.5352    0.0000 C   0  0  0  0  0  0  0  0  0  0  0  0
    2.0000    2.5171    0.0000 C   0  0  0  0  0  0  0  0  0  0  0  0
    2.4067    3.4307    0.0000 C   0  0  0  0  0  0  0  0  0  0  0  0
    6.1391   -0.8039    0.0000 H   0  0  0  0  0  0  0  0  0  0  0  0
    6.9187   -0.6382    0.0000 H   0  0  0  0  0  0  0  0  0  0  0  0
    7.4644    0.9601    0.0000 H   0  0  0  0  0  0  0  0  0  0  0  0
    6.6847    0.7944    0.0000 H   0  0  0  0  0  0  0  0  0  0  0  0
    5.5345    1.5052    0.0000 H   0  0  0  0  0  0  0  0  0  0  0  0
    9.2824    0.3121    0.0000 H   0  0  0  0  0  0  0  0  0  0  0  0
    9.3283    1.1877    0.0000 H   0  0  0  0  0  0  0  0  0  0  0  0
    8.4526    1.2336    0.0000 H   0  0  0  0  0  0  0  0  0  0  0  0
    7.7258   -1.0034    0.0000 H   0  0  0  0  0  0  0  0  0  0  0  0
    8.4612   -1.4809    0.0000 H   0  0  0  0  0  0  0  0  0  0  0  0
    8.9387   -0.7456    0.0000 H   0  0  0  0  0  0  0  0  0  0  0  0
    3.2671   -1.7252    0.0000 H   0  0  0  0  0  0  0  0  0  0  0  0
    6.0730   -1.7252    0.0000 H   0  0  0  0  0  0  0  0  0  0  0  0
    4.6056    2.7910    0.0000 H   0  0  0  0  0  0  0  0  0  0  0  0
    2.3356    1.1417    0.0000 H   0  0  0  0  0  0  0  0  0  0  0  0
    3.2671   -3.3452    0.0000 H   0  0  0  0  0  0  0  0  0  0  0  0
    6.0730   -3.3452    0.0000 H   0  0  0  0  0  0  0  0  0  0  0  0
    4.6701   -4.1552    0.0000 H   0  0  0  0  0  0  0  0  0  0  0  0
    3.6534    4.1016    0.0000 H   0  0  0  0  0  0  0  0  0  0  0  0
    1.3834    2.4523    0.0000 H   0  0  0  0  0  0  0  0  0  0  0  0
    2.0423    3.9323    0.0000 H   0  0  0  0  0  0  0  0  0  0  0  0
  1  6  1  0  0  0  0
  1  8  1  0  0  0  0
  2  5  1  0  0  0  0
  2 11  1  0  0  0  0
  2 12  1  0  0  0  0
  3  4  1  0  0  0  0
  3  5  1  0  0  0  0
  3 23  1  0  0  0  0
  3 24  1  0  0  0  0
  4  6  2  0  0  0  0
  4  7  1  0  0  0  0
  5 25  1  0  0  0  0
  5 26  1  0  0  0  0
  6  9  1  0  0  0  0
  7  8  2  0  0  0  0
  7 27  1  0  0  0  0
  8 10  1  0  0  0  0
  9 13  2  0  0  0  0
  9 14  1  0  0  0  0
 10 15  2  0  0  0  0
 10 16  1  0  0  0  0
 11 28  1  0  0  0  0
 11 29  1  0  0  0  0
 11 30  1  0  0  0  0
 12 31  1  0  0  0  0
 12 32  1  0  0  0  0
 12 33  1  0  0  0  0
 13 17  1  0  0  0  0
 13 34  1  0  0  0  0
 14 18  2  0  0  0  0
 14 35  1  0  0  0  0
 15 20  1  0  0  0  0
 15 36  1  0  0  0  0
 16 21  2  0  0  0  0
 16 37  1  0  0  0  0
 17 19  2  0  0  0  0
 17 38  1  0  0  0  0
 18 19  1  0  0  0  0
 18 39  1  0  0  0  0
 19 40  1  0  0  0  0
 20 22  2  0  0  0  0
 20 41  1  0  0  0  0
 21 22  1  0  0  0  0
 21 42  1  0  0  0  0
 22 43  1  0  0  0  0
M  END
> <PUBCHEM_COMPOUND_CID>
9929

> <PUBCHEM_COMPOUND_CANONICALIZED>
1

> <PUBCHEM_CACTVS_COMPLEXITY>
318

> <PUBCHEM_CACTVS_HBOND_ACCEPTOR>
2

> <PUBCHEM_CACTVS_HBOND_DONOR>
0

> <PUBCHEM_CACTVS_ROTATABLE_BOND>
5

> <PUBCHEM_CACTVS_SUBSKEYS>
AAADceB6IAAAAAAAAAAAAAAAAAAAASAAAAAwYAAAAAAAAAAB0AAAHgAAAAAADATBmAQyBIMABECIAqBSAAACCAAkIAAIiAEOCMgMJjKEtRuGOSCkwBEIqYe82fKOAAAAAAAAAAAAAAAAAAAAAAAAAAAAAA==

> <PUBCHEM_IUPAC_OPENEYE_NAME>
2-(2,5-diphenyl-3-furyl)-N,N-dimethyl-ethanamine

> <PUBCHEM_IUPAC_CAS_NAME>
2-(2,5-diphenyl-3-furanyl)-N,N-dimethylethanamine

> <PUBCHEM_IUPAC_NAME>
2-(2,5-diphenylfuran-3-yl)-N,N-dimethylethanamine

> <PUBCHEM_IUPAC_SYSTEMATIC_NAME>
2-(2,5-diphenylfuran-3-yl)-N,N-dimethyl-ethanamine

> <PUBCHEM_IUPAC_TRADITIONAL_NAME>
2-(2,5-diphenyl-3-furyl)ethyl-dimethyl-amine

> <PUBCHEM_IUPAC_INCHI>
InChI=1S/C20H21NO/c1-21(2)14-13-18-15-19(16-9-5-3-6-10-16)22-20(18)17-11-7-4-8-12-17/h3-12,15H,13-14H2,1-2H3

> <PUBCHEM_IUPAC_INCHIKEY>
SLLFDPJHLZEFRI-UHFFFAOYSA-N

> <PUBCHEM_XLOGP3_AA>
4.6

> <PUBCHEM_EXACT_MASS>
291.162314

> <PUBCHEM_MOLECULAR_FORMULA>
C20H21NO

> <PUBCHEM_MOLECULAR_WEIGHT>
291.38684

> <PUBCHEM_OPENEYE_CAN_SMILES>
CN(C)CCC1=C(OC(=C1)C2=CC=CC=C2)C3=CC=CC=C3

> <PUBCHEM_OPENEYE_ISO_SMILES>
CN(C)CCC1=C(OC(=C1)C2=CC=CC=C2)C3=CC=CC=C3

> <PUBCHEM_CACTVS_TPSA>
16.4

> <PUBCHEM_MONOISOTOPIC_WEIGHT>
291.162314

> <PUBCHEM_TOTAL_CHARGE>
0

> <PUBCHEM_HEAVY_ATOM_COUNT>
22

> <PUBCHEM_ATOM_DEF_STEREO_COUNT>
0

> <PUBCHEM_ATOM_UDEF_STEREO_COUNT>
0

> <PUBCHEM_BOND_DEF_STEREO_COUNT>
0

> <PUBCHEM_BOND_UDEF_STEREO_COUNT>
0

> <PUBCHEM_ISOTOPIC_ATOM_COUNT>
0

> <PUBCHEM_COMPONENT_COUNT>
1

> <PUBCHEM_CACTVS_TAUTO_COUNT>
1

> <PUBCHEM_COORDINATE_TYPE>
1
5
255

> <PUBCHEM_BONDANNOTATIONS>
1  6  8
1  8  8
10  15  8
10  16  8
13  17  8
14  18  8
15  20  8
16  21  8
17  19  8
18  19  8
20  22  8
21  22  8
4  6  8
4  7  8
7  8  8
9  13  8
9  14  8

$$$$

