4061
  -OEChem-06251223512D

 68 73  0     1  0  0  0  0  0999 V2000
   10.3629   -3.2212    0.0000 S   0  0  0  0  0  0  0  0  0  0  0  0
    4.1702    0.8923    0.0000 O   0  0  0  0  0  0  0  0  0  0  0  0
    3.0000    0.7804    0.0000 O   0  0  0  0  0  0  0  0  0  0  0  0
    8.5786   -1.1306    0.0000 C   0  0  3  0  0  0  0  0  0  0  0  0
    7.7126   -0.6306    0.0000 C   0  0  3  0  0  0  0  0  0  0  0  0
    7.7126    0.3694    0.0000 C   0  0  3  0  0  0  0  0  0  0  0  0
    6.8186    0.9041    0.0000 C   0  0  3  0  0  0  0  0  0  0  0  0
    5.9126    0.3902    0.0000 C   0  0  3  0  0  0  0  0  0  0  0  0
    9.4446   -0.6306    0.0000 C   0  0  3  0  0  0  0  0  0  0  0  0
    8.5626   -2.1721    0.0000 C   0  0  0  0  0  0  0  0  0  0  0  0
    6.8186   -1.1653    0.0000 C   0  0  0  0  0  0  0  0  0  0  0  0
    8.5786    0.8694    0.0000 C   0  0  0  0  0  0  0  0  0  0  0  0
    5.9126   -0.6514    0.0000 C   0  0  0  0  0  0  0  0  0  0  0  0
    9.4606   -2.6999    0.0000 C   0  0  3  0  0  0  0  0  0  0  0  0
    9.4446    0.3694    0.0000 C   0  0  0  0  0  0  0  0  0  0  0  0
   10.3627   -2.1791    0.0000 C   0  0  3  0  0  0  0  0  0  0  0  0
   10.3546   -1.1375    0.0000 C   0  0  0  0  0  0  0  0  0  0  0  0
    5.1503    1.0910    0.0000 C   0  0  3  0  0  0  0  0  0  0  0  0
    6.6085    1.9180    0.0000 C   0  0  0  0  0  0  0  0  0  0  0  0
    5.5795    2.0333    0.0000 C   0  0  0  0  0  0  0  0  0  0  0  0
    7.7126   -1.6306    0.0000 C   0  0  0  0  0  0  0  0  0  0  0  0
    5.0427   -0.1031    0.0000 C   0  0  0  0  0  0  0  0  0  0  0  0
    3.5081    1.6417    0.0000 C   0  0  0  0  0  0  0  0  0  0  0  0
    4.2575    2.3038    0.0000 C   0  0  0  0  0  0  0  0  0  0  0  0
    2.6468    2.1499    0.0000 C   0  0  0  0  0  0  0  0  0  0  0  0
    3.8594    3.2212    0.0000 C   0  0  0  0  0  0  0  0  0  0  0  0
    2.8640    3.1260    0.0000 C   0  0  0  0  0  0  0  0  0  0  0  0
    2.0000    0.7899    0.0000 C   0  0  0  0  0  0  0  0  0  0  0  0
    7.7174   -1.2506    0.0000 H   0  0  0  0  0  0  0  0  0  0  0  0
    8.2495    0.0594    0.0000 H   0  0  0  0  0  0  0  0  0  0  0  0
    7.3240    1.2633    0.0000 H   0  0  0  0  0  0  0  0  0  0  0  0
    9.9792   -0.3165    0.0000 H   0  0  0  0  0  0  0  0  0  0  0  0
    7.9534   -2.0566    0.0000 H   0  0  0  0  0  0  0  0  0  0  0  0
    8.3445   -2.7525    0.0000 H   0  0  0  0  0  0  0  0  0  0  0  0
    6.4250   -1.6443    0.0000 H   0  0  0  0  0  0  0  0  0  0  0  0
    7.2232   -1.6351    0.0000 H   0  0  0  0  0  0  0  0  0  0  0  0
    8.9771    1.3443    0.0000 H   0  0  0  0  0  0  0  0  0  0  0  0
    8.1801    1.3443    0.0000 H   0  0  0  0  0  0  0  0  0  0  0  0
    5.3017   -0.5453    0.0000 H   0  0  0  0  0  0  0  0  0  0  0  0
    5.7035   -1.2351    0.0000 H   0  0  0  0  0  0  0  0  0  0  0  0
    9.1485   -3.2356    0.0000 H   0  0  0  0  0  0  0  0  0  0  0  0
   10.0552    0.2617    0.0000 H   0  0  0  0  0  0  0  0  0  0  0  0
    9.6567    0.9520    0.0000 H   0  0  0  0  0  0  0  0  0  0  0  0
   10.9827   -2.1766    0.0000 H   0  0  0  0  0  0  0  0  0  0  0  0
   10.9663   -1.2388    0.0000 H   0  0  0  0  0  0  0  0  0  0  0  0
   10.5592   -0.5522    0.0000 H   0  0  0  0  0  0  0  0  0  0  0  0
    4.9839    0.4937    0.0000 H   0  0  0  0  0  0  0  0  0  0  0  0
    7.2255    1.9793    0.0000 H   0  0  0  0  0  0  0  0  0  0  0  0
    6.6124    2.5380    0.0000 H   0  0  0  0  0  0  0  0  0  0  0  0
    5.7129    2.6387    0.0000 H   0  0  0  0  0  0  0  0  0  0  0  0
    4.9914    2.2296    0.0000 H   0  0  0  0  0  0  0  0  0  0  0  0
    7.4026   -1.0937    0.0000 H   0  0  0  0  0  0  0  0  0  0  0  0
    7.1756   -1.9406    0.0000 H   0  0  0  0  0  0  0  0  0  0  0  0
    8.0226   -2.1676    0.0000 H   0  0  0  0  0  0  0  0  0  0  0  0
    4.7369    0.4362    0.0000 H   0  0  0  0  0  0  0  0  0  0  0  0
    4.5034   -0.4090    0.0000 H   0  0  0  0  0  0  0  0  0  0  0  0
    5.3486   -0.6424    0.0000 H   0  0  0  0  0  0  0  0  0  0  0  0
    4.6172    1.7988    0.0000 H   0  0  0  0  0  0  0  0  0  0  0  0
    4.7974    2.6087    0.0000 H   0  0  0  0  0  0  0  0  0  0  0  0
    2.0590    2.3470    0.0000 H   0  0  0  0  0  0  0  0  0  0  0  0
    2.3893    1.5859    0.0000 H   0  0  0  0  0  0  0  0  0  0  0  0
    4.4509    3.4072    0.0000 H   0  0  0  0  0  0  0  0  0  0  0  0
    3.7363    3.8288    0.0000 H   0  0  0  0  0  0  0  0  0  0  0  0
    2.8698    3.7460    0.0000 H   0  0  0  0  0  0  0  0  0  0  0  0
    2.2480    3.1966    0.0000 H   0  0  0  0  0  0  0  0  0  0  0  0
    2.0058    1.4099    0.0000 H   0  0  0  0  0  0  0  0  0  0  0  0
    1.3800    0.7957    0.0000 H   0  0  0  0  0  0  0  0  0  0  0  0
    1.9942    0.1699    0.0000 H   0  0  0  0  0  0  0  0  0  0  0  0
  1 14  1  0  0  0  0
  1 16  1  0  0  0  0
  2 18  1  0  0  0  0
  2 23  1  0  0  0  0
  3 23  1  0  0  0  0
  3 28  1  0  0  0  0
  4  5  1  0  0  0  0
  4  9  1  0  0  0  0
  4 10  1  0  0  0  0
  4 21  1  0  0  0  0
  5  6  1  0  0  0  0
  5 11  1  0  0  0  0
  5 29  1  0  0  0  0
  6  7  1  0  0  0  0
  6 12  1  0  0  0  0
  6 30  1  0  0  0  0
  7  8  1  0  0  0  0
  7 19  1  0  0  0  0
  7 31  1  0  0  0  0
  8 13  1  0  0  0  0
  8 18  1  0  0  0  0
  8 22  1  0  0  0  0
  9 15  1  0  0  0  0
  9 17  1  0  0  0  0
  9 32  1  0  0  0  0
 10 14  1  0  0  0  0
 10 33  1  0  0  0  0
 10 34  1  0  0  0  0
 11 13  1  0  0  0  0
 11 35  1  0  0  0  0
 11 36  1  0  0  0  0
 12 15  1  0  0  0  0
 12 37  1  0  0  0  0
 12 38  1  0  0  0  0
 13 39  1  0  0  0  0
 13 40  1  0  0  0  0
 14 16  1  0  0  0  0
 14 41  1  0  0  0  0
 15 42  1  0  0  0  0
 15 43  1  0  0  0  0
 16 17  1  0  0  0  0
 16 44  1  0  0  0  0
 17 45  1  0  0  0  0
 17 46  1  0  0  0  0
 18 20  1  0  0  0  0
 18 47  1  0  0  0  0
 19 20  1  0  0  0  0
 19 48  1  0  0  0  0
 19 49  1  0  0  0  0
 20 50  1  0  0  0  0
 20 51  1  0  0  0  0
 21 52  1  0  0  0  0
 21 53  1  0  0  0  0
 21 54  1  0  0  0  0
 22 55  1  0  0  0  0
 22 56  1  0  0  0  0
 22 57  1  0  0  0  0
 23 24  1  0  0  0  0
 23 25  1  0  0  0  0
 24 26  1  0  0  0  0
 24 58  1  0  0  0  0
 24 59  1  0  0  0  0
 25 27  1  0  0  0  0
 25 60  1  0  0  0  0
 25 61  1  0  0  0  0
 26 27  1  0  0  0  0
 26 62  1  0  0  0  0
 26 63  1  0  0  0  0
 27 64  1  0  0  0  0
 27 65  1  0  0  0  0
 28 66  1  0  0  0  0
 28 67  1  0  0  0  0
 28 68  1  0  0  0  0
M  END
> <PUBCHEM_COMPOUND_CID>
4061

> <PUBCHEM_COMPOUND_CANONICALIZED>
1

> <PUBCHEM_CACTVS_COMPLEXITY>
630

> <PUBCHEM_CACTVS_HBOND_ACCEPTOR>
3

> <PUBCHEM_CACTVS_HBOND_DONOR>
0

> <PUBCHEM_CACTVS_ROTATABLE_BOND>
3

> <PUBCHEM_CACTVS_SUBSKEYS>
AAADcfB4MABAAAAAAAAAAAAAEgAAAYMAAAAwYMAABIAAAGDAAAAAGgQAAAAADxSkwAKCCAAABAgAAAAAAAAAAAAAABAAAAAAAAAQAAIgAAAiAAAEAAAkAAGAwPAPgAAAAAAAAACgAAUAACAAAIAADAAAAA==

> <PUBCHEM_IUPAC_INCHI>
InChI=1S/C25H40O2S/c1-23-13-10-19-17(7-6-16-14-20-21(28-20)15-24(16,19)2)18(23)8-9-22(23)27-25(26-3)11-4-5-12-25/h16-22H,4-15H2,1-3H3

> <PUBCHEM_IUPAC_INCHIKEY>
IVDYZAAPOLNZKG-UHFFFAOYSA-N

> <PUBCHEM_XLOGP3_AA>
6.6

> <PUBCHEM_EXACT_MASS>
404.274902

> <PUBCHEM_MOLECULAR_FORMULA>
C25H40O2S

> <PUBCHEM_MOLECULAR_WEIGHT>
404.6489

> <PUBCHEM_OPENEYE_CAN_SMILES>
CC12CCC3C(C1CCC2OC4(CCCC4)OC)CCC5C3(CC6C(C5)S6)C

> <PUBCHEM_OPENEYE_ISO_SMILES>
CC12CCC3C(C1CCC2OC4(CCCC4)OC)CCC5C3(CC6C(C5)S6)C

> <PUBCHEM_CACTVS_TPSA>
43.8

> <PUBCHEM_MONOISOTOPIC_WEIGHT>
404.274902

> <PUBCHEM_TOTAL_CHARGE>
0

> <PUBCHEM_HEAVY_ATOM_COUNT>
28

> <PUBCHEM_ATOM_DEF_STEREO_COUNT>
0

> <PUBCHEM_ATOM_UDEF_STEREO_COUNT>
9

> <PUBCHEM_BOND_DEF_STEREO_COUNT>
0

> <PUBCHEM_BOND_UDEF_STEREO_COUNT>
0

> <PUBCHEM_ISOTOPIC_ATOM_COUNT>
0

> <PUBCHEM_COMPONENT_COUNT>
1

> <PUBCHEM_CACTVS_TAUTO_COUNT>
1

> <PUBCHEM_COORDINATE_TYPE>
1
5
255

> <PUBCHEM_BONDANNOTATIONS>
14  10  3
16  17  3
18  2  3
4  21  3
5  11  3
6  12  3
7  19  3
8  22  3
9  15  3

$$$$

