4864
  -OEChem-06261200232D

 80 81  0     1  0  0  0  0  0999 V2000
   10.3312    0.9400    0.0000 O   0  0  0  0  0  0  0  0  0  0  0  0
    6.8671   -0.0600    0.0000 O   0  0  0  0  0  0  0  0  0  0  0  0
    5.1350    2.9400    0.0000 O   0  0  0  0  0  0  0  0  0  0  0  0
   11.1972    1.4400    0.0000 O   0  0  0  0  0  0  0  0  0  0  0  0
    7.7331    4.4400    0.0000 O   0  0  0  0  0  0  0  0  0  0  0  0
    6.0010    4.4400    0.0000 O   0  0  0  0  0  0  0  0  0  0  0  0
   13.7953    3.9400    0.0000 O   0  0  0  0  0  0  0  0  0  0  0  0
   14.6613    2.4400    0.0000 O   0  0  0  0  0  0  0  0  0  0  0  0
    2.5369    2.4400    0.0000 O   0  0  0  0  0  0  0  0  0  0  0  0
    3.4030    3.9400    0.0000 O   0  0  0  0  0  0  0  0  0  0  0  0
    9.4651   -0.5600    0.0000 N   0  0  0  0  0  0  0  0  0  0  0  0
    7.7331   -1.5600    0.0000 N   0  0  0  0  0  0  0  0  0  0  0  0
   12.0632   -0.0600    0.0000 N   0  0  0  0  0  0  0  0  0  0  0  0
    8.5991   -0.0600    0.0000 C   0  0  3  0  0  0  0  0  0  0  0  0
    8.5991    0.9400    0.0000 C   0  0  0  0  0  0  0  0  0  0  0  0
   11.1972   -0.5600    0.0000 C   0  0  3  0  0  0  0  0  0  0  0  0
   11.1972   -1.5600    0.0000 C   0  0  0  0  0  0  0  0  0  0  0  0
   10.3312   -0.0600    0.0000 C   0  0  0  0  0  0  0  0  0  0  0  0
    7.7331   -0.5600    0.0000 C   0  0  0  0  0  0  0  0  0  0  0  0
    7.7331    1.4400    0.0000 C   0  0  0  0  0  0  0  0  0  0  0  0
    6.8671   -2.0600    0.0000 C   0  0  0  0  0  0  0  0  0  0  0  0
    6.8671   -3.0600    0.0000 C   0  0  0  0  0  0  0  0  0  0  0  0
    6.0010   -3.5600    0.0000 C   0  0  0  0  0  0  0  0  0  0  0  0
   12.0632   -2.0600    0.0000 C   0  0  0  0  0  0  0  0  0  0  0  0
    7.7331    2.4400    0.0000 C   0  0  0  0  0  0  0  0  0  0  0  0
    6.0010   -4.5600    0.0000 C   0  0  0  0  0  0  0  0  0  0  0  0
    6.8671    0.9400    0.0000 C   0  0  0  0  0  0  0  0  0  0  0  0
   12.0632    0.9400    0.0000 C   0  0  0  0  0  0  0  0  0  0  0  0
    6.8671    2.9400    0.0000 C   0  0  0  0  0  0  0  0  0  0  0  0
    6.0010    1.4400    0.0000 C   0  0  0  0  0  0  0  0  0  0  0  0
   12.9292   -1.5600    0.0000 C   0  0  0  0  0  0  0  0  0  0  0  0
   12.0632   -3.0600    0.0000 C   0  0  0  0  0  0  0  0  0  0  0  0
    6.0010    2.4400    0.0000 C   0  0  0  0  0  0  0  0  0  0  0  0
   12.9292    1.4400    0.0000 C   0  0  0  0  0  0  0  0  0  0  0  0
    5.1350   -5.0600    0.0000 C   0  0  0  0  0  0  0  0  0  0  0  0
   12.9292    2.4400    0.0000 C   0  0  0  0  0  0  0  0  0  0  0  0
   13.7953   -2.0600    0.0000 C   0  0  0  0  0  0  0  0  0  0  0  0
   12.9292   -3.5600    0.0000 C   0  0  0  0  0  0  0  0  0  0  0  0
   13.7953   -3.0600    0.0000 C   0  0  0  0  0  0  0  0  0  0  0  0
    6.8671    3.9400    0.0000 C   0  0  0  0  0  0  0  0  0  0  0  0
   13.7953    2.9400    0.0000 C   0  0  0  0  0  0  0  0  0  0  0  0
    4.2690    2.4400    0.0000 C   0  0  0  0  0  0  0  0  0  0  0  0
    3.4030    2.9400    0.0000 C   0  0  0  0  0  0  0  0  0  0  0  0
    8.5991   -0.6800    0.0000 H   0  0  0  0  0  0  0  0  0  0  0  0
    9.2097    0.8323    0.0000 H   0  0  0  0  0  0  0  0  0  0  0  0
    8.8112    1.5226    0.0000 H   0  0  0  0  0  0  0  0  0  0  0  0
   11.1972    0.0600    0.0000 H   0  0  0  0  0  0  0  0  0  0  0  0
    9.4651   -1.1800    0.0000 H   0  0  0  0  0  0  0  0  0  0  0  0
   10.5866   -1.4523    0.0000 H   0  0  0  0  0  0  0  0  0  0  0  0
   10.9851   -2.1426    0.0000 H   0  0  0  0  0  0  0  0  0  0  0  0
    6.6550   -1.4774    0.0000 H   0  0  0  0  0  0  0  0  0  0  0  0
    6.2565   -2.1677    0.0000 H   0  0  0  0  0  0  0  0  0  0  0  0
    7.0791   -3.6426    0.0000 H   0  0  0  0  0  0  0  0  0  0  0  0
    7.4776   -2.9523    0.0000 H   0  0  0  0  0  0  0  0  0  0  0  0
    8.2700   -1.8700    0.0000 H   0  0  0  0  0  0  0  0  0  0  0  0
    5.7890   -2.9774    0.0000 H   0  0  0  0  0  0  0  0  0  0  0  0
    5.3905   -3.6677    0.0000 H   0  0  0  0  0  0  0  0  0  0  0  0
   12.6002   -0.3700    0.0000 H   0  0  0  0  0  0  0  0  0  0  0  0
    8.2700    2.7500    0.0000 H   0  0  0  0  0  0  0  0  0  0  0  0
    6.2131   -5.1426    0.0000 H   0  0  0  0  0  0  0  0  0  0  0  0
    6.6116   -4.4523    0.0000 H   0  0  0  0  0  0  0  0  0  0  0  0
    6.8671    0.3200    0.0000 H   0  0  0  0  0  0  0  0  0  0  0  0
    5.4641    1.1300    0.0000 H   0  0  0  0  0  0  0  0  0  0  0  0
   12.9292   -0.9400    0.0000 H   0  0  0  0  0  0  0  0  0  0  0  0
   11.5263   -3.3700    0.0000 H   0  0  0  0  0  0  0  0  0  0  0  0
   13.1413    0.8574    0.0000 H   0  0  0  0  0  0  0  0  0  0  0  0
   13.5398    1.5477    0.0000 H   0  0  0  0  0  0  0  0  0  0  0  0
    4.8250   -4.5231    0.0000 H   0  0  0  0  0  0  0  0  0  0  0  0
    4.5981   -5.3700    0.0000 H   0  0  0  0  0  0  0  0  0  0  0  0
    5.4450   -5.5969    0.0000 H   0  0  0  0  0  0  0  0  0  0  0  0
   12.7172    3.0226    0.0000 H   0  0  0  0  0  0  0  0  0  0  0  0
   12.3187    2.3323    0.0000 H   0  0  0  0  0  0  0  0  0  0  0  0
   14.3322   -1.7500    0.0000 H   0  0  0  0  0  0  0  0  0  0  0  0
   12.9292   -4.1800    0.0000 H   0  0  0  0  0  0  0  0  0  0  0  0
   14.3322   -3.3700    0.0000 H   0  0  0  0  0  0  0  0  0  0  0  0
    3.8705    1.9650    0.0000 H   0  0  0  0  0  0  0  0  0  0  0  0
    4.6675    1.9650    0.0000 H   0  0  0  0  0  0  0  0  0  0  0  0
    7.7331    5.0600    0.0000 H   0  0  0  0  0  0  0  0  0  0  0  0
   14.3322    4.2500    0.0000 H   0  0  0  0  0  0  0  0  0  0  0  0
    2.0000    2.7500    0.0000 H   0  0  0  0  0  0  0  0  0  0  0  0
  1 18  2  0  0  0  0
  2 19  2  0  0  0  0
  3 33  1  0  0  0  0
  3 42  1  0  0  0  0
  4 28  2  0  0  0  0
  5 40  1  0  0  0  0
  5 78  1  0  0  0  0
  6 40  2  0  0  0  0
  7 41  1  0  0  0  0
  7 79  1  0  0  0  0
  8 41  2  0  0  0  0
  9 43  1  0  0  0  0
  9 80  1  0  0  0  0
 10 43  2  0  0  0  0
 11 14  1  0  0  0  0
 11 18  1  0  0  0  0
 11 48  1  0  0  0  0
 12 19  1  0  0  0  0
 12 21  1  0  0  0  0
 12 55  1  0  0  0  0
 13 16  1  0  0  0  0
 13 28  1  0  0  0  0
 13 58  1  0  0  0  0
 14 15  1  0  0  0  0
 14 19  1  0  0  0  0
 14 44  1  0  0  0  0
 15 20  1  0  0  0  0
 15 45  1  0  0  0  0
 15 46  1  0  0  0  0
 16 17  1  0  0  0  0
 16 18  1  0  0  0  0
 16 47  1  0  0  0  0
 17 24  1  0  0  0  0
 17 49  1  0  0  0  0
 17 50  1  0  0  0  0
 20 25  2  0  0  0  0
 20 27  1  0  0  0  0
 21 22  1  0  0  0  0
 21 51  1  0  0  0  0
 21 52  1  0  0  0  0
 22 23  1  0  0  0  0
 22 53  1  0  0  0  0
 22 54  1  0  0  0  0
 23 26  1  0  0  0  0
 23 56  1  0  0  0  0
 23 57  1  0  0  0  0
 24 31  2  0  0  0  0
 24 32  1  0  0  0  0
 25 29  1  0  0  0  0
 25 59  1  0  0  0  0
 26 35  1  0  0  0  0
 26 60  1  0  0  0  0
 26 61  1  0  0  0  0
 27 30  2  0  0  0  0
 27 62  1  0  0  0  0
 28 34  1  0  0  0  0
 29 33  2  0  0  0  0
 29 40  1  0  0  0  0
 30 33  1  0  0  0  0
 30 63  1  0  0  0  0
 31 37  1  0  0  0  0
 31 64  1  0  0  0  0
 32 38  2  0  0  0  0
 32 65  1  0  0  0  0
 34 36  1  0  0  0  0
 34 66  1  0  0  0  0
 34 67  1  0  0  0  0
 35 68  1  0  0  0  0
 35 69  1  0  0  0  0
 35 70  1  0  0  0  0
 36 41  1  0  0  0  0
 36 71  1  0  0  0  0
 36 72  1  0  0  0  0
 37 39  2  0  0  0  0
 37 73  1  0  0  0  0
 38 39  1  0  0  0  0
 38 74  1  0  0  0  0
 39 75  1  0  0  0  0
 42 43  1  0  0  0  0
 42 76  1  0  0  0  0
 42 77  1  0  0  0  0
M  END
> <PUBCHEM_COMPOUND_CID>
4864

> <PUBCHEM_COMPOUND_CANONICALIZED>
1

> <PUBCHEM_CACTVS_COMPLEXITY>
953

> <PUBCHEM_CACTVS_HBOND_ACCEPTOR>
10

> <PUBCHEM_CACTVS_HBOND_DONOR>
6

> <PUBCHEM_CACTVS_ROTATABLE_BOND>
19

> <PUBCHEM_CACTVS_SUBSKEYS>
AAADcfB7PAAAAAAAAAAAAAAAAAAAAAAAAAAwYAAAAAAAAAABQAAAHgAQCAAADCzhmAYyDoLABgCIAiHSGAICCAAkIAAIiIHOCMgNZzaEtT+WeWCl9hGLuYe/yOCOIAACAAAIAABAAAQAABAAAAAAAAAAAA==

> <PUBCHEM_IUPAC_OPENEYE_NAME>
2-(carboxymethoxy)-5-[2-[[2-(3-carboxypropanoylamino)-3-phenyl-propanoyl]amino]-3-oxo-3-(pentylamino)propyl]benzoic acid

> <PUBCHEM_IUPAC_CAS_NAME>
2-(carboxymethoxy)-5-[2-[[2-[(3-carboxy-1-oxopropyl)amino]-1-oxo-3-phenylpropyl]amino]-3-oxo-3-(pentylamino)propyl]benzoic acid

> <PUBCHEM_IUPAC_NAME>
2-(carboxymethoxy)-5-[2-[[2-(3-carboxypropanoylamino)-3-phenylpropanoyl]amino]-3-oxo-3-(pentylamino)propyl]benzoic acid

> <PUBCHEM_IUPAC_SYSTEMATIC_NAME>
2-(2-hydroxy-2-oxoethyloxy)-5-[3-oxidanylidene-2-[[2-[(4-oxidanyl-4-oxidanylidene-butanoyl)amino]-3-phenyl-propanoyl]amino]-3-(pentylamino)propyl]benzoic acid

> <PUBCHEM_IUPAC_TRADITIONAL_NAME>
5-[3-(amylamino)-2-[[2-(3-carboxypropanoylamino)-3-phenyl-propanoyl]amino]-3-keto-propyl]-2-(carboxymethoxy)benzoic acid

> <PUBCHEM_IUPAC_INCHI>
InChI=1S/C30H37N3O10/c1-2-3-7-14-31-28(39)22(17-20-10-11-24(43-18-27(37)38)21(15-20)30(41)42)33-29(40)23(16-19-8-5-4-6-9-19)32-25(34)12-13-26(35)36/h4-6,8-11,15,22-23H,2-3,7,12-14,16-18H2,1H3,(H,31,39)(H,32,34)(H,33,40)(H,35,36)(H,37,38)(H,41,42)

> <PUBCHEM_IUPAC_INCHIKEY>
PUAJYWYRZTYQKS-UHFFFAOYSA-N

> <PUBCHEM_XLOGP3_AA>
2.5

> <PUBCHEM_EXACT_MASS>
599.247894

> <PUBCHEM_MOLECULAR_FORMULA>
C30H37N3O10

> <PUBCHEM_MOLECULAR_WEIGHT>
599.62888

> <PUBCHEM_OPENEYE_CAN_SMILES>
CCCCCNC(=O)C(CC1=CC(=C(C=C1)OCC(=O)O)C(=O)O)NC(=O)C(CC2=CC=CC=C2)NC(=O)CCC(=O)O

> <PUBCHEM_OPENEYE_ISO_SMILES>
CCCCCNC(=O)C(CC1=CC(=C(C=C1)OCC(=O)O)C(=O)O)NC(=O)C(CC2=CC=CC=C2)NC(=O)CCC(=O)O

> <PUBCHEM_CACTVS_TPSA>
208

> <PUBCHEM_MONOISOTOPIC_WEIGHT>
599.247894

> <PUBCHEM_TOTAL_CHARGE>
0

> <PUBCHEM_HEAVY_ATOM_COUNT>
43

> <PUBCHEM_ATOM_DEF_STEREO_COUNT>
0

> <PUBCHEM_ATOM_UDEF_STEREO_COUNT>
2

> <PUBCHEM_BOND_DEF_STEREO_COUNT>
0

> <PUBCHEM_BOND_UDEF_STEREO_COUNT>
0

> <PUBCHEM_ISOTOPIC_ATOM_COUNT>
0

> <PUBCHEM_COMPONENT_COUNT>
1

> <PUBCHEM_CACTVS_TAUTO_COUNT>
8

> <PUBCHEM_COORDINATE_TYPE>
1
5
255

> <PUBCHEM_BONDANNOTATIONS>
14  15  3
16  17  3
20  25  8
20  27  8
24  31  8
24  32  8
25  29  8
27  30  8
29  33  8
30  33  8
31  37  8
32  38  8
37  39  8
38  39  8

$$$$

