51090973
  -OEChem-06241223013D

 42 43  0     0  0  0  0  0  0999 V2000
   -4.1135   -1.0147    0.0069 O   0  0  0  0  0  0  0  0  0  0  0  0
   -1.6456   -1.3614   -1.7695 O   0  0  0  0  0  0  0  0  0  0  0  0
    3.7002   -2.8115    0.8477 O   0  0  0  0  0  0  0  0  0  0  0  0
   -1.5497    0.2851   -0.0931 N   0  0  0  0  0  0  0  0  0  0  0  0
    2.4539   -1.5200   -0.6270 N   0  0  0  0  0  0  0  0  0  0  0  0
    1.2552   -0.9706   -0.9924 N   0  0  0  0  0  0  0  0  0  0  0  0
   -0.0734    2.4494   -0.6455 N   0  0  0  0  0  0  0  0  0  0  0  0
    0.1582   -2.4767    0.6281 C   0  0  0  0  0  0  0  0  0  0  0  0
    0.1906   -1.3945   -0.3977 C   0  0  0  0  0  0  0  0  0  0  0  0
   -2.8051    0.9566   -0.3939 C   0  0  0  0  0  0  0  0  0  0  0  0
    1.4337   -2.3917    1.4279 C   0  0  0  0  0  0  0  0  0  0  0  0
   -0.7834    0.8322    1.0224 C   0  0  0  0  0  0  0  0  0  0  0  0
   -1.1081   -0.8079   -0.8218 C   0  0  0  0  0  0  0  0  0  0  0  0
    2.6332   -2.2902    0.5180 C   0  0  0  0  0  0  0  0  0  0  0  0
   -3.9615    0.3491    0.3788 C   0  0  0  0  0  0  0  0  0  0  0  0
    0.1428    1.9292    0.5834 C   0  0  0  0  0  0  0  0  0  0  0  0
    3.5588   -1.2146   -1.5200 C   0  0  0  0  0  0  0  0  0  0  0  0
    1.1509    2.3481    1.4368 C   0  0  0  0  0  0  0  0  0  0  0  0
    1.9908    3.3668    1.0009 C   0  0  0  0  0  0  0  0  0  0  0  0
    0.7630    3.4377   -1.0349 C   0  0  0  0  0  0  0  0  0  0  0  0
    1.7999    3.9274   -0.2572 C   0  0  0  0  0  0  0  0  0  0  0  0
   -5.1907   -1.6277    0.7020 C   0  0  0  0  0  0  0  0  0  0  0  0
    0.0871   -3.4353    0.1021 H   0  0  0  0  0  0  0  0  0  0  0  0
   -0.7173   -2.3749    1.2763 H   0  0  0  0  0  0  0  0  0  0  0  0
   -2.9948    0.8399   -1.4675 H   0  0  0  0  0  0  0  0  0  0  0  0
   -2.7195    2.0273   -0.1815 H   0  0  0  0  0  0  0  0  0  0  0  0
    1.4378   -1.5096    2.0780 H   0  0  0  0  0  0  0  0  0  0  0  0
    1.5367   -3.2793    2.0610 H   0  0  0  0  0  0  0  0  0  0  0  0
   -0.2137    0.0479    1.5223 H   0  0  0  0  0  0  0  0  0  0  0  0
   -1.4827    1.2307    1.7673 H   0  0  0  0  0  0  0  0  0  0  0  0
   -4.8823    0.8952    0.1438 H   0  0  0  0  0  0  0  0  0  0  0  0
   -3.7800    0.4151    1.4579 H   0  0  0  0  0  0  0  0  0  0  0  0
    3.3167   -1.5864   -2.5200 H   0  0  0  0  0  0  0  0  0  0  0  0
    4.4874   -1.6796   -1.1794 H   0  0  0  0  0  0  0  0  0  0  0  0
    3.6934   -0.1294   -1.5542 H   0  0  0  0  0  0  0  0  0  0  0  0
    1.2901    1.9034    2.4163 H   0  0  0  0  0  0  0  0  0  0  0  0
    2.7928    3.7231    1.6403 H   0  0  0  0  0  0  0  0  0  0  0  0
    0.5721    3.8407   -2.0239 H   0  0  0  0  0  0  0  0  0  0  0  0
    2.4426    4.7223   -0.6176 H   0  0  0  0  0  0  0  0  0  0  0  0
   -5.2615   -2.6691    0.3768 H   0  0  0  0  0  0  0  0  0  0  0  0
   -6.1340   -1.1243    0.4691 H   0  0  0  0  0  0  0  0  0  0  0  0
   -5.0100   -1.6107    1.7811 H   0  0  0  0  0  0  0  0  0  0  0  0
  1 15  1  0  0  0  0
  1 22  1  0  0  0  0
  2 13  2  0  0  0  0
  3 14  2  0  0  0  0
  4 10  1  0  0  0  0
  4 12  1  0  0  0  0
  4 13  1  0  0  0  0
  5  6  1  0  0  0  0
  5 14  1  0  0  0  0
  5 17  1  0  0  0  0
  6  9  2  0  0  0  0
  7 16  1  0  0  0  0
  7 20  2  0  0  0  0
  8  9  1  0  0  0  0
  8 11  1  0  0  0  0
  8 23  1  0  0  0  0
  8 24  1  0  0  0  0
  9 13  1  0  0  0  0
 10 15  1  0  0  0  0
 10 25  1  0  0  0  0
 10 26  1  0  0  0  0
 11 14  1  0  0  0  0
 11 27  1  0  0  0  0
 11 28  1  0  0  0  0
 12 16  1  0  0  0  0
 12 29  1  0  0  0  0
 12 30  1  0  0  0  0
 15 31  1  0  0  0  0
 15 32  1  0  0  0  0
 16 18  2  0  0  0  0
 17 33  1  0  0  0  0
 17 34  1  0  0  0  0
 17 35  1  0  0  0  0
 18 19  1  0  0  0  0
 18 36  1  0  0  0  0
 19 21  2  0  0  0  0
 19 37  1  0  0  0  0
 20 21  1  0  0  0  0
 20 38  1  0  0  0  0
 21 39  1  0  0  0  0
 22 40  1  0  0  0  0
 22 41  1  0  0  0  0
 22 42  1  0  0  0  0
M  END
> <PUBCHEM_COMPOUND_CID>
51090973

> <PUBCHEM_CONFORMER_RMSD>
1

> <PUBCHEM_CONFORMER_DIVERSEORDER>
1
121
159
185
13
150
8
155
111
182
146
21
171
99
144
161
162
175
125
186
114
129
67
64
104
116
156
131
140
122
134
51
79
167
173
87
46
55
23
172
183
191
47
24
49
184
147
112
179
25
169
72
139
168
38
151
194
120
180
100
110
165
95
33
80
153
63
188
154
34
40
65
107
84
44
59
127
18
164
42
81
3
29
2
101
96
58
98
53
143
135
50
70
88
106
16
37
174
86
82
178
66
189
103
85
94
196
192
73
45
163
11
92
68
132
166
54
61
75
160
187
4
28
19
176
170
113
142
20
22
7
152
119
157
149
93
91
133
158
41
52
137
130
117
6
148
115
128
136
83
35
77
56
109
193
48
27
74
124
141
105
43
177
102
190
60
145
14
126
123
5
108
195
36
90
39
71
10
9
17
57
69
30
118
138
97
62
78
89
76
12
32
31
181
26
15

> <PUBCHEM_MMFF94_PARTIAL_CHARGES>
26
1 -0.56
10 0.3
11 0.06
12 0.44
13 0.63
14 0.57
15 0.28
16 0.17
17 0.3
18 -0.15
19 -0.15
2 -0.57
20 0.16
21 -0.15
22 0.28
3 -0.57
36 0.15
37 0.15
38 0.15
39 0.15
4 -0.66
5 -0.3
6 -0.51
7 -0.62
8 0.06
9 0.39

> <PUBCHEM_EFFECTIVE_ROTOR_COUNT>
7.6

> <PUBCHEM_PHARMACOPHORE_FEATURES>
7
1 1 acceptor
1 2 acceptor
1 3 acceptor
1 6 acceptor
1 7 acceptor
6 5 6 8 9 11 14 rings
6 7 16 18 19 20 21 rings

> <PUBCHEM_HEAVY_ATOM_COUNT>
22

> <PUBCHEM_ATOM_DEF_STEREO_COUNT>
0

> <PUBCHEM_ATOM_UDEF_STEREO_COUNT>
0

> <PUBCHEM_BOND_DEF_STEREO_COUNT>
0

> <PUBCHEM_BOND_UDEF_STEREO_COUNT>
0

> <PUBCHEM_ISOTOPIC_ATOM_COUNT>
0

> <PUBCHEM_COMPONENT_COUNT>
1

> <PUBCHEM_CACTVS_TAUTO_COUNT>
2

> <PUBCHEM_CONFORMER_ID>
030B961D00000001

> <PUBCHEM_MMFF94_ENERGY>
51.2478

> <PUBCHEM_FEATURE_SELFOVERLAP>
35.522

> <PUBCHEM_SHAPE_FINGERPRINT>
107951 10 17690823576468717300
11578080 2 17916607404563870357
12422481 6 17973198168660389560
12592029 89 18266456495205610401
12788726 201 17623852731163321515
13140716 1 17976266737841118952
133893 2 18048068235869031831
14787075 74 18271226271030694486
14955137 171 17968922189246109591
1601671 61 17899128601514360665
18785283 64 18198624332816384169
20028762 73 16749018097179363607
20600515 1 17969502795614827955
20645476 183 16832385331964704900
20691752 17 18056206765124250143
23366157 5 18270120111046361933
23419403 2 18128559195761450509
23557571 272 17684661213242548554
23558518 356 17833556695307517046
23559900 14 17917709072718986775
23728640 28 17183649601899049008
25147074 1 17751369387428575383
43471831 8 17904774279968461383
81228 2 17467627539404913161
81539 233 18196096534652537889
90316 7 17977102680141834179
90525 40 17476371504039933760

> <PUBCHEM_SHAPE_MULTIPOLES>
415.22
6.28
4.94
1.4
8.61
2.63
0.09
-2.93
-0.39
-5.8
-0.68
-0.6
-0.17
0.15

> <PUBCHEM_SHAPE_SELFOVERLAP>
859.423

> <PUBCHEM_SHAPE_VOLUME>
236

> <PUBCHEM_COORDINATE_TYPE>
2
5
10

$$$$

