17395351
  -OEChem-06241222493D

 46 48  0     1  0  0  0  0  0999 V2000
   -0.4152    2.1210   -0.9778 S   0  0  0  0  0  0  0  0  0  0  0  0
   -0.8442    2.6550   -2.2564 O   0  0  0  0  0  0  0  0  0  0  0  0
    0.1468    3.0009    0.0290 O   0  0  0  0  0  0  0  0  0  0  0  0
    0.6621    0.8452   -1.2230 N   0  0  0  0  0  0  0  0  0  0  0  0
    3.1711    1.0396    1.1222 N   0  0  0  0  0  0  0  0  0  0  0  0
    3.5728   -0.0876   -0.7486 N   0  0  0  0  0  0  0  0  0  0  0  0
    1.1432    0.0527   -0.0389 C   0  0  2  0  0  0  0  0  0  0  0  0
    2.6430    0.3205    0.0862 C   0  0  0  0  0  0  0  0  0  0  0  0
    0.7977   -1.3982   -0.0573 C   0  0  0  0  0  0  0  0  0  0  0  0
   -1.7973    1.3058   -0.2362 C   0  0  0  0  0  0  0  0  0  0  0  0
   -2.5433    0.3616   -0.9415 C   0  0  0  0  0  0  0  0  0  0  0  0
   -2.1386    1.6238    1.0784 C   0  0  0  0  0  0  0  0  0  0  0  0
    0.6054   -2.0844    1.1417 C   0  0  0  0  0  0  0  0  0  0  0  0
    0.6670   -2.0688   -1.2734 C   0  0  0  0  0  0  0  0  0  0  0  0
   -3.6305   -0.2647   -0.3323 C   0  0  0  0  0  0  0  0  0  0  0  0
    4.5238    1.0930    0.9363 C   0  0  0  0  0  0  0  0  0  0  0  0
   -3.9718    0.0533    0.9823 C   0  0  0  0  0  0  0  0  0  0  0  0
    2.4483    1.6385    2.2192 C   0  0  0  0  0  0  0  0  0  0  0  0
   -3.2258    0.9975    1.6877 C   0  0  0  0  0  0  0  0  0  0  0  0
    4.7476    0.3900   -0.2241 C   0  0  0  0  0  0  0  0  0  0  0  0
   -2.2051   -0.0005   -2.3507 C   0  0  0  0  0  0  0  0  0  0  0  0
    0.2823   -3.4413    1.1247 C   0  0  0  0  0  0  0  0  0  0  0  0
    0.3439   -3.4257   -1.2904 C   0  0  0  0  0  0  0  0  0  0  0  0
    0.1516   -4.1120   -0.0913 C   0  0  0  0  0  0  0  0  0  0  0  0
   -5.1347   -0.6154    1.6341 C   0  0  0  0  0  0  0  0  0  0  0  0
    0.6421    0.4705    0.8406 H   0  0  0  0  0  0  0  0  0  0  0  0
    0.9398    0.5432   -2.1634 H   0  0  0  0  0  0  0  0  0  0  0  0
   -1.5792    2.3539    1.6555 H   0  0  0  0  0  0  0  0  0  0  0  0
    0.7050   -1.5753    2.0967 H   0  0  0  0  0  0  0  0  0  0  0  0
    0.8360   -1.5746   -2.2247 H   0  0  0  0  0  0  0  0  0  0  0  0
   -4.2179   -0.9994   -0.8781 H   0  0  0  0  0  0  0  0  0  0  0  0
    5.1887    1.6060    1.6172 H   0  0  0  0  0  0  0  0  0  0  0  0
    1.8278    2.4473    1.8348 H   0  0  0  0  0  0  0  0  0  0  0  0
    1.8459    0.8710    2.7108 H   0  0  0  0  0  0  0  0  0  0  0  0
    3.1636    2.0445    2.9401 H   0  0  0  0  0  0  0  0  0  0  0  0
   -3.4827    1.2549    2.7118 H   0  0  0  0  0  0  0  0  0  0  0  0
    5.6949    0.2041   -0.7089 H   0  0  0  0  0  0  0  0  0  0  0  0
   -2.4638    0.8186   -3.0287 H   0  0  0  0  0  0  0  0  0  0  0  0
   -1.1632   -0.2777   -2.4899 H   0  0  0  0  0  0  0  0  0  0  0  0
   -2.7863   -0.8705   -2.6800 H   0  0  0  0  0  0  0  0  0  0  0  0
    0.1330   -3.9757    2.0582 H   0  0  0  0  0  0  0  0  0  0  0  0
    0.2479   -3.9495   -2.2369 H   0  0  0  0  0  0  0  0  0  0  0  0
   -0.0985   -5.1687   -0.1045 H   0  0  0  0  0  0  0  0  0  0  0  0
   -6.0550   -0.0642    1.4170 H   0  0  0  0  0  0  0  0  0  0  0  0
   -5.2477   -1.6446    1.2767 H   0  0  0  0  0  0  0  0  0  0  0  0
   -5.0055   -0.6665    2.7206 H   0  0  0  0  0  0  0  0  0  0  0  0
  1  2  2  0  0  0  0
  1  3  2  0  0  0  0
  1  4  1  0  0  0  0
  1 10  1  0  0  0  0
  4  7  1  0  0  0  0
  4 27  1  0  0  0  0
  5  8  1  0  0  0  0
  5 16  1  0  0  0  0
  5 18  1  0  0  0  0
  6  8  2  0  0  0  0
  6 20  1  0  0  0  0
  7  8  1  0  0  0  0
  7  9  1  0  0  0  0
  7 26  1  0  0  0  0
  9 13  2  0  0  0  0
  9 14  1  0  0  0  0
 10 11  2  0  0  0  0
 10 12  1  0  0  0  0
 11 15  1  0  0  0  0
 11 21  1  0  0  0  0
 12 19  2  0  0  0  0
 12 28  1  0  0  0  0
 13 22  1  0  0  0  0
 13 29  1  0  0  0  0
 14 23  2  0  0  0  0
 14 30  1  0  0  0  0
 15 17  2  0  0  0  0
 15 31  1  0  0  0  0
 16 20  2  0  0  0  0
 16 32  1  0  0  0  0
 17 19  1  0  0  0  0
 17 25  1  0  0  0  0
 18 33  1  0  0  0  0
 18 34  1  0  0  0  0
 18 35  1  0  0  0  0
 19 36  1  0  0  0  0
 20 37  1  0  0  0  0
 21 38  1  0  0  0  0
 21 39  1  0  0  0  0
 21 40  1  0  0  0  0
 22 24  2  0  0  0  0
 22 41  1  0  0  0  0
 23 24  1  0  0  0  0
 23 42  1  0  0  0  0
 24 43  1  0  0  0  0
 25 44  1  0  0  0  0
 25 45  1  0  0  0  0
 25 46  1  0  0  0  0
M  END
> <PUBCHEM_COMPOUND_CID>
17395351

> <PUBCHEM_CONFORMER_RMSD>
0.8

> <PUBCHEM_CONFORMER_DIVERSEORDER>
2
29
61
13
43
15
17
56
14
32
30
52
49
22
27
11
38
28
57
35
7
39
25
46
21
59
20
44
55
60
58
51
23
42
45
26
4
3
5
31
9
34
41
48
16
53
40
8
10
47
36
18
33
54
6
62
19
50
1
12
24
37

> <PUBCHEM_MMFF94_PARTIAL_CHARGES>
36
1 1.45
10 -0.01
11 -0.14
12 -0.15
13 -0.15
14 -0.15
15 -0.15
16 -0.3
17 -0.14
18 0.26
19 -0.15
2 -0.65
20 0.08
21 0.14
22 -0.15
23 -0.15
24 -0.15
25 0.14
27 0.42
28 0.15
29 0.15
3 -0.65
30 0.15
31 0.15
32 0.15
36 0.15
37 0.15
4 -0.91
41 0.15
42 0.15
43 0.15
5 0.05
6 -0.57
7 0.68
8 0.01
9 -0.14

> <PUBCHEM_EFFECTIVE_ROTOR_COUNT>
5

> <PUBCHEM_PHARMACOPHORE_FEATURES>
7
1 2 acceptor
1 3 acceptor
1 4 donor
3 5 6 8 cation
5 5 6 8 16 20 rings
6 10 11 12 15 17 19 rings
6 9 13 14 22 23 24 rings

> <PUBCHEM_HEAVY_ATOM_COUNT>
25

> <PUBCHEM_ATOM_DEF_STEREO_COUNT>
0

> <PUBCHEM_ATOM_UDEF_STEREO_COUNT>
1

> <PUBCHEM_BOND_DEF_STEREO_COUNT>
0

> <PUBCHEM_BOND_UDEF_STEREO_COUNT>
0

> <PUBCHEM_ISOTOPIC_ATOM_COUNT>
0

> <PUBCHEM_COMPONENT_COUNT>
1

> <PUBCHEM_CACTVS_TAUTO_COUNT>
1

> <PUBCHEM_CONFORMER_ID>
01096E9700000002

> <PUBCHEM_MMFF94_ENERGY>
46.206

> <PUBCHEM_FEATURE_SELFOVERLAP>
35.538

> <PUBCHEM_SHAPE_FINGERPRINT>
10064457 181 18260822644679265049
10906281 52 17774440602748637613
1100329 8 18048883987930350439
11578080 2 17484230117407368869
12633257 1 17774422907614668569
12788726 201 17691401915379818514
13140716 1 18124302819110179219
13583140 156 18114457968300384945
13681431 1 17327196832057967342
13965767 371 17102233351485744537
14178342 30 18340189891299144433
14223421 5 18125438867602735997
14251757 17 5039653911775211450
14787075 74 17823138930298633417
14863182 85 18198035102248417127
15209289 33 18259983764668105880
15309172 13 18412269440956493380
18981168 100 6409566200802486359
19591789 44 18338240483026786718
20028762 73 18190453858038199071
21524375 3 18408893953371197090
22956985 138 17915458526424699810
23559900 14 17843687917689451884
3383291 50 18263361568413172718
35225 105 18051445935468403106
392239 28 18114173078460365619
469060 322 17630346150437100735
6287921 2 18261658372401180711
6442390 28 18334849515893597826
81228 2 17979375070298073394
9981440 41 17691453897311103376

> <PUBCHEM_SHAPE_MULTIPOLES>
491.66
7.39
3.92
1.99
0.06
4.1
0.23
-2.81
-3.32
0.86
0.27
-0.92
-0.52
0.75

> <PUBCHEM_SHAPE_SELFOVERLAP>
1043.414

> <PUBCHEM_SHAPE_VOLUME>
277.2

> <PUBCHEM_COORDINATE_TYPE>
2
5
10

$$$$

