14163
  -OEChem-06241222423D

 42 44  0     0  0  0  0  0  0999 V2000
    1.0122   -1.9359    0.6798 O   0  0  0  0  0  0  0  0  0  0  0  0
   -4.2758   -0.2424    0.0934 N   0  0  0  0  0  0  0  0  0  0  0  0
    2.3003   -1.4982    0.9629 N   0  0  0  0  0  0  0  0  0  0  0  0
   -4.0443    1.1842   -0.1739 C   0  0  0  0  0  0  0  0  0  0  0  0
   -5.6376   -0.6404   -0.2896 C   0  0  0  0  0  0  0  0  0  0  0  0
   -5.0397    2.0574    0.5914 C   0  0  0  0  0  0  0  0  0  0  0  0
   -6.6852    0.1733    0.4721 C   0  0  0  0  0  0  0  0  0  0  0  0
   -6.4787    1.6700    0.2703 C   0  0  0  0  0  0  0  0  0  0  0  0
   -3.2871   -1.0611   -0.6079 C   0  0  0  0  0  0  0  0  0  0  0  0
   -1.8787   -0.7272   -0.1188 C   0  0  0  0  0  0  0  0  0  0  0  0
   -0.8292   -1.5899   -0.8267 C   0  0  0  0  0  0  0  0  0  0  0  0
    0.5676   -1.2421   -0.3773 C   0  0  0  0  0  0  0  0  0  0  0  0
    1.4742   -0.3606   -0.8289 C   0  0  0  0  0  0  0  0  0  0  0  0
    2.5543   -0.5576    0.0487 C   0  0  0  0  0  0  0  0  0  0  0  0
    3.8179    0.1297    0.0329 C   0  0  0  0  0  0  0  0  0  0  0  0
    3.8893    1.4421   -0.4303 C   0  0  0  0  0  0  0  0  0  0  0  0
    4.9673   -0.5188    0.4808 C   0  0  0  0  0  0  0  0  0  0  0  0
    5.1146    2.1085   -0.4459 C   0  0  0  0  0  0  0  0  0  0  0  0
    6.1925    0.1477    0.4653 C   0  0  0  0  0  0  0  0  0  0  0  0
    6.2662    1.4613    0.0019 C   0  0  0  0  0  0  0  0  0  0  0  0
   -4.1105    1.4004   -1.2482 H   0  0  0  0  0  0  0  0  0  0  0  0
   -3.0626    1.5163    0.1723 H   0  0  0  0  0  0  0  0  0  0  0  0
   -5.7950   -1.7005   -0.0563 H   0  0  0  0  0  0  0  0  0  0  0  0
   -5.7913   -0.5180   -1.3700 H   0  0  0  0  0  0  0  0  0  0  0  0
   -4.8776    3.1120    0.3407 H   0  0  0  0  0  0  0  0  0  0  0  0
   -4.8664    1.9550    1.6704 H   0  0  0  0  0  0  0  0  0  0  0  0
   -6.6269   -0.0628    1.5422 H   0  0  0  0  0  0  0  0  0  0  0  0
   -7.6894   -0.1097    0.1368 H   0  0  0  0  0  0  0  0  0  0  0  0
   -7.1711    2.2345    0.9044 H   0  0  0  0  0  0  0  0  0  0  0  0
   -6.7054    1.9339   -0.7700 H   0  0  0  0  0  0  0  0  0  0  0  0
   -3.3532   -0.9191   -1.6945 H   0  0  0  0  0  0  0  0  0  0  0  0
   -3.4802   -2.1224   -0.4063 H   0  0  0  0  0  0  0  0  0  0  0  0
   -1.8090   -0.8716    0.9671 H   0  0  0  0  0  0  0  0  0  0  0  0
   -1.6069    0.3123   -0.3254 H   0  0  0  0  0  0  0  0  0  0  0  0
   -1.0195   -2.6519   -0.6297 H   0  0  0  0  0  0  0  0  0  0  0  0
   -0.8972   -1.4483   -1.9124 H   0  0  0  0  0  0  0  0  0  0  0  0
    1.3798    0.3181   -1.6639 H   0  0  0  0  0  0  0  0  0  0  0  0
    3.0081    1.9764   -0.7762 H   0  0  0  0  0  0  0  0  0  0  0  0
    4.9432   -1.5449    0.8397 H   0  0  0  0  0  0  0  0  0  0  0  0
    5.1719    3.1320   -0.8046 H   0  0  0  0  0  0  0  0  0  0  0  0
    7.0899   -0.3563    0.8122 H   0  0  0  0  0  0  0  0  0  0  0  0
    7.2201    1.9802   -0.0101 H   0  0  0  0  0  0  0  0  0  0  0  0
  1  3  1  0  0  0  0
  1 12  1  0  0  0  0
  2  4  1  0  0  0  0
  2  5  1  0  0  0  0
  2  9  1  0  0  0  0
  3 14  2  0  0  0  0
  4  6  1  0  0  0  0
  4 21  1  0  0  0  0
  4 22  1  0  0  0  0
  5  7  1  0  0  0  0
  5 23  1  0  0  0  0
  5 24  1  0  0  0  0
  6  8  1  0  0  0  0
  6 25  1  0  0  0  0
  6 26  1  0  0  0  0
  7  8  1  0  0  0  0
  7 27  1  0  0  0  0
  7 28  1  0  0  0  0
  8 29  1  0  0  0  0
  8 30  1  0  0  0  0
  9 10  1  0  0  0  0
  9 31  1  0  0  0  0
  9 32  1  0  0  0  0
 10 11  1  0  0  0  0
 10 33  1  0  0  0  0
 10 34  1  0  0  0  0
 11 12  1  0  0  0  0
 11 35  1  0  0  0  0
 11 36  1  0  0  0  0
 12 13  2  0  0  0  0
 13 14  1  0  0  0  0
 13 37  1  0  0  0  0
 14 15  1  0  0  0  0
 15 16  2  0  0  0  0
 15 17  1  0  0  0  0
 16 18  1  0  0  0  0
 16 38  1  0  0  0  0
 17 19  2  0  0  0  0
 17 39  1  0  0  0  0
 18 20  2  0  0  0  0
 18 40  1  0  0  0  0
 19 20  1  0  0  0  0
 19 41  1  0  0  0  0
 20 42  1  0  0  0  0
M  END
> <PUBCHEM_COMPOUND_CID>
14163

> <PUBCHEM_CONFORMER_RMSD>
0.8

> <PUBCHEM_CONFORMER_DIVERSEORDER>
1
15
10
50
38
49
4
44
47
2
24
33
42
19
48
29
13
7
36
28
14
52
18
43
32
11
45
35
39
17
16
9
34
40
12
23
46
27
21
51
37
26
30
41
22
31
25
3
5
6
8
20

> <PUBCHEM_MMFF94_PARTIAL_CHARGES>
22
1 -0.02
11 0.18
12 -0.04
13 -0.15
14 0.23
15 0.05
16 -0.15
17 -0.15
18 -0.15
19 -0.15
2 -0.81
20 -0.15
3 -0.41
37 0.15
38 0.15
39 0.15
4 0.27
40 0.15
41 0.15
42 0.15
5 0.27
9 0.27

> <PUBCHEM_EFFECTIVE_ROTOR_COUNT>
6.2

> <PUBCHEM_PHARMACOPHORE_FEATURES>
5
1 2 cation
1 3 acceptor
5 1 3 12 13 14 rings
6 15 16 17 18 19 20 rings
6 2 4 5 6 7 8 rings

> <PUBCHEM_HEAVY_ATOM_COUNT>
20

> <PUBCHEM_ATOM_DEF_STEREO_COUNT>
0

> <PUBCHEM_ATOM_UDEF_STEREO_COUNT>
0

> <PUBCHEM_BOND_DEF_STEREO_COUNT>
0

> <PUBCHEM_BOND_UDEF_STEREO_COUNT>
0

> <PUBCHEM_ISOTOPIC_ATOM_COUNT>
0

> <PUBCHEM_COMPONENT_COUNT>
1

> <PUBCHEM_CACTVS_TAUTO_COUNT>
1

> <PUBCHEM_CONFORMER_ID>
0000375300000001

> <PUBCHEM_MMFF94_ENERGY>
26.1202

> <PUBCHEM_FEATURE_SELFOVERLAP>
25.371

> <PUBCHEM_SHAPE_FINGERPRINT>
10 15 18272364270413921089
10354089 29 18131633379007085734
10595046 47 18409452492593632955
10670039 82 17022893592603733689
10693767 8 6771879441636519164
10730089 173 18114180843555384289
11724838 91 18341892966396872399
12236239 1 18409169904529289718
12516196 113 10952050048225779182
12596602 18 18060420231511172977
12633257 1 15984814905018209215
12760667 363 10879992454762487103
13167372 99 18409730681614140808
13288520 33 10231755591930031495
13533116 47 17346324851178611242
13685833 64 10231753392484562037
13785724 45 17905893931131568026
14251764 18 18343584018794540012
14251764 75 16698619933252596572
14257110 125 18408322190118088471
14576447 43 8214146257233874318
14849402 71 18058161735417088820
14933364 13 18408882936278611167
15183329 4 7204776973432650565
15188451 53 13110960908131107273
15348495 7 16486966246300972697
15419008 145 18200325445531478072
15475509 35 15482125989250910554
15519825 34 16844427368755299385
15778101 99 18409164389939000775
15961568 22 18408881863049042597
18222031 100 7709462714876879870
19784866 240 9583520932120087847
20281389 69 18335141985822952048
20526848 3 18408882927678334885
21637258 2 10303816453778623679
221357 26 5328746257508263699
22224240 67 17132117913734057619
22956985 138 12461641112350680368
23035841 295 9799695900345630813
23272321 79 18409729560975628295
270888 7 18335420205620802925
2767999 5 18040435490388910201
2838139 119 18187652383507971989
312425 54 16845572028414457329
3472631 163 18261390022775786100
351380 3 10087641489826760737
4073 2 18131063801624397202
4325135 7 18259989258769885439
4340502 62 17275103937743717850
465052 167 12031791370724073330
5104073 3 16844464892971946665
54446538 1 18410295795851284141
5718773 13 11887370480141422193
5758199 1 18131069316551730770
7062679 6 18335137583465675349
7808743 9 18334016073326788439
999808 66 6915972712921336565

> <PUBCHEM_SHAPE_MULTIPOLES>
395.76
19.38
2.08
0.84
8.85
0.59
0
11.01
-2.35
0.18
-0.01
-0.15
-0.11
-1.22

> <PUBCHEM_SHAPE_SELFOVERLAP>
833.117

> <PUBCHEM_SHAPE_VOLUME>
224.3

> <PUBCHEM_COORDINATE_TYPE>
2
5
10

$$$$

