9664
  -OEChem-06261203552D

  6  5  0     0  0  0  0  0  0999 V2000
    4.5981    0.2500    0.0000 Cl  0  0  0  0  0  0  0  0  0  0  0  0
    2.0000    0.7500    0.0000 F   0  0  0  0  0  0  0  0  0  0  0  0
    2.8660   -0.7500    0.0000 F   0  0  0  0  0  0  0  0  0  0  0  0
    2.8660    0.2500    0.0000 C   0  0  0  0  0  0  0  0  0  0  0  0
    3.7320    0.7500    0.0000 C   0  0  0  0  0  0  0  0  0  0  0  0
    3.7320    1.3700    0.0000 H   0  0  0  0  0  0  0  0  0  0  0  0
  1  5  1  0  0  0  0
  2  4  1  0  0  0  0
  3  4  1  0  0  0  0
  4  5  2  0  0  0  0
  5  6  1  0  0  0  0
M  END
> <PUBCHEM_COMPOUND_CID>
9664

> <PUBCHEM_COMPOUND_CANONICALIZED>
1

> <PUBCHEM_CACTVS_COMPLEXITY>
45.6

> <PUBCHEM_CACTVS_HBOND_ACCEPTOR>
2

> <PUBCHEM_CACTVS_HBOND_DONOR>
0

> <PUBCHEM_CACTVS_ROTATABLE_BOND>
0

> <PUBCHEM_CACTVS_SUBSKEYS>
AAADcQBAAYAEAAAAAAAAAAAAAAAAAAAAAAAAAAAAAAAAAAAAAAAAGQIAAAAAAAOAAFAAAAAAAACAAAACAAAAAAAAAAAAAAAAAAAAAAAAAAAAAAAAAAAAAAAAAAAAAAAAAAAAAAAAAAAAAAAAAAAAAAAAAA==

> <PUBCHEM_IUPAC_OPENEYE_NAME>
2-chloro-1,1-difluoro-ethylene

> <PUBCHEM_IUPAC_CAS_NAME>
2-chloro-1,1-difluoroethene

> <PUBCHEM_IUPAC_NAME>
2-chloro-1,1-difluoroethene

> <PUBCHEM_IUPAC_SYSTEMATIC_NAME>
2-chloranyl-1,1-bis(fluoranyl)ethene

> <PUBCHEM_IUPAC_TRADITIONAL_NAME>
2-chloro-1,1-difluoro-ethylene

> <PUBCHEM_IUPAC_INCHI>
InChI=1S/C2HClF2/c3-1-2(4)5/h1H

> <PUBCHEM_IUPAC_INCHIKEY>
HTHNTJCVPNKCPZ-UHFFFAOYSA-N

> <PUBCHEM_XLOGP3_AA>
1.5

> <PUBCHEM_EXACT_MASS>
97.973484

> <PUBCHEM_MOLECULAR_FORMULA>
C2HClF2

> <PUBCHEM_MOLECULAR_WEIGHT>
98.479146

> <PUBCHEM_OPENEYE_CAN_SMILES>
C(=C(F)F)Cl

> <PUBCHEM_OPENEYE_ISO_SMILES>
C(=C(F)F)Cl

> <PUBCHEM_CACTVS_TPSA>
0

> <PUBCHEM_MONOISOTOPIC_WEIGHT>
97.973484

> <PUBCHEM_TOTAL_CHARGE>
0

> <PUBCHEM_HEAVY_ATOM_COUNT>
5

> <PUBCHEM_ATOM_DEF_STEREO_COUNT>
0

> <PUBCHEM_ATOM_UDEF_STEREO_COUNT>
0

> <PUBCHEM_BOND_DEF_STEREO_COUNT>
0

> <PUBCHEM_BOND_UDEF_STEREO_COUNT>
0

> <PUBCHEM_ISOTOPIC_ATOM_COUNT>
0

> <PUBCHEM_COMPONENT_COUNT>
1

> <PUBCHEM_CACTVS_TAUTO_COUNT>
1

> <PUBCHEM_COORDINATE_TYPE>
1
5
255

$$$$

