8106
  -OEChem-06261202353D

 21 20  0     0  0  0  0  0  0999 V2000
    3.9949   -0.4576   -0.0142 S   0  0  0  0  0  0  0  0  0  0  0  0
   -0.0289    0.5290    0.0183 C   0  0  0  0  0  0  0  0  0  0  0  0
   -1.2826   -0.3483    0.0378 C   0  0  0  0  0  0  0  0  0  0  0  0
    1.2445   -0.3226    0.0250 C   0  0  0  0  0  0  0  0  0  0  0  0
   -2.5849    0.4546    0.0079 C   0  0  0  0  0  0  0  0  0  0  0  0
    2.4898    0.5580   -0.0304 C   0  0  0  0  0  0  0  0  0  0  0  0
   -3.8328   -0.4132   -0.0445 C   0  0  0  0  0  0  0  0  0  0  0  0
   -0.0335    1.1951    0.8895 H   0  0  0  0  0  0  0  0  0  0  0  0
   -0.0421    1.1643   -0.8756 H   0  0  0  0  0  0  0  0  0  0  0  0
   -1.2714   -0.9803    0.9344 H   0  0  0  0  0  0  0  0  0  0  0  0
   -1.2614   -1.0245   -0.8260 H   0  0  0  0  0  0  0  0  0  0  0  0
    1.2578   -0.9408    0.9315 H   0  0  0  0  0  0  0  0  0  0  0  0
    1.2281   -1.0031   -0.8357 H   0  0  0  0  0  0  0  0  0  0  0  0
   -2.5824    1.1180   -0.8653 H   0  0  0  0  0  0  0  0  0  0  0  0
   -2.6349    1.0976    0.8947 H   0  0  0  0  0  0  0  0  0  0  0  0
    2.4925    1.1637   -0.9421 H   0  0  0  0  0  0  0  0  0  0  0  0
    2.5210    1.2368    0.8279 H   0  0  0  0  0  0  0  0  0  0  0  0
   -3.8894   -1.0675    0.8311 H   0  0  0  0  0  0  0  0  0  0  0  0
   -3.8351   -1.0396   -0.9422 H   0  0  0  0  0  0  0  0  0  0  0  0
   -4.7308    0.2120   -0.0623 H   0  0  0  0  0  0  0  0  0  0  0  0
    3.7954   -1.0120    1.1907 H   0  0  0  0  0  0  0  0  0  0  0  0
  1  6  1  0  0  0  0
  1 21  1  0  0  0  0
  2  3  1  0  0  0  0
  2  4  1  0  0  0  0
  2  8  1  0  0  0  0
  2  9  1  0  0  0  0
  3  5  1  0  0  0  0
  3 10  1  0  0  0  0
  3 11  1  0  0  0  0
  4  6  1  0  0  0  0
  4 12  1  0  0  0  0
  4 13  1  0  0  0  0
  5  7  1  0  0  0  0
  5 14  1  0  0  0  0
  5 15  1  0  0  0  0
  6 16  1  0  0  0  0
  6 17  1  0  0  0  0
  7 18  1  0  0  0  0
  7 19  1  0  0  0  0
  7 20  1  0  0  0  0
M  END
> <PUBCHEM_COMPOUND_CID>
8106

> <PUBCHEM_CONFORMER_RMSD>
0.6

> <PUBCHEM_CONFORMER_DIVERSEORDER>
1
14
16
15
31
17
21
4
9
6
27
2
12
20
30
22
24
28
25
13
8
10
19
5
23
18
26
7
11
29
3

> <PUBCHEM_MMFF94_PARTIAL_CHARGES>
3
1 -0.41
21 0.18
6 0.23

> <PUBCHEM_EFFECTIVE_ROTOR_COUNT>
4

> <PUBCHEM_PHARMACOPHORE_FEATURES>
2
1 7 hydrophobe
4 2 3 4 5 hydrophobe

> <PUBCHEM_HEAVY_ATOM_COUNT>
7

> <PUBCHEM_ATOM_DEF_STEREO_COUNT>
0

> <PUBCHEM_ATOM_UDEF_STEREO_COUNT>
0

> <PUBCHEM_BOND_DEF_STEREO_COUNT>
0

> <PUBCHEM_BOND_UDEF_STEREO_COUNT>
0

> <PUBCHEM_ISOTOPIC_ATOM_COUNT>
0

> <PUBCHEM_COMPONENT_COUNT>
1

> <PUBCHEM_CACTVS_TAUTO_COUNT>
1

> <PUBCHEM_CONFORMER_ID>
00001FAA00000001

> <PUBCHEM_MMFF94_ENERGY>
-1.4704

> <PUBCHEM_FEATURE_SELFOVERLAP>
10.149

> <PUBCHEM_SHAPE_FINGERPRINT>
11062470 55 18410855464433711072
12932764 1 15410624635731082608
14325111 11 18410573985156732392
18342897 14 9439405735111529495
20719005 15 18410855460181032747
21293036 1 14908177556101801654
5460574 1 9223234044151261449

> <PUBCHEM_SHAPE_MULTIPOLES>
147.91
7.53
0.83
0.63
0.43
0.01
0
-1.21
-0.13
0.09
0
0.05
-0.01
-0.01

> <PUBCHEM_SHAPE_SELFOVERLAP>
243.69

> <PUBCHEM_SHAPE_VOLUME>
102.1

> <PUBCHEM_COORDINATE_TYPE>
2
5
10

$$$$

