17395304
  -OEChem-06241222493D

 40 41  0     1  0  0  0  0  0999 V2000
   -1.6229    0.0977    2.5103 Cl  0  0  0  0  0  0  0  0  0  0  0  0
   -3.7717    1.6018   -0.9542 S   0  0  0  0  0  0  0  0  0  0  0  0
   -1.0883    0.9191   -1.7833 O   0  0  0  0  0  0  0  0  0  0  0  0
    5.9585   -0.2962    0.8290 O   0  0  0  0  0  0  0  0  0  0  0  0
    0.0041    1.8584    0.0784 N   0  0  0  0  0  0  0  0  0  0  0  0
    5.3605   -1.4697   -1.0482 N   0  0  0  0  0  0  0  0  0  0  0  0
   -3.8902    0.4542    0.4384 C   0  0  2  0  0  0  0  0  0  0  0  0
   -2.9393   -0.7117    0.2656 C   0  0  0  0  0  0  0  0  0  0  0  0
   -5.3482    0.0318    0.6237 C   0  0  0  0  0  0  0  0  0  0  0  0
   -2.2809    2.4909   -0.4438 C   0  0  0  0  0  0  0  0  0  0  0  0
   -1.8915   -0.9400    1.1575 C   0  0  0  0  0  0  0  0  0  0  0  0
   -3.1315   -1.5681   -0.8185 C   0  0  0  0  0  0  0  0  0  0  0  0
   -1.0689    1.6578   -0.8019 C   0  0  0  0  0  0  0  0  0  0  0  0
    1.2650    1.2619    0.0508 C   0  0  0  0  0  0  0  0  0  0  0  0
   -1.0358   -2.0247    0.9653 C   0  0  0  0  0  0  0  0  0  0  0  0
   -2.2757   -2.6527   -1.0108 C   0  0  0  0  0  0  0  0  0  0  0  0
   -1.2279   -2.8810   -0.1189 C   0  0  0  0  0  0  0  0  0  0  0  0
    1.5776    0.3380   -0.9464 C   0  0  0  0  0  0  0  0  0  0  0  0
    2.2124    1.5885    1.0210 C   0  0  0  0  0  0  0  0  0  0  0  0
    3.7853    0.0674   -0.0030 C   0  0  0  0  0  0  0  0  0  0  0  0
    2.8378   -0.2592   -0.9733 C   0  0  0  0  0  0  0  0  0  0  0  0
    3.4725    0.9912    0.9941 C   0  0  0  0  0  0  0  0  0  0  0  0
    5.0993   -0.5551   -0.0320 C   0  0  0  0  0  0  0  0  0  0  0  0
   -3.6638    1.0364    1.3339 H   0  0  0  0  0  0  0  0  0  0  0  0
   -5.7536   -0.4853   -0.2533 H   0  0  0  0  0  0  0  0  0  0  0  0
   -5.4416   -0.6531    1.4747 H   0  0  0  0  0  0  0  0  0  0  0  0
   -5.9896    0.8966    0.8301 H   0  0  0  0  0  0  0  0  0  0  0  0
   -2.3148    2.7416    0.6198 H   0  0  0  0  0  0  0  0  0  0  0  0
   -2.2180    3.4264   -1.0086 H   0  0  0  0  0  0  0  0  0  0  0  0
   -3.9405   -1.4158   -1.5277 H   0  0  0  0  0  0  0  0  0  0  0  0
   -0.2134   -2.2151    1.6501 H   0  0  0  0  0  0  0  0  0  0  0  0
   -2.4250   -3.3196   -1.8549 H   0  0  0  0  0  0  0  0  0  0  0  0
   -0.1439    2.5203    0.8372 H   0  0  0  0  0  0  0  0  0  0  0  0
   -0.5609   -3.7248   -0.2694 H   0  0  0  0  0  0  0  0  0  0  0  0
    0.8966    0.0324   -1.7283 H   0  0  0  0  0  0  0  0  0  0  0  0
    1.9816    2.3062    1.8043 H   0  0  0  0  0  0  0  0  0  0  0  0
    3.0117   -0.9680   -1.7740 H   0  0  0  0  0  0  0  0  0  0  0  0
    4.1937    1.2620    1.7608 H   0  0  0  0  0  0  0  0  0  0  0  0
    6.2680   -1.9233   -1.0860 H   0  0  0  0  0  0  0  0  0  0  0  0
    4.7208   -1.7411   -1.7835 H   0  0  0  0  0  0  0  0  0  0  0  0
  1 11  1  0  0  0  0
  2  7  1  0  0  0  0
  2 10  1  0  0  0  0
  3 13  2  0  0  0  0
  4 23  2  0  0  0  0
  5 13  1  0  0  0  0
  5 14  1  0  0  0  0
  5 33  1  0  0  0  0
  6 23  1  0  0  0  0
  6 39  1  0  0  0  0
  6 40  1  0  0  0  0
  7  8  1  0  0  0  0
  7  9  1  0  0  0  0
  7 24  1  0  0  0  0
  8 11  1  0  0  0  0
  8 12  2  0  0  0  0
  9 25  1  0  0  0  0
  9 26  1  0  0  0  0
  9 27  1  0  0  0  0
 10 13  1  0  0  0  0
 10 28  1  0  0  0  0
 10 29  1  0  0  0  0
 11 15  2  0  0  0  0
 12 16  1  0  0  0  0
 12 30  1  0  0  0  0
 14 18  2  0  0  0  0
 14 19  1  0  0  0  0
 15 17  1  0  0  0  0
 15 31  1  0  0  0  0
 16 17  2  0  0  0  0
 16 32  1  0  0  0  0
 17 34  1  0  0  0  0
 18 21  1  0  0  0  0
 18 35  1  0  0  0  0
 19 22  2  0  0  0  0
 19 36  1  0  0  0  0
 20 21  2  0  0  0  0
 20 22  1  0  0  0  0
 20 23  1  0  0  0  0
 21 37  1  0  0  0  0
 22 38  1  0  0  0  0
M  END
> <PUBCHEM_COMPOUND_CID>
17395304

> <PUBCHEM_CONFORMER_RMSD>
0.8

> <PUBCHEM_CONFORMER_DIVERSEORDER>
2
135
23
139
43
84
229
260
292
5
312
305
187
235
152
202
255
242
326
138
199
185
318
173
209
85
204
283
310
161
219
31
169
101
133
12
122
234
90
155
48
79
216
81
107
110
249
119
64
99
180
201
63
45
159
301
162
165
46
192
208
309
49
294
207
198
118
193
112
245
24
332
72
30
74
97
120
194
151
268
273
34
226
168
230
316
241
256
144
191
60
246
238
330
300
297
11
257
91
278
98
215
252
254
100
140
293
35
93
76
213
6
156
197
271
265
322
288
142
134
83
275
51
243
36
10
296
277
127
190
287
52
4
206
270
41
113
178
314
247
26
40
56
276
211
164
32
170
28
50
137
282
80
272
177
9
121
55
17
222
302
237
94
19
29
266
95
285
160
71
315
21
280
329
262
132
16
311
25
212
183
320
53
96
1
153
131
128
233
106
123
149
146
38
248
325
20
47
130
176
129
8
87
125
145
104
279
295
171
258
18
225
75
68
92
67
89
189
166
220
217
186
227
3
33
205
86
7
58
14
324
174
289
54
147
298
307
27
57
181
102
228
105
291
323
224
331
210
284
308
195
88
39
236
264
22
306
62
250
203
148
188
184
317
221
214
244
126
77
158
303
44
150
163
37
196
15
321
167
253
239
73
115
328
286
327
103
116
179
218
274
319
240
259
182
269
59
154
109
223
231
157
313
200
261
61
42
304
66
141
143
136
124
281
13
117
108
69
290
251
267
175
232
172
299
263
78
82
70
114
65
111

> <PUBCHEM_MMFF94_PARTIAL_CHARGES>
33
1 -0.18
10 0.29
11 0.18
12 -0.15
13 0.57
14 0.12
15 -0.15
16 -0.15
17 -0.15
18 -0.15
19 -0.15
2 -0.46
20 0.09
21 -0.15
22 -0.15
23 0.54
3 -0.57
30 0.15
31 0.15
32 0.15
33 0.37
34 0.15
35 0.15
36 0.15
37 0.15
38 0.15
39 0.37
4 -0.57
40 0.37
5 -0.55
6 -0.8
7 0.37
8 -0.14

> <PUBCHEM_EFFECTIVE_ROTOR_COUNT>
7

> <PUBCHEM_PHARMACOPHORE_FEATURES>
7
1 3 acceptor
1 4 acceptor
1 5 donor
1 6 donor
1 9 hydrophobe
6 14 18 19 20 21 22 rings
6 8 11 12 15 16 17 rings

> <PUBCHEM_HEAVY_ATOM_COUNT>
23

> <PUBCHEM_ATOM_DEF_STEREO_COUNT>
0

> <PUBCHEM_ATOM_UDEF_STEREO_COUNT>
1

> <PUBCHEM_BOND_DEF_STEREO_COUNT>
0

> <PUBCHEM_BOND_UDEF_STEREO_COUNT>
0

> <PUBCHEM_ISOTOPIC_ATOM_COUNT>
0

> <PUBCHEM_COMPONENT_COUNT>
1

> <PUBCHEM_CACTVS_TAUTO_COUNT>
7

> <PUBCHEM_CONFORMER_ID>
01096E6800000002

> <PUBCHEM_MMFF94_ENERGY>
69.9419

> <PUBCHEM_FEATURE_SELFOVERLAP>
35.52

> <PUBCHEM_SHAPE_FINGERPRINT>
107951 10 17346033502040178331
11370993 144 18113616776863032336
11370993 70 17603580811891234399
11552529 35 17460318750359678390
12011746 2 18343305890061570133
12236239 1 16630524059475560916
12553582 1 17489319554921601800
12596599 1 17823678824841203198
12596602 18 14273749442886122446
12633257 1 17968924332065486424
13402501 40 18335979856717587862
13583140 156 15285357297569879242
14251751 93 17703235142605529380
14617045 38 18342451577921764642
16752209 62 17988376913301068553
1813 80 17560807571702792148
19141452 34 18334011662068230319
192875 21 16805316691244094488
200 152 16950286212644837465
21403212 168 18260824960616430729
23419403 2 16952835843424823913
23559900 14 18040720217099112456
23728640 28 18343299258510836587
3411729 13 17625821944232260373
465052 167 17273393025643769625
5265222 85 18342163467626413350
5364581 5 18193292793124768112
559249 180 17916594283676033730
574716 61 16701723961714034990
602551 16 18413111658637159212
9709674 26 18267027150198316232

> <PUBCHEM_SHAPE_MULTIPOLES>
457.35
10.35
2.68
1.55
11.85
0.89
-0.52
1.35
-0.19
-1.94
0.6
-0.47
-0.02
0.77

> <PUBCHEM_SHAPE_SELFOVERLAP>
946.568

> <PUBCHEM_SHAPE_VOLUME>
262.8

> <PUBCHEM_COORDINATE_TYPE>
2
5
10

$$$$

