17396221
  -OEChem-06241222553D

 51 53  0     0  0  0  0  0  0999 V2000
   -5.2370    1.5403   -0.5702 S   0  0  0  0  0  0  0  0  0  0  0  0
    4.8756   -1.9197   -1.8274 O   0  0  0  0  0  0  0  0  0  0  0  0
   -6.2311    2.1400    0.3133 O   0  0  0  0  0  0  0  0  0  0  0  0
   -4.3956    2.4238   -1.3703 O   0  0  0  0  0  0  0  0  0  0  0  0
    0.1310   -2.2492    1.9880 O   0  0  0  0  0  0  0  0  0  0  0  0
    3.5305   -0.7810   -0.2672 N   0  0  0  0  0  0  0  0  0  0  0  0
    2.3438   -0.7725    0.4292 N   0  0  0  0  0  0  0  0  0  0  0  0
   -6.0318    0.4221   -1.6245 N   0  0  0  0  0  0  0  0  0  0  0  0
   -0.7480   -0.8426    0.3002 N   0  0  0  0  0  0  0  0  0  0  0  0
    1.6331   -2.7861   -0.8048 C   0  0  0  0  0  0  0  0  0  0  0  0
    3.0986   -3.1278   -0.8481 C   0  0  0  0  0  0  0  0  0  0  0  0
    1.4734   -1.6960    0.1956 C   0  0  0  0  0  0  0  0  0  0  0  0
    3.9228   -1.8770   -1.0487 C   0  0  0  0  0  0  0  0  0  0  0  0
   -4.1966    0.5205    0.3920 C   0  0  0  0  0  0  0  0  0  0  0  0
    4.2998    0.4264   -0.1056 C   0  0  0  0  0  0  0  0  0  0  0  0
   -2.0661   -0.5662    0.7338 C   0  0  0  0  0  0  0  0  0  0  0  0
    0.1884   -1.6258    0.9403 C   0  0  0  0  0  0  0  0  0  0  0  0
   -2.8968    0.2491   -0.0350 C   0  0  0  0  0  0  0  0  0  0  0  0
   -4.6658   -0.0233    1.5877 C   0  0  0  0  0  0  0  0  0  0  0  0
    3.6532    1.6412    0.1219 C   0  0  0  0  0  0  0  0  0  0  0  0
   -2.5353   -1.1098    1.9296 C   0  0  0  0  0  0  0  0  0  0  0  0
    5.6921    0.3799   -0.1765 C   0  0  0  0  0  0  0  0  0  0  0  0
    4.3989    2.8095    0.2780 C   0  0  0  0  0  0  0  0  0  0  0  0
   -3.8351   -0.8385    2.3566 C   0  0  0  0  0  0  0  0  0  0  0  0
   -7.1577   -0.3675   -1.0640 C   0  0  0  0  0  0  0  0  0  0  0  0
   -5.1814   -0.3895   -2.5318 C   0  0  0  0  0  0  0  0  0  0  0  0
    6.4379    1.5482   -0.0201 C   0  0  0  0  0  0  0  0  0  0  0  0
    5.7912    2.7630    0.2071 C   0  0  0  0  0  0  0  0  0  0  0  0
    3.7079    4.1084    0.5206 C   0  0  0  0  0  0  0  0  0  0  0  0
    1.2788   -2.4175   -1.7735 H   0  0  0  0  0  0  0  0  0  0  0  0
    1.0375   -3.6590   -0.5218 H   0  0  0  0  0  0  0  0  0  0  0  0
    3.4239   -3.5954    0.0889 H   0  0  0  0  0  0  0  0  0  0  0  0
    3.2971   -3.8296   -1.6650 H   0  0  0  0  0  0  0  0  0  0  0  0
   -2.5236    0.6643   -0.9679 H   0  0  0  0  0  0  0  0  0  0  0  0
   -0.4784   -0.4099   -0.5807 H   0  0  0  0  0  0  0  0  0  0  0  0
   -5.6764    0.1695    1.9363 H   0  0  0  0  0  0  0  0  0  0  0  0
    2.5682    1.7015    0.1641 H   0  0  0  0  0  0  0  0  0  0  0  0
   -1.9474   -1.7490    2.5743 H   0  0  0  0  0  0  0  0  0  0  0  0
    6.2305   -0.5520   -0.3192 H   0  0  0  0  0  0  0  0  0  0  0  0
   -4.2020   -1.2627    3.2868 H   0  0  0  0  0  0  0  0  0  0  0  0
   -7.7173   -0.8421   -1.8764 H   0  0  0  0  0  0  0  0  0  0  0  0
   -6.7883   -1.1449   -0.3898 H   0  0  0  0  0  0  0  0  0  0  0  0
   -7.8553    0.2829   -0.5296 H   0  0  0  0  0  0  0  0  0  0  0  0
   -4.7587   -1.2502   -2.0063 H   0  0  0  0  0  0  0  0  0  0  0  0
   -5.7845   -0.7495   -3.3714 H   0  0  0  0  0  0  0  0  0  0  0  0
   -4.3746    0.2177   -2.9514 H   0  0  0  0  0  0  0  0  0  0  0  0
    7.5222    1.5113   -0.0681 H   0  0  0  0  0  0  0  0  0  0  0  0
    6.3839    3.6661    0.3269 H   0  0  0  0  0  0  0  0  0  0  0  0
    3.4072    4.5574   -0.4312 H   0  0  0  0  0  0  0  0  0  0  0  0
    2.8169    3.9684    1.1422 H   0  0  0  0  0  0  0  0  0  0  0  0
    4.3586    4.8138    1.0484 H   0  0  0  0  0  0  0  0  0  0  0  0
  1  3  2  0  0  0  0
  1  4  2  0  0  0  0
  1  8  1  0  0  0  0
  1 14  1  0  0  0  0
  2 13  2  0  0  0  0
  5 17  2  0  0  0  0
  6  7  1  0  0  0  0
  6 13  1  0  0  0  0
  6 15  1  0  0  0  0
  7 12  2  0  0  0  0
  8 25  1  0  0  0  0
  8 26  1  0  0  0  0
  9 16  1  0  0  0  0
  9 17  1  0  0  0  0
  9 35  1  0  0  0  0
 10 11  1  0  0  0  0
 10 12  1  0  0  0  0
 10 30  1  0  0  0  0
 10 31  1  0  0  0  0
 11 13  1  0  0  0  0
 11 32  1  0  0  0  0
 11 33  1  0  0  0  0
 12 17  1  0  0  0  0
 14 18  1  0  0  0  0
 14 19  2  0  0  0  0
 15 20  1  0  0  0  0
 15 22  2  0  0  0  0
 16 18  2  0  0  0  0
 16 21  1  0  0  0  0
 18 34  1  0  0  0  0
 19 24  1  0  0  0  0
 19 36  1  0  0  0  0
 20 23  2  0  0  0  0
 20 37  1  0  0  0  0
 21 24  2  0  0  0  0
 21 38  1  0  0  0  0
 22 27  1  0  0  0  0
 22 39  1  0  0  0  0
 23 28  1  0  0  0  0
 23 29  1  0  0  0  0
 24 40  1  0  0  0  0
 25 41  1  0  0  0  0
 25 42  1  0  0  0  0
 25 43  1  0  0  0  0
 26 44  1  0  0  0  0
 26 45  1  0  0  0  0
 26 46  1  0  0  0  0
 27 28  2  0  0  0  0
 27 47  1  0  0  0  0
 28 48  1  0  0  0  0
 29 49  1  0  0  0  0
 29 50  1  0  0  0  0
 29 51  1  0  0  0  0
M  END
> <PUBCHEM_COMPOUND_CID>
17396221

> <PUBCHEM_CONFORMER_RMSD>
1

> <PUBCHEM_CONFORMER_DIVERSEORDER>
7
36
84
117
107
66
41
76
73
62
71
115
72
111
24
123
113
79
2
27
100
54
30
44
46
98
102
97
38
88
77
25
90
64
91
108
67
14
105
49
15
18
87
4
48
55
33
110
85
59
119
93
116
112
121
86
78
11
23
37
70
92
120
68
39
95
81
45
21
89
16
32
101
69
122
52
104
118
40
5
20
50
74
57
103
22
28
114
12
63
94
65
106
19
99
34
13
58
6
56
60
26
53
35
109
43
1
17
75
31
80
42
61
8
82
96
3
47
29
51
10
9
83

> <PUBCHEM_MMFF94_PARTIAL_CHARGES>
38
1 1.45
10 0.06
11 0.06
12 0.39
13 0.57
14 -0.01
15 0.12
16 0.12
17 0.63
18 -0.15
19 -0.15
2 -0.57
20 -0.15
21 -0.15
22 -0.15
23 -0.14
24 -0.15
25 0.36
26 0.36
27 -0.15
28 -0.15
29 0.14
3 -0.65
34 0.15
35 0.37
36 0.15
37 0.15
38 0.15
39 0.15
4 -0.65
40 0.15
47 0.15
48 0.15
5 -0.57
6 -0.11
7 -0.51
8 -0.85
9 -0.55

> <PUBCHEM_EFFECTIVE_ROTOR_COUNT>
6.6

> <PUBCHEM_PHARMACOPHORE_FEATURES>
9
1 2 acceptor
1 3 acceptor
1 4 acceptor
1 5 acceptor
1 7 acceptor
1 9 donor
6 14 16 18 19 21 24 rings
6 15 20 22 23 27 28 rings
6 6 7 10 11 12 13 rings

> <PUBCHEM_HEAVY_ATOM_COUNT>
29

> <PUBCHEM_ATOM_DEF_STEREO_COUNT>
0

> <PUBCHEM_ATOM_UDEF_STEREO_COUNT>
0

> <PUBCHEM_BOND_DEF_STEREO_COUNT>
0

> <PUBCHEM_BOND_UDEF_STEREO_COUNT>
0

> <PUBCHEM_ISOTOPIC_ATOM_COUNT>
0

> <PUBCHEM_COMPONENT_COUNT>
1

> <PUBCHEM_CACTVS_TAUTO_COUNT>
2

> <PUBCHEM_CONFORMER_ID>
010971FD00000007

> <PUBCHEM_MMFF94_ENERGY>
79.8181

> <PUBCHEM_FEATURE_SELFOVERLAP>
45.689

> <PUBCHEM_SHAPE_FINGERPRINT>
10763959 59 18342452630663427956
10811444 77 18411984624643348380
11200772 71 17677061135484323327
11331351 85 16618172395089650419
12403259 415 18200578263773927890
12769317 202 18334294249900394072
13402501 40 18272089387927809612
13878862 14 18340217336382486340
14187579 7 18267589194483915469
14428016 6 18115033991427406033
14556957 393 17095518556528264153
14681490 219 18334298694828262745
14739800 52 17774733046754804457
15003188 100 18410576162884707636
15082195 135 17968102980021726818
15799311 1 15430027756456211615
16067690 210 16272199773908810564
16120349 189 18193561061113641372
19246450 95 13326040809466501623
20554085 129 16845300445090346377
20567600 254 18202286879284457034
20715895 44 18409166589621490240
21033648 144 18336817624205889078
21033648 29 17917418826670010362
21315763 76 18260544503214595104
21388113 180 18341331089584349424
21475661 188 18272367534589143904
21968339 14 18334583468761089938
23516275 100 18272377420988149868
23522609 53 17024006264702174003
23559900 14 17488447749501657050
2838139 119 18341901817559422397
312425 54 9871458842726830541
3459 39 16917350337819506051
34797466 226 18261108595581863543
4371632 12 17244436196234372313
439807 62 5256418200932196748
44317340 157 18187645834283829627
5104073 3 17417806296807278195
6697151 62 18053668254965139650
9555976 147 13470410028527756533
999808 66 8574440828461596736

> <PUBCHEM_SHAPE_MULTIPOLES>
557.25
18.56
3.74
1.82
9.12
1.47
-0.08
11.42
5.94
-6.2
0.32
3.27
-0.83
2.4

> <PUBCHEM_SHAPE_SELFOVERLAP>
1173.703

> <PUBCHEM_SHAPE_VOLUME>
313.7

> <PUBCHEM_COORDINATE_TYPE>
2
5
10

$$$$

