17396628
  -OEChem-06241222573D

 51 53  0     1  0  0  0  0  0999 V2000
    1.2060   -2.5247   -1.3591 O   0  0  0  0  0  0  0  0  0  0  0  0
    5.1658    1.1313   -1.4669 O   0  0  0  0  0  0  0  0  0  0  0  0
    0.3207   -2.4042    0.7828 N   0  0  0  0  0  0  0  0  0  0  0  0
    4.3375    0.0189    0.4024 N   0  0  0  0  0  0  0  0  0  0  0  0
    3.0756   -0.4055   -0.1643 C   0  0  1  0  0  0  0  0  0  0  0  0
   -1.0076   -2.8894    0.4491 C   0  0  2  0  0  0  0  0  0  0  0  0
    2.5989   -1.7260    0.4596 C   0  0  0  0  0  0  0  0  0  0  0  0
   -1.9143   -1.7876    0.0142 C   0  0  0  0  0  0  0  0  0  0  0  0
    1.3189   -2.2645   -0.1644 C   0  0  0  0  0  0  0  0  0  0  0  0
    2.0361    0.6877   -0.0209 C   0  0  0  0  0  0  0  0  0  0  0  0
   -1.5685   -3.7091    1.6206 C   0  0  0  0  0  0  0  0  0  0  0  0
   -2.2621   -0.7759    0.9095 C   0  0  0  0  0  0  0  0  0  0  0  0
   -3.1146    0.2682    0.5153 C   0  0  0  0  0  0  0  0  0  0  0  0
   -2.4125   -1.7694   -1.2852 C   0  0  0  0  0  0  0  0  0  0  0  0
   -3.6211    0.2869   -0.8060 C   0  0  0  0  0  0  0  0  0  0  0  0
   -3.2603   -0.7396   -1.6941 C   0  0  0  0  0  0  0  0  0  0  0  0
    1.0709    0.8667   -1.0120 C   0  0  0  0  0  0  0  0  0  0  0  0
    2.0440    1.5148    1.1023 C   0  0  0  0  0  0  0  0  0  0  0  0
   -3.4750    1.2948    1.4034 C   0  0  0  0  0  0  0  0  0  0  0  0
   -4.4736    1.3310   -1.2001 C   0  0  0  0  0  0  0  0  0  0  0  0
    5.2738    0.7529   -0.3035 C   0  0  0  0  0  0  0  0  0  0  0  0
    0.1139    1.8727   -0.8800 C   0  0  0  0  0  0  0  0  0  0  0  0
    1.0869    2.5209    1.2342 C   0  0  0  0  0  0  0  0  0  0  0  0
   -4.3231    2.3245    0.9949 C   0  0  0  0  0  0  0  0  0  0  0  0
   -4.8216    2.3424   -0.3043 C   0  0  0  0  0  0  0  0  0  0  0  0
    0.1218    2.6998    0.2430 C   0  0  0  0  0  0  0  0  0  0  0  0
    6.4833    1.0822    0.5297 C   0  0  0  0  0  0  0  0  0  0  0  0
    3.2491   -0.5676   -1.2368 H   0  0  0  0  0  0  0  0  0  0  0  0
   -0.8830   -3.5939   -0.3841 H   0  0  0  0  0  0  0  0  0  0  0  0
    2.4842   -1.6066    1.5444 H   0  0  0  0  0  0  0  0  0  0  0  0
    3.3672   -2.4980    0.3231 H   0  0  0  0  0  0  0  0  0  0  0  0
    0.4817   -2.0905    1.7355 H   0  0  0  0  0  0  0  0  0  0  0  0
   -1.6529   -3.1128    2.5358 H   0  0  0  0  0  0  0  0  0  0  0  0
   -2.5619   -4.1046    1.3822 H   0  0  0  0  0  0  0  0  0  0  0  0
   -0.9099   -4.5555    1.8457 H   0  0  0  0  0  0  0  0  0  0  0  0
   -1.8650   -0.7880    1.9231 H   0  0  0  0  0  0  0  0  0  0  0  0
    4.5150   -0.1893    1.3814 H   0  0  0  0  0  0  0  0  0  0  0  0
   -2.1503   -2.5489   -1.9957 H   0  0  0  0  0  0  0  0  0  0  0  0
   -3.6372   -0.7452   -2.7147 H   0  0  0  0  0  0  0  0  0  0  0  0
    1.0545    0.2359   -1.8963 H   0  0  0  0  0  0  0  0  0  0  0  0
    2.7712    1.3897    1.8995 H   0  0  0  0  0  0  0  0  0  0  0  0
   -3.0963    1.3017    2.4234 H   0  0  0  0  0  0  0  0  0  0  0  0
   -4.8747    1.3655   -2.2110 H   0  0  0  0  0  0  0  0  0  0  0  0
   -0.6375    2.0122   -1.6516 H   0  0  0  0  0  0  0  0  0  0  0  0
    1.0896    3.1621    2.1108 H   0  0  0  0  0  0  0  0  0  0  0  0
   -4.5937    3.1126    1.6915 H   0  0  0  0  0  0  0  0  0  0  0  0
   -5.4815    3.1445   -0.6219 H   0  0  0  0  0  0  0  0  0  0  0  0
   -0.6251    3.4814    0.3467 H   0  0  0  0  0  0  0  0  0  0  0  0
    6.8470    0.1871    1.0424 H   0  0  0  0  0  0  0  0  0  0  0  0
    7.2805    1.4645   -0.1136 H   0  0  0  0  0  0  0  0  0  0  0  0
    6.2199    1.8440    1.2686 H   0  0  0  0  0  0  0  0  0  0  0  0
  1  9  2  0  0  0  0
  2 21  2  0  0  0  0
  3  6  1  0  0  0  0
  3  9  1  0  0  0  0
  3 32  1  0  0  0  0
  4  5  1  0  0  0  0
  4 21  1  0  0  0  0
  4 37  1  0  0  0  0
  5  7  1  0  0  0  0
  5 10  1  0  0  0  0
  5 28  1  0  0  0  0
  6  8  1  0  0  0  0
  6 11  1  0  0  0  0
  6 29  1  0  0  0  0
  7  9  1  0  0  0  0
  7 30  1  0  0  0  0
  7 31  1  0  0  0  0
  8 12  2  0  0  0  0
  8 14  1  0  0  0  0
 10 17  2  0  0  0  0
 10 18  1  0  0  0  0
 11 33  1  0  0  0  0
 11 34  1  0  0  0  0
 11 35  1  0  0  0  0
 12 13  1  0  0  0  0
 12 36  1  0  0  0  0
 13 15  1  0  0  0  0
 13 19  2  0  0  0  0
 14 16  2  0  0  0  0
 14 38  1  0  0  0  0
 15 16  1  0  0  0  0
 15 20  2  0  0  0  0
 16 39  1  0  0  0  0
 17 22  1  0  0  0  0
 17 40  1  0  0  0  0
 18 23  2  0  0  0  0
 18 41  1  0  0  0  0
 19 24  1  0  0  0  0
 19 42  1  0  0  0  0
 20 25  1  0  0  0  0
 20 43  1  0  0  0  0
 21 27  1  0  0  0  0
 22 26  2  0  0  0  0
 22 44  1  0  0  0  0
 23 26  1  0  0  0  0
 23 45  1  0  0  0  0
 24 25  2  0  0  0  0
 24 46  1  0  0  0  0
 25 47  1  0  0  0  0
 26 48  1  0  0  0  0
 27 49  1  0  0  0  0
 27 50  1  0  0  0  0
 27 51  1  0  0  0  0
M  END
> <PUBCHEM_COMPOUND_CID>
17396628

> <PUBCHEM_CONFORMER_RMSD>
1.2

> <PUBCHEM_CONFORMER_DIVERSEORDER>
1
145
132
80
153
129
6
131
167
41
123
34
16
63
165
79
147
76
81
29
78
47
164
104
152
113
151
159
114
70
117
7
4
11
21
59
133
169
125
43
90
77
84
87
140
97
27
67
13
102
121
91
26
115
3
10
17
154
158
44
93
138
30
46
144
73
126
62
35
135
55
15
166
168
68
100
143
48
105
136
86
99
119
75
82
146
18
37
71
130
142
89
72
33
83
127
157
36
54
98
22
14
57
25
56
112
42
109
92
106
38
96
137
120
95
52
103
65
51
40
141
19
66
108
116
28
160
124
149
32
49
101
61
118
60
8
31
110
139
2
85
39
20
107
161
24
50
64
74
23
5
148
128
45
12
156
122
69
94
9
53
162
163
88
155
58
150
111
134

> <PUBCHEM_MMFF94_PARTIAL_CHARGES>
38
1 -0.57
10 -0.14
12 -0.15
14 -0.15
16 -0.15
17 -0.15
18 -0.15
19 -0.15
2 -0.57
20 -0.15
21 0.57
22 -0.15
23 -0.15
24 -0.15
25 -0.15
26 -0.15
27 0.06
3 -0.73
32 0.37
36 0.15
37 0.37
38 0.15
39 0.15
4 -0.73
40 0.15
41 0.15
42 0.15
43 0.15
44 0.15
45 0.15
46 0.15
47 0.15
48 0.15
5 0.44
6 0.44
7 0.06
8 -0.14
9 0.57

> <PUBCHEM_EFFECTIVE_ROTOR_COUNT>
8

> <PUBCHEM_PHARMACOPHORE_FEATURES>
7
1 1 acceptor
1 2 acceptor
1 3 donor
1 4 donor
6 10 17 18 22 23 26 rings
6 13 15 19 20 24 25 rings
6 8 12 13 14 15 16 rings

> <PUBCHEM_HEAVY_ATOM_COUNT>
27

> <PUBCHEM_ATOM_DEF_STEREO_COUNT>
0

> <PUBCHEM_ATOM_UDEF_STEREO_COUNT>
2

> <PUBCHEM_BOND_DEF_STEREO_COUNT>
0

> <PUBCHEM_BOND_UDEF_STEREO_COUNT>
0

> <PUBCHEM_ISOTOPIC_ATOM_COUNT>
0

> <PUBCHEM_COMPONENT_COUNT>
1

> <PUBCHEM_CACTVS_TAUTO_COUNT>
4

> <PUBCHEM_CONFORMER_ID>
0109739400000001

> <PUBCHEM_MMFF94_ENERGY>
66.5041

> <PUBCHEM_FEATURE_SELFOVERLAP>
35.547

> <PUBCHEM_SHAPE_FINGERPRINT>
10675989 125 17765158654072207789
10906281 52 18335409197403390932
12107698 1 18042976384767924175
12422481 6 17917156091231496732
12633257 1 18340502156574289610
12788726 201 18115587196347939768
14765038 42 18187915226985495089
14790565 3 18340483469240727764
14931854 50 18334304192623226837
1601671 61 18410576184818460308
18608769 82 18340485548495256251
20600515 1 18338783542833920260
21279426 13 18335413600166784878
22393880 68 17967824807663610500
23559900 14 17895490132385289617
34934 24 18334296517073400733
350125 39 18341324488651762107
460360 51 18124874552325234928
474 4 18267590285378890603
7226269 152 18408601457656097900
7288768 16 18201712985844309515
9981440 41 17900849066396373361

> <PUBCHEM_SHAPE_MULTIPOLES>
533.95
10.55
3.86
1.46
9.93
2.15
0.1
-6.81
1.09
-1.88
-1.14
-0.78
0.15
-0.05

> <PUBCHEM_SHAPE_SELFOVERLAP>
1143.967

> <PUBCHEM_SHAPE_VOLUME>
294.6

> <PUBCHEM_COORDINATE_TYPE>
2
5
10

$$$$

