47205787
  -OEChem-06241223003D

 39 39  0     0  0  0  0  0  0999 V2000
    3.7818   -1.6718   -0.6455 S   0  0  0  0  0  0  0  0  0  0  0  0
   -3.2786   -0.5290   -1.3390 O   0  0  0  0  0  0  0  0  0  0  0  0
   -0.5006   -1.1646    1.5369 O   0  0  0  0  0  0  0  0  0  0  0  0
   -2.0921    0.6964    0.2357 N   0  0  0  0  0  0  0  0  0  0  0  0
    0.6001   -1.5535   -0.4727 N   0  0  0  0  0  0  0  0  0  0  0  0
   -4.4914    0.6555    0.3896 C   0  0  0  0  0  0  0  0  0  0  0  0
   -5.7735    0.1159   -0.2379 C   0  0  0  0  0  0  0  0  0  0  0  0
    1.2891   -2.7637   -0.0854 C   0  0  0  0  0  0  0  0  0  0  0  0
   -0.7767    0.4019   -0.2814 C   0  0  0  0  0  0  0  0  0  0  0  0
    2.6601   -2.4999    0.5222 C   0  0  0  0  0  0  0  0  0  0  0  0
   -3.2468    0.1966   -0.3486 C   0  0  0  0  0  0  0  0  0  0  0  0
   -0.2422   -0.8518    0.3775 C   0  0  0  0  0  0  0  0  0  0  0  0
   -7.0069    0.6145    0.4971 C   0  0  0  0  0  0  0  0  0  0  0  0
    3.4434    0.0498   -0.2966 C   0  0  0  0  0  0  0  0  0  0  0  0
    3.6626    0.5584    0.9836 C   0  0  0  0  0  0  0  0  0  0  0  0
    2.9604    0.8837   -1.3050 C   0  0  0  0  0  0  0  0  0  0  0  0
    3.3987    1.9009    1.2556 C   0  0  0  0  0  0  0  0  0  0  0  0
    2.6966    2.2261   -1.0333 C   0  0  0  0  0  0  0  0  0  0  0  0
    2.9158    2.7346    0.2471 C   0  0  0  0  0  0  0  0  0  0  0  0
   -4.5053    1.7520    0.3861 H   0  0  0  0  0  0  0  0  0  0  0  0
   -4.4154    0.3224    1.4316 H   0  0  0  0  0  0  0  0  0  0  0  0
   -5.7623   -0.9805   -0.2263 H   0  0  0  0  0  0  0  0  0  0  0  0
   -5.8328    0.4210   -1.2895 H   0  0  0  0  0  0  0  0  0  0  0  0
    0.6694   -3.3042    0.6390 H   0  0  0  0  0  0  0  0  0  0  0  0
    1.3717   -3.3920   -0.9794 H   0  0  0  0  0  0  0  0  0  0  0  0
   -0.8270    0.2920   -1.3690 H   0  0  0  0  0  0  0  0  0  0  0  0
   -0.1202    1.2393   -0.0310 H   0  0  0  0  0  0  0  0  0  0  0  0
    2.5680   -1.9312    1.4523 H   0  0  0  0  0  0  0  0  0  0  0  0
    3.1181   -3.4600    0.7831 H   0  0  0  0  0  0  0  0  0  0  0  0
   -2.1616    1.2773    1.0664 H   0  0  0  0  0  0  0  0  0  0  0  0
    0.7646   -1.2042   -1.4120 H   0  0  0  0  0  0  0  0  0  0  0  0
   -7.0648    1.7073    0.4699 H   0  0  0  0  0  0  0  0  0  0  0  0
   -7.9131    0.2147    0.0315 H   0  0  0  0  0  0  0  0  0  0  0  0
   -6.9944    0.2965    1.5445 H   0  0  0  0  0  0  0  0  0  0  0  0
    4.0490   -0.0692    1.7827 H   0  0  0  0  0  0  0  0  0  0  0  0
    2.7819    0.5047   -2.3083 H   0  0  0  0  0  0  0  0  0  0  0  0
    3.5713    2.2975    2.2518 H   0  0  0  0  0  0  0  0  0  0  0  0
    2.3193    2.8752   -1.8180 H   0  0  0  0  0  0  0  0  0  0  0  0
    2.7101    3.7798    0.4587 H   0  0  0  0  0  0  0  0  0  0  0  0
  1 10  1  0  0  0  0
  1 14  1  0  0  0  0
  2 11  2  0  0  0  0
  3 12  2  0  0  0  0
  4  9  1  0  0  0  0
  4 11  1  0  0  0  0
  4 30  1  0  0  0  0
  5  8  1  0  0  0  0
  5 12  1  0  0  0  0
  5 31  1  0  0  0  0
  6  7  1  0  0  0  0
  6 11  1  0  0  0  0
  6 20  1  0  0  0  0
  6 21  1  0  0  0  0
  7 13  1  0  0  0  0
  7 22  1  0  0  0  0
  7 23  1  0  0  0  0
  8 10  1  0  0  0  0
  8 24  1  0  0  0  0
  8 25  1  0  0  0  0
  9 12  1  0  0  0  0
  9 26  1  0  0  0  0
  9 27  1  0  0  0  0
 10 28  1  0  0  0  0
 10 29  1  0  0  0  0
 13 32  1  0  0  0  0
 13 33  1  0  0  0  0
 13 34  1  0  0  0  0
 14 15  2  0  0  0  0
 14 16  1  0  0  0  0
 15 17  1  0  0  0  0
 15 35  1  0  0  0  0
 16 18  2  0  0  0  0
 16 36  1  0  0  0  0
 17 19  2  0  0  0  0
 17 37  1  0  0  0  0
 18 19  1  0  0  0  0
 18 38  1  0  0  0  0
 19 39  1  0  0  0  0
M  END
> <PUBCHEM_COMPOUND_CID>
47205787

> <PUBCHEM_CONFORMER_RMSD>
1.2

> <PUBCHEM_CONFORMER_DIVERSEORDER>
1
38
55
2
51
11
36
26
71
3
63
47
14
24
16
27
35
22
34
21
32
10
53
52
8
67
4
19
44
29
49
40
70
72
41
7
64
25
59
45
61
37
65
12
23
20
31
46
66
15
57
73
48
39
18
69
9
43
6
42
33
54
17
56
62
13
5
60
50
30
58
28
68

> <PUBCHEM_MMFF94_PARTIAL_CHARGES>
24
1 -0.33
10 0.23
11 0.57
12 0.57
14 0.1
15 -0.15
16 -0.15
17 -0.15
18 -0.15
19 -0.15
2 -0.57
3 -0.57
30 0.37
31 0.37
35 0.15
36 0.15
37 0.15
38 0.15
39 0.15
4 -0.73
5 -0.73
6 0.06
8 0.3
9 0.36

> <PUBCHEM_EFFECTIVE_ROTOR_COUNT>
10

> <PUBCHEM_PHARMACOPHORE_FEATURES>
6
1 13 hydrophobe
1 2 acceptor
1 3 acceptor
1 4 donor
1 5 donor
6 14 15 16 17 18 19 rings

> <PUBCHEM_HEAVY_ATOM_COUNT>
19

> <PUBCHEM_ATOM_DEF_STEREO_COUNT>
0

> <PUBCHEM_ATOM_UDEF_STEREO_COUNT>
0

> <PUBCHEM_BOND_DEF_STEREO_COUNT>
0

> <PUBCHEM_BOND_UDEF_STEREO_COUNT>
0

> <PUBCHEM_ISOTOPIC_ATOM_COUNT>
0

> <PUBCHEM_COMPONENT_COUNT>
1

> <PUBCHEM_CACTVS_TAUTO_COUNT>
4

> <PUBCHEM_CONFORMER_ID>
02D04D9B00000001

> <PUBCHEM_MMFF94_ENERGY>
28.7985

> <PUBCHEM_FEATURE_SELFOVERLAP>
30.446

> <PUBCHEM_SHAPE_FINGERPRINT>
12616971 3 18114472235864854343
13533116 47 18409444812896429301
13955234 65 18410858801840111131
14170010 4 18408324410880035042
14251764 75 18053658079802357100
14366163 111 17095241402209044033
15664445 248 4750868273709037490
17349148 13 13542467570735510099
17834072 33 18334015004291193535
17844677 252 18337667641969203145
18186145 218 18342181072038138710
23557571 272 14707482655001651146
23559900 14 17845923091584825567
3060560 45 18261671567057925622
42630746 31 18409732863272774399
4340502 62 18202278096640839219
43658 37 18336266730425679544
474 4 18413386514436445877
49207404 50 18129370519214952186
495365 180 18409169879086273880
633830 44 18261112920112770997
960060 61 6266902393771525177

> <PUBCHEM_SHAPE_MULTIPOLES>
373.16
12.3
2.78
1.17
26.68
0.4
0.03
-3.58
0.49
-4.48
0.16
-0.63
-0.18
0.01

> <PUBCHEM_SHAPE_SELFOVERLAP>
728.273

> <PUBCHEM_SHAPE_VOLUME>
224.6

> <PUBCHEM_COORDINATE_TYPE>
2
5
10

$$$$

