10082
  -OEChem-06261204183D

 38 38  0     1  0  0  0  0  0999 V2000
   -1.6294   -3.8389    0.1174 S   0  0  0  0  0  0  0  0  0  0  0  0
    4.3291    1.0624   -0.8701 S   0  0  0  0  0  0  0  0  0  0  0  0
    1.1827   -0.9753    2.2775 O   0  0  0  0  0  0  0  0  0  0  0  0
   -0.2411   -0.2327   -2.1200 O   0  0  0  0  0  0  0  0  0  0  0  0
    2.5395   -0.0047    0.7030 N   0  0  0  0  0  0  0  0  0  0  0  0
    1.8068    0.5395   -1.4834 N   0  0  0  0  0  0  0  0  0  0  0  0
    0.1489   -0.1122    0.2558 C   0  0  2  0  0  0  0  0  0  0  0  0
   -0.4391    1.2279    0.7001 C   0  0  1  0  0  0  0  0  0  0  0  0
   -0.9147   -1.2118    0.3967 C   0  0  0  0  0  0  0  0  0  0  0  0
   -1.6789    1.6289   -0.1204 C   0  0  0  0  0  0  0  0  0  0  0  0
   -0.8026    1.1649    2.1858 C   0  0  0  0  0  0  0  0  0  0  0  0
    1.3193   -0.4385    1.1796 C   0  0  0  0  0  0  0  0  0  0  0  0
    0.5536    0.0311   -1.2185 C   0  0  0  0  0  0  0  0  0  0  0  0
   -2.2466    2.9980    0.2620 C   0  0  0  0  0  0  0  0  0  0  0  0
   -0.3605   -2.5523   -0.0556 C   0  0  0  0  0  0  0  0  0  0  0  0
   -3.4236    3.3771   -0.6242 C   0  0  0  0  0  0  0  0  0  0  0  0
    2.7114    0.4906   -0.5649 C   0  0  0  0  0  0  0  0  0  0  0  0
   -2.8551   -3.1539   -1.0207 C   0  0  0  0  0  0  0  0  0  0  0  0
    0.3151    2.0182    0.5792 H   0  0  0  0  0  0  0  0  0  0  0  0
   -1.7857   -0.9683   -0.2130 H   0  0  0  0  0  0  0  0  0  0  0  0
   -1.2587   -1.3179    1.4313 H   0  0  0  0  0  0  0  0  0  0  0  0
   -2.4914    0.9059    0.0041 H   0  0  0  0  0  0  0  0  0  0  0  0
   -1.4380    1.6683   -1.1869 H   0  0  0  0  0  0  0  0  0  0  0  0
   -1.1209    2.1527    2.5374 H   0  0  0  0  0  0  0  0  0  0  0  0
    0.0393    0.9318    2.8396 H   0  0  0  0  0  0  0  0  0  0  0  0
   -1.6302    0.4852    2.4052 H   0  0  0  0  0  0  0  0  0  0  0  0
   -1.4673    3.7637    0.1761 H   0  0  0  0  0  0  0  0  0  0  0  0
   -2.6016    3.0015    1.2970 H   0  0  0  0  0  0  0  0  0  0  0  0
   -0.0226   -2.5510   -1.0953 H   0  0  0  0  0  0  0  0  0  0  0  0
    0.4883   -2.8664    0.5584 H   0  0  0  0  0  0  0  0  0  0  0  0
    3.3514   -0.0843    1.3076 H   0  0  0  0  0  0  0  0  0  0  0  0
   -3.1225    3.4311   -1.6753 H   0  0  0  0  0  0  0  0  0  0  0  0
   -4.2340    2.6464   -0.5356 H   0  0  0  0  0  0  0  0  0  0  0  0
   -3.8164    4.3566   -0.3338 H   0  0  0  0  0  0  0  0  0  0  0  0
   -3.4338   -2.3597   -0.5429 H   0  0  0  0  0  0  0  0  0  0  0  0
   -3.5544   -3.9482   -1.2976 H   0  0  0  0  0  0  0  0  0  0  0  0
   -2.3858   -2.7836   -1.9360 H   0  0  0  0  0  0  0  0  0  0  0  0
    4.1310    1.4445   -2.1402 H   0  0  0  0  0  0  0  0  0  0  0  0
  1 15  1  0  0  0  0
  1 18  1  0  0  0  0
  2 17  1  0  0  0  0
  2 38  1  0  0  0  0
  3 12  2  0  0  0  0
  4 13  2  0  0  0  0
  5 12  1  0  0  0  0
  5 17  1  0  0  0  0
  5 31  1  0  0  0  0
  6 13  1  0  0  0  0
  6 17  2  0  0  0  0
  7  8  1  0  0  0  0
  7  9  1  0  0  0  0
  7 12  1  0  0  0  0
  7 13  1  0  0  0  0
  8 10  1  0  0  0  0
  8 11  1  0  0  0  0
  8 19  1  0  0  0  0
  9 15  1  0  0  0  0
  9 20  1  0  0  0  0
  9 21  1  0  0  0  0
 10 14  1  0  0  0  0
 10 22  1  0  0  0  0
 10 23  1  0  0  0  0
 11 24  1  0  0  0  0
 11 25  1  0  0  0  0
 11 26  1  0  0  0  0
 14 16  1  0  0  0  0
 14 27  1  0  0  0  0
 14 28  1  0  0  0  0
 15 29  1  0  0  0  0
 15 30  1  0  0  0  0
 16 32  1  0  0  0  0
 16 33  1  0  0  0  0
 16 34  1  0  0  0  0
 18 35  1  0  0  0  0
 18 36  1  0  0  0  0
 18 37  1  0  0  0  0
M  END
> <PUBCHEM_COMPOUND_CID>
10082

> <PUBCHEM_CONFORMER_RMSD>
0.8

> <PUBCHEM_CONFORMER_DIVERSEORDER>
2
19
7
11
1
22
21
8
18
15
20
16
17
4
23
6
13
14
10
9
12
5
3

> <PUBCHEM_MMFF94_PARTIAL_CHARGES>
14
1 -0.46
12 0.57
13 0.72
15 0.23
17 0.65
18 0.23
2 -0.32
3 -0.57
31 0.37
38 0.18
4 -0.57
5 -0.49
6 -0.66
7 0.12

> <PUBCHEM_EFFECTIVE_ROTOR_COUNT>
6.4

> <PUBCHEM_PHARMACOPHORE_FEATURES>
8
1 11 hydrophobe
1 16 hydrophobe
1 18 hydrophobe
1 3 acceptor
1 4 acceptor
1 5 donor
1 6 donor
6 5 6 7 12 13 17 rings

> <PUBCHEM_HEAVY_ATOM_COUNT>
18

> <PUBCHEM_ATOM_DEF_STEREO_COUNT>
0

> <PUBCHEM_ATOM_UDEF_STEREO_COUNT>
2

> <PUBCHEM_BOND_DEF_STEREO_COUNT>
0

> <PUBCHEM_BOND_UDEF_STEREO_COUNT>
0

> <PUBCHEM_ISOTOPIC_ATOM_COUNT>
0

> <PUBCHEM_COMPONENT_COUNT>
1

> <PUBCHEM_CACTVS_TAUTO_COUNT>
5

> <PUBCHEM_CONFORMER_ID>
0000276200000002

> <PUBCHEM_MMFF94_ENERGY>
48.5604

> <PUBCHEM_FEATURE_SELFOVERLAP>
40.631

> <PUBCHEM_SHAPE_FINGERPRINT>
10756046 70 17843415217610716218
11833330 49 18196091027871611156
12138202 97 18261379088031669276
12423570 1 14932174251227766594
12788726 201 18341337669284089470
13134695 92 17617658752588455207
13681431 1 17180502812004004591
14004458 79 18194100950659104903
14142880 1 17845934031325627060
14617773 55 18131076978762791930
14817 1 12300995758412760722
15906896 17 18130207294813481258
16945 1 18339360756146208736
20233049 118 18054524503844720303
20600515 1 17612002911898535158
20671657 53 17614829730539690990
21524375 3 18058716031026972532
22112679 90 17762862542905972939
2255824 54 17543630185431661061
23419403 2 17096650889889459704
3060560 45 17837208547127441150
5845 1 14117217490971565955
7364860 26 17547284966192960253
81228 2 17974256903330852466

> <PUBCHEM_SHAPE_MULTIPOLES>
356.43
4.84
4.28
1.76
4.21
2.41
0.48
-1.22
-2.05
-7.03
-0.45
0.31
-0.01
-0.33

> <PUBCHEM_SHAPE_SELFOVERLAP>
696.699

> <PUBCHEM_SHAPE_VOLUME>
218.7

> <PUBCHEM_COORDINATE_TYPE>
2
5
10

$$$$

