14392
  -OEChem-06241222432D

 44 45  0     0  0  0  0  0  0999 V2000
    2.0550    3.1444    0.0000 Cl  0  0  0  0  0  0  0  0  0  0  0  0
    3.2204    9.2328    0.0000 Cl  0  5  0  0  0  0  0  0  0  0  0  0
    3.9748    6.5936    0.0000 S   0  0  0  0  0  0  0  0  0  0  0  0
    5.2068    1.4030    0.0000 N   0  3  0  0  0  0  0  0  0  0  0  0
    4.3407    1.9030    0.0000 C   0  0  0  0  0  0  0  0  0  0  0  0
    4.3408    2.9030    0.0000 C   0  0  0  0  0  0  0  0  0  0  0  0
    3.4747    4.4030    0.0000 C   0  0  0  0  0  0  0  0  0  0  0  0
    3.4747    3.4030    0.0000 C   0  0  0  0  0  0  0  0  0  0  0  0
    2.5738    4.8369    0.0000 C   0  0  0  0  0  0  0  0  0  0  0  0
    4.3757    4.8368    0.0000 C   0  0  0  0  0  0  0  0  0  0  0  0
    2.3513    5.8118    0.0000 C   0  0  0  0  0  0  0  0  0  0  0  0
    6.0728    0.9029    0.0000 C   0  0  0  0  0  0  0  0  0  0  0  0
    4.7068    0.5369    0.0000 C   0  0  0  0  0  0  0  0  0  0  0  0
    2.9748    6.5936    0.0000 C   0  0  0  0  0  0  0  0  0  0  0  0
    4.5982    5.8118    0.0000 C   0  0  0  0  0  0  0  0  0  0  0  0
    1.8212    4.1167    0.0000 C   0  0  0  0  0  0  0  0  0  0  0  0
    5.1283    4.1167    0.0000 C   0  0  0  0  0  0  0  0  0  0  0  0
    1.3608    6.1341    0.0000 C   0  0  0  0  0  0  0  0  0  0  0  0
    5.5887    6.1341    0.0000 C   0  0  0  0  0  0  0  0  0  0  0  0
    0.8235    4.4160    0.0000 C   0  0  0  0  0  0  0  0  0  0  0  0
    0.5917    5.4316    0.0000 C   0  0  0  0  0  0  0  0  0  0  0  0
    6.1260    4.4160    0.0000 C   0  0  0  0  0  0  0  0  0  0  0  0
    6.3577    5.4315    0.0000 C   0  0  0  0  0  0  0  0  0  0  0  0
    4.1287    1.3204    0.0000 H   0  0  0  0  0  0  0  0  0  0  0  0
    3.7302    2.0106    0.0000 H   0  0  0  0  0  0  0  0  0  0  0  0
    5.5168    1.9399    0.0000 H   0  0  0  0  0  0  0  0  0  0  0  0
    4.5528    3.4856    0.0000 H   0  0  0  0  0  0  0  0  0  0  0  0
    4.9513    2.7953    0.0000 H   0  0  0  0  0  0  0  0  0  0  0  0
    2.9378    3.0930    0.0000 H   0  0  0  0  0  0  0  0  0  0  0  0
    5.7628    0.3660    0.0000 H   0  0  0  0  0  0  0  0  0  0  0  0
    6.3828    1.4399    0.0000 H   0  0  0  0  0  0  0  0  0  0  0  0
    6.6097    0.5929    0.0000 H   0  0  0  0  0  0  0  0  0  0  0  0
    5.2437    0.2269    0.0000 H   0  0  0  0  0  0  0  0  0  0  0  0
    4.3968    0.0000    0.0000 H   0  0  0  0  0  0  0  0  0  0  0  0
    4.1698    0.8469    0.0000 H   0  0  0  0  0  0  0  0  0  0  0  0
    3.1127    7.1981    0.0000 H   0  0  0  0  0  0  0  0  0  0  0  0
    2.4162    6.8626    0.0000 H   0  0  0  0  0  0  0  0  0  0  0  0
    4.9833    3.5138    0.0000 H   0  0  0  0  0  0  0  0  0  0  0  0
    1.2298    6.7401    0.0000 H   0  0  0  0  0  0  0  0  0  0  0  0
    5.7197    6.7401    0.0000 H   0  0  0  0  0  0  0  0  0  0  0  0
    0.3707    3.9926    0.0000 H   0  0  0  0  0  0  0  0  0  0  0  0
    0.0000    5.6166    0.0000 H   0  0  0  0  0  0  0  0  0  0  0  0
    6.5788    3.9925    0.0000 H   0  0  0  0  0  0  0  0  0  0  0  0
    6.9495    5.6165    0.0000 H   0  0  0  0  0  0  0  0  0  0  0  0
  1 16  1  0  0  0  0
  3 14  1  0  0  0  0
  3 15  1  0  0  0  0
  4  5  1  0  0  0  0
  4 12  1  0  0  0  0
  4 13  1  0  0  0  0
  4 26  1  0  0  0  0
  5  6  1  0  0  0  0
  5 24  1  0  0  0  0
  5 25  1  0  0  0  0
  6  8  1  0  0  0  0
  6 27  1  0  0  0  0
  6 28  1  0  0  0  0
  7  8  2  3  0  0  0
  7  9  1  0  0  0  0
  7 10  1  0  0  0  0
  8 29  1  0  0  0  0
  9 11  2  0  0  0  0
  9 16  1  0  0  0  0
 10 15  1  0  0  0  0
 10 17  2  0  0  0  0
 11 14  1  0  0  0  0
 11 18  1  0  0  0  0
 12 30  1  0  0  0  0
 12 31  1  0  0  0  0
 12 32  1  0  0  0  0
 13 33  1  0  0  0  0
 13 34  1  0  0  0  0
 13 35  1  0  0  0  0
 14 36  1  0  0  0  0
 14 37  1  0  0  0  0
 15 19  2  0  0  0  0
 16 20  2  0  0  0  0
 17 22  1  0  0  0  0
 17 38  1  0  0  0  0
 18 21  2  0  0  0  0
 18 39  1  0  0  0  0
 19 23  1  0  0  0  0
 19 40  1  0  0  0  0
 20 21  1  0  0  0  0
 20 41  1  0  0  0  0
 21 42  1  0  0  0  0
 22 23  2  0  0  0  0
 22 43  1  0  0  0  0
 23 44  1  0  0  0  0
M  CHG  2   2  -1   4   1
M  END
> <PUBCHEM_COMPOUND_CID>
14392

> <PUBCHEM_COMPOUND_CANONICALIZED>
1

> <PUBCHEM_CACTVS_COMPLEXITY>
395

> <PUBCHEM_CACTVS_HBOND_ACCEPTOR>
2

> <PUBCHEM_CACTVS_HBOND_DONOR>
1

> <PUBCHEM_CACTVS_ROTATABLE_BOND>
3

> <PUBCHEM_CACTVS_SUBSKEYS>
AAADceB6AABGAAAAAAAAAAAAAAAAAAAAAAAwYAAABIAAAAABQAAAHAYQAAAADALFWCSyAYPAAAiAAiBCAAACAAAgDRAIiJgIAogIICKhExCEIAAgkAAoiAcAgMAOgAAAIAAVAAAAAABAACoAAAAAAAAAAA==

> <PUBCHEM_IUPAC_OPENEYE_NAME>
3-(10-chloro-6H-benzo[c][1]benzothiepin-11-ylidene)propyl-dimethyl-ammonium chloride

> <PUBCHEM_IUPAC_CAS_NAME>
3-(10-chloro-6H-benzo[c][1]benzothiepin-11-ylidene)propyl-dimethylammonium chloride

> <PUBCHEM_IUPAC_NAME>
3-(10-chloro-6H-benzo[c][1]benzothiepin-11-ylidene)propyl-dimethylazanium chloride

> <PUBCHEM_IUPAC_SYSTEMATIC_NAME>
3-(10-chloranyl-6H-benzo[c][1]benzothiepin-11-ylidene)propyl-dimethyl-azanium chloride

> <PUBCHEM_IUPAC_TRADITIONAL_NAME>
3-(10-chloro-6H-benzo[c][1]benzothiepin-11-ylidene)propyl-dimethyl-ammonium chloride

> <PUBCHEM_IUPAC_INCHI>
InChI=1S/C19H20ClNS.ClH/c1-21(2)12-6-9-16-15-8-3-4-11-18(15)22-13-14-7-5-10-17(20)19(14)16;/h3-5,7-11H,6,12-13H2,1-2H3;1H

> <PUBCHEM_IUPAC_INCHIKEY>
PHRHIKLLZWNOJG-UHFFFAOYSA-N

> <PUBCHEM_EXACT_MASS>
365.077176

> <PUBCHEM_MOLECULAR_FORMULA>
C19H21Cl2NS

> <PUBCHEM_MOLECULAR_WEIGHT>
366.34774

> <PUBCHEM_OPENEYE_CAN_SMILES>
C[NH+](C)CCC=C1C2=CC=CC=C2SCC3=C1C(=CC=C3)Cl.[Cl-]

> <PUBCHEM_OPENEYE_ISO_SMILES>
C[NH+](C)CCC=C1C2=CC=CC=C2SCC3=C1C(=CC=C3)Cl.[Cl-]

> <PUBCHEM_CACTVS_TPSA>
29.7

> <PUBCHEM_MONOISOTOPIC_WEIGHT>
365.077176

> <PUBCHEM_TOTAL_CHARGE>
0

> <PUBCHEM_HEAVY_ATOM_COUNT>
23

> <PUBCHEM_ATOM_DEF_STEREO_COUNT>
0

> <PUBCHEM_ATOM_UDEF_STEREO_COUNT>
0

> <PUBCHEM_BOND_DEF_STEREO_COUNT>
0

> <PUBCHEM_BOND_UDEF_STEREO_COUNT>
1

> <PUBCHEM_ISOTOPIC_ATOM_COUNT>
0

> <PUBCHEM_COMPONENT_COUNT>
2

> <PUBCHEM_CACTVS_TAUTO_COUNT>
1

> <PUBCHEM_COORDINATE_TYPE>
1
5
255

> <PUBCHEM_BONDANNOTATIONS>
10  15  8
10  17  8
11  18  8
15  19  8
16  20  8
17  22  8
18  21  8
19  23  8
20  21  8
22  23  8
7  8  1
9  11  8
9  16  8

$$$$

