4278
  -OEChem-06261200003D

 24 23  0     0  0  0  0  0  0999 V2000
   -1.5986    1.7199   -0.0018 O   0  0  0  0  0  0  0  0  0  0  0  0
    1.5953   -1.7144   -0.0034 O   0  0  0  0  0  0  0  0  0  0  0  0
   -2.8780   -0.1997   -0.0001 N   0  0  0  0  0  0  0  0  0  0  0  0
    2.8752    0.2050    0.0012 N   0  0  0  0  0  0  0  0  0  0  0  0
   -0.5308   -0.3272    0.0025 N   0  0  0  0  0  0  0  0  0  0  0  0
    0.5278    0.3328    0.0031 N   0  0  0  0  0  0  0  0  0  0  0  0
   -4.1585    0.5024   -0.0039 C   0  0  0  0  0  0  0  0  0  0  0  0
   -2.9512   -1.6548    0.0029 C   0  0  0  0  0  0  0  0  0  0  0  0
    4.1329   -0.5306   -0.0030 C   0  0  0  0  0  0  0  0  0  0  0  0
    2.9889    1.6609    0.0011 C   0  0  0  0  0  0  0  0  0  0  0  0
   -1.6495    0.4868    0.0007 C   0  0  0  0  0  0  0  0  0  0  0  0
    1.6464   -0.4812    0.0006 C   0  0  0  0  0  0  0  0  0  0  0  0
   -4.7164    0.2120   -0.8986 H   0  0  0  0  0  0  0  0  0  0  0  0
   -4.0175    1.5859   -0.0062 H   0  0  0  0  0  0  0  0  0  0  0  0
   -4.7194    0.2162    0.8903 H   0  0  0  0  0  0  0  0  0  0  0  0
   -1.9729   -2.1385    0.0074 H   0  0  0  0  0  0  0  0  0  0  0  0
   -3.4951   -1.9769   -0.8902 H   0  0  0  0  0  0  0  0  0  0  0  0
   -3.5012   -1.9730    0.8938 H   0  0  0  0  0  0  0  0  0  0  0  0
    4.7046   -0.2546    0.8878 H   0  0  0  0  0  0  0  0  0  0  0  0
    4.6969   -0.2571   -0.8994 H   0  0  0  0  0  0  0  0  0  0  0  0
    3.9728   -1.6114   -0.0008 H   0  0  0  0  0  0  0  0  0  0  0  0
    3.5367    1.9674   -0.8949 H   0  0  0  0  0  0  0  0  0  0  0  0
    3.5468    1.9670    0.8910 H   0  0  0  0  0  0  0  0  0  0  0  0
    2.0175    2.1587    0.0068 H   0  0  0  0  0  0  0  0  0  0  0  0
  1 11  2  0  0  0  0
  2 12  2  0  0  0  0
  3  7  1  0  0  0  0
  3  8  1  0  0  0  0
  3 11  1  0  0  0  0
  4  9  1  0  0  0  0
  4 10  1  0  0  0  0
  4 12  1  0  0  0  0
  5  6  2  0  0  0  0
  5 11  1  0  0  0  0
  6 12  1  0  0  0  0
  7 13  1  0  0  0  0
  7 14  1  0  0  0  0
  7 15  1  0  0  0  0
  8 16  1  0  0  0  0
  8 17  1  0  0  0  0
  8 18  1  0  0  0  0
  9 19  1  0  0  0  0
  9 20  1  0  0  0  0
  9 21  1  0  0  0  0
 10 22  1  0  0  0  0
 10 23  1  0  0  0  0
 10 24  1  0  0  0  0
M  END
> <PUBCHEM_COMPOUND_CID>
4278

> <PUBCHEM_CONFORMER_RMSD>
0.6

> <PUBCHEM_CONFORMER_DIVERSEORDER>
1
11
10
6
3
2
7
9
8
5
4

> <PUBCHEM_MMFF94_PARTIAL_CHARGES>
12
1 -0.57
10 0.3
11 0.84
12 0.84
2 -0.57
3 -0.66
4 -0.66
5 -0.21
6 -0.21
7 0.3
8 0.3
9 0.3

> <PUBCHEM_EFFECTIVE_ROTOR_COUNT>
4

> <PUBCHEM_PHARMACOPHORE_FEATURES>
4
1 1 acceptor
1 2 acceptor
1 5 donor
1 6 donor

> <PUBCHEM_HEAVY_ATOM_COUNT>
12

> <PUBCHEM_ATOM_DEF_STEREO_COUNT>
0

> <PUBCHEM_ATOM_UDEF_STEREO_COUNT>
0

> <PUBCHEM_BOND_DEF_STEREO_COUNT>
0

> <PUBCHEM_BOND_UDEF_STEREO_COUNT>
1

> <PUBCHEM_ISOTOPIC_ATOM_COUNT>
0

> <PUBCHEM_COMPONENT_COUNT>
1

> <PUBCHEM_CACTVS_TAUTO_COUNT>
1

> <PUBCHEM_CONFORMER_ID>
000010B600000001

> <PUBCHEM_MMFF94_ENERGY>
21.1724

> <PUBCHEM_FEATURE_SELFOVERLAP>
22.438

> <PUBCHEM_SHAPE_FINGERPRINT>
10608611 8 18411704300295658844
11062470 55 17561365088786022229
11132069 177 18410580547914370064
12897270 3 18410856555344828781
12932764 1 17632587070902932962
14325111 11 18410855425958366464
14445660 50 18261100873182958769
18186145 218 17917437505408713126
190213 19 17313099748227031546
19050596 39 18411419505345761986
20201158 50 18410574002468704347
20279233 1 18408599279806829711
20528008 55 18409735058201483693
20645477 56 18059579143807968813
20645477 70 18264774427251908439
22959321 4 18340487764101970066
23402539 116 18343310257647736078
23402655 69 18410576210029160108
25610 137 18338513036960544305
3248919 1 17603861238842793815
3312278 4 18410291402537557851

> <PUBCHEM_SHAPE_MULTIPOLES>
215.29
7.65
1.61
0.57
0.04
0.01
0
0.02
0.01
-0.02
0
0
0
0

> <PUBCHEM_SHAPE_SELFOVERLAP>
409.6

> <PUBCHEM_SHAPE_VOLUME>
133.7

> <PUBCHEM_COORDINATE_TYPE>
2
5
10

$$$$

