17396030
  -OEChem-06241222543D

 56 60  0     0  0  0  0  0  0999 V2000
    3.9151   -0.2121   -2.5933 O   0  0  0  0  0  0  0  0  0  0  0  0
    4.5520   -2.3295   -1.6350 O   0  0  0  0  0  0  0  0  0  0  0  0
   -1.8426    3.9399    0.2193 O   0  0  0  0  0  0  0  0  0  0  0  0
    1.3643    3.3258    0.4622 O   0  0  0  0  0  0  0  0  0  0  0  0
   -1.1176    1.9313    1.1237 N   0  0  0  0  0  0  0  0  0  0  0  0
   -1.1711    0.5702    1.1664 N   0  0  0  0  0  0  0  0  0  0  0  0
    2.1137    2.0026    2.2198 N   0  0  0  0  0  0  0  0  0  0  0  0
   -1.9402   -0.0689    0.3417 C   0  0  0  0  0  0  0  0  0  0  0  0
   -2.7606    0.6021   -0.6844 C   0  0  0  0  0  0  0  0  0  0  0  0
   -1.9673   -1.5394    0.4727 C   0  0  0  0  0  0  0  0  0  0  0  0
   -2.7201    1.9924   -0.7127 C   0  0  0  0  0  0  0  0  0  0  0  0
   -1.8627    2.7112    0.2465 C   0  0  0  0  0  0  0  0  0  0  0  0
   -0.2236    2.5311    2.1004 C   0  0  0  0  0  0  0  0  0  0  0  0
   -1.0759   -2.3428   -0.2384 C   0  0  0  0  0  0  0  0  0  0  0  0
   -2.9024   -2.1228    1.3275 C   0  0  0  0  0  0  0  0  0  0  0  0
   -3.5389   -0.0897   -1.6194 C   0  0  0  0  0  0  0  0  0  0  0  0
    3.5066    1.9445    1.8384 C   0  0  0  0  0  0  0  0  0  0  0  0
   -3.4735    2.7006   -1.6563 C   0  0  0  0  0  0  0  0  0  0  0  0
   -2.9461   -3.5096    1.4715 C   0  0  0  0  0  0  0  0  0  0  0  0
    3.7943    0.7784    0.9376 C   0  0  0  0  0  0  0  0  0  0  0  0
    1.1540    2.6933    1.4940 C   0  0  0  0  0  0  0  0  0  0  0  0
   -1.1197   -3.7296   -0.0946 C   0  0  0  0  0  0  0  0  0  0  0  0
   -2.0547   -4.3129    0.7602 C   0  0  0  0  0  0  0  0  0  0  0  0
   -4.2893    0.6169   -2.5608 C   0  0  0  0  0  0  0  0  0  0  0  0
   -0.0641   -1.7437   -1.1600 C   0  0  0  0  0  0  0  0  0  0  0  0
    3.9649   -0.1702   -1.2339 C   0  0  0  0  0  0  0  0  0  0  0  0
   -4.2599    2.0095   -2.5771 C   0  0  0  0  0  0  0  0  0  0  0  0
    3.6908    0.9298   -0.4473 C   0  0  0  0  0  0  0  0  0  0  0  0
    4.3285   -1.3793   -0.6868 C   0  0  0  0  0  0  0  0  0  0  0  0
    4.1657   -0.4571    1.4966 C   0  0  0  0  0  0  0  0  0  0  0  0
    4.4380   -1.5553    0.6773 C   0  0  0  0  0  0  0  0  0  0  0  0
   -3.9464   -4.1339    2.3846 C   0  0  0  0  0  0  0  0  0  0  0  0
    4.2888   -1.5830   -2.8404 C   0  0  0  0  0  0  0  0  0  0  0  0
   -0.5851    3.5289    2.3723 H   0  0  0  0  0  0  0  0  0  0  0  0
   -0.2176    1.9186    3.0081 H   0  0  0  0  0  0  0  0  0  0  0  0
   -3.5961   -1.4963    1.8839 H   0  0  0  0  0  0  0  0  0  0  0  0
   -3.5854   -1.1743   -1.6349 H   0  0  0  0  0  0  0  0  0  0  0  0
    4.0979    1.8757    2.7585 H   0  0  0  0  0  0  0  0  0  0  0  0
    3.7890    2.8837    1.3481 H   0  0  0  0  0  0  0  0  0  0  0  0
   -3.4575    3.7863   -1.6939 H   0  0  0  0  0  0  0  0  0  0  0  0
   -0.4326   -4.3702   -0.6412 H   0  0  0  0  0  0  0  0  0  0  0  0
    1.8392    1.4857    3.0498 H   0  0  0  0  0  0  0  0  0  0  0  0
   -2.0776   -5.3944    0.8648 H   0  0  0  0  0  0  0  0  0  0  0  0
   -4.8976    0.0792   -3.2824 H   0  0  0  0  0  0  0  0  0  0  0  0
    0.5660   -1.0229   -0.6285 H   0  0  0  0  0  0  0  0  0  0  0  0
   -0.5557   -1.2451   -2.0013 H   0  0  0  0  0  0  0  0  0  0  0  0
    0.6055   -2.5040   -1.5775 H   0  0  0  0  0  0  0  0  0  0  0  0
    3.4076    1.8755   -0.8963 H   0  0  0  0  0  0  0  0  0  0  0  0
   -4.8445    2.5567   -3.3109 H   0  0  0  0  0  0  0  0  0  0  0  0
    4.2427   -0.5703    2.5752 H   0  0  0  0  0  0  0  0  0  0  0  0
    4.7236   -2.5098    1.1044 H   0  0  0  0  0  0  0  0  0  0  0  0
   -4.8721   -3.5490    2.4135 H   0  0  0  0  0  0  0  0  0  0  0  0
   -4.2149   -5.1414    2.0493 H   0  0  0  0  0  0  0  0  0  0  0  0
   -3.5398   -4.1992    3.3986 H   0  0  0  0  0  0  0  0  0  0  0  0
    5.1900   -1.5942   -3.4643 H   0  0  0  0  0  0  0  0  0  0  0  0
    3.4759   -2.0748   -3.3870 H   0  0  0  0  0  0  0  0  0  0  0  0
  1 26  1  0  0  0  0
  1 33  1  0  0  0  0
  2 29  1  0  0  0  0
  2 33  1  0  0  0  0
  3 12  2  0  0  0  0
  4 21  2  0  0  0  0
  5  6  1  0  0  0  0
  5 12  1  0  0  0  0
  5 13  1  0  0  0  0
  6  8  2  0  0  0  0
  7 17  1  0  0  0  0
  7 21  1  0  0  0  0
  7 42  1  0  0  0  0
  8  9  1  0  0  0  0
  8 10  1  0  0  0  0
  9 11  1  0  0  0  0
  9 16  2  0  0  0  0
 10 14  2  0  0  0  0
 10 15  1  0  0  0  0
 11 12  1  0  0  0  0
 11 18  2  0  0  0  0
 13 21  1  0  0  0  0
 13 34  1  0  0  0  0
 13 35  1  0  0  0  0
 14 22  1  0  0  0  0
 14 25  1  0  0  0  0
 15 19  2  0  0  0  0
 15 36  1  0  0  0  0
 16 24  1  0  0  0  0
 16 37  1  0  0  0  0
 17 20  1  0  0  0  0
 17 38  1  0  0  0  0
 17 39  1  0  0  0  0
 18 27  1  0  0  0  0
 18 40  1  0  0  0  0
 19 23  1  0  0  0  0
 19 32  1  0  0  0  0
 20 28  2  0  0  0  0
 20 30  1  0  0  0  0
 22 23  2  0  0  0  0
 22 41  1  0  0  0  0
 23 43  1  0  0  0  0
 24 27  2  0  0  0  0
 24 44  1  0  0  0  0
 25 45  1  0  0  0  0
 25 46  1  0  0  0  0
 25 47  1  0  0  0  0
 26 28  1  0  0  0  0
 26 29  2  0  0  0  0
 27 49  1  0  0  0  0
 28 48  1  0  0  0  0
 29 31  1  0  0  0  0
 30 31  2  0  0  0  0
 30 50  1  0  0  0  0
 31 51  1  0  0  0  0
 32 52  1  0  0  0  0
 32 53  1  0  0  0  0
 32 54  1  0  0  0  0
 33 55  1  0  0  0  0
 33 56  1  0  0  0  0
M  END
> <PUBCHEM_COMPOUND_CID>
17396030

> <PUBCHEM_CONFORMER_RMSD>
1

> <PUBCHEM_CONFORMER_DIVERSEORDER>
2
231
49
216
161
70
261
295
167
262
194
207
221
92
293
149
275
112
114
279
248
182
21
20
120
264
203
202
244
305
232
185
64
15
276
226
200
145
54
289
238
243
259
14
6
71
133
155
223
201
265
197
156
51
102
144
250
177
59
157
104
186
13
109
143
127
234
249
287
179
50
291
159
253
129
220
83
42
224
205
304
274
94
96
151
206
150
252
237
228
246
195
28
126
208
193
298
219
258
255
116
16
33
280
170
55
271
68
146
215
190
82
173
165
115
290
118
308
178
302
214
39
93
152
34
12
196
107
294
233
74
260
130
48
79
73
18
218
169
254
160
235
181
285
11
125
139
22
270
137
230
57
257
245
72
158
138
263
35
25
17
135
188
174
191
77
27
278
199
103
61
273
310
153
198
140
307
225
247
272
171
241
154
36
269
192
8
217
91
60
229
32
43
288
311
172
95
300
266
136
69
63
80
86
90
180
309
163
117
183
240
184
175
52
211
148
132
110
44
98
210
66
267
281
236
134
40
41
187
29
84
312
85
166
78
296
189
164
204
19
24
256
62
299
111
58
75
101
87
306
168
100
147
88
97
10
3
38
284
9
26
76
46
65
23
162
53
30
106
292
89
142
268
5
128
56
67
7
119
286
113
283
242
251
122
123
1
99
282
303
131
31
37
124
222
121
297
4
47
301
176
209
239
141
212
277
81
213
105
108
45
227

> <PUBCHEM_MMFF94_PARTIAL_CHARGES>
44
1 -0.36
10 0.09
11 0.09
12 0.54
13 0.36
14 -0.14
15 -0.15
16 -0.15
17 0.44
18 -0.15
19 -0.14
2 -0.36
20 -0.14
21 0.57
22 -0.15
23 -0.15
24 -0.15
25 0.14
26 0.08
27 -0.15
28 -0.15
29 0.08
3 -0.57
30 -0.15
31 -0.15
32 0.14
33 0.56
36 0.15
37 0.15
4 -0.57
40 0.15
41 0.15
42 0.37
43 0.15
44 0.15
48 0.15
49 0.15
5 -0.3
50 0.15
51 0.15
6 -0.51
7 -0.73
8 0.28
9 0.09

> <PUBCHEM_EFFECTIVE_ROTOR_COUNT>
6.6

> <PUBCHEM_PHARMACOPHORE_FEATURES>
11
1 1 acceptor
1 2 acceptor
1 3 acceptor
1 4 acceptor
1 6 acceptor
1 7 donor
5 1 2 26 29 33 rings
6 10 14 15 19 22 23 rings
6 20 26 28 29 30 31 rings
6 5 6 8 9 11 12 rings
6 9 11 16 18 24 27 rings

> <PUBCHEM_HEAVY_ATOM_COUNT>
33

> <PUBCHEM_ATOM_DEF_STEREO_COUNT>
0

> <PUBCHEM_ATOM_UDEF_STEREO_COUNT>
0

> <PUBCHEM_BOND_DEF_STEREO_COUNT>
0

> <PUBCHEM_BOND_UDEF_STEREO_COUNT>
0

> <PUBCHEM_ISOTOPIC_ATOM_COUNT>
0

> <PUBCHEM_COMPONENT_COUNT>
1

> <PUBCHEM_CACTVS_TAUTO_COUNT>
2

> <PUBCHEM_CONFORMER_ID>
0109713E00000002

> <PUBCHEM_MMFF94_ENERGY>
98.3038

> <PUBCHEM_FEATURE_SELFOVERLAP>
55.998

> <PUBCHEM_SHAPE_FINGERPRINT>
10190108 129 18338223990959532161
10764073 3 17754135891732580915
108634 29 18260842513783473434
11285246 1 18261401091070096717
12202916 173 17826832301815412056
14918310 93 17260181099764557581
151778 21 12750953390626784732
15361156 5 17677038149136073400
15664445 248 17122534351659599333
17627616 140 17474386254434400226
17809404 112 18261970569737888962
1813 80 17482834459701026907
19319366 153 17472963482224738697
20775438 99 17247285095539520639
20775530 9 18194110816225590926
21781051 124 17846780711661838609
22907989 373 18342442738662616621
23572383 38 18188229644861798168
24204213 163 18341881958702051099
3027735 51 17906456884741114044
354706 35 18262816064035828324
4394409 98 17841450420343598362
508706 21 18263639727009304038
6608658 132 15239753291940090679

> <PUBCHEM_SHAPE_MULTIPOLES>
640.7
10.01
5.6
2.77
8.48
2.49
1.01
2.42
4.18
-5.91
-2.41
0.46
-0.19
5.42

> <PUBCHEM_SHAPE_SELFOVERLAP>
1421.031

> <PUBCHEM_SHAPE_VOLUME>
343

> <PUBCHEM_COORDINATE_TYPE>
2
5
10

$$$$

