9712
  -OEChem-06261203583D

 15 15  0     0  0  0  0  0  0999 V2000
    1.7996   -0.0004   -0.0004 Si  0  0  0  0  0  0  0  0  0  0  0  0
    2.3105   -0.0005    1.5103 F   0  0  0  0  0  0  0  0  0  0  0  0
    2.3242   -1.3041   -0.7538 F   0  0  0  0  0  0  0  0  0  0  0  0
    2.3193    1.3066   -0.7520 F   0  0  0  0  0  0  0  0  0  0  0  0
   -0.0641   -0.0003   -0.0004 C   0  0  0  0  0  0  0  0  0  0  0  0
   -0.7615    1.2077   -0.0005 C   0  0  0  0  0  0  0  0  0  0  0  0
   -0.7615   -1.2083   -0.0006 C   0  0  0  0  0  0  0  0  0  0  0  0
   -2.1564    1.2077   -0.0007 C   0  0  0  0  0  0  0  0  0  0  0  0
   -2.1564   -1.2082   -0.0009 C   0  0  0  0  0  0  0  0  0  0  0  0
   -2.8539   -0.0003   -0.0010 C   0  0  0  0  0  0  0  0  0  0  0  0
   -0.2424    2.1635    0.0003 H   0  0  0  0  0  0  0  0  0  0  0  0
   -0.2425   -2.1641    0.0000 H   0  0  0  0  0  0  0  0  0  0  0  0
   -2.6997    2.1482   -0.0006 H   0  0  0  0  0  0  0  0  0  0  0  0
   -2.6998   -2.1487   -0.0009 H   0  0  0  0  0  0  0  0  0  0  0  0
   -3.9399   -0.0003   -0.0011 H   0  0  0  0  0  0  0  0  0  0  0  0
  1  2  1  0  0  0  0
  1  3  1  0  0  0  0
  1  4  1  0  0  0  0
  1  5  1  0  0  0  0
  5  6  2  0  0  0  0
  5  7  1  0  0  0  0
  6  8  1  0  0  0  0
  6 11  1  0  0  0  0
  7  9  2  0  0  0  0
  7 12  1  0  0  0  0
  8 10  2  0  0  0  0
  8 13  1  0  0  0  0
  9 10  1  0  0  0  0
  9 14  1  0  0  0  0
 10 15  1  0  0  0  0
M  END
> <PUBCHEM_COMPOUND_CID>
9712

> <PUBCHEM_CONFORMER_RMSD>
0.4

> <PUBCHEM_CONFORMER_DIVERSEORDER>
1

> <PUBCHEM_MMFF94_PARTIAL_CHARGES>
15
1 1.45
10 -0.15
11 0.15
12 0.15
13 0.15
14 0.15
15 0.15
2 -0.41
3 -0.41
4 -0.41
5 -0.22
6 -0.15
7 -0.15
8 -0.15
9 -0.15

> <PUBCHEM_EFFECTIVE_ROTOR_COUNT>
1

> <PUBCHEM_PHARMACOPHORE_FEATURES>
1
6 5 6 7 8 9 10 rings

> <PUBCHEM_HEAVY_ATOM_COUNT>
10

> <PUBCHEM_ATOM_DEF_STEREO_COUNT>
0

> <PUBCHEM_ATOM_UDEF_STEREO_COUNT>
0

> <PUBCHEM_BOND_DEF_STEREO_COUNT>
0

> <PUBCHEM_BOND_UDEF_STEREO_COUNT>
0

> <PUBCHEM_ISOTOPIC_ATOM_COUNT>
0

> <PUBCHEM_COMPONENT_COUNT>
1

> <PUBCHEM_CACTVS_TAUTO_COUNT>
1

> <PUBCHEM_CONFORMER_ID>
000025F000000001

> <PUBCHEM_MMFF94_ENERGY>
16.075

> <PUBCHEM_FEATURE_SELFOVERLAP>
5.074

> <PUBCHEM_SHAPE_FINGERPRINT>
10857977 72 18335427820265184771
12524768 44 18340764853837924325
12716758 59 18334859475859278291
12897270 3 18337943481352618756
14325111 11 18410852183353146517
15775835 57 17704352190663837588
16945 1 18272373134851879931
19973954 147 18409442604903463572
20201158 50 18041839631241464318
20645464 45 17749402450486931466
20653085 51 18269261512671607065
21040471 1 18337955717714412329
23552423 10 18342736333926389791
2748010 2 18408882966601806263
29004967 10 16515684441945910002
3248919 1 18410017632410227845
369184 2 17132121229680567513
5084963 1 18262232343103188833

> <PUBCHEM_SHAPE_MULTIPOLES>
202.19
4.22
1.47
0.87
0.15
0
0.17
0
0
-0.23
-0.17
0.58
0
0

> <PUBCHEM_SHAPE_SELFOVERLAP>
405.33

> <PUBCHEM_SHAPE_VOLUME>
117.7

> <PUBCHEM_COORDINATE_TYPE>
2
5
10

$$$$

