11279
  -OEChem-06261205283D

 19 19  0     0  0  0  0  0  0999 V2000
    0.1864   -2.4110    0.0266 O   0  0  0  0  0  0  0  0  0  0  0  0
    2.2447   -0.0464   -1.2025 O   0  0  0  0  0  0  0  0  0  0  0  0
    2.4076   -0.0463    1.0646 O   0  0  0  0  0  0  0  0  0  0  0  0
   -0.4304    1.2050    0.0158 C   0  0  0  0  0  0  0  0  0  0  0  0
    0.2523   -0.0114    0.0267 C   0  0  0  0  0  0  0  0  0  0  0  0
   -0.4598   -1.2109    0.0173 C   0  0  0  0  0  0  0  0  0  0  0  0
   -1.8251    1.2219   -0.0046 C   0  0  0  0  0  0  0  0  0  0  0  0
    0.3050    2.5056    0.0255 C   0  0  0  0  0  0  0  0  0  0  0  0
   -1.8545   -1.1937   -0.0030 C   0  0  0  0  0  0  0  0  0  0  0  0
   -2.5371    0.0226   -0.0141 C   0  0  0  0  0  0  0  0  0  0  0  0
    1.7108   -0.0355    0.0478 C   0  0  0  0  0  0  0  0  0  0  0  0
   -2.3731    2.1604   -0.0136 H   0  0  0  0  0  0  0  0  0  0  0  0
    0.9331    2.5854    0.9189 H   0  0  0  0  0  0  0  0  0  0  0  0
    0.9312    2.5993   -0.8679 H   0  0  0  0  0  0  0  0  0  0  0  0
   -0.3796    3.3609    0.0339 H   0  0  0  0  0  0  0  0  0  0  0  0
   -2.4225   -2.1202   -0.0108 H   0  0  0  0  0  0  0  0  0  0  0  0
   -3.6230    0.0358   -0.0301 H   0  0  0  0  0  0  0  0  0  0  0  0
   -0.4719   -3.1269    0.0175 H   0  0  0  0  0  0  0  0  0  0  0  0
    3.2253   -0.0620   -1.1808 H   0  0  0  0  0  0  0  0  0  0  0  0
  1  6  1  0  0  0  0
  1 18  1  0  0  0  0
  2 11  1  0  0  0  0
  2 19  1  0  0  0  0
  3 11  2  0  0  0  0
  4  5  2  0  0  0  0
  4  7  1  0  0  0  0
  4  8  1  0  0  0  0
  5  6  1  0  0  0  0
  5 11  1  0  0  0  0
  6  9  2  0  0  0  0
  7 10  2  0  0  0  0
  7 12  1  0  0  0  0
  8 13  1  0  0  0  0
  8 14  1  0  0  0  0
  8 15  1  0  0  0  0
  9 10  1  0  0  0  0
  9 16  1  0  0  0  0
 10 17  1  0  0  0  0
M  END
> <PUBCHEM_COMPOUND_CID>
11279

> <PUBCHEM_CONFORMER_RMSD>
0.4

> <PUBCHEM_CONFORMER_DIVERSEORDER>
1
2
3

> <PUBCHEM_MMFF94_PARTIAL_CHARGES>
16
1 -0.53
10 -0.15
11 0.63
12 0.15
16 0.15
17 0.15
18 0.45
19 0.5
2 -0.65
3 -0.57
4 -0.14
5 0.09
6 0.08
7 -0.15
8 0.14
9 -0.15

> <PUBCHEM_EFFECTIVE_ROTOR_COUNT>
1

> <PUBCHEM_PHARMACOPHORE_FEATURES>
5
1 1 donor
1 2 acceptor
1 3 acceptor
3 2 3 11 anion
6 4 5 6 7 9 10 rings

> <PUBCHEM_HEAVY_ATOM_COUNT>
11

> <PUBCHEM_ATOM_DEF_STEREO_COUNT>
0

> <PUBCHEM_ATOM_UDEF_STEREO_COUNT>
0

> <PUBCHEM_BOND_DEF_STEREO_COUNT>
0

> <PUBCHEM_BOND_UDEF_STEREO_COUNT>
0

> <PUBCHEM_ISOTOPIC_ATOM_COUNT>
0

> <PUBCHEM_COMPONENT_COUNT>
1

> <PUBCHEM_CACTVS_TAUTO_COUNT>
13

> <PUBCHEM_CONFORMER_ID>
00002C0F00000001

> <PUBCHEM_MMFF94_ENERGY>
33.6313

> <PUBCHEM_FEATURE_SELFOVERLAP>
25.429

> <PUBCHEM_SHAPE_FINGERPRINT>
12423570 1 10987188751790053167
12524768 44 17976533919008061903
16945 1 18410855469145396777
18185500 45 18411984693172277707
193761 8 17690281512866902393
21040471 1 18266740379532074305
23552423 10 18055627571414974511
23559900 14 18189047767955879350
241688 4 18192138511234411899
2748010 2 18409731772171707221
29004967 10 16370727032384719546
369184 2 18336841843520735424
5084963 1 18040988501930446235

> <PUBCHEM_SHAPE_MULTIPOLES>
208.77
2.98
2.19
0.77
0.25
0.33
-0.04
-0.18
0.01
-0.2
0.03
0.4
-0.01
0

> <PUBCHEM_SHAPE_SELFOVERLAP>
440.732

> <PUBCHEM_SHAPE_VOLUME>
118

> <PUBCHEM_COORDINATE_TYPE>
2
5
10

$$$$

