4017
  -OEChem-06251223492D

221220  0     1  0  0  0  0  0999 V2000
    3.7320   -1.0950    0.0000 O   0  0  0  0  0  0  0  0  0  0  0  0
    7.1962   -0.0950    0.0000 O   0  0  0  0  0  0  0  0  0  0  0  0
    4.5981   -4.5950    0.0000 O   0  0  0  0  0  0  0  0  0  0  0  0
   21.9186   -5.5950    0.0000 O   0  0  0  0  0  0  0  0  0  0  0  0
    8.0622   -5.5950    0.0000 O   0  0  0  0  0  0  0  0  0  0  0  0
    6.3301    3.4050    0.0000 O   0  0  0  0  0  0  0  0  0  0  0  0
    8.9282    5.9050    0.0000 O   0  0  0  0  0  0  0  0  0  0  0  0
   19.3205   -3.0950    0.0000 O   0  0  0  0  0  0  0  0  0  0  0  0
   17.5885    4.9050    0.0000 O   0  0  0  0  0  0  0  0  0  0  0  0
   25.3827   -4.5950    0.0000 O   0  0  0  0  0  0  0  0  0  0  0  0
   20.1865    0.4050    0.0000 O   0  0  0  0  0  0  0  0  0  0  0  0
   14.1244    5.9050    0.0000 O   0  0  0  0  0  0  0  0  0  0  0  0
   16.7224    1.4050    0.0000 O   0  0  0  0  0  0  0  0  0  0  0  0
    4.5981   -5.5950    0.0000 O   0  0  0  0  0  0  0  0  0  0  0  0
   11.5263    3.4050    0.0000 O   0  0  0  0  0  0  0  0  0  0  0  0
    5.4641   -1.0950    0.0000 N   0  0  0  0  0  0  0  0  0  0  0  0
    5.4641   -3.0950    0.0000 N   0  0  0  0  0  0  0  0  0  0  0  0
    6.3301    1.4050    0.0000 N   0  0  0  0  0  0  0  0  0  0  0  0
   21.0526   -3.0950    0.0000 N   0  0  0  0  0  0  0  0  0  0  0  0
   22.7846   -4.0950    0.0000 N   0  0  0  0  0  0  0  0  0  0  0  0
    7.1962   -4.0950    0.0000 N   0  0  0  0  0  0  0  0  0  0  0  0
    8.0622    3.4050    0.0000 N   0  0  0  0  0  0  0  0  0  0  0  0
   14.9904    4.4050    0.0000 N   0  0  0  0  0  0  0  0  0  0  0  0
    9.7942    4.4050    0.0000 N   0  0  0  0  0  0  0  0  0  0  0  0
   19.3205   -1.0950    0.0000 N   0  0  0  0  0  0  0  0  0  0  0  0
    8.9282   -3.0950    0.0000 N   0  0  0  0  0  0  0  0  0  0  0  0
   16.7224    3.4050    0.0000 N   0  0  0  0  0  0  0  0  0  0  0  0
   18.4545    1.4050    0.0000 N   0  0  0  0  0  0  0  0  0  0  0  0
   12.3923    4.9050    0.0000 N   0  0  0  0  0  0  0  0  0  0  0  0
    2.8660    3.4050    0.0000 N   0  0  0  0  0  0  0  0  0  0  0  0
   24.5167   -3.0950    0.0000 N   0  0  0  0  0  0  0  0  0  0  0  0
    5.4641   -7.0950    0.0000 N   0  0  0  0  0  0  0  0  0  0  0  0
   16.7224   -2.5950    0.0000 N   0  0  0  0  0  0  0  0  0  0  0  0
    4.5981   -2.5950    0.0000 C   0  0  3  0  0  0  0  0  0  0  0  0
    3.7320   -3.0950    0.0000 C   0  0  0  0  0  0  0  0  0  0  0  0
    2.8660   -2.5950    0.0000 C   0  0  0  0  0  0  0  0  0  0  0  0
    5.4641   -0.0950    0.0000 C   0  0  3  0  0  0  0  0  0  0  0  0
    4.5981    0.4050    0.0000 C   0  0  0  0  0  0  0  0  0  0  0  0
    4.5981   -1.5950    0.0000 C   0  0  0  0  0  0  0  0  0  0  0  0
   21.0526   -4.0950    0.0000 C   0  0  3  0  0  0  0  0  0  0  0  0
   20.1865   -4.5950    0.0000 C   0  0  0  0  0  0  0  0  0  0  0  0
    4.5981    1.4050    0.0000 C   0  0  0  0  0  0  0  0  0  0  0  0
   20.1865   -5.5950    0.0000 C   0  0  0  0  0  0  0  0  0  0  0  0
    8.0622    4.4050    0.0000 C   0  0  3  0  0  0  0  0  0  0  0  0
    6.3301   -4.5950    0.0000 C   0  0  3  0  0  0  0  0  0  0  0  0
    7.1962    4.9050    0.0000 C   0  0  0  0  0  0  0  0  0  0  0  0
    6.3301    0.4050    0.0000 C   0  0  0  0  0  0  0  0  0  0  0  0
   23.6506   -4.5950    0.0000 C   0  0  3  0  0  0  0  0  0  0  0  0
    9.7942   -4.5950    0.0000 C   0  0  3  0  0  0  0  0  0  0  0  0
    2.0000   -3.0950    0.0000 C   0  0  0  0  0  0  0  0  0  0  0  0
    2.8660   -1.5950    0.0000 C   0  0  0  0  0  0  0  0  0  0  0  0
   23.6506   -5.5950    0.0000 C   0  0  0  0  0  0  0  0  0  0  0  0
    7.1962    5.9050    0.0000 C   0  0  0  0  0  0  0  0  0  0  0  0
    5.4641   -4.0950    0.0000 C   0  0  0  0  0  0  0  0  0  0  0  0
    8.9282   -4.0950    0.0000 C   0  0  3  0  0  0  0  0  0  0  0  0
   24.5167   -6.0950    0.0000 C   0  0  0  0  0  0  0  0  0  0  0  0
    3.7320    1.9050    0.0000 C   0  0  0  0  0  0  0  0  0  0  0  0
    7.1962    1.9050    0.0000 C   0  0  3  0  0  0  0  0  0  0  0  0
   21.9186   -4.5950    0.0000 C   0  0  0  0  0  0  0  0  0  0  0  0
   15.8564    4.9050    0.0000 C   0  0  3  0  0  0  0  0  0  0  0  0
   15.8564    5.9050    0.0000 C   0  0  0  0  0  0  0  0  0  0  0  0
   16.7224    6.4050    0.0000 C   0  0  0  0  0  0  0  0  0  0  0  0
    6.3301   -5.5950    0.0000 C   0  0  0  0  0  0  0  0  0  0  0  0
   10.6603   -4.0950    0.0000 C   0  0  0  0  0  0  0  0  0  0  0  0
    8.0622   -4.5950    0.0000 C   0  0  0  0  0  0  0  0  0  0  0  0
   19.3205   -6.0950    0.0000 C   0  0  0  0  0  0  0  0  0  0  0  0
   21.0526   -6.0950    0.0000 C   0  0  0  0  0  0  0  0  0  0  0  0
    7.1962    2.9050    0.0000 C   0  0  0  0  0  0  0  0  0  0  0  0
    8.9282    4.9050    0.0000 C   0  0  0  0  0  0  0  0  0  0  0  0
   20.1865   -1.5950    0.0000 C   0  0  3  0  0  0  0  0  0  0  0  0
   18.4545    0.4050    0.0000 C   0  0  3  0  0  0  0  0  0  0  0  0
   20.1865   -2.5950    0.0000 C   0  0  0  0  0  0  0  0  0  0  0  0
    9.7942   -5.5950    0.0000 C   0  0  0  0  0  0  0  0  0  0  0  0
    3.7320    2.9050    0.0000 C   0  0  0  0  0  0  0  0  0  0  0  0
    6.3301    6.4050    0.0000 C   0  0  0  0  0  0  0  0  0  0  0  0
    8.0622    6.4050    0.0000 C   0  0  0  0  0  0  0  0  0  0  0  0
   17.5885   -0.0950    0.0000 C   0  0  0  0  0  0  0  0  0  0  0  0
   16.7224    4.4050    0.0000 C   0  0  0  0  0  0  0  0  0  0  0  0
   24.5167   -7.0950    0.0000 C   0  0  0  0  0  0  0  0  0  0  0  0
   25.3827   -5.5950    0.0000 C   0  0  0  0  0  0  0  0  0  0  0  0
    8.0622    1.4050    0.0000 C   0  0  0  0  0  0  0  0  0  0  0  0
   24.5167   -4.0950    0.0000 C   0  0  0  0  0  0  0  0  0  0  0  0
   10.6603    4.9050    0.0000 C   0  0  3  0  0  0  0  0  0  0  0  0
   17.5885    2.9050    0.0000 C   0  0  3  0  0  0  0  0  0  0  0  0
   19.3205   -0.0950    0.0000 C   0  0  0  0  0  0  0  0  0  0  0  0
   16.7224    7.4050    0.0000 C   0  0  0  0  0  0  0  0  0  0  0  0
   17.5885    5.9050    0.0000 C   0  0  0  0  0  0  0  0  0  0  0  0
   13.2583    4.4050    0.0000 C   0  0  3  0  0  0  0  0  0  0  0  0
   11.5263   -4.5950    0.0000 C   0  0  0  0  0  0  0  0  0  0  0  0
   17.5885   -1.0950    0.0000 C   0  0  0  0  0  0  0  0  0  0  0  0
   14.1244    4.9050    0.0000 C   0  0  0  0  0  0  0  0  0  0  0  0
   17.5885    1.9050    0.0000 C   0  0  0  0  0  0  0  0  0  0  0  0
   21.0526   -1.0950    0.0000 C   0  0  0  0  0  0  0  0  0  0  0  0
    5.4641   -6.0950    0.0000 C   0  0  0  0  0  0  0  0  0  0  0  0
   11.5263    4.4050    0.0000 C   0  0  0  0  0  0  0  0  0  0  0  0
   10.6603    5.9050    0.0000 C   0  0  0  0  0  0  0  0  0  0  0  0
   18.4545    3.4050    0.0000 C   0  0  0  0  0  0  0  0  0  0  0  0
   16.7224   -1.5950    0.0000 C   0  0  0  0  0  0  0  0  0  0  0  0
   13.2583    3.4050    0.0000 C   0  0  0  0  0  0  0  0  0  0  0  0
    4.5981   -3.2150    0.0000 H   0  0  0  0  0  0  0  0  0  0  0  0
    3.3335   -3.5700    0.0000 H   0  0  0  0  0  0  0  0  0  0  0  0
    4.1306   -3.5700    0.0000 H   0  0  0  0  0  0  0  0  0  0  0  0
    2.8660   -3.2150    0.0000 H   0  0  0  0  0  0  0  0  0  0  0  0
    6.0010   -0.4050    0.0000 H   0  0  0  0  0  0  0  0  0  0  0  0
    3.9875    0.5127    0.0000 H   0  0  0  0  0  0  0  0  0  0  0  0
    4.3860   -0.1776    0.0000 H   0  0  0  0  0  0  0  0  0  0  0  0
   21.5895   -3.7850    0.0000 H   0  0  0  0  0  0  0  0  0  0  0  0
   19.9745   -4.0124    0.0000 H   0  0  0  0  0  0  0  0  0  0  0  0
   19.5760   -4.7027    0.0000 H   0  0  0  0  0  0  0  0  0  0  0  0
    6.0010   -1.4050    0.0000 H   0  0  0  0  0  0  0  0  0  0  0  0
    6.0010   -2.7850    0.0000 H   0  0  0  0  0  0  0  0  0  0  0  0
    5.2087    1.2973    0.0000 H   0  0  0  0  0  0  0  0  0  0  0  0
    4.8101    1.9876    0.0000 H   0  0  0  0  0  0  0  0  0  0  0  0
   19.6496   -5.2850    0.0000 H   0  0  0  0  0  0  0  0  0  0  0  0
    7.5252    4.0950    0.0000 H   0  0  0  0  0  0  0  0  0  0  0  0
    6.8671   -4.9050    0.0000 H   0  0  0  0  0  0  0  0  0  0  0  0
    6.5856    5.0127    0.0000 H   0  0  0  0  0  0  0  0  0  0  0  0
    6.9841    4.3224    0.0000 H   0  0  0  0  0  0  0  0  0  0  0  0
   23.6506   -3.9750    0.0000 H   0  0  0  0  0  0  0  0  0  0  0  0
    9.2573   -4.9050    0.0000 H   0  0  0  0  0  0  0  0  0  0  0  0
    3.4860   -1.5950    0.0000 H   0  0  0  0  0  0  0  0  0  0  0  0
    2.8660   -0.9750    0.0000 H   0  0  0  0  0  0  0  0  0  0  0  0
    1.6900   -2.5581    0.0000 H   0  0  0  0  0  0  0  0  0  0  0  0
    1.4631   -3.4050    0.0000 H   0  0  0  0  0  0  0  0  0  0  0  0
    2.3100   -3.6319    0.0000 H   0  0  0  0  0  0  0  0  0  0  0  0
    2.2460   -1.5950    0.0000 H   0  0  0  0  0  0  0  0  0  0  0  0
   23.0401   -5.4873    0.0000 H   0  0  0  0  0  0  0  0  0  0  0  0
   23.4386   -6.1776    0.0000 H   0  0  0  0  0  0  0  0  0  0  0  0
    6.6592    5.5950    0.0000 H   0  0  0  0  0  0  0  0  0  0  0  0
    9.4651   -3.7850    0.0000 H   0  0  0  0  0  0  0  0  0  0  0  0
   24.5167   -5.4750    0.0000 H   0  0  0  0  0  0  0  0  0  0  0  0
    3.1215    2.0127    0.0000 H   0  0  0  0  0  0  0  0  0  0  0  0
    3.5200    1.3224    0.0000 H   0  0  0  0  0  0  0  0  0  0  0  0
    6.6592    2.2150    0.0000 H   0  0  0  0  0  0  0  0  0  0  0  0
   15.3195    5.2150    0.0000 H   0  0  0  0  0  0  0  0  0  0  0  0
   15.6444    6.4876    0.0000 H   0  0  0  0  0  0  0  0  0  0  0  0
   15.2458    5.7973    0.0000 H   0  0  0  0  0  0  0  0  0  0  0  0
    5.7932    1.7150    0.0000 H   0  0  0  0  0  0  0  0  0  0  0  0
   21.5895   -2.7850    0.0000 H   0  0  0  0  0  0  0  0  0  0  0  0
   22.7846   -3.4750    0.0000 H   0  0  0  0  0  0  0  0  0  0  0  0
   16.1855    6.7150    0.0000 H   0  0  0  0  0  0  0  0  0  0  0  0
    7.1962   -3.4750    0.0000 H   0  0  0  0  0  0  0  0  0  0  0  0
    8.5991    3.0950    0.0000 H   0  0  0  0  0  0  0  0  0  0  0  0
    6.5422   -6.1776    0.0000 H   0  0  0  0  0  0  0  0  0  0  0  0
    6.9407   -5.4873    0.0000 H   0  0  0  0  0  0  0  0  0  0  0  0
   11.0588   -3.6200    0.0000 H   0  0  0  0  0  0  0  0  0  0  0  0
   10.2617   -3.6200    0.0000 H   0  0  0  0  0  0  0  0  0  0  0  0
   20.7426   -6.6319    0.0000 H   0  0  0  0  0  0  0  0  0  0  0  0
   21.5895   -6.4050    0.0000 H   0  0  0  0  0  0  0  0  0  0  0  0
   21.3626   -5.5581    0.0000 H   0  0  0  0  0  0  0  0  0  0  0  0
   19.0105   -5.5581    0.0000 H   0  0  0  0  0  0  0  0  0  0  0  0
   18.7836   -6.4050    0.0000 H   0  0  0  0  0  0  0  0  0  0  0  0
   19.6305   -6.6319    0.0000 H   0  0  0  0  0  0  0  0  0  0  0  0
   18.9914    0.7150    0.0000 H   0  0  0  0  0  0  0  0  0  0  0  0
   19.6496   -1.9050    0.0000 H   0  0  0  0  0  0  0  0  0  0  0  0
    9.1742   -5.5950    0.0000 H   0  0  0  0  0  0  0  0  0  0  0  0
    9.7942   -6.2150    0.0000 H   0  0  0  0  0  0  0  0  0  0  0  0
   10.4142   -5.5950    0.0000 H   0  0  0  0  0  0  0  0  0  0  0  0
    4.3426    2.7973    0.0000 H   0  0  0  0  0  0  0  0  0  0  0  0
    3.9441    3.4876    0.0000 H   0  0  0  0  0  0  0  0  0  0  0  0
    8.3722    5.8681    0.0000 H   0  0  0  0  0  0  0  0  0  0  0  0
    8.5991    6.7150    0.0000 H   0  0  0  0  0  0  0  0  0  0  0  0
    7.7522    6.9419    0.0000 H   0  0  0  0  0  0  0  0  0  0  0  0
    6.6401    6.9419    0.0000 H   0  0  0  0  0  0  0  0  0  0  0  0
    5.7932    6.7150    0.0000 H   0  0  0  0  0  0  0  0  0  0  0  0
    6.0201    5.8681    0.0000 H   0  0  0  0  0  0  0  0  0  0  0  0
   17.3764    0.4876    0.0000 H   0  0  0  0  0  0  0  0  0  0  0  0
   16.9779   -0.2027    0.0000 H   0  0  0  0  0  0  0  0  0  0  0  0
   25.6927   -6.1319    0.0000 H   0  0  0  0  0  0  0  0  0  0  0  0
   25.9196   -5.2850    0.0000 H   0  0  0  0  0  0  0  0  0  0  0  0
   25.0727   -5.0581    0.0000 H   0  0  0  0  0  0  0  0  0  0  0  0
   23.8967   -7.0950    0.0000 H   0  0  0  0  0  0  0  0  0  0  0  0
   24.5167   -7.7150    0.0000 H   0  0  0  0  0  0  0  0  0  0  0  0
   25.1367   -7.0950    0.0000 H   0  0  0  0  0  0  0  0  0  0  0  0
   14.9904    3.7850    0.0000 H   0  0  0  0  0  0  0  0  0  0  0  0
    7.7522    0.8681    0.0000 H   0  0  0  0  0  0  0  0  0  0  0  0
    8.5991    1.0950    0.0000 H   0  0  0  0  0  0  0  0  0  0  0  0
    8.3722    1.9419    0.0000 H   0  0  0  0  0  0  0  0  0  0  0  0
   10.6603    4.2850    0.0000 H   0  0  0  0  0  0  0  0  0  0  0  0
   17.5885    3.5250    0.0000 H   0  0  0  0  0  0  0  0  0  0  0  0
    9.7942    3.7850    0.0000 H   0  0  0  0  0  0  0  0  0  0  0  0
   18.7836   -1.4050    0.0000 H   0  0  0  0  0  0  0  0  0  0  0  0
   17.3424    7.4050    0.0000 H   0  0  0  0  0  0  0  0  0  0  0  0
   16.7224    8.0250    0.0000 H   0  0  0  0  0  0  0  0  0  0  0  0
   16.1024    7.4050    0.0000 H   0  0  0  0  0  0  0  0  0  0  0  0
   17.2785    5.3681    0.0000 H   0  0  0  0  0  0  0  0  0  0  0  0
   18.1254    5.5950    0.0000 H   0  0  0  0  0  0  0  0  0  0  0  0
   17.8985    6.4419    0.0000 H   0  0  0  0  0  0  0  0  0  0  0  0
   13.2583    5.0250    0.0000 H   0  0  0  0  0  0  0  0  0  0  0  0
    9.4651   -2.7850    0.0000 H   0  0  0  0  0  0  0  0  0  0  0  0
    8.3913   -2.7850    0.0000 H   0  0  0  0  0  0  0  0  0  0  0  0
   16.1855    3.0950    0.0000 H   0  0  0  0  0  0  0  0  0  0  0  0
   18.9914    1.7150    0.0000 H   0  0  0  0  0  0  0  0  0  0  0  0
   11.2163   -5.1319    0.0000 H   0  0  0  0  0  0  0  0  0  0  0  0
   12.0632   -4.9050    0.0000 H   0  0  0  0  0  0  0  0  0  0  0  0
   11.8363   -4.0581    0.0000 H   0  0  0  0  0  0  0  0  0  0  0  0
   17.8005   -1.6776    0.0000 H   0  0  0  0  0  0  0  0  0  0  0  0
   18.1990   -0.9873    0.0000 H   0  0  0  0  0  0  0  0  0  0  0  0
   21.3626   -1.6319    0.0000 H   0  0  0  0  0  0  0  0  0  0  0  0
   21.5895   -0.7850    0.0000 H   0  0  0  0  0  0  0  0  0  0  0  0
   20.7426   -0.5581    0.0000 H   0  0  0  0  0  0  0  0  0  0  0  0
   12.3923    5.5250    0.0000 H   0  0  0  0  0  0  0  0  0  0  0  0
   11.2803    5.9050    0.0000 H   0  0  0  0  0  0  0  0  0  0  0  0
   10.6603    6.5250    0.0000 H   0  0  0  0  0  0  0  0  0  0  0  0
   10.0403    5.9050    0.0000 H   0  0  0  0  0  0  0  0  0  0  0  0
   18.7645    2.8681    0.0000 H   0  0  0  0  0  0  0  0  0  0  0  0
   18.9914    3.7150    0.0000 H   0  0  0  0  0  0  0  0  0  0  0  0
   18.1445    3.9419    0.0000 H   0  0  0  0  0  0  0  0  0  0  0  0
   16.5104   -1.0124    0.0000 H   0  0  0  0  0  0  0  0  0  0  0  0
   16.1119   -1.7027    0.0000 H   0  0  0  0  0  0  0  0  0  0  0  0
   12.6383    3.4050    0.0000 H   0  0  0  0  0  0  0  0  0  0  0  0
   13.2583    2.7850    0.0000 H   0  0  0  0  0  0  0  0  0  0  0  0
   13.8783    3.4050    0.0000 H   0  0  0  0  0  0  0  0  0  0  0  0
    2.8660    4.0250    0.0000 H   0  0  0  0  0  0  0  0  0  0  0  0
    2.3291    3.0950    0.0000 H   0  0  0  0  0  0  0  0  0  0  0  0
   25.0536   -2.7850    0.0000 H   0  0  0  0  0  0  0  0  0  0  0  0
   23.9797   -2.7850    0.0000 H   0  0  0  0  0  0  0  0  0  0  0  0
    4.9272   -7.4050    0.0000 H   0  0  0  0  0  0  0  0  0  0  0  0
    6.0010   -7.4050    0.0000 H   0  0  0  0  0  0  0  0  0  0  0  0
   16.1855   -2.9050    0.0000 H   0  0  0  0  0  0  0  0  0  0  0  0
   17.2594   -2.9050    0.0000 H   0  0  0  0  0  0  0  0  0  0  0  0
  1 39  2  0  0  0  0
  2 47  2  0  0  0  0
  3 54  2  0  0  0  0
  4 59  2  0  0  0  0
  5 65  2  0  0  0  0
  6 68  2  0  0  0  0
  7 69  2  0  0  0  0
  8 72  2  0  0  0  0
  9 78  2  0  0  0  0
 10 82  2  0  0  0  0
 11 85  2  0  0  0  0
 12 91  2  0  0  0  0
 13 92  2  0  0  0  0
 14 94  2  0  0  0  0
 15 95  2  0  0  0  0
 16 37  1  0  0  0  0
 16 39  1  0  0  0  0
 16110  1  0  0  0  0
 17 34  1  0  0  0  0
 17 54  1  0  0  0  0
 17111  1  0  0  0  0
 18 47  1  0  0  0  0
 18 58  1  0  0  0  0
 18138  1  0  0  0  0
 19 40  1  0  0  0  0
 19 72  1  0  0  0  0
 19139  1  0  0  0  0
 20 48  1  0  0  0  0
 20 59  1  0  0  0  0
 20140  1  0  0  0  0
 21 45  1  0  0  0  0
 21 65  1  0  0  0  0
 21142  1  0  0  0  0
 22 44  1  0  0  0  0
 22 68  1  0  0  0  0
 22143  1  0  0  0  0
 23 60  1  0  0  0  0
 23 91  1  0  0  0  0
 23175  1  0  0  0  0
 24 69  1  0  0  0  0
 24 83  1  0  0  0  0
 24181  1  0  0  0  0
 25 70  1  0  0  0  0
 25 85  1  0  0  0  0
 25182  1  0  0  0  0
 26 55  1  0  0  0  0
 26190  1  0  0  0  0
 26191  1  0  0  0  0
 27 78  1  0  0  0  0
 27 84  1  0  0  0  0
 27192  1  0  0  0  0
 28 71  1  0  0  0  0
 28 92  1  0  0  0  0
 28193  1  0  0  0  0
 29 88  1  0  0  0  0
 29 95  1  0  0  0  0
 29202  1  0  0  0  0
 30 74  1  0  0  0  0
 30214  1  0  0  0  0
 30215  1  0  0  0  0
 31 82  1  0  0  0  0
 31216  1  0  0  0  0
 31217  1  0  0  0  0
 32 94  1  0  0  0  0
 32218  1  0  0  0  0
 32219  1  0  0  0  0
 33 98  1  0  0  0  0
 33220  1  0  0  0  0
 33221  1  0  0  0  0
 34 35  1  0  0  0  0
 34 39  1  0  0  0  0
 34100  1  0  0  0  0
 35 36  1  0  0  0  0
 35101  1  0  0  0  0
 35102  1  0  0  0  0
 36 50  1  0  0  0  0
 36 51  1  0  0  0  0
 36103  1  0  0  0  0
 37 38  1  0  0  0  0
 37 47  1  0  0  0  0
 37104  1  0  0  0  0
 38 42  1  0  0  0  0
 38105  1  0  0  0  0
 38106  1  0  0  0  0
 40 41  1  0  0  0  0
 40 59  1  0  0  0  0
 40107  1  0  0  0  0
 41 43  1  0  0  0  0
 41108  1  0  0  0  0
 41109  1  0  0  0  0
 42 57  1  0  0  0  0
 42112  1  0  0  0  0
 42113  1  0  0  0  0
 43 66  1  0  0  0  0
 43 67  1  0  0  0  0
 43114  1  0  0  0  0
 44 46  1  0  0  0  0
 44 69  1  0  0  0  0
 44115  1  0  0  0  0
 45 54  1  0  0  0  0
 45 63  1  0  0  0  0
 45116  1  0  0  0  0
 46 53  1  0  0  0  0
 46117  1  0  0  0  0
 46118  1  0  0  0  0
 48 52  1  0  0  0  0
 48 82  1  0  0  0  0
 48119  1  0  0  0  0
 49 55  1  0  0  0  0
 49 64  1  0  0  0  0
 49 73  1  0  0  0  0
 49120  1  0  0  0  0
 50123  1  0  0  0  0
 50124  1  0  0  0  0
 50125  1  0  0  0  0
 51121  1  0  0  0  0
 51122  1  0  0  0  0
 51126  1  0  0  0  0
 52 56  1  0  0  0  0
 52127  1  0  0  0  0
 52128  1  0  0  0  0
 53 75  1  0  0  0  0
 53 76  1  0  0  0  0
 53129  1  0  0  0  0
 55 65  1  0  0  0  0
 55130  1  0  0  0  0
 56 79  1  0  0  0  0
 56 80  1  0  0  0  0
 56131  1  0  0  0  0
 57 74  1  0  0  0  0
 57132  1  0  0  0  0
 57133  1  0  0  0  0
 58 68  1  0  0  0  0
 58 81  1  0  0  0  0
 58134  1  0  0  0  0
 60 61  1  0  0  0  0
 60 78  1  0  0  0  0
 60135  1  0  0  0  0
 61 62  1  0  0  0  0
 61136  1  0  0  0  0
 61137  1  0  0  0  0
 62 86  1  0  0  0  0
 62 87  1  0  0  0  0
 62141  1  0  0  0  0
 63 94  1  0  0  0  0
 63144  1  0  0  0  0
 63145  1  0  0  0  0
 64 89  1  0  0  0  0
 64146  1  0  0  0  0
 64147  1  0  0  0  0
 66151  1  0  0  0  0
 66152  1  0  0  0  0
 66153  1  0  0  0  0
 67148  1  0  0  0  0
 67149  1  0  0  0  0
 67150  1  0  0  0  0
 70 72  1  0  0  0  0
 70 93  1  0  0  0  0
 70155  1  0  0  0  0
 71 77  1  0  0  0  0
 71 85  1  0  0  0  0
 71154  1  0  0  0  0
 73156  1  0  0  0  0
 73157  1  0  0  0  0
 73158  1  0  0  0  0
 74159  1  0  0  0  0
 74160  1  0  0  0  0
 75164  1  0  0  0  0
 75165  1  0  0  0  0
 75166  1  0  0  0  0
 76161  1  0  0  0  0
 76162  1  0  0  0  0
 76163  1  0  0  0  0
 77 90  1  0  0  0  0
 77167  1  0  0  0  0
 77168  1  0  0  0  0
 79172  1  0  0  0  0
 79173  1  0  0  0  0
 79174  1  0  0  0  0
 80169  1  0  0  0  0
 80170  1  0  0  0  0
 80171  1  0  0  0  0
 81176  1  0  0  0  0
 81177  1  0  0  0  0
 81178  1  0  0  0  0
 83 95  1  0  0  0  0
 83 96  1  0  0  0  0
 83179  1  0  0  0  0
 84 92  1  0  0  0  0
 84 97  1  0  0  0  0
 84180  1  0  0  0  0
 86183  1  0  0  0  0
 86184  1  0  0  0  0
 86185  1  0  0  0  0
 87186  1  0  0  0  0
 87187  1  0  0  0  0
 87188  1  0  0  0  0
 88 91  1  0  0  0  0
 88 99  1  0  0  0  0
 88189  1  0  0  0  0
 89194  1  0  0  0  0
 89195  1  0  0  0  0
 89196  1  0  0  0  0
 90 98  1  0  0  0  0
 90197  1  0  0  0  0
 90198  1  0  0  0  0
 93199  1  0  0  0  0
 93200  1  0  0  0  0
 93201  1  0  0  0  0
 96203  1  0  0  0  0
 96204  1  0  0  0  0
 96205  1  0  0  0  0
 97206  1  0  0  0  0
 97207  1  0  0  0  0
 97208  1  0  0  0  0
 98209  1  0  0  0  0
 98210  1  0  0  0  0
 99211  1  0  0  0  0
 99212  1  0  0  0  0
 99213  1  0  0  0  0
M  END
> <PUBCHEM_COMPOUND_CID>
4017

> <PUBCHEM_COMPOUND_CANONICALIZED>
1

> <PUBCHEM_CACTVS_COMPLEXITY>
2700

> <PUBCHEM_CACTVS_HBOND_ACCEPTOR>
18

> <PUBCHEM_CACTVS_HBOND_DONOR>
18

> <PUBCHEM_CACTVS_ROTATABLE_BOND>
48

> <PUBCHEM_CACTVS_SUBSKEYS>
AAADcfB//AAAAAAAAAAAAAAAAAAAAAAAAAAAAAAAAAAAAAAAAAAAHgAQAAAADSjBgAQCAALAAAAIAAEQEAAAAAAAAAAAAIGIAAAAQBoAwCAUAAAAFgCAAAEdCQAOAAAAAAAAAAAAAAAAAAAAAAAAAAAAAA==

> <PUBCHEM_IUPAC_OPENEYE_NAME>
N-[1-[[5-amino-1-[[2-[[1-[[2-[[2-[[1-[[2-[[4-amino-1-[[2-[[1-[(1-carbamoyl-3-methyl-butyl)carbamoyl]-3-methyl-butyl]amino]-1-methyl-2-oxo-ethyl]carbamoyl]butyl]amino]-1-methyl-2-oxo-ethyl]carbamoyl]-3-methyl-butyl]amino]-1-methyl-2-oxo-ethyl]amino]-1-methyl-2-oxo-ethyl]carbamoyl]-3-methyl-butyl]amino]-1-methyl-2-oxo-ethyl]carbamoyl]pentyl]carbamoyl]-3-methyl-butyl]-2-[(2-amino-3-methyl-pentanoyl)amino]butanediamide

> <PUBCHEM_IUPAC_CAS_NAME>
N-[1-[[6-amino-1-[[1-[[1-[[1-[[1-[[1-[[1-[[5-amino-1-[[1-[[1-[(1-amino-4-methyl-1-oxopentan-2-yl)amino]-4-methyl-1-oxopentan-2-yl]amino]-1-oxopropan-2-yl]amino]-1-oxopentan-2-yl]amino]-1-oxopropan-2-yl]amino]-4-methyl-1-oxopentan-2-yl]amino]-1-oxopropan-2-yl]amino]-1-oxopropan-2-yl]amino]-4-methyl-1-oxopentan-2-yl]amino]-1-oxopropan-2-yl]amino]-1-oxohexan-2-yl]amino]-4-methyl-1-oxopentan-2-yl]-2-[(2-amino-3-methyl-1-oxopentyl)amino]butanediamide

> <PUBCHEM_IUPAC_NAME>
N-[1-[[6-amino-1-[[1-[[1-[[1-[[1-[[1-[[1-[[5-amino-1-[[1-[[1-[(1-amino-4-methyl-1-oxopentan-2-yl)amino]-4-methyl-1-oxopentan-2-yl]amino]-1-oxopropan-2-yl]amino]-1-oxopentan-2-yl]amino]-1-oxopropan-2-yl]amino]-4-methyl-1-oxopentan-2-yl]amino]-1-oxopropan-2-yl]amino]-1-oxopropan-2-yl]amino]-4-methyl-1-oxopentan-2-yl]amino]-1-oxopropan-2-yl]amino]-1-oxohexan-2-yl]amino]-4-methyl-1-oxopentan-2-yl]-2-[(2-amino-3-methylpentanoyl)amino]butanediamide

> <PUBCHEM_IUPAC_SYSTEMATIC_NAME>
N-[1-[[6-azanyl-1-[[1-[[1-[[1-[[1-[[1-[[1-[[5-azanyl-1-[[1-[[1-[(1-azanyl-4-methyl-1-oxidanylidene-pentan-2-yl)amino]-4-methyl-1-oxidanylidene-pentan-2-yl]amino]-1-oxidanylidene-propan-2-yl]amino]-1-oxidanylidene-pentan-2-yl]amino]-1-oxidanylidene-propan-2-yl]amino]-4-methyl-1-oxidanylidene-pentan-2-yl]amino]-1-oxidanylidene-propan-2-yl]amino]-1-oxidanylidene-propan-2-yl]amino]-4-methyl-1-oxidanylidene-pentan-2-yl]amino]-1-oxidanylidene-propan-2-yl]amino]-1-oxidanylidene-hexan-2-yl]amino]-4-methyl-1-oxidanylidene-pentan-2-yl]-2-[(2-azanyl-3-methyl-pentanoyl)amino]butanediamide

> <PUBCHEM_IUPAC_TRADITIONAL_NAME>
N-[1-[[5-amino-1-[[2-[[1-[[2-[[2-[[1-[[2-[[4-amino-1-[[2-[[1-[(1-carbamoyl-3-methyl-butyl)carbamoyl]-3-methyl-butyl]amino]-2-keto-1-methyl-ethyl]carbamoyl]butyl]amino]-2-keto-1-methyl-ethyl]carbamoyl]-3-methyl-butyl]amino]-2-keto-1-methyl-ethyl]amino]-2-keto-1-methyl-ethyl]carbamoyl]-3-methyl-butyl]amino]-2-keto-1-methyl-ethyl]carbamoyl]pentyl]carbamoyl]-3-methyl-butyl]-2-[(2-amino-3-methyl-pentanoyl)amino]succinamide

> <PUBCHEM_IUPAC_INCHI>
InChI=1S/C66H122N18O15/c1-18-37(12)52(70)66(99)84-50(31-51(69)85)65(98)83-49(30-36(10)11)63(96)78-43(22-19-20-24-67)59(92)73-41(16)57(90)81-46(27-33(4)5)61(94)75-38(13)54(87)72-39(14)56(89)80-47(28-34(6)7)62(95)76-40(15)55(88)77-44(23-21-25-68)60(93)74-42(17)58(91)82-48(29-35(8)9)64(97)79-45(53(71)86)26-32(2)3/h32-50,52H,18-31,67-68,70H2,1-17H3,(H2,69,85)(H2,71,86)(H,72,87)(H,73,92)(H,74,93)(H,75,94)(H,76,95)(H,77,88)(H,78,96)(H,79,97)(H,80,89)(H,81,90)(H,82,91)(H,83,98)(H,84,99)

> <PUBCHEM_IUPAC_INCHIKEY>
WTADEFGSVQTUAB-UHFFFAOYSA-N

> <PUBCHEM_XLOGP3_AA>
0.9

> <PUBCHEM_EXACT_MASS>
1406.933705

> <PUBCHEM_MOLECULAR_FORMULA>
C66H122N18O15

> <PUBCHEM_MOLECULAR_WEIGHT>
1407.78648

> <PUBCHEM_OPENEYE_CAN_SMILES>
CCC(C)C(C(=O)NC(CC(=O)N)C(=O)NC(CC(C)C)C(=O)NC(CCCCN)C(=O)NC(C)C(=O)NC(CC(C)C)C(=O)NC(C)C(=O)NC(C)C(=O)NC(CC(C)C)C(=O)NC(C)C(=O)NC(CCCN)C(=O)NC(C)C(=O)NC(CC(C)C)C(=O)NC(CC(C)C)C(=O)N)N

> <PUBCHEM_OPENEYE_ISO_SMILES>
CCC(C)C(C(=O)NC(CC(=O)N)C(=O)NC(CC(C)C)C(=O)NC(CCCCN)C(=O)NC(C)C(=O)NC(CC(C)C)C(=O)NC(C)C(=O)NC(C)C(=O)NC(CC(C)C)C(=O)NC(C)C(=O)NC(CCCN)C(=O)NC(C)C(=O)NC(CC(C)C)C(=O)NC(CC(C)C)C(=O)N)N

> <PUBCHEM_CACTVS_TPSA>
543

> <PUBCHEM_MONOISOTOPIC_WEIGHT>
1406.933705

> <PUBCHEM_TOTAL_CHARGE>
0

> <PUBCHEM_HEAVY_ATOM_COUNT>
99

> <PUBCHEM_ATOM_DEF_STEREO_COUNT>
0

> <PUBCHEM_ATOM_UDEF_STEREO_COUNT>
15

> <PUBCHEM_BOND_DEF_STEREO_COUNT>
0

> <PUBCHEM_BOND_UDEF_STEREO_COUNT>
0

> <PUBCHEM_ISOTOPIC_ATOM_COUNT>
0

> <PUBCHEM_COMPONENT_COUNT>
1

> <PUBCHEM_CACTVS_TAUTO_COUNT>
1001

> <PUBCHEM_COORDINATE_TYPE>
1
5
255

> <PUBCHEM_BONDANNOTATIONS>
55  26  3
34  35  3
37  38  3
40  59  3
44  46  3
45  63  3
48  82  3
49  73  3
58  81  3
60  61  3
70  93  3
71  85  3
83  96  3
84  97  3
88  99  3

$$$$

