12887
  -OEChem-06261207303D

 29 30  0     0  0  0  0  0  0999 V2000
   -4.9746   -1.6025   -0.5503 F   0  0  0  0  0  0  0  0  0  0  0  0
    4.5899    1.3849   -0.4595 O   0  0  0  0  0  0  0  0  0  0  0  0
    3.6720   -0.7014    0.1434 N   0  0  0  0  0  0  0  0  0  0  0  0
   -0.4571   -0.0217    0.0945 C   0  0  0  0  0  0  0  0  0  0  0  0
   -1.8848    0.2131    0.0766 C   0  0  0  0  0  0  0  0  0  0  0  0
    2.2954   -0.4746    0.1272 C   0  0  0  0  0  0  0  0  0  0  0  0
    0.4236    1.0131   -0.2201 C   0  0  0  0  0  0  0  0  0  0  0  0
    0.0383   -1.2829    0.4256 C   0  0  0  0  0  0  0  0  0  0  0  0
    1.7999    0.7866   -0.2039 C   0  0  0  0  0  0  0  0  0  0  0  0
    1.4147   -1.5093    0.4420 C   0  0  0  0  0  0  0  0  0  0  0  0
   -2.7587   -0.8285   -0.2343 C   0  0  0  0  0  0  0  0  0  0  0  0
   -2.3867    1.4809    0.3697 C   0  0  0  0  0  0  0  0  0  0  0  0
   -4.1349   -0.6022   -0.2520 C   0  0  0  0  0  0  0  0  0  0  0  0
   -3.7629    1.7073    0.3521 C   0  0  0  0  0  0  0  0  0  0  0  0
   -4.6370    0.6656    0.0412 C   0  0  0  0  0  0  0  0  0  0  0  0
    4.7016    0.2054   -0.1414 C   0  0  0  0  0  0  0  0  0  0  0  0
    6.0615   -0.4336   -0.0109 C   0  0  0  0  0  0  0  0  0  0  0  0
    0.0823    2.0020   -0.5140 H   0  0  0  0  0  0  0  0  0  0  0  0
   -0.6073   -2.1102    0.7074 H   0  0  0  0  0  0  0  0  0  0  0  0
    2.4189    1.6333   -0.4661 H   0  0  0  0  0  0  0  0  0  0  0  0
    1.7876   -2.4952    0.7083 H   0  0  0  0  0  0  0  0  0  0  0  0
   -2.4134   -1.8243   -0.4978 H   0  0  0  0  0  0  0  0  0  0  0  0
   -1.7473    2.3142    0.6475 H   0  0  0  0  0  0  0  0  0  0  0  0
    3.9534   -1.6470    0.3943 H   0  0  0  0  0  0  0  0  0  0  0  0
   -4.1551    2.6925    0.5872 H   0  0  0  0  0  0  0  0  0  0  0  0
   -5.7087    0.8411    0.0290 H   0  0  0  0  0  0  0  0  0  0  0  0
    6.2145   -0.7691    1.0186 H   0  0  0  0  0  0  0  0  0  0  0  0
    6.8382    0.2919   -0.2679 H   0  0  0  0  0  0  0  0  0  0  0  0
    6.1368   -1.2882   -0.6892 H   0  0  0  0  0  0  0  0  0  0  0  0
  1 13  1  0  0  0  0
  2 16  2  0  0  0  0
  3  6  1  0  0  0  0
  3 16  1  0  0  0  0
  3 24  1  0  0  0  0
  4  5  1  0  0  0  0
  4  7  2  0  0  0  0
  4  8  1  0  0  0  0
  5 11  2  0  0  0  0
  5 12  1  0  0  0  0
  6  9  2  0  0  0  0
  6 10  1  0  0  0  0
  7  9  1  0  0  0  0
  7 18  1  0  0  0  0
  8 10  2  0  0  0  0
  8 19  1  0  0  0  0
  9 20  1  0  0  0  0
 10 21  1  0  0  0  0
 11 13  1  0  0  0  0
 11 22  1  0  0  0  0
 12 14  2  0  0  0  0
 12 23  1  0  0  0  0
 13 15  2  0  0  0  0
 14 15  1  0  0  0  0
 14 25  1  0  0  0  0
 15 26  1  0  0  0  0
 16 17  1  0  0  0  0
 17 27  1  0  0  0  0
 17 28  1  0  0  0  0
 17 29  1  0  0  0  0
M  END
> <PUBCHEM_COMPOUND_CID>
12887

> <PUBCHEM_CONFORMER_RMSD>
0.6

> <PUBCHEM_CONFORMER_DIVERSEORDER>
1
4
3
2

> <PUBCHEM_MMFF94_PARTIAL_CHARGES>
24
1 -0.19
10 -0.15
11 -0.15
12 -0.15
13 0.19
14 -0.15
15 -0.15
16 0.57
17 0.06
18 0.15
19 0.15
2 -0.57
20 0.15
21 0.15
22 0.15
23 0.15
24 0.37
25 0.15
26 0.15
3 -0.55
6 0.12
7 -0.15
8 -0.15
9 -0.15

> <PUBCHEM_EFFECTIVE_ROTOR_COUNT>
3

> <PUBCHEM_PHARMACOPHORE_FEATURES>
4
1 2 acceptor
1 3 donor
6 4 6 7 8 9 10 rings
6 5 11 12 13 14 15 rings

> <PUBCHEM_HEAVY_ATOM_COUNT>
17

> <PUBCHEM_ATOM_DEF_STEREO_COUNT>
0

> <PUBCHEM_ATOM_UDEF_STEREO_COUNT>
0

> <PUBCHEM_BOND_DEF_STEREO_COUNT>
0

> <PUBCHEM_BOND_UDEF_STEREO_COUNT>
0

> <PUBCHEM_ISOTOPIC_ATOM_COUNT>
0

> <PUBCHEM_COMPONENT_COUNT>
1

> <PUBCHEM_CACTVS_TAUTO_COUNT>
2

> <PUBCHEM_CONFORMER_ID>
0000325700000001

> <PUBCHEM_MMFF94_ENERGY>
54.1795

> <PUBCHEM_FEATURE_SELFOVERLAP>
20.297

> <PUBCHEM_SHAPE_FINGERPRINT>
10014705 185 18272654597260622221
10912923 1 18343023315272415066
11287383 113 17095527266784573994
11315181 36 18333167271445167384
11401426 45 18413389847494474416
11806522 49 18411983537741737575
12107183 9 17618223252993032248
12236239 1 18411419513935677068
13167823 11 18408888464086436230
13288520 33 18260267439058267335
13533116 47 16988291979812098986
13862211 1 18343305872955677258
14251718 22 18259985955312293388
14251764 18 18273498979847411474
14528608 73 18413103940549507404
15196674 1 18411419535368295914
17834072 33 18409166597631058868
200 152 18409732846419959275
20279233 1 15339114667372043267
20300324 65 18334575729040014369
20645477 70 18188204433509902422
21267235 1 18410288082749513867
21709351 56 18272375273540190453
2297311 6 17821720637428761277
23402539 116 18407763637736437732
23402655 69 18340491174654292717
23557571 272 17821723944537670545
23559900 14 18261402113114284785
2916195 48 18187374199140855224
300161 21 18271531982787151717
34797466 226 17313376774092806148
34934 24 18270685406294857745
3545911 37 18409167744672208881
4214541 1 18408603681979528897
42788 4 18410011039920265036
474 4 17774436080126670020
4990 188 18113612413503073462
5104073 3 18411701023235255650
542803 24 18060136548467740284
7495541 125 17095528340241613538
77779 3 18335700576205102735
9709674 26 18409722976369419951

> <PUBCHEM_SHAPE_MULTIPOLES>
331.73
11.81
1.59
0.68
7.67
0.04
0.01
0.31
-1.05
-0.93
0.04
-0.09
-0.01
-0.75

> <PUBCHEM_SHAPE_SELFOVERLAP>
716.076

> <PUBCHEM_SHAPE_VOLUME>
182.3

> <PUBCHEM_COORDINATE_TYPE>
2
5
10

$$$$

