4984
  -OEChem-06261200273D

 63 66  0     1  0  0  0  0  0999 V2000
   -1.5513    2.7741    0.2586 O   0  0  0  0  0  0  0  0  0  0  0  0
   -2.3801    1.2080   -2.6635 O   0  0  0  0  0  0  0  0  0  0  0  0
   -3.7457    4.5048    0.6079 O   0  0  0  0  0  0  0  0  0  0  0  0
   -3.8833   -1.7488   -0.6177 O   0  0  0  0  0  0  0  0  0  0  0  0
    2.8368   -2.0408   -1.6074 O   0  0  0  0  0  0  0  0  0  0  0  0
    0.4099    1.9542   -0.7603 N   0  0  0  0  0  0  0  0  0  0  0  0
   -2.7032   -0.1542    0.5847 N   0  0  0  0  0  0  0  0  0  0  0  0
    2.5787    1.7282   -1.2241 N   0  0  0  0  0  0  0  0  0  0  0  0
    0.4075    1.2646    1.5688 N   0  0  0  0  0  0  0  0  0  0  0  0
   -4.0319   -2.9054    2.0590 N   0  0  0  0  0  0  0  0  0  0  0  0
    4.5595    0.7773    0.8776 N   0  0  0  0  0  0  0  0  0  0  0  0
    2.6519    0.6673    2.3185 N   0  0  0  0  0  0  0  0  0  0  0  0
   -2.9436    0.9437   -0.3240 C   0  0  2  0  0  0  0  0  0  0  0  0
   -1.8338    1.0295   -1.3597 C   0  0  2  0  0  0  0  0  0  0  0  0
   -2.8876    2.2776    0.4156 C   0  0  2  0  0  0  0  0  0  0  0  0
   -1.0082    2.2516   -0.9625 C   0  0  1  0  0  0  0  0  0  0  0  0
   -3.8611    3.3089   -0.1456 C   0  0  0  0  0  0  0  0  0  0  0  0
    0.9989    1.5147    0.3909 C   0  0  0  0  0  0  0  0  0  0  0  0
   -3.2029   -1.4320    0.3567 C   0  0  0  0  0  0  0  0  0  0  0  0
    1.3991    2.0663   -1.7012 C   0  0  0  0  0  0  0  0  0  0  0  0
   -2.7958   -2.4280    1.4382 C   0  0  2  0  0  0  0  0  0  0  0  0
    2.3434    1.3813    0.0826 C   0  0  0  0  0  0  0  0  0  0  0  0
   -2.0272   -3.6094    0.8283 C   0  0  0  0  0  0  0  0  0  0  0  0
    3.1814    0.9397    1.1015 C   0  0  0  0  0  0  0  0  0  0  0  0
   -0.7295   -3.1910    0.1779 C   0  0  0  0  0  0  0  0  0  0  0  0
    1.3176    0.8441    2.4743 C   0  0  0  0  0  0  0  0  0  0  0  0
   -0.7080   -2.8327   -1.1701 C   0  0  0  0  0  0  0  0  0  0  0  0
    0.4476   -3.1628    0.9258 C   0  0  0  0  0  0  0  0  0  0  0  0
    5.1359    1.0676   -0.4228 C   0  0  0  0  0  0  0  0  0  0  0  0
    5.4339    0.3296    1.9468 C   0  0  0  0  0  0  0  0  0  0  0  0
    0.4905   -2.4463   -1.7701 C   0  0  0  0  0  0  0  0  0  0  0  0
    1.6461   -2.7765    0.3260 C   0  0  0  0  0  0  0  0  0  0  0  0
    1.6675   -2.4183   -1.0220 C   0  0  0  0  0  0  0  0  0  0  0  0
    2.7868   -1.6868   -2.9887 C   0  0  0  0  0  0  0  0  0  0  0  0
   -3.9285    0.7841   -0.7776 H   0  0  0  0  0  0  0  0  0  0  0  0
   -1.2237    0.1219   -1.4055 H   0  0  0  0  0  0  0  0  0  0  0  0
   -3.0690    2.1708    1.4917 H   0  0  0  0  0  0  0  0  0  0  0  0
   -1.0567    3.0458   -1.7174 H   0  0  0  0  0  0  0  0  0  0  0  0
   -2.0876    0.0066    1.3768 H   0  0  0  0  0  0  0  0  0  0  0  0
   -3.6340    3.5492   -1.1891 H   0  0  0  0  0  0  0  0  0  0  0  0
   -4.8928    2.9506   -0.0742 H   0  0  0  0  0  0  0  0  0  0  0  0
   -2.9187    0.4231   -2.8628 H   0  0  0  0  0  0  0  0  0  0  0  0
    1.2013    2.3955   -2.7123 H   0  0  0  0  0  0  0  0  0  0  0  0
   -2.1807   -1.9402    2.2032 H   0  0  0  0  0  0  0  0  0  0  0  0
   -4.3780    5.1416    0.2331 H   0  0  0  0  0  0  0  0  0  0  0  0
   -1.8113   -4.3573    1.6034 H   0  0  0  0  0  0  0  0  0  0  0  0
   -2.6434   -4.1310    0.0826 H   0  0  0  0  0  0  0  0  0  0  0  0
   -3.8095   -3.5913    2.7795 H   0  0  0  0  0  0  0  0  0  0  0  0
   -4.4941   -2.1325    2.5370 H   0  0  0  0  0  0  0  0  0  0  0  0
    0.9277    0.6151    3.4602 H   0  0  0  0  0  0  0  0  0  0  0  0
   -1.6144   -2.8578   -1.7686 H   0  0  0  0  0  0  0  0  0  0  0  0
    0.4429   -3.4361    1.9775 H   0  0  0  0  0  0  0  0  0  0  0  0
    4.7183    0.4177   -1.1990 H   0  0  0  0  0  0  0  0  0  0  0  0
    5.0045    2.1211   -0.6917 H   0  0  0  0  0  0  0  0  0  0  0  0
    6.2171    0.8869   -0.4288 H   0  0  0  0  0  0  0  0  0  0  0  0
    5.4112    1.0366    2.7833 H   0  0  0  0  0  0  0  0  0  0  0  0
    5.1228   -0.6558    2.3106 H   0  0  0  0  0  0  0  0  0  0  0  0
    6.4756    0.2422    1.6210 H   0  0  0  0  0  0  0  0  0  0  0  0
    0.4358   -2.1813   -2.8204 H   0  0  0  0  0  0  0  0  0  0  0  0
    2.5595   -2.7534    0.9142 H   0  0  0  0  0  0  0  0  0  0  0  0
    2.4920   -2.5382   -3.6114 H   0  0  0  0  0  0  0  0  0  0  0  0
    2.1523   -0.8103   -3.1575 H   0  0  0  0  0  0  0  0  0  0  0  0
    3.8025   -1.4077   -3.2874 H   0  0  0  0  0  0  0  0  0  0  0  0
  1 15  1  0  0  0  0
  1 16  1  0  0  0  0
  2 14  1  0  0  0  0
  2 42  1  0  0  0  0
  3 17  1  0  0  0  0
  3 45  1  0  0  0  0
  4 19  2  0  0  0  0
  5 33  1  0  0  0  0
  5 34  1  0  0  0  0
  6 16  1  0  0  0  0
  6 18  1  0  0  0  0
  6 20  1  0  0  0  0
  7 13  1  0  0  0  0
  7 19  1  0  0  0  0
  7 39  1  0  0  0  0
  8 20  2  0  0  0  0
  8 22  1  0  0  0  0
  9 18  1  0  0  0  0
  9 26  2  0  0  0  0
 10 21  1  0  0  0  0
 10 48  1  0  0  0  0
 10 49  1  0  0  0  0
 11 24  1  0  0  0  0
 11 29  1  0  0  0  0
 11 30  1  0  0  0  0
 12 24  2  0  0  0  0
 12 26  1  0  0  0  0
 13 14  1  0  0  0  0
 13 15  1  0  0  0  0
 13 35  1  0  0  0  0
 14 16  1  0  0  0  0
 14 36  1  0  0  0  0
 15 17  1  0  0  0  0
 15 37  1  0  0  0  0
 16 38  1  0  0  0  0
 17 40  1  0  0  0  0
 17 41  1  0  0  0  0
 18 22  2  0  0  0  0
 19 21  1  0  0  0  0
 20 43  1  0  0  0  0
 21 23  1  0  0  0  0
 21 44  1  0  0  0  0
 22 24  1  0  0  0  0
 23 25  1  0  0  0  0
 23 46  1  0  0  0  0
 23 47  1  0  0  0  0
 25 27  2  0  0  0  0
 25 28  1  0  0  0  0
 26 50  1  0  0  0  0
 27 31  1  0  0  0  0
 27 51  1  0  0  0  0
 28 32  2  0  0  0  0
 28 52  1  0  0  0  0
 29 53  1  0  0  0  0
 29 54  1  0  0  0  0
 29 55  1  0  0  0  0
 30 56  1  0  0  0  0
 30 57  1  0  0  0  0
 30 58  1  0  0  0  0
 31 33  2  0  0  0  0
 31 59  1  0  0  0  0
 32 33  1  0  0  0  0
 32 60  1  0  0  0  0
 34 61  1  0  0  0  0
 34 62  1  0  0  0  0
 34 63  1  0  0  0  0
M  END
> <PUBCHEM_COMPOUND_CID>
4984

> <PUBCHEM_CONFORMER_RMSD>
1.4

> <PUBCHEM_CONFORMER_DIVERSEORDER>
1
108
44
147
71
76
156
52
9
127
160
116
95
11
132
93
161
152
73
141
30
140
94
59
129
32
19
146
137
65
2
4
68
151
20
142
26
80
16
155
45
101
148
53
10
14
115
79
99
41
162
135
81
55
149
105
70
61
124
28
114
35
107
109
110
150
46
164
33
75
25
34
97
83
133
126
47
122
163
42
159
117
157
88
134
104
51
56
38
54
63
158
123
77
78
17
113
69
57
74
96
31
39
120
66
37
13
21
43
8
82
12
92
111
145
103
125
121
144
29
84
23
119
138
6
64
85
60
62
22
49
139
15
36
128
102
50
5
130
100
18
98
154
24
3
72
153
112
7
90
136
131
89
91
106
67
86
143
58
87
118
48
27
40

> <PUBCHEM_MMFF94_PARTIAL_CHARGES>
45
1 -0.56
10 -0.99
11 -0.84
12 -0.62
13 0.3
14 0.28
15 0.28
16 0.54
17 0.28
18 0.11
19 0.57
2 -0.68
20 0.04
21 0.33
22 0.23
23 0.14
24 0.41
25 -0.14
26 0.47
27 -0.15
28 -0.15
29 0.37
3 -0.68
30 0.37
31 -0.15
32 -0.15
33 0.08
34 0.28
39 0.37
4 -0.57
42 0.4
43 0.15
45 0.4
48 0.36
49 0.36
5 -0.36
50 0.15
51 0.15
52 0.15
59 0.15
6 0.05
60 0.15
7 -0.73
8 -0.57
9 -0.57

> <PUBCHEM_EFFECTIVE_ROTOR_COUNT>
10

> <PUBCHEM_PHARMACOPHORE_FEATURES>
17
1 1 acceptor
1 10 cation
1 10 donor
1 2 acceptor
1 2 donor
1 3 acceptor
1 3 donor
1 4 acceptor
1 5 acceptor
1 7 donor
3 11 12 24 cation
3 6 8 20 cation
3 9 12 26 cation
5 1 13 14 15 16 rings
5 6 8 18 20 22 rings
6 25 27 28 31 32 33 rings
6 9 12 18 22 24 26 rings

> <PUBCHEM_HEAVY_ATOM_COUNT>
34

> <PUBCHEM_ATOM_DEF_STEREO_COUNT>
0

> <PUBCHEM_ATOM_UDEF_STEREO_COUNT>
5

> <PUBCHEM_BOND_DEF_STEREO_COUNT>
0

> <PUBCHEM_BOND_UDEF_STEREO_COUNT>
0

> <PUBCHEM_ISOTOPIC_ATOM_COUNT>
0

> <PUBCHEM_COMPONENT_COUNT>
1

> <PUBCHEM_CACTVS_TAUTO_COUNT>
2

> <PUBCHEM_CONFORMER_ID>
0000137800000001

> <PUBCHEM_MMFF94_ENERGY>
90.6079

> <PUBCHEM_FEATURE_SELFOVERLAP>
86.513

> <PUBCHEM_SHAPE_FINGERPRINT>
11513181 2 18114751524297640502
12156800 1 18058430106485053870
12293681 4 5585172675990394769
12422481 6 18336251350116683834
12553582 1 17906444438247019789
12633257 1 17243286119898077971
12788726 201 18125705799757268756
131258 38 16835172576709124738
13140716 1 17979077085113519111
133893 2 17401246689319993157
13402501 40 18335421231527344362
13726171 33 18055608664937802756
14178342 30 18411701019120077365
14251751 93 18342186522768310250
14251757 17 18261658355669821190
14932702 115 17832103424920098918
17093844 170 18411416206784504863
20691752 17 17911532196054800125
20764821 26 18269842080501839747
20905425 154 18335133181013803951
23419403 2 17968917791384513814
23558518 356 18339082709176028989
238 59 17898041050942950511
238918 7 18187366485348183054
3052486 1 18201430355763943718
35225 105 17823988822431729080
508706 21 18409721850760811023
5265222 85 18189330166413933556

> <PUBCHEM_SHAPE_MULTIPOLES>
635.49
7.9
5.3
2.36
4.21
0.9
0.42
-2.78
-2.46
-5.15
-0.04
1.45
0.55
1.97

> <PUBCHEM_SHAPE_SELFOVERLAP>
1362.206

> <PUBCHEM_SHAPE_VOLUME>
348

> <PUBCHEM_COORDINATE_TYPE>
2
5
10

$$$$

