7847002
  -OEChem-06241222483D

 49 51  0     0  0  0  0  0  0999 V2000
    4.3541    0.6620   -0.9533 S   0  0  0  0  0  0  0  0  0  0  0  0
    1.5519   -2.6503   -0.3629 O   0  0  0  0  0  0  0  0  0  0  0  0
   -5.4494    0.1294    0.7095 O   0  0  0  0  0  0  0  0  0  0  0  0
   -2.7668   -3.4722   -0.0960 O   0  0  0  0  0  0  0  0  0  0  0  0
   -0.2456   -1.7517   -2.2521 O   0  0  0  0  0  0  0  0  0  0  0  0
    2.0428   -2.8813    1.8794 O   0  0  0  0  0  0  0  0  0  0  0  0
   -3.3273    0.5191   -0.1851 N   0  0  0  0  0  0  0  0  0  0  0  0
   -4.0970   -1.6521    0.3006 N   0  0  0  0  0  0  0  0  0  0  0  0
   -1.1258    0.8863   -1.1092 N   0  0  0  0  0  0  0  0  0  0  0  0
    2.9194    0.4165    1.1760 N   0  0  0  0  0  0  0  0  0  0  0  0
   -3.5536    1.9670   -0.2079 C   0  0  0  0  0  0  0  0  0  0  0  0
   -2.0914    0.0122   -0.6472 C   0  0  0  0  0  0  0  0  0  0  0  0
   -3.1140    2.6437    1.0848 C   0  0  0  0  0  0  0  0  0  0  0  0
   -1.8824   -1.3295   -0.6256 C   0  0  0  0  0  0  0  0  0  0  0  0
   -4.3641   -0.2921    0.3010 C   0  0  0  0  0  0  0  0  0  0  0  0
   -2.9366   -2.2555   -0.1234 C   0  0  0  0  0  0  0  0  0  0  0  0
   -0.6113   -1.9237   -1.0951 C   0  0  0  0  0  0  0  0  0  0  0  0
    4.5519   -1.4420    0.8477 C   0  0  0  0  0  0  0  0  0  0  0  0
   -3.3658    4.1448    1.0780 C   0  0  0  0  0  0  0  0  0  0  0  0
    3.8304   -2.6492    0.2465 C   0  0  0  0  0  0  0  0  0  0  0  0
    0.1689   -2.7241   -0.0809 C   0  0  0  0  0  0  0  0  0  0  0  0
    3.8736   -0.1489    0.4740 C   0  0  0  0  0  0  0  0  0  0  0  0
    3.1921    1.8948   -0.6321 C   0  0  0  0  0  0  0  0  0  0  0  0
    2.5181    1.5898    0.5542 C   0  0  0  0  0  0  0  0  0  0  0  0
    2.3966   -2.7426    0.7167 C   0  0  0  0  0  0  0  0  0  0  0  0
    2.8982    3.0486   -1.3766 C   0  0  0  0  0  0  0  0  0  0  0  0
    1.5148    2.4726    1.0095 C   0  0  0  0  0  0  0  0  0  0  0  0
    1.9010    3.9054   -0.9038 C   0  0  0  0  0  0  0  0  0  0  0  0
    1.2171    3.6231    0.2734 C   0  0  0  0  0  0  0  0  0  0  0  0
   -4.6306    2.1409   -0.3328 H   0  0  0  0  0  0  0  0  0  0  0  0
   -3.1010    2.4254   -1.0935 H   0  0  0  0  0  0  0  0  0  0  0  0
   -3.6434    2.1980    1.9358 H   0  0  0  0  0  0  0  0  0  0  0  0
   -2.0464    2.4646    1.2575 H   0  0  0  0  0  0  0  0  0  0  0  0
   -4.8316   -2.2623    0.6479 H   0  0  0  0  0  0  0  0  0  0  0  0
    4.5600   -1.5230    1.9419 H   0  0  0  0  0  0  0  0  0  0  0  0
    5.5997   -1.4389    0.5248 H   0  0  0  0  0  0  0  0  0  0  0  0
   -3.0372    4.5890    2.0227 H   0  0  0  0  0  0  0  0  0  0  0  0
   -4.4309    4.3621    0.9509 H   0  0  0  0  0  0  0  0  0  0  0  0
   -2.8155    4.6283    0.2645 H   0  0  0  0  0  0  0  0  0  0  0  0
    3.8571   -2.6022   -0.8490 H   0  0  0  0  0  0  0  0  0  0  0  0
    4.3344   -3.5789    0.5329 H   0  0  0  0  0  0  0  0  0  0  0  0
   -0.0586   -2.3372    0.9190 H   0  0  0  0  0  0  0  0  0  0  0  0
   -0.1434   -3.7707   -0.1496 H   0  0  0  0  0  0  0  0  0  0  0  0
   -1.2184    1.8825   -0.9732 H   0  0  0  0  0  0  0  0  0  0  0  0
   -0.2356    0.5267   -1.4312 H   0  0  0  0  0  0  0  0  0  0  0  0
    3.4278    3.2751   -2.2968 H   0  0  0  0  0  0  0  0  0  0  0  0
    0.9723    2.2607    1.9265 H   0  0  0  0  0  0  0  0  0  0  0  0
    1.6571    4.8033   -1.4655 H   0  0  0  0  0  0  0  0  0  0  0  0
    0.4425    4.2995    0.6245 H   0  0  0  0  0  0  0  0  0  0  0  0
  1 22  1  0  0  0  0
  1 23  1  0  0  0  0
  2 21  1  0  0  0  0
  2 25  1  0  0  0  0
  3 15  2  0  0  0  0
  4 16  2  0  0  0  0
  5 17  2  0  0  0  0
  6 25  2  0  0  0  0
  7 11  1  0  0  0  0
  7 12  1  0  0  0  0
  7 15  1  0  0  0  0
  8 15  1  0  0  0  0
  8 16  1  0  0  0  0
  8 34  1  0  0  0  0
  9 12  1  0  0  0  0
  9 44  1  0  0  0  0
  9 45  1  0  0  0  0
 10 22  2  0  0  0  0
 10 24  1  0  0  0  0
 11 13  1  0  0  0  0
 11 30  1  0  0  0  0
 11 31  1  0  0  0  0
 12 14  2  0  0  0  0
 13 19  1  0  0  0  0
 13 32  1  0  0  0  0
 13 33  1  0  0  0  0
 14 16  1  0  0  0  0
 14 17  1  0  0  0  0
 17 21  1  0  0  0  0
 18 20  1  0  0  0  0
 18 22  1  0  0  0  0
 18 35  1  0  0  0  0
 18 36  1  0  0  0  0
 19 37  1  0  0  0  0
 19 38  1  0  0  0  0
 19 39  1  0  0  0  0
 20 25  1  0  0  0  0
 20 40  1  0  0  0  0
 20 41  1  0  0  0  0
 21 42  1  0  0  0  0
 21 43  1  0  0  0  0
 23 24  1  0  0  0  0
 23 26  2  0  0  0  0
 24 27  2  0  0  0  0
 26 28  1  0  0  0  0
 26 46  1  0  0  0  0
 27 29  1  0  0  0  0
 27 47  1  0  0  0  0
 28 29  2  0  0  0  0
 28 48  1  0  0  0  0
 29 49  1  0  0  0  0
M  END
> <PUBCHEM_COMPOUND_CID>
7847002

> <PUBCHEM_CONFORMER_RMSD>
1.2

> <PUBCHEM_CONFORMER_DIVERSEORDER>
2
76
165
200
43
102
27
141
219
128
167
138
179
171
217
121
41
86
69
131
189
196
50
94
255
115
140
146
231
133
67
84
26
123
104
68
188
223
236
139
3
73
45
230
202
218
134
210
62
183
224
164
23
85
109
163
80
21
182
251
108
172
6
60
89
111
254
7
229
55
209
116
28
247
225
12
205
256
248
37
18
178
173
30
47
226
34
152
136
24
175
186
114
96
49
235
145
81
206
216
162
32
75
176
54
232
157
29
122
107
246
93
87
110
135
113
214
212
125
57
187
19
127
215
241
193
181
197
199
253
39
112
204
170
234
79
1
44
66
137
51
203
149
198
184
130
33
222
154
74
191
161
158
91
117
243
126
83
103
159
38
31
40
237
71
242
95
169
233
228
190
15
5
36
245
238
160
63
13
250
46
97
77
180
101
192
82
244
177
148
143
185
240
70
132
100
4
208
142
98
20
227
106
58
124
72
168
11
252
105
213
118
194
92
53
221
10
48
220
61
17
16
144
90
150
239
78
155
211
65
166
119
201
147
59
35
120
22
249
52
8
207
99
56
25
156
88
64
129
42
174
151
195
14
9
153

> <PUBCHEM_MMFF94_PARTIAL_CHARGES>
34
1 -0.08
10 -0.57
11 0.3
12 0.21
14 0.03
15 0.69
16 0.62
17 0.49
18 0.18
2 -0.43
20 0.06
21 0.34
22 0.2
23 0.04
24 0.23
25 0.66
26 -0.15
27 -0.15
28 -0.15
29 -0.15
3 -0.57
34 0.37
4 -0.57
44 0.4
45 0.4
46 0.15
47 0.15
48 0.15
49 0.15
5 -0.57
6 -0.57
7 -0.47
8 -0.49
9 -0.9

> <PUBCHEM_EFFECTIVE_ROTOR_COUNT>
9

> <PUBCHEM_PHARMACOPHORE_FEATURES>
13
1 10 acceptor
1 14 anion
1 19 hydrophobe
1 3 acceptor
1 4 acceptor
1 5 acceptor
1 6 acceptor
1 8 donor
1 9 cation
1 9 donor
5 1 10 22 23 24 rings
6 23 24 26 27 28 29 rings
6 7 8 12 14 15 16 rings

> <PUBCHEM_HEAVY_ATOM_COUNT>
29

> <PUBCHEM_ATOM_DEF_STEREO_COUNT>
0

> <PUBCHEM_ATOM_UDEF_STEREO_COUNT>
0

> <PUBCHEM_BOND_DEF_STEREO_COUNT>
0

> <PUBCHEM_BOND_UDEF_STEREO_COUNT>
0

> <PUBCHEM_ISOTOPIC_ATOM_COUNT>
0

> <PUBCHEM_COMPONENT_COUNT>
1

> <PUBCHEM_CACTVS_TAUTO_COUNT>
38

> <PUBCHEM_CONFORMER_ID>
0077BC5A00000002

> <PUBCHEM_MMFF94_ENERGY>
59.3485

> <PUBCHEM_FEATURE_SELFOVERLAP>
66.037

> <PUBCHEM_SHAPE_FINGERPRINT>
10074138 170 16184435961838599906
11513181 2 17171249721534286263
11578080 2 17417265332828712543
12422481 6 17975720560220311794
12633257 1 18202015325566597626
12788726 201 17906444433488225268
12925494 130 18265618865436220457
12978246 48 18409448094056375369
13122387 1 17184474754862400384
13140716 1 18193002504088506265
13583140 156 17988093299869059807
14020679 6 17769913982201627057
14117953 113 17616812570990325124
150020 26 18260270763015184834
151778 21 18198059184008479772
15297060 5 17460311285827779186
15475509 84 17264138748935616050
19930381 70 17834966269372555451
20465049 17 18267849624019941134
20764821 26 17765163052092157309
2637199 183 18198337360861854662
338550 245 18338230565393418969
392239 28 18128811958998338667
4573279 73 18261690225002170501
463206 1 18267016357309784568
5312544 6 18196659479894436175
5776283 40 17908122302030172100
6287921 2 18199469857421680574
7097593 13 18411989052469293692

> <PUBCHEM_SHAPE_MULTIPOLES>
551.39
9.55
5.73
1.35
4.1
2.4
0.15
0.22
-1.7
-0.42
-0.48
-0.53
0.05
-2.31

> <PUBCHEM_SHAPE_SELFOVERLAP>
1161

> <PUBCHEM_SHAPE_VOLUME>
309.9

> <PUBCHEM_COORDINATE_TYPE>
2
5
10

$$$$

