854059
  -OEChem-06241222473D

 31 33  0     1  0  0  0  0  0999 V2000
   -2.1692    3.1910   -0.0695 S   0  0  0  0  0  0  0  0  0  0  0  0
    0.4517   -1.1434   -0.4149 O   0  0  0  0  0  0  0  0  0  0  0  0
   -1.1227    0.5996   -0.1704 N   0  0  0  0  0  0  0  0  0  0  0  0
    0.3349    2.3041   -0.2428 N   0  0  0  0  0  0  0  0  0  0  0  0
    3.5982   -0.9886    1.1096 N   0  0  0  0  0  0  0  0  0  0  0  0
    5.0380   -0.9762   -0.5811 N   0  0  0  0  0  0  0  0  0  0  0  0
    1.1748    1.1526   -0.4005 C   0  0  1  0  0  0  0  0  0  0  0  0
    2.1943    1.0302    0.7134 C   0  0  0  0  0  0  0  0  0  0  0  0
    0.1396    0.0401   -0.3480 C   0  0  0  0  0  0  0  0  0  0  0  0
   -1.0159    1.9865   -0.1294 C   0  0  0  0  0  0  0  0  0  0  0  0
    3.3167    0.0887    0.3532 C   0  0  0  0  0  0  0  0  0  0  0  0
   -2.3067   -0.1898   -0.0552 C   0  0  0  0  0  0  0  0  0  0  0  0
    4.1905    0.0993   -0.6752 C   0  0  0  0  0  0  0  0  0  0  0  0
   -2.3903   -1.4237   -0.7022 C   0  0  0  0  0  0  0  0  0  0  0  0
   -3.3823    0.2705    0.7057 C   0  0  0  0  0  0  0  0  0  0  0  0
    4.6547   -1.6105    0.5046 C   0  0  0  0  0  0  0  0  0  0  0  0
   -3.5467   -2.1953   -0.5887 C   0  0  0  0  0  0  0  0  0  0  0  0
   -4.5388   -0.5010    0.8193 C   0  0  0  0  0  0  0  0  0  0  0  0
   -4.6210   -1.7340    0.1720 C   0  0  0  0  0  0  0  0  0  0  0  0
    1.6139    1.1981   -1.4022 H   0  0  0  0  0  0  0  0  0  0  0  0
    1.7160    0.7096    1.6484 H   0  0  0  0  0  0  0  0  0  0  0  0
    2.6434    2.0112    0.9185 H   0  0  0  0  0  0  0  0  0  0  0  0
    0.6765    3.2592   -0.2863 H   0  0  0  0  0  0  0  0  0  0  0  0
    3.1306   -1.2886    1.9553 H   0  0  0  0  0  0  0  0  0  0  0  0
    4.2754    0.8088   -1.4853 H   0  0  0  0  0  0  0  0  0  0  0  0
   -1.5998   -1.8018   -1.3420 H   0  0  0  0  0  0  0  0  0  0  0  0
   -3.3413    1.1726    1.3031 H   0  0  0  0  0  0  0  0  0  0  0  0
    5.0935   -2.5145    0.9024 H   0  0  0  0  0  0  0  0  0  0  0  0
   -3.6151   -3.1510   -1.1003 H   0  0  0  0  0  0  0  0  0  0  0  0
   -5.3679   -0.1521    1.4282 H   0  0  0  0  0  0  0  0  0  0  0  0
   -5.5205   -2.3358    0.2625 H   0  0  0  0  0  0  0  0  0  0  0  0
  1 10  2  0  0  0  0
  2  9  2  0  0  0  0
  3  9  1  0  0  0  0
  3 10  1  0  0  0  0
  3 12  1  0  0  0  0
  4  7  1  0  0  0  0
  4 10  1  0  0  0  0
  4 23  1  0  0  0  0
  5 11  1  0  0  0  0
  5 16  1  0  0  0  0
  5 24  1  0  0  0  0
  6 13  1  0  0  0  0
  6 16  2  0  0  0  0
  7  8  1  0  0  0  0
  7  9  1  0  0  0  0
  7 20  1  0  0  0  0
  8 11  1  0  0  0  0
  8 21  1  0  0  0  0
  8 22  1  0  0  0  0
 11 13  2  0  0  0  0
 12 14  2  0  0  0  0
 12 15  1  0  0  0  0
 13 25  1  0  0  0  0
 14 17  1  0  0  0  0
 14 26  1  0  0  0  0
 15 18  2  0  0  0  0
 15 27  1  0  0  0  0
 16 28  1  0  0  0  0
 17 19  2  0  0  0  0
 17 29  1  0  0  0  0
 18 19  1  0  0  0  0
 18 30  1  0  0  0  0
 19 31  1  0  0  0  0
M  END
> <PUBCHEM_COMPOUND_CID>
854059

> <PUBCHEM_CONFORMER_RMSD>
0.6

> <PUBCHEM_CONFORMER_DIVERSEORDER>
1
14
4
12
6
13
10
3
8
7
9
5
11
2

> <PUBCHEM_MMFF94_PARTIAL_CHARGES>
28
1 -0.38
10 0.5
11 -0.33
12 0.12
13 0.08
14 -0.15
15 -0.15
16 0.04
17 -0.15
18 -0.15
19 -0.15
2 -0.57
23 0.37
24 0.27
25 0.15
26 0.15
27 0.15
28 0.15
29 0.15
3 -0.24
30 0.15
31 0.15
4 -0.73
5 0.03
6 -0.57
7 0.36
8 0.18
9 0.57

> <PUBCHEM_EFFECTIVE_ROTOR_COUNT>
3.6

> <PUBCHEM_PHARMACOPHORE_FEATURES>
8
1 1 acceptor
1 2 acceptor
1 4 donor
1 5 donor
3 5 6 16 cation
5 3 4 7 9 10 rings
5 5 6 11 13 16 rings
6 12 14 15 17 18 19 rings

> <PUBCHEM_HEAVY_ATOM_COUNT>
19

> <PUBCHEM_ATOM_DEF_STEREO_COUNT>
1

> <PUBCHEM_ATOM_UDEF_STEREO_COUNT>
0

> <PUBCHEM_BOND_DEF_STEREO_COUNT>
0

> <PUBCHEM_BOND_UDEF_STEREO_COUNT>
0

> <PUBCHEM_ISOTOPIC_ATOM_COUNT>
0

> <PUBCHEM_COMPONENT_COUNT>
1

> <PUBCHEM_CACTVS_TAUTO_COUNT>
4

> <PUBCHEM_CONFORMER_ID>
000D082B00000001

> <PUBCHEM_MMFF94_ENERGY>
53.1164

> <PUBCHEM_FEATURE_SELFOVERLAP>
40.594

> <PUBCHEM_SHAPE_FINGERPRINT>
10616163 171 18339081613463691030
11046707 91 18409730659885973265
11543360 7 15051735270006975202
12032990 46 18411139112679756300
12553582 1 18341059544402890882
12633257 1 17531514434898140945
12643181 29 17905326587537008998
13140716 1 18263075540231908481
13533116 47 18046630006383847251
13544653 18 18273214166483593429
13675066 3 16443062807322985514
15042514 8 18267021841603154388
15209289 33 18272086084939456931
15342168 16 8069759506834172763
15885798 251 18410575054841050385
16752209 62 18269292285790354033
17804303 29 18333449845864914376
1813 80 18131625677666461996
18222031 100 18335711481438550655
19141452 34 18113898247745333287
19422 9 18201999988712708112
19784866 135 18410016558563019617
200 152 17847061095046722186
20028762 73 17969503697807056399
20281475 54 18410856534028481788
20291156 8 18412830161610748576
204376 136 8214149568347873221
21267235 1 18338507561215066331
21339142 126 18409449206806235237
22950370 63 18412538795424711842
2297311 6 18261943124769909766
23402539 116 18259990366660405599
235170 7 15482678987032428658
23557571 272 18115015433100001668
23559900 14 18409741646397109400
24859131 72 18259983773468900663
2748010 2 17976242858134040133
3091708 16 9135246742762133425
312423 11 18272639156668531404
3286 77 17458910327456385377
335352 9 18410292523909228693
351380 3 18342737407779178650
465052 167 18338227176637945919
5104073 3 18043520634808330795
7970288 3 18341335504621254683
83771 10 18413952775930926200
8863177 126 17700398192923233771

> <PUBCHEM_SHAPE_MULTIPOLES>
369.07
10.08
2.71
0.88
5.78
1.69
0.07
-6.8
1.19
-2.1
-0.25
0.12
-0.13
-0.41

> <PUBCHEM_SHAPE_SELFOVERLAP>
795.895

> <PUBCHEM_SHAPE_VOLUME>
205.3

> <PUBCHEM_COORDINATE_TYPE>
2
5
10

$$$$

