9244
  -OEChem-06261203323D

 14 15  0     1  0  0  0  0  0999 V2000
   -1.3196   -0.0001    0.6893 O   0  0  0  0  0  0  0  0  0  0  0  0
   -0.7261    0.7422   -0.3832 C   0  0  2  0  0  0  0  0  0  0  0  0
   -0.7260   -0.7423   -0.3832 C   0  0  1  0  0  0  0  0  0  0  0  0
    0.6764    1.2188   -0.1642 C   0  0  0  0  0  0  0  0  0  0  0  0
    0.6765   -1.2188   -0.1642 C   0  0  0  0  0  0  0  0  0  0  0  0
    1.4187    0.0001    0.4055 C   0  0  0  0  0  0  0  0  0  0  0  0
   -1.3446    1.3092   -1.0572 H   0  0  0  0  0  0  0  0  0  0  0  0
   -1.3446   -1.3093   -1.0572 H   0  0  0  0  0  0  0  0  0  0  0  0
    0.7188    2.0719    0.5190 H   0  0  0  0  0  0  0  0  0  0  0  0
    1.1170    1.5155   -1.1223 H   0  0  0  0  0  0  0  0  0  0  0  0
    1.1172   -1.5154   -1.1222 H   0  0  0  0  0  0  0  0  0  0  0  0
    0.7190   -2.0718    0.5190 H   0  0  0  0  0  0  0  0  0  0  0  0
    2.4839    0.0001    0.1571 H   0  0  0  0  0  0  0  0  0  0  0  0
    1.3306    0.0001    1.4992 H   0  0  0  0  0  0  0  0  0  0  0  0
  1  2  1  0  0  0  0
  1  3  1  0  0  0  0
  2  3  1  0  0  0  0
  2  4  1  0  0  0  0
  2  7  1  0  0  0  0
  3  5  1  0  0  0  0
  3  8  1  0  0  0  0
  4  6  1  0  0  0  0
  4  9  1  0  0  0  0
  4 10  1  0  0  0  0
  5  6  1  0  0  0  0
  5 11  1  0  0  0  0
  5 12  1  0  0  0  0
  6 13  1  0  0  0  0
  6 14  1  0  0  0  0
M  END
> <PUBCHEM_COMPOUND_CID>
9244

> <PUBCHEM_CONFORMER_RMSD>
0.4

> <PUBCHEM_CONFORMER_DIVERSEORDER>
1

> <PUBCHEM_MMFF94_PARTIAL_CHARGES>
7
1 -0.3
2 -0.05
3 -0.05
4 0.09
5 0.09
7 0.1
8 0.1

> <PUBCHEM_EFFECTIVE_ROTOR_COUNT>
0.8

> <PUBCHEM_PHARMACOPHORE_FEATURES>
2
1 1 acceptor
6 1 2 3 4 5 6 rings

> <PUBCHEM_HEAVY_ATOM_COUNT>
6

> <PUBCHEM_ATOM_DEF_STEREO_COUNT>
0

> <PUBCHEM_ATOM_UDEF_STEREO_COUNT>
2

> <PUBCHEM_BOND_DEF_STEREO_COUNT>
0

> <PUBCHEM_BOND_UDEF_STEREO_COUNT>
0

> <PUBCHEM_ISOTOPIC_ATOM_COUNT>
0

> <PUBCHEM_COMPONENT_COUNT>
1

> <PUBCHEM_CACTVS_TAUTO_COUNT>
1

> <PUBCHEM_CONFORMER_ID>
0000241C00000001

> <PUBCHEM_MMFF94_ENERGY>
13.904

> <PUBCHEM_FEATURE_SELFOVERLAP>
10.148

> <PUBCHEM_SHAPE_FINGERPRINT>
20096714 4 18264202526311893600
21015797 1 9146459562146234684
21040471 1 18408602526485438365
29004967 10 18272644683890163915
5943 1 18046356240197835895

> <PUBCHEM_SHAPE_MULTIPOLES>
117.61
1.51
1.31
0.75
0.11
0
-0.03
0
-0.2
0.18
0.16
-0.08
0
0

> <PUBCHEM_SHAPE_SELFOVERLAP>
239.681

> <PUBCHEM_SHAPE_VOLUME>
70.9

> <PUBCHEM_COORDINATE_TYPE>
2
5
10

$$$$

