4087
  -OEChem-06251223523D

 25 25  0     1  0  0  0  0  0999 V2000
   -1.6001   -0.1072   -1.8858 O   0  0  0  0  0  0  0  0  0  0  0  0
    2.7824   -1.9617    0.1188 O   0  0  0  0  0  0  0  0  0  0  0  0
   -3.6789   -0.4352    0.0427 N   0  0  0  0  0  0  0  0  0  0  0  0
   -1.4412    0.4010   -0.5584 C   0  0  1  0  0  0  0  0  0  0  0  0
   -2.2642   -0.4492    0.4354 C   0  0  1  0  0  0  0  0  0  0  0  0
    0.0445    0.4076   -0.2682 C   0  0  0  0  0  0  0  0  0  0  0  0
   -2.1679    0.0688    1.8718 C   0  0  0  0  0  0  0  0  0  0  0  0
    0.7265   -0.7950   -0.2102 C   0  0  0  0  0  0  0  0  0  0  0  0
    0.6872    1.6164   -0.0670 C   0  0  0  0  0  0  0  0  0  0  0  0
    2.0953   -0.7886    0.0575 C   0  0  0  0  0  0  0  0  0  0  0  0
    2.0561    1.6228    0.2007 C   0  0  0  0  0  0  0  0  0  0  0  0
    2.7601    0.4203    0.2628 C   0  0  0  0  0  0  0  0  0  0  0  0
   -1.8245    1.4291   -0.5705 H   0  0  0  0  0  0  0  0  0  0  0  0
   -1.9436   -1.4967    0.4142 H   0  0  0  0  0  0  0  0  0  0  0  0
   -1.1459   -0.0128    2.2554 H   0  0  0  0  0  0  0  0  0  0  0  0
   -2.4727    1.1192    1.9417 H   0  0  0  0  0  0  0  0  0  0  0  0
   -2.8109   -0.5137    2.5416 H   0  0  0  0  0  0  0  0  0  0  0  0
    0.2159   -1.7387   -0.3795 H   0  0  0  0  0  0  0  0  0  0  0  0
    0.1498    2.5590   -0.1123 H   0  0  0  0  0  0  0  0  0  0  0  0
   -3.7686   -0.7504   -0.9225 H   0  0  0  0  0  0  0  0  0  0  0  0
   -4.0310    0.5216    0.0589 H   0  0  0  0  0  0  0  0  0  0  0  0
   -1.7773   -1.0616   -1.8342 H   0  0  0  0  0  0  0  0  0  0  0  0
    2.5738    2.5641    0.3610 H   0  0  0  0  0  0  0  0  0  0  0  0
    3.8263    0.4318    0.4720 H   0  0  0  0  0  0  0  0  0  0  0  0
    2.1674   -2.6969   -0.0461 H   0  0  0  0  0  0  0  0  0  0  0  0
  1  4  1  0  0  0  0
  1 22  1  0  0  0  0
  2 10  1  0  0  0  0
  2 25  1  0  0  0  0
  3  5  1  0  0  0  0
  3 20  1  0  0  0  0
  3 21  1  0  0  0  0
  4  5  1  0  0  0  0
  4  6  1  0  0  0  0
  4 13  1  0  0  0  0
  5  7  1  0  0  0  0
  5 14  1  0  0  0  0
  6  8  2  0  0  0  0
  6  9  1  0  0  0  0
  7 15  1  0  0  0  0
  7 16  1  0  0  0  0
  7 17  1  0  0  0  0
  8 10  1  0  0  0  0
  8 18  1  0  0  0  0
  9 11  2  0  0  0  0
  9 19  1  0  0  0  0
 10 12  2  0  0  0  0
 11 12  1  0  0  0  0
 11 23  1  0  0  0  0
 12 24  1  0  0  0  0
M  END
> <PUBCHEM_COMPOUND_CID>
4087

> <PUBCHEM_CONFORMER_RMSD>
0.6

> <PUBCHEM_CONFORMER_DIVERSEORDER>
1
17
9
5
4
22
14
11
16
8
18
19
3
21
10
6
7
15
13
12
2
20

> <PUBCHEM_MMFF94_PARTIAL_CHARGES>
19
1 -0.68
10 0.08
11 -0.15
12 -0.15
18 0.15
19 0.15
2 -0.53
20 0.36
21 0.36
22 0.4
23 0.15
24 0.15
25 0.45
3 -0.99
4 0.42
5 0.27
6 -0.14
8 -0.15
9 -0.15

> <PUBCHEM_EFFECTIVE_ROTOR_COUNT>
2

> <PUBCHEM_PHARMACOPHORE_FEATURES>
6
1 1 acceptor
1 1 donor
1 2 donor
1 3 cation
1 3 donor
6 6 8 9 10 11 12 rings

> <PUBCHEM_HEAVY_ATOM_COUNT>
12

> <PUBCHEM_ATOM_DEF_STEREO_COUNT>
0

> <PUBCHEM_ATOM_UDEF_STEREO_COUNT>
2

> <PUBCHEM_BOND_DEF_STEREO_COUNT>
0

> <PUBCHEM_BOND_UDEF_STEREO_COUNT>
0

> <PUBCHEM_ISOTOPIC_ATOM_COUNT>
0

> <PUBCHEM_COMPONENT_COUNT>
1

> <PUBCHEM_CACTVS_TAUTO_COUNT>
3

> <PUBCHEM_CONFORMER_ID>
00000FF700000001

> <PUBCHEM_MMFF94_ENERGY>
24.2537

> <PUBCHEM_FEATURE_SELFOVERLAP>
30.449

> <PUBCHEM_SHAPE_FINGERPRINT>
107287 299 18058722503647760380
11471102 22 18413383224612771224
12716758 59 16557923358000796133
12932764 1 17821737108570410116
13538477 17 17168148884264585247
15219456 202 18130797753958697173
15775835 57 17458618978328957081
16945 1 18337964398065013108
17357990 137 17023722589958538624
17841504 4 18411417345045842416
17844478 74 18060698385803196461
20201158 50 18131633374168832251
20279233 1 17846779576856627147
20281407 28 17632286878648832555
20645477 70 18411707599278974311
20711985 344 16987725760555316389
20871998 22 18116990194817865630
21061003 4 18268421507189028146
23557571 272 16845578625563475116
2748010 2 18193289704794673300
29004967 10 18342739615539769376
77492 1 17676207944451696597
81228 2 17618798289480627272

> <PUBCHEM_SHAPE_MULTIPOLES>
230.23
4.78
1.49
1.2
1.65
0.04
0.04
0.99
0.79
-1.44
0.06
1.06
-0.02
0.02

> <PUBCHEM_SHAPE_SELFOVERLAP>
471.418

> <PUBCHEM_SHAPE_VOLUME>
133.9

> <PUBCHEM_COORDINATE_TYPE>
2
5
10

$$$$

