10650
  -OEChem-06261204482D

 72 74  0     0  0  0  0  0  0999 V2000
    6.7912   -0.3609    0.0000 O   0  0  0  0  0  0  0  0  0  0  0  0
    6.2912    1.8297    0.0000 O   0  0  0  0  0  0  0  0  0  0  0  0
    7.0555   -1.2146    0.0000 O   0  0  0  0  0  0  0  0  0  0  0  0
   10.8094    1.9818    0.0000 O   0  0  0  0  0  0  0  0  0  0  0  0
   10.1728   -1.0309    0.0000 O   0  0  0  0  0  0  0  0  0  0  0  0
    2.9538    0.9661    0.0000 O   0  0  0  0  0  0  0  0  0  0  0  0
    7.7251    2.7307    0.0000 O   0  0  0  0  0  0  0  0  0  0  0  0
    2.4529   -0.7398    0.0000 O   0  0  0  0  0  0  0  0  0  0  0  0
    3.6358   -2.0049    0.0000 O   0  0  0  0  0  0  0  0  0  0  0  0
    5.1377   -0.6472    0.0000 C   0  0  0  0  0  0  0  0  0  0  0  0
    5.8390   -3.5641    0.0000 C   0  0  0  0  0  0  0  0  0  0  0  0
    5.3715   -1.6195    0.0000 C   0  0  0  0  0  0  0  0  0  0  0  0
    6.5641   -2.8755    0.0000 C   0  0  0  0  0  0  0  0  0  0  0  0
   11.2319    3.9366    0.0000 C   0  0  0  0  0  0  0  0  0  0  0  0
    8.9052    1.3702    0.0000 C   0  0  0  0  0  0  0  0  0  0  0  0
   10.2798    3.6308    0.0000 C   0  0  0  0  0  0  0  0  0  0  0  0
    9.1165    2.3476    0.0000 C   0  0  0  0  0  0  0  0  0  0  0  0
    5.8902    0.0730    0.0000 C   0  0  0  0  0  0  0  0  0  0  0  0
    7.9147    1.0479    0.0000 C   0  0  0  0  0  0  0  0  0  0  0  0
    6.0728   -4.5364    0.0000 C   0  0  0  0  0  0  0  0  0  0  0  0
   11.4431    4.9141    0.0000 C   0  0  0  0  0  0  0  0  0  0  0  0
    6.3304   -1.9032    0.0000 C   0  0  0  0  0  0  0  0  0  0  0  0
    7.6922    0.0729    0.0000 C   0  0  0  0  0  0  0  0  0  0  0  0
   10.0686    2.6534    0.0000 C   0  0  0  0  0  0  0  0  0  0  0  0
    5.6677    1.0479    0.0000 C   0  0  0  0  0  0  0  0  0  0  0  0
    4.1400   -0.3479    0.0000 C   0  0  0  0  0  0  0  0  0  0  0  0
    5.3476   -5.2250    0.0000 C   0  0  0  0  0  0  0  0  0  0  0  0
   12.3952    5.2198    0.0000 C   0  0  0  0  0  0  0  0  0  0  0  0
    9.6742    0.6676    0.0000 C   0  0  0  0  0  0  0  0  0  0  0  0
    7.2912    1.8297    0.0000 C   0  0  0  0  0  0  0  0  0  0  0  0
    8.4447   -0.6472    0.0000 C   0  0  0  0  0  0  0  0  0  0  0  0
    3.9082    0.6677    0.0000 C   0  0  0  0  0  0  0  0  0  0  0  0
    4.6772    1.3702    0.0000 C   0  0  0  0  0  0  0  0  0  0  0  0
    9.4424   -0.3479    0.0000 C   0  0  0  0  0  0  0  0  0  0  0  0
    5.5814   -6.1973    0.0000 C   0  0  0  0  0  0  0  0  0  0  0  0
   12.6065    6.1973    0.0000 C   0  0  0  0  0  0  0  0  0  0  0  0
    3.4096   -1.0308    0.0000 C   0  0  0  0  0  0  0  0  0  0  0  0
   11.1296   -0.7398    0.0000 C   0  0  0  0  0  0  0  0  0  0  0  0
    5.4966   -3.0472    0.0000 H   0  0  0  0  0  0  0  0  0  0  0  0
    5.2705   -3.8115    0.0000 H   0  0  0  0  0  0  0  0  0  0  0  0
    4.7526   -1.6576    0.0000 H   0  0  0  0  0  0  0  0  0  0  0  0
    5.3015   -2.2355    0.0000 H   0  0  0  0  0  0  0  0  0  0  0  0
    6.9065   -3.3924    0.0000 H   0  0  0  0  0  0  0  0  0  0  0  0
    7.1326   -2.6281    0.0000 H   0  0  0  0  0  0  0  0  0  0  0  0
   11.3161    3.3224    0.0000 H   0  0  0  0  0  0  0  0  0  0  0  0
   11.8514    3.9129    0.0000 H   0  0  0  0  0  0  0  0  0  0  0  0
   10.1956    4.2451    0.0000 H   0  0  0  0  0  0  0  0  0  0  0  0
    9.6602    3.6546    0.0000 H   0  0  0  0  0  0  0  0  0  0  0  0
    9.0323    2.9619    0.0000 H   0  0  0  0  0  0  0  0  0  0  0  0
    8.4969    2.3714    0.0000 H   0  0  0  0  0  0  0  0  0  0  0  0
    6.4152   -5.0533    0.0000 H   0  0  0  0  0  0  0  0  0  0  0  0
    6.6413   -4.2890    0.0000 H   0  0  0  0  0  0  0  0  0  0  0  0
   11.3589    5.5283    0.0000 H   0  0  0  0  0  0  0  0  0  0  0  0
   10.8236    4.9378    0.0000 H   0  0  0  0  0  0  0  0  0  0  0  0
    5.0053   -4.7081    0.0000 H   0  0  0  0  0  0  0  0  0  0  0  0
    4.7791   -5.4724    0.0000 H   0  0  0  0  0  0  0  0  0  0  0  0
   12.4794    4.6056    0.0000 H   0  0  0  0  0  0  0  0  0  0  0  0
   13.0148    5.1961    0.0000 H   0  0  0  0  0  0  0  0  0  0  0  0
   10.2660    0.8526    0.0000 H   0  0  0  0  0  0  0  0  0  0  0  0
    8.2998   -1.2501    0.0000 H   0  0  0  0  0  0  0  0  0  0  0  0
    4.5463    1.9762    0.0000 H   0  0  0  0  0  0  0  0  0  0  0  0
    4.9786   -6.3422    0.0000 H   0  0  0  0  0  0  0  0  0  0  0  0
    5.7263   -6.8001    0.0000 H   0  0  0  0  0  0  0  0  0  0  0  0
    6.1842   -6.0523    0.0000 H   0  0  0  0  0  0  0  0  0  0  0  0
   13.2125    6.0663    0.0000 H   0  0  0  0  0  0  0  0  0  0  0  0
   12.7375    6.8033    0.0000 H   0  0  0  0  0  0  0  0  0  0  0  0
   12.0005    6.3282    0.0000 H   0  0  0  0  0  0  0  0  0  0  0  0
    2.8182    1.5711    0.0000 H   0  0  0  0  0  0  0  0  0  0  0  0
   11.3100   -1.3330    0.0000 H   0  0  0  0  0  0  0  0  0  0  0  0
   11.7227   -0.5594    0.0000 H   0  0  0  0  0  0  0  0  0  0  0  0
   10.9491   -0.1467    0.0000 H   0  0  0  0  0  0  0  0  0  0  0  0
    2.0000   -1.1632    0.0000 H   0  0  0  0  0  0  0  0  0  0  0  0
  1 18  1  0  0  0  0
  1 23  1  0  0  0  0
  2 25  1  0  0  0  0
  2 30  1  0  0  0  0
  3 22  2  0  0  0  0
  4 24  2  0  0  0  0
  5 34  1  0  0  0  0
  5 38  1  0  0  0  0
  6 32  1  0  0  0  0
  6 68  1  0  0  0  0
  7 30  2  0  0  0  0
  8 37  1  0  0  0  0
  8 72  1  0  0  0  0
  9 37  2  0  0  0  0
 10 12  1  0  0  0  0
 10 18  1  0  0  0  0
 10 26  2  0  0  0  0
 11 13  1  0  0  0  0
 11 20  1  0  0  0  0
 11 39  1  0  0  0  0
 11 40  1  0  0  0  0
 12 22  1  0  0  0  0
 12 41  1  0  0  0  0
 12 42  1  0  0  0  0
 13 22  1  0  0  0  0
 13 43  1  0  0  0  0
 13 44  1  0  0  0  0
 14 16  1  0  0  0  0
 14 21  1  0  0  0  0
 14 45  1  0  0  0  0
 14 46  1  0  0  0  0
 15 17  1  0  0  0  0
 15 19  2  0  0  0  0
 15 29  1  0  0  0  0
 16 24  1  0  0  0  0
 16 47  1  0  0  0  0
 16 48  1  0  0  0  0
 17 24  1  0  0  0  0
 17 49  1  0  0  0  0
 17 50  1  0  0  0  0
 18 25  2  0  0  0  0
 19 23  1  0  0  0  0
 19 30  1  0  0  0  0
 20 27  1  0  0  0  0
 20 51  1  0  0  0  0
 20 52  1  0  0  0  0
 21 28  1  0  0  0  0
 21 53  1  0  0  0  0
 21 54  1  0  0  0  0
 23 31  2  0  0  0  0
 25 33  1  0  0  0  0
 26 32  1  0  0  0  0
 26 37  1  0  0  0  0
 27 35  1  0  0  0  0
 27 55  1  0  0  0  0
 27 56  1  0  0  0  0
 28 36  1  0  0  0  0
 28 57  1  0  0  0  0
 28 58  1  0  0  0  0
 29 34  2  0  0  0  0
 29 59  1  0  0  0  0
 31 34  1  0  0  0  0
 31 60  1  0  0  0  0
 32 33  2  0  0  0  0
 33 61  1  0  0  0  0
 35 62  1  0  0  0  0
 35 63  1  0  0  0  0
 35 64  1  0  0  0  0
 36 65  1  0  0  0  0
 36 66  1  0  0  0  0
 36 67  1  0  0  0  0
 38 69  1  0  0  0  0
 38 70  1  0  0  0  0
 38 71  1  0  0  0  0
M  END
> <PUBCHEM_COMPOUND_CID>
10650

> <PUBCHEM_COMPOUND_CANONICALIZED>
1

> <PUBCHEM_CACTVS_COMPLEXITY>
827

> <PUBCHEM_CACTVS_HBOND_ACCEPTOR>
9

> <PUBCHEM_CACTVS_HBOND_DONOR>
2

> <PUBCHEM_CACTVS_ROTATABLE_BOND>
14

> <PUBCHEM_CACTVS_SUBSKEYS>
AAADcfB4PAAAAAAAAAAAAAAAAAAAAAAAAAAwYAAABIAAAAABQAAAGgAACAAADASAmAIyDoAABgCIAqDSCAACCAAkIAAAiAEGiMgNJzaGNRqCe2Kl4BUKuQfK7vzuoQABCAAYQABCAAIQADCAAAAAAAAAAA==

> <PUBCHEM_IUPAC_OPENEYE_NAME>
3-hydroxy-9-methoxy-6-oxo-1,7-bis(2-oxoheptyl)benzo[b][1,4]benzodioxepine-2-carboxylic acid

> <PUBCHEM_IUPAC_CAS_NAME>
3-hydroxy-9-methoxy-6-oxo-1,7-bis(2-oxoheptyl)-2-benzo[b][1,4]benzodioxepincarboxylic acid

> <PUBCHEM_IUPAC_NAME>
3-hydroxy-9-methoxy-6-oxo-1,7-bis(2-oxoheptyl)benzo[b][1,4]benzodioxepine-2-carboxylic acid

> <PUBCHEM_IUPAC_SYSTEMATIC_NAME>
9-methoxy-3-oxidanyl-6-oxidanylidene-1,7-bis(2-oxidanylideneheptyl)benzo[b][1,4]benzodioxepine-2-carboxylic acid

> <PUBCHEM_IUPAC_TRADITIONAL_NAME>
3-hydroxy-6-keto-1,7-bis(2-ketoheptyl)-9-methoxy-benzo[b][1,4]benzodioxepin-2-carboxylic acid

> <PUBCHEM_IUPAC_INCHI>
InChI=1S/C29H34O9/c1-4-6-8-10-18(30)12-17-13-20(36-3)15-23-25(17)29(35)38-24-16-22(32)26(28(33)34)21(27(24)37-23)14-19(31)11-9-7-5-2/h13,15-16,32H,4-12,14H2,1-3H3,(H,33,34)

> <PUBCHEM_IUPAC_INCHIKEY>
QLTNFHFQLMFRBN-UHFFFAOYSA-N

> <PUBCHEM_XLOGP3_AA>
5.7

> <PUBCHEM_EXACT_MASS>
526.220283

> <PUBCHEM_MOLECULAR_FORMULA>
C29H34O9

> <PUBCHEM_MOLECULAR_WEIGHT>
526.57486

> <PUBCHEM_OPENEYE_CAN_SMILES>
CCCCCC(=O)CC1=CC(=CC2=C1C(=O)OC3=CC(=C(C(=C3O2)CC(=O)CCCCC)C(=O)O)O)OC

> <PUBCHEM_OPENEYE_ISO_SMILES>
CCCCCC(=O)CC1=CC(=CC2=C1C(=O)OC3=CC(=C(C(=C3O2)CC(=O)CCCCC)C(=O)O)O)OC

> <PUBCHEM_CACTVS_TPSA>
136

> <PUBCHEM_MONOISOTOPIC_WEIGHT>
526.220283

> <PUBCHEM_TOTAL_CHARGE>
0

> <PUBCHEM_HEAVY_ATOM_COUNT>
38

> <PUBCHEM_ATOM_DEF_STEREO_COUNT>
0

> <PUBCHEM_ATOM_UDEF_STEREO_COUNT>
0

> <PUBCHEM_BOND_DEF_STEREO_COUNT>
0

> <PUBCHEM_BOND_UDEF_STEREO_COUNT>
0

> <PUBCHEM_ISOTOPIC_ATOM_COUNT>
0

> <PUBCHEM_COMPONENT_COUNT>
1

> <PUBCHEM_CACTVS_TAUTO_COUNT>
198

> <PUBCHEM_COORDINATE_TYPE>
1
5
255

> <PUBCHEM_BONDANNOTATIONS>
10  18  8
10  26  8
15  19  8
15  29  8
18  25  8
19  23  8
23  31  8
25  33  8
26  32  8
29  34  8
31  34  8
32  33  8

$$$$

