10653
  -OEChem-06261204483D

 51 54  0     1  0  0  0  0  0999 V2000
   -4.4100    2.3078    0.7703 O   0  0  0  0  0  0  0  0  0  0  0  0
   -5.9982    0.3651   -0.4204 O   0  0  0  0  0  0  0  0  0  0  0  0
    5.0889    2.1508   -0.1534 O   0  0  0  0  0  0  0  0  0  0  0  0
    6.0119   -0.4585    0.0880 O   0  0  0  0  0  0  0  0  0  0  0  0
    0.0662   -1.8077   -0.2788 N   0  0  2  0  0  0  0  0  0  0  0  0
   -0.4349   -0.5906    0.4060 C   0  0  1  0  0  0  0  0  0  0  0  0
    0.4416    0.5961   -0.0653 C   0  0  0  0  0  0  0  0  0  0  0  0
   -0.8461   -2.9401   -0.0979 C   0  0  0  0  0  0  0  0  0  0  0  0
   -1.9202   -0.3250    0.1689 C   0  0  0  0  0  0  0  0  0  0  0  0
    1.4139   -2.1527    0.2053 C   0  0  0  0  0  0  0  0  0  0  0  0
   -2.1635   -2.6438   -0.8098 C   0  0  0  0  0  0  0  0  0  0  0  0
   -2.7437   -1.3201   -0.3915 C   0  0  0  0  0  0  0  0  0  0  0  0
    1.9228    0.3124   -0.0082 C   0  0  0  0  0  0  0  0  0  0  0  0
    2.3892   -1.0079    0.0881 C   0  0  0  0  0  0  0  0  0  0  0  0
   -2.5109    0.8842    0.5730 C   0  0  0  0  0  0  0  0  0  0  0  0
   -4.1084   -1.0701   -0.5989 C   0  0  0  0  0  0  0  0  0  0  0  0
    2.8421    1.3661   -0.0999 C   0  0  0  0  0  0  0  0  0  0  0  0
    3.7682   -1.2533    0.1309 C   0  0  0  0  0  0  0  0  0  0  0  0
   -3.8727    1.1195    0.3755 C   0  0  0  0  0  0  0  0  0  0  0  0
   -4.6697    0.1459   -0.2169 C   0  0  0  0  0  0  0  0  0  0  0  0
    4.2127    1.1111   -0.0689 C   0  0  0  0  0  0  0  0  0  0  0  0
    4.6755   -0.1972    0.0496 C   0  0  0  0  0  0  0  0  0  0  0  0
   -4.4166    3.3655   -0.1863 C   0  0  0  0  0  0  0  0  0  0  0  0
   -6.8867   -0.0180    0.6278 C   0  0  0  0  0  0  0  0  0  0  0  0
    5.5157    2.5342   -1.4593 C   0  0  0  0  0  0  0  0  0  0  0  0
    6.6329   -0.4734    1.3719 C   0  0  0  0  0  0  0  0  0  0  0  0
   -0.3172   -0.7198    1.4928 H   0  0  0  0  0  0  0  0  0  0  0  0
    0.2423    1.4739    0.5611 H   0  0  0  0  0  0  0  0  0  0  0  0
    0.1881    0.8643   -1.1002 H   0  0  0  0  0  0  0  0  0  0  0  0
   -1.0190   -3.1404    0.9681 H   0  0  0  0  0  0  0  0  0  0  0  0
   -0.4207   -3.8512   -0.5364 H   0  0  0  0  0  0  0  0  0  0  0  0
    1.7951   -2.9900   -0.3931 H   0  0  0  0  0  0  0  0  0  0  0  0
    1.3826   -2.4730    1.2553 H   0  0  0  0  0  0  0  0  0  0  0  0
   -2.8721   -3.4502   -0.5858 H   0  0  0  0  0  0  0  0  0  0  0  0
   -2.0083   -2.6275   -1.8961 H   0  0  0  0  0  0  0  0  0  0  0  0
   -1.9135    1.6539    1.0551 H   0  0  0  0  0  0  0  0  0  0  0  0
   -4.7357   -1.8328   -1.0551 H   0  0  0  0  0  0  0  0  0  0  0  0
    2.4861    2.3896   -0.1932 H   0  0  0  0  0  0  0  0  0  0  0  0
    4.1350   -2.2729    0.2261 H   0  0  0  0  0  0  0  0  0  0  0  0
   -5.0010    3.0842   -1.0681 H   0  0  0  0  0  0  0  0  0  0  0  0
   -3.3940    3.6235   -0.4796 H   0  0  0  0  0  0  0  0  0  0  0  0
   -4.8798    4.2419    0.2751 H   0  0  0  0  0  0  0  0  0  0  0  0
   -6.6574    0.5301    1.5471 H   0  0  0  0  0  0  0  0  0  0  0  0
   -6.8256   -1.0960    0.8073 H   0  0  0  0  0  0  0  0  0  0  0  0
   -7.9065    0.2281    0.3193 H   0  0  0  0  0  0  0  0  0  0  0  0
    4.6618    2.8617   -2.0609 H   0  0  0  0  0  0  0  0  0  0  0  0
    6.0297    1.7051   -1.9557 H   0  0  0  0  0  0  0  0  0  0  0  0
    6.2143    3.3694   -1.3598 H   0  0  0  0  0  0  0  0  0  0  0  0
    6.1953   -1.2556    2.0004 H   0  0  0  0  0  0  0  0  0  0  0  0
    6.5325    0.5011    1.8599 H   0  0  0  0  0  0  0  0  0  0  0  0
    7.6962   -0.6883    1.2356 H   0  0  0  0  0  0  0  0  0  0  0  0
  1 19  1  0  0  0  0
  1 23  1  0  0  0  0
  2 20  1  0  0  0  0
  2 24  1  0  0  0  0
  3 21  1  0  0  0  0
  3 25  1  0  0  0  0
  4 22  1  0  0  0  0
  4 26  1  0  0  0  0
  5  6  1  0  0  0  0
  5  8  1  0  0  0  0
  5 10  1  0  0  0  0
  6  7  1  0  0  0  0
  6  9  1  0  0  0  0
  6 27  1  0  0  0  0
  7 13  1  0  0  0  0
  7 28  1  0  0  0  0
  7 29  1  0  0  0  0
  8 11  1  0  0  0  0
  8 30  1  0  0  0  0
  8 31  1  0  0  0  0
  9 12  1  0  0  0  0
  9 15  2  0  0  0  0
 10 14  1  0  0  0  0
 10 32  1  0  0  0  0
 10 33  1  0  0  0  0
 11 12  1  0  0  0  0
 11 34  1  0  0  0  0
 11 35  1  0  0  0  0
 12 16  2  0  0  0  0
 13 14  1  0  0  0  0
 13 17  2  0  0  0  0
 14 18  2  0  0  0  0
 15 19  1  0  0  0  0
 15 36  1  0  0  0  0
 16 20  1  0  0  0  0
 16 37  1  0  0  0  0
 17 21  1  0  0  0  0
 17 38  1  0  0  0  0
 18 22  1  0  0  0  0
 18 39  1  0  0  0  0
 19 20  2  0  0  0  0
 21 22  2  0  0  0  0
 23 40  1  0  0  0  0
 23 41  1  0  0  0  0
 23 42  1  0  0  0  0
 24 43  1  0  0  0  0
 24 44  1  0  0  0  0
 24 45  1  0  0  0  0
 25 46  1  0  0  0  0
 25 47  1  0  0  0  0
 25 48  1  0  0  0  0
 26 49  1  0  0  0  0
 26 50  1  0  0  0  0
 26 51  1  0  0  0  0
M  END
> <PUBCHEM_COMPOUND_CID>
10653

> <PUBCHEM_CONFORMER_RMSD>
0.8

> <PUBCHEM_CONFORMER_DIVERSEORDER>
1
7
5
11
10
6
9
3
4
8
2

> <PUBCHEM_MMFF94_PARTIAL_CHARGES>
30
1 -0.36
10 0.41
11 0.14
12 -0.14
13 -0.14
14 -0.14
15 -0.15
16 -0.15
17 -0.15
18 -0.15
19 0.08
2 -0.36
20 0.08
21 0.08
22 0.08
23 0.28
24 0.28
25 0.28
26 0.28
3 -0.36
36 0.15
37 0.15
38 0.15
39 0.15
4 -0.36
5 -0.81
6 0.41
7 0.14
8 0.27
9 -0.14

> <PUBCHEM_EFFECTIVE_ROTOR_COUNT>
4.8

> <PUBCHEM_PHARMACOPHORE_FEATURES>
9
1 1 acceptor
1 2 acceptor
1 3 acceptor
1 4 acceptor
1 5 cation
6 13 14 17 18 21 22 rings
6 5 6 7 10 13 14 rings
6 5 6 8 9 11 12 rings
6 9 12 15 16 19 20 rings

> <PUBCHEM_HEAVY_ATOM_COUNT>
26

> <PUBCHEM_ATOM_DEF_STEREO_COUNT>
0

> <PUBCHEM_ATOM_UDEF_STEREO_COUNT>
1

> <PUBCHEM_BOND_DEF_STEREO_COUNT>
0

> <PUBCHEM_BOND_UDEF_STEREO_COUNT>
0

> <PUBCHEM_ISOTOPIC_ATOM_COUNT>
0

> <PUBCHEM_COMPONENT_COUNT>
1

> <PUBCHEM_CACTVS_TAUTO_COUNT>
1

> <PUBCHEM_CONFORMER_ID>
0000299D00000001

> <PUBCHEM_MMFF94_ENERGY>
114.6415

> <PUBCHEM_FEATURE_SELFOVERLAP>
45.745

> <PUBCHEM_SHAPE_FINGERPRINT>
10 15 18130782326836934331
10411042 1 17688031912547140687
10595046 47 18410857637761145879
10906281 52 18114445804609773023
12107183 9 17979359990319640674
12236239 1 18272091556537679743
12390115 104 17968925501051114305
12596602 18 17561082462747741697
12788726 201 17676757743099596961
12838862 33 18263664968716822729
12916748 109 18408879651135044839
13177829 73 18408326596622762794
13785724 45 17690564508621901698
14767858 380 18188788180032120191
14790565 3 18411696599598580276
15131766 46 16628540386075235012
15183329 4 18408037407990218660
15196674 1 18339081480477966942
15461852 350 17096095680253050094
18608769 82 18335983065633398267
19611394 137 18058714803414769907
20511986 3 18337689537506567994
21267235 1 18408878555834150739
21279426 13 18117273868538133782
21315764 268 18342181059111590924
21421861 104 17915752066633990154
23402539 116 18187653478740352967
23559900 14 17968948474377467616
23569917 315 18409444799601246590
245318 6 17486475019709701596
25147074 1 18341342085059121974
2838139 119 18335428962484009309
3004659 81 18411135832321644316
335352 9 18410855469646842894
34797466 226 16660640709689754752
350125 39 18408321069369163497
3545911 37 18334013903946226331
3610482 184 18267856195029728222
4073 2 17988918921073453242
4214541 1 18408042905094644241
474 4 18202843236157032787
5104073 3 18199754657177735194
54446538 1 18412265046983435945
6328613 192 18343015546425981116
633830 44 17988927722104949026
7808743 9 18408887308855881963
9981440 41 18410571808099651963

> <PUBCHEM_SHAPE_MULTIPOLES>
506.61
15.86
3.02
0.88
3.49
0.69
-0.02
7.45
1.34
-1.05
-0.6
0.54
0.13
-1.73

> <PUBCHEM_SHAPE_SELFOVERLAP>
1097.008

> <PUBCHEM_SHAPE_VOLUME>
279.3

> <PUBCHEM_COORDINATE_TYPE>
2
5
10

$$$$

