12317
  -OEChem-06261206483D

 12 11  0     0  0  0  0  0  0999 V2000
    1.7969   -0.7225   -0.1825 F   0  0  0  0  0  0  0  0  0  0  0  0
   -0.8811   -0.3042    0.3138 O   0  0  0  0  0  0  0  0  0  0  0  0
   -0.0519    0.7028   -0.2502 C   0  0  0  0  0  0  0  0  0  0  0  0
    1.3645    0.4978    0.2384 C   0  0  0  0  0  0  0  0  0  0  0  0
   -2.2284   -0.1739   -0.1194 C   0  0  0  0  0  0  0  0  0  0  0  0
   -0.4119    1.6930    0.0491 H   0  0  0  0  0  0  0  0  0  0  0  0
   -0.0784    0.6196   -1.3424 H   0  0  0  0  0  0  0  0  0  0  0  0
    2.0412    1.2571   -0.1620 H   0  0  0  0  0  0  0  0  0  0  0  0
    1.4145    0.5004    1.3309 H   0  0  0  0  0  0  0  0  0  0  0  0
   -2.6393    0.7918    0.1907 H   0  0  0  0  0  0  0  0  0  0  0  0
   -2.8177   -0.9691    0.3448 H   0  0  0  0  0  0  0  0  0  0  0  0
   -2.2939   -0.2802   -1.2066 H   0  0  0  0  0  0  0  0  0  0  0  0
  1  4  1  0  0  0  0
  2  3  1  0  0  0  0
  2  5  1  0  0  0  0
  3  4  1  0  0  0  0
  3  6  1  0  0  0  0
  3  7  1  0  0  0  0
  4  8  1  0  0  0  0
  4  9  1  0  0  0  0
  5 10  1  0  0  0  0
  5 11  1  0  0  0  0
  5 12  1  0  0  0  0
M  END
> <PUBCHEM_COMPOUND_CID>
12317

> <PUBCHEM_CONFORMER_RMSD>
0.4

> <PUBCHEM_CONFORMER_DIVERSEORDER>
1
5
2
8
7
4
3
6

> <PUBCHEM_MMFF94_PARTIAL_CHARGES>
5
1 -0.34
2 -0.56
3 0.28
4 0.34
5 0.28

> <PUBCHEM_EFFECTIVE_ROTOR_COUNT>
2

> <PUBCHEM_PHARMACOPHORE_FEATURES>
1
1 2 acceptor

> <PUBCHEM_HEAVY_ATOM_COUNT>
5

> <PUBCHEM_ATOM_DEF_STEREO_COUNT>
0

> <PUBCHEM_ATOM_UDEF_STEREO_COUNT>
0

> <PUBCHEM_BOND_DEF_STEREO_COUNT>
0

> <PUBCHEM_BOND_UDEF_STEREO_COUNT>
0

> <PUBCHEM_ISOTOPIC_ATOM_COUNT>
0

> <PUBCHEM_COMPONENT_COUNT>
1

> <PUBCHEM_CACTVS_TAUTO_COUNT>
1

> <PUBCHEM_CONFORMER_ID>
0000301D00000001

> <PUBCHEM_MMFF94_ENERGY>
4.627

> <PUBCHEM_FEATURE_SELFOVERLAP>
5.074

> <PUBCHEM_SHAPE_FINGERPRINT>
139733 1 8862941675667216804
20096714 4 18268990890845164185
29004967 10 18412261705445963368
5460574 1 8862951580020011473

> <PUBCHEM_SHAPE_MULTIPOLES>
89.75
2.74
0.83
0.62
0.79
0.04
0
-0.44
0.05
-0.21
0.04
0.01
0.02
0.09

> <PUBCHEM_SHAPE_SELFOVERLAP>
150.727

> <PUBCHEM_SHAPE_VOLUME>
61.8

> <PUBCHEM_COORDINATE_TYPE>
2
5
10

$$$$

