5684
  -OEChem-06261200482D

 65 68  0     0  0  0  0  0  0999 V2000
    3.7320    2.0000    0.0000 O   0  0  0  0  0  0  0  0  0  0  0  0
    2.8660   -3.5000    0.0000 O   0  0  0  0  0  0  0  0  0  0  0  0
    4.5981   -0.5000    0.0000 N   0  0  0  0  0  0  0  0  0  0  0  0
    5.4641    2.0000    0.0000 N   0  0  0  0  0  0  0  0  0  0  0  0
    4.5981   -2.5000    0.0000 N   0  0  0  0  0  0  0  0  0  0  0  0
    6.3301    3.5000    0.0000 N   0  0  0  0  0  0  0  0  0  0  0  0
    4.5981    3.5000    0.0000 C   0  0  0  0  0  0  0  0  0  0  0  0
    5.4641    4.0000    0.0000 C   0  0  0  0  0  0  0  0  0  0  0  0
    3.7320    4.0000    0.0000 C   0  0  0  0  0  0  0  0  0  0  0  0
    5.4641    5.0000    0.0000 C   0  0  0  0  0  0  0  0  0  0  0  0
    3.7320    5.0000    0.0000 C   0  0  0  0  0  0  0  0  0  0  0  0
    4.5981    5.5000    0.0000 C   0  0  0  0  0  0  0  0  0  0  0  0
    4.5981    2.5000    0.0000 C   0  0  0  0  0  0  0  0  0  0  0  0
    4.5981    0.5000    0.0000 C   0  0  0  0  0  0  0  0  0  0  0  0
    5.4641   -1.0000    0.0000 C   0  0  0  0  0  0  0  0  0  0  0  0
    3.7320   -1.0000    0.0000 C   0  0  0  0  0  0  0  0  0  0  0  0
    5.4641    1.0000    0.0000 C   0  0  0  0  0  0  0  0  0  0  0  0
    5.4641   -2.0000    0.0000 C   0  0  0  0  0  0  0  0  0  0  0  0
    3.7320   -2.0000    0.0000 C   0  0  0  0  0  0  0  0  0  0  0  0
    4.5981   -3.5000    0.0000 C   0  0  0  0  0  0  0  0  0  0  0  0
    6.3301    2.5000    0.0000 C   0  0  0  0  0  0  0  0  0  0  0  0
    3.7320   -4.0000    0.0000 C   0  0  0  0  0  0  0  0  0  0  0  0
    5.4641   -4.0000    0.0000 C   0  0  0  0  0  0  0  0  0  0  0  0
    7.1962    2.0000    0.0000 C   0  0  0  0  0  0  0  0  0  0  0  0
    3.7320   -5.0000    0.0000 C   0  0  0  0  0  0  0  0  0  0  0  0
    5.4641   -5.0000    0.0000 C   0  0  0  0  0  0  0  0  0  0  0  0
    8.0622    2.5000    0.0000 C   0  0  0  0  0  0  0  0  0  0  0  0
    4.5981   -5.5000    0.0000 C   0  0  0  0  0  0  0  0  0  0  0  0
    7.1962    4.0000    0.0000 C   0  0  0  0  0  0  0  0  0  0  0  0
    8.0622    3.5000    0.0000 C   0  0  0  0  0  0  0  0  0  0  0  0
    2.0000   -4.0000    0.0000 C   0  0  0  0  0  0  0  0  0  0  0  0
    5.1350    3.1900    0.0000 H   0  0  0  0  0  0  0  0  0  0  0  0
    5.6762    3.4174    0.0000 H   0  0  0  0  0  0  0  0  0  0  0  0
    6.0747    4.1077    0.0000 H   0  0  0  0  0  0  0  0  0  0  0  0
    3.1215    4.1077    0.0000 H   0  0  0  0  0  0  0  0  0  0  0  0
    3.5200    3.4174    0.0000 H   0  0  0  0  0  0  0  0  0  0  0  0
    6.0747    4.8923    0.0000 H   0  0  0  0  0  0  0  0  0  0  0  0
    5.6762    5.5826    0.0000 H   0  0  0  0  0  0  0  0  0  0  0  0
    3.5200    5.5826    0.0000 H   0  0  0  0  0  0  0  0  0  0  0  0
    3.1215    4.8923    0.0000 H   0  0  0  0  0  0  0  0  0  0  0  0
    4.9966    5.9750    0.0000 H   0  0  0  0  0  0  0  0  0  0  0  0
    4.1996    5.9750    0.0000 H   0  0  0  0  0  0  0  0  0  0  0  0
    4.3860    1.0826    0.0000 H   0  0  0  0  0  0  0  0  0  0  0  0
    3.9875    0.3923    0.0000 H   0  0  0  0  0  0  0  0  0  0  0  0
    6.0747   -1.1077    0.0000 H   0  0  0  0  0  0  0  0  0  0  0  0
    5.6762   -0.4174    0.0000 H   0  0  0  0  0  0  0  0  0  0  0  0
    3.5200   -0.4174    0.0000 H   0  0  0  0  0  0  0  0  0  0  0  0
    3.1215   -1.1077    0.0000 H   0  0  0  0  0  0  0  0  0  0  0  0
    5.6762    0.4174    0.0000 H   0  0  0  0  0  0  0  0  0  0  0  0
    6.0747    1.1077    0.0000 H   0  0  0  0  0  0  0  0  0  0  0  0
    5.6762   -2.5826    0.0000 H   0  0  0  0  0  0  0  0  0  0  0  0
    6.0747   -1.8923    0.0000 H   0  0  0  0  0  0  0  0  0  0  0  0
    3.1215   -1.8923    0.0000 H   0  0  0  0  0  0  0  0  0  0  0  0
    3.5200   -2.5826    0.0000 H   0  0  0  0  0  0  0  0  0  0  0  0
    6.0010   -3.6900    0.0000 H   0  0  0  0  0  0  0  0  0  0  0  0
    7.1962    1.3800    0.0000 H   0  0  0  0  0  0  0  0  0  0  0  0
    3.1951   -5.3100    0.0000 H   0  0  0  0  0  0  0  0  0  0  0  0
    6.0010   -5.3100    0.0000 H   0  0  0  0  0  0  0  0  0  0  0  0
    8.5991    2.1900    0.0000 H   0  0  0  0  0  0  0  0  0  0  0  0
    4.5981   -6.1200    0.0000 H   0  0  0  0  0  0  0  0  0  0  0  0
    7.1962    4.6200    0.0000 H   0  0  0  0  0  0  0  0  0  0  0  0
    8.5991    3.8100    0.0000 H   0  0  0  0  0  0  0  0  0  0  0  0
    1.6900   -3.4631    0.0000 H   0  0  0  0  0  0  0  0  0  0  0  0
    1.4631   -4.3100    0.0000 H   0  0  0  0  0  0  0  0  0  0  0  0
    2.3100   -4.5369    0.0000 H   0  0  0  0  0  0  0  0  0  0  0  0
  1 13  2  0  0  0  0
  2 22  1  0  0  0  0
  2 31  1  0  0  0  0
  3 14  1  0  0  0  0
  3 15  1  0  0  0  0
  3 16  1  0  0  0  0
  4 13  1  0  0  0  0
  4 17  1  0  0  0  0
  4 21  1  0  0  0  0
  5 18  1  0  0  0  0
  5 19  1  0  0  0  0
  5 20  1  0  0  0  0
  6 21  1  0  0  0  0
  6 29  2  0  0  0  0
  7  8  1  0  0  0  0
  7  9  1  0  0  0  0
  7 13  1  0  0  0  0
  7 32  1  0  0  0  0
  8 10  1  0  0  0  0
  8 33  1  0  0  0  0
  8 34  1  0  0  0  0
  9 11  1  0  0  0  0
  9 35  1  0  0  0  0
  9 36  1  0  0  0  0
 10 12  1  0  0  0  0
 10 37  1  0  0  0  0
 10 38  1  0  0  0  0
 11 12  1  0  0  0  0
 11 39  1  0  0  0  0
 11 40  1  0  0  0  0
 12 41  1  0  0  0  0
 12 42  1  0  0  0  0
 14 17  1  0  0  0  0
 14 43  1  0  0  0  0
 14 44  1  0  0  0  0
 15 18  1  0  0  0  0
 15 45  1  0  0  0  0
 15 46  1  0  0  0  0
 16 19  1  0  0  0  0
 16 47  1  0  0  0  0
 16 48  1  0  0  0  0
 17 49  1  0  0  0  0
 17 50  1  0  0  0  0
 18 51  1  0  0  0  0
 18 52  1  0  0  0  0
 19 53  1  0  0  0  0
 19 54  1  0  0  0  0
 20 22  1  0  0  0  0
 20 23  2  0  0  0  0
 21 24  2  0  0  0  0
 22 25  2  0  0  0  0
 23 26  1  0  0  0  0
 23 55  1  0  0  0  0
 24 27  1  0  0  0  0
 24 56  1  0  0  0  0
 25 28  1  0  0  0  0
 25 57  1  0  0  0  0
 26 28  2  0  0  0  0
 26 58  1  0  0  0  0
 27 30  2  0  0  0  0
 27 59  1  0  0  0  0
 28 60  1  0  0  0  0
 29 30  1  0  0  0  0
 29 61  1  0  0  0  0
 30 62  1  0  0  0  0
 31 63  1  0  0  0  0
 31 64  1  0  0  0  0
 31 65  1  0  0  0  0
M  END
> <PUBCHEM_COMPOUND_CID>
5684

> <PUBCHEM_COMPOUND_CANONICALIZED>
1

> <PUBCHEM_CACTVS_COMPLEXITY>
546

> <PUBCHEM_CACTVS_HBOND_ACCEPTOR>
5

> <PUBCHEM_CACTVS_HBOND_DONOR>
0

> <PUBCHEM_CACTVS_ROTATABLE_BOND>
7

> <PUBCHEM_CACTVS_SUBSKEYS>
AAADcfB7sAAAAAAAAAAAAAAAAAAAAAAAAAA8eIEAAAAAAAABwAAAHgAAAAAADQzBkgY/9pMIFACoADd3dACCiCkxIiAJ2CE/bJiOZvLEuZuVMChsxxPY6CeYyACOAAAAAAAAEAAAAAAAAAAgAAAAAAAAAA==

> <PUBCHEM_IUPAC_OPENEYE_NAME>
N-[2-[4-(2-methoxyphenyl)piperazin-1-yl]ethyl]-N-(2-pyridyl)cyclohexanecarboxamide

> <PUBCHEM_IUPAC_CAS_NAME>
N-[2-[4-(2-methoxyphenyl)-1-piperazinyl]ethyl]-N-(2-pyridinyl)cyclohexanecarboxamide

> <PUBCHEM_IUPAC_NAME>
N-[2-[4-(2-methoxyphenyl)piperazin-1-yl]ethyl]-N-pyridin-2-ylcyclohexanecarboxamide

> <PUBCHEM_IUPAC_SYSTEMATIC_NAME>
N-[2-[4-(2-methoxyphenyl)piperazin-1-yl]ethyl]-N-pyridin-2-yl-cyclohexanecarboxamide

> <PUBCHEM_IUPAC_TRADITIONAL_NAME>
N-[2-[4-(2-methoxyphenyl)piperazino]ethyl]-N-(2-pyridyl)cyclohexanecarboxamide

> <PUBCHEM_IUPAC_INCHI>
InChI=1S/C25H34N4O2/c1-31-23-12-6-5-11-22(23)28-18-15-27(16-19-28)17-20-29(24-13-7-8-14-26-24)25(30)21-9-3-2-4-10-21/h5-8,11-14,21H,2-4,9-10,15-20H2,1H3

> <PUBCHEM_IUPAC_INCHIKEY>
SBPRIAGPYFYCRT-UHFFFAOYSA-N

> <PUBCHEM_XLOGP3_AA>
4.2

> <PUBCHEM_EXACT_MASS>
422.268176

> <PUBCHEM_MOLECULAR_FORMULA>
C25H34N4O2

> <PUBCHEM_MOLECULAR_WEIGHT>
422.56306

> <PUBCHEM_OPENEYE_CAN_SMILES>
COC1=CC=CC=C1N2CCN(CC2)CCN(C3=CC=CC=N3)C(=O)C4CCCCC4

> <PUBCHEM_OPENEYE_ISO_SMILES>
COC1=CC=CC=C1N2CCN(CC2)CCN(C3=CC=CC=N3)C(=O)C4CCCCC4

> <PUBCHEM_CACTVS_TPSA>
48.9

> <PUBCHEM_MONOISOTOPIC_WEIGHT>
422.268176

> <PUBCHEM_TOTAL_CHARGE>
0

> <PUBCHEM_HEAVY_ATOM_COUNT>
31

> <PUBCHEM_ATOM_DEF_STEREO_COUNT>
0

> <PUBCHEM_ATOM_UDEF_STEREO_COUNT>
0

> <PUBCHEM_BOND_DEF_STEREO_COUNT>
0

> <PUBCHEM_BOND_UDEF_STEREO_COUNT>
0

> <PUBCHEM_ISOTOPIC_ATOM_COUNT>
0

> <PUBCHEM_COMPONENT_COUNT>
1

> <PUBCHEM_CACTVS_TAUTO_COUNT>
1

> <PUBCHEM_COORDINATE_TYPE>
1
5
255

> <PUBCHEM_BONDANNOTATIONS>
20  22  8
20  23  8
21  24  8
22  25  8
23  26  8
24  27  8
25  28  8
26  28  8
27  30  8
29  30  8
6  21  8
6  29  8

$$$$

