3818
  -OEChem-06251223422D

 46 47  0     1  0  0  0  0  0999 V2000
    8.9282   -0.5950    0.0000 O   0  0  0  0  0  0  0  0  0  0  0  0
    4.5981    4.9050    0.0000 O   0  0  0  0  0  0  0  0  0  0  0  0
    2.8660    3.9050    0.0000 O   0  0  0  0  0  0  0  0  0  0  0  0
    8.0622   -5.0950    0.0000 O   0  0  0  0  0  0  0  0  0  0  0  0
    7.1962    0.4050    0.0000 N   0  0  0  0  0  0  0  0  0  0  0  0
    7.1962   -0.5950    0.0000 C   0  0  0  0  0  0  0  0  0  0  0  0
    6.3301    0.9050    0.0000 C   0  0  0  0  0  0  0  0  0  0  0  0
    8.0622   -1.0950    0.0000 C   0  0  3  0  0  0  0  0  0  0  0  0
    6.3301    1.9050    0.0000 C   0  0  0  0  0  0  0  0  0  0  0  0
    5.4641    2.4050    0.0000 C   0  0  0  0  0  0  0  0  0  0  0  0
    8.0622   -2.0950    0.0000 C   0  0  0  0  0  0  0  0  0  0  0  0
    5.4641    3.4050    0.0000 C   0  0  0  0  0  0  0  0  0  0  0  0
    4.5981    1.9050    0.0000 C   0  0  0  0  0  0  0  0  0  0  0  0
    7.1962   -2.5950    0.0000 C   0  0  0  0  0  0  0  0  0  0  0  0
    8.9282   -2.5950    0.0000 C   0  0  0  0  0  0  0  0  0  0  0  0
    4.5981    3.9050    0.0000 C   0  0  0  0  0  0  0  0  0  0  0  0
    3.7320    2.4050    0.0000 C   0  0  0  0  0  0  0  0  0  0  0  0
    3.7320    3.4050    0.0000 C   0  0  0  0  0  0  0  0  0  0  0  0
    7.1962   -3.5950    0.0000 C   0  0  0  0  0  0  0  0  0  0  0  0
    8.9282   -3.5950    0.0000 C   0  0  0  0  0  0  0  0  0  0  0  0
    8.0622   -4.0950    0.0000 C   0  0  0  0  0  0  0  0  0  0  0  0
    5.4641    5.4050    0.0000 C   0  0  0  0  0  0  0  0  0  0  0  0
    2.0000    3.4050    0.0000 C   0  0  0  0  0  0  0  0  0  0  0  0
    6.5856   -0.4873    0.0000 H   0  0  0  0  0  0  0  0  0  0  0  0
    6.9841   -1.1776    0.0000 H   0  0  0  0  0  0  0  0  0  0  0  0
    5.7196    1.0127    0.0000 H   0  0  0  0  0  0  0  0  0  0  0  0
    6.1181    0.3224    0.0000 H   0  0  0  0  0  0  0  0  0  0  0  0
    8.0622   -0.4750    0.0000 H   0  0  0  0  0  0  0  0  0  0  0  0
    6.9407    1.7973    0.0000 H   0  0  0  0  0  0  0  0  0  0  0  0
    6.5422    2.4876    0.0000 H   0  0  0  0  0  0  0  0  0  0  0  0
    7.7331    0.7150    0.0000 H   0  0  0  0  0  0  0  0  0  0  0  0
    6.0010    3.7150    0.0000 H   0  0  0  0  0  0  0  0  0  0  0  0
    4.5981    1.2850    0.0000 H   0  0  0  0  0  0  0  0  0  0  0  0
    6.6592   -2.2850    0.0000 H   0  0  0  0  0  0  0  0  0  0  0  0
    9.4651   -2.2850    0.0000 H   0  0  0  0  0  0  0  0  0  0  0  0
    3.1951    2.0950    0.0000 H   0  0  0  0  0  0  0  0  0  0  0  0
    9.4651   -0.9050    0.0000 H   0  0  0  0  0  0  0  0  0  0  0  0
    6.6592   -3.9050    0.0000 H   0  0  0  0  0  0  0  0  0  0  0  0
    9.4651   -3.9050    0.0000 H   0  0  0  0  0  0  0  0  0  0  0  0
    5.7741    4.8681    0.0000 H   0  0  0  0  0  0  0  0  0  0  0  0
    6.0010    5.7150    0.0000 H   0  0  0  0  0  0  0  0  0  0  0  0
    5.1541    5.9419    0.0000 H   0  0  0  0  0  0  0  0  0  0  0  0
    8.5991   -5.4050    0.0000 H   0  0  0  0  0  0  0  0  0  0  0  0
    1.6900    3.9419    0.0000 H   0  0  0  0  0  0  0  0  0  0  0  0
    1.4631    3.0950    0.0000 H   0  0  0  0  0  0  0  0  0  0  0  0
    2.3100    2.8681    0.0000 H   0  0  0  0  0  0  0  0  0  0  0  0
  1  8  1  0  0  0  0
  1 37  1  0  0  0  0
  2 16  1  0  0  0  0
  2 22  1  0  0  0  0
  3 18  1  0  0  0  0
  3 23  1  0  0  0  0
  4 21  1  0  0  0  0
  4 43  1  0  0  0  0
  5  6  1  0  0  0  0
  5  7  1  0  0  0  0
  5 31  1  0  0  0  0
  6  8  1  0  0  0  0
  6 24  1  0  0  0  0
  6 25  1  0  0  0  0
  7  9  1  0  0  0  0
  7 26  1  0  0  0  0
  7 27  1  0  0  0  0
  8 11  1  0  0  0  0
  8 28  1  0  0  0  0
  9 10  1  0  0  0  0
  9 29  1  0  0  0  0
  9 30  1  0  0  0  0
 10 12  2  0  0  0  0
 10 13  1  0  0  0  0
 11 14  2  0  0  0  0
 11 15  1  0  0  0  0
 12 16  1  0  0  0  0
 12 32  1  0  0  0  0
 13 17  2  0  0  0  0
 13 33  1  0  0  0  0
 14 19  1  0  0  0  0
 14 34  1  0  0  0  0
 15 20  2  0  0  0  0
 15 35  1  0  0  0  0
 16 18  2  0  0  0  0
 17 18  1  0  0  0  0
 17 36  1  0  0  0  0
 19 21  2  0  0  0  0
 19 38  1  0  0  0  0
 20 21  1  0  0  0  0
 20 39  1  0  0  0  0
 22 40  1  0  0  0  0
 22 41  1  0  0  0  0
 22 42  1  0  0  0  0
 23 44  1  0  0  0  0
 23 45  1  0  0  0  0
 23 46  1  0  0  0  0
M  END
> <PUBCHEM_COMPOUND_CID>
3818

> <PUBCHEM_COMPOUND_CANONICALIZED>
1

> <PUBCHEM_CACTVS_COMPLEXITY>
320

> <PUBCHEM_CACTVS_HBOND_ACCEPTOR>
5

> <PUBCHEM_CACTVS_HBOND_DONOR>
3

> <PUBCHEM_CACTVS_ROTATABLE_BOND>
8

> <PUBCHEM_CACTVS_SUBSKEYS>
AAADceB6OAAAAAAAAAAAAAAAAAAAAAAAAAAwYAAAAAAAAAABQAAAHgAQCAAADBThmAYyBoLABgCAAiBCAAACCAAgIAAIiIAOiIgPNiKGsRuEcCIk0BGauAeQ8LYOIAABAAAAQABAAAIAAACAAAAAAAAAAA==

> <PUBCHEM_IUPAC_OPENEYE_NAME>
4-[2-[2-(3,4-dimethoxyphenyl)ethylamino]-1-hydroxy-ethyl]phenol

> <PUBCHEM_IUPAC_CAS_NAME>
4-[2-[2-(3,4-dimethoxyphenyl)ethylamino]-1-hydroxyethyl]phenol

> <PUBCHEM_IUPAC_NAME>
4-[2-[2-(3,4-dimethoxyphenyl)ethylamino]-1-hydroxyethyl]phenol

> <PUBCHEM_IUPAC_SYSTEMATIC_NAME>
4-[2-[2-(3,4-dimethoxyphenyl)ethylamino]-1-oxidanyl-ethyl]phenol

> <PUBCHEM_IUPAC_TRADITIONAL_NAME>
4-[2-(homoveratrylamino)-1-hydroxy-ethyl]phenol

> <PUBCHEM_IUPAC_INCHI>
InChI=1S/C18H23NO4/c1-22-17-8-3-13(11-18(17)23-2)9-10-19-12-16(21)14-4-6-15(20)7-5-14/h3-8,11,16,19-21H,9-10,12H2,1-2H3

> <PUBCHEM_IUPAC_INCHIKEY>
VHSBBVZJABQOSG-UHFFFAOYSA-N

> <PUBCHEM_XLOGP3>
1.8

> <PUBCHEM_EXACT_MASS>
317.162708

> <PUBCHEM_MOLECULAR_FORMULA>
C18H23NO4

> <PUBCHEM_MOLECULAR_WEIGHT>
317.37952

> <PUBCHEM_OPENEYE_CAN_SMILES>
COC1=C(C=C(C=C1)CCNCC(C2=CC=C(C=C2)O)O)OC

> <PUBCHEM_OPENEYE_ISO_SMILES>
COC1=C(C=C(C=C1)CCNCC(C2=CC=C(C=C2)O)O)OC

> <PUBCHEM_CACTVS_TPSA>
71

> <PUBCHEM_MONOISOTOPIC_WEIGHT>
317.162708

> <PUBCHEM_TOTAL_CHARGE>
0

> <PUBCHEM_HEAVY_ATOM_COUNT>
23

> <PUBCHEM_ATOM_DEF_STEREO_COUNT>
0

> <PUBCHEM_ATOM_UDEF_STEREO_COUNT>
1

> <PUBCHEM_BOND_DEF_STEREO_COUNT>
0

> <PUBCHEM_BOND_UDEF_STEREO_COUNT>
0

> <PUBCHEM_ISOTOPIC_ATOM_COUNT>
0

> <PUBCHEM_COMPONENT_COUNT>
1

> <PUBCHEM_CACTVS_TAUTO_COUNT>
2

> <PUBCHEM_COORDINATE_TYPE>
1
5
255

> <PUBCHEM_BONDANNOTATIONS>
8  1  3
10  12  8
10  13  8
11  14  8
11  15  8
12  16  8
13  17  8
14  19  8
15  20  8
16  18  8
17  18  8
19  21  8
20  21  8

$$$$

