7846943
  -OEChem-06241222483D

 43 45  0     1  0  0  0  0  0999 V2000
   -4.6999    0.0992    0.7678 S   0  0  0  0  0  0  0  0  0  0  0  0
    3.7463   -1.2333   -0.8890 S   0  0  0  0  0  0  0  0  0  0  0  0
   -5.9808   -0.5526    0.5903 O   0  0  0  0  0  0  0  0  0  0  0  0
   -4.3693    0.8415    1.9665 O   0  0  0  0  0  0  0  0  0  0  0  0
    1.5623    2.0680   -0.4426 O   0  0  0  0  0  0  0  0  0  0  0  0
   -0.3992    1.3601   -2.2455 O   0  0  0  0  0  0  0  0  0  0  0  0
    2.2734    3.4277    1.2801 O   0  0  0  0  0  0  0  0  0  0  0  0
   -1.9412    1.3794   -0.5037 N   0  0  0  0  0  0  0  0  0  0  0  0
    2.4058   -0.4656    1.1765 N   0  0  0  0  0  0  0  0  0  0  0  0
   -3.0153    0.6989   -1.1883 C   0  0  2  0  0  0  0  0  0  0  0  0
   -4.3824    1.1336   -0.6577 C   0  0  0  0  0  0  0  0  0  0  0  0
   -2.9445   -0.8173   -0.9752 C   0  0  0  0  0  0  0  0  0  0  0  0
   -3.4022   -1.0873    0.4559 C   0  0  0  0  0  0  0  0  0  0  0  0
   -0.7171    1.6531   -1.0961 C   0  0  0  0  0  0  0  0  0  0  0  0
    0.2162    2.3746   -0.1473 C   0  0  0  0  0  0  0  0  0  0  0  0
    3.8899    2.2336   -0.0898 C   0  0  0  0  0  0  0  0  0  0  0  0
    4.3670    0.9874    0.6576 C   0  0  0  0  0  0  0  0  0  0  0  0
    2.5105    2.6652    0.3535 C   0  0  0  0  0  0  0  0  0  0  0  0
    3.4458   -0.1831    0.4271 C   0  0  0  0  0  0  0  0  0  0  0  0
    2.3692   -2.1702   -0.4429 C   0  0  0  0  0  0  0  0  0  0  0  0
    1.7779   -1.6030    0.6901 C   0  0  0  0  0  0  0  0  0  0  0  0
    1.8496   -3.3239   -1.0516 C   0  0  0  0  0  0  0  0  0  0  0  0
    0.6259   -2.2141    1.2309 C   0  0  0  0  0  0  0  0  0  0  0  0
    0.7088   -3.9089   -0.4964 C   0  0  0  0  0  0  0  0  0  0  0  0
    0.1032   -3.3629    0.6300 C   0  0  0  0  0  0  0  0  0  0  0  0
   -2.9360    0.9351   -2.2554 H   0  0  0  0  0  0  0  0  0  0  0  0
   -5.1664    0.9183   -1.3906 H   0  0  0  0  0  0  0  0  0  0  0  0
   -4.4258    2.1848   -0.3629 H   0  0  0  0  0  0  0  0  0  0  0  0
   -3.6307   -1.3123   -1.6736 H   0  0  0  0  0  0  0  0  0  0  0  0
   -1.9424   -1.2221   -1.1501 H   0  0  0  0  0  0  0  0  0  0  0  0
   -2.5961   -0.9010    1.1715 H   0  0  0  0  0  0  0  0  0  0  0  0
   -3.7877   -2.1006    0.5857 H   0  0  0  0  0  0  0  0  0  0  0  0
   -2.0847    1.6296    0.4705 H   0  0  0  0  0  0  0  0  0  0  0  0
   -0.0019    2.0802    0.8858 H   0  0  0  0  0  0  0  0  0  0  0  0
    0.0409    3.4503   -0.2640 H   0  0  0  0  0  0  0  0  0  0  0  0
    4.5752    3.0689    0.0944 H   0  0  0  0  0  0  0  0  0  0  0  0
    3.8853    2.0758   -1.1751 H   0  0  0  0  0  0  0  0  0  0  0  0
    5.3914    0.7425    0.3537 H   0  0  0  0  0  0  0  0  0  0  0  0
    4.3972    1.1940    1.7349 H   0  0  0  0  0  0  0  0  0  0  0  0
    2.3168   -3.7556   -1.9313 H   0  0  0  0  0  0  0  0  0  0  0  0
    0.1434   -1.7946    2.1091 H   0  0  0  0  0  0  0  0  0  0  0  0
    0.2898   -4.8019   -0.9527 H   0  0  0  0  0  0  0  0  0  0  0  0
   -0.7849   -3.8301    1.0466 H   0  0  0  0  0  0  0  0  0  0  0  0
  1  3  2  0  0  0  0
  1  4  2  0  0  0  0
  1 11  1  0  0  0  0
  1 13  1  0  0  0  0
  2 19  1  0  0  0  0
  2 20  1  0  0  0  0
  5 15  1  0  0  0  0
  5 18  1  0  0  0  0
  6 14  2  0  0  0  0
  7 18  2  0  0  0  0
  8 10  1  0  0  0  0
  8 14  1  0  0  0  0
  8 33  1  0  0  0  0
  9 19  2  0  0  0  0
  9 21  1  0  0  0  0
 10 11  1  0  0  0  0
 10 12  1  0  0  0  0
 10 26  1  0  0  0  0
 11 27  1  0  0  0  0
 11 28  1  0  0  0  0
 12 13  1  0  0  0  0
 12 29  1  0  0  0  0
 12 30  1  0  0  0  0
 13 31  1  0  0  0  0
 13 32  1  0  0  0  0
 14 15  1  0  0  0  0
 15 34  1  0  0  0  0
 15 35  1  0  0  0  0
 16 17  1  0  0  0  0
 16 18  1  0  0  0  0
 16 36  1  0  0  0  0
 16 37  1  0  0  0  0
 17 19  1  0  0  0  0
 17 38  1  0  0  0  0
 17 39  1  0  0  0  0
 20 21  1  0  0  0  0
 20 22  2  0  0  0  0
 21 23  2  0  0  0  0
 22 24  1  0  0  0  0
 22 40  1  0  0  0  0
 23 25  1  0  0  0  0
 23 41  1  0  0  0  0
 24 25  2  0  0  0  0
 24 42  1  0  0  0  0
 25 43  1  0  0  0  0
M  END
> <PUBCHEM_COMPOUND_CID>
7846943

> <PUBCHEM_CONFORMER_RMSD>
1

> <PUBCHEM_CONFORMER_DIVERSEORDER>
1
224
472
205
66
59
367
294
303
417
424
251
209
160
170
358
285
103
85
262
470
78
29
157
60
199
333
377
127
138
232
77
427
458
359
315
277
469
412
25
19
242
115
310
247
420
188
280
370
373
16
308
439
92
155
230
296
220
432
335
141
383
94
193
63
286
248
112
116
84
198
91
463
169
136
423
79
376
178
147
363
70
351
95
414
398
314
465
201
13
159
272
82
326
21
455
468
252
323
15
300
158
282
375
113
24
231
279
52
27
292
186
264
399
67
422
74
168
437
124
416
6
14
10
450
56
305
233
162
222
271
42
26
241
144
125
34
214
12
407
460
426
71
58
185
210
436
311
421
17
203
346
490
387
54
33
475
238
254
139
345
65
234
23
184
239
419
313
462
154
459
2
362
356
482
123
321
360
151
413
291
298
392
229
316
111
340
386
163
295
389
32
89
433
485
332
449
135
107
226
380
371
211
250
457
179
122
270
418
273
477
47
259
384
156
256
369
304
153
128
194
119
11
51
374
372
200
149
90
221
448
99
283
215
364
216
246
87
133
415
368
447
140
281
236
284
258
245
50
204
117
454
396
317
98
40
440
324
180
402
411
464
187
183
106
434
289
109
306
177
293
288
75
249
478
488
219
240
223
207
428
400
36
195
354
97
237
30
164
64
41
80
401
338
260
130
263
171
142
100
55
202
196
110
176
166
474
81
404
307
435
152
49
53
393
319
212
487
443
61
197
86
44
489
327
479
129
451
395
341
329
146
299
366
438
290
255
20
189
131
476
175
385
397
287
253
269
225
484
337
425
190
429
267
378
394
381
480
28
88
349
173
320
361
68
121
228
37
165
120
102
486
301
355
406
101
38
167
410
309
161
278
441
126
35
208
342
456
192
365
328
336
388
174
137
76
275
276
453
206
45
96
217
452
244
483
343
442
322
266
105
466
46
22
391
39
481
430
357
312
446
265
330
213
431
69
62
114
353
350
227
108
334
48
143
445
9
274
145
191
318
104
348
83
444
382
218
331
93
347
181
182
268
150
390
405
339
72
148
467
57
3
235
7
18
461
297
4
325
408
409
43
257
302
8
118
134
261
5
344
403
172
379
473
132
73
471
352
243
31

> <PUBCHEM_MMFF94_PARTIAL_CHARGES>
29
1 1.09
10 0.3
11 0.11
13 0.11
14 0.57
15 0.34
16 0.06
17 0.18
18 0.66
19 0.2
2 -0.08
20 0.04
21 0.23
22 -0.15
23 -0.15
24 -0.15
25 -0.15
3 -0.65
33 0.37
4 -0.65
40 0.15
41 0.15
42 0.15
43 0.15
5 -0.43
6 -0.57
7 -0.57
8 -0.73
9 -0.57

> <PUBCHEM_EFFECTIVE_ROTOR_COUNT>
8.8

> <PUBCHEM_PHARMACOPHORE_FEATURES>
9
1 3 acceptor
1 4 acceptor
1 6 acceptor
1 7 acceptor
1 8 donor
1 9 acceptor
5 1 10 11 12 13 rings
5 2 9 19 20 21 rings
6 20 21 22 23 24 25 rings

> <PUBCHEM_HEAVY_ATOM_COUNT>
25

> <PUBCHEM_ATOM_DEF_STEREO_COUNT>
1

> <PUBCHEM_ATOM_UDEF_STEREO_COUNT>
0

> <PUBCHEM_BOND_DEF_STEREO_COUNT>
0

> <PUBCHEM_BOND_UDEF_STEREO_COUNT>
0

> <PUBCHEM_ISOTOPIC_ATOM_COUNT>
0

> <PUBCHEM_COMPONENT_COUNT>
1

> <PUBCHEM_CACTVS_TAUTO_COUNT>
4

> <PUBCHEM_CONFORMER_ID>
0077BC1F00000001

> <PUBCHEM_MMFF94_ENERGY>
34.3224

> <PUBCHEM_FEATURE_SELFOVERLAP>
45.757

> <PUBCHEM_SHAPE_FINGERPRINT>
10064457 181 18193558865725892016
10316853 100 18271799078308768875
10675989 125 15965720056484537884
11513181 2 18043805390723818030
12035758 1 18336845143068618530
12128747 34 18268997664842761373
12422481 6 18198086723755663168
12467345 10 17968649518841768249
12553582 1 18194129735340102773
12596599 1 18113334227928291430
12596602 18 17822007601990608145
12633257 1 18339654364453159418
12778500 126 17531793788303269729
13402501 40 18272932721561123970
13533116 47 18334012801046960081
14251757 5 16099090833844766470
15635459 17 18271248338772926343
15721738 202 18263919952562540939
16067690 210 16081084883561667235
20645477 70 18340223950199891501
21197605 99 18052813655309808875
238 59 17836975283327375222
3117164 225 17974837678227227817
3633792 109 18410862088581634525
3737641 26 18118675762996009334
394071 54 18338227272028702611
5282274 181 18198340654526588854
6287921 2 18408597059166494799
6438718 38 17899985928520936590
6443956 14 18339358672992689804
653340 110 17254565898398538392
9795274 37 17695634339145516634

> <PUBCHEM_SHAPE_MULTIPOLES>
482.88
9.52
4.5
1.44
10.94
1.73
-0.09
-2.31
1.96
-4.27
-0.03
0.6
-0.15
1.08

> <PUBCHEM_SHAPE_SELFOVERLAP>
995.206

> <PUBCHEM_SHAPE_VOLUME>
277.3

> <PUBCHEM_COORDINATE_TYPE>
2
5
10

$$$$

