13463
  -OEChem-06261214302D

 31 33  0     1  0  0  0  0  0999 V2000
    3.7066    3.4222    0.0000 Cl  0  0  0  0  0  0  0  0  0  0  0  0
    4.4026    1.4530    0.0000 O   0  0  0  0  0  0  0  0  0  0  0  0
    6.7485    0.3612    0.0000 O   0  0  0  0  0  0  0  0  0  0  0  0
    6.7523    2.5368    0.0000 O   0  0  0  0  0  0  0  0  0  0  0  0
    4.6783   -0.3075    0.0000 N   0  0  0  0  0  0  0  0  0  0  0  0
    4.6783   -1.9170    0.0000 N   0  0  0  0  0  0  0  0  0  0  0  0
    2.8660   -0.1122    0.0000 N   0  0  0  0  0  0  0  0  0  0  0  0
    2.0000   -1.6122    0.0000 N   0  0  0  0  0  0  0  0  0  0  0  0
    2.8660   -3.1122    0.0000 N   0  0  0  0  0  0  0  0  0  0  0  0
    5.9405    0.9504    0.0000 C   0  0  3  0  0  0  0  0  0  0  0  0
    4.9889    0.6430    0.0000 C   0  0  3  0  0  0  0  0  0  0  0  0
    5.9422    1.9504    0.0000 C   0  0  3  0  0  0  0  0  0  0  0  0
    4.9917    2.2610    0.0000 C   0  0  3  0  0  0  0  0  0  0  0  0
    4.6844    3.2126    0.0000 C   0  0  0  0  0  0  0  0  0  0  0  0
    3.7320   -0.6122    0.0000 C   0  0  0  0  0  0  0  0  0  0  0  0
    5.2619   -1.1122    0.0000 C   0  0  0  0  0  0  0  0  0  0  0  0
    3.7320   -1.6122    0.0000 C   0  0  0  0  0  0  0  0  0  0  0  0
    2.8660   -2.1122    0.0000 C   0  0  0  0  0  0  0  0  0  0  0  0
    2.0000   -0.6122    0.0000 C   0  0  0  0  0  0  0  0  0  0  0  0
    6.6985    1.3350    0.0000 H   0  0  0  0  0  0  0  0  0  0  0  0
    5.5889    0.0409    0.0000 H   0  0  0  0  0  0  0  0  0  0  0  0
    6.6989    1.5632    0.0000 H   0  0  0  0  0  0  0  0  0  0  0  0
    4.1524    2.3955    0.0000 H   0  0  0  0  0  0  0  0  0  0  0  0
    5.2985    3.2979    0.0000 H   0  0  0  0  0  0  0  0  0  0  0  0
    4.7071    3.8322    0.0000 H   0  0  0  0  0  0  0  0  0  0  0  0
    7.3154    0.6124    0.0000 H   0  0  0  0  0  0  0  0  0  0  0  0
    6.6886    3.1535    0.0000 H   0  0  0  0  0  0  0  0  0  0  0  0
    5.8819   -1.1122    0.0000 H   0  0  0  0  0  0  0  0  0  0  0  0
    1.4631   -0.3022    0.0000 H   0  0  0  0  0  0  0  0  0  0  0  0
    2.3291   -3.4222    0.0000 H   0  0  0  0  0  0  0  0  0  0  0  0
    3.4030   -3.4222    0.0000 H   0  0  0  0  0  0  0  0  0  0  0  0
  1 14  1  0  0  0  0
  2 11  1  0  0  0  0
  2 13  1  0  0  0  0
  3 10  1  0  0  0  0
  3 26  1  0  0  0  0
  4 12  1  0  0  0  0
  4 27  1  0  0  0  0
  5 11  1  0  0  0  0
  5 15  1  0  0  0  0
  5 16  1  0  0  0  0
  6 16  2  0  0  0  0
  6 17  1  0  0  0  0
  7 15  1  0  0  0  0
  7 19  2  0  0  0  0
  8 18  2  0  0  0  0
  8 19  1  0  0  0  0
  9 18  1  0  0  0  0
  9 30  1  0  0  0  0
  9 31  1  0  0  0  0
 10 11  1  0  0  0  0
 10 12  1  0  0  0  0
 10 20  1  0  0  0  0
 11 21  1  0  0  0  0
 12 13  1  0  0  0  0
 12 22  1  0  0  0  0
 13 14  1  0  0  0  0
 13 23  1  0  0  0  0
 14 24  1  0  0  0  0
 14 25  1  0  0  0  0
 15 17  2  0  0  0  0
 16 28  1  0  0  0  0
 17 18  1  0  0  0  0
 19 29  1  0  0  0  0
M  END
> <PUBCHEM_COMPOUND_CID>
13463

> <PUBCHEM_COMPOUND_CANONICALIZED>
1

> <PUBCHEM_CACTVS_COMPLEXITY>
338

> <PUBCHEM_CACTVS_HBOND_ACCEPTOR>
7

> <PUBCHEM_CACTVS_HBOND_DONOR>
3

> <PUBCHEM_CACTVS_ROTATABLE_BOND>
2

> <PUBCHEM_CACTVS_SUBSKEYS>
AAADccBzsAAEAAAAAAAAAAAAAAAAAWJAAAAsAAAAAAAAAFgB+AAAHgIQCAAACB/hl0YF8L9MFgCgAQZhZACAgC0REKABUCAoVxCDWAJByEAeRAgPAALTACCwAAAAAAAAAAAAAAAAAAAAAAAAAAAAAAAAAA==

> <PUBCHEM_IUPAC_OPENEYE_NAME>
2-(6-aminopurin-9-yl)-5-(chloromethyl)tetrahydrofuran-3,4-diol

> <PUBCHEM_IUPAC_CAS_NAME>
2-(6-aminopurin-9-yl)-5-(chloromethyl)oxolane-3,4-diol

> <PUBCHEM_IUPAC_NAME>
2-(6-aminopurin-9-yl)-5-(chloromethyl)oxolane-3,4-diol

> <PUBCHEM_IUPAC_SYSTEMATIC_NAME>
2-(6-aminopurin-9-yl)-5-(chloromethyl)oxolane-3,4-diol

> <PUBCHEM_IUPAC_TRADITIONAL_NAME>
2-adenin-9-yl-5-(chloromethyl)tetrahydrofuran-3,4-diol

> <PUBCHEM_IUPAC_INCHI>
InChI=1S/C10H12ClN5O3/c11-1-4-6(17)7(18)10(19-4)16-3-15-5-8(12)13-2-14-9(5)16/h2-4,6-7,10,17-18H,1H2,(H2,12,13,14)

> <PUBCHEM_IUPAC_INCHIKEY>
IYSNPOMTKFZDHZ-UHFFFAOYSA-N

> <PUBCHEM_XLOGP3>
-0.3

> <PUBCHEM_EXACT_MASS>
285.062867

> <PUBCHEM_MOLECULAR_FORMULA>
C10H12ClN5O3

> <PUBCHEM_MOLECULAR_WEIGHT>
285.68698

> <PUBCHEM_OPENEYE_CAN_SMILES>
C1=NC2=C(C(=N1)N)N=CN2C3C(C(C(O3)CCl)O)O

> <PUBCHEM_OPENEYE_ISO_SMILES>
C1=NC2=C(C(=N1)N)N=CN2C3C(C(C(O3)CCl)O)O

> <PUBCHEM_CACTVS_TPSA>
119

> <PUBCHEM_MONOISOTOPIC_WEIGHT>
285.062867

> <PUBCHEM_TOTAL_CHARGE>
0

> <PUBCHEM_HEAVY_ATOM_COUNT>
19

> <PUBCHEM_ATOM_DEF_STEREO_COUNT>
0

> <PUBCHEM_ATOM_UDEF_STEREO_COUNT>
4

> <PUBCHEM_BOND_DEF_STEREO_COUNT>
0

> <PUBCHEM_BOND_UDEF_STEREO_COUNT>
0

> <PUBCHEM_ISOTOPIC_ATOM_COUNT>
0

> <PUBCHEM_COMPONENT_COUNT>
1

> <PUBCHEM_CACTVS_TAUTO_COUNT>
3

> <PUBCHEM_COORDINATE_TYPE>
1
5
255

> <PUBCHEM_BONDANNOTATIONS>
10  20  3
11  21  3
12  22  3
13  23  3
15  17  8
17  18  8
5  15  8
5  16  8
6  16  8
6  17  8
7  15  8
7  19  8
8  18  8
8  19  8

$$$$

