5913
  -OEChem-06261200583D

 48 49  0     0  0  0  0  0  0999 V2000
   -2.7826   -0.3459   -1.4576 S   0  0  0  0  0  0  0  0  0  0  0  0
    1.4248   -2.8956    0.8107 O   0  0  0  0  0  0  0  0  0  0  0  0
   -3.9951    4.4343    0.2125 N   0  0  0  0  0  0  0  0  0  0  0  0
   -0.2199   -1.5752   -0.2299 N   0  0  0  0  0  0  0  0  0  0  0  0
   -3.4214    2.1634   -0.5157 C   0  0  0  0  0  0  0  0  0  0  0  0
   -3.7757    3.0661    0.6666 C   0  0  0  0  0  0  0  0  0  0  0  0
   -3.2109    0.7234   -0.0538 C   0  0  0  0  0  0  0  0  0  0  0  0
   -2.7801    4.9753   -0.3992 C   0  0  0  0  0  0  0  0  0  0  0  0
   -4.4251    5.2838    1.3245 C   0  0  0  0  0  0  0  0  0  0  0  0
   -2.5970   -1.9323   -0.6511 C   0  0  0  0  0  0  0  0  0  0  0  0
   -1.3724   -2.3628   -0.1391 C   0  0  0  0  0  0  0  0  0  0  0  0
   -3.7234   -2.7485   -0.5412 C   0  0  0  0  0  0  0  0  0  0  0  0
   -1.2745   -3.6079    0.4821 C   0  0  0  0  0  0  0  0  0  0  0  0
   -3.6254   -3.9935    0.0801 C   0  0  0  0  0  0  0  0  0  0  0  0
   -2.4011   -4.4232    0.5917 C   0  0  0  0  0  0  0  0  0  0  0  0
    1.0660   -1.8757    0.2341 C   0  0  0  0  0  0  0  0  0  0  0  0
    2.0273   -0.7684   -0.0575 C   0  0  0  0  0  0  0  0  0  0  0  0
    4.3354    0.1600    0.0989 C   0  0  0  0  0  0  0  0  0  0  0  0
    3.3084   -0.8723    0.3260 C   0  0  0  0  0  0  0  0  0  0  0  0
    4.1309    1.1157   -0.8831 C   0  0  0  0  0  0  0  0  0  0  0  0
    5.4853    0.1546    0.8717 C   0  0  0  0  0  0  0  0  0  0  0  0
    5.1030    2.0925   -1.0984 C   0  0  0  0  0  0  0  0  0  0  0  0
    6.4574    1.1316    0.6563 C   0  0  0  0  0  0  0  0  0  0  0  0
    6.2661    2.1006   -0.3287 C   0  0  0  0  0  0  0  0  0  0  0  0
   -4.2218    2.2059   -1.2657 H   0  0  0  0  0  0  0  0  0  0  0  0
   -2.4935    2.4899   -0.9978 H   0  0  0  0  0  0  0  0  0  0  0  0
   -2.9846    3.0194    1.4267 H   0  0  0  0  0  0  0  0  0  0  0  0
   -4.6930    2.6825    1.1312 H   0  0  0  0  0  0  0  0  0  0  0  0
   -2.4037    0.6782    0.6853 H   0  0  0  0  0  0  0  0  0  0  0  0
   -4.1233    0.3414    0.4166 H   0  0  0  0  0  0  0  0  0  0  0  0
   -2.5826    4.5317   -1.3796 H   0  0  0  0  0  0  0  0  0  0  0  0
   -2.8985    6.0480   -0.5964 H   0  0  0  0  0  0  0  0  0  0  0  0
   -1.8977    4.8522    0.2394 H   0  0  0  0  0  0  0  0  0  0  0  0
   -5.3517    4.9003    1.7662 H   0  0  0  0  0  0  0  0  0  0  0  0
   -3.6667    5.3472    2.1133 H   0  0  0  0  0  0  0  0  0  0  0  0
   -4.6441    6.2982    0.9729 H   0  0  0  0  0  0  0  0  0  0  0  0
   -4.6879   -2.4335   -0.9324 H   0  0  0  0  0  0  0  0  0  0  0  0
   -0.3730   -4.0232    0.9064 H   0  0  0  0  0  0  0  0  0  0  0  0
   -0.3571   -0.6792   -0.6932 H   0  0  0  0  0  0  0  0  0  0  0  0
   -4.5024   -4.6284    0.1657 H   0  0  0  0  0  0  0  0  0  0  0  0
   -2.3266   -5.3930    1.0752 H   0  0  0  0  0  0  0  0  0  0  0  0
    1.6318    0.1072   -0.5591 H   0  0  0  0  0  0  0  0  0  0  0  0
    3.6524   -1.7597    0.8523 H   0  0  0  0  0  0  0  0  0  0  0  0
    3.2530    1.1354   -1.5208 H   0  0  0  0  0  0  0  0  0  0  0  0
    5.6483   -0.5928    1.6437 H   0  0  0  0  0  0  0  0  0  0  0  0
    4.9572    2.8442   -1.8687 H   0  0  0  0  0  0  0  0  0  0  0  0
    7.3631    1.1380    1.2556 H   0  0  0  0  0  0  0  0  0  0  0  0
    7.0236    2.8605   -0.4971 H   0  0  0  0  0  0  0  0  0  0  0  0
  1  7  1  0  0  0  0
  1 10  1  0  0  0  0
  2 16  2  0  0  0  0
  3  6  1  0  0  0  0
  3  8  1  0  0  0  0
  3  9  1  0  0  0  0
  4 11  1  0  0  0  0
  4 16  1  0  0  0  0
  4 39  1  0  0  0  0
  5  6  1  0  0  0  0
  5  7  1  0  0  0  0
  5 25  1  0  0  0  0
  5 26  1  0  0  0  0
  6 27  1  0  0  0  0
  6 28  1  0  0  0  0
  7 29  1  0  0  0  0
  7 30  1  0  0  0  0
  8 31  1  0  0  0  0
  8 32  1  0  0  0  0
  8 33  1  0  0  0  0
  9 34  1  0  0  0  0
  9 35  1  0  0  0  0
  9 36  1  0  0  0  0
 10 11  1  0  0  0  0
 10 12  2  0  0  0  0
 11 13  2  0  0  0  0
 12 14  1  0  0  0  0
 12 37  1  0  0  0  0
 13 15  1  0  0  0  0
 13 38  1  0  0  0  0
 14 15  2  0  0  0  0
 14 40  1  0  0  0  0
 15 41  1  0  0  0  0
 16 17  1  0  0  0  0
 17 19  2  0  0  0  0
 17 42  1  0  0  0  0
 18 19  1  0  0  0  0
 18 20  2  0  0  0  0
 18 21  1  0  0  0  0
 19 43  1  0  0  0  0
 20 22  1  0  0  0  0
 20 44  1  0  0  0  0
 21 23  2  0  0  0  0
 21 45  1  0  0  0  0
 22 24  2  0  0  0  0
 22 46  1  0  0  0  0
 23 24  1  0  0  0  0
 23 47  1  0  0  0  0
 24 48  1  0  0  0  0
M  END
> <PUBCHEM_COMPOUND_CID>
5913

> <PUBCHEM_CONFORMER_RMSD>
1

> <PUBCHEM_CONFORMER_DIVERSEORDER>
1
50
10
29
42
17
16
63
52
30
35
25
69
47
32
64
60
26
46
9
65
68
14
27
7
59
37
66
8
33
45
22
31
15
44
55
36
4
20
41
38
28
5
58
48
24
2
62
34
49
53
18
21
57
11
6
40
51
3
61
13
12
23
54
39
56
67
43
19

> <PUBCHEM_MMFF94_PARTIAL_CHARGES>
35
1 -0.33
10 0.1
11 0.12
12 -0.15
13 -0.15
14 -0.15
15 -0.15
16 0.62
17 -0.14
18 0.03
19 -0.18
2 -0.57
20 -0.15
21 -0.15
22 -0.15
23 -0.15
24 -0.15
3 -0.81
37 0.15
38 0.15
39 0.37
4 -0.55
40 0.15
41 0.15
42 0.15
43 0.15
44 0.15
45 0.15
46 0.15
47 0.15
48 0.15
6 0.27
7 0.23
8 0.27
9 0.27

> <PUBCHEM_EFFECTIVE_ROTOR_COUNT>
9

> <PUBCHEM_PHARMACOPHORE_FEATURES>
5
1 2 acceptor
1 3 cation
1 4 donor
6 10 11 12 13 14 15 rings
6 18 20 21 22 23 24 rings

> <PUBCHEM_HEAVY_ATOM_COUNT>
24

> <PUBCHEM_ATOM_DEF_STEREO_COUNT>
0

> <PUBCHEM_ATOM_UDEF_STEREO_COUNT>
0

> <PUBCHEM_BOND_DEF_STEREO_COUNT>
0

> <PUBCHEM_BOND_UDEF_STEREO_COUNT>
1

> <PUBCHEM_ISOTOPIC_ATOM_COUNT>
0

> <PUBCHEM_COMPONENT_COUNT>
1

> <PUBCHEM_CACTVS_TAUTO_COUNT>
2

> <PUBCHEM_CONFORMER_ID>
0000171900000001

> <PUBCHEM_MMFF94_ENERGY>
69.7732

> <PUBCHEM_FEATURE_SELFOVERLAP>
25.371

> <PUBCHEM_SHAPE_FINGERPRINT>
10937287 8 18193839469029625649
11059845 2 18122938522917410858
11477941 20 17899708855532023230
11761917 142 18335432227535712160
12107183 9 18127425655635536290
12293681 160 18126594278974597231
12788726 201 18338252500524804299
14251764 75 18119524590510739177
14790565 3 18122343746792484597
14849402 71 17689996061009471235
15400415 2 18122626312734177704
15419008 47 17898569770307645144
155225 5 18410013234438349336
16992779 147 17470432398063330521
17844677 252 18271242700040386718
20238998 120 18121782721580803111
21033650 10 18198882766053272086
21304253 13 18050561851697171211
283562 15 18342183220076505883
397830 11 10807937017193885310
5219985 13 18192148411588307317
6700243 42 17684613607914958534
7288768 16 18129940195424567723
7808743 9 18409732888916146745
9849439 229 18265612276608221941
9980921 221 18268970044028848484

> <PUBCHEM_SHAPE_MULTIPOLES>
481.93
14.22
7.94
1.06
25.55
7.5
-0.09
11.42
0.53
-17.53
2.24
-0.11
0.42
-2.12

> <PUBCHEM_SHAPE_SELFOVERLAP>
982.885

> <PUBCHEM_SHAPE_VOLUME>
280

> <PUBCHEM_COORDINATE_TYPE>
2
5
10

$$$$

