17395655
  -OEChem-06241222513D

 43 45  0     1  0  0  0  0  0999 V2000
   -3.3645    2.2438    1.5208 F   0  0  0  0  0  0  0  0  0  0  0  0
    3.6111   -2.0863    1.0786 O   0  0  0  0  0  0  0  0  0  0  0  0
    1.3443    0.3634   -2.1219 O   0  0  0  0  0  0  0  0  0  0  0  0
    0.2671   -1.4408    1.3514 O   0  0  0  0  0  0  0  0  0  0  0  0
    2.2405   -1.1533   -0.5796 N   0  0  0  0  0  0  0  0  0  0  0  0
   -1.0816   -2.4575   -0.2451 N   0  0  0  0  0  0  0  0  0  0  0  0
    3.9111    0.1980    0.3188 C   0  0  1  0  0  0  0  0  0  0  0  0
    3.5132    0.7221   -1.0654 C   0  0  2  0  0  0  0  0  0  0  0  0
    3.3466    0.9982    1.5040 C   0  0  0  0  0  0  0  0  0  0  0  0
    3.4702    2.2379   -1.2268 C   0  0  0  0  0  0  0  0  0  0  0  0
    3.2803   -1.1785    0.3293 C   0  0  0  0  0  0  0  0  0  0  0  0
    2.2070    0.0041   -1.3350 C   0  0  0  0  0  0  0  0  0  0  0  0
    3.0739    2.4411    1.2309 C   0  0  0  0  0  0  0  0  0  0  0  0
    3.1286    2.9940    0.0153 C   0  0  0  0  0  0  0  0  0  0  0  0
    1.2588   -2.2115   -0.7125 C   0  0  0  0  0  0  0  0  0  0  0  0
    0.1176   -1.9680    0.2519 C   0  0  0  0  0  0  0  0  0  0  0  0
   -2.3255   -2.4037    0.4892 C   0  0  0  0  0  0  0  0  0  0  0  0
   -3.0852   -1.1380    0.2153 C   0  0  0  0  0  0  0  0  0  0  0  0
   -2.8712   -0.0106    1.0085 C   0  0  0  0  0  0  0  0  0  0  0  0
   -4.0049   -1.0894   -0.8324 C   0  0  0  0  0  0  0  0  0  0  0  0
   -4.4967    1.2137   -0.2939 C   0  0  0  0  0  0  0  0  0  0  0  0
   -3.5772    1.1653    0.7539 C   0  0  0  0  0  0  0  0  0  0  0  0
   -4.7106    0.0863   -1.0869 C   0  0  0  0  0  0  0  0  0  0  0  0
   -5.2529    2.4696   -0.5688 C   0  0  0  0  0  0  0  0  0  0  0  0
    5.0008    0.1113    0.3917 H   0  0  0  0  0  0  0  0  0  0  0  0
    4.2102    0.3198   -1.8160 H   0  0  0  0  0  0  0  0  0  0  0  0
    2.4177    0.5501    1.8801 H   0  0  0  0  0  0  0  0  0  0  0  0
    4.0622    0.9306    2.3334 H   0  0  0  0  0  0  0  0  0  0  0  0
    4.4578    2.5858   -1.5554 H   0  0  0  0  0  0  0  0  0  0  0  0
    2.7635    2.5190   -2.0160 H   0  0  0  0  0  0  0  0  0  0  0  0
    2.8117    3.0663    2.0800 H   0  0  0  0  0  0  0  0  0  0  0  0
    2.9255    4.0563   -0.0883 H   0  0  0  0  0  0  0  0  0  0  0  0
    1.7172   -3.1738   -0.4629 H   0  0  0  0  0  0  0  0  0  0  0  0
    0.8975   -2.2328   -1.7456 H   0  0  0  0  0  0  0  0  0  0  0  0
   -1.1040   -2.8765   -1.1702 H   0  0  0  0  0  0  0  0  0  0  0  0
   -2.9179   -3.2789    0.1990 H   0  0  0  0  0  0  0  0  0  0  0  0
   -2.1193   -2.5002    1.5618 H   0  0  0  0  0  0  0  0  0  0  0  0
   -2.1600   -0.0342    1.8294 H   0  0  0  0  0  0  0  0  0  0  0  0
   -4.1790   -1.9607   -1.4582 H   0  0  0  0  0  0  0  0  0  0  0  0
   -5.4242    0.1087   -1.9062 H   0  0  0  0  0  0  0  0  0  0  0  0
   -5.8269    2.4048   -1.4993 H   0  0  0  0  0  0  0  0  0  0  0  0
   -4.5648    3.3157   -0.6679 H   0  0  0  0  0  0  0  0  0  0  0  0
   -5.9542    2.6735    0.2468 H   0  0  0  0  0  0  0  0  0  0  0  0
  1 22  1  0  0  0  0
  2 11  2  0  0  0  0
  3 12  2  0  0  0  0
  4 16  2  0  0  0  0
  5 11  1  0  0  0  0
  5 12  1  0  0  0  0
  5 15  1  0  0  0  0
  6 16  1  0  0  0  0
  6 17  1  0  0  0  0
  6 35  1  0  0  0  0
  7  8  1  0  0  0  0
  7  9  1  0  0  0  0
  7 11  1  0  0  0  0
  7 25  1  0  0  0  0
  8 10  1  0  0  0  0
  8 12  1  0  0  0  0
  8 26  1  0  0  0  0
  9 13  1  0  0  0  0
  9 27  1  0  0  0  0
  9 28  1  0  0  0  0
 10 14  1  0  0  0  0
 10 29  1  0  0  0  0
 10 30  1  0  0  0  0
 13 14  2  0  0  0  0
 13 31  1  0  0  0  0
 14 32  1  0  0  0  0
 15 16  1  0  0  0  0
 15 33  1  0  0  0  0
 15 34  1  0  0  0  0
 17 18  1  0  0  0  0
 17 36  1  0  0  0  0
 17 37  1  0  0  0  0
 18 19  2  0  0  0  0
 18 20  1  0  0  0  0
 19 22  1  0  0  0  0
 19 38  1  0  0  0  0
 20 23  2  0  0  0  0
 20 39  1  0  0  0  0
 21 22  2  0  0  0  0
 21 23  1  0  0  0  0
 21 24  1  0  0  0  0
 23 40  1  0  0  0  0
 24 41  1  0  0  0  0
 24 42  1  0  0  0  0
 24 43  1  0  0  0  0
M  END
> <PUBCHEM_COMPOUND_CID>
17395655

> <PUBCHEM_CONFORMER_RMSD>
0.8

> <PUBCHEM_CONFORMER_DIVERSEORDER>
1
90
121
175
101
32
186
72
61
148
133
211
262
265
294
137
273
259
6
29
66
323
240
89
209
87
278
10
251
139
40
53
15
317
8
140
297
307
143
120
31
293
221
300
3
223
315
166
75
163
73
222
306
130
275
196
20
14
98
46
324
200
227
250
208
305
183
162
192
158
2
206
85
213
247
270
78
126
44
81
238
266
188
218
257
318
117
152
304
263
168
244
225
115
94
24
248
41
161
132
68
100
287
22
288
145
55
261
74
95
83
9
170
224
286
326
169
34
88
43
229
295
236
16
13
171
212
157
311
99
45
119
124
52
167
216
235
191
131
309
245
198
164
69
310
177
290
234
285
125
156
203
108
243
17
82
264
11
5
77
219
182
103
39
4
37
63
147
282
60
210
179
172
319
195
136
242
112
118
26
138
320
54
316
141
134
93
165
21
190
199
122
104
113
237
233
252
64
97
128
49
226
84
253
36
185
127
111
314
144
194
325
38
214
215
79
267
28
189
50
298
58
27
70
129
205
299
220
123
254
228
135
65
176
284
42
277
67
308
109
312
107
25
289
246
204
149
207
327
181
173
160
110
48
146
255
241
51
116
178
283
151
180
321
202
291
159
7
150
239
303
23
260
313
281
96
197
153
91
59
280
57
230
142
232
274
268
249
276
106
258
155
201
86
12
256
302
279
296
80
322
154
114
30
217
105
269
231
272
33
193
71
292
187
301
18
184
76
56
62
92
174
19
102
35
47
271

> <PUBCHEM_MMFF94_PARTIAL_CHARGES>
30
1 -0.19
10 0.14
11 0.57
12 0.57
13 -0.29
14 -0.29
15 0.36
16 0.57
17 0.44
18 -0.14
19 -0.15
2 -0.57
20 -0.15
21 -0.14
22 0.19
23 -0.15
24 0.14
3 -0.57
31 0.15
32 0.15
35 0.37
38 0.15
39 0.15
4 -0.57
40 0.15
5 -0.42
6 -0.73
7 0.06
8 0.06
9 0.14

> <PUBCHEM_EFFECTIVE_ROTOR_COUNT>
5.6

> <PUBCHEM_PHARMACOPHORE_FEATURES>
7
1 2 acceptor
1 3 acceptor
1 4 acceptor
1 6 donor
5 5 7 8 11 12 rings
6 18 19 20 21 22 23 rings
6 7 8 9 10 13 14 rings

> <PUBCHEM_HEAVY_ATOM_COUNT>
24

> <PUBCHEM_ATOM_DEF_STEREO_COUNT>
0

> <PUBCHEM_ATOM_UDEF_STEREO_COUNT>
2

> <PUBCHEM_BOND_DEF_STEREO_COUNT>
0

> <PUBCHEM_BOND_UDEF_STEREO_COUNT>
0

> <PUBCHEM_ISOTOPIC_ATOM_COUNT>
0

> <PUBCHEM_COMPONENT_COUNT>
1

> <PUBCHEM_CACTVS_TAUTO_COUNT>
6

> <PUBCHEM_CONFORMER_ID>
01096FC700000001

> <PUBCHEM_MMFF94_ENERGY>
40.0535

> <PUBCHEM_FEATURE_SELFOVERLAP>
35.7

> <PUBCHEM_SHAPE_FINGERPRINT>
10498660 4 18262797333187168425
10646746 165 18335415717147759594
10670039 82 18122893249303574940
11370993 70 18409451362552607741
12633257 1 18339644545947034340
13224815 77 17967810527002703369
13583140 156 17917423242007407939
13965767 371 17917161562408051494
14251764 38 18410015390532699561
14674994 50 14426798390497416588
14848178 96 18411699876563629629
14957384 54 18339088086005552786
150020 26 12678648367269724424
15238133 3 18342740702836239368
15419009 47 16085839347844190620
15664445 248 5833695907497106570
15848702 68 18410298016929572992
17868525 174 18200323259049869162
20291156 8 8718827574534870911
20715895 44 18196379332468918541
20775530 9 9437200110734499464
21095088 737 18335421206411233159
21458453 9 17905282392401941259
21860390 5 18115584988660630294
21864079 5 18335978692596730095
22393880 68 18261385611907507636
22749437 52 18411416181257469549
235170 7 16081087086906100661
23559900 14 18114459062920835726
238 59 17313665923901638608
26353 1 16233603836181842078
341906 21 18268713813946437828
345986 75 17054729007447642642
3472631 163 18188492492892640685
3737641 26 9655577447762450288
469060 322 17769635526644934587
474 4 18201718457416314323
5895379 119 17822846619013758048
6328613 192 18272080583813857350
7808743 9 17761768469324348844
9981440 41 18339085886856346755

> <PUBCHEM_SHAPE_MULTIPOLES>
459.07
11
3.38
1.5
8.01
0.62
0.11
6.33
0.57
-0.28
-0.41
-0.66
0.39
-0.22

> <PUBCHEM_SHAPE_SELFOVERLAP>
984.575

> <PUBCHEM_SHAPE_VOLUME>
254.4

> <PUBCHEM_COORDINATE_TYPE>
2
5
10

$$$$

