6713
  -OEChem-06261201282D

 28 30  0     0  0  0  0  0  0999 V2000
    6.4144    1.3592    0.0000 S   0  0  0  0  0  0  0  0  0  0  0  0
    4.6660    1.3246    0.0000 O   0  0  0  0  0  0  0  0  0  0  0  0
    4.6660   -2.6754    0.0000 O   0  0  0  0  0  0  0  0  0  0  0  0
    6.4029    2.3592    0.0000 O   0  0  0  0  0  0  0  0  0  0  0  0
    7.4144    1.3708    0.0000 O   0  0  0  0  0  0  0  0  0  0  0  0
    5.4145    1.3477    0.0000 O   0  0  0  0  0  0  0  0  0  0  0  0
    5.5321   -0.1754    0.0000 C   0  0  0  0  0  0  0  0  0  0  0  0
    5.5321   -1.1754    0.0000 C   0  0  0  0  0  0  0  0  0  0  0  0
    3.8000   -0.1754    0.0000 C   0  0  0  0  0  0  0  0  0  0  0  0
    6.4260    0.3593    0.0000 C   0  0  0  0  0  0  0  0  0  0  0  0
    3.8000   -1.1754    0.0000 C   0  0  0  0  0  0  0  0  0  0  0  0
    4.6660    0.3246    0.0000 C   0  0  0  0  0  0  0  0  0  0  0  0
    4.6660   -1.6754    0.0000 C   0  0  0  0  0  0  0  0  0  0  0  0
    6.4260   -1.7100    0.0000 C   0  0  0  0  0  0  0  0  0  0  0  0
    7.3321   -0.1545    0.0000 C   0  0  0  0  0  0  0  0  0  0  0  0
    7.3321   -1.1962    0.0000 C   0  0  0  0  0  0  0  0  0  0  0  0
    2.9061    0.3593    0.0000 C   0  0  0  0  0  0  0  0  0  0  0  0
    2.9061   -1.7100    0.0000 C   0  0  0  0  0  0  0  0  0  0  0  0
    2.0000   -0.1545    0.0000 C   0  0  0  0  0  0  0  0  0  0  0  0
    2.0000   -1.1962    0.0000 C   0  0  0  0  0  0  0  0  0  0  0  0
    6.4188   -2.3300    0.0000 H   0  0  0  0  0  0  0  0  0  0  0  0
    7.8678    0.1575    0.0000 H   0  0  0  0  0  0  0  0  0  0  0  0
    7.8678   -1.5082    0.0000 H   0  0  0  0  0  0  0  0  0  0  0  0
    2.9132    0.9793    0.0000 H   0  0  0  0  0  0  0  0  0  0  0  0
    2.9132   -2.3300    0.0000 H   0  0  0  0  0  0  0  0  0  0  0  0
    1.4643    0.1575    0.0000 H   0  0  0  0  0  0  0  0  0  0  0  0
    1.4643   -1.5082    0.0000 H   0  0  0  0  0  0  0  0  0  0  0  0
    6.9362    2.6754    0.0000 H   0  0  0  0  0  0  0  0  0  0  0  0
  1  4  1  0  0  0  0
  1  5  2  0  0  0  0
  1  6  2  0  0  0  0
  1 10  1  0  0  0  0
  2 12  2  0  0  0  0
  3 13  2  0  0  0  0
  4 28  1  0  0  0  0
  7  8  2  0  0  0  0
  7 10  1  0  0  0  0
  7 12  1  0  0  0  0
  8 13  1  0  0  0  0
  8 14  1  0  0  0  0
  9 11  1  0  0  0  0
  9 12  1  0  0  0  0
  9 17  2  0  0  0  0
 10 15  2  0  0  0  0
 11 13  1  0  0  0  0
 11 18  2  0  0  0  0
 14 16  2  0  0  0  0
 14 21  1  0  0  0  0
 15 16  1  0  0  0  0
 15 22  1  0  0  0  0
 16 23  1  0  0  0  0
 17 19  1  0  0  0  0
 17 24  1  0  0  0  0
 18 20  1  0  0  0  0
 18 25  1  0  0  0  0
 19 20  2  0  0  0  0
 19 26  1  0  0  0  0
 20 27  1  0  0  0  0
M  END
> <PUBCHEM_COMPOUND_CID>
6713

> <PUBCHEM_COMPOUND_CANONICALIZED>
1

> <PUBCHEM_CACTVS_COMPLEXITY>
532

> <PUBCHEM_CACTVS_HBOND_ACCEPTOR>
5

> <PUBCHEM_CACTVS_HBOND_DONOR>
1

> <PUBCHEM_CACTVS_ROTATABLE_BOND>
1

> <PUBCHEM_CACTVS_SUBSKEYS>
AAADccBwOABAAAAAAAAAAAAAAAAAAAAAAAAwYMAAAAAAAADBQAAAGgQACAAADASA2AAwAYAAAIKIAqBSAHBCAEAkAAAIiBkAAMgIIDKAFRCAIQAggAAIiYcJiMCOgAAAgAAUAACAAAUAACgAAAAAAAAAAA==

> <PUBCHEM_IUPAC_OPENEYE_NAME>
9,10-dioxoanthracene-1-sulfonic acid

> <PUBCHEM_IUPAC_CAS_NAME>
9,10-dioxo-1-anthracenesulfonic acid

> <PUBCHEM_IUPAC_NAME>
9,10-dioxoanthracene-1-sulfonic acid

> <PUBCHEM_IUPAC_SYSTEMATIC_NAME>
9,10-bis(oxidanylidene)anthracene-1-sulfonic acid

> <PUBCHEM_IUPAC_TRADITIONAL_NAME>
9,10-diketoanthracene-1-sulfonic acid

> <PUBCHEM_IUPAC_INCHI>
InChI=1S/C14H8O5S/c15-13-8-4-1-2-5-9(8)14(16)12-10(13)6-3-7-11(12)20(17,18)19/h1-7H,(H,17,18,19)

> <PUBCHEM_IUPAC_INCHIKEY>
JAJIPIAHCFBEPI-UHFFFAOYSA-N

> <PUBCHEM_XLOGP3>
2.1

> <PUBCHEM_EXACT_MASS>
288.009244

> <PUBCHEM_MOLECULAR_FORMULA>
C14H8O5S

> <PUBCHEM_MOLECULAR_WEIGHT>
288.27532

> <PUBCHEM_OPENEYE_CAN_SMILES>
C1=CC=C2C(=C1)C(=O)C3=C(C2=O)C(=CC=C3)S(=O)(=O)O

> <PUBCHEM_OPENEYE_ISO_SMILES>
C1=CC=C2C(=C1)C(=O)C3=C(C2=O)C(=CC=C3)S(=O)(=O)O

> <PUBCHEM_CACTVS_TPSA>
96.9

> <PUBCHEM_MONOISOTOPIC_WEIGHT>
288.009244

> <PUBCHEM_TOTAL_CHARGE>
0

> <PUBCHEM_HEAVY_ATOM_COUNT>
20

> <PUBCHEM_ATOM_DEF_STEREO_COUNT>
0

> <PUBCHEM_ATOM_UDEF_STEREO_COUNT>
0

> <PUBCHEM_BOND_DEF_STEREO_COUNT>
0

> <PUBCHEM_BOND_UDEF_STEREO_COUNT>
0

> <PUBCHEM_ISOTOPIC_ATOM_COUNT>
0

> <PUBCHEM_COMPONENT_COUNT>
1

> <PUBCHEM_CACTVS_TAUTO_COUNT>
1

> <PUBCHEM_COORDINATE_TYPE>
1
5
255

> <PUBCHEM_BONDANNOTATIONS>
10  15  8
11  18  8
14  16  8
15  16  8
17  19  8
18  20  8
19  20  8
7  10  8
7  8  8
8  14  8
9  11  8
9  17  8

$$$$

