10809
  -OEChem-06261204592D

 26 24  0     1  0  0  0  0  0999 V2000
    7.1962    1.5000    0.0000 As  0  0  3  0  0  0  0  0  0  0  0  0
    3.7320   -1.5000    0.0000 S   0  0  3  0  0  0  0  0  0  0  0  0
    8.6962    2.3660    0.0000 Na  0  3  0  0  0  0  0  0  0  0  0  0
    2.0000   -1.5000    0.0000 Na  0  3  0  0  0  0  0  0  0  0  0  0
    7.1962   -2.5000    0.0000 O   0  0  0  0  0  0  0  0  0  0  0  0
    7.1962    2.5000    0.0000 O   0  0  0  0  0  0  0  0  0  0  0  0
    8.1962    1.5000    0.0000 O   0  5  0  0  0  0  0  0  0  0  0  0
    6.1962    1.5000    0.0000 O   0  0  0  0  0  0  0  0  0  0  0  0
    2.8660   -1.0000    0.0000 O   0  5  0  0  0  0  0  0  0  0  0  0
    3.7320   -2.5000    0.0000 O   0  0  0  0  0  0  0  0  0  0  0  0
    5.4641   -1.5000    0.0000 N   0  0  0  0  0  0  0  0  0  0  0  0
    6.3301   -1.0000    0.0000 C   0  0  0  0  0  0  0  0  0  0  0  0
    7.1962    0.5000    0.0000 C   0  0  0  0  0  0  0  0  0  0  0  0
    6.3301    0.0000    0.0000 C   0  0  0  0  0  0  0  0  0  0  0  0
    7.1962   -1.5000    0.0000 C   0  0  0  0  0  0  0  0  0  0  0  0
    8.0622    0.0000    0.0000 C   0  0  0  0  0  0  0  0  0  0  0  0
    8.0622   -1.0000    0.0000 C   0  0  0  0  0  0  0  0  0  0  0  0
    4.5981   -1.0000    0.0000 C   0  0  0  0  0  0  0  0  0  0  0  0
    5.7932    0.3100    0.0000 H   0  0  0  0  0  0  0  0  0  0  0  0
    8.5991    0.3100    0.0000 H   0  0  0  0  0  0  0  0  0  0  0  0
    5.4641   -2.1200    0.0000 H   0  0  0  0  0  0  0  0  0  0  0  0
    8.5991   -1.3100    0.0000 H   0  0  0  0  0  0  0  0  0  0  0  0
    4.9966   -0.5251    0.0000 H   0  0  0  0  0  0  0  0  0  0  0  0
    4.1996   -0.5251    0.0000 H   0  0  0  0  0  0  0  0  0  0  0  0
    7.7331   -2.8100    0.0000 H   0  0  0  0  0  0  0  0  0  0  0  0
    7.7331    2.8100    0.0000 H   0  0  0  0  0  0  0  0  0  0  0  0
  1  6  1  0  0  0  0
  1  7  1  0  0  0  0
  1  8  2  0  0  0  0
  1 13  1  0  0  0  0
  2  9  1  0  0  0  0
  2 10  2  0  0  0  0
  2 18  1  0  0  0  0
  5 15  1  0  0  0  0
  5 25  1  0  0  0  0
  6 26  1  0  0  0  0
 11 12  1  0  0  0  0
 11 18  1  0  0  0  0
 11 21  1  0  0  0  0
 12 14  1  0  0  0  0
 12 15  2  0  0  0  0
 13 14  2  0  0  0  0
 13 16  1  0  0  0  0
 14 19  1  0  0  0  0
 15 17  1  0  0  0  0
 16 17  2  0  0  0  0
 16 20  1  0  0  0  0
 17 22  1  0  0  0  0
 18 23  1  0  0  0  0
 18 24  1  0  0  0  0
M  CHG  4   3   1   4   1   7  -1   9  -1
M  END
> <PUBCHEM_COMPOUND_CID>
10809

> <PUBCHEM_COMPOUND_CANONICALIZED>
1

> <PUBCHEM_CACTVS_COMPLEXITY>
300

> <PUBCHEM_CACTVS_HBOND_ACCEPTOR>
8

> <PUBCHEM_CACTVS_HBOND_DONOR>
3

> <PUBCHEM_CACTVS_ROTATABLE_BOND>
3

> <PUBCHEM_CACTVS_SUBSKEYS>
AAADccBiODBAAAAAQAAAAAAAAAAAAAAAAAAwAAAAAAAAAAABAAAAHgUQCAAACAyBkASwxoLAAgKAACRCQGCKAAAhIgCIjIAPbIgKJiLSkZOEcBhk0BFY2AeQQAAAAAAAAAAAEAAAAAAAAAAgAAAAAAAAAA==

> <PUBCHEM_IUPAC_OPENEYE_NAME>
disodium [2-hydroxy-5-[hydroxy(oxido)arsoryl]anilino]methanesulfinate

> <PUBCHEM_IUPAC_CAS_NAME>
disodium [2-hydroxy-5-[hydroxy(oxido)arsoryl]anilino]methanesulfinate

> <PUBCHEM_IUPAC_NAME>
disodium [2-hydroxy-5-[hydroxy(oxido)arsoryl]anilino]methanesulfinate

> <PUBCHEM_IUPAC_SYSTEMATIC_NAME>
disodium [[5-[oxidanidyl(oxidanyl)arsoryl]-2-oxidanyl-phenyl]amino]methanesulfinate

> <PUBCHEM_IUPAC_TRADITIONAL_NAME>
disodium [2-hydroxy-5-[hydroxy(oxido)arsoryl]anilino]methanesulfinate

> <PUBCHEM_IUPAC_INCHI>
InChI=1S/C7H10AsNO6S.2Na/c10-7-2-1-5(8(11,12)13)3-6(7)9-4-16(14)15;;/h1-3,9-10H,4H2,(H,14,15)(H2,11,12,13);;/q;2*+1/p-2

> <PUBCHEM_IUPAC_INCHIKEY>
DXOVFKCXTQMPEM-UHFFFAOYSA-L

> <PUBCHEM_EXACT_MASS>
354.908368

> <PUBCHEM_MOLECULAR_FORMULA>
C7H8AsNNa2O6S

> <PUBCHEM_MOLECULAR_WEIGHT>
355.107659

> <PUBCHEM_OPENEYE_CAN_SMILES>
C1=CC(=C(C=C1[As](=O)(O)[O-])NCS(=O)[O-])O.[Na+].[Na+]

> <PUBCHEM_OPENEYE_ISO_SMILES>
C1=CC(=C(C=C1[As](=O)(O)[O-])NCS(=O)[O-])O.[Na+].[Na+]

> <PUBCHEM_CACTVS_TPSA>
152

> <PUBCHEM_MONOISOTOPIC_WEIGHT>
354.908368

> <PUBCHEM_TOTAL_CHARGE>
0

> <PUBCHEM_HEAVY_ATOM_COUNT>
18

> <PUBCHEM_ATOM_DEF_STEREO_COUNT>
0

> <PUBCHEM_ATOM_UDEF_STEREO_COUNT>
0

> <PUBCHEM_BOND_DEF_STEREO_COUNT>
0

> <PUBCHEM_BOND_UDEF_STEREO_COUNT>
0

> <PUBCHEM_ISOTOPIC_ATOM_COUNT>
0

> <PUBCHEM_COMPONENT_COUNT>
3

> <PUBCHEM_CACTVS_TAUTO_COUNT>
3

> <PUBCHEM_COORDINATE_TYPE>
1
5
255

> <PUBCHEM_BONDANNOTATIONS>
12  14  8
12  15  8
13  14  8
13  16  8
15  17  8
16  17  8

$$$$

