47205120
  -OEChem-06241222582D

 33 33  0     0  0  0  0  0  0999 V2000
    2.0000   -1.7500    0.0000 Cl  0  0  0  0  0  0  0  0  0  0  0  0
    5.4641   -1.7500    0.0000 Cl  0  0  0  0  0  0  0  0  0  0  0  0
    3.7320   -4.7500    0.0000 Cl  0  0  0  0  0  0  0  0  0  0  0  0
    3.7320   -0.7500    0.0000 S   0  0  0  0  0  0  0  0  0  0  0  0
    5.4641    3.2500    0.0000 O   0  0  0  0  0  0  0  0  0  0  0  0
    4.7320   -0.7500    0.0000 O   0  0  0  0  0  0  0  0  0  0  0  0
    2.7320   -0.7500    0.0000 O   0  0  0  0  0  0  0  0  0  0  0  0
    3.7320    0.2500    0.0000 N   0  0  0  0  0  0  0  0  0  0  0  0
    4.5981    0.7500    0.0000 C   0  0  0  0  0  0  0  0  0  0  0  0
    4.5981    1.7500    0.0000 C   0  0  0  0  0  0  0  0  0  0  0  0
    5.4641    2.2500    0.0000 C   0  0  0  0  0  0  0  0  0  0  0  0
    3.7320   -1.7500    0.0000 C   0  0  0  0  0  0  0  0  0  0  0  0
    2.8660   -2.2500    0.0000 C   0  0  0  0  0  0  0  0  0  0  0  0
    4.5981   -2.2500    0.0000 C   0  0  0  0  0  0  0  0  0  0  0  0
    6.3301    3.7500    0.0000 C   0  0  0  0  0  0  0  0  0  0  0  0
    2.8660   -3.2500    0.0000 C   0  0  0  0  0  0  0  0  0  0  0  0
    4.5981   -3.2500    0.0000 C   0  0  0  0  0  0  0  0  0  0  0  0
    3.7320   -3.7500    0.0000 C   0  0  0  0  0  0  0  0  0  0  0  0
    6.3301    4.7500    0.0000 C   0  0  0  0  0  0  0  0  0  0  0  0
    4.8101    0.1674    0.0000 H   0  0  0  0  0  0  0  0  0  0  0  0
    5.2087    0.8577    0.0000 H   0  0  0  0  0  0  0  0  0  0  0  0
    4.3860    2.3326    0.0000 H   0  0  0  0  0  0  0  0  0  0  0  0
    3.9875    1.6423    0.0000 H   0  0  0  0  0  0  0  0  0  0  0  0
    3.1951    0.5600    0.0000 H   0  0  0  0  0  0  0  0  0  0  0  0
    5.6762    1.6674    0.0000 H   0  0  0  0  0  0  0  0  0  0  0  0
    6.0747    2.3577    0.0000 H   0  0  0  0  0  0  0  0  0  0  0  0
    6.5422    3.1674    0.0000 H   0  0  0  0  0  0  0  0  0  0  0  0
    6.9407    3.8577    0.0000 H   0  0  0  0  0  0  0  0  0  0  0  0
    2.3291   -3.5600    0.0000 H   0  0  0  0  0  0  0  0  0  0  0  0
    5.1350   -3.5600    0.0000 H   0  0  0  0  0  0  0  0  0  0  0  0
    6.9501    4.7500    0.0000 H   0  0  0  0  0  0  0  0  0  0  0  0
    6.3301    5.3700    0.0000 H   0  0  0  0  0  0  0  0  0  0  0  0
    5.7101    4.7500    0.0000 H   0  0  0  0  0  0  0  0  0  0  0  0
  1 13  1  0  0  0  0
  2 14  1  0  0  0  0
  3 18  1  0  0  0  0
  4  6  2  0  0  0  0
  4  7  2  0  0  0  0
  4  8  1  0  0  0  0
  4 12  1  0  0  0  0
  5 11  1  0  0  0  0
  5 15  1  0  0  0  0
  8  9  1  0  0  0  0
  8 24  1  0  0  0  0
  9 10  1  0  0  0  0
  9 20  1  0  0  0  0
  9 21  1  0  0  0  0
 10 11  1  0  0  0  0
 10 22  1  0  0  0  0
 10 23  1  0  0  0  0
 11 25  1  0  0  0  0
 11 26  1  0  0  0  0
 12 13  2  0  0  0  0
 12 14  1  0  0  0  0
 13 16  1  0  0  0  0
 14 17  2  0  0  0  0
 15 19  1  0  0  0  0
 15 27  1  0  0  0  0
 15 28  1  0  0  0  0
 16 18  2  0  0  0  0
 16 29  1  0  0  0  0
 17 18  1  0  0  0  0
 17 30  1  0  0  0  0
 19 31  1  0  0  0  0
 19 32  1  0  0  0  0
 19 33  1  0  0  0  0
M  END
> <PUBCHEM_COMPOUND_CID>
47205120

> <PUBCHEM_COMPOUND_CANONICALIZED>
1

> <PUBCHEM_CACTVS_COMPLEXITY>
349

> <PUBCHEM_CACTVS_HBOND_ACCEPTOR>
4

> <PUBCHEM_CACTVS_HBOND_DONOR>
1

> <PUBCHEM_CACTVS_ROTATABLE_BOND>
7

> <PUBCHEM_CACTVS_SUBSKEYS>
AAADccByMABGAAAAAAAAAAAAAAAAAAAAAAAwAAAAAAAAAAABAAAAHgYQQAAACALh0CYyAYBABAKAACBCAHBCABAgBQAAiJAAAogIICKBExCCIAAikAAIiAcAAAAAAAIAAACAAIAABAAAAQABAAAAAAAAAA==

> <PUBCHEM_IUPAC_OPENEYE_NAME>
2,4,6-trichloro-N-(3-ethoxypropyl)benzenesulfonamide

> <PUBCHEM_IUPAC_CAS_NAME>
2,4,6-trichloro-N-(3-ethoxypropyl)benzenesulfonamide

> <PUBCHEM_IUPAC_NAME>
2,4,6-trichloro-N-(3-ethoxypropyl)benzenesulfonamide

> <PUBCHEM_IUPAC_SYSTEMATIC_NAME>
2,4,6-tris(chloranyl)-N-(3-ethoxypropyl)benzenesulfonamide

> <PUBCHEM_IUPAC_TRADITIONAL_NAME>
2,4,6-trichloro-N-(3-ethoxypropyl)benzenesulfonamide

> <PUBCHEM_IUPAC_INCHI>
InChI=1S/C11H14Cl3NO3S/c1-2-18-5-3-4-15-19(16,17)11-9(13)6-8(12)7-10(11)14/h6-7,15H,2-5H2,1H3

> <PUBCHEM_IUPAC_INCHIKEY>
SWMPNPLEDIGBIR-UHFFFAOYSA-N

> <PUBCHEM_XLOGP3_AA>
3.3

> <PUBCHEM_EXACT_MASS>
344.975997

> <PUBCHEM_MOLECULAR_FORMULA>
C11H14Cl3NO3S

> <PUBCHEM_MOLECULAR_WEIGHT>
346.65776

> <PUBCHEM_OPENEYE_CAN_SMILES>
CCOCCCNS(=O)(=O)C1=C(C=C(C=C1Cl)Cl)Cl

> <PUBCHEM_OPENEYE_ISO_SMILES>
CCOCCCNS(=O)(=O)C1=C(C=C(C=C1Cl)Cl)Cl

> <PUBCHEM_CACTVS_TPSA>
63.8

> <PUBCHEM_MONOISOTOPIC_WEIGHT>
344.975997

> <PUBCHEM_TOTAL_CHARGE>
0

> <PUBCHEM_HEAVY_ATOM_COUNT>
19

> <PUBCHEM_ATOM_DEF_STEREO_COUNT>
0

> <PUBCHEM_ATOM_UDEF_STEREO_COUNT>
0

> <PUBCHEM_BOND_DEF_STEREO_COUNT>
0

> <PUBCHEM_BOND_UDEF_STEREO_COUNT>
0

> <PUBCHEM_ISOTOPIC_ATOM_COUNT>
0

> <PUBCHEM_COMPONENT_COUNT>
1

> <PUBCHEM_CACTVS_TAUTO_COUNT>
1

> <PUBCHEM_COORDINATE_TYPE>
1
5
255

> <PUBCHEM_BONDANNOTATIONS>
12  13  8
12  14  8
13  16  8
14  17  8
16  18  8
17  18  8

$$$$

