9185
  -OEChem-06261203292D

 42 47  0     0  0  0  0  0  0999 V2000
    4.6501    0.4814    0.0000 C   0  0  0  0  0  0  0  0  0  0  0  0
    3.7841    0.9814    0.0000 C   0  0  0  0  0  0  0  0  0  0  0  0
    3.7841   -1.0186    0.0000 C   0  0  0  0  0  0  0  0  0  0  0  0
    5.5681    2.0298    0.0000 C   0  0  0  0  0  0  0  0  0  0  0  0
    2.9180   -0.5186    0.0000 C   0  0  0  0  0  0  0  0  0  0  0  0
    4.6660    2.5506    0.0000 C   0  0  0  0  0  0  0  0  0  0  0  0
    4.6501   -0.5186    0.0000 C   0  0  0  0  0  0  0  0  0  0  0  0
    5.5601    0.9882    0.0000 C   0  0  0  0  0  0  0  0  0  0  0  0
    2.9180    0.4814    0.0000 C   0  0  0  0  0  0  0  0  0  0  0  0
    3.7680    2.0229    0.0000 C   0  0  0  0  0  0  0  0  0  0  0  0
    3.8001   -2.0601    0.0000 C   0  0  0  0  0  0  0  0  0  0  0  0
    6.5160    2.5578    0.0000 C   0  0  0  0  0  0  0  0  0  0  0  0
    2.9021   -2.5879    0.0000 C   0  0  0  0  0  0  0  0  0  0  0  0
    6.5244    3.6427    0.0000 C   0  0  0  0  0  0  0  0  0  0  0  0
    2.0080   -1.0255    0.0000 C   0  0  0  0  0  0  0  0  0  0  0  0
    4.6493    3.6355    0.0000 C   0  0  0  0  0  0  0  0  0  0  0  0
    2.0000   -2.0671    0.0000 C   0  0  0  0  0  0  0  0  0  0  0  0
    5.5847    4.1852    0.0000 C   0  0  0  0  0  0  0  0  0  0  0  0
    4.7520   -2.5808    0.0000 C   0  0  0  0  0  0  0  0  0  0  0  0
    7.4814    1.9702    0.0000 C   0  0  0  0  0  0  0  0  0  0  0  0
    2.8937   -3.6728    0.0000 C   0  0  0  0  0  0  0  0  0  0  0  0
    7.4987    4.2153    0.0000 C   0  0  0  0  0  0  0  0  0  0  0  0
    8.4688    2.5201    0.0000 C   0  0  0  0  0  0  0  0  0  0  0  0
    4.7688   -3.6656    0.0000 C   0  0  0  0  0  0  0  0  0  0  0  0
    3.8334   -4.2153    0.0000 C   0  0  0  0  0  0  0  0  0  0  0  0
    8.4775    3.6503    0.0000 C   0  0  0  0  0  0  0  0  0  0  0  0
    5.1870   -0.8286    0.0000 H   0  0  0  0  0  0  0  0  0  0  0  0
    6.0934    0.6720    0.0000 H   0  0  0  0  0  0  0  0  0  0  0  0
    3.2275    2.3267    0.0000 H   0  0  0  0  0  0  0  0  0  0  0  0
    2.3811    0.7914    0.0000 H   0  0  0  0  0  0  0  0  0  0  0  0
    4.1088    3.9393    0.0000 H   0  0  0  0  0  0  0  0  0  0  0  0
    1.4747   -0.7093    0.0000 H   0  0  0  0  0  0  0  0  0  0  0  0
    5.5823    4.8052    0.0000 H   0  0  0  0  0  0  0  0  0  0  0  0
    1.4619   -2.3750    0.0000 H   0  0  0  0  0  0  0  0  0  0  0  0
    7.4695    1.3503    0.0000 H   0  0  0  0  0  0  0  0  0  0  0  0
    5.2829   -2.2605    0.0000 H   0  0  0  0  0  0  0  0  0  0  0  0
    7.4963    4.8353    0.0000 H   0  0  0  0  0  0  0  0  0  0  0  0
    2.3556   -3.9808    0.0000 H   0  0  0  0  0  0  0  0  0  0  0  0
    9.0021    2.2039    0.0000 H   0  0  0  0  0  0  0  0  0  0  0  0
    5.3093   -3.9694    0.0000 H   0  0  0  0  0  0  0  0  0  0  0  0
    3.8357   -4.8353    0.0000 H   0  0  0  0  0  0  0  0  0  0  0  0
    9.0156    3.9582    0.0000 H   0  0  0  0  0  0  0  0  0  0  0  0
  1  2  2  0  0  0  0
  1  7  1  0  0  0  0
  1  8  1  0  0  0  0
  2  9  1  0  0  0  0
  2 10  1  0  0  0  0
  3  5  1  0  0  0  0
  3  7  2  0  0  0  0
  3 11  1  0  0  0  0
  4  6  1  0  0  0  0
  4  8  2  0  0  0  0
  4 12  1  0  0  0  0
  5  9  2  0  0  0  0
  5 15  1  0  0  0  0
  6 10  2  0  0  0  0
  6 16  1  0  0  0  0
  7 27  1  0  0  0  0
  8 28  1  0  0  0  0
  9 30  1  0  0  0  0
 10 29  1  0  0  0  0
 11 13  1  0  0  0  0
 11 19  2  0  0  0  0
 12 14  1  0  0  0  0
 12 20  2  0  0  0  0
 13 17  1  0  0  0  0
 13 21  2  0  0  0  0
 14 18  1  0  0  0  0
 14 22  2  0  0  0  0
 15 17  2  0  0  0  0
 15 32  1  0  0  0  0
 16 18  2  0  0  0  0
 16 31  1  0  0  0  0
 17 34  1  0  0  0  0
 18 33  1  0  0  0  0
 19 24  1  0  0  0  0
 19 36  1  0  0  0  0
 20 23  1  0  0  0  0
 20 35  1  0  0  0  0
 21 25  1  0  0  0  0
 21 38  1  0  0  0  0
 22 26  1  0  0  0  0
 22 37  1  0  0  0  0
 23 26  2  0  0  0  0
 23 39  1  0  0  0  0
 24 25  2  0  0  0  0
 24 40  1  0  0  0  0
 25 41  1  0  0  0  0
 26 42  1  0  0  0  0
M  END
> <PUBCHEM_COMPOUND_CID>
9185

> <PUBCHEM_COMPOUND_CANONICALIZED>
1

> <PUBCHEM_CACTVS_COMPLEXITY>
464

> <PUBCHEM_CACTVS_HBOND_ACCEPTOR>
0

> <PUBCHEM_CACTVS_HBOND_DONOR>
0

> <PUBCHEM_CACTVS_ROTATABLE_BOND>
0

> <PUBCHEM_CACTVS_SUBSKEYS>
AAADceB4AAAAAAAAAAAAAAAAAAAAAAAAAAAwYMGDAAAAAADBVAAAGAAAAAAADACAGAAwAMAAAACAAiBCAAACAAAgAAAIiAAAAIgIICKAERCAIAAggAAIiAcAgMAOwAACAAAQAACAAAQAACAAAAAAAAAAAA==

> <PUBCHEM_IUPAC_INCHI>
InChI=1S/C26H16/c1-3-7-23-17(5-1)9-11-19-13-21-14-20-12-10-18-6-2-4-8-24(18)26(20)16-22(21)15-25(19)23/h1-16H

> <PUBCHEM_IUPAC_INCHIKEY>
SYWOVGJEUTZUIZ-UHFFFAOYSA-N

> <PUBCHEM_XLOGP3>
7.7

> <PUBCHEM_EXACT_MASS>
328.125201

> <PUBCHEM_MOLECULAR_FORMULA>
C26H16

> <PUBCHEM_MOLECULAR_WEIGHT>
328.40524

> <PUBCHEM_OPENEYE_CAN_SMILES>
C1=CC=C2C(=C1)C=CC3=CC4=C(C=C32)C=C5C(=C4)C=CC6=CC=CC=C65

> <PUBCHEM_OPENEYE_ISO_SMILES>
C1=CC=C2C(=C1)C=CC3=CC4=C(C=C32)C=C5C(=C4)C=CC6=CC=CC=C65

> <PUBCHEM_CACTVS_TPSA>
0

> <PUBCHEM_MONOISOTOPIC_WEIGHT>
328.125201

> <PUBCHEM_TOTAL_CHARGE>
0

> <PUBCHEM_HEAVY_ATOM_COUNT>
26

> <PUBCHEM_ATOM_DEF_STEREO_COUNT>
0

> <PUBCHEM_ATOM_UDEF_STEREO_COUNT>
0

> <PUBCHEM_BOND_DEF_STEREO_COUNT>
0

> <PUBCHEM_BOND_UDEF_STEREO_COUNT>
0

> <PUBCHEM_ISOTOPIC_ATOM_COUNT>
0

> <PUBCHEM_COMPONENT_COUNT>
1

> <PUBCHEM_CACTVS_TAUTO_COUNT>
1

> <PUBCHEM_COORDINATE_TYPE>
1
5
255

> <PUBCHEM_BONDANNOTATIONS>
1  2  8
1  7  8
1  8  8
11  13  8
11  19  8
12  14  8
12  20  8
13  17  8
13  21  8
14  18  8
14  22  8
15  17  8
16  18  8
19  24  8
2  10  8
2  9  8
20  23  8
21  25  8
22  26  8
23  26  8
24  25  8
3  11  8
3  5  8
3  7  8
4  12  8
4  6  8
4  8  8
5  15  8
5  9  8
6  10  8
6  16  8

$$$$

