17396225
  -OEChem-06241222553D

 47 48  0     0  0  0  0  0  0999 V2000
   -6.7847    0.6258   -0.3987 O   0  0  0  0  0  0  0  0  0  0  0  0
   -0.6555    1.2203    1.0696 O   0  0  0  0  0  0  0  0  0  0  0  0
    0.8422   -2.0736    0.6207 O   0  0  0  0  0  0  0  0  0  0  0  0
    7.9971    0.5733    0.0264 O   0  0  0  0  0  0  0  0  0  0  0  0
   -0.4841   -0.1279   -0.8055 N   0  0  0  0  0  0  0  0  0  0  0  0
    0.8873   -0.1881   -0.7234 N   0  0  0  0  0  0  0  0  0  0  0  0
    5.7359    1.2156   -0.1540 N   0  0  0  0  0  0  0  0  0  0  0  0
   -7.5026   -0.4364    0.2273 C   0  0  0  0  0  0  0  0  0  0  0  0
   -5.4301    0.6201   -0.2669 C   0  0  0  0  0  0  0  0  0  0  0  0
   -2.6532    0.6100   -0.0005 C   0  0  0  0  0  0  0  0  0  0  0  0
   -8.4471    0.1434    1.2692 C   0  0  0  0  0  0  0  0  0  0  0  0
   -8.2484   -1.2307   -0.8341 C   0  0  0  0  0  0  0  0  0  0  0  0
   -4.6873   -0.4586   -0.7469 C   0  0  0  0  0  0  0  0  0  0  0  0
   -4.7844    1.6939    0.3463 C   0  0  0  0  0  0  0  0  0  0  0  0
   -3.2988   -0.4636   -0.6137 C   0  0  0  0  0  0  0  0  0  0  0  0
   -3.3960    1.6888    0.4795 C   0  0  0  0  0  0  0  0  0  0  0  0
    2.9483   -1.1928    0.0767 C   0  0  0  0  0  0  0  0  0  0  0  0
    5.0385    0.0157   -0.0098 C   0  0  0  0  0  0  0  0  0  0  0  0
    3.6449    0.0072   -0.0662 C   0  0  0  0  0  0  0  0  0  0  0  0
   -1.2055    0.6054    0.1379 C   0  0  0  0  0  0  0  0  0  0  0  0
    3.6454   -2.3844    0.2760 C   0  0  0  0  0  0  0  0  0  0  0  0
    1.4635   -1.2026    0.0169 C   0  0  0  0  0  0  0  0  0  0  0  0
    5.7357   -1.1759    0.1894 C   0  0  0  0  0  0  0  0  0  0  0  0
    5.0391   -2.3760    0.3324 C   0  0  0  0  0  0  0  0  0  0  0  0
    7.1219    1.4191   -0.1272 C   0  0  0  0  0  0  0  0  0  0  0  0
    7.4776    2.8719   -0.3214 C   0  0  0  0  0  0  0  0  0  0  0  0
   -6.8218   -1.1208    0.7519 H   0  0  0  0  0  0  0  0  0  0  0  0
   -7.8856    0.7045    2.0239 H   0  0  0  0  0  0  0  0  0  0  0  0
   -9.0181   -0.6429    1.7722 H   0  0  0  0  0  0  0  0  0  0  0  0
   -9.1492    0.8486    0.8108 H   0  0  0  0  0  0  0  0  0  0  0  0
   -7.5540   -1.6458   -1.5715 H   0  0  0  0  0  0  0  0  0  0  0  0
   -8.8151   -2.0544   -0.3893 H   0  0  0  0  0  0  0  0  0  0  0  0
   -8.9426   -0.5871   -1.3859 H   0  0  0  0  0  0  0  0  0  0  0  0
   -5.1729   -1.3010   -1.2308 H   0  0  0  0  0  0  0  0  0  0  0  0
   -5.3582    2.5371    0.7212 H   0  0  0  0  0  0  0  0  0  0  0  0
   -2.7596   -1.3330   -0.9783 H   0  0  0  0  0  0  0  0  0  0  0  0
   -2.9112    2.5368    0.9563 H   0  0  0  0  0  0  0  0  0  0  0  0
    3.1243    0.9527   -0.1946 H   0  0  0  0  0  0  0  0  0  0  0  0
    3.1206   -3.3299    0.3850 H   0  0  0  0  0  0  0  0  0  0  0  0
    6.8128   -1.2493    0.2443 H   0  0  0  0  0  0  0  0  0  0  0  0
    5.5810   -3.3047    0.4866 H   0  0  0  0  0  0  0  0  0  0  0  0
   -0.8959   -0.6006   -1.6026 H   0  0  0  0  0  0  0  0  0  0  0  0
    1.3941    0.5035   -1.2643 H   0  0  0  0  0  0  0  0  0  0  0  0
    5.1568    2.0406   -0.2960 H   0  0  0  0  0  0  0  0  0  0  0  0
    8.5624    2.9985   -0.2668 H   0  0  0  0  0  0  0  0  0  0  0  0
    7.1288    3.2096   -1.3013 H   0  0  0  0  0  0  0  0  0  0  0  0
    7.0107    3.4763    0.4614 H   0  0  0  0  0  0  0  0  0  0  0  0
  1  8  1  0  0  0  0
  1  9  1  0  0  0  0
  2 20  2  0  0  0  0
  3 22  2  0  0  0  0
  4 25  2  0  0  0  0
  5  6  1  0  0  0  0
  5 20  1  0  0  0  0
  5 42  1  0  0  0  0
  6 22  1  0  0  0  0
  6 43  1  0  0  0  0
  7 18  1  0  0  0  0
  7 25  1  0  0  0  0
  7 44  1  0  0  0  0
  8 11  1  0  0  0  0
  8 12  1  0  0  0  0
  8 27  1  0  0  0  0
  9 13  2  0  0  0  0
  9 14  1  0  0  0  0
 10 15  2  0  0  0  0
 10 16  1  0  0  0  0
 10 20  1  0  0  0  0
 11 28  1  0  0  0  0
 11 29  1  0  0  0  0
 11 30  1  0  0  0  0
 12 31  1  0  0  0  0
 12 32  1  0  0  0  0
 12 33  1  0  0  0  0
 13 15  1  0  0  0  0
 13 34  1  0  0  0  0
 14 16  2  0  0  0  0
 14 35  1  0  0  0  0
 15 36  1  0  0  0  0
 16 37  1  0  0  0  0
 17 19  2  0  0  0  0
 17 21  1  0  0  0  0
 17 22  1  0  0  0  0
 18 19  1  0  0  0  0
 18 23  2  0  0  0  0
 19 38  1  0  0  0  0
 21 24  2  0  0  0  0
 21 39  1  0  0  0  0
 23 24  1  0  0  0  0
 23 40  1  0  0  0  0
 24 41  1  0  0  0  0
 25 26  1  0  0  0  0
 26 45  1  0  0  0  0
 26 46  1  0  0  0  0
 26 47  1  0  0  0  0
M  END
> <PUBCHEM_COMPOUND_CID>
17396225

> <PUBCHEM_CONFORMER_RMSD>
1

> <PUBCHEM_CONFORMER_DIVERSEORDER>
3
14
20
4
12
18
6
8
5
15
7
11
9
22
1
21
13
16
19
2
10
17

> <PUBCHEM_MMFF94_PARTIAL_CHARGES>
35
1 -0.36
10 0.09
13 -0.15
14 -0.15
15 -0.15
16 -0.15
17 0.09
18 0.12
19 -0.15
2 -0.57
20 0.54
21 -0.15
22 0.54
23 -0.15
24 -0.15
25 0.57
26 0.06
3 -0.57
34 0.15
35 0.15
36 0.15
37 0.15
38 0.15
39 0.15
4 -0.57
40 0.15
41 0.15
42 0.37
43 0.37
44 0.37
5 -0.43
6 -0.43
7 -0.55
8 0.28
9 0.08

> <PUBCHEM_EFFECTIVE_ROTOR_COUNT>
9

> <PUBCHEM_PHARMACOPHORE_FEATURES>
10
1 1 acceptor
1 2 acceptor
1 3 acceptor
1 4 acceptor
1 5 donor
1 6 donor
1 7 donor
3 8 11 12 hydrophobe
6 17 18 19 21 23 24 rings
6 9 10 13 14 15 16 rings

> <PUBCHEM_HEAVY_ATOM_COUNT>
26

> <PUBCHEM_ATOM_DEF_STEREO_COUNT>
0

> <PUBCHEM_ATOM_UDEF_STEREO_COUNT>
0

> <PUBCHEM_BOND_DEF_STEREO_COUNT>
0

> <PUBCHEM_BOND_UDEF_STEREO_COUNT>
0

> <PUBCHEM_ISOTOPIC_ATOM_COUNT>
0

> <PUBCHEM_COMPONENT_COUNT>
1

> <PUBCHEM_CACTVS_TAUTO_COUNT>
8

> <PUBCHEM_CONFORMER_ID>
0109720100000003

> <PUBCHEM_MMFF94_ENERGY>
81.2978

> <PUBCHEM_FEATURE_SELFOVERLAP>
52.273

> <PUBCHEM_SHAPE_FINGERPRINT>
10 15 17775566421171842016
10299344 5 18114181943378170443
10391435 84 17845932944983601763
10595046 47 18336829791842535298
11315181 36 18335138709849659969
11638347 137 16773802515403233816
11719270 70 12751240319979866416
11724838 91 18413107256031962956
12236239 1 18335985362670196543
12516196 113 18201438107958204397
13899415 154 17312824878883791944
13914758 101 9799695904899275215
14123256 10 18334857212216457800
14142895 15 18340768143930644308
14251764 18 18040436590507075791
14251764 46 17988926669695159767
14461889 52 18130785638225331306
14849402 71 18335981978437226505
14856354 85 16225770701683428869
15685185 35 18196370309054386068
15716309 27 18335139826208834443
15728490 51 18410576137590008383
18335252 98 18412541003444214083
20157964 124 18413670227871852522
21033648 29 16845297188993524150
21049683 271 18333733486017443209
21150785 3 18113899351156133333
21267235 1 18261953054349591727
21315763 28 18339081596157039402
21521721 280 18411697694899715163
220451 1 16443354199500703839
22224240 67 17846500326768109650
22896161 15 18410012139558558359
23389318 12 18335711512036000791
23522609 53 17823117047197914569
23559900 14 18341898446928207417
335352 9 18041287626135974077
34797466 226 17967808371203408342
4073 2 18273492351626723290
4325135 7 18407760330706610796
5758199 1 18412544301567458634

> <PUBCHEM_SHAPE_MULTIPOLES>
496.65
26.85
2.28
0.85
11.31
0.05
-0.05
5.86
-0.25
-4.47
-0.18
1.01
-0.01
-1.39

> <PUBCHEM_SHAPE_SELFOVERLAP>
1045.474

> <PUBCHEM_SHAPE_VOLUME>
278.2

> <PUBCHEM_COORDINATE_TYPE>
2
5
10

$$$$

