47205462
  -OEChem-06241222583D

 38 39  0     0  0  0  0  0  0999 V2000
   -5.3001    0.6209   -0.4164 S   0  0  0  0  0  0  0  0  0  0  0  0
   -6.1508    1.7463   -0.0833 O   0  0  0  0  0  0  0  0  0  0  0  0
   -5.7143   -0.3656   -1.3946 O   0  0  0  0  0  0  0  0  0  0  0  0
   -0.0183    0.5798    1.2319 O   0  0  0  0  0  0  0  0  0  0  0  0
    6.2919    0.5699   -0.3662 O   0  0  0  0  0  0  0  0  0  0  0  0
   -2.4828   -0.4150    0.4802 N   0  0  0  0  0  0  0  0  0  0  0  0
    1.0084   -1.1408    0.0083 N   0  0  0  0  0  0  0  0  0  0  0  0
   -3.7110    1.2540   -0.8965 C   0  0  0  0  0  0  0  0  0  0  0  0
   -4.8870   -0.2230    1.0916 C   0  0  0  0  0  0  0  0  0  0  0  0
   -3.6883   -1.1460    0.9072 C   0  0  0  0  0  0  0  0  0  0  0  0
   -2.6416    0.1685   -0.8629 C   0  0  0  0  0  0  0  0  0  0  0  0
   -1.3242   -1.3120    0.4992 C   0  0  0  0  0  0  0  0  0  0  0  0
   -0.0529   -0.4924    0.6366 C   0  0  0  0  0  0  0  0  0  0  0  0
    2.3518   -0.7055   -0.0866 C   0  0  0  0  0  0  0  0  0  0  0  0
    3.2919   -1.4868   -0.7586 C   0  0  0  0  0  0  0  0  0  0  0  0
    2.7358    0.5046    0.4913 C   0  0  0  0  0  0  0  0  0  0  0  0
    4.6159   -1.0584   -0.8524 C   0  0  0  0  0  0  0  0  0  0  0  0
    4.0599    0.9331    0.3976 C   0  0  0  0  0  0  0  0  0  0  0  0
    4.9998    0.1517   -0.2742 C   0  0  0  0  0  0  0  0  0  0  0  0
    6.6157    1.8166    0.2477 C   0  0  0  0  0  0  0  0  0  0  0  0
   -4.6835    0.5401    1.8505 H   0  0  0  0  0  0  0  0  0  0  0  0
   -5.7711   -0.7897    1.3993 H   0  0  0  0  0  0  0  0  0  0  0  0
   -3.8169    1.6651   -1.9052 H   0  0  0  0  0  0  0  0  0  0  0  0
   -3.4624    2.0730   -0.2132 H   0  0  0  0  0  0  0  0  0  0  0  0
   -3.5035   -1.6268    1.8760 H   0  0  0  0  0  0  0  0  0  0  0  0
   -3.9291   -1.9435    0.1923 H   0  0  0  0  0  0  0  0  0  0  0  0
   -1.7021    0.6340   -1.1848 H   0  0  0  0  0  0  0  0  0  0  0  0
   -2.8783   -0.6123   -1.5977 H   0  0  0  0  0  0  0  0  0  0  0  0
   -1.3034   -1.9670   -0.3801 H   0  0  0  0  0  0  0  0  0  0  0  0
   -1.3408   -1.9578    1.3870 H   0  0  0  0  0  0  0  0  0  0  0  0
    0.8194   -2.0361   -0.4370 H   0  0  0  0  0  0  0  0  0  0  0  0
    3.0060   -2.4317   -1.2135 H   0  0  0  0  0  0  0  0  0  0  0  0
    2.0660    1.1632    1.0260 H   0  0  0  0  0  0  0  0  0  0  0  0
    5.3438   -1.6712   -1.3771 H   0  0  0  0  0  0  0  0  0  0  0  0
    4.2912    1.8825    0.8686 H   0  0  0  0  0  0  0  0  0  0  0  0
    6.0762    2.6475   -0.2196 H   0  0  0  0  0  0  0  0  0  0  0  0
    6.4664    1.7821    1.3322 H   0  0  0  0  0  0  0  0  0  0  0  0
    7.6829    1.9930    0.0777 H   0  0  0  0  0  0  0  0  0  0  0  0
  1  2  2  0  0  0  0
  1  3  2  0  0  0  0
  1  8  1  0  0  0  0
  1  9  1  0  0  0  0
  4 13  2  0  0  0  0
  5 19  1  0  0  0  0
  5 20  1  0  0  0  0
  6 10  1  0  0  0  0
  6 11  1  0  0  0  0
  6 12  1  0  0  0  0
  7 13  1  0  0  0  0
  7 14  1  0  0  0  0
  7 31  1  0  0  0  0
  8 11  1  0  0  0  0
  8 23  1  0  0  0  0
  8 24  1  0  0  0  0
  9 10  1  0  0  0  0
  9 21  1  0  0  0  0
  9 22  1  0  0  0  0
 10 25  1  0  0  0  0
 10 26  1  0  0  0  0
 11 27  1  0  0  0  0
 11 28  1  0  0  0  0
 12 13  1  0  0  0  0
 12 29  1  0  0  0  0
 12 30  1  0  0  0  0
 14 15  2  0  0  0  0
 14 16  1  0  0  0  0
 15 17  1  0  0  0  0
 15 32  1  0  0  0  0
 16 18  2  0  0  0  0
 16 33  1  0  0  0  0
 17 19  2  0  0  0  0
 17 34  1  0  0  0  0
 18 19  1  0  0  0  0
 18 35  1  0  0  0  0
 20 36  1  0  0  0  0
 20 37  1  0  0  0  0
 20 38  1  0  0  0  0
M  END
> <PUBCHEM_COMPOUND_CID>
47205462

> <PUBCHEM_CONFORMER_RMSD>
0.8

> <PUBCHEM_CONFORMER_DIVERSEORDER>
1
12
16
7
22
4
21
5
25
17
15
19
10
3
6
13
9
24
14
11
18
23
8
2
20
26

> <PUBCHEM_MMFF94_PARTIAL_CHARGES>
25
1 1.09
10 0.27
11 0.27
12 0.33
13 0.57
14 0.12
15 -0.15
16 -0.15
17 -0.15
18 -0.15
19 0.08
2 -0.65
20 0.28
3 -0.65
31 0.37
32 0.15
33 0.15
34 0.15
35 0.15
4 -0.57
5 -0.36
6 -0.81
7 -0.55
8 0.11
9 0.11

> <PUBCHEM_EFFECTIVE_ROTOR_COUNT>
6

> <PUBCHEM_PHARMACOPHORE_FEATURES>
8
1 2 acceptor
1 3 acceptor
1 4 acceptor
1 5 acceptor
1 6 cation
1 7 donor
6 1 6 8 9 10 11 rings
6 14 15 16 17 18 19 rings

> <PUBCHEM_HEAVY_ATOM_COUNT>
20

> <PUBCHEM_ATOM_DEF_STEREO_COUNT>
0

> <PUBCHEM_ATOM_UDEF_STEREO_COUNT>
0

> <PUBCHEM_BOND_DEF_STEREO_COUNT>
0

> <PUBCHEM_BOND_UDEF_STEREO_COUNT>
0

> <PUBCHEM_ISOTOPIC_ATOM_COUNT>
0

> <PUBCHEM_COMPONENT_COUNT>
1

> <PUBCHEM_CACTVS_TAUTO_COUNT>
2

> <PUBCHEM_CONFORMER_ID>
02D04C5600000001

> <PUBCHEM_MMFF94_ENERGY>
53.7359

> <PUBCHEM_FEATURE_SELFOVERLAP>
40.612

> <PUBCHEM_SHAPE_FINGERPRINT>
10354089 29 14333123087918519918
11315181 36 7276833489344298275
117890 112 18273495667683730024
12236239 1 16370720439768299202
12507557 5 16486971795899457277
12596602 18 12319730371466947901
12730499 353 18410287021813671850
12916748 109 17704068520905935069
13288520 33 5617253724265899499
13533116 47 17385718145442089014
13668630 136 16008746900909996812
13685833 64 9511466619669120116
14251752 14 16733264659479062113
14251764 18 13901904493340031142
14528608 73 17167582670357539010
14849402 71 14691991515967464206
15048467 5 18342457058320931861
15183329 4 16950564411025738025
15348495 7 10375577201104286367
15475509 35 6915712017128136668
16079462 125 18412268315801591032
17834072 33 17168148927298764495
18222031 100 14345797158314873970
18927931 339 5473137436783988677
200 152 17022618693453911866
20281389 69 17775570857271886516
20645477 56 18343866601983647531
20645477 70 18041272270810596606
21033648 29 18339930320576353496
21150785 3 17821451231621220071
21267235 1 5400795090645837535
220451 1 15502366846681779583
221357 26 18187087286076365841
22289505 5 18334012809299330040
23081809 10 16515958254996766578
23198884 109 18261392278197936473
23402539 116 17131834235687063075
23402655 69 18040433291861559174
23559900 14 17749394711335620658
2767999 5 17561368387336749639
2916195 48 18273215274833101744
29717793 49 16878215451054597974
300161 21 18260268530011901282
3004659 81 13840269186626765298
351380 3 14779269713075415895
3545911 37 18409726249112919834
4072396 5 18334868225551893714
465052 167 10447933867444046240
5104073 3 17560518503503211051
542803 24 17022900163850844379

> <PUBCHEM_SHAPE_MULTIPOLES>
382
17.18
1.54
1.08
2.99
0.21
-0.04
7.14
-2.36
0.51
-0.04
-0.81
-0.07
1.31

> <PUBCHEM_SHAPE_SELFOVERLAP>
777.788

> <PUBCHEM_SHAPE_VOLUME>
221.7

> <PUBCHEM_COORDINATE_TYPE>
2
5
10

$$$$

