11433
  -OEChem-06261205402D

 45 44  0     0  0  0  0  0  0999 V2000
    4.5981   -2.0280    0.0000 Hg  0  0  0  0  0  0  0  0  0  0  0  0
    6.3301   -3.0280    0.0000 O   0  0  0  0  0  0  0  0  0  0  0  0
    3.7320   -1.5280    0.0000 O   0  0  0  0  0  0  0  0  0  0  0  0
    2.8660   -3.0280    0.0000 O   0  0  0  0  0  0  0  0  0  0  0  0
    6.3301    0.9720    0.0000 C   0  0  0  0  0  0  0  0  0  0  0  0
    7.1962    2.4720    0.0000 C   0  0  0  0  0  0  0  0  0  0  0  0
    6.3301    1.9720    0.0000 C   0  0  0  0  0  0  0  0  0  0  0  0
    6.3301   -0.0280    0.0000 C   0  0  0  0  0  0  0  0  0  0  0  0
    7.3301    0.9720    0.0000 C   0  0  0  0  0  0  0  0  0  0  0  0
    5.3301    0.9720    0.0000 C   0  0  0  0  0  0  0  0  0  0  0  0
    8.0622    2.9720    0.0000 C   0  0  0  0  0  0  0  0  0  0  0  0
    6.6962    3.3380    0.0000 C   0  0  0  0  0  0  0  0  0  0  0  0
    7.6962    1.6060    0.0000 C   0  0  0  0  0  0  0  0  0  0  0  0
    5.4641   -0.5280    0.0000 C   0  0  0  0  0  0  0  0  0  0  0  0
    7.1962   -0.5280    0.0000 C   0  0  0  0  0  0  0  0  0  0  0  0
    5.4641   -1.5280    0.0000 C   0  0  0  0  0  0  0  0  0  0  0  0
    7.1962   -1.5280    0.0000 C   0  0  0  0  0  0  0  0  0  0  0  0
    6.3301   -2.0280    0.0000 C   0  0  0  0  0  0  0  0  0  0  0  0
    2.8660   -2.0280    0.0000 C   0  0  0  0  0  0  0  0  0  0  0  0
    2.0000   -1.5280    0.0000 C   0  0  0  0  0  0  0  0  0  0  0  0
    6.1181    2.5546    0.0000 H   0  0  0  0  0  0  0  0  0  0  0  0
    5.7196    1.8643    0.0000 H   0  0  0  0  0  0  0  0  0  0  0  0
    7.3301    0.3520    0.0000 H   0  0  0  0  0  0  0  0  0  0  0  0
    7.9501    0.9720    0.0000 H   0  0  0  0  0  0  0  0  0  0  0  0
    7.3301    1.5920    0.0000 H   0  0  0  0  0  0  0  0  0  0  0  0
    5.3301    1.5920    0.0000 H   0  0  0  0  0  0  0  0  0  0  0  0
    4.7101    0.9720    0.0000 H   0  0  0  0  0  0  0  0  0  0  0  0
    5.3301    0.3520    0.0000 H   0  0  0  0  0  0  0  0  0  0  0  0
    8.3722    2.4350    0.0000 H   0  0  0  0  0  0  0  0  0  0  0  0
    8.5991    3.2820    0.0000 H   0  0  0  0  0  0  0  0  0  0  0  0
    7.7522    3.5089    0.0000 H   0  0  0  0  0  0  0  0  0  0  0  0
    7.2331    3.6480    0.0000 H   0  0  0  0  0  0  0  0  0  0  0  0
    6.3862    3.8750    0.0000 H   0  0  0  0  0  0  0  0  0  0  0  0
    6.1592    3.0280    0.0000 H   0  0  0  0  0  0  0  0  0  0  0  0
    7.1592    1.2960    0.0000 H   0  0  0  0  0  0  0  0  0  0  0  0
    8.0062    1.0690    0.0000 H   0  0  0  0  0  0  0  0  0  0  0  0
    8.2331    1.9160    0.0000 H   0  0  0  0  0  0  0  0  0  0  0  0
    4.9272   -0.2180    0.0000 H   0  0  0  0  0  0  0  0  0  0  0  0
    7.7331   -0.2180    0.0000 H   0  0  0  0  0  0  0  0  0  0  0  0
    7.7331   -1.8380    0.0000 H   0  0  0  0  0  0  0  0  0  0  0  0
    6.8671   -3.3380    0.0000 H   0  0  0  0  0  0  0  0  0  0  0  0
    3.7320   -0.9080    0.0000 H   0  0  0  0  0  0  0  0  0  0  0  0
    2.3100   -0.9911    0.0000 H   0  0  0  0  0  0  0  0  0  0  0  0
    1.4631   -1.2180    0.0000 H   0  0  0  0  0  0  0  0  0  0  0  0
    1.6900   -2.0650    0.0000 H   0  0  0  0  0  0  0  0  0  0  0  0
  1 16  1  0  0  0  0
  2 18  1  0  0  0  0
  2 41  1  0  0  0  0
  3 19  1  0  0  0  0
  3 42  1  0  0  0  0
  4 19  2  0  0  0  0
  5  7  1  0  0  0  0
  5  8  1  0  0  0  0
  5  9  1  0  0  0  0
  5 10  1  0  0  0  0
  6  7  1  0  0  0  0
  6 11  1  0  0  0  0
  6 12  1  0  0  0  0
  6 13  1  0  0  0  0
  7 21  1  0  0  0  0
  7 22  1  0  0  0  0
  8 14  2  0  0  0  0
  8 15  1  0  0  0  0
  9 23  1  0  0  0  0
  9 24  1  0  0  0  0
  9 25  1  0  0  0  0
 10 26  1  0  0  0  0
 10 27  1  0  0  0  0
 10 28  1  0  0  0  0
 11 29  1  0  0  0  0
 11 30  1  0  0  0  0
 11 31  1  0  0  0  0
 12 32  1  0  0  0  0
 12 33  1  0  0  0  0
 12 34  1  0  0  0  0
 13 35  1  0  0  0  0
 13 36  1  0  0  0  0
 13 37  1  0  0  0  0
 14 16  1  0  0  0  0
 14 38  1  0  0  0  0
 15 17  2  0  0  0  0
 15 39  1  0  0  0  0
 16 18  2  0  0  0  0
 17 18  1  0  0  0  0
 17 40  1  0  0  0  0
 19 20  1  0  0  0  0
 20 43  1  0  0  0  0
 20 44  1  0  0  0  0
 20 45  1  0  0  0  0
M  END
> <PUBCHEM_COMPOUND_CID>
11433

> <PUBCHEM_COMPOUND_CANONICALIZED>
1

> <PUBCHEM_CACTVS_COMPLEXITY>
307

> <PUBCHEM_CACTVS_HBOND_ACCEPTOR>
3

> <PUBCHEM_CACTVS_HBOND_DONOR>
2

> <PUBCHEM_CACTVS_ROTATABLE_BOND>
4

> <PUBCHEM_CACTVS_SUBSKEYS>
AAADceB4MAAAAAAAAAAAAQAAAAAAAAAAAAAwAAAAAAAAAAABAAAAGgAACAAADgSAmAAyDoAAAgCIAiDSCAACAAAgIAAIiAAGCIgIJiKCERKAcAAkwBEImAeAwPAPoAAAAAAAAABAAAAAAAAAAAAAAAAAAA==

> <PUBCHEM_IUPAC_OPENEYE_NAME>
acetic acid; [2-hydroxy-5-(1,1,3,3-tetramethylbutyl)phenyl]mercury

> <PUBCHEM_IUPAC_CAS_NAME>
acetic acid; [2-hydroxy-5-(2,4,4-trimethylpentan-2-yl)phenyl]mercury

> <PUBCHEM_IUPAC_NAME>
acetic acid; [2-hydroxy-5-(2,4,4-trimethylpentan-2-yl)phenyl]mercury

> <PUBCHEM_IUPAC_SYSTEMATIC_NAME>
ethanoic acid; [2-oxidanyl-5-(2,4,4-trimethylpentan-2-yl)phenyl]mercury

> <PUBCHEM_IUPAC_TRADITIONAL_NAME>
acetic acid; [2-hydroxy-5-(1,1,3,3-tetramethylbutyl)phenyl]mercury

> <PUBCHEM_IUPAC_INCHI>
InChI=1S/C14H21O.C2H4O2.Hg/c1-13(2,3)10-14(4,5)11-6-8-12(15)9-7-11;1-2(3)4;/h6-8,15H,10H2,1-5H3;1H3,(H,3,4);

> <PUBCHEM_IUPAC_INCHIKEY>
WHOYMFISIFRKQQ-UHFFFAOYSA-N

> <PUBCHEM_EXACT_MASS>
467.151013

> <PUBCHEM_MOLECULAR_FORMULA>
C16H25HgO3

> <PUBCHEM_MOLECULAR_WEIGHT>
465.9579

> <PUBCHEM_OPENEYE_CAN_SMILES>
CC(=O)O.CC(C)(C)CC(C)(C)C1=CC(=C(C=C1)O)[Hg]

> <PUBCHEM_OPENEYE_ISO_SMILES>
CC(=O)O.CC(C)(C)CC(C)(C)C1=CC(=C(C=C1)O)[Hg]

> <PUBCHEM_CACTVS_TPSA>
57.5

> <PUBCHEM_MONOISOTOPIC_WEIGHT>
467.151013

> <PUBCHEM_TOTAL_CHARGE>
0

> <PUBCHEM_HEAVY_ATOM_COUNT>
20

> <PUBCHEM_ATOM_DEF_STEREO_COUNT>
0

> <PUBCHEM_ATOM_UDEF_STEREO_COUNT>
0

> <PUBCHEM_BOND_DEF_STEREO_COUNT>
0

> <PUBCHEM_BOND_UDEF_STEREO_COUNT>
0

> <PUBCHEM_ISOTOPIC_ATOM_COUNT>
0

> <PUBCHEM_COMPONENT_COUNT>
2

> <PUBCHEM_CACTVS_TAUTO_COUNT>
6

> <PUBCHEM_NONSTANDARDBOND>
1  3  6

> <PUBCHEM_COORDINATE_TYPE>
1
5
255

> <PUBCHEM_BONDANNOTATIONS>
14  16  8
15  17  8
16  18  8
17  18  8
8  14  8
8  15  8

$$$$

