8279
  -OEChem-06261202422D

 35 35  0     1  0  0  0  0  0999 V2000
    3.7321    0.7890    0.0000 S   0  0  0  0  0  0  0  0  0  0  0  0
    3.7321   -3.9431    0.0000 S   0  0  0  0  0  0  0  0  0  0  0  0
    2.0000   -0.9431    0.0000 O   0  0  0  0  0  0  0  0  0  0  0  0
    5.4641   -0.9431    0.0000 O   0  0  0  0  0  0  0  0  0  0  0  0
    2.8660   -2.4431    0.0000 N   0  0  0  0  0  0  0  0  0  0  0  0
    4.5981   -2.4431    0.0000 N   0  0  0  0  0  0  0  0  0  0  0  0
    3.7321   -0.9431    0.0000 C   0  0  3  0  0  0  0  0  0  0  0  0
    3.2321   -0.0771    0.0000 C   0  0  0  0  0  0  0  0  0  0  0  0
    4.2321   -0.0771    0.0000 C   0  0  0  0  0  0  0  0  0  0  0  0
    2.8660   -1.4431    0.0000 C   0  0  0  0  0  0  0  0  0  0  0  0
    4.5981   -1.4431    0.0000 C   0  0  0  0  0  0  0  0  0  0  0  0
    2.2321   -0.0771    0.0000 C   0  0  0  0  0  0  0  0  0  0  0  0
    4.2321    1.6550    0.0000 C   0  0  0  0  0  0  0  0  0  0  0  0
    3.7321    2.5210    0.0000 C   0  0  0  0  0  0  0  0  0  0  0  0
    4.2321    3.3871    0.0000 C   0  0  0  0  0  0  0  0  0  0  0  0
    3.7321   -2.9431    0.0000 C   0  0  0  0  0  0  0  0  0  0  0  0
    3.7321    4.2531    0.0000 C   0  0  0  0  0  0  0  0  0  0  0  0
    3.8147    0.1350    0.0000 H   0  0  0  0  0  0  0  0  0  0  0  0
    3.1244    0.5335    0.0000 H   0  0  0  0  0  0  0  0  0  0  0  0
    4.7070   -0.4756    0.0000 H   0  0  0  0  0  0  0  0  0  0  0  0
    4.7070    0.3215    0.0000 H   0  0  0  0  0  0  0  0  0  0  0  0
    2.2321    0.5429    0.0000 H   0  0  0  0  0  0  0  0  0  0  0  0
    1.6121   -0.0771    0.0000 H   0  0  0  0  0  0  0  0  0  0  0  0
    2.2321   -0.6971    0.0000 H   0  0  0  0  0  0  0  0  0  0  0  0
    4.7070    1.2565    0.0000 H   0  0  0  0  0  0  0  0  0  0  0  0
    4.7070    2.0535    0.0000 H   0  0  0  0  0  0  0  0  0  0  0  0
    3.2571    2.9196    0.0000 H   0  0  0  0  0  0  0  0  0  0  0  0
    3.2571    2.1225    0.0000 H   0  0  0  0  0  0  0  0  0  0  0  0
    2.3291   -2.7531    0.0000 H   0  0  0  0  0  0  0  0  0  0  0  0
    4.7070    2.9885    0.0000 H   0  0  0  0  0  0  0  0  0  0  0  0
    4.7070    3.7856    0.0000 H   0  0  0  0  0  0  0  0  0  0  0  0
    4.2690    4.5631    0.0000 H   0  0  0  0  0  0  0  0  0  0  0  0
    3.4221    4.7900    0.0000 H   0  0  0  0  0  0  0  0  0  0  0  0
    3.1951    3.9431    0.0000 H   0  0  0  0  0  0  0  0  0  0  0  0
    4.2690   -4.2531    0.0000 H   0  0  0  0  0  0  0  0  0  0  0  0
  1  9  1  0  0  0  0
  1 13  1  0  0  0  0
  2 16  1  0  0  0  0
  2 35  1  0  0  0  0
  3 10  2  0  0  0  0
  4 11  2  0  0  0  0
  5 10  1  0  0  0  0
  5 16  1  0  0  0  0
  5 29  1  0  0  0  0
  6 11  1  0  0  0  0
  6 16  2  0  0  0  0
  7  8  1  0  0  0  0
  7  9  1  0  0  0  0
  7 10  1  0  0  0  0
  7 11  1  0  0  0  0
  8 12  1  0  0  0  0
  8 18  1  0  0  0  0
  8 19  1  0  0  0  0
  9 20  1  0  0  0  0
  9 21  1  0  0  0  0
 12 22  1  0  0  0  0
 12 23  1  0  0  0  0
 12 24  1  0  0  0  0
 13 14  1  0  0  0  0
 13 25  1  0  0  0  0
 13 26  1  0  0  0  0
 14 15  1  0  0  0  0
 14 27  1  0  0  0  0
 14 28  1  0  0  0  0
 15 17  1  0  0  0  0
 15 30  1  0  0  0  0
 15 31  1  0  0  0  0
 17 32  1  0  0  0  0
 17 33  1  0  0  0  0
 17 34  1  0  0  0  0
M  END
> <PUBCHEM_COMPOUND_CID>
8279

> <PUBCHEM_COMPOUND_CANONICALIZED>
1

> <PUBCHEM_CACTVS_COMPLEXITY>
344

> <PUBCHEM_CACTVS_HBOND_ACCEPTOR>
4

> <PUBCHEM_CACTVS_HBOND_DONOR>
2

> <PUBCHEM_CACTVS_ROTATABLE_BOND>
6

> <PUBCHEM_CACTVS_SUBSKEYS>
AAADceBzMABgAAAAAAAAAAAAAAAAAAAAAAAgAAAAAAAAAAAAAAAAHgQQAAAADgCFwACDAALAAAwoAAEQNAAAEAEAABABAAEAAAAAABgoyAAEAAAAAAAgAAAAAAAJAAAAAAAAAAAAAAAAAAAAAAAAAAAAAA==

> <PUBCHEM_IUPAC_OPENEYE_NAME>
5-(butylsulfanylmethyl)-5-ethyl-2-sulfanyl-1H-pyrimidine-4,6-dione

> <PUBCHEM_IUPAC_CAS_NAME>
5-[(butylthio)methyl]-5-ethyl-2-mercapto-1H-pyrimidine-4,6-dione

> <PUBCHEM_IUPAC_NAME>
5-(butylsulfanylmethyl)-5-ethyl-2-sulfanyl-1H-pyrimidine-4,6-dione

> <PUBCHEM_IUPAC_SYSTEMATIC_NAME>
5-(butylsulfanylmethyl)-5-ethyl-2-sulfanyl-1H-pyrimidine-4,6-dione

> <PUBCHEM_IUPAC_TRADITIONAL_NAME>
5-[(butylthio)methyl]-5-ethyl-2-mercapto-1H-pyrimidine-4,6-quinone

> <PUBCHEM_IUPAC_INCHI>
InChI=1S/C11H18N2O2S2/c1-3-5-6-17-7-11(4-2)8(14)12-10(16)13-9(11)15/h3-7H2,1-2H3,(H2,12,13,14,15,16)

> <PUBCHEM_IUPAC_INCHIKEY>
IZXGUXKTLNWAEY-UHFFFAOYSA-N

> <PUBCHEM_XLOGP3_AA>
2.3

> <PUBCHEM_EXACT_MASS>
274.08097

> <PUBCHEM_MOLECULAR_FORMULA>
C11H18N2O2S2

> <PUBCHEM_MOLECULAR_WEIGHT>
274.40282

> <PUBCHEM_OPENEYE_CAN_SMILES>
CCCCSCC1(C(=O)NC(=NC1=O)S)CC

> <PUBCHEM_OPENEYE_ISO_SMILES>
CCCCSCC1(C(=O)NC(=NC1=O)S)CC

> <PUBCHEM_CACTVS_TPSA>
84.8

> <PUBCHEM_MONOISOTOPIC_WEIGHT>
274.08097

> <PUBCHEM_TOTAL_CHARGE>
0

> <PUBCHEM_HEAVY_ATOM_COUNT>
17

> <PUBCHEM_ATOM_DEF_STEREO_COUNT>
0

> <PUBCHEM_ATOM_UDEF_STEREO_COUNT>
1

> <PUBCHEM_BOND_DEF_STEREO_COUNT>
0

> <PUBCHEM_BOND_UDEF_STEREO_COUNT>
0

> <PUBCHEM_ISOTOPIC_ATOM_COUNT>
0

> <PUBCHEM_COMPONENT_COUNT>
1

> <PUBCHEM_CACTVS_TAUTO_COUNT>
5

> <PUBCHEM_COORDINATE_TYPE>
1
5
255

> <PUBCHEM_BONDANNOTATIONS>
7  9  3

$$$$

