14359
  -OEChem-06241222433D

 30 31  0     0  0  0  0  0  0999 V2000
    5.2334    0.0013    0.0804 O   0  0  0  0  0  0  0  0  0  0  0  0
    1.1262   -0.4427    0.0282 C   0  0  0  0  0  0  0  0  0  0  0  0
   -2.6794    0.2605    0.0145 C   0  0  0  0  0  0  0  0  0  0  0  0
   -0.3387   -0.6007    0.0108 C   0  0  0  0  0  0  0  0  0  0  0  0
    1.6811    0.7764   -0.3256 C   0  0  0  0  0  0  0  0  0  0  0  0
    1.9196   -1.5160    0.3993 C   0  0  0  0  0  0  0  0  0  0  0  0
   -1.2336    0.4148    0.0510 C   0  0  0  0  0  0  0  0  0  0  0  0
    3.8804   -0.1450    0.0629 C   0  0  0  0  0  0  0  0  0  0  0  0
    3.0678    0.9262   -0.3084 C   0  0  0  0  0  0  0  0  0  0  0  0
    3.3063   -1.3660    0.4168 C   0  0  0  0  0  0  0  0  0  0  0  0
   -3.2430   -0.9171   -0.4768 C   0  0  0  0  0  0  0  0  0  0  0  0
   -3.5025    1.2901    0.4707 C   0  0  0  0  0  0  0  0  0  0  0  0
   -4.6295   -1.0650   -0.5119 C   0  0  0  0  0  0  0  0  0  0  0  0
   -4.8890    1.1421    0.4358 C   0  0  0  0  0  0  0  0  0  0  0  0
   -5.4527   -0.0355   -0.0555 C   0  0  0  0  0  0  0  0  0  0  0  0
    5.7537    1.2765   -0.2923 C   0  0  0  0  0  0  0  0  0  0  0  0
   -0.6732   -1.6342   -0.0209 H   0  0  0  0  0  0  0  0  0  0  0  0
    1.0886    1.6287   -0.6427 H   0  0  0  0  0  0  0  0  0  0  0  0
    1.4879   -2.4731    0.6793 H   0  0  0  0  0  0  0  0  0  0  0  0
   -0.8954    1.4440    0.1357 H   0  0  0  0  0  0  0  0  0  0  0  0
    3.4480    1.8995   -0.5993 H   0  0  0  0  0  0  0  0  0  0  0  0
    3.9343   -2.2037    0.7075 H   0  0  0  0  0  0  0  0  0  0  0  0
   -2.6448   -1.7369   -0.8635 H   0  0  0  0  0  0  0  0  0  0  0  0
   -3.0821    2.2149    0.8584 H   0  0  0  0  0  0  0  0  0  0  0  0
   -5.0691   -1.9795   -0.8992 H   0  0  0  0  0  0  0  0  0  0  0  0
   -5.5300    1.9436    0.7911 H   0  0  0  0  0  0  0  0  0  0  0  0
   -6.5323   -0.1503   -0.0839 H   0  0  0  0  0  0  0  0  0  0  0  0
    5.4322    2.0608    0.4015 H   0  0  0  0  0  0  0  0  0  0  0  0
    5.5151    1.5198   -1.3333 H   0  0  0  0  0  0  0  0  0  0  0  0
    6.8445    1.2140   -0.2206 H   0  0  0  0  0  0  0  0  0  0  0  0
  1  8  1  0  0  0  0
  1 16  1  0  0  0  0
  2  4  1  0  0  0  0
  2  5  2  0  0  0  0
  2  6  1  0  0  0  0
  3  7  1  0  0  0  0
  3 11  2  0  0  0  0
  3 12  1  0  0  0  0
  4  7  2  0  0  0  0
  4 17  1  0  0  0  0
  5  9  1  0  0  0  0
  5 18  1  0  0  0  0
  6 10  2  0  0  0  0
  6 19  1  0  0  0  0
  7 20  1  0  0  0  0
  8  9  2  0  0  0  0
  8 10  1  0  0  0  0
  9 21  1  0  0  0  0
 10 22  1  0  0  0  0
 11 13  1  0  0  0  0
 11 23  1  0  0  0  0
 12 14  2  0  0  0  0
 12 24  1  0  0  0  0
 13 15  2  0  0  0  0
 13 25  1  0  0  0  0
 14 15  1  0  0  0  0
 14 26  1  0  0  0  0
 15 27  1  0  0  0  0
 16 28  1  0  0  0  0
 16 29  1  0  0  0  0
 16 30  1  0  0  0  0
M  END
> <PUBCHEM_COMPOUND_CID>
14359

> <PUBCHEM_CONFORMER_RMSD>
0.6

> <PUBCHEM_CONFORMER_DIVERSEORDER>
3
2
1

> <PUBCHEM_MMFF94_PARTIAL_CHARGES>
27
1 -0.36
10 -0.15
11 -0.15
12 -0.15
13 -0.15
14 -0.15
15 -0.15
16 0.28
17 0.15
18 0.15
19 0.15
2 0.03
20 0.15
21 0.15
22 0.15
23 0.15
24 0.15
25 0.15
26 0.15
27 0.15
3 0.03
4 -0.18
5 -0.15
6 -0.15
7 -0.18
8 0.08
9 -0.15

> <PUBCHEM_EFFECTIVE_ROTOR_COUNT>
3

> <PUBCHEM_PHARMACOPHORE_FEATURES>
3
1 1 acceptor
6 2 5 6 8 9 10 rings
6 3 11 12 13 14 15 rings

> <PUBCHEM_HEAVY_ATOM_COUNT>
16

> <PUBCHEM_ATOM_DEF_STEREO_COUNT>
0

> <PUBCHEM_ATOM_UDEF_STEREO_COUNT>
0

> <PUBCHEM_BOND_DEF_STEREO_COUNT>
0

> <PUBCHEM_BOND_UDEF_STEREO_COUNT>
1

> <PUBCHEM_ISOTOPIC_ATOM_COUNT>
0

> <PUBCHEM_COMPONENT_COUNT>
1

> <PUBCHEM_CACTVS_TAUTO_COUNT>
1

> <PUBCHEM_CONFORMER_ID>
0000381700000003

> <PUBCHEM_MMFF94_ENERGY>
57.785

> <PUBCHEM_FEATURE_SELFOVERLAP>
15.223

> <PUBCHEM_SHAPE_FINGERPRINT>
10354089 29 18343016696791199512
10595046 47 18409168800880592883
10616163 171 18334577906673648247
10680689 15 15213023756541744673
10912923 1 18410014363998320115
10968037 39 18409168792971198919
12107183 9 17617096249348133825
12236239 1 18407760343522901742
13167823 11 18409451401318453431
13631057 29 18268149752098380971
13760787 19 18261114084191423487
13897977 58 18261109686508707817
14123238 8 18410856563940031617
14251718 22 18259984855463055527
14528608 73 18409166580614745996
15196674 1 18410856598294566699
15242433 33 18408041831622098967
15242439 84 13840268091309747983
17834072 33 18408042896615485996
19050596 39 18410293627304132923
200 152 18408605855475372531
20279233 1 15985100829797297115
20645477 70 18339924934650869246
21054139 6 18339368456796503319
21065198 48 18337111267188524067
21267235 1 18409160000719619127
21641784 216 17202750627208415684
22646028 1 18410859880039983979
2297311 6 17022615369386607961
23402539 116 18259708890987499117
23402655 69 18408887347241646710
23557571 272 17167854300937352681
23559900 14 18261965050678468449
26918003 58 17346594175529193617
2916195 48 18041007194023952648
300161 21 18412269449593686309
34797466 226 17168418264803729564
3545911 37 18410572890267106539
4214541 1 18408604790460743513
42788 4 18408322185522434204
474 4 17988076695293033876
4990 188 17895186714831437950
5104073 3 18412263964625161563
542803 24 17894911840866007089
7062679 117 18335422323002880223
77779 3 18409166636433444459
9971528 1 17988921206386035334

> <PUBCHEM_SHAPE_MULTIPOLES>
323.4
13.49
1.44
0.71
0.6
0.08
0
-2.67
0.38
0.25
-0.07
-0.14
0.01
-0.96

> <PUBCHEM_SHAPE_SELFOVERLAP>
690.889

> <PUBCHEM_SHAPE_VOLUME>
180.6

> <PUBCHEM_COORDINATE_TYPE>
2
5
10

$$$$

