12821
  -OEChem-06261207243D

 20 20  0     0  0  0  0  0  0999 V2000
    2.5098   -0.4689   -0.0927 S   0  0  0  0  0  0  0  0  0  0  0  0
    2.9714   -0.7021    1.4094 F   0  0  0  0  0  0  0  0  0  0  0  0
    2.3531   -1.7970   -0.6531 O   0  0  0  0  0  0  0  0  0  0  0  0
    3.4458    0.4982   -0.6325 O   0  0  0  0  0  0  0  0  0  0  0  0
   -2.6043   -1.9821   -0.0200 O   0  0  0  0  0  0  0  0  0  0  0  0
    0.9338    0.2809   -0.0459 C   0  0  0  0  0  0  0  0  0  0  0  0
   -1.4740    0.0881   -0.0033 C   0  0  0  0  0  0  0  0  0  0  0  0
   -0.2146   -0.5105   -0.0388 C   0  0  0  0  0  0  0  0  0  0  0  0
    0.8230    1.6711   -0.0175 C   0  0  0  0  0  0  0  0  0  0  0  0
   -1.5848    1.4783    0.0252 C   0  0  0  0  0  0  0  0  0  0  0  0
   -0.4364    2.2698    0.0182 C   0  0  0  0  0  0  0  0  0  0  0  0
   -2.6714   -0.7369    0.0054 C   0  0  0  0  0  0  0  0  0  0  0  0
   -4.0513   -0.0889    0.0456 C   0  0  0  0  0  0  0  0  0  0  0  0
   -0.1273   -1.5938   -0.0533 H   0  0  0  0  0  0  0  0  0  0  0  0
    1.7031    2.3078   -0.0155 H   0  0  0  0  0  0  0  0  0  0  0  0
   -2.5444    1.9851    0.0538 H   0  0  0  0  0  0  0  0  0  0  0  0
   -0.5222    3.3523    0.0420 H   0  0  0  0  0  0  0  0  0  0  0  0
   -4.2045    0.5298   -0.8424 H   0  0  0  0  0  0  0  0  0  0  0  0
   -4.1677    0.4964    0.9613 H   0  0  0  0  0  0  0  0  0  0  0  0
   -4.8149   -0.8733    0.0467 H   0  0  0  0  0  0  0  0  0  0  0  0
  1  2  1  0  0  0  0
  1  3  2  0  0  0  0
  1  4  2  0  0  0  0
  1  6  1  0  0  0  0
  5 12  2  0  0  0  0
  6  8  1  0  0  0  0
  6  9  2  0  0  0  0
  7  8  2  0  0  0  0
  7 10  1  0  0  0  0
  7 12  1  0  0  0  0
  8 14  1  0  0  0  0
  9 11  1  0  0  0  0
  9 15  1  0  0  0  0
 10 11  2  0  0  0  0
 10 16  1  0  0  0  0
 11 17  1  0  0  0  0
 12 13  1  0  0  0  0
 13 18  1  0  0  0  0
 13 19  1  0  0  0  0
 13 20  1  0  0  0  0
M  END
> <PUBCHEM_COMPOUND_CID>
12821

> <PUBCHEM_CONFORMER_RMSD>
0.6

> <PUBCHEM_CONFORMER_DIVERSEORDER>
3
7
2
5
8
1
4
6

> <PUBCHEM_MMFF94_PARTIAL_CHARGES>
17
1 1.51
10 -0.15
11 -0.15
12 0.42
13 0.06
14 0.15
15 0.15
16 0.15
17 0.15
2 -0.2
3 -0.65
4 -0.65
5 -0.57
6 -0.01
7 0.09
8 -0.15
9 -0.15

> <PUBCHEM_EFFECTIVE_ROTOR_COUNT>
2

> <PUBCHEM_PHARMACOPHORE_FEATURES>
2
1 5 acceptor
6 6 7 8 9 10 11 rings

> <PUBCHEM_HEAVY_ATOM_COUNT>
13

> <PUBCHEM_ATOM_DEF_STEREO_COUNT>
0

> <PUBCHEM_ATOM_UDEF_STEREO_COUNT>
0

> <PUBCHEM_BOND_DEF_STEREO_COUNT>
0

> <PUBCHEM_BOND_UDEF_STEREO_COUNT>
0

> <PUBCHEM_ISOTOPIC_ATOM_COUNT>
0

> <PUBCHEM_COMPONENT_COUNT>
1

> <PUBCHEM_CACTVS_TAUTO_COUNT>
2

> <PUBCHEM_CONFORMER_ID>
0000321500000003

> <PUBCHEM_MMFF94_ENERGY>
23.4242

> <PUBCHEM_FEATURE_SELFOVERLAP>
10.148

> <PUBCHEM_SHAPE_FINGERPRINT>
10130415 120 18412826872029783785
10618630 7 18410006662921446126
10857977 72 18334022700165699736
12032990 46 18410848872117925583
12716758 59 18048599518838694736
14128692 85 18339355271336107517
14144814 61 18409163311991490515
14252887 29 18334565828665961858
15375462 189 18202283580665255939
15848700 24 18334303058661923165
161256 15 18337394837798538840
16945 1 18408042935275700221
17990270 104 18194965141176549091
193761 8 17473824408508528783
20201158 50 18411135818587715207
20281407 28 18334010588310439203
20645477 70 18051137986872786359
20711985 365 18195244640162296607
20871998 184 18115027523169234685
20871998 22 18335696161052685999
21501502 16 18191859231244510684
21501925 9 18263654969769129123
23402539 116 18341057345875390590
23463225 33 18410853265547605701
23552423 10 18127126373243984661
23557571 272 18187917439373258484
23559900 14 18264210386745597654
2748010 2 17905319985691505965
3312278 4 18341044138428799691
5902787 121 18271250408789011643
7364860 26 18118964685372352945
81228 2 18267298910027809137

> <PUBCHEM_SHAPE_MULTIPOLES>
246.5
5.63
2
0.75
0.69
0.46
-0.13
-2.19
-0.06
0.25
0.09
-0.45
-0.09
-0.07

> <PUBCHEM_SHAPE_SELFOVERLAP>
503.185

> <PUBCHEM_SHAPE_VOLUME>
144.5

> <PUBCHEM_COORDINATE_TYPE>
2
5
10

$$$$

