3359
  -OEChem-06251223222D

 96103  0     0  0  0  0  0  0999 V2000
   20.2110   -3.7641    0.0000 O   0  0  0  0  0  0  0  0  0  0  0  0
    4.7968    3.7641    0.0000 O   0  0  0  0  0  0  0  0  0  0  0  0
   18.1321    0.2717    0.0000 N   0  3  0  0  0  0  0  0  0  0  0  0
    6.8758   -0.2717    0.0000 N   0  3  0  0  0  0  0  0  0  0  0  0
   22.4011   -0.3746    0.0000 N   0  0  0  0  0  0  0  0  0  0  0  0
    2.6067    0.3746    0.0000 N   0  0  0  0  0  0  0  0  0  0  0  0
   15.5359   -0.2383    0.0000 N   0  0  0  0  0  0  0  0  0  0  0  0
    9.4719    0.2383    0.0000 N   0  0  0  0  0  0  0  0  0  0  0  0
   20.7981   -0.2075    0.0000 C   0  0  0  0  0  0  0  0  0  0  0  0
    4.2097    0.2075    0.0000 C   0  0  0  0  0  0  0  0  0  0  0  0
   19.9321    0.2925    0.0000 C   0  0  0  0  0  0  0  0  0  0  0  0
    5.0757   -0.2925    0.0000 C   0  0  0  0  0  0  0  0  0  0  0  0
   12.9360    0.2517    0.0000 C   0  0  0  0  0  0  0  0  0  0  0  0
   12.0719   -0.2517    0.0000 C   0  0  0  0  0  0  0  0  0  0  0  0
   13.8039   -0.2450    0.0000 C   0  0  0  0  0  0  0  0  0  0  0  0
   11.2039    0.2450    0.0000 C   0  0  0  0  0  0  0  0  0  0  0  0
   21.6641    0.2925    0.0000 C   0  0  0  0  0  0  0  0  0  0  0  0
    3.3437   -0.2925    0.0000 C   0  0  0  0  0  0  0  0  0  0  0  0
   21.0073   -1.1793    0.0000 C   0  0  0  0  0  0  0  0  0  0  0  0
    4.0005    1.1793    0.0000 C   0  0  0  0  0  0  0  0  0  0  0  0
    5.0757   -1.2925    0.0000 C   0  0  0  0  0  0  0  0  0  0  0  0
   19.9321    1.2925    0.0000 C   0  0  0  0  0  0  0  0  0  0  0  0
   10.3398   -0.2583    0.0000 C   0  0  0  0  0  0  0  0  0  0  0  0
   14.6680    0.2583    0.0000 C   0  0  0  0  0  0  0  0  0  0  0  0
    7.7398    0.2316    0.0000 C   0  0  0  0  0  0  0  0  0  0  0  0
   17.2680   -0.2316    0.0000 C   0  0  0  0  0  0  0  0  0  0  0  0
    3.0118    1.2824    0.0000 C   0  0  0  0  0  0  0  0  0  0  0  0
   21.9960   -1.2824    0.0000 C   0  0  0  0  0  0  0  0  0  0  0  0
   19.0381   -0.2422    0.0000 C   0  0  0  0  0  0  0  0  0  0  0  0
    5.9697    0.2422    0.0000 C   0  0  0  0  0  0  0  0  0  0  0  0
   16.4000    0.2650    0.0000 C   0  0  0  0  0  0  0  0  0  0  0  0
    8.6078   -0.2650    0.0000 C   0  0  0  0  0  0  0  0  0  0  0  0
    3.3437   -1.2925    0.0000 C   0  0  0  0  0  0  0  0  0  0  0  0
   21.6641    1.2925    0.0000 C   0  0  0  0  0  0  0  0  0  0  0  0
   20.7981    1.7925    0.0000 C   0  0  0  0  0  0  0  0  0  0  0  0
    4.2097   -1.7925    0.0000 C   0  0  0  0  0  0  0  0  0  0  0  0
    5.9697   -1.8272    0.0000 C   0  0  0  0  0  0  0  0  0  0  0  0
   19.0381    1.8272    0.0000 C   0  0  0  0  0  0  0  0  0  0  0  0
    6.8758   -1.3133    0.0000 C   0  0  0  0  0  0  0  0  0  0  0  0
   18.1321    1.3133    0.0000 C   0  0  0  0  0  0  0  0  0  0  0  0
    4.6213    2.0081    0.0000 C   0  0  0  0  0  0  0  0  0  0  0  0
   20.3866   -2.0081    0.0000 C   0  0  0  0  0  0  0  0  0  0  0  0
    2.5753    2.2213    0.0000 C   0  0  0  0  0  0  0  0  0  0  0  0
   22.4325   -2.2213    0.0000 C   0  0  0  0  0  0  0  0  0  0  0  0
    4.2066    2.9569    0.0000 C   0  0  0  0  0  0  0  0  0  0  0  0
   20.8012   -2.9569    0.0000 C   0  0  0  0  0  0  0  0  0  0  0  0
   21.8311   -3.0642    0.0000 C   0  0  0  0  0  0  0  0  0  0  0  0
    3.1767    3.0642    0.0000 C   0  0  0  0  0  0  0  0  0  0  0  0
    4.3928    4.6789    0.0000 C   0  0  0  0  0  0  0  0  0  0  0  0
   20.6150   -4.6789    0.0000 C   0  0  0  0  0  0  0  0  0  0  0  0
   11.6752   -0.7281    0.0000 H   0  0  0  0  0  0  0  0  0  0  0  0
   13.3327    0.7281    0.0000 H   0  0  0  0  0  0  0  0  0  0  0  0
   12.5356    0.7251    0.0000 H   0  0  0  0  0  0  0  0  0  0  0  0
   12.4722   -0.7251    0.0000 H   0  0  0  0  0  0  0  0  0  0  0  0
   11.6006    0.7215    0.0000 H   0  0  0  0  0  0  0  0  0  0  0  0
   13.4072   -0.7215    0.0000 H   0  0  0  0  0  0  0  0  0  0  0  0
   14.2043   -0.7184    0.0000 H   0  0  0  0  0  0  0  0  0  0  0  0
   10.8036    0.7184    0.0000 H   0  0  0  0  0  0  0  0  0  0  0  0
   15.0647    0.7348    0.0000 H   0  0  0  0  0  0  0  0  0  0  0  0
   14.2676    0.7318    0.0000 H   0  0  0  0  0  0  0  0  0  0  0  0
    9.9431   -0.7348    0.0000 H   0  0  0  0  0  0  0  0  0  0  0  0
   10.7402   -0.7318    0.0000 H   0  0  0  0  0  0  0  0  0  0  0  0
   16.8713   -0.7081    0.0000 H   0  0  0  0  0  0  0  0  0  0  0  0
   17.6683   -0.7050    0.0000 H   0  0  0  0  0  0  0  0  0  0  0  0
    8.1365    0.7081    0.0000 H   0  0  0  0  0  0  0  0  0  0  0  0
    7.3395    0.7050    0.0000 H   0  0  0  0  0  0  0  0  0  0  0  0
    5.9625    0.8621    0.0000 H   0  0  0  0  0  0  0  0  0  0  0  0
   19.0453   -0.8621    0.0000 H   0  0  0  0  0  0  0  0  0  0  0  0
   16.7967    0.7415    0.0000 H   0  0  0  0  0  0  0  0  0  0  0  0
   15.9997    0.7384    0.0000 H   0  0  0  0  0  0  0  0  0  0  0  0
    8.2111   -0.7415    0.0000 H   0  0  0  0  0  0  0  0  0  0  0  0
    9.0081   -0.7384    0.0000 H   0  0  0  0  0  0  0  0  0  0  0  0
   23.0078   -0.2467    0.0000 H   0  0  0  0  0  0  0  0  0  0  0  0
    2.0000    0.2467    0.0000 H   0  0  0  0  0  0  0  0  0  0  0  0
   15.5383   -0.8583    0.0000 H   0  0  0  0  0  0  0  0  0  0  0  0
    9.4695    0.8583    0.0000 H   0  0  0  0  0  0  0  0  0  0  0  0
   22.2011    1.6025    0.0000 H   0  0  0  0  0  0  0  0  0  0  0  0
    2.8068   -1.6025    0.0000 H   0  0  0  0  0  0  0  0  0  0  0  0
   20.7981    2.4125    0.0000 H   0  0  0  0  0  0  0  0  0  0  0  0
    4.2097   -2.4125    0.0000 H   0  0  0  0  0  0  0  0  0  0  0  0
   19.0453    2.4471    0.0000 H   0  0  0  0  0  0  0  0  0  0  0  0
    5.9625   -2.4471    0.0000 H   0  0  0  0  0  0  0  0  0  0  0  0
   17.5963    1.6254    0.0000 H   0  0  0  0  0  0  0  0  0  0  0  0
    7.4115   -1.6254    0.0000 H   0  0  0  0  0  0  0  0  0  0  0  0
    5.2371    1.9367    0.0000 H   0  0  0  0  0  0  0  0  0  0  0  0
   19.7707   -1.9367    0.0000 H   0  0  0  0  0  0  0  0  0  0  0  0
   23.0499   -2.2785    0.0000 H   0  0  0  0  0  0  0  0  0  0  0  0
    1.9579    2.2785    0.0000 H   0  0  0  0  0  0  0  0  0  0  0  0
   22.0860   -3.6294    0.0000 H   0  0  0  0  0  0  0  0  0  0  0  0
    2.9219    3.6294    0.0000 H   0  0  0  0  0  0  0  0  0  0  0  0
    4.9599    4.9294    0.0000 H   0  0  0  0  0  0  0  0  0  0  0  0
    4.1423    5.2460    0.0000 H   0  0  0  0  0  0  0  0  0  0  0  0
    3.8256    4.4284    0.0000 H   0  0  0  0  0  0  0  0  0  0  0  0
   20.0479   -4.9294    0.0000 H   0  0  0  0  0  0  0  0  0  0  0  0
   20.8655   -5.2460    0.0000 H   0  0  0  0  0  0  0  0  0  0  0  0
   21.1822   -4.4284    0.0000 H   0  0  0  0  0  0  0  0  0  0  0  0
  1 46  1  0  0  0  0
  1 50  1  0  0  0  0
  2 45  1  0  0  0  0
  2 49  1  0  0  0  0
  3 26  1  0  0  0  0
  3 29  2  0  0  0  0
  3 40  1  0  0  0  0
  4 25  1  0  0  0  0
  4 30  2  0  0  0  0
  4 39  1  0  0  0  0
  5 17  1  0  0  0  0
  5 28  1  0  0  0  0
  5 73  1  0  0  0  0
  6 18  1  0  0  0  0
  6 27  1  0  0  0  0
  6 74  1  0  0  0  0
  7 24  1  0  0  0  0
  7 31  1  0  0  0  0
  7 75  1  0  0  0  0
  8 23  1  0  0  0  0
  8 32  1  0  0  0  0
  8 76  1  0  0  0  0
  9 11  1  0  0  0  0
  9 17  2  0  0  0  0
  9 19  1  0  0  0  0
 10 12  1  0  0  0  0
 10 18  2  0  0  0  0
 10 20  1  0  0  0  0
 11 22  2  0  0  0  0
 11 29  1  0  0  0  0
 12 21  2  0  0  0  0
 12 30  1  0  0  0  0
 13 14  1  0  0  0  0
 13 15  1  0  0  0  0
 13 52  1  0  0  0  0
 13 53  1  0  0  0  0
 14 16  1  0  0  0  0
 14 51  1  0  0  0  0
 14 54  1  0  0  0  0
 15 24  1  0  0  0  0
 15 56  1  0  0  0  0
 15 57  1  0  0  0  0
 16 23  1  0  0  0  0
 16 55  1  0  0  0  0
 16 58  1  0  0  0  0
 17 34  1  0  0  0  0
 18 33  1  0  0  0  0
 19 28  2  0  0  0  0
 19 42  1  0  0  0  0
 20 27  2  0  0  0  0
 20 41  1  0  0  0  0
 21 36  1  0  0  0  0
 21 37  1  0  0  0  0
 22 35  1  0  0  0  0
 22 38  1  0  0  0  0
 23 61  1  0  0  0  0
 23 62  1  0  0  0  0
 24 59  1  0  0  0  0
 24 60  1  0  0  0  0
 25 32  1  0  0  0  0
 25 65  1  0  0  0  0
 25 66  1  0  0  0  0
 26 31  1  0  0  0  0
 26 63  1  0  0  0  0
 26 64  1  0  0  0  0
 27 43  1  0  0  0  0
 28 44  1  0  0  0  0
 29 68  1  0  0  0  0
 30 67  1  0  0  0  0
 31 69  1  0  0  0  0
 31 70  1  0  0  0  0
 32 71  1  0  0  0  0
 32 72  1  0  0  0  0
 33 36  2  0  0  0  0
 33 78  1  0  0  0  0
 34 35  2  0  0  0  0
 34 77  1  0  0  0  0
 35 79  1  0  0  0  0
 36 80  1  0  0  0  0
 37 39  2  0  0  0  0
 37 82  1  0  0  0  0
 38 40  2  0  0  0  0
 38 81  1  0  0  0  0
 39 84  1  0  0  0  0
 40 83  1  0  0  0  0
 41 45  2  0  0  0  0
 41 85  1  0  0  0  0
 42 46  2  0  0  0  0
 42 86  1  0  0  0  0
 43 48  2  0  0  0  0
 43 88  1  0  0  0  0
 44 47  2  0  0  0  0
 44 87  1  0  0  0  0
 45 48  1  0  0  0  0
 46 47  1  0  0  0  0
 47 89  1  0  0  0  0
 48 90  1  0  0  0  0
 49 91  1  0  0  0  0
 49 92  1  0  0  0  0
 49 93  1  0  0  0  0
 50 94  1  0  0  0  0
 50 95  1  0  0  0  0
 50 96  1  0  0  0  0
M  CHG  2   3   1   4   1
M  END
> <PUBCHEM_COMPOUND_CID>
3359

> <PUBCHEM_COMPOUND_CANONICALIZED>
1

> <PUBCHEM_CACTVS_COMPLEXITY>
970

> <PUBCHEM_CACTVS_HBOND_ACCEPTOR>
4

> <PUBCHEM_CACTVS_HBOND_DONOR>
4

> <PUBCHEM_CACTVS_ROTATABLE_BOND>
15

> <PUBCHEM_CACTVS_SUBSKEYS>
AAADcfB/sAAAAAAAAAAAAAAAAAAAAWLAAAA8eMGCAAAAAFix/gAAHgAQAAAADAzBngY+xvPNlACgAzRnRACCiCAxIiAI2aA+bJgMZuLEsZuUMChk0BHI6Aew0PMOiEADQAASAAAQgAaAACQAAAAAAAAAAA==

> <PUBCHEM_IUPAC_OPENEYE_NAME>
N,N'-bis[2-(10-methoxy-7H-pyrido[4,3-c]carbazol-2-ium-2-yl)ethyl]hexane-1,6-diamine

> <PUBCHEM_IUPAC_CAS_NAME>
N,N'-bis[2-(10-methoxy-7H-pyrido[4,3-c]carbazol-2-ium-2-yl)ethyl]hexane-1,6-diamine

> <PUBCHEM_IUPAC_NAME>
N,N'-bis[2-(10-methoxy-7H-pyrido[4,3-c]carbazol-2-ium-2-yl)ethyl]hexane-1,6-diamine

> <PUBCHEM_IUPAC_SYSTEMATIC_NAME>
N,N'-bis[2-(10-methoxy-7H-pyrido[4,3-c]carbazol-2-ium-2-yl)ethyl]hexane-1,6-diamine

> <PUBCHEM_IUPAC_TRADITIONAL_NAME>
2-(10-methoxy-7H-pyrido[4,3-c]carbazol-2-ium-2-yl)ethyl-[6-[2-(10-methoxy-7H-pyrido[4,3-c]carbazol-2-ium-2-yl)ethylamino]hexyl]amine

> <PUBCHEM_IUPAC_INCHI>
InChI=1S/C42H44N6O2/c1-49-31-9-13-37-33(25-31)41-35-27-47(21-15-29(35)7-11-39(41)45-37)23-19-43-17-5-3-4-6-18-44-20-24-48-22-16-30-8-12-40-42(36(30)28-48)34-26-32(50-2)10-14-38(34)46-40/h7-16,21-22,25-28,43-44H,3-6,17-20,23-24H2,1-2H3/p+2

> <PUBCHEM_IUPAC_INCHIKEY>
VJZICIMRPZDSEJ-UHFFFAOYSA-P

> <PUBCHEM_XLOGP3_AA>
7.5

> <PUBCHEM_EXACT_MASS>
666.368225

> <PUBCHEM_MOLECULAR_FORMULA>
C42H46N6O2+2

> <PUBCHEM_MOLECULAR_WEIGHT>
666.85364

> <PUBCHEM_OPENEYE_CAN_SMILES>
COC1=CC2=C(C=C1)NC3=C2C4=C(C=C3)C=C[N+](=C4)CCNCCCCCCNCC[N+]5=CC6=C(C=CC7=C6C8=C(N7)C=CC(=C8)OC)C=C5

> <PUBCHEM_OPENEYE_ISO_SMILES>
COC1=CC2=C(C=C1)NC3=C2C4=C(C=C3)C=C[N+](=C4)CCNCCCCCCNCC[N+]5=CC6=C(C=CC7=C6C8=C(N7)C=CC(=C8)OC)C=C5

> <PUBCHEM_CACTVS_TPSA>
81.9

> <PUBCHEM_MONOISOTOPIC_WEIGHT>
666.368225

> <PUBCHEM_TOTAL_CHARGE>
2

> <PUBCHEM_HEAVY_ATOM_COUNT>
50

> <PUBCHEM_ATOM_DEF_STEREO_COUNT>
0

> <PUBCHEM_ATOM_UDEF_STEREO_COUNT>
0

> <PUBCHEM_BOND_DEF_STEREO_COUNT>
0

> <PUBCHEM_BOND_UDEF_STEREO_COUNT>
0

> <PUBCHEM_ISOTOPIC_ATOM_COUNT>
0

> <PUBCHEM_COMPONENT_COUNT>
1

> <PUBCHEM_CACTVS_TAUTO_COUNT>
1

> <PUBCHEM_COORDINATE_TYPE>
1
5
255

> <PUBCHEM_BONDANNOTATIONS>
10  12  8
10  18  8
10  20  8
11  22  8
11  29  8
12  21  8
12  30  8
17  34  8
18  33  8
19  28  8
19  42  8
20  27  8
20  41  8
21  36  8
21  37  8
22  35  8
22  38  8
27  43  8
28  44  8
3  29  8
3  40  8
33  36  8
34  35  8
37  39  8
38  40  8
4  30  8
4  39  8
41  45  8
42  46  8
43  48  8
44  47  8
45  48  8
46  47  8
5  17  8
5  28  8
6  18  8
6  27  8
9  11  8
9  17  8
9  19  8

$$$$

