47205799
  -OEChem-06241223003D

 38 38  0     1  0  0  0  0  0999 V2000
    3.8070    3.9483    0.0448 Br  0  0  0  0  0  0  0  0  0  0  0  0
   -0.5279   -1.6707   -1.5741 O   0  0  0  0  0  0  0  0  0  0  0  0
   -2.5136    0.4503    1.2455 O   0  0  0  0  0  0  0  0  0  0  0  0
    0.5956   -2.0970    0.4154 N   0  0  0  0  0  0  0  0  0  0  0  0
   -2.8728   -1.3921   -0.1202 N   0  0  0  0  0  0  0  0  0  0  0  0
    1.9428   -1.9558   -0.0887 C   0  0  1  0  0  0  0  0  0  0  0  0
    2.3989   -0.5130   -0.0556 C   0  0  0  0  0  0  0  0  0  0  0  0
    2.8875   -2.8866    0.6688 C   0  0  0  0  0  0  0  0  0  0  0  0
   -1.8014   -2.2024    0.4088 C   0  0  0  0  0  0  0  0  0  0  0  0
   -0.5334   -1.9413   -0.3758 C   0  0  0  0  0  0  0  0  0  0  0  0
   -4.3132    0.5167   -0.3728 C   0  0  0  0  0  0  0  0  0  0  0  0
    1.9727    0.3300    0.9709 C   0  0  0  0  0  0  0  0  0  0  0  0
    3.2449   -0.0262   -1.0519 C   0  0  0  0  0  0  0  0  0  0  0  0
   -4.6225    1.9226    0.1333 C   0  0  0  0  0  0  0  0  0  0  0  0
   -3.1390   -0.1155    0.3528 C   0  0  0  0  0  0  0  0  0  0  0  0
    2.3923    1.6598    1.0008 C   0  0  0  0  0  0  0  0  0  0  0  0
    3.6646    1.3038   -1.0221 C   0  0  0  0  0  0  0  0  0  0  0  0
    3.2383    2.1467    0.0042 C   0  0  0  0  0  0  0  0  0  0  0  0
   -5.8209    2.5223   -0.5839 C   0  0  0  0  0  0  0  0  0  0  0  0
    1.9201   -2.2805   -1.1374 H   0  0  0  0  0  0  0  0  0  0  0  0
    0.4799   -2.2835    1.4077 H   0  0  0  0  0  0  0  0  0  0  0  0
    2.9382   -2.6257    1.7323 H   0  0  0  0  0  0  0  0  0  0  0  0
    2.5478   -3.9259    0.5996 H   0  0  0  0  0  0  0  0  0  0  0  0
    3.9038   -2.8331    0.2637 H   0  0  0  0  0  0  0  0  0  0  0  0
   -1.6664   -1.9786    1.4716 H   0  0  0  0  0  0  0  0  0  0  0  0
   -2.0778   -3.2544    0.2931 H   0  0  0  0  0  0  0  0  0  0  0  0
   -4.0793    0.5471   -1.4437 H   0  0  0  0  0  0  0  0  0  0  0  0
   -5.1873   -0.1313   -0.2366 H   0  0  0  0  0  0  0  0  0  0  0  0
    1.3256   -0.0246    1.7683 H   0  0  0  0  0  0  0  0  0  0  0  0
    3.5854   -0.6732   -1.8559 H   0  0  0  0  0  0  0  0  0  0  0  0
   -3.7506    2.5718   -0.0111 H   0  0  0  0  0  0  0  0  0  0  0  0
   -4.8233    1.8970    1.2110 H   0  0  0  0  0  0  0  0  0  0  0  0
   -3.4340   -1.7738   -0.8762 H   0  0  0  0  0  0  0  0  0  0  0  0
    2.0536    2.3029    1.8091 H   0  0  0  0  0  0  0  0  0  0  0  0
    4.3241    1.6673   -1.8060 H   0  0  0  0  0  0  0  0  0  0  0  0
   -5.6382    2.5933   -1.6609 H   0  0  0  0  0  0  0  0  0  0  0  0
   -6.0235    3.5296   -0.2066 H   0  0  0  0  0  0  0  0  0  0  0  0
   -6.7173    1.9140   -0.4264 H   0  0  0  0  0  0  0  0  0  0  0  0
  1 18  1  0  0  0  0
  2 10  2  0  0  0  0
  3 15  2  0  0  0  0
  4  6  1  0  0  0  0
  4 10  1  0  0  0  0
  4 21  1  0  0  0  0
  5  9  1  0  0  0  0
  5 15  1  0  0  0  0
  5 33  1  0  0  0  0
  6  7  1  0  0  0  0
  6  8  1  0  0  0  0
  6 20  1  0  0  0  0
  7 12  2  0  0  0  0
  7 13  1  0  0  0  0
  8 22  1  0  0  0  0
  8 23  1  0  0  0  0
  8 24  1  0  0  0  0
  9 10  1  0  0  0  0
  9 25  1  0  0  0  0
  9 26  1  0  0  0  0
 11 14  1  0  0  0  0
 11 15  1  0  0  0  0
 11 27  1  0  0  0  0
 11 28  1  0  0  0  0
 12 16  1  0  0  0  0
 12 29  1  0  0  0  0
 13 17  2  0  0  0  0
 13 30  1  0  0  0  0
 14 19  1  0  0  0  0
 14 31  1  0  0  0  0
 14 32  1  0  0  0  0
 16 18  2  0  0  0  0
 16 34  1  0  0  0  0
 17 18  1  0  0  0  0
 17 35  1  0  0  0  0
 19 36  1  0  0  0  0
 19 37  1  0  0  0  0
 19 38  1  0  0  0  0
M  END
> <PUBCHEM_COMPOUND_CID>
47205799

> <PUBCHEM_CONFORMER_RMSD>
0.8

> <PUBCHEM_CONFORMER_DIVERSEORDER>
1
27
278
53
135
300
133
169
269
10
257
316
154
124
12
262
305
22
293
110
255
222
271
59
52
50
8
254
304
69
239
240
189
16
245
43
249
196
31
61
67
55
38
36
54
115
270
62
172
296
128
134
167
232
25
301
295
165
195
112
179
209
40
248
276
176
130
65
303
166
126
217
158
71
90
218
157
234
143
83
82
94
41
288
226
317
107
132
116
205
182
314
210
207
308
235
228
88
275
26
6
118
246
57
146
202
287
160
282
298
138
103
151
319
311
23
15
108
315
192
294
70
84
277
20
260
153
175
81
119
283
261
198
42
89
85
258
102
5
247
292
48
180
161
173
265
188
320
96
63
251
18
181
122
299
313
220
34
225
106
46
212
139
284
93
302
168
127
216
44
252
187
221
190
164
259
136
219
183
125
231
274
211
186
121
77
79
244
92
98
141
113
163
120
74
224
99
238
105
13
162
227
101
264
4
35
131
78
197
256
236
237
289
193
111
72
310
312
51
290
56
11
76
178
170
297
185
291
109
29
204
91
318
307
263
140
49
253
64
174
191
279
60
230
75
250
149
233
32
203
213
3
272
39
223
280
117
241
66
281
148
268
45
159
321
137
80
156
200
206
152
194
309
215
243
123
147
114
33
242
24
171
87
266
17
19
100
37
267
229
142
208
199
58
286
7
306
28
273
97
201
47
214
285
68
145
150
14
177
73
155
86
104
30
144
184
21
9
2
95
129

> <PUBCHEM_MMFF94_PARTIAL_CHARGES>
22
1 -0.11
10 0.57
11 0.06
12 -0.15
13 -0.15
15 0.57
16 -0.15
17 -0.15
18 0.11
2 -0.57
21 0.37
29 0.15
3 -0.57
30 0.15
33 0.37
34 0.15
35 0.15
4 -0.73
5 -0.73
6 0.44
7 -0.14
9 0.36

> <PUBCHEM_EFFECTIVE_ROTOR_COUNT>
8

> <PUBCHEM_PHARMACOPHORE_FEATURES>
7
1 1 hydrophobe
1 19 hydrophobe
1 2 acceptor
1 3 acceptor
1 4 donor
1 5 donor
6 7 12 13 16 17 18 rings

> <PUBCHEM_HEAVY_ATOM_COUNT>
19

> <PUBCHEM_ATOM_DEF_STEREO_COUNT>
0

> <PUBCHEM_ATOM_UDEF_STEREO_COUNT>
1

> <PUBCHEM_BOND_DEF_STEREO_COUNT>
0

> <PUBCHEM_BOND_UDEF_STEREO_COUNT>
0

> <PUBCHEM_ISOTOPIC_ATOM_COUNT>
0

> <PUBCHEM_COMPONENT_COUNT>
1

> <PUBCHEM_CACTVS_TAUTO_COUNT>
4

> <PUBCHEM_CONFORMER_ID>
02D04DA700000001

> <PUBCHEM_MMFF94_ENERGY>
31.4812

> <PUBCHEM_FEATURE_SELFOVERLAP>
35.52

> <PUBCHEM_SHAPE_FINGERPRINT>
10498660 4 18336824195679827889
12173636 292 17980197483478732550
12596602 18 14260193628546980445
13878862 14 17985850322091884701
13965767 371 17988657259081481060
14123255 52 18339360743208819056
14251740 57 11815607631811731177
14251764 38 18266458905178479525
14251764 75 18335410249845049913
14468879 13 18272647918549437305
14848178 96 18410859888783243717
15238133 3 18342459283367367858
15848702 68 18338800134038837574
17134986 127 18408038490179604310
17834072 32 18410570691407797069
17868525 174 17984149428552647387
192875 21 17970352731109443699
20621476 13 18409449180467128424
21388113 180 18271253823847902493
21860390 5 18043811111424453655
21864079 5 18339082566671877312
23559900 14 18265900331411663155
26353 1 15871628133123914455
345986 75 16910330175109622018
5312510 48 18194686102059037045
54672768 99 18409728473647996960
56633871 153 10014770309299152749
7808743 9 17978509737330111512
9981440 41 18124602985521240874

> <PUBCHEM_SHAPE_MULTIPOLES>
375.25
10.41
4.29
1.07
13.21
1.62
0.09
10.85
1.16
-2.57
-0.16
-0.33
-0.04
0.17

> <PUBCHEM_SHAPE_SELFOVERLAP>
740.402

> <PUBCHEM_SHAPE_VOLUME>
228.1

> <PUBCHEM_COORDINATE_TYPE>
2
5
10

$$$$

