17396033
  -OEChem-06241222543D

 55 58  0     1  0  0  0  0  0999 V2000
    7.3934   -0.2356   -1.0000 O   0  0  0  0  0  0  0  0  0  0  0  0
    1.9720    1.7717    0.5807 O   0  0  0  0  0  0  0  0  0  0  0  0
   -1.7961   -1.1022    0.3362 O   0  0  0  0  0  0  0  0  0  0  0  0
    3.7017   -0.0305    1.5239 O   0  0  0  0  0  0  0  0  0  0  0  0
   -4.3287    2.0407   -0.1702 O   0  0  0  0  0  0  0  0  0  0  0  0
    4.5548   -0.5201   -0.5781 N   0  0  0  0  0  0  0  0  0  0  0  0
    6.8572   -0.8643    0.1763 C   0  0  2  0  0  0  0  0  0  0  0  0
    7.9075   -1.8584    0.6408 C   0  0  0  0  0  0  0  0  0  0  0  0
    9.1823   -1.1486    0.2594 C   0  0  0  0  0  0  0  0  0  0  0  0
    8.8015   -0.5080   -1.0583 C   0  0  0  0  0  0  0  0  0  0  0  0
    5.5201   -1.5030   -0.1454 C   0  0  0  0  0  0  0  0  0  0  0  0
    3.7169    0.1408    0.3069 C   0  0  0  0  0  0  0  0  0  0  0  0
    2.8082    1.1434   -0.3896 C   0  0  2  0  0  0  0  0  0  0  0  0
    3.6176    2.2231   -1.0904 C   0  0  0  0  0  0  0  0  0  0  0  0
    0.6278    1.6139    0.4354 C   0  0  0  0  0  0  0  0  0  0  0  0
   -2.1228    1.2897    0.1369 C   0  0  0  0  0  0  0  0  0  0  0  0
   -1.3084    0.1760    0.3071 C   0  0  0  0  0  0  0  0  0  0  0  0
   -4.0618   -0.3155    0.0238 C   0  0  0  0  0  0  0  0  0  0  0  0
    0.0698    0.3355    0.4567 C   0  0  0  0  0  0  0  0  0  0  0  0
   -3.5701    1.0915   -0.0175 C   0  0  0  0  0  0  0  0  0  0  0  0
   -3.1622   -1.3081    0.1941 C   0  0  0  0  0  0  0  0  0  0  0  0
   -1.5687    2.5726    0.1146 C   0  0  0  0  0  0  0  0  0  0  0  0
   -0.1905    2.7306    0.2644 C   0  0  0  0  0  0  0  0  0  0  0  0
   -5.4876   -0.5770   -0.1214 C   0  0  0  0  0  0  0  0  0  0  0  0
   -3.5042   -2.7713    0.2550 C   0  0  0  0  0  0  0  0  0  0  0  0
   -6.0332   -0.7853   -1.3882 C   0  0  0  0  0  0  0  0  0  0  0  0
   -6.3075   -0.6193    1.0065 C   0  0  0  0  0  0  0  0  0  0  0  0
   -7.3984   -1.0353   -1.5274 C   0  0  0  0  0  0  0  0  0  0  0  0
   -7.6727   -0.8696    0.8673 C   0  0  0  0  0  0  0  0  0  0  0  0
   -8.2180   -1.0776   -0.3996 C   0  0  0  0  0  0  0  0  0  0  0  0
    6.7321   -0.0742    0.9277 H   0  0  0  0  0  0  0  0  0  0  0  0
    7.8377   -2.0828    1.7087 H   0  0  0  0  0  0  0  0  0  0  0  0
    7.8308   -2.8009    0.0852 H   0  0  0  0  0  0  0  0  0  0  0  0
   10.0481   -1.8108    0.1777 H   0  0  0  0  0  0  0  0  0  0  0  0
    9.4119   -0.3733    1.0001 H   0  0  0  0  0  0  0  0  0  0  0  0
    9.3488    0.4196   -1.2480 H   0  0  0  0  0  0  0  0  0  0  0  0
    8.9730   -1.1925   -1.8958 H   0  0  0  0  0  0  0  0  0  0  0  0
    5.6212   -2.2142   -0.9725 H   0  0  0  0  0  0  0  0  0  0  0  0
    5.1269   -2.0367    0.7265 H   0  0  0  0  0  0  0  0  0  0  0  0
    4.4858   -0.3327   -1.5736 H   0  0  0  0  0  0  0  0  0  0  0  0
    2.2207    0.6034   -1.1447 H   0  0  0  0  0  0  0  0  0  0  0  0
    4.2291    1.8248   -1.9052 H   0  0  0  0  0  0  0  0  0  0  0  0
    2.9547    2.9906   -1.5048 H   0  0  0  0  0  0  0  0  0  0  0  0
    4.2847    2.7297   -0.3833 H   0  0  0  0  0  0  0  0  0  0  0  0
    0.7004   -0.5386    0.5985 H   0  0  0  0  0  0  0  0  0  0  0  0
   -2.1896    3.4541   -0.0175 H   0  0  0  0  0  0  0  0  0  0  0  0
    0.2409    3.7279    0.2465 H   0  0  0  0  0  0  0  0  0  0  0  0
   -3.1789   -3.1876    1.2144 H   0  0  0  0  0  0  0  0  0  0  0  0
   -2.9797   -3.3072   -0.5435 H   0  0  0  0  0  0  0  0  0  0  0  0
   -4.5696   -2.9885    0.1491 H   0  0  0  0  0  0  0  0  0  0  0  0
   -5.4076   -0.7551   -2.2772 H   0  0  0  0  0  0  0  0  0  0  0  0
   -5.8977   -0.4587    2.0009 H   0  0  0  0  0  0  0  0  0  0  0  0
   -7.8232   -1.1973   -2.5137 H   0  0  0  0  0  0  0  0  0  0  0  0
   -8.3111   -0.9024    1.7453 H   0  0  0  0  0  0  0  0  0  0  0  0
   -9.2810   -1.2725   -0.5079 H   0  0  0  0  0  0  0  0  0  0  0  0
  1  7  1  0  0  0  0
  1 10  1  0  0  0  0
  2 13  1  0  0  0  0
  2 15  1  0  0  0  0
  3 17  1  0  0  0  0
  3 21  1  0  0  0  0
  4 12  2  0  0  0  0
  5 20  2  0  0  0  0
  6 11  1  0  0  0  0
  6 12  1  0  0  0  0
  6 40  1  0  0  0  0
  7  8  1  0  0  0  0
  7 11  1  0  0  0  0
  7 31  1  0  0  0  0
  8  9  1  0  0  0  0
  8 32  1  0  0  0  0
  8 33  1  0  0  0  0
  9 10  1  0  0  0  0
  9 34  1  0  0  0  0
  9 35  1  0  0  0  0
 10 36  1  0  0  0  0
 10 37  1  0  0  0  0
 11 38  1  0  0  0  0
 11 39  1  0  0  0  0
 12 13  1  0  0  0  0
 13 14  1  0  0  0  0
 13 41  1  0  0  0  0
 14 42  1  0  0  0  0
 14 43  1  0  0  0  0
 14 44  1  0  0  0  0
 15 19  2  0  0  0  0
 15 23  1  0  0  0  0
 16 17  2  0  0  0  0
 16 20  1  0  0  0  0
 16 22  1  0  0  0  0
 17 19  1  0  0  0  0
 18 20  1  0  0  0  0
 18 21  2  0  0  0  0
 18 24  1  0  0  0  0
 19 45  1  0  0  0  0
 21 25  1  0  0  0  0
 22 23  2  0  0  0  0
 22 46  1  0  0  0  0
 23 47  1  0  0  0  0
 24 26  2  0  0  0  0
 24 27  1  0  0  0  0
 25 48  1  0  0  0  0
 25 49  1  0  0  0  0
 25 50  1  0  0  0  0
 26 28  1  0  0  0  0
 26 51  1  0  0  0  0
 27 29  2  0  0  0  0
 27 52  1  0  0  0  0
 28 30  2  0  0  0  0
 28 53  1  0  0  0  0
 29 30  1  0  0  0  0
 29 54  1  0  0  0  0
 30 55  1  0  0  0  0
M  END
> <PUBCHEM_COMPOUND_CID>
17396033

> <PUBCHEM_CONFORMER_RMSD>
1

> <PUBCHEM_CONFORMER_DIVERSEORDER>
1
97
67
32
142
133
38
42
139
19
78
123
27
118
131
105
121
93
71
68
56
180
101
140
132
5
60
79
107
69
34
150
51
95
98
11
65
154
12
48
175
73
91
111
81
113
43
128
63
147
127
77
149
44
152
110
109
161
182
90
155
173
6
76
92
181
174
13
115
41
85
9
145
61
103
130
96
72
138
3
100
146
136
159
120
125
4
84
64
117
45
168
166
94
169
116
126
108
124
23
15
102
170
83
54
178
26
14
151
134
143
148
104
167
119
29
10
157
28
18
80
30
156
50
171
31
172
25
16
36
66
35
162
141
164
55
20
62
176
8
58
46
179
88
106
40
137
165
39
86
177
112
82
163
135
89
114
47
160
144
53
158
52
2
7
33
59
17
57
75
87
153
24
99
70
22
74
49
122
129
21
37

> <PUBCHEM_MMFF94_PARTIAL_CHARGES>
36
1 -0.56
10 0.28
11 0.3
12 0.57
13 0.34
15 0.08
16 0.09
17 0.08
18 -0.01
19 -0.15
2 -0.36
20 0.47
21 -0.06
22 -0.15
23 -0.15
24 0.03
25 0.14
26 -0.15
27 -0.15
28 -0.15
29 -0.15
3 -0.16
30 -0.15
4 -0.57
40 0.37
45 0.15
46 0.15
47 0.15
5 -0.57
51 0.15
52 0.15
53 0.15
54 0.15
55 0.15
6 -0.73
7 0.28

> <PUBCHEM_EFFECTIVE_ROTOR_COUNT>
8

> <PUBCHEM_PHARMACOPHORE_FEATURES>
10
1 1 acceptor
1 2 acceptor
1 3 acceptor
1 4 acceptor
1 5 acceptor
1 6 donor
5 1 7 8 9 10 rings
6 15 16 17 19 22 23 rings
6 24 26 27 28 29 30 rings
6 3 16 17 18 20 21 rings

> <PUBCHEM_HEAVY_ATOM_COUNT>
30

> <PUBCHEM_ATOM_DEF_STEREO_COUNT>
0

> <PUBCHEM_ATOM_UDEF_STEREO_COUNT>
2

> <PUBCHEM_BOND_DEF_STEREO_COUNT>
0

> <PUBCHEM_BOND_UDEF_STEREO_COUNT>
0

> <PUBCHEM_ISOTOPIC_ATOM_COUNT>
0

> <PUBCHEM_COMPONENT_COUNT>
1

> <PUBCHEM_CACTVS_TAUTO_COUNT>
6

> <PUBCHEM_CONFORMER_ID>
0109714100000001

> <PUBCHEM_MMFF94_ENERGY>
84.9047

> <PUBCHEM_FEATURE_SELFOVERLAP>
50.779

> <PUBCHEM_SHAPE_FINGERPRINT>
10 15 6916264035466349783
10076449 9 18409446990091388137
10165383 225 10375871874536602854
10391435 84 18271811164636481218
106641 1 6988317253491740013
10670039 82 17560807658208838605
11211813 128 18113899395303500246
11273773 42 12535352316115443439
11297750 10 18336275586770862696
11408170 108 17313376851323285367
11524674 6 16877665664622434798
12522641 24 17603589574642812424
12592606 108 18409450250383528991
12643181 29 18413108333884923851
12645989 146 18335144138297821871
12741549 16 16805324404947843281
12760667 363 18334294262669160057
13631057 29 18336547213861212952
13673619 4 18186523211226596296
13685833 64 18334575741903817360
14117953 113 18334012787265526335
14150022 121 16298659581270410432
14931854 50 17917713539010383530
15064986 266 18201431476581992273
15183329 4 18060424628877318491
15198563 99 17489319611336810173
15510800 12 18113605777367775094
16728433 281 16270263646281267189
1818759 1 18335697243416417854
18603816 31 17313394383659226111
18643901 69 18334852835834486126
18681886 176 18411986862679700592
20105231 36 17917704670604531155
2026 5 18188205537575285414
21150785 3 16271926012729500079
21267235 1 18412543202309038713
21792961 116 17918275371982001571
23522609 53 18045750478834484489
23559900 14 18266182721406058657
23569917 315 18190744138404995311
23569943 247 18261393382253348059
23576562 1 14260769647468873567
249057 3 18273214166779388838
3004659 81 18202568358529897560
335352 9 18411419492988666639
3383291 50 18408605855349584179
4169191 19 9583526412936395719
439807 62 18342171159775676742
444769 64 18335419046396611387
484989 97 17916856916193789819
5219985 9 18333731316815917104
54039377 194 18413384336893353539
5470011 282 17632853114948716974
5937810 71 14979686537114444543
6081469 158 17846782914410174470
6138700 20 18410576180671244523
636775 8 18059848446594343459
6438161 24 18411984646159798006
9953998 17 14923950037411832559
9962374 69 18334864865900946558

> <PUBCHEM_SHAPE_MULTIPOLES>
583.06
27.68
2.51
1.06
31.57
1.05
-0.17
-19.39
-4.49
-0.05
0.08
-0.37
-0.12
-0.73

> <PUBCHEM_SHAPE_SELFOVERLAP>
1262.168

> <PUBCHEM_SHAPE_VOLUME>
319.5

> <PUBCHEM_COORDINATE_TYPE>
2
5
10

$$$$

