8012
  -OEChem-06261202332D

 15 14  0     0  0  0  0  0  0999 V2000
    5.4641   -0.2500    0.0000 S   0  0  0  0  0  0  0  0  0  0  0  0
    3.7320   -0.2500    0.0000 C   0  0  0  0  0  0  0  0  0  0  0  0
    2.8660    0.2500    0.0000 C   0  0  0  0  0  0  0  0  0  0  0  0
    4.5981    0.2500    0.0000 C   0  0  0  0  0  0  0  0  0  0  0  0
    2.0000   -0.2500    0.0000 C   0  0  0  0  0  0  0  0  0  0  0  0
    3.3335   -0.7249    0.0000 H   0  0  0  0  0  0  0  0  0  0  0  0
    4.1306   -0.7249    0.0000 H   0  0  0  0  0  0  0  0  0  0  0  0
    3.2646    0.7249    0.0000 H   0  0  0  0  0  0  0  0  0  0  0  0
    2.4675    0.7249    0.0000 H   0  0  0  0  0  0  0  0  0  0  0  0
    4.9966    0.7249    0.0000 H   0  0  0  0  0  0  0  0  0  0  0  0
    4.1996    0.7249    0.0000 H   0  0  0  0  0  0  0  0  0  0  0  0
    1.6900    0.2869    0.0000 H   0  0  0  0  0  0  0  0  0  0  0  0
    1.4631   -0.5600    0.0000 H   0  0  0  0  0  0  0  0  0  0  0  0
    2.3100   -0.7869    0.0000 H   0  0  0  0  0  0  0  0  0  0  0  0
    6.0010    0.0600    0.0000 H   0  0  0  0  0  0  0  0  0  0  0  0
  1  4  1  0  0  0  0
  1 15  1  0  0  0  0
  2  3  1  0  0  0  0
  2  4  1  0  0  0  0
  2  6  1  0  0  0  0
  2  7  1  0  0  0  0
  3  5  1  0  0  0  0
  3  8  1  0  0  0  0
  3  9  1  0  0  0  0
  4 10  1  0  0  0  0
  4 11  1  0  0  0  0
  5 12  1  0  0  0  0
  5 13  1  0  0  0  0
  5 14  1  0  0  0  0
M  END
> <PUBCHEM_COMPOUND_CID>
8012

> <PUBCHEM_COMPOUND_CANONICALIZED>
1

> <PUBCHEM_CACTVS_COMPLEXITY>
13.1

> <PUBCHEM_CACTVS_HBOND_ACCEPTOR>
1

> <PUBCHEM_CACTVS_HBOND_DONOR>
1

> <PUBCHEM_CACTVS_ROTATABLE_BOND>
2

> <PUBCHEM_CACTVS_SUBSKEYS>
AAADccBgAABAAAAAAAAAAAAAAAAAAAAAAAAAAAAAAAAAAAAAAAAAGAQAAAAACACEQACCAAAAAAQAAAAAAAAAAAAAAAAAAAAAAAAAAAAAAAAAAAAAAAAAAAAAAAAAAAAAAAAAAAAAAAAAAAAAAAAAAAAAAA==

> <PUBCHEM_IUPAC_OPENEYE_NAME>
butane-1-thiol

> <PUBCHEM_IUPAC_CAS_NAME>
1-butanethiol

> <PUBCHEM_IUPAC_NAME>
butane-1-thiol

> <PUBCHEM_IUPAC_SYSTEMATIC_NAME>
butane-1-thiol

> <PUBCHEM_IUPAC_TRADITIONAL_NAME>
butane-1-thiol

> <PUBCHEM_IUPAC_INCHI>
InChI=1S/C4H10S/c1-2-3-4-5/h5H,2-4H2,1H3

> <PUBCHEM_IUPAC_INCHIKEY>
WQAQPCDUOCURKW-UHFFFAOYSA-N

> <PUBCHEM_XLOGP3>
2.3

> <PUBCHEM_EXACT_MASS>
90.050321

> <PUBCHEM_MOLECULAR_FORMULA>
C4H10S

> <PUBCHEM_MOLECULAR_WEIGHT>
90.1872

> <PUBCHEM_OPENEYE_CAN_SMILES>
CCCCS

> <PUBCHEM_OPENEYE_ISO_SMILES>
CCCCS

> <PUBCHEM_CACTVS_TPSA>
1

> <PUBCHEM_MONOISOTOPIC_WEIGHT>
90.050321

> <PUBCHEM_TOTAL_CHARGE>
0

> <PUBCHEM_HEAVY_ATOM_COUNT>
5

> <PUBCHEM_ATOM_DEF_STEREO_COUNT>
0

> <PUBCHEM_ATOM_UDEF_STEREO_COUNT>
0

> <PUBCHEM_BOND_DEF_STEREO_COUNT>
0

> <PUBCHEM_BOND_UDEF_STEREO_COUNT>
0

> <PUBCHEM_ISOTOPIC_ATOM_COUNT>
0

> <PUBCHEM_COMPONENT_COUNT>
1

> <PUBCHEM_CACTVS_TAUTO_COUNT>
1

> <PUBCHEM_COORDINATE_TYPE>
1
5
255

$$$$

