8839
  -OEChem-06261203103D

 55 54  0     1  0  0  0  0  0999 V2000
   -1.4706   -1.4427   -1.7673 O   0  0  0  0  0  0  0  0  0  0  0  0
    4.0010    2.1155   -0.6217 O   0  0  0  0  0  0  0  0  0  0  0  0
    2.3150    1.1214   -1.7797 O   0  0  0  0  0  0  0  0  0  0  0  0
   -0.4300   -2.4335    0.1874 C   0  0  0  0  0  0  0  0  0  0  0  0
    1.0031   -2.1176   -0.2642 C   0  0  0  0  0  0  0  0  0  0  0  0
   -1.4301   -2.6189   -0.9631 C   0  0  1  0  0  0  0  0  0  0  0  0
    2.0460   -1.9129    0.8386 C   0  0  0  0  0  0  0  0  0  0  0  0
   -2.6546    1.7746    0.7076 C   0  0  0  0  0  0  0  0  0  0  0  0
   -2.1163    3.1641    0.3536 C   0  0  0  0  0  0  0  0  0  0  0  0
   -4.1688    1.6385    0.5053 C   0  0  0  0  0  0  0  0  0  0  0  0
   -2.8541   -2.9443   -0.4776 C   0  0  0  0  0  0  0  0  0  0  0  0
    3.4632   -1.6893    0.3059 C   0  0  0  0  0  0  0  0  0  0  0  0
   -0.6153    3.3730    0.5851 C   0  0  0  0  0  0  0  0  0  0  0  0
   -4.6931    0.2403    0.8534 C   0  0  0  0  0  0  0  0  0  0  0  0
    0.3224    2.4851   -0.2437 C   0  0  0  0  0  0  0  0  0  0  0  0
    4.4599   -1.4894    1.4479 C   0  0  0  0  0  0  0  0  0  0  0  0
   -3.4361   -1.8843    0.4163 C   0  0  0  0  0  0  0  0  0  0  0  0
   -4.1115   -0.8187   -0.0377 C   0  0  0  0  0  0  0  0  0  0  0  0
    1.8131    2.7560   -0.0412 C   0  0  0  0  0  0  0  0  0  0  0  0
    5.8623   -1.2265    0.9221 C   0  0  0  0  0  0  0  0  0  0  0  0
    2.6945    1.9098   -0.9270 C   0  0  0  0  0  0  0  0  0  0  0  0
   -0.4193   -3.3360    0.8103 H   0  0  0  0  0  0  0  0  0  0  0  0
   -0.7514   -1.6017    0.8263 H   0  0  0  0  0  0  0  0  0  0  0  0
    1.3422   -2.9340   -0.9150 H   0  0  0  0  0  0  0  0  0  0  0  0
    0.9868   -1.2163   -0.8889 H   0  0  0  0  0  0  0  0  0  0  0  0
   -1.0819   -3.4375   -1.6042 H   0  0  0  0  0  0  0  0  0  0  0  0
    1.7467   -1.0548    1.4530 H   0  0  0  0  0  0  0  0  0  0  0  0
    2.0424   -2.7903    1.4969 H   0  0  0  0  0  0  0  0  0  0  0  0
   -2.1362    1.0326    0.0910 H   0  0  0  0  0  0  0  0  0  0  0  0
   -2.4080    1.5493    1.7524 H   0  0  0  0  0  0  0  0  0  0  0  0
   -2.6587    3.9120    0.9457 H   0  0  0  0  0  0  0  0  0  0  0  0
   -2.3434    3.3776   -0.6983 H   0  0  0  0  0  0  0  0  0  0  0  0
   -4.4219    1.8804   -0.5347 H   0  0  0  0  0  0  0  0  0  0  0  0
   -4.6841    2.3735    1.1354 H   0  0  0  0  0  0  0  0  0  0  0  0
   -3.5091   -3.0753   -1.3487 H   0  0  0  0  0  0  0  0  0  0  0  0
   -2.8569   -3.8991    0.0613 H   0  0  0  0  0  0  0  0  0  0  0  0
    3.7665   -2.5530   -0.2982 H   0  0  0  0  0  0  0  0  0  0  0  0
    3.4774   -0.8177   -0.3546 H   0  0  0  0  0  0  0  0  0  0  0  0
   -0.3814    4.4229    0.3688 H   0  0  0  0  0  0  0  0  0  0  0  0
   -0.3973    3.2205    1.6494 H   0  0  0  0  0  0  0  0  0  0  0  0
   -5.7829    0.2312    0.7333 H   0  0  0  0  0  0  0  0  0  0  0  0
   -4.4887    0.0249    1.9091 H   0  0  0  0  0  0  0  0  0  0  0  0
    0.1277    1.4312   -0.0095 H   0  0  0  0  0  0  0  0  0  0  0  0
    0.0754    2.6110   -1.3057 H   0  0  0  0  0  0  0  0  0  0  0  0
    4.1474   -0.6432    2.0707 H   0  0  0  0  0  0  0  0  0  0  0  0
    4.4748   -2.3778    2.0898 H   0  0  0  0  0  0  0  0  0  0  0  0
   -3.2722   -2.0008    1.4845 H   0  0  0  0  0  0  0  0  0  0  0  0
   -4.2741   -0.7054   -1.1068 H   0  0  0  0  0  0  0  0  0  0  0  0
    2.0276    3.8079   -0.2602 H   0  0  0  0  0  0  0  0  0  0  0  0
    2.0769    2.5512    1.0025 H   0  0  0  0  0  0  0  0  0  0  0  0
   -2.0787   -1.6125   -2.5068 H   0  0  0  0  0  0  0  0  0  0  0  0
    5.8867   -0.3234    0.3039 H   0  0  0  0  0  0  0  0  0  0  0  0
    6.2183   -2.0668    0.3176 H   0  0  0  0  0  0  0  0  0  0  0  0
    6.5592   -1.0871    1.7545 H   0  0  0  0  0  0  0  0  0  0  0  0
    4.5963    1.5618   -1.1705 H   0  0  0  0  0  0  0  0  0  0  0  0
  1  6  1  0  0  0  0
  1 51  1  0  0  0  0
  2 21  1  0  0  0  0
  2 55  1  0  0  0  0
  3 21  2  0  0  0  0
  4  5  1  0  0  0  0
  4  6  1  0  0  0  0
  4 22  1  0  0  0  0
  4 23  1  0  0  0  0
  5  7  1  0  0  0  0
  5 24  1  0  0  0  0
  5 25  1  0  0  0  0
  6 11  1  0  0  0  0
  6 26  1  0  0  0  0
  7 12  1  0  0  0  0
  7 27  1  0  0  0  0
  7 28  1  0  0  0  0
  8  9  1  0  0  0  0
  8 10  1  0  0  0  0
  8 29  1  0  0  0  0
  8 30  1  0  0  0  0
  9 13  1  0  0  0  0
  9 31  1  0  0  0  0
  9 32  1  0  0  0  0
 10 14  1  0  0  0  0
 10 33  1  0  0  0  0
 10 34  1  0  0  0  0
 11 17  1  0  0  0  0
 11 35  1  0  0  0  0
 11 36  1  0  0  0  0
 12 16  1  0  0  0  0
 12 37  1  0  0  0  0
 12 38  1  0  0  0  0
 13 15  1  0  0  0  0
 13 39  1  0  0  0  0
 13 40  1  0  0  0  0
 14 18  1  0  0  0  0
 14 41  1  0  0  0  0
 14 42  1  0  0  0  0
 15 19  1  0  0  0  0
 15 43  1  0  0  0  0
 15 44  1  0  0  0  0
 16 20  1  0  0  0  0
 16 45  1  0  0  0  0
 16 46  1  0  0  0  0
 17 18  2  0  0  0  0
 17 47  1  0  0  0  0
 18 48  1  0  0  0  0
 19 21  1  0  0  0  0
 19 49  1  0  0  0  0
 19 50  1  0  0  0  0
 20 52  1  0  0  0  0
 20 53  1  0  0  0  0
 20 54  1  0  0  0  0
M  END
> <PUBCHEM_COMPOUND_CID>
8839

> <PUBCHEM_CONFORMER_RMSD>
1.6

> <PUBCHEM_CONFORMER_DIVERSEORDER>
1
19
47
2
18
24
13
28
12
8
10
5
49
48
9
26
20
33
45
21
60
11
52
37
58
3
29
54
57
51
23
25
61
15
32
43
53
55
40
39
36
22
56
41
46
59
6
17
30
16
35
50
44
7
14
31
34
4
38
42
27

> <PUBCHEM_MMFF94_PARTIAL_CHARGES>
14
1 -0.68
11 0.14
14 0.14
17 -0.29
18 -0.29
19 0.06
2 -0.65
21 0.66
3 -0.57
47 0.15
48 0.15
51 0.4
55 0.5
6 0.28

> <PUBCHEM_EFFECTIVE_ROTOR_COUNT>
15

> <PUBCHEM_PHARMACOPHORE_FEATURES>
7
1 1 acceptor
1 1 donor
1 2 acceptor
1 20 hydrophobe
1 3 acceptor
3 2 3 21 anion
5 4 5 7 12 16 hydrophobe

> <PUBCHEM_HEAVY_ATOM_COUNT>
21

> <PUBCHEM_ATOM_DEF_STEREO_COUNT>
0

> <PUBCHEM_ATOM_UDEF_STEREO_COUNT>
1

> <PUBCHEM_BOND_DEF_STEREO_COUNT>
0

> <PUBCHEM_BOND_UDEF_STEREO_COUNT>
1

> <PUBCHEM_ISOTOPIC_ATOM_COUNT>
0

> <PUBCHEM_COMPONENT_COUNT>
1

> <PUBCHEM_CACTVS_TAUTO_COUNT>
1

> <PUBCHEM_CONFORMER_ID>
0000228700000001

> <PUBCHEM_MMFF94_ENERGY>
6.0184

> <PUBCHEM_FEATURE_SELFOVERLAP>
35.577

> <PUBCHEM_SHAPE_FINGERPRINT>
1100329 8 18412265051262455642
12038231 1 17688023116221100133
12978246 48 18338793532705914633
13122387 1 18049996994123356541
14117953 113 18121779693175029757
14295343 760 17970326322252638950
18336668 15 18201440306881233012
19930381 70 16680066610388248803
20765182 5 18409175428368565296
21041028 32 18411989026995142358
338550 245 18342454833633646892
463206 1 18412536600643968977
474144 1 18129926958156149884
5282940 2 18269828727237428837
5895379 119 18114168766233883490
7064713 232 18116150154600859393
9543594 6 18336554850017718288

> <PUBCHEM_SHAPE_MULTIPOLES>
414.56
10
5.1
1.24
6.13
2.06
-0.27
-2.34
3.45
-1.07
-0.36
0.62
-0.16
-2.4

> <PUBCHEM_SHAPE_SELFOVERLAP>
766.21

> <PUBCHEM_SHAPE_VOLUME>
259.9

> <PUBCHEM_COORDINATE_TYPE>
2
5
10

$$$$

