586017
  -OEChem-06241222452D

 24 24  0     0  0  0  0  0  0999 V2000
    3.5823    0.9226    0.0000 O   0  0  0  0  0  0  0  0  0  0  0  0
    4.9836    1.9407    0.0000 O   0  0  0  0  0  0  0  0  0  0  0  0
    7.7469    0.9226    0.0000 O   0  0  0  0  0  0  0  0  0  0  0  0
    5.6646   -1.3207    0.0000 N   0  0  0  0  0  0  0  0  0  0  0  0
    6.4736   -0.7329    0.0000 C   0  0  0  0  0  0  0  0  0  0  0  0
    6.1646    0.2181    0.0000 C   0  0  0  0  0  0  0  0  0  0  0  0
    5.1646    0.2181    0.0000 C   0  0  0  0  0  0  0  0  0  0  0  0
    4.8556   -0.7329    0.0000 C   0  0  0  0  0  0  0  0  0  0  0  0
    7.4247   -1.0419    0.0000 C   0  0  0  0  0  0  0  0  0  0  0  0
    4.5768    1.0272    0.0000 C   0  0  0  0  0  0  0  0  0  0  0  0
    6.7524    1.0272    0.0000 C   0  0  0  0  0  0  0  0  0  0  0  0
    2.9945    1.7316    0.0000 C   0  0  0  0  0  0  0  0  0  0  0  0
    2.0000    1.6271    0.0000 C   0  0  0  0  0  0  0  0  0  0  0  0
    5.6646   -1.9407    0.0000 H   0  0  0  0  0  0  0  0  0  0  0  0
    4.2659   -0.9245    0.0000 H   0  0  0  0  0  0  0  0  0  0  0  0
    7.2331   -1.6316    0.0000 H   0  0  0  0  0  0  0  0  0  0  0  0
    8.0143   -1.2335    0.0000 H   0  0  0  0  0  0  0  0  0  0  0  0
    7.6163   -0.4523    0.0000 H   0  0  0  0  0  0  0  0  0  0  0  0
    3.5518    2.0034    0.0000 H   0  0  0  0  0  0  0  0  0  0  0  0
    2.8236    2.3276    0.0000 H   0  0  0  0  0  0  0  0  0  0  0  0
    6.5002    1.5936    0.0000 H   0  0  0  0  0  0  0  0  0  0  0  0
    1.9352    2.2437    0.0000 H   0  0  0  0  0  0  0  0  0  0  0  0
    1.3834    1.5623    0.0000 H   0  0  0  0  0  0  0  0  0  0  0  0
    2.0648    1.0105    0.0000 H   0  0  0  0  0  0  0  0  0  0  0  0
  1 10  1  0  0  0  0
  1 12  1  0  0  0  0
  2 10  2  0  0  0  0
  3 11  2  0  0  0  0
  4  5  1  0  0  0  0
  4  8  1  0  0  0  0
  4 14  1  0  0  0  0
  5  6  2  0  0  0  0
  5  9  1  0  0  0  0
  6  7  1  0  0  0  0
  6 11  1  0  0  0  0
  7  8  2  0  0  0  0
  7 10  1  0  0  0  0
  8 15  1  0  0  0  0
  9 16  1  0  0  0  0
  9 17  1  0  0  0  0
  9 18  1  0  0  0  0
 11 21  1  0  0  0  0
 12 13  1  0  0  0  0
 12 19  1  0  0  0  0
 12 20  1  0  0  0  0
 13 22  1  0  0  0  0
 13 23  1  0  0  0  0
 13 24  1  0  0  0  0
M  END
> <PUBCHEM_COMPOUND_CID>
586017

> <PUBCHEM_COMPOUND_CANONICALIZED>
1

> <PUBCHEM_CACTVS_COMPLEXITY>
205

> <PUBCHEM_CACTVS_HBOND_ACCEPTOR>
3

> <PUBCHEM_CACTVS_HBOND_DONOR>
1

> <PUBCHEM_CACTVS_ROTATABLE_BOND>
4

> <PUBCHEM_CACTVS_SUBSKEYS>
AAADccByMAAAAAAAAAAAAAAAAAAAAWAAAAAAAAAAAAAAAAABgAAAHgAQAAAADAjhngYuiJLJlACoAxz3zACCgCA1ACAA2aE4TNgIJnrAtJmGEYhm0AHI6ca/AAAOgAAAAAAAAAAAAAAAAAAAAAAAAAAAAA==

> <PUBCHEM_IUPAC_OPENEYE_NAME>
ethyl 4-formyl-5-methyl-1H-pyrrole-3-carboxylate

> <PUBCHEM_IUPAC_CAS_NAME>
4-formyl-5-methyl-1H-pyrrole-3-carboxylic acid ethyl ester

> <PUBCHEM_IUPAC_NAME>
ethyl 4-formyl-5-methyl-1H-pyrrole-3-carboxylate

> <PUBCHEM_IUPAC_SYSTEMATIC_NAME>
ethyl 4-methanoyl-5-methyl-1H-pyrrole-3-carboxylate

> <PUBCHEM_IUPAC_TRADITIONAL_NAME>
4-formyl-5-methyl-1H-pyrrole-3-carboxylic acid ethyl ester

> <PUBCHEM_IUPAC_INCHI>
InChI=1S/C9H11NO3/c1-3-13-9(12)7-4-10-6(2)8(7)5-11/h4-5,10H,3H2,1-2H3

> <PUBCHEM_IUPAC_INCHIKEY>
VSOIYWLKUIHXHJ-UHFFFAOYSA-N

> <PUBCHEM_XLOGP3_AA>
0.8

> <PUBCHEM_EXACT_MASS>
181.073893

> <PUBCHEM_MOLECULAR_FORMULA>
C9H11NO3

> <PUBCHEM_MOLECULAR_WEIGHT>
181.18854

> <PUBCHEM_OPENEYE_CAN_SMILES>
CCOC(=O)C1=CNC(=C1C=O)C

> <PUBCHEM_OPENEYE_ISO_SMILES>
CCOC(=O)C1=CNC(=C1C=O)C

> <PUBCHEM_CACTVS_TPSA>
59.2

> <PUBCHEM_MONOISOTOPIC_WEIGHT>
181.073893

> <PUBCHEM_TOTAL_CHARGE>
0

> <PUBCHEM_HEAVY_ATOM_COUNT>
13

> <PUBCHEM_ATOM_DEF_STEREO_COUNT>
0

> <PUBCHEM_ATOM_UDEF_STEREO_COUNT>
0

> <PUBCHEM_BOND_DEF_STEREO_COUNT>
0

> <PUBCHEM_BOND_UDEF_STEREO_COUNT>
0

> <PUBCHEM_ISOTOPIC_ATOM_COUNT>
0

> <PUBCHEM_COMPONENT_COUNT>
1

> <PUBCHEM_CACTVS_TAUTO_COUNT>
5

> <PUBCHEM_COORDINATE_TYPE>
1
5
255

> <PUBCHEM_BONDANNOTATIONS>
4  5  8
4  8  8
5  6  8
6  7  8
7  8  8

$$$$

