11282
  -OEChem-06261205292D

 61 62  0     0  0  0  0  0  0999 V2000
   10.8681    5.0369    0.0000 Cl  0  0  0  0  0  0  0  0  0  0  0  0
    3.1350    9.5369    0.0000 O   0  0  0  0  0  0  0  0  0  0  0  0
    4.0010    1.0369    0.0000 O   0  0  0  0  0  0  0  0  0  0  0  0
    7.4651    7.0369    0.0000 O   0  0  0  0  0  0  0  0  0  0  0  0
    1.4030    5.5369    0.0000 N   0  0  0  0  0  0  0  0  0  0  0  0
    3.1350    5.5369    0.0000 C   0  0  0  0  0  0  0  0  0  0  0  0
    4.0010    5.0369    0.0000 C   0  0  0  0  0  0  0  0  0  0  0  0
    2.2690    5.0369    0.0000 C   0  0  0  0  0  0  0  0  0  0  0  0
    3.1350    6.5369    0.0000 C   0  0  0  0  0  0  0  0  0  0  0  0
    4.0010    4.0369    0.0000 C   0  0  0  0  0  0  0  0  0  0  0  0
    4.8671    5.5369    0.0000 C   0  0  0  0  0  0  0  0  0  0  0  0
    4.0010    7.0369    0.0000 C   0  0  0  0  0  0  0  0  0  0  0  0
    2.2690    7.0369    0.0000 C   0  0  0  0  0  0  0  0  0  0  0  0
    3.1350    3.5369    0.0000 C   0  0  0  0  0  0  0  0  0  0  0  0
    5.7331    5.0369    0.0000 C   0  0  0  0  0  0  0  0  0  0  0  0
    4.8671    3.5369    0.0000 C   0  0  0  0  0  0  0  0  0  0  0  0
    4.8671    6.5369    0.0000 C   0  0  0  0  0  0  0  0  0  0  0  0
    0.5369    5.0369    0.0000 C   0  0  0  0  0  0  0  0  0  0  0  0
    1.4030    6.5369    0.0000 C   0  0  0  0  0  0  0  0  0  0  0  0
    4.0010    8.0369    0.0000 C   0  0  0  0  0  0  0  0  0  0  0  0
    2.2690    8.0369    0.0000 C   0  0  0  0  0  0  0  0  0  0  0  0
    3.1350    8.5369    0.0000 C   0  0  0  0  0  0  0  0  0  0  0  0
    3.1350    2.5369    0.0000 C   0  0  0  0  0  0  0  0  0  0  0  0
    6.5991    5.5369    0.0000 C   0  0  0  0  0  0  0  0  0  0  0  0
    4.8671    2.5369    0.0000 C   0  0  0  0  0  0  0  0  0  0  0  0
    5.7331    7.0369    0.0000 C   0  0  0  0  0  0  0  0  0  0  0  0
    6.5991    6.5369    0.0000 C   0  0  0  0  0  0  0  0  0  0  0  0
    4.0010    2.0369    0.0000 C   0  0  0  0  0  0  0  0  0  0  0  0
    2.2690   10.0369    0.0000 C   0  0  0  0  0  0  0  0  0  0  0  0
    3.1350    0.5369    0.0000 C   0  0  0  0  0  0  0  0  0  0  0  0
    8.3312    6.5369    0.0000 C   0  0  0  0  0  0  0  0  0  0  0  0
    1.8705    4.5620    0.0000 H   0  0  0  0  0  0  0  0  0  0  0  0
    2.6675    4.5620    0.0000 H   0  0  0  0  0  0  0  0  0  0  0  0
    4.5380    6.7269    0.0000 H   0  0  0  0  0  0  0  0  0  0  0  0
    1.7320    6.7269    0.0000 H   0  0  0  0  0  0  0  0  0  0  0  0
    2.5981    3.8469    0.0000 H   0  0  0  0  0  0  0  0  0  0  0  0
    5.7331    4.4169    0.0000 H   0  0  0  0  0  0  0  0  0  0  0  0
    5.4040    3.8469    0.0000 H   0  0  0  0  0  0  0  0  0  0  0  0
    4.3301    6.8469    0.0000 H   0  0  0  0  0  0  0  0  0  0  0  0
    2.0230    6.5369    0.0000 H   0  0  0  0  0  0  0  0  0  0  0  0
    1.4030    7.1569    0.0000 H   0  0  0  0  0  0  0  0  0  0  0  0
    0.7830    6.5369    0.0000 H   0  0  0  0  0  0  0  0  0  0  0  0
    0.2269    5.5739    0.0000 H   0  0  0  0  0  0  0  0  0  0  0  0
    0.0000    4.7269    0.0000 H   0  0  0  0  0  0  0  0  0  0  0  0
    0.8469    4.5000    0.0000 H   0  0  0  0  0  0  0  0  0  0  0  0
    4.5380    8.3469    0.0000 H   0  0  0  0  0  0  0  0  0  0  0  0
    1.7320    8.3469    0.0000 H   0  0  0  0  0  0  0  0  0  0  0  0
    2.5981    2.2269    0.0000 H   0  0  0  0  0  0  0  0  0  0  0  0
    7.1360    5.2269    0.0000 H   0  0  0  0  0  0  0  0  0  0  0  0
    5.4040    2.2269    0.0000 H   0  0  0  0  0  0  0  0  0  0  0  0
    5.7331    7.6569    0.0000 H   0  0  0  0  0  0  0  0  0  0  0  0
    2.5790   10.5739    0.0000 H   0  0  0  0  0  0  0  0  0  0  0  0
    1.7320   10.3469    0.0000 H   0  0  0  0  0  0  0  0  0  0  0  0
    1.9590    9.5000    0.0000 H   0  0  0  0  0  0  0  0  0  0  0  0
    2.8250    1.0739    0.0000 H   0  0  0  0  0  0  0  0  0  0  0  0
    2.5981    0.2269    0.0000 H   0  0  0  0  0  0  0  0  0  0  0  0
    3.4450    0.0000    0.0000 H   0  0  0  0  0  0  0  0  0  0  0  0
    8.0212    6.0000    0.0000 H   0  0  0  0  0  0  0  0  0  0  0  0
    8.8681    6.2269    0.0000 H   0  0  0  0  0  0  0  0  0  0  0  0
    8.6412    7.0739    0.0000 H   0  0  0  0  0  0  0  0  0  0  0  0
   11.8681    5.0369    0.0000 H   0  0  0  0  0  0  0  0  0  0  0  0
  1 61  1  0  0  0  0
  2 22  1  0  0  0  0
  2 29  1  0  0  0  0
  3 28  1  0  0  0  0
  3 30  1  0  0  0  0
  4 27  1  0  0  0  0
  4 31  1  0  0  0  0
  5  8  1  0  0  0  0
  5 18  1  0  0  0  0
  5 19  1  0  0  0  0
  6  7  2  0  0  0  0
  6  8  1  0  0  0  0
  6  9  1  0  0  0  0
  7 10  1  0  0  0  0
  7 11  1  0  0  0  0
  8 32  1  0  0  0  0
  8 33  1  0  0  0  0
  9 12  2  0  0  0  0
  9 13  1  0  0  0  0
 10 14  2  0  0  0  0
 10 16  1  0  0  0  0
 11 15  2  0  0  0  0
 11 17  1  0  0  0  0
 12 20  1  0  0  0  0
 12 34  1  0  0  0  0
 13 21  2  0  0  0  0
 13 35  1  0  0  0  0
 14 23  1  0  0  0  0
 14 36  1  0  0  0  0
 15 24  1  0  0  0  0
 15 37  1  0  0  0  0
 16 25  2  0  0  0  0
 16 38  1  0  0  0  0
 17 26  2  0  0  0  0
 17 39  1  0  0  0  0
 18 43  1  0  0  0  0
 18 44  1  0  0  0  0
 18 45  1  0  0  0  0
 19 40  1  0  0  0  0
 19 41  1  0  0  0  0
 19 42  1  0  0  0  0
 20 22  2  0  0  0  0
 20 46  1  0  0  0  0
 21 22  1  0  0  0  0
 21 47  1  0  0  0  0
 23 28  2  0  0  0  0
 23 48  1  0  0  0  0
 24 27  2  0  0  0  0
 24 49  1  0  0  0  0
 25 28  1  0  0  0  0
 25 50  1  0  0  0  0
 26 27  1  0  0  0  0
 26 51  1  0  0  0  0
 29 52  1  0  0  0  0
 29 53  1  0  0  0  0
 29 54  1  0  0  0  0
 30 55  1  0  0  0  0
 30 56  1  0  0  0  0
 30 57  1  0  0  0  0
 31 58  1  0  0  0  0
 31 59  1  0  0  0  0
 31 60  1  0  0  0  0
M  END
> <PUBCHEM_COMPOUND_CID>
11282

> <PUBCHEM_COMPOUND_CANONICALIZED>
1

> <PUBCHEM_CACTVS_COMPLEXITY>
496

> <PUBCHEM_CACTVS_HBOND_ACCEPTOR>
4

> <PUBCHEM_CACTVS_HBOND_DONOR>
1

> <PUBCHEM_CACTVS_ROTATABLE_BOND>
8

> <PUBCHEM_CACTVS_SUBSKEYS>
AAADceB6MAAEAAAAAAAAAAAAAAAAAAAAAAAwYMAAAAAAAAABUAAAHgAAAAAADATBmAYyBoMABACAAiBCAACCCAAgIAAIiAAOCIgMJiKEsRuEMCAkwBEIqAeQwOAOIAAAAAAAAABAAAAAAAAAAAAAAAAAAA==

> <PUBCHEM_IUPAC_OPENEYE_NAME>
2,3,3-tris(4-methoxyphenyl)-N,N-dimethyl-prop-2-en-1-amine hydrochloride

> <PUBCHEM_IUPAC_CAS_NAME>
2,3,3-tris(4-methoxyphenyl)-N,N-dimethyl-2-propen-1-amine hydrochloride

> <PUBCHEM_IUPAC_NAME>
2,3,3-tris(4-methoxyphenyl)-N,N-dimethylprop-2-en-1-amine hydrochloride

> <PUBCHEM_IUPAC_SYSTEMATIC_NAME>
2,3,3-tris(4-methoxyphenyl)-N,N-dimethyl-prop-2-en-1-amine hydrochloride

> <PUBCHEM_IUPAC_TRADITIONAL_NAME>
dimethyl-[2,3,3-tris(4-methoxyphenyl)allyl]amine hydrochloride

> <PUBCHEM_IUPAC_INCHI>
InChI=1S/C26H29NO3.ClH/c1-27(2)18-25(19-6-12-22(28-3)13-7-19)26(20-8-14-23(29-4)15-9-20)21-10-16-24(30-5)17-11-21;/h6-17H,18H2,1-5H3;1H

> <PUBCHEM_IUPAC_INCHIKEY>
KZILRTFVGWVPLE-UHFFFAOYSA-N

> <PUBCHEM_EXACT_MASS>
439.191422

> <PUBCHEM_MOLECULAR_FORMULA>
C26H30ClNO3

> <PUBCHEM_MOLECULAR_WEIGHT>
439.9743

> <PUBCHEM_OPENEYE_CAN_SMILES>
CN(C)CC(=C(C1=CC=C(C=C1)OC)C2=CC=C(C=C2)OC)C3=CC=C(C=C3)OC.Cl

> <PUBCHEM_OPENEYE_ISO_SMILES>
CN(C)CC(=C(C1=CC=C(C=C1)OC)C2=CC=C(C=C2)OC)C3=CC=C(C=C3)OC.Cl

> <PUBCHEM_CACTVS_TPSA>
30.9

> <PUBCHEM_MONOISOTOPIC_WEIGHT>
439.191422

> <PUBCHEM_TOTAL_CHARGE>
0

> <PUBCHEM_HEAVY_ATOM_COUNT>
31

> <PUBCHEM_ATOM_DEF_STEREO_COUNT>
0

> <PUBCHEM_ATOM_UDEF_STEREO_COUNT>
0

> <PUBCHEM_BOND_DEF_STEREO_COUNT>
0

> <PUBCHEM_BOND_UDEF_STEREO_COUNT>
0

> <PUBCHEM_ISOTOPIC_ATOM_COUNT>
0

> <PUBCHEM_COMPONENT_COUNT>
2

> <PUBCHEM_CACTVS_TAUTO_COUNT>
1

> <PUBCHEM_COORDINATE_TYPE>
1
5
255

> <PUBCHEM_BONDANNOTATIONS>
10  14  8
10  16  8
11  15  8
11  17  8
12  20  8
13  21  8
14  23  8
15  24  8
16  25  8
17  26  8
20  22  8
21  22  8
23  28  8
24  27  8
25  28  8
26  27  8
9  12  8
9  13  8

$$$$

