12568
  -OEChem-06261207063D

 21 21  0     0  0  0  0  0  0999 V2000
    1.0749   -0.1032   -0.0308 O   0  0  0  0  0  0  0  0  0  0  0  0
    2.3828    0.5329    0.0771 O   0  0  0  0  0  0  0  0  0  0  0  0
    0.3670    2.0523    0.3832 O   0  0  0  0  0  0  0  0  0  0  0  0
    3.0875   -1.6297   -0.3481 O   0  0  0  0  0  0  0  0  0  0  0  0
   -1.2199    0.3012    0.0724 C   0  0  0  0  0  0  0  0  0  0  0  0
   -2.2740    1.0905   -0.3879 C   0  0  0  0  0  0  0  0  0  0  0  0
   -1.4510   -1.0235    0.4436 C   0  0  0  0  0  0  0  0  0  0  0  0
   -3.5590    0.5554   -0.4770 C   0  0  0  0  0  0  0  0  0  0  0  0
   -2.7362   -1.5586    0.3544 C   0  0  0  0  0  0  0  0  0  0  0  0
   -3.7900   -0.7691   -0.1059 C   0  0  0  0  0  0  0  0  0  0  0  0
    0.1197    0.8592    0.1650 C   0  0  0  0  0  0  0  0  0  0  0  0
    3.3119   -0.4482   -0.1220 C   0  0  0  0  0  0  0  0  0  0  0  0
    4.6864    0.1409   -0.0239 C   0  0  0  0  0  0  0  0  0  0  0  0
   -2.1108    2.1235   -0.6840 H   0  0  0  0  0  0  0  0  0  0  0  0
   -0.6523   -1.6587    0.8175 H   0  0  0  0  0  0  0  0  0  0  0  0
   -4.3796    1.1697   -0.8359 H   0  0  0  0  0  0  0  0  0  0  0  0
   -2.9172   -2.5891    0.6460 H   0  0  0  0  0  0  0  0  0  0  0  0
   -4.7907   -1.1857   -0.1748 H   0  0  0  0  0  0  0  0  0  0  0  0
    5.4300   -0.6459   -0.1800 H   0  0  0  0  0  0  0  0  0  0  0  0
    4.8366    0.5688    0.9704 H   0  0  0  0  0  0  0  0  0  0  0  0
    4.8191    0.9032   -0.7958 H   0  0  0  0  0  0  0  0  0  0  0  0
  1  2  1  0  0  0  0
  1 11  1  0  0  0  0
  2 12  1  0  0  0  0
  3 11  2  0  0  0  0
  4 12  2  0  0  0  0
  5  6  2  0  0  0  0
  5  7  1  0  0  0  0
  5 11  1  0  0  0  0
  6  8  1  0  0  0  0
  6 14  1  0  0  0  0
  7  9  2  0  0  0  0
  7 15  1  0  0  0  0
  8 10  2  0  0  0  0
  8 16  1  0  0  0  0
  9 10  1  0  0  0  0
  9 17  1  0  0  0  0
 10 18  1  0  0  0  0
 12 13  1  0  0  0  0
 13 19  1  0  0  0  0
 13 20  1  0  0  0  0
 13 21  1  0  0  0  0
M  END
> <PUBCHEM_COMPOUND_CID>
12568

> <PUBCHEM_CONFORMER_RMSD>
0.6

> <PUBCHEM_CONFORMER_DIVERSEORDER>
1
23
13
15
42
35
6
36
21
37
31
24
9
41
22
3
34
10
30
2
25
48
7
33
19
39
16
29
8
11
38
14
40
12
32
28
5
17
26
46
20
4
47
45
27
18
44
43

> <PUBCHEM_MMFF94_PARTIAL_CHARGES>
18
1 -0.15
10 -0.15
11 0.63
12 0.66
13 0.06
14 0.15
15 0.15
16 0.15
17 0.15
18 0.15
2 -0.15
3 -0.57
4 -0.57
5 0.09
6 -0.15
7 -0.15
8 -0.15
9 -0.15

> <PUBCHEM_EFFECTIVE_ROTOR_COUNT>
4

> <PUBCHEM_PHARMACOPHORE_FEATURES>
3
1 3 acceptor
1 4 acceptor
6 5 6 7 8 9 10 rings

> <PUBCHEM_HEAVY_ATOM_COUNT>
13

> <PUBCHEM_ATOM_DEF_STEREO_COUNT>
0

> <PUBCHEM_ATOM_UDEF_STEREO_COUNT>
0

> <PUBCHEM_BOND_DEF_STEREO_COUNT>
0

> <PUBCHEM_BOND_UDEF_STEREO_COUNT>
0

> <PUBCHEM_ISOTOPIC_ATOM_COUNT>
0

> <PUBCHEM_COMPONENT_COUNT>
1

> <PUBCHEM_CACTVS_TAUTO_COUNT>
1

> <PUBCHEM_CONFORMER_ID>
0000311800000001

> <PUBCHEM_MMFF94_ENERGY>
27.7961

> <PUBCHEM_FEATURE_SELFOVERLAP>
15.223

> <PUBCHEM_SHAPE_FINGERPRINT>
10465860 250 18410299111840356368
12032990 46 18409444786788963403
13296908 3 18407760339407282450
14252887 29 17676195875873280278
14911166 2 18341905095215568405
15219456 202 18264776471366021961
15375358 24 18409171008678587738
18186145 218 12031789197175209164
19107657 46 18408602561003750782
200 152 17676493834907975711
20201158 50 18409728469389595614
20279233 1 18409164420240979662
20281407 28 18335136488269970946
20645476 183 16630530605090168387
20645477 56 18201441415004258325
20645477 70 18041562558595708886
20871999 31 18201725063165537229
21119208 17 17060340725267876070
22485316 2 18408888438363864822
23402539 116 18259992587222054533
23403322 49 18409728503881371750
23559900 14 18338803415963492338
2748010 2 18127140671506507085
3312278 4 18411697707705079690
573450 72 17917445253825147144
7364860 26 18194401082837300392
8809292 202 18271804567023551299
9709674 26 18411975871383921918

> <PUBCHEM_SHAPE_MULTIPOLES>
244.06
7.98
1.58
0.67
6.35
0.03
0
-1.76
-0.88
-0.39
0.1
-0.13
0
0.46

> <PUBCHEM_SHAPE_SELFOVERLAP>
503.092

> <PUBCHEM_SHAPE_VOLUME>
139.9

> <PUBCHEM_COORDINATE_TYPE>
2
5
10

$$$$

