11171
  -OEChem-06261205212D

 87 86  0     0  0  0  0  0  0999 V2000
    8.0622    0.0000    0.0000 Si  0  0  0  0  0  0  0  0  0  0  0  0
    9.7942    0.0000    0.0000 Si  0  0  0  0  0  0  0  0  0  0  0  0
    6.3301    0.0000    0.0000 Si  0  0  0  0  0  0  0  0  0  0  0  0
   11.5263    0.0000    0.0000 Si  0  0  0  0  0  0  0  0  0  0  0  0
    4.5981    0.0000    0.0000 Si  0  0  0  0  0  0  0  0  0  0  0  0
   13.2583    0.0000    0.0000 Si  0  0  0  0  0  0  0  0  0  0  0  0
    2.8660    0.0000    0.0000 Si  0  0  0  0  0  0  0  0  0  0  0  0
   14.9904    0.0000    0.0000 Si  0  0  0  0  0  0  0  0  0  0  0  0
    8.9282    0.5000    0.0000 O   0  0  0  0  0  0  0  0  0  0  0  0
    7.1962   -0.5000    0.0000 O   0  0  0  0  0  0  0  0  0  0  0  0
   10.6603   -0.5000    0.0000 O   0  0  0  0  0  0  0  0  0  0  0  0
    5.4641    0.5000    0.0000 O   0  0  0  0  0  0  0  0  0  0  0  0
   12.3923    0.5000    0.0000 O   0  0  0  0  0  0  0  0  0  0  0  0
    3.7320   -0.5000    0.0000 O   0  0  0  0  0  0  0  0  0  0  0  0
   14.1244   -0.5000    0.0000 O   0  0  0  0  0  0  0  0  0  0  0  0
    7.5622    0.8660    0.0000 C   0  0  0  0  0  0  0  0  0  0  0  0
    8.5622   -0.8660    0.0000 C   0  0  0  0  0  0  0  0  0  0  0  0
   10.2942    0.8660    0.0000 C   0  0  0  0  0  0  0  0  0  0  0  0
    9.2942   -0.8660    0.0000 C   0  0  0  0  0  0  0  0  0  0  0  0
    5.8301   -0.8660    0.0000 C   0  0  0  0  0  0  0  0  0  0  0  0
    6.8301    0.8660    0.0000 C   0  0  0  0  0  0  0  0  0  0  0  0
   12.0263   -0.8660    0.0000 C   0  0  0  0  0  0  0  0  0  0  0  0
   11.0263    0.8660    0.0000 C   0  0  0  0  0  0  0  0  0  0  0  0
    4.0981    0.8660    0.0000 C   0  0  0  0  0  0  0  0  0  0  0  0
    5.0981   -0.8660    0.0000 C   0  0  0  0  0  0  0  0  0  0  0  0
   13.7583    0.8660    0.0000 C   0  0  0  0  0  0  0  0  0  0  0  0
   12.7583   -0.8660    0.0000 C   0  0  0  0  0  0  0  0  0  0  0  0
    2.0000    0.5000    0.0000 C   0  0  0  0  0  0  0  0  0  0  0  0
    2.3660   -0.8660    0.0000 C   0  0  0  0  0  0  0  0  0  0  0  0
    3.3660    0.8660    0.0000 C   0  0  0  0  0  0  0  0  0  0  0  0
   15.8564    0.5000    0.0000 C   0  0  0  0  0  0  0  0  0  0  0  0
   15.4904   -0.8660    0.0000 C   0  0  0  0  0  0  0  0  0  0  0  0
   14.4904    0.8660    0.0000 C   0  0  0  0  0  0  0  0  0  0  0  0
    8.7573   -0.5560    0.0000 H   0  0  0  0  0  0  0  0  0  0  0  0
    8.9842   -1.4030    0.0000 H   0  0  0  0  0  0  0  0  0  0  0  0
    9.8312   -1.1760    0.0000 H   0  0  0  0  0  0  0  0  0  0  0  0
   10.8312    0.5560    0.0000 H   0  0  0  0  0  0  0  0  0  0  0  0
   10.6042    1.4030    0.0000 H   0  0  0  0  0  0  0  0  0  0  0  0
    9.7573    1.1760    0.0000 H   0  0  0  0  0  0  0  0  0  0  0  0
    8.0252   -1.1760    0.0000 H   0  0  0  0  0  0  0  0  0  0  0  0
    8.8722   -1.4030    0.0000 H   0  0  0  0  0  0  0  0  0  0  0  0
    9.0991   -0.5560    0.0000 H   0  0  0  0  0  0  0  0  0  0  0  0
    8.0991    1.1760    0.0000 H   0  0  0  0  0  0  0  0  0  0  0  0
    7.2522    1.4030    0.0000 H   0  0  0  0  0  0  0  0  0  0  0  0
    7.0252    0.5560    0.0000 H   0  0  0  0  0  0  0  0  0  0  0  0
    5.2932   -0.5560    0.0000 H   0  0  0  0  0  0  0  0  0  0  0  0
    5.5201   -1.4030    0.0000 H   0  0  0  0  0  0  0  0  0  0  0  0
    6.3671   -1.1760    0.0000 H   0  0  0  0  0  0  0  0  0  0  0  0
    7.3671    0.5560    0.0000 H   0  0  0  0  0  0  0  0  0  0  0  0
    7.1401    1.4030    0.0000 H   0  0  0  0  0  0  0  0  0  0  0  0
    6.2932    1.1760    0.0000 H   0  0  0  0  0  0  0  0  0  0  0  0
   11.4893   -1.1760    0.0000 H   0  0  0  0  0  0  0  0  0  0  0  0
   12.3363   -1.4030    0.0000 H   0  0  0  0  0  0  0  0  0  0  0  0
   12.5632   -0.5560    0.0000 H   0  0  0  0  0  0  0  0  0  0  0  0
   11.5632    1.1760    0.0000 H   0  0  0  0  0  0  0  0  0  0  0  0
   10.7163    1.4030    0.0000 H   0  0  0  0  0  0  0  0  0  0  0  0
   10.4893    0.5560    0.0000 H   0  0  0  0  0  0  0  0  0  0  0  0
   12.2214   -0.5560    0.0000 H   0  0  0  0  0  0  0  0  0  0  0  0
   12.4483   -1.4030    0.0000 H   0  0  0  0  0  0  0  0  0  0  0  0
   13.2953   -1.1760    0.0000 H   0  0  0  0  0  0  0  0  0  0  0  0
   14.2953    0.5560    0.0000 H   0  0  0  0  0  0  0  0  0  0  0  0
   14.0683    1.4030    0.0000 H   0  0  0  0  0  0  0  0  0  0  0  0
   13.2214    1.1760    0.0000 H   0  0  0  0  0  0  0  0  0  0  0  0
    4.5611   -1.1760    0.0000 H   0  0  0  0  0  0  0  0  0  0  0  0
    5.4081   -1.4030    0.0000 H   0  0  0  0  0  0  0  0  0  0  0  0
    5.6350   -0.5560    0.0000 H   0  0  0  0  0  0  0  0  0  0  0  0
    4.6350    1.1760    0.0000 H   0  0  0  0  0  0  0  0  0  0  0  0
    3.7881    1.4030    0.0000 H   0  0  0  0  0  0  0  0  0  0  0  0
    3.5611    0.5560    0.0000 H   0  0  0  0  0  0  0  0  0  0  0  0
    2.3100    1.0369    0.0000 H   0  0  0  0  0  0  0  0  0  0  0  0
    1.4631    0.8100    0.0000 H   0  0  0  0  0  0  0  0  0  0  0  0
    1.6900   -0.0369    0.0000 H   0  0  0  0  0  0  0  0  0  0  0  0
    1.8291   -0.5560    0.0000 H   0  0  0  0  0  0  0  0  0  0  0  0
    2.0560   -1.4030    0.0000 H   0  0  0  0  0  0  0  0  0  0  0  0
    2.9030   -1.1760    0.0000 H   0  0  0  0  0  0  0  0  0  0  0  0
    3.9030    0.5560    0.0000 H   0  0  0  0  0  0  0  0  0  0  0  0
    3.6760    1.4030    0.0000 H   0  0  0  0  0  0  0  0  0  0  0  0
    2.8291    1.1760    0.0000 H   0  0  0  0  0  0  0  0  0  0  0  0
   16.1664   -0.0369    0.0000 H   0  0  0  0  0  0  0  0  0  0  0  0
   16.3933    0.8100    0.0000 H   0  0  0  0  0  0  0  0  0  0  0  0
   15.5464    1.0369    0.0000 H   0  0  0  0  0  0  0  0  0  0  0  0
   14.9534   -1.1760    0.0000 H   0  0  0  0  0  0  0  0  0  0  0  0
   15.8004   -1.4030    0.0000 H   0  0  0  0  0  0  0  0  0  0  0  0
   16.0273   -0.5560    0.0000 H   0  0  0  0  0  0  0  0  0  0  0  0
   15.0273    1.1760    0.0000 H   0  0  0  0  0  0  0  0  0  0  0  0
   14.1804    1.4030    0.0000 H   0  0  0  0  0  0  0  0  0  0  0  0
   13.9534    0.5560    0.0000 H   0  0  0  0  0  0  0  0  0  0  0  0
  1  9  1  0  0  0  0
  1 10  1  0  0  0  0
  1 16  1  0  0  0  0
  1 17  1  0  0  0  0
  2  9  1  0  0  0  0
  2 11  1  0  0  0  0
  2 18  1  0  0  0  0
  2 19  1  0  0  0  0
  3 10  1  0  0  0  0
  3 12  1  0  0  0  0
  3 20  1  0  0  0  0
  3 21  1  0  0  0  0
  4 11  1  0  0  0  0
  4 13  1  0  0  0  0
  4 22  1  0  0  0  0
  4 23  1  0  0  0  0
  5 12  1  0  0  0  0
  5 14  1  0  0  0  0
  5 24  1  0  0  0  0
  5 25  1  0  0  0  0
  6 13  1  0  0  0  0
  6 15  1  0  0  0  0
  6 26  1  0  0  0  0
  6 27  1  0  0  0  0
  7 14  1  0  0  0  0
  7 28  1  0  0  0  0
  7 29  1  0  0  0  0
  7 30  1  0  0  0  0
  8 15  1  0  0  0  0
  8 31  1  0  0  0  0
  8 32  1  0  0  0  0
  8 33  1  0  0  0  0
 16 43  1  0  0  0  0
 16 44  1  0  0  0  0
 16 45  1  0  0  0  0
 17 40  1  0  0  0  0
 17 41  1  0  0  0  0
 17 42  1  0  0  0  0
 18 37  1  0  0  0  0
 18 38  1  0  0  0  0
 18 39  1  0  0  0  0
 19 34  1  0  0  0  0
 19 35  1  0  0  0  0
 19 36  1  0  0  0  0
 20 46  1  0  0  0  0
 20 47  1  0  0  0  0
 20 48  1  0  0  0  0
 21 49  1  0  0  0  0
 21 50  1  0  0  0  0
 21 51  1  0  0  0  0
 22 52  1  0  0  0  0
 22 53  1  0  0  0  0
 22 54  1  0  0  0  0
 23 55  1  0  0  0  0
 23 56  1  0  0  0  0
 23 57  1  0  0  0  0
 24 67  1  0  0  0  0
 24 68  1  0  0  0  0
 24 69  1  0  0  0  0
 25 64  1  0  0  0  0
 25 65  1  0  0  0  0
 25 66  1  0  0  0  0
 26 61  1  0  0  0  0
 26 62  1  0  0  0  0
 26 63  1  0  0  0  0
 27 58  1  0  0  0  0
 27 59  1  0  0  0  0
 27 60  1  0  0  0  0
 28 70  1  0  0  0  0
 28 71  1  0  0  0  0
 28 72  1  0  0  0  0
 29 73  1  0  0  0  0
 29 74  1  0  0  0  0
 29 75  1  0  0  0  0
 30 76  1  0  0  0  0
 30 77  1  0  0  0  0
 30 78  1  0  0  0  0
 31 79  1  0  0  0  0
 31 80  1  0  0  0  0
 31 81  1  0  0  0  0
 32 82  1  0  0  0  0
 32 83  1  0  0  0  0
 32 84  1  0  0  0  0
 33 85  1  0  0  0  0
 33 86  1  0  0  0  0
 33 87  1  0  0  0  0
M  END
> <PUBCHEM_COMPOUND_CID>
11171

> <PUBCHEM_COMPOUND_CANONICALIZED>
1

> <PUBCHEM_CACTVS_COMPLEXITY>
587

> <PUBCHEM_CACTVS_HBOND_ACCEPTOR>
7

> <PUBCHEM_CACTVS_HBOND_DONOR>
0

> <PUBCHEM_CACTVS_ROTATABLE_BOND>
14

> <PUBCHEM_CACTVS_SUBSKEYS>
AAADcfB4OAwAAAAAAAAAAAAAAAAAAAAAAAAAAAAAAAAAAAAAAAAAEBAAAEAAAAAAAABCAAAAAAEAAAAAAAAAAAAAAAAAAAAAAAAAAAAAAAAAAAAAAAAAAAAAAAAAAAAAAAAAAAAAAAAAAAAAAAAAAAAAAA==

> <PUBCHEM_IUPAC_OPENEYE_NAME>
[dimethyl(trimethylsilyloxy)silyl]oxy-[[[[dimethyl(trimethylsilyloxy)silyl]oxy-dimethyl-silyl]oxy-dimethyl-silyl]oxy-dimethyl-silyl]oxy-dimethyl-silane

> <PUBCHEM_IUPAC_CAS_NAME>
[dimethyl(trimethylsilyloxy)silyl]oxy-[[[[dimethyl(trimethylsilyloxy)silyl]oxy-dimethylsilyl]oxy-dimethylsilyl]oxy-dimethylsilyl]oxy-dimethylsilane

> <PUBCHEM_IUPAC_NAME>
[dimethyl(trimethylsilyloxy)silyl]oxy-[[[[dimethyl(trimethylsilyloxy)silyl]oxy-dimethylsilyl]oxy-dimethylsilyl]oxy-dimethylsilyl]oxy-dimethylsilane

> <PUBCHEM_IUPAC_SYSTEMATIC_NAME>
[dimethyl(trimethylsilyloxy)silyl]oxy-[[[[dimethyl(trimethylsilyloxy)silyl]oxy-dimethyl-silyl]oxy-dimethyl-silyl]oxy-dimethyl-silyl]oxy-dimethyl-silane

> <PUBCHEM_IUPAC_TRADITIONAL_NAME>
[dimethyl(trimethylsilyloxy)silyl]oxy-[[[[dimethyl(trimethylsilyloxy)silyl]oxy-dimethyl-silyl]oxy-dimethyl-silyl]oxy-dimethyl-silyl]oxy-dimethyl-silane

> <PUBCHEM_IUPAC_INCHI>
InChI=1S/C18H54O7Si8/c1-26(2,3)19-28(7,8)21-30(11,12)23-32(15,16)25-33(17,18)24-31(13,14)22-29(9,10)20-27(4,5)6/h1-18H3

> <PUBCHEM_IUPAC_INCHIKEY>
VWGDPBQTSZDFMX-UHFFFAOYSA-N

> <PUBCHEM_EXACT_MASS>
606.202366

> <PUBCHEM_MOLECULAR_FORMULA>
C18H54O7Si8

> <PUBCHEM_MOLECULAR_WEIGHT>
607.30116

> <PUBCHEM_OPENEYE_CAN_SMILES>
C[Si](C)(C)O[Si](C)(C)O[Si](C)(C)O[Si](C)(C)O[Si](C)(C)O[Si](C)(C)O[Si](C)(C)O[Si](C)(C)C

> <PUBCHEM_OPENEYE_ISO_SMILES>
C[Si](C)(C)O[Si](C)(C)O[Si](C)(C)O[Si](C)(C)O[Si](C)(C)O[Si](C)(C)O[Si](C)(C)O[Si](C)(C)C

> <PUBCHEM_CACTVS_TPSA>
64.6

> <PUBCHEM_MONOISOTOPIC_WEIGHT>
606.202366

> <PUBCHEM_TOTAL_CHARGE>
0

> <PUBCHEM_HEAVY_ATOM_COUNT>
33

> <PUBCHEM_ATOM_DEF_STEREO_COUNT>
0

> <PUBCHEM_ATOM_UDEF_STEREO_COUNT>
0

> <PUBCHEM_BOND_DEF_STEREO_COUNT>
0

> <PUBCHEM_BOND_UDEF_STEREO_COUNT>
0

> <PUBCHEM_ISOTOPIC_ATOM_COUNT>
0

> <PUBCHEM_COMPONENT_COUNT>
1

> <PUBCHEM_CACTVS_TAUTO_COUNT>
1

> <PUBCHEM_COORDINATE_TYPE>
1
5
255

$$$$

