9440
  -OEChem-06261203422D

 32 33  0     1  0  0  0  0  0999 V2000
    2.0000   -3.0173    0.0000 F   0  0  0  0  0  0  0  0  0  0  0  0
    2.8660   -0.5173    0.0000 N   0  0  3  0  0  0  0  0  0  0  0  0
    3.7320   -0.0173    0.0000 C   0  0  0  0  0  0  0  0  0  0  0  0
    3.7320    0.9827    0.0000 C   0  0  0  0  0  0  0  0  0  0  0  0
    4.5981    1.4827    0.0000 C   0  0  0  0  0  0  0  0  0  0  0  0
    2.8660   -1.5173    0.0000 C   0  0  0  0  0  0  0  0  0  0  0  0
    4.5981    2.4827    0.0000 C   0  0  0  0  0  0  0  0  0  0  0  0
    2.8660    1.4827    0.0000 C   0  0  0  0  0  0  0  0  0  0  0  0
    2.0000   -0.0173    0.0000 C   0  0  0  0  0  0  0  0  0  0  0  0
    5.4920    0.9480    0.0000 C   0  0  0  0  0  0  0  0  0  0  0  0
    3.7320    2.9827    0.0000 C   0  0  0  0  0  0  0  0  0  0  0  0
    2.8660    2.4827    0.0000 C   0  0  0  0  0  0  0  0  0  0  0  0
    5.4920    3.0173    0.0000 C   0  0  0  0  0  0  0  0  0  0  0  0
    2.0000   -2.0173    0.0000 C   0  0  0  0  0  0  0  0  0  0  0  0
    6.3981    1.4619    0.0000 C   0  0  0  0  0  0  0  0  0  0  0  0
    6.3981    2.5035    0.0000 C   0  0  0  0  0  0  0  0  0  0  0  0
    3.9441   -0.5999    0.0000 H   0  0  0  0  0  0  0  0  0  0  0  0
    4.3426    0.0903    0.0000 H   0  0  0  0  0  0  0  0  0  0  0  0
    3.0781   -2.0999    0.0000 H   0  0  0  0  0  0  0  0  0  0  0  0
    3.4766   -1.4097    0.0000 H   0  0  0  0  0  0  0  0  0  0  0  0
    2.3291    1.1727    0.0000 H   0  0  0  0  0  0  0  0  0  0  0  0
    2.3100    0.5196    0.0000 H   0  0  0  0  0  0  0  0  0  0  0  0
    1.4631    0.2927    0.0000 H   0  0  0  0  0  0  0  0  0  0  0  0
    1.6900   -0.5543    0.0000 H   0  0  0  0  0  0  0  0  0  0  0  0
    5.4848    0.3280    0.0000 H   0  0  0  0  0  0  0  0  0  0  0  0
    3.7320    3.6027    0.0000 H   0  0  0  0  0  0  0  0  0  0  0  0
    2.3291    2.7927    0.0000 H   0  0  0  0  0  0  0  0  0  0  0  0
    5.4848    3.6373    0.0000 H   0  0  0  0  0  0  0  0  0  0  0  0
    1.7880   -1.4347    0.0000 H   0  0  0  0  0  0  0  0  0  0  0  0
    1.3894   -2.1250    0.0000 H   0  0  0  0  0  0  0  0  0  0  0  0
    6.9338    1.1498    0.0000 H   0  0  0  0  0  0  0  0  0  0  0  0
    6.9338    2.8156    0.0000 H   0  0  0  0  0  0  0  0  0  0  0  0
  1 14  1  0  0  0  0
  2  3  1  0  0  0  0
  2  6  1  0  0  0  0
  2  9  1  0  0  0  0
  3  4  1  0  0  0  0
  3 17  1  0  0  0  0
  3 18  1  0  0  0  0
  4  5  1  0  0  0  0
  4  8  2  0  0  0  0
  5  7  1  0  0  0  0
  5 10  2  0  0  0  0
  6 14  1  0  0  0  0
  6 19  1  0  0  0  0
  6 20  1  0  0  0  0
  7 11  1  0  0  0  0
  7 13  2  0  0  0  0
  8 12  1  0  0  0  0
  8 21  1  0  0  0  0
  9 22  1  0  0  0  0
  9 23  1  0  0  0  0
  9 24  1  0  0  0  0
 10 15  1  0  0  0  0
 10 25  1  0  0  0  0
 11 12  2  0  0  0  0
 11 26  1  0  0  0  0
 12 27  1  0  0  0  0
 13 16  1  0  0  0  0
 13 28  1  0  0  0  0
 14 29  1  0  0  0  0
 14 30  1  0  0  0  0
 15 16  2  0  0  0  0
 15 31  1  0  0  0  0
 16 32  1  0  0  0  0
M  END
> <PUBCHEM_COMPOUND_CID>
9440

> <PUBCHEM_COMPOUND_CANONICALIZED>
1

> <PUBCHEM_CACTVS_COMPLEXITY>
207

> <PUBCHEM_CACTVS_HBOND_ACCEPTOR>
2

> <PUBCHEM_CACTVS_HBOND_DONOR>
0

> <PUBCHEM_CACTVS_ROTATABLE_BOND>
4

> <PUBCHEM_CACTVS_SUBSKEYS>
AAADceByAQAAAAAAAAAAAAAAAAAAAAAAAAAwYAAAAAAAAADBUAAAHQAAAAAADADBGAQyAMMAAACAAiBCAACCAAAgAAAIiAAIBIgIICKAkRGEIAhggACIiAcQgMAOgAACAAAQAAAAAAQAACAAAAAAAAAAAA==

> <PUBCHEM_IUPAC_OPENEYE_NAME>
2-fluoro-N-methyl-N-(1-naphthylmethyl)ethanamine

> <PUBCHEM_IUPAC_CAS_NAME>
2-fluoro-N-methyl-N-(1-naphthalenylmethyl)ethanamine

> <PUBCHEM_IUPAC_NAME>
2-fluoro-N-methyl-N-(naphthalen-1-ylmethyl)ethanamine

> <PUBCHEM_IUPAC_SYSTEMATIC_NAME>
2-fluoranyl-N-methyl-N-(naphthalen-1-ylmethyl)ethanamine

> <PUBCHEM_IUPAC_TRADITIONAL_NAME>
2-fluoroethyl-methyl-(1-naphthylmethyl)amine

> <PUBCHEM_IUPAC_INCHI>
InChI=1S/C14H16FN/c1-16(10-9-15)11-13-7-4-6-12-5-2-3-8-14(12)13/h2-8H,9-11H2,1H3

> <PUBCHEM_IUPAC_INCHIKEY>
MXQCXRIBPVYRJN-UHFFFAOYSA-N

> <PUBCHEM_XLOGP3>
3.5

> <PUBCHEM_EXACT_MASS>
217.126678

> <PUBCHEM_MOLECULAR_FORMULA>
C14H16FN

> <PUBCHEM_MOLECULAR_WEIGHT>
217.281943

> <PUBCHEM_OPENEYE_CAN_SMILES>
CN(CCF)CC1=CC=CC2=CC=CC=C21

> <PUBCHEM_OPENEYE_ISO_SMILES>
CN(CCF)CC1=CC=CC2=CC=CC=C21

> <PUBCHEM_CACTVS_TPSA>
3.2

> <PUBCHEM_MONOISOTOPIC_WEIGHT>
217.126678

> <PUBCHEM_TOTAL_CHARGE>
0

> <PUBCHEM_HEAVY_ATOM_COUNT>
16

> <PUBCHEM_ATOM_DEF_STEREO_COUNT>
0

> <PUBCHEM_ATOM_UDEF_STEREO_COUNT>
0

> <PUBCHEM_BOND_DEF_STEREO_COUNT>
0

> <PUBCHEM_BOND_UDEF_STEREO_COUNT>
0

> <PUBCHEM_ISOTOPIC_ATOM_COUNT>
0

> <PUBCHEM_COMPONENT_COUNT>
1

> <PUBCHEM_CACTVS_TAUTO_COUNT>
1

> <PUBCHEM_COORDINATE_TYPE>
1
5
255

> <PUBCHEM_BONDANNOTATIONS>
10  15  8
11  12  8
13  16  8
15  16  8
4  5  8
4  8  8
5  10  8
5  7  8
7  11  8
7  13  8
8  12  8

$$$$

