11676
  -OEChem-06261205582D

 24 23  0     0  0  0  0  0  0999 V2000
    2.5369   -0.7500    0.0000 O   0  0  0  0  0  0  0  0  0  0  0  0
    4.2690    0.2500    0.0000 C   0  0  0  0  0  0  0  0  0  0  0  0
    3.4030   -0.2500    0.0000 C   0  0  0  0  0  0  0  0  0  0  0  0
    5.1350    0.7500    0.0000 C   0  0  0  0  0  0  0  0  0  0  0  0
    3.7690    1.1160    0.0000 C   0  0  0  0  0  0  0  0  0  0  0  0
    4.7690   -0.6160    0.0000 C   0  0  0  0  0  0  0  0  0  0  0  0
    2.9030    0.6160    0.0000 C   0  0  0  0  0  0  0  0  0  0  0  0
    3.9030   -1.1160    0.0000 C   0  0  0  0  0  0  0  0  0  0  0  0
    5.4450    0.2131    0.0000 H   0  0  0  0  0  0  0  0  0  0  0  0
    5.6720    1.0600    0.0000 H   0  0  0  0  0  0  0  0  0  0  0  0
    4.8250    1.2869    0.0000 H   0  0  0  0  0  0  0  0  0  0  0  0
    4.3059    1.4260    0.0000 H   0  0  0  0  0  0  0  0  0  0  0  0
    3.4590    1.6530    0.0000 H   0  0  0  0  0  0  0  0  0  0  0  0
    3.2320    0.8060    0.0000 H   0  0  0  0  0  0  0  0  0  0  0  0
    4.2320   -0.9260    0.0000 H   0  0  0  0  0  0  0  0  0  0  0  0
    5.0790   -1.1530    0.0000 H   0  0  0  0  0  0  0  0  0  0  0  0
    5.3059   -0.3060    0.0000 H   0  0  0  0  0  0  0  0  0  0  0  0
    3.3660   -1.4260    0.0000 H   0  0  0  0  0  0  0  0  0  0  0  0
    4.2130   -1.6530    0.0000 H   0  0  0  0  0  0  0  0  0  0  0  0
    4.4399   -0.8060    0.0000 H   0  0  0  0  0  0  0  0  0  0  0  0
    3.4399    0.9260    0.0000 H   0  0  0  0  0  0  0  0  0  0  0  0
    2.5930    1.1530    0.0000 H   0  0  0  0  0  0  0  0  0  0  0  0
    2.3660    0.3060    0.0000 H   0  0  0  0  0  0  0  0  0  0  0  0
    2.0000   -0.4400    0.0000 H   0  0  0  0  0  0  0  0  0  0  0  0
  1  3  1  0  0  0  0
  1 24  1  0  0  0  0
  2  3  1  0  0  0  0
  2  4  1  0  0  0  0
  2  5  1  0  0  0  0
  2  6  1  0  0  0  0
  3  7  1  0  0  0  0
  3  8  1  0  0  0  0
  4  9  1  0  0  0  0
  4 10  1  0  0  0  0
  4 11  1  0  0  0  0
  5 12  1  0  0  0  0
  5 13  1  0  0  0  0
  5 14  1  0  0  0  0
  6 15  1  0  0  0  0
  6 16  1  0  0  0  0
  6 17  1  0  0  0  0
  7 21  1  0  0  0  0
  7 22  1  0  0  0  0
  7 23  1  0  0  0  0
  8 18  1  0  0  0  0
  8 19  1  0  0  0  0
  8 20  1  0  0  0  0
M  END
> <PUBCHEM_COMPOUND_CID>
11676

> <PUBCHEM_COMPOUND_CANONICALIZED>
1

> <PUBCHEM_CACTVS_COMPLEXITY>
76.9

> <PUBCHEM_CACTVS_HBOND_ACCEPTOR>
1

> <PUBCHEM_CACTVS_HBOND_DONOR>
1

> <PUBCHEM_CACTVS_ROTATABLE_BOND>
1

> <PUBCHEM_CACTVS_SUBSKEYS>
AAADceBgIAAAAAAAAAAAAAAAAAAAAAAAAAAAAAAAAAAAAAAAAAAAGgAACAAADkSAgAACAAAAAgAAAAAAAAAAAAAAAAAAAAAAAAAAAAAAAAAAQAAAAAAAAAAAAAAJgAAAAAAAAAAAAAAAAAAAAAAAAAAAAA==

> <PUBCHEM_IUPAC_OPENEYE_NAME>
2,3,3-trimethylbutan-2-ol

> <PUBCHEM_IUPAC_CAS_NAME>
2,3,3-trimethyl-2-butanol

> <PUBCHEM_IUPAC_NAME>
2,3,3-trimethylbutan-2-ol

> <PUBCHEM_IUPAC_SYSTEMATIC_NAME>
2,3,3-trimethylbutan-2-ol

> <PUBCHEM_IUPAC_TRADITIONAL_NAME>
2,3,3-trimethylbutan-2-ol

> <PUBCHEM_IUPAC_INCHI>
InChI=1S/C7H16O/c1-6(2,3)7(4,5)8/h8H,1-5H3

> <PUBCHEM_IUPAC_INCHIKEY>
OKXVARYIKDXAEO-UHFFFAOYSA-N

> <PUBCHEM_XLOGP3_AA>
1.9

> <PUBCHEM_EXACT_MASS>
116.120115

> <PUBCHEM_MOLECULAR_FORMULA>
C7H16O

> <PUBCHEM_MOLECULAR_WEIGHT>
116.20134

> <PUBCHEM_OPENEYE_CAN_SMILES>
CC(C)(C)C(C)(C)O

> <PUBCHEM_OPENEYE_ISO_SMILES>
CC(C)(C)C(C)(C)O

> <PUBCHEM_CACTVS_TPSA>
20.2

> <PUBCHEM_MONOISOTOPIC_WEIGHT>
116.120115

> <PUBCHEM_TOTAL_CHARGE>
0

> <PUBCHEM_HEAVY_ATOM_COUNT>
8

> <PUBCHEM_ATOM_DEF_STEREO_COUNT>
0

> <PUBCHEM_ATOM_UDEF_STEREO_COUNT>
0

> <PUBCHEM_BOND_DEF_STEREO_COUNT>
0

> <PUBCHEM_BOND_UDEF_STEREO_COUNT>
0

> <PUBCHEM_ISOTOPIC_ATOM_COUNT>
0

> <PUBCHEM_COMPONENT_COUNT>
1

> <PUBCHEM_CACTVS_TAUTO_COUNT>
1

> <PUBCHEM_COORDINATE_TYPE>
1
5
255

$$$$

