17395455
  -OEChem-06241222502D

 35 37  0     0  0  0  0  0  0999 V2000
    5.4071    1.6444    0.0000 S   0  0  0  0  0  0  0  0  0  0  0  0
    6.6859    3.4045    0.0000 S   0  0  0  0  0  0  0  0  0  0  0  0
    5.4641   -0.4434    0.0000 O   0  0  0  0  0  0  0  0  0  0  0  0
    2.0000   -1.4434    0.0000 O   0  0  0  0  0  0  0  0  0  0  0  0
    4.0981    2.5955    0.0000 N   0  0  0  0  0  0  0  0  0  0  0  0
    3.7320   -0.4434    0.0000 N   0  0  0  0  0  0  0  0  0  0  0  0
    3.7320   -1.4434    0.0000 N   0  0  0  0  0  0  0  0  0  0  0  0
    3.7320   -4.4434    0.0000 N   0  0  0  0  0  0  0  0  0  0  0  0
    4.5981    1.0566    0.0000 C   0  0  0  0  0  0  0  0  0  0  0  0
    3.7891    1.6444    0.0000 C   0  0  0  0  0  0  0  0  0  0  0  0
    5.0981    2.5955    0.0000 C   0  0  0  0  0  0  0  0  0  0  0  0
    5.6859    3.4045    0.0000 C   0  0  0  0  0  0  0  0  0  0  0  0
    4.5981    0.0566    0.0000 C   0  0  0  0  0  0  0  0  0  0  0  0
    2.8380    1.3354    0.0000 C   0  0  0  0  0  0  0  0  0  0  0  0
    5.3768    4.3556    0.0000 C   0  0  0  0  0  0  0  0  0  0  0  0
    6.1859    4.9434    0.0000 C   0  0  0  0  0  0  0  0  0  0  0  0
    2.8660   -2.9434    0.0000 C   0  0  0  0  0  0  0  0  0  0  0  0
    6.9949    4.3556    0.0000 C   0  0  0  0  0  0  0  0  0  0  0  0
    2.8660   -1.9434    0.0000 C   0  0  0  0  0  0  0  0  0  0  0  0
    2.0000   -3.4434    0.0000 C   0  0  0  0  0  0  0  0  0  0  0  0
    3.7320   -3.4434    0.0000 C   0  0  0  0  0  0  0  0  0  0  0  0
    2.0000   -4.4434    0.0000 C   0  0  0  0  0  0  0  0  0  0  0  0
    2.8660   -4.9434    0.0000 C   0  0  0  0  0  0  0  0  0  0  0  0
    2.6464    1.9251    0.0000 H   0  0  0  0  0  0  0  0  0  0  0  0
    2.2484    1.1438    0.0000 H   0  0  0  0  0  0  0  0  0  0  0  0
    3.0296    0.7458    0.0000 H   0  0  0  0  0  0  0  0  0  0  0  0
    4.7872    4.5472    0.0000 H   0  0  0  0  0  0  0  0  0  0  0  0
    3.1951   -0.1334    0.0000 H   0  0  0  0  0  0  0  0  0  0  0  0
    6.1859    5.5634    0.0000 H   0  0  0  0  0  0  0  0  0  0  0  0
    4.2690   -1.7534    0.0000 H   0  0  0  0  0  0  0  0  0  0  0  0
    7.5845    4.5472    0.0000 H   0  0  0  0  0  0  0  0  0  0  0  0
    1.4631   -3.1334    0.0000 H   0  0  0  0  0  0  0  0  0  0  0  0
    4.2690   -3.1334    0.0000 H   0  0  0  0  0  0  0  0  0  0  0  0
    1.4631   -4.7534    0.0000 H   0  0  0  0  0  0  0  0  0  0  0  0
    2.8660   -5.5634    0.0000 H   0  0  0  0  0  0  0  0  0  0  0  0
  1  9  1  0  0  0  0
  1 11  1  0  0  0  0
  2 12  1  0  0  0  0
  2 18  1  0  0  0  0
  3 13  2  0  0  0  0
  4 19  2  0  0  0  0
  5 10  1  0  0  0  0
  5 11  2  0  0  0  0
  6  7  1  0  0  0  0
  6 13  1  0  0  0  0
  6 28  1  0  0  0  0
  7 19  1  0  0  0  0
  7 30  1  0  0  0  0
  8 21  1  0  0  0  0
  8 23  2  0  0  0  0
  9 10  2  0  0  0  0
  9 13  1  0  0  0  0
 10 14  1  0  0  0  0
 11 12  1  0  0  0  0
 12 15  2  0  0  0  0
 14 24  1  0  0  0  0
 14 25  1  0  0  0  0
 14 26  1  0  0  0  0
 15 16  1  0  0  0  0
 15 27  1  0  0  0  0
 16 18  2  0  0  0  0
 16 29  1  0  0  0  0
 17 19  1  0  0  0  0
 17 20  1  0  0  0  0
 17 21  2  0  0  0  0
 18 31  1  0  0  0  0
 20 22  2  0  0  0  0
 20 32  1  0  0  0  0
 21 33  1  0  0  0  0
 22 23  1  0  0  0  0
 22 34  1  0  0  0  0
 23 35  1  0  0  0  0
M  END
> <PUBCHEM_COMPOUND_CID>
17395455

> <PUBCHEM_COMPOUND_CANONICALIZED>
1

> <PUBCHEM_CACTVS_COMPLEXITY>
451

> <PUBCHEM_CACTVS_HBOND_ACCEPTOR>
6

> <PUBCHEM_CACTVS_HBOND_DONOR>
2

> <PUBCHEM_CACTVS_ROTATABLE_BOND>
3

> <PUBCHEM_CACTVS_SUBSKEYS>
AAADccBzsABgAAAAAAAAAAAAAAAAAWJAAAAsAAAAAAAAAAAB+AAAHgQYAAAADAjF3gS+gZJqEAisAzV3VACD8KB1Cjpa+D04ZNgIIPrg1ZGEIYhggADoycYYAQAMAAAAAAAAAAAAAAAAAAAAAAAAAAAAAA==

> <PUBCHEM_IUPAC_OPENEYE_NAME>
4-methyl-N'-(pyridine-3-carbonyl)-2-(2-thienyl)thiazole-5-carbohydrazide

> <PUBCHEM_IUPAC_CAS_NAME>
4-methyl-N'-[oxo(3-pyridinyl)methyl]-2-thiophen-2-yl-5-thiazolecarbohydrazide

> <PUBCHEM_IUPAC_NAME>
4-methyl-N'-(pyridine-3-carbonyl)-2-thiophen-2-yl-1,3-thiazole-5-carbohydrazide

> <PUBCHEM_IUPAC_SYSTEMATIC_NAME>
4-methyl-N'-pyridin-3-ylcarbonyl-2-thiophen-2-yl-1,3-thiazole-5-carbohydrazide

> <PUBCHEM_IUPAC_TRADITIONAL_NAME>
4-methyl-N'-nicotinoyl-2-(2-thienyl)thiazole-5-carbohydrazide

> <PUBCHEM_IUPAC_INCHI>
InChI=1S/C15H12N4O2S2/c1-9-12(23-15(17-9)11-5-3-7-22-11)14(21)19-18-13(20)10-4-2-6-16-8-10/h2-8H,1H3,(H,18,20)(H,19,21)

> <PUBCHEM_IUPAC_INCHIKEY>
JFJZEDCEAPGZBI-UHFFFAOYSA-N

> <PUBCHEM_XLOGP3_AA>
2.4

> <PUBCHEM_EXACT_MASS>
344.040168

> <PUBCHEM_MOLECULAR_FORMULA>
C15H12N4O2S2

> <PUBCHEM_MOLECULAR_WEIGHT>
344.41138

> <PUBCHEM_OPENEYE_CAN_SMILES>
CC1=C(SC(=N1)C2=CC=CS2)C(=O)NNC(=O)C3=CN=CC=C3

> <PUBCHEM_OPENEYE_ISO_SMILES>
CC1=C(SC(=N1)C2=CC=CS2)C(=O)NNC(=O)C3=CN=CC=C3

> <PUBCHEM_CACTVS_TPSA>
141

> <PUBCHEM_MONOISOTOPIC_WEIGHT>
344.040168

> <PUBCHEM_TOTAL_CHARGE>
0

> <PUBCHEM_HEAVY_ATOM_COUNT>
23

> <PUBCHEM_ATOM_DEF_STEREO_COUNT>
0

> <PUBCHEM_ATOM_UDEF_STEREO_COUNT>
0

> <PUBCHEM_BOND_DEF_STEREO_COUNT>
0

> <PUBCHEM_BOND_UDEF_STEREO_COUNT>
0

> <PUBCHEM_ISOTOPIC_ATOM_COUNT>
0

> <PUBCHEM_COMPONENT_COUNT>
1

> <PUBCHEM_CACTVS_TAUTO_COUNT>
4

> <PUBCHEM_COORDINATE_TYPE>
1
5
255

> <PUBCHEM_BONDANNOTATIONS>
1  11  8
1  9  8
12  15  8
15  16  8
16  18  8
17  20  8
17  21  8
2  12  8
2  18  8
20  22  8
22  23  8
5  10  8
5  11  8
8  21  8
8  23  8
9  10  8

$$$$

