12575
  -OEChem-06261207063D

 20 20  0     0  0  0  0  0  0999 V2000
   -2.8979   -0.4397    0.3570 O   0  0  0  0  0  0  0  0  0  0  0  0
   -1.7386    2.0764    0.1299 O   0  0  0  0  0  0  0  0  0  0  0  0
    3.2980   -1.1427   -0.0886 O   0  0  0  0  0  0  0  0  0  0  0  0
    3.2855    1.1269   -0.2117 O   0  0  0  0  0  0  0  0  0  0  0  0
   -1.5469   -0.3075    0.2436 C   0  0  0  0  0  0  0  0  0  0  0  0
    1.2226   -0.0636    0.0139 C   0  0  0  0  0  0  0  0  0  0  0  0
   -0.9650    0.9551    0.1300 C   0  0  0  0  0  0  0  0  0  0  0  0
    0.4197    1.0770    0.0151 C   0  0  0  0  0  0  0  0  0  0  0  0
   -0.7441   -1.4482    0.2426 C   0  0  0  0  0  0  0  0  0  0  0  0
    0.6406   -1.3262    0.1276 C   0  0  0  0  0  0  0  0  0  0  0  0
    2.6664    0.0631   -0.1058 C   0  0  0  0  0  0  0  0  0  0  0  0
   -3.6402   -0.5707   -0.8538 C   0  0  0  0  0  0  0  0  0  0  0  0
    0.8600    2.0674   -0.0728 H   0  0  0  0  0  0  0  0  0  0  0  0
   -1.1911   -2.4347    0.3317 H   0  0  0  0  0  0  0  0  0  0  0  0
    1.2279   -2.2402    0.1313 H   0  0  0  0  0  0  0  0  0  0  0  0
   -3.3563   -1.4889   -1.3777 H   0  0  0  0  0  0  0  0  0  0  0  0
   -3.4814    0.2960   -1.5032 H   0  0  0  0  0  0  0  0  0  0  0  0
   -4.7023   -0.6272   -0.6000 H   0  0  0  0  0  0  0  0  0  0  0  0
   -2.6660    1.8123    0.2574 H   0  0  0  0  0  0  0  0  0  0  0  0
    4.2709   -1.0462   -0.1693 H   0  0  0  0  0  0  0  0  0  0  0  0
  1  5  1  0  0  0  0
  1 12  1  0  0  0  0
  2  7  1  0  0  0  0
  2 19  1  0  0  0  0
  3 11  1  0  0  0  0
  3 20  1  0  0  0  0
  4 11  2  0  0  0  0
  5  7  2  0  0  0  0
  5  9  1  0  0  0  0
  6  8  2  0  0  0  0
  6 10  1  0  0  0  0
  6 11  1  0  0  0  0
  7  8  1  0  0  0  0
  8 13  1  0  0  0  0
  9 10  2  0  0  0  0
  9 14  1  0  0  0  0
 10 15  1  0  0  0  0
 12 16  1  0  0  0  0
 12 17  1  0  0  0  0
 12 18  1  0  0  0  0
M  END
> <PUBCHEM_COMPOUND_CID>
12575

> <PUBCHEM_CONFORMER_RMSD>
0.6

> <PUBCHEM_CONFORMER_DIVERSEORDER>
2
3
4
1

> <PUBCHEM_MMFF94_PARTIAL_CHARGES>
17
1 -0.36
10 -0.15
11 0.63
12 0.28
13 0.15
14 0.15
15 0.15
19 0.45
2 -0.53
20 0.5
3 -0.65
4 -0.57
5 0.08
6 0.09
7 0.08
8 -0.15
9 -0.15

> <PUBCHEM_EFFECTIVE_ROTOR_COUNT>
2

> <PUBCHEM_PHARMACOPHORE_FEATURES>
6
1 1 acceptor
1 2 donor
1 3 acceptor
1 4 acceptor
3 3 4 11 anion
6 5 6 7 8 9 10 rings

> <PUBCHEM_HEAVY_ATOM_COUNT>
12

> <PUBCHEM_ATOM_DEF_STEREO_COUNT>
0

> <PUBCHEM_ATOM_UDEF_STEREO_COUNT>
0

> <PUBCHEM_BOND_DEF_STEREO_COUNT>
0

> <PUBCHEM_BOND_UDEF_STEREO_COUNT>
0

> <PUBCHEM_ISOTOPIC_ATOM_COUNT>
0

> <PUBCHEM_COMPONENT_COUNT>
1

> <PUBCHEM_CACTVS_TAUTO_COUNT>
3

> <PUBCHEM_CONFORMER_ID>
0000311F00000002

> <PUBCHEM_MMFF94_ENERGY>
42.7184

> <PUBCHEM_FEATURE_SELFOVERLAP>
30.504

> <PUBCHEM_SHAPE_FINGERPRINT>
11206711 2 18412544344591056421
12032990 46 18340198601313479027
12897270 3 18412545413816158807
12932764 1 17385731296135537736
14325111 11 18410853295754944384
14993402 34 18041563538006293319
16945 1 18411974737232428818
193761 8 17834957846973167435
20201158 50 18410573963740158550
21293036 1 18341619170299356575
21501502 16 18267022949656906250
23402539 116 18335713736016637486
23402655 69 18267040491363737765
23463225 33 18341894155643877370
23552423 10 18198338653093213682
2748010 2 18267017447793133668
369184 2 18335136496912633522
5084963 1 18259983799033015202
528886 8 18337957783456681227
8030462 33 18272078414301621014

> <PUBCHEM_SHAPE_MULTIPOLES>
223.48
5.19
1.63
0.68
0.38
0.36
-0.05
-0.43
-1.01
-0.11
0.08
-0.26
-0.05
-0.15

> <PUBCHEM_SHAPE_SELFOVERLAP>
469.431

> <PUBCHEM_SHAPE_VOLUME>
126.3

> <PUBCHEM_COORDINATE_TYPE>
2
5
10

$$$$

