17395565
  -OEChem-06241222512D

 31 32  0     1  0  0  0  0  0999 V2000
    4.5981   -3.4330    0.0000 Cl  0  0  0  0  0  0  0  0  0  0  0  0
    3.7320    1.0670    0.0000 O   0  0  0  0  0  0  0  0  0  0  0  0
    2.0000   -1.9330    0.0000 O   0  5  0  0  0  0  0  0  0  0  0  0
    2.8660   -3.4330    0.0000 O   0  0  0  0  0  0  0  0  0  0  0  0
    5.4641    1.0670    0.0000 N   0  0  0  0  0  0  0  0  0  0  0  0
    2.8660   -2.4330    0.0000 N   0  3  0  0  0  0  0  0  0  0  0  0
    6.3301    2.5670    0.0000 C   0  0  0  0  0  0  0  0  0  0  0  0
    7.3301    2.5670    0.0000 C   0  0  0  0  0  0  0  0  0  0  0  0
    6.8301    3.4330    0.0000 C   0  0  0  0  0  0  0  0  0  0  0  0
    5.4641    2.0670    0.0000 C   0  0  3  0  0  0  0  0  0  0  0  0
    4.5981    2.5670    0.0000 C   0  0  0  0  0  0  0  0  0  0  0  0
    4.5981    0.5670    0.0000 C   0  0  0  0  0  0  0  0  0  0  0  0
    4.5981   -0.4330    0.0000 C   0  0  0  0  0  0  0  0  0  0  0  0
    3.7320   -0.9330    0.0000 C   0  0  0  0  0  0  0  0  0  0  0  0
    5.4641   -0.9330    0.0000 C   0  0  0  0  0  0  0  0  0  0  0  0
    3.7320   -1.9330    0.0000 C   0  0  0  0  0  0  0  0  0  0  0  0
    5.4641   -1.9330    0.0000 C   0  0  0  0  0  0  0  0  0  0  0  0
    4.5981   -2.4330    0.0000 C   0  0  0  0  0  0  0  0  0  0  0  0
    6.4906    1.9681    0.0000 H   0  0  0  0  0  0  0  0  0  0  0  0
    7.3051    3.8315    0.0000 H   0  0  0  0  0  0  0  0  0  0  0  0
    6.3552    3.8315    0.0000 H   0  0  0  0  0  0  0  0  0  0  0  0
    7.4378    1.9564    0.0000 H   0  0  0  0  0  0  0  0  0  0  0  0
    7.9127    2.7790    0.0000 H   0  0  0  0  0  0  0  0  0  0  0  0
    6.0010    1.7570    0.0000 H   0  0  0  0  0  0  0  0  0  0  0  0
    4.9081    3.1039    0.0000 H   0  0  0  0  0  0  0  0  0  0  0  0
    4.0611    2.8770    0.0000 H   0  0  0  0  0  0  0  0  0  0  0  0
    4.2881    2.0300    0.0000 H   0  0  0  0  0  0  0  0  0  0  0  0
    6.0010    0.7570    0.0000 H   0  0  0  0  0  0  0  0  0  0  0  0
    3.1951   -0.6230    0.0000 H   0  0  0  0  0  0  0  0  0  0  0  0
    6.0010   -0.6230    0.0000 H   0  0  0  0  0  0  0  0  0  0  0  0
    6.0010   -2.2430    0.0000 H   0  0  0  0  0  0  0  0  0  0  0  0
  1 18  1  0  0  0  0
  2 12  2  0  0  0  0
  3  6  1  0  0  0  0
  4  6  2  0  0  0  0
  5 10  1  0  0  0  0
  5 12  1  0  0  0  0
  5 28  1  0  0  0  0
  6 16  1  0  0  0  0
  7  8  1  0  0  0  0
  7  9  1  0  0  0  0
  7 10  1  0  0  0  0
  7 19  1  0  0  0  0
  8  9  1  0  0  0  0
  8 22  1  0  0  0  0
  8 23  1  0  0  0  0
  9 20  1  0  0  0  0
  9 21  1  0  0  0  0
 10 11  1  0  0  0  0
 10 24  1  0  0  0  0
 11 25  1  0  0  0  0
 11 26  1  0  0  0  0
 11 27  1  0  0  0  0
 12 13  1  0  0  0  0
 13 14  2  0  0  0  0
 13 15  1  0  0  0  0
 14 16  1  0  0  0  0
 14 29  1  0  0  0  0
 15 17  2  0  0  0  0
 15 30  1  0  0  0  0
 16 18  2  0  0  0  0
 17 18  1  0  0  0  0
 17 31  1  0  0  0  0
M  CHG  2   3  -1   6   1
M  END
> <PUBCHEM_COMPOUND_CID>
17395565

> <PUBCHEM_COMPOUND_CANONICALIZED>
1

> <PUBCHEM_CACTVS_COMPLEXITY>
341

> <PUBCHEM_CACTVS_HBOND_ACCEPTOR>
3

> <PUBCHEM_CACTVS_HBOND_DONOR>
1

> <PUBCHEM_CACTVS_ROTATABLE_BOND>
3

> <PUBCHEM_CACTVS_SUBSKEYS>
AAADccBzMAAEAAAAAAAAAAAAGAAAAAAAAAAwAAAAAAAAAAABAAAAHgIUAAAADSrBmCQywILQQACJAiVSUwCCAAAkBwAoiIEIZsoIIDKBl5GEIQhglgCIyYcciACOBAAAQAAAABAIAACAAAAAIAAAAAAAAA==

> <PUBCHEM_IUPAC_OPENEYE_NAME>
4-chloro-N-(1-cyclopropylethyl)-3-nitro-benzamide

> <PUBCHEM_IUPAC_CAS_NAME>
4-chloro-N-(1-cyclopropylethyl)-3-nitrobenzamide

> <PUBCHEM_IUPAC_NAME>
4-chloro-N-(1-cyclopropylethyl)-3-nitrobenzamide

> <PUBCHEM_IUPAC_SYSTEMATIC_NAME>
4-chloranyl-N-(1-cyclopropylethyl)-3-nitro-benzamide

> <PUBCHEM_IUPAC_TRADITIONAL_NAME>
4-chloro-N-(1-cyclopropylethyl)-3-nitro-benzamide

> <PUBCHEM_IUPAC_INCHI>
InChI=1S/C12H13ClN2O3/c1-7(8-2-3-8)14-12(16)9-4-5-10(13)11(6-9)15(17)18/h4-8H,2-3H2,1H3,(H,14,16)

> <PUBCHEM_IUPAC_INCHIKEY>
JSGOVXLHOAGGKX-UHFFFAOYSA-N

> <PUBCHEM_XLOGP3>
2.7

> <PUBCHEM_EXACT_MASS>
268.06147

> <PUBCHEM_MOLECULAR_FORMULA>
C12H13ClN2O3

> <PUBCHEM_MOLECULAR_WEIGHT>
268.69622

> <PUBCHEM_OPENEYE_CAN_SMILES>
CC(C1CC1)NC(=O)C2=CC(=C(C=C2)Cl)[N+](=O)[O-]

> <PUBCHEM_OPENEYE_ISO_SMILES>
CC(C1CC1)NC(=O)C2=CC(=C(C=C2)Cl)[N+](=O)[O-]

> <PUBCHEM_CACTVS_TPSA>
74.9

> <PUBCHEM_MONOISOTOPIC_WEIGHT>
268.06147

> <PUBCHEM_TOTAL_CHARGE>
0

> <PUBCHEM_HEAVY_ATOM_COUNT>
18

> <PUBCHEM_ATOM_DEF_STEREO_COUNT>
0

> <PUBCHEM_ATOM_UDEF_STEREO_COUNT>
1

> <PUBCHEM_BOND_DEF_STEREO_COUNT>
0

> <PUBCHEM_BOND_UDEF_STEREO_COUNT>
0

> <PUBCHEM_ISOTOPIC_ATOM_COUNT>
0

> <PUBCHEM_COMPONENT_COUNT>
1

> <PUBCHEM_CACTVS_TAUTO_COUNT>
2

> <PUBCHEM_COORDINATE_TYPE>
1
5
255

> <PUBCHEM_BONDANNOTATIONS>
10  11  3
13  14  8
13  15  8
14  16  8
15  17  8
16  18  8
17  18  8

$$$$

