13221
  -OEChem-06261207542D

 35 35  0     1  0  0  0  0  0999 V2000
    2.7133    0.0000    0.0000 Cl  0  0  0  0  0  0  0  0  0  0  0  0
    2.3708    4.4078    0.0000 N   0  0  0  0  0  0  0  0  0  0  0  0
    1.5124    6.2074    0.0000 C   0  0  0  0  0  0  0  0  0  0  0  0
    2.0124    5.3414    0.0000 C   0  0  3  0  0  0  0  0  0  0  0  0
    4.0033    7.3074    0.0000 C   0  0  3  0  0  0  0  0  0  0  0  0
    3.7444    6.3414    0.0000 C   0  0  3  0  0  0  0  0  0  0  0  0
    3.2667    8.2900    0.0000 C   0  0  0  0  0  0  0  0  0  0  0  0
    5.8352    6.5485    0.0000 C   0  0  0  0  0  0  0  0  0  0  0  0
    5.5764    5.5826    0.0000 C   0  0  0  0  0  0  0  0  0  0  0  0
    0.8831    6.9846    0.0000 C   0  0  0  0  0  0  0  0  0  0  0  0
    0.5788    5.8491    0.0000 C   0  0  0  0  0  0  0  0  0  0  0  0
    1.2352    4.7121    0.0000 C   0  0  0  0  0  0  0  0  0  0  0  0
    3.3585    4.2514    0.0000 C   0  0  0  0  0  0  0  0  0  0  0  0
    4.0131    6.4574    0.0000 H   0  0  0  0  0  0  0  0  0  0  0  0
    3.8000    5.4932    0.0000 H   0  0  0  0  0  0  0  0  0  0  0  0
    3.5845    8.8223    0.0000 H   0  0  0  0  0  0  0  0  0  0  0  0
    2.6535    8.3819    0.0000 H   0  0  0  0  0  0  0  0  0  0  0  0
    6.4265    6.3621    0.0000 H   0  0  0  0  0  0  0  0  0  0  0  0
    6.0473    7.1311    0.0000 H   0  0  0  0  0  0  0  0  0  0  0  0
    5.3644    5.0000    0.0000 H   0  0  0  0  0  0  0  0  0  0  0  0
    6.1677    5.3962    0.0000 H   0  0  0  0  0  0  0  0  0  0  0  0
    1.3649    7.3748    0.0000 H   0  0  0  0  0  0  0  0  0  0  0  0
    0.4929    7.4664    0.0000 H   0  0  0  0  0  0  0  0  0  0  0  0
    0.4012    6.5944    0.0000 H   0  0  0  0  0  0  0  0  0  0  0  0
    0.3566    6.4279    0.0000 H   0  0  0  0  0  0  0  0  0  0  0  0
    0.0000    5.6269    0.0000 H   0  0  0  0  0  0  0  0  0  0  0  0
    0.8010    5.2703    0.0000 H   0  0  0  0  0  0  0  0  0  0  0  0
    0.8451    5.1939    0.0000 H   0  0  0  0  0  0  0  0  0  0  0  0
    0.7534    4.3219    0.0000 H   0  0  0  0  0  0  0  0  0  0  0  0
    1.6254    4.2303    0.0000 H   0  0  0  0  0  0  0  0  0  0  0  0
    1.9806    3.9260    0.0000 H   0  0  0  0  0  0  0  0  0  0  0  0
    3.2615    3.6390    0.0000 H   0  0  0  0  0  0  0  0  0  0  0  0
    3.9708    4.1544    0.0000 H   0  0  0  0  0  0  0  0  0  0  0  0
    3.4554    4.8638    0.0000 H   0  0  0  0  0  0  0  0  0  0  0  0
    3.7133    0.0000    0.0000 H   0  0  0  0  0  0  0  0  0  0  0  0
  1 35  1  0  0  0  0
  2  4  1  0  0  0  0
  2 13  1  0  0  0  0
  2 31  1  0  0  0  0
  3  4  1  0  0  0  0
  3  5  1  0  0  0  0
  3 10  1  0  0  0  0
  3 11  1  0  0  0  0
  4  6  1  0  0  0  0
  4 12  1  0  0  0  0
  5  7  1  0  0  0  0
  5  8  1  0  0  0  0
  5 14  1  0  0  0  0
  6  7  1  0  0  0  0
  6  9  1  0  0  0  0
  6 15  1  0  0  0  0
  7 16  1  0  0  0  0
  7 17  1  0  0  0  0
  8  9  1  0  0  0  0
  8 18  1  0  0  0  0
  8 19  1  0  0  0  0
  9 20  1  0  0  0  0
  9 21  1  0  0  0  0
 10 22  1  0  0  0  0
 10 23  1  0  0  0  0
 10 24  1  0  0  0  0
 11 25  1  0  0  0  0
 11 26  1  0  0  0  0
 11 27  1  0  0  0  0
 12 28  1  0  0  0  0
 12 29  1  0  0  0  0
 12 30  1  0  0  0  0
 13 32  1  0  0  0  0
 13 33  1  0  0  0  0
 13 34  1  0  0  0  0
M  END
> <PUBCHEM_COMPOUND_CID>
13221

> <PUBCHEM_COMPOUND_CANONICALIZED>
1

> <PUBCHEM_CACTVS_COMPLEXITY>
197

> <PUBCHEM_CACTVS_HBOND_ACCEPTOR>
1

> <PUBCHEM_CACTVS_HBOND_DONOR>
2

> <PUBCHEM_CACTVS_ROTATABLE_BOND>
1

> <PUBCHEM_CACTVS_SUBSKEYS>
AAADceByAAAEAAAAAAAAAAAAAAAAAYMAAAAwAAAAAAAAAAAAAAAAHAAQAAAAD4iBAAQCAALAAAAAAAAAAAAAAAAAAAAAAIAIAAAAAAIAgAAEAAAAEAAAAAEQgMAPgAAAAAAAAAAAAASAACQAASAACQAAAA==

> <PUBCHEM_IUPAC_OPENEYE_NAME>
N,2,3,3-tetramethylnorbornan-2-amine hydrochloride

> <PUBCHEM_IUPAC_CAS_NAME>
N,2,2,3-tetramethyl-3-bicyclo[2.2.1]heptanamine hydrochloride

> <PUBCHEM_IUPAC_NAME>
N,2,2,3-tetramethylbicyclo[2.2.1]heptan-3-amine hydrochloride

> <PUBCHEM_IUPAC_SYSTEMATIC_NAME>
N,2,2,3-tetramethylbicyclo[2.2.1]heptan-3-amine hydrochloride

> <PUBCHEM_IUPAC_TRADITIONAL_NAME>
methyl-(2,3,3-trimethylnorbornan-2-yl)amine hydrochloride

> <PUBCHEM_IUPAC_INCHI>
InChI=1S/C11H21N.ClH/c1-10(2)8-5-6-9(7-8)11(10,3)12-4;/h8-9,12H,5-7H2,1-4H3;1H

> <PUBCHEM_IUPAC_INCHIKEY>
PKVZBNCYEICAQP-UHFFFAOYSA-N

> <PUBCHEM_EXACT_MASS>
203.144077

> <PUBCHEM_MOLECULAR_FORMULA>
C11H22ClN

> <PUBCHEM_MOLECULAR_WEIGHT>
203.75208

> <PUBCHEM_OPENEYE_CAN_SMILES>
CC1(C2CCC(C2)C1(C)NC)C.Cl

> <PUBCHEM_OPENEYE_ISO_SMILES>
CC1(C2CCC(C2)C1(C)NC)C.Cl

> <PUBCHEM_CACTVS_TPSA>
12

> <PUBCHEM_MONOISOTOPIC_WEIGHT>
203.144077

> <PUBCHEM_TOTAL_CHARGE>
0

> <PUBCHEM_HEAVY_ATOM_COUNT>
13

> <PUBCHEM_ATOM_DEF_STEREO_COUNT>
0

> <PUBCHEM_ATOM_UDEF_STEREO_COUNT>
3

> <PUBCHEM_BOND_DEF_STEREO_COUNT>
0

> <PUBCHEM_BOND_UDEF_STEREO_COUNT>
0

> <PUBCHEM_ISOTOPIC_ATOM_COUNT>
0

> <PUBCHEM_COMPONENT_COUNT>
2

> <PUBCHEM_CACTVS_TAUTO_COUNT>
1

> <PUBCHEM_COORDINATE_TYPE>
1
5
255

> <PUBCHEM_BONDANNOTATIONS>
4  12  3
5  14  3
6  15  3

$$$$

