17395947
  -OEChem-06241222533D

 46 47  0     0  0  0  0  0  0999 V2000
    2.4507   -1.4627    0.0012 S   0  0  0  0  0  0  0  0  0  0  0  0
   -5.1382    0.1443   -0.8657 O   0  0  0  0  0  0  0  0  0  0  0  0
   -2.4581   -3.3445   -0.6763 O   0  0  0  0  0  0  0  0  0  0  0  0
   -4.0641    1.7155    0.4682 N   0  0  0  0  0  0  0  0  0  0  0  0
   -3.8430   -1.8800    0.4811 N   0  0  0  0  0  0  0  0  0  0  0  0
   -4.3381    2.8793   -0.3442 C   0  0  0  0  0  0  0  0  0  0  0  0
   -4.0098   -0.5866    1.1416 C   0  0  0  0  0  0  0  0  0  0  0  0
   -4.4905    0.4378    0.1359 C   0  0  0  0  0  0  0  0  0  0  0  0
   -4.4812    4.1194    0.5294 C   0  0  0  0  0  0  0  0  0  0  0  0
   -3.2464    3.0637   -1.3901 C   0  0  0  0  0  0  0  0  0  0  0  0
   -2.6368   -2.2645   -0.1113 C   0  0  0  0  0  0  0  0  0  0  0  0
   -5.0183   -2.7413    0.4817 C   0  0  0  0  0  0  0  0  0  0  0  0
    3.1596    0.0960    0.0127 C   0  0  0  0  0  0  0  0  0  0  0  0
    0.8705   -0.8032   -0.0106 C   0  0  0  0  0  0  0  0  0  0  0  0
    4.5989    0.2080    0.0253 C   0  0  0  0  0  0  0  0  0  0  0  0
   -1.5311   -1.2617   -0.0601 C   0  0  0  0  0  0  0  0  0  0  0  0
   -0.2588   -1.6861   -0.0226 C   0  0  0  0  0  0  0  0  0  0  0  0
    2.2113    1.0951    0.0078 C   0  0  0  0  0  0  0  0  0  0  0  0
    0.8852    0.5743   -0.0056 C   0  0  0  0  0  0  0  0  0  0  0  0
    5.2378    0.8613    1.0794 C   0  0  0  0  0  0  0  0  0  0  0  0
    5.3508   -0.3358   -1.0163 C   0  0  0  0  0  0  0  0  0  0  0  0
    6.6283    0.9708    1.0918 C   0  0  0  0  0  0  0  0  0  0  0  0
    6.7413   -0.2263   -1.0037 C   0  0  0  0  0  0  0  0  0  0  0  0
    7.3800    0.4271    0.0504 C   0  0  0  0  0  0  0  0  0  0  0  0
   -5.2883    2.7122   -0.8658 H   0  0  0  0  0  0  0  0  0  0  0  0
   -4.7701   -0.6793    1.9260 H   0  0  0  0  0  0  0  0  0  0  0  0
   -3.0840   -0.2737    1.6322 H   0  0  0  0  0  0  0  0  0  0  0  0
   -3.4813    1.8425    1.2907 H   0  0  0  0  0  0  0  0  0  0  0  0
   -3.5567    4.3279    1.0794 H   0  0  0  0  0  0  0  0  0  0  0  0
   -5.2798    3.9839    1.2670 H   0  0  0  0  0  0  0  0  0  0  0  0
   -4.7240    4.9989   -0.0757 H   0  0  0  0  0  0  0  0  0  0  0  0
   -3.4545    3.9310   -2.0253 H   0  0  0  0  0  0  0  0  0  0  0  0
   -3.1698    2.1825   -2.0365 H   0  0  0  0  0  0  0  0  0  0  0  0
   -2.2675    3.2110   -0.9200 H   0  0  0  0  0  0  0  0  0  0  0  0
   -5.8581   -2.2211    0.0140 H   0  0  0  0  0  0  0  0  0  0  0  0
   -4.8244   -3.6666   -0.0671 H   0  0  0  0  0  0  0  0  0  0  0  0
   -5.2706   -2.9913    1.5164 H   0  0  0  0  0  0  0  0  0  0  0  0
   -1.7804   -0.2101   -0.1116 H   0  0  0  0  0  0  0  0  0  0  0  0
   -0.0586   -2.7554    0.0055 H   0  0  0  0  0  0  0  0  0  0  0  0
    2.4483    2.1519    0.0122 H   0  0  0  0  0  0  0  0  0  0  0  0
    0.0033    1.2025   -0.0105 H   0  0  0  0  0  0  0  0  0  0  0  0
    4.6689    1.2893    1.9015 H   0  0  0  0  0  0  0  0  0  0  0  0
    4.8755   -0.8404   -1.8541 H   0  0  0  0  0  0  0  0  0  0  0  0
    7.1259    1.4790    1.9126 H   0  0  0  0  0  0  0  0  0  0  0  0
    7.3269   -0.6475   -1.8156 H   0  0  0  0  0  0  0  0  0  0  0  0
    8.4627    0.5127    0.0598 H   0  0  0  0  0  0  0  0  0  0  0  0
  1 13  1  0  0  0  0
  1 14  1  0  0  0  0
  2  8  2  0  0  0  0
  3 11  2  0  0  0  0
  4  6  1  0  0  0  0
  4  8  1  0  0  0  0
  4 28  1  0  0  0  0
  5  7  1  0  0  0  0
  5 11  1  0  0  0  0
  5 12  1  0  0  0  0
  6  9  1  0  0  0  0
  6 10  1  0  0  0  0
  6 25  1  0  0  0  0
  7  8  1  0  0  0  0
  7 26  1  0  0  0  0
  7 27  1  0  0  0  0
  9 29  1  0  0  0  0
  9 30  1  0  0  0  0
  9 31  1  0  0  0  0
 10 32  1  0  0  0  0
 10 33  1  0  0  0  0
 10 34  1  0  0  0  0
 11 16  1  0  0  0  0
 12 35  1  0  0  0  0
 12 36  1  0  0  0  0
 12 37  1  0  0  0  0
 13 15  1  0  0  0  0
 13 18  2  0  0  0  0
 14 17  1  0  0  0  0
 14 19  2  0  0  0  0
 15 20  2  0  0  0  0
 15 21  1  0  0  0  0
 16 17  2  0  0  0  0
 16 38  1  0  0  0  0
 17 39  1  0  0  0  0
 18 19  1  0  0  0  0
 18 40  1  0  0  0  0
 19 41  1  0  0  0  0
 20 22  1  0  0  0  0
 20 42  1  0  0  0  0
 21 23  2  0  0  0  0
 21 43  1  0  0  0  0
 22 24  2  0  0  0  0
 22 44  1  0  0  0  0
 23 24  1  0  0  0  0
 23 45  1  0  0  0  0
 24 46  1  0  0  0  0
M  END
> <PUBCHEM_COMPOUND_CID>
17395947

> <PUBCHEM_CONFORMER_RMSD>
1

> <PUBCHEM_CONFORMER_DIVERSEORDER>
2
14
81
25
65
17
69
74
20
1
27
72
38
35
64
10
48
60
47
54
22
63
19
61
59
15
12
44
79
68
43
80
77
29
42
13
7
78
28
3
71
46
30
49
31
23
11
66
57
16
6
39
53
24
52
37
62
55
67
40
33
56
70
75
41
21
8
73
36
34
4
45
58
5
50
18
51
76
26
32
9

> <PUBCHEM_MMFF94_PARTIAL_CHARGES>
32
1 -0.08
11 0.62
12 0.3
13 -0.01
14 -0.01
15 0.05
16 -0.14
17 -0.11
18 -0.15
19 -0.15
2 -0.57
20 -0.15
21 -0.15
22 -0.15
23 -0.15
24 -0.15
28 0.37
3 -0.57
38 0.15
39 0.15
4 -0.73
40 0.15
41 0.15
42 0.15
43 0.15
44 0.15
45 0.15
46 0.15
5 -0.66
6 0.3
7 0.36
8 0.57

> <PUBCHEM_EFFECTIVE_ROTOR_COUNT>
8

> <PUBCHEM_PHARMACOPHORE_FEATURES>
6
1 2 acceptor
1 3 acceptor
1 4 donor
3 6 9 10 hydrophobe
5 1 13 14 18 19 rings
6 15 20 21 22 23 24 rings

> <PUBCHEM_HEAVY_ATOM_COUNT>
24

> <PUBCHEM_ATOM_DEF_STEREO_COUNT>
0

> <PUBCHEM_ATOM_UDEF_STEREO_COUNT>
0

> <PUBCHEM_BOND_DEF_STEREO_COUNT>
1

> <PUBCHEM_BOND_UDEF_STEREO_COUNT>
0

> <PUBCHEM_ISOTOPIC_ATOM_COUNT>
0

> <PUBCHEM_COMPONENT_COUNT>
1

> <PUBCHEM_CACTVS_TAUTO_COUNT>
2

> <PUBCHEM_CONFORMER_ID>
010970EB00000002

> <PUBCHEM_MMFF94_ENERGY>
55.542

> <PUBCHEM_FEATURE_SELFOVERLAP>
30.446

> <PUBCHEM_SHAPE_FINGERPRINT>
100830 39 18410857676811815256
10087517 78 18343024363160305404
10411042 1 18050847724757199195
10638233 991 17631442376973681764
10670039 82 18411985754023983539
11135609 187 18053392273963724781
11973863 73 17631183043044122522
12107183 9 17982742066570061090
13073987 5 18342458153422113322
13885169 127 18410855461093649290
14251752 14 18413388761511515122
14251764 75 17829604316912008209
14294032 229 17916301813794841652
14347329 18 18336272352385266609
14466204 15 18412266133921281608
14790565 3 18341325592495169924
15021287 119 17275380997905530956
15183329 4 18411700989392714874
15419008 42 17968651761125829590
15419008 47 18114465561295993633
155225 5 18265614466736114089
16079462 125 17749396945066741442
17844677 252 18340200787572950480
20567600 75 18040991843736840710
21033648 29 17967829219111917216
21236236 1 18411420613447441300
21279426 13 18261667186233228230
21315759 40 16988566745449123154
21315763 129 18338516335743152552
21315764 268 18042690498669967856
21859007 373 18261119582303417976
23522609 53 17631431463551771860
23559900 14 17749390326459081810
23569914 2 17173260569995315408
445580 37 18411971465153307660
5104073 3 18201440336798519578
5283173 99 18335419080175802408
531348 171 18114184163470665847
5372103 7 17057828453991691853
6327066 14 18198910399894271925
9995097 60 18260546723701896894

> <PUBCHEM_SHAPE_MULTIPOLES>
476.06
18.37
3.72
1.02
21.75
1.84
-0.04
5.91
0.81
-9.8
-0.23
0.31
0.28
1.17

> <PUBCHEM_SHAPE_SELFOVERLAP>
978.921

> <PUBCHEM_SHAPE_VOLUME>
275.5

> <PUBCHEM_COORDINATE_TYPE>
2
5
10

$$$$

