13116
  -OEChem-06261207462D

 45 48  0     1  0  0  0  0  0999 V2000
    7.1060    1.0385    0.0000 O   0  0  0  0  0  0  0  0  0  0  0  0
    6.1654   -1.0412    0.0000 O   0  0  0  0  0  0  0  0  0  0  0  0
    3.3768    2.8120    0.0000 O   0  0  0  0  0  0  0  0  0  0  0  0
    4.6338   -1.0453    0.0000 O   0  0  0  0  0  0  0  0  0  0  0  0
    7.7465   -1.7485    0.0000 O   0  0  0  0  0  0  0  0  0  0  0  0
    7.7756    2.9573    0.0000 N   0  0  3  0  0  0  0  0  0  0  0  0
    5.4879    2.2140    0.0000 N   0  0  3  0  0  0  0  0  0  0  0  0
    2.6327   -0.6379    0.0000 N   0  0  0  0  0  0  0  0  0  0  0  0
    6.3434   -2.7641    0.0000 N   0  0  0  0  0  0  0  0  0  0  0  0
    7.1060    2.2140    0.0000 C   0  0  1  0  0  0  0  0  0  0  0  0
    6.7970    3.1651    0.0000 C   0  0  2  0  0  0  0  0  0  0  0  0
    6.2970    1.6262    0.0000 C   0  0  1  0  0  0  0  0  0  0  0  0
    5.7970    3.1651    0.0000 C   0  0  0  0  0  0  0  0  0  0  0  0
    5.9873    0.6816    0.0000 C   0  0  1  0  0  0  0  0  0  0  0  0
    4.6852    1.6276    0.0000 C   0  0  0  0  0  0  0  0  0  0  0  0
    4.9932    0.6825    0.0000 C   0  0  0  0  0  0  0  0  0  0  0  0
    8.7266    3.2664    0.0000 C   0  0  0  0  0  0  0  0  0  0  0  0
    6.5737   -0.1284    0.0000 C   0  0  0  0  0  0  0  0  0  0  0  0
    3.6756    1.8576    0.0000 C   0  0  0  0  0  0  0  0  0  0  0  0
    4.3130   -0.0982    0.0000 C   0  0  0  0  0  0  0  0  0  0  0  0
    8.0195    1.4452    0.0000 C   0  0  0  0  0  0  0  0  0  0  0  0
    2.9775    1.0929    0.0000 C   0  0  0  0  0  0  0  0  0  0  0  0
    3.2984    0.1084    0.0000 C   0  0  0  0  0  0  0  0  0  0  0  0
    2.0000    1.3037    0.0000 C   0  0  0  0  0  0  0  0  0  0  0  0
    6.7518   -1.8513    0.0000 C   0  0  0  0  0  0  0  0  0  0  0  0
    7.6746    1.5823    0.0000 H   0  0  0  0  0  0  0  0  0  0  0  0
    6.8857    4.0104    0.0000 H   0  0  0  0  0  0  0  0  0  0  0  0
    5.8618    3.7817    0.0000 H   0  0  0  0  0  0  0  0  0  0  0  0
    5.1905    3.2940    0.0000 H   0  0  0  0  0  0  0  0  0  0  0  0
    6.5999    0.7773    0.0000 H   0  0  0  0  0  0  0  0  0  0  0  0
    8.9182    2.6767    0.0000 H   0  0  0  0  0  0  0  0  0  0  0  0
    9.3163    3.4579    0.0000 H   0  0  0  0  0  0  0  0  0  0  0  0
    8.5350    3.8560    0.0000 H   0  0  0  0  0  0  0  0  0  0  0  0
    7.0871   -0.4760    0.0000 H   0  0  0  0  0  0  0  0  0  0  0  0
    7.0052    0.3168    0.0000 H   0  0  0  0  0  0  0  0  0  0  0  0
    8.2717    0.8788    0.0000 H   0  0  0  0  0  0  0  0  0  0  0  0
    8.5859    1.6974    0.0000 H   0  0  0  0  0  0  0  0  0  0  0  0
    7.7673    2.0116    0.0000 H   0  0  0  0  0  0  0  0  0  0  0  0
    2.1307    1.9098    0.0000 H   0  0  0  0  0  0  0  0  0  0  0  0
    1.3939    1.4344    0.0000 H   0  0  0  0  0  0  0  0  0  0  0  0
    1.8693    0.6977    0.0000 H   0  0  0  0  0  0  0  0  0  0  0  0
    2.0257   -0.5119    0.0000 H   0  0  0  0  0  0  0  0  0  0  0  0
    2.8271   -1.2266    0.0000 H   0  0  0  0  0  0  0  0  0  0  0  0
    6.7070   -3.2664    0.0000 H   0  0  0  0  0  0  0  0  0  0  0  0
    5.7267   -2.8279    0.0000 H   0  0  0  0  0  0  0  0  0  0  0  0
 12  1  1  1  0  0  0
  1 21  1  0  0  0  0
  2 18  1  0  0  0  0
  2 25  1  0  0  0  0
  3 19  2  0  0  0  0
  4 20  2  0  0  0  0
  5 25  2  0  0  0  0
  6 10  1  0  0  0  0
  6 11  1  0  0  0  0
  6 17  1  0  0  0  0
  7 12  1  0  0  0  0
  7 13  1  0  0  0  0
  7 15  1  0  0  0  0
  8 23  1  0  0  0  0
  8 42  1  0  0  0  0
  8 43  1  0  0  0  0
  9 25  1  0  0  0  0
  9 44  1  0  0  0  0
  9 45  1  0  0  0  0
 10 11  1  0  0  0  0
 10 12  1  0  0  0  0
 10 26  1  1  0  0  0
 11 13  1  0  0  0  0
 11 27  1  1  0  0  0
 12 14  1  0  0  0  0
 13 28  1  0  0  0  0
 13 29  1  0  0  0  0
 14 16  1  0  0  0  0
 14 18  1  6  0  0  0
 14 30  1  0  0  0  0
 15 16  2  0  0  0  0
 15 19  1  0  0  0  0
 16 20  1  0  0  0  0
 17 31  1  0  0  0  0
 17 32  1  0  0  0  0
 17 33  1  0  0  0  0
 18 34  1  0  0  0  0
 18 35  1  0  0  0  0
 19 22  1  0  0  0  0
 20 23  1  0  0  0  0
 21 36  1  0  0  0  0
 21 37  1  0  0  0  0
 21 38  1  0  0  0  0
 22 23  2  0  0  0  0
 22 24  1  0  0  0  0
 24 39  1  0  0  0  0
 24 40  1  0  0  0  0
 24 41  1  0  0  0  0
M  END
> <PUBCHEM_COMPOUND_CID>
13116

> <PUBCHEM_COMPOUND_CANONICALIZED>
1

> <PUBCHEM_CACTVS_COMPLEXITY>
787

> <PUBCHEM_CACTVS_HBOND_ACCEPTOR>
8

> <PUBCHEM_CACTVS_HBOND_DONOR>
2

> <PUBCHEM_CACTVS_ROTATABLE_BOND>
4

> <PUBCHEM_CACTVS_SUBSKEYS>
AAADceB7uAAAAAAAAAAAAAAAFgAAAWIAAAAsQAAAAAAQAEAAAAAAHgAQAAAADSzhgAYCCANABACIAoRQWAAAAAAgAAAACAGIAEkCQBIAwCAdAAAHwACYAUO+2YOeAAAAAAAAAAAAAAAAAAAAAAAAAAAAAA==

> <PUBCHEM_IUPAC_INCHI>
InChI=1S/C16H20N4O5/c1-6-10(17)13(22)9-7(5-25-15(18)23)16(24-3)14-8(19(14)2)4-20(16)11(9)12(6)21/h7-8,14H,4-5,17H2,1-3H3,(H2,18,23)/t7-,8+,14+,16-,19?/m1/s1

> <PUBCHEM_IUPAC_INCHIKEY>
HRHKSTOGXBBQCB-VFWICMBZSA-N

> <PUBCHEM_XLOGP3>
-0.4

> <PUBCHEM_EXACT_MASS>
348.14337

> <PUBCHEM_MOLECULAR_FORMULA>
C16H20N4O5

> <PUBCHEM_MOLECULAR_WEIGHT>
348.3538

> <PUBCHEM_OPENEYE_CAN_SMILES>
CC1=C(C(=O)C2=C(C1=O)N3CC4C(C3(C2COC(=O)N)OC)N4C)N

> <PUBCHEM_OPENEYE_ISO_SMILES>
CC1=C(C(=O)C2=C(C1=O)N3C[C@H]4[C@@H]([C@@]3([C@@H]2COC(=O)N)OC)N4C)N

> <PUBCHEM_CACTVS_TPSA>
128

> <PUBCHEM_MONOISOTOPIC_WEIGHT>
348.14337

> <PUBCHEM_TOTAL_CHARGE>
0

> <PUBCHEM_HEAVY_ATOM_COUNT>
25

> <PUBCHEM_ATOM_DEF_STEREO_COUNT>
4

> <PUBCHEM_ATOM_UDEF_STEREO_COUNT>
0

> <PUBCHEM_BOND_DEF_STEREO_COUNT>
0

> <PUBCHEM_BOND_UDEF_STEREO_COUNT>
0

> <PUBCHEM_ISOTOPIC_ATOM_COUNT>
0

> <PUBCHEM_COMPONENT_COUNT>
1

> <PUBCHEM_CACTVS_TAUTO_COUNT>
42

> <PUBCHEM_COORDINATE_TYPE>
1
5
255

> <PUBCHEM_BONDANNOTATIONS>
12  1  5
10  26  5
11  27  5
14  18  6

$$$$

