17396058
  -OEChem-06241222543D

 45 48  0     0  0  0  0  0  0999 V2000
    1.1877   -0.0057   -3.2814 O   0  0  0  0  0  0  0  0  0  0  0  0
    2.2863    1.6244    2.1593 N   0  0  0  0  0  0  0  0  0  0  0  0
   -1.2575   -1.4105    0.0104 N   0  0  0  0  0  0  0  0  0  0  0  0
    0.0235    0.2268   -1.2474 N   0  0  0  0  0  0  0  0  0  0  0  0
   -1.6644   -2.6912   -0.0104 N   0  0  0  0  0  0  0  0  0  0  0  0
   -2.8760    1.3376    0.2536 N   0  0  0  0  0  0  0  0  0  0  0  0
    2.5127    1.7431   -0.0457 C   0  0  0  0  0  0  0  0  0  0  0  0
    2.5286    2.2652   -1.4273 C   0  0  0  0  0  0  0  0  0  0  0  0
    2.8381    0.4199    0.3643 C   0  0  0  0  0  0  0  0  0  0  0  0
    1.1946    2.1123   -2.1822 C   0  0  0  0  0  0  0  0  0  0  0  0
    2.6880    0.3722    1.7520 C   0  0  0  0  0  0  0  0  0  0  0  0
    2.1774    2.4597    1.0800 C   0  0  0  0  0  0  0  0  0  0  0  0
    3.2474   -0.7454   -0.3140 C   0  0  0  0  0  0  0  0  0  0  0  0
    0.7979    0.6500   -2.3198 C   0  0  0  0  0  0  0  0  0  0  0  0
    2.9276   -0.7872    2.4981 C   0  0  0  0  0  0  0  0  0  0  0  0
   -0.5020   -1.0547   -1.0681 C   0  0  0  0  0  0  0  0  0  0  0  0
   -1.6409   -0.5697    1.1212 C   0  0  0  0  0  0  0  0  0  0  0  0
    3.4906   -1.9124    0.4194 C   0  0  0  0  0  0  0  0  0  0  0  0
    3.3326   -1.9308    1.8037 C   0  0  0  0  0  0  0  0  0  0  0  0
   -0.4077   -2.1810   -1.8484 C   0  0  0  0  0  0  0  0  0  0  0  0
   -2.9468    0.1293    0.8559 C   0  0  0  0  0  0  0  0  0  0  0  0
   -1.1423   -3.1568   -1.1484 C   0  0  0  0  0  0  0  0  0  0  0  0
   -4.1322   -0.4818    1.2315 C   0  0  0  0  0  0  0  0  0  0  0  0
   -5.3215    0.1903    0.9722 C   0  0  0  0  0  0  0  0  0  0  0  0
   -4.0522    1.9608    0.0178 C   0  0  0  0  0  0  0  0  0  0  0  0
   -5.2894    1.4353    0.3540 C   0  0  0  0  0  0  0  0  0  0  0  0
    3.3209    1.7649   -1.9989 H   0  0  0  0  0  0  0  0  0  0  0  0
    2.7961    3.3296   -1.4136 H   0  0  0  0  0  0  0  0  0  0  0  0
    1.2862    2.5364   -3.1888 H   0  0  0  0  0  0  0  0  0  0  0  0
    0.3987    2.6690   -1.6729 H   0  0  0  0  0  0  0  0  0  0  0  0
    1.8700    3.4879    1.2114 H   0  0  0  0  0  0  0  0  0  0  0  0
    2.0983    1.8879    3.1167 H   0  0  0  0  0  0  0  0  0  0  0  0
    3.3807   -0.7502   -1.3918 H   0  0  0  0  0  0  0  0  0  0  0  0
    2.8043   -0.8026    3.5758 H   0  0  0  0  0  0  0  0  0  0  0  0
   -0.2045    0.9049   -0.5264 H   0  0  0  0  0  0  0  0  0  0  0  0
   -1.7066   -1.1981    2.0180 H   0  0  0  0  0  0  0  0  0  0  0  0
   -0.8432    0.1545    1.3163 H   0  0  0  0  0  0  0  0  0  0  0  0
    3.8067   -2.8140   -0.0986 H   0  0  0  0  0  0  0  0  0  0  0  0
    3.5265   -2.8483    2.3535 H   0  0  0  0  0  0  0  0  0  0  0  0
    0.1112   -2.2993   -2.7880 H   0  0  0  0  0  0  0  0  0  0  0  0
   -1.3186   -4.1877   -1.4198 H   0  0  0  0  0  0  0  0  0  0  0  0
   -4.1478   -1.4537    1.7130 H   0  0  0  0  0  0  0  0  0  0  0  0
   -6.2715   -0.2554    1.2511 H   0  0  0  0  0  0  0  0  0  0  0  0
   -3.9727    2.9285   -0.4664 H   0  0  0  0  0  0  0  0  0  0  0  0
   -6.2039    1.9773    0.1419 H   0  0  0  0  0  0  0  0  0  0  0  0
  1 14  2  0  0  0  0
  2 11  1  0  0  0  0
  2 12  1  0  0  0  0
  2 32  1  0  0  0  0
  3  5  1  0  0  0  0
  3 16  1  0  0  0  0
  3 17  1  0  0  0  0
  4 14  1  0  0  0  0
  4 16  1  0  0  0  0
  4 35  1  0  0  0  0
  5 22  2  0  0  0  0
  6 21  1  0  0  0  0
  6 25  2  0  0  0  0
  7  8  1  0  0  0  0
  7  9  1  0  0  0  0
  7 12  2  0  0  0  0
  8 10  1  0  0  0  0
  8 27  1  0  0  0  0
  8 28  1  0  0  0  0
  9 11  1  0  0  0  0
  9 13  2  0  0  0  0
 10 14  1  0  0  0  0
 10 29  1  0  0  0  0
 10 30  1  0  0  0  0
 11 15  2  0  0  0  0
 12 31  1  0  0  0  0
 13 18  1  0  0  0  0
 13 33  1  0  0  0  0
 15 19  1  0  0  0  0
 15 34  1  0  0  0  0
 16 20  2  0  0  0  0
 17 21  1  0  0  0  0
 17 36  1  0  0  0  0
 17 37  1  0  0  0  0
 18 19  2  0  0  0  0
 18 38  1  0  0  0  0
 19 39  1  0  0  0  0
 20 22  1  0  0  0  0
 20 40  1  0  0  0  0
 21 23  2  0  0  0  0
 22 41  1  0  0  0  0
 23 24  1  0  0  0  0
 23 42  1  0  0  0  0
 24 26  2  0  0  0  0
 24 43  1  0  0  0  0
 25 26  1  0  0  0  0
 25 44  1  0  0  0  0
 26 45  1  0  0  0  0
M  END
> <PUBCHEM_COMPOUND_CID>
17396058

> <PUBCHEM_CONFORMER_RMSD>
1.4

> <PUBCHEM_CONFORMER_DIVERSEORDER>
1
20
49
66
19
35
18
82
9
34
14
91
40
57
89
87
41
25
63
44
80
5
32
81
88
94
38
67
78
12
42
21
72
33
73
90
29
95
61
92
55
47
23
52
30
22
45
13
93
71
46
8
62
39
68
56
76
53
3
83
37
2
75
27
86
26
10
64
84
70
48
54
74
31
24
79
50
58
17
65
77
60
6
7
69
28
11
16
43
15
85
4
59
51
36

> <PUBCHEM_MMFF94_PARTIAL_CHARGES>
38
1 -0.57
10 0.06
11 -0.15
12 -0.3
13 -0.15
14 0.57
15 -0.15
16 -0.09
17 0.4
18 -0.15
19 -0.15
2 0.03
20 -0.15
21 0.17
22 0.14
23 -0.15
24 -0.15
25 0.16
26 -0.15
3 0.31
31 0.15
32 0.27
33 0.15
34 0.15
35 0.37
38 0.15
39 0.15
4 -0.49
40 0.15
41 0.15
42 0.15
43 0.15
44 0.15
45 0.15
5 -0.71
6 -0.62
7 -0.18
8 0.18

> <PUBCHEM_EFFECTIVE_ROTOR_COUNT>
7

> <PUBCHEM_PHARMACOPHORE_FEATURES>
10
1 1 acceptor
1 2 cation
1 2 donor
1 4 donor
1 5 acceptor
1 6 acceptor
5 2 7 9 11 12 rings
5 3 5 16 20 22 rings
6 6 21 23 24 25 26 rings
6 9 11 13 15 18 19 rings

> <PUBCHEM_HEAVY_ATOM_COUNT>
26

> <PUBCHEM_ATOM_DEF_STEREO_COUNT>
0

> <PUBCHEM_ATOM_UDEF_STEREO_COUNT>
0

> <PUBCHEM_BOND_DEF_STEREO_COUNT>
0

> <PUBCHEM_BOND_UDEF_STEREO_COUNT>
0

> <PUBCHEM_ISOTOPIC_ATOM_COUNT>
0

> <PUBCHEM_COMPONENT_COUNT>
1

> <PUBCHEM_CACTVS_TAUTO_COUNT>
4

> <PUBCHEM_CONFORMER_ID>
0109715A00000001

> <PUBCHEM_MMFF94_ENERGY>
47.1517

> <PUBCHEM_FEATURE_SELFOVERLAP>
50.835

> <PUBCHEM_SHAPE_FINGERPRINT>
10165383 225 13845308003851555554
10764073 3 17336766963838041729
11140007 195 18130506443511984440
11421498 54 17620468008992396698
11595378 159 18119803604550115255
12596599 1 16271924861958119745
12633257 1 18261127282683784138
12788726 201 17905611004091628371
13533116 47 17203032007885287819
13583140 156 17273126887710403589
13773456 73 18410564081879967963
14178342 30 17981613667239664754
14251764 3 18040714796776557249
14957384 54 17968938557192518048
15664445 248 11095869454610039687
17349148 13 17313101969073225073
17492 54 10807061899662830906
17921350 177 17968649398529922984
17974551 9 18341056237256955067
18981168 100 15069741873456627252
20567600 347 5905750160192343524
21033648 29 18189910866433123633
23559900 14 18266721640975098423
238 59 14129327447689364100
35225 105 17896039853844018567
445580 2 17415864606343276501
445580 42 16049330077350207450
474 4 17313100878119857129
5845 1 12646631985080949022
7097593 13 18059856112799314253
8509985 295 18337110158971268121

> <PUBCHEM_SHAPE_MULTIPOLES>
504.29
8.54
3.08
2.6
10.92
0.59
-0.97
-1.83
5.04
-0.87
-0.85
-1.98
-0.08
-1.18

> <PUBCHEM_SHAPE_SELFOVERLAP>
1106.642

> <PUBCHEM_SHAPE_VOLUME>
271.9

> <PUBCHEM_COORDINATE_TYPE>
2
5
10

$$$$

