11240
  -OEChem-06261205262D

 15 14  0     0  0  0  0  0  0999 V2000
    3.7320    0.7500    0.0000 C   0  0  0  0  0  0  0  0  0  0  0  0
    2.8660    0.2500    0.0000 C   0  0  0  0  0  0  0  0  0  0  0  0
    4.5981    0.2500    0.0000 C   0  0  0  0  0  0  0  0  0  0  0  0
    2.0000    0.7500    0.0000 C   0  0  0  0  0  0  0  0  0  0  0  0
    2.8660   -0.7500    0.0000 C   0  0  0  0  0  0  0  0  0  0  0  0
    4.1306    1.2250    0.0000 H   0  0  0  0  0  0  0  0  0  0  0  0
    3.3335    1.2250    0.0000 H   0  0  0  0  0  0  0  0  0  0  0  0
    4.2881   -0.2869    0.0000 H   0  0  0  0  0  0  0  0  0  0  0  0
    5.1350   -0.0600    0.0000 H   0  0  0  0  0  0  0  0  0  0  0  0
    4.9081    0.7869    0.0000 H   0  0  0  0  0  0  0  0  0  0  0  0
    2.3100    1.2869    0.0000 H   0  0  0  0  0  0  0  0  0  0  0  0
    1.4631    1.0600    0.0000 H   0  0  0  0  0  0  0  0  0  0  0  0
    1.6900    0.2131    0.0000 H   0  0  0  0  0  0  0  0  0  0  0  0
    2.3291   -1.0600    0.0000 H   0  0  0  0  0  0  0  0  0  0  0  0
    3.4030   -1.0600    0.0000 H   0  0  0  0  0  0  0  0  0  0  0  0
  1  2  1  0  0  0  0
  1  3  1  0  0  0  0
  1  6  1  0  0  0  0
  1  7  1  0  0  0  0
  2  4  1  0  0  0  0
  2  5  2  0  0  0  0
  3  8  1  0  0  0  0
  3  9  1  0  0  0  0
  3 10  1  0  0  0  0
  4 11  1  0  0  0  0
  4 12  1  0  0  0  0
  4 13  1  0  0  0  0
  5 14  1  0  0  0  0
  5 15  1  0  0  0  0
M  END
> <PUBCHEM_COMPOUND_CID>
11240

> <PUBCHEM_COMPOUND_CANONICALIZED>
1

> <PUBCHEM_CACTVS_COMPLEXITY>
35.3

> <PUBCHEM_CACTVS_HBOND_ACCEPTOR>
0

> <PUBCHEM_CACTVS_HBOND_DONOR>
0

> <PUBCHEM_CACTVS_ROTATABLE_BOND>
1

> <PUBCHEM_CACTVS_SUBSKEYS>
AAADccBgAAAAAAAAAAAAAAAAAAAAAAAAAAAAAAAAAAAAAAAAAAAAGAAAAAAADACAAAACAAAAAACAAgBCAAAAAAAgAAAAAAAAAAgAAAAAAQAAAAAAAAAAAAAAAAAAAAAAAAAAAAAAAAAAAAAAAAAAAAAAAA==

> <PUBCHEM_IUPAC_OPENEYE_NAME>
2-methylbut-1-ene

> <PUBCHEM_IUPAC_CAS_NAME>
2-methyl-1-butene

> <PUBCHEM_IUPAC_NAME>
2-methylbut-1-ene

> <PUBCHEM_IUPAC_SYSTEMATIC_NAME>
2-methylbut-1-ene

> <PUBCHEM_IUPAC_TRADITIONAL_NAME>
2-methylbut-1-ene

> <PUBCHEM_IUPAC_INCHI>
InChI=1S/C5H10/c1-4-5(2)3/h2,4H2,1,3H3

> <PUBCHEM_IUPAC_INCHIKEY>
MHNNAWXXUZQSNM-UHFFFAOYSA-N

> <PUBCHEM_XLOGP3_AA>
2.5

> <PUBCHEM_EXACT_MASS>
70.07825

> <PUBCHEM_MOLECULAR_FORMULA>
C5H10

> <PUBCHEM_MOLECULAR_WEIGHT>
70.1329

> <PUBCHEM_OPENEYE_CAN_SMILES>
CCC(=C)C

> <PUBCHEM_OPENEYE_ISO_SMILES>
CCC(=C)C

> <PUBCHEM_CACTVS_TPSA>
0

> <PUBCHEM_MONOISOTOPIC_WEIGHT>
70.07825

> <PUBCHEM_TOTAL_CHARGE>
0

> <PUBCHEM_HEAVY_ATOM_COUNT>
5

> <PUBCHEM_ATOM_DEF_STEREO_COUNT>
0

> <PUBCHEM_ATOM_UDEF_STEREO_COUNT>
0

> <PUBCHEM_BOND_DEF_STEREO_COUNT>
0

> <PUBCHEM_BOND_UDEF_STEREO_COUNT>
0

> <PUBCHEM_ISOTOPIC_ATOM_COUNT>
0

> <PUBCHEM_COMPONENT_COUNT>
1

> <PUBCHEM_CACTVS_TAUTO_COUNT>
1

> <PUBCHEM_COORDINATE_TYPE>
1
5
255

$$$$

