47205631
  -OEChem-06241222593D

 27 28  0     0  0  0  0  0  0999 V2000
   -4.6057    3.1380   -0.2870 Br  0  0  0  0  0  0  0  0  0  0  0  0
   -2.9671   -2.6218    0.3355 F   0  0  0  0  0  0  0  0  0  0  0  0
    1.7118   -1.5623   -0.6137 O   0  0  0  0  0  0  0  0  0  0  0  0
    2.4116    0.5287    0.1926 N   0  0  0  0  0  0  0  0  0  0  0  0
    5.9599    0.8625    0.2955 N   0  0  0  0  0  0  0  0  0  0  0  0
    5.9290   -0.3899   -0.1907 N   0  0  0  0  0  0  0  0  0  0  0  0
   -2.3652   -0.3640   -0.1058 C   0  0  0  0  0  0  0  0  0  0  0  0
    3.8240    0.4315    0.1437 C   0  0  0  0  0  0  0  0  0  0  0  0
   -0.9689   -0.7371   -0.2713 C   0  0  0  0  0  0  0  0  0  0  0  0
   -2.7484    0.9695   -0.2485 C   0  0  0  0  0  0  0  0  0  0  0  0
   -3.3199   -1.3356    0.1949 C   0  0  0  0  0  0  0  0  0  0  0  0
    0.0893    0.0504    0.0257 C   0  0  0  0  0  0  0  0  0  0  0  0
    1.4873   -0.4401   -0.1757 C   0  0  0  0  0  0  0  0  0  0  0  0
    4.7253    1.3999    0.5132 C   0  0  0  0  0  0  0  0  0  0  0  0
   -4.0861    1.3317   -0.0904 C   0  0  0  0  0  0  0  0  0  0  0  0
   -4.6577   -0.9736    0.3530 C   0  0  0  0  0  0  0  0  0  0  0  0
    4.6216   -0.6478   -0.2813 C   0  0  0  0  0  0  0  0  0  0  0  0
   -5.0408    0.3601    0.2105 C   0  0  0  0  0  0  0  0  0  0  0  0
   -0.8000   -1.7429   -0.6494 H   0  0  0  0  0  0  0  0  0  0  0  0
   -2.0218    1.7386   -0.5007 H   0  0  0  0  0  0  0  0  0  0  0  0
    2.0758    1.4235    0.5425 H   0  0  0  0  0  0  0  0  0  0  0  0
   -0.0408    1.0486    0.4311 H   0  0  0  0  0  0  0  0  0  0  0  0
    4.6048    2.4008    0.9031 H   0  0  0  0  0  0  0  0  0  0  0  0
   -5.4007   -1.7303    0.5870 H   0  0  0  0  0  0  0  0  0  0  0  0
    4.3190   -1.6154   -0.6548 H   0  0  0  0  0  0  0  0  0  0  0  0
   -6.0873    0.6253    0.3365 H   0  0  0  0  0  0  0  0  0  0  0  0
    6.8621    1.2928    0.4561 H   0  0  0  0  0  0  0  0  0  0  0  0
  1 15  1  0  0  0  0
  2 11  1  0  0  0  0
  3 13  2  0  0  0  0
  4  8  1  0  0  0  0
  4 13  1  0  0  0  0
  4 21  1  0  0  0  0
  5  6  1  0  0  0  0
  5 14  1  0  0  0  0
  5 27  1  0  0  0  0
  6 17  2  0  0  0  0
  7  9  1  0  0  0  0
  7 10  1  0  0  0  0
  7 11  2  0  0  0  0
  8 14  2  0  0  0  0
  8 17  1  0  0  0  0
  9 12  2  0  0  0  0
  9 19  1  0  0  0  0
 10 15  2  0  0  0  0
 10 20  1  0  0  0  0
 11 16  1  0  0  0  0
 12 13  1  0  0  0  0
 12 22  1  0  0  0  0
 14 23  1  0  0  0  0
 15 18  1  0  0  0  0
 16 18  2  0  0  0  0
 16 24  1  0  0  0  0
 17 25  1  0  0  0  0
 18 26  1  0  0  0  0
M  END
> <PUBCHEM_COMPOUND_CID>
47205631

> <PUBCHEM_CONFORMER_RMSD>
0.6

> <PUBCHEM_CONFORMER_DIVERSEORDER>
1
14
9
2
11
5
4
13
6
3
12
10
7
8

> <PUBCHEM_MMFF94_PARTIAL_CHARGES>
27
1 -0.11
10 -0.15
11 0.19
12 -0.14
13 0.62
14 -0.3
15 0.11
16 -0.15
17 0.14
18 -0.15
19 0.15
2 -0.19
20 0.15
21 0.37
22 0.15
23 0.15
24 0.15
25 0.15
26 0.15
27 0.27
3 -0.57
4 -0.49
5 0.3
6 -0.71
7 0.03
8 0.06
9 -0.18

> <PUBCHEM_EFFECTIVE_ROTOR_COUNT>
4

> <PUBCHEM_PHARMACOPHORE_FEATURES>
7
1 1 hydrophobe
1 3 acceptor
1 4 donor
1 5 donor
1 6 acceptor
5 5 6 8 14 17 rings
6 7 10 11 15 16 18 rings

> <PUBCHEM_HEAVY_ATOM_COUNT>
18

> <PUBCHEM_ATOM_DEF_STEREO_COUNT>
0

> <PUBCHEM_ATOM_UDEF_STEREO_COUNT>
0

> <PUBCHEM_BOND_DEF_STEREO_COUNT>
0

> <PUBCHEM_BOND_UDEF_STEREO_COUNT>
1

> <PUBCHEM_ISOTOPIC_ATOM_COUNT>
0

> <PUBCHEM_COMPONENT_COUNT>
1

> <PUBCHEM_CACTVS_TAUTO_COUNT>
4

> <PUBCHEM_CONFORMER_ID>
02D04CFF00000001

> <PUBCHEM_MMFF94_ENERGY>
35.2849

> <PUBCHEM_FEATURE_SELFOVERLAP>
35.52

> <PUBCHEM_SHAPE_FINGERPRINT>
10014705 185 18410294744080194789
10411042 1 17979916013456898195
10912923 1 17560805403324289592
11315181 36 17846215527354661061
12107183 9 17839190953812914906
12236239 1 17418094308260001518
12390115 104 18263633125982595873
12403259 415 18187089425397198000
12507560 40 18336824281679290399
13073987 5 18272653475662085611
13167823 11 18272374165686690522
13214271 11 18408325467035710767
13675066 3 18187929435169111822
13785724 45 17761778768857067090
14341114 176 18411132520152941760
14508225 48 18119825621116457871
14933364 13 18410570678723212348
15042514 8 18197773303044806571
15501527 16 18408882966813043089
15778101 99 18337669827907389041
16079462 125 17894643543265945768
17844677 252 18411693258251232440
19433438 28 18409450254208549952
19489759 90 18343021086268803673
20281389 69 18411702101515119976
20645477 56 18411980295563772393
20645477 70 17095795629057650422
21033648 29 18041012729767409320
21065198 48 18130796697649891707
21065198 57 18410575059194000994
21279426 13 18262514930956490366
21315763 129 18409731742302407260
21426921 1 18411420575494400951
21709351 56 18335989692113477204
220451 1 17632577163088848490
23402539 116 18343025462545202670
23536379 177 18413672422452233610
23557571 272 18408598175757570221
23559900 14 18045501077887114854
2916195 48 18261681376689064744
300161 21 18201728361457768659
3545911 37 18408601478650431759
4073 2 18131064897399941042
4214541 1 18411136935110160201
42788 4 18408603647788309786
441001 317 18410576210372129217
5104073 3 18200026386667948899
5283173 99 18337672017744637281
542803 24 17632574946526735116
6327066 14 18056768856797297805
77779 3 18411136922562959378
90127 26 18341323423352017312

> <PUBCHEM_SHAPE_MULTIPOLES>
348.29
14.88
2.27
0.68
14.97
0.84
-0.01
5.08
0.91
-3.69
-0.02
-0.01
0.03
0.99

> <PUBCHEM_SHAPE_SELFOVERLAP>
730.233

> <PUBCHEM_SHAPE_VOLUME>
199.4

> <PUBCHEM_COORDINATE_TYPE>
2
5
10

$$$$

