854173
  -OEChem-06241222472D

 29 31  0     0  0  0  0  0  0999 V2000
    8.2619    0.8544    0.0000 Cl  0  0  0  0  0  0  0  0  0  0  0  0
    8.2619   -2.6097    0.0000 Cl  0  0  0  0  0  0  0  0  0  0  0  0
    4.9889   -0.9008    0.0000 O   0  0  0  0  0  0  0  0  0  0  0  0
    4.9889    2.6097    0.0000 O   0  0  0  0  0  0  0  0  0  0  0  0
    5.2619    0.8544    0.0000 N   0  0  0  0  0  0  0  0  0  0  0  0
    6.2619    0.8544    0.0000 C   0  0  0  0  0  0  0  0  0  0  0  0
    3.7320    1.3544    0.0000 C   0  0  0  0  0  0  0  0  0  0  0  0
    3.7320    0.3544    0.0000 C   0  0  0  0  0  0  0  0  0  0  0  0
    4.6783    1.6592    0.0000 C   0  0  0  0  0  0  0  0  0  0  0  0
    4.6783    0.0497    0.0000 C   0  0  0  0  0  0  0  0  0  0  0  0
    6.7619   -0.0116    0.0000 C   0  0  0  0  0  0  0  0  0  0  0  0
    2.8660   -0.1456    0.0000 C   0  0  0  0  0  0  0  0  0  0  0  0
    2.8660    1.8544    0.0000 C   0  0  0  0  0  0  0  0  0  0  0  0
    7.7619   -0.0116    0.0000 C   0  0  0  0  0  0  0  0  0  0  0  0
    6.2619   -0.8776    0.0000 C   0  0  0  0  0  0  0  0  0  0  0  0
    2.0000    0.3544    0.0000 C   0  0  0  0  0  0  0  0  0  0  0  0
    2.0000    1.3544    0.0000 C   0  0  0  0  0  0  0  0  0  0  0  0
    8.2619   -0.8776    0.0000 C   0  0  0  0  0  0  0  0  0  0  0  0
    6.7619   -1.7436    0.0000 C   0  0  0  0  0  0  0  0  0  0  0  0
    7.7619   -1.7436    0.0000 C   0  0  0  0  0  0  0  0  0  0  0  0
    6.8445    1.0665    0.0000 H   0  0  0  0  0  0  0  0  0  0  0  0
    6.1542    1.4650    0.0000 H   0  0  0  0  0  0  0  0  0  0  0  0
    2.8660    2.4744    0.0000 H   0  0  0  0  0  0  0  0  0  0  0  0
    2.8660   -0.7656    0.0000 H   0  0  0  0  0  0  0  0  0  0  0  0
    5.6419   -0.8776    0.0000 H   0  0  0  0  0  0  0  0  0  0  0  0
    1.4631    1.6644    0.0000 H   0  0  0  0  0  0  0  0  0  0  0  0
    1.4631    0.0444    0.0000 H   0  0  0  0  0  0  0  0  0  0  0  0
    8.8819   -0.8776    0.0000 H   0  0  0  0  0  0  0  0  0  0  0  0
    6.4519   -2.2806    0.0000 H   0  0  0  0  0  0  0  0  0  0  0  0
  1 14  1  0  0  0  0
  2 20  1  0  0  0  0
  3 10  2  0  0  0  0
  4  9  2  0  0  0  0
  5  6  1  0  0  0  0
  5  9  1  0  0  0  0
  5 10  1  0  0  0  0
  6 11  1  0  0  0  0
  6 21  1  0  0  0  0
  6 22  1  0  0  0  0
  7  8  1  0  0  0  0
  7  9  1  0  0  0  0
  7 13  2  0  0  0  0
  8 10  1  0  0  0  0
  8 12  2  0  0  0  0
 11 14  2  0  0  0  0
 11 15  1  0  0  0  0
 12 16  1  0  0  0  0
 12 24  1  0  0  0  0
 13 17  1  0  0  0  0
 13 23  1  0  0  0  0
 14 18  1  0  0  0  0
 15 19  2  0  0  0  0
 15 25  1  0  0  0  0
 16 17  2  0  0  0  0
 16 27  1  0  0  0  0
 17 26  1  0  0  0  0
 18 20  2  0  0  0  0
 18 28  1  0  0  0  0
 19 20  1  0  0  0  0
 19 29  1  0  0  0  0
M  END
> <PUBCHEM_COMPOUND_CID>
854173

> <PUBCHEM_COMPOUND_CANONICALIZED>
1

> <PUBCHEM_CACTVS_COMPLEXITY>
391

> <PUBCHEM_CACTVS_HBOND_ACCEPTOR>
2

> <PUBCHEM_CACTVS_HBOND_DONOR>
0

> <PUBCHEM_CACTVS_ROTATABLE_BOND>
2

> <PUBCHEM_CACTVS_SUBSKEYS>
AAADccByMAAGAAAAAAAAAAAAAAAAAWAAAAAwYAAAAAAAAFgBQAAAHgIAAAAADALBmCQwAIMAAACIAiFSEACCAAAkBQAIiAEIBsgIIDKBlxGEIQhghiCIiYcdiICOhAAAAACRAAAIAAAAASIAAAAAAAAAAA==

> <PUBCHEM_IUPAC_OPENEYE_NAME>
2-[(2,4-dichlorophenyl)methyl]isoindoline-1,3-dione

> <PUBCHEM_IUPAC_CAS_NAME>
2-[(2,4-dichlorophenyl)methyl]isoindole-1,3-dione

> <PUBCHEM_IUPAC_NAME>
2-[(2,4-dichlorophenyl)methyl]isoindole-1,3-dione

> <PUBCHEM_IUPAC_SYSTEMATIC_NAME>
2-[(2,4-dichlorophenyl)methyl]isoindole-1,3-dione

> <PUBCHEM_IUPAC_TRADITIONAL_NAME>
2-(2,4-dichlorobenzyl)isoindoline-1,3-quinone

> <PUBCHEM_IUPAC_INCHI>
InChI=1S/C15H9Cl2NO2/c16-10-6-5-9(13(17)7-10)8-18-14(19)11-3-1-2-4-12(11)15(18)20/h1-7H,8H2

> <PUBCHEM_IUPAC_INCHIKEY>
UJUCVRVGCZLASM-UHFFFAOYSA-N

> <PUBCHEM_XLOGP3_AA>
3.6

> <PUBCHEM_EXACT_MASS>
305.001034

> <PUBCHEM_MOLECULAR_FORMULA>
C15H9Cl2NO2

> <PUBCHEM_MOLECULAR_WEIGHT>
306.14346

> <PUBCHEM_OPENEYE_CAN_SMILES>
C1=CC=C2C(=C1)C(=O)N(C2=O)CC3=C(C=C(C=C3)Cl)Cl

> <PUBCHEM_OPENEYE_ISO_SMILES>
C1=CC=C2C(=C1)C(=O)N(C2=O)CC3=C(C=C(C=C3)Cl)Cl

> <PUBCHEM_CACTVS_TPSA>
37.4

> <PUBCHEM_MONOISOTOPIC_WEIGHT>
305.001034

> <PUBCHEM_TOTAL_CHARGE>
0

> <PUBCHEM_HEAVY_ATOM_COUNT>
20

> <PUBCHEM_ATOM_DEF_STEREO_COUNT>
0

> <PUBCHEM_ATOM_UDEF_STEREO_COUNT>
0

> <PUBCHEM_BOND_DEF_STEREO_COUNT>
0

> <PUBCHEM_BOND_UDEF_STEREO_COUNT>
0

> <PUBCHEM_ISOTOPIC_ATOM_COUNT>
0

> <PUBCHEM_COMPONENT_COUNT>
1

> <PUBCHEM_CACTVS_TAUTO_COUNT>
1

> <PUBCHEM_COORDINATE_TYPE>
1
5
255

> <PUBCHEM_BONDANNOTATIONS>
11  14  8
11  15  8
12  16  8
13  17  8
14  18  8
15  19  8
16  17  8
18  20  8
19  20  8
7  13  8
7  8  8
8  12  8

$$$$

