17395354
  -OEChem-06241222493D

 44 45  0     0  0  0  0  0  0999 V2000
   -3.2645    0.2614    1.1280 S   0  0  0  0  0  0  0  0  0  0  0  0
   -4.3214   -0.6021    1.6216 O   0  0  0  0  0  0  0  0  0  0  0  0
   -2.6749    1.2465    2.0158 O   0  0  0  0  0  0  0  0  0  0  0  0
    1.1051   -3.2556   -0.7767 O   0  0  0  0  0  0  0  0  0  0  0  0
    4.3399   -0.1609   -0.2735 O   0  0  0  0  0  0  0  0  0  0  0  0
    1.4307    1.5342    0.8502 O   0  0  0  0  0  0  0  0  0  0  0  0
   -3.7854    1.0343   -0.3229 N   0  0  0  0  0  0  0  0  0  0  0  0
    1.6953   -0.6376    0.0489 N   0  0  0  0  0  0  0  0  0  0  0  0
   -4.6712    0.2682   -1.2361 C   0  0  0  0  0  0  0  0  0  0  0  0
   -2.7943    1.8523   -1.0671 C   0  0  0  0  0  0  0  0  0  0  0  0
   -1.9534   -0.7848    0.5595 C   0  0  0  0  0  0  0  0  0  0  0  0
   -0.6436   -0.3062    0.5251 C   0  0  0  0  0  0  0  0  0  0  0  0
   -2.2310   -2.0878    0.1458 C   0  0  0  0  0  0  0  0  0  0  0  0
    0.3886   -1.1306    0.0774 C   0  0  0  0  0  0  0  0  0  0  0  0
   -6.1196    0.4934   -0.8518 C   0  0  0  0  0  0  0  0  0  0  0  0
   -3.5055    2.9600   -1.8174 C   0  0  0  0  0  0  0  0  0  0  0  0
    0.1110   -2.4337   -0.3360 C   0  0  0  0  0  0  0  0  0  0  0  0
   -1.1988   -2.9124   -0.3021 C   0  0  0  0  0  0  0  0  0  0  0  0
    2.1575    0.6389    0.4247 C   0  0  0  0  0  0  0  0  0  0  0  0
    3.6012    0.8606    0.2342 C   0  0  0  0  0  0  0  0  0  0  0  0
    4.3962    1.9553    0.4817 C   0  0  0  0  0  0  0  0  0  0  0  0
    5.6205    0.2865   -0.3507 C   0  0  0  0  0  0  0  0  0  0  0  0
    5.7075    1.5824    0.1020 C   0  0  0  0  0  0  0  0  0  0  0  0
    6.6100   -0.6624   -0.8806 C   0  0  0  0  0  0  0  0  0  0  0  0
   -4.5217    0.5321   -2.2867 H   0  0  0  0  0  0  0  0  0  0  0  0
   -4.4412   -0.7999   -1.1765 H   0  0  0  0  0  0  0  0  0  0  0  0
   -2.0933    2.3152   -0.3648 H   0  0  0  0  0  0  0  0  0  0  0  0
   -2.2204    1.2260   -1.7584 H   0  0  0  0  0  0  0  0  0  0  0  0
   -0.4985    0.7104    0.8527 H   0  0  0  0  0  0  0  0  0  0  0  0
   -3.2428   -2.4821    0.1642 H   0  0  0  0  0  0  0  0  0  0  0  0
   -6.3300    0.1681    0.1708 H   0  0  0  0  0  0  0  0  0  0  0  0
   -6.3803    1.5547   -0.9224 H   0  0  0  0  0  0  0  0  0  0  0  0
   -6.7805   -0.0634   -1.5236 H   0  0  0  0  0  0  0  0  0  0  0  0
   -4.1326    2.5906   -2.6332 H   0  0  0  0  0  0  0  0  0  0  0  0
   -4.1424    3.5445   -1.1445 H   0  0  0  0  0  0  0  0  0  0  0  0
   -2.7705    3.6406   -2.2600 H   0  0  0  0  0  0  0  0  0  0  0  0
   -1.4297   -3.9252   -0.6213 H   0  0  0  0  0  0  0  0  0  0  0  0
    2.3950   -1.2926   -0.2946 H   0  0  0  0  0  0  0  0  0  0  0  0
    0.7221   -4.1161   -1.0191 H   0  0  0  0  0  0  0  0  0  0  0  0
    4.0756    2.9052    0.8854 H   0  0  0  0  0  0  0  0  0  0  0  0
    6.6027    2.1856    0.1528 H   0  0  0  0  0  0  0  0  0  0  0  0
    6.6536   -1.5606   -0.2568 H   0  0  0  0  0  0  0  0  0  0  0  0
    6.3469   -0.9631   -1.8994 H   0  0  0  0  0  0  0  0  0  0  0  0
    7.6098   -0.2181   -0.9056 H   0  0  0  0  0  0  0  0  0  0  0  0
  1  2  2  0  0  0  0
  1  3  2  0  0  0  0
  1  7  1  0  0  0  0
  1 11  1  0  0  0  0
  4 17  1  0  0  0  0
  4 39  1  0  0  0  0
  5 20  1  0  0  0  0
  5 22  1  0  0  0  0
  6 19  2  0  0  0  0
  7  9  1  0  0  0  0
  7 10  1  0  0  0  0
  8 14  1  0  0  0  0
  8 19  1  0  0  0  0
  8 38  1  0  0  0  0
  9 15  1  0  0  0  0
  9 25  1  0  0  0  0
  9 26  1  0  0  0  0
 10 16  1  0  0  0  0
 10 27  1  0  0  0  0
 10 28  1  0  0  0  0
 11 12  2  0  0  0  0
 11 13  1  0  0  0  0
 12 14  1  0  0  0  0
 12 29  1  0  0  0  0
 13 18  2  0  0  0  0
 13 30  1  0  0  0  0
 14 17  2  0  0  0  0
 15 31  1  0  0  0  0
 15 32  1  0  0  0  0
 15 33  1  0  0  0  0
 16 34  1  0  0  0  0
 16 35  1  0  0  0  0
 16 36  1  0  0  0  0
 17 18  1  0  0  0  0
 18 37  1  0  0  0  0
 19 20  1  0  0  0  0
 20 21  2  0  0  0  0
 21 23  1  0  0  0  0
 21 40  1  0  0  0  0
 22 23  2  0  0  0  0
 22 24  1  0  0  0  0
 23 41  1  0  0  0  0
 24 42  1  0  0  0  0
 24 43  1  0  0  0  0
 24 44  1  0  0  0  0
M  END
> <PUBCHEM_COMPOUND_CID>
17395354

> <PUBCHEM_CONFORMER_RMSD>
0.8

> <PUBCHEM_CONFORMER_DIVERSEORDER>
2
72
68
69
31
65
19
71
5
59
53
28
27
63
81
70
58
4
42
52
49
15
30
20
67
22
3
62
75
40
78
16
23
34
77
51
37
10
17
6
24
64
80
50
38
35
26
13
74
11
12
39
61
25
32
56
33
60
9
14
79
21
36
54
8
46
76
55
45
43
73
29
48
41
1
18
66
57
7
47
44

> <PUBCHEM_MMFF94_PARTIAL_CHARGES>
29
1 1.45
10 0.36
11 -0.01
12 -0.15
13 -0.15
14 0.12
17 0.08
18 -0.15
19 0.71
2 -0.65
20 0.05
21 -0.15
22 -0.04
23 -0.15
24 0.18
29 0.15
3 -0.65
30 0.15
37 0.15
38 0.37
39 0.45
4 -0.53
40 0.15
41 0.15
5 -0.28
6 -0.57
7 -0.85
8 -0.55
9 0.36

> <PUBCHEM_EFFECTIVE_ROTOR_COUNT>
7

> <PUBCHEM_PHARMACOPHORE_FEATURES>
8
1 2 acceptor
1 3 acceptor
1 4 donor
1 5 acceptor
1 6 acceptor
1 8 donor
5 5 20 21 22 23 rings
6 11 12 13 14 17 18 rings

> <PUBCHEM_HEAVY_ATOM_COUNT>
24

> <PUBCHEM_ATOM_DEF_STEREO_COUNT>
0

> <PUBCHEM_ATOM_UDEF_STEREO_COUNT>
0

> <PUBCHEM_BOND_DEF_STEREO_COUNT>
0

> <PUBCHEM_BOND_UDEF_STEREO_COUNT>
0

> <PUBCHEM_ISOTOPIC_ATOM_COUNT>
0

> <PUBCHEM_COMPONENT_COUNT>
1

> <PUBCHEM_CACTVS_TAUTO_COUNT>
6

> <PUBCHEM_CONFORMER_ID>
01096E9A00000002

> <PUBCHEM_MMFF94_ENERGY>
37.1342

> <PUBCHEM_FEATURE_SELFOVERLAP>
40.617

> <PUBCHEM_SHAPE_FINGERPRINT>
105312 117 18342746233973518700
10591671 39 18060418006528235303
10835480 77 18041843888514371544
12011746 2 18342182167545111917
12596602 18 15984817095710356756
13402501 40 18413394241399603485
13583140 156 17846494816134970497
14251752 14 18131348640419596278
14251764 38 18054801846994060329
15042514 8 17903630783244120843
15183329 4 18334009510985869374
15196674 1 18188483563608185178
15527383 91 11815894565533171055
17349148 13 17603297168367203728
17492 54 18196964148459332703
20645477 56 18410571756290303858
21033648 144 18115312164059568776
21033648 29 18338248106230117328
21344244 246 17895473734400737334
21521239 73 17603874402801798030
21859007 373 18269292278103071104
23402539 116 17095517413892512768
23559900 14 17967808307417299648
2838139 119 18201452397050836085
335352 9 18334007303668202134
350125 39 18191016803295011971
4015057 19 17531251608843749688
4214541 1 18261668161206342778
4371632 12 15000533032378969304
9981440 41 17703792574259075153

> <PUBCHEM_SHAPE_MULTIPOLES>
458.45
13.83
2.98
1.32
13.13
1.1
-0.19
-6.58
3.03
-1.16
1.08
-1.56
-0.52
1.79

> <PUBCHEM_SHAPE_SELFOVERLAP>
946.117

> <PUBCHEM_SHAPE_VOLUME>
264.1

> <PUBCHEM_COORDINATE_TYPE>
2
5
10

$$$$

