13872
  -OEChem-06241222403D

 20 21  0     0  0  0  0  0  0999 V2000
    2.9008   -0.0979   -0.0001 O   0  0  0  0  0  0  0  0  0  0  0  0
   -2.5607   -0.5758   -0.0001 N   0  0  0  0  0  0  0  0  0  0  0  0
   -0.6908    0.6411    0.0001 C   0  0  0  0  0  0  0  0  0  0  0  0
   -1.1869   -0.6644    0.0000 C   0  0  0  0  0  0  0  0  0  0  0  0
    0.7046    0.8363    0.0001 C   0  0  0  0  0  0  0  0  0  0  0  0
   -1.8142    1.5146    0.0000 C   0  0  0  0  0  0  0  0  0  0  0  0
   -0.3539   -1.7888    0.0001 C   0  0  0  0  0  0  0  0  0  0  0  0
    1.5500   -0.2791    0.0000 C   0  0  0  0  0  0  0  0  0  0  0  0
   -2.9493    0.7371   -0.0001 C   0  0  0  0  0  0  0  0  0  0  0  0
    1.0267   -1.5705    0.0000 C   0  0  0  0  0  0  0  0  0  0  0  0
    3.3737    1.2474   -0.0001 C   0  0  0  0  0  0  0  0  0  0  0  0
    1.0529    1.8620    0.0002 H   0  0  0  0  0  0  0  0  0  0  0  0
   -1.7954    2.5958    0.0001 H   0  0  0  0  0  0  0  0  0  0  0  0
   -0.7603   -2.7947    0.0000 H   0  0  0  0  0  0  0  0  0  0  0  0
   -3.1906   -1.3660   -0.0002 H   0  0  0  0  0  0  0  0  0  0  0  0
    1.6968   -2.4272    0.0000 H   0  0  0  0  0  0  0  0  0  0  0  0
   -3.9974    1.0010   -0.0002 H   0  0  0  0  0  0  0  0  0  0  0  0
    4.4678    1.2048   -0.0003 H   0  0  0  0  0  0  0  0  0  0  0  0
    3.0761    1.7797    0.9098 H   0  0  0  0  0  0  0  0  0  0  0  0
    3.0759    1.7796   -0.9099 H   0  0  0  0  0  0  0  0  0  0  0  0
  1  8  1  0  0  0  0
  1 11  1  0  0  0  0
  2  4  1  0  0  0  0
  2  9  1  0  0  0  0
  2 15  1  0  0  0  0
  3  4  2  0  0  0  0
  3  5  1  0  0  0  0
  3  6  1  0  0  0  0
  4  7  1  0  0  0  0
  5  8  2  0  0  0  0
  5 12  1  0  0  0  0
  6  9  2  0  0  0  0
  6 13  1  0  0  0  0
  7 10  2  0  0  0  0
  7 14  1  0  0  0  0
  8 10  1  0  0  0  0
  9 17  1  0  0  0  0
 10 16  1  0  0  0  0
 11 18  1  0  0  0  0
 11 19  1  0  0  0  0
 11 20  1  0  0  0  0
M  END
> <PUBCHEM_COMPOUND_CID>
13872

> <PUBCHEM_CONFORMER_RMSD>
0.4

> <PUBCHEM_CONFORMER_DIVERSEORDER>
1
2

> <PUBCHEM_MMFF94_PARTIAL_CHARGES>
16
1 -0.36
10 -0.15
11 0.28
12 0.15
13 0.15
14 0.15
15 0.27
16 0.15
17 0.15
2 0.03
4 -0.15
5 -0.15
6 -0.15
7 -0.15
8 0.08
9 -0.3

> <PUBCHEM_EFFECTIVE_ROTOR_COUNT>
1

> <PUBCHEM_PHARMACOPHORE_FEATURES>
5
1 1 acceptor
1 2 cation
1 2 donor
5 2 3 4 6 9 rings
6 3 4 5 7 8 10 rings

> <PUBCHEM_HEAVY_ATOM_COUNT>
11

> <PUBCHEM_ATOM_DEF_STEREO_COUNT>
0

> <PUBCHEM_ATOM_UDEF_STEREO_COUNT>
0

> <PUBCHEM_BOND_DEF_STEREO_COUNT>
0

> <PUBCHEM_BOND_UDEF_STEREO_COUNT>
0

> <PUBCHEM_ISOTOPIC_ATOM_COUNT>
0

> <PUBCHEM_COMPONENT_COUNT>
1

> <PUBCHEM_CACTVS_TAUTO_COUNT>
1

> <PUBCHEM_CONFORMER_ID>
0000363000000001

> <PUBCHEM_MMFF94_ENERGY>
28.8335

> <PUBCHEM_FEATURE_SELFOVERLAP>
25.463

> <PUBCHEM_SHAPE_FINGERPRINT>
12897270 3 18410012173417214821
13024252 1 12967142591972805551
13380535 76 18411140242288063442
14325111 11 18410855473187279908
15775835 57 18408600374664677065
16945 1 18410856538265316295
193761 8 17617941773726745220
20871998 184 18116707409406722335
21028194 46 18411979174181552340
21040471 1 18410573998094570178
23235685 24 18411142436979207553
23402655 69 18264223572554010493
23463225 33 18270686479873034594
23552423 10 18196653114721280647
23559900 14 18259980458645893100
241688 4 16391269547386995507
2748010 2 18267581484431407143
369184 2 16559037090244144673
5084963 1 18187082853680113689
528886 8 18410580599522471385
53812653 166 18334017189585658544
6333449 129 18335986350618156484
7364860 26 18191306189849654734

> <PUBCHEM_SHAPE_MULTIPOLES>
215.52
4.45
1.74
0.6
1.55
0.36
0
-1.81
0
0.06
0
-0.01
-0.01
0

> <PUBCHEM_SHAPE_SELFOVERLAP>
470.736

> <PUBCHEM_SHAPE_VOLUME>
119.2

> <PUBCHEM_COORDINATE_TYPE>
2
5
10

$$$$

