5254
  -OEChem-06261200362D

 52 56  0     1  0  0  0  0  0999 V2000
    8.0628   -0.4910    0.0000 O   0  0  0  0  0  0  0  0  0  0  0  0
    4.9867    1.2530    0.0000 O   0  0  0  0  0  0  0  0  0  0  0  0
    5.0145   -2.2830    0.0000 O   0  0  0  0  0  0  0  0  0  0  0  0
    6.5182   -3.1432    0.0000 O   0  0  0  0  0  0  0  0  0  0  0  0
    3.4762   -3.1590    0.0000 O   0  0  0  0  0  0  0  0  0  0  0  0
    8.0698   -2.2911    0.0000 C   0  0  3  0  0  0  0  0  0  0  0  0
    8.5906   -1.3890    0.0000 C   0  0  3  0  0  0  0  0  0  0  0  0
    6.5214   -1.3730    0.0000 C   0  0  0  0  0  0  0  0  0  0  0  0
    7.0214   -0.5070    0.0000 C   0  0  0  0  0  0  0  0  0  0  0  0
    6.5214    0.3590    0.0000 C   0  0  0  0  0  0  0  0  0  0  0  0
    5.5214    0.3590    0.0000 C   0  0  0  0  0  0  0  0  0  0  0  0
    7.0282   -2.2830    0.0000 C   0  0  0  0  0  0  0  0  0  0  0  0
    5.5005    2.1590    0.0000 C   0  0  0  0  0  0  0  0  0  0  0  0
    5.0214   -0.5070    0.0000 C   0  0  0  0  0  0  0  0  0  0  0  0
    5.5214   -1.3730    0.0000 C   0  0  0  0  0  0  0  0  0  0  0  0
    8.5664   -3.1590    0.0000 C   0  0  0  0  0  0  0  0  0  0  0  0
    7.0560    1.2530    0.0000 C   0  0  0  0  0  0  0  0  0  0  0  0
    6.5422    2.1590    0.0000 C   0  0  0  0  0  0  0  0  0  0  0  0
    9.5906   -1.3851    0.0000 C   0  0  0  0  0  0  0  0  0  0  0  0
    3.9798   -0.4910    0.0000 C   0  0  0  0  0  0  0  0  0  0  0  0
    5.4967    3.1590    0.0000 C   0  0  0  0  0  0  0  0  0  0  0  0
    4.6326    2.6557    0.0000 C   0  0  0  0  0  0  0  0  0  0  0  0
    3.4521   -1.3890    0.0000 C   0  0  0  0  0  0  0  0  0  0  0  0
    3.4899    0.3808    0.0000 C   0  0  0  0  0  0  0  0  0  0  0  0
    3.9729   -2.2911    0.0000 C   0  0  0  0  0  0  0  0  0  0  0  0
    3.9999    1.2410    0.0000 C   0  0  0  0  0  0  0  0  0  0  0  0
    2.4900    0.3924    0.0000 C   0  0  0  0  0  0  0  0  0  0  0  0
    3.5099    2.1127    0.0000 C   0  0  0  0  0  0  0  0  0  0  0  0
    2.0000    1.2641    0.0000 C   0  0  0  0  0  0  0  0  0  0  0  0
    2.5100    2.1243    0.0000 C   0  0  0  0  0  0  0  0  0  0  0  0
    8.9198   -2.2927    0.0000 H   0  0  0  0  0  0  0  0  0  0  0  0
    9.0113   -0.6504    0.0000 H   0  0  0  0  0  0  0  0  0  0  0  0
    8.0283   -3.4669    0.0000 H   0  0  0  0  0  0  0  0  0  0  0  0
    8.8744   -3.6971    0.0000 H   0  0  0  0  0  0  0  0  0  0  0  0
    9.1046   -2.8511    0.0000 H   0  0  0  0  0  0  0  0  0  0  0  0
    7.6760    1.2458    0.0000 H   0  0  0  0  0  0  0  0  0  0  0  0
    6.8542    2.6948    0.0000 H   0  0  0  0  0  0  0  0  0  0  0  0
    9.5930   -2.0051    0.0000 H   0  0  0  0  0  0  0  0  0  0  0  0
   10.2106   -1.3828    0.0000 H   0  0  0  0  0  0  0  0  0  0  0  0
    9.5882   -0.7651    0.0000 H   0  0  0  0  0  0  0  0  0  0  0  0
    6.1167    3.1614    0.0000 H   0  0  0  0  0  0  0  0  0  0  0  0
    5.4943    3.7790    0.0000 H   0  0  0  0  0  0  0  0  0  0  0  0
    4.8767    3.1566    0.0000 H   0  0  0  0  0  0  0  0  0  0  0  0
    4.9405    3.1938    0.0000 H   0  0  0  0  0  0  0  0  0  0  0  0
    4.0945    2.9636    0.0000 H   0  0  0  0  0  0  0  0  0  0  0  0
    4.3247    2.1176    0.0000 H   0  0  0  0  0  0  0  0  0  0  0  0
    2.8321   -1.3866    0.0000 H   0  0  0  0  0  0  0  0  0  0  0  0
    4.6198    1.2338    0.0000 H   0  0  0  0  0  0  0  0  0  0  0  0
    2.1738   -0.1410    0.0000 H   0  0  0  0  0  0  0  0  0  0  0  0
    3.8261    2.6460    0.0000 H   0  0  0  0  0  0  0  0  0  0  0  0
    1.3800    1.2713    0.0000 H   0  0  0  0  0  0  0  0  0  0  0  0
    2.2062    2.6648    0.0000 H   0  0  0  0  0  0  0  0  0  0  0  0
  1  7  1  0  0  0  0
  1  9  1  0  0  0  0
  2 11  1  0  0  0  0
  2 13  1  0  0  0  0
  3 15  1  0  0  0  0
  3 25  1  0  0  0  0
  4 12  2  0  0  0  0
  5 25  2  0  0  0  0
  6  7  1  0  0  0  0
  6 12  1  0  0  0  0
  6 16  1  0  0  0  0
  6 31  1  0  0  0  0
  7 19  1  0  0  0  0
  7 32  1  0  0  0  0
  8  9  2  0  0  0  0
  8 12  1  0  0  0  0
  8 15  1  0  0  0  0
  9 10  1  0  0  0  0
 10 11  2  0  0  0  0
 10 17  1  0  0  0  0
 11 14  1  0  0  0  0
 13 18  1  0  0  0  0
 13 21  1  0  0  0  0
 13 22  1  0  0  0  0
 14 15  2  0  0  0  0
 14 20  1  0  0  0  0
 16 33  1  0  0  0  0
 16 34  1  0  0  0  0
 16 35  1  0  0  0  0
 17 18  2  0  0  0  0
 17 36  1  0  0  0  0
 18 37  1  0  0  0  0
 19 38  1  0  0  0  0
 19 39  1  0  0  0  0
 19 40  1  0  0  0  0
 20 23  2  0  0  0  0
 20 24  1  0  0  0  0
 21 41  1  0  0  0  0
 21 42  1  0  0  0  0
 21 43  1  0  0  0  0
 22 44  1  0  0  0  0
 22 45  1  0  0  0  0
 22 46  1  0  0  0  0
 23 25  1  0  0  0  0
 23 47  1  0  0  0  0
 24 26  2  0  0  0  0
 24 27  1  0  0  0  0
 26 28  1  0  0  0  0
 26 48  1  0  0  0  0
 27 29  2  0  0  0  0
 27 49  1  0  0  0  0
 28 30  2  0  0  0  0
 28 50  1  0  0  0  0
 29 30  1  0  0  0  0
 29 51  1  0  0  0  0
 30 52  1  0  0  0  0
M  END
> <PUBCHEM_COMPOUND_CID>
5254

> <PUBCHEM_COMPOUND_CANONICALIZED>
1

> <PUBCHEM_CACTVS_COMPLEXITY>
789

> <PUBCHEM_CACTVS_HBOND_ACCEPTOR>
5

> <PUBCHEM_CACTVS_HBOND_DONOR>
0

> <PUBCHEM_CACTVS_ROTATABLE_BOND>
1

> <PUBCHEM_CACTVS_SUBSKEYS>
AAADceB4OAAAAAAAAAAAAAAAAAAAAAAAAAA0YIECAAAAAACRQAAAGgAAAAAADVSgmAIyDoAABACIAqDSCAACCAAkIAAIiAEECMgMJzaENRqCO2Cl4BUIqQeI7OzOIAACCAAIAABAAAQQABAAAAAAAAAAAA==

> <PUBCHEM_IUPAC_INCHI>
InChI=1S/C25H22O5/c1-13-14(2)28-22-16-10-11-25(3,4)30-23(16)19-17(15-8-6-5-7-9-15)12-18(26)29-24(19)20(22)21(13)27/h5-14H,1-4H3

> <PUBCHEM_IUPAC_INCHIKEY>
YRHQANFINIANSK-UHFFFAOYSA-N

> <PUBCHEM_XLOGP3_AA>
4.5

> <PUBCHEM_EXACT_MASS>
402.146724

> <PUBCHEM_MOLECULAR_FORMULA>
C25H22O5

> <PUBCHEM_MOLECULAR_WEIGHT>
402.43918

> <PUBCHEM_OPENEYE_CAN_SMILES>
CC1C(OC2=C(C1=O)C3=C(C(=CC(=O)O3)C4=CC=CC=C4)C5=C2C=CC(O5)(C)C)C

> <PUBCHEM_OPENEYE_ISO_SMILES>
CC1C(OC2=C(C1=O)C3=C(C(=CC(=O)O3)C4=CC=CC=C4)C5=C2C=CC(O5)(C)C)C

> <PUBCHEM_CACTVS_TPSA>
61.8

> <PUBCHEM_MONOISOTOPIC_WEIGHT>
402.146724

> <PUBCHEM_TOTAL_CHARGE>
0

> <PUBCHEM_HEAVY_ATOM_COUNT>
30

> <PUBCHEM_ATOM_DEF_STEREO_COUNT>
0

> <PUBCHEM_ATOM_UDEF_STEREO_COUNT>
2

> <PUBCHEM_BOND_DEF_STEREO_COUNT>
0

> <PUBCHEM_BOND_UDEF_STEREO_COUNT>
0

> <PUBCHEM_ISOTOPIC_ATOM_COUNT>
0

> <PUBCHEM_COMPONENT_COUNT>
1

> <PUBCHEM_CACTVS_TAUTO_COUNT>
2

> <PUBCHEM_COORDINATE_TYPE>
1
5
255

> <PUBCHEM_BONDANNOTATIONS>
10  11  8
11  14  8
14  15  8
14  20  8
20  23  8
23  25  8
24  26  8
24  27  8
26  28  8
27  29  8
28  30  8
29  30  8
3  15  8
3  25  8
6  31  3
7  32  3
8  15  8
8  9  8
9  10  8

$$$$

