17396487
  -OEChem-06241222573D

 35 37  0     0  0  0  0  0  0999 V2000
    1.0303    0.3367    0.6283 O   0  0  0  0  0  0  0  0  0  0  0  0
   -4.3186    0.8577    0.6797 O   0  0  0  0  0  0  0  0  0  0  0  0
   -0.3886   -2.8328   -0.0989 O   0  0  0  0  0  0  0  0  0  0  0  0
   -1.3118   -0.9746    0.9063 N   0  0  0  0  0  0  0  0  0  0  0  0
    2.1960   -1.2919   -0.3974 C   0  0  0  0  0  0  0  0  0  0  0  0
    3.0504   -0.1677   -0.2484 C   0  0  0  0  0  0  0  0  0  0  0  0
    0.9853   -0.9339    0.1494 C   0  0  0  0  0  0  0  0  0  0  0  0
    2.2869    0.8060    0.3874 C   0  0  0  0  0  0  0  0  0  0  0  0
   -2.6069   -1.5715    1.1417 C   0  0  0  0  0  0  0  0  0  0  0  0
   -3.5446   -1.3313   -0.0415 C   0  0  0  0  0  0  0  0  0  0  0  0
   -0.2399   -1.6469    0.2838 C   0  0  0  0  0  0  0  0  0  0  0  0
    4.3829    0.1342   -0.5798 C   0  0  0  0  0  0  0  0  0  0  0  0
    2.5386   -2.5870   -1.0168 C   0  0  0  0  0  0  0  0  0  0  0  0
   -3.7811    0.1238   -0.3295 C   0  0  0  0  0  0  0  0  0  0  0  0
    2.7584    2.0743    0.7211 C   0  0  0  0  0  0  0  0  0  0  0  0
    4.8855    1.4021   -0.2571 C   0  0  0  0  0  0  0  0  0  0  0  0
    4.0857    2.3531    0.3817 C   0  0  0  0  0  0  0  0  0  0  0  0
   -3.5648    0.9107   -1.4368 C   0  0  0  0  0  0  0  0  0  0  0  0
   -3.9971    2.2117   -1.0852 C   0  0  0  0  0  0  0  0  0  0  0  0
   -4.4468    2.1271    0.2119 C   0  0  0  0  0  0  0  0  0  0  0  0
   -3.0071   -1.1244    2.0579 H   0  0  0  0  0  0  0  0  0  0  0  0
   -2.4865   -2.6466    1.3112 H   0  0  0  0  0  0  0  0  0  0  0  0
   -3.1353   -1.8086   -0.9406 H   0  0  0  0  0  0  0  0  0  0  0  0
   -4.5108   -1.8078    0.1618 H   0  0  0  0  0  0  0  0  0  0  0  0
   -1.1708   -0.0159    1.2129 H   0  0  0  0  0  0  0  0  0  0  0  0
    5.0200   -0.5915   -1.0763 H   0  0  0  0  0  0  0  0  0  0  0  0
    2.4309   -3.4013   -0.2926 H   0  0  0  0  0  0  0  0  0  0  0  0
    1.8822   -2.7931   -1.8686 H   0  0  0  0  0  0  0  0  0  0  0  0
    3.5697   -2.6051   -1.3830 H   0  0  0  0  0  0  0  0  0  0  0  0
    2.1320    2.8065    1.2165 H   0  0  0  0  0  0  0  0  0  0  0  0
    5.9141    1.6484   -0.5082 H   0  0  0  0  0  0  0  0  0  0  0  0
    4.5027    3.3285    0.6197 H   0  0  0  0  0  0  0  0  0  0  0  0
   -3.1471    0.5892   -2.3801 H   0  0  0  0  0  0  0  0  0  0  0  0
   -3.9824    3.0999   -1.7001 H   0  0  0  0  0  0  0  0  0  0  0  0
   -4.8652    2.8409    0.9062 H   0  0  0  0  0  0  0  0  0  0  0  0
  1  7  1  0  0  0  0
  1  8  1  0  0  0  0
  2 14  1  0  0  0  0
  2 20  1  0  0  0  0
  3 11  2  0  0  0  0
  4  9  1  0  0  0  0
  4 11  1  0  0  0  0
  4 25  1  0  0  0  0
  5  6  1  0  0  0  0
  5  7  2  0  0  0  0
  5 13  1  0  0  0  0
  6  8  1  0  0  0  0
  6 12  2  0  0  0  0
  7 11  1  0  0  0  0
  8 15  2  0  0  0  0
  9 10  1  0  0  0  0
  9 21  1  0  0  0  0
  9 22  1  0  0  0  0
 10 14  1  0  0  0  0
 10 23  1  0  0  0  0
 10 24  1  0  0  0  0
 12 16  1  0  0  0  0
 12 26  1  0  0  0  0
 13 27  1  0  0  0  0
 13 28  1  0  0  0  0
 13 29  1  0  0  0  0
 14 18  2  0  0  0  0
 15 17  1  0  0  0  0
 15 30  1  0  0  0  0
 16 17  2  0  0  0  0
 16 31  1  0  0  0  0
 17 32  1  0  0  0  0
 18 19  1  0  0  0  0
 18 33  1  0  0  0  0
 19 20  2  0  0  0  0
 19 34  1  0  0  0  0
 20 35  1  0  0  0  0
M  END
> <PUBCHEM_COMPOUND_CID>
17396487

> <PUBCHEM_CONFORMER_RMSD>
0.8

> <PUBCHEM_CONFORMER_DIVERSEORDER>
1
15
39
48
42
21
33
25
26
44
22
46
9
27
12
6
43
17
16
11
36
45
30
4
35
38
3
34
47
37
41
7
31
18
10
14
5
40
29
32
28
19
13
8
2
20
23
24

> <PUBCHEM_MMFF94_PARTIAL_CHARGES>
27
1 -0.28
10 0.18
11 0.71
12 -0.15
13 0.18
14 -0.04
15 -0.15
16 -0.15
17 -0.15
18 -0.15
19 -0.15
2 -0.28
20 -0.01
25 0.37
26 0.15
3 -0.57
30 0.15
31 0.15
32 0.15
33 0.15
34 0.15
35 0.15
4 -0.73
5 -0.18
7 0.05
8 0.14
9 0.3

> <PUBCHEM_EFFECTIVE_ROTOR_COUNT>
5

> <PUBCHEM_PHARMACOPHORE_FEATURES>
7
1 1 acceptor
1 2 acceptor
1 3 acceptor
1 4 donor
5 1 5 6 7 8 rings
5 2 14 18 19 20 rings
6 6 8 12 15 16 17 rings

> <PUBCHEM_HEAVY_ATOM_COUNT>
20

> <PUBCHEM_ATOM_DEF_STEREO_COUNT>
0

> <PUBCHEM_ATOM_UDEF_STEREO_COUNT>
0

> <PUBCHEM_BOND_DEF_STEREO_COUNT>
0

> <PUBCHEM_BOND_UDEF_STEREO_COUNT>
0

> <PUBCHEM_ISOTOPIC_ATOM_COUNT>
0

> <PUBCHEM_COMPONENT_COUNT>
1

> <PUBCHEM_CACTVS_TAUTO_COUNT>
2

> <PUBCHEM_CONFORMER_ID>
0109730700000001

> <PUBCHEM_MMFF94_ENERGY>
21.3802

> <PUBCHEM_FEATURE_SELFOVERLAP>
35.622

> <PUBCHEM_SHAPE_FINGERPRINT>
10498660 4 18200886153274223629
10646746 165 18343864398686335322
11595378 159 16702312268621907085
12403259 415 18263357010744983328
12549972 3 17845635062599012858
12596602 18 15267052606357533341
12730499 353 18409441488475931595
12769317 202 18334299772975024896
12788726 201 16661763470139204209
13103583 49 11887678441516139829
13402501 40 18413110545940605277
13464514 151 18410292519107819858
13944108 23 16900751303002450053
14251757 17 18410288138077589553
14251764 38 18270399382352130077
14251764 75 17975410540965629345
14466204 15 18340498772594091944
14508225 48 17611451327077783174
14848178 96 18411142467170936477
1601671 61 18271805701359277532
18186145 218 18333446560388902363
20645477 56 18341606015083710267
20645477 70 17895182329575292534
21033648 29 18336268933691486688
21279426 13 18337383933567203406
21709351 56 18261111833870887494
21864079 5 18270689795793638769
221357 26 18260269616601599929
22393880 68 18187643574930974806
231179 274 18410290273071935210
23402655 69 18114179743932902236
23536364 44 17329984110845322198
23557571 272 18059005061225703443
23559900 14 18261955258264140898
341906 21 17775011158582185005
5104073 3 18273215308966072027
5281201 14 18335132120346513143
633830 44 18264492952348622103
7399639 24 18194392308535704083

> <PUBCHEM_SHAPE_MULTIPOLES>
389
10.74
3.03
1.05
2.83
0.29
-0.12
-7.24
-1.39
-0.12
-0.15
0.55
-0.03
1.57

> <PUBCHEM_SHAPE_SELFOVERLAP>
849.044

> <PUBCHEM_SHAPE_VOLUME>
214.7

> <PUBCHEM_COORDINATE_TYPE>
2
5
10

$$$$

