854217
  -OEChem-06241222472D

 30 32  0     0  0  0  0  0  0999 V2000
    2.0000    1.6581    0.0000 Br  0  0  0  0  0  0  0  0  0  0  0  0
    7.1962    1.6581    0.0000 O   0  0  0  0  0  0  0  0  0  0  0  0
    5.4641   -0.3419    0.0000 O   0  0  0  0  0  0  0  0  0  0  0  0
    7.1962   -1.3419    0.0000 O   0  0  0  0  0  0  0  0  0  0  0  0
    8.9446   -1.3765    0.0000 O   0  0  0  0  0  0  0  0  0  0  0  0
   10.7263    1.6822    0.0000 O   0  0  0  0  0  0  0  0  0  0  0  0
    8.0622    0.1581    0.0000 C   0  0  0  0  0  0  0  0  0  0  0  0
    8.0622    1.1581    0.0000 C   0  0  0  0  0  0  0  0  0  0  0  0
    7.1962   -0.3419    0.0000 C   0  0  0  0  0  0  0  0  0  0  0  0
    6.3301    0.1581    0.0000 C   0  0  0  0  0  0  0  0  0  0  0  0
    8.9561   -0.3766    0.0000 C   0  0  0  0  0  0  0  0  0  0  0  0
    8.9561    1.6927    0.0000 C   0  0  0  0  0  0  0  0  0  0  0  0
    6.3301    1.1581    0.0000 C   0  0  0  0  0  0  0  0  0  0  0  0
    9.8622    0.1372    0.0000 C   0  0  0  0  0  0  0  0  0  0  0  0
    9.8622    1.1789    0.0000 C   0  0  0  0  0  0  0  0  0  0  0  0
    4.5981    0.1581    0.0000 C   0  0  0  0  0  0  0  0  0  0  0  0
    3.7321   -0.3419    0.0000 C   0  0  0  0  0  0  0  0  0  0  0  0
    4.5981    1.1581    0.0000 C   0  0  0  0  0  0  0  0  0  0  0  0
    2.8660    0.1581    0.0000 C   0  0  0  0  0  0  0  0  0  0  0  0
    3.7321    1.6581    0.0000 C   0  0  0  0  0  0  0  0  0  0  0  0
    2.8660    1.1581    0.0000 C   0  0  0  0  0  0  0  0  0  0  0  0
    8.9489    2.3127    0.0000 H   0  0  0  0  0  0  0  0  0  0  0  0
    5.7932    1.4681    0.0000 H   0  0  0  0  0  0  0  0  0  0  0  0
   10.3979   -0.1748    0.0000 H   0  0  0  0  0  0  0  0  0  0  0  0
    3.7321   -0.9619    0.0000 H   0  0  0  0  0  0  0  0  0  0  0  0
    5.1350    1.4681    0.0000 H   0  0  0  0  0  0  0  0  0  0  0  0
    6.6592   -1.6519    0.0000 H   0  0  0  0  0  0  0  0  0  0  0  0
    2.3291   -0.1519    0.0000 H   0  0  0  0  0  0  0  0  0  0  0  0
    3.7321    2.2781    0.0000 H   0  0  0  0  0  0  0  0  0  0  0  0
    9.4779   -1.6927    0.0000 H   0  0  0  0  0  0  0  0  0  0  0  0
  1 21  1  0  0  0  0
  2  8  1  0  0  0  0
  2 13  1  0  0  0  0
  3 10  1  0  0  0  0
  3 16  1  0  0  0  0
  4  9  1  0  0  0  0
  4 27  1  0  0  0  0
  5 11  1  0  0  0  0
  5 30  1  0  0  0  0
  6 15  2  0  0  0  0
  7  8  1  0  0  0  0
  7  9  2  0  0  0  0
  7 11  1  0  0  0  0
  8 12  2  0  0  0  0
  9 10  1  0  0  0  0
 10 13  2  0  0  0  0
 11 14  2  0  0  0  0
 12 15  1  0  0  0  0
 12 22  1  0  0  0  0
 13 23  1  0  0  0  0
 14 15  1  0  0  0  0
 14 24  1  0  0  0  0
 16 17  2  0  0  0  0
 16 18  1  0  0  0  0
 17 19  1  0  0  0  0
 17 25  1  0  0  0  0
 18 20  2  0  0  0  0
 18 26  1  0  0  0  0
 19 21  2  0  0  0  0
 19 28  1  0  0  0  0
 20 21  1  0  0  0  0
 20 29  1  0  0  0  0
M  END
> <PUBCHEM_COMPOUND_CID>
854217

> <PUBCHEM_COMPOUND_CANONICALIZED>
1

> <PUBCHEM_CACTVS_COMPLEXITY>
591

> <PUBCHEM_CACTVS_HBOND_ACCEPTOR>
5

> <PUBCHEM_CACTVS_HBOND_DONOR>
2

> <PUBCHEM_CACTVS_ROTATABLE_BOND>
2

> <PUBCHEM_CACTVS_SUBSKEYS>
AAADccBwOAAAEAAAAAAAAAAAAAAAAAAAAAAwQIAAAAAAAACBAAAAGgBACAABrASgkAIwBoAABgCIAqBSAAACCAAgIAQIiAAGCOgNJiKEMRqCeCClwBELuxeAQAAAABAAAAAAAAAAIAAAAAAAAAAAAAAAAA==

> <PUBCHEM_IUPAC_OPENEYE_NAME>
3-(4-bromophenoxy)-4,5-dihydroxy-chromen-7-one

> <PUBCHEM_IUPAC_CAS_NAME>
3-(4-bromophenoxy)-4,5-dihydroxy-1-benzopyran-7-one

> <PUBCHEM_IUPAC_NAME>
3-(4-bromophenoxy)-4,5-dihydroxychromen-7-one

> <PUBCHEM_IUPAC_SYSTEMATIC_NAME>
3-(4-bromanylphenoxy)-4,5-bis(oxidanyl)chromen-7-one

> <PUBCHEM_IUPAC_TRADITIONAL_NAME>
3-(4-bromophenoxy)-4,5-dihydroxy-chromen-7-one

> <PUBCHEM_IUPAC_INCHI>
InChI=1S/C15H9BrO5/c16-8-1-3-10(4-2-8)21-13-7-20-12-6-9(17)5-11(18)14(12)15(13)19/h1-7,18-19H

> <PUBCHEM_IUPAC_INCHIKEY>
ZPUNDTHXIBGIID-UHFFFAOYSA-N

> <PUBCHEM_XLOGP3_AA>
2.2

> <PUBCHEM_EXACT_MASS>
347.963335

> <PUBCHEM_MOLECULAR_FORMULA>
C15H9BrO5

> <PUBCHEM_MOLECULAR_WEIGHT>
349.13296

> <PUBCHEM_OPENEYE_CAN_SMILES>
C1=CC(=CC=C1OC2=COC3=CC(=O)C=C(C3=C2O)O)Br

> <PUBCHEM_OPENEYE_ISO_SMILES>
C1=CC(=CC=C1OC2=COC3=CC(=O)C=C(C3=C2O)O)Br

> <PUBCHEM_CACTVS_TPSA>
76

> <PUBCHEM_MONOISOTOPIC_WEIGHT>
347.963335

> <PUBCHEM_TOTAL_CHARGE>
0

> <PUBCHEM_HEAVY_ATOM_COUNT>
21

> <PUBCHEM_ATOM_DEF_STEREO_COUNT>
0

> <PUBCHEM_ATOM_UDEF_STEREO_COUNT>
0

> <PUBCHEM_BOND_DEF_STEREO_COUNT>
0

> <PUBCHEM_BOND_UDEF_STEREO_COUNT>
0

> <PUBCHEM_ISOTOPIC_ATOM_COUNT>
0

> <PUBCHEM_COMPONENT_COUNT>
1

> <PUBCHEM_CACTVS_TAUTO_COUNT>
12

> <PUBCHEM_COORDINATE_TYPE>
1
5
255

> <PUBCHEM_BONDANNOTATIONS>
10  13  8
11  14  8
12  15  8
14  15  8
16  17  8
16  18  8
17  19  8
18  20  8
19  21  8
2  13  8
2  8  8
20  21  8
7  11  8
7  9  8
8  12  8
9  10  8

$$$$

