47205206
  -OEChem-06241222582D

 32 34  0     0  0  0  0  0  0999 V2000
    5.3781    0.6239    0.0000 S   0  0  0  0  0  0  0  0  0  0  0  0
    3.3090   -0.0484    0.0000 S   0  0  0  0  0  0  0  0  0  0  0  0
    7.8813    1.5718    0.0000 O   0  0  0  0  0  0  0  0  0  0  0  0
    7.3461   -0.0755    0.0000 N   0  0  0  0  0  0  0  0  0  0  0  0
    4.8781    2.1628    0.0000 N   0  0  0  0  0  0  0  0  0  0  0  0
    9.4186   -1.7694    0.0000 N   0  0  0  0  0  0  0  0  0  0  0  0
    9.3141   -2.7639    0.0000 N   0  0  0  0  0  0  0  0  0  0  0  0
    8.2972   -0.3845    0.0000 C   0  0  0  0  0  0  0  0  0  0  0  0
    6.1871    1.2117    0.0000 C   0  0  0  0  0  0  0  0  0  0  0  0
    5.8781    2.1628    0.0000 C   0  0  0  0  0  0  0  0  0  0  0  0
    8.5051   -1.3626    0.0000 C   0  0  0  0  0  0  0  0  0  0  0  0
    7.1382    0.9027    0.0000 C   0  0  0  0  0  0  0  0  0  0  0  0
    4.5691    1.2117    0.0000 C   0  0  0  0  0  0  0  0  0  0  0  0
    3.6180    0.9027    0.0000 C   0  0  0  0  0  0  0  0  0  0  0  0
    6.4659    2.9718    0.0000 C   0  0  0  0  0  0  0  0  0  0  0  0
    7.8359   -2.1058    0.0000 C   0  0  0  0  0  0  0  0  0  0  0  0
    2.8090    1.4905    0.0000 C   0  0  0  0  0  0  0  0  0  0  0  0
    8.3359   -2.9718    0.0000 C   0  0  0  0  0  0  0  0  0  0  0  0
    2.0000    0.9027    0.0000 C   0  0  0  0  0  0  0  0  0  0  0  0
    2.3090   -0.0484    0.0000 C   0  0  0  0  0  0  0  0  0  0  0  0
    8.9168   -0.3628    0.0000 H   0  0  0  0  0  0  0  0  0  0  0  0
    8.3834    0.2295    0.0000 H   0  0  0  0  0  0  0  0  0  0  0  0
    6.8853   -0.4903    0.0000 H   0  0  0  0  0  0  0  0  0  0  0  0
    6.9675    2.6074    0.0000 H   0  0  0  0  0  0  0  0  0  0  0  0
    6.8303    3.4734    0.0000 H   0  0  0  0  0  0  0  0  0  0  0  0
    5.9643    3.3362    0.0000 H   0  0  0  0  0  0  0  0  0  0  0  0
    7.2193   -2.0410    0.0000 H   0  0  0  0  0  0  0  0  0  0  0  0
    9.9555   -1.4594    0.0000 H   0  0  0  0  0  0  0  0  0  0  0  0
    2.8090    2.1105    0.0000 H   0  0  0  0  0  0  0  0  0  0  0  0
    8.0838   -3.5382    0.0000 H   0  0  0  0  0  0  0  0  0  0  0  0
    1.4103    1.0943    0.0000 H   0  0  0  0  0  0  0  0  0  0  0  0
    1.9446   -0.5500    0.0000 H   0  0  0  0  0  0  0  0  0  0  0  0
  1  9  1  0  0  0  0
  1 13  1  0  0  0  0
  2 14  1  0  0  0  0
  2 20  1  0  0  0  0
  3 12  2  0  0  0  0
  4  8  1  0  0  0  0
  4 12  1  0  0  0  0
  4 23  1  0  0  0  0
  5 10  1  0  0  0  0
  5 13  2  0  0  0  0
  6  7  1  0  0  0  0
  6 11  1  0  0  0  0
  6 28  1  0  0  0  0
  7 18  2  0  0  0  0
  8 11  1  0  0  0  0
  8 21  1  0  0  0  0
  8 22  1  0  0  0  0
  9 10  2  0  0  0  0
  9 12  1  0  0  0  0
 10 15  1  0  0  0  0
 11 16  2  0  0  0  0
 13 14  1  0  0  0  0
 14 17  2  0  0  0  0
 15 24  1  0  0  0  0
 15 25  1  0  0  0  0
 15 26  1  0  0  0  0
 16 18  1  0  0  0  0
 16 27  1  0  0  0  0
 17 19  1  0  0  0  0
 17 29  1  0  0  0  0
 18 30  1  0  0  0  0
 19 20  2  0  0  0  0
 19 31  1  0  0  0  0
 20 32  1  0  0  0  0
M  END
> <PUBCHEM_COMPOUND_CID>
47205206

> <PUBCHEM_COMPOUND_CANONICALIZED>
1

> <PUBCHEM_CACTVS_COMPLEXITY>
357

> <PUBCHEM_CACTVS_HBOND_ACCEPTOR>
5

> <PUBCHEM_CACTVS_HBOND_DONOR>
2

> <PUBCHEM_CACTVS_ROTATABLE_BOND>
4

> <PUBCHEM_CACTVS_SUBSKEYS>
AAADccBzoABgAAAAAAAAAAAAAAAAAWLEgAAAAAAAAAAAAAAB+AAAHgQYAAAACAjF1gS+gZLrEAiuATV3VACT9KBlijhYub04ZNgIYLrg0dGUhYhgngDoyUYQAAAAAAAAAAAAAAAAAAAAAAAAAAAAAAAAAA==

> <PUBCHEM_IUPAC_OPENEYE_NAME>
4-methyl-N-(1H-pyrazol-5-ylmethyl)-2-(2-thienyl)thiazole-5-carboxamide

> <PUBCHEM_IUPAC_CAS_NAME>
4-methyl-N-(1H-pyrazol-5-ylmethyl)-2-thiophen-2-yl-5-thiazolecarboxamide

> <PUBCHEM_IUPAC_NAME>
4-methyl-N-(1H-pyrazol-5-ylmethyl)-2-thiophen-2-yl-1,3-thiazole-5-carboxamide

> <PUBCHEM_IUPAC_SYSTEMATIC_NAME>
4-methyl-N-(1H-pyrazol-5-ylmethyl)-2-thiophen-2-yl-1,3-thiazole-5-carboxamide

> <PUBCHEM_IUPAC_TRADITIONAL_NAME>
4-methyl-N-(1H-pyrazol-5-ylmethyl)-2-(2-thienyl)thiazole-5-carboxamide

> <PUBCHEM_IUPAC_INCHI>
InChI=1S/C13H12N4OS2/c1-8-11(12(18)14-7-9-4-5-15-17-9)20-13(16-8)10-3-2-6-19-10/h2-6H,7H2,1H3,(H,14,18)(H,15,17)

> <PUBCHEM_IUPAC_INCHIKEY>
RSEKWIQTKGLUNX-UHFFFAOYSA-N

> <PUBCHEM_XLOGP3_AA>
2.2

> <PUBCHEM_EXACT_MASS>
304.045253

> <PUBCHEM_MOLECULAR_FORMULA>
C13H12N4OS2

> <PUBCHEM_MOLECULAR_WEIGHT>
304.39058

> <PUBCHEM_OPENEYE_CAN_SMILES>
CC1=C(SC(=N1)C2=CC=CS2)C(=O)NCC3=CC=NN3

> <PUBCHEM_OPENEYE_ISO_SMILES>
CC1=C(SC(=N1)C2=CC=CS2)C(=O)NCC3=CC=NN3

> <PUBCHEM_CACTVS_TPSA>
127

> <PUBCHEM_MONOISOTOPIC_WEIGHT>
304.045253

> <PUBCHEM_TOTAL_CHARGE>
0

> <PUBCHEM_HEAVY_ATOM_COUNT>
20

> <PUBCHEM_ATOM_DEF_STEREO_COUNT>
0

> <PUBCHEM_ATOM_UDEF_STEREO_COUNT>
0

> <PUBCHEM_BOND_DEF_STEREO_COUNT>
0

> <PUBCHEM_BOND_UDEF_STEREO_COUNT>
0

> <PUBCHEM_ISOTOPIC_ATOM_COUNT>
0

> <PUBCHEM_COMPONENT_COUNT>
1

> <PUBCHEM_CACTVS_TAUTO_COUNT>
4

> <PUBCHEM_COORDINATE_TYPE>
1
5
255

> <PUBCHEM_BONDANNOTATIONS>
1  13  8
1  9  8
11  16  8
14  17  8
16  18  8
17  19  8
19  20  8
2  14  8
2  20  8
5  10  8
5  13  8
6  11  8
6  7  8
7  18  8
9  10  8

$$$$

