7953
  -OEChem-06261202293D

 20 20  0     0  0  0  0  0  0999 V2000
   -1.3960    0.0001    0.0001 N   0  0  0  0  0  0  0  0  0  0  0  0
    1.3993    0.0000    0.0001 C   0  0  0  0  0  0  0  0  0  0  0  0
   -0.6833   -1.1488    0.0002 C   0  0  0  0  0  0  0  0  0  0  0  0
   -0.6832    1.1489    0.0002 C   0  0  0  0  0  0  0  0  0  0  0  0
    0.7013   -1.2026    0.0001 C   0  0  0  0  0  0  0  0  0  0  0  0
    0.7014    1.2026    0.0001 C   0  0  0  0  0  0  0  0  0  0  0  0
    2.8904   -0.0001   -0.0002 C   0  0  0  0  0  0  0  0  0  0  0  0
   -1.4650   -2.4199   -0.0003 C   0  0  0  0  0  0  0  0  0  0  0  0
   -1.4649    2.4199   -0.0003 C   0  0  0  0  0  0  0  0  0  0  0  0
    1.2241   -2.1538   -0.0018 H   0  0  0  0  0  0  0  0  0  0  0  0
    1.2243    2.1538   -0.0016 H   0  0  0  0  0  0  0  0  0  0  0  0
    3.2858    0.8811    0.5164 H   0  0  0  0  0  0  0  0  0  0  0  0
    3.2855   -0.8798    0.5192 H   0  0  0  0  0  0  0  0  0  0  0  0
    3.2660   -0.0016   -1.0283 H   0  0  0  0  0  0  0  0  0  0  0  0
   -2.5416   -2.2197    0.0008 H   0  0  0  0  0  0  0  0  0  0  0  0
   -1.2323   -3.0096   -0.8926 H   0  0  0  0  0  0  0  0  0  0  0  0
   -1.2310   -3.0111    0.8907 H   0  0  0  0  0  0  0  0  0  0  0  0
   -1.2320    3.0098   -0.8925 H   0  0  0  0  0  0  0  0  0  0  0  0
   -2.5415    2.2198    0.0004 H   0  0  0  0  0  0  0  0  0  0  0  0
   -1.2311    3.0110    0.8909 H   0  0  0  0  0  0  0  0  0  0  0  0
  1  3  2  0  0  0  0
  1  4  1  0  0  0  0
  2  5  2  0  0  0  0
  2  6  1  0  0  0  0
  2  7  1  0  0  0  0
  3  5  1  0  0  0  0
  3  8  1  0  0  0  0
  4  6  2  0  0  0  0
  4  9  1  0  0  0  0
  5 10  1  0  0  0  0
  6 11  1  0  0  0  0
  7 12  1  0  0  0  0
  7 13  1  0  0  0  0
  7 14  1  0  0  0  0
  8 15  1  0  0  0  0
  8 16  1  0  0  0  0
  8 17  1  0  0  0  0
  9 18  1  0  0  0  0
  9 19  1  0  0  0  0
  9 20  1  0  0  0  0
M  END
> <PUBCHEM_COMPOUND_CID>
7953

> <PUBCHEM_CONFORMER_RMSD>
0.4

> <PUBCHEM_CONFORMER_DIVERSEORDER>
1

> <PUBCHEM_MMFF94_PARTIAL_CHARGES>
11
1 -0.62
10 0.15
11 0.15
2 -0.14
3 0.17
4 0.17
5 -0.15
6 -0.15
7 0.14
8 0.14
9 0.14

> <PUBCHEM_EFFECTIVE_ROTOR_COUNT>
0

> <PUBCHEM_PHARMACOPHORE_FEATURES>
2
1 1 acceptor
6 1 2 3 4 5 6 rings

> <PUBCHEM_HEAVY_ATOM_COUNT>
9

> <PUBCHEM_ATOM_DEF_STEREO_COUNT>
0

> <PUBCHEM_ATOM_UDEF_STEREO_COUNT>
0

> <PUBCHEM_BOND_DEF_STEREO_COUNT>
0

> <PUBCHEM_BOND_UDEF_STEREO_COUNT>
0

> <PUBCHEM_ISOTOPIC_ATOM_COUNT>
0

> <PUBCHEM_COMPONENT_COUNT>
1

> <PUBCHEM_CACTVS_TAUTO_COUNT>
1

> <PUBCHEM_CONFORMER_ID>
00001F1100000001

> <PUBCHEM_MMFF94_ENERGY>
19.6682

> <PUBCHEM_FEATURE_SELFOVERLAP>
10.148

> <PUBCHEM_SHAPE_FINGERPRINT>
1 1 17690843783988800260
12716758 59 18335979891330319182
16945 1 18410855464581371654
18185500 45 17905886976887438214
20871998 184 18260264105937091342
21040471 1 18266740379663995072
23552423 10 18128817452360937318
23552449 1 18337956679765890158
2748010 2 18121223069222644804
29004967 10 17620194234865323410

> <PUBCHEM_SHAPE_MULTIPOLES>
180.23
2.66
2.58
0.61
1.92
0
0
0
0
-2
0
0.01
0
0

> <PUBCHEM_SHAPE_SELFOVERLAP>
367.027

> <PUBCHEM_SHAPE_VOLUME>
107

> <PUBCHEM_COORDINATE_TYPE>
2
5
10

$$$$

