4438
  -OEChem-06261200072D

 30 31  0     0  0  0  0  0  0999 V2000
    4.5981   -1.4050    0.0000 S   0  0  0  0  0  0  0  0  0  0  0  0
    2.8660    1.5950    0.0000 S   0  0  0  0  0  0  0  0  0  0  0  0
    8.1282    1.6192    0.0000 S   0  0  0  0  0  0  0  0  0  0  0  0
    4.5981   -2.4050    0.0000 O   0  0  0  0  0  0  0  0  0  0  0  0
    2.0000    2.0950    0.0000 O   0  0  0  0  0  0  0  0  0  0  0  0
    3.5981   -1.4050    0.0000 O   0  0  0  0  0  0  0  0  0  0  0  0
    5.5981   -1.4050    0.0000 O   0  0  0  0  0  0  0  0  0  0  0  0
    8.9923    2.1225    0.0000 O   0  0  0  0  0  0  0  0  0  0  0  0
    3.3660    2.4610    0.0000 O   0  0  0  0  0  0  0  0  0  0  0  0
    2.3660    0.7290    0.0000 O   0  0  0  0  0  0  0  0  0  0  0  0
    8.6315    0.7551    0.0000 O   0  0  0  0  0  0  0  0  0  0  0  0
    7.6249    2.4832    0.0000 O   0  0  0  0  0  0  0  0  0  0  0  0
    5.4641    0.0950    0.0000 C   0  0  0  0  0  0  0  0  0  0  0  0
    5.4641    1.0950    0.0000 C   0  0  0  0  0  0  0  0  0  0  0  0
    4.5981   -0.4050    0.0000 C   0  0  0  0  0  0  0  0  0  0  0  0
    3.7320    1.0950    0.0000 C   0  0  0  0  0  0  0  0  0  0  0  0
    4.5981    1.5950    0.0000 C   0  0  0  0  0  0  0  0  0  0  0  0
    3.7320    0.0950    0.0000 C   0  0  0  0  0  0  0  0  0  0  0  0
    6.3580    1.6297    0.0000 C   0  0  0  0  0  0  0  0  0  0  0  0
    6.3580   -0.4397    0.0000 C   0  0  0  0  0  0  0  0  0  0  0  0
    7.2641    1.1158    0.0000 C   0  0  0  0  0  0  0  0  0  0  0  0
    7.2641    0.0742    0.0000 C   0  0  0  0  0  0  0  0  0  0  0  0
    4.5981    2.2150    0.0000 H   0  0  0  0  0  0  0  0  0  0  0  0
    3.1951   -0.2150    0.0000 H   0  0  0  0  0  0  0  0  0  0  0  0
    6.3509    2.2496    0.0000 H   0  0  0  0  0  0  0  0  0  0  0  0
    6.3509   -1.0596    0.0000 H   0  0  0  0  0  0  0  0  0  0  0  0
    7.7998   -0.2379    0.0000 H   0  0  0  0  0  0  0  0  0  0  0  0
    4.0611   -2.7150    0.0000 H   0  0  0  0  0  0  0  0  0  0  0  0
    2.0000    2.7150    0.0000 H   0  0  0  0  0  0  0  0  0  0  0  0
    9.5304    1.8146    0.0000 H   0  0  0  0  0  0  0  0  0  0  0  0
  1  4  1  0  0  0  0
  1  6  2  0  0  0  0
  1  7  2  0  0  0  0
  1 15  1  0  0  0  0
  2  5  1  0  0  0  0
  2  9  2  0  0  0  0
  2 10  2  0  0  0  0
  2 16  1  0  0  0  0
  3  8  1  0  0  0  0
  3 11  2  0  0  0  0
  3 12  2  0  0  0  0
  3 21  1  0  0  0  0
  4 28  1  0  0  0  0
  5 29  1  0  0  0  0
  8 30  1  0  0  0  0
 13 14  1  0  0  0  0
 13 15  2  0  0  0  0
 13 20  1  0  0  0  0
 14 17  2  0  0  0  0
 14 19  1  0  0  0  0
 15 18  1  0  0  0  0
 16 17  1  0  0  0  0
 16 18  2  0  0  0  0
 17 23  1  0  0  0  0
 18 24  1  0  0  0  0
 19 21  2  0  0  0  0
 19 25  1  0  0  0  0
 20 22  2  0  0  0  0
 20 26  1  0  0  0  0
 21 22  1  0  0  0  0
 22 27  1  0  0  0  0
M  END
> <PUBCHEM_COMPOUND_CID>
4438

> <PUBCHEM_COMPOUND_CANONICALIZED>
1

> <PUBCHEM_CACTVS_COMPLEXITY>
720

> <PUBCHEM_CACTVS_HBOND_ACCEPTOR>
9

> <PUBCHEM_CACTVS_HBOND_DONOR>
3

> <PUBCHEM_CACTVS_ROTATABLE_BOND>
3

> <PUBCHEM_CACTVS_SUBSKEYS>
AAADccBwPABgAAAAAAAAAAAAAAAAAAAAAAAwYAAAAAAAAADBUAAAGAQACAAADACAWAAwAcAAAIKAAiBCAHBCAEAgAAAIiBgAAIgIICKAERCAIAAggAAIiAcAgIAOkAAAgEAUAAAgAAEAgCgAAAAAAAAAAA==

> <PUBCHEM_IUPAC_OPENEYE_NAME>
naphthalene-1,3,6-trisulfonic acid

> <PUBCHEM_IUPAC_CAS_NAME>
naphthalene-1,3,6-trisulfonic acid

> <PUBCHEM_IUPAC_NAME>
naphthalene-1,3,6-trisulfonic acid

> <PUBCHEM_IUPAC_SYSTEMATIC_NAME>
naphthalene-1,3,6-trisulfonic acid

> <PUBCHEM_IUPAC_TRADITIONAL_NAME>
naphthalene-1,3,6-trisulfonic acid

> <PUBCHEM_IUPAC_INCHI>
InChI=1S/C10H8O9S3/c11-20(12,13)7-1-2-9-6(3-7)4-8(21(14,15)16)5-10(9)22(17,18)19/h1-5H,(H,11,12,13)(H,14,15,16)(H,17,18,19)

> <PUBCHEM_IUPAC_INCHIKEY>
ZPBSAMLXSQCSOX-UHFFFAOYSA-N

> <PUBCHEM_XLOGP3_AA>
-0.6

> <PUBCHEM_EXACT_MASS>
367.933045

> <PUBCHEM_MOLECULAR_FORMULA>
C10H8O9S3

> <PUBCHEM_MOLECULAR_WEIGHT>
368.36012

> <PUBCHEM_OPENEYE_CAN_SMILES>
C1=CC2=C(C=C(C=C2C=C1S(=O)(=O)O)S(=O)(=O)O)S(=O)(=O)O

> <PUBCHEM_OPENEYE_ISO_SMILES>
C1=CC2=C(C=C(C=C2C=C1S(=O)(=O)O)S(=O)(=O)O)S(=O)(=O)O

> <PUBCHEM_CACTVS_TPSA>
188

> <PUBCHEM_MONOISOTOPIC_WEIGHT>
367.933045

> <PUBCHEM_TOTAL_CHARGE>
0

> <PUBCHEM_HEAVY_ATOM_COUNT>
22

> <PUBCHEM_ATOM_DEF_STEREO_COUNT>
0

> <PUBCHEM_ATOM_UDEF_STEREO_COUNT>
0

> <PUBCHEM_BOND_DEF_STEREO_COUNT>
0

> <PUBCHEM_BOND_UDEF_STEREO_COUNT>
0

> <PUBCHEM_ISOTOPIC_ATOM_COUNT>
0

> <PUBCHEM_COMPONENT_COUNT>
1

> <PUBCHEM_CACTVS_TAUTO_COUNT>
1

> <PUBCHEM_COORDINATE_TYPE>
1
5
255

> <PUBCHEM_BONDANNOTATIONS>
13  14  8
13  15  8
13  20  8
14  17  8
14  19  8
15  18  8
16  17  8
16  18  8
19  21  8
20  22  8
21  22  8

$$$$

