854135
  -OEChem-06241222473D

 34 35  0     0  0  0  0  0  0999 V2000
   -4.1070   -1.7007    1.4611 O   0  0  0  0  0  0  0  0  0  0  0  0
   -4.0428    1.9531   -1.3210 O   0  0  0  0  0  0  0  0  0  0  0  0
    2.9375   -1.1307   -1.4132 O   0  0  0  0  0  0  0  0  0  0  0  0
    4.2710    0.3323    0.5382 O   0  0  0  0  0  0  0  0  0  0  0  0
   -1.3922    0.3111    0.3738 C   0  0  0  0  0  0  0  0  0  0  0  0
   -1.9587   -1.0971    0.5928 C   0  0  0  0  0  0  0  0  0  0  0  0
   -1.9234    0.9073   -0.9354 C   0  0  0  0  0  0  0  0  0  0  0  0
    0.1243    0.3150    0.4145 C   0  0  0  0  0  0  0  0  0  0  0  0
   -4.1662   -0.2734   -0.4569 C   0  0  0  0  0  0  0  0  0  0  0  0
   -3.4692   -1.0456    0.6367 C   0  0  0  0  0  0  0  0  0  0  0  0
   -3.4337    0.9700   -0.8990 C   0  0  0  0  0  0  0  0  0  0  0  0
    0.8462   -0.4164   -0.5264 C   0  0  0  0  0  0  0  0  0  0  0  0
    0.7905    1.0494    1.3934 C   0  0  0  0  0  0  0  0  0  0  0  0
    2.2405   -0.4134   -0.4882 C   0  0  0  0  0  0  0  0  0  0  0  0
    2.1848    1.0525    1.4316 C   0  0  0  0  0  0  0  0  0  0  0  0
    2.9097    0.3210    0.4907 C   0  0  0  0  0  0  0  0  0  0  0  0
    3.2515   -2.4822   -1.0830 C   0  0  0  0  0  0  0  0  0  0  0  0
    4.9373    1.3478   -0.2096 C   0  0  0  0  0  0  0  0  0  0  0  0
   -1.7648    0.9429    1.1938 H   0  0  0  0  0  0  0  0  0  0  0  0
   -1.5966   -1.5076    1.5430 H   0  0  0  0  0  0  0  0  0  0  0  0
   -1.6711   -1.7913   -0.2048 H   0  0  0  0  0  0  0  0  0  0  0  0
   -1.6346    0.3152   -1.8111 H   0  0  0  0  0  0  0  0  0  0  0  0
   -1.5361    1.9237   -1.0737 H   0  0  0  0  0  0  0  0  0  0  0  0
   -4.2828   -0.9314   -1.3233 H   0  0  0  0  0  0  0  0  0  0  0  0
   -5.1537    0.0243   -0.0890 H   0  0  0  0  0  0  0  0  0  0  0  0
    0.3382   -0.9924   -1.2953 H   0  0  0  0  0  0  0  0  0  0  0  0
    0.2398    1.6237    2.1332 H   0  0  0  0  0  0  0  0  0  0  0  0
    2.6997    1.6263    2.1974 H   0  0  0  0  0  0  0  0  0  0  0  0
    3.8116   -2.9169   -1.9154 H   0  0  0  0  0  0  0  0  0  0  0  0
    2.3356   -3.0634   -0.9357 H   0  0  0  0  0  0  0  0  0  0  0  0
    3.8728   -2.5247   -0.1829 H   0  0  0  0  0  0  0  0  0  0  0  0
    4.6551    2.3403    0.1557 H   0  0  0  0  0  0  0  0  0  0  0  0
    4.7029    1.2585   -1.2750 H   0  0  0  0  0  0  0  0  0  0  0  0
    6.0151    1.2195   -0.0768 H   0  0  0  0  0  0  0  0  0  0  0  0
  1 10  2  0  0  0  0
  2 11  2  0  0  0  0
  3 14  1  0  0  0  0
  3 17  1  0  0  0  0
  4 16  1  0  0  0  0
  4 18  1  0  0  0  0
  5  6  1  0  0  0  0
  5  7  1  0  0  0  0
  5  8  1  0  0  0  0
  5 19  1  0  0  0  0
  6 10  1  0  0  0  0
  6 20  1  0  0  0  0
  6 21  1  0  0  0  0
  7 11  1  0  0  0  0
  7 22  1  0  0  0  0
  7 23  1  0  0  0  0
  8 12  2  0  0  0  0
  8 13  1  0  0  0  0
  9 10  1  0  0  0  0
  9 11  1  0  0  0  0
  9 24  1  0  0  0  0
  9 25  1  0  0  0  0
 12 14  1  0  0  0  0
 12 26  1  0  0  0  0
 13 15  2  0  0  0  0
 13 27  1  0  0  0  0
 14 16  2  0  0  0  0
 15 16  1  0  0  0  0
 15 28  1  0  0  0  0
 17 29  1  0  0  0  0
 17 30  1  0  0  0  0
 17 31  1  0  0  0  0
 18 32  1  0  0  0  0
 18 33  1  0  0  0  0
 18 34  1  0  0  0  0
M  END
> <PUBCHEM_COMPOUND_CID>
854135

> <PUBCHEM_CONFORMER_RMSD>
0.6

> <PUBCHEM_CONFORMER_DIVERSEORDER>
1
15
13
18
25
14
41
30
28
20
8
16
29
6
51
33
50
52
11
34
49
7
4
40
19
5
9
17
21
27
47
3
23
37
35
45
12
10
2
32
31
48
39
43
22
42
44
24
46
26
38
36

> <PUBCHEM_MMFF94_PARTIAL_CHARGES>
21
1 -0.57
10 0.45
11 0.45
12 -0.15
13 -0.15
14 0.08
15 -0.15
16 0.08
17 0.28
18 0.28
2 -0.57
26 0.15
27 0.15
28 0.15
3 -0.36
4 -0.36
5 0.14
6 0.06
7 0.06
8 -0.14
9 0.12

> <PUBCHEM_EFFECTIVE_ROTOR_COUNT>
3.8

> <PUBCHEM_PHARMACOPHORE_FEATURES>
7
1 1 acceptor
1 2 acceptor
1 3 acceptor
1 4 acceptor
1 9 anion
6 5 6 7 9 10 11 rings
6 8 12 13 14 15 16 rings

> <PUBCHEM_HEAVY_ATOM_COUNT>
18

> <PUBCHEM_ATOM_DEF_STEREO_COUNT>
0

> <PUBCHEM_ATOM_UDEF_STEREO_COUNT>
0

> <PUBCHEM_BOND_DEF_STEREO_COUNT>
0

> <PUBCHEM_BOND_UDEF_STEREO_COUNT>
0

> <PUBCHEM_ISOTOPIC_ATOM_COUNT>
0

> <PUBCHEM_COMPONENT_COUNT>
1

> <PUBCHEM_CACTVS_TAUTO_COUNT>
5

> <PUBCHEM_CONFORMER_ID>
000D087700000001

> <PUBCHEM_MMFF94_ENERGY>
62.5345

> <PUBCHEM_FEATURE_SELFOVERLAP>
35.525

> <PUBCHEM_SHAPE_FINGERPRINT>
10646746 165 18060425711330610676
11405975 8 18268709579040125298
11471102 20 17749111076090657728
11543360 7 17845635015427822270
11615757 297 16805610226626238713
11796584 16 18129665343404193122
12236239 1 16128665145473262937
12553582 1 16950279620149457058
13134695 92 17604155908054340880
13140716 1 17387989573139759570
13296908 3 18334011713665801695
13760787 5 17313100848250485648
14386348 63 18408322168511441579
15219456 202 18407760347860125527
15375358 24 18410301310578554254
15375462 189 16877657968098828218
16752209 62 17561092371764866051
16945 1 17603874377559280688
18186145 218 18340481278653828443
19026448 4 18413105086709572438
19049666 15 18335985380082154827
19784866 140 17386548250966599836
200 152 16732709341650903297
20279233 1 18408606958955030327
20645477 56 18273217517175587701
20645477 70 17895196661538118678
21065201 7 18060701722976993627
22112679 90 16630529539911528285
2255824 54 16806176449576971968
22943178 12 18410576197307684335
23402539 116 17489596623251024846
23526113 38 18262247723439260729
23557571 272 18201999910754684148
23559900 14 18341334513005178014
23596394 208 18335416894095321654
23598291 2 15936681679020492726
3472631 163 17704080615824478973
474 4 16010464256715890800
6049 1 18410289199245734745
7615 1 15140968352699676777
77492 1 15357698569960347249
81539 233 18334014969847046182
9709674 26 18411702101504382079
9971528 1 14908190759274283906

> <PUBCHEM_SHAPE_MULTIPOLES>
346.95
9.38
1.83
1.38
0.02
0.79
-0.08
-0.17
1.2
0.84
0.3
-0.69
-0.09
2.2

> <PUBCHEM_SHAPE_SELFOVERLAP>
728.866

> <PUBCHEM_SHAPE_VOLUME>
195.4

> <PUBCHEM_COORDINATE_TYPE>
2
5
10

$$$$

