6185
  -OEChem-06261201103D

 61 65  0     1  0  0  0  0  0999 V2000
    1.8483    1.2417   -0.8292 O   0  0  0  0  0  0  0  0  0  0  0  0
   -4.5541    1.0020   -1.4268 O   0  0  0  0  0  0  0  0  0  0  0  0
   -6.0459    0.5901    0.9667 O   0  0  0  0  0  0  0  0  0  0  0  0
   -3.3827   -2.1000   -2.1822 O   0  0  0  0  0  0  0  0  0  0  0  0
    6.1735   -0.5722   -0.4601 O   0  0  0  0  0  0  0  0  0  0  0  0
    6.5046    1.6617   -0.9034 O   0  0  0  0  0  0  0  0  0  0  0  0
    1.0091    0.4659    0.0398 C   0  0  1  0  0  0  0  0  0  0  0  0
   -0.4296    0.4718   -0.5462 C   0  0  1  0  0  0  0  0  0  0  0  0
    1.6070   -0.9536    0.2337 C   0  0  1  0  0  0  0  0  0  0  0  0
   -1.4084   -0.4849    0.1895 C   0  0  1  0  0  0  0  0  0  0  0  0
   -2.8411   -0.4822   -0.4641 C   0  0  2  0  0  0  0  0  0  0  0  0
   -3.3944    0.9781   -0.5780 C   0  0  1  0  0  0  0  0  0  0  0  0
    2.8238   -0.6957    1.1780 C   0  0  2  0  0  0  0  0  0  0  0  0
    0.5886   -1.8648    0.9696 C   0  0  0  0  0  0  0  0  0  0  0  0
   -0.7908   -1.8929    0.3147 C   0  0  0  0  0  0  0  0  0  0  0  0
    1.1391    1.1019    1.4362 C   0  0  0  0  0  0  0  0  0  0  0  0
   -1.0005    1.9000   -0.6141 C   0  0  0  0  0  0  0  0  0  0  0  0
   -2.3863    1.9334   -1.2429 C   0  0  0  0  0  0  0  0  0  0  0  0
    2.3548    0.4427    2.1037 C   0  0  0  0  0  0  0  0  0  0  0  0
   -3.8555   -1.3637    0.3172 C   0  0  0  0  0  0  0  0  0  0  0  0
    2.0175   -1.6359   -1.0868 C   0  0  0  0  0  0  0  0  0  0  0  0
   -3.8166    1.5411    0.8063 C   0  0  0  0  0  0  0  0  0  0  0  0
   -4.2268   -0.7975    1.6868 C   0  0  0  0  0  0  0  0  0  0  0  0
   -4.7637    0.6256    1.5890 C   0  0  2  0  0  0  0  0  0  0  0  0
   -2.7485   -1.1056   -1.8454 C   0  0  0  0  0  0  0  0  0  0  0  0
    4.1132   -0.3205    0.5057 C   0  0  0  0  0  0  0  0  0  0  0  0
    5.1243   -1.3351    0.1450 C   0  0  0  0  0  0  0  0  0  0  0  0
    4.5114    0.9002    0.1580 C   0  0  0  0  0  0  0  0  0  0  0  0
    5.8294    0.7486   -0.4605 C   0  0  0  0  0  0  0  0  0  0  0  0
   -0.3327    0.1316   -1.5852 H   0  0  0  0  0  0  0  0  0  0  0  0
   -1.5191   -0.1080    1.2133 H   0  0  0  0  0  0  0  0  0  0  0  0
    3.0280   -1.5815    1.7945 H   0  0  0  0  0  0  0  0  0  0  0  0
    0.4605   -1.5471    2.0119 H   0  0  0  0  0  0  0  0  0  0  0  0
    0.9793   -2.8894    1.0227 H   0  0  0  0  0  0  0  0  0  0  0  0
   -0.7252   -2.3767   -0.6654 H   0  0  0  0  0  0  0  0  0  0  0  0
   -1.4278   -2.5325    0.9342 H   0  0  0  0  0  0  0  0  0  0  0  0
    0.2567    0.9244    2.0593 H   0  0  0  0  0  0  0  0  0  0  0  0
    1.2889    2.1862    1.3788 H   0  0  0  0  0  0  0  0  0  0  0  0
   -0.3380    2.5430   -1.2057 H   0  0  0  0  0  0  0  0  0  0  0  0
   -1.0434    2.3438    0.3864 H   0  0  0  0  0  0  0  0  0  0  0  0
   -2.7737    2.9606   -1.2192 H   0  0  0  0  0  0  0  0  0  0  0  0
   -2.3014    1.6967   -2.3118 H   0  0  0  0  0  0  0  0  0  0  0  0
    3.1232    1.1784    2.3628 H   0  0  0  0  0  0  0  0  0  0  0  0
    2.0323    0.0164    3.0630 H   0  0  0  0  0  0  0  0  0  0  0  0
   -3.4802   -2.3849    0.4479 H   0  0  0  0  0  0  0  0  0  0  0  0
   -4.7838   -1.4882   -0.2564 H   0  0  0  0  0  0  0  0  0  0  0  0
    1.1586   -1.7765   -1.7505 H   0  0  0  0  0  0  0  0  0  0  0  0
    2.7507   -1.0574   -1.6567 H   0  0  0  0  0  0  0  0  0  0  0  0
    2.4470   -2.6258   -0.8969 H   0  0  0  0  0  0  0  0  0  0  0  0
   -4.3232    2.5033    0.6545 H   0  0  0  0  0  0  0  0  0  0  0  0
   -2.9357    1.7285    1.4293 H   0  0  0  0  0  0  0  0  0  0  0  0
   -4.9872   -1.4483    2.1357 H   0  0  0  0  0  0  0  0  0  0  0  0
   -3.3545   -0.8211    2.3491 H   0  0  0  0  0  0  0  0  0  0  0  0
   -4.9143    1.0301    2.5955 H   0  0  0  0  0  0  0  0  0  0  0  0
    1.7243    0.9231   -1.7388 H   0  0  0  0  0  0  0  0  0  0  0  0
   -2.0874   -0.6124   -2.5748 H   0  0  0  0  0  0  0  0  0  0  0  0
   -4.8012    0.1028   -1.6924 H   0  0  0  0  0  0  0  0  0  0  0  0
    5.5240   -1.8491    1.0242 H   0  0  0  0  0  0  0  0  0  0  0  0
    4.7644   -2.0700   -0.5782 H   0  0  0  0  0  0  0  0  0  0  0  0
    4.0242    1.8502    0.2905 H   0  0  0  0  0  0  0  0  0  0  0  0
   -5.9357    0.3585    0.0309 H   0  0  0  0  0  0  0  0  0  0  0  0
  1  7  1  0  0  0  0
  1 55  1  0  0  0  0
  2 12  1  0  0  0  0
  2 57  1  0  0  0  0
  3 24  1  0  0  0  0
  3 61  1  0  0  0  0
  4 25  2  0  0  0  0
  5 27  1  0  0  0  0
  5 29  1  0  0  0  0
  6 29  2  0  0  0  0
  7  8  1  0  0  0  0
  7  9  1  0  0  0  0
  7 16  1  0  0  0  0
  8 10  1  0  0  0  0
  8 17  1  0  0  0  0
  8 30  1  0  0  0  0
  9 13  1  0  0  0  0
  9 14  1  0  0  0  0
  9 21  1  0  0  0  0
 10 11  1  0  0  0  0
 10 15  1  0  0  0  0
 10 31  1  0  0  0  0
 11 12  1  0  0  0  0
 11 20  1  0  0  0  0
 11 25  1  0  0  0  0
 12 18  1  0  0  0  0
 12 22  1  0  0  0  0
 13 19  1  0  0  0  0
 13 26  1  0  0  0  0
 13 32  1  0  0  0  0
 14 15  1  0  0  0  0
 14 33  1  0  0  0  0
 14 34  1  0  0  0  0
 15 35  1  0  0  0  0
 15 36  1  0  0  0  0
 16 19  1  0  0  0  0
 16 37  1  0  0  0  0
 16 38  1  0  0  0  0
 17 18  1  0  0  0  0
 17 39  1  0  0  0  0
 17 40  1  0  0  0  0
 18 41  1  0  0  0  0
 18 42  1  0  0  0  0
 19 43  1  0  0  0  0
 19 44  1  0  0  0  0
 20 23  1  0  0  0  0
 20 45  1  0  0  0  0
 20 46  1  0  0  0  0
 21 47  1  0  0  0  0
 21 48  1  0  0  0  0
 21 49  1  0  0  0  0
 22 24  1  0  0  0  0
 22 50  1  0  0  0  0
 22 51  1  0  0  0  0
 23 24  1  0  0  0  0
 23 52  1  0  0  0  0
 23 53  1  0  0  0  0
 24 54  1  0  0  0  0
 25 56  1  0  0  0  0
 26 27  1  0  0  0  0
 26 28  2  0  0  0  0
 27 58  1  0  0  0  0
 27 59  1  0  0  0  0
 28 29  1  0  0  0  0
 28 60  1  0  0  0  0
M  END
> <PUBCHEM_COMPOUND_CID>
6185

> <PUBCHEM_CONFORMER_RMSD>
0.8

> <PUBCHEM_CONFORMER_DIVERSEORDER>
3
1
5
2
4

> <PUBCHEM_MMFF94_PARTIAL_CHARGES>
21
1 -0.68
11 0.06
12 0.28
13 0.14
2 -0.68
24 0.28
25 0.45
26 -0.28
27 0.42
28 -0.14
29 0.71
3 -0.68
4 -0.57
5 -0.43
55 0.4
56 0.06
57 0.4
6 -0.57
60 0.15
61 0.4
7 0.28

> <PUBCHEM_EFFECTIVE_ROTOR_COUNT>
4.6

> <PUBCHEM_PHARMACOPHORE_FEATURES>
13
1 1 acceptor
1 1 donor
1 2 acceptor
1 2 donor
1 3 acceptor
1 3 donor
1 4 acceptor
1 6 acceptor
5 5 26 27 28 29 rings
5 7 9 13 16 19 rings
6 11 12 20 22 23 24 rings
6 7 8 9 10 14 15 rings
6 8 10 11 12 17 18 rings

> <PUBCHEM_HEAVY_ATOM_COUNT>
29

> <PUBCHEM_ATOM_DEF_STEREO_COUNT>
8

> <PUBCHEM_ATOM_UDEF_STEREO_COUNT>
0

> <PUBCHEM_BOND_DEF_STEREO_COUNT>
0

> <PUBCHEM_BOND_UDEF_STEREO_COUNT>
0

> <PUBCHEM_ISOTOPIC_ATOM_COUNT>
0

> <PUBCHEM_COMPONENT_COUNT>
1

> <PUBCHEM_CACTVS_TAUTO_COUNT>
1

> <PUBCHEM_CONFORMER_ID>
0000182900000003

> <PUBCHEM_MMFF94_ENERGY>
102.2284

> <PUBCHEM_FEATURE_SELFOVERLAP>
66.206

> <PUBCHEM_SHAPE_FINGERPRINT>
10 15 17560798806286535240
10165383 225 17822284713175115931
10366900 7 18187942693548778865
11552529 35 17096385946553361039
11578080 2 14979133520892883351
11796584 16 16225766307536363390
12166972 35 5472846074159443545
12236239 1 18408601461307051905
12293681 4 16732976535803183737
12553582 1 18130238102635124169
12596602 18 16558751226148753792
12616971 3 18340777013528785666
12633257 1 17749396974577695931
12788726 201 18189053260628447920
128620 24 15482673498084667280
13224815 77 18343028795756211979
13583140 156 15841284661465579927
13631057 29 15912756181662333275
13726171 33 18130505357070940176
13782708 43 15430610432977788631
13914758 101 6050173190143994979
14251758 9 14273450384218550928
14341114 176 17918269878686999448
14790565 3 18343295981445774748
14840074 17 18413952780188925309
14856354 85 17531242838008626692
14955137 171 18271794722816291588
15183329 4 15719386261496848784
15209289 33 18335424551584303347
15238133 3 17168132468873693913
15788980 27 18272092712158065558
1601671 61 17967252014114495778
17349148 13 10447924001207867330
17857418 61 7781523594743890356
19377110 9 13686300192306437032
19489759 90 14129059231329404947
200 152 11887949943768738379
21033648 29 18338813280891942248
22079108 93 16200145474711457480
23198884 109 16950284018243447481
23402539 116 18272375273845852854
23522609 53 18189874496903755672
23559900 14 17604446106061968792
350125 39 18342453729626559409
4325135 7 16630518540257709320
4340502 62 15339119039817685928
5104073 3 17988932223040823672
542803 24 18333449850439190258
633830 44 16588320362416031840
6913067 236 13183021796150501760

> <PUBCHEM_SHAPE_MULTIPOLES>
561.59
12.91
2.02
1.68
9.81
0.09
-0.03
-2.34
-0.02
-0.44
0.47
-1.38
0.18
-0.47

> <PUBCHEM_SHAPE_SELFOVERLAP>
1226.169

> <PUBCHEM_SHAPE_VOLUME>
302

> <PUBCHEM_COORDINATE_TYPE>
2
5
10

$$$$

