17395379
  -OEChem-06241222492D

 42 44  0     1  0  0  0  0  0999 V2000
    4.8198   -1.1739    0.0000 S   0  0  0  0  0  0  0  0  0  0  0  0
    6.6321   -3.9787    0.0000 S   0  0  0  0  0  0  0  0  0  0  0  0
    4.8198    0.8261    0.0000 O   0  0  0  0  0  0  0  0  0  0  0  0
    3.5878    3.3649    0.0000 O   0  0  0  0  0  0  0  0  0  0  0  0
    3.0878    0.8261    0.0000 N   0  0  0  0  0  0  0  0  0  0  0  0
    3.9538   -2.6739    0.0000 N   0  0  0  0  0  0  0  0  0  0  0  0
    4.8198   -4.1739    0.0000 N   0  0  0  0  0  0  0  0  0  0  0  0
    3.8968    2.4139    0.0000 N   0  0  0  0  0  0  0  0  0  0  0  0
    3.9538   -0.6739    0.0000 C   0  0  3  0  0  0  0  0  0  0  0  0
    5.6859   -2.6739    0.0000 C   0  0  0  0  0  0  0  0  0  0  0  0
    3.0878   -1.1739    0.0000 C   0  0  0  0  0  0  0  0  0  0  0  0
    6.6321   -2.3692    0.0000 C   0  0  0  0  0  0  0  0  0  0  0  0
    4.8198   -2.1739    0.0000 C   0  0  0  0  0  0  0  0  0  0  0  0
    7.2157   -3.1739    0.0000 C   0  0  0  0  0  0  0  0  0  0  0  0
    5.6859   -3.6739    0.0000 C   0  0  0  0  0  0  0  0  0  0  0  0
    3.9538    0.3261    0.0000 C   0  0  0  0  0  0  0  0  0  0  0  0
    2.2218   -0.6739    0.0000 C   0  0  0  0  0  0  0  0  0  0  0  0
    6.9427   -1.4187    0.0000 C   0  0  0  0  0  0  0  0  0  0  0  0
    8.2157   -3.1739    0.0000 C   0  0  0  0  0  0  0  0  0  0  0  0
    3.0878    1.8261    0.0000 C   0  0  0  0  0  0  0  0  0  0  0  0
    3.9538   -3.6739    0.0000 C   0  0  0  0  0  0  0  0  0  0  0  0
    2.2788    2.4139    0.0000 C   0  0  0  0  0  0  0  0  0  0  0  0
    2.5878    3.3649    0.0000 C   0  0  0  0  0  0  0  0  0  0  0  0
    2.0000    4.1739    0.0000 C   0  0  0  0  0  0  0  0  0  0  0  0
    3.9538   -1.2939    0.0000 H   0  0  0  0  0  0  0  0  0  0  0  0
    2.6893   -1.6489    0.0000 H   0  0  0  0  0  0  0  0  0  0  0  0
    3.4863   -1.6489    0.0000 H   0  0  0  0  0  0  0  0  0  0  0  0
    2.5318   -0.1370    0.0000 H   0  0  0  0  0  0  0  0  0  0  0  0
    1.6848   -0.3639    0.0000 H   0  0  0  0  0  0  0  0  0  0  0  0
    1.9118   -1.2109    0.0000 H   0  0  0  0  0  0  0  0  0  0  0  0
    7.5321   -1.6113    0.0000 H   0  0  0  0  0  0  0  0  0  0  0  0
    7.1354   -0.8294    0.0000 H   0  0  0  0  0  0  0  0  0  0  0  0
    6.3534   -1.2261    0.0000 H   0  0  0  0  0  0  0  0  0  0  0  0
    8.2157   -3.7939    0.0000 H   0  0  0  0  0  0  0  0  0  0  0  0
    8.8357   -3.1739    0.0000 H   0  0  0  0  0  0  0  0  0  0  0  0
    8.2157   -2.5539    0.0000 H   0  0  0  0  0  0  0  0  0  0  0  0
    2.5508    0.5161    0.0000 H   0  0  0  0  0  0  0  0  0  0  0  0
    3.4169   -3.9839    0.0000 H   0  0  0  0  0  0  0  0  0  0  0  0
    1.6891    2.2223    0.0000 H   0  0  0  0  0  0  0  0  0  0  0  0
    2.5016    4.5384    0.0000 H   0  0  0  0  0  0  0  0  0  0  0  0
    1.6356    4.6755    0.0000 H   0  0  0  0  0  0  0  0  0  0  0  0
    1.4984    3.8095    0.0000 H   0  0  0  0  0  0  0  0  0  0  0  0
  1  9  1  0  0  0  0
  1 13  1  0  0  0  0
  2 14  1  0  0  0  0
  2 15  1  0  0  0  0
  3 16  2  0  0  0  0
  4  8  1  0  0  0  0
  4 23  1  0  0  0  0
  5 16  1  0  0  0  0
  5 20  1  0  0  0  0
  5 37  1  0  0  0  0
  6 13  2  0  0  0  0
  6 21  1  0  0  0  0
  7 15  1  0  0  0  0
  7 21  2  0  0  0  0
  8 20  2  0  0  0  0
  9 11  1  0  0  0  0
  9 16  1  0  0  0  0
  9 25  1  0  0  0  0
 10 12  1  0  0  0  0
 10 13  1  0  0  0  0
 10 15  2  0  0  0  0
 11 17  1  0  0  0  0
 11 26  1  0  0  0  0
 11 27  1  0  0  0  0
 12 14  2  0  0  0  0
 12 18  1  0  0  0  0
 14 19  1  0  0  0  0
 17 28  1  0  0  0  0
 17 29  1  0  0  0  0
 17 30  1  0  0  0  0
 18 31  1  0  0  0  0
 18 32  1  0  0  0  0
 18 33  1  0  0  0  0
 19 34  1  0  0  0  0
 19 35  1  0  0  0  0
 19 36  1  0  0  0  0
 20 22  1  0  0  0  0
 21 38  1  0  0  0  0
 22 23  2  0  0  0  0
 22 39  1  0  0  0  0
 23 24  1  0  0  0  0
 24 40  1  0  0  0  0
 24 41  1  0  0  0  0
 24 42  1  0  0  0  0
M  END
> <PUBCHEM_COMPOUND_CID>
17395379

> <PUBCHEM_COMPOUND_CANONICALIZED>
1

> <PUBCHEM_CACTVS_COMPLEXITY>
456

> <PUBCHEM_CACTVS_HBOND_ACCEPTOR>
7

> <PUBCHEM_CACTVS_HBOND_DONOR>
1

> <PUBCHEM_CACTVS_ROTATABLE_BOND>
5

> <PUBCHEM_CACTVS_SUBSKEYS>
AAADceB7sABgAAAAAAAAAAAAAAAAAWJAAAAsAAAAAAAAAFgB/gAAHgQUAAAADASF2gS3tdbYEAitAqNzdgCD0Kl1Krgh2DE+bNqILDrg2dGEBIxqlQroyGYQAAAOgAAAAAAAAAAAAAAAAAAAAAAAAAAAAA==

> <PUBCHEM_IUPAC_OPENEYE_NAME>
2-(5,6-dimethylthieno[2,3-d]pyrimidin-4-yl)sulfanyl-N-(5-methylisoxazol-3-yl)butanamide

> <PUBCHEM_IUPAC_CAS_NAME>
2-[(5,6-dimethyl-4-thieno[2,3-d]pyrimidinyl)thio]-N-(5-methyl-3-isoxazolyl)butanamide

> <PUBCHEM_IUPAC_NAME>
2-(5,6-dimethylthieno[2,3-d]pyrimidin-4-yl)sulfanyl-N-(5-methyl-1,2-oxazol-3-yl)butanamide

> <PUBCHEM_IUPAC_SYSTEMATIC_NAME>
2-(5,6-dimethylthieno[2,3-d]pyrimidin-4-yl)sulfanyl-N-(5-methyl-1,2-oxazol-3-yl)butanamide

> <PUBCHEM_IUPAC_TRADITIONAL_NAME>
2-[(5,6-dimethylthieno[2,3-d]pyrimidin-4-yl)thio]-N-(5-methylisoxazol-3-yl)butyramide

> <PUBCHEM_IUPAC_INCHI>
InChI=1S/C16H18N4O2S2/c1-5-11(14(21)19-12-6-8(2)22-20-12)24-16-13-9(3)10(4)23-15(13)17-7-18-16/h6-7,11H,5H2,1-4H3,(H,19,20,21)

> <PUBCHEM_IUPAC_INCHIKEY>
AMTSLFQOOFHUCH-UHFFFAOYSA-N

> <PUBCHEM_XLOGP3_AA>
4.2

> <PUBCHEM_EXACT_MASS>
362.087118

> <PUBCHEM_MOLECULAR_FORMULA>
C16H18N4O2S2

> <PUBCHEM_MOLECULAR_WEIGHT>
362.46972

> <PUBCHEM_OPENEYE_CAN_SMILES>
CCC(C(=O)NC1=NOC(=C1)C)SC2=NC=NC3=C2C(=C(S3)C)C

> <PUBCHEM_OPENEYE_ISO_SMILES>
CCC(C(=O)NC1=NOC(=C1)C)SC2=NC=NC3=C2C(=C(S3)C)C

> <PUBCHEM_CACTVS_TPSA>
134

> <PUBCHEM_MONOISOTOPIC_WEIGHT>
362.087118

> <PUBCHEM_TOTAL_CHARGE>
0

> <PUBCHEM_HEAVY_ATOM_COUNT>
24

> <PUBCHEM_ATOM_DEF_STEREO_COUNT>
0

> <PUBCHEM_ATOM_UDEF_STEREO_COUNT>
1

> <PUBCHEM_BOND_DEF_STEREO_COUNT>
0

> <PUBCHEM_BOND_UDEF_STEREO_COUNT>
0

> <PUBCHEM_ISOTOPIC_ATOM_COUNT>
0

> <PUBCHEM_COMPONENT_COUNT>
1

> <PUBCHEM_CACTVS_TAUTO_COUNT>
10

> <PUBCHEM_COORDINATE_TYPE>
1
5
255

> <PUBCHEM_BONDANNOTATIONS>
10  12  8
10  13  8
10  15  8
12  14  8
2  14  8
2  15  8
20  22  8
22  23  8
4  23  8
4  8  8
6  13  8
6  21  8
7  15  8
7  21  8
8  20  8
9  11  3

$$$$

