8220
  -OEChem-06261202393D

 52 51  0     0  0  0  0  0  0999 V2000
   -4.0898    0.6822    1.3122 N   0  0  0  0  0  0  0  0  0  0  0  0
    1.2359    2.2471    0.3647 C   0  0  0  0  0  0  0  0  0  0  0  0
    1.7893    1.5323    1.6018 C   0  0  0  0  0  0  0  0  0  0  0  0
   -0.2659    1.9974    0.2029 C   0  0  0  0  0  0  0  0  0  0  0  0
    3.2980    1.7391    1.7820 C   0  0  0  0  0  0  0  0  0  0  0  0
    0.8744   -2.2373   -0.2836 C   0  0  0  0  0  0  0  0  0  0  0  0
   -0.5798   -2.5790   -0.6254 C   0  0  0  0  0  0  0  0  0  0  0  0
    1.8629   -2.6162   -1.3908 C   0  0  0  0  0  0  0  0  0  0  0  0
   -0.8662    2.6738   -1.0340 C   0  0  0  0  0  0  0  0  0  0  0  0
   -1.6261   -2.1518    0.4093 C   0  0  0  0  0  0  0  0  0  0  0  0
    4.1587    1.2308    0.6192 C   0  0  0  0  0  0  0  0  0  0  0  0
    3.3179   -2.2690   -1.0583 C   0  0  0  0  0  0  0  0  0  0  0  0
   -2.3607    2.4414   -1.2643 C   0  0  0  0  0  0  0  0  0  0  0  0
   -3.0882   -2.4304    0.0372 C   0  0  0  0  0  0  0  0  0  0  0  0
    3.9450   -0.2306    0.3463 C   0  0  0  0  0  0  0  0  0  0  0  0
    3.5298   -0.8075   -0.7912 C   0  0  0  0  0  0  0  0  0  0  0  0
   -4.1227   -1.9335    1.0486 C   0  0  0  0  0  0  0  0  0  0  0  0
   -2.9097    3.1831   -2.4716 C   0  0  0  0  0  0  0  0  0  0  0  0
   -4.1027   -0.4721    1.1950 C   0  0  0  0  0  0  0  0  0  0  0  0
    1.4248    3.3242    0.4455 H   0  0  0  0  0  0  0  0  0  0  0  0
    1.7415    1.8956   -0.5405 H   0  0  0  0  0  0  0  0  0  0  0  0
    1.2803    1.9181    2.4940 H   0  0  0  0  0  0  0  0  0  0  0  0
    1.5575    0.4627    1.5567 H   0  0  0  0  0  0  0  0  0  0  0  0
   -0.4463    0.9198    0.1342 H   0  0  0  0  0  0  0  0  0  0  0  0
   -0.7937    2.3522    1.0965 H   0  0  0  0  0  0  0  0  0  0  0  0
    3.6080    1.2369    2.7074 H   0  0  0  0  0  0  0  0  0  0  0  0
    3.5010    2.8074    1.9271 H   0  0  0  0  0  0  0  0  0  0  0  0
    1.1545   -2.7445    0.6475 H   0  0  0  0  0  0  0  0  0  0  0  0
    0.9312   -1.1614   -0.0911 H   0  0  0  0  0  0  0  0  0  0  0  0
   -0.8320   -2.1077   -1.5840 H   0  0  0  0  0  0  0  0  0  0  0  0
   -0.6624   -3.6617   -0.7825 H   0  0  0  0  0  0  0  0  0  0  0  0
    1.5737   -2.1108   -2.3211 H   0  0  0  0  0  0  0  0  0  0  0  0
    1.7943   -3.6937   -1.5842 H   0  0  0  0  0  0  0  0  0  0  0  0
   -0.6862    3.7541   -0.9600 H   0  0  0  0  0  0  0  0  0  0  0  0
   -0.3195    2.3312   -1.9219 H   0  0  0  0  0  0  0  0  0  0  0  0
   -1.5013   -1.0796    0.5937 H   0  0  0  0  0  0  0  0  0  0  0  0
   -1.4037   -2.6534    1.3596 H   0  0  0  0  0  0  0  0  0  0  0  0
    3.9748    1.8256   -0.2822 H   0  0  0  0  0  0  0  0  0  0  0  0
    5.2150    1.3812    0.8733 H   0  0  0  0  0  0  0  0  0  0  0  0
    3.6401   -2.8612   -0.1931 H   0  0  0  0  0  0  0  0  0  0  0  0
    3.9576   -2.5662   -1.8976 H   0  0  0  0  0  0  0  0  0  0  0  0
   -2.5453    1.3678   -1.3876 H   0  0  0  0  0  0  0  0  0  0  0  0
   -2.9140    2.7632   -0.3748 H   0  0  0  0  0  0  0  0  0  0  0  0
   -3.2161   -3.5126   -0.0892 H   0  0  0  0  0  0  0  0  0  0  0  0
   -3.2945   -1.9757   -0.9406 H   0  0  0  0  0  0  0  0  0  0  0  0
    4.1659   -0.8885    1.1859 H   0  0  0  0  0  0  0  0  0  0  0  0
    3.3160   -0.1524   -1.6345 H   0  0  0  0  0  0  0  0  0  0  0  0
   -5.1201   -2.2506    0.7233 H   0  0  0  0  0  0  0  0  0  0  0  0
   -3.9402   -2.4041    2.0214 H   0  0  0  0  0  0  0  0  0  0  0  0
   -2.7757    4.2638   -2.3607 H   0  0  0  0  0  0  0  0  0  0  0  0
   -2.4019    2.8665   -3.3880 H   0  0  0  0  0  0  0  0  0  0  0  0
   -3.9793    2.9823   -2.5874 H   0  0  0  0  0  0  0  0  0  0  0  0
  1 19  3  0  0  0  0
  2  3  1  0  0  0  0
  2  4  1  0  0  0  0
  2 20  1  0  0  0  0
  2 21  1  0  0  0  0
  3  5  1  0  0  0  0
  3 22  1  0  0  0  0
  3 23  1  0  0  0  0
  4  9  1  0  0  0  0
  4 24  1  0  0  0  0
  4 25  1  0  0  0  0
  5 11  1  0  0  0  0
  5 26  1  0  0  0  0
  5 27  1  0  0  0  0
  6  7  1  0  0  0  0
  6  8  1  0  0  0  0
  6 28  1  0  0  0  0
  6 29  1  0  0  0  0
  7 10  1  0  0  0  0
  7 30  1  0  0  0  0
  7 31  1  0  0  0  0
  8 12  1  0  0  0  0
  8 32  1  0  0  0  0
  8 33  1  0  0  0  0
  9 13  1  0  0  0  0
  9 34  1  0  0  0  0
  9 35  1  0  0  0  0
 10 14  1  0  0  0  0
 10 36  1  0  0  0  0
 10 37  1  0  0  0  0
 11 15  1  0  0  0  0
 11 38  1  0  0  0  0
 11 39  1  0  0  0  0
 12 16  1  0  0  0  0
 12 40  1  0  0  0  0
 12 41  1  0  0  0  0
 13 18  1  0  0  0  0
 13 42  1  0  0  0  0
 13 43  1  0  0  0  0
 14 17  1  0  0  0  0
 14 44  1  0  0  0  0
 14 45  1  0  0  0  0
 15 16  2  0  0  0  0
 15 46  1  0  0  0  0
 16 47  1  0  0  0  0
 17 19  1  0  0  0  0
 17 48  1  0  0  0  0
 17 49  1  0  0  0  0
 18 50  1  0  0  0  0
 18 51  1  0  0  0  0
 18 52  1  0  0  0  0
M  END
> <PUBCHEM_COMPOUND_CID>
8220

> <PUBCHEM_CONFORMER_RMSD>
1.4

> <PUBCHEM_CONFORMER_DIVERSEORDER>
1
3
107
50
25
89
31
109
27
74
33
83
134
85
81
24
4
64
59
79
136
49
60
56
70
55
35
17
121
127
123
76
105
65
34
112
30
19
135
90
120
114
99
92
12
66
9
68
129
80
47
108
84
13
94
62
45
58
61
20
54
6
53
39
77
111
48
71
88
46
102
57
42
118
18
73
15
10
103
5
28
40
115
97
124
51
75
29
67
133
41
130
91
32
2
69
113
82
7
98
78
72
126
104
96
21
63
52
37
100
44
43
87
38
11
23
22
125
106
26
101
36
132
8
14
131
110
128
16
95
117
93
86
119
122
116

> <PUBCHEM_MMFF94_PARTIAL_CHARGES>
9
1 -0.56
11 0.14
12 0.14
15 -0.29
16 -0.29
17 0.2
19 0.36
46 0.15
47 0.15

> <PUBCHEM_EFFECTIVE_ROTOR_COUNT>
14

> <PUBCHEM_PHARMACOPHORE_FEATURES>
2
1 1 acceptor
1 18 hydrophobe

> <PUBCHEM_HEAVY_ATOM_COUNT>
19

> <PUBCHEM_ATOM_DEF_STEREO_COUNT>
0

> <PUBCHEM_ATOM_UDEF_STEREO_COUNT>
0

> <PUBCHEM_BOND_DEF_STEREO_COUNT>
0

> <PUBCHEM_BOND_UDEF_STEREO_COUNT>
1

> <PUBCHEM_ISOTOPIC_ATOM_COUNT>
0

> <PUBCHEM_COMPONENT_COUNT>
1

> <PUBCHEM_CACTVS_TAUTO_COUNT>
1

> <PUBCHEM_CONFORMER_ID>
0000201C00000001

> <PUBCHEM_MMFF94_ENERGY>
-0.6953

> <PUBCHEM_FEATURE_SELFOVERLAP>
10.148

> <PUBCHEM_SHAPE_FINGERPRINT>
10688039 33 18201721695642151662
10708813 3 18042104523270148843
11595378 159 17775286083823622211
12422481 6 18261690207284328754
13075007 39 17912057492357349283
13402501 40 18409161142848571531
14251757 17 18337674246874478665
144659 39 18196397963941896048
17859628 37 18189046500254906518
238 59 17974308799594620652
3524813 1 18336539516646893358
437795 51 17979358883099728469
5047190 48 17977105660913207544
508706 21 18343025527475965039

> <PUBCHEM_SHAPE_MULTIPOLES>
386.03
8.61
4.79
1.86
1.11
0.51
0.35
-0.96
-2.42
2.09
2.21
0.68
1.24
4.09

> <PUBCHEM_SHAPE_SELFOVERLAP>
702.623

> <PUBCHEM_SHAPE_VOLUME>
243.3

> <PUBCHEM_COORDINATE_TYPE>
2
5
10

$$$$

