47205599
  -OEChem-06241222593D

 38 39  0     0  0  0  0  0  0999 V2000
    2.3693    0.9535    1.3368 O   0  0  0  0  0  0  0  0  0  0  0  0
   -0.1118   -0.9188   -0.5849 O   0  0  0  0  0  0  0  0  0  0  0  0
    1.8078    1.0124   -0.9170 N   0  0  0  0  0  0  0  0  0  0  0  0
    0.4913    1.3087   -0.6696 N   0  0  0  0  0  0  0  0  0  0  0  0
   -1.7013    0.7801   -0.2721 N   0  0  0  0  0  0  0  0  0  0  0  0
    4.0749    0.5706   -0.2859 C   0  0  0  0  0  0  0  0  0  0  0  0
    4.1376   -0.7565   -1.0506 C   0  0  0  0  0  0  0  0  0  0  0  0
    4.9932    0.4095    0.9265 C   0  0  0  0  0  0  0  0  0  0  0  0
    5.1659   -1.6112   -0.3176 C   0  0  0  0  0  0  0  0  0  0  0  0
    5.1279   -1.0954    1.1096 C   0  0  0  0  0  0  0  0  0  0  0  0
    2.6694    0.8536    0.1493 C   0  0  0  0  0  0  0  0  0  0  0  0
   -0.4239    0.2679   -0.5127 C   0  0  0  0  0  0  0  0  0  0  0  0
   -2.9003    0.0612   -0.0594 C   0  0  0  0  0  0  0  0  0  0  0  0
   -4.1035    0.7284    0.1694 C   0  0  0  0  0  0  0  0  0  0  0  0
   -2.8690   -1.3331   -0.0803 C   0  0  0  0  0  0  0  0  0  0  0  0
   -5.2755    0.0014    0.3772 C   0  0  0  0  0  0  0  0  0  0  0  0
   -4.1667    2.2212    0.1975 C   0  0  0  0  0  0  0  0  0  0  0  0
   -4.0410   -2.0604    0.1274 C   0  0  0  0  0  0  0  0  0  0  0  0
   -5.2443   -1.3931    0.3562 C   0  0  0  0  0  0  0  0  0  0  0  0
    4.4129    1.4073   -0.9089 H   0  0  0  0  0  0  0  0  0  0  0  0
    5.9798    0.8232    0.6793 H   0  0  0  0  0  0  0  0  0  0  0  0
    4.6659    0.9067    1.8439 H   0  0  0  0  0  0  0  0  0  0  0  0
    3.1742   -1.2802   -1.0626 H   0  0  0  0  0  0  0  0  0  0  0  0
    4.4362   -0.6038   -2.0934 H   0  0  0  0  0  0  0  0  0  0  0  0
    4.9394   -2.6795   -0.3818 H   0  0  0  0  0  0  0  0  0  0  0  0
    4.2540   -1.4952    1.6371 H   0  0  0  0  0  0  0  0  0  0  0  0
    6.0250   -1.3667    1.6732 H   0  0  0  0  0  0  0  0  0  0  0  0
    6.1610   -1.4500   -0.7494 H   0  0  0  0  0  0  0  0  0  0  0  0
    2.0872    0.9465   -1.8901 H   0  0  0  0  0  0  0  0  0  0  0  0
    0.2395    2.2895   -0.6178 H   0  0  0  0  0  0  0  0  0  0  0  0
   -1.7711    1.7931   -0.2476 H   0  0  0  0  0  0  0  0  0  0  0  0
   -1.9822   -1.9261   -0.2498 H   0  0  0  0  0  0  0  0  0  0  0  0
   -6.2218    0.5048    0.5569 H   0  0  0  0  0  0  0  0  0  0  0  0
   -5.1839    2.5810    0.3884 H   0  0  0  0  0  0  0  0  0  0  0  0
   -3.8528    2.6380   -0.7652 H   0  0  0  0  0  0  0  0  0  0  0  0
   -3.5294    2.6186    0.9944 H   0  0  0  0  0  0  0  0  0  0  0  0
   -4.0182   -3.1462    0.1114 H   0  0  0  0  0  0  0  0  0  0  0  0
   -6.1569   -1.9594    0.5180 H   0  0  0  0  0  0  0  0  0  0  0  0
  1 11  2  0  0  0  0
  2 12  2  0  0  0  0
  3  4  1  0  0  0  0
  3 11  1  0  0  0  0
  3 29  1  0  0  0  0
  4 12  1  0  0  0  0
  4 30  1  0  0  0  0
  5 12  1  0  0  0  0
  5 13  1  0  0  0  0
  5 31  1  0  0  0  0
  6  7  1  0  0  0  0
  6  8  1  0  0  0  0
  6 11  1  0  0  0  0
  6 20  1  0  0  0  0
  7  9  1  0  0  0  0
  7 23  1  0  0  0  0
  7 24  1  0  0  0  0
  8 10  1  0  0  0  0
  8 21  1  0  0  0  0
  8 22  1  0  0  0  0
  9 10  1  0  0  0  0
  9 25  1  0  0  0  0
  9 28  1  0  0  0  0
 10 26  1  0  0  0  0
 10 27  1  0  0  0  0
 13 14  1  0  0  0  0
 13 15  2  0  0  0  0
 14 16  2  0  0  0  0
 14 17  1  0  0  0  0
 15 18  1  0  0  0  0
 15 32  1  0  0  0  0
 16 19  1  0  0  0  0
 16 33  1  0  0  0  0
 17 34  1  0  0  0  0
 17 35  1  0  0  0  0
 17 36  1  0  0  0  0
 18 19  2  0  0  0  0
 18 37  1  0  0  0  0
 19 38  1  0  0  0  0
M  END
> <PUBCHEM_COMPOUND_CID>
47205599

> <PUBCHEM_CONFORMER_RMSD>
0.8

> <PUBCHEM_CONFORMER_DIVERSEORDER>
1
46
9
22
42
54
34
2
19
48
17
76
72
51
8
4
71
56
62
25
26
41
23
66
47
58
10
52
6
64
45
16
59
60
67
39
12
37
30
24
44
20
35
74
11
14
21
65
33
32
5
28
15
63
49
75
69
61
55
29
43
50
3
13
36
31
40
38
7
18
53
68
70
73
57
27

> <PUBCHEM_MMFF94_PARTIAL_CHARGES>
22
1 -0.57
11 0.57
12 0.69
13 0.12
14 -0.14
15 -0.15
16 -0.15
17 0.14
18 -0.15
19 -0.15
2 -0.57
29 0.37
3 -0.43
30 0.37
31 0.37
32 0.15
33 0.15
37 0.15
38 0.15
4 -0.43
5 -0.55
6 0.06

> <PUBCHEM_EFFECTIVE_ROTOR_COUNT>
7

> <PUBCHEM_PHARMACOPHORE_FEATURES>
7
1 1 acceptor
1 2 acceptor
1 3 donor
1 4 donor
1 5 donor
5 6 7 8 9 10 rings
6 13 14 15 16 18 19 rings

> <PUBCHEM_HEAVY_ATOM_COUNT>
19

> <PUBCHEM_ATOM_DEF_STEREO_COUNT>
0

> <PUBCHEM_ATOM_UDEF_STEREO_COUNT>
0

> <PUBCHEM_BOND_DEF_STEREO_COUNT>
0

> <PUBCHEM_BOND_UDEF_STEREO_COUNT>
0

> <PUBCHEM_ISOTOPIC_ATOM_COUNT>
0

> <PUBCHEM_COMPONENT_COUNT>
1

> <PUBCHEM_CACTVS_TAUTO_COUNT>
6

> <PUBCHEM_CONFORMER_ID>
02D04CDF00000001

> <PUBCHEM_MMFF94_ENERGY>
46.1495

> <PUBCHEM_FEATURE_SELFOVERLAP>
37.119

> <PUBCHEM_SHAPE_FINGERPRINT>
10014705 185 7853581201487378415
11128504 68 16271920506919095486
11405975 8 18333730200045078065
11545043 162 18335141994550140857
11796584 16 18409449232375630882
12107183 9 17908989046986897849
12236239 1 17846497015664802933
12507557 5 15574720162155296985
12596602 18 18334016086232484736
12670546 177 10592047959438097635
13167823 11 18342458123166853211
13533116 47 18270397166485998121
13551218 46 18411981377421238551
13675066 3 18040999535596019180
13914758 101 18272661156134216671
14251764 18 18410573964061710590
14341114 176 18334571334829723209
14420673 8 18339356499823796374
14528608 73 9151169853085758434
15188451 53 18335711490207989207
15256400 18 18409163329134676871
15348495 7 18041002808292384378
15788980 27 18131628989239272917
15885798 251 18342458153648622204
17834072 33 18130501951229640884
17844677 252 18410287004079999328
17857418 61 18272093789920790571
17959699 21 8718833093478104014
1813 80 17346596383031419686
18222031 100 17418096490071889197
19489759 90 18261112985122744961
20871999 31 10303808770404124921
21033648 29 17458357354791354545
22061861 79 14189580749368726762
22950370 63 18060418027834376956
23402539 116 18409452458444547277
23522609 53 17843936334862756484
23559900 14 18338241458079367001
23590187 198 18272650138941786723
239999 70 18335135398155613782
2767999 5 5617252611299755186
2916195 48 8718536203900613478
3004659 81 18201715163761603702
351380 3 17704356584636895106
42 15 18408602552307898860
4214541 1 18411135857500922693
465052 167 17988918951138145722
5104073 3 18408601444122155416
559249 180 18272655679618384123
573450 72 18341894086934872073
5924683 9 17604720950031505615
960060 61 16845568708578875294

> <PUBCHEM_SHAPE_MULTIPOLES>
364.33
14.73
1.88
0.96
2.92
0.16
-0.1
4.04
-2.74
-1.49
-0.04
1.05
-0.02
0.18

> <PUBCHEM_SHAPE_SELFOVERLAP>
760.143

> <PUBCHEM_SHAPE_VOLUME>
207

> <PUBCHEM_COORDINATE_TYPE>
2
5
10

$$$$

