47205605
  -OEChem-06241222593D

 35 35  0     0  0  0  0  0  0999 V2000
    6.0675    1.7712    0.2918 Cl  0  0  0  0  0  0  0  0  0  0  0  0
   -3.3616   -0.4079    1.3761 O   0  0  0  0  0  0  0  0  0  0  0  0
   -0.6185    0.8156   -0.7101 O   0  0  0  0  0  0  0  0  0  0  0  0
   -2.7627   -0.8120   -0.8300 N   0  0  0  0  0  0  0  0  0  0  0  0
    0.8346   -0.9630   -0.2159 N   0  0  0  0  0  0  0  0  0  0  0  0
   -4.8763    0.2489   -0.3948 C   0  0  0  0  0  0  0  0  0  0  0  0
   -5.8140    0.7634    0.6935 C   0  0  0  0  0  0  0  0  0  0  0  0
    2.0912   -0.3241   -0.0908 C   0  0  0  0  0  0  0  0  0  0  0  0
   -1.4865   -1.4243   -0.5462 C   0  0  0  0  0  0  0  0  0  0  0  0
   -3.6021   -0.3499    0.1731 C   0  0  0  0  0  0  0  0  0  0  0  0
    3.2402   -1.0577    0.2048 C   0  0  0  0  0  0  0  0  0  0  0  0
   -0.3925   -0.3726   -0.5058 C   0  0  0  0  0  0  0  0  0  0  0  0
   -7.0961    1.3278    0.1038 C   0  0  0  0  0  0  0  0  0  0  0  0
    2.1721    1.0571   -0.2680 C   0  0  0  0  0  0  0  0  0  0  0  0
    4.4699   -0.4102    0.3228 C   0  0  0  0  0  0  0  0  0  0  0  0
    3.1824   -2.5381    0.4002 C   0  0  0  0  0  0  0  0  0  0  0  0
    3.4017    1.7047   -0.1500 C   0  0  0  0  0  0  0  0  0  0  0  0
    4.5507    0.9710    0.1455 C   0  0  0  0  0  0  0  0  0  0  0  0
   -5.3802   -0.5225   -0.9895 H   0  0  0  0  0  0  0  0  0  0  0  0
   -4.6001    1.0682   -1.0693 H   0  0  0  0  0  0  0  0  0  0  0  0
   -5.3122    1.5406    1.2822 H   0  0  0  0  0  0  0  0  0  0  0  0
   -6.0634   -0.0482    1.3875 H   0  0  0  0  0  0  0  0  0  0  0  0
   -1.5294   -1.9475    0.4146 H   0  0  0  0  0  0  0  0  0  0  0  0
   -1.2741   -2.1408   -1.3455 H   0  0  0  0  0  0  0  0  0  0  0  0
   -3.0372   -0.7049   -1.8023 H   0  0  0  0  0  0  0  0  0  0  0  0
    0.8333   -1.9700   -0.0774 H   0  0  0  0  0  0  0  0  0  0  0  0
   -7.6390    0.5624   -0.4600 H   0  0  0  0  0  0  0  0  0  0  0  0
   -7.7520    1.6916    0.9009 H   0  0  0  0  0  0  0  0  0  0  0  0
   -6.8831    2.1645   -0.5693 H   0  0  0  0  0  0  0  0  0  0  0  0
    1.3333    1.6977   -0.4979 H   0  0  0  0  0  0  0  0  0  0  0  0
    5.3677   -0.9793    0.5533 H   0  0  0  0  0  0  0  0  0  0  0  0
    2.5261   -2.7904    1.2397 H   0  0  0  0  0  0  0  0  0  0  0  0
    2.8227   -3.0327   -0.5082 H   0  0  0  0  0  0  0  0  0  0  0  0
    4.1694   -2.9571    0.6257 H   0  0  0  0  0  0  0  0  0  0  0  0
    3.4511    2.7816   -0.2904 H   0  0  0  0  0  0  0  0  0  0  0  0
  1 18  1  0  0  0  0
  2 10  2  0  0  0  0
  3 12  2  0  0  0  0
  4  9  1  0  0  0  0
  4 10  1  0  0  0  0
  4 25  1  0  0  0  0
  5  8  1  0  0  0  0
  5 12  1  0  0  0  0
  5 26  1  0  0  0  0
  6  7  1  0  0  0  0
  6 10  1  0  0  0  0
  6 19  1  0  0  0  0
  6 20  1  0  0  0  0
  7 13  1  0  0  0  0
  7 21  1  0  0  0  0
  7 22  1  0  0  0  0
  8 11  2  0  0  0  0
  8 14  1  0  0  0  0
  9 12  1  0  0  0  0
  9 23  1  0  0  0  0
  9 24  1  0  0  0  0
 11 15  1  0  0  0  0
 11 16  1  0  0  0  0
 13 27  1  0  0  0  0
 13 28  1  0  0  0  0
 13 29  1  0  0  0  0
 14 17  2  0  0  0  0
 14 30  1  0  0  0  0
 15 18  2  0  0  0  0
 15 31  1  0  0  0  0
 16 32  1  0  0  0  0
 16 33  1  0  0  0  0
 16 34  1  0  0  0  0
 17 18  1  0  0  0  0
 17 35  1  0  0  0  0
M  END
> <PUBCHEM_COMPOUND_CID>
47205605

> <PUBCHEM_CONFORMER_RMSD>
0.8

> <PUBCHEM_CONFORMER_DIVERSEORDER>
1
62
18
118
82
112
89
27
109
2
68
100
115
36
69
92
66
71
122
55
25
20
120
113
65
102
15
56
44
60
30
103
116
9
87
41
21
119
58
52
95
79
72
31
34
37
114
81
50
77
121
85
17
86
7
13
43
3
51
32
26
33
8
107
40
88
16
59
84
90
22
12
35
49
67
98
39
29
91
117
57
10
104
11
74
45
54
63
110
80
96
97
94
101
78
38
14
76
83
24
108
73
64
111
5
19
46
61
48
23
70
6
47
28
4
53
42
106
75
93
99
105

> <PUBCHEM_MMFF94_PARTIAL_CHARGES>
21
1 -0.18
10 0.57
11 -0.14
12 0.57
14 -0.15
15 -0.15
16 0.14
17 -0.15
18 0.18
2 -0.57
25 0.37
26 0.37
3 -0.57
30 0.15
31 0.15
35 0.15
4 -0.73
5 -0.55
6 0.06
8 0.12
9 0.36

> <PUBCHEM_EFFECTIVE_ROTOR_COUNT>
7

> <PUBCHEM_PHARMACOPHORE_FEATURES>
6
1 13 hydrophobe
1 2 acceptor
1 3 acceptor
1 4 donor
1 5 donor
6 8 11 14 15 17 18 rings

> <PUBCHEM_HEAVY_ATOM_COUNT>
18

> <PUBCHEM_ATOM_DEF_STEREO_COUNT>
0

> <PUBCHEM_ATOM_UDEF_STEREO_COUNT>
0

> <PUBCHEM_BOND_DEF_STEREO_COUNT>
0

> <PUBCHEM_BOND_UDEF_STEREO_COUNT>
0

> <PUBCHEM_ISOTOPIC_ATOM_COUNT>
0

> <PUBCHEM_COMPONENT_COUNT>
1

> <PUBCHEM_CACTVS_TAUTO_COUNT>
4

> <PUBCHEM_CONFORMER_ID>
02D04CE500000001

> <PUBCHEM_MMFF94_ENERGY>
38.256

> <PUBCHEM_FEATURE_SELFOVERLAP>
30.446

> <PUBCHEM_SHAPE_FINGERPRINT>
10354089 29 18412542102565204636
10411042 1 17906453582750468394
11089746 13 17822015276469821112
117890 112 18334576845573437617
12107183 9 17759801837884683019
12236239 1 18113621174703815111
12596602 18 18342172280946855595
13167372 99 18262235650903630033
13533116 47 18335703900721208947
13675066 3 17918273160395623351
13785724 45 17686617252702740519
14251764 18 18411983538227021309
14341114 176 18343578572960631277
15048467 5 18333169453188307297
15188451 53 16486680357094622339
15348495 7 17561073671345422905
15475509 35 16343155744017278154
20157964 124 18334856164861700591
20281389 69 18341612664036086061
20645477 70 18339369651145447918
21150785 3 5184344131594685648
21267235 1 18341332310098593618
212847 35 18113339725586390715
21421861 104 18058744601560609906
21637258 2 12967122780037723017
23402655 69 18261116227664733158
23557571 272 4751162904349514299
26918003 58 17775568610987984584
2767999 5 17749110019739803593
29717793 49 17458059395961977830
300161 21 18041001725897308774
312425 54 17346874572927978081
34934 24 18335143059717847758
351380 3 11887952138544681305
4073 2 18130783417453192259
5104073 3 18270691857235575234
5374978 207 18272937145530361104
602551 16 15841546319653026658
8272917 22 18335983146815770726

> <PUBCHEM_SHAPE_MULTIPOLES>
350.6
15.85
1.93
0.84
17.94
0.41
0.08
-8.56
2.84
-2.27
0.1
0.49
0.05
-0.42

> <PUBCHEM_SHAPE_SELFOVERLAP>
701.26

> <PUBCHEM_SHAPE_VOLUME>
206.9

> <PUBCHEM_COORDINATE_TYPE>
2
5
10

$$$$

