10910
  -OEChem-06261205063D

 16 15  0     0  0  0  0  0  0999 V2000
    0.9495    0.0922    0.0978 S   0  0  0  0  0  0  0  0  0  0  0  0
   -1.3070    0.2185   -1.3527 O   0  0  0  0  0  0  0  0  0  0  0  0
    1.2936   -0.9901   -1.0723 O   0  0  0  0  0  0  0  0  0  0  0  0
    1.4015    1.4000   -0.3319 O   0  0  0  0  0  0  0  0  0  0  0  0
    1.3584   -0.4697    1.3697 O   0  0  0  0  0  0  0  0  0  0  0  0
   -0.8593    0.0160   -0.0101 C   0  0  0  0  0  0  0  0  0  0  0  0
   -1.3331   -1.3665    0.4444 C   0  0  0  0  0  0  0  0  0  0  0  0
   -1.5036    1.0995    0.8551 C   0  0  0  0  0  0  0  0  0  0  0  0
   -1.0705   -1.5689    1.4878 H   0  0  0  0  0  0  0  0  0  0  0  0
   -2.4210   -1.4550    0.3418 H   0  0  0  0  0  0  0  0  0  0  0  0
   -0.9020   -2.1605   -0.1754 H   0  0  0  0  0  0  0  0  0  0  0  0
   -2.5966    1.0566    0.7896 H   0  0  0  0  0  0  0  0  0  0  0  0
   -1.2095    2.0972    0.5101 H   0  0  0  0  0  0  0  0  0  0  0  0
   -1.2111    1.0044    1.9058 H   0  0  0  0  0  0  0  0  0  0  0  0
   -0.9425   -0.4986   -1.8985 H   0  0  0  0  0  0  0  0  0  0  0  0
    1.2253   -0.6524   -1.9961 H   0  0  0  0  0  0  0  0  0  0  0  0
  1  3  1  0  0  0  0
  1  4  2  0  0  0  0
  1  5  2  0  0  0  0
  1  6  1  0  0  0  0
  2  6  1  0  0  0  0
  2 15  1  0  0  0  0
  3 16  1  0  0  0  0
  6  7  1  0  0  0  0
  6  8  1  0  0  0  0
  7  9  1  0  0  0  0
  7 10  1  0  0  0  0
  7 11  1  0  0  0  0
  8 12  1  0  0  0  0
  8 13  1  0  0  0  0
  8 14  1  0  0  0  0
M  END
> <PUBCHEM_COMPOUND_CID>
10910

> <PUBCHEM_CONFORMER_RMSD>
0.4

> <PUBCHEM_CONFORMER_DIVERSEORDER>
1

> <PUBCHEM_MMFF94_PARTIAL_CHARGES>
8
1 1.38
15 0.4
16 0.5
2 -0.68
3 -0.68
4 -0.65
5 -0.65
6 0.39

> <PUBCHEM_EFFECTIVE_ROTOR_COUNT>
1

> <PUBCHEM_PHARMACOPHORE_FEATURES>
7
1 2 acceptor
1 2 donor
1 3 acceptor
1 4 acceptor
1 5 acceptor
3 6 7 8 hydrophobe
4 1 3 4 5 anion

> <PUBCHEM_HEAVY_ATOM_COUNT>
8

> <PUBCHEM_ATOM_DEF_STEREO_COUNT>
0

> <PUBCHEM_ATOM_UDEF_STEREO_COUNT>
0

> <PUBCHEM_BOND_DEF_STEREO_COUNT>
0

> <PUBCHEM_BOND_UDEF_STEREO_COUNT>
0

> <PUBCHEM_ISOTOPIC_ATOM_COUNT>
0

> <PUBCHEM_COMPONENT_COUNT>
1

> <PUBCHEM_CACTVS_TAUTO_COUNT>
1

> <PUBCHEM_CONFORMER_ID>
00002A9E00000001

> <PUBCHEM_MMFF94_ENERGY>
8.7028

> <PUBCHEM_FEATURE_SELFOVERLAP>
35.579

> <PUBCHEM_SHAPE_FINGERPRINT>
137420 1 12955669428840001283
20096714 4 18338219561692292849
21040471 1 17895469362028408113
24536 1 18334297565018852217
29004967 10 17899962846944460459
5084963 1 17752471320890183977
5943 1 14037660107004372347

> <PUBCHEM_SHAPE_MULTIPOLES>
145.01
2.14
1.34
1.21
0.07
0.03
-0.03
0.1
0.08
-0.16
0.06
0.05
-0.1
-0.03

> <PUBCHEM_SHAPE_SELFOVERLAP>
259.424

> <PUBCHEM_SHAPE_VOLUME>
95.1

> <PUBCHEM_COORDINATE_TYPE>
2
5
10

$$$$

