10042
  -OEChem-06261204162D

 20 18  0     0  0  0  0  0  0999 V2000
    1.3360    0.0000    0.0000 O   0  5  0  0  0  0  0  0  0  0  0  0
    1.4030    3.9030    0.0000 N   0  3  0  0  0  0  0  0  0  0  0  0
    0.5369    3.4030    0.0000 C   0  0  0  0  0  0  0  0  0  0  0  0
    0.9030    4.7690    0.0000 C   0  0  0  0  0  0  0  0  0  0  0  0
    1.9030    3.0369    0.0000 C   0  0  0  0  0  0  0  0  0  0  0  0
    2.2690    4.4030    0.0000 C   0  0  0  0  0  0  0  0  0  0  0  0
    3.1350    3.9030    0.0000 C   0  0  0  0  0  0  0  0  0  0  0  0
    1.3660    2.7269    0.0000 H   0  0  0  0  0  0  0  0  0  0  0  0
    2.2130    2.5000    0.0000 H   0  0  0  0  0  0  0  0  0  0  0  0
    2.4399    3.3469    0.0000 H   0  0  0  0  0  0  0  0  0  0  0  0
    1.4399    5.0790    0.0000 H   0  0  0  0  0  0  0  0  0  0  0  0
    0.5930    5.3059    0.0000 H   0  0  0  0  0  0  0  0  0  0  0  0
    0.3660    4.4590    0.0000 H   0  0  0  0  0  0  0  0  0  0  0  0
    0.2269    3.9399    0.0000 H   0  0  0  0  0  0  0  0  0  0  0  0
    0.0000    3.0930    0.0000 H   0  0  0  0  0  0  0  0  0  0  0  0
    0.8469    2.8660    0.0000 H   0  0  0  0  0  0  0  0  0  0  0  0
    2.2690    5.0230    0.0000 H   0  0  0  0  0  0  0  0  0  0  0  0
    3.1350    3.2830    0.0000 H   0  0  0  0  0  0  0  0  0  0  0  0
    3.6720    4.2130    0.0000 H   0  0  0  0  0  0  0  0  0  0  0  0
    2.3360    0.0000    0.0000 H   0  0  0  0  0  0  0  0  0  0  0  0
  1 20  1  0  0  0  0
  2  3  1  0  0  0  0
  2  4  1  0  0  0  0
  2  5  1  0  0  0  0
  2  6  1  0  0  0  0
  3 14  1  0  0  0  0
  3 15  1  0  0  0  0
  3 16  1  0  0  0  0
  4 11  1  0  0  0  0
  4 12  1  0  0  0  0
  4 13  1  0  0  0  0
  5  8  1  0  0  0  0
  5  9  1  0  0  0  0
  5 10  1  0  0  0  0
  6  7  2  0  0  0  0
  6 17  1  0  0  0  0
  7 18  1  0  0  0  0
  7 19  1  0  0  0  0
M  CHG  2   1  -1   2   1
M  END
> <PUBCHEM_COMPOUND_CID>
10042

> <PUBCHEM_COMPOUND_CANONICALIZED>
1

> <PUBCHEM_CACTVS_COMPLEXITY>
49.4

> <PUBCHEM_CACTVS_HBOND_ACCEPTOR>
1

> <PUBCHEM_CACTVS_HBOND_DONOR>
1

> <PUBCHEM_CACTVS_ROTATABLE_BOND>
1

> <PUBCHEM_CACTVS_SUBSKEYS>
AAADccBiIAAAAAAAAAAAAAAAAAAAAAAAAAAAAAAAAAAAAAAAAAAAHAAACAAAAADBAAQCAAMAAACAAAAGQAAAAAAAAgAIAAAIAAAAAAAAAAAAAAAAAAAAAAAAAAAAAAAAAAAAAAAAAAAAAAAAAAAAAAAAAA==

> <PUBCHEM_IUPAC_OPENEYE_NAME>
trimethyl(vinyl)ammonium hydroxide

> <PUBCHEM_IUPAC_CAS_NAME>
ethenyl(trimethyl)ammonium hydroxide

> <PUBCHEM_IUPAC_NAME>
ethenyl(trimethyl)azanium hydroxide

> <PUBCHEM_IUPAC_SYSTEMATIC_NAME>
ethenyl(trimethyl)azanium hydroxide

> <PUBCHEM_IUPAC_TRADITIONAL_NAME>
trimethyl(vinyl)ammonium hydroxide

> <PUBCHEM_IUPAC_INCHI>
InChI=1S/C5H12N.H2O/c1-5-6(2,3)4;/h5H,1H2,2-4H3;1H2/q+1;/p-1

> <PUBCHEM_IUPAC_INCHIKEY>
NIPLIJLVGZCKMP-UHFFFAOYSA-M

> <PUBCHEM_EXACT_MASS>
103.099714

> <PUBCHEM_MOLECULAR_FORMULA>
C5H13NO

> <PUBCHEM_MOLECULAR_WEIGHT>
103.16282

> <PUBCHEM_OPENEYE_CAN_SMILES>
C[N+](C)(C)C=C.[OH-]

> <PUBCHEM_OPENEYE_ISO_SMILES>
C[N+](C)(C)C=C.[OH-]

> <PUBCHEM_CACTVS_TPSA>
1

> <PUBCHEM_MONOISOTOPIC_WEIGHT>
103.099714

> <PUBCHEM_TOTAL_CHARGE>
0

> <PUBCHEM_HEAVY_ATOM_COUNT>
7

> <PUBCHEM_ATOM_DEF_STEREO_COUNT>
0

> <PUBCHEM_ATOM_UDEF_STEREO_COUNT>
0

> <PUBCHEM_BOND_DEF_STEREO_COUNT>
0

> <PUBCHEM_BOND_UDEF_STEREO_COUNT>
0

> <PUBCHEM_ISOTOPIC_ATOM_COUNT>
0

> <PUBCHEM_COMPONENT_COUNT>
2

> <PUBCHEM_CACTVS_TAUTO_COUNT>
1

> <PUBCHEM_COORDINATE_TYPE>
1
5
255

$$$$

