12115
  -OEChem-06261206333D

 24 24  0     0  0  0  0  0  0999 V2000
    1.5848   -1.0918   -0.0003 O   0  0  0  0  0  0  0  0  0  0  0  0
    0.2991    0.8776    0.0004 N   0  0  0  0  0  0  0  0  0  0  0  0
    2.6096    0.9804    0.0001 N   0  0  0  0  0  0  0  0  0  0  0  0
   -1.0147    0.4078    0.0004 C   0  0  0  0  0  0  0  0  0  0  0  0
    3.9701    0.4939   -0.0002 C   0  0  0  0  0  0  0  0  0  0  0  0
    1.4964    0.1337    0.0002 C   0  0  0  0  0  0  0  0  0  0  0  0
   -2.0781    1.3107   -0.0002 C   0  0  0  0  0  0  0  0  0  0  0  0
   -1.2651   -0.9645    0.0006 C   0  0  0  0  0  0  0  0  0  0  0  0
    4.0101   -1.0249   -0.0003 C   0  0  0  0  0  0  0  0  0  0  0  0
   -3.3916    0.8414   -0.0005 C   0  0  0  0  0  0  0  0  0  0  0  0
   -2.5787   -1.4336    0.0002 C   0  0  0  0  0  0  0  0  0  0  0  0
   -3.6419   -0.5307   -0.0004 C   0  0  0  0  0  0  0  0  0  0  0  0
    4.4672    0.8980   -0.8872 H   0  0  0  0  0  0  0  0  0  0  0  0
    4.4674    0.8979    0.8868 H   0  0  0  0  0  0  0  0  0  0  0  0
    0.4042    1.8892    0.0004 H   0  0  0  0  0  0  0  0  0  0  0  0
    2.4602    1.9845    0.0005 H   0  0  0  0  0  0  0  0  0  0  0  0
   -1.8978    2.3828   -0.0005 H   0  0  0  0  0  0  0  0  0  0  0  0
   -0.4967   -1.7245    0.0011 H   0  0  0  0  0  0  0  0  0  0  0  0
    3.5925   -1.4672    0.9102 H   0  0  0  0  0  0  0  0  0  0  0  0
    3.5924   -1.4670   -0.9108 H   0  0  0  0  0  0  0  0  0  0  0  0
    5.0653   -1.3286   -0.0004 H   0  0  0  0  0  0  0  0  0  0  0  0
   -4.2196    1.5443   -0.0008 H   0  0  0  0  0  0  0  0  0  0  0  0
   -2.7752   -2.5019    0.0003 H   0  0  0  0  0  0  0  0  0  0  0  0
   -4.6646   -0.8961   -0.0007 H   0  0  0  0  0  0  0  0  0  0  0  0
  1  6  2  0  0  0  0
  2  4  1  0  0  0  0
  2  6  1  0  0  0  0
  2 15  1  0  0  0  0
  3  5  1  0  0  0  0
  3  6  1  0  0  0  0
  3 16  1  0  0  0  0
  4  7  2  0  0  0  0
  4  8  1  0  0  0  0
  5  9  1  0  0  0  0
  5 13  1  0  0  0  0
  5 14  1  0  0  0  0
  7 10  1  0  0  0  0
  7 17  1  0  0  0  0
  8 11  2  0  0  0  0
  8 18  1  0  0  0  0
  9 19  1  0  0  0  0
  9 20  1  0  0  0  0
  9 21  1  0  0  0  0
 10 12  2  0  0  0  0
 10 22  1  0  0  0  0
 11 12  1  0  0  0  0
 11 23  1  0  0  0  0
 12 24  1  0  0  0  0
M  END
> <PUBCHEM_COMPOUND_CID>
12115

> <PUBCHEM_CONFORMER_RMSD>
0.6

> <PUBCHEM_CONFORMER_DIVERSEORDER>
1
3
2

> <PUBCHEM_MMFF94_PARTIAL_CHARGES>
18
1 -0.57
10 -0.15
11 -0.15
12 -0.15
15 0.37
16 0.37
17 0.15
18 0.15
2 -0.55
22 0.15
23 0.15
24 0.15
3 -0.73
4 0.12
5 0.3
6 0.69
7 -0.15
8 -0.15

> <PUBCHEM_EFFECTIVE_ROTOR_COUNT>
4

> <PUBCHEM_PHARMACOPHORE_FEATURES>
4
1 1 acceptor
1 2 donor
1 3 donor
6 4 7 8 10 11 12 rings

> <PUBCHEM_HEAVY_ATOM_COUNT>
12

> <PUBCHEM_ATOM_DEF_STEREO_COUNT>
0

> <PUBCHEM_ATOM_UDEF_STEREO_COUNT>
0

> <PUBCHEM_BOND_DEF_STEREO_COUNT>
0

> <PUBCHEM_BOND_UDEF_STEREO_COUNT>
0

> <PUBCHEM_ISOTOPIC_ATOM_COUNT>
0

> <PUBCHEM_COMPONENT_COUNT>
1

> <PUBCHEM_CACTVS_TAUTO_COUNT>
3

> <PUBCHEM_CONFORMER_ID>
00002F5300000001

> <PUBCHEM_MMFF94_ENERGY>
36.34

> <PUBCHEM_FEATURE_SELFOVERLAP>
20.345

> <PUBCHEM_SHAPE_FINGERPRINT>
10608611 8 18409172107958379800
12032990 46 18410851053581477842
12932764 1 17386014939838656768
13024252 1 15554448496750270225
13380535 76 18409448106804302351
14144814 61 18411701001850063136
14325111 11 18410856559729622752
17834074 16 18408882966660159718
18186145 218 17203331091684612044
190213 19 18060420205161197796
1986462 14 18412260653173603702
200 152 17894640240430553821
20201158 50 18334574654871104319
20279233 1 17967245407864061463
20528008 55 18335989704977117141
20645464 45 18113892775956660287
20645477 70 18261674869391832622
20871998 184 18187641345985424935
22485316 2 18408326575132004482
23402539 116 18114188540769801205
23463225 33 18412826901967960742
23559900 14 18334862740435356440
3312278 4 18409446981701783747
5104073 3 18410292510243358728
6333449 129 18408606954981732005
69090 78 18334299768701299463
77779 3 18410853261458386100
8809292 202 18343016649298925515
9709674 26 18409724058548256278

> <PUBCHEM_SHAPE_MULTIPOLES>
231.12
7.66
1.43
0.59
4.78
0.14
0
0.58
0
-0.4
0
-0.04
0
0

> <PUBCHEM_SHAPE_SELFOVERLAP>
470.649

> <PUBCHEM_SHAPE_VOLUME>
133.6

> <PUBCHEM_COORDINATE_TYPE>
2
5
10

$$$$

