9650
  -OEChem-06261203542D

 35 36  0     0  0  0  0  0  0999 V2000
    2.6340    0.0000    0.0000 O   0  0  0  0  0  0  0  0  0  0  0  0
    4.3660    3.0000    0.0000 O   0  0  0  0  0  0  0  0  0  0  0  0
    6.0981    0.0000    0.0000 O   0  0  0  0  0  0  0  0  0  0  0  0
    4.3660    0.0000    0.0000 N   0  0  0  0  0  0  0  0  0  0  0  0
    5.2320    1.5000    0.0000 N   0  0  0  0  0  0  0  0  0  0  0  0
    3.5000    1.5000    0.0000 C   0  0  0  0  0  0  0  0  0  0  0  0
    3.0000    2.3660    0.0000 C   0  0  0  0  0  0  0  0  0  0  0  0
    2.5000    1.5000    0.0000 C   0  0  0  0  0  0  0  0  0  0  0  0
    3.5000    0.5000    0.0000 C   0  0  0  0  0  0  0  0  0  0  0  0
    4.3660    2.0000    0.0000 C   0  0  0  0  0  0  0  0  0  0  0  0
    2.0000    2.3660    0.0000 C   0  0  0  0  0  0  0  0  0  0  0  0
    2.0000    0.6340    0.0000 C   0  0  0  0  0  0  0  0  0  0  0  0
    5.2320    0.5000    0.0000 C   0  0  0  0  0  0  0  0  0  0  0  0
    4.3660   -1.0000    0.0000 C   0  0  0  0  0  0  0  0  0  0  0  0
    3.5000   -1.5000    0.0000 C   0  0  0  0  0  0  0  0  0  0  0  0
    5.2320   -1.5000    0.0000 C   0  0  0  0  0  0  0  0  0  0  0  0
    3.5000   -2.5000    0.0000 C   0  0  0  0  0  0  0  0  0  0  0  0
    5.2320   -2.5000    0.0000 C   0  0  0  0  0  0  0  0  0  0  0  0
    4.3660   -3.0000    0.0000 C   0  0  0  0  0  0  0  0  0  0  0  0
    2.6077    2.1106    0.0000 H   0  0  0  0  0  0  0  0  0  0  0  0
    1.9174    1.7120    0.0000 H   0  0  0  0  0  0  0  0  0  0  0  0
    3.5826    2.5781    0.0000 H   0  0  0  0  0  0  0  0  0  0  0  0
    2.8923    2.9766    0.0000 H   0  0  0  0  0  0  0  0  0  0  0  0
    1.4631    0.9440    0.0000 H   0  0  0  0  0  0  0  0  0  0  0  0
    1.6900    0.0970    0.0000 H   0  0  0  0  0  0  0  0  0  0  0  0
    2.0000    2.9860    0.0000 H   0  0  0  0  0  0  0  0  0  0  0  0
    1.3800    2.3660    0.0000 H   0  0  0  0  0  0  0  0  0  0  0  0
    2.0000    1.7460    0.0000 H   0  0  0  0  0  0  0  0  0  0  0  0
    2.5369    0.3240    0.0000 H   0  0  0  0  0  0  0  0  0  0  0  0
    5.7690    1.8100    0.0000 H   0  0  0  0  0  0  0  0  0  0  0  0
    2.9631   -1.1900    0.0000 H   0  0  0  0  0  0  0  0  0  0  0  0
    5.7690   -1.1900    0.0000 H   0  0  0  0  0  0  0  0  0  0  0  0
    2.9631   -2.8100    0.0000 H   0  0  0  0  0  0  0  0  0  0  0  0
    5.7690   -2.8100    0.0000 H   0  0  0  0  0  0  0  0  0  0  0  0
    4.3660   -3.6200    0.0000 H   0  0  0  0  0  0  0  0  0  0  0  0
  1  9  2  0  0  0  0
  2 10  2  0  0  0  0
  3 13  2  0  0  0  0
  4  9  1  0  0  0  0
  4 13  1  0  0  0  0
  4 14  1  0  0  0  0
  5 10  1  0  0  0  0
  5 13  1  0  0  0  0
  5 30  1  0  0  0  0
  6  7  1  0  0  0  0
  6  8  1  0  0  0  0
  6  9  1  0  0  0  0
  6 10  1  0  0  0  0
  7 11  1  0  0  0  0
  7 22  1  0  0  0  0
  7 23  1  0  0  0  0
  8 12  1  0  0  0  0
  8 20  1  0  0  0  0
  8 21  1  0  0  0  0
 11 26  1  0  0  0  0
 11 27  1  0  0  0  0
 11 28  1  0  0  0  0
 12 24  1  0  0  0  0
 12 25  1  0  0  0  0
 12 29  1  0  0  0  0
 14 15  2  0  0  0  0
 14 16  1  0  0  0  0
 15 17  1  0  0  0  0
 15 31  1  0  0  0  0
 16 18  2  0  0  0  0
 16 32  1  0  0  0  0
 17 19  2  0  0  0  0
 17 33  1  0  0  0  0
 18 19  1  0  0  0  0
 18 34  1  0  0  0  0
 19 35  1  0  0  0  0
M  END
> <PUBCHEM_COMPOUND_CID>
9650

> <PUBCHEM_COMPOUND_CANONICALIZED>
1

> <PUBCHEM_CACTVS_COMPLEXITY>
396

> <PUBCHEM_CACTVS_HBOND_ACCEPTOR>
3

> <PUBCHEM_CACTVS_HBOND_DONOR>
1

> <PUBCHEM_CACTVS_ROTATABLE_BOND>
3

> <PUBCHEM_CACTVS_SUBSKEYS>
AAADceBzMAAAAAAAAAAAAAAAAAAAAAAAAAA8QAAAAAAAAAABAAAAHgAQAAAADgiBkAAzwIPAAACIACVSUACCAAAhAgAIiAEAZIiIIDrI0ZGEIAhohSLIyCcQAAALAAAAAAAAAAAAAAAAAAAAAAAAAAAAAA==

> <PUBCHEM_IUPAC_OPENEYE_NAME>
5,5-diethyl-1-phenyl-hexahydropyrimidine-2,4,6-trione

> <PUBCHEM_IUPAC_CAS_NAME>
5,5-diethyl-1-phenyl-1,3-diazinane-2,4,6-trione

> <PUBCHEM_IUPAC_NAME>
5,5-diethyl-1-phenyl-1,3-diazinane-2,4,6-trione

> <PUBCHEM_IUPAC_SYSTEMATIC_NAME>
5,5-diethyl-1-phenyl-1,3-diazinane-2,4,6-trione

> <PUBCHEM_IUPAC_TRADITIONAL_NAME>
5,5-diethyl-1-phenyl-barbituric acid

> <PUBCHEM_IUPAC_INCHI>
InChI=1S/C14H16N2O3/c1-3-14(4-2)11(17)15-13(19)16(12(14)18)10-8-6-5-7-9-10/h5-9H,3-4H2,1-2H3,(H,15,17,19)

> <PUBCHEM_IUPAC_INCHIKEY>
ILORKHQGIMGDFN-UHFFFAOYSA-N

> <PUBCHEM_XLOGP3>
2.7

> <PUBCHEM_EXACT_MASS>
260.116092

> <PUBCHEM_MOLECULAR_FORMULA>
C14H16N2O3

> <PUBCHEM_MOLECULAR_WEIGHT>
260.28844

> <PUBCHEM_OPENEYE_CAN_SMILES>
CCC1(C(=O)NC(=O)N(C1=O)C2=CC=CC=C2)CC

> <PUBCHEM_OPENEYE_ISO_SMILES>
CCC1(C(=O)NC(=O)N(C1=O)C2=CC=CC=C2)CC

> <PUBCHEM_CACTVS_TPSA>
66.5

> <PUBCHEM_MONOISOTOPIC_WEIGHT>
260.116092

> <PUBCHEM_TOTAL_CHARGE>
0

> <PUBCHEM_HEAVY_ATOM_COUNT>
19

> <PUBCHEM_ATOM_DEF_STEREO_COUNT>
0

> <PUBCHEM_ATOM_UDEF_STEREO_COUNT>
0

> <PUBCHEM_BOND_DEF_STEREO_COUNT>
0

> <PUBCHEM_BOND_UDEF_STEREO_COUNT>
0

> <PUBCHEM_ISOTOPIC_ATOM_COUNT>
0

> <PUBCHEM_COMPONENT_COUNT>
1

> <PUBCHEM_CACTVS_TAUTO_COUNT>
3

> <PUBCHEM_COORDINATE_TYPE>
1
5
255

> <PUBCHEM_BONDANNOTATIONS>
14  15  8
14  16  8
15  17  8
16  18  8
17  19  8
18  19  8

$$$$

