583029
  -OEChem-06241222442D

 28 29  0     0  0  0  0  0  0999 V2000
    3.7320   -0.7500    0.0000 C   0  0  0  0  0  0  0  0  0  0  0  0
    4.6783   -0.4453    0.0000 C   0  0  0  0  0  0  0  0  0  0  0  0
    5.2619   -1.2500    0.0000 C   0  0  0  0  0  0  0  0  0  0  0  0
    4.6783   -2.0547    0.0000 C   0  0  0  0  0  0  0  0  0  0  0  0
    3.7320   -1.7500    0.0000 C   0  0  0  0  0  0  0  0  0  0  0  0
    2.8660   -0.2500    0.0000 C   0  0  0  0  0  0  0  0  0  0  0  0
    2.8660    0.7500    0.0000 C   0  0  0  0  0  0  0  0  0  0  0  0
    2.8660   -2.2500    0.0000 C   0  0  0  0  0  0  0  0  0  0  0  0
    2.0000   -0.7500    0.0000 C   0  0  0  0  0  0  0  0  0  0  0  0
    2.0000    1.2500    0.0000 C   0  0  0  0  0  0  0  0  0  0  0  0
    2.0000   -1.7500    0.0000 C   0  0  0  0  0  0  0  0  0  0  0  0
    2.0000    2.2500    0.0000 C   0  0  0  0  0  0  0  0  0  0  0  0
    5.2156   -0.1360    0.0000 H   0  0  0  0  0  0  0  0  0  0  0  0
    4.4272    0.1216    0.0000 H   0  0  0  0  0  0  0  0  0  0  0  0
    5.7227   -1.6647    0.0000 H   0  0  0  0  0  0  0  0  0  0  0  0
    5.7227   -0.8353    0.0000 H   0  0  0  0  0  0  0  0  0  0  0  0
    4.4272   -2.6216    0.0000 H   0  0  0  0  0  0  0  0  0  0  0  0
    5.2156   -2.3640    0.0000 H   0  0  0  0  0  0  0  0  0  0  0  0
    3.4766    0.6423    0.0000 H   0  0  0  0  0  0  0  0  0  0  0  0
    3.0781    1.3326    0.0000 H   0  0  0  0  0  0  0  0  0  0  0  0
    2.8660   -2.8700    0.0000 H   0  0  0  0  0  0  0  0  0  0  0  0
    1.4631   -0.4400    0.0000 H   0  0  0  0  0  0  0  0  0  0  0  0
    1.3894    1.3577    0.0000 H   0  0  0  0  0  0  0  0  0  0  0  0
    1.7880    0.6674    0.0000 H   0  0  0  0  0  0  0  0  0  0  0  0
    1.4631   -2.0600    0.0000 H   0  0  0  0  0  0  0  0  0  0  0  0
    2.6200    2.2500    0.0000 H   0  0  0  0  0  0  0  0  0  0  0  0
    2.0000    2.8700    0.0000 H   0  0  0  0  0  0  0  0  0  0  0  0
    1.3800    2.2500    0.0000 H   0  0  0  0  0  0  0  0  0  0  0  0
  1  2  1  0  0  0  0
  1  5  2  0  0  0  0
  1  6  1  0  0  0  0
  2  3  1  0  0  0  0
  2 13  1  0  0  0  0
  2 14  1  0  0  0  0
  3  4  1  0  0  0  0
  3 15  1  0  0  0  0
  3 16  1  0  0  0  0
  4  5  1  0  0  0  0
  4 17  1  0  0  0  0
  4 18  1  0  0  0  0
  5  8  1  0  0  0  0
  6  7  1  0  0  0  0
  6  9  2  0  0  0  0
  7 10  1  0  0  0  0
  7 19  1  0  0  0  0
  7 20  1  0  0  0  0
  8 11  2  0  0  0  0
  8 21  1  0  0  0  0
  9 11  1  0  0  0  0
  9 22  1  0  0  0  0
 10 12  1  0  0  0  0
 10 23  1  0  0  0  0
 10 24  1  0  0  0  0
 11 25  1  0  0  0  0
 12 26  1  0  0  0  0
 12 27  1  0  0  0  0
 12 28  1  0  0  0  0
M  END
> <PUBCHEM_COMPOUND_CID>
583029

> <PUBCHEM_COMPOUND_CANONICALIZED>
1

> <PUBCHEM_CACTVS_COMPLEXITY>
139

> <PUBCHEM_CACTVS_HBOND_ACCEPTOR>
0

> <PUBCHEM_CACTVS_HBOND_DONOR>
0

> <PUBCHEM_CACTVS_ROTATABLE_BOND>
2

> <PUBCHEM_CACTVS_SUBSKEYS>
AAADceBwAAAAAAAAAAAAAAAAAAAAAYAAAAAwAAAAAAAAAGABAAAAGAAAAAAADACAGAAyAIAAAACAAiBCAAACAAAgAAAIiAAAAIgIICKAERCAIAAggAAIiAcAgMAOgAACAAAQAAAAAAQAACAAAAAACAAAAA==

> <PUBCHEM_IUPAC_OPENEYE_NAME>
4-propylindane

> <PUBCHEM_IUPAC_CAS_NAME>
4-propyl-2,3-dihydro-1H-indene

> <PUBCHEM_IUPAC_NAME>
4-propyl-2,3-dihydro-1H-indene

> <PUBCHEM_IUPAC_SYSTEMATIC_NAME>
4-propyl-2,3-dihydro-1H-indene

> <PUBCHEM_IUPAC_TRADITIONAL_NAME>
4-propylindane

> <PUBCHEM_IUPAC_INCHI>
InChI=1S/C12H16/c1-2-5-10-6-3-7-11-8-4-9-12(10)11/h3,6-7H,2,4-5,8-9H2,1H3

> <PUBCHEM_IUPAC_INCHIKEY>
MNNUKQONOGMYSH-UHFFFAOYSA-N

> <PUBCHEM_XLOGP3_AA>
4.1

> <PUBCHEM_EXACT_MASS>
160.125201

> <PUBCHEM_MOLECULAR_FORMULA>
C12H16

> <PUBCHEM_MOLECULAR_WEIGHT>
160.25544

> <PUBCHEM_OPENEYE_CAN_SMILES>
CCCC1=CC=CC2=C1CCC2

> <PUBCHEM_OPENEYE_ISO_SMILES>
CCCC1=CC=CC2=C1CCC2

> <PUBCHEM_CACTVS_TPSA>
0

> <PUBCHEM_MONOISOTOPIC_WEIGHT>
160.125201

> <PUBCHEM_TOTAL_CHARGE>
0

> <PUBCHEM_HEAVY_ATOM_COUNT>
12

> <PUBCHEM_ATOM_DEF_STEREO_COUNT>
0

> <PUBCHEM_ATOM_UDEF_STEREO_COUNT>
0

> <PUBCHEM_BOND_DEF_STEREO_COUNT>
0

> <PUBCHEM_BOND_UDEF_STEREO_COUNT>
0

> <PUBCHEM_ISOTOPIC_ATOM_COUNT>
0

> <PUBCHEM_COMPONENT_COUNT>
1

> <PUBCHEM_CACTVS_TAUTO_COUNT>
1

> <PUBCHEM_COORDINATE_TYPE>
1
5
255

> <PUBCHEM_BONDANNOTATIONS>
1  5  8
1  6  8
5  8  8
6  9  8
8  11  8
9  11  8

$$$$

