4580
  -OEChem-06261200133D

 46 48  0     1  0  0  0  0  0999 V2000
    1.8832    3.0998   -1.5147 Cl  0  0  0  0  0  0  0  0  0  0  0  0
    5.5540   -0.2447    0.4709 O   0  0  0  0  0  0  0  0  0  0  0  0
    1.8747   -2.0640    1.3101 O   0  0  0  0  0  0  0  0  0  0  0  0
    4.3953   -1.7064    1.7545 O   0  0  0  0  0  0  0  0  0  0  0  0
   -0.7056   -1.6967    1.4256 O   0  0  0  0  0  0  0  0  0  0  0  0
   -3.5939   -3.6328   -0.4861 O   0  0  0  0  0  0  0  0  0  0  0  0
   -2.0946   -2.9776   -2.0570 O   0  0  0  0  0  0  0  0  0  0  0  0
   -1.5530   -0.7436   -0.5080 N   0  0  0  0  0  0  0  0  0  0  0  0
    4.4694    1.7025   -0.4943 C   0  0  0  0  0  0  0  0  0  0  0  0
    5.5372    0.6340   -0.6772 C   0  0  1  0  0  0  0  0  0  0  0  0
    3.1610    1.0064   -0.2715 C   0  0  0  0  0  0  0  0  0  0  0  0
    3.1412   -0.2129    0.4168 C   0  0  0  0  0  0  0  0  0  0  0  0
    1.9285   -0.8673    0.6560 C   0  0  0  0  0  0  0  0  0  0  0  0
    0.7349   -0.3012    0.2075 C   0  0  0  0  0  0  0  0  0  0  0  0
    1.9572    1.5739   -0.7032 C   0  0  0  0  0  0  0  0  0  0  0  0
    4.4010   -0.7970    0.9353 C   0  0  0  0  0  0  0  0  0  0  0  0
   -2.8902   -1.3603   -0.4193 C   0  0  1  0  0  0  0  0  0  0  0  0
    6.9229    1.2504   -0.8053 C   0  0  0  0  0  0  0  0  0  0  0  0
    0.7486    0.9182   -0.4685 C   0  0  0  0  0  0  0  0  0  0  0  0
   -3.9193   -0.4728   -1.1232 C   0  0  0  0  0  0  0  0  0  0  0  0
   -0.5435   -0.9617    0.4375 C   0  0  0  0  0  0  0  0  0  0  0  0
   -4.3629    0.6941   -0.2747 C   0  0  0  0  0  0  0  0  0  0  0  0
   -2.7966   -2.7123   -1.0902 C   0  0  0  0  0  0  0  0  0  0  0  0
   -5.4559    0.5472    0.5648 C   0  0  0  0  0  0  0  0  0  0  0  0
   -3.6696    1.8917   -0.3505 C   0  0  0  0  0  0  0  0  0  0  0  0
   -5.8662    1.6257    1.3486 C   0  0  0  0  0  0  0  0  0  0  0  0
   -4.0796    2.9703    0.4333 C   0  0  0  0  0  0  0  0  0  0  0  0
   -5.1781    2.8372    1.2828 C   0  0  0  0  0  0  0  0  0  0  0  0
    4.4618    2.3392   -1.3841 H   0  0  0  0  0  0  0  0  0  0  0  0
    4.6805    2.3267    0.3825 H   0  0  0  0  0  0  0  0  0  0  0  0
    5.3392    0.0185   -1.5645 H   0  0  0  0  0  0  0  0  0  0  0  0
   -3.1245   -1.5093    0.6414 H   0  0  0  0  0  0  0  0  0  0  0  0
    7.1852    1.8181    0.0944 H   0  0  0  0  0  0  0  0  0  0  0  0
    7.6802    0.4663   -0.9126 H   0  0  0  0  0  0  0  0  0  0  0  0
    6.9841    1.9157   -1.6717 H   0  0  0  0  0  0  0  0  0  0  0  0
   -0.1743    1.3948   -0.7899 H   0  0  0  0  0  0  0  0  0  0  0  0
   -4.8062   -1.0672   -1.3833 H   0  0  0  0  0  0  0  0  0  0  0  0
   -3.5348   -0.1071   -2.0853 H   0  0  0  0  0  0  0  0  0  0  0  0
   -1.3399   -0.2362   -1.3610 H   0  0  0  0  0  0  0  0  0  0  0  0
    2.7644   -2.4343    1.4170 H   0  0  0  0  0  0  0  0  0  0  0  0
   -5.9967   -0.3929    0.6250 H   0  0  0  0  0  0  0  0  0  0  0  0
   -2.8145    2.0071   -1.0103 H   0  0  0  0  0  0  0  0  0  0  0  0
   -6.7210    1.5220    2.0106 H   0  0  0  0  0  0  0  0  0  0  0  0
   -3.5439    3.9137    0.3820 H   0  0  0  0  0  0  0  0  0  0  0  0
   -5.4973    3.6768    1.8932 H   0  0  0  0  0  0  0  0  0  0  0  0
   -3.5319   -4.5105   -0.9199 H   0  0  0  0  0  0  0  0  0  0  0  0
  1 15  1  0  0  0  0
  2 10  1  0  0  0  0
  2 16  1  0  0  0  0
  3 13  1  0  0  0  0
  3 40  1  0  0  0  0
  4 16  2  0  0  0  0
  5 21  2  0  0  0  0
  6 23  1  0  0  0  0
  6 46  1  0  0  0  0
  7 23  2  0  0  0  0
  8 17  1  0  0  0  0
  8 21  1  0  0  0  0
  8 39  1  0  0  0  0
  9 10  1  0  0  0  0
  9 11  1  0  0  0  0
  9 29  1  0  0  0  0
  9 30  1  0  0  0  0
 10 18  1  0  0  0  0
 10 31  1  0  0  0  0
 11 12  1  0  0  0  0
 11 15  2  0  0  0  0
 12 13  2  0  0  0  0
 12 16  1  0  0  0  0
 13 14  1  0  0  0  0
 14 19  2  0  0  0  0
 14 21  1  0  0  0  0
 15 19  1  0  0  0  0
 17 20  1  0  0  0  0
 17 23  1  0  0  0  0
 17 32  1  0  0  0  0
 18 33  1  0  0  0  0
 18 34  1  0  0  0  0
 18 35  1  0  0  0  0
 19 36  1  0  0  0  0
 20 22  1  0  0  0  0
 20 37  1  0  0  0  0
 20 38  1  0  0  0  0
 22 24  2  0  0  0  0
 22 25  1  0  0  0  0
 24 26  1  0  0  0  0
 24 41  1  0  0  0  0
 25 27  2  0  0  0  0
 25 42  1  0  0  0  0
 26 28  2  0  0  0  0
 26 43  1  0  0  0  0
 27 28  1  0  0  0  0
 27 44  1  0  0  0  0
 28 45  1  0  0  0  0
M  END
> <PUBCHEM_COMPOUND_CID>
4580

> <PUBCHEM_CONFORMER_RMSD>
0.8

> <PUBCHEM_CONFORMER_DIVERSEORDER>
8
9
57
48
44
121
33
60
1
89
58
120
149
75
94
110
67
152
22
29
109
151
145
28
13
76
68
99
123
148
105
113
65
139
108
4
24
51
132
98
134
34
116
82
90
103
142
17
91
77
16
32
129
59
70
133
128
100
2
79
46
97
5
93
30
130
36
38
147
64
6
74
114
69
104
78
144
131
88
12
3
52
73
138
25
19
18
37
127
71
61
92
84
27
45
119
35
63
107
50
39
140
111
102
42
137
41
26
54
55
122
115
7
135
106
112
15
80
31
10
141
150
43
40
124
126
87
96
117
11
143
85
21
101
23
86
66
20
72
146
49
53
136
47
14
118
81
125
62
56
95
83

> <PUBCHEM_MMFF94_PARTIAL_CHARGES>
36
1 -0.18
10 0.28
11 -0.14
12 0.09
13 0.08
14 0.09
15 0.18
16 0.63
17 0.36
19 -0.15
2 -0.43
20 0.14
21 0.54
22 -0.14
23 0.66
24 -0.15
25 -0.15
26 -0.15
27 -0.15
28 -0.15
3 -0.53
36 0.15
39 0.37
4 -0.57
40 0.45
41 0.15
42 0.15
43 0.15
44 0.15
45 0.15
46 0.5
5 -0.57
6 -0.65
7 -0.57
8 -0.73
9 0.14

> <PUBCHEM_EFFECTIVE_ROTOR_COUNT>
6.6

> <PUBCHEM_PHARMACOPHORE_FEATURES>
10
1 3 donor
1 4 acceptor
1 5 acceptor
1 6 acceptor
1 7 acceptor
1 8 donor
3 6 7 23 anion
6 11 12 13 14 15 19 rings
6 2 9 10 11 12 16 rings
6 22 24 25 26 27 28 rings

> <PUBCHEM_HEAVY_ATOM_COUNT>
28

> <PUBCHEM_ATOM_DEF_STEREO_COUNT>
0

> <PUBCHEM_ATOM_UDEF_STEREO_COUNT>
2

> <PUBCHEM_BOND_DEF_STEREO_COUNT>
0

> <PUBCHEM_BOND_UDEF_STEREO_COUNT>
0

> <PUBCHEM_ISOTOPIC_ATOM_COUNT>
0

> <PUBCHEM_COMPONENT_COUNT>
1

> <PUBCHEM_CACTVS_TAUTO_COUNT>
22

> <PUBCHEM_CONFORMER_ID>
000011E400000008

> <PUBCHEM_MMFF94_ENERGY>
81.2094

> <PUBCHEM_FEATURE_SELFOVERLAP>
50.829

> <PUBCHEM_SHAPE_FINGERPRINT>
10165383 225 17748816437656337763
10906281 52 18202272590534755594
11796584 16 17603862291780143286
12107183 9 18194689386933117058
12236239 1 18410292536007984504
12422481 6 18125167279413926242
12978246 48 18339078298018334321
13583140 156 17489032673255973831
14251757 5 18113616777089918329
14294032 229 17894628163594407967
14713325 29 18335134238266933135
14790565 3 18201717371164095908
14849402 71 18130213862009244820
15081414 286 18131632313950428092
15183329 4 18412549807926392620
15297060 5 17749943483755258017
15475509 8 18339345470975034620
15484559 13 15754901870058953572
1601671 61 18410014360051499140
16110190 28 18342174513839556637
17818456 19 18335138704299412020
20511986 3 18341626922689225072
20739085 24 17846212323525596116
21033648 29 16877955922791206970
21421861 104 18058176218447295770
21756936 100 18342171150980124627
23522609 53 18129643254498146892
23559900 14 17531247228029510488
24771293 8 18268436738109079892
25147074 1 18272378564007202866
3610482 184 18198887154824072852
38570 142 18200576082183339668
392239 28 17986932151761393769
397830 11 12463283649683468716
5104073 3 18200882790145695010
543358 83 18273217491489809602
6328613 192 18411978044917039588
6700243 42 17246360346304735095
7226269 152 17821726173831906721
7808743 9 18334575754925882209

> <PUBCHEM_SHAPE_MULTIPOLES>
537.9
14.95
3.59
1.42
5.1
0.72
0.01
-7.18
-1.93
-4.04
0.78
-0.26
0.4
-3.85

> <PUBCHEM_SHAPE_SELFOVERLAP>
1156.112

> <PUBCHEM_SHAPE_VOLUME>
295.4

> <PUBCHEM_COORDINATE_TYPE>
2
5
10

$$$$

