47205708
  -OEChem-06241223003D

 27 28  0     0  0  0  0  0  0999 V2000
   -6.2728    1.5852   -0.4391 Br  0  0  0  0  0  0  0  0  0  0  0  0
    1.4996    1.6059    0.3611 O   0  0  0  0  0  0  0  0  0  0  0  0
    2.3705   -0.5231   -0.1096 N   0  0  0  0  0  0  0  0  0  0  0  0
    5.9338   -0.5738   -0.2215 N   0  0  0  0  0  0  0  0  0  0  0  0
    5.7990    0.7341    0.0565 N   0  0  0  0  0  0  0  0  0  0  0  0
   -2.4635    0.0072    0.1274 C   0  0  0  0  0  0  0  0  0  0  0  0
    3.7697   -0.3024   -0.1026 C   0  0  0  0  0  0  0  0  0  0  0  0
   -1.1031    0.5166    0.2051 C   0  0  0  0  0  0  0  0  0  0  0  0
   -3.5268    0.8856   -0.0810 C   0  0  0  0  0  0  0  0  0  0  0  0
   -2.7043   -1.3604    0.2608 C   0  0  0  0  0  0  0  0  0  0  0  0
    0.0168   -0.2182    0.0200 C   0  0  0  0  0  0  0  0  0  0  0  0
    1.3690    0.4127    0.1142 C   0  0  0  0  0  0  0  0  0  0  0  0
    4.7483   -1.2399   -0.3272 C   0  0  0  0  0  0  0  0  0  0  0  0
    4.4750    0.8940    0.1281 C   0  0  0  0  0  0  0  0  0  0  0  0
   -4.8309    0.3966   -0.1558 C   0  0  0  0  0  0  0  0  0  0  0  0
   -4.0085   -1.8493    0.1859 C   0  0  0  0  0  0  0  0  0  0  0  0
   -5.0718   -0.9708   -0.0223 C   0  0  0  0  0  0  0  0  0  0  0  0
   -1.0152    1.5792    0.4211 H   0  0  0  0  0  0  0  0  0  0  0  0
    2.1106   -1.4876   -0.3042 H   0  0  0  0  0  0  0  0  0  0  0  0
   -3.3413    1.9527   -0.1871 H   0  0  0  0  0  0  0  0  0  0  0  0
   -1.9116   -2.0795    0.4447 H   0  0  0  0  0  0  0  0  0  0  0  0
    4.7112   -2.2973   -0.5480 H   0  0  0  0  0  0  0  0  0  0  0  0
   -0.0188   -1.2742   -0.2232 H   0  0  0  0  0  0  0  0  0  0  0  0
    4.0931    1.8808    0.3458 H   0  0  0  0  0  0  0  0  0  0  0  0
   -4.1971   -2.9134    0.2945 H   0  0  0  0  0  0  0  0  0  0  0  0
   -6.0820   -1.3681   -0.0772 H   0  0  0  0  0  0  0  0  0  0  0  0
    6.8685   -0.9481   -0.3267 H   0  0  0  0  0  0  0  0  0  0  0  0
  1 15  1  0  0  0  0
  2 12  2  0  0  0  0
  3  7  1  0  0  0  0
  3 12  1  0  0  0  0
  3 19  1  0  0  0  0
  4  5  1  0  0  0  0
  4 13  1  0  0  0  0
  4 27  1  0  0  0  0
  5 14  2  0  0  0  0
  6  8  1  0  0  0  0
  6  9  2  0  0  0  0
  6 10  1  0  0  0  0
  7 13  2  0  0  0  0
  7 14  1  0  0  0  0
  8 11  2  0  0  0  0
  8 18  1  0  0  0  0
  9 15  1  0  0  0  0
  9 20  1  0  0  0  0
 10 16  2  0  0  0  0
 10 21  1  0  0  0  0
 11 12  1  0  0  0  0
 11 23  1  0  0  0  0
 13 22  1  0  0  0  0
 14 24  1  0  0  0  0
 15 17  2  0  0  0  0
 16 17  1  0  0  0  0
 16 25  1  0  0  0  0
 17 26  1  0  0  0  0
M  END
> <PUBCHEM_COMPOUND_CID>
47205708

> <PUBCHEM_CONFORMER_RMSD>
0.6

> <PUBCHEM_CONFORMER_DIVERSEORDER>
1
9
10
3
5
7
8
6
2
4

> <PUBCHEM_MMFF94_PARTIAL_CHARGES>
27
1 -0.11
10 -0.15
11 -0.14
12 0.62
13 -0.3
14 0.14
15 0.11
16 -0.15
17 -0.15
18 0.15
19 0.37
2 -0.57
20 0.15
21 0.15
22 0.15
23 0.15
24 0.15
25 0.15
26 0.15
27 0.27
3 -0.49
4 0.3
5 -0.71
6 0.03
7 0.06
8 -0.18
9 -0.15

> <PUBCHEM_EFFECTIVE_ROTOR_COUNT>
4

> <PUBCHEM_PHARMACOPHORE_FEATURES>
7
1 1 hydrophobe
1 2 acceptor
1 3 donor
1 4 donor
1 5 acceptor
5 4 5 7 13 14 rings
6 6 9 10 15 16 17 rings

> <PUBCHEM_HEAVY_ATOM_COUNT>
17

> <PUBCHEM_ATOM_DEF_STEREO_COUNT>
0

> <PUBCHEM_ATOM_UDEF_STEREO_COUNT>
0

> <PUBCHEM_BOND_DEF_STEREO_COUNT>
0

> <PUBCHEM_BOND_UDEF_STEREO_COUNT>
1

> <PUBCHEM_ISOTOPIC_ATOM_COUNT>
0

> <PUBCHEM_COMPONENT_COUNT>
1

> <PUBCHEM_CACTVS_TAUTO_COUNT>
4

> <PUBCHEM_CONFORMER_ID>
02D04D4C00000001

> <PUBCHEM_MMFF94_ENERGY>
35.3245

> <PUBCHEM_FEATURE_SELFOVERLAP>
35.52

> <PUBCHEM_SHAPE_FINGERPRINT>
10366900 7 15285358422587670663
10835480 77 18335426737833913968
10968037 39 18408321073194450389
11287383 113 18410855434796208008
11315181 36 18040994033653138505
11858739 19 18114178674755201110
12091667 2 18202843249437489219
12107183 9 17690561209732499466
12236239 1 17917992780250314706
12516196 113 17967254186882878408
12616971 3 16630519618410584599
12815109 37 18408040714719326070
12916748 109 10375870792579383942
13167823 11 18411702067102523506
13288520 33 18410011010372634079
13964095 4 18342737455107812189
1420 363 18113049433295152214
14251718 22 18342175540252026082
14251731 8 18410575093717224169
14251752 14 17988087802009766101
14251764 18 18187359918627445987
15183329 4 18339927112103725817
15196674 1 18410292501727620474
15242439 84 18334579044622982593
16079462 125 18334590030822648496
17093844 174 18342460331355011137
17834072 33 18409165472455083324
17834072 8 18410579500612282269
17844677 252 18409722941682504081
18222031 100 15213020453458745360
19489759 90 18272652350659962163
200 152 17822010900140479883
20281389 69 18060139877421219005
20621476 66 18339357569898251121
20645477 56 18272091630401449901
20645477 70 18260827150786221958
20681677 155 18060138743449249619
21267235 1 18342171125748540259
21709351 56 18411989031426941813
220451 1 17203610397613369226
2215653 11 18187369847927196101
23218964 4 18411983589439633125
23402539 116 18409171008900030189
23536379 177 18343584053138350096
23559900 14 18334865987198874697
239999 70 18333726928066079486
26918003 58 18114180834738473035
29717793 49 17895190034867622452
300161 21 18272657860886855107
3004659 81 18343300405678736586
3545911 37 18411138052429476129
4073 2 18059288769379446090
4214541 1 18411418406214059121
42788 4 18410855460143992558
4463277 17 18411981364398855316
5104073 3 18409729530161914753
5283173 99 18339927116198869561
542803 24 16343702135995942518
559249 180 18412547626194210947
6327066 14 17843413036474894245
77779 3 18411418371611565233

> <PUBCHEM_SHAPE_MULTIPOLES>
334.98
16.44
1.59
0.65
7.79
0.18
0.01
-1.63
1.78
-1.57
-0.02
-0.14
-0.02
0.68

> <PUBCHEM_SHAPE_SELFOVERLAP>
698.559

> <PUBCHEM_SHAPE_VOLUME>
193.1

> <PUBCHEM_COORDINATE_TYPE>
2
5
10

$$$$

