4635
  -OEChem-06261200153D

 44 48  0     1  0  0  0  0  0999 V2000
   -1.4621    1.6599   -0.2006 O   0  0  0  0  0  0  0  0  0  0  0  0
    1.3902    0.1401    2.1838 O   0  0  0  0  0  0  0  0  0  0  0  0
    0.6563    3.7933   -0.6897 O   0  0  0  0  0  0  0  0  0  0  0  0
   -4.1489    0.4133    0.0409 O   0  0  0  0  0  0  0  0  0  0  0  0
    2.5029   -1.5296   -0.9434 N   0  0  2  0  0  0  0  0  0  0  0  0
    0.5502    0.4197   -0.0891 C   0  0  1  0  0  0  0  0  0  0  0  0
    1.7355    0.0528    0.7940 C   0  0  2  0  0  0  0  0  0  0  0  0
    2.0468   -1.4405    0.4602 C   0  0  1  0  0  0  0  0  0  0  0  0
   -0.1184    1.7321    0.3032 C   0  0  1  0  0  0  0  0  0  0  0  0
    0.8979    0.2686   -1.5985 C   0  0  0  0  0  0  0  0  0  0  0  0
   -0.6172   -0.4307    0.1917 C   0  0  0  0  0  0  0  0  0  0  0  0
    2.8334    1.1168    0.5474 C   0  0  0  0  0  0  0  0  0  0  0  0
    0.7956   -2.3688    0.8151 C   0  0  0  0  0  0  0  0  0  0  0  0
    1.4924   -1.1142   -1.9210 C   0  0  0  0  0  0  0  0  0  0  0  0
   -0.5645   -1.7569    0.5582 C   0  0  0  0  0  0  0  0  0  0  0  0
    2.2925    2.5725    0.6384 C   0  0  0  0  0  0  0  0  0  0  0  0
    0.9187    2.7969   -0.0235 C   0  0  0  0  0  0  0  0  0  0  0  0
   -1.7677    0.3269    0.0475 C   0  0  0  0  0  0  0  0  0  0  0  0
    3.0711   -2.8292   -1.2851 C   0  0  0  0  0  0  0  0  0  0  0  0
   -1.7982   -2.3762    0.7262 C   0  0  0  0  0  0  0  0  0  0  0  0
   -2.9920   -0.2746    0.1881 C   0  0  0  0  0  0  0  0  0  0  0  0
   -2.9982   -1.6428    0.5265 C   0  0  0  0  0  0  0  0  0  0  0  0
   -4.7163    0.4705   -1.2705 C   0  0  0  0  0  0  0  0  0  0  0  0
    2.8725   -1.7624    1.1094 H   0  0  0  0  0  0  0  0  0  0  0  0
   -0.2495    1.8430    1.3924 H   0  0  0  0  0  0  0  0  0  0  0  0
    1.6193    1.0349   -1.9061 H   0  0  0  0  0  0  0  0  0  0  0  0
    0.0158    0.4261   -2.2335 H   0  0  0  0  0  0  0  0  0  0  0  0
    3.3005    0.9847   -0.4346 H   0  0  0  0  0  0  0  0  0  0  0  0
    3.6352    1.0028    1.2875 H   0  0  0  0  0  0  0  0  0  0  0  0
    0.8497   -2.5851    1.8906 H   0  0  0  0  0  0  0  0  0  0  0  0
    0.8654   -3.3321    0.3007 H   0  0  0  0  0  0  0  0  0  0  0  0
    0.6872   -1.8560   -1.9924 H   0  0  0  0  0  0  0  0  0  0  0  0
    1.9461   -1.0592   -2.9186 H   0  0  0  0  0  0  0  0  0  0  0  0
    3.0153    3.2485    0.1679 H   0  0  0  0  0  0  0  0  0  0  0  0
    2.1994    2.8764    1.6870 H   0  0  0  0  0  0  0  0  0  0  0  0
    1.3624    1.0683    2.4633 H   0  0  0  0  0  0  0  0  0  0  0  0
    3.5580   -2.7825   -2.2658 H   0  0  0  0  0  0  0  0  0  0  0  0
    2.3218   -3.6262   -1.3222 H   0  0  0  0  0  0  0  0  0  0  0  0
    3.8475   -3.1162   -0.5676 H   0  0  0  0  0  0  0  0  0  0  0  0
   -1.8553   -3.4206    1.0201 H   0  0  0  0  0  0  0  0  0  0  0  0
   -3.9488   -2.1555    0.6626 H   0  0  0  0  0  0  0  0  0  0  0  0
   -4.0272    0.9637   -1.9633 H   0  0  0  0  0  0  0  0  0  0  0  0
   -5.6400    1.0529   -1.2184 H   0  0  0  0  0  0  0  0  0  0  0  0
   -4.9540   -0.5366   -1.6274 H   0  0  0  0  0  0  0  0  0  0  0  0
  1  9  1  0  0  0  0
  1 18  1  0  0  0  0
  2  7  1  0  0  0  0
  2 36  1  0  0  0  0
  3 17  2  0  0  0  0
  4 21  1  0  0  0  0
  4 23  1  0  0  0  0
  5  8  1  0  0  0  0
  5 14  1  0  0  0  0
  5 19  1  0  0  0  0
  6  7  1  0  0  0  0
  6  9  1  0  0  0  0
  6 10  1  0  0  0  0
  6 11  1  0  0  0  0
  7  8  1  0  0  0  0
  7 12  1  0  0  0  0
  8 13  1  0  0  0  0
  8 24  1  0  0  0  0
  9 17  1  0  0  0  0
  9 25  1  0  0  0  0
 10 14  1  0  0  0  0
 10 26  1  0  0  0  0
 10 27  1  0  0  0  0
 11 15  2  0  0  0  0
 11 18  1  0  0  0  0
 12 16  1  0  0  0  0
 12 28  1  0  0  0  0
 12 29  1  0  0  0  0
 13 15  1  0  0  0  0
 13 30  1  0  0  0  0
 13 31  1  0  0  0  0
 14 32  1  0  0  0  0
 14 33  1  0  0  0  0
 15 20  1  0  0  0  0
 16 17  1  0  0  0  0
 16 34  1  0  0  0  0
 16 35  1  0  0  0  0
 18 21  2  0  0  0  0
 19 37  1  0  0  0  0
 19 38  1  0  0  0  0
 19 39  1  0  0  0  0
 20 22  2  0  0  0  0
 20 40  1  0  0  0  0
 21 22  1  0  0  0  0
 22 41  1  0  0  0  0
 23 42  1  0  0  0  0
 23 43  1  0  0  0  0
 23 44  1  0  0  0  0
M  END
> <PUBCHEM_COMPOUND_CID>
4635

> <PUBCHEM_CONFORMER_RMSD>
0.6

> <PUBCHEM_CONFORMER_DIVERSEORDER>
1
7
4
3
5
6
2
8

> <PUBCHEM_MMFF94_PARTIAL_CHARGES>
24
1 -0.36
11 -0.14
13 0.14
14 0.27
15 -0.14
16 0.06
17 0.45
18 0.08
19 0.27
2 -0.68
20 -0.15
21 0.08
22 -0.15
23 0.28
3 -0.57
36 0.4
4 -0.36
40 0.15
41 0.15
5 -0.81
6 0.14
7 0.28
8 0.27
9 0.34

> <PUBCHEM_EFFECTIVE_ROTOR_COUNT>
2.4

> <PUBCHEM_PHARMACOPHORE_FEATURES>
11
1 1 acceptor
1 2 acceptor
1 2 donor
1 3 acceptor
1 4 acceptor
1 5 cation
5 1 6 9 11 18 rings
6 11 15 18 20 21 22 rings
6 5 6 7 8 10 14 rings
6 6 7 8 11 13 15 rings
6 6 7 9 12 16 17 rings

> <PUBCHEM_HEAVY_ATOM_COUNT>
23

> <PUBCHEM_ATOM_DEF_STEREO_COUNT>
0

> <PUBCHEM_ATOM_UDEF_STEREO_COUNT>
4

> <PUBCHEM_BOND_DEF_STEREO_COUNT>
0

> <PUBCHEM_BOND_UDEF_STEREO_COUNT>
0

> <PUBCHEM_ISOTOPIC_ATOM_COUNT>
0

> <PUBCHEM_COMPONENT_COUNT>
1

> <PUBCHEM_CACTVS_TAUTO_COUNT>
3

> <PUBCHEM_CONFORMER_ID>
0000121B00000001

> <PUBCHEM_MMFF94_ENERGY>
105.2904

> <PUBCHEM_FEATURE_SELFOVERLAP>
57.738

> <PUBCHEM_SHAPE_FINGERPRINT>
10411042 1 17764039356131421131
104564 63 17836074955092524115
10863032 1 18335699386631193130
10906281 52 18410567379872013000
10948715 1 18050852109042556552
10967382 1 18413395336568355865
11578080 2 17058959773450506668
11582403 64 15667673167573461506
11680986 33 18409162186567783571
12011746 2 18410016528867506860
12553582 1 18196083576404085131
12788726 201 17980184607235681982
13134695 92 17603589650843856185
13140716 1 18123473769715106937
13464514 151 18339632339581407469
13681431 1 17823953762845813798
14223421 5 18053941758402427235
14790565 3 17472115754533958024
15210252 30 17773309252206445669
16752209 62 18055916751889866959
16945 1 16972235467049274784
17980427 23 17904237791145209153
18186145 218 18411139177853241527
19591789 44 16895383491339885257
20233049 118 17988085598733676327
20600515 1 18339658835450947761
20691752 17 18198054974893199985
20905425 154 17476351708524772851
21524375 3 17616249178586414680
22182313 1 18270675364708883507
2334 1 18339364174871987905
23419403 2 17244167112649266498
23559900 14 18411408519595067510
238 59 17758983432103702957
2748010 2 18339368572823358529
350125 39 17910954634875890577
5845 1 5173659421219514494
5939293 188 18268722631446238033
7364860 26 18335694984189318888
81228 2 17829591096199849568
84936 31 17313650578062416270
90525 40 17688589355755291488
9709674 26 18339643322430234555

> <PUBCHEM_SHAPE_MULTIPOLES>
444.87
5.33
3.46
1.4
6.17
1.25
0.27
-0.49
1.08
-2.25
0.25
-0.58
-0.41
1.3

> <PUBCHEM_SHAPE_SELFOVERLAP>
1004.528

> <PUBCHEM_SHAPE_VOLUME>
233.7

> <PUBCHEM_COORDINATE_TYPE>
2
5
10

$$$$

