585191
  -OEChem-06241222453D

 53 56  0     0  0  0  0  0  0999 V2000
   -2.4162   -2.4703   -0.0198 S   0  0  0  0  0  0  0  0  0  0  0  0
    1.7777   -1.3363    0.8538 O   0  0  0  0  0  0  0  0  0  0  0  0
   -3.3256   -2.7599    1.0725 O   0  0  0  0  0  0  0  0  0  0  0  0
   -2.4785   -3.2431   -1.2456 O   0  0  0  0  0  0  0  0  0  0  0  0
   -4.6787    3.3657    0.4289 O   0  5  0  0  0  0  0  0  0  0  0  0
   -5.1180    1.6519    1.7285 O   0  0  0  0  0  0  0  0  0  0  0  0
   -0.8182   -2.4843    0.5574 N   0  0  0  0  0  0  0  0  0  0  0  0
   -4.5270    2.1612    0.7457 N   0  3  0  0  0  0  0  0  0  0  0  0
    2.8052   -0.4430    0.4497 C   0  0  0  0  0  0  0  0  0  0  0  0
    3.4322    1.3852   -1.1676 C   0  0  0  0  0  0  0  0  0  0  0  0
    5.1565   -0.3106   -0.4465 C   0  0  0  0  0  0  0  0  0  0  0  0
    4.3280    1.4226    1.1914 C   0  0  0  0  0  0  0  0  0  0  0  0
    2.3154    0.4282   -0.7198 C   0  0  0  0  0  0  0  0  0  0  0  0
    4.0294   -1.2580   -0.0045 C   0  0  0  0  0  0  0  0  0  0  0  0
    3.2050    0.4665    1.6254 C   0  0  0  0  0  0  0  0  0  0  0  0
    4.6545    0.5616   -1.6109 C   0  0  0  0  0  0  0  0  0  0  0  0
    3.8311    2.2838    0.0166 C   0  0  0  0  0  0  0  0  0  0  0  0
    5.5445    0.5978    0.7340 C   0  0  0  0  0  0  0  0  0  0  0  0
    0.6178   -0.6375    1.2865 C   0  0  0  0  0  0  0  0  0  0  0  0
   -0.4430   -1.6362    1.7119 C   0  0  0  0  0  0  0  0  0  0  0  0
   -2.6263   -0.7737   -0.4689 C   0  0  0  0  0  0  0  0  0  0  0  0
   -1.9572   -0.2457   -1.5618 C   0  0  0  0  0  0  0  0  0  0  0  0
   -3.4755    0.0070    0.3003 C   0  0  0  0  0  0  0  0  0  0  0  0
   -2.1415    1.0963   -1.8943 C   0  0  0  0  0  0  0  0  0  0  0  0
   -3.6601    1.3490   -0.0322 C   0  0  0  0  0  0  0  0  0  0  0  0
   -1.0386   -1.0719   -2.4012 C   0  0  0  0  0  0  0  0  0  0  0  0
   -2.9929    1.8936   -1.1296 C   0  0  0  0  0  0  0  0  0  0  0  0
    3.0809    2.0035   -2.0011 H   0  0  0  0  0  0  0  0  0  0  0  0
    6.0268   -0.8934   -0.7678 H   0  0  0  0  0  0  0  0  0  0  0  0
    4.6128    2.0677    2.0301 H   0  0  0  0  0  0  0  0  0  0  0  0
    1.9902   -0.2044   -1.5554 H   0  0  0  0  0  0  0  0  0  0  0  0
    1.4575    1.0555   -0.4604 H   0  0  0  0  0  0  0  0  0  0  0  0
    4.3726   -1.9084    0.8105 H   0  0  0  0  0  0  0  0  0  0  0  0
    3.7506   -1.9322   -0.8247 H   0  0  0  0  0  0  0  0  0  0  0  0
    2.3826    1.0955    1.9792 H   0  0  0  0  0  0  0  0  0  0  0  0
    3.5206   -0.1385    2.4851 H   0  0  0  0  0  0  0  0  0  0  0  0
    4.3879   -0.0726   -2.4653 H   0  0  0  0  0  0  0  0  0  0  0  0
    5.4546    1.2316   -1.9486 H   0  0  0  0  0  0  0  0  0  0  0  0
    4.6177    2.9827   -0.2932 H   0  0  0  0  0  0  0  0  0  0  0  0
    2.9734    2.8904    0.3326 H   0  0  0  0  0  0  0  0  0  0  0  0
    5.9182   -0.0106    1.5668 H   0  0  0  0  0  0  0  0  0  0  0  0
    6.3607    1.2680    0.4376 H   0  0  0  0  0  0  0  0  0  0  0  0
    0.1813   -0.0210    0.5012 H   0  0  0  0  0  0  0  0  0  0  0  0
    0.8139   -0.0289    2.1711 H   0  0  0  0  0  0  0  0  0  0  0  0
   -1.3124   -1.1254    2.1354 H   0  0  0  0  0  0  0  0  0  0  0  0
   -0.0415   -2.3050    2.4817 H   0  0  0  0  0  0  0  0  0  0  0  0
   -0.0607   -2.9294    0.0262 H   0  0  0  0  0  0  0  0  0  0  0  0
   -3.9893   -0.4212    1.1556 H   0  0  0  0  0  0  0  0  0  0  0  0
   -1.6304    1.5367   -2.7464 H   0  0  0  0  0  0  0  0  0  0  0  0
   -0.4611   -0.4362   -3.0837 H   0  0  0  0  0  0  0  0  0  0  0  0
   -1.6023   -1.7657   -3.0315 H   0  0  0  0  0  0  0  0  0  0  0  0
   -0.2945   -1.6089   -1.8106 H   0  0  0  0  0  0  0  0  0  0  0  0
   -3.1125    2.9348   -1.4183 H   0  0  0  0  0  0  0  0  0  0  0  0
  1  3  2  0  0  0  0
  1  4  2  0  0  0  0
  1  7  1  0  0  0  0
  1 21  1  0  0  0  0
  2  9  1  0  0  0  0
  2 19  1  0  0  0  0
  5  8  1  0  0  0  0
  6  8  2  0  0  0  0
  7 20  1  0  0  0  0
  7 47  1  0  0  0  0
  8 25  1  0  0  0  0
  9 13  1  0  0  0  0
  9 14  1  0  0  0  0
  9 15  1  0  0  0  0
 10 13  1  0  0  0  0
 10 16  1  0  0  0  0
 10 17  1  0  0  0  0
 10 28  1  0  0  0  0
 11 14  1  0  0  0  0
 11 16  1  0  0  0  0
 11 18  1  0  0  0  0
 11 29  1  0  0  0  0
 12 15  1  0  0  0  0
 12 17  1  0  0  0  0
 12 18  1  0  0  0  0
 12 30  1  0  0  0  0
 13 31  1  0  0  0  0
 13 32  1  0  0  0  0
 14 33  1  0  0  0  0
 14 34  1  0  0  0  0
 15 35  1  0  0  0  0
 15 36  1  0  0  0  0
 16 37  1  0  0  0  0
 16 38  1  0  0  0  0
 17 39  1  0  0  0  0
 17 40  1  0  0  0  0
 18 41  1  0  0  0  0
 18 42  1  0  0  0  0
 19 20  1  0  0  0  0
 19 43  1  0  0  0  0
 19 44  1  0  0  0  0
 20 45  1  0  0  0  0
 20 46  1  0  0  0  0
 21 22  2  0  0  0  0
 21 23  1  0  0  0  0
 22 24  1  0  0  0  0
 22 26  1  0  0  0  0
 23 25  2  0  0  0  0
 23 48  1  0  0  0  0
 24 27  2  0  0  0  0
 24 49  1  0  0  0  0
 25 27  1  0  0  0  0
 26 50  1  0  0  0  0
 26 51  1  0  0  0  0
 26 52  1  0  0  0  0
 27 53  1  0  0  0  0
M  CHG  2   5  -1   8   1
M  END
> <PUBCHEM_COMPOUND_CID>
585191

> <PUBCHEM_CONFORMER_RMSD>
1

> <PUBCHEM_CONFORMER_DIVERSEORDER>
12
36
37
4
23
14
34
3
30
17
7
6
40
42
20
29
27
28
41
22
11
38
16
9
31
32
15
8
24
10
1
39
13
2
33
26
25
18
5
19
35
21

> <PUBCHEM_MMFF94_PARTIAL_CHARGES>
22
1 1.45
19 0.28
2 -0.56
20 0.36
21 -0.01
22 -0.14
23 -0.15
24 -0.15
25 0.13
26 0.14
27 -0.15
3 -0.65
4 -0.65
47 0.42
48 0.15
49 0.15
5 -0.52
53 0.15
6 -0.52
7 -0.91
8 0.91
9 0.28

> <PUBCHEM_EFFECTIVE_ROTOR_COUNT>
8.2

> <PUBCHEM_PHARMACOPHORE_FEATURES>
12
1 2 acceptor
1 3 acceptor
1 4 acceptor
1 5 acceptor
1 5 anion
1 6 acceptor
1 7 donor
6 10 11 12 16 17 18 rings
6 21 22 23 24 25 27 rings
6 9 10 11 13 14 16 rings
6 9 10 12 13 15 17 rings
6 9 11 12 14 15 18 rings

> <PUBCHEM_HEAVY_ATOM_COUNT>
27

> <PUBCHEM_ATOM_DEF_STEREO_COUNT>
0

> <PUBCHEM_ATOM_UDEF_STEREO_COUNT>
0

> <PUBCHEM_BOND_DEF_STEREO_COUNT>
0

> <PUBCHEM_BOND_UDEF_STEREO_COUNT>
0

> <PUBCHEM_ISOTOPIC_ATOM_COUNT>
0

> <PUBCHEM_COMPONENT_COUNT>
1

> <PUBCHEM_CACTVS_TAUTO_COUNT>
1

> <PUBCHEM_CONFORMER_ID>
0008EDE70000000C

> <PUBCHEM_MMFF94_ENERGY>
68.0891

> <PUBCHEM_FEATURE_SELFOVERLAP>
73.555

> <PUBCHEM_SHAPE_FINGERPRINT>
10646746 165 18272098141455572770
10670039 82 17988077790973814422
10928967 22 16630536128597121106
11370993 144 18335703875098728094
11405975 8 18410017641385492314
11552529 35 18337958861409291119
11578080 2 17169800437399451455
1200032 147 16011261639602862113
12173636 292 18410019810122696983
12633257 1 17917715682119728596
13224815 77 17489318438493615270
13583140 156 17822295630771258366
13782708 43 11599735017026568640
14251764 38 18193562164545956632
14468879 13 17822006519247425647
14840074 17 17275096228757086157
14950920 106 16199876183919175641
15163728 17 17824812572185922377
151778 21 18269275844782483411
15183329 4 6555408674870755241
15788980 27 17240765047779695558
15880784 105 10159698010592096766
17809404 112 15068921740941013326
17844677 252 18261672554709986088
18785283 64 18053099815969342763
20261772 1 17489587865934203180
21033648 29 17895768309459443992
21315764 21 16878215476212543702
21458453 9 17415811692636912385
21623110 236 17345470367002275749
21756936 100 18334864943394889601
21864079 5 17274833458199412484
23227448 37 18343022185806798709
23559900 14 18261396676550662890
392239 28 16128361697449543865
445580 125 18412547617709427272
46194498 28 15938408870180661905
469060 322 16056599807651829731
5048184 11 18131079271848151141
5104073 3 18271255937044703840
5252454 2 18272377511186255840
5281201 14 18336826382361435518
5895379 119 18272091548707517356
6438754 60 7637101634286724581
7399639 24 17174919526481271354

> <PUBCHEM_SHAPE_MULTIPOLES>
520.19
11.93
3.1
1.89
5.18
0.29
0.43
-6.24
-1.78
-4.49
-0.4
-0.47
0.01
-0.78

> <PUBCHEM_SHAPE_SELFOVERLAP>
1109.197

> <PUBCHEM_SHAPE_VOLUME>
292.3

> <PUBCHEM_COORDINATE_TYPE>
2
5
10

$$$$

