51090847
  -OEChem-06241223002D

 42 44  0     0  0  0  0  0  0999 V2000
    8.7788    2.3512    0.0000 O   0  0  0  0  0  0  0  0  0  0  0  0
    4.4487    0.8512    0.0000 O   0  0  0  0  0  0  0  0  0  0  0  0
    6.1808    0.8512    0.0000 N   0  0  0  0  0  0  0  0  0  0  0  0
    3.5827   -2.6488    0.0000 N   0  0  0  0  0  0  0  0  0  0  0  0
    5.3147   -2.6488    0.0000 N   0  0  0  0  0  0  0  0  0  0  0  0
    2.5000   -3.8512    0.0000 N   0  0  0  0  0  0  0  0  0  0  0  0
    7.9128    1.8512    0.0000 C   0  0  0  0  0  0  0  0  0  0  0  0
    7.9128    0.8512    0.0000 C   0  0  0  0  0  0  0  0  0  0  0  0
    7.0468    2.3512    0.0000 C   0  0  0  0  0  0  0  0  0  0  0  0
    7.0468    0.3512    0.0000 C   0  0  0  0  0  0  0  0  0  0  0  0
    6.1808    1.8512    0.0000 C   0  0  0  0  0  0  0  0  0  0  0  0
    5.3147    0.3512    0.0000 C   0  0  0  0  0  0  0  0  0  0  0  0
    8.7788    3.3512    0.0000 C   0  0  0  0  0  0  0  0  0  0  0  0
    5.3147   -0.6488    0.0000 C   0  0  0  0  0  0  0  0  0  0  0  0
    9.6448    3.8512    0.0000 C   0  0  0  0  0  0  0  0  0  0  0  0
    4.4487   -1.1488    0.0000 C   0  0  0  0  0  0  0  0  0  0  0  0
    6.1808   -1.1488    0.0000 C   0  0  0  0  0  0  0  0  0  0  0  0
    4.4487   -2.1488    0.0000 C   0  0  0  0  0  0  0  0  0  0  0  0
    6.1808   -2.1488    0.0000 C   0  0  0  0  0  0  0  0  0  0  0  0
    2.6691   -2.2420    0.0000 C   0  0  0  0  0  0  0  0  0  0  0  0
    3.4782   -3.6433    0.0000 C   0  0  0  0  0  0  0  0  0  0  0  0
    2.0000   -2.9852    0.0000 C   0  0  0  0  0  0  0  0  0  0  0  0
    7.9128    2.4712    0.0000 H   0  0  0  0  0  0  0  0  0  0  0  0
    8.1249    0.2686    0.0000 H   0  0  0  0  0  0  0  0  0  0  0  0
    8.5234    0.9589    0.0000 H   0  0  0  0  0  0  0  0  0  0  0  0
    7.4453    2.8262    0.0000 H   0  0  0  0  0  0  0  0  0  0  0  0
    6.6482    2.8262    0.0000 H   0  0  0  0  0  0  0  0  0  0  0  0
    6.6482   -0.1237    0.0000 H   0  0  0  0  0  0  0  0  0  0  0  0
    7.4453   -0.1237    0.0000 H   0  0  0  0  0  0  0  0  0  0  0  0
    5.9687    2.4338    0.0000 H   0  0  0  0  0  0  0  0  0  0  0  0
    5.5702    1.7436    0.0000 H   0  0  0  0  0  0  0  0  0  0  0  0
    8.5668    3.9338    0.0000 H   0  0  0  0  0  0  0  0  0  0  0  0
    8.1682    3.2436    0.0000 H   0  0  0  0  0  0  0  0  0  0  0  0
    9.9548    3.3143    0.0000 H   0  0  0  0  0  0  0  0  0  0  0  0
   10.1818    4.1612    0.0000 H   0  0  0  0  0  0  0  0  0  0  0  0
    9.3348    4.3882    0.0000 H   0  0  0  0  0  0  0  0  0  0  0  0
    3.9118   -0.8388    0.0000 H   0  0  0  0  0  0  0  0  0  0  0  0
    6.7177   -0.8388    0.0000 H   0  0  0  0  0  0  0  0  0  0  0  0
    6.7177   -2.4588    0.0000 H   0  0  0  0  0  0  0  0  0  0  0  0
    2.5402   -1.6356    0.0000 H   0  0  0  0  0  0  0  0  0  0  0  0
    3.9389   -4.0582    0.0000 H   0  0  0  0  0  0  0  0  0  0  0  0
    1.3834   -2.9204    0.0000 H   0  0  0  0  0  0  0  0  0  0  0  0
  1  7  1  0  0  0  0
  1 13  1  0  0  0  0
  2 12  2  0  0  0  0
  3 10  1  0  0  0  0
  3 11  1  0  0  0  0
  3 12  1  0  0  0  0
  4 18  1  0  0  0  0
  4 20  1  0  0  0  0
  4 21  1  0  0  0  0
  5 18  2  0  0  0  0
  5 19  1  0  0  0  0
  6 21  2  0  0  0  0
  6 22  1  0  0  0  0
  7  8  1  0  0  0  0
  7  9  1  0  0  0  0
  7 23  1  0  0  0  0
  8 10  1  0  0  0  0
  8 24  1  0  0  0  0
  8 25  1  0  0  0  0
  9 11  1  0  0  0  0
  9 26  1  0  0  0  0
  9 27  1  0  0  0  0
 10 28  1  0  0  0  0
 10 29  1  0  0  0  0
 11 30  1  0  0  0  0
 11 31  1  0  0  0  0
 12 14  1  0  0  0  0
 13 15  1  0  0  0  0
 13 32  1  0  0  0  0
 13 33  1  0  0  0  0
 14 16  2  0  0  0  0
 14 17  1  0  0  0  0
 15 34  1  0  0  0  0
 15 35  1  0  0  0  0
 15 36  1  0  0  0  0
 16 18  1  0  0  0  0
 16 37  1  0  0  0  0
 17 19  2  0  0  0  0
 17 38  1  0  0  0  0
 19 39  1  0  0  0  0
 20 22  2  0  0  0  0
 20 40  1  0  0  0  0
 21 41  1  0  0  0  0
 22 42  1  0  0  0  0
M  END
> <PUBCHEM_COMPOUND_CID>
51090847

> <PUBCHEM_COMPOUND_CANONICALIZED>
1

> <PUBCHEM_CACTVS_COMPLEXITY>
371

> <PUBCHEM_CACTVS_HBOND_ACCEPTOR>
4

> <PUBCHEM_CACTVS_HBOND_DONOR>
0

> <PUBCHEM_CACTVS_ROTATABLE_BOND>
4

> <PUBCHEM_CACTVS_SUBSKEYS>
AAADceB7sAAAAAAAAAAAAAAAAAAAAWAAAAAsWAAAAAAAAAAB4AAAHgAAAAAADBThmgY/sJcMFACoAjN3dACCgC01EqAJ2CE4dNiIaHLAnZGWIQhqhgLIyaYUAAAKAAAAAAAAAAAAAAAAAAAAAAAAAAAAAA==

> <PUBCHEM_IUPAC_OPENEYE_NAME>
(4-ethoxy-1-piperidyl)-(2-imidazol-1-yl-4-pyridyl)methanone

> <PUBCHEM_IUPAC_CAS_NAME>
(4-ethoxy-1-piperidinyl)-[2-(1-imidazolyl)-4-pyridinyl]methanone

> <PUBCHEM_IUPAC_NAME>
(4-ethoxypiperidin-1-yl)-(2-imidazol-1-ylpyridin-4-yl)methanone

> <PUBCHEM_IUPAC_SYSTEMATIC_NAME>
(4-ethoxypiperidin-1-yl)-(2-imidazol-1-ylpyridin-4-yl)methanone

> <PUBCHEM_IUPAC_TRADITIONAL_NAME>
(4-ethoxypiperidino)-(2-imidazol-1-yl-4-pyridyl)methanone

> <PUBCHEM_IUPAC_INCHI>
InChI=1S/C16H20N4O2/c1-2-22-14-4-8-19(9-5-14)16(21)13-3-6-18-15(11-13)20-10-7-17-12-20/h3,6-7,10-12,14H,2,4-5,8-9H2,1H3

> <PUBCHEM_IUPAC_INCHIKEY>
ZGLLOJHGYHUVAF-UHFFFAOYSA-N

> <PUBCHEM_XLOGP3_AA>
1.2

> <PUBCHEM_EXACT_MASS>
300.158626

> <PUBCHEM_MOLECULAR_FORMULA>
C16H20N4O2

> <PUBCHEM_MOLECULAR_WEIGHT>
300.3556

> <PUBCHEM_OPENEYE_CAN_SMILES>
CCOC1CCN(CC1)C(=O)C2=CC(=NC=C2)N3C=CN=C3

> <PUBCHEM_OPENEYE_ISO_SMILES>
CCOC1CCN(CC1)C(=O)C2=CC(=NC=C2)N3C=CN=C3

> <PUBCHEM_CACTVS_TPSA>
60.2

> <PUBCHEM_MONOISOTOPIC_WEIGHT>
300.158626

> <PUBCHEM_TOTAL_CHARGE>
0

> <PUBCHEM_HEAVY_ATOM_COUNT>
22

> <PUBCHEM_ATOM_DEF_STEREO_COUNT>
0

> <PUBCHEM_ATOM_UDEF_STEREO_COUNT>
0

> <PUBCHEM_BOND_DEF_STEREO_COUNT>
0

> <PUBCHEM_BOND_UDEF_STEREO_COUNT>
0

> <PUBCHEM_ISOTOPIC_ATOM_COUNT>
0

> <PUBCHEM_COMPONENT_COUNT>
1

> <PUBCHEM_CACTVS_TAUTO_COUNT>
1

> <PUBCHEM_COORDINATE_TYPE>
1
5
255

> <PUBCHEM_BONDANNOTATIONS>
14  16  8
14  17  8
16  18  8
17  19  8
20  22  8
4  20  8
4  21  8
5  18  8
5  19  8
6  21  8
6  22  8

$$$$

