13330
  -OEChem-06261209002D

 59 60  0     1  0  0  0  0  0999 V2000
    3.5570    0.0000    0.0000 Cl  0  0  0  0  0  0  0  0  0  0  0  0
    6.4941    6.9860    0.0000 O   0  0  0  0  0  0  0  0  0  0  0  0
    2.2884    5.8192    0.0000 N   0  0  0  0  0  0  0  0  0  0  0  0
    3.0544    6.4620    0.0000 C   0  0  3  0  0  0  0  0  0  0  0  0
    3.9941    6.1200    0.0000 C   0  0  0  0  0  0  0  0  0  0  0  0
    4.9941    6.1200    0.0000 C   0  0  0  0  0  0  0  0  0  0  0  0
    1.3486    6.1612    0.0000 C   0  0  0  0  0  0  0  0  0  0  0  0
    2.4619    4.8345    0.0000 C   0  0  0  0  0  0  0  0  0  0  0  0
    0.5826    5.5184    0.0000 C   0  0  0  0  0  0  0  0  0  0  0  0
    1.6959    4.1917    0.0000 C   0  0  0  0  0  0  0  0  0  0  0  0
    0.7563    4.5336    0.0000 C   0  0  0  0  0  0  0  0  0  0  0  0
    2.8807    7.4468    0.0000 C   0  0  0  0  0  0  0  0  0  0  0  0
    4.9941    5.1200    0.0000 C   0  0  0  0  0  0  0  0  0  0  0  0
    4.9941    7.1200    0.0000 C   0  0  0  0  0  0  0  0  0  0  0  0
    5.9941    6.1200    0.0000 C   0  0  0  0  0  0  0  0  0  0  0  0
    6.4941    5.2540    0.0000 C   0  0  0  0  0  0  0  0  0  0  0  0
    4.1281    4.6200    0.0000 C   0  0  0  0  0  0  0  0  0  0  0  0
    5.8601    7.6200    0.0000 C   0  0  0  0  0  0  0  0  0  0  0  0
    5.8601    4.6200    0.0000 C   0  0  0  0  0  0  0  0  0  0  0  0
    4.1281    7.6200    0.0000 C   0  0  0  0  0  0  0  0  0  0  0  0
    7.4941    5.2540    0.0000 C   0  0  0  0  0  0  0  0  0  0  0  0
    4.1281    3.6200    0.0000 C   0  0  0  0  0  0  0  0  0  0  0  0
    5.8601    8.6200    0.0000 C   0  0  0  0  0  0  0  0  0  0  0  0
    5.8601    3.6200    0.0000 C   0  0  0  0  0  0  0  0  0  0  0  0
    4.1281    8.6200    0.0000 C   0  0  0  0  0  0  0  0  0  0  0  0
    4.9941    3.1200    0.0000 C   0  0  0  0  0  0  0  0  0  0  0  0
    4.9941    9.1200    0.0000 C   0  0  0  0  0  0  0  0  0  0  0  0
    2.2556    6.7527    0.0000 H   0  0  0  0  0  0  0  0  0  0  0  0
    3.5686    5.6690    0.0000 H   0  0  0  0  0  0  0  0  0  0  0  0
    4.1018    6.7306    0.0000 H   0  0  0  0  0  0  0  0  0  0  0  0
    1.6586    6.6982    0.0000 H   0  0  0  0  0  0  0  0  0  0  0  0
    0.8737    6.5598    0.0000 H   0  0  0  0  0  0  0  0  0  0  0  0
    2.7719    4.2975    0.0000 H   0  0  0  0  0  0  0  0  0  0  0  0
    3.0446    5.0465    0.0000 H   0  0  0  0  0  0  0  0  0  0  0  0
    1.3859    3.6548    0.0000 H   0  0  0  0  0  0  0  0  0  0  0  0
    2.1708    3.7932    0.0000 H   0  0  0  0  0  0  0  0  0  0  0  0
    0.2726    6.0554    0.0000 H   0  0  0  0  0  0  0  0  0  0  0  0
    0.0000    5.3064    0.0000 H   0  0  0  0  0  0  0  0  0  0  0  0
    0.1363    4.5336    0.0000 H   0  0  0  0  0  0  0  0  0  0  0  0
    0.6486    3.9231    0.0000 H   0  0  0  0  0  0  0  0  0  0  0  0
    3.4913    7.5545    0.0000 H   0  0  0  0  0  0  0  0  0  0  0  0
    2.7731    8.0574    0.0000 H   0  0  0  0  0  0  0  0  0  0  0  0
    2.2702    7.3392    0.0000 H   0  0  0  0  0  0  0  0  0  0  0  0
    5.9115    5.0419    0.0000 H   0  0  0  0  0  0  0  0  0  0  0  0
    6.6018    4.6434    0.0000 H   0  0  0  0  0  0  0  0  0  0  0  0
    3.5911    4.9300    0.0000 H   0  0  0  0  0  0  0  0  0  0  0  0
    6.3970    7.3100    0.0000 H   0  0  0  0  0  0  0  0  0  0  0  0
    6.3970    4.9300    0.0000 H   0  0  0  0  0  0  0  0  0  0  0  0
    3.5911    7.3100    0.0000 H   0  0  0  0  0  0  0  0  0  0  0  0
    7.4941    4.6340    0.0000 H   0  0  0  0  0  0  0  0  0  0  0  0
    8.1141    5.2540    0.0000 H   0  0  0  0  0  0  0  0  0  0  0  0
    7.4941    5.8740    0.0000 H   0  0  0  0  0  0  0  0  0  0  0  0
    3.5911    3.3100    0.0000 H   0  0  0  0  0  0  0  0  0  0  0  0
    6.3970    8.9300    0.0000 H   0  0  0  0  0  0  0  0  0  0  0  0
    6.3970    3.3100    0.0000 H   0  0  0  0  0  0  0  0  0  0  0  0
    3.5911    8.9300    0.0000 H   0  0  0  0  0  0  0  0  0  0  0  0
    4.9941    2.5000    0.0000 H   0  0  0  0  0  0  0  0  0  0  0  0
    4.9941    9.7400    0.0000 H   0  0  0  0  0  0  0  0  0  0  0  0
    4.5570    0.0000    0.0000 H   0  0  0  0  0  0  0  0  0  0  0  0
  1 59  1  0  0  0  0
  2 15  2  0  0  0  0
  3  4  1  0  0  0  0
  3  7  1  0  0  0  0
  3  8  1  0  0  0  0
  4  5  1  0  0  0  0
  4 12  1  0  0  0  0
  4 28  1  0  0  0  0
  5  6  1  0  0  0  0
  5 29  1  0  0  0  0
  5 30  1  0  0  0  0
  6 13  1  0  0  0  0
  6 14  1  0  0  0  0
  6 15  1  0  0  0  0
  7  9  1  0  0  0  0
  7 31  1  0  0  0  0
  7 32  1  0  0  0  0
  8 10  1  0  0  0  0
  8 33  1  0  0  0  0
  8 34  1  0  0  0  0
  9 11  1  0  0  0  0
  9 37  1  0  0  0  0
  9 38  1  0  0  0  0
 10 11  1  0  0  0  0
 10 35  1  0  0  0  0
 10 36  1  0  0  0  0
 11 39  1  0  0  0  0
 11 40  1  0  0  0  0
 12 41  1  0  0  0  0
 12 42  1  0  0  0  0
 12 43  1  0  0  0  0
 13 17  2  0  0  0  0
 13 19  1  0  0  0  0
 14 18  2  0  0  0  0
 14 20  1  0  0  0  0
 15 16  1  0  0  0  0
 16 21  1  0  0  0  0
 16 44  1  0  0  0  0
 16 45  1  0  0  0  0
 17 22  1  0  0  0  0
 17 46  1  0  0  0  0
 18 23  1  0  0  0  0
 18 47  1  0  0  0  0
 19 24  2  0  0  0  0
 19 48  1  0  0  0  0
 20 25  2  0  0  0  0
 20 49  1  0  0  0  0
 21 50  1  0  0  0  0
 21 51  1  0  0  0  0
 21 52  1  0  0  0  0
 22 26  2  0  0  0  0
 22 53  1  0  0  0  0
 23 27  2  0  0  0  0
 23 54  1  0  0  0  0
 24 26  1  0  0  0  0
 24 55  1  0  0  0  0
 25 27  1  0  0  0  0
 25 56  1  0  0  0  0
 26 57  1  0  0  0  0
 27 58  1  0  0  0  0
M  END
> <PUBCHEM_COMPOUND_CID>
13330

> <PUBCHEM_COMPOUND_CANONICALIZED>
1

> <PUBCHEM_CACTVS_COMPLEXITY>
410

> <PUBCHEM_CACTVS_HBOND_ACCEPTOR>
2

> <PUBCHEM_CACTVS_HBOND_DONOR>
1

> <PUBCHEM_CACTVS_ROTATABLE_BOND>
7

> <PUBCHEM_CACTVS_SUBSKEYS>
AAADcfB6IAAEAAAAAAAAAAAAAAAAAAAAAAA8YIAAAAAAAAABQAAAHgAAAAAADizBmAQyAIMAAACIAqBSAAACAAAgAAAIiAEIAIgIIDKAlRCEIAAggACIiAcciMCPgAAAAAAAAAAAAAAAAAAAAAAAAAAAAA==

> <PUBCHEM_IUPAC_OPENEYE_NAME>
4,4-diphenyl-6-(1-piperidyl)heptan-3-one hydrochloride

> <PUBCHEM_IUPAC_CAS_NAME>
4,4-diphenyl-6-(1-piperidinyl)-3-heptanone hydrochloride

> <PUBCHEM_IUPAC_NAME>
4,4-diphenyl-6-piperidin-1-ylheptan-3-one hydrochloride

> <PUBCHEM_IUPAC_SYSTEMATIC_NAME>
4,4-diphenyl-6-piperidin-1-yl-heptan-3-one hydrochloride

> <PUBCHEM_IUPAC_TRADITIONAL_NAME>
4,4-diphenyl-6-piperidino-heptan-3-one hydrochloride

> <PUBCHEM_IUPAC_INCHI>
InChI=1S/C24H31NO.ClH/c1-3-23(26)24(21-13-7-4-8-14-21,22-15-9-5-10-16-22)19-20(2)25-17-11-6-12-18-25;/h4-5,7-10,13-16,20H,3,6,11-12,17-19H2,1-2H3;1H

> <PUBCHEM_IUPAC_INCHIKEY>
DTXPDSQEMZRBBG-UHFFFAOYSA-N

> <PUBCHEM_EXACT_MASS>
385.217242

> <PUBCHEM_MOLECULAR_FORMULA>
C24H32ClNO

> <PUBCHEM_MOLECULAR_WEIGHT>
385.96998

> <PUBCHEM_OPENEYE_CAN_SMILES>
CCC(=O)C(CC(C)N1CCCCC1)(C2=CC=CC=C2)C3=CC=CC=C3.Cl

> <PUBCHEM_OPENEYE_ISO_SMILES>
CCC(=O)C(CC(C)N1CCCCC1)(C2=CC=CC=C2)C3=CC=CC=C3.Cl

> <PUBCHEM_CACTVS_TPSA>
20.3

> <PUBCHEM_MONOISOTOPIC_WEIGHT>
385.217242

> <PUBCHEM_TOTAL_CHARGE>
0

> <PUBCHEM_HEAVY_ATOM_COUNT>
27

> <PUBCHEM_ATOM_DEF_STEREO_COUNT>
0

> <PUBCHEM_ATOM_UDEF_STEREO_COUNT>
1

> <PUBCHEM_BOND_DEF_STEREO_COUNT>
0

> <PUBCHEM_BOND_UDEF_STEREO_COUNT>
0

> <PUBCHEM_ISOTOPIC_ATOM_COUNT>
0

> <PUBCHEM_COMPONENT_COUNT>
2

> <PUBCHEM_CACTVS_TAUTO_COUNT>
2

> <PUBCHEM_COORDINATE_TYPE>
1
5
255

> <PUBCHEM_BONDANNOTATIONS>
13  17  8
13  19  8
14  18  8
14  20  8
17  22  8
18  23  8
19  24  8
20  25  8
22  26  8
23  27  8
24  26  8
25  27  8
4  28  3

$$$$

