11254
  -OEChem-06261205272D

 12 13  0     1  0  0  0  0  0999 V2000
    4.3660    1.1160    0.0000 O   0  0  0  0  0  0  0  0  0  0  0  0
    2.5000   -1.1160    0.0000 O   0  0  0  0  0  0  0  0  0  0  0  0
    3.8660    0.2500    0.0000 C   0  0  3  0  0  0  0  0  0  0  0  0
    3.0000   -0.2500    0.0000 C   0  0  3  0  0  0  0  0  0  0  0  0
    4.8660    0.2500    0.0000 C   0  0  0  0  0  0  0  0  0  0  0  0
    2.0000   -0.2500    0.0000 C   0  0  0  0  0  0  0  0  0  0  0  0
    3.4276    0.6884    0.0000 H   0  0  0  0  0  0  0  0  0  0  0  0
    2.8395    0.3489    0.0000 H   0  0  0  0  0  0  0  0  0  0  0  0
    4.9737   -0.3606    0.0000 H   0  0  0  0  0  0  0  0  0  0  0  0
    5.4486    0.4621    0.0000 H   0  0  0  0  0  0  0  0  0  0  0  0
    1.8923    0.3606    0.0000 H   0  0  0  0  0  0  0  0  0  0  0  0
    1.4174   -0.4621    0.0000 H   0  0  0  0  0  0  0  0  0  0  0  0
  1  3  1  0  0  0  0
  1  5  1  0  0  0  0
  2  4  1  0  0  0  0
  2  6  1  0  0  0  0
  3  4  1  0  0  0  0
  3  5  1  0  0  0  0
  3  7  1  0  0  0  0
  4  6  1  0  0  0  0
  4  8  1  0  0  0  0
  5  9  1  0  0  0  0
  5 10  1  0  0  0  0
  6 11  1  0  0  0  0
  6 12  1  0  0  0  0
M  END
> <PUBCHEM_COMPOUND_CID>
11254

> <PUBCHEM_COMPOUND_CANONICALIZED>
1

> <PUBCHEM_CACTVS_COMPLEXITY>
61.9

> <PUBCHEM_CACTVS_HBOND_ACCEPTOR>
2

> <PUBCHEM_CACTVS_HBOND_DONOR>
0

> <PUBCHEM_CACTVS_ROTATABLE_BOND>
1

> <PUBCHEM_CACTVS_SUBSKEYS>
AAADcYBgMAAAAAAAAAAAAAAAEiQAAAAAAAAAAAAAAAAAAAAAAAAAGgAAAAAACBSggAIAAAAABAAAAAAAAAAAAAAAAAAAAAAAAAABAAAAAAAAAAAFAAACAABAAAAAAAAAAAAAAAAAAAAAAAAAAAAAAAAAAA==

> <PUBCHEM_IUPAC_OPENEYE_NAME>
2-(oxiran-2-yl)oxirane

> <PUBCHEM_IUPAC_CAS_NAME>
2-(2-oxiranyl)oxirane

> <PUBCHEM_IUPAC_NAME>
2-(oxiran-2-yl)oxirane

> <PUBCHEM_IUPAC_SYSTEMATIC_NAME>
2-(oxiran-2-yl)oxirane

> <PUBCHEM_IUPAC_TRADITIONAL_NAME>
2-(oxiran-2-yl)oxirane

> <PUBCHEM_IUPAC_INCHI>
InChI=1S/C4H6O2/c1-3(5-1)4-2-6-4/h3-4H,1-2H2

> <PUBCHEM_IUPAC_INCHIKEY>
ZFIVKAOQEXOYFY-UHFFFAOYSA-N

> <PUBCHEM_XLOGP3>
-0.5

> <PUBCHEM_EXACT_MASS>
86.036779

> <PUBCHEM_MOLECULAR_FORMULA>
C4H6O2

> <PUBCHEM_MOLECULAR_WEIGHT>
86.08924

> <PUBCHEM_OPENEYE_CAN_SMILES>
C1C(O1)C2CO2

> <PUBCHEM_OPENEYE_ISO_SMILES>
C1C(O1)C2CO2

> <PUBCHEM_CACTVS_TPSA>
25.1

> <PUBCHEM_MONOISOTOPIC_WEIGHT>
86.036779

> <PUBCHEM_TOTAL_CHARGE>
0

> <PUBCHEM_HEAVY_ATOM_COUNT>
6

> <PUBCHEM_ATOM_DEF_STEREO_COUNT>
0

> <PUBCHEM_ATOM_UDEF_STEREO_COUNT>
2

> <PUBCHEM_BOND_DEF_STEREO_COUNT>
0

> <PUBCHEM_BOND_UDEF_STEREO_COUNT>
0

> <PUBCHEM_ISOTOPIC_ATOM_COUNT>
0

> <PUBCHEM_COMPONENT_COUNT>
1

> <PUBCHEM_CACTVS_TAUTO_COUNT>
1

> <PUBCHEM_COORDINATE_TYPE>
1
5
255

> <PUBCHEM_BONDANNOTATIONS>
3  5  3
4  6  3

$$$$

