11753
  -OEChem-06261206043D

 52 55  0     1  0  0  0  0  0999 V2000
   -5.1566   -1.6862   -0.0193 O   0  0  0  0  0  0  0  0  0  0  0  0
    4.7342   -2.6883   -0.4845 O   0  0  0  0  0  0  0  0  0  0  0  0
   -0.9666    0.9536    0.1300 C   0  0  2  0  0  0  0  0  0  0  0  0
    0.0438   -0.1819   -0.2291 C   0  0  1  0  0  0  0  0  0  0  0  0
   -2.3379    0.5859   -0.4471 C   0  0  1  0  0  0  0  0  0  0  0  0
   -2.8799   -0.7469    0.1055 C   0  0  2  0  0  0  0  0  0  0  0  0
    1.4950    0.1359    0.2853 C   0  0  2  0  0  0  0  0  0  0  0  0
   -0.4823   -1.5857    0.1725 C   0  0  0  0  0  0  0  0  0  0  0  0
    1.9189    1.5277   -0.2859 C   0  0  1  0  0  0  0  0  0  0  0  0
   -1.9157   -1.8638   -0.3154 C   0  0  0  0  0  0  0  0  0  0  0  0
   -0.4820    2.3095   -0.4018 C   0  0  0  0  0  0  0  0  0  0  0  0
   -3.5061    1.5504   -0.2606 C   0  0  0  0  0  0  0  0  0  0  0  0
   -4.2477   -0.7741   -0.6047 C   0  0  2  0  0  0  0  0  0  0  0  0
    0.9301    2.6443    0.0690 C   0  0  0  0  0  0  0  0  0  0  0  0
   -4.7513    0.6785   -0.5034 C   0  0  0  0  0  0  0  0  0  0  0  0
    2.5054   -0.9214   -0.2610 C   0  0  0  0  0  0  0  0  0  0  0  0
   -3.0705   -0.7792    1.6434 C   0  0  0  0  0  0  0  0  0  0  0  0
    1.5551    0.1162    1.8358 C   0  0  0  0  0  0  0  0  0  0  0  0
    3.3551    1.9211    0.1105 C   0  0  0  0  0  0  0  0  0  0  0  0
    3.9412   -0.4821   -0.1984 C   0  0  0  0  0  0  0  0  0  0  0  0
    4.3310    0.7878   -0.0201 C   0  0  0  0  0  0  0  0  0  0  0  0
    4.9868   -1.5013   -0.3206 C   0  0  0  0  0  0  0  0  0  0  0  0
   -1.0510    1.0416    1.2183 H   0  0  0  0  0  0  0  0  0  0  0  0
    0.1043   -0.2003   -1.3292 H   0  0  0  0  0  0  0  0  0  0  0  0
   -2.2039    0.4805   -1.5371 H   0  0  0  0  0  0  0  0  0  0  0  0
   -0.4483   -1.7115    1.2587 H   0  0  0  0  0  0  0  0  0  0  0  0
    0.1697   -2.3606   -0.2464 H   0  0  0  0  0  0  0  0  0  0  0  0
    1.9124    1.4415   -1.3844 H   0  0  0  0  0  0  0  0  0  0  0  0
   -1.8994   -1.9547   -1.4093 H   0  0  0  0  0  0  0  0  0  0  0  0
   -2.2547   -2.8332    0.0692 H   0  0  0  0  0  0  0  0  0  0  0  0
   -1.1605    3.1065   -0.0758 H   0  0  0  0  0  0  0  0  0  0  0  0
   -0.5028    2.3076   -1.4992 H   0  0  0  0  0  0  0  0  0  0  0  0
   -3.4637    2.3879   -0.9645 H   0  0  0  0  0  0  0  0  0  0  0  0
   -3.5241    1.9686    0.7519 H   0  0  0  0  0  0  0  0  0  0  0  0
   -4.1280   -1.0476   -1.6607 H   0  0  0  0  0  0  0  0  0  0  0  0
    1.2468    3.5826   -0.4029 H   0  0  0  0  0  0  0  0  0  0  0  0
    0.9255    2.8282    1.1496 H   0  0  0  0  0  0  0  0  0  0  0  0
   -5.4803    0.8075    0.3045 H   0  0  0  0  0  0  0  0  0  0  0  0
   -5.2531    0.9669   -1.4338 H   0  0  0  0  0  0  0  0  0  0  0  0
    2.2741   -1.1488   -1.3102 H   0  0  0  0  0  0  0  0  0  0  0  0
    2.3853   -1.8571    0.2994 H   0  0  0  0  0  0  0  0  0  0  0  0
   -3.4416   -1.7593    1.9649 H   0  0  0  0  0  0  0  0  0  0  0  0
   -2.1410   -0.5980    2.1892 H   0  0  0  0  0  0  0  0  0  0  0  0
   -3.7924   -0.0334    1.9908 H   0  0  0  0  0  0  0  0  0  0  0  0
    1.3190   -0.8764    2.2324 H   0  0  0  0  0  0  0  0  0  0  0  0
    2.5508    0.3650    2.2157 H   0  0  0  0  0  0  0  0  0  0  0  0
    0.8569    0.8238    2.2902 H   0  0  0  0  0  0  0  0  0  0  0  0
    3.3881    2.2964    1.1402 H   0  0  0  0  0  0  0  0  0  0  0  0
    3.6869    2.7449   -0.5335 H   0  0  0  0  0  0  0  0  0  0  0  0
    5.3844    1.0478    0.0409 H   0  0  0  0  0  0  0  0  0  0  0  0
   -6.0111   -1.5766   -0.4702 H   0  0  0  0  0  0  0  0  0  0  0  0
    6.0289   -1.1449   -0.2589 H   0  0  0  0  0  0  0  0  0  0  0  0
  1 13  1  0  0  0  0
  1 51  1  0  0  0  0
  2 22  2  0  0  0  0
  3  4  1  0  0  0  0
  3  5  1  0  0  0  0
  3 11  1  0  0  0  0
  3 23  1  0  0  0  0
  4  7  1  0  0  0  0
  4  8  1  0  0  0  0
  4 24  1  0  0  0  0
  5  6  1  0  0  0  0
  5 12  1  0  0  0  0
  5 25  1  0  0  0  0
  6 10  1  0  0  0  0
  6 13  1  0  0  0  0
  6 17  1  0  0  0  0
  7  9  1  0  0  0  0
  7 16  1  0  0  0  0
  7 18  1  0  0  0  0
  8 10  1  0  0  0  0
  8 26  1  0  0  0  0
  8 27  1  0  0  0  0
  9 14  1  0  0  0  0
  9 19  1  0  0  0  0
  9 28  1  0  0  0  0
 10 29  1  0  0  0  0
 10 30  1  0  0  0  0
 11 14  1  0  0  0  0
 11 31  1  0  0  0  0
 11 32  1  0  0  0  0
 12 15  1  0  0  0  0
 12 33  1  0  0  0  0
 12 34  1  0  0  0  0
 13 15  1  0  0  0  0
 13 35  1  0  0  0  0
 14 36  1  0  0  0  0
 14 37  1  0  0  0  0
 15 38  1  0  0  0  0
 15 39  1  0  0  0  0
 16 20  1  0  0  0  0
 16 40  1  0  0  0  0
 16 41  1  0  0  0  0
 17 42  1  0  0  0  0
 17 43  1  0  0  0  0
 17 44  1  0  0  0  0
 18 45  1  0  0  0  0
 18 46  1  0  0  0  0
 18 47  1  0  0  0  0
 19 21  1  0  0  0  0
 19 48  1  0  0  0  0
 19 49  1  0  0  0  0
 20 21  2  0  0  0  0
 20 22  1  0  0  0  0
 21 50  1  0  0  0  0
 22 52  1  0  0  0  0
M  END
> <PUBCHEM_COMPOUND_CID>
11753

> <PUBCHEM_CONFORMER_RMSD>
0.6

> <PUBCHEM_CONFORMER_DIVERSEORDER>
1

> <PUBCHEM_MMFF94_PARTIAL_CHARGES>
11
1 -0.68
13 0.28
16 0.14
19 0.14
2 -0.57
20 -0.12
21 -0.29
22 0.5
50 0.15
51 0.4
52 0.06

> <PUBCHEM_EFFECTIVE_ROTOR_COUNT>
2.8

> <PUBCHEM_PHARMACOPHORE_FEATURES>
7
1 1 acceptor
1 1 donor
1 2 acceptor
5 5 6 12 13 15 rings
6 3 4 5 6 8 10 rings
6 3 4 7 9 11 14 rings
6 7 9 16 19 20 21 rings

> <PUBCHEM_HEAVY_ATOM_COUNT>
22

> <PUBCHEM_ATOM_DEF_STEREO_COUNT>
7

> <PUBCHEM_ATOM_UDEF_STEREO_COUNT>
0

> <PUBCHEM_BOND_DEF_STEREO_COUNT>
0

> <PUBCHEM_BOND_UDEF_STEREO_COUNT>
0

> <PUBCHEM_ISOTOPIC_ATOM_COUNT>
0

> <PUBCHEM_COMPONENT_COUNT>
1

> <PUBCHEM_CACTVS_TAUTO_COUNT>
1

> <PUBCHEM_CONFORMER_ID>
00002DE900000001

> <PUBCHEM_MMFF94_ENERGY>
69.8835

> <PUBCHEM_FEATURE_SELFOVERLAP>
35.612

> <PUBCHEM_SHAPE_FINGERPRINT>
10366900 7 17274827935050824467
10693767 8 18189356644281100647
10906281 52 18058158437604696552
10967382 1 18339081493014533844
1100329 8 16971397123671378098
11578080 2 16664030379093669155
116883 192 18336261357859552692
12011746 2 18271533078225345717
12236239 1 17632301176847960416
12403259 226 18337395942121975253
12633257 1 15430320196183228295
12916754 54 18336544915974587987
13134695 92 17822300062998465352
13140716 1 18337664321279267905
13224815 77 17917436393096683465
13288520 33 18336825389749067750
13533116 47 18114181882926881539
13544653 18 18411412912724105748
13583140 156 17242184456723729936
13862211 1 18411143566629790822
14341114 176 18412538787309329657
14790565 3 16823049924242188856
14866123 147 17758391160092261376
15099037 51 18411420647891556255
15196674 1 18410856555455793597
15352361 1 18410011065616300446
15536298 74 18409169874617473412
15788980 27 18413386544733241070
15848702 151 18261108590801437158
16945 1 18052532171289086349
17349148 13 17603300440673392695
17492 89 18265336092910167167
17804303 29 18410572898619807389
1813 80 17489591156037537876
18186145 218 17632864113489328869
19141452 34 18260268542432605751
19591789 44 18411420639259527454
19862831 5 17846780719354818432
200 152 18113338604752913485
20645477 70 18411421700475126294
21267235 1 18411130329482334918
21279426 13 18340491178674960293
21452121 103 18335713685136848272
21521239 73 18189638110941410295
21682296 61 18334849571391017463
221357 26 18412268328733907285
221490 88 18269830935093043296
22182313 1 18268731496664970892
22393880 68 18130519603655756877
23402539 116 18335145331486294814
23493267 7 17917993914432904617
23559900 14 18409171021948423088
2871803 45 18273219711518520124
3004659 81 18273213132277612254
3286 77 17168152229775122563
335352 9 18338517568119523461
34934 24 18338805503054003460
4214541 1 18410293631446268853
474 4 17130986443687317748
5104073 3 18409730664070275544
5281201 14 18412823573273406476
633830 44 17489307456098754380
7364860 26 18191589648995845592
9709674 26 18269554949105863195
9981440 41 17187569343224496840

> <PUBCHEM_SHAPE_MULTIPOLES>
441.01
10.04
2.54
0.98
0.31
0.34
0.46
-4.07
-1.43
1.22
-0.31
-0.2
-0.11
0.65

> <PUBCHEM_SHAPE_SELFOVERLAP>
941.133

> <PUBCHEM_SHAPE_VOLUME>
241.9

> <PUBCHEM_COORDINATE_TYPE>
2
5
10

$$$$

