8906
  -OEChem-06261203143D

 48 47  0     0  0  0  0  0  0999 V2000
    4.4146   -0.2753   -0.1854 O   0  0  0  0  0  0  0  0  0  0  0  0
    6.4540   -0.5348    0.8501 O   0  0  0  0  0  0  0  0  0  0  0  0
   -2.2787   -0.9315   -0.3375 C   0  0  0  0  0  0  0  0  0  0  0  0
   -3.4036   -0.0639    0.2371 C   0  0  0  0  0  0  0  0  0  0  0  0
   -0.8983   -0.5851    0.2257 C   0  0  0  0  0  0  0  0  0  0  0  0
   -4.8235   -0.4185   -0.2189 C   0  0  0  0  0  0  0  0  0  0  0  0
    0.2274   -1.4445   -0.3585 C   0  0  0  0  0  0  0  0  0  0  0  0
   -5.8950    0.5201    0.3418 C   0  0  0  0  0  0  0  0  0  0  0  0
    1.6116   -1.0826    0.1859 C   0  0  0  0  0  0  0  0  0  0  0  0
   -7.3021    0.2185   -0.1848 C   0  0  0  0  0  0  0  0  0  0  0  0
    2.7011   -1.9517   -0.4510 C   0  0  0  0  0  0  0  0  0  0  0  0
   -8.3714    1.1707    0.3523 C   0  0  0  0  0  0  0  0  0  0  0  0
    4.0874   -1.6289    0.0935 C   0  0  0  0  0  0  0  0  0  0  0  0
   -9.7572    0.7815   -0.1403 C   0  0  0  0  0  0  0  0  0  0  0  0
    5.6374    0.1499    0.2502 C   0  0  0  0  0  0  0  0  0  0  0  0
    5.8374    1.5809   -0.1113 C   0  0  0  0  0  0  0  0  0  0  0  0
    4.6640    2.5067   -0.2119 C   0  0  0  0  0  0  0  0  0  0  0  0
    7.0950    1.9885   -0.3371 C   0  0  0  0  0  0  0  0  0  0  0  0
   -2.4977   -1.9855   -0.1266 H   0  0  0  0  0  0  0  0  0  0  0  0
   -2.2657   -0.8229   -1.4288 H   0  0  0  0  0  0  0  0  0  0  0  0
   -3.2008    0.9831   -0.0221 H   0  0  0  0  0  0  0  0  0  0  0  0
   -3.3685   -0.1223    1.3326 H   0  0  0  0  0  0  0  0  0  0  0  0
   -0.6842    0.4719    0.0252 H   0  0  0  0  0  0  0  0  0  0  0  0
   -0.9122   -0.7043    1.3161 H   0  0  0  0  0  0  0  0  0  0  0  0
   -4.8588   -0.3903   -1.3149 H   0  0  0  0  0  0  0  0  0  0  0  0
   -5.0512   -1.4492    0.0786 H   0  0  0  0  0  0  0  0  0  0  0  0
    0.2292   -1.3348   -1.4502 H   0  0  0  0  0  0  0  0  0  0  0  0
    0.0190   -2.5006   -0.1466 H   0  0  0  0  0  0  0  0  0  0  0  0
   -5.6353    1.5551    0.0871 H   0  0  0  0  0  0  0  0  0  0  0  0
   -5.8954    0.4540    1.4366 H   0  0  0  0  0  0  0  0  0  0  0  0
    1.8123   -0.0232   -0.0131 H   0  0  0  0  0  0  0  0  0  0  0  0
    1.6227   -1.2156    1.2744 H   0  0  0  0  0  0  0  0  0  0  0  0
   -7.5661   -0.8121    0.0835 H   0  0  0  0  0  0  0  0  0  0  0  0
   -7.2946    0.2674   -1.2807 H   0  0  0  0  0  0  0  0  0  0  0  0
    2.6943   -1.7858   -1.5353 H   0  0  0  0  0  0  0  0  0  0  0  0
    2.4828   -3.0114   -0.2759 H   0  0  0  0  0  0  0  0  0  0  0  0
   -8.1471    2.1962    0.0374 H   0  0  0  0  0  0  0  0  0  0  0  0
   -8.3631    1.1576    1.4483 H   0  0  0  0  0  0  0  0  0  0  0  0
    4.8234   -2.2863   -0.3839 H   0  0  0  0  0  0  0  0  0  0  0  0
    4.1117   -1.7984    1.1765 H   0  0  0  0  0  0  0  0  0  0  0  0
  -10.0225   -0.2278    0.1902 H   0  0  0  0  0  0  0  0  0  0  0  0
  -10.5072    1.4754    0.2523 H   0  0  0  0  0  0  0  0  0  0  0  0
   -9.8070    0.8100   -1.2335 H   0  0  0  0  0  0  0  0  0  0  0  0
    4.0216    2.2248   -1.0524 H   0  0  0  0  0  0  0  0  0  0  0  0
    4.0707    2.4689    0.7076 H   0  0  0  0  0  0  0  0  0  0  0  0
    4.9735    3.5464   -0.3627 H   0  0  0  0  0  0  0  0  0  0  0  0
    7.3090    3.0184   -0.6048 H   0  0  0  0  0  0  0  0  0  0  0  0
    7.9428    1.3147   -0.2681 H   0  0  0  0  0  0  0  0  0  0  0  0
  1 13  1  0  0  0  0
  1 15  1  0  0  0  0
  2 15  2  0  0  0  0
  3  4  1  0  0  0  0
  3  5  1  0  0  0  0
  3 19  1  0  0  0  0
  3 20  1  0  0  0  0
  4  6  1  0  0  0  0
  4 21  1  0  0  0  0
  4 22  1  0  0  0  0
  5  7  1  0  0  0  0
  5 23  1  0  0  0  0
  5 24  1  0  0  0  0
  6  8  1  0  0  0  0
  6 25  1  0  0  0  0
  6 26  1  0  0  0  0
  7  9  1  0  0  0  0
  7 27  1  0  0  0  0
  7 28  1  0  0  0  0
  8 10  1  0  0  0  0
  8 29  1  0  0  0  0
  8 30  1  0  0  0  0
  9 11  1  0  0  0  0
  9 31  1  0  0  0  0
  9 32  1  0  0  0  0
 10 12  1  0  0  0  0
 10 33  1  0  0  0  0
 10 34  1  0  0  0  0
 11 13  1  0  0  0  0
 11 35  1  0  0  0  0
 11 36  1  0  0  0  0
 12 14  1  0  0  0  0
 12 37  1  0  0  0  0
 12 38  1  0  0  0  0
 13 39  1  0  0  0  0
 13 40  1  0  0  0  0
 14 41  1  0  0  0  0
 14 42  1  0  0  0  0
 14 43  1  0  0  0  0
 15 16  1  0  0  0  0
 16 17  1  0  0  0  0
 16 18  2  0  0  0  0
 17 44  1  0  0  0  0
 17 45  1  0  0  0  0
 17 46  1  0  0  0  0
 18 47  1  0  0  0  0
 18 48  1  0  0  0  0
M  END
> <PUBCHEM_COMPOUND_CID>
8906

> <PUBCHEM_CONFORMER_RMSD>
1.2

> <PUBCHEM_CONFORMER_DIVERSEORDER>
1
58
25
72
4
6
52
63
47
46
37
28
48
14
30
60
77
24
50
26
9
56
76
29
21
22
67
8
33
39
44
23
10
51
13
71
15
74
17
61
53
75
40
69
19
31
73
3
66
57
11
35
62
41
36
2
68
65
79
54
70
12
55
16
32
49
42
45
5
43
20
7
18
59
64
38
78
34
27

> <PUBCHEM_MMFF94_PARTIAL_CHARGES>
9
1 -0.43
13 0.28
15 0.71
16 -0.12
17 0.14
18 -0.3
2 -0.57
47 0.15
48 0.15

> <PUBCHEM_EFFECTIVE_ROTOR_COUNT>
13

> <PUBCHEM_PHARMACOPHORE_FEATURES>
2
1 14 hydrophobe
1 2 acceptor

> <PUBCHEM_HEAVY_ATOM_COUNT>
18

> <PUBCHEM_ATOM_DEF_STEREO_COUNT>
0

> <PUBCHEM_ATOM_UDEF_STEREO_COUNT>
0

> <PUBCHEM_BOND_DEF_STEREO_COUNT>
0

> <PUBCHEM_BOND_UDEF_STEREO_COUNT>
0

> <PUBCHEM_ISOTOPIC_ATOM_COUNT>
0

> <PUBCHEM_COMPONENT_COUNT>
1

> <PUBCHEM_CACTVS_TAUTO_COUNT>
1

> <PUBCHEM_CONFORMER_ID>
000022CA00000001

> <PUBCHEM_MMFF94_ENERGY>
8.9799

> <PUBCHEM_FEATURE_SELFOVERLAP>
10.148

> <PUBCHEM_SHAPE_FINGERPRINT>
10 15 17989486316518141059
10066227 49 8790890675021753949
10411042 1 17906452479112788830
11315181 36 18259983796125340283
11638347 137 16917071095977980418
125118 31 18411417349731517977
13685833 64 9079117756405606758
14142895 15 18336547123735328575
14251757 52 18412265047384135505
14251764 18 17894911845978749601
14251764 46 17967817180028942210
14429380 56 18411710867717165509
14598715 104 17489040335536133821
15183329 4 17530960272168420609
155225 1 18408041801341219040
155225 6 17984693421159403692
16120349 18 18410859854607965829
18335252 114 18186517705526506092
195137 175 17676481779515232905
20157964 124 18410009961831213470
20281389 69 18201439216186250239
20621476 38 9871751290943996937
20735858 18 14979955882918822571
20812841 46 18130792287372710418
21095123 145 17022903425292712663
21130983 4 18408885144371881651
21130991 4 6699544766753446956
21150785 3 17458064876751755759
22224240 67 17918555739632902203
23524908 199 17749658646694880588
246663 6 7637397437432213215
33532 11 9223228542546276481
4073 2 18413385424301535515
4325135 7 18187083970440286309
444735 82 18272928336700780269
445580 126 18408329878399608024
465052 167 10663825178781082738
6438161 24 8718828669714296508
67123 10 18409730661009670847

> <PUBCHEM_SHAPE_MULTIPOLES>
358.69
29.41
2.12
0.7
47.27
0.63
-0.01
18.15
-0.83
-4.38
0.24
-0.12
-0.03
-0.69

> <PUBCHEM_SHAPE_SELFOVERLAP>
660.511

> <PUBCHEM_SHAPE_VOLUME>
226.7

> <PUBCHEM_COORDINATE_TYPE>
2
5
10

$$$$

