47205745
  -OEChem-06241223002D

 38 39  0     0  0  0  0  0  0999 V2000
    5.6859    3.4862    0.0000 S   0  0  0  0  0  0  0  0  0  0  0  0
    5.4071    1.7262    0.0000 O   0  0  0  0  0  0  0  0  0  0  0  0
    5.4641   -0.3616    0.0000 O   0  0  0  0  0  0  0  0  0  0  0  0
    4.8768    4.0740    0.0000 O   0  0  0  0  0  0  0  0  0  0  0  0
    6.4949    2.8984    0.0000 O   0  0  0  0  0  0  0  0  0  0  0  0
    3.7320   -0.3616    0.0000 N   0  0  0  0  0  0  0  0  0  0  0  0
    6.2736    4.2952    0.0000 N   0  0  0  0  0  0  0  0  0  0  0  0
    2.0000   -3.3616    0.0000 C   0  0  0  0  0  0  0  0  0  0  0  0
    2.0000   -4.3616    0.0000 C   0  0  0  0  0  0  0  0  0  0  0  0
    2.8660   -2.8616    0.0000 C   0  0  0  0  0  0  0  0  0  0  0  0
    2.8660   -4.8616    0.0000 C   0  0  0  0  0  0  0  0  0  0  0  0
    3.7320   -4.3616    0.0000 C   0  0  0  0  0  0  0  0  0  0  0  0
    2.8660   -1.8616    0.0000 C   0  0  0  0  0  0  0  0  0  0  0  0
    3.7320   -3.3616    0.0000 C   0  0  0  0  0  0  0  0  0  0  0  0
    3.7320   -1.3616    0.0000 C   0  0  0  0  0  0  0  0  0  0  0  0
    4.5981    0.1384    0.0000 C   0  0  0  0  0  0  0  0  0  0  0  0
    4.5981    1.1384    0.0000 C   0  0  0  0  0  0  0  0  0  0  0  0
    5.0981    2.6772    0.0000 C   0  0  0  0  0  0  0  0  0  0  0  0
    3.7891    1.7262    0.0000 C   0  0  0  0  0  0  0  0  0  0  0  0
    4.0981    2.6772    0.0000 C   0  0  0  0  0  0  0  0  0  0  0  0
    1.7880   -2.7790    0.0000 H   0  0  0  0  0  0  0  0  0  0  0  0
    1.3894   -3.4693    0.0000 H   0  0  0  0  0  0  0  0  0  0  0  0
    1.3894   -4.2540    0.0000 H   0  0  0  0  0  0  0  0  0  0  0  0
    1.7880   -4.9442    0.0000 H   0  0  0  0  0  0  0  0  0  0  0  0
    2.4675   -5.3366    0.0000 H   0  0  0  0  0  0  0  0  0  0  0  0
    3.2646   -5.3366    0.0000 H   0  0  0  0  0  0  0  0  0  0  0  0
    3.9441   -4.9442    0.0000 H   0  0  0  0  0  0  0  0  0  0  0  0
    4.3426   -4.2540    0.0000 H   0  0  0  0  0  0  0  0  0  0  0  0
    2.6540   -1.2790    0.0000 H   0  0  0  0  0  0  0  0  0  0  0  0
    2.2554   -1.9693    0.0000 H   0  0  0  0  0  0  0  0  0  0  0  0
    4.2690   -3.0516    0.0000 H   0  0  0  0  0  0  0  0  0  0  0  0
    3.9441   -1.9442    0.0000 H   0  0  0  0  0  0  0  0  0  0  0  0
    4.3426   -1.2540    0.0000 H   0  0  0  0  0  0  0  0  0  0  0  0
    3.1951   -0.0516    0.0000 H   0  0  0  0  0  0  0  0  0  0  0  0
    3.1994    1.5346    0.0000 H   0  0  0  0  0  0  0  0  0  0  0  0
    3.7336    3.1788    0.0000 H   0  0  0  0  0  0  0  0  0  0  0  0
    6.0215    4.8616    0.0000 H   0  0  0  0  0  0  0  0  0  0  0  0
    6.8902    4.2304    0.0000 H   0  0  0  0  0  0  0  0  0  0  0  0
  1  4  2  0  0  0  0
  1  5  2  0  0  0  0
  1  7  1  0  0  0  0
  1 18  1  0  0  0  0
  2 17  1  0  0  0  0
  2 18  1  0  0  0  0
  3 16  2  0  0  0  0
  6 15  1  0  0  0  0
  6 16  1  0  0  0  0
  6 34  1  0  0  0  0
  7 37  1  0  0  0  0
  7 38  1  0  0  0  0
  8  9  1  0  0  0  0
  8 10  1  0  0  0  0
  8 21  1  0  0  0  0
  8 22  1  0  0  0  0
  9 11  1  0  0  0  0
  9 23  1  0  0  0  0
  9 24  1  0  0  0  0
 10 13  1  0  0  0  0
 10 14  2  0  0  0  0
 11 12  1  0  0  0  0
 11 25  1  0  0  0  0
 11 26  1  0  0  0  0
 12 14  1  0  0  0  0
 12 27  1  0  0  0  0
 12 28  1  0  0  0  0
 13 15  1  0  0  0  0
 13 29  1  0  0  0  0
 13 30  1  0  0  0  0
 14 31  1  0  0  0  0
 15 32  1  0  0  0  0
 15 33  1  0  0  0  0
 16 17  1  0  0  0  0
 17 19  2  0  0  0  0
 18 20  2  0  0  0  0
 19 20  1  0  0  0  0
 19 35  1  0  0  0  0
 20 36  1  0  0  0  0
M  END
> <PUBCHEM_COMPOUND_CID>
47205745

> <PUBCHEM_COMPOUND_CANONICALIZED>
1

> <PUBCHEM_CACTVS_COMPLEXITY>
481

> <PUBCHEM_CACTVS_HBOND_ACCEPTOR>
5

> <PUBCHEM_CACTVS_HBOND_DONOR>
2

> <PUBCHEM_CACTVS_ROTATABLE_BOND>
5

> <PUBCHEM_CACTVS_SUBSKEYS>
AAADceBzOABAAAAAAAAAAAAAAAAAASAAAAAgAAAAAAAAAAABgAAAHgQQQAAADATB0AQwBYLABEKIAqFSEHLCCBAkIAAIiJnODMgOJjKEtT+HGSjk1hGYqYeYl4IAAAAAAAAAAAAAAAAAAAAAAAAAAAAAAA==

> <PUBCHEM_IUPAC_OPENEYE_NAME>
N-[2-(cyclohexen-1-yl)ethyl]-5-sulfamoyl-furan-2-carboxamide

> <PUBCHEM_IUPAC_CAS_NAME>
N-[2-(1-cyclohexenyl)ethyl]-5-sulfamoyl-2-furancarboxamide

> <PUBCHEM_IUPAC_NAME>
N-[2-(cyclohexen-1-yl)ethyl]-5-sulfamoylfuran-2-carboxamide

> <PUBCHEM_IUPAC_SYSTEMATIC_NAME>
N-[2-(cyclohexen-1-yl)ethyl]-5-sulfamoyl-furan-2-carboxamide

> <PUBCHEM_IUPAC_TRADITIONAL_NAME>
N-[2-(cyclohexen-1-yl)ethyl]-5-sulfamoyl-2-furamide

> <PUBCHEM_IUPAC_INCHI>
InChI=1S/C13H18N2O4S/c14-20(17,18)12-7-6-11(19-12)13(16)15-9-8-10-4-2-1-3-5-10/h4,6-7H,1-3,5,8-9H2,(H,15,16)(H2,14,17,18)

> <PUBCHEM_IUPAC_INCHIKEY>
RSPATLHGOAACDD-UHFFFAOYSA-N

> <PUBCHEM_XLOGP3_AA>
1.5

> <PUBCHEM_EXACT_MASS>
298.098728

> <PUBCHEM_MOLECULAR_FORMULA>
C13H18N2O4S

> <PUBCHEM_MOLECULAR_WEIGHT>
298.35802

> <PUBCHEM_OPENEYE_CAN_SMILES>
C1CCC(=CC1)CCNC(=O)C2=CC=C(O2)S(=O)(=O)N

> <PUBCHEM_OPENEYE_ISO_SMILES>
C1CCC(=CC1)CCNC(=O)C2=CC=C(O2)S(=O)(=O)N

> <PUBCHEM_CACTVS_TPSA>
111

> <PUBCHEM_MONOISOTOPIC_WEIGHT>
298.098728

> <PUBCHEM_TOTAL_CHARGE>
0

> <PUBCHEM_HEAVY_ATOM_COUNT>
20

> <PUBCHEM_ATOM_DEF_STEREO_COUNT>
0

> <PUBCHEM_ATOM_UDEF_STEREO_COUNT>
0

> <PUBCHEM_BOND_DEF_STEREO_COUNT>
0

> <PUBCHEM_BOND_UDEF_STEREO_COUNT>
0

> <PUBCHEM_ISOTOPIC_ATOM_COUNT>
0

> <PUBCHEM_COMPONENT_COUNT>
1

> <PUBCHEM_CACTVS_TAUTO_COUNT>
2

> <PUBCHEM_COORDINATE_TYPE>
1
5
255

> <PUBCHEM_BONDANNOTATIONS>
17  19  8
18  20  8
19  20  8
2  17  8
2  18  8

$$$$

