12379
  -OEChem-06261206532D

 38 36  0     0  0  0  0  0  0999 V2000
    0.0000    1.0000    0.0000 Na  0  3  0  0  0  0  0  0  0  0  0  0
    0.8660    1.5000    0.0000 O   0  5  0  0  0  0  0  0  0  0  0  0
    1.7321    0.0000    0.0000 O   0  0  0  0  0  0  0  0  0  0  0  0
    6.9282    1.0000    0.0000 C   0  0  0  0  0  0  0  0  0  0  0  0
    6.0622    1.5000    0.0000 C   0  0  0  0  0  0  0  0  0  0  0  0
    7.7942    1.5000    0.0000 C   0  0  0  0  0  0  0  0  0  0  0  0
    5.1962    1.0000    0.0000 C   0  0  0  0  0  0  0  0  0  0  0  0
    8.6603    1.0000    0.0000 C   0  0  0  0  0  0  0  0  0  0  0  0
    4.3301    1.5000    0.0000 C   0  0  0  0  0  0  0  0  0  0  0  0
    9.5263    1.5000    0.0000 C   0  0  0  0  0  0  0  0  0  0  0  0
    3.4641    1.0000    0.0000 C   0  0  0  0  0  0  0  0  0  0  0  0
   10.3923    1.0000    0.0000 C   0  0  0  0  0  0  0  0  0  0  0  0
    2.5981    1.5000    0.0000 C   0  0  0  0  0  0  0  0  0  0  0  0
   11.2583    1.5000    0.0000 C   0  0  0  0  0  0  0  0  0  0  0  0
    1.7321    1.0000    0.0000 C   0  0  0  0  0  0  0  0  0  0  0  0
    7.3267    0.5251    0.0000 H   0  0  0  0  0  0  0  0  0  0  0  0
    6.5297    0.5251    0.0000 H   0  0  0  0  0  0  0  0  0  0  0  0
    6.4607    1.9749    0.0000 H   0  0  0  0  0  0  0  0  0  0  0  0
    5.6636    1.9749    0.0000 H   0  0  0  0  0  0  0  0  0  0  0  0
    7.3957    1.9749    0.0000 H   0  0  0  0  0  0  0  0  0  0  0  0
    8.1928    1.9749    0.0000 H   0  0  0  0  0  0  0  0  0  0  0  0
    4.7976    0.5251    0.0000 H   0  0  0  0  0  0  0  0  0  0  0  0
    5.5947    0.5251    0.0000 H   0  0  0  0  0  0  0  0  0  0  0  0
    9.0588    0.5251    0.0000 H   0  0  0  0  0  0  0  0  0  0  0  0
    8.2617    0.5251    0.0000 H   0  0  0  0  0  0  0  0  0  0  0  0
    3.9316    1.9749    0.0000 H   0  0  0  0  0  0  0  0  0  0  0  0
    4.7287    1.9749    0.0000 H   0  0  0  0  0  0  0  0  0  0  0  0
    9.9248    1.9749    0.0000 H   0  0  0  0  0  0  0  0  0  0  0  0
    9.1278    1.9749    0.0000 H   0  0  0  0  0  0  0  0  0  0  0  0
    3.8626    0.5251    0.0000 H   0  0  0  0  0  0  0  0  0  0  0  0
    3.0656    0.5251    0.0000 H   0  0  0  0  0  0  0  0  0  0  0  0
    9.9938    0.5251    0.0000 H   0  0  0  0  0  0  0  0  0  0  0  0
   10.7908    0.5251    0.0000 H   0  0  0  0  0  0  0  0  0  0  0  0
    2.1995    1.9749    0.0000 H   0  0  0  0  0  0  0  0  0  0  0  0
    2.9966    1.9749    0.0000 H   0  0  0  0  0  0  0  0  0  0  0  0
   11.5683    0.9631    0.0000 H   0  0  0  0  0  0  0  0  0  0  0  0
   11.7953    1.8100    0.0000 H   0  0  0  0  0  0  0  0  0  0  0  0
   10.9483    2.0369    0.0000 H   0  0  0  0  0  0  0  0  0  0  0  0
  2 15  1  0  0  0  0
  3 15  2  0  0  0  0
  4  5  1  0  0  0  0
  4  6  1  0  0  0  0
  4 16  1  0  0  0  0
  4 17  1  0  0  0  0
  5  7  1  0  0  0  0
  5 18  1  0  0  0  0
  5 19  1  0  0  0  0
  6  8  1  0  0  0  0
  6 20  1  0  0  0  0
  6 21  1  0  0  0  0
  7  9  1  0  0  0  0
  7 22  1  0  0  0  0
  7 23  1  0  0  0  0
  8 10  1  0  0  0  0
  8 24  1  0  0  0  0
  8 25  1  0  0  0  0
  9 11  1  0  0  0  0
  9 26  1  0  0  0  0
  9 27  1  0  0  0  0
 10 12  1  0  0  0  0
 10 28  1  0  0  0  0
 10 29  1  0  0  0  0
 11 13  1  0  0  0  0
 11 30  1  0  0  0  0
 11 31  1  0  0  0  0
 12 14  1  0  0  0  0
 12 32  1  0  0  0  0
 12 33  1  0  0  0  0
 13 15  1  0  0  0  0
 13 34  1  0  0  0  0
 13 35  1  0  0  0  0
 14 36  1  0  0  0  0
 14 37  1  0  0  0  0
 14 38  1  0  0  0  0
M  CHG  2   1   1   2  -1
M  END
> <PUBCHEM_COMPOUND_CID>
12379

> <PUBCHEM_COMPOUND_CANONICALIZED>
1

> <PUBCHEM_CACTVS_COMPLEXITY>
127

> <PUBCHEM_CACTVS_HBOND_ACCEPTOR>
2

> <PUBCHEM_CACTVS_HBOND_DONOR>
0

> <PUBCHEM_CACTVS_ROTATABLE_BOND>
9

> <PUBCHEM_CACTVS_SUBSKEYS>
AAADceBwMCAAAAAAAAAAAAAAAAAAAAAAAAAAAAAAAAAAAAAAAAAAGgAAAAAACACAgAACCAAAAAAIAACQCAAAAAAAAAAAAAEAAAAAABIAAAAAAAAEAAAAAAGIyKCAAAAAAAAAAAAAAAAAAAAAAAAAAAAAAA==

> <PUBCHEM_IUPAC_OPENEYE_NAME>
sodium dodecanoate

> <PUBCHEM_IUPAC_CAS_NAME>
sodium dodecanoate

> <PUBCHEM_IUPAC_NAME>
sodium dodecanoate

> <PUBCHEM_IUPAC_SYSTEMATIC_NAME>
sodium dodecanoate

> <PUBCHEM_IUPAC_TRADITIONAL_NAME>
sodium laurate

> <PUBCHEM_IUPAC_INCHI>
InChI=1S/C12H24O2.Na/c1-2-3-4-5-6-7-8-9-10-11-12(13)14;/h2-11H2,1H3,(H,13,14);/q;+1/p-1

> <PUBCHEM_IUPAC_INCHIKEY>
BTURAGWYSMTVOW-UHFFFAOYSA-M

> <PUBCHEM_EXACT_MASS>
222.159574

> <PUBCHEM_MOLECULAR_FORMULA>
C12H23NaO2

> <PUBCHEM_MOLECULAR_WEIGHT>
222.299589

> <PUBCHEM_OPENEYE_CAN_SMILES>
CCCCCCCCCCCC(=O)[O-].[Na+]

> <PUBCHEM_OPENEYE_ISO_SMILES>
CCCCCCCCCCCC(=O)[O-].[Na+]

> <PUBCHEM_CACTVS_TPSA>
40.1

> <PUBCHEM_MONOISOTOPIC_WEIGHT>
222.159574

> <PUBCHEM_TOTAL_CHARGE>
0

> <PUBCHEM_HEAVY_ATOM_COUNT>
15

> <PUBCHEM_ATOM_DEF_STEREO_COUNT>
0

> <PUBCHEM_ATOM_UDEF_STEREO_COUNT>
0

> <PUBCHEM_BOND_DEF_STEREO_COUNT>
0

> <PUBCHEM_BOND_UDEF_STEREO_COUNT>
0

> <PUBCHEM_ISOTOPIC_ATOM_COUNT>
0

> <PUBCHEM_COMPONENT_COUNT>
2

> <PUBCHEM_CACTVS_TAUTO_COUNT>
1

> <PUBCHEM_COORDINATE_TYPE>
1
5
255

$$$$

