14115
  -OEChem-06241222423D

 33 33  0     0  0  0  0  0  0999 V2000
    1.7472   -0.0482    0.6813 C   0  0  0  0  0  0  0  0  0  0  0  0
    2.8533    0.0091   -0.3744 C   0  0  0  0  0  0  0  0  0  0  0  0
    0.3599    0.0273    0.0359 C   0  0  0  0  0  0  0  0  0  0  0  0
    4.2398   -0.0323    0.2704 C   0  0  0  0  0  0  0  0  0  0  0  0
   -0.7800    0.0040    1.0606 C   0  0  0  0  0  0  0  0  0  0  0  0
    5.3450    0.0590   -0.7813 C   0  0  0  0  0  0  0  0  0  0  0  0
   -2.1554    0.0015    0.4424 C   0  0  0  0  0  0  0  0  0  0  0  0
    6.7249   -0.0152   -0.1472 C   0  0  0  0  0  0  0  0  0  0  0  0
   -2.7859    1.2083    0.1793 C   0  0  0  0  0  0  0  0  0  0  0  0
   -2.7670   -1.2075    0.1465 C   0  0  0  0  0  0  0  0  0  0  0  0
   -4.0581    1.2061   -0.3927 C   0  0  0  0  0  0  0  0  0  0  0  0
   -4.0391   -1.2095   -0.4257 C   0  0  0  0  0  0  0  0  0  0  0  0
   -4.6846   -0.0027   -0.6952 C   0  0  0  0  0  0  0  0  0  0  0  0
    1.8339   -0.9767    1.2583 H   0  0  0  0  0  0  0  0  0  0  0  0
    1.8663    0.7840    1.3857 H   0  0  0  0  0  0  0  0  0  0  0  0
    2.7441   -0.8329   -1.0686 H   0  0  0  0  0  0  0  0  0  0  0  0
    2.7510    0.9291   -0.9629 H   0  0  0  0  0  0  0  0  0  0  0  0
    0.2862    0.9418   -0.5664 H   0  0  0  0  0  0  0  0  0  0  0  0
    0.2422   -0.8130   -0.6605 H   0  0  0  0  0  0  0  0  0  0  0  0
    4.3414    0.7973    0.9808 H   0  0  0  0  0  0  0  0  0  0  0  0
    4.3498   -0.9621    0.8418 H   0  0  0  0  0  0  0  0  0  0  0  0
   -0.6861    0.8663    1.7340 H   0  0  0  0  0  0  0  0  0  0  0  0
   -0.6759   -0.8788    1.7053 H   0  0  0  0  0  0  0  0  0  0  0  0
    5.2536    0.9994   -1.3371 H   0  0  0  0  0  0  0  0  0  0  0  0
    5.2389   -0.7574   -1.5050 H   0  0  0  0  0  0  0  0  0  0  0  0
    6.8603   -0.9601    0.3885 H   0  0  0  0  0  0  0  0  0  0  0  0
    6.8759    0.8061    0.5606 H   0  0  0  0  0  0  0  0  0  0  0  0
    7.4999    0.0528   -0.9170 H   0  0  0  0  0  0  0  0  0  0  0  0
   -2.3052    2.1548    0.4093 H   0  0  0  0  0  0  0  0  0  0  0  0
   -2.2716   -2.1524    0.3506 H   0  0  0  0  0  0  0  0  0  0  0  0
   -4.5605    2.1457   -0.6032 H   0  0  0  0  0  0  0  0  0  0  0  0
   -4.5269   -2.1508   -0.6620 H   0  0  0  0  0  0  0  0  0  0  0  0
   -5.6750   -0.0043   -1.1411 H   0  0  0  0  0  0  0  0  0  0  0  0
  1  2  1  0  0  0  0
  1  3  1  0  0  0  0
  1 14  1  0  0  0  0
  1 15  1  0  0  0  0
  2  4  1  0  0  0  0
  2 16  1  0  0  0  0
  2 17  1  0  0  0  0
  3  5  1  0  0  0  0
  3 18  1  0  0  0  0
  3 19  1  0  0  0  0
  4  6  1  0  0  0  0
  4 20  1  0  0  0  0
  4 21  1  0  0  0  0
  5  7  1  0  0  0  0
  5 22  1  0  0  0  0
  5 23  1  0  0  0  0
  6  8  1  0  0  0  0
  6 24  1  0  0  0  0
  6 25  1  0  0  0  0
  7  9  2  0  0  0  0
  7 10  1  0  0  0  0
  8 26  1  0  0  0  0
  8 27  1  0  0  0  0
  8 28  1  0  0  0  0
  9 11  1  0  0  0  0
  9 29  1  0  0  0  0
 10 12  2  0  0  0  0
 10 30  1  0  0  0  0
 11 13  2  0  0  0  0
 11 31  1  0  0  0  0
 12 13  1  0  0  0  0
 12 32  1  0  0  0  0
 13 33  1  0  0  0  0
M  END
> <PUBCHEM_COMPOUND_CID>
14115

> <PUBCHEM_CONFORMER_RMSD>
0.6

> <PUBCHEM_CONFORMER_DIVERSEORDER>
1
69
41
55
80
6
77
29
60
25
56
43
20
16
31
64
7
62
70
50
26
81
8
2
58
37
66
32
40
65
30
24
35
4
21
10
34
59
9
27
39
22
68
75
73
5
14
84
13
38
12
3
52
79
18
28
57
72
19
49
54
51
74
11
47
46
63
36
78
82
17
42
53
48
76
67
23
71
83
44
15
61
33
45

> <PUBCHEM_MMFF94_PARTIAL_CHARGES>
12
10 -0.15
11 -0.15
12 -0.15
13 -0.15
29 0.15
30 0.15
31 0.15
32 0.15
33 0.15
5 0.14
7 -0.14
9 -0.15

> <PUBCHEM_EFFECTIVE_ROTOR_COUNT>
6

> <PUBCHEM_PHARMACOPHORE_FEATURES>
4
1 8 hydrophobe
3 1 3 5 hydrophobe
3 2 4 6 hydrophobe
6 7 9 10 11 12 13 rings

> <PUBCHEM_HEAVY_ATOM_COUNT>
13

> <PUBCHEM_ATOM_DEF_STEREO_COUNT>
0

> <PUBCHEM_ATOM_UDEF_STEREO_COUNT>
0

> <PUBCHEM_BOND_DEF_STEREO_COUNT>
0

> <PUBCHEM_BOND_UDEF_STEREO_COUNT>
0

> <PUBCHEM_ISOTOPIC_ATOM_COUNT>
0

> <PUBCHEM_COMPONENT_COUNT>
1

> <PUBCHEM_CACTVS_TAUTO_COUNT>
1

> <PUBCHEM_CONFORMER_ID>
0000372300000001

> <PUBCHEM_MMFF94_ENERGY>
14.7299

> <PUBCHEM_FEATURE_SELFOVERLAP>
20.31

> <PUBCHEM_SHAPE_FINGERPRINT>
10680689 15 18410288099454389395
10803635 8 18187368743930995934
11089746 13 17703791397559517252
11287383 113 17967253066545072072
11315181 36 17967248689519794936
11401426 45 17988924466218707328
12091667 2 18272928324036728906
13214271 11 11455891356307768635
13288520 33 18186802461657634287
14123238 8 13984661456328526044
1420 363 16298102077989452110
14251718 22 18260829285252585750
15242439 84 18187086152484106880
15716309 27 5112009430883273948
17834072 33 18411699855589699756
17834076 25 16988843878218463874
17870717 6 18186512215946404735
19489759 90 18410575093590701680
200 152 16298104302228669002
20281389 69 14476963372396704182
20300324 65 18413388739519759449
20325693 3 18409730664703140963
20432913 95 14418126323002851238
20645477 56 18411136982998716561
20645477 70 18262234551481913422
20767249 213 13973966493392010023
2297311 6 18260264140396952321
23402539 116 18273497875281096164
23402655 69 18131355249293018412
23466295 7 16445339775940692031
23557571 272 18113613525335763064
23559900 14 18187655665015889376
300161 21 17918279753323169642
351380 3 14129059231672231396
42 15 7925913686000439872
42788 4 18342738512139154764
49783359 22 6699808666074479060
542803 24 17418093222044693300

> <PUBCHEM_SHAPE_MULTIPOLES>
267.53
14.35
1.07
0.89
20.99
0
-0.05
-0.04
3.73
-1.53
0.06
-0.01
0
-0.05

> <PUBCHEM_SHAPE_SELFOVERLAP>
522.242

> <PUBCHEM_SHAPE_VOLUME>
157.8

> <PUBCHEM_COORDINATE_TYPE>
2
5
10

$$$$

