17396191
  -OEChem-06241222552D

 45 47  0     1  0  0  0  0  0999 V2000
    5.4641    0.0566    0.0000 S   0  0  0  0  0  0  0  0  0  0  0  0
    7.8609    4.3556    0.0000 O   0  0  0  0  0  0  0  0  0  0  0  0
    5.4641   -1.9434    0.0000 O   0  0  0  0  0  0  0  0  0  0  0  0
    6.2731    1.6444    0.0000 N   0  0  0  0  0  0  0  0  0  0  0  0
    3.7320   -1.9434    0.0000 N   0  0  0  0  0  0  0  0  0  0  0  0
    4.9641    2.5955    0.0000 N   0  0  0  0  0  0  0  0  0  0  0  0
    4.6551    1.6444    0.0000 N   0  0  0  0  0  0  0  0  0  0  0  0
    4.5981   -0.4434    0.0000 C   0  0  3  0  0  0  0  0  0  0  0  0
    5.9641    2.5955    0.0000 C   0  0  0  0  0  0  0  0  0  0  0  0
    6.5519    3.4045    0.0000 C   0  0  0  0  0  0  0  0  0  0  0  0
    5.4641    1.0566    0.0000 C   0  0  0  0  0  0  0  0  0  0  0  0
    7.5519    3.4045    0.0000 C   0  0  0  0  0  0  0  0  0  0  0  0
    4.5981   -1.4434    0.0000 C   0  0  0  0  0  0  0  0  0  0  0  0
    3.7320    0.0566    0.0000 C   0  0  0  0  0  0  0  0  0  0  0  0
    7.2242    1.3354    0.0000 C   0  0  0  0  0  0  0  0  0  0  0  0
    6.2429    4.3556    0.0000 C   0  0  0  0  0  0  0  0  0  0  0  0
    3.7320   -2.9434    0.0000 C   0  0  0  0  0  0  0  0  0  0  0  0
    8.1397    2.5955    0.0000 C   0  0  0  0  0  0  0  0  0  0  0  0
    2.8660   -3.4434    0.0000 C   0  0  0  0  0  0  0  0  0  0  0  0
    7.0519    4.9434    0.0000 C   0  0  0  0  0  0  0  0  0  0  0  0
    2.8660   -4.4434    0.0000 C   0  0  0  0  0  0  0  0  0  0  0  0
    4.5981   -3.4434    0.0000 C   0  0  0  0  0  0  0  0  0  0  0  0
    3.7320   -4.9434    0.0000 C   0  0  0  0  0  0  0  0  0  0  0  0
    4.5981   -4.4434    0.0000 C   0  0  0  0  0  0  0  0  0  0  0  0
    2.0000   -4.9434    0.0000 C   0  0  0  0  0  0  0  0  0  0  0  0
    4.5981    0.1766    0.0000 H   0  0  0  0  0  0  0  0  0  0  0  0
    4.0420    0.5936    0.0000 H   0  0  0  0  0  0  0  0  0  0  0  0
    3.1951    0.3666    0.0000 H   0  0  0  0  0  0  0  0  0  0  0  0
    3.4220   -0.4803    0.0000 H   0  0  0  0  0  0  0  0  0  0  0  0
    7.0326    0.7458    0.0000 H   0  0  0  0  0  0  0  0  0  0  0  0
    7.8138    1.1438    0.0000 H   0  0  0  0  0  0  0  0  0  0  0  0
    7.4158    1.9251    0.0000 H   0  0  0  0  0  0  0  0  0  0  0  0
    5.6532    4.5472    0.0000 H   0  0  0  0  0  0  0  0  0  0  0  0
    3.1951   -1.6334    0.0000 H   0  0  0  0  0  0  0  0  0  0  0  0
    2.3291   -3.1334    0.0000 H   0  0  0  0  0  0  0  0  0  0  0  0
    7.6381    2.2311    0.0000 H   0  0  0  0  0  0  0  0  0  0  0  0
    8.5041    2.0939    0.0000 H   0  0  0  0  0  0  0  0  0  0  0  0
    8.6413    2.9599    0.0000 H   0  0  0  0  0  0  0  0  0  0  0  0
    7.0519    5.5634    0.0000 H   0  0  0  0  0  0  0  0  0  0  0  0
    5.1350   -3.1334    0.0000 H   0  0  0  0  0  0  0  0  0  0  0  0
    3.7320   -5.5634    0.0000 H   0  0  0  0  0  0  0  0  0  0  0  0
    5.1350   -4.7534    0.0000 H   0  0  0  0  0  0  0  0  0  0  0  0
    1.6900   -4.4064    0.0000 H   0  0  0  0  0  0  0  0  0  0  0  0
    1.4631   -5.2534    0.0000 H   0  0  0  0  0  0  0  0  0  0  0  0
    2.3100   -5.4803    0.0000 H   0  0  0  0  0  0  0  0  0  0  0  0
  1  8  1  0  0  0  0
  1 11  1  0  0  0  0
  2 12  1  0  0  0  0
  2 20  1  0  0  0  0
  3 13  2  0  0  0  0
  4  9  1  0  0  0  0
  4 11  1  0  0  0  0
  4 15  1  0  0  0  0
  5 13  1  0  0  0  0
  5 17  1  0  0  0  0
  5 34  1  0  0  0  0
  6  7  1  0  0  0  0
  6  9  2  0  0  0  0
  7 11  2  0  0  0  0
  8 13  1  0  0  0  0
  8 14  1  0  0  0  0
  8 26  1  0  0  0  0
  9 10  1  0  0  0  0
 10 12  2  0  0  0  0
 10 16  1  0  0  0  0
 12 18  1  0  0  0  0
 14 27  1  0  0  0  0
 14 28  1  0  0  0  0
 14 29  1  0  0  0  0
 15 30  1  0  0  0  0
 15 31  1  0  0  0  0
 15 32  1  0  0  0  0
 16 20  2  0  0  0  0
 16 33  1  0  0  0  0
 17 19  1  0  0  0  0
 17 22  2  0  0  0  0
 18 36  1  0  0  0  0
 18 37  1  0  0  0  0
 18 38  1  0  0  0  0
 19 21  2  0  0  0  0
 19 35  1  0  0  0  0
 20 39  1  0  0  0  0
 21 23  1  0  0  0  0
 21 25  1  0  0  0  0
 22 24  1  0  0  0  0
 22 40  1  0  0  0  0
 23 24  2  0  0  0  0
 23 41  1  0  0  0  0
 24 42  1  0  0  0  0
 25 43  1  0  0  0  0
 25 44  1  0  0  0  0
 25 45  1  0  0  0  0
M  END
> <PUBCHEM_COMPOUND_CID>
17396191

> <PUBCHEM_COMPOUND_CANONICALIZED>
1

> <PUBCHEM_CACTVS_COMPLEXITY>
466

> <PUBCHEM_CACTVS_HBOND_ACCEPTOR>
5

> <PUBCHEM_CACTVS_HBOND_DONOR>
1

> <PUBCHEM_CACTVS_ROTATABLE_BOND>
5

> <PUBCHEM_CACTVS_SUBSKEYS>
AAADceB7sABAAAAAAAAAAAAAAAAAAWJAAAAwAAAAAAAAAAAB8AAAHgQYAAAADAyl2waz1IfMFEiqAq9y9ACS2AtlIrAdyCEubNiMLrrEvZuGOSjm3BPI6Ye8gAAOAAAAQAAAAAAAAACAAAAAAAAAAAAAAA==

> <PUBCHEM_IUPAC_OPENEYE_NAME>
2-[[4-methyl-5-(2-methyl-3-furyl)-1,2,4-triazol-3-yl]sulfanyl]-N-(m-tolyl)propanamide

> <PUBCHEM_IUPAC_CAS_NAME>
2-[[4-methyl-5-(2-methyl-3-furanyl)-1,2,4-triazol-3-yl]thio]-N-(3-methylphenyl)propanamide

> <PUBCHEM_IUPAC_NAME>
2-[[4-methyl-5-(2-methylfuran-3-yl)-1,2,4-triazol-3-yl]sulfanyl]-N-(3-methylphenyl)propanamide

> <PUBCHEM_IUPAC_SYSTEMATIC_NAME>
2-[[4-methyl-5-(2-methylfuran-3-yl)-1,2,4-triazol-3-yl]sulfanyl]-N-(3-methylphenyl)propanamide

> <PUBCHEM_IUPAC_TRADITIONAL_NAME>
2-[[4-methyl-5-(2-methyl-3-furyl)-1,2,4-triazol-3-yl]thio]-N-(m-tolyl)propionamide

> <PUBCHEM_IUPAC_INCHI>
InChI=1S/C18H20N4O2S/c1-11-6-5-7-14(10-11)19-17(23)13(3)25-18-21-20-16(22(18)4)15-8-9-24-12(15)2/h5-10,13H,1-4H3,(H,19,23)

> <PUBCHEM_IUPAC_INCHIKEY>
JULQRMPSORHYNN-UHFFFAOYSA-N

> <PUBCHEM_XLOGP3_AA>
3.1

> <PUBCHEM_EXACT_MASS>
356.130697

> <PUBCHEM_MOLECULAR_FORMULA>
C18H20N4O2S

> <PUBCHEM_MOLECULAR_WEIGHT>
356.442

> <PUBCHEM_OPENEYE_CAN_SMILES>
CC1=CC(=CC=C1)NC(=O)C(C)SC2=NN=C(N2C)C3=C(OC=C3)C

> <PUBCHEM_OPENEYE_ISO_SMILES>
CC1=CC(=CC=C1)NC(=O)C(C)SC2=NN=C(N2C)C3=C(OC=C3)C

> <PUBCHEM_CACTVS_TPSA>
98.2

> <PUBCHEM_MONOISOTOPIC_WEIGHT>
356.130697

> <PUBCHEM_TOTAL_CHARGE>
0

> <PUBCHEM_HEAVY_ATOM_COUNT>
25

> <PUBCHEM_ATOM_DEF_STEREO_COUNT>
0

> <PUBCHEM_ATOM_UDEF_STEREO_COUNT>
1

> <PUBCHEM_BOND_DEF_STEREO_COUNT>
0

> <PUBCHEM_BOND_UDEF_STEREO_COUNT>
0

> <PUBCHEM_ISOTOPIC_ATOM_COUNT>
0

> <PUBCHEM_COMPONENT_COUNT>
1

> <PUBCHEM_CACTVS_TAUTO_COUNT>
3

> <PUBCHEM_COORDINATE_TYPE>
1
5
255

> <PUBCHEM_BONDANNOTATIONS>
10  12  8
10  16  8
16  20  8
17  19  8
17  22  8
19  21  8
2  12  8
2  20  8
21  23  8
22  24  8
23  24  8
4  11  8
4  9  8
6  7  8
6  9  8
7  11  8
8  14  3

$$$$

