11298
  -OEChem-06261205303D

 19 19  0     0  0  0  0  0  0999 V2000
   -2.8712    0.7952   -0.0003 O   0  5  0  0  0  0  0  0  0  0  0  0
   -2.2934   -1.3227   -0.0005 O   0  0  0  0  0  0  0  0  0  0  0  0
    0.0635   -2.0682    0.0004 N   0  0  0  0  0  0  0  0  0  0  0  0
   -1.9990   -0.1045    0.0000 N   0  3  0  0  0  0  0  0  0  0  0  0
    1.7236   -0.2936   -0.0003 C   0  0  0  0  0  0  0  0  0  0  0  0
    0.3862   -0.6901    0.0001 C   0  0  0  0  0  0  0  0  0  0  0  0
   -0.6258    0.2701    0.0005 C   0  0  0  0  0  0  0  0  0  0  0  0
    2.0490    1.0628   -0.0004 C   0  0  0  0  0  0  0  0  0  0  0  0
   -0.3001    1.6265    0.0005 C   0  0  0  0  0  0  0  0  0  0  0  0
    1.0372    2.0229    0.0000 C   0  0  0  0  0  0  0  0  0  0  0  0
    2.8300   -1.2983   -0.0001 C   0  0  0  0  0  0  0  0  0  0  0  0
    3.0855    1.3896   -0.0006 H   0  0  0  0  0  0  0  0  0  0  0  0
   -1.0580    2.4059    0.0006 H   0  0  0  0  0  0  0  0  0  0  0  0
    1.2910    3.0789   -0.0001 H   0  0  0  0  0  0  0  0  0  0  0  0
    2.7789   -1.9272    0.8950 H   0  0  0  0  0  0  0  0  0  0  0  0
    2.7784   -1.9282   -0.8943 H   0  0  0  0  0  0  0  0  0  0  0  0
    3.8148   -0.8180   -0.0007 H   0  0  0  0  0  0  0  0  0  0  0  0
    0.7976   -2.7631    0.0004 H   0  0  0  0  0  0  0  0  0  0  0  0
   -0.8920   -2.3906    0.0021 H   0  0  0  0  0  0  0  0  0  0  0  0
  1  4  1  0  0  0  0
  2  4  2  0  0  0  0
  3  6  1  0  0  0  0
  3 18  1  0  0  0  0
  3 19  1  0  0  0  0
  4  7  1  0  0  0  0
  5  6  2  0  0  0  0
  5  8  1  0  0  0  0
  5 11  1  0  0  0  0
  6  7  1  0  0  0  0
  7  9  2  0  0  0  0
  8 10  2  0  0  0  0
  8 12  1  0  0  0  0
  9 10  1  0  0  0  0
  9 13  1  0  0  0  0
 10 14  1  0  0  0  0
 11 15  1  0  0  0  0
 11 16  1  0  0  0  0
 11 17  1  0  0  0  0
M  CHG  2   1  -1   4   1
M  END
> <PUBCHEM_COMPOUND_CID>
11298

> <PUBCHEM_CONFORMER_RMSD>
0.4

> <PUBCHEM_CONFORMER_DIVERSEORDER>
1

> <PUBCHEM_MMFF94_PARTIAL_CHARGES>
16
1 -0.52
10 -0.15
11 0.14
12 0.15
13 0.15
14 0.15
18 0.4
19 0.4
2 -0.52
3 -0.9
4 0.91
5 -0.14
6 0.1
7 0.13
8 -0.15
9 -0.15

> <PUBCHEM_EFFECTIVE_ROTOR_COUNT>
1

> <PUBCHEM_PHARMACOPHORE_FEATURES>
6
1 1 acceptor
1 1 anion
1 2 acceptor
1 3 cation
1 3 donor
6 5 6 7 8 9 10 rings

> <PUBCHEM_HEAVY_ATOM_COUNT>
11

> <PUBCHEM_ATOM_DEF_STEREO_COUNT>
0

> <PUBCHEM_ATOM_UDEF_STEREO_COUNT>
0

> <PUBCHEM_BOND_DEF_STEREO_COUNT>
0

> <PUBCHEM_BOND_UDEF_STEREO_COUNT>
0

> <PUBCHEM_ISOTOPIC_ATOM_COUNT>
0

> <PUBCHEM_COMPONENT_COUNT>
1

> <PUBCHEM_CACTVS_TAUTO_COUNT>
1

> <PUBCHEM_CONFORMER_ID>
00002C2200000001

> <PUBCHEM_MMFF94_ENERGY>
48.6768

> <PUBCHEM_FEATURE_SELFOVERLAP>
30.527

> <PUBCHEM_SHAPE_FINGERPRINT>
12423570 1 17677057948565432358
14128692 85 18410288129645754268
14325111 11 18410575046082388677
16945 1 18266459995424309316
17990270 104 18340206293298842530
18185500 45 18338234993451524651
193761 8 18050286960171251110
19973954 147 18339641135911663489
21040471 1 18194683657414919840
23402655 69 18336561481790244661
23552423 10 18343299228155739740
241688 4 18339078323487003176
2748010 2 18411139108379462348
5084963 1 18187083961813396058
528886 8 18410016558526024616
66348 1 18338517572292839674

> <PUBCHEM_SHAPE_MULTIPOLES>
204.67
3.52
2.1
0.58
0.9
0.12
0
-0.72
0
-0.42
0
-0.07
0.03
0

> <PUBCHEM_SHAPE_SELFOVERLAP>
430.023

> <PUBCHEM_SHAPE_VOLUME>
116.3

> <PUBCHEM_COORDINATE_TYPE>
2
5
10

$$$$

