10856
  -OEChem-06261205022D

 19 18  0     0  0  0  0  0  0999 V2000
    4.5981    3.0000    0.0000 Na  0  3  0  0  0  0  0  0  0  0  0  0
    4.5981    2.0000    0.0000 O   0  5  0  0  0  0  0  0  0  0  0  0
    2.8660    2.0000    0.0000 O   0  0  0  0  0  0  0  0  0  0  0  0
    2.8660   -1.0000    0.0000 C   0  0  0  0  0  0  0  0  0  0  0  0
    3.7321   -1.5000    0.0000 C   0  0  0  0  0  0  0  0  0  0  0  0
    2.0000   -1.5000    0.0000 C   0  0  0  0  0  0  0  0  0  0  0  0
    2.8660    0.0000    0.0000 C   0  0  0  0  0  0  0  0  0  0  0  0
    3.7321   -2.5000    0.0000 C   0  0  0  0  0  0  0  0  0  0  0  0
    2.0000   -2.5000    0.0000 C   0  0  0  0  0  0  0  0  0  0  0  0
    2.8660   -3.0000    0.0000 C   0  0  0  0  0  0  0  0  0  0  0  0
    3.7321    0.5000    0.0000 C   0  0  0  0  0  0  0  0  0  0  0  0
    3.7321    1.5000    0.0000 C   0  0  0  0  0  0  0  0  0  0  0  0
    4.2690   -1.1900    0.0000 H   0  0  0  0  0  0  0  0  0  0  0  0
    1.4631   -1.1900    0.0000 H   0  0  0  0  0  0  0  0  0  0  0  0
    2.3291    0.3100    0.0000 H   0  0  0  0  0  0  0  0  0  0  0  0
    4.2690   -2.8100    0.0000 H   0  0  0  0  0  0  0  0  0  0  0  0
    1.4631   -2.8100    0.0000 H   0  0  0  0  0  0  0  0  0  0  0  0
    2.8660   -3.6200    0.0000 H   0  0  0  0  0  0  0  0  0  0  0  0
    4.2690    0.1900    0.0000 H   0  0  0  0  0  0  0  0  0  0  0  0
  2 12  1  0  0  0  0
  3 12  2  0  0  0  0
  4  5  2  0  0  0  0
  4  6  1  0  0  0  0
  4  7  1  0  0  0  0
  5  8  1  0  0  0  0
  5 13  1  0  0  0  0
  6  9  2  0  0  0  0
  6 14  1  0  0  0  0
  7 11  2  3  0  0  0
  7 15  1  0  0  0  0
  8 10  2  0  0  0  0
  8 16  1  0  0  0  0
  9 10  1  0  0  0  0
  9 17  1  0  0  0  0
 10 18  1  0  0  0  0
 11 12  1  0  0  0  0
 11 19  1  0  0  0  0
M  CHG  2   1   1   2  -1
M  END
> <PUBCHEM_COMPOUND_CID>
10856

> <PUBCHEM_COMPOUND_CANONICALIZED>
1

> <PUBCHEM_CACTVS_COMPLEXITY>
149

> <PUBCHEM_CACTVS_HBOND_ACCEPTOR>
2

> <PUBCHEM_CACTVS_HBOND_DONOR>
0

> <PUBCHEM_CACTVS_ROTATABLE_BOND>
1

> <PUBCHEM_CACTVS_SUBSKEYS>
AAADcYBwMCAAAAAAAAAAAAAAAAAAAAAAAAAwAAAAAAAAAAABAAAAGgAAAAAADACAmAAwCIAAAACIAiDSCAACAAAgAAAIiAAAAMgIJCKAERCAMAAggAAIiYcAgAAOAAAAAAAAAAAAAAAAAAAAAAAAAAAAAA==

> <PUBCHEM_IUPAC_OPENEYE_NAME>
sodium 3-phenylprop-2-enoate

> <PUBCHEM_IUPAC_CAS_NAME>
sodium 3-phenyl-2-propenoate

> <PUBCHEM_IUPAC_NAME>
sodium 3-phenylprop-2-enoate

> <PUBCHEM_IUPAC_SYSTEMATIC_NAME>
sodium 3-phenylprop-2-enoate

> <PUBCHEM_IUPAC_TRADITIONAL_NAME>
sodium cinnamate

> <PUBCHEM_IUPAC_INCHI>
InChI=1S/C9H8O2.Na/c10-9(11)7-6-8-4-2-1-3-5-8;/h1-7H,(H,10,11);/q;+1/p-1

> <PUBCHEM_IUPAC_INCHIKEY>
DXIHILNWDOYYCH-UHFFFAOYSA-M

> <PUBCHEM_EXACT_MASS>
170.034374

> <PUBCHEM_MOLECULAR_FORMULA>
C9H7NaO2

> <PUBCHEM_MOLECULAR_WEIGHT>
170.140449

> <PUBCHEM_OPENEYE_CAN_SMILES>
C1=CC=C(C=C1)C=CC(=O)[O-].[Na+]

> <PUBCHEM_OPENEYE_ISO_SMILES>
C1=CC=C(C=C1)C=CC(=O)[O-].[Na+]

> <PUBCHEM_CACTVS_TPSA>
40.1

> <PUBCHEM_MONOISOTOPIC_WEIGHT>
170.034374

> <PUBCHEM_TOTAL_CHARGE>
0

> <PUBCHEM_HEAVY_ATOM_COUNT>
12

> <PUBCHEM_ATOM_DEF_STEREO_COUNT>
0

> <PUBCHEM_ATOM_UDEF_STEREO_COUNT>
0

> <PUBCHEM_BOND_DEF_STEREO_COUNT>
0

> <PUBCHEM_BOND_UDEF_STEREO_COUNT>
1

> <PUBCHEM_ISOTOPIC_ATOM_COUNT>
0

> <PUBCHEM_COMPONENT_COUNT>
2

> <PUBCHEM_CACTVS_TAUTO_COUNT>
1

> <PUBCHEM_COORDINATE_TYPE>
1
5
255

> <PUBCHEM_BONDANNOTATIONS>
4  5  8
4  6  8
5  8  8
6  9  8
7  11  1
8  10  8
9  10  8

$$$$

