10991
  -OEChem-06261205123D

 17 16  0     0  0  0  0  0  0999 V2000
    5.0102    1.3363    0.3028 O   0  0  0  0  0  0  0  0  0  0  0  0
    4.9543   -0.8874   -0.2045 O   0  0  0  0  0  0  0  0  0  0  0  0
   -5.1951   -0.8093    0.4091 O   0  0  0  0  0  0  0  0  0  0  0  0
   -4.9531    1.3586   -0.3440 N   0  0  0  0  0  0  0  0  0  0  0  0
    2.9287    0.3816    0.0886 C   0  0  0  0  0  0  0  0  0  0  0  0
    2.0992   -0.6430   -0.1428 C   0  0  0  0  0  0  0  0  0  0  0  0
    4.3873    0.1649    0.0364 C   0  0  0  0  0  0  0  0  0  0  0  0
    0.6884   -0.4735   -0.1009 C   0  0  0  0  0  0  0  0  0  0  0  0
   -4.4916    0.1248    0.0452 C   0  0  0  0  0  0  0  0  0  0  0  0
   -0.5038   -0.3358   -0.0669 C   0  0  0  0  0  0  0  0  0  0  0  0
   -3.0583   -0.0393    0.0052 C   0  0  0  0  0  0  0  0  0  0  0  0
   -1.8662   -0.1778   -0.0281 C   0  0  0  0  0  0  0  0  0  0  0  0
    2.5614    1.3774    0.3160 H   0  0  0  0  0  0  0  0  0  0  0  0
    2.4753   -1.6354   -0.3693 H   0  0  0  0  0  0  0  0  0  0  0  0
   -5.9462    1.5666   -0.3490 H   0  0  0  0  0  0  0  0  0  0  0  0
   -4.3304    2.1042   -0.6391 H   0  0  0  0  0  0  0  0  0  0  0  0
    5.9869    1.2464    0.2808 H   0  0  0  0  0  0  0  0  0  0  0  0
  1  7  1  0  0  0  0
  1 17  1  0  0  0  0
  2  7  2  0  0  0  0
  3  9  2  0  0  0  0
  4  9  1  0  0  0  0
  4 15  1  0  0  0  0
  4 16  1  0  0  0  0
  5  6  2  0  0  0  0
  5  7  1  0  0  0  0
  5 13  1  0  0  0  0
  6  8  1  0  0  0  0
  6 14  1  0  0  0  0
  8 10  3  0  0  0  0
  9 11  1  0  0  0  0
 10 12  1  0  0  0  0
 11 12  3  0  0  0  0
M  END
> <PUBCHEM_COMPOUND_CID>
10991

> <PUBCHEM_CONFORMER_RMSD>
0.4

> <PUBCHEM_CONFORMER_DIVERSEORDER>
1

> <PUBCHEM_MMFF94_PARTIAL_CHARGES>
15
1 -0.65
11 -0.1
13 0.15
14 0.15
15 0.37
16 0.37
17 0.5
2 -0.57
3 -0.57
4 -0.8
5 -0.14
6 -0.09
7 0.71
8 -0.06
9 0.74

> <PUBCHEM_EFFECTIVE_ROTOR_COUNT>
1

> <PUBCHEM_PHARMACOPHORE_FEATURES>
5
1 1 acceptor
1 2 acceptor
1 3 acceptor
1 4 donor
3 1 2 7 anion

> <PUBCHEM_HEAVY_ATOM_COUNT>
12

> <PUBCHEM_ATOM_DEF_STEREO_COUNT>
0

> <PUBCHEM_ATOM_UDEF_STEREO_COUNT>
0

> <PUBCHEM_BOND_DEF_STEREO_COUNT>
0

> <PUBCHEM_BOND_UDEF_STEREO_COUNT>
1

> <PUBCHEM_ISOTOPIC_ATOM_COUNT>
0

> <PUBCHEM_COMPONENT_COUNT>
1

> <PUBCHEM_CACTVS_TAUTO_COUNT>
2

> <PUBCHEM_CONFORMER_ID>
00002AEF00000001

> <PUBCHEM_MMFF94_ENERGY>
8.3253

> <PUBCHEM_FEATURE_SELFOVERLAP>
25.427

> <PUBCHEM_SHAPE_FINGERPRINT>
11287383 113 18335981991078833482
13081056 2 18410856568651983780
14123238 8 14620794903040643255
1420 363 18272644632862558091
14252887 29 13973970938883595744
15501527 16 18409445917098793281
17834072 33 18040157288124531575
17834076 25 17418373601340623794
20281389 69 18272370927619069589
20645477 70 17677042551350841318
20719005 15 18410855460133566470
20767249 13 13470691434009055499
212847 35 18186523194389215424
23402539 116 18410580586943505335
23402655 69 17822012033785083517
42788 4 18410855464423148583
441001 317 18338517547204037569
449060 50 18334573538316712111
522135 26 18334574655709763926

> <PUBCHEM_SHAPE_MULTIPOLES>
224.37
13.37
1.01
0.62
1.49
0.22
0
2.36
-0.5
-0.13
0.01
0.06
0
0.49

> <PUBCHEM_SHAPE_SELFOVERLAP>
443.018

> <PUBCHEM_SHAPE_VOLUME>
130.7

> <PUBCHEM_COORDINATE_TYPE>
2
5
10

$$$$

