17396117
  -OEChem-06241222542D

 50 52  0     1  0  0  0  0  0999 V2000
    5.4641   -0.2694    0.0000 Cl  0  0  0  0  0  0  0  0  0  0  0  0
    2.0000   -0.2694    0.0000 Cl  0  0  0  0  0  0  0  0  0  0  0  0
    8.9282    0.7306    0.0000 S   0  0  0  0  0  0  0  0  0  0  0  0
    9.9282    0.7306    0.0000 O   0  0  0  0  0  0  0  0  0  0  0  0
    7.9282    0.7306    0.0000 O   0  0  0  0  0  0  0  0  0  0  0  0
    7.1962   -3.2694    0.0000 O   0  0  0  0  0  0  0  0  0  0  0  0
    8.9282    1.7306    0.0000 N   0  0  0  0  0  0  0  0  0  0  0  0
    6.3301   -1.7694    0.0000 N   0  0  0  0  0  0  0  0  0  0  0  0
    9.7372    2.3184    0.0000 C   0  0  0  0  0  0  0  0  0  0  0  0
    8.1192    2.3184    0.0000 C   0  0  0  0  0  0  0  0  0  0  0  0
    9.4282    3.2694    0.0000 C   0  0  0  0  0  0  0  0  0  0  0  0
    8.4282    3.2694    0.0000 C   0  0  0  0  0  0  0  0  0  0  0  0
    8.9282   -0.2694    0.0000 C   0  0  0  0  0  0  0  0  0  0  0  0
    8.0622   -0.7694    0.0000 C   0  0  0  0  0  0  0  0  0  0  0  0
    9.7942   -0.7694    0.0000 C   0  0  0  0  0  0  0  0  0  0  0  0
    8.0622   -1.7694    0.0000 C   0  0  0  0  0  0  0  0  0  0  0  0
    8.9282   -2.2694    0.0000 C   0  0  0  0  0  0  0  0  0  0  0  0
    9.7942   -1.7694    0.0000 C   0  0  0  0  0  0  0  0  0  0  0  0
    5.4641   -2.2694    0.0000 C   0  0  3  0  0  0  0  0  0  0  0  0
    7.1962   -2.2694    0.0000 C   0  0  0  0  0  0  0  0  0  0  0  0
    8.9282   -3.2694    0.0000 C   0  0  0  0  0  0  0  0  0  0  0  0
    4.5981   -1.7694    0.0000 C   0  0  0  0  0  0  0  0  0  0  0  0
    5.4641   -3.2694    0.0000 C   0  0  0  0  0  0  0  0  0  0  0  0
    4.5981   -0.7694    0.0000 C   0  0  0  0  0  0  0  0  0  0  0  0
    3.7320   -2.2694    0.0000 C   0  0  0  0  0  0  0  0  0  0  0  0
    3.7320   -0.2694    0.0000 C   0  0  0  0  0  0  0  0  0  0  0  0
    2.8660   -1.7694    0.0000 C   0  0  0  0  0  0  0  0  0  0  0  0
    2.8660   -0.7694    0.0000 C   0  0  0  0  0  0  0  0  0  0  0  0
   10.0472    1.7814    0.0000 H   0  0  0  0  0  0  0  0  0  0  0  0
   10.3036    2.5705    0.0000 H   0  0  0  0  0  0  0  0  0  0  0  0
    7.5528    2.5705    0.0000 H   0  0  0  0  0  0  0  0  0  0  0  0
    7.8092    1.7814    0.0000 H   0  0  0  0  0  0  0  0  0  0  0  0
   10.0347    3.3983    0.0000 H   0  0  0  0  0  0  0  0  0  0  0  0
    9.3634    3.8860    0.0000 H   0  0  0  0  0  0  0  0  0  0  0  0
    8.4930    3.8860    0.0000 H   0  0  0  0  0  0  0  0  0  0  0  0
    7.8218    3.3983    0.0000 H   0  0  0  0  0  0  0  0  0  0  0  0
    7.5252   -0.4594    0.0000 H   0  0  0  0  0  0  0  0  0  0  0  0
   10.3312   -0.4594    0.0000 H   0  0  0  0  0  0  0  0  0  0  0  0
   10.3312   -2.0794    0.0000 H   0  0  0  0  0  0  0  0  0  0  0  0
    5.4641   -1.6494    0.0000 H   0  0  0  0  0  0  0  0  0  0  0  0
    6.3301   -1.1494    0.0000 H   0  0  0  0  0  0  0  0  0  0  0  0
    8.3082   -3.2694    0.0000 H   0  0  0  0  0  0  0  0  0  0  0  0
    8.9282   -3.8894    0.0000 H   0  0  0  0  0  0  0  0  0  0  0  0
    9.5482   -3.2694    0.0000 H   0  0  0  0  0  0  0  0  0  0  0  0
    4.8441   -3.2694    0.0000 H   0  0  0  0  0  0  0  0  0  0  0  0
    5.4641   -3.8894    0.0000 H   0  0  0  0  0  0  0  0  0  0  0  0
    6.0841   -3.2694    0.0000 H   0  0  0  0  0  0  0  0  0  0  0  0
    3.7320   -2.8894    0.0000 H   0  0  0  0  0  0  0  0  0  0  0  0
    3.7320    0.3506    0.0000 H   0  0  0  0  0  0  0  0  0  0  0  0
    2.3291   -2.0794    0.0000 H   0  0  0  0  0  0  0  0  0  0  0  0
  1 24  1  0  0  0  0
  2 28  1  0  0  0  0
  3  4  2  0  0  0  0
  3  5  2  0  0  0  0
  3  7  1  0  0  0  0
  3 13  1  0  0  0  0
  6 20  2  0  0  0  0
  7  9  1  0  0  0  0
  7 10  1  0  0  0  0
  8 19  1  0  0  0  0
  8 20  1  0  0  0  0
  8 41  1  0  0  0  0
  9 11  1  0  0  0  0
  9 29  1  0  0  0  0
  9 30  1  0  0  0  0
 10 12  1  0  0  0  0
 10 31  1  0  0  0  0
 10 32  1  0  0  0  0
 11 12  1  0  0  0  0
 11 33  1  0  0  0  0
 11 34  1  0  0  0  0
 12 35  1  0  0  0  0
 12 36  1  0  0  0  0
 13 14  2  0  0  0  0
 13 15  1  0  0  0  0
 14 16  1  0  0  0  0
 14 37  1  0  0  0  0
 15 18  2  0  0  0  0
 15 38  1  0  0  0  0
 16 17  2  0  0  0  0
 16 20  1  0  0  0  0
 17 18  1  0  0  0  0
 17 21  1  0  0  0  0
 18 39  1  0  0  0  0
 19 22  1  0  0  0  0
 19 23  1  0  0  0  0
 19 40  1  0  0  0  0
 21 42  1  0  0  0  0
 21 43  1  0  0  0  0
 21 44  1  0  0  0  0
 22 24  2  0  0  0  0
 22 25  1  0  0  0  0
 23 45  1  0  0  0  0
 23 46  1  0  0  0  0
 23 47  1  0  0  0  0
 24 26  1  0  0  0  0
 25 27  2  0  0  0  0
 25 48  1  0  0  0  0
 26 28  2  0  0  0  0
 26 49  1  0  0  0  0
 27 28  1  0  0  0  0
 27 50  1  0  0  0  0
M  END
> <PUBCHEM_COMPOUND_CID>
17396117

> <PUBCHEM_COMPOUND_CANONICALIZED>
1

> <PUBCHEM_CACTVS_COMPLEXITY>
648

> <PUBCHEM_CACTVS_HBOND_ACCEPTOR>
4

> <PUBCHEM_CACTVS_HBOND_DONOR>
1

> <PUBCHEM_CACTVS_ROTATABLE_BOND>
5

> <PUBCHEM_CACTVS_SUBSKEYS>
AAADceB7MABGAAAAAAAAAAAAAAAAAWAAAAAwYAAAAAAAAAABQAAAHgYQQAAADCrB2CQyAYLAAAKIAiFSEHDCABAkBQAIiJkIBsgIIDKBlxGEIQhglgCIiYcYiICOlAAAgACRAAAoAAEAASIAAAAAAAAAAA==

> <PUBCHEM_IUPAC_OPENEYE_NAME>
N-[1-(2,4-dichlorophenyl)ethyl]-2-methyl-5-pyrrolidin-1-ylsulfonyl-benzamide

> <PUBCHEM_IUPAC_CAS_NAME>
N-[1-(2,4-dichlorophenyl)ethyl]-2-methyl-5-(1-pyrrolidinylsulfonyl)benzamide

> <PUBCHEM_IUPAC_NAME>
N-[1-(2,4-dichlorophenyl)ethyl]-2-methyl-5-pyrrolidin-1-ylsulfonylbenzamide

> <PUBCHEM_IUPAC_SYSTEMATIC_NAME>
N-[1-(2,4-dichlorophenyl)ethyl]-2-methyl-5-pyrrolidin-1-ylsulfonyl-benzamide

> <PUBCHEM_IUPAC_TRADITIONAL_NAME>
N-[1-(2,4-dichlorophenyl)ethyl]-2-methyl-5-pyrrolidinosulfonyl-benzamide

> <PUBCHEM_IUPAC_INCHI>
InChI=1S/C20H22Cl2N2O3S/c1-13-5-7-16(28(26,27)24-9-3-4-10-24)12-18(13)20(25)23-14(2)17-8-6-15(21)11-19(17)22/h5-8,11-12,14H,3-4,9-10H2,1-2H3,(H,23,25)

> <PUBCHEM_IUPAC_INCHIKEY>
FJDQIEOFSUJBGY-UHFFFAOYSA-N

> <PUBCHEM_XLOGP3_AA>
4.4

> <PUBCHEM_EXACT_MASS>
440.072819

> <PUBCHEM_MOLECULAR_FORMULA>
C20H22Cl2N2O3S

> <PUBCHEM_MOLECULAR_WEIGHT>
441.37128

> <PUBCHEM_OPENEYE_CAN_SMILES>
CC1=C(C=C(C=C1)S(=O)(=O)N2CCCC2)C(=O)NC(C)C3=C(C=C(C=C3)Cl)Cl

> <PUBCHEM_OPENEYE_ISO_SMILES>
CC1=C(C=C(C=C1)S(=O)(=O)N2CCCC2)C(=O)NC(C)C3=C(C=C(C=C3)Cl)Cl

> <PUBCHEM_CACTVS_TPSA>
74.9

> <PUBCHEM_MONOISOTOPIC_WEIGHT>
440.072819

> <PUBCHEM_TOTAL_CHARGE>
0

> <PUBCHEM_HEAVY_ATOM_COUNT>
28

> <PUBCHEM_ATOM_DEF_STEREO_COUNT>
0

> <PUBCHEM_ATOM_UDEF_STEREO_COUNT>
1

> <PUBCHEM_BOND_DEF_STEREO_COUNT>
0

> <PUBCHEM_BOND_UDEF_STEREO_COUNT>
0

> <PUBCHEM_ISOTOPIC_ATOM_COUNT>
0

> <PUBCHEM_COMPONENT_COUNT>
1

> <PUBCHEM_CACTVS_TAUTO_COUNT>
2

> <PUBCHEM_COORDINATE_TYPE>
1
5
255

> <PUBCHEM_BONDANNOTATIONS>
13  14  8
13  15  8
14  16  8
15  18  8
16  17  8
17  18  8
19  23  3
22  24  8
22  25  8
24  26  8
25  27  8
26  28  8
27  28  8

$$$$

