12057
  -OEChem-06261206272D

 15 15  0     1  0  0  0  0  0999 V2000
    2.8660    0.9400    0.0000 S   0  0  3  0  0  0  0  0  0  0  0  0
    3.7320    1.4400    0.0000 O   0  0  0  0  0  0  0  0  0  0  0  0
    2.0000    1.4400    0.0000 O   0  0  0  0  0  0  0  0  0  0  0  0
    2.8660   -0.0600    0.0000 C   0  0  0  0  0  0  0  0  0  0  0  0
    2.0000   -0.5600    0.0000 C   0  0  0  0  0  0  0  0  0  0  0  0
    3.7320   -0.5600    0.0000 C   0  0  0  0  0  0  0  0  0  0  0  0
    2.0000   -1.5600    0.0000 C   0  0  0  0  0  0  0  0  0  0  0  0
    3.7320   -1.5600    0.0000 C   0  0  0  0  0  0  0  0  0  0  0  0
    2.8660   -2.0600    0.0000 C   0  0  0  0  0  0  0  0  0  0  0  0
    1.4631   -0.2500    0.0000 H   0  0  0  0  0  0  0  0  0  0  0  0
    4.2690   -0.2500    0.0000 H   0  0  0  0  0  0  0  0  0  0  0  0
    1.4631   -1.8700    0.0000 H   0  0  0  0  0  0  0  0  0  0  0  0
    4.2690   -1.8700    0.0000 H   0  0  0  0  0  0  0  0  0  0  0  0
    2.8660   -2.6800    0.0000 H   0  0  0  0  0  0  0  0  0  0  0  0
    3.7320    2.0600    0.0000 H   0  0  0  0  0  0  0  0  0  0  0  0
  1  2  1  0  0  0  0
  1  3  2  0  0  0  0
  1  4  1  0  0  0  0
  2 15  1  0  0  0  0
  4  5  2  0  0  0  0
  4  6  1  0  0  0  0
  5  7  1  0  0  0  0
  5 10  1  0  0  0  0
  6  8  2  0  0  0  0
  6 11  1  0  0  0  0
  7  9  2  0  0  0  0
  7 12  1  0  0  0  0
  8  9  1  0  0  0  0
  8 13  1  0  0  0  0
  9 14  1  0  0  0  0
M  END
> <PUBCHEM_COMPOUND_CID>
12057

> <PUBCHEM_COMPOUND_CANONICALIZED>
1

> <PUBCHEM_CACTVS_COMPLEXITY>
108

> <PUBCHEM_CACTVS_HBOND_ACCEPTOR>
3

> <PUBCHEM_CACTVS_HBOND_DONOR>
1

> <PUBCHEM_CACTVS_ROTATABLE_BOND>
1

> <PUBCHEM_CACTVS_SUBSKEYS>
AAADcYBgMABAAAAAAAAAAAAAAAAAAAAAAAAwAAAAAAAAAAABAAAAGAQACAAACACAUAAwAYAAAIKAACBCAGBCAEAgAAAIiBgAAIgIICKAERCAIAAggAAIiAcAAAAAAAAAAAAAAAAAAAAAAAAAAAAAAAAAAA==

> <PUBCHEM_IUPAC_OPENEYE_NAME>
benzenesulfinic acid

> <PUBCHEM_IUPAC_CAS_NAME>
benzenesulfinic acid

> <PUBCHEM_IUPAC_NAME>
benzenesulfinic acid

> <PUBCHEM_IUPAC_SYSTEMATIC_NAME>
benzenesulfinic acid

> <PUBCHEM_IUPAC_TRADITIONAL_NAME>
benzenesulfinic acid

> <PUBCHEM_IUPAC_INCHI>
InChI=1S/C6H6O2S/c7-9(8)6-4-2-1-3-5-6/h1-5H,(H,7,8)

> <PUBCHEM_IUPAC_INCHIKEY>
JEHKKBHWRAXMCH-UHFFFAOYSA-N

> <PUBCHEM_XLOGP3>
0.6

> <PUBCHEM_EXACT_MASS>
142.00885

> <PUBCHEM_MOLECULAR_FORMULA>
C6H6O2S

> <PUBCHEM_MOLECULAR_WEIGHT>
142.17564

> <PUBCHEM_OPENEYE_CAN_SMILES>
C1=CC=C(C=C1)S(=O)O

> <PUBCHEM_OPENEYE_ISO_SMILES>
C1=CC=C(C=C1)S(=O)O

> <PUBCHEM_CACTVS_TPSA>
56.5

> <PUBCHEM_MONOISOTOPIC_WEIGHT>
142.00885

> <PUBCHEM_TOTAL_CHARGE>
0

> <PUBCHEM_HEAVY_ATOM_COUNT>
9

> <PUBCHEM_ATOM_DEF_STEREO_COUNT>
0

> <PUBCHEM_ATOM_UDEF_STEREO_COUNT>
0

> <PUBCHEM_BOND_DEF_STEREO_COUNT>
0

> <PUBCHEM_BOND_UDEF_STEREO_COUNT>
0

> <PUBCHEM_ISOTOPIC_ATOM_COUNT>
0

> <PUBCHEM_COMPONENT_COUNT>
1

> <PUBCHEM_CACTVS_TAUTO_COUNT>
1

> <PUBCHEM_COORDINATE_TYPE>
1
5
255

> <PUBCHEM_BONDANNOTATIONS>
4  5  8
4  6  8
5  7  8
6  8  8
7  9  8
8  9  8

$$$$

