7958
  -OEChem-06261202303D

 28 27  0     0  0  0  0  0  0999 V2000
    0.0003   -0.3516    1.6193 O   0  0  0  0  0  0  0  0  0  0  0  0
   -2.4522    0.0548    0.1001 C   0  0  0  0  0  0  0  0  0  0  0  0
    2.4521    0.0549    0.0999 C   0  0  0  0  0  0  0  0  0  0  0  0
   -1.2888   -0.8344   -0.3639 C   0  0  0  0  0  0  0  0  0  0  0  0
    1.2888   -0.8344   -0.3640 C   0  0  0  0  0  0  0  0  0  0  0  0
    0.0001   -0.6174    0.4184 C   0  0  0  0  0  0  0  0  0  0  0  0
   -2.1163    1.5401   -0.0570 C   0  0  0  0  0  0  0  0  0  0  0  0
   -3.7149   -0.2761   -0.6978 C   0  0  0  0  0  0  0  0  0  0  0  0
    2.1160    1.5401   -0.0572 C   0  0  0  0  0  0  0  0  0  0  0  0
    3.7150   -0.2759   -0.6977 C   0  0  0  0  0  0  0  0  0  0  0  0
   -2.6538   -0.1400    1.1608 H   0  0  0  0  0  0  0  0  0  0  0  0
    2.6536   -0.1398    1.1606 H   0  0  0  0  0  0  0  0  0  0  0  0
   -1.5505   -1.8942   -0.2650 H   0  0  0  0  0  0  0  0  0  0  0  0
   -1.0961   -0.6420   -1.4257 H   0  0  0  0  0  0  0  0  0  0  0  0
    1.5506   -1.8943   -0.2651 H   0  0  0  0  0  0  0  0  0  0  0  0
    1.0960   -0.6421   -1.4258 H   0  0  0  0  0  0  0  0  0  0  0  0
   -1.8597    1.7820   -1.0941 H   0  0  0  0  0  0  0  0  0  0  0  0
   -2.9705    2.1619    0.2321 H   0  0  0  0  0  0  0  0  0  0  0  0
   -1.2741    1.8311    0.5775 H   0  0  0  0  0  0  0  0  0  0  0  0
   -4.5612    0.3289   -0.3553 H   0  0  0  0  0  0  0  0  0  0  0  0
   -3.9867   -1.3297   -0.5744 H   0  0  0  0  0  0  0  0  0  0  0  0
   -3.5728   -0.0854   -1.7671 H   0  0  0  0  0  0  0  0  0  0  0  0
    2.9702    2.1621    0.2321 H   0  0  0  0  0  0  0  0  0  0  0  0
    1.2737    1.8309    0.5773 H   0  0  0  0  0  0  0  0  0  0  0  0
    1.8595    1.7820   -1.0942 H   0  0  0  0  0  0  0  0  0  0  0  0
    3.9869   -1.3296   -0.5740 H   0  0  0  0  0  0  0  0  0  0  0  0
    4.5611    0.3291   -0.3552 H   0  0  0  0  0  0  0  0  0  0  0  0
    3.5730   -0.0854   -1.7670 H   0  0  0  0  0  0  0  0  0  0  0  0
  1  6  2  0  0  0  0
  2  4  1  0  0  0  0
  2  7  1  0  0  0  0
  2  8  1  0  0  0  0
  2 11  1  0  0  0  0
  3  5  1  0  0  0  0
  3  9  1  0  0  0  0
  3 10  1  0  0  0  0
  3 12  1  0  0  0  0
  4  6  1  0  0  0  0
  4 13  1  0  0  0  0
  4 14  1  0  0  0  0
  5  6  1  0  0  0  0
  5 15  1  0  0  0  0
  5 16  1  0  0  0  0
  7 17  1  0  0  0  0
  7 18  1  0  0  0  0
  7 19  1  0  0  0  0
  8 20  1  0  0  0  0
  8 21  1  0  0  0  0
  8 22  1  0  0  0  0
  9 23  1  0  0  0  0
  9 24  1  0  0  0  0
  9 25  1  0  0  0  0
 10 26  1  0  0  0  0
 10 27  1  0  0  0  0
 10 28  1  0  0  0  0
M  END
> <PUBCHEM_COMPOUND_CID>
7958

> <PUBCHEM_CONFORMER_RMSD>
0.6

> <PUBCHEM_CONFORMER_DIVERSEORDER>
3
16
6
15
5
13
4
1
2
14
7
11
12
8
9
10

> <PUBCHEM_MMFF94_PARTIAL_CHARGES>
4
1 -0.57
4 0.06
5 0.06
6 0.45

> <PUBCHEM_EFFECTIVE_ROTOR_COUNT>
4

> <PUBCHEM_PHARMACOPHORE_FEATURES>
3
1 1 acceptor
3 2 7 8 hydrophobe
3 3 9 10 hydrophobe

> <PUBCHEM_HEAVY_ATOM_COUNT>
10

> <PUBCHEM_ATOM_DEF_STEREO_COUNT>
0

> <PUBCHEM_ATOM_UDEF_STEREO_COUNT>
0

> <PUBCHEM_BOND_DEF_STEREO_COUNT>
0

> <PUBCHEM_BOND_UDEF_STEREO_COUNT>
0

> <PUBCHEM_ISOTOPIC_ATOM_COUNT>
0

> <PUBCHEM_COMPONENT_COUNT>
1

> <PUBCHEM_CACTVS_TAUTO_COUNT>
2

> <PUBCHEM_CONFORMER_ID>
00001F1600000003

> <PUBCHEM_MMFF94_ENERGY>
8.8857

> <PUBCHEM_FEATURE_SELFOVERLAP>
15.223

> <PUBCHEM_SHAPE_FINGERPRINT>
10219947 1 14979959189589966046
11062470 55 7060377028608305871
12162725 195 18411418410197848644
12897270 3 18335704927191622471
12932764 1 18187367640113786114
14325111 11 18410011048088213036
14390081 3 18343023293771269365
15310529 11 18113904896227983503
15775835 57 17987796448561016365
19973954 147 18269267976491937868
20653085 51 18410562990146112240
20671657 53 17168131378389434124
20711983 171 18261956366011892261
21028194 46 17847061077492365039
21119208 17 18260267455821392357
21293036 1 16877665638615064934
22485316 2 4895270382484150949
23235685 24 16559032679492144766
23402539 116 18409460175778150143
23402655 69 18335143128353019637
23552423 10 18118123804096123871
29004967 10 9223237321364419086
305870 269 17773600601106825099
5084963 1 18113617884721780651

> <PUBCHEM_SHAPE_MULTIPOLES>
199.93
5.95
1.3
0.95
0
0.58
-0.26
0.28
1.81
0
0.08
0
-0.11
0

> <PUBCHEM_SHAPE_SELFOVERLAP>
364.285

> <PUBCHEM_SHAPE_VOLUME>
129.1

> <PUBCHEM_COORDINATE_TYPE>
2
5
10

$$$$

