7105
  -OEChem-06261201462D

 28 30  0     0  0  0  0  0  0999 V2000
    3.8611    0.0526    0.0000 O   0  0  0  0  0  0  0  0  0  0  0  0
    5.1701    1.0036    0.0000 N   0  0  0  0  0  0  0  0  0  0  0  0
    4.6701   -0.5352    0.0000 C   0  0  0  0  0  0  0  0  0  0  0  0
    4.6701   -1.5352    0.0000 C   0  0  0  0  0  0  0  0  0  0  0  0
    3.5823    1.8126    0.0000 C   0  0  0  0  0  0  0  0  0  0  0  0
    4.1701    1.0036    0.0000 C   0  0  0  0  0  0  0  0  0  0  0  0
    5.4791    0.0526    0.0000 C   0  0  0  0  0  0  0  0  0  0  0  0
    3.8041   -2.0352    0.0000 C   0  0  0  0  0  0  0  0  0  0  0  0
    5.5361   -2.0352    0.0000 C   0  0  0  0  0  0  0  0  0  0  0  0
    3.9890    2.7262    0.0000 C   0  0  0  0  0  0  0  0  0  0  0  0
    2.5878    1.7081    0.0000 C   0  0  0  0  0  0  0  0  0  0  0  0
    3.8041   -3.0352    0.0000 C   0  0  0  0  0  0  0  0  0  0  0  0
    5.5361   -3.0352    0.0000 C   0  0  0  0  0  0  0  0  0  0  0  0
    3.4013    3.5352    0.0000 C   0  0  0  0  0  0  0  0  0  0  0  0
    2.0000    2.5171    0.0000 C   0  0  0  0  0  0  0  0  0  0  0  0
    4.6701   -3.5352    0.0000 C   0  0  0  0  0  0  0  0  0  0  0  0
    2.4067    3.4307    0.0000 C   0  0  0  0  0  0  0  0  0  0  0  0
    6.0688   -0.1390    0.0000 H   0  0  0  0  0  0  0  0  0  0  0  0
    3.2671   -1.7252    0.0000 H   0  0  0  0  0  0  0  0  0  0  0  0
    6.0730   -1.7252    0.0000 H   0  0  0  0  0  0  0  0  0  0  0  0
    4.6056    2.7910    0.0000 H   0  0  0  0  0  0  0  0  0  0  0  0
    2.3356    1.1417    0.0000 H   0  0  0  0  0  0  0  0  0  0  0  0
    3.2671   -3.3452    0.0000 H   0  0  0  0  0  0  0  0  0  0  0  0
    6.0730   -3.3452    0.0000 H   0  0  0  0  0  0  0  0  0  0  0  0
    3.6534    4.1016    0.0000 H   0  0  0  0  0  0  0  0  0  0  0  0
    1.3834    2.4523    0.0000 H   0  0  0  0  0  0  0  0  0  0  0  0
    4.6701   -4.1552    0.0000 H   0  0  0  0  0  0  0  0  0  0  0  0
    2.0423    3.9323    0.0000 H   0  0  0  0  0  0  0  0  0  0  0  0
  1  3  1  0  0  0  0
  1  6  1  0  0  0  0
  2  6  2  0  0  0  0
  2  7  1  0  0  0  0
  3  4  1  0  0  0  0
  3  7  2  0  0  0  0
  4  8  2  0  0  0  0
  4  9  1  0  0  0  0
  5  6  1  0  0  0  0
  5 10  2  0  0  0  0
  5 11  1  0  0  0  0
  7 18  1  0  0  0  0
  8 12  1  0  0  0  0
  8 19  1  0  0  0  0
  9 13  2  0  0  0  0
  9 20  1  0  0  0  0
 10 14  1  0  0  0  0
 10 21  1  0  0  0  0
 11 15  2  0  0  0  0
 11 22  1  0  0  0  0
 12 16  2  0  0  0  0
 12 23  1  0  0  0  0
 13 16  1  0  0  0  0
 13 24  1  0  0  0  0
 14 17  2  0  0  0  0
 14 25  1  0  0  0  0
 15 17  1  0  0  0  0
 15 26  1  0  0  0  0
 16 27  1  0  0  0  0
 17 28  1  0  0  0  0
M  END
> <PUBCHEM_COMPOUND_CID>
7105

> <PUBCHEM_COMPOUND_CANONICALIZED>
1

> <PUBCHEM_CACTVS_COMPLEXITY>
231

> <PUBCHEM_CACTVS_HBOND_ACCEPTOR>
2

> <PUBCHEM_CACTVS_HBOND_DONOR>
0

> <PUBCHEM_CACTVS_ROTATABLE_BOND>
2

> <PUBCHEM_CACTVS_SUBSKEYS>
AAADccByIAAAAAAAAAAAAAAAAAAAAWAAAAAwYAAAAAAAAAAB0AAAHgAAAAAADATBmgQ8hJIIFECoArF3VASCiCA/QCAI2CGrTNgOJrLAtTmPOQjkxgHY6YeYyKCOAAAAAAAAAAAAAAAAAAAAAAAAAAAAAA==

> <PUBCHEM_IUPAC_OPENEYE_NAME>
2,5-diphenyloxazole

> <PUBCHEM_IUPAC_CAS_NAME>
2,5-diphenyloxazole

> <PUBCHEM_IUPAC_NAME>
2,5-diphenyl-1,3-oxazole

> <PUBCHEM_IUPAC_SYSTEMATIC_NAME>
2,5-diphenyl-1,3-oxazole

> <PUBCHEM_IUPAC_TRADITIONAL_NAME>
2,5-diphenyloxazole

> <PUBCHEM_IUPAC_INCHI>
InChI=1S/C15H11NO/c1-3-7-12(8-4-1)14-11-16-15(17-14)13-9-5-2-6-10-13/h1-11H

> <PUBCHEM_IUPAC_INCHIKEY>
CNRNYORZJGVOSY-UHFFFAOYSA-N

> <PUBCHEM_XLOGP3>
4.7

> <PUBCHEM_EXACT_MASS>
221.084064

> <PUBCHEM_MOLECULAR_FORMULA>
C15H11NO

> <PUBCHEM_MOLECULAR_WEIGHT>
221.25394

> <PUBCHEM_OPENEYE_CAN_SMILES>
C1=CC=C(C=C1)C2=CN=C(O2)C3=CC=CC=C3

> <PUBCHEM_OPENEYE_ISO_SMILES>
C1=CC=C(C=C1)C2=CN=C(O2)C3=CC=CC=C3

> <PUBCHEM_CACTVS_TPSA>
26

> <PUBCHEM_MONOISOTOPIC_WEIGHT>
221.084064

> <PUBCHEM_TOTAL_CHARGE>
0

> <PUBCHEM_HEAVY_ATOM_COUNT>
17

> <PUBCHEM_ATOM_DEF_STEREO_COUNT>
0

> <PUBCHEM_ATOM_UDEF_STEREO_COUNT>
0

> <PUBCHEM_BOND_DEF_STEREO_COUNT>
0

> <PUBCHEM_BOND_UDEF_STEREO_COUNT>
0

> <PUBCHEM_ISOTOPIC_ATOM_COUNT>
0

> <PUBCHEM_COMPONENT_COUNT>
1

> <PUBCHEM_CACTVS_TAUTO_COUNT>
1

> <PUBCHEM_COORDINATE_TYPE>
1
5
255

> <PUBCHEM_BONDANNOTATIONS>
1  3  8
1  6  8
10  14  8
11  15  8
12  16  8
13  16  8
14  17  8
15  17  8
2  6  8
2  7  8
3  7  8
4  8  8
4  9  8
5  10  8
5  11  8
8  12  8
9  13  8

$$$$

