11336
  -OEChem-06261205333D

 16 16  0     0  0  0  0  0  0999 V2000
   -3.3024   -0.1790    0.0005 Br  0  0  0  0  0  0  0  0  0  0  0  0
    3.2832    0.4472   -0.0015 Br  0  0  0  0  0  0  0  0  0  0  0  0
   -1.3995   -2.9550   -0.0035 Br  0  0  0  0  0  0  0  0  0  0  0  0
    1.9321   -2.6423    0.0037 Br  0  0  0  0  0  0  0  0  0  0  0  0
    1.1288    2.5721   -0.0011 O   0  0  0  0  0  0  0  0  0  0  0  0
   -0.8072    1.1911    0.0009 C   0  0  0  0  0  0  0  0  0  0  0  0
    0.5816    1.3205    0.0002 C   0  0  0  0  0  0  0  0  0  0  0  0
   -1.3897   -0.0764    0.0010 C   0  0  0  0  0  0  0  0  0  0  0  0
    1.3879    0.1824   -0.0006 C   0  0  0  0  0  0  0  0  0  0  0  0
   -0.5833   -1.2146    0.0002 C   0  0  0  0  0  0  0  0  0  0  0  0
    0.8056   -1.0852   -0.0006 C   0  0  0  0  0  0  0  0  0  0  0  0
   -1.6370    2.4391    0.0007 C   0  0  0  0  0  0  0  0  0  0  0  0
   -1.9950    2.6554    1.0125 H   0  0  0  0  0  0  0  0  0  0  0  0
   -1.1020    3.3197   -0.3681 H   0  0  0  0  0  0  0  0  0  0  0  0
   -2.4920    2.3613   -0.6783 H   0  0  0  0  0  0  0  0  0  0  0  0
    0.6280    3.1372    0.6108 H   0  0  0  0  0  0  0  0  0  0  0  0
  1  8  1  0  0  0  0
  2  9  1  0  0  0  0
  3 10  1  0  0  0  0
  4 11  1  0  0  0  0
  5  7  1  0  0  0  0
  5 16  1  0  0  0  0
  6  7  2  0  0  0  0
  6  8  1  0  0  0  0
  6 12  1  0  0  0  0
  7  9  1  0  0  0  0
  8 10  2  0  0  0  0
  9 11  2  0  0  0  0
 10 11  1  0  0  0  0
 12 13  1  0  0  0  0
 12 14  1  0  0  0  0
 12 15  1  0  0  0  0
M  END
> <PUBCHEM_COMPOUND_CID>
11336

> <PUBCHEM_CONFORMER_RMSD>
0.4

> <PUBCHEM_CONFORMER_DIVERSEORDER>
1

> <PUBCHEM_MMFF94_PARTIAL_CHARGES>
13
1 -0.11
10 0.11
11 0.11
12 0.14
16 0.45
2 -0.11
3 -0.11
4 -0.11
5 -0.53
6 -0.14
7 0.08
8 0.11
9 0.11

> <PUBCHEM_EFFECTIVE_ROTOR_COUNT>
0

> <PUBCHEM_PHARMACOPHORE_FEATURES>
6
1 1 hydrophobe
1 2 hydrophobe
1 3 hydrophobe
1 4 hydrophobe
1 5 donor
6 6 7 8 9 10 11 rings

> <PUBCHEM_HEAVY_ATOM_COUNT>
12

> <PUBCHEM_ATOM_DEF_STEREO_COUNT>
0

> <PUBCHEM_ATOM_UDEF_STEREO_COUNT>
0

> <PUBCHEM_BOND_DEF_STEREO_COUNT>
0

> <PUBCHEM_BOND_UDEF_STEREO_COUNT>
0

> <PUBCHEM_ISOTOPIC_ATOM_COUNT>
0

> <PUBCHEM_COMPONENT_COUNT>
1

> <PUBCHEM_CACTVS_TAUTO_COUNT>
3

> <PUBCHEM_CONFORMER_ID>
00002C4800000001

> <PUBCHEM_MMFF94_ENERGY>
40.4519

> <PUBCHEM_FEATURE_SELFOVERLAP>
30.446

> <PUBCHEM_SHAPE_FINGERPRINT>
10967382 1 18410856551097464167
12423570 1 11735757626947295179
13140716 1 18194120707313520089
13380535 76 18410578361792184738
16945 1 18410575063193530181
193761 8 18122343737869948230
20588541 1 18410571764674640015
21501502 16 18193837269563122016
2334 1 17834113039574518823
23402539 116 18335152989402531558
23526114 1 18194965372767108039
23552423 10 18054223503687725262
23559900 14 17541663155326220046
241688 4 18050568744111183905
2748010 2 18194965372767082063
5084963 1 17898297344542456203
5255222 1 18410297986258075377
528886 8 18337677390732412978

> <PUBCHEM_SHAPE_MULTIPOLES>
264.85
4.13
3.5
0.66
0.26
1
0
-0.01
0
-0.07
0
0
0.07
0

> <PUBCHEM_SHAPE_SELFOVERLAP>
496.894

> <PUBCHEM_SHAPE_VOLUME>
174.2

> <PUBCHEM_COORDINATE_TYPE>
2
5
10

$$$$

