17396510
  -OEChem-06241222573D

 39 41  0     0  0  0  0  0  0999 V2000
   -4.0426   -0.9649    1.7598 S   0  0  0  0  0  0  0  0  0  0  0  0
    0.4364   -0.1484   -0.7715 O   0  0  0  0  0  0  0  0  0  0  0  0
    5.6795   -1.2956    0.2271 O   0  0  0  0  0  0  0  0  0  0  0  0
   -1.1069    2.8944    0.1825 O   0  0  0  0  0  0  0  0  0  0  0  0
   -1.9966    1.0578   -0.9185 N   0  0  0  0  0  0  0  0  0  0  0  0
    2.4479    0.4189    0.0861 C   0  0  0  0  0  0  0  0  0  0  0  0
    1.5369    1.4824    0.3204 C   0  0  0  0  0  0  0  0  0  0  0  0
    0.3340    1.0883   -0.2185 C   0  0  0  0  0  0  0  0  0  0  0  0
    1.7229   -0.5586   -0.5876 C   0  0  0  0  0  0  0  0  0  0  0  0
   -3.3292    1.5917   -1.0852 C   0  0  0  0  0  0  0  0  0  0  0  0
   -4.2499    1.2505    0.0844 C   0  0  0  0  0  0  0  0  0  0  0  0
    3.8033    0.1746    0.3687 C   0  0  0  0  0  0  0  0  0  0  0  0
   -0.9313    1.7383   -0.2855 C   0  0  0  0  0  0  0  0  0  0  0  0
    1.8240    2.7576    1.0057 C   0  0  0  0  0  0  0  0  0  0  0  0
    2.2548   -1.7769   -1.0065 C   0  0  0  0  0  0  0  0  0  0  0  0
    4.3667   -1.0420   -0.0403 C   0  0  0  0  0  0  0  0  0  0  0  0
   -4.4355   -0.2378    0.2600 C   0  0  0  0  0  0  0  0  0  0  0  0
    3.6043   -1.9986   -0.7156 C   0  0  0  0  0  0  0  0  0  0  0  0
   -4.8991   -1.1576   -0.6548 C   0  0  0  0  0  0  0  0  0  0  0  0
   -4.9326   -2.4767   -0.1171 C   0  0  0  0  0  0  0  0  0  0  0  0
   -4.4931   -2.5148    1.1879 C   0  0  0  0  0  0  0  0  0  0  0  0
    6.4062   -0.2826    0.9185 C   0  0  0  0  0  0  0  0  0  0  0  0
   -3.7202    1.1909   -2.0266 H   0  0  0  0  0  0  0  0  0  0  0  0
   -3.2617    2.6799   -1.1907 H   0  0  0  0  0  0  0  0  0  0  0  0
   -3.8539    1.7029    1.0021 H   0  0  0  0  0  0  0  0  0  0  0  0
   -5.2340    1.7025   -0.0906 H   0  0  0  0  0  0  0  0  0  0  0  0
    4.3487    0.9482    0.8941 H   0  0  0  0  0  0  0  0  0  0  0  0
   -1.8177    0.1273   -1.2856 H   0  0  0  0  0  0  0  0  0  0  0  0
    2.8610    2.8138    1.3504 H   0  0  0  0  0  0  0  0  0  0  0  0
    1.1790    2.8786    1.8823 H   0  0  0  0  0  0  0  0  0  0  0  0
    1.6544    3.6041    0.3322 H   0  0  0  0  0  0  0  0  0  0  0  0
    1.6569   -2.5136   -1.5295 H   0  0  0  0  0  0  0  0  0  0  0  0
    4.0626   -2.9359   -1.0232 H   0  0  0  0  0  0  0  0  0  0  0  0
   -5.2036   -0.9026   -1.6619 H   0  0  0  0  0  0  0  0  0  0  0  0
   -5.2626   -3.3529   -0.6597 H   0  0  0  0  0  0  0  0  0  0  0  0
   -4.4150   -3.3787    1.8328 H   0  0  0  0  0  0  0  0  0  0  0  0
    7.4298   -0.6500    1.0462 H   0  0  0  0  0  0  0  0  0  0  0  0
    6.0029   -0.1103    1.9222 H   0  0  0  0  0  0  0  0  0  0  0  0
    6.4708    0.6399    0.3314 H   0  0  0  0  0  0  0  0  0  0  0  0
  1 17  1  0  0  0  0
  1 21  1  0  0  0  0
  2  8  1  0  0  0  0
  2  9  1  0  0  0  0
  3 16  1  0  0  0  0
  3 22  1  0  0  0  0
  4 13  2  0  0  0  0
  5 10  1  0  0  0  0
  5 13  1  0  0  0  0
  5 28  1  0  0  0  0
  6  7  1  0  0  0  0
  6  9  2  0  0  0  0
  6 12  1  0  0  0  0
  7  8  2  0  0  0  0
  7 14  1  0  0  0  0
  8 13  1  0  0  0  0
  9 15  1  0  0  0  0
 10 11  1  0  0  0  0
 10 23  1  0  0  0  0
 10 24  1  0  0  0  0
 11 17  1  0  0  0  0
 11 25  1  0  0  0  0
 11 26  1  0  0  0  0
 12 16  2  0  0  0  0
 12 27  1  0  0  0  0
 14 29  1  0  0  0  0
 14 30  1  0  0  0  0
 14 31  1  0  0  0  0
 15 18  2  0  0  0  0
 15 32  1  0  0  0  0
 16 18  1  0  0  0  0
 17 19  2  0  0  0  0
 18 33  1  0  0  0  0
 19 20  1  0  0  0  0
 19 34  1  0  0  0  0
 20 21  2  0  0  0  0
 20 35  1  0  0  0  0
 21 36  1  0  0  0  0
 22 37  1  0  0  0  0
 22 38  1  0  0  0  0
 22 39  1  0  0  0  0
M  END
> <PUBCHEM_COMPOUND_CID>
17396510

> <PUBCHEM_CONFORMER_RMSD>
0.8

> <PUBCHEM_CONFORMER_DIVERSEORDER>
1
23
46
10
25
44
40
43
18
49
52
42
56
21
28
15
53
41
29
51
26
55
2
50
35
7
30
12
36
9
5
33
54
6
32
31
14
22
38
48
27
4
37
45
47
20
8
34
39
17
16
13
24
11
19
3

> <PUBCHEM_MMFF94_PARTIAL_CHARGES>
28
1 -0.08
10 0.3
11 0.18
12 -0.15
13 0.71
14 0.18
15 -0.15
16 0.08
17 -0.14
18 -0.15
19 -0.15
2 -0.28
20 -0.15
21 -0.11
22 0.28
27 0.15
28 0.37
3 -0.36
32 0.15
33 0.15
34 0.15
35 0.15
36 0.15
4 -0.57
5 -0.73
7 -0.18
8 0.05
9 0.14

> <PUBCHEM_EFFECTIVE_ROTOR_COUNT>
6

> <PUBCHEM_PHARMACOPHORE_FEATURES>
7
1 2 acceptor
1 3 acceptor
1 4 acceptor
1 5 donor
5 1 17 19 20 21 rings
5 2 6 7 8 9 rings
6 6 9 12 15 16 18 rings

> <PUBCHEM_HEAVY_ATOM_COUNT>
22

> <PUBCHEM_ATOM_DEF_STEREO_COUNT>
0

> <PUBCHEM_ATOM_UDEF_STEREO_COUNT>
0

> <PUBCHEM_BOND_DEF_STEREO_COUNT>
0

> <PUBCHEM_BOND_UDEF_STEREO_COUNT>
0

> <PUBCHEM_ISOTOPIC_ATOM_COUNT>
0

> <PUBCHEM_COMPONENT_COUNT>
1

> <PUBCHEM_CACTVS_TAUTO_COUNT>
2

> <PUBCHEM_CONFORMER_ID>
0109731E00000001

> <PUBCHEM_MMFF94_ENERGY>
39.611

> <PUBCHEM_FEATURE_SELFOVERLAP>
35.622

> <PUBCHEM_SHAPE_FINGERPRINT>
10670039 82 7997966864775480219
11135609 12 18201428156719602121
11405975 8 18334850628696543441
11552529 35 17822572703749401639
11796584 16 18129667516103009555
12363563 72 18200583710398788987
12596602 18 16081094753407217767
12616971 3 16916489458653372653
12633257 1 18042105640642133811
13103583 49 17968359209496773977
13402501 40 18411979165803133991
13544653 18 18411694353720899221
13740256 8 18410856564082690340
14251751 18 18272930526875137558
14429380 30 18196653999785938547
14787075 74 18341889689088639200
14790565 3 17329990196650819909
14950920 106 17386562458602669555
14955137 171 18040713688938829916
15183329 4 9295292737890708366
15352361 1 18411417289696707015
17138139 8 17704076170533256378
17780758 139 18187079572974076385
17913733 40 17824551755596191872
18785283 64 18264494992685473456
20028762 73 18040720216667297575
20403669 9 18413102849680821327
21054139 6 17704355485426214234
21623969 137 18186802483037811102
21781051 124 18261105306328472742
221490 88 18410011026613772868
23402539 116 15697716020852479956
23402655 69 11527954447608299575
23559900 14 18342184345215155389
26918003 58 18335142033241925293
2838139 119 9223228529429331138
316301 35 18342741767091785059
329604 57 18343578525794989142
4073 2 18339079405844933912
5104073 3 18334581260705009520
6431902 208 18412827967099322699
7471813 234 16128648682948020862
7495541 125 18412544293331133860
9862886 166 18059857263971998906

> <PUBCHEM_SHAPE_MULTIPOLES>
434.01
13.5
2.97
1.17
2.68
0.57
0.25
-8.86
2.85
-1.57
0.19
-0.69
-0.2
1.61

> <PUBCHEM_SHAPE_SELFOVERLAP>
925.148

> <PUBCHEM_SHAPE_VOLUME>
245.1

> <PUBCHEM_COORDINATE_TYPE>
2
5
10

$$$$

