854062
  -OEChem-06241222473D

 30 31  0     1  0  0  0  0  0999 V2000
    0.1131    2.9804   -0.4748 S   0  0  0  0  0  0  0  0  0  0  0  0
    0.6144   -2.0710   -0.3972 O   0  0  0  0  0  0  0  0  0  0  0  0
    1.9846    1.0920   -0.6098 N   0  0  0  0  0  0  0  0  0  0  0  0
   -0.0496    0.1935   -0.3105 N   0  0  0  0  0  0  0  0  0  0  0  0
    2.2428   -0.3176   -0.6583 C   0  0  1  0  0  0  0  0  0  0  0  0
    3.1897   -0.7647    0.4366 C   0  0  0  0  0  0  0  0  0  0  0  0
    0.8397   -0.8676   -0.4557 C   0  0  0  0  0  0  0  0  0  0  0  0
    4.6032   -0.2282    0.1932 C   0  0  0  0  0  0  0  0  0  0  0  0
    2.6871   -0.3196    1.8131 C   0  0  0  0  0  0  0  0  0  0  0  0
    0.6384    1.3974   -0.4280 C   0  0  0  0  0  0  0  0  0  0  0  0
   -1.4453    0.0034   -0.0781 C   0  0  0  0  0  0  0  0  0  0  0  0
   -2.0899   -1.1280   -0.5806 C   0  0  0  0  0  0  0  0  0  0  0  0
   -2.1680    0.9488    0.6513 C   0  0  0  0  0  0  0  0  0  0  0  0
   -3.4537   -1.3136   -0.3541 C   0  0  0  0  0  0  0  0  0  0  0  0
   -3.5318    0.7630    0.8778 C   0  0  0  0  0  0  0  0  0  0  0  0
   -4.1747   -0.3681    0.3751 C   0  0  0  0  0  0  0  0  0  0  0  0
    2.5948   -0.5772   -1.6617 H   0  0  0  0  0  0  0  0  0  0  0  0
    3.2425   -1.8611    0.4356 H   0  0  0  0  0  0  0  0  0  0  0  0
    2.6923    1.8013   -0.7738 H   0  0  0  0  0  0  0  0  0  0  0  0
    4.6399    0.8651    0.2429 H   0  0  0  0  0  0  0  0  0  0  0  0
    5.2964   -0.6184    0.9462 H   0  0  0  0  0  0  0  0  0  0  0  0
    4.9720   -0.5377   -0.7903 H   0  0  0  0  0  0  0  0  0  0  0  0
    2.6483    0.7704    1.9113 H   0  0  0  0  0  0  0  0  0  0  0  0
    3.3639   -0.6866    2.5935 H   0  0  0  0  0  0  0  0  0  0  0  0
    1.6956   -0.7235    2.0403 H   0  0  0  0  0  0  0  0  0  0  0  0
   -1.5817   -1.8657   -1.1928 H   0  0  0  0  0  0  0  0  0  0  0  0
   -1.7063    1.7960    1.1427 H   0  0  0  0  0  0  0  0  0  0  0  0
   -3.9569   -2.1893   -0.7537 H   0  0  0  0  0  0  0  0  0  0  0  0
   -4.0896    1.4884    1.4630 H   0  0  0  0  0  0  0  0  0  0  0  0
   -5.2360   -0.5138    0.5536 H   0  0  0  0  0  0  0  0  0  0  0  0
  1 10  2  0  0  0  0
  2  7  2  0  0  0  0
  3  5  1  0  0  0  0
  3 10  1  0  0  0  0
  3 19  1  0  0  0  0
  4  7  1  0  0  0  0
  4 10  1  0  0  0  0
  4 11  1  0  0  0  0
  5  6  1  0  0  0  0
  5  7  1  0  0  0  0
  5 17  1  0  0  0  0
  6  8  1  0  0  0  0
  6  9  1  0  0  0  0
  6 18  1  0  0  0  0
  8 20  1  0  0  0  0
  8 21  1  0  0  0  0
  8 22  1  0  0  0  0
  9 23  1  0  0  0  0
  9 24  1  0  0  0  0
  9 25  1  0  0  0  0
 11 12  2  0  0  0  0
 11 13  1  0  0  0  0
 12 14  1  0  0  0  0
 12 26  1  0  0  0  0
 13 15  2  0  0  0  0
 13 27  1  0  0  0  0
 14 16  2  0  0  0  0
 14 28  1  0  0  0  0
 15 16  1  0  0  0  0
 15 29  1  0  0  0  0
 16 30  1  0  0  0  0
M  END
> <PUBCHEM_COMPOUND_CID>
854062

> <PUBCHEM_CONFORMER_RMSD>
0.6

> <PUBCHEM_CONFORMER_DIVERSEORDER>
1
2
3
4

> <PUBCHEM_MMFF94_PARTIAL_CHARGES>
19
1 -0.38
10 0.5
11 0.12
12 -0.15
13 -0.15
14 -0.15
15 -0.15
16 -0.15
19 0.37
2 -0.57
26 0.15
27 0.15
28 0.15
29 0.15
3 -0.73
30 0.15
4 -0.24
5 0.36
7 0.57

> <PUBCHEM_EFFECTIVE_ROTOR_COUNT>
2.6

> <PUBCHEM_PHARMACOPHORE_FEATURES>
6
1 1 acceptor
1 2 acceptor
1 3 donor
3 6 8 9 hydrophobe
5 3 4 5 7 10 rings
6 11 12 13 14 15 16 rings

> <PUBCHEM_HEAVY_ATOM_COUNT>
16

> <PUBCHEM_ATOM_DEF_STEREO_COUNT>
1

> <PUBCHEM_ATOM_UDEF_STEREO_COUNT>
0

> <PUBCHEM_BOND_DEF_STEREO_COUNT>
0

> <PUBCHEM_BOND_UDEF_STEREO_COUNT>
0

> <PUBCHEM_ISOTOPIC_ATOM_COUNT>
0

> <PUBCHEM_COMPONENT_COUNT>
1

> <PUBCHEM_CACTVS_TAUTO_COUNT>
2

> <PUBCHEM_CONFORMER_ID>
000D082E00000001

> <PUBCHEM_MMFF94_ENERGY>
51.9585

> <PUBCHEM_FEATURE_SELFOVERLAP>
30.446

> <PUBCHEM_SHAPE_FINGERPRINT>
10130415 120 18273495658608505256
11132069 177 18334576871037091382
12251169 10 18408040714703540787
12382932 28 18335421334774922849
124424 183 17917716820449462141
12553582 1 18342738528675504215
13140716 1 18263918857007795649
13172582 1 18410575071799276166
13705890 14 14836403644648551826
13965767 371 17466757782810534641
14144814 61 18410285900626227879
14178342 30 18261387884309405211
14252887 29 18411129264705017930
14993402 34 18412543185092233190
15375462 189 17917434237212901290
15375462 478 18113617885017277261
16945 1 18337670939728639645
1813 80 17774149227898345470
18222031 100 18338528468635659614
18522853 276 18334293162993891449
192875 21 18335711490281407071
19862831 5 10879993566531379779
200 152 17275108353302069250
20361792 2 18131356301654977597
20388701 513 18338239396035927548
20559304 39 18335410236721991269
20671657 1 18124589778217366660
20711985 327 18410855451612294797
21267235 1 18337096909081490791
21501925 9 18410015411790809981
22112679 90 18409162195047123853
2255824 54 18128809751068032804
23388829 49 18341612637543452964
23402539 116 18334866021157497903
23419403 2 15952249432256455702
23463225 33 18412542110970484076
23559900 14 17603857962057047366
2748010 2 17690270934299461045
3286 77 18059573525784809159
34934 24 18268994357289921505
5104073 3 18336819785185882323
7364860 26 18191302667628396776
74978 22 18199182897840246107
81228 2 18054777657511571373
90316 7 18270125737105925313
9981440 41 17329715314596433225

> <PUBCHEM_SHAPE_MULTIPOLES>
317.29
7.15
2.08
1.05
0.05
1.49
-0.38
-2.12
-1.77
0.18
0.49
-0.37
-0.02
-0.61

> <PUBCHEM_SHAPE_SELFOVERLAP>
661.457

> <PUBCHEM_SHAPE_VOLUME>
183

> <PUBCHEM_COORDINATE_TYPE>
2
5
10

$$$$

