4600
  -OEChem-06261200142D

 67 67  0     1  0  0  0  0  0999 V2000
   12.2970   -2.6048    0.0000 O   0  0  0  0  0  0  0  0  0  0  0  0
    9.4491   -4.6739    0.0000 O   0  0  0  0  0  0  0  0  0  0  0  0
   10.5369    0.6739    0.0000 O   0  0  0  0  0  0  0  0  0  0  0  0
    8.2416   -4.2521    0.0000 O   0  0  0  0  0  0  0  0  0  0  0  0
    2.9511   -4.3543    0.0000 O   0  0  0  0  0  0  0  0  0  0  0  0
    3.4863   -2.7070    0.0000 O   0  0  0  0  0  0  0  0  0  0  0  0
   10.5369   -2.3261    0.0000 C   0  0  3  0  0  0  0  0  0  0  0  0
    9.7279   -2.9139    0.0000 C   0  0  3  0  0  0  0  0  0  0  0  0
   11.3459   -2.9139    0.0000 C   0  0  3  0  0  0  0  0  0  0  0  0
   11.0369   -3.8649    0.0000 C   0  0  0  0  0  0  0  0  0  0  0  0
   10.0369   -3.8649    0.0000 C   0  0  0  0  0  0  0  0  0  0  0  0
    8.7768   -2.6048    0.0000 C   0  0  0  0  0  0  0  0  0  0  0  0
   10.5369   -1.3261    0.0000 C   0  0  0  0  0  0  0  0  0  0  0  0
    8.0337   -3.2740    0.0000 C   0  0  0  0  0  0  0  0  0  0  0  0
   11.4029   -0.8261    0.0000 C   0  0  0  0  0  0  0  0  0  0  0  0
   11.4029    0.1739    0.0000 C   0  0  3  0  0  0  0  0  0  0  0  0
   12.2689    0.6739    0.0000 C   0  0  0  0  0  0  0  0  0  0  0  0
   12.2689    1.6739    0.0000 C   0  0  3  0  0  0  0  0  0  0  0  0
    7.0826   -2.9650    0.0000 C   0  0  0  0  0  0  0  0  0  0  0  0
   13.1350    2.1739    0.0000 C   0  0  0  0  0  0  0  0  0  0  0  0
    6.3395   -3.6341    0.0000 C   0  0  0  0  0  0  0  0  0  0  0  0
   13.1350    3.1739    0.0000 C   0  0  0  0  0  0  0  0  0  0  0  0
   11.4029    2.1739    0.0000 C   0  0  0  0  0  0  0  0  0  0  0  0
    5.3884   -3.3251    0.0000 C   0  0  0  0  0  0  0  0  0  0  0  0
   14.0010    3.6739    0.0000 C   0  0  0  0  0  0  0  0  0  0  0  0
    4.6453   -3.9942    0.0000 C   0  0  0  0  0  0  0  0  0  0  0  0
   14.0010    4.6739    0.0000 C   0  0  0  0  0  0  0  0  0  0  0  0
    3.6942   -3.6852    0.0000 C   0  0  0  0  0  0  0  0  0  0  0  0
    2.0000   -4.0453    0.0000 C   0  0  0  0  0  0  0  0  0  0  0  0
    9.7795   -1.9402    0.0000 H   0  0  0  0  0  0  0  0  0  0  0  0
    9.5949   -2.0743    0.0000 H   0  0  0  0  0  0  0  0  0  0  0  0
   11.4789   -2.0743    0.0000 H   0  0  0  0  0  0  0  0  0  0  0  0
   10.9721   -4.4815    0.0000 H   0  0  0  0  0  0  0  0  0  0  0  0
   11.6433   -3.9938    0.0000 H   0  0  0  0  0  0  0  0  0  0  0  0
    9.0679   -2.0574    0.0000 H   0  0  0  0  0  0  0  0  0  0  0  0
    8.2882   -2.2231    0.0000 H   0  0  0  0  0  0  0  0  0  0  0  0
    9.9999   -1.0161    0.0000 H   0  0  0  0  0  0  0  0  0  0  0  0
   11.9398   -1.1361    0.0000 H   0  0  0  0  0  0  0  0  0  0  0  0
   11.4029    1.0239    0.0000 H   0  0  0  0  0  0  0  0  0  0  0  0
   12.4810    0.0913    0.0000 H   0  0  0  0  0  0  0  0  0  0  0  0
   12.8795    0.7816    0.0000 H   0  0  0  0  0  0  0  0  0  0  0  0
   11.5328    1.2489    0.0000 H   0  0  0  0  0  0  0  0  0  0  0  0
   12.7577   -3.0197    0.0000 H   0  0  0  0  0  0  0  0  0  0  0  0
    7.3737   -2.4175    0.0000 H   0  0  0  0  0  0  0  0  0  0  0  0
    6.5940   -2.5832    0.0000 H   0  0  0  0  0  0  0  0  0  0  0  0
   13.3470    1.5913    0.0000 H   0  0  0  0  0  0  0  0  0  0  0  0
   13.7455    2.2816    0.0000 H   0  0  0  0  0  0  0  0  0  0  0  0
    6.0484   -4.1815    0.0000 H   0  0  0  0  0  0  0  0  0  0  0  0
    6.8280   -4.0158    0.0000 H   0  0  0  0  0  0  0  0  0  0  0  0
   12.9229    3.7565    0.0000 H   0  0  0  0  0  0  0  0  0  0  0  0
   12.5244    3.0663    0.0000 H   0  0  0  0  0  0  0  0  0  0  0  0
   11.7129    2.7109    0.0000 H   0  0  0  0  0  0  0  0  0  0  0  0
   10.8660    2.4839    0.0000 H   0  0  0  0  0  0  0  0  0  0  0  0
   11.0929    1.6370    0.0000 H   0  0  0  0  0  0  0  0  0  0  0  0
    5.6795   -2.7776    0.0000 H   0  0  0  0  0  0  0  0  0  0  0  0
    4.8998   -2.9434    0.0000 H   0  0  0  0  0  0  0  0  0  0  0  0
   10.5369    1.2939    0.0000 H   0  0  0  0  0  0  0  0  0  0  0  0
   14.2130    3.0913    0.0000 H   0  0  0  0  0  0  0  0  0  0  0  0
   14.6116    3.7816    0.0000 H   0  0  0  0  0  0  0  0  0  0  0  0
    4.3542   -4.5416    0.0000 H   0  0  0  0  0  0  0  0  0  0  0  0
    5.1338   -4.3759    0.0000 H   0  0  0  0  0  0  0  0  0  0  0  0
   14.6210    4.6739    0.0000 H   0  0  0  0  0  0  0  0  0  0  0  0
   14.0010    5.2939    0.0000 H   0  0  0  0  0  0  0  0  0  0  0  0
   13.3810    4.6739    0.0000 H   0  0  0  0  0  0  0  0  0  0  0  0
    2.1916   -3.4556    0.0000 H   0  0  0  0  0  0  0  0  0  0  0  0
    1.4103   -3.8537    0.0000 H   0  0  0  0  0  0  0  0  0  0  0  0
    1.8084   -4.6350    0.0000 H   0  0  0  0  0  0  0  0  0  0  0  0
  1  9  1  0  0  0  0
  1 43  1  0  0  0  0
  2 11  2  0  0  0  0
  3 16  1  0  0  0  0
  3 57  1  0  0  0  0
  4 14  2  0  0  0  0
  5 28  1  0  0  0  0
  5 29  1  0  0  0  0
  6 28  2  0  0  0  0
  7  8  1  0  0  0  0
  7  9  1  0  0  0  0
  7 13  1  0  0  0  0
  7 30  1  0  0  0  0
  8 11  1  0  0  0  0
  8 12  1  0  0  0  0
  8 31  1  0  0  0  0
  9 10  1  0  0  0  0
  9 32  1  0  0  0  0
 10 11  1  0  0  0  0
 10 33  1  0  0  0  0
 10 34  1  0  0  0  0
 12 14  1  0  0  0  0
 12 35  1  0  0  0  0
 12 36  1  0  0  0  0
 13 15  2  3  0  0  0
 13 37  1  0  0  0  0
 14 19  1  0  0  0  0
 15 16  1  0  0  0  0
 15 38  1  0  0  0  0
 16 17  1  0  0  0  0
 16 39  1  0  0  0  0
 17 18  1  0  0  0  0
 17 40  1  0  0  0  0
 17 41  1  0  0  0  0
 18 20  1  0  0  0  0
 18 23  1  0  0  0  0
 18 42  1  0  0  0  0
 19 21  1  0  0  0  0
 19 44  1  0  0  0  0
 19 45  1  0  0  0  0
 20 22  1  0  0  0  0
 20 46  1  0  0  0  0
 20 47  1  0  0  0  0
 21 24  1  0  0  0  0
 21 48  1  0  0  0  0
 21 49  1  0  0  0  0
 22 25  1  0  0  0  0
 22 50  1  0  0  0  0
 22 51  1  0  0  0  0
 23 52  1  0  0  0  0
 23 53  1  0  0  0  0
 23 54  1  0  0  0  0
 24 26  1  0  0  0  0
 24 55  1  0  0  0  0
 24 56  1  0  0  0  0
 25 27  1  0  0  0  0
 25 58  1  0  0  0  0
 25 59  1  0  0  0  0
 26 28  1  0  0  0  0
 26 60  1  0  0  0  0
 26 61  1  0  0  0  0
 27 62  1  0  0  0  0
 27 63  1  0  0  0  0
 27 64  1  0  0  0  0
 29 65  1  0  0  0  0
 29 66  1  0  0  0  0
 29 67  1  0  0  0  0
M  END
> <PUBCHEM_COMPOUND_CID>
4600

> <PUBCHEM_COMPOUND_CANONICALIZED>
1

> <PUBCHEM_CACTVS_COMPLEXITY>
556

> <PUBCHEM_CACTVS_HBOND_ACCEPTOR>
6

> <PUBCHEM_CACTVS_HBOND_DONOR>
2

> <PUBCHEM_CACTVS_ROTATABLE_BOND>
15

> <PUBCHEM_CACTVS_SUBSKEYS>
AAADcfB4OAAAAAAAAAAAAAAAAAAAAYAAAAAAAAAAAAAAAAAAAAAAGgAACAAADRSggAICCAAABgCIAKDSCAAAAAAgAAAICAEAAAgAFBYAAQAAUAAE4AAIEAOLzODOgAAAAAAAAAAAAAAAAAAAAIAADAAAAA==

> <PUBCHEM_IUPAC_OPENEYE_NAME>
methyl 7-[3-hydroxy-2-(3-hydroxy-5-methyl-non-1-enyl)-5-oxo-cyclopentyl]-6-oxo-heptanoate

> <PUBCHEM_IUPAC_CAS_NAME>
7-[3-hydroxy-2-(3-hydroxy-5-methylnon-1-enyl)-5-oxocyclopentyl]-6-oxoheptanoic acid methyl ester

> <PUBCHEM_IUPAC_NAME>
methyl 7-[3-hydroxy-2-(3-hydroxy-5-methylnon-1-enyl)-5-oxocyclopentyl]-6-oxoheptanoate

> <PUBCHEM_IUPAC_SYSTEMATIC_NAME>
methyl 7-[2-(5-methyl-3-oxidanyl-non-1-enyl)-3-oxidanyl-5-oxidanylidene-cyclopentyl]-6-oxidanylidene-heptanoate

> <PUBCHEM_IUPAC_TRADITIONAL_NAME>
7-[3-hydroxy-2-(3-hydroxy-5-methyl-non-1-enyl)-5-keto-cyclopentyl]-6-keto-enanthic acid methyl ester

> <PUBCHEM_IUPAC_INCHI>
InChI=1S/C23H38O6/c1-4-5-8-16(2)13-18(25)11-12-19-20(22(27)15-21(19)26)14-17(24)9-6-7-10-23(28)29-3/h11-12,16,18-21,25-26H,4-10,13-15H2,1-3H3

> <PUBCHEM_IUPAC_INCHIKEY>
BBRBUTFBTUFFBU-UHFFFAOYSA-N

> <PUBCHEM_XLOGP3_AA>
2.5

> <PUBCHEM_EXACT_MASS>
410.266839

> <PUBCHEM_MOLECULAR_FORMULA>
C23H38O6

> <PUBCHEM_MOLECULAR_WEIGHT>
410.54422

> <PUBCHEM_OPENEYE_CAN_SMILES>
CCCCC(C)CC(C=CC1C(CC(=O)C1CC(=O)CCCCC(=O)OC)O)O

> <PUBCHEM_OPENEYE_ISO_SMILES>
CCCCC(C)CC(C=CC1C(CC(=O)C1CC(=O)CCCCC(=O)OC)O)O

> <PUBCHEM_CACTVS_TPSA>
101

> <PUBCHEM_MONOISOTOPIC_WEIGHT>
410.266839

> <PUBCHEM_TOTAL_CHARGE>
0

> <PUBCHEM_HEAVY_ATOM_COUNT>
29

> <PUBCHEM_ATOM_DEF_STEREO_COUNT>
0

> <PUBCHEM_ATOM_UDEF_STEREO_COUNT>
5

> <PUBCHEM_BOND_DEF_STEREO_COUNT>
0

> <PUBCHEM_BOND_UDEF_STEREO_COUNT>
1

> <PUBCHEM_ISOTOPIC_ATOM_COUNT>
0

> <PUBCHEM_COMPONENT_COUNT>
1

> <PUBCHEM_CACTVS_TAUTO_COUNT>
9

> <PUBCHEM_COORDINATE_TYPE>
1
5
255

> <PUBCHEM_BONDANNOTATIONS>
13  15  1
16  39  3
18  42  3
7  30  3
8  31  3
9  32  3

$$$$

