47205680
  -OEChem-06241222593D

 39 39  0     0  0  0  0  0  0999 V2000
    3.4344    2.3640    0.9159 O   0  0  0  0  0  0  0  0  0  0  0  0
   -2.7612    0.5782   -1.2641 O   0  0  0  0  0  0  0  0  0  0  0  0
   -0.8640   -0.8798    1.4375 O   0  0  0  0  0  0  0  0  0  0  0  0
    0.3811   -2.3661    0.1561 N   0  0  0  0  0  0  0  0  0  0  0  0
   -3.1113   -1.3207    0.0244 N   0  0  0  0  0  0  0  0  0  0  0  0
    1.6467   -2.1922    0.8324 C   0  0  0  0  0  0  0  0  0  0  0  0
   -4.7214    0.4608    0.1521 C   0  0  0  0  0  0  0  0  0  0  0  0
    2.4657   -1.0942    0.2180 C   0  0  0  0  0  0  0  0  0  0  0  0
   -5.0887    1.8503   -0.3603 C   0  0  0  0  0  0  0  0  0  0  0  0
   -1.9282   -2.0305   -0.4009 C   0  0  0  0  0  0  0  0  0  0  0  0
   -3.4290   -0.0574   -0.4527 C   0  0  0  0  0  0  0  0  0  0  0  0
   -0.7750   -1.6903    0.5188 C   0  0  0  0  0  0  0  0  0  0  0  0
    2.5717    0.1396    0.8602 C   0  0  0  0  0  0  0  0  0  0  0  0
    3.1202   -1.3073   -0.9954 C   0  0  0  0  0  0  0  0  0  0  0  0
   -6.3673    2.3619    0.2829 C   0  0  0  0  0  0  0  0  0  0  0  0
    3.3321    1.1601    0.2894 C   0  0  0  0  0  0  0  0  0  0  0  0
    3.8804   -0.2867   -1.5664 C   0  0  0  0  0  0  0  0  0  0  0  0
    3.9867    0.9469   -0.9240 C   0  0  0  0  0  0  0  0  0  0  0  0
    4.2269    3.3635    0.2764 C   0  0  0  0  0  0  0  0  0  0  0  0
    1.4617   -1.9949    1.8947 H   0  0  0  0  0  0  0  0  0  0  0  0
    2.1889   -3.1428    0.7724 H   0  0  0  0  0  0  0  0  0  0  0  0
   -5.5217   -0.2501   -0.0858 H   0  0  0  0  0  0  0  0  0  0  0  0
   -4.6027    0.4829    1.2421 H   0  0  0  0  0  0  0  0  0  0  0  0
   -5.2147    1.8256   -1.4493 H   0  0  0  0  0  0  0  0  0  0  0  0
   -4.2738    2.5539   -0.1516 H   0  0  0  0  0  0  0  0  0  0  0  0
   -2.1395   -3.1025   -0.3451 H   0  0  0  0  0  0  0  0  0  0  0  0
   -1.6729   -1.7560   -1.4293 H   0  0  0  0  0  0  0  0  0  0  0  0
    0.3542   -2.9998   -0.6378 H   0  0  0  0  0  0  0  0  0  0  0  0
   -3.7158   -1.7642    0.7100 H   0  0  0  0  0  0  0  0  0  0  0  0
    2.0632    0.3143    1.8052 H   0  0  0  0  0  0  0  0  0  0  0  0
    3.0448   -2.2642   -1.5051 H   0  0  0  0  0  0  0  0  0  0  0  0
   -6.2586    2.4328    1.3698 H   0  0  0  0  0  0  0  0  0  0  0  0
   -6.6119    3.3578   -0.0997 H   0  0  0  0  0  0  0  0  0  0  0  0
   -7.2093    1.6976    0.0639 H   0  0  0  0  0  0  0  0  0  0  0  0
    4.3894   -0.4537   -2.5113 H   0  0  0  0  0  0  0  0  0  0  0  0
    4.5931    1.6952   -1.4228 H   0  0  0  0  0  0  0  0  0  0  0  0
    4.1976    4.2547    0.9118 H   0  0  0  0  0  0  0  0  0  0  0  0
    3.8076    3.6491   -0.6944 H   0  0  0  0  0  0  0  0  0  0  0  0
    5.2761    3.0583    0.2019 H   0  0  0  0  0  0  0  0  0  0  0  0
  1 16  1  0  0  0  0
  1 19  1  0  0  0  0
  2 11  2  0  0  0  0
  3 12  2  0  0  0  0
  4  6  1  0  0  0  0
  4 12  1  0  0  0  0
  4 28  1  0  0  0  0
  5 10  1  0  0  0  0
  5 11  1  0  0  0  0
  5 29  1  0  0  0  0
  6  8  1  0  0  0  0
  6 20  1  0  0  0  0
  6 21  1  0  0  0  0
  7  9  1  0  0  0  0
  7 11  1  0  0  0  0
  7 22  1  0  0  0  0
  7 23  1  0  0  0  0
  8 13  2  0  0  0  0
  8 14  1  0  0  0  0
  9 15  1  0  0  0  0
  9 24  1  0  0  0  0
  9 25  1  0  0  0  0
 10 12  1  0  0  0  0
 10 26  1  0  0  0  0
 10 27  1  0  0  0  0
 13 16  1  0  0  0  0
 13 30  1  0  0  0  0
 14 17  2  0  0  0  0
 14 31  1  0  0  0  0
 15 32  1  0  0  0  0
 15 33  1  0  0  0  0
 15 34  1  0  0  0  0
 16 18  2  0  0  0  0
 17 18  1  0  0  0  0
 17 35  1  0  0  0  0
 18 36  1  0  0  0  0
 19 37  1  0  0  0  0
 19 38  1  0  0  0  0
 19 39  1  0  0  0  0
M  END
> <PUBCHEM_COMPOUND_CID>
47205680

> <PUBCHEM_CONFORMER_RMSD>
1.2

> <PUBCHEM_CONFORMER_DIVERSEORDER>
1
66
32
35
3
49
20
36
28
22
5
12
42
58
50
10
18
41
51
54
26
9
59
56
57
24
23
19
53
45
38
7
11
60
29
46
61
48
17
64
16
67
55
14
52
40
43
30
27
4
44
15
37
39
47
62
21
63
25
65
2
34
33
31
13
8
6

> <PUBCHEM_MMFF94_PARTIAL_CHARGES>
23
1 -0.36
10 0.36
11 0.57
12 0.57
13 -0.15
14 -0.15
16 0.08
17 -0.15
18 -0.15
19 0.28
2 -0.57
28 0.37
29 0.37
3 -0.57
30 0.15
31 0.15
35 0.15
36 0.15
4 -0.73
5 -0.73
6 0.44
7 0.06
8 -0.14

> <PUBCHEM_EFFECTIVE_ROTOR_COUNT>
9

> <PUBCHEM_PHARMACOPHORE_FEATURES>
7
1 1 acceptor
1 15 hydrophobe
1 2 acceptor
1 3 acceptor
1 4 donor
1 5 donor
6 8 13 14 16 17 18 rings

> <PUBCHEM_HEAVY_ATOM_COUNT>
19

> <PUBCHEM_ATOM_DEF_STEREO_COUNT>
0

> <PUBCHEM_ATOM_UDEF_STEREO_COUNT>
0

> <PUBCHEM_BOND_DEF_STEREO_COUNT>
0

> <PUBCHEM_BOND_UDEF_STEREO_COUNT>
0

> <PUBCHEM_ISOTOPIC_ATOM_COUNT>
0

> <PUBCHEM_COMPONENT_COUNT>
1

> <PUBCHEM_CACTVS_TAUTO_COUNT>
4

> <PUBCHEM_CONFORMER_ID>
02D04D3000000001

> <PUBCHEM_MMFF94_ENERGY>
39.5917

> <PUBCHEM_FEATURE_SELFOVERLAP>
35.52

> <PUBCHEM_SHAPE_FINGERPRINT>
10498660 4 18411418384348722145
11069576 57 14924771458708410220
11720765 8 18042397118740160550
11796584 16 6771859633415465807
12363563 72 7493288862825570263
13103583 49 12030694105047688758
13878862 14 17771648981553759333
13965767 371 17917726685968391302
1420 369 9295281751395968173
14251764 30 11958635424826770656
14251764 38 18123753045726726876
14251764 75 18409724028678768089
14341114 328 16343696621621898817
14429115 67 9295280669122446161
14528608 73 18409453617964345831
14848178 5 8934995954539051001
14848178 96 18410014325296381761
15210252 30 18343577434937456828
15295992 7 18059855099097745538
15342168 16 18340207500933856047
15342816 4 5689596065518473790
17834072 32 18410575093770004231
17868525 174 17126222555887667787
17959699 21 18335420140679062691
1798214 55 18342741792892873254
18186145 218 18187919552191511706
18335252 114 18193563495879608919
193927 3 7348883412791824527
19752476 56 18334861610547805656
20621476 91 16343404156562616377
21734292 116 18410577318590262297
21864079 5 18411424968586542387
22224240 67 10879120520467240974
22956985 138 10216946402654243510
23503958 8 10519443916743060358
3009799 131 18187355542288172566
312425 54 11599733899928324541
312425 83 17894628128116429478
316301 35 9078576784280354916
3472631 163 18334296491936457221
34797466 226 18113333133666172863
4463277 69 7348880079702257827
5104073 3 18131355211044690347
56616090 13 18412827997422141139
633830 44 18335427867510033183
76465 3 8358251536778291907
7808743 9 17844798192927167620
960060 61 14057011515821674931

> <PUBCHEM_SHAPE_MULTIPOLES>
363.44
12.58
3.3
1.16
16.24
1.64
0.15
11.75
1.6
-1.34
-0.65
-0.81
-0.09
0.58

> <PUBCHEM_SHAPE_SELFOVERLAP>
730.277

> <PUBCHEM_SHAPE_VOLUME>
212.9

> <PUBCHEM_COORDINATE_TYPE>
2
5
10

$$$$

