9056
  -OEChem-06261203212D

 42 46  0     0  0  0  0  0  0999 V2000
    3.8001   -2.0415    0.0000 C   0  0  0  0  0  0  0  0  0  0  0  0
    4.7520   -2.5621    0.0000 C   0  0  0  0  0  0  0  0  0  0  0  0
    2.9021   -2.5693    0.0000 C   0  0  0  0  0  0  0  0  0  0  0  0
    3.7841   -1.0000    0.0000 C   0  0  0  0  0  0  0  0  0  0  0  0
    4.7688   -3.6470    0.0000 C   0  0  0  0  0  0  0  0  0  0  0  0
    2.8937   -3.6542    0.0000 C   0  0  0  0  0  0  0  0  0  0  0  0
    3.8334   -4.1967    0.0000 C   0  0  0  0  0  0  0  0  0  0  0  0
    4.6501    0.5000    0.0000 C   0  0  0  0  0  0  0  0  0  0  0  0
    2.9180   -0.5000    0.0000 C   0  0  0  0  0  0  0  0  0  0  0  0
    3.7841    1.0000    0.0000 C   0  0  0  0  0  0  0  0  0  0  0  0
    5.5601    1.0068    0.0000 C   0  0  0  0  0  0  0  0  0  0  0  0
    4.6501   -0.5000    0.0000 C   0  0  0  0  0  0  0  0  0  0  0  0
    5.5681    2.0484    0.0000 C   0  0  0  0  0  0  0  0  0  0  0  0
    2.9180    0.5000    0.0000 C   0  0  0  0  0  0  0  0  0  0  0  0
    3.7680    2.0415    0.0000 C   0  0  0  0  0  0  0  0  0  0  0  0
    2.0000   -2.0484    0.0000 C   0  0  0  0  0  0  0  0  0  0  0  0
    4.6660    2.5693    0.0000 C   0  0  0  0  0  0  0  0  0  0  0  0
    2.0080   -1.0068    0.0000 C   0  0  0  0  0  0  0  0  0  0  0  0
    2.8161    2.5621    0.0000 C   0  0  0  0  0  0  0  0  0  0  0  0
    4.6744    3.6542    0.0000 C   0  0  0  0  0  0  0  0  0  0  0  0
    2.7993    3.6470    0.0000 C   0  0  0  0  0  0  0  0  0  0  0  0
    3.7348    4.1967    0.0000 C   0  0  0  0  0  0  0  0  0  0  0  0
    5.3645   -2.6588    0.0000 H   0  0  0  0  0  0  0  0  0  0  0  0
    4.9521   -1.9753    0.0000 H   0  0  0  0  0  0  0  0  0  0  0  0
    4.9868   -4.2274    0.0000 H   0  0  0  0  0  0  0  0  0  0  0  0
    5.3779   -3.5315    0.0000 H   0  0  0  0  0  0  0  0  0  0  0  0
    2.2837   -3.5434    0.0000 H   0  0  0  0  0  0  0  0  0  0  0  0
    2.6802   -4.2363    0.0000 H   0  0  0  0  0  0  0  0  0  0  0  0
    3.4360   -4.6727    0.0000 H   0  0  0  0  0  0  0  0  0  0  0  0
    4.2343   -4.6696    0.0000 H   0  0  0  0  0  0  0  0  0  0  0  0
    5.7646    0.4216    0.0000 H   0  0  0  0  0  0  0  0  0  0  0  0
    6.1717    1.1082    0.0000 H   0  0  0  0  0  0  0  0  0  0  0  0
    5.1870   -0.8100    0.0000 H   0  0  0  0  0  0  0  0  0  0  0  0
    6.1781    1.9376    0.0000 H   0  0  0  0  0  0  0  0  0  0  0  0
    5.7817    2.6305    0.0000 H   0  0  0  0  0  0  0  0  0  0  0  0
    2.3811    0.8100    0.0000 H   0  0  0  0  0  0  0  0  0  0  0  0
    1.4619   -2.3564    0.0000 H   0  0  0  0  0  0  0  0  0  0  0  0
    1.4747   -0.6907    0.0000 H   0  0  0  0  0  0  0  0  0  0  0  0
    2.2852    2.2418    0.0000 H   0  0  0  0  0  0  0  0  0  0  0  0
    5.2125    3.9622    0.0000 H   0  0  0  0  0  0  0  0  0  0  0  0
    2.2589    3.9508    0.0000 H   0  0  0  0  0  0  0  0  0  0  0  0
    3.7324    4.8167    0.0000 H   0  0  0  0  0  0  0  0  0  0  0  0
  1  2  1  0  0  0  0
  1  3  2  0  0  0  0
  1  4  1  0  0  0  0
  2  5  1  0  0  0  0
  2 23  1  0  0  0  0
  2 24  1  0  0  0  0
  3  6  1  0  0  0  0
  3 16  1  0  0  0  0
  4  9  1  0  0  0  0
  4 12  2  0  0  0  0
  5  7  1  0  0  0  0
  5 25  1  0  0  0  0
  5 26  1  0  0  0  0
  6  7  1  0  0  0  0
  6 27  1  0  0  0  0
  6 28  1  0  0  0  0
  7 29  1  0  0  0  0
  7 30  1  0  0  0  0
  8 10  2  0  0  0  0
  8 11  1  0  0  0  0
  8 12  1  0  0  0  0
  9 14  2  0  0  0  0
  9 18  1  0  0  0  0
 10 14  1  0  0  0  0
 10 15  1  0  0  0  0
 11 13  1  0  0  0  0
 11 31  1  0  0  0  0
 11 32  1  0  0  0  0
 12 33  1  0  0  0  0
 13 17  1  0  0  0  0
 13 34  1  0  0  0  0
 13 35  1  0  0  0  0
 14 36  1  0  0  0  0
 15 17  1  0  0  0  0
 15 19  2  0  0  0  0
 16 18  2  0  0  0  0
 16 37  1  0  0  0  0
 17 20  2  0  0  0  0
 18 38  1  0  0  0  0
 19 21  1  0  0  0  0
 19 39  1  0  0  0  0
 20 22  1  0  0  0  0
 20 40  1  0  0  0  0
 21 22  2  0  0  0  0
 21 41  1  0  0  0  0
 22 42  1  0  0  0  0
M  END
> <PUBCHEM_COMPOUND_CID>
9056

> <PUBCHEM_COMPOUND_CANONICALIZED>
1

> <PUBCHEM_CACTVS_COMPLEXITY>
399

> <PUBCHEM_CACTVS_HBOND_ACCEPTOR>
0

> <PUBCHEM_CACTVS_HBOND_DONOR>
0

> <PUBCHEM_CACTVS_ROTATABLE_BOND>
0

> <PUBCHEM_CACTVS_SUBSKEYS>
AAADceB4AAAAAAAAAAAAAAAAAAAAAAAAAAAwYMGDAAAAAADBVAAAGAAAAAAADACAGAAwAMAAAACAAiBCAAACAAAgAAAIiAAAAIgIICKAERCAIAAggAAIiAcAgMAOwAACAAAQAACAAAQAACAAAAAAAAAAAA==

> <PUBCHEM_IUPAC_OPENEYE_NAME>
5,6,8,9,10,11-hexahydronaphtho[1,2-b]phenanthrene

> <PUBCHEM_IUPAC_CAS_NAME>
5,6,8,9,10,11-hexahydronaphtho[1,2-b]phenanthrene

> <PUBCHEM_IUPAC_NAME>
5,6,8,9,10,11-hexahydronaphtho[1,2-b]phenanthrene

> <PUBCHEM_IUPAC_SYSTEMATIC_NAME>
5,6,8,9,10,11-hexahydronaphtho[1,2-b]phenanthrene

> <PUBCHEM_IUPAC_TRADITIONAL_NAME>
5,6,8,9,10,11-hexahydronaphtho[1,2-b]phenanthrene

> <PUBCHEM_IUPAC_INCHI>
InChI=1S/C22H20/c1-3-7-19-15(5-1)9-11-17-14-22-18(13-21(17)19)12-10-16-6-2-4-8-20(16)22/h1,3,5,7,10,12-14H,2,4,6,8-9,11H2

> <PUBCHEM_IUPAC_INCHIKEY>
OFYYOTQOGCICNW-UHFFFAOYSA-N

> <PUBCHEM_XLOGP3_AA>
6.5

> <PUBCHEM_EXACT_MASS>
284.156501

> <PUBCHEM_MOLECULAR_FORMULA>
C22H20

> <PUBCHEM_MOLECULAR_WEIGHT>
284.3942

> <PUBCHEM_OPENEYE_CAN_SMILES>
C1CCC2=C(C1)C=CC3=CC4=C(CCC5=CC=CC=C54)C=C23

> <PUBCHEM_OPENEYE_ISO_SMILES>
C1CCC2=C(C1)C=CC3=CC4=C(CCC5=CC=CC=C54)C=C23

> <PUBCHEM_CACTVS_TPSA>
0

> <PUBCHEM_MONOISOTOPIC_WEIGHT>
284.156501

> <PUBCHEM_TOTAL_CHARGE>
0

> <PUBCHEM_HEAVY_ATOM_COUNT>
22

> <PUBCHEM_ATOM_DEF_STEREO_COUNT>
0

> <PUBCHEM_ATOM_UDEF_STEREO_COUNT>
0

> <PUBCHEM_BOND_DEF_STEREO_COUNT>
0

> <PUBCHEM_BOND_UDEF_STEREO_COUNT>
0

> <PUBCHEM_ISOTOPIC_ATOM_COUNT>
0

> <PUBCHEM_COMPONENT_COUNT>
1

> <PUBCHEM_CACTVS_TAUTO_COUNT>
1

> <PUBCHEM_COORDINATE_TYPE>
1
5
255

> <PUBCHEM_BONDANNOTATIONS>
1  3  8
1  4  8
10  14  8
15  17  8
15  19  8
16  18  8
17  20  8
19  21  8
20  22  8
21  22  8
3  16  8
4  12  8
4  9  8
8  10  8
8  12  8
9  14  8
9  18  8

$$$$

