4139
  -OEChem-06251223553D

 38 40  0     0  0  0  0  0  0999 V2000
   -0.0068   -1.5248   -0.0665 S   0  0  0  0  0  0  0  0  0  0  0  0
   -4.9874   -0.6754   -0.0415 N   0  3  0  0  0  0  0  0  0  0  0  0
    5.0658   -0.6703   -0.0232 N   0  0  0  0  0  0  0  0  0  0  0  0
   -0.0519    1.6424    0.0741 N   0  0  0  0  0  0  0  0  0  0  0  0
   -1.3751   -0.4797   -0.0229 C   0  0  0  0  0  0  0  0  0  0  0  0
    1.3545   -0.3909   -0.0146 C   0  0  0  0  0  0  0  0  0  0  0  0
   -1.1741    0.9951    0.0433 C   0  0  0  0  0  0  0  0  0  0  0  0
    1.1889    0.9956    0.0470 C   0  0  0  0  0  0  0  0  0  0  0  0
   -3.8132   -0.1564   -0.0134 C   0  0  0  0  0  0  0  0  0  0  0  0
    3.7732   -0.1081    0.0013 C   0  0  0  0  0  0  0  0  0  0  0  0
   -2.6075   -1.0066   -0.0489 C   0  0  0  0  0  0  0  0  0  0  0  0
    2.6504   -0.9339   -0.0370 C   0  0  0  0  0  0  0  0  0  0  0  0
   -2.4101    1.8260    0.0787 C   0  0  0  0  0  0  0  0  0  0  0  0
    2.3299    1.8145    0.0849 C   0  0  0  0  0  0  0  0  0  0  0  0
   -3.6360    1.3017    0.0525 C   0  0  0  0  0  0  0  0  0  0  0  0
    3.6128    1.2695    0.0624 C   0  0  0  0  0  0  0  0  0  0  0  0
   -5.1847   -2.1463   -0.1081 C   0  0  0  0  0  0  0  0  0  0  0  0
   -6.2100    0.1677   -0.0087 C   0  0  0  0  0  0  0  0  0  0  0  0
    6.1714    0.0561   -0.6161 C   0  0  0  0  0  0  0  0  0  0  0  0
    5.3100   -1.9764    0.5567 C   0  0  0  0  0  0  0  0  0  0  0  0
   -2.7154   -2.0853   -0.0973 H   0  0  0  0  0  0  0  0  0  0  0  0
    2.7674   -2.0142   -0.0983 H   0  0  0  0  0  0  0  0  0  0  0  0
   -2.2828    2.9033    0.1275 H   0  0  0  0  0  0  0  0  0  0  0  0
    2.2200    2.8961    0.1355 H   0  0  0  0  0  0  0  0  0  0  0  0
   -4.4809    1.9788    0.0815 H   0  0  0  0  0  0  0  0  0  0  0  0
    4.4602    1.9473    0.1054 H   0  0  0  0  0  0  0  0  0  0  0  0
   -4.7433   -2.6060    0.7809 H   0  0  0  0  0  0  0  0  0  0  0  0
   -4.7387   -2.5245   -1.0324 H   0  0  0  0  0  0  0  0  0  0  0  0
   -6.2532   -2.3785   -0.1211 H   0  0  0  0  0  0  0  0  0  0  0  0
   -6.2167    0.8199   -0.8868 H   0  0  0  0  0  0  0  0  0  0  0  0
   -6.2252    0.7367    0.9253 H   0  0  0  0  0  0  0  0  0  0  0  0
   -7.1008   -0.4656   -0.0421 H   0  0  0  0  0  0  0  0  0  0  0  0
    6.5551    0.8121    0.0769 H   0  0  0  0  0  0  0  0  0  0  0  0
    5.8755    0.5438   -1.5518 H   0  0  0  0  0  0  0  0  0  0  0  0
    7.0002   -0.6176   -0.8611 H   0  0  0  0  0  0  0  0  0  0  0  0
    4.7795   -2.0989    1.5079 H   0  0  0  0  0  0  0  0  0  0  0  0
    6.3751   -2.1211    0.7697 H   0  0  0  0  0  0  0  0  0  0  0  0
    5.0014   -2.7703   -0.1315 H   0  0  0  0  0  0  0  0  0  0  0  0
  1  5  1  0  0  0  0
  1  6  1  0  0  0  0
  2  9  2  0  0  0  0
  2 17  1  0  0  0  0
  2 18  1  0  0  0  0
  3 10  1  0  0  0  0
  3 19  1  0  0  0  0
  3 20  1  0  0  0  0
  4  7  2  0  0  0  0
  4  8  1  0  0  0  0
  5  7  1  0  0  0  0
  5 11  2  0  0  0  0
  6  8  2  0  0  0  0
  6 12  1  0  0  0  0
  7 13  1  0  0  0  0
  8 14  1  0  0  0  0
  9 11  1  0  0  0  0
  9 15  1  0  0  0  0
 10 12  2  0  0  0  0
 10 16  1  0  0  0  0
 11 21  1  0  0  0  0
 12 22  1  0  0  0  0
 13 15  2  0  0  0  0
 13 23  1  0  0  0  0
 14 16  2  0  0  0  0
 14 24  1  0  0  0  0
 15 25  1  0  0  0  0
 16 26  1  0  0  0  0
 17 27  1  0  0  0  0
 17 28  1  0  0  0  0
 17 29  1  0  0  0  0
 18 30  1  0  0  0  0
 18 31  1  0  0  0  0
 18 32  1  0  0  0  0
 19 33  1  0  0  0  0
 19 34  1  0  0  0  0
 19 35  1  0  0  0  0
 20 36  1  0  0  0  0
 20 37  1  0  0  0  0
 20 38  1  0  0  0  0
M  CHG  1   2   1
M  END
> <PUBCHEM_COMPOUND_CID>
4139

> <PUBCHEM_CONFORMER_RMSD>
0.6

> <PUBCHEM_CONFORMER_DIVERSEORDER>
1

> <PUBCHEM_MMFF94_PARTIAL_CHARGES>
26
1 -0.2
10 0.1
11 -0.14
12 -0.15
13 -0.14
14 -0.15
15 -0.14
16 -0.15
17 0.35
18 0.35
19 0.37
2 -0.09
20 0.37
21 0.15
22 0.15
23 0.15
24 0.15
25 0.15
26 0.15
3 -0.84
4 -0.63
5 0.12
6 0.1
7 0.42
8 0.18
9 0.37

> <PUBCHEM_EFFECTIVE_ROTOR_COUNT>
1

> <PUBCHEM_PHARMACOPHORE_FEATURES>
5
1 3 cation
1 4 acceptor
6 1 4 5 6 7 8 rings
6 5 7 9 11 13 15 rings
6 6 8 10 12 14 16 rings

> <PUBCHEM_HEAVY_ATOM_COUNT>
20

> <PUBCHEM_ATOM_DEF_STEREO_COUNT>
0

> <PUBCHEM_ATOM_UDEF_STEREO_COUNT>
0

> <PUBCHEM_BOND_DEF_STEREO_COUNT>
0

> <PUBCHEM_BOND_UDEF_STEREO_COUNT>
0

> <PUBCHEM_ISOTOPIC_ATOM_COUNT>
0

> <PUBCHEM_COMPONENT_COUNT>
1

> <PUBCHEM_CACTVS_TAUTO_COUNT>
1

> <PUBCHEM_CONFORMER_ID>
0000102B00000001

> <PUBCHEM_MMFF94_ENERGY>
82.4162

> <PUBCHEM_FEATURE_SELFOVERLAP>
25.41

> <PUBCHEM_SHAPE_FINGERPRINT>
10366900 7 17203609293769980800
10968037 39 18413667993729073551
11524674 6 16443346464296551527
11963148 33 18335707121884306798
12107183 9 17692254457401936610
12166972 35 17989485203837048245
12236239 1 18131632305017309438
12403259 226 18410581677491457329
12403259 415 18410303509607799109
12715332 25 17894916195852329127
13288520 33 18408602569793807533
13533116 47 18408605834021797560
13862211 1 18409733962568514087
14341114 176 18341608196573382745
15196674 1 18410293596901946521
15536298 74 18334577915067851608
17834072 33 18412825776644253260
17857418 61 18410576188506824651
1813 80 17418095434200998548
18222031 100 17918278636315538348
18681886 176 18336268955503751032
200 152 18186803586290342833
20028762 73 18186525371284364679
20374829 77 18411139134565997383
20645477 70 18410009944930613934
21236236 1 18335983164227598857
21267235 1 18410004433875649815
21279426 13 18195810884656412038
21682296 61 18042677480766927606
21709351 56 18343590624976526557
221490 88 18269549451621493128
2297311 6 18113890585534194156
23402539 116 18335707122320993495
23522609 53 18123156152404522836
23559900 14 18338804416169003329
2871803 45 18272376364662063801
3004659 81 18200872976789286886
335352 9 18410012135654007533
34797466 226 17458338616624611972
350125 39 18410292518828420357
351380 180 18411419501071991099
3545911 37 18410292514474982559
4073 2 18059288751761577626
4214541 1 18410012160859613809
4463277 17 18410573980898863780
465052 167 18334853914140673102
5104073 3 18334012791544442257
559249 180 18341055236518810595
6138700 20 18340768255858730802
7495541 125 17676492700567150403
9709674 26 18269552745708363371

> <PUBCHEM_SHAPE_MULTIPOLES>
400.5
13.8
2.06
0.65
0.39
0.08
0
4.51
0.54
-0.23
-0.12
0.2
0.04
-0.38

> <PUBCHEM_SHAPE_SELFOVERLAP>
848.925

> <PUBCHEM_SHAPE_VOLUME>
226.6

> <PUBCHEM_COORDINATE_TYPE>
2
5
10

$$$$

