47205627
  -OEChem-06241222593D

 27 28  0     0  0  0  0  0  0999 V2000
    6.1466   -1.5040   -0.4270 Cl  0  0  0  0  0  0  0  0  0  0  0  0
   -1.4972   -1.6091    0.3513 O   0  0  0  0  0  0  0  0  0  0  0  0
   -2.3613    0.5256   -0.1063 N   0  0  0  0  0  0  0  0  0  0  0  0
   -5.9244    0.5893   -0.2144 N   0  0  0  0  0  0  0  0  0  0  0  0
   -5.7940   -0.7207    0.0559 N   0  0  0  0  0  0  0  0  0  0  0  0
    2.4710   -0.0229    0.1229 C   0  0  0  0  0  0  0  0  0  0  0  0
   -3.7613    0.3096   -0.0991 C   0  0  0  0  0  0  0  0  0  0  0  0
    1.1092   -0.5281    0.1990 C   0  0  0  0  0  0  0  0  0  0  0  0
    3.5316   -0.9035   -0.0908 C   0  0  0  0  0  0  0  0  0  0  0  0
    2.7163    1.3431    0.2641 C   0  0  0  0  0  0  0  0  0  0  0  0
   -0.0085    0.2116    0.0193 C   0  0  0  0  0  0  0  0  0  0  0  0
   -1.3628   -0.4151    0.1111 C   0  0  0  0  0  0  0  0  0  0  0  0
   -4.7367    1.2518   -0.3174 C   0  0  0  0  0  0  0  0  0  0  0  0
   -4.4704   -0.8856    0.1252 C   0  0  0  0  0  0  0  0  0  0  0  0
    4.8374   -0.4182   -0.1634 C   0  0  0  0  0  0  0  0  0  0  0  0
    4.0221    1.8283    0.1917 C   0  0  0  0  0  0  0  0  0  0  0  0
    5.0826    0.9478   -0.0223 C   0  0  0  0  0  0  0  0  0  0  0  0
    1.0178   -1.5916    0.4089 H   0  0  0  0  0  0  0  0  0  0  0  0
   -2.0983    1.4902   -0.2955 H   0  0  0  0  0  0  0  0  0  0  0  0
    3.3448   -1.9698   -0.2028 H   0  0  0  0  0  0  0  0  0  0  0  0
    1.9261    2.0637    0.4527 H   0  0  0  0  0  0  0  0  0  0  0  0
   -4.6962    2.3104   -0.5321 H   0  0  0  0  0  0  0  0  0  0  0  0
    0.0305    1.2690   -0.2179 H   0  0  0  0  0  0  0  0  0  0  0  0
   -4.0917   -1.8750    0.3368 H   0  0  0  0  0  0  0  0  0  0  0  0
    4.2141    2.8912    0.3065 H   0  0  0  0  0  0  0  0  0  0  0  0
    6.0949    1.3402   -0.0755 H   0  0  0  0  0  0  0  0  0  0  0  0
   -6.8579    0.9675   -0.3166 H   0  0  0  0  0  0  0  0  0  0  0  0
  1 15  1  0  0  0  0
  2 12  2  0  0  0  0
  3  7  1  0  0  0  0
  3 12  1  0  0  0  0
  3 19  1  0  0  0  0
  4  5  1  0  0  0  0
  4 13  1  0  0  0  0
  4 27  1  0  0  0  0
  5 14  2  0  0  0  0
  6  8  1  0  0  0  0
  6  9  2  0  0  0  0
  6 10  1  0  0  0  0
  7 13  2  0  0  0  0
  7 14  1  0  0  0  0
  8 11  2  0  0  0  0
  8 18  1  0  0  0  0
  9 15  1  0  0  0  0
  9 20  1  0  0  0  0
 10 16  2  0  0  0  0
 10 21  1  0  0  0  0
 11 12  1  0  0  0  0
 11 23  1  0  0  0  0
 13 22  1  0  0  0  0
 14 24  1  0  0  0  0
 15 17  2  0  0  0  0
 16 17  1  0  0  0  0
 16 25  1  0  0  0  0
 17 26  1  0  0  0  0
M  END
> <PUBCHEM_COMPOUND_CID>
47205627

> <PUBCHEM_CONFORMER_RMSD>
0.6

> <PUBCHEM_CONFORMER_DIVERSEORDER>
1
8
10
3
9
5
7
6
2
4

> <PUBCHEM_MMFF94_PARTIAL_CHARGES>
27
1 -0.18
10 -0.15
11 -0.14
12 0.62
13 -0.3
14 0.14
15 0.18
16 -0.15
17 -0.15
18 0.15
19 0.37
2 -0.57
20 0.15
21 0.15
22 0.15
23 0.15
24 0.15
25 0.15
26 0.15
27 0.27
3 -0.49
4 0.3
5 -0.71
6 0.03
7 0.06
8 -0.18
9 -0.15

> <PUBCHEM_EFFECTIVE_ROTOR_COUNT>
4

> <PUBCHEM_PHARMACOPHORE_FEATURES>
6
1 2 acceptor
1 3 donor
1 4 donor
1 5 acceptor
5 4 5 7 13 14 rings
6 6 9 10 15 16 17 rings

> <PUBCHEM_HEAVY_ATOM_COUNT>
17

> <PUBCHEM_ATOM_DEF_STEREO_COUNT>
0

> <PUBCHEM_ATOM_UDEF_STEREO_COUNT>
0

> <PUBCHEM_BOND_DEF_STEREO_COUNT>
0

> <PUBCHEM_BOND_UDEF_STEREO_COUNT>
1

> <PUBCHEM_ISOTOPIC_ATOM_COUNT>
0

> <PUBCHEM_COMPONENT_COUNT>
1

> <PUBCHEM_CACTVS_TAUTO_COUNT>
4

> <PUBCHEM_CONFORMER_ID>
02D04CFB00000001

> <PUBCHEM_MMFF94_ENERGY>
35.142

> <PUBCHEM_FEATURE_SELFOVERLAP>
30.446

> <PUBCHEM_SHAPE_FINGERPRINT>
10366900 7 15985104115268378445
11287383 113 18410292488773789611
12107183 9 17689716784791804993
12166972 35 18413102844721495133
12236239 1 17894348882227725129
12616971 3 17676496029261899852
12815109 37 8646768897874683117
13081056 2 18413673508488544348
13167372 99 18114175384546813753
13167823 11 18335424543026212087
13533116 47 4967624836715495524
14123238 8 16558752312595793453
1420 363 18130783447849772211
14251764 18 18273219686423780840
14341114 176 18411976949156637773
14933364 13 18412542115671847477
15183329 4 18337388339591602314
15196674 1 18411138026174654969
15242439 84 18272086102140119562
15475509 35 4822666276582994620
17834072 33 18333733494057939206
17834072 8 18410006650775041990
17844677 252 18409441496965704257
19489759 90 17346600772910144481
200 152 17749107798503018865
20281389 69 18273217503826585509
20645477 70 18261107504765801854
21267235 1 18335695070637336454
212847 35 18342175553601359460
221357 26 18409731785431629676
22224240 67 8790590482888264782
23402539 116 18261117370046867149
23402655 69 18260831496570022949
23536379 177 18333731329447124115
23559900 14 18409732829002804520
29717793 49 17603579755750973932
300161 21 17894919490608871624
3004659 81 18413388757221686250
3014965 18 18339927120878666470
328311 84 18341604932435557467
351380 180 18409449180477314144
3545911 37 18410854335216092840
4073 2 18059571331146471418
4214541 1 18410856564293569937
42788 4 18411419514067526261
465052 167 18259981600648355686
5104073 3 18411982433782182083
522135 26 18408604760585720592
542803 24 18413672400465849869
633830 44 17917434164509855722
7495541 125 17313671438602495787
77779 3 18411138000346497650
90127 26 18131626777104593696
9971528 1 18060137622420840708

> <PUBCHEM_SHAPE_MULTIPOLES>
330.91
16.08
1.54
0.64
7.75
0.18
0.01
-0.82
1.61
-1.32
-0.02
-0.11
-0.01
0.65

> <PUBCHEM_SHAPE_SELFOVERLAP>
695.989

> <PUBCHEM_SHAPE_VOLUME>
186.3

> <PUBCHEM_COORDINATE_TYPE>
2
5
10

$$$$

