3933
  -OEChem-06251223463D

 34 35  0     1  0  0  0  0  0999 V2000
   -0.3315   -0.8931    3.2279 I   0  0  0  0  0  0  0  0  0  0  0  0
   -0.8636   -2.4518   -2.6491 I   0  0  0  0  0  0  0  0  0  0  0  0
   -2.1850    3.3218   -0.8915 I   0  0  0  0  0  0  0  0  0  0  0  0
   -1.6418   -1.8761    0.4379 O   0  0  0  0  0  0  0  0  0  0  0  0
    4.2664    1.5703    1.4420 O   0  5  0  0  0  0  0  0  0  0  0  0
    2.9313    2.5836   -0.1099 O   0  0  0  0  0  0  0  0  0  0  0  0
   -5.2193    2.2485   -0.3321 O   0  0  0  0  0  0  0  0  0  0  0  0
    5.5669    0.8549   -0.9503 N   0  0  0  0  0  0  0  0  0  0  0  0
    3.8476   -0.8052   -0.3429 C   0  0  0  0  0  0  0  0  0  0  0  0
    2.3979   -1.0889   -0.1365 C   0  0  0  0  0  0  0  0  0  0  0  0
    4.1294    0.6520   -0.7552 C   0  0  1  0  0  0  0  0  0  0  0  0
    1.6146   -1.5291   -1.2034 C   0  0  0  0  0  0  0  0  0  0  0  0
    1.8252   -0.9127    1.1232 C   0  0  0  0  0  0  0  0  0  0  0  0
   -0.3141   -1.6169    0.2491 C   0  0  0  0  0  0  0  0  0  0  0  0
    0.4692   -1.1768    1.3159 C   0  0  0  0  0  0  0  0  0  0  0  0
    0.2585   -1.7931   -1.0106 C   0  0  0  0  0  0  0  0  0  0  0  0
    3.7404    1.7016    0.3012 C   0  0  0  0  0  0  0  0  0  0  0  0
   -2.5301   -0.8348    0.2422 C   0  0  0  0  0  0  0  0  0  0  0  0
   -2.0454    0.4070   -0.1310 C   0  0  0  0  0  0  0  0  0  0  0  0
   -3.8839   -1.0588    0.4241 C   0  0  0  0  0  0  0  0  0  0  0  0
   -2.9421    1.4571   -0.3283 C   0  0  0  0  0  0  0  0  0  0  0  0
   -4.7807   -0.0087    0.2268 C   0  0  0  0  0  0  0  0  0  0  0  0
   -4.3097    1.2492   -0.1495 C   0  0  0  0  0  0  0  0  0  0  0  0
    4.2449   -1.4881   -1.1065 H   0  0  0  0  0  0  0  0  0  0  0  0
    4.3954   -1.0559    0.5763 H   0  0  0  0  0  0  0  0  0  0  0  0
    3.6143    0.8772   -1.6971 H   0  0  0  0  0  0  0  0  0  0  0  0
    2.0711   -1.6605   -2.1820 H   0  0  0  0  0  0  0  0  0  0  0  0
    2.4437   -0.5754    1.9516 H   0  0  0  0  0  0  0  0  0  0  0  0
    5.9014    0.2234   -1.6776 H   0  0  0  0  0  0  0  0  0  0  0  0
    6.0710    0.5915   -0.1037 H   0  0  0  0  0  0  0  0  0  0  0  0
   -0.9927    0.6193   -0.2824 H   0  0  0  0  0  0  0  0  0  0  0  0
   -4.2520   -2.0375    0.7169 H   0  0  0  0  0  0  0  0  0  0  0  0
   -5.8446   -0.1783    0.3682 H   0  0  0  0  0  0  0  0  0  0  0  0
   -4.7381    3.0539   -0.5892 H   0  0  0  0  0  0  0  0  0  0  0  0
  1 15  1  0  0  0  0
  2 16  1  0  0  0  0
  3 21  1  0  0  0  0
  4 14  1  0  0  0  0
  4 18  1  0  0  0  0
  5 17  1  0  0  0  0
  6 17  2  0  0  0  0
  7 23  1  0  0  0  0
  7 34  1  0  0  0  0
  8 11  1  0  0  0  0
  8 29  1  0  0  0  0
  8 30  1  0  0  0  0
  9 10  1  0  0  0  0
  9 11  1  0  0  0  0
  9 24  1  0  0  0  0
  9 25  1  0  0  0  0
 10 12  2  0  0  0  0
 10 13  1  0  0  0  0
 11 17  1  0  0  0  0
 11 26  1  0  0  0  0
 12 16  1  0  0  0  0
 12 27  1  0  0  0  0
 13 15  2  0  0  0  0
 13 28  1  0  0  0  0
 14 15  1  0  0  0  0
 14 16  2  0  0  0  0
 18 19  2  0  0  0  0
 18 20  1  0  0  0  0
 19 21  1  0  0  0  0
 19 31  1  0  0  0  0
 20 22  2  0  0  0  0
 20 32  1  0  0  0  0
 21 23  2  0  0  0  0
 22 23  1  0  0  0  0
 22 33  1  0  0  0  0
M  CHG  1   5  -1
M  END
> <PUBCHEM_COMPOUND_CID>
3933

> <PUBCHEM_CONFORMER_RMSD>
0.8

> <PUBCHEM_CONFORMER_DIVERSEORDER>
1
31
23
40
35
32
14
4
30
36
46
39
33
29
20
27
44
28
38
5
43
26
41
13
17
42
37
8
45
21
22
11
3
10
34
16
18
12
7
2
9
15
24
6
25
19

> <PUBCHEM_MMFF94_PARTIAL_CHARGES>
31
1 -0.08
10 -0.14
11 0.16
12 -0.15
13 -0.15
14 0.08
15 0.08
16 0.08
17 0.91
18 0.08
19 -0.15
2 -0.08
20 -0.15
21 0.08
22 -0.15
23 0.08
27 0.15
28 0.15
29 0.36
3 -0.08
30 0.36
31 0.15
32 0.15
33 0.15
34 0.45
4 -0.17
5 -0.9
6 -0.9
7 -0.53
8 -0.99
9 0.14

> <PUBCHEM_EFFECTIVE_ROTOR_COUNT>
5

> <PUBCHEM_PHARMACOPHORE_FEATURES>
12
1 1 hydrophobe
1 2 hydrophobe
1 3 hydrophobe
1 4 acceptor
1 5 acceptor
1 6 acceptor
1 7 donor
1 8 cation
1 8 donor
3 5 6 17 anion
6 10 12 13 14 15 16 rings
6 18 19 20 21 22 23 rings

> <PUBCHEM_HEAVY_ATOM_COUNT>
23

> <PUBCHEM_ATOM_DEF_STEREO_COUNT>
0

> <PUBCHEM_ATOM_UDEF_STEREO_COUNT>
1

> <PUBCHEM_BOND_DEF_STEREO_COUNT>
0

> <PUBCHEM_BOND_UDEF_STEREO_COUNT>
0

> <PUBCHEM_ISOTOPIC_ATOM_COUNT>
0

> <PUBCHEM_COMPONENT_COUNT>
1

> <PUBCHEM_CACTVS_TAUTO_COUNT>
3

> <PUBCHEM_CONFORMER_ID>
00000F5D00000001

> <PUBCHEM_MMFF94_ENERGY>
67.5867

> <PUBCHEM_FEATURE_SELFOVERLAP>
60.946

> <PUBCHEM_SHAPE_FINGERPRINT>
10165383 225 17749101193402811439
10498660 4 18342180020267088037
10670039 82 18201708570839417156
10871710 139 17686903813056957652
11595378 159 17346605200330674541
11796584 16 8718555982187958207
12173636 292 18341336570026059126
12539773 59 15735674082710461004
12596602 18 16056588812340379424
12788726 201 16052619480769658306
13149001 5 16081947931148519563
13402501 40 18410009931560928484
13583140 156 18338784629529341146
13911987 19 17240478113367074702
13965767 371 16624612191943723413
14251751 93 18262245404151561661
14251757 17 18335136548473781840
14341114 328 17775004587350787569
14468879 13 18268144258565417880
14739800 52 18272103681779074168
14787075 74 17487614126846349795
15238133 3 18131354090591001392
20600515 1 16612535237221779786
21475661 188 18201721755777137604
21756936 100 18271249318341948406
23114952 82 17825098466256914199
23227448 37 18263645078232749295
23557571 272 18269259210495556139
23559900 14 18118968228736410791
2838139 119 18410296882910721812
3472631 163 18270401723905313421
3524813 1 18408324358934641700
392239 28 17559940070477654089
427121 178 17203321260335809882
474 4 17632570526815567966
7097593 13 16695849541733161947
7288768 16 17343225121683756328
7808743 9 18341894125547386265
9981440 41 18131062723492413794

> <PUBCHEM_SHAPE_MULTIPOLES>
480.68
9.48
3.31
2.27
2.3
2.07
1.21
6.83
-1.17
-0.98
-1.63
0.2
-1.62
0.69

> <PUBCHEM_SHAPE_SELFOVERLAP>
962.208

> <PUBCHEM_SHAPE_VOLUME>
292.1

> <PUBCHEM_COORDINATE_TYPE>
2
5
10

$$$$

