14414
  -OEChem-06241222432D

 49 50  0     1  0  0  0  0  0999 V2000
    4.5981    1.2010    0.0000 O   0  0  0  0  0  0  0  0  0  0  0  0
    8.0622    1.2010    0.0000 O   0  0  0  0  0  0  0  0  0  0  0  0
    6.3301   -1.7990    0.0000 O   0  0  0  0  0  0  0  0  0  0  0  0
    5.4641   -0.2990    0.0000 N   0  0  0  0  0  0  0  0  0  0  0  0
    7.1962   -0.2990    0.0000 N   0  0  0  0  0  0  0  0  0  0  0  0
    3.7320   -2.2990    0.0000 N   0  0  0  0  0  0  0  0  0  0  0  0
    6.3301    1.2010    0.0000 C   0  0  3  0  0  0  0  0  0  0  0  0
    5.8301    2.0670    0.0000 C   0  0  0  0  0  0  0  0  0  0  0  0
    5.4641    0.7010    0.0000 C   0  0  0  0  0  0  0  0  0  0  0  0
    6.8301    2.0670    0.0000 C   0  0  0  0  0  0  0  0  0  0  0  0
    7.1962    0.7010    0.0000 C   0  0  0  0  0  0  0  0  0  0  0  0
    4.5981   -0.7990    0.0000 C   0  0  0  0  0  0  0  0  0  0  0  0
    4.5981   -1.7990    0.0000 C   0  0  0  0  0  0  0  0  0  0  0  0
    6.3301   -0.7990    0.0000 C   0  0  0  0  0  0  0  0  0  0  0  0
    4.8301    2.0670    0.0000 C   0  0  0  0  0  0  0  0  0  0  0  0
    7.8301    2.0670    0.0000 C   0  0  0  0  0  0  0  0  0  0  0  0
    6.3301    2.9330    0.0000 C   0  0  0  0  0  0  0  0  0  0  0  0
    3.7320   -3.2990    0.0000 C   0  0  0  0  0  0  0  0  0  0  0  0
    2.8660   -1.7990    0.0000 C   0  0  0  0  0  0  0  0  0  0  0  0
    8.3301    2.9330    0.0000 C   0  0  0  0  0  0  0  0  0  0  0  0
    6.8301    3.7990    0.0000 C   0  0  0  0  0  0  0  0  0  0  0  0
    2.8660   -3.7990    0.0000 C   0  0  0  0  0  0  0  0  0  0  0  0
    2.0000   -2.2990    0.0000 C   0  0  0  0  0  0  0  0  0  0  0  0
    7.8301    3.7990    0.0000 C   0  0  0  0  0  0  0  0  0  0  0  0
    6.4127    2.2790    0.0000 H   0  0  0  0  0  0  0  0  0  0  0  0
    5.7225    2.6776    0.0000 H   0  0  0  0  0  0  0  0  0  0  0  0
    4.3860   -0.2164    0.0000 H   0  0  0  0  0  0  0  0  0  0  0  0
    3.9875   -0.9067    0.0000 H   0  0  0  0  0  0  0  0  0  0  0  0
    4.8101   -2.3816    0.0000 H   0  0  0  0  0  0  0  0  0  0  0  0
    5.2087   -1.6914    0.0000 H   0  0  0  0  0  0  0  0  0  0  0  0
    7.7331   -0.6090    0.0000 H   0  0  0  0  0  0  0  0  0  0  0  0
    4.8301    2.6870    0.0000 H   0  0  0  0  0  0  0  0  0  0  0  0
    4.2101    2.0670    0.0000 H   0  0  0  0  0  0  0  0  0  0  0  0
    4.8301    1.4470    0.0000 H   0  0  0  0  0  0  0  0  0  0  0  0
    8.1401    1.5300    0.0000 H   0  0  0  0  0  0  0  0  0  0  0  0
    5.7101    2.9330    0.0000 H   0  0  0  0  0  0  0  0  0  0  0  0
    3.9441   -3.8816    0.0000 H   0  0  0  0  0  0  0  0  0  0  0  0
    4.3426   -3.1914    0.0000 H   0  0  0  0  0  0  0  0  0  0  0  0
    3.2646   -1.3241    0.0000 H   0  0  0  0  0  0  0  0  0  0  0  0
    2.4675   -1.3241    0.0000 H   0  0  0  0  0  0  0  0  0  0  0  0
    8.9501    2.9330    0.0000 H   0  0  0  0  0  0  0  0  0  0  0  0
    6.5201    4.3360    0.0000 H   0  0  0  0  0  0  0  0  0  0  0  0
    1.6900   -1.7621    0.0000 H   0  0  0  0  0  0  0  0  0  0  0  0
    1.4631   -2.6090    0.0000 H   0  0  0  0  0  0  0  0  0  0  0  0
    2.3100   -2.8360    0.0000 H   0  0  0  0  0  0  0  0  0  0  0  0
    2.5560   -3.2621    0.0000 H   0  0  0  0  0  0  0  0  0  0  0  0
    2.3291   -4.1090    0.0000 H   0  0  0  0  0  0  0  0  0  0  0  0
    3.1760   -4.3360    0.0000 H   0  0  0  0  0  0  0  0  0  0  0  0
    8.1401    4.3360    0.0000 H   0  0  0  0  0  0  0  0  0  0  0  0
  1  9  2  0  0  0  0
  2 11  2  0  0  0  0
  3 14  2  0  0  0  0
  4  9  1  0  0  0  0
  4 12  1  0  0  0  0
  4 14  1  0  0  0  0
  5 11  1  0  0  0  0
  5 14  1  0  0  0  0
  5 31  1  0  0  0  0
  6 13  1  0  0  0  0
  6 18  1  0  0  0  0
  6 19  1  0  0  0  0
  7  8  1  0  0  0  0
  7  9  1  0  0  0  0
  7 10  1  0  0  0  0
  7 11  1  0  0  0  0
  8 15  1  0  0  0  0
  8 25  1  0  0  0  0
  8 26  1  0  0  0  0
 10 16  2  0  0  0  0
 10 17  1  0  0  0  0
 12 13  1  0  0  0  0
 12 27  1  0  0  0  0
 12 28  1  0  0  0  0
 13 29  1  0  0  0  0
 13 30  1  0  0  0  0
 15 32  1  0  0  0  0
 15 33  1  0  0  0  0
 15 34  1  0  0  0  0
 16 20  1  0  0  0  0
 16 35  1  0  0  0  0
 17 21  2  0  0  0  0
 17 36  1  0  0  0  0
 18 22  1  0  0  0  0
 18 37  1  0  0  0  0
 18 38  1  0  0  0  0
 19 23  1  0  0  0  0
 19 39  1  0  0  0  0
 19 40  1  0  0  0  0
 20 24  2  0  0  0  0
 20 41  1  0  0  0  0
 21 24  1  0  0  0  0
 21 42  1  0  0  0  0
 22 46  1  0  0  0  0
 22 47  1  0  0  0  0
 22 48  1  0  0  0  0
 23 43  1  0  0  0  0
 23 44  1  0  0  0  0
 23 45  1  0  0  0  0
 24 49  1  0  0  0  0
M  END
> <PUBCHEM_COMPOUND_CID>
14414

> <PUBCHEM_COMPOUND_CANONICALIZED>
1

> <PUBCHEM_CACTVS_COMPLEXITY>
484

> <PUBCHEM_CACTVS_HBOND_ACCEPTOR>
4

> <PUBCHEM_CACTVS_HBOND_DONOR>
1

> <PUBCHEM_CACTVS_ROTATABLE_BOND>
7

> <PUBCHEM_CACTVS_SUBSKEYS>
AAADceB7MAAAAAAAAAAAAAAAAAAAAAAAAAA8QAAAAAAAAAABAAAAHgAQAAAADgDBmAQzAIPAAACIAiFSEAACAAAgAAAIiAEIAIiIYDqI1RGUIAAohyKIiAcYiMCPgAAAAAAAAAAAAAAAAAAAAAAAAAAAAA==

> <PUBCHEM_IUPAC_OPENEYE_NAME>
1-[2-(diethylamino)ethyl]-5-ethyl-5-phenyl-hexahydropyrimidine-2,4,6-trione

> <PUBCHEM_IUPAC_CAS_NAME>
1-[2-(diethylamino)ethyl]-5-ethyl-5-phenyl-1,3-diazinane-2,4,6-trione

> <PUBCHEM_IUPAC_NAME>
1-[2-(diethylamino)ethyl]-5-ethyl-5-phenyl-1,3-diazinane-2,4,6-trione

> <PUBCHEM_IUPAC_SYSTEMATIC_NAME>
1-[2-(diethylamino)ethyl]-5-ethyl-5-phenyl-1,3-diazinane-2,4,6-trione

> <PUBCHEM_IUPAC_TRADITIONAL_NAME>
1-[2-(diethylamino)ethyl]-5-ethyl-5-phenyl-barbituric acid

> <PUBCHEM_IUPAC_INCHI>
InChI=1S/C18H25N3O3/c1-4-18(14-10-8-7-9-11-14)15(22)19-17(24)21(16(18)23)13-12-20(5-2)6-3/h7-11H,4-6,12-13H2,1-3H3,(H,19,22,24)

> <PUBCHEM_IUPAC_INCHIKEY>
JPSKYEDINNEHEB-UHFFFAOYSA-N

> <PUBCHEM_XLOGP3>
2.6

> <PUBCHEM_EXACT_MASS>
331.189592

> <PUBCHEM_MOLECULAR_FORMULA>
C18H25N3O3

> <PUBCHEM_MOLECULAR_WEIGHT>
331.4094

> <PUBCHEM_OPENEYE_CAN_SMILES>
CCC1(C(=O)NC(=O)N(C1=O)CCN(CC)CC)C2=CC=CC=C2

> <PUBCHEM_OPENEYE_ISO_SMILES>
CCC1(C(=O)NC(=O)N(C1=O)CCN(CC)CC)C2=CC=CC=C2

> <PUBCHEM_CACTVS_TPSA>
69.7

> <PUBCHEM_MONOISOTOPIC_WEIGHT>
331.189592

> <PUBCHEM_TOTAL_CHARGE>
0

> <PUBCHEM_HEAVY_ATOM_COUNT>
24

> <PUBCHEM_ATOM_DEF_STEREO_COUNT>
0

> <PUBCHEM_ATOM_UDEF_STEREO_COUNT>
1

> <PUBCHEM_BOND_DEF_STEREO_COUNT>
0

> <PUBCHEM_BOND_UDEF_STEREO_COUNT>
0

> <PUBCHEM_ISOTOPIC_ATOM_COUNT>
0

> <PUBCHEM_COMPONENT_COUNT>
1

> <PUBCHEM_CACTVS_TAUTO_COUNT>
3

> <PUBCHEM_COORDINATE_TYPE>
1
5
255

> <PUBCHEM_BONDANNOTATIONS>
10  16  8
10  17  8
16  20  8
17  21  8
20  24  8
21  24  8
7  8  3

$$$$

