51090918
  -OEChem-06241223003D

 52 54  0     0  0  0  0  0  0999 V2000
    0.1732    0.8354   -1.4955 O   0  0  0  0  0  0  0  0  0  0  0  0
    1.6922   -0.0923    1.5539 O   0  0  0  0  0  0  0  0  0  0  0  0
    4.3518   -0.1415    1.1399 O   0  0  0  0  0  0  0  0  0  0  0  0
   -5.4952   -0.8628    0.1585 N   0  0  0  0  0  0  0  0  0  0  0  0
   -1.9696    1.2862   -0.7189 N   0  0  0  0  0  0  0  0  0  0  0  0
    1.4309    1.9079    0.3918 N   0  0  0  0  0  0  0  0  0  0  0  0
   -4.6191    0.1732   -0.3682 C   0  0  0  0  0  0  0  0  0  0  0  0
   -3.6138   -0.4378   -1.3529 C   0  0  0  0  0  0  0  0  0  0  0  0
   -3.8847    0.8762    0.7807 C   0  0  0  0  0  0  0  0  0  0  0  0
   -6.4772   -0.3353    1.1055 C   0  0  0  0  0  0  0  0  0  0  0  0
   -6.2862   -1.5100   -0.8876 C   0  0  0  0  0  0  0  0  0  0  0  0
   -7.4910   -1.4651    1.2104 C   0  0  0  0  0  0  0  0  0  0  0  0
   -7.3631   -2.2391   -0.0979 C   0  0  0  0  0  0  0  0  0  0  0  0
   -2.6232    0.6160   -1.8449 C   0  0  0  0  0  0  0  0  0  0  0  0
   -2.8874    1.9041    0.2464 C   0  0  0  0  0  0  0  0  0  0  0  0
   -0.5775    1.3322   -0.6518 C   0  0  0  0  0  0  0  0  0  0  0  0
    0.0187    2.0379    0.5399 C   0  0  0  0  0  0  0  0  0  0  0  0
    2.1668    0.8428    0.9149 C   0  0  0  0  0  0  0  0  0  0  0  0
    3.6446    0.9580    0.6073 C   0  0  0  0  0  0  0  0  0  0  0  0
    5.4852   -0.5417    0.4721 C   0  0  0  0  0  0  0  0  0  0  0  0
    6.2448    0.3912   -0.2339 C   0  0  0  0  0  0  0  0  0  0  0  0
    5.8754   -1.8805    0.5009 C   0  0  0  0  0  0  0  0  0  0  0  0
    7.3945   -0.0149   -0.9113 C   0  0  0  0  0  0  0  0  0  0  0  0
    7.0251   -2.2865   -0.1764 C   0  0  0  0  0  0  0  0  0  0  0  0
    7.7848   -1.3537   -0.8826 C   0  0  0  0  0  0  0  0  0  0  0  0
   -5.2093    0.9296   -0.9063 H   0  0  0  0  0  0  0  0  0  0  0  0
   -4.5789    1.4059    1.4422 H   0  0  0  0  0  0  0  0  0  0  0  0
   -3.3460    0.1386    1.3907 H   0  0  0  0  0  0  0  0  0  0  0  0
   -3.0594   -1.2519   -0.8670 H   0  0  0  0  0  0  0  0  0  0  0  0
   -4.1138   -0.8606   -2.2311 H   0  0  0  0  0  0  0  0  0  0  0  0
   -6.9700    0.5693    0.7265 H   0  0  0  0  0  0  0  0  0  0  0  0
   -6.0529   -0.1229    2.0917 H   0  0  0  0  0  0  0  0  0  0  0  0
   -5.7089   -2.2242   -1.4828 H   0  0  0  0  0  0  0  0  0  0  0  0
   -6.7524   -0.7804   -1.5622 H   0  0  0  0  0  0  0  0  0  0  0  0
   -8.3108   -2.2701   -0.6449 H   0  0  0  0  0  0  0  0  0  0  0  0
   -7.0617   -3.2724    0.1113 H   0  0  0  0  0  0  0  0  0  0  0  0
   -7.2563   -2.1239    2.0548 H   0  0  0  0  0  0  0  0  0  0  0  0
   -8.5058   -1.0811    1.3562 H   0  0  0  0  0  0  0  0  0  0  0  0
   -2.3543    2.3622    1.0813 H   0  0  0  0  0  0  0  0  0  0  0  0
   -3.4145    2.7091   -0.2797 H   0  0  0  0  0  0  0  0  0  0  0  0
   -3.1400    1.3865   -2.4294 H   0  0  0  0  0  0  0  0  0  0  0  0
   -1.8837    0.1481   -2.5024 H   0  0  0  0  0  0  0  0  0  0  0  0
   -0.3060    1.5641    1.4701 H   0  0  0  0  0  0  0  0  0  0  0  0
   -0.2355    3.1006    0.5235 H   0  0  0  0  0  0  0  0  0  0  0  0
    1.9198    2.6258   -0.1357 H   0  0  0  0  0  0  0  0  0  0  0  0
    4.0204    1.8861    1.0527 H   0  0  0  0  0  0  0  0  0  0  0  0
    3.7244    1.0084   -0.4869 H   0  0  0  0  0  0  0  0  0  0  0  0
    5.9896    1.4465   -0.2584 H   0  0  0  0  0  0  0  0  0  0  0  0
    5.2875   -2.6113    1.0493 H   0  0  0  0  0  0  0  0  0  0  0  0
    7.9897    0.7122   -1.4562 H   0  0  0  0  0  0  0  0  0  0  0  0
    7.3292   -3.3289   -0.1538 H   0  0  0  0  0  0  0  0  0  0  0  0
    8.6808   -1.6696   -1.4088 H   0  0  0  0  0  0  0  0  0  0  0  0
  1 16  2  0  0  0  0
  2 18  2  0  0  0  0
  3 19  1  0  0  0  0
  3 20  1  0  0  0  0
  4  7  1  0  0  0  0
  4 10  1  0  0  0  0
  4 11  1  0  0  0  0
  5 14  1  0  0  0  0
  5 15  1  0  0  0  0
  5 16  1  0  0  0  0
  6 17  1  0  0  0  0
  6 18  1  0  0  0  0
  6 45  1  0  0  0  0
  7  8  1  0  0  0  0
  7  9  1  0  0  0  0
  7 26  1  0  0  0  0
  8 14  1  0  0  0  0
  8 29  1  0  0  0  0
  8 30  1  0  0  0  0
  9 15  1  0  0  0  0
  9 27  1  0  0  0  0
  9 28  1  0  0  0  0
 10 12  1  0  0  0  0
 10 31  1  0  0  0  0
 10 32  1  0  0  0  0
 11 13  1  0  0  0  0
 11 33  1  0  0  0  0
 11 34  1  0  0  0  0
 12 13  1  0  0  0  0
 12 37  1  0  0  0  0
 12 38  1  0  0  0  0
 13 35  1  0  0  0  0
 13 36  1  0  0  0  0
 14 41  1  0  0  0  0
 14 42  1  0  0  0  0
 15 39  1  0  0  0  0
 15 40  1  0  0  0  0
 16 17  1  0  0  0  0
 17 43  1  0  0  0  0
 17 44  1  0  0  0  0
 18 19  1  0  0  0  0
 19 46  1  0  0  0  0
 19 47  1  0  0  0  0
 20 21  2  0  0  0  0
 20 22  1  0  0  0  0
 21 23  1  0  0  0  0
 21 48  1  0  0  0  0
 22 24  2  0  0  0  0
 22 49  1  0  0  0  0
 23 25  2  0  0  0  0
 23 50  1  0  0  0  0
 24 25  1  0  0  0  0
 24 51  1  0  0  0  0
 25 52  1  0  0  0  0
M  END
> <PUBCHEM_COMPOUND_CID>
51090918

> <PUBCHEM_CONFORMER_RMSD>
1

> <PUBCHEM_CONFORMER_DIVERSEORDER>
1
15
18
56
66
49
4
16
117
25
115
45
34
91
60
32
105
7
110
93
43
84
97
23
102
89
118
85
3
116
35
17
61
48
41
106
30
22
33
55
71
38
96
94
39
19
78
64
99
88
81
112
57
46
2
31
98
59
13
83
90
27
11
74
54
10
109
108
5
104
107
68
86
8
26
67
58
12
36
121
52
100
114
53
65
113
9
95
62
79
28
76
70
51
63
103
37
6
44
92
111
50
47
82
75
73
72
69
80
42
77
101
21
40
20
119
29
14
120
24
87

> <PUBCHEM_MMFF94_PARTIAL_CHARGES>
27
1 -0.57
10 0.27
11 0.27
14 0.3
15 0.3
16 0.57
17 0.36
18 0.57
19 0.34
2 -0.57
20 0.08
21 -0.15
22 -0.15
23 -0.15
24 -0.15
25 -0.15
3 -0.36
4 -0.81
45 0.37
48 0.15
49 0.15
5 -0.66
50 0.15
51 0.15
52 0.15
6 -0.73
7 0.27

> <PUBCHEM_EFFECTIVE_ROTOR_COUNT>
10.2

> <PUBCHEM_PHARMACOPHORE_FEATURES>
8
1 1 acceptor
1 2 acceptor
1 3 acceptor
1 4 cation
1 6 donor
5 4 10 11 12 13 rings
6 20 21 22 23 24 25 rings
6 5 7 8 9 14 15 rings

> <PUBCHEM_HEAVY_ATOM_COUNT>
25

> <PUBCHEM_ATOM_DEF_STEREO_COUNT>
0

> <PUBCHEM_ATOM_UDEF_STEREO_COUNT>
0

> <PUBCHEM_BOND_DEF_STEREO_COUNT>
0

> <PUBCHEM_BOND_UDEF_STEREO_COUNT>
0

> <PUBCHEM_ISOTOPIC_ATOM_COUNT>
0

> <PUBCHEM_COMPONENT_COUNT>
1

> <PUBCHEM_CACTVS_TAUTO_COUNT>
2

> <PUBCHEM_CONFORMER_ID>
030B95E600000001

> <PUBCHEM_MMFF94_ENERGY>
54.5618

> <PUBCHEM_FEATURE_SELFOVERLAP>
40.602

> <PUBCHEM_SHAPE_FINGERPRINT>
10 15 15936410005212068001
10280341 67 6266361370497283891
10299344 5 18335135397543423966
10429389 143 11887665166083899406
10740516 88 17986941974262701979
10835480 77 10592044665335500560
11103572 155 18197496436113921227
11387372 6 18335140852390131407
125118 31 8646766708085297810
12778500 126 5978387193375694678
12895836 83 9799696996084900977
12895837 130 9727341446879561539
13668630 136 18131351907771389493
13673619 4 18412830178770038345
13685833 64 18334576836978072416
13690498 29 18202008750082333445
14123256 34 18411702088381804377
14178184 131 18114464440515894047
14251764 18 17240766146785122444
14251764 30 18408326596638600008
14344974 52 9079115541431681507
14347424 109 14129068015350103674
14428016 167 18335991891401184687
14556957 393 15410609341289648567
14767858 380 15195286430124266916
14931854 50 17632866334409596643
15142383 8 7637397420537440582
15183329 4 18040443213278360574
15348495 7 14346378765933166070
15352257 5 18408885144203479326
15510800 12 17988353768693677555
17134984 74 17988926687292196130
1818759 1 18130782331649230259
18335252 98 18408886227283778640
18643901 69 18060699503217178551
20157964 124 11023832790648962136
20511986 3 11311766255674513008
20554085 129 11527669631517090956
20715895 44 9367342656938174818
21150785 3 16128656340584499694
21196832 93 17059764521066855931
21267235 1 18409165506487930017
21298829 104 10303823102757698383
21304304 249 18336265652879921231
21344244 181 18413387631845959362
21403212 168 15430034383627373341
21585481 151 17385721379098886830
21591340 7 6050441497167889029
21774942 28 11167676398799025142
23081809 10 15912774993672375536
23424782 7 18343582928600944384
23522609 53 18119217715335154632
246663 6 18410008831953796426
255183 451 18202002084351391757
2838139 119 7637399623222537667
312425 54 16081385020392850190
33532 11 18408323285087121298
397638 26 14056716846679193639
4107672 100 17988368186534795845
465052 167 18186803582723492788
474113 269 18041857095670585039
5207 217 15195564602476939952
5283384 27 10015860981657087570
5385378 56 14056988447410274148
54039377 194 18334009515228030998
543368 44 10087650308359931551
5470011 282 17775566438140870886
563151 248 17240489074297798503
6058803 2 15505221028254032449
636775 8 18334850659003829862
6371009 1 10663818602791260830
9896288 288 17822846615304502849
999808 66 18411416207206822835

> <PUBCHEM_SHAPE_MULTIPOLES>
481.94
25.62
2.23
1.38
11.33
0.39
0.21
20.79
-0.58
-0.32
-0.11
-0.78
-0.03
0.49

> <PUBCHEM_SHAPE_SELFOVERLAP>
1001.147

> <PUBCHEM_SHAPE_VOLUME>
272.8

> <PUBCHEM_COORDINATE_TYPE>
2
5
10

$$$$

