17395484
  -OEChem-06241222503D

 48 51  0     0  0  0  0  0  0999 V2000
   -4.8698    0.2279    2.6646 O   0  0  0  0  0  0  0  0  0  0  0  0
   -0.1102    1.5294   -0.3249 N   0  0  0  0  0  0  0  0  0  0  0  0
   -2.6095    0.5504   -0.7082 N   0  0  0  0  0  0  0  0  0  0  0  0
   -4.4263   -0.4626    0.4649 N   0  0  0  0  0  0  0  0  0  0  0  0
    2.7105    0.8169   -0.6870 C   0  0  0  0  0  0  0  0  0  0  0  0
    1.9590    1.7245   -1.6667 C   0  0  0  0  0  0  0  0  0  0  0  0
    1.7172   -0.0989    0.0362 C   0  0  0  0  0  0  0  0  0  0  0  0
    0.8164    2.4679   -0.9718 C   0  0  0  0  0  0  0  0  0  0  0  0
    0.5822    0.7046    0.6744 C   0  0  0  0  0  0  0  0  0  0  0  0
    3.7837    0.0037   -1.4053 C   0  0  0  0  0  0  0  0  0  0  0  0
   -1.2238    2.2513    0.2902 C   0  0  0  0  0  0  0  0  0  0  0  0
    4.8416   -0.4830   -0.4530 C   0  0  0  0  0  0  0  0  0  0  0  0
   -2.3678    1.3094    0.4093 C   0  0  0  0  0  0  0  0  0  0  0  0
    5.9686    0.3002   -0.2033 C   0  0  0  0  0  0  0  0  0  0  0  0
    4.6960   -1.7173    0.1800 C   0  0  0  0  0  0  0  0  0  0  0  0
   -3.0837    1.2377    1.5398 C   0  0  0  0  0  0  0  0  0  0  0  0
    6.9497   -0.1508    0.6797 C   0  0  0  0  0  0  0  0  0  0  0  0
    5.6772   -2.1684    1.0629 C   0  0  0  0  0  0  0  0  0  0  0  0
   -3.6002   -0.2894   -0.6555 C   0  0  0  0  0  0  0  0  0  0  0  0
   -4.2172    0.2883    1.6247 C   0  0  0  0  0  0  0  0  0  0  0  0
    6.8041   -1.3852    1.3127 C   0  0  0  0  0  0  0  0  0  0  0  0
   -3.8959   -1.1337   -1.8514 C   0  0  0  0  0  0  0  0  0  0  0  0
   -5.4669   -1.3844    0.4392 C   0  0  0  0  0  0  0  0  0  0  0  0
   -4.9113   -2.0027   -1.8143 C   0  0  0  0  0  0  0  0  0  0  0  0
   -5.7236   -2.1360   -0.6372 C   0  0  0  0  0  0  0  0  0  0  0  0
    3.1839    1.4683    0.0618 H   0  0  0  0  0  0  0  0  0  0  0  0
    1.5552    1.1277   -2.4952 H   0  0  0  0  0  0  0  0  0  0  0  0
    2.6491    2.4543   -2.1068 H   0  0  0  0  0  0  0  0  0  0  0  0
    2.2162   -0.6658    0.8287 H   0  0  0  0  0  0  0  0  0  0  0  0
    1.2939   -0.8296   -0.6655 H   0  0  0  0  0  0  0  0  0  0  0  0
    1.2262    3.1781   -0.2414 H   0  0  0  0  0  0  0  0  0  0  0  0
    0.2851    3.0527   -1.7327 H   0  0  0  0  0  0  0  0  0  0  0  0
   -0.1095   -0.0108    1.1348 H   0  0  0  0  0  0  0  0  0  0  0  0
    0.9877    1.3275    1.4831 H   0  0  0  0  0  0  0  0  0  0  0  0
    4.2718    0.6180   -2.1739 H   0  0  0  0  0  0  0  0  0  0  0  0
    3.3451   -0.8432   -1.9489 H   0  0  0  0  0  0  0  0  0  0  0  0
   -0.9383    2.7107    1.2452 H   0  0  0  0  0  0  0  0  0  0  0  0
   -1.5549    3.0698   -0.3636 H   0  0  0  0  0  0  0  0  0  0  0  0
    6.0928    1.2647   -0.6884 H   0  0  0  0  0  0  0  0  0  0  0  0
    3.8283   -2.3428   -0.0115 H   0  0  0  0  0  0  0  0  0  0  0  0
   -2.8693    1.8511    2.4074 H   0  0  0  0  0  0  0  0  0  0  0  0
    7.8269    0.4592    0.8746 H   0  0  0  0  0  0  0  0  0  0  0  0
    5.5649   -3.1304    1.5542 H   0  0  0  0  0  0  0  0  0  0  0  0
    7.5682   -1.7366    1.9999 H   0  0  0  0  0  0  0  0  0  0  0  0
   -3.2740   -1.0217   -2.7318 H   0  0  0  0  0  0  0  0  0  0  0  0
   -6.0743   -1.4777    1.3327 H   0  0  0  0  0  0  0  0  0  0  0  0
   -5.1430   -2.6250   -2.6711 H   0  0  0  0  0  0  0  0  0  0  0  0
   -6.5379   -2.8510   -0.6442 H   0  0  0  0  0  0  0  0  0  0  0  0
  1 20  2  0  0  0  0
  2  8  1  0  0  0  0
  2  9  1  0  0  0  0
  2 11  1  0  0  0  0
  3 13  1  0  0  0  0
  3 19  2  0  0  0  0
  4 19  1  0  0  0  0
  4 20  1  0  0  0  0
  4 23  1  0  0  0  0
  5  6  1  0  0  0  0
  5  7  1  0  0  0  0
  5 10  1  0  0  0  0
  5 26  1  0  0  0  0
  6  8  1  0  0  0  0
  6 27  1  0  0  0  0
  6 28  1  0  0  0  0
  7  9  1  0  0  0  0
  7 29  1  0  0  0  0
  7 30  1  0  0  0  0
  8 31  1  0  0  0  0
  8 32  1  0  0  0  0
  9 33  1  0  0  0  0
  9 34  1  0  0  0  0
 10 12  1  0  0  0  0
 10 35  1  0  0  0  0
 10 36  1  0  0  0  0
 11 13  1  0  0  0  0
 11 37  1  0  0  0  0
 11 38  1  0  0  0  0
 12 14  2  0  0  0  0
 12 15  1  0  0  0  0
 13 16  2  0  0  0  0
 14 17  1  0  0  0  0
 14 39  1  0  0  0  0
 15 18  2  0  0  0  0
 15 40  1  0  0  0  0
 16 20  1  0  0  0  0
 16 41  1  0  0  0  0
 17 21  2  0  0  0  0
 17 42  1  0  0  0  0
 18 21  1  0  0  0  0
 18 43  1  0  0  0  0
 19 22  1  0  0  0  0
 21 44  1  0  0  0  0
 22 24  2  0  0  0  0
 22 45  1  0  0  0  0
 23 25  2  0  0  0  0
 23 46  1  0  0  0  0
 24 25  1  0  0  0  0
 24 47  1  0  0  0  0
 25 48  1  0  0  0  0
M  END
> <PUBCHEM_COMPOUND_CID>
17395484

> <PUBCHEM_CONFORMER_RMSD>
0.8

> <PUBCHEM_CONFORMER_DIVERSEORDER>
3
51
73
38
27
98
72
81
96
6
91
53
76
88
58
79
86
44
84
90
23
14
52
74
97
46
77
41
26
28
89
31
36
12
75
71
42
82
83
68
24
13
61
93
25
32
80
94
67
48
21
1
69
45
33
63
19
50
56
4
64
17
37
87
11
55
49
70
57
62
95
2
10
60
59
92
85
65
8
66
22
29
18
9
39
78
47
15
34
54
40
30
16
35
20
43
7
5

> <PUBCHEM_MMFF94_PARTIAL_CHARGES>
32
1 -0.57
10 0.14
11 0.41
12 -0.14
13 0.03
14 -0.15
15 -0.15
16 -0.14
17 -0.15
18 -0.15
19 0.5
2 -0.81
20 0.62
21 -0.15
22 -0.14
23 -0.04
24 -0.15
25 -0.15
3 -0.62
39 0.15
4 -0.23
40 0.15
41 0.15
42 0.15
43 0.15
44 0.15
45 0.15
46 0.15
47 0.15
48 0.15
8 0.27
9 0.27

> <PUBCHEM_EFFECTIVE_ROTOR_COUNT>
5.2

> <PUBCHEM_PHARMACOPHORE_FEATURES>
6
1 1 acceptor
1 2 cation
6 12 14 15 17 18 21 rings
6 2 5 6 7 8 9 rings
6 3 4 13 16 19 20 rings
6 4 19 22 23 24 25 rings

> <PUBCHEM_HEAVY_ATOM_COUNT>
25

> <PUBCHEM_ATOM_DEF_STEREO_COUNT>
0

> <PUBCHEM_ATOM_UDEF_STEREO_COUNT>
0

> <PUBCHEM_BOND_DEF_STEREO_COUNT>
0

> <PUBCHEM_BOND_UDEF_STEREO_COUNT>
0

> <PUBCHEM_ISOTOPIC_ATOM_COUNT>
0

> <PUBCHEM_COMPONENT_COUNT>
1

> <PUBCHEM_CACTVS_TAUTO_COUNT>
1

> <PUBCHEM_CONFORMER_ID>
01096F1C00000003

> <PUBCHEM_MMFF94_ENERGY>
60.1688

> <PUBCHEM_FEATURE_SELFOVERLAP>
30.479

> <PUBCHEM_SHAPE_FINGERPRINT>
10 15 15213019349419956914
10319688 67 16733811104537894979
10319926 262 16732974327963464529
10447042 23 17846215575464328398
10571361 74 18341343253222428018
10670039 82 11383835960929307190
10939801 23 17970352516846271510
12342043 65 16198433474920005033
12390115 104 7565049584656105740
12422481 6 17968935443526066326
12523318 42 17168136854398727793
12596602 18 17530681030970310138
12616971 3 18339629092660121205
12633257 1 15357983300532818069
13782708 43 16558455401522400595
13862211 1 18201720665445924050
13885169 86 6843909607891728170
14790565 3 7492997475570716770
14848178 5 17632293510595172128
15064981 194 12247671687367312447
15183329 4 17988922267354246602
15188451 53 17967537852693609239
15320294 125 18187365394415960863
15326921 28 17681260389777712313
15728490 51 18336271146496215166
17349148 13 18343293791106925152
17780758 139 17603586327108855155
17857418 61 18410855460381486350
17913733 40 4751161817517131708
1813 80 18340189860796653932
19377110 9 18113898235018745168
19841028 212 17898862240928992015
20028762 73 18408604764739107966
20567600 247 18343868792448903018
20621476 91 18040444291103849762
21033648 29 16734646780393233593
21315759 148 16515675663481215246
22061861 79 16702299053413374662
22393880 68 15554447362156471288
23389318 12 17489866065032814278
23402539 116 18131067181895183172
23522609 53 18118654722147113272
23536364 44 16630813231049575077
23559900 14 16200148746959864541
255183 451 13394923964129771881
2838139 119 10879991354718356462
312425 54 17458617973523049622
314194 84 18343860018157388008
3663271 9 17822293500762781754
3882209 13 15506070942689784543
397830 11 17095529478777257552
4015057 19 17560509630164742700
4258327 124 7132431290543052905
439807 62 18200875059611516511
445580 182 17458337563961557099
44880568 143 15123510320112239598
46194498 28 15409746095796727724
4938544 92 17530960336967548025
5104073 3 17676486107829566945
5364581 5 16081663174795241907
559249 180 18408322199203901685
6034566 193 8286199448809329185
6431902 208 18202282528435269402
6712543 237 17896043316005059402
7495541 125 18041287621281870096
7970288 3 18342175544510693835
96874 4 18338244785998857815
9689198 14 15285642050445173408
9953998 17 17458063780696358163

> <PUBCHEM_SHAPE_MULTIPOLES>
493.68
18.25
2.38
1.81
13.94
0.05
0.29
-13.01
4
-0.64
-0.4
-1.89
-0.06
-3.11

> <PUBCHEM_SHAPE_SELFOVERLAP>
1066.347

> <PUBCHEM_SHAPE_VOLUME>
267.7

> <PUBCHEM_COORDINATE_TYPE>
2
5
10

$$$$

