5686
  -OEChem-06261200492D

 79 82  0     1  0  0  0  0  0999 V2000
   11.9991   -0.0434    0.0000 O   0  0  0  0  0  0  0  0  0  0  0  0
    9.4096    0.1197    0.0000 O   0  0  0  0  0  0  0  0  0  0  0  0
    2.0000    4.3371    0.0000 O   0  0  0  0  0  0  0  0  0  0  0  0
    7.0716   -0.9118    0.0000 O   0  0  0  0  0  0  0  0  0  0  0  0
    9.5970   -3.3030    0.0000 O   0  0  0  0  0  0  0  0  0  0  0  0
    4.6390    5.0442    0.0000 O   0  0  0  0  0  0  0  0  0  0  0  0
   11.0112    1.1112    0.0000 N   0  0  0  0  0  0  0  0  0  0  0  0
    8.3132    1.3700    0.0000 N   0  0  0  0  0  0  0  0  0  0  0  0
   10.4630   -1.8030    0.0000 N   0  0  0  0  0  0  0  0  0  0  0  0
    8.7309   -0.8030    0.0000 N   0  0  0  0  0  0  0  0  0  0  0  0
   10.1451    1.6112    0.0000 C   0  0  3  0  0  0  0  0  0  0  0  0
   10.3543    2.5830    0.0000 C   0  0  0  0  0  0  0  0  0  0  0  0
   11.3431    2.6860    0.0000 C   0  0  0  0  0  0  0  0  0  0  0  0
   11.7482    1.7782    0.0000 C   0  0  0  0  0  0  0  0  0  0  0  0
   10.4630   -0.8030    0.0000 C   0  0  3  0  0  0  0  0  0  0  0  0
   11.0112    0.1112    0.0000 C   0  0  0  0  0  0  0  0  0  0  0  0
    9.2791    1.1112    0.0000 C   0  0  0  0  0  0  0  0  0  0  0  0
    9.4817   -0.9957    0.0000 C   0  0  0  0  0  0  0  0  0  0  0  0
    7.6061    0.6629    0.0000 C   0  0  3  0  0  0  0  0  0  0  0  0
    6.6402    0.9217    0.0000 C   0  0  0  0  0  0  0  0  0  0  0  0
    6.3813    1.8876    0.0000 C   0  0  0  0  0  0  0  0  0  0  0  0
    8.7309   -1.8030    0.0000 C   0  0  3  0  0  0  0  0  0  0  0  0
    7.8649   -0.3030    0.0000 C   0  0  0  0  0  0  0  0  0  0  0  0
    9.1093   -2.0837    0.0000 C   0  0  0  0  0  0  0  0  0  0  0  0
    8.8243   -0.2422    0.0000 C   0  0  0  0  0  0  0  0  0  0  0  0
    5.4154    2.1465    0.0000 C   0  0  0  0  0  0  0  0  0  0  0  0
    9.5970   -2.3030    0.0000 C   0  0  0  0  0  0  0  0  0  0  0  0
    5.1566    3.1124    0.0000 C   0  0  0  0  0  0  0  0  0  0  0  0
    7.8649   -2.3030    0.0000 C   0  0  0  0  0  0  0  0  0  0  0  0
    4.1907    3.3712    0.0000 C   0  0  0  0  0  0  0  0  0  0  0  0
    2.9659    4.5959    0.0000 C   0  0  3  0  0  0  0  0  0  0  0  0
    3.9318    4.3371    0.0000 C   0  0  0  0  0  0  0  0  0  0  0  0
    2.2588    5.3030    0.0000 C   0  0  0  0  0  0  0  0  0  0  0  0
    7.8649   -3.3030    0.0000 C   0  0  0  0  0  0  0  0  0  0  0  0
    6.9989   -3.8030    0.0000 C   0  0  0  0  0  0  0  0  0  0  0  0
    8.7309   -3.8030    0.0000 C   0  0  0  0  0  0  0  0  0  0  0  0
    6.9989   -4.8030    0.0000 C   0  0  0  0  0  0  0  0  0  0  0  0
    8.7309   -4.8030    0.0000 C   0  0  0  0  0  0  0  0  0  0  0  0
    7.8649   -5.3030    0.0000 C   0  0  0  0  0  0  0  0  0  0  0  0
    9.6440    1.9762    0.0000 H   0  0  0  0  0  0  0  0  0  0  0  0
   10.3552    3.2030    0.0000 H   0  0  0  0  0  0  0  0  0  0  0  0
    9.7379    2.6490    0.0000 H   0  0  0  0  0  0  0  0  0  0  0  0
   12.1136    1.2774    0.0000 H   0  0  0  0  0  0  0  0  0  0  0  0
   12.2847    2.0890    0.0000 H   0  0  0  0  0  0  0  0  0  0  0  0
   11.9327    2.8778    0.0000 H   0  0  0  0  0  0  0  0  0  0  0  0
   11.2143    3.2925    0.0000 H   0  0  0  0  0  0  0  0  0  0  0  0
   10.0691   -1.2818    0.0000 H   0  0  0  0  0  0  0  0  0  0  0  0
    9.8893   -1.4628    0.0000 H   0  0  0  0  0  0  0  0  0  0  0  0
    7.4456    1.2618    0.0000 H   0  0  0  0  0  0  0  0  0  0  0  0
    8.1527    1.9689    0.0000 H   0  0  0  0  0  0  0  0  0  0  0  0
    6.0225    0.8677    0.0000 H   0  0  0  0  0  0  0  0  0  0  0  0
    6.5861    0.3041    0.0000 H   0  0  0  0  0  0  0  0  0  0  0  0
   10.9999   -2.1130    0.0000 H   0  0  0  0  0  0  0  0  0  0  0  0
    6.9990    1.9417    0.0000 H   0  0  0  0  0  0  0  0  0  0  0  0
    6.4354    2.5053    0.0000 H   0  0  0  0  0  0  0  0  0  0  0  0
    8.1940   -1.4930    0.0000 H   0  0  0  0  0  0  0  0  0  0  0  0
    4.7978    2.0924    0.0000 H   0  0  0  0  0  0  0  0  0  0  0  0
    5.3614    1.5288    0.0000 H   0  0  0  0  0  0  0  0  0  0  0  0
    9.2914    0.1655    0.0000 H   0  0  0  0  0  0  0  0  0  0  0  0
    8.4166    0.2250    0.0000 H   0  0  0  0  0  0  0  0  0  0  0  0
    8.3571   -0.6498    0.0000 H   0  0  0  0  0  0  0  0  0  0  0  0
    8.5227   -1.8829    0.0000 H   0  0  0  0  0  0  0  0  0  0  0  0
    8.9085   -2.6702    0.0000 H   0  0  0  0  0  0  0  0  0  0  0  0
    9.6958   -2.2844    0.0000 H   0  0  0  0  0  0  0  0  0  0  0  0
    9.2679   -0.4930    0.0000 H   0  0  0  0  0  0  0  0  0  0  0  0
    5.7742    3.1664    0.0000 H   0  0  0  0  0  0  0  0  0  0  0  0
    5.2106    3.7300    0.0000 H   0  0  0  0  0  0  0  0  0  0  0  0
    7.6528   -1.7204    0.0000 H   0  0  0  0  0  0  0  0  0  0  0  0
    7.2543   -2.4107    0.0000 H   0  0  0  0  0  0  0  0  0  0  0  0
    3.5730    3.3172    0.0000 H   0  0  0  0  0  0  0  0  0  0  0  0
    4.1366    2.7536    0.0000 H   0  0  0  0  0  0  0  0  0  0  0  0
    2.9659    3.9759    0.0000 H   0  0  0  0  0  0  0  0  0  0  0  0
    2.6144    5.8109    0.0000 H   0  0  0  0  0  0  0  0  0  0  0  0
    1.6969    5.5651    0.0000 H   0  0  0  0  0  0  0  0  0  0  0  0
    6.4619   -3.4930    0.0000 H   0  0  0  0  0  0  0  0  0  0  0  0
    9.2679   -3.4930    0.0000 H   0  0  0  0  0  0  0  0  0  0  0  0
    6.4619   -5.1130    0.0000 H   0  0  0  0  0  0  0  0  0  0  0  0
    9.2679   -5.1130    0.0000 H   0  0  0  0  0  0  0  0  0  0  0  0
    7.8649   -5.9230    0.0000 H   0  0  0  0  0  0  0  0  0  0  0  0
  1 16  2  0  0  0  0
  2 17  2  0  0  0  0
  3 31  1  0  0  0  0
  3 33  1  0  0  0  0
  4 23  2  0  0  0  0
  5 27  2  0  0  0  0
  6 32  2  0  0  0  0
  7 11  1  0  0  0  0
  7 14  1  0  0  0  0
  7 16  1  0  0  0  0
  8 17  1  0  0  0  0
  8 19  1  0  0  0  0
  8 50  1  0  0  0  0
  9 15  1  0  0  0  0
  9 27  1  0  0  0  0
  9 53  1  0  0  0  0
 10 22  1  0  0  0  0
 10 23  1  0  0  0  0
 10 65  1  0  0  0  0
 11 12  1  0  0  0  0
 11 17  1  0  0  0  0
 11 40  1  0  0  0  0
 12 13  1  0  0  0  0
 12 41  1  0  0  0  0
 12 42  1  0  0  0  0
 13 14  1  0  0  0  0
 13 45  1  0  0  0  0
 13 46  1  0  0  0  0
 14 43  1  0  0  0  0
 14 44  1  0  0  0  0
 15 16  1  0  0  0  0
 15 18  1  0  0  0  0
 15 47  1  0  0  0  0
 18 24  1  0  0  0  0
 18 25  1  0  0  0  0
 18 48  1  0  0  0  0
 19 20  1  0  0  0  0
 19 23  1  0  0  0  0
 19 49  1  0  0  0  0
 20 21  1  0  0  0  0
 20 51  1  0  0  0  0
 20 52  1  0  0  0  0
 21 26  1  0  0  0  0
 21 54  1  0  0  0  0
 21 55  1  0  0  0  0
 22 27  1  0  0  0  0
 22 29  1  0  0  0  0
 22 56  1  0  0  0  0
 24 62  1  0  0  0  0
 24 63  1  0  0  0  0
 24 64  1  0  0  0  0
 25 59  1  0  0  0  0
 25 60  1  0  0  0  0
 25 61  1  0  0  0  0
 26 28  1  0  0  0  0
 26 57  1  0  0  0  0
 26 58  1  0  0  0  0
 28 30  1  0  0  0  0
 28 66  1  0  0  0  0
 28 67  1  0  0  0  0
 29 34  1  0  0  0  0
 29 68  1  0  0  0  0
 29 69  1  0  0  0  0
 30 32  1  0  0  0  0
 30 70  1  0  0  0  0
 30 71  1  0  0  0  0
 31 32  1  0  0  0  0
 31 33  1  0  0  0  0
 31 72  1  0  0  0  0
 33 73  1  0  0  0  0
 33 74  1  0  0  0  0
 34 35  2  0  0  0  0
 34 36  1  0  0  0  0
 35 37  1  0  0  0  0
 35 75  1  0  0  0  0
 36 38  2  0  0  0  0
 36 76  1  0  0  0  0
 37 39  2  0  0  0  0
 37 77  1  0  0  0  0
 38 39  1  0  0  0  0
 38 78  1  0  0  0  0
 39 79  1  0  0  0  0
M  END
> <PUBCHEM_COMPOUND_CID>
5686

> <PUBCHEM_COMPOUND_CANONICALIZED>
1

> <PUBCHEM_CACTVS_COMPLEXITY>
918

> <PUBCHEM_CACTVS_HBOND_ACCEPTOR>
6

> <PUBCHEM_CACTVS_HBOND_DONOR>
3

> <PUBCHEM_CACTVS_ROTATABLE_BOND>
10

> <PUBCHEM_CACTVS_SUBSKEYS>
AAADcfB7uAAAAAAAAAAAAAAAEgAAAWAAAAAwAAAAAAAAAAABAAAAHgAQAAAADTzhmAYyAIPABACIAqFSEAICAAAgAAAIiIHIAIgIYDaAkTWUIAAktgCIiAeYyaCOAAAAAAAAAAAAAAAAAAAAAAAAAAAAAA==

> <PUBCHEM_IUPAC_OPENEYE_NAME>
6-benzyl-3-isopropyl-9-[6-(oxiran-2-yl)-6-oxo-hexyl]-1,4,7,10-tetrazabicyclo[10.3.0]pentadecane-2,5,8,11-tetrone

> <PUBCHEM_IUPAC_CAS_NAME>
9-[6-(2-oxiranyl)-6-oxohexyl]-6-(phenylmethyl)-3-propan-2-yl-1,4,7,10-tetrazabicyclo[10.3.0]pentadecane-2,5,8,11-tetrone

> <PUBCHEM_IUPAC_NAME>
6-benzyl-9-[6-(oxiran-2-yl)-6-oxohexyl]-3-propan-2-yl-1,4,7,10-tetrazabicyclo[10.3.0]pentadecane-2,5,8,11-tetrone

> <PUBCHEM_IUPAC_SYSTEMATIC_NAME>
9-[6-oxidanylidene-6-(oxiran-2-yl)hexyl]-6-(phenylmethyl)-3-propan-2-yl-1,4,7,10-tetrazabicyclo[10.3.0]pentadecane-2,5,8,11-tetrone

> <PUBCHEM_IUPAC_TRADITIONAL_NAME>
6-benzyl-3-isopropyl-9-[6-keto-6-(oxiran-2-yl)hexyl]-1,4,7,10-tetrazabicyclo[10.3.0]pentadecane-2,5,8,11-diquinone

> <PUBCHEM_IUPAC_INCHI>
InChI=1S/C29H40N4O6/c1-18(2)25-29(38)33-15-9-13-22(33)28(37)30-20(12-7-4-8-14-23(34)24-17-39-24)26(35)31-21(27(36)32-25)16-19-10-5-3-6-11-19/h3,5-6,10-11,18,20-22,24-25H,4,7-9,12-17H2,1-2H3,(H,30,37)(H,31,35)(H,32,36)

> <PUBCHEM_IUPAC_INCHIKEY>
RFUPEJDDHPLUJZ-UHFFFAOYSA-N

> <PUBCHEM_XLOGP3_AA>
2.4

> <PUBCHEM_EXACT_MASS>
540.294785

> <PUBCHEM_MOLECULAR_FORMULA>
C29H40N4O6

> <PUBCHEM_MOLECULAR_WEIGHT>
540.6511

> <PUBCHEM_OPENEYE_CAN_SMILES>
CC(C)C1C(=O)N2CCCC2C(=O)NC(C(=O)NC(C(=O)N1)CC3=CC=CC=C3)CCCCCC(=O)C4CO4

> <PUBCHEM_OPENEYE_ISO_SMILES>
CC(C)C1C(=O)N2CCCC2C(=O)NC(C(=O)NC(C(=O)N1)CC3=CC=CC=C3)CCCCCC(=O)C4CO4

> <PUBCHEM_CACTVS_TPSA>
137

> <PUBCHEM_MONOISOTOPIC_WEIGHT>
540.294785

> <PUBCHEM_TOTAL_CHARGE>
0

> <PUBCHEM_HEAVY_ATOM_COUNT>
39

> <PUBCHEM_ATOM_DEF_STEREO_COUNT>
0

> <PUBCHEM_ATOM_UDEF_STEREO_COUNT>
5

> <PUBCHEM_BOND_DEF_STEREO_COUNT>
0

> <PUBCHEM_BOND_UDEF_STEREO_COUNT>
0

> <PUBCHEM_ISOTOPIC_ATOM_COUNT>
0

> <PUBCHEM_COMPONENT_COUNT>
1

> <PUBCHEM_CACTVS_TAUTO_COUNT>
162

> <PUBCHEM_COORDINATE_TYPE>
1
5
255

> <PUBCHEM_BONDANNOTATIONS>
11  12  3
15  18  3
19  20  3
22  29  3
31  32  3
34  35  8
34  36  8
35  37  8
36  38  8
37  39  8
38  39  8

$$$$

