854281
  -OEChem-06241222473D

 41 44  0     0  0  0  0  0  0999 V2000
   -1.2513   -0.6285   -0.9148 O   0  0  0  0  0  0  0  0  0  0  0  0
    0.5686    1.6027   -0.3267 N   0  0  0  0  0  0  0  0  0  0  0  0
    0.3840   -0.0776    1.4645 N   0  0  0  0  0  0  0  0  0  0  0  0
   -0.0729    1.1958    0.9188 C   0  0  0  0  0  0  0  0  0  0  0  0
    2.3885    0.0478    0.0956 C   0  0  0  0  0  0  0  0  0  0  0  0
    1.8392    1.1234   -0.6287 C   0  0  0  0  0  0  0  0  0  0  0  0
    1.6563   -0.5407    1.1448 C   0  0  0  0  0  0  0  0  0  0  0  0
   -1.5462    1.1150    0.6911 C   0  0  0  0  0  0  0  0  0  0  0  0
    3.6704   -0.4524   -0.2413 C   0  0  0  0  0  0  0  0  0  0  0  0
   -2.0795    0.2026   -0.2195 C   0  0  0  0  0  0  0  0  0  0  0  0
    2.5631    1.6746   -1.6940 C   0  0  0  0  0  0  0  0  0  0  0  0
    2.1999   -1.6332    1.8332 C   0  0  0  0  0  0  0  0  0  0  0  0
   -2.3927    1.9656    1.4025 C   0  0  0  0  0  0  0  0  0  0  0  0
   -3.4587    0.1407   -0.4186 C   0  0  0  0  0  0  0  0  0  0  0  0
    4.3806    0.1351   -1.2979 C   0  0  0  0  0  0  0  0  0  0  0  0
    4.1975   -1.5327    0.4808 C   0  0  0  0  0  0  0  0  0  0  0  0
    3.8279    1.1899   -2.0211 C   0  0  0  0  0  0  0  0  0  0  0  0
    3.4644   -2.1205    1.5094 C   0  0  0  0  0  0  0  0  0  0  0  0
   -3.7718    1.9038    1.2034 C   0  0  0  0  0  0  0  0  0  0  0  0
   -4.3049    0.9914    0.2929 C   0  0  0  0  0  0  0  0  0  0  0  0
   -4.0491   -0.8283   -1.3893 C   0  0  0  0  0  0  0  0  0  0  0  0
   -4.3855   -2.1563   -0.7635 C   0  0  0  0  0  0  0  0  0  0  0  0
   -3.8279   -3.3183   -1.1216 C   0  0  0  0  0  0  0  0  0  0  0  0
    0.1576    1.9663    1.6654 H   0  0  0  0  0  0  0  0  0  0  0  0
    0.2319    2.4270   -0.8113 H   0  0  0  0  0  0  0  0  0  0  0  0
   -0.0867   -0.4679    2.2731 H   0  0  0  0  0  0  0  0  0  0  0  0
    2.1459    2.4943   -2.2746 H   0  0  0  0  0  0  0  0  0  0  0  0
    1.6402   -2.1097    2.6349 H   0  0  0  0  0  0  0  0  0  0  0  0
   -1.9947    2.6823    2.1160 H   0  0  0  0  0  0  0  0  0  0  0  0
    5.3672   -0.2309   -1.5743 H   0  0  0  0  0  0  0  0  0  0  0  0
    5.1803   -1.9330    0.2413 H   0  0  0  0  0  0  0  0  0  0  0  0
    4.3818    1.6321   -2.8442 H   0  0  0  0  0  0  0  0  0  0  0  0
    3.8773   -2.9630    2.0567 H   0  0  0  0  0  0  0  0  0  0  0  0
   -4.4308    2.5657    1.7577 H   0  0  0  0  0  0  0  0  0  0  0  0
   -5.3817    0.9538    0.1495 H   0  0  0  0  0  0  0  0  0  0  0  0
   -4.9703   -0.4085   -1.8149 H   0  0  0  0  0  0  0  0  0  0  0  0
   -3.3815   -0.9574   -2.2509 H   0  0  0  0  0  0  0  0  0  0  0  0
   -0.3259   -0.4763   -0.6751 H   0  0  0  0  0  0  0  0  0  0  0  0
   -5.1419   -2.1637    0.0177 H   0  0  0  0  0  0  0  0  0  0  0  0
   -4.1213   -4.2419   -0.6345 H   0  0  0  0  0  0  0  0  0  0  0  0
   -3.0738   -3.3691   -1.8990 H   0  0  0  0  0  0  0  0  0  0  0  0
  1 10  1  0  0  0  0
  1 38  1  0  0  0  0
  2  4  1  0  0  0  0
  2  6  1  0  0  0  0
  2 25  1  0  0  0  0
  3  4  1  0  0  0  0
  3  7  1  0  0  0  0
  3 26  1  0  0  0  0
  4  8  1  0  0  0  0
  4 24  1  0  0  0  0
  5  6  1  0  0  0  0
  5  7  1  0  0  0  0
  5  9  2  0  0  0  0
  6 11  2  0  0  0  0
  7 12  2  0  0  0  0
  8 10  1  0  0  0  0
  8 13  2  0  0  0  0
  9 15  1  0  0  0  0
  9 16  1  0  0  0  0
 10 14  2  0  0  0  0
 11 17  1  0  0  0  0
 11 27  1  0  0  0  0
 12 18  1  0  0  0  0
 12 28  1  0  0  0  0
 13 19  1  0  0  0  0
 13 29  1  0  0  0  0
 14 20  1  0  0  0  0
 14 21  1  0  0  0  0
 15 17  2  0  0  0  0
 15 30  1  0  0  0  0
 16 18  2  0  0  0  0
 16 31  1  0  0  0  0
 17 32  1  0  0  0  0
 18 33  1  0  0  0  0
 19 20  2  0  0  0  0
 19 34  1  0  0  0  0
 20 35  1  0  0  0  0
 21 22  1  0  0  0  0
 21 36  1  0  0  0  0
 21 37  1  0  0  0  0
 22 23  2  0  0  0  0
 22 39  1  0  0  0  0
 23 40  1  0  0  0  0
 23 41  1  0  0  0  0
M  END
> <PUBCHEM_COMPOUND_CID>
854281

> <PUBCHEM_CONFORMER_RMSD>
0.6

> <PUBCHEM_CONFORMER_DIVERSEORDER>
1
17
11
22
14
21
18
23
10
12
16
25
19
7
20
8
24
5
9
13
3
15
2
6
4

> <PUBCHEM_MMFF94_PARTIAL_CHARGES>
36
1 -0.53
10 0.08
11 -0.15
12 -0.15
13 -0.15
14 -0.14
15 -0.15
16 -0.15
17 -0.15
18 -0.15
19 -0.15
2 -0.87
20 -0.15
21 0.28
22 -0.29
23 -0.3
25 0.4
26 0.4
27 0.15
28 0.15
29 0.15
3 -0.87
30 0.15
31 0.15
32 0.15
33 0.15
34 0.15
35 0.15
38 0.45
39 0.15
4 0.88
40 0.15
41 0.15
6 0.1
7 0.1
8 -0.14

> <PUBCHEM_EFFECTIVE_ROTOR_COUNT>
3.6

> <PUBCHEM_PHARMACOPHORE_FEATURES>
10
1 1 donor
1 2 cation
1 2 donor
1 23 hydrophobe
1 3 cation
1 3 donor
6 2 3 4 5 6 7 rings
6 5 6 9 11 15 17 rings
6 5 7 9 12 16 18 rings
6 8 10 13 14 19 20 rings

> <PUBCHEM_HEAVY_ATOM_COUNT>
23

> <PUBCHEM_ATOM_DEF_STEREO_COUNT>
0

> <PUBCHEM_ATOM_UDEF_STEREO_COUNT>
0

> <PUBCHEM_BOND_DEF_STEREO_COUNT>
0

> <PUBCHEM_BOND_UDEF_STEREO_COUNT>
0

> <PUBCHEM_ISOTOPIC_ATOM_COUNT>
0

> <PUBCHEM_COMPONENT_COUNT>
1

> <PUBCHEM_CACTVS_TAUTO_COUNT>
3

> <PUBCHEM_CONFORMER_ID>
000D090900000001

> <PUBCHEM_MMFF94_ENERGY>
82.7945

> <PUBCHEM_FEATURE_SELFOVERLAP>
50.875

> <PUBCHEM_SHAPE_FINGERPRINT>
10042902 136 18191307294068128950
10062212 137 18410292553557008257
10622 236 18198084593115111675
10928967 22 18044944467770049047
11471102 20 17560787875589336240
11552529 35 6554537959902719781
11578080 2 18123781817760589744
11725454 13 14691744103606146175
11796584 16 18186799205465912262
12236239 1 18339636849360501840
12616971 3 18201998875646122688
12714826 92 17458337520911650473
12788726 201 18335134246761792299
12969540 114 15913333459690028083
13009979 54 18337393850061257410
13726171 33 17678716986958228193
14289585 56 17559674125976526998
14294032 229 17752757207553675993
14386348 63 15864071004774552388
15537594 2 18340480072295909323
15842332 3 18341045302370400257
16752209 62 18113624482340284063
17138139 8 18124322596834061006
17349148 13 18113911493587920181
17818456 19 17833266798143090864
1813 80 17840582918760420106
18186145 218 15410607142145033641
18915474 69 18411705374032045727
20511986 3 18339371832835690908
20600515 1 17531535394012011200
20626108 58 18335428958405176812
20645477 70 17275098453397359288
21054139 6 18270402668581827590
21065201 7 17458900552079404740
22182313 1 15482663585189559961
235170 7 16558483980530842839
23557571 272 17095238159419253201
23559900 14 16950837132922656380
23598291 2 18343582970774936470
238 59 17060068003445142006
474 4 17845356800658700460
5281201 14 16415189126538515628
56638632 33 16740000435004150902
574716 61 18202283593513085039
602551 16 17676491669838393422
633830 44 16917070001067267869
7471813 234 17845384404560659136
77492 1 18339636845086627056

> <PUBCHEM_SHAPE_MULTIPOLES>
457.5
10.01
2.64
1.84
2.46
1.57
-0.06
3.27
-2.7
2.1
-0.06
-0.99
0.02
-3.81

> <PUBCHEM_SHAPE_SELFOVERLAP>
1020.946

> <PUBCHEM_SHAPE_VOLUME>
241.6

> <PUBCHEM_COORDINATE_TYPE>
2
5
10

$$$$

