582771
  -OEChem-06241222442D

 51 54  0     0  0  0  0  0  0999 V2000
    5.9233    0.6726    0.0000 S   0  0  0  0  0  0  0  0  0  0  0  0
    4.9233    0.6726    0.0000 O   0  0  0  0  0  0  0  0  0  0  0  0
    6.9233    0.6726    0.0000 O   0  0  0  0  0  0  0  0  0  0  0  0
    5.9233   -0.3274    0.0000 N   0  0  0  0  0  0  0  0  0  0  0  0
    2.6164   -2.6593    0.0000 N   0  0  0  0  0  0  0  0  0  0  0  0
    7.6717    4.7072    0.0000 N   0  0  0  0  0  0  0  0  0  0  0  0
    5.0573   -1.8274    0.0000 C   0  0  0  0  0  0  0  0  0  0  0  0
    5.0573   -0.8274    0.0000 C   0  0  0  0  0  0  0  0  0  0  0  0
    4.1912   -2.3274    0.0000 C   0  0  0  0  0  0  0  0  0  0  0  0
    5.9233    1.6726    0.0000 C   0  0  0  0  0  0  0  0  0  0  0  0
    6.7893    2.1726    0.0000 C   0  0  0  0  0  0  0  0  0  0  0  0
    6.7893    3.1726    0.0000 C   0  0  0  0  0  0  0  0  0  0  0  0
    4.0882   -3.3161    0.0000 C   0  0  0  0  0  0  0  0  0  0  0  0
    3.1097   -3.5224    0.0000 C   0  0  0  0  0  0  0  0  0  0  0  0
    7.6833    3.7073    0.0000 C   0  0  0  0  0  0  0  0  0  0  0  0
    3.2835   -1.9223    0.0000 C   0  0  0  0  0  0  0  0  0  0  0  0
    5.0573    2.1726    0.0000 C   0  0  0  0  0  0  0  0  0  0  0  0
    7.6833    1.6379    0.0000 C   0  0  0  0  0  0  0  0  0  0  0  0
    5.9233    3.6726    0.0000 C   0  0  0  0  0  0  0  0  0  0  0  0
    5.0573    3.1726    0.0000 C   0  0  0  0  0  0  0  0  0  0  0  0
    4.7560   -4.0604    0.0000 C   0  0  0  0  0  0  0  0  0  0  0  0
    8.5893    3.1934    0.0000 C   0  0  0  0  0  0  0  0  0  0  0  0
    8.5893    2.1518    0.0000 C   0  0  0  0  0  0  0  0  0  0  0  0
    2.7990   -4.4729    0.0000 C   0  0  0  0  0  0  0  0  0  0  0  0
    4.4454   -5.0110    0.0000 C   0  0  0  0  0  0  0  0  0  0  0  0
    3.4669   -5.2172    0.0000 C   0  0  0  0  0  0  0  0  0  0  0  0
    8.5319    5.2172    0.0000 C   0  0  0  0  0  0  0  0  0  0  0  0
    6.8000    5.1971    0.0000 C   0  0  0  0  0  0  0  0  0  0  0  0
    5.2693   -2.4100    0.0000 H   0  0  0  0  0  0  0  0  0  0  0  0
    5.6678   -1.7197    0.0000 H   0  0  0  0  0  0  0  0  0  0  0  0
    4.8452   -0.2448    0.0000 H   0  0  0  0  0  0  0  0  0  0  0  0
    4.4467   -0.9351    0.0000 H   0  0  0  0  0  0  0  0  0  0  0  0
    6.4602   -0.6374    0.0000 H   0  0  0  0  0  0  0  0  0  0  0  0
    3.1556   -1.3156    0.0000 H   0  0  0  0  0  0  0  0  0  0  0  0
    4.5203    1.8626    0.0000 H   0  0  0  0  0  0  0  0  0  0  0  0
    2.0000   -2.5924    0.0000 H   0  0  0  0  0  0  0  0  0  0  0  0
    7.6761    1.0180    0.0000 H   0  0  0  0  0  0  0  0  0  0  0  0
    5.9233    4.2926    0.0000 H   0  0  0  0  0  0  0  0  0  0  0  0
    4.5203    3.4826    0.0000 H   0  0  0  0  0  0  0  0  0  0  0  0
    5.3627   -3.9326    0.0000 H   0  0  0  0  0  0  0  0  0  0  0  0
    9.1251    3.5055    0.0000 H   0  0  0  0  0  0  0  0  0  0  0  0
    9.1251    1.8397    0.0000 H   0  0  0  0  0  0  0  0  0  0  0  0
    2.1923   -4.6007    0.0000 H   0  0  0  0  0  0  0  0  0  0  0  0
    4.8594   -5.4724    0.0000 H   0  0  0  0  0  0  0  0  0  0  0  0
    3.2743   -5.8065    0.0000 H   0  0  0  0  0  0  0  0  0  0  0  0
    8.8481    4.6838    0.0000 H   0  0  0  0  0  0  0  0  0  0  0  0
    7.1037    5.7376    0.0000 H   0  0  0  0  0  0  0  0  0  0  0  0
    6.2595    5.5009    0.0000 H   0  0  0  0  0  0  0  0  0  0  0  0
    6.4962    4.6567    0.0000 H   0  0  0  0  0  0  0  0  0  0  0  0
    9.0652    5.5334    0.0000 H   0  0  0  0  0  0  0  0  0  0  0  0
    8.2157    5.7505    0.0000 H   0  0  0  0  0  0  0  0  0  0  0  0
  1  2  2  0  0  0  0
  1  3  2  0  0  0  0
  1  4  1  0  0  0  0
  1 10  1  0  0  0  0
  4  8  1  0  0  0  0
  4 33  1  0  0  0  0
  5 14  1  0  0  0  0
  5 16  1  0  0  0  0
  5 36  1  0  0  0  0
  6 15  1  0  0  0  0
  6 27  1  0  0  0  0
  6 28  1  0  0  0  0
  7  8  1  0  0  0  0
  7  9  1  0  0  0  0
  7 29  1  0  0  0  0
  7 30  1  0  0  0  0
  8 31  1  0  0  0  0
  8 32  1  0  0  0  0
  9 13  1  0  0  0  0
  9 16  2  0  0  0  0
 10 11  1  0  0  0  0
 10 17  2  0  0  0  0
 11 12  2  0  0  0  0
 11 18  1  0  0  0  0
 12 15  1  0  0  0  0
 12 19  1  0  0  0  0
 13 14  1  0  0  0  0
 13 21  2  0  0  0  0
 14 24  2  0  0  0  0
 15 22  2  0  0  0  0
 16 34  1  0  0  0  0
 17 20  1  0  0  0  0
 17 35  1  0  0  0  0
 18 23  2  0  0  0  0
 18 37  1  0  0  0  0
 19 20  2  0  0  0  0
 19 38  1  0  0  0  0
 20 39  1  0  0  0  0
 21 25  1  0  0  0  0
 21 40  1  0  0  0  0
 22 23  1  0  0  0  0
 22 41  1  0  0  0  0
 23 42  1  0  0  0  0
 24 26  1  0  0  0  0
 24 43  1  0  0  0  0
 25 26  2  0  0  0  0
 25 44  1  0  0  0  0
 26 45  1  0  0  0  0
 27 46  1  0  0  0  0
 27 50  1  0  0  0  0
 27 51  1  0  0  0  0
 28 47  1  0  0  0  0
 28 48  1  0  0  0  0
 28 49  1  0  0  0  0
M  END
> <PUBCHEM_COMPOUND_CID>
582771

> <PUBCHEM_COMPOUND_CANONICALIZED>
1

> <PUBCHEM_CACTVS_COMPLEXITY>
618

> <PUBCHEM_CACTVS_HBOND_ACCEPTOR>
4

> <PUBCHEM_CACTVS_HBOND_DONOR>
2

> <PUBCHEM_CACTVS_ROTATABLE_BOND>
6

> <PUBCHEM_CACTVS_SUBSKEYS>
AAADceB7MABAAAAAAAAAAAAAAAAAAWAAAAAwYMAAAAAAAFjB9AAAHAQQQAAADAjBXgQ+wfPJkAKgAzRnRHDCgDAxAiAI2bg4ZJgIIOLAkZGEIAhgkADIyAcQgMAOgAAAwAAWAAAAAAGAACwAAAAAAAAAAA==

> <PUBCHEM_IUPAC_OPENEYE_NAME>
5-(dimethylamino)-N-[2-(1H-indol-3-yl)ethyl]naphthalene-1-sulfonamide

> <PUBCHEM_IUPAC_CAS_NAME>
5-(dimethylamino)-N-[2-(1H-indol-3-yl)ethyl]-1-naphthalenesulfonamide

> <PUBCHEM_IUPAC_NAME>
5-(dimethylamino)-N-[2-(1H-indol-3-yl)ethyl]naphthalene-1-sulfonamide

> <PUBCHEM_IUPAC_SYSTEMATIC_NAME>
5-(dimethylamino)-N-[2-(1H-indol-3-yl)ethyl]naphthalene-1-sulfonamide

> <PUBCHEM_IUPAC_TRADITIONAL_NAME>
5-(dimethylamino)-N-[2-(1H-indol-3-yl)ethyl]naphthalene-1-sulfonamide

> <PUBCHEM_IUPAC_INCHI>
InChI=1S/C22H23N3O2S/c1-25(2)21-11-5-9-19-18(21)8-6-12-22(19)28(26,27)24-14-13-16-15-23-20-10-4-3-7-17(16)20/h3-12,15,23-24H,13-14H2,1-2H3

> <PUBCHEM_IUPAC_INCHIKEY>
FLXFAXABPSTODQ-UHFFFAOYSA-N

> <PUBCHEM_XLOGP3_AA>
4.3

> <PUBCHEM_EXACT_MASS>
393.151098

> <PUBCHEM_MOLECULAR_FORMULA>
C22H23N3O2S

> <PUBCHEM_MOLECULAR_WEIGHT>
393.50192

> <PUBCHEM_OPENEYE_CAN_SMILES>
CN(C)C1=CC=CC2=C1C=CC=C2S(=O)(=O)NCCC3=CNC4=CC=CC=C43

> <PUBCHEM_OPENEYE_ISO_SMILES>
CN(C)C1=CC=CC2=C1C=CC=C2S(=O)(=O)NCCC3=CNC4=CC=CC=C43

> <PUBCHEM_CACTVS_TPSA>
73.6

> <PUBCHEM_MONOISOTOPIC_WEIGHT>
393.151098

> <PUBCHEM_TOTAL_CHARGE>
0

> <PUBCHEM_HEAVY_ATOM_COUNT>
28

> <PUBCHEM_ATOM_DEF_STEREO_COUNT>
0

> <PUBCHEM_ATOM_UDEF_STEREO_COUNT>
0

> <PUBCHEM_BOND_DEF_STEREO_COUNT>
0

> <PUBCHEM_BOND_UDEF_STEREO_COUNT>
0

> <PUBCHEM_ISOTOPIC_ATOM_COUNT>
0

> <PUBCHEM_COMPONENT_COUNT>
1

> <PUBCHEM_CACTVS_TAUTO_COUNT>
1

> <PUBCHEM_COORDINATE_TYPE>
1
5
255

> <PUBCHEM_BONDANNOTATIONS>
10  11  8
10  17  8
11  12  8
11  18  8
12  15  8
12  19  8
13  14  8
13  21  8
14  24  8
15  22  8
17  20  8
18  23  8
19  20  8
21  25  8
22  23  8
24  26  8
25  26  8
5  14  8
5  16  8
9  13  8
9  16  8

$$$$

