582843
  -OEChem-06241222442D

 23 24  0     1  0  0  0  0  0999 V2000
    4.7320    1.4406    0.0000 F   0  0  0  0  0  0  0  0  0  0  0  0
    5.0742   -1.4990    0.0000 F   0  0  0  0  0  0  0  0  0  0  0  0
    3.3660    1.8066    0.0000 F   0  0  0  0  0  0  0  0  0  0  0  0
    4.0397    1.9254    0.0000 F   0  0  0  0  0  0  0  0  0  0  0  0
    6.4883    1.3317    0.0000 F   0  0  0  0  0  0  0  0  0  0  0  0
    5.3709    1.6969    0.0000 F   0  0  0  0  0  0  0  0  0  0  0  0
    3.3660   -1.9254    0.0000 F   0  0  0  0  0  0  0  0  0  0  0  0
    4.3660   -1.9254    0.0000 F   0  0  0  0  0  0  0  0  0  0  0  0
    2.0000    0.4406    0.0000 F   0  0  0  0  0  0  0  0  0  0  0  0
    2.5000    1.3066    0.0000 F   0  0  0  0  0  0  0  0  0  0  0  0
    2.0000   -0.5594    0.0000 F   0  0  0  0  0  0  0  0  0  0  0  0
    2.5000   -1.4254    0.0000 F   0  0  0  0  0  0  0  0  0  0  0  0
    7.0709   -0.6472    0.0000 F   0  0  0  0  0  0  0  0  0  0  0  0
    7.0709    0.5284    0.0000 F   0  0  0  0  0  0  0  0  0  0  0  0
    5.6783   -0.8641    0.0000 O   0  0  0  0  0  0  0  0  0  0  0  0
    4.7320    0.4406    0.0000 C   0  0  3  0  0  0  0  0  0  0  0  0
    4.7320   -0.5594    0.0000 C   0  0  3  0  0  0  0  0  0  0  0  0
    3.8660    0.9406    0.0000 C   0  0  0  0  0  0  0  0  0  0  0  0
    5.6783    0.7453    0.0000 C   0  0  0  0  0  0  0  0  0  0  0  0
    3.8660   -1.0594    0.0000 C   0  0  0  0  0  0  0  0  0  0  0  0
    3.0000    0.4406    0.0000 C   0  0  0  0  0  0  0  0  0  0  0  0
    3.0000   -0.5594    0.0000 C   0  0  0  0  0  0  0  0  0  0  0  0
    6.2619   -0.0594    0.0000 C   0  0  0  0  0  0  0  0  0  0  0  0
  1 16  1  0  0  0  0
  2 17  1  0  0  0  0
  3 18  1  0  0  0  0
  4 18  1  0  0  0  0
  5 19  1  0  0  0  0
  6 19  1  0  0  0  0
  7 20  1  0  0  0  0
  8 20  1  0  0  0  0
  9 21  1  0  0  0  0
 10 21  1  0  0  0  0
 11 22  1  0  0  0  0
 12 22  1  0  0  0  0
 13 23  1  0  0  0  0
 14 23  1  0  0  0  0
 15 17  1  0  0  0  0
 15 23  1  0  0  0  0
 16 17  1  0  0  0  0
 16 18  1  0  0  0  0
 16 19  1  0  0  0  0
 17 20  1  0  0  0  0
 18 21  1  0  0  0  0
 19 23  1  0  0  0  0
 20 22  1  0  0  0  0
 21 22  1  0  0  0  0
M  END
> <PUBCHEM_COMPOUND_CID>
582843

> <PUBCHEM_COMPOUND_CANONICALIZED>
1

> <PUBCHEM_CACTVS_COMPLEXITY>
553

> <PUBCHEM_CACTVS_HBOND_ACCEPTOR>
15

> <PUBCHEM_CACTVS_HBOND_DONOR>
0

> <PUBCHEM_CACTVS_ROTATABLE_BOND>
0

> <PUBCHEM_CACTVS_SUBSKEYS>
AAADcQBwIcAAAAAAAAAAAAAAAAAAASAAAAAwAAAAAAAAAEgAAAAACwAAAAAADAQAgBAAAAAABAAAAAAAAAAAAAAAAAAAAAAAAAAAAAIAAAACAAAEAAAAAAGAwKAOAAAAAAAAAAAAAAAAABAAAAAAAAAAAA==

> <PUBCHEM_IUPAC_OPENEYE_NAME>
2,2,3,3,3a,4,4,5,5,6,6,7,7,7a-tetradecafluorobenzofuran

> <PUBCHEM_IUPAC_CAS_NAME>
2,2,3,3,3a,4,4,5,5,6,6,7,7,7a-tetradecafluorobenzofuran

> <PUBCHEM_IUPAC_NAME>
2,2,3,3,3a,4,4,5,5,6,6,7,7,7a-tetradecafluoro-1-benzofuran

> <PUBCHEM_IUPAC_SYSTEMATIC_NAME>
2,2,3,3,3a,4,4,5,5,6,6,7,7,7a-tetradecakis(fluoranyl)-1-benzofuran

> <PUBCHEM_IUPAC_TRADITIONAL_NAME>
2,2,3,3,3a,4,4,5,5,6,6,7,7,7a-tetradecafluorobenzofuran

> <PUBCHEM_IUPAC_INCHI>
InChI=1S/C8F14O/c9-1-2(10,11)4(14,15)5(16,17)6(18,19)7(1,20)23-8(21,22)3(1,12)13

> <PUBCHEM_IUPAC_INCHIKEY>
KJCVWRLZDYIJND-UHFFFAOYSA-N

> <PUBCHEM_XLOGP3_AA>
4.3

> <PUBCHEM_EXACT_MASS>
377.97256

> <PUBCHEM_MOLECULAR_FORMULA>
C8F14O

> <PUBCHEM_MOLECULAR_WEIGHT>
378.062645

> <PUBCHEM_OPENEYE_CAN_SMILES>
C12(C(C(C(C(C1(F)F)(F)F)(F)F)(F)F)(OC(C2(F)F)(F)F)F)F

> <PUBCHEM_OPENEYE_ISO_SMILES>
C12(C(C(C(C(C1(F)F)(F)F)(F)F)(F)F)(OC(C2(F)F)(F)F)F)F

> <PUBCHEM_CACTVS_TPSA>
9.2

> <PUBCHEM_MONOISOTOPIC_WEIGHT>
377.97256

> <PUBCHEM_TOTAL_CHARGE>
0

> <PUBCHEM_HEAVY_ATOM_COUNT>
23

> <PUBCHEM_ATOM_DEF_STEREO_COUNT>
0

> <PUBCHEM_ATOM_UDEF_STEREO_COUNT>
2

> <PUBCHEM_BOND_DEF_STEREO_COUNT>
0

> <PUBCHEM_BOND_UDEF_STEREO_COUNT>
0

> <PUBCHEM_ISOTOPIC_ATOM_COUNT>
0

> <PUBCHEM_COMPONENT_COUNT>
1

> <PUBCHEM_CACTVS_TAUTO_COUNT>
1

> <PUBCHEM_COORDINATE_TYPE>
1
5
255

> <PUBCHEM_BONDANNOTATIONS>
16  1  3
17  2  3

$$$$

