17395412
  -OEChem-06241222503D

 39 40  0     0  0  0  0  0  0999 V2000
    4.7385    2.2341    0.2603 Br  0  0  0  0  0  0  0  0  0  0  0  0
    4.8221   -0.8627    0.2801 O   0  0  0  0  0  0  0  0  0  0  0  0
    1.7054    2.7934   -0.0331 O   0  0  0  0  0  0  0  0  0  0  0  0
    0.1776   -2.8909    0.3438 O   0  0  0  0  0  0  0  0  0  0  0  0
   -1.0527   -1.3364   -0.8588 N   0  0  0  0  0  0  0  0  0  0  0  0
   -3.0494    0.2859    1.0195 N   0  0  0  0  0  0  0  0  0  0  0  0
   -2.2349   -2.1509   -1.0255 C   0  0  0  0  0  0  0  0  0  0  0  0
   -3.2387   -1.9658    0.1099 C   0  0  0  0  0  0  0  0  0  0  0  0
    1.1914   -0.8180   -0.0728 C   0  0  0  0  0  0  0  0  0  0  0  0
   -3.7488   -0.5498    0.2195 C   0  0  0  0  0  0  0  0  0  0  0  0
    0.0920   -1.7643   -0.1763 C   0  0  0  0  0  0  0  0  0  0  0  0
    0.9370    0.5532   -0.1034 C   0  0  0  0  0  0  0  0  0  0  0  0
    2.5004   -1.2816    0.0571 C   0  0  0  0  0  0  0  0  0  0  0  0
    3.5552   -0.3742    0.1564 C   0  0  0  0  0  0  0  0  0  0  0  0
    1.9917    1.4606   -0.0041 C   0  0  0  0  0  0  0  0  0  0  0  0
    3.3008    0.9969    0.1259 C   0  0  0  0  0  0  0  0  0  0  0  0
   -4.8821   -0.1802   -0.4868 C   0  0  0  0  0  0  0  0  0  0  0  0
   -5.3261    1.1317   -0.3643 C   0  0  0  0  0  0  0  0  0  0  0  0
   -3.5109    1.5531    1.1138 C   0  0  0  0  0  0  0  0  0  0  0  0
   -4.6330    2.0213    0.4493 C   0  0  0  0  0  0  0  0  0  0  0  0
    4.9696   -2.2806    0.3006 C   0  0  0  0  0  0  0  0  0  0  0  0
    1.6948    3.4252   -1.3111 C   0  0  0  0  0  0  0  0  0  0  0  0
   -1.9353   -3.2030   -1.0831 H   0  0  0  0  0  0  0  0  0  0  0  0
   -2.6814   -1.8752   -1.9872 H   0  0  0  0  0  0  0  0  0  0  0  0
   -4.0828   -2.6523   -0.0288 H   0  0  0  0  0  0  0  0  0  0  0  0
   -2.7730   -2.2424    1.0646 H   0  0  0  0  0  0  0  0  0  0  0  0
   -1.0664   -0.4279   -1.3097 H   0  0  0  0  0  0  0  0  0  0  0  0
   -0.0727    0.9491   -0.1710 H   0  0  0  0  0  0  0  0  0  0  0  0
    2.6377   -2.3573    0.0677 H   0  0  0  0  0  0  0  0  0  0  0  0
   -5.4147   -0.8811   -1.1205 H   0  0  0  0  0  0  0  0  0  0  0  0
   -6.2100    1.4606   -0.9022 H   0  0  0  0  0  0  0  0  0  0  0  0
   -2.9344    2.2071    1.7597 H   0  0  0  0  0  0  0  0  0  0  0  0
   -4.9605    3.0487    0.5594 H   0  0  0  0  0  0  0  0  0  0  0  0
    6.0396   -2.4887    0.4070 H   0  0  0  0  0  0  0  0  0  0  0  0
    4.6550   -2.7355   -0.6450 H   0  0  0  0  0  0  0  0  0  0  0  0
    4.4759   -2.7283    1.1700 H   0  0  0  0  0  0  0  0  0  0  0  0
    1.6161    4.5051   -1.1586 H   0  0  0  0  0  0  0  0  0  0  0  0
    0.8259    3.0901   -1.8864 H   0  0  0  0  0  0  0  0  0  0  0  0
    2.6118    3.2169   -1.8708 H   0  0  0  0  0  0  0  0  0  0  0  0
  1 16  1  0  0  0  0
  2 14  1  0  0  0  0
  2 21  1  0  0  0  0
  3 15  1  0  0  0  0
  3 22  1  0  0  0  0
  4 11  2  0  0  0  0
  5  7  1  0  0  0  0
  5 11  1  0  0  0  0
  5 27  1  0  0  0  0
  6 10  1  0  0  0  0
  6 19  2  0  0  0  0
  7  8  1  0  0  0  0
  7 23  1  0  0  0  0
  7 24  1  0  0  0  0
  8 10  1  0  0  0  0
  8 25  1  0  0  0  0
  8 26  1  0  0  0  0
  9 11  1  0  0  0  0
  9 12  2  0  0  0  0
  9 13  1  0  0  0  0
 10 17  2  0  0  0  0
 12 15  1  0  0  0  0
 12 28  1  0  0  0  0
 13 14  2  0  0  0  0
 13 29  1  0  0  0  0
 14 16  1  0  0  0  0
 15 16  2  0  0  0  0
 17 18  1  0  0  0  0
 17 30  1  0  0  0  0
 18 20  2  0  0  0  0
 18 31  1  0  0  0  0
 19 20  1  0  0  0  0
 19 32  1  0  0  0  0
 20 33  1  0  0  0  0
 21 34  1  0  0  0  0
 21 35  1  0  0  0  0
 21 36  1  0  0  0  0
 22 37  1  0  0  0  0
 22 38  1  0  0  0  0
 22 39  1  0  0  0  0
M  END
> <PUBCHEM_COMPOUND_CID>
17395412

> <PUBCHEM_CONFORMER_RMSD>
0.8

> <PUBCHEM_CONFORMER_DIVERSEORDER>
10
24
11
32
41
21
22
28
34
49
52
35
46
38
18
8
44
45
59
31
33
48
56
27
37
30
13
23
3
4
20
19
29
26
14
1
42
50
15
40
55
36
12
2
9
7
54
51
25
16
6
57
39
58
5
53
17
43
47

> <PUBCHEM_MMFF94_PARTIAL_CHARGES>
29
1 -0.11
10 0.17
11 0.54
12 -0.15
13 -0.15
14 0.08
15 0.08
16 0.11
17 -0.15
18 -0.15
19 0.16
2 -0.36
20 -0.15
21 0.28
22 0.28
27 0.37
28 0.15
29 0.15
3 -0.36
30 0.15
31 0.15
32 0.15
33 0.15
4 -0.57
5 -0.73
6 -0.62
7 0.3
8 0.14
9 0.09

> <PUBCHEM_EFFECTIVE_ROTOR_COUNT>
7

> <PUBCHEM_PHARMACOPHORE_FEATURES>
8
1 1 hydrophobe
1 2 acceptor
1 3 acceptor
1 4 acceptor
1 5 donor
1 6 acceptor
6 6 10 17 18 19 20 rings
6 9 12 13 14 15 16 rings

> <PUBCHEM_HEAVY_ATOM_COUNT>
22

> <PUBCHEM_ATOM_DEF_STEREO_COUNT>
0

> <PUBCHEM_ATOM_UDEF_STEREO_COUNT>
0

> <PUBCHEM_BOND_DEF_STEREO_COUNT>
0

> <PUBCHEM_BOND_UDEF_STEREO_COUNT>
0

> <PUBCHEM_ISOTOPIC_ATOM_COUNT>
0

> <PUBCHEM_COMPONENT_COUNT>
1

> <PUBCHEM_CACTVS_TAUTO_COUNT>
4

> <PUBCHEM_CONFORMER_ID>
01096ED40000000A

> <PUBCHEM_MMFF94_ENERGY>
74.7028

> <PUBCHEM_FEATURE_SELFOVERLAP>
40.594

> <PUBCHEM_SHAPE_FINGERPRINT>
10906281 52 18130222628870276520
12107183 9 18265053707257529930
12166972 35 18334579040401939977
12403260 363 18408888400068024351
12507557 5 18411700993676918419
12633257 1 18270962452996444243
13583140 156 17989200474002997507
14117953 113 18193274320238215261
14178342 30 17905061261541931138
14341114 176 18340763763253990707
14466204 15 18340493373245018770
14790565 3 18340481171828616612
15042514 8 17619354642702191058
15196674 1 18409167692773788307
15256400 18 18335139829765070192
15442244 35 18409167680084208082
15475509 8 18117259549628884934
1601671 61 18410009979053072966
16120349 21 17829892388953119706
16991981 162 15180880315192469244
17492 89 18267302041117405859
17818456 19 18113898273351262376
17834072 32 18408318891657110073
17844677 252 18338792316993169506
20715895 44 18192150628197718057
20739085 24 18343019999990373932
21033648 29 17131562721129493245
21065198 57 18341612555902534275
21304253 335 18338517426886846884
21315764 268 18411143536749668573
21421861 104 18059030453435750634
21503847 285 18342460335380933402
22749437 52 18334572430595094185
23558518 356 18197497329029651875
2838139 119 18339651160987993837
335352 9 18409730707305018542
350125 39 18337389319197683915
474 4 18341613694305698875
5104073 3 18411700963174460578
543358 83 18411417268385206012
6328613 192 18411130317399344892
9981440 41 17546454371126301776

> <PUBCHEM_SHAPE_MULTIPOLES>
431.12
11.81
3.58
0.91
4.1
0.93
0.07
2.62
-1.29
-1.91
0.52
0.38
0.27
-1.11

> <PUBCHEM_SHAPE_SELFOVERLAP>
893.722

> <PUBCHEM_SHAPE_VOLUME>
251.2

> <PUBCHEM_COORDINATE_TYPE>
2
5
10

$$$$

