854051
  -OEChem-06241222473D

 19 19  0     0  0  0  0  0  0999 V2000
   -3.8219   -0.0343    0.2061 N   0  0  0  0  0  0  0  0  0  0  0  0
    1.9578   -1.2212    0.1320 N   0  0  0  0  0  0  0  0  0  0  0  0
   -1.5091    0.0148   -0.6773 C   0  0  0  0  0  0  0  0  0  0  0  0
   -0.0614    0.0233   -0.3358 C   0  0  0  0  0  0  0  0  0  0  0  0
   -2.4088    0.0005    0.5671 C   0  0  0  0  0  0  0  0  0  0  0  0
    0.6268    1.2190   -0.1629 C   0  0  0  0  0  0  0  0  0  0  0  0
    0.6437   -1.1592   -0.1790 C   0  0  0  0  0  0  0  0  0  0  0  0
    1.9797    1.1960    0.1574 C   0  0  0  0  0  0  0  0  0  0  0  0
    2.5933   -0.0389    0.2925 C   0  0  0  0  0  0  0  0  0  0  0  0
   -1.7448    0.8897   -1.2979 H   0  0  0  0  0  0  0  0  0  0  0  0
   -1.7296   -0.8579   -1.3069 H   0  0  0  0  0  0  0  0  0  0  0  0
   -2.2214    0.8881    1.1823 H   0  0  0  0  0  0  0  0  0  0  0  0
   -2.1825   -0.8718    1.1908 H   0  0  0  0  0  0  0  0  0  0  0  0
    0.1196    2.1735   -0.2730 H   0  0  0  0  0  0  0  0  0  0  0  0
    0.1618   -2.1246   -0.2992 H   0  0  0  0  0  0  0  0  0  0  0  0
    2.5362    2.1156    0.2975 H   0  0  0  0  0  0  0  0  0  0  0  0
   -4.0061   -0.8557   -0.3688 H   0  0  0  0  0  0  0  0  0  0  0  0
   -4.0434    0.7705   -0.3793 H   0  0  0  0  0  0  0  0  0  0  0  0
    3.6468   -0.1112    0.5417 H   0  0  0  0  0  0  0  0  0  0  0  0
  1  5  1  0  0  0  0
  1 17  1  0  0  0  0
  1 18  1  0  0  0  0
  2  7  1  0  0  0  0
  2  9  2  0  0  0  0
  3  4  1  0  0  0  0
  3  5  1  0  0  0  0
  3 10  1  0  0  0  0
  3 11  1  0  0  0  0
  4  6  1  0  0  0  0
  4  7  2  0  0  0  0
  5 12  1  0  0  0  0
  5 13  1  0  0  0  0
  6  8  2  0  0  0  0
  6 14  1  0  0  0  0
  7 15  1  0  0  0  0
  8  9  1  0  0  0  0
  8 16  1  0  0  0  0
  9 19  1  0  0  0  0
M  END
> <PUBCHEM_COMPOUND_CID>
854051

> <PUBCHEM_CONFORMER_RMSD>
0.4

> <PUBCHEM_CONFORMER_DIVERSEORDER>
1
6
10
4
12
2
11
9
8
3
5
7

> <PUBCHEM_MMFF94_PARTIAL_CHARGES>
15
1 -0.99
14 0.15
15 0.15
16 0.15
17 0.36
18 0.36
19 0.15
2 -0.62
3 0.14
4 -0.14
5 0.27
6 -0.15
7 0.16
8 -0.15
9 0.16

> <PUBCHEM_EFFECTIVE_ROTOR_COUNT>
2

> <PUBCHEM_PHARMACOPHORE_FEATURES>
4
1 1 cation
1 1 donor
1 2 acceptor
6 2 4 6 7 8 9 rings

> <PUBCHEM_HEAVY_ATOM_COUNT>
9

> <PUBCHEM_ATOM_DEF_STEREO_COUNT>
0

> <PUBCHEM_ATOM_UDEF_STEREO_COUNT>
0

> <PUBCHEM_BOND_DEF_STEREO_COUNT>
0

> <PUBCHEM_BOND_UDEF_STEREO_COUNT>
0

> <PUBCHEM_ISOTOPIC_ATOM_COUNT>
0

> <PUBCHEM_COMPONENT_COUNT>
1

> <PUBCHEM_CACTVS_TAUTO_COUNT>
1

> <PUBCHEM_CONFORMER_ID>
000D082300000001

> <PUBCHEM_MMFF94_ENERGY>
14.5117

> <PUBCHEM_FEATURE_SELFOVERLAP>
20.297

> <PUBCHEM_SHAPE_FINGERPRINT>
10219947 1 18411136935125990973
10857977 72 17560804303453952549
14325111 11 18337108973649562093
20201158 50 18202282519818863659
20871998 22 17973158714959464934
21040471 1 18193843635153119100
23235685 24 18339083692153859880
2748010 2 18049176749996063004
29004967 10 18272371992274580168

> <PUBCHEM_SHAPE_MULTIPOLES>
175.25
4.53
1.23
0.73
3.89
0.01
-0.02
-0.04
0.85
-0.78
-0.01
0.14
-0.01
-0.01

> <PUBCHEM_SHAPE_SELFOVERLAP>
352.736

> <PUBCHEM_SHAPE_VOLUME>
101.1

> <PUBCHEM_COORDINATE_TYPE>
2
5
10

$$$$

