13457
  -OEChem-06261214243D

 36 37  0     1  0  0  0  0  0999 V2000
   -0.7775    0.0457   -0.2140 O   0  0  0  0  0  0  0  0  0  0  0  0
    1.2960   -3.0866   -0.2108 O   0  0  0  0  0  0  0  0  0  0  0  0
   -1.9443    1.4328    1.2059 O   0  0  0  0  0  0  0  0  0  0  0  0
    2.5586    1.0761   -0.7615 N   0  0  1  0  0  0  0  0  0  0  0  0
    1.6341   -0.0626   -0.4701 C   0  0  2  0  0  0  0  0  0  0  0  0
    0.4507    0.5406    0.2892 C   0  0  1  0  0  0  0  0  0  0  0  0
    0.5787    2.0323    0.0332 C   0  0  0  0  0  0  0  0  0  0  0  0
    2.0806    2.2253    0.0222 C   0  0  0  0  0  0  0  0  0  0  0  0
    2.4455   -1.0606    0.2991 C   0  0  0  0  0  0  0  0  0  0  0  0
    3.9072    0.6349   -0.3445 C   0  0  0  0  0  0  0  0  0  0  0  0
    3.7195   -0.6640    0.3650 C   0  0  0  0  0  0  0  0  0  0  0  0
    1.8655   -2.3169    0.8384 C   0  0  0  0  0  0  0  0  0  0  0  0
   -1.9130    0.5779    0.3322 C   0  0  0  0  0  0  0  0  0  0  0  0
   -3.1200   -0.0441   -0.2922 C   0  0  0  0  0  0  0  0  0  0  0  0
   -3.0354   -0.4805   -1.7247 C   0  0  0  0  0  0  0  0  0  0  0  0
   -4.2087   -0.1315    0.4942 C   0  0  0  0  0  0  0  0  0  0  0  0
   -5.5376   -0.7190    0.1384 C   0  0  0  0  0  0  0  0  0  0  0  0
    1.3141   -0.5068   -1.4210 H   0  0  0  0  0  0  0  0  0  0  0  0
    0.5198    0.3317    1.3655 H   0  0  0  0  0  0  0  0  0  0  0  0
    0.1164    2.6463    0.8114 H   0  0  0  0  0  0  0  0  0  0  0  0
    0.1314    2.3151   -0.9282 H   0  0  0  0  0  0  0  0  0  0  0  0
    2.3693    3.1723   -0.4432 H   0  0  0  0  0  0  0  0  0  0  0  0
    2.4559    2.2124    1.0539 H   0  0  0  0  0  0  0  0  0  0  0  0
    4.4180    1.3642    0.2940 H   0  0  0  0  0  0  0  0  0  0  0  0
    4.5259    0.4789   -1.2350 H   0  0  0  0  0  0  0  0  0  0  0  0
    4.5184   -1.2138    0.8407 H   0  0  0  0  0  0  0  0  0  0  0  0
    1.0841   -2.0935    1.5715 H   0  0  0  0  0  0  0  0  0  0  0  0
    2.6304   -2.9259    1.3316 H   0  0  0  0  0  0  0  0  0  0  0  0
    0.9219   -3.8880    0.1932 H   0  0  0  0  0  0  0  0  0  0  0  0
   -4.0162   -0.5798   -2.1966 H   0  0  0  0  0  0  0  0  0  0  0  0
   -2.4808    0.2567   -2.3159 H   0  0  0  0  0  0  0  0  0  0  0  0
   -2.5180   -1.4422   -1.7995 H   0  0  0  0  0  0  0  0  0  0  0  0
   -4.1560    0.2356    1.5182 H   0  0  0  0  0  0  0  0  0  0  0  0
   -5.8256   -1.4546    0.8964 H   0  0  0  0  0  0  0  0  0  0  0  0
   -5.5449   -1.2282   -0.8276 H   0  0  0  0  0  0  0  0  0  0  0  0
   -6.2985    0.0670    0.1211 H   0  0  0  0  0  0  0  0  0  0  0  0
  1  6  1  0  0  0  0
  1 13  1  0  0  0  0
  2 12  1  0  0  0  0
  2 29  1  0  0  0  0
  3 13  2  0  0  0  0
  4  5  1  0  0  0  0
  4  8  1  0  0  0  0
  4 10  1  0  0  0  0
  5  6  1  0  0  0  0
  5  9  1  0  0  0  0
  5 18  1  0  0  0  0
  6  7  1  0  0  0  0
  6 19  1  0  0  0  0
  7  8  1  0  0  0  0
  7 20  1  0  0  0  0
  7 21  1  0  0  0  0
  8 22  1  0  0  0  0
  8 23  1  0  0  0  0
  9 11  2  0  0  0  0
  9 12  1  0  0  0  0
 10 11  1  0  0  0  0
 10 24  1  0  0  0  0
 10 25  1  0  0  0  0
 11 26  1  0  0  0  0
 12 27  1  0  0  0  0
 12 28  1  0  0  0  0
 13 14  1  0  0  0  0
 14 15  1  0  0  0  0
 14 16  2  0  0  0  0
 15 30  1  0  0  0  0
 15 31  1  0  0  0  0
 15 32  1  0  0  0  0
 16 17  1  0  0  0  0
 16 33  1  0  0  0  0
 17 34  1  0  0  0  0
 17 35  1  0  0  0  0
 17 36  1  0  0  0  0
M  END
> <PUBCHEM_COMPOUND_CID>
13457

> <PUBCHEM_CONFORMER_RMSD>
0.6

> <PUBCHEM_CONFORMER_DIVERSEORDER>
1
131
157
143
28
135
151
7
98
109
162
119
161
48
77
182
82
164
43
5
104
126
177
127
102
54
168
68
183
45
175
138
134
179
27
64
159
34
38
46
70
139
137
155
152
69
95
112
121
186
59
144
178
123
170
65
88
174
103
26
100
17
180
187
115
67
156
40
128
52
14
107
108
13
35
81
36
142
171
158
148
22
78
181
44
125
172
90
118
39
184
105
120
133
29
141
110
116
42
63
132
114
31
169
10
101
84
33
72
166
106
21
153
165
73
49
163
160
176
76
91
20
57
167
18
113
51
23
85
173
75
25
58
19
140
185
124
146
86
55
16
47
122
80
24
53
50
9
71
147
117
30
96
62
93
37
41
154
99
15
150
74
94
11
3
149
4
87
8
66
60
129
136
12
92
2
111
83
56
130
79
6
61
145
89
32
97

> <PUBCHEM_MMFF94_PARTIAL_CHARGES>
19
1 -0.43
10 0.41
11 -0.29
12 0.42
13 0.71
14 -0.12
15 0.14
16 -0.29
17 0.14
2 -0.68
26 0.15
29 0.4
3 -0.57
33 0.15
4 -0.81
5 0.41
6 0.28
8 0.27
9 -0.28

> <PUBCHEM_EFFECTIVE_ROTOR_COUNT>
4.8

> <PUBCHEM_PHARMACOPHORE_FEATURES>
8
1 15 hydrophobe
1 17 hydrophobe
1 2 acceptor
1 2 donor
1 3 acceptor
1 4 cation
5 4 5 6 7 8 rings
5 4 5 9 10 11 rings

> <PUBCHEM_HEAVY_ATOM_COUNT>
17

> <PUBCHEM_ATOM_DEF_STEREO_COUNT>
0

> <PUBCHEM_ATOM_UDEF_STEREO_COUNT>
2

> <PUBCHEM_BOND_DEF_STEREO_COUNT>
0

> <PUBCHEM_BOND_UDEF_STEREO_COUNT>
1

> <PUBCHEM_ISOTOPIC_ATOM_COUNT>
0

> <PUBCHEM_COMPONENT_COUNT>
1

> <PUBCHEM_CACTVS_TAUTO_COUNT>
1

> <PUBCHEM_CONFORMER_ID>
0000349100000001

> <PUBCHEM_MMFF94_ENERGY>
30.5493

> <PUBCHEM_FEATURE_SELFOVERLAP>
40.959

> <PUBCHEM_SHAPE_FINGERPRINT>
11471102 20 18342175548689116220
11578080 2 17825419437563579289
11806522 49 18410011031119502872
12236239 1 18040992934220748553
12553582 1 18334586749678260615
12616999 72 18059850645253082108
13140716 1 18266184920101961274
13836976 161 18272365335180877190
13862211 1 18270680987106125018
14178342 30 18120663684487900392
14251717 144 18413388743714402586
14251757 5 15667582023899718647
14252887 29 17967805076620782470
14576447 43 18409731742107072551
14787075 74 17678192516059533752
14844126 61 16040847499450385394
14863182 85 18410285943766500334
15375462 189 18261117374215285547
15757776 16 18410577296972241036
16945 1 18130499821242242988
18186145 218 18337959986759021501
19433438 38 17846788433137148767
200 152 18408887330483835625
20279233 1 16702014288096063721
20559304 39 18335137617746253400
20645477 70 18343302574104237203
21267235 1 18409157835903153598
22445834 79 18334574685025455265
2255824 54 18339075991161687540
23388829 49 18335426823822358792
23526113 38 17489866080766986016
23557571 272 15574981892861828296
23559900 14 18271527494657331281
23598291 2 18117255120921698289
26918003 58 18341895169398330865
2748010 2 18126551328894597488
2871803 45 18342174483489565684
3060560 45 18342453708393978548
33824 294 18342458123388373474
602551 16 15792304691418922311
8199 65 18413107277533510802
8272917 22 18411412947284232759
9709674 26 18343012328962882291

> <PUBCHEM_SHAPE_MULTIPOLES>
327.26
8.54
2.29
0.99
9.52
0.93
-0.21
1.52
-0.08
-2.14
0.27
0.58
0.04
-0.63

> <PUBCHEM_SHAPE_SELFOVERLAP>
675.91

> <PUBCHEM_SHAPE_VOLUME>
190

> <PUBCHEM_COORDINATE_TYPE>
2
5
10

$$$$

