3943
  -OEChem-06251223472D

 69 70  0     1  0  0  0  0  0999 V2000
    4.5981   -3.3200    0.0000 O   0  0  0  0  0  0  0  0  0  0  0  0
    2.8660   -3.3200    0.0000 O   0  0  0  0  0  0  0  0  0  0  0  0
    6.0653   -4.9018    0.0000 O   0  0  0  0  0  0  0  0  0  0  0  0
    2.0000   -1.8200    0.0000 O   0  0  0  0  0  0  0  0  0  0  0  0
    5.9612   -1.3428    0.0000 O   0  0  0  0  0  0  0  0  0  0  0  0
    5.4641   -4.8200    0.0000 O   0  0  0  0  0  0  0  0  0  0  0  0
    5.3234    2.2048    0.0000 O   0  0  0  0  0  0  0  0  0  0  0  0
    3.0942    6.2087    0.0000 O   0  0  0  0  0  0  0  0  0  0  0  0
    3.9965    1.0915    0.0000 N   0  0  0  0  0  0  0  0  0  0  0  0
    3.7370    5.4427    0.0000 N   0  0  0  0  0  0  0  0  0  0  0  0
    4.5981   -2.3200    0.0000 C   0  0  3  0  0  0  0  0  0  0  0  0
    3.7320   -1.8200    0.0000 C   0  0  0  0  0  0  0  0  0  0  0  0
    4.9401   -1.3803    0.0000 C   0  0  0  0  0  0  0  0  0  0  0  0
    7.1962   -3.8200    0.0000 C   0  0  0  0  0  0  0  0  0  0  0  0
    7.1962   -4.8200    0.0000 C   0  0  0  0  0  0  0  0  0  0  0  0
    6.3301   -3.3200    0.0000 C   0  0  0  0  0  0  0  0  0  0  0  0
    5.2462   -5.4754    0.0000 C   0  0  3  0  0  0  0  0  0  0  0  0
    5.9533   -6.1825    0.0000 C   0  0  0  0  0  0  0  0  0  0  0  0
    3.5731   -4.0271    0.0000 C   0  0  3  0  0  0  0  0  0  0  0  0
    6.9192   -5.9237    0.0000 C   0  0  0  0  0  0  0  0  0  0  0  0
    2.8660   -2.3200    0.0000 C   0  0  0  0  0  0  0  0  0  0  0  0
    5.4641   -3.8200    0.0000 C   0  0  0  0  0  0  0  0  0  0  0  0
    4.2802   -5.7342    0.0000 C   0  0  0  0  0  0  0  0  0  0  0  0
    4.2973   -0.6142    0.0000 C   0  0  0  0  0  0  0  0  0  0  0  0
    3.5731   -5.0271    0.0000 C   0  0  0  0  0  0  0  0  0  0  0  0
    8.1062   -3.3131    0.0000 C   0  0  0  0  0  0  0  0  0  0  0  0
    6.3141   -2.2785    0.0000 C   0  0  0  0  0  0  0  0  0  0  0  0
    5.6944   -7.1484    0.0000 C   0  0  0  0  0  0  0  0  0  0  0  0
    4.5646   -4.1576    0.0000 C   0  0  0  0  0  0  0  0  0  0  0  0
    8.1142   -2.2715    0.0000 C   0  0  0  0  0  0  0  0  0  0  0  0
    7.2121   -1.7507    0.0000 C   0  0  0  0  0  0  0  0  0  0  0  0
    4.6393    0.3255    0.0000 C   0  0  0  0  0  0  0  0  0  0  0  0
    4.3386    2.0312    0.0000 C   0  0  0  0  0  0  0  0  0  0  0  0
    3.6958    2.7972    0.0000 C   0  0  0  0  0  0  0  0  0  0  0  0
    4.0378    3.7369    0.0000 C   0  0  0  0  0  0  0  0  0  0  0  0
    3.3950    4.5030    0.0000 C   0  0  0  0  0  0  0  0  0  0  0  0
    3.4363    7.1484    0.0000 C   0  0  0  0  0  0  0  0  0  0  0  0
    5.4352   -2.4676    0.0000 H   0  0  0  0  0  0  0  0  0  0  0  0
    4.1306   -1.3450    0.0000 H   0  0  0  0  0  0  0  0  0  0  0  0
    3.3335   -1.3450    0.0000 H   0  0  0  0  0  0  0  0  0  0  0  0
    5.4770   -1.6903    0.0000 H   0  0  0  0  0  0  0  0  0  0  0  0
    5.3386   -0.9053    0.0000 H   0  0  0  0  0  0  0  0  0  0  0  0
    7.6753   -5.2134    0.0000 H   0  0  0  0  0  0  0  0  0  0  0  0
    6.5808   -4.7440    0.0000 H   0  0  0  0  0  0  0  0  0  0  0  0
    4.8869   -4.7050    0.0000 H   0  0  0  0  0  0  0  0  0  0  0  0
    3.9491   -3.2647    0.0000 H   0  0  0  0  0  0  0  0  0  0  0  0
    7.3611   -6.3586    0.0000 H   0  0  0  0  0  0  0  0  0  0  0  0
    4.1198   -6.3331    0.0000 H   0  0  0  0  0  0  0  0  0  0  0  0
    3.6867   -0.7219    0.0000 H   0  0  0  0  0  0  0  0  0  0  0  0
    3.0003   -5.2644    0.0000 H   0  0  0  0  0  0  0  0  0  0  0  0
    8.6395   -3.6293    0.0000 H   0  0  0  0  0  0  0  0  0  0  0  0
    5.0956   -6.9879    0.0000 H   0  0  0  0  0  0  0  0  0  0  0  0
    5.5340   -7.7473    0.0000 H   0  0  0  0  0  0  0  0  0  0  0  0
    6.2933   -7.3089    0.0000 H   0  0  0  0  0  0  0  0  0  0  0  0
    4.4836   -4.7723    0.0000 H   0  0  0  0  0  0  0  0  0  0  0  0
    5.1793   -4.2385    0.0000 H   0  0  0  0  0  0  0  0  0  0  0  0
    4.6455   -3.5429    0.0000 H   0  0  0  0  0  0  0  0  0  0  0  0
    8.6523   -1.9636    0.0000 H   0  0  0  0  0  0  0  0  0  0  0  0
    7.2097   -1.1307    0.0000 H   0  0  0  0  0  0  0  0  0  0  0  0
    5.2499    0.4331    0.0000 H   0  0  0  0  0  0  0  0  0  0  0  0
    6.6272   -5.1638    0.0000 H   0  0  0  0  0  0  0  0  0  0  0  0
    6.3542   -0.8633    0.0000 H   0  0  0  0  0  0  0  0  0  0  0  0
    3.3860    0.9838    0.0000 H   0  0  0  0  0  0  0  0  0  0  0  0
    3.0852    2.6896    0.0000 H   0  0  0  0  0  0  0  0  0  0  0  0
    4.6484    3.8446    0.0000 H   0  0  0  0  0  0  0  0  0  0  0  0
    2.7844    4.3953    0.0000 H   0  0  0  0  0  0  0  0  0  0  0  0
    4.0189    6.9364    0.0000 H   0  0  0  0  0  0  0  0  0  0  0  0
    3.6483    7.7310    0.0000 H   0  0  0  0  0  0  0  0  0  0  0  0
    2.8536    7.3605    0.0000 H   0  0  0  0  0  0  0  0  0  0  0  0
  1 11  1  0  0  0  0
  1 22  1  0  0  0  0
  2 19  1  0  0  0  0
  2 21  1  0  0  0  0
  3 17  1  0  0  0  0
  3 61  1  0  0  0  0
  4 21  2  0  0  0  0
  5 27  1  0  0  0  0
  5 62  1  0  0  0  0
  6 22  2  0  0  0  0
  7 33  2  0  0  0  0
  8 10  1  0  0  0  0
  8 37  1  0  0  0  0
  9 32  1  0  0  0  0
  9 33  1  0  0  0  0
  9 63  1  0  0  0  0
 10 36  2  3  0  0  0
 11 12  1  0  0  0  0
 11 13  1  0  0  0  0
 11 38  1  0  0  0  0
 12 21  1  0  0  0  0
 12 39  1  0  0  0  0
 12 40  1  0  0  0  0
 13 24  1  0  0  0  0
 13 41  1  0  0  0  0
 13 42  1  0  0  0  0
 14 15  1  0  0  0  0
 14 16  2  0  0  0  0
 14 26  1  0  0  0  0
 15 20  1  0  0  0  0
 15 43  1  0  0  0  0
 15 44  1  0  0  0  0
 16 22  1  0  0  0  0
 16 27  1  0  0  0  0
 17 18  1  0  0  0  0
 17 23  1  0  0  0  0
 17 45  1  0  0  0  0
 18 20  2  3  0  0  0
 18 28  1  0  0  0  0
 19 25  1  0  0  0  0
 19 29  1  0  0  0  0
 19 46  1  0  0  0  0
 20 47  1  0  0  0  0
 23 25  2  3  0  0  0
 23 48  1  0  0  0  0
 24 32  2  3  0  0  0
 24 49  1  0  0  0  0
 25 50  1  0  0  0  0
 26 30  2  0  0  0  0
 26 51  1  0  0  0  0
 27 31  2  0  0  0  0
 28 52  1  0  0  0  0
 28 53  1  0  0  0  0
 28 54  1  0  0  0  0
 29 55  1  0  0  0  0
 29 56  1  0  0  0  0
 29 57  1  0  0  0  0
 30 31  1  0  0  0  0
 30 58  1  0  0  0  0
 31 59  1  0  0  0  0
 32 60  1  0  0  0  0
 33 34  1  0  0  0  0
 34 35  2  3  0  0  0
 34 64  1  0  0  0  0
 35 36  1  0  0  0  0
 35 65  1  0  0  0  0
 36 66  1  0  0  0  0
 37 67  1  0  0  0  0
 37 68  1  0  0  0  0
 37 69  1  0  0  0  0
M  END
> <PUBCHEM_COMPOUND_CID>
3943

> <PUBCHEM_COMPOUND_CANONICALIZED>
1

> <PUBCHEM_CACTVS_COMPLEXITY>
923

> <PUBCHEM_CACTVS_HBOND_ACCEPTOR>
9

> <PUBCHEM_CACTVS_HBOND_DONOR>
3

> <PUBCHEM_CACTVS_ROTATABLE_BOND>
6

> <PUBCHEM_CACTVS_SUBSKEYS>
AAADcfB7PAAAAAAAAAAAAAAAAAAAAAAAAAAwAAAAAAAAAAABAAAAHgAUCAAADBThmAYyDoLQBgCoAjH3WACCAAAkIgAIiIEeCNgINzaCNRqCcUAl8hEIuYeIyLCOgAABAAAYAAAAAAIAADAAAAAAAAAAAA==

> <PUBCHEM_IUPAC_OPENEYE_NAME>
N-[3-(5,16-dihydroxy-4,8-dimethyl-10,14-dioxo-9,13-dioxabicyclo[13.4.0]nonadeca-1(15),3,6,16,18-pentaen-12-yl)prop-1-enyl]-4-methoxyimino-but-2-enamide

> <PUBCHEM_IUPAC_CAS_NAME>
N-[3-(5,16-dihydroxy-4,8-dimethyl-10,14-dioxo-9,13-dioxabicyclo[13.4.0]nonadeca-1(15),3,6,16,18-pentaen-12-yl)prop-1-enyl]-4-methoxyimino-2-butenamide

> <PUBCHEM_IUPAC_NAME>
N-[3-(5,16-dihydroxy-4,8-dimethyl-10,14-dioxo-9,13-dioxabicyclo[13.4.0]nonadeca-1(15),3,6,16,18-pentaen-12-yl)prop-1-enyl]-4-methoxyiminobut-2-enamide

> <PUBCHEM_IUPAC_SYSTEMATIC_NAME>
N-[3-[4,8-dimethyl-5,16-bis(oxidanyl)-10,14-bis(oxidanylidene)-9,13-dioxabicyclo[13.4.0]nonadeca-1(15),3,6,16,18-pentaen-12-yl]prop-1-enyl]-4-methoxyimino-but-2-enamide

> <PUBCHEM_IUPAC_TRADITIONAL_NAME>
N-[3-(5,16-dihydroxy-10,14-diketo-4,8-dimethyl-9,13-dioxabicyclo[13.4.0]nonadeca-1(15),3,6,16,18-pentaen-12-yl)prop-1-enyl]-4-methyloximino-but-2-enamide

> <PUBCHEM_IUPAC_INCHI>
InChI=1S/C27H32N2O8/c1-18-11-13-20-7-4-9-23(31)26(20)27(34)37-21(17-25(33)36-19(2)12-14-22(18)30)8-5-15-28-24(32)10-6-16-29-35-3/h4-7,9-12,14-16,19,21-22,30-31H,8,13,17H2,1-3H3,(H,28,32)

> <PUBCHEM_IUPAC_INCHIKEY>
JYHIHHYYXXKTTJ-UHFFFAOYSA-N

> <PUBCHEM_XLOGP3_AA>
3

> <PUBCHEM_EXACT_MASS>
512.215866

> <PUBCHEM_MOLECULAR_FORMULA>
C27H32N2O8

> <PUBCHEM_MOLECULAR_WEIGHT>
512.55158

> <PUBCHEM_OPENEYE_CAN_SMILES>
CC1C=CC(C(=CCC2=C(C(=CC=C2)O)C(=O)OC(CC(=O)O1)CC=CNC(=O)C=CC=NOC)C)O

> <PUBCHEM_OPENEYE_ISO_SMILES>
CC1C=CC(C(=CCC2=C(C(=CC=C2)O)C(=O)OC(CC(=O)O1)CC=CNC(=O)C=CC=NOC)C)O

> <PUBCHEM_CACTVS_TPSA>
144

> <PUBCHEM_MONOISOTOPIC_WEIGHT>
512.215866

> <PUBCHEM_TOTAL_CHARGE>
0

> <PUBCHEM_HEAVY_ATOM_COUNT>
37

> <PUBCHEM_ATOM_DEF_STEREO_COUNT>
0

> <PUBCHEM_ATOM_UDEF_STEREO_COUNT>
3

> <PUBCHEM_BOND_DEF_STEREO_COUNT>
0

> <PUBCHEM_BOND_UDEF_STEREO_COUNT>
5

> <PUBCHEM_ISOTOPIC_ATOM_COUNT>
0

> <PUBCHEM_COMPONENT_COUNT>
1

> <PUBCHEM_CACTVS_TAUTO_COUNT>
108

> <PUBCHEM_COORDINATE_TYPE>
1
5
255

> <PUBCHEM_BONDANNOTATIONS>
10  36  1
11  38  3
14  16  8
14  26  8
16  27  8
17  45  3
18  20  1
19  46  3
23  25  1
24  32  1
26  30  8
27  31  8
30  31  8
34  35  1

$$$$

