51090864
  -OEChem-06241223002D

 46 48  0     0  0  0  0  0  0999 V2000
    5.4641   -1.0000    0.0000 S   0  0  0  0  0  0  0  0  0  0  0  0
    7.1962   -2.0000    0.0000 O   0  0  0  0  0  0  0  0  0  0  0  0
    9.7942    0.5000    0.0000 N   0  0  0  0  0  0  0  0  0  0  0  0
   10.6603   -1.0000    0.0000 N   0  0  0  0  0  0  0  0  0  0  0  0
    8.0622   -0.5000    0.0000 N   0  0  0  0  0  0  0  0  0  0  0  0
    2.0000   -2.0000    0.0000 N   0  0  0  0  0  0  0  0  0  0  0  0
    9.7942    2.5000    0.0000 C   0  0  0  0  0  0  0  0  0  0  0  0
   10.6603    2.0000    0.0000 C   0  0  0  0  0  0  0  0  0  0  0  0
    8.9282    2.0000    0.0000 C   0  0  0  0  0  0  0  0  0  0  0  0
   10.6603    1.0000    0.0000 C   0  0  0  0  0  0  0  0  0  0  0  0
    8.9282    1.0000    0.0000 C   0  0  0  0  0  0  0  0  0  0  0  0
    9.7942   -0.5000    0.0000 C   0  0  0  0  0  0  0  0  0  0  0  0
    8.9282   -1.0000    0.0000 C   0  0  0  0  0  0  0  0  0  0  0  0
    8.9282   -2.0000    0.0000 C   0  0  0  0  0  0  0  0  0  0  0  0
   10.6603   -2.0000    0.0000 C   0  0  0  0  0  0  0  0  0  0  0  0
    9.7942   -2.5000    0.0000 C   0  0  0  0  0  0  0  0  0  0  0  0
    7.1962   -1.0000    0.0000 C   0  0  0  0  0  0  0  0  0  0  0  0
    6.3301   -0.5000    0.0000 C   0  0  0  0  0  0  0  0  0  0  0  0
    4.5981   -0.5000    0.0000 C   0  0  0  0  0  0  0  0  0  0  0  0
    3.7320   -1.0000    0.0000 C   0  0  0  0  0  0  0  0  0  0  0  0
    3.7320   -2.0000    0.0000 C   0  0  0  0  0  0  0  0  0  0  0  0
    2.8660   -0.5000    0.0000 C   0  0  0  0  0  0  0  0  0  0  0  0
    2.8660   -2.5000    0.0000 C   0  0  0  0  0  0  0  0  0  0  0  0
    2.0000   -1.0000    0.0000 C   0  0  0  0  0  0  0  0  0  0  0  0
   10.1928    2.9750    0.0000 H   0  0  0  0  0  0  0  0  0  0  0  0
    9.3957    2.9750    0.0000 H   0  0  0  0  0  0  0  0  0  0  0  0
    8.7162    2.5826    0.0000 H   0  0  0  0  0  0  0  0  0  0  0  0
    8.3176    1.8923    0.0000 H   0  0  0  0  0  0  0  0  0  0  0  0
   11.2708    1.8923    0.0000 H   0  0  0  0  0  0  0  0  0  0  0  0
   10.8723    2.5826    0.0000 H   0  0  0  0  0  0  0  0  0  0  0  0
    8.3176    1.1077    0.0000 H   0  0  0  0  0  0  0  0  0  0  0  0
    8.7162    0.4174    0.0000 H   0  0  0  0  0  0  0  0  0  0  0  0
   10.8723    0.4174    0.0000 H   0  0  0  0  0  0  0  0  0  0  0  0
   11.2708    1.1077    0.0000 H   0  0  0  0  0  0  0  0  0  0  0  0
    8.3913   -2.3100    0.0000 H   0  0  0  0  0  0  0  0  0  0  0  0
    8.0622    0.1200    0.0000 H   0  0  0  0  0  0  0  0  0  0  0  0
   11.1972   -2.3100    0.0000 H   0  0  0  0  0  0  0  0  0  0  0  0
    9.7942   -3.1200    0.0000 H   0  0  0  0  0  0  0  0  0  0  0  0
    6.7287   -0.0251    0.0000 H   0  0  0  0  0  0  0  0  0  0  0  0
    5.9316   -0.0251    0.0000 H   0  0  0  0  0  0  0  0  0  0  0  0
    4.9966   -0.0251    0.0000 H   0  0  0  0  0  0  0  0  0  0  0  0
    4.1996   -0.0251    0.0000 H   0  0  0  0  0  0  0  0  0  0  0  0
    4.2690   -2.3100    0.0000 H   0  0  0  0  0  0  0  0  0  0  0  0
    2.8660    0.1200    0.0000 H   0  0  0  0  0  0  0  0  0  0  0  0
    2.8660   -3.1200    0.0000 H   0  0  0  0  0  0  0  0  0  0  0  0
    1.4631   -0.6900    0.0000 H   0  0  0  0  0  0  0  0  0  0  0  0
  1 18  1  0  0  0  0
  1 19  1  0  0  0  0
  2 17  2  0  0  0  0
  3 10  1  0  0  0  0
  3 11  1  0  0  0  0
  3 12  1  0  0  0  0
  4 12  1  0  0  0  0
  4 15  2  0  0  0  0
  5 13  1  0  0  0  0
  5 17  1  0  0  0  0
  5 36  1  0  0  0  0
  6 23  2  0  0  0  0
  6 24  1  0  0  0  0
  7  8  1  0  0  0  0
  7  9  1  0  0  0  0
  7 25  1  0  0  0  0
  7 26  1  0  0  0  0
  8 10  1  0  0  0  0
  8 29  1  0  0  0  0
  8 30  1  0  0  0  0
  9 11  1  0  0  0  0
  9 27  1  0  0  0  0
  9 28  1  0  0  0  0
 10 33  1  0  0  0  0
 10 34  1  0  0  0  0
 11 31  1  0  0  0  0
 11 32  1  0  0  0  0
 12 13  2  0  0  0  0
 13 14  1  0  0  0  0
 14 16  2  0  0  0  0
 14 35  1  0  0  0  0
 15 16  1  0  0  0  0
 15 37  1  0  0  0  0
 16 38  1  0  0  0  0
 17 18  1  0  0  0  0
 18 39  1  0  0  0  0
 18 40  1  0  0  0  0
 19 20  1  0  0  0  0
 19 41  1  0  0  0  0
 19 42  1  0  0  0  0
 20 21  2  0  0  0  0
 20 22  1  0  0  0  0
 21 23  1  0  0  0  0
 21 43  1  0  0  0  0
 22 24  2  0  0  0  0
 22 44  1  0  0  0  0
 23 45  1  0  0  0  0
 24 46  1  0  0  0  0
M  END
> <PUBCHEM_COMPOUND_CID>
51090864

> <PUBCHEM_COMPOUND_CANONICALIZED>
1

> <PUBCHEM_CACTVS_COMPLEXITY>
383

> <PUBCHEM_CACTVS_HBOND_ACCEPTOR>
5

> <PUBCHEM_CACTVS_HBOND_DONOR>
1

> <PUBCHEM_CACTVS_ROTATABLE_BOND>
6

> <PUBCHEM_CACTVS_SUBSKEYS>
AAADceB7oABAAAAAAAAAAAAAAAAAAAAAAAAsWLAAAAAAAAAB4AAAHgQQAAAADAjF2gS98JPIEAioAjd3dACCgCkxEjAJ2CA4dJiIYOLgmZGUIAholALoyCYQAAAKAAAAAAAAAAAAAAAAAAAAAAAAAAAAAA==

> <PUBCHEM_IUPAC_OPENEYE_NAME>
N-[2-(1-piperidyl)-3-pyridyl]-2-(4-pyridylmethylsulfanyl)acetamide

> <PUBCHEM_IUPAC_CAS_NAME>
N-[2-(1-piperidinyl)-3-pyridinyl]-2-(pyridin-4-ylmethylthio)acetamide

> <PUBCHEM_IUPAC_NAME>
N-(2-piperidin-1-ylpyridin-3-yl)-2-(pyridin-4-ylmethylsulfanyl)acetamide

> <PUBCHEM_IUPAC_SYSTEMATIC_NAME>
N-(2-piperidin-1-ylpyridin-3-yl)-2-(pyridin-4-ylmethylsulfanyl)ethanamide

> <PUBCHEM_IUPAC_TRADITIONAL_NAME>
N-(2-piperidino-3-pyridyl)-2-(4-pyridylmethylthio)acetamide

> <PUBCHEM_IUPAC_INCHI>
InChI=1S/C18H22N4OS/c23-17(14-24-13-15-6-9-19-10-7-15)21-16-5-4-8-20-18(16)22-11-2-1-3-12-22/h4-10H,1-3,11-14H2,(H,21,23)

> <PUBCHEM_IUPAC_INCHIKEY>
ANYUHSIVXYYHRF-UHFFFAOYSA-N

> <PUBCHEM_XLOGP3_AA>
2.4

> <PUBCHEM_EXACT_MASS>
342.151432

> <PUBCHEM_MOLECULAR_FORMULA>
C18H22N4OS

> <PUBCHEM_MOLECULAR_WEIGHT>
342.45848

> <PUBCHEM_OPENEYE_CAN_SMILES>
C1CCN(CC1)C2=C(C=CC=N2)NC(=O)CSCC3=CC=NC=C3

> <PUBCHEM_OPENEYE_ISO_SMILES>
C1CCN(CC1)C2=C(C=CC=N2)NC(=O)CSCC3=CC=NC=C3

> <PUBCHEM_CACTVS_TPSA>
83.4

> <PUBCHEM_MONOISOTOPIC_WEIGHT>
342.151432

> <PUBCHEM_TOTAL_CHARGE>
0

> <PUBCHEM_HEAVY_ATOM_COUNT>
24

> <PUBCHEM_ATOM_DEF_STEREO_COUNT>
0

> <PUBCHEM_ATOM_UDEF_STEREO_COUNT>
0

> <PUBCHEM_BOND_DEF_STEREO_COUNT>
0

> <PUBCHEM_BOND_UDEF_STEREO_COUNT>
0

> <PUBCHEM_ISOTOPIC_ATOM_COUNT>
0

> <PUBCHEM_COMPONENT_COUNT>
1

> <PUBCHEM_CACTVS_TAUTO_COUNT>
3

> <PUBCHEM_COORDINATE_TYPE>
1
5
255

> <PUBCHEM_BONDANNOTATIONS>
12  13  8
13  14  8
14  16  8
15  16  8
20  21  8
20  22  8
21  23  8
22  24  8
4  12  8
4  15  8
6  23  8
6  24  8

$$$$

