582691
  -OEChem-06241222433D

 44 47  0     0  0  0  0  0  0999 V2000
   -1.0595    1.6651    2.1109 O   0  0  0  0  0  0  0  0  0  0  0  0
   -4.7617   -0.7422    1.4914 N   0  0  0  0  0  0  0  0  0  0  0  0
    3.6287    0.6445   -0.5707 N   0  0  0  0  0  0  0  0  0  0  0  0
   -0.4048    2.1909   -0.0519 N   0  0  0  0  0  0  0  0  0  0  0  0
    4.0898    0.2404   -1.7560 N   0  0  0  0  0  0  0  0  0  0  0  0
    0.9065    2.0541    0.2399 N   0  0  0  0  0  0  0  0  0  0  0  0
    4.3777   -1.0513   -1.6380 N   0  0  0  0  0  0  0  0  0  0  0  0
   -3.5165    0.8586    0.6336 C   0  0  0  0  0  0  0  0  0  0  0  0
   -3.6224   -0.1618   -0.3367 C   0  0  0  0  0  0  0  0  0  0  0  0
   -4.4144   -1.1640    0.2278 C   0  0  0  0  0  0  0  0  0  0  0  0
   -2.7610    2.1401    0.4803 C   0  0  0  0  0  0  0  0  0  0  0  0
   -4.2182    0.4886    1.7446 C   0  0  0  0  0  0  0  0  0  0  0  0
    3.2273    2.0362   -0.3916 C   0  0  0  0  0  0  0  0  0  0  0  0
   -3.1276   -0.3439   -1.6434 C   0  0  0  0  0  0  0  0  0  0  0  0
    3.5967   -0.3463    0.3517 C   0  0  0  0  0  0  0  0  0  0  0  0
   -4.7375   -2.3438   -0.4517 C   0  0  0  0  0  0  0  0  0  0  0  0
   -1.3298    1.9760    0.9519 C   0  0  0  0  0  0  0  0  0  0  0  0
    4.0847   -1.4361   -0.3563 C   0  0  0  0  0  0  0  0  0  0  0  0
    1.7620    2.2347   -0.7211 C   0  0  0  0  0  0  0  0  0  0  0  0
   -3.4428   -1.5190   -2.3352 C   0  0  0  0  0  0  0  0  0  0  0  0
   -4.2354   -2.5023   -1.7466 C   0  0  0  0  0  0  0  0  0  0  0  0
    3.2062   -0.4074    1.6877 C   0  0  0  0  0  0  0  0  0  0  0  0
    4.2014   -2.6784    0.2840 C   0  0  0  0  0  0  0  0  0  0  0  0
    1.4076    2.5878   -2.1473 C   0  0  0  0  0  0  0  0  0  0  0  0
    3.3275   -1.6524    2.3149 C   0  0  0  0  0  0  0  0  0  0  0  0
    3.8158   -2.7681    1.6279 C   0  0  0  0  0  0  0  0  0  0  0  0
   -3.2199    2.9318    1.0851 H   0  0  0  0  0  0  0  0  0  0  0  0
   -2.7992    2.4825   -0.5599 H   0  0  0  0  0  0  0  0  0  0  0  0
   -4.3853    0.9788    2.6935 H   0  0  0  0  0  0  0  0  0  0  0  0
   -5.3350   -1.2662    2.1382 H   0  0  0  0  0  0  0  0  0  0  0  0
    3.4232    2.3138    0.6493 H   0  0  0  0  0  0  0  0  0  0  0  0
    3.8588    2.6591   -1.0328 H   0  0  0  0  0  0  0  0  0  0  0  0
   -2.5070    0.4118   -2.1166 H   0  0  0  0  0  0  0  0  0  0  0  0
   -5.3546   -3.1099    0.0056 H   0  0  0  0  0  0  0  0  0  0  0  0
   -3.0635   -1.6651   -3.3431 H   0  0  0  0  0  0  0  0  0  0  0  0
   -4.4677   -3.4074   -2.3020 H   0  0  0  0  0  0  0  0  0  0  0  0
    2.8266    0.4562    2.2210 H   0  0  0  0  0  0  0  0  0  0  0  0
   -0.6760    2.4322   -0.9980 H   0  0  0  0  0  0  0  0  0  0  0  0
    4.5791   -3.5496   -0.2412 H   0  0  0  0  0  0  0  0  0  0  0  0
    2.3107    2.7074   -2.7514 H   0  0  0  0  0  0  0  0  0  0  0  0
    0.8031    1.7883   -2.5845 H   0  0  0  0  0  0  0  0  0  0  0  0
    0.8523    3.5294   -2.1694 H   0  0  0  0  0  0  0  0  0  0  0  0
    3.0357   -1.7536    3.3574 H   0  0  0  0  0  0  0  0  0  0  0  0
    3.8976   -3.7212    2.1442 H   0  0  0  0  0  0  0  0  0  0  0  0
  1 17  2  0  0  0  0
  2 10  1  0  0  0  0
  2 12  1  0  0  0  0
  2 30  1  0  0  0  0
  3  5  1  0  0  0  0
  3 13  1  0  0  0  0
  3 15  1  0  0  0  0
  4  6  1  0  0  0  0
  4 17  1  0  0  0  0
  4 38  1  0  0  0  0
  5  7  2  0  0  0  0
  6 19  2  0  0  0  0
  7 18  1  0  0  0  0
  8  9  1  0  0  0  0
  8 11  1  0  0  0  0
  8 12  2  0  0  0  0
  9 10  1  0  0  0  0
  9 14  2  0  0  0  0
 10 16  2  0  0  0  0
 11 17  1  0  0  0  0
 11 27  1  0  0  0  0
 11 28  1  0  0  0  0
 12 29  1  0  0  0  0
 13 19  1  0  0  0  0
 13 31  1  0  0  0  0
 13 32  1  0  0  0  0
 14 20  1  0  0  0  0
 14 33  1  0  0  0  0
 15 18  1  0  0  0  0
 15 22  2  0  0  0  0
 16 21  1  0  0  0  0
 16 34  1  0  0  0  0
 18 23  2  0  0  0  0
 19 24  1  0  0  0  0
 20 21  2  0  0  0  0
 20 35  1  0  0  0  0
 21 36  1  0  0  0  0
 22 25  1  0  0  0  0
 22 37  1  0  0  0  0
 23 26  1  0  0  0  0
 23 39  1  0  0  0  0
 24 40  1  0  0  0  0
 24 41  1  0  0  0  0
 24 42  1  0  0  0  0
 25 26  2  0  0  0  0
 25 43  1  0  0  0  0
 26 44  1  0  0  0  0
M  END
> <PUBCHEM_COMPOUND_CID>
582691

> <PUBCHEM_CONFORMER_RMSD>
0.8

> <PUBCHEM_CONFORMER_DIVERSEORDER>
1
259
319
107
84
313
237
436
196
6
25
139
391
388
261
195
128
214
421
145
299
140
297
201
269
223
122
132
417
37
429
365
311
34
175
293
93
343
445
251
390
142
47
292
367
155
265
127
368
360
68
180
83
396
116
307
192
171
316
167
232
302
244
225
240
407
176
133
23
387
312
97
216
186
274
26
138
383
258
158
381
286
399
113
427
181
428
347
78
50
117
282
57
300
166
350
438
356
295
246
32
231
270
123
340
366
255
24
405
151
29
315
278
168
357
254
134
182
426
218
239
184
236
318
54
339
52
317
342
202
185
308
60
320
247
287
19
409
157
362
112
397
36
194
262
424
65
146
199
53
279
305
403
392
226
72
329
415
280
110
355
389
242
20
349
71
401
16
87
283
328
330
136
38
96
412
120
398
335
129
406
58
164
14
149
273
310
61
210
325
51
144
41
94
378
187
141
114
373
211
359
314
298
10
234
447
204
104
322
267
66
170
243
263
143
103
443
420
404
63
444
272
31
80
369
358
79
163
227
375
27
8
431
130
253
205
11
345
327
59
165
382
18
394
346
70
229
303
156
102
5
125
12
73
290
206
338
148
376
126
332
106
371
82
15
257
294
198
4
178
411
111
235
13
348
386
361
437
285
393
183
135
203
74
434
341
331
301
197
101
212
419
109
220
161
354
207
416
98
353
188
326
309
230
219
2
336
400
379
105
9
410
281
91
224
159
42
423
39
432
276
377
49
440
380
284
441
33
150
177
425
221
233
238
215
64
121
372
439
321
275
86
35
3
413
100
418
256
92
264
217
289
344
179
17
304
118
115
190
433
250
271
108
268
7
430
241
446
46
169
75
77
22
154
69
323
119
21
422
408
402
30
147
162
414
67
124
228
351
55
249
191
43
81
306
174
40
90
374
435
152
266
288
137
89
99
395
56
193
160
370
385
363
48
260
88
153
352
324
245
85
189
296
442
277
209
76
213
291
44
252
172
131
364
334
28
45
384
248
208
95
62
200
333
173
222
337

> <PUBCHEM_MMFF94_PARTIAL_CHARGES>
36
1 -0.57
10 -0.15
11 0.24
12 -0.3
13 0.32
14 -0.15
15 -0.15
16 -0.15
17 0.57
18 0.23
19 0.33
2 0.03
20 -0.15
21 -0.15
22 -0.15
23 -0.15
24 0.06
25 -0.15
26 -0.15
29 0.15
3 0.31
30 0.27
33 0.15
34 0.15
35 0.15
36 0.15
37 0.15
38 0.37
39 0.15
4 -0.37
43 0.15
44 0.15
5 -0.42
6 -0.51
7 -0.23
8 -0.18

> <PUBCHEM_EFFECTIVE_ROTOR_COUNT>
6

> <PUBCHEM_PHARMACOPHORE_FEATURES>
9
1 1 acceptor
1 2 cation
1 2 donor
1 4 donor
1 6 acceptor
5 2 8 9 10 12 rings
5 3 5 7 15 18 rings
6 15 18 22 23 25 26 rings
6 9 10 14 16 20 21 rings

> <PUBCHEM_HEAVY_ATOM_COUNT>
26

> <PUBCHEM_ATOM_DEF_STEREO_COUNT>
0

> <PUBCHEM_ATOM_UDEF_STEREO_COUNT>
0

> <PUBCHEM_BOND_DEF_STEREO_COUNT>
0

> <PUBCHEM_BOND_UDEF_STEREO_COUNT>
1

> <PUBCHEM_ISOTOPIC_ATOM_COUNT>
0

> <PUBCHEM_COMPONENT_COUNT>
1

> <PUBCHEM_CACTVS_TAUTO_COUNT>
2

> <PUBCHEM_CONFORMER_ID>
0008E42300000001

> <PUBCHEM_MMFF94_ENERGY>
51.5713

> <PUBCHEM_FEATURE_SELFOVERLAP>
45.872

> <PUBCHEM_SHAPE_FINGERPRINT>
10042902 136 18336547243831194190
10928967 22 18341614853599358702
11796584 16 18260541251465772845
12174731 88 17979641461070721994
12410352 35 18408040719056699293
12422481 6 17823399639466858287
12633257 1 14129060335146601652
13383661 66 16759713055525747947
14251757 17 16845581910917939883
14480069 147 18199741458622415195
14508693 111 17607829213041314614
14705955 166 15359091792668269987
14848178 5 18336845137871524995
15001296 14 18262514780311076559
150020 26 16734372997164600662
15274700 34 15503238674452553653
15537594 2 18339065051726730905
208703 8 18409724066995831127
21049683 118 15145709644612878371
21315759 227 17987515909871287427
235170 7 15913320286629575459
3459 110 14418431948564914549
44062 13 18199754807159042941
46194498 28 15697133159393686124
463206 1 18339353046664140467

> <PUBCHEM_SHAPE_MULTIPOLES>
499.31
12.5
3.53
2.32
1.96
0.06
0.16
-8.86
0.43
-1.34
0.31
0.3
-0.38
-3.4

> <PUBCHEM_SHAPE_SELFOVERLAP>
1096.171

> <PUBCHEM_SHAPE_VOLUME>
271.6

> <PUBCHEM_COORDINATE_TYPE>
2
5
10

$$$$

