17395285
  -OEChem-06241222493D

 52 53  0     0  0  0  0  0  0999 V2000
    1.3779   -0.5318   -1.9184 S   0  0  0  0  0  0  0  0  0  0  0  0
    3.9421    1.1060   -1.8080 S   0  0  0  0  0  0  0  0  0  0  0  0
    0.2974    0.1399    2.0179 O   0  0  0  0  0  0  0  0  0  0  0  0
    2.0022    3.2151   -0.5940 O   0  0  0  0  0  0  0  0  0  0  0  0
    0.1621   -2.6036   -0.7507 N   0  0  0  0  0  0  0  0  0  0  0  0
   -0.9896    1.8599    1.0675 N   0  0  0  0  0  0  0  0  0  0  0  0
    2.3114   -1.9390    0.0086 N   0  0  0  0  0  0  0  0  0  0  0  0
    3.2797   -0.9881   -0.2626 N   0  0  0  0  0  0  0  0  0  0  0  0
    2.3926    2.1093    1.4127 N   0  0  0  0  0  0  0  0  0  0  0  0
   -0.0162   -3.7091    0.1737 C   0  0  0  0  0  0  0  0  0  0  0  0
    0.0379   -3.1688    1.6056 C   0  0  0  0  0  0  0  0  0  0  0  0
    1.1097   -4.7203   -0.0553 C   0  0  0  0  0  0  0  0  0  0  0  0
   -1.3767   -4.3599   -0.0915 C   0  0  0  0  0  0  0  0  0  0  0  0
    1.2678   -1.8127   -0.7828 C   0  0  0  0  0  0  0  0  0  0  0  0
   -2.8448    1.6363   -0.5096 C   0  0  0  0  0  0  0  0  0  0  0  0
   -2.1411    1.1796    0.6047 C   0  0  0  0  0  0  0  0  0  0  0  0
   -3.9773    0.9505   -0.9487 C   0  0  0  0  0  0  0  0  0  0  0  0
   -2.5700    0.0369    1.2801 C   0  0  0  0  0  0  0  0  0  0  0  0
   -4.4060   -0.1921   -0.2733 C   0  0  0  0  0  0  0  0  0  0  0  0
   -2.3886    2.8618   -1.2378 C   0  0  0  0  0  0  0  0  0  0  0  0
   -3.7024   -0.6489    0.8410 C   0  0  0  0  0  0  0  0  0  0  0  0
    2.9187   -0.1914   -1.2457 C   0  0  0  0  0  0  0  0  0  0  0  0
   -4.7486    1.4175   -2.1396 C   0  0  0  0  0  0  0  0  0  0  0  0
    1.1241    2.4010    2.0411 C   0  0  0  0  0  0  0  0  0  0  0  0
    0.1128    1.3155    1.7204 C   0  0  0  0  0  0  0  0  0  0  0  0
    4.0995    2.0925   -0.2955 C   0  0  0  0  0  0  0  0  0  0  0  0
    2.7255    2.5440    0.1403 C   0  0  0  0  0  0  0  0  0  0  0  0
   -0.1858   -3.9673    2.3233 H   0  0  0  0  0  0  0  0  0  0  0  0
   -0.7060   -2.3805    1.7573 H   0  0  0  0  0  0  0  0  0  0  0  0
    1.0140   -2.7649    1.8873 H   0  0  0  0  0  0  0  0  0  0  0  0
    0.9293   -5.6331    0.5251 H   0  0  0  0  0  0  0  0  0  0  0  0
    1.1747   -5.0108   -1.1108 H   0  0  0  0  0  0  0  0  0  0  0  0
    2.0946   -4.3528    0.2468 H   0  0  0  0  0  0  0  0  0  0  0  0
   -1.5550   -5.2015    0.5869 H   0  0  0  0  0  0  0  0  0  0  0  0
   -1.4419   -4.7370   -1.1188 H   0  0  0  0  0  0  0  0  0  0  0  0
   -2.1933   -3.6410    0.0434 H   0  0  0  0  0  0  0  0  0  0  0  0
   -0.5946   -2.4192   -1.4043 H   0  0  0  0  0  0  0  0  0  0  0  0
   -2.0715   -0.3283    2.1722 H   0  0  0  0  0  0  0  0  0  0  0  0
   -5.2864   -0.7385   -0.6012 H   0  0  0  0  0  0  0  0  0  0  0  0
   -0.8877    2.8115    0.7254 H   0  0  0  0  0  0  0  0  0  0  0  0
   -2.6263    3.7555   -0.6511 H   0  0  0  0  0  0  0  0  0  0  0  0
   -1.3072    2.8269   -1.4141 H   0  0  0  0  0  0  0  0  0  0  0  0
   -2.8325    2.9871   -2.2281 H   0  0  0  0  0  0  0  0  0  0  0  0
   -4.0402   -1.5348    1.3710 H   0  0  0  0  0  0  0  0  0  0  0  0
   -5.0749    2.4552   -2.0130 H   0  0  0  0  0  0  0  0  0  0  0  0
   -4.1492    1.3222   -3.0508 H   0  0  0  0  0  0  0  0  0  0  0  0
   -5.6559    0.8209   -2.2892 H   0  0  0  0  0  0  0  0  0  0  0  0
    0.7889    3.3956    1.7324 H   0  0  0  0  0  0  0  0  0  0  0  0
    1.2802    2.4139    3.1244 H   0  0  0  0  0  0  0  0  0  0  0  0
    4.7050    2.9804   -0.5014 H   0  0  0  0  0  0  0  0  0  0  0  0
    4.6091    1.5090    0.4770 H   0  0  0  0  0  0  0  0  0  0  0  0
    3.0516    1.5397    1.9350 H   0  0  0  0  0  0  0  0  0  0  0  0
  1 14  1  0  0  0  0
  1 22  1  0  0  0  0
  2 22  1  0  0  0  0
  2 26  1  0  0  0  0
  3 25  2  0  0  0  0
  4 27  2  0  0  0  0
  5 10  1  0  0  0  0
  5 14  1  0  0  0  0
  5 37  1  0  0  0  0
  6 16  1  0  0  0  0
  6 25  1  0  0  0  0
  6 40  1  0  0  0  0
  7  8  1  0  0  0  0
  7 14  2  0  0  0  0
  8 22  2  0  0  0  0
  9 24  1  0  0  0  0
  9 27  1  0  0  0  0
  9 52  1  0  0  0  0
 10 11  1  0  0  0  0
 10 12  1  0  0  0  0
 10 13  1  0  0  0  0
 11 28  1  0  0  0  0
 11 29  1  0  0  0  0
 11 30  1  0  0  0  0
 12 31  1  0  0  0  0
 12 32  1  0  0  0  0
 12 33  1  0  0  0  0
 13 34  1  0  0  0  0
 13 35  1  0  0  0  0
 13 36  1  0  0  0  0
 15 16  1  0  0  0  0
 15 17  2  0  0  0  0
 15 20  1  0  0  0  0
 16 18  2  0  0  0  0
 17 19  1  0  0  0  0
 17 23  1  0  0  0  0
 18 21  1  0  0  0  0
 18 38  1  0  0  0  0
 19 21  2  0  0  0  0
 19 39  1  0  0  0  0
 20 41  1  0  0  0  0
 20 42  1  0  0  0  0
 20 43  1  0  0  0  0
 21 44  1  0  0  0  0
 23 45  1  0  0  0  0
 23 46  1  0  0  0  0
 23 47  1  0  0  0  0
 24 25  1  0  0  0  0
 24 48  1  0  0  0  0
 24 49  1  0  0  0  0
 26 27  1  0  0  0  0
 26 50  1  0  0  0  0
 26 51  1  0  0  0  0
M  END
> <PUBCHEM_COMPOUND_CID>
17395285

> <PUBCHEM_CONFORMER_RMSD>
1.4

> <PUBCHEM_CONFORMER_DIVERSEORDER>
1
15
48
6
47
46
39
35
63
57
40
42
49
3
52
45
54
16
44
59
24
55
2
18
5
41
31
25
50
30
32
62
34
38
10
19
22
9
21
53
27
37
43
26
13
20
4
14
56
58
51
33
7
12
36
17
61
29
28
60
23
11
8

> <PUBCHEM_MMFF94_PARTIAL_CHARGES>
30
1 -0.08
10 0.37
14 0.46
15 -0.14
16 0.12
17 -0.14
18 -0.15
19 -0.15
2 -0.29
20 0.14
21 -0.15
22 0.43
23 0.14
24 0.36
25 0.57
26 0.29
27 0.57
3 -0.57
37 0.4
38 0.15
39 0.15
4 -0.57
40 0.37
44 0.15
5 -0.85
52 0.37
6 -0.55
7 -0.34
8 -0.34
9 -0.73

> <PUBCHEM_EFFECTIVE_ROTOR_COUNT>
10

> <PUBCHEM_PHARMACOPHORE_FEATURES>
10
1 3 acceptor
1 4 acceptor
1 5 donor
1 6 donor
1 8 acceptor
1 9 donor
3 5 7 14 cation
4 10 11 12 13 hydrophobe
5 1 7 8 14 22 rings
6 15 16 17 18 19 21 rings

> <PUBCHEM_HEAVY_ATOM_COUNT>
27

> <PUBCHEM_ATOM_DEF_STEREO_COUNT>
0

> <PUBCHEM_ATOM_UDEF_STEREO_COUNT>
0

> <PUBCHEM_BOND_DEF_STEREO_COUNT>
0

> <PUBCHEM_BOND_UDEF_STEREO_COUNT>
0

> <PUBCHEM_ISOTOPIC_ATOM_COUNT>
0

> <PUBCHEM_COMPONENT_COUNT>
1

> <PUBCHEM_CACTVS_TAUTO_COUNT>
8

> <PUBCHEM_CONFORMER_ID>
01096E5500000001

> <PUBCHEM_MMFF94_ENERGY>
66.4923

> <PUBCHEM_FEATURE_SELFOVERLAP>
50.743

> <PUBCHEM_SHAPE_FINGERPRINT>
10688039 33 17331396472333390458
108634 29 18043511851473304310
11014199 57 17400064770265932763
11370993 70 18343581845572606957
12156800 1 17610659364755998538
12553582 1 17041459082630601830
12788726 201 17100022289357642865
13004483 165 16540176394156799603
13402501 40 17973430023558460955
13965767 371 12823018586567072132
14068700 675 17327755392233513503
161222 10 15433180094905397733
19026451 147 17896616148472033255
20764821 26 18264765454949026547
21285901 2 17180248803369661986
23559900 14 18053396667096829703
238 59 18410860992341503151
26353 1 17404594757965862193
3052486 1 17837774430485697967
35225 105 18056210067716963946
508706 21 18121217571717545926
6669772 16 18115892740500173050

> <PUBCHEM_SHAPE_MULTIPOLES>
526.7
7.48
5.54
2.02
3.67
6.99
0.16
-5.27
-3.7
-1.63
0.43
0.06
-0.98
1.25

> <PUBCHEM_SHAPE_SELFOVERLAP>
1062.685

> <PUBCHEM_SHAPE_VOLUME>
311.7

> <PUBCHEM_COORDINATE_TYPE>
2
5
10

$$$$

