11938
  -OEChem-06261206183D

 26 28  0     0  0  0  0  0  0999 V2000
   -0.4348    1.4255    0.0000 N   0  0  0  0  0  0  0  0  0  0  0  0
    0.9277   -0.5576    0.0002 C   0  0  0  0  0  0  0  0  0  0  0  0
    0.7781    0.8396    0.0001 C   0  0  0  0  0  0  0  0  0  0  0  0
   -1.4952   -0.7342    0.0001 C   0  0  0  0  0  0  0  0  0  0  0  0
   -0.2333   -1.3373    0.0003 C   0  0  0  0  0  0  0  0  0  0  0  0
   -1.5499    0.6697   -0.0001 C   0  0  0  0  0  0  0  0  0  0  0  0
    2.2086   -1.1369    0.0005 C   0  0  0  0  0  0  0  0  0  0  0  0
    3.3446   -0.3329    0.0006 C   0  0  0  0  0  0  0  0  0  0  0  0
    1.9303    1.6213    0.0001 C   0  0  0  0  0  0  0  0  0  0  0  0
    3.2047    1.0490    0.0004 C   0  0  0  0  0  0  0  0  0  0  0  0
   -2.6784   -1.4934    0.0001 C   0  0  0  0  0  0  0  0  0  0  0  0
   -2.8033    1.2760   -0.0003 C   0  0  0  0  0  0  0  0  0  0  0  0
    4.7012   -0.9508   -0.0015 C   0  0  0  0  0  0  0  0  0  0  0  0
   -3.9191   -0.8628   -0.0001 C   0  0  0  0  0  0  0  0  0  0  0  0
   -3.9813    0.5248   -0.0003 C   0  0  0  0  0  0  0  0  0  0  0  0
   -0.1542   -2.4237    0.0005 H   0  0  0  0  0  0  0  0  0  0  0  0
    2.3151   -2.2201   -0.0014 H   0  0  0  0  0  0  0  0  0  0  0  0
    1.8469    2.7067   -0.0005 H   0  0  0  0  0  0  0  0  0  0  0  0
    4.0773    1.6969   -0.0017 H   0  0  0  0  0  0  0  0  0  0  0  0
   -2.6392   -2.5804    0.0003 H   0  0  0  0  0  0  0  0  0  0  0  0
   -2.8785    2.3620   -0.0004 H   0  0  0  0  0  0  0  0  0  0  0  0
    5.4402   -0.2887    0.4624 H   0  0  0  0  0  0  0  0  0  0  0  0
    4.7078   -1.8865    0.5678 H   0  0  0  0  0  0  0  0  0  0  0  0
    5.0168   -1.1611   -1.0282 H   0  0  0  0  0  0  0  0  0  0  0  0
   -4.8312   -1.4515    0.0000 H   0  0  0  0  0  0  0  0  0  0  0  0
   -4.9443    1.0269   -0.0005 H   0  0  0  0  0  0  0  0  0  0  0  0
  1  3  2  0  0  0  0
  1  6  1  0  0  0  0
  2  3  1  0  0  0  0
  2  5  2  0  0  0  0
  2  7  1  0  0  0  0
  3  9  1  0  0  0  0
  4  5  1  0  0  0  0
  4  6  1  0  0  0  0
  4 11  2  0  0  0  0
  5 16  1  0  0  0  0
  6 12  2  0  0  0  0
  7  8  2  0  0  0  0
  7 17  1  0  0  0  0
  8 10  1  0  0  0  0
  8 13  1  0  0  0  0
  9 10  2  0  0  0  0
  9 18  1  0  0  0  0
 10 19  1  0  0  0  0
 11 14  1  0  0  0  0
 11 20  1  0  0  0  0
 12 15  1  0  0  0  0
 12 21  1  0  0  0  0
 13 22  1  0  0  0  0
 13 23  1  0  0  0  0
 13 24  1  0  0  0  0
 14 15  2  0  0  0  0
 14 25  1  0  0  0  0
 15 26  1  0  0  0  0
M  END
> <PUBCHEM_COMPOUND_CID>
11938

> <PUBCHEM_CONFORMER_RMSD>
0.4

> <PUBCHEM_CONFORMER_DIVERSEORDER>
1

> <PUBCHEM_MMFF94_PARTIAL_CHARGES>
21
1 -0.62
10 -0.15
11 -0.15
12 -0.15
13 0.14
14 -0.15
15 -0.15
16 0.15
17 0.15
18 0.15
19 0.15
20 0.15
21 0.15
25 0.15
26 0.15
3 0.31
5 -0.15
6 0.31
7 -0.15
8 -0.14
9 -0.15

> <PUBCHEM_EFFECTIVE_ROTOR_COUNT>
0

> <PUBCHEM_PHARMACOPHORE_FEATURES>
4
1 1 acceptor
6 1 2 3 4 5 6 rings
6 2 3 7 8 9 10 rings
6 4 6 11 12 14 15 rings

> <PUBCHEM_HEAVY_ATOM_COUNT>
15

> <PUBCHEM_ATOM_DEF_STEREO_COUNT>
0

> <PUBCHEM_ATOM_UDEF_STEREO_COUNT>
0

> <PUBCHEM_BOND_DEF_STEREO_COUNT>
0

> <PUBCHEM_BOND_UDEF_STEREO_COUNT>
0

> <PUBCHEM_ISOTOPIC_ATOM_COUNT>
0

> <PUBCHEM_COMPONENT_COUNT>
1

> <PUBCHEM_CACTVS_TAUTO_COUNT>
1

> <PUBCHEM_CONFORMER_ID>
00002EA200000001

> <PUBCHEM_MMFF94_ENERGY>
46.7698

> <PUBCHEM_FEATURE_SELFOVERLAP>
20.358

> <PUBCHEM_SHAPE_FINGERPRINT>
10062212 137 18408893940111690319
10608611 8 18410578366145122353
10967382 1 18410574010931882375
11132069 177 18409454678056376768
11471102 20 18410859841168922652
12032990 46 18411415094398576579
12251169 10 18410011056678147563
13221675 6 18411420617700223419
13288520 33 18336825385791801430
13296908 3 18410573955092000315
13380535 76 18409729577591514735
13675066 3 18187369817952186690
13690532 89 18411701010709061922
14115302 16 17846205653420273374
14144814 61 18410856559766409753
14325111 11 18410855438732686945
15196674 1 18410856538165011557
15219456 202 18409169878764526840
15375462 189 18059296568897429442
15442244 35 18266177416767617290
15536298 74 18335139761262007656
16945 1 18338517572250667589
17802600 8 18411142436984508325
17804303 29 18409444791078662492
18186145 218 17846224340553744879
18522853 276 18334859420061659288
19422 9 18412259510707086492
200 152 17968103014491864847
20510252 161 18259983786143144137
20645477 70 18408323284976423294
21267235 1 18410846664109395387
21501502 16 18338795615548586789
21501925 9 18410301293815397138
221490 88 18269548347683074674
2255824 54 17988923341132402642
23402539 116 18187373146541181349
23402655 69 18408889555092382781
23463225 33 18412544305777951988
23559900 14 18335423452684663600
2748010 2 18410576145620331885
335352 9 18338799034368863549
4214541 1 18410856585520603489
474 4 16915370001751628452
5104073 3 18410292488715781208
69090 78 18261397732505884631
7364860 26 18263363595093696456
77779 3 18411417293411204660
8809292 202 18272365343570598475
9709674 26 18409725140843020150
9981440 41 17405147327290077096

> <PUBCHEM_SHAPE_MULTIPOLES>
303.71
7.71
1.71
0.61
1.33
0.15
0
-1.13
0
-0.02
0
0
-0.01
0

> <PUBCHEM_SHAPE_SELFOVERLAP>
685.7

> <PUBCHEM_SHAPE_VOLUME>
159.9

> <PUBCHEM_COORDINATE_TYPE>
2
5
10

$$$$

