17396393
  -OEChem-06241222563D

 33 34  0     0  0  0  0  0  0999 V2000
   -4.5757    1.1922   -0.3675 S   0  0  0  0  0  0  0  0  0  0  0  0
    4.4029   -1.7436    0.7120 O   0  0  0  0  0  0  0  0  0  0  0  0
    4.2506    0.2936   -0.4052 N   0  0  0  0  0  0  0  0  0  0  0  0
   -2.7769   -0.6237    0.0184 N   0  0  0  0  0  0  0  0  0  0  0  0
   -4.9928   -1.4272   -0.1678 N   0  0  0  0  0  0  0  0  0  0  0  0
    2.0532    0.9132    0.4445 C   0  0  0  0  0  0  0  0  0  0  0  0
   -0.7117    0.7056    0.1367 C   0  0  0  0  0  0  0  0  0  0  0  0
    3.5314    1.0235    0.6078 C   0  0  0  0  0  0  0  0  0  0  0  0
    1.3666    1.8432   -0.3360 C   0  0  0  0  0  0  0  0  0  0  0  0
    1.3574   -0.1208    1.0710 C   0  0  0  0  0  0  0  0  0  0  0  0
   -0.0159    1.7395   -0.4900 C   0  0  0  0  0  0  0  0  0  0  0  0
   -0.0250   -0.2244    0.9172 C   0  0  0  0  0  0  0  0  0  0  0  0
   -2.1348    0.5986   -0.0219 C   0  0  0  0  0  0  0  0  0  0  0  0
   -2.9434    1.6978   -0.2222 C   0  0  0  0  0  0  0  0  0  0  0  0
   -4.0661   -0.4322   -0.1526 C   0  0  0  0  0  0  0  0  0  0  0  0
    4.6263   -1.0338   -0.2651 C   0  0  0  0  0  0  0  0  0  0  0  0
    5.3427   -1.5583   -1.4806 C   0  0  0  0  0  0  0  0  0  0  0  0
   -4.6889   -2.8434    0.0014 C   0  0  0  0  0  0  0  0  0  0  0  0
    3.8499    2.0704    0.5457 H   0  0  0  0  0  0  0  0  0  0  0  0
    3.8347    0.6625    1.5981 H   0  0  0  0  0  0  0  0  0  0  0  0
    1.8983    2.6498   -0.8340 H   0  0  0  0  0  0  0  0  0  0  0  0
    1.8783   -0.8504    1.6850 H   0  0  0  0  0  0  0  0  0  0  0  0
   -0.5126    2.4723   -1.1206 H   0  0  0  0  0  0  0  0  0  0  0  0
   -0.5460   -1.0359    1.4198 H   0  0  0  0  0  0  0  0  0  0  0  0
    4.4665    0.7783   -1.2717 H   0  0  0  0  0  0  0  0  0  0  0  0
   -2.6908    2.7476   -0.2795 H   0  0  0  0  0  0  0  0  0  0  0  0
   -5.9726   -1.1948   -0.3062 H   0  0  0  0  0  0  0  0  0  0  0  0
    6.1111   -0.8506   -1.8049 H   0  0  0  0  0  0  0  0  0  0  0  0
    5.8239   -2.5107   -1.2418 H   0  0  0  0  0  0  0  0  0  0  0  0
    4.6227   -1.7106   -2.2893 H   0  0  0  0  0  0  0  0  0  0  0  0
   -4.2231   -3.0229    0.9752 H   0  0  0  0  0  0  0  0  0  0  0  0
   -4.0164   -3.1894   -0.7896 H   0  0  0  0  0  0  0  0  0  0  0  0
   -5.6126   -3.4272   -0.0517 H   0  0  0  0  0  0  0  0  0  0  0  0
  1 14  1  0  0  0  0
  1 15  1  0  0  0  0
  2 16  2  0  0  0  0
  3  8  1  0  0  0  0
  3 16  1  0  0  0  0
  3 25  1  0  0  0  0
  4 13  1  0  0  0  0
  4 15  2  0  0  0  0
  5 15  1  0  0  0  0
  5 18  1  0  0  0  0
  5 27  1  0  0  0  0
  6  8  1  0  0  0  0
  6  9  2  0  0  0  0
  6 10  1  0  0  0  0
  7 11  2  0  0  0  0
  7 12  1  0  0  0  0
  7 13  1  0  0  0  0
  8 19  1  0  0  0  0
  8 20  1  0  0  0  0
  9 11  1  0  0  0  0
  9 21  1  0  0  0  0
 10 12  2  0  0  0  0
 10 22  1  0  0  0  0
 11 23  1  0  0  0  0
 12 24  1  0  0  0  0
 13 14  2  0  0  0  0
 14 26  1  0  0  0  0
 16 17  1  0  0  0  0
 17 28  1  0  0  0  0
 17 29  1  0  0  0  0
 17 30  1  0  0  0  0
 18 31  1  0  0  0  0
 18 32  1  0  0  0  0
 18 33  1  0  0  0  0
M  END
> <PUBCHEM_COMPOUND_CID>
17396393

> <PUBCHEM_CONFORMER_RMSD>
0.6

> <PUBCHEM_CONFORMER_DIVERSEORDER>
3
1
40
18
37
39
19
4
26
12
20
21
22
33
17
31
23
41
44
27
5
14
24
32
6
36
42
29
7
25
30
38
13
8
15
9
10
28
35
34
43
16
11
2

> <PUBCHEM_MMFF94_PARTIAL_CHARGES>
25
1 -0.08
10 -0.15
11 -0.15
12 -0.15
13 0.17
14 -0.11
15 0.46
16 0.57
17 0.06
18 0.37
2 -0.57
21 0.15
22 0.15
23 0.15
24 0.15
25 0.37
26 0.15
27 0.4
3 -0.73
4 -0.57
5 -0.85
6 -0.14
7 0.05
8 0.44
9 -0.15

> <PUBCHEM_EFFECTIVE_ROTOR_COUNT>
5

> <PUBCHEM_PHARMACOPHORE_FEATURES>
6
1 2 acceptor
1 3 donor
1 5 donor
3 4 5 15 cation
5 1 4 13 14 15 rings
6 6 7 9 10 11 12 rings

> <PUBCHEM_HEAVY_ATOM_COUNT>
18

> <PUBCHEM_ATOM_DEF_STEREO_COUNT>
0

> <PUBCHEM_ATOM_UDEF_STEREO_COUNT>
0

> <PUBCHEM_BOND_DEF_STEREO_COUNT>
0

> <PUBCHEM_BOND_UDEF_STEREO_COUNT>
0

> <PUBCHEM_ISOTOPIC_ATOM_COUNT>
0

> <PUBCHEM_COMPONENT_COUNT>
1

> <PUBCHEM_CACTVS_TAUTO_COUNT>
4

> <PUBCHEM_CONFORMER_ID>
010972A900000003

> <PUBCHEM_MMFF94_ENERGY>
34.6479

> <PUBCHEM_FEATURE_SELFOVERLAP>
30.446

> <PUBCHEM_SHAPE_FINGERPRINT>
11128504 68 17131824383290120454
117890 112 10231759984958901783
11796584 16 18334295409098497382
12032990 46 18410294700629543816
12596602 18 14057017017400883998
12633257 1 15140963920008648893
12916754 54 18337670811507459073
12969540 114 14620790479408951198
13167823 11 18335704926996456631
13288520 33 18408321115917503916
13675066 3 18114190704594704089
13760787 5 15985109642996601840
13955234 65 17677339299526454344
14178000 29 18411978053306222012
14576447 43 18202009784921174355
15196674 1 18412266125009586793
15342816 4 18341893022104749206
17844677 252 18409726253234229665
17870717 6 18412825811325777711
193927 3 18408317765964403707
19784866 240 18186791496031166546
20374829 77 18340770446412753856
20645477 70 18334011692739377068
20871999 31 17918266546014125282
21065201 7 18411430513579427225
21267235 1 18343297047129901035
221490 88 18199464359916191905
22950370 63 18412259562494730828
23379529 103 18124025737664356139
23402539 116 18342463659458890532
23559900 14 18335148587003485569
2838139 119 11815893414798764990
29717793 49 18410864222489336493
3004659 81 18343299306224780422
33382 64 18113892741238661010
4214541 1 18410577305652093217
465052 167 17967245404244334118
4990 188 18412265055921439216
5104073 3 18260269641928331945
633830 44 17418372484659994600
77779 3 18410295796015041841
7970288 3 17830743050149632183
960060 61 18060129973363414310
9709674 26 18199467671446701451

> <PUBCHEM_SHAPE_MULTIPOLES>
353.47
12.23
2.32
0.95
2.54
1.09
0.05
7.73
2.72
-1.54
0.29
0.93
0.16
0.79

> <PUBCHEM_SHAPE_SELFOVERLAP>
732.797

> <PUBCHEM_SHAPE_VOLUME>
204.5

> <PUBCHEM_COORDINATE_TYPE>
2
5
10

$$$$

