12806
  -OEChem-06261207233D

 16 16  0     0  0  0  0  0  0999 V2000
    2.4779   -1.2551    0.0015 F   0  0  0  0  0  0  0  0  0  0  0  0
    2.4802    0.6278   -1.0856 F   0  0  0  0  0  0  0  0  0  0  0  0
    2.4519    0.6316    1.0946 F   0  0  0  0  0  0  0  0  0  0  0  0
   -0.1394   -1.2003   -0.0014 N   0  0  0  0  0  0  0  0  0  0  0  0
   -0.1394    1.1993   -0.0024 N   0  0  0  0  0  0  0  0  0  0  0  0
   -2.2175   -0.0005   -0.0014 N   0  0  0  0  0  0  0  0  0  0  0  0
   -2.1857   -2.3455    0.0015 N   0  0  0  0  0  0  0  0  0  0  0  0
   -2.1859    2.3443   -0.0008 N   0  0  0  0  0  0  0  0  0  0  0  0
    0.4636   -0.0004   -0.0021 C   0  0  0  0  0  0  0  0  0  0  0  0
    1.9544   -0.0002   -0.0005 C   0  0  0  0  0  0  0  0  0  0  0  0
   -1.4800   -1.1226   -0.0012 C   0  0  0  0  0  0  0  0  0  0  0  0
   -1.4800    1.1216   -0.0022 C   0  0  0  0  0  0  0  0  0  0  0  0
   -3.1963   -2.3362    0.0025 H   0  0  0  0  0  0  0  0  0  0  0  0
   -1.6720   -3.2158    0.0025 H   0  0  0  0  0  0  0  0  0  0  0  0
   -1.6723    3.2147   -0.0009 H   0  0  0  0  0  0  0  0  0  0  0  0
   -3.1965    2.3347    0.0000 H   0  0  0  0  0  0  0  0  0  0  0  0
  1 10  1  0  0  0  0
  2 10  1  0  0  0  0
  3 10  1  0  0  0  0
  4  9  2  0  0  0  0
  4 11  1  0  0  0  0
  5  9  1  0  0  0  0
  5 12  2  0  0  0  0
  6 11  2  0  0  0  0
  6 12  1  0  0  0  0
  7 11  1  0  0  0  0
  7 13  1  0  0  0  0
  7 14  1  0  0  0  0
  8 12  1  0  0  0  0
  8 15  1  0  0  0  0
  8 16  1  0  0  0  0
  9 10  1  0  0  0  0
M  END
> <PUBCHEM_COMPOUND_CID>
12806

> <PUBCHEM_CONFORMER_RMSD>
0.4

> <PUBCHEM_CONFORMER_DIVERSEORDER>
1

> <PUBCHEM_MMFF94_PARTIAL_CHARGES>
16
1 -0.34
10 1.16
11 0.72
12 0.72
13 0.4
14 0.4
15 0.4
16 0.4
2 -0.34
3 -0.34
4 -0.62
5 -0.62
6 -0.62
7 -0.9
8 -0.9
9 0.48

> <PUBCHEM_EFFECTIVE_ROTOR_COUNT>
1

> <PUBCHEM_PHARMACOPHORE_FEATURES>
5
1 7 donor
1 8 donor
4 4 6 7 11 cation
4 5 6 8 12 cation
6 4 5 6 9 11 12 rings

> <PUBCHEM_HEAVY_ATOM_COUNT>
12

> <PUBCHEM_ATOM_DEF_STEREO_COUNT>
0

> <PUBCHEM_ATOM_UDEF_STEREO_COUNT>
0

> <PUBCHEM_BOND_DEF_STEREO_COUNT>
0

> <PUBCHEM_BOND_UDEF_STEREO_COUNT>
0

> <PUBCHEM_ISOTOPIC_ATOM_COUNT>
0

> <PUBCHEM_COMPONENT_COUNT>
1

> <PUBCHEM_CACTVS_TAUTO_COUNT>
5

> <PUBCHEM_CONFORMER_ID>
0000320600000001

> <PUBCHEM_MMFF94_ENERGY>
25.4219

> <PUBCHEM_FEATURE_SELFOVERLAP>
25.415

> <PUBCHEM_SHAPE_FINGERPRINT>
1 1 17762624292817810885
10857977 72 18191597345328859146
12716758 59 18336267945711533259
12932764 1 17894348852358217374
16945 1 18410856534075772577
19973954 147 18409168792327808968
20871998 184 18188206511820094119
21040471 1 18338517576582694565
23552423 10 18273494576546109818
23559900 14 18116429444515544934
241688 4 18194402195586556771
2748010 2 18123463045434469365
369184 2 18114470014833726163
5084963 1 18270398424689856760
81228 2 18411422774248449441

> <PUBCHEM_SHAPE_MULTIPOLES>
200.23
3.75
2.04
0.7
1.5
0.1
0
0
0.01
-1.78
0
0.38
-0.1
0

> <PUBCHEM_SHAPE_SELFOVERLAP>
420.328

> <PUBCHEM_SHAPE_VOLUME>
112.7

> <PUBCHEM_COORDINATE_TYPE>
2
5
10

$$$$

