9165
  -OEChem-06261203282D

 35 39  0     0  0  0  0  0  0999 V2000
    2.9643   -0.1896    0.0000 N   0  0  0  0  0  0  0  0  0  0  0  0
    4.7403   -0.1827    0.0000 C   0  0  0  0  0  0  0  0  0  0  0  0
    5.6063    0.3173    0.0000 C   0  0  0  0  0  0  0  0  0  0  0  0
    3.8743    0.3173    0.0000 C   0  0  0  0  0  0  0  0  0  0  0  0
    5.6063    1.3173    0.0000 C   0  0  0  0  0  0  0  0  0  0  0  0
    3.8743    1.3173    0.0000 C   0  0  0  0  0  0  0  0  0  0  0  0
    4.7403    1.8173    0.0000 C   0  0  0  0  0  0  0  0  0  0  0  0
    4.7564   -1.2242    0.0000 C   0  0  0  0  0  0  0  0  0  0  0  0
    3.8583   -1.7520    0.0000 C   0  0  0  0  0  0  0  0  0  0  0  0
    2.9562   -1.2312    0.0000 C   0  0  0  0  0  0  0  0  0  0  0  0
    6.5003   -0.2174    0.0000 C   0  0  0  0  0  0  0  0  0  0  0  0
    6.5003    1.8520    0.0000 C   0  0  0  0  0  0  0  0  0  0  0  0
    2.9643    1.8241    0.0000 C   0  0  0  0  0  0  0  0  0  0  0  0
    4.7564    2.8588    0.0000 C   0  0  0  0  0  0  0  0  0  0  0  0
    7.4063    0.2965    0.0000 C   0  0  0  0  0  0  0  0  0  0  0  0
    7.4063    1.3381    0.0000 C   0  0  0  0  0  0  0  0  0  0  0  0
    2.9562    2.8657    0.0000 C   0  0  0  0  0  0  0  0  0  0  0  0
    3.8583    3.3866    0.0000 C   0  0  0  0  0  0  0  0  0  0  0  0
    3.8751   -2.8368    0.0000 C   0  0  0  0  0  0  0  0  0  0  0  0
    2.0084   -1.7591    0.0000 C   0  0  0  0  0  0  0  0  0  0  0  0
    2.9396   -3.3866    0.0000 C   0  0  0  0  0  0  0  0  0  0  0  0
    2.0000   -2.8441    0.0000 C   0  0  0  0  0  0  0  0  0  0  0  0
    5.2968   -1.5280    0.0000 H   0  0  0  0  0  0  0  0  0  0  0  0
    6.4931   -0.8373    0.0000 H   0  0  0  0  0  0  0  0  0  0  0  0
    6.4931    2.4719    0.0000 H   0  0  0  0  0  0  0  0  0  0  0  0
    2.4310    1.5079    0.0000 H   0  0  0  0  0  0  0  0  0  0  0  0
    5.2968    3.1626    0.0000 H   0  0  0  0  0  0  0  0  0  0  0  0
    7.9421   -0.0156    0.0000 H   0  0  0  0  0  0  0  0  0  0  0  0
    7.9421    1.6502    0.0000 H   0  0  0  0  0  0  0  0  0  0  0  0
    2.4181    3.1737    0.0000 H   0  0  0  0  0  0  0  0  0  0  0  0
    3.8607    4.0066    0.0000 H   0  0  0  0  0  0  0  0  0  0  0  0
    4.4155   -3.1406    0.0000 H   0  0  0  0  0  0  0  0  0  0  0  0
    1.4750   -1.4429    0.0000 H   0  0  0  0  0  0  0  0  0  0  0  0
    2.9420   -4.0066    0.0000 H   0  0  0  0  0  0  0  0  0  0  0  0
    1.4619   -3.1520    0.0000 H   0  0  0  0  0  0  0  0  0  0  0  0
  1  4  2  0  0  0  0
  1 10  1  0  0  0  0
  2  3  1  0  0  0  0
  2  4  1  0  0  0  0
  2  8  2  0  0  0  0
  3  5  1  0  0  0  0
  3 11  2  0  0  0  0
  4  6  1  0  0  0  0
  5  7  1  0  0  0  0
  5 12  2  0  0  0  0
  6  7  1  0  0  0  0
  6 13  2  0  0  0  0
  7 14  2  0  0  0  0
  8  9  1  0  0  0  0
  8 23  1  0  0  0  0
  9 10  1  0  0  0  0
  9 19  2  0  0  0  0
 10 20  2  0  0  0  0
 11 15  1  0  0  0  0
 11 24  1  0  0  0  0
 12 16  1  0  0  0  0
 12 25  1  0  0  0  0
 13 17  1  0  0  0  0
 13 26  1  0  0  0  0
 14 18  1  0  0  0  0
 14 27  1  0  0  0  0
 15 16  2  0  0  0  0
 15 28  1  0  0  0  0
 16 29  1  0  0  0  0
 17 18  2  0  0  0  0
 17 30  1  0  0  0  0
 18 31  1  0  0  0  0
 19 21  1  0  0  0  0
 19 32  1  0  0  0  0
 20 22  1  0  0  0  0
 20 33  1  0  0  0  0
 21 22  2  0  0  0  0
 21 34  1  0  0  0  0
 22 35  1  0  0  0  0
M  END
> <PUBCHEM_COMPOUND_CID>
9165

> <PUBCHEM_COMPOUND_CANONICALIZED>
1

> <PUBCHEM_CACTVS_COMPLEXITY>
405

> <PUBCHEM_CACTVS_HBOND_ACCEPTOR>
1

> <PUBCHEM_CACTVS_HBOND_DONOR>
0

> <PUBCHEM_CACTVS_ROTATABLE_BOND>
0

> <PUBCHEM_CACTVS_SUBSKEYS>
AAADccB6AAAAAAAAAAAAAAAAAAAAAAAAAAA8YMGCAAAAAADx/AAAHAAAAAAADAiBHgAwwPIIEACgAyRiRACCgCAhAiAImCAwZJgIIOLAkZGEIAhggADIyAcQgMAOyAACQAASAACQAASAACQAAAAAAAAAAA==

> <PUBCHEM_IUPAC_OPENEYE_NAME>
phenanthro[9,10-b]quinoline

> <PUBCHEM_IUPAC_CAS_NAME>
phenanthro[9,10-b]quinoline

> <PUBCHEM_IUPAC_NAME>
phenanthro[9,10-b]quinoline

> <PUBCHEM_IUPAC_SYSTEMATIC_NAME>
phenanthro[9,10-b]quinoline

> <PUBCHEM_IUPAC_TRADITIONAL_NAME>
phenanthro[9,10-b]quinoline

> <PUBCHEM_IUPAC_INCHI>
InChI=1S/C21H13N/c1-6-12-20-14(7-1)13-19-17-10-3-2-8-15(17)16-9-4-5-11-18(16)21(19)22-20/h1-13H

> <PUBCHEM_IUPAC_INCHIKEY>
GUZBPGZOTDAWBO-UHFFFAOYSA-N

> <PUBCHEM_XLOGP3_AA>
5.7

> <PUBCHEM_EXACT_MASS>
279.104799

> <PUBCHEM_MOLECULAR_FORMULA>
C21H13N

> <PUBCHEM_MOLECULAR_WEIGHT>
279.33462

> <PUBCHEM_OPENEYE_CAN_SMILES>
C1=CC=C2C(=C1)C=C3C4=CC=CC=C4C5=CC=CC=C5C3=N2

> <PUBCHEM_OPENEYE_ISO_SMILES>
C1=CC=C2C(=C1)C=C3C4=CC=CC=C4C5=CC=CC=C5C3=N2

> <PUBCHEM_CACTVS_TPSA>
12.9

> <PUBCHEM_MONOISOTOPIC_WEIGHT>
279.104799

> <PUBCHEM_TOTAL_CHARGE>
0

> <PUBCHEM_HEAVY_ATOM_COUNT>
22

> <PUBCHEM_ATOM_DEF_STEREO_COUNT>
0

> <PUBCHEM_ATOM_UDEF_STEREO_COUNT>
0

> <PUBCHEM_BOND_DEF_STEREO_COUNT>
0

> <PUBCHEM_BOND_UDEF_STEREO_COUNT>
0

> <PUBCHEM_ISOTOPIC_ATOM_COUNT>
0

> <PUBCHEM_COMPONENT_COUNT>
1

> <PUBCHEM_CACTVS_TAUTO_COUNT>
1

> <PUBCHEM_COORDINATE_TYPE>
1
5
255

> <PUBCHEM_BONDANNOTATIONS>
1  10  8
1  4  8
10  20  8
11  15  8
12  16  8
13  17  8
14  18  8
15  16  8
17  18  8
19  21  8
2  3  8
2  4  8
2  8  8
20  22  8
21  22  8
3  11  8
3  5  8
4  6  8
5  12  8
5  7  8
6  13  8
6  7  8
7  14  8
8  9  8
9  10  8
9  19  8

$$$$

