17396217
  -OEChem-06241222552D

 48 50  0     0  0  0  0  0  0999 V2000
    5.4641   -3.5000    0.0000 O   0  0  0  0  0  0  0  0  0  0  0  0
    8.0622   -1.0000    0.0000 O   0  0  0  0  0  0  0  0  0  0  0  0
    3.7320    0.5000    0.0000 O   0  0  0  0  0  0  0  0  0  0  0  0
    4.5981    5.0000    0.0000 O   0  0  0  0  0  0  0  0  0  0  0  0
    5.4641    3.5000    0.0000 O   0  0  0  0  0  0  0  0  0  0  0  0
    6.3301   -1.0000    0.0000 N   0  0  0  0  0  0  0  0  0  0  0  0
    5.4641   -0.5000    0.0000 N   0  0  0  0  0  0  0  0  0  0  0  0
    4.5981    2.0000    0.0000 N   0  0  0  0  0  0  0  0  0  0  0  0
    6.3301   -2.0000    0.0000 C   0  0  0  0  0  0  0  0  0  0  0  0
    5.4641   -2.5000    0.0000 C   0  0  0  0  0  0  0  0  0  0  0  0
    5.4641    0.5000    0.0000 C   0  0  0  0  0  0  0  0  0  0  0  0
    7.1962   -0.5000    0.0000 C   0  0  0  0  0  0  0  0  0  0  0  0
    3.7320    2.5000    0.0000 C   0  0  0  0  0  0  0  0  0  0  0  0
    6.3301    1.0000    0.0000 C   0  0  0  0  0  0  0  0  0  0  0  0
    4.5981    1.0000    0.0000 C   0  0  0  0  0  0  0  0  0  0  0  0
    7.1962    0.5000    0.0000 C   0  0  0  0  0  0  0  0  0  0  0  0
    3.7320    3.5000    0.0000 C   0  0  0  0  0  0  0  0  0  0  0  0
    4.5981   -4.0000    0.0000 C   0  0  0  0  0  0  0  0  0  0  0  0
    2.8660    2.0000    0.0000 C   0  0  0  0  0  0  0  0  0  0  0  0
    2.8660    4.0000    0.0000 C   0  0  0  0  0  0  0  0  0  0  0  0
    2.0000    2.5000    0.0000 C   0  0  0  0  0  0  0  0  0  0  0  0
    2.0000    3.5000    0.0000 C   0  0  0  0  0  0  0  0  0  0  0  0
    3.7320   -3.5000    0.0000 C   0  0  0  0  0  0  0  0  0  0  0  0
    4.5981   -5.0000    0.0000 C   0  0  0  0  0  0  0  0  0  0  0  0
    4.5981    4.0000    0.0000 C   0  0  0  0  0  0  0  0  0  0  0  0
    2.8660   -4.0000    0.0000 C   0  0  0  0  0  0  0  0  0  0  0  0
    3.7320   -5.5000    0.0000 C   0  0  0  0  0  0  0  0  0  0  0  0
    2.8660   -5.0000    0.0000 C   0  0  0  0  0  0  0  0  0  0  0  0
    5.4641    5.5000    0.0000 C   0  0  0  0  0  0  0  0  0  0  0  0
    6.5422   -2.5826    0.0000 H   0  0  0  0  0  0  0  0  0  0  0  0
    6.9407   -1.8923    0.0000 H   0  0  0  0  0  0  0  0  0  0  0  0
    5.2520   -1.9174    0.0000 H   0  0  0  0  0  0  0  0  0  0  0  0
    4.8535   -2.6077    0.0000 H   0  0  0  0  0  0  0  0  0  0  0  0
    6.3301    1.6200    0.0000 H   0  0  0  0  0  0  0  0  0  0  0  0
    7.7331    0.8100    0.0000 H   0  0  0  0  0  0  0  0  0  0  0  0
    5.1350    2.3100    0.0000 H   0  0  0  0  0  0  0  0  0  0  0  0
    2.8660    1.3800    0.0000 H   0  0  0  0  0  0  0  0  0  0  0  0
    2.8660    4.6200    0.0000 H   0  0  0  0  0  0  0  0  0  0  0  0
    1.4631    2.1900    0.0000 H   0  0  0  0  0  0  0  0  0  0  0  0
    1.4631    3.8100    0.0000 H   0  0  0  0  0  0  0  0  0  0  0  0
    3.7320   -2.8800    0.0000 H   0  0  0  0  0  0  0  0  0  0  0  0
    5.1350   -5.3100    0.0000 H   0  0  0  0  0  0  0  0  0  0  0  0
    2.3291   -3.6900    0.0000 H   0  0  0  0  0  0  0  0  0  0  0  0
    3.7320   -6.1200    0.0000 H   0  0  0  0  0  0  0  0  0  0  0  0
    2.3291   -5.3100    0.0000 H   0  0  0  0  0  0  0  0  0  0  0  0
    5.7741    4.9631    0.0000 H   0  0  0  0  0  0  0  0  0  0  0  0
    6.0010    5.8100    0.0000 H   0  0  0  0  0  0  0  0  0  0  0  0
    5.1541    6.0369    0.0000 H   0  0  0  0  0  0  0  0  0  0  0  0
  1 10  1  0  0  0  0
  1 18  1  0  0  0  0
  2 12  2  0  0  0  0
  3 15  2  0  0  0  0
  4 25  1  0  0  0  0
  4 29  1  0  0  0  0
  5 25  2  0  0  0  0
  6  7  1  0  0  0  0
  6  9  1  0  0  0  0
  6 12  1  0  0  0  0
  7 11  2  0  0  0  0
  8 13  1  0  0  0  0
  8 15  1  0  0  0  0
  8 36  1  0  0  0  0
  9 10  1  0  0  0  0
  9 30  1  0  0  0  0
  9 31  1  0  0  0  0
 10 32  1  0  0  0  0
 10 33  1  0  0  0  0
 11 14  1  0  0  0  0
 11 15  1  0  0  0  0
 12 16  1  0  0  0  0
 13 17  1  0  0  0  0
 13 19  2  0  0  0  0
 14 16  2  0  0  0  0
 14 34  1  0  0  0  0
 16 35  1  0  0  0  0
 17 20  2  0  0  0  0
 17 25  1  0  0  0  0
 18 23  2  0  0  0  0
 18 24  1  0  0  0  0
 19 21  1  0  0  0  0
 19 37  1  0  0  0  0
 20 22  1  0  0  0  0
 20 38  1  0  0  0  0
 21 22  2  0  0  0  0
 21 39  1  0  0  0  0
 22 40  1  0  0  0  0
 23 26  1  0  0  0  0
 23 41  1  0  0  0  0
 24 27  2  0  0  0  0
 24 42  1  0  0  0  0
 26 28  2  0  0  0  0
 26 43  1  0  0  0  0
 27 28  1  0  0  0  0
 27 44  1  0  0  0  0
 28 45  1  0  0  0  0
 29 46  1  0  0  0  0
 29 47  1  0  0  0  0
 29 48  1  0  0  0  0
M  END
> <PUBCHEM_COMPOUND_CID>
17396217

> <PUBCHEM_COMPOUND_CANONICALIZED>
1

> <PUBCHEM_CACTVS_COMPLEXITY>
669

> <PUBCHEM_CACTVS_HBOND_ACCEPTOR>
6

> <PUBCHEM_CACTVS_HBOND_DONOR>
1

> <PUBCHEM_CACTVS_ROTATABLE_BOND>
8

> <PUBCHEM_CACTVS_SUBSKEYS>
AAADceB7OAAAAAAAAAAAAAAAAAAAAAAAAAAwYIAAAAAAAAABQAAAHgAYAAAADAzhmAYyzoLABACoAyXyWACSCAAlIgAaiAEebNgOJjrEtZuHOajm3hHY6ceYyCCOAAAAAAACAAAAAAAAAAQAAAAAAAAAAA==

> <PUBCHEM_IUPAC_OPENEYE_NAME>
methyl 2-[[6-oxo-1-(2-phenoxyethyl)pyridazine-3-carbonyl]amino]benzoate

> <PUBCHEM_IUPAC_CAS_NAME>
2-[[oxo-[6-oxo-1-(2-phenoxyethyl)-3-pyridazinyl]methyl]amino]benzoic acid methyl ester

> <PUBCHEM_IUPAC_NAME>
methyl 2-[[6-oxo-1-(2-phenoxyethyl)pyridazine-3-carbonyl]amino]benzoate

> <PUBCHEM_IUPAC_SYSTEMATIC_NAME>
methyl 2-[[6-oxidanylidene-1-(2-phenoxyethyl)pyridazin-3-yl]carbonylamino]benzoate

> <PUBCHEM_IUPAC_TRADITIONAL_NAME>
2-[[6-keto-1-(2-phenoxyethyl)pyridazine-3-carbonyl]amino]benzoic acid methyl ester

> <PUBCHEM_IUPAC_INCHI>
InChI=1S/C21H19N3O5/c1-28-21(27)16-9-5-6-10-17(16)22-20(26)18-11-12-19(25)24(23-18)13-14-29-15-7-3-2-4-8-15/h2-12H,13-14H2,1H3,(H,22,26)

> <PUBCHEM_IUPAC_INCHIKEY>
XGZFQUARBDCURG-UHFFFAOYSA-N

> <PUBCHEM_XLOGP3_AA>
2.8

> <PUBCHEM_EXACT_MASS>
393.132471

> <PUBCHEM_MOLECULAR_FORMULA>
C21H19N3O5

> <PUBCHEM_MOLECULAR_WEIGHT>
393.39266

> <PUBCHEM_OPENEYE_CAN_SMILES>
COC(=O)C1=CC=CC=C1NC(=O)C2=NN(C(=O)C=C2)CCOC3=CC=CC=C3

> <PUBCHEM_OPENEYE_ISO_SMILES>
COC(=O)C1=CC=CC=C1NC(=O)C2=NN(C(=O)C=C2)CCOC3=CC=CC=C3

> <PUBCHEM_CACTVS_TPSA>
97.3

> <PUBCHEM_MONOISOTOPIC_WEIGHT>
393.132471

> <PUBCHEM_TOTAL_CHARGE>
0

> <PUBCHEM_HEAVY_ATOM_COUNT>
29

> <PUBCHEM_ATOM_DEF_STEREO_COUNT>
0

> <PUBCHEM_ATOM_UDEF_STEREO_COUNT>
0

> <PUBCHEM_BOND_DEF_STEREO_COUNT>
0

> <PUBCHEM_BOND_UDEF_STEREO_COUNT>
0

> <PUBCHEM_ISOTOPIC_ATOM_COUNT>
0

> <PUBCHEM_COMPONENT_COUNT>
1

> <PUBCHEM_CACTVS_TAUTO_COUNT>
5

> <PUBCHEM_COORDINATE_TYPE>
1
5
255

> <PUBCHEM_BONDANNOTATIONS>
11  14  8
12  16  8
13  17  8
13  19  8
14  16  8
17  20  8
18  23  8
18  24  8
19  21  8
20  22  8
21  22  8
23  26  8
24  27  8
26  28  8
27  28  8
6  12  8
6  7  8
7  11  8

$$$$

