17395277
  -OEChem-06241222493D

 45 47  0     0  0  0  0  0  0999 V2000
   -1.4135    2.9117    1.4367 S   0  0  0  0  0  0  0  0  0  0  0  0
   -3.2493    0.2443    0.3490 O   0  0  0  0  0  0  0  0  0  0  0  0
    2.0286   -0.0571    0.8526 O   0  0  0  0  0  0  0  0  0  0  0  0
    3.8842    0.5424   -0.4547 N   0  0  0  0  0  0  0  0  0  0  0  0
   -0.5239    1.5817   -0.5936 N   0  0  0  0  0  0  0  0  0  0  0  0
    1.9061    1.9202   -0.5251 C   0  0  0  0  0  0  0  0  0  0  0  0
    4.8236   -0.4737   -0.1581 C   0  0  0  0  0  0  0  0  0  0  0  0
    0.5617    2.1573    0.0371 C   0  0  0  0  0  0  0  0  0  0  0  0
    6.0866   -0.4753   -0.7500 C   0  0  0  0  0  0  0  0  0  0  0  0
    2.5942    0.6809    0.0521 C   0  0  0  0  0  0  0  0  0  0  0  0
   -1.6174    1.9116    0.0572 C   0  0  0  0  0  0  0  0  0  0  0  0
   -2.9965    1.4748   -0.3277 C   0  0  0  0  0  0  0  0  0  0  0  0
    4.4731   -1.4818    0.7399 C   0  0  0  0  0  0  0  0  0  0  0  0
    0.2781    2.9141    1.1546 C   0  0  0  0  0  0  0  0  0  0  0  0
    6.9992   -1.4848   -0.4438 C   0  0  0  0  0  0  0  0  0  0  0  0
   -4.4528   -0.3503    0.1245 C   0  0  0  0  0  0  0  0  0  0  0  0
    6.4892    0.5916   -1.7157 C   0  0  0  0  0  0  0  0  0  0  0  0
    5.3856   -2.4914    1.0462 C   0  0  0  0  0  0  0  0  0  0  0  0
   -6.9202   -1.5680   -0.3349 C   0  0  0  0  0  0  0  0  0  0  0  0
    6.6486   -2.4929    0.4543 C   0  0  0  0  0  0  0  0  0  0  0  0
   -5.3751    0.2456   -0.7358 C   0  0  0  0  0  0  0  0  0  0  0  0
   -4.7643   -1.5548    0.7552 C   0  0  0  0  0  0  0  0  0  0  0  0
   -6.6087   -0.3633   -0.9655 C   0  0  0  0  0  0  0  0  0  0  0  0
   -5.9980   -2.1636    0.5254 C   0  0  0  0  0  0  0  0  0  0  0  0
   -8.2391   -2.2192   -0.5800 C   0  0  0  0  0  0  0  0  0  0  0  0
    1.8377    1.7927   -1.6124 H   0  0  0  0  0  0  0  0  0  0  0  0
    2.5500    2.7892   -0.3410 H   0  0  0  0  0  0  0  0  0  0  0  0
    4.1904    1.2515   -1.1153 H   0  0  0  0  0  0  0  0  0  0  0  0
   -3.7250    2.2431   -0.0395 H   0  0  0  0  0  0  0  0  0  0  0  0
   -3.0086    1.3272   -1.4151 H   0  0  0  0  0  0  0  0  0  0  0  0
    3.5193   -1.5555    1.2415 H   0  0  0  0  0  0  0  0  0  0  0  0
    0.9584    3.4512    1.8003 H   0  0  0  0  0  0  0  0  0  0  0  0
    7.9874   -1.5017   -0.8957 H   0  0  0  0  0  0  0  0  0  0  0  0
    5.8271    0.5913   -2.5880 H   0  0  0  0  0  0  0  0  0  0  0  0
    6.4629    1.5755   -1.2356 H   0  0  0  0  0  0  0  0  0  0  0  0
    7.5095    0.4406   -2.0854 H   0  0  0  0  0  0  0  0  0  0  0  0
    5.1141   -3.2771    1.7454 H   0  0  0  0  0  0  0  0  0  0  0  0
    7.3589   -3.2791    0.6929 H   0  0  0  0  0  0  0  0  0  0  0  0
   -5.2007    1.1788   -1.2600 H   0  0  0  0  0  0  0  0  0  0  0  0
   -4.0497   -2.0235    1.4262 H   0  0  0  0  0  0  0  0  0  0  0  0
   -7.3190    0.1087   -1.6394 H   0  0  0  0  0  0  0  0  0  0  0  0
   -6.2282   -3.1028    1.0213 H   0  0  0  0  0  0  0  0  0  0  0  0
   -8.1669   -2.9059   -1.4293 H   0  0  0  0  0  0  0  0  0  0  0  0
   -8.5714   -2.7818    0.2992 H   0  0  0  0  0  0  0  0  0  0  0  0
   -9.0136   -1.4752   -0.7952 H   0  0  0  0  0  0  0  0  0  0  0  0
  1 11  1  0  0  0  0
  1 14  1  0  0  0  0
  2 12  1  0  0  0  0
  2 16  1  0  0  0  0
  3 10  2  0  0  0  0
  4  7  1  0  0  0  0
  4 10  1  0  0  0  0
  4 28  1  0  0  0  0
  5  8  1  0  0  0  0
  5 11  2  0  0  0  0
  6  8  1  0  0  0  0
  6 10  1  0  0  0  0
  6 26  1  0  0  0  0
  6 27  1  0  0  0  0
  7  9  1  0  0  0  0
  7 13  2  0  0  0  0
  8 14  2  0  0  0  0
  9 15  2  0  0  0  0
  9 17  1  0  0  0  0
 11 12  1  0  0  0  0
 12 29  1  0  0  0  0
 12 30  1  0  0  0  0
 13 18  1  0  0  0  0
 13 31  1  0  0  0  0
 14 32  1  0  0  0  0
 15 20  1  0  0  0  0
 15 33  1  0  0  0  0
 16 21  2  0  0  0  0
 16 22  1  0  0  0  0
 17 34  1  0  0  0  0
 17 35  1  0  0  0  0
 17 36  1  0  0  0  0
 18 20  2  0  0  0  0
 18 37  1  0  0  0  0
 19 23  2  0  0  0  0
 19 24  1  0  0  0  0
 19 25  1  0  0  0  0
 20 38  1  0  0  0  0
 21 23  1  0  0  0  0
 21 39  1  0  0  0  0
 22 24  2  0  0  0  0
 22 40  1  0  0  0  0
 23 41  1  0  0  0  0
 24 42  1  0  0  0  0
 25 43  1  0  0  0  0
 25 44  1  0  0  0  0
 25 45  1  0  0  0  0
M  END
> <PUBCHEM_COMPOUND_CID>
17395277

> <PUBCHEM_CONFORMER_RMSD>
1.2

> <PUBCHEM_CONFORMER_DIVERSEORDER>
1
48
79
105
27
59
87
38
49
86
57
91
80
39
99
19
32
90
31
12
76
83
21
28
81
98
56
54
70
95
7
93
22
45
33
9
30
73
74
82
84
13
68
36
23
53
52
4
47
14
78
101
75
44
34
97
60
106
69
103
88
42
66
3
72
8
10
35
100
58
25
50
11
104
85
41
67
55
89
64
40
2
37
61
17
43
77
94
5
26
92
6
65
24
15
29
46
16
62
63
20
102
96
51
71
18

> <PUBCHEM_MMFF94_PARTIAL_CHARGES>
35
1 -0.08
10 0.57
11 0.2
12 0.46
13 -0.15
14 -0.11
15 -0.15
16 0.08
17 0.14
18 -0.15
19 -0.14
2 -0.36
20 -0.15
21 -0.15
22 -0.15
23 -0.15
24 -0.15
25 0.14
28 0.37
3 -0.57
31 0.15
32 0.15
33 0.15
37 0.15
38 0.15
39 0.15
4 -0.55
40 0.15
41 0.15
42 0.15
5 -0.57
6 0.24
7 0.12
8 0.05
9 -0.14

> <PUBCHEM_EFFECTIVE_ROTOR_COUNT>
7

> <PUBCHEM_PHARMACOPHORE_FEATURES>
7
1 2 acceptor
1 3 acceptor
1 4 donor
1 5 acceptor
5 1 5 8 11 14 rings
6 16 19 21 22 23 24 rings
6 7 9 13 15 18 20 rings

> <PUBCHEM_HEAVY_ATOM_COUNT>
25

> <PUBCHEM_ATOM_DEF_STEREO_COUNT>
0

> <PUBCHEM_ATOM_UDEF_STEREO_COUNT>
0

> <PUBCHEM_BOND_DEF_STEREO_COUNT>
0

> <PUBCHEM_BOND_UDEF_STEREO_COUNT>
0

> <PUBCHEM_ISOTOPIC_ATOM_COUNT>
0

> <PUBCHEM_COMPONENT_COUNT>
1

> <PUBCHEM_CACTVS_TAUTO_COUNT>
2

> <PUBCHEM_CONFORMER_ID>
01096E4D00000001

> <PUBCHEM_MMFF94_ENERGY>
67.0869

> <PUBCHEM_FEATURE_SELFOVERLAP>
35.521

> <PUBCHEM_SHAPE_FINGERPRINT>
10622 236 17842856674299347170
10917259 69 18190466142652142949
11204353 107 18052247398315712106
11297750 10 18334306353182564049
11475781 23 13686292470677769408
117089 54 18043803411055390534
11809386 21 18338518663336436969
12166972 35 18201718444431121141
12592606 108 18408888413475152583
12760667 363 18408603669574558193
12895836 83 10807928263196246317
13248334 5 18048880689174681201
13631057 29 18411136978418692024
13673619 4 17749108893968002264
13690498 29 18202007646655409941
14068700 675 18408040723251803944
14123256 34 18408038494632684239
14211702 104 18262513835840504950
14216079 64 18408887322141996319
14931854 50 17918000477428172243
15019793 15 17905327325881389779
15183329 4 18060421326358821347
15392192 104 15719674234458632364
15519825 34 15213597645893031503
15803439 3 15195284227022336401
16126227 98 10159694707941607221
17134984 74 17560803217049078802
18393751 57 7493011778181200933
20028762 73 18335421300769365966
2026 5 18408326562907460527
20526848 3 9727635011962363191
21033648 29 13984925360794866249
21196832 93 17987506035831436946
21223535 225 14836131008593120751
21307412 95 18059297553336885987
21315759 148 17023745762182585536
21344244 78 15864062131989428177
21585481 104 16845296081092246871
21585483 132 17772763899362290466
21639891 77 17749111149048022553
23389318 12 18343575232293623060
23522609 53 18122309550158242752
23559900 14 18199474273349973029
23569943 247 18408888405033554531
249999 5 18043538205235449016
270888 7 9295289439139625129
2748736 6 9943808867702153655
2838139 119 9727346901034274969
3004659 81 18131073710155646401
32027 91 18262806147277698419
329604 57 18411416237392536400
3627633 1 18336546143666439176
4046055 25 18059855107899157780
406291 66 18334017177218117551
4107672 100 17774447200245600733
439807 62 18343581845931471735
445580 126 9727363411078516959
465052 167 18260546701583781269
474113 269 18113627751453988015
5470011 282 17846775183047139319
559249 180 18335421296943474701
5718773 13 18410014350944684207
6138700 20 18412265030621354627
6327066 14 10159697993312221937
636775 72 9509730478257243870
636775 8 18261383486695508782
6697151 62 18042147422100501905
7970288 3 18409732875994600771
96874 4 18341617048538403330
9896288 288 17678733672742220393

> <PUBCHEM_SHAPE_MULTIPOLES>
496.64
23.74
3.42
1.17
7.65
0.86
0
-24.85
5.55
0.4
-1.23
-0.68
0.23
-1.5

> <PUBCHEM_SHAPE_SELFOVERLAP>
1050.225

> <PUBCHEM_SHAPE_VOLUME>
279.6

> <PUBCHEM_COORDINATE_TYPE>
2
5
10

$$$$

