13184
  -OEChem-06261207523D

 23 22  0     0  0  0  0  0  0999 V2000
    3.2748    1.4005   -0.7045 Cl  0  0  0  0  0  0  0  0  0  0  0  0
    3.1935   -1.5116   -0.5839 Cl  0  0  0  0  0  0  0  0  0  0  0  0
   -0.9788    0.0555    0.6699 C   0  0  0  0  0  0  0  0  0  0  0  0
    0.3713    0.0491   -0.0551 C   0  0  0  0  0  0  0  0  0  0  0  0
   -2.1416    0.0057   -0.3238 C   0  0  0  0  0  0  0  0  0  0  0  0
    1.5340    0.0581    0.9466 C   0  0  0  0  0  0  0  0  0  0  0  0
   -3.5149   -0.0134    0.3509 C   0  0  0  0  0  0  0  0  0  0  0  0
    2.9364   -0.0068    0.3328 C   0  0  0  0  0  0  0  0  0  0  0  0
   -4.6745   -0.0371   -0.6329 C   0  0  0  0  0  0  0  0  0  0  0  0
   -1.0621    0.9570    1.2885 H   0  0  0  0  0  0  0  0  0  0  0  0
   -1.0397   -0.8075    1.3439 H   0  0  0  0  0  0  0  0  0  0  0  0
    0.4298    0.9240   -0.7121 H   0  0  0  0  0  0  0  0  0  0  0  0
    0.4274   -0.8400   -0.6928 H   0  0  0  0  0  0  0  0  0  0  0  0
   -2.0423   -0.8862   -0.9548 H   0  0  0  0  0  0  0  0  0  0  0  0
   -2.0823    0.8740   -0.9919 H   0  0  0  0  0  0  0  0  0  0  0  0
    1.4607    0.9623    1.5650 H   0  0  0  0  0  0  0  0  0  0  0  0
    1.4159   -0.7895    1.6345 H   0  0  0  0  0  0  0  0  0  0  0  0
   -3.6156    0.8694    0.9934 H   0  0  0  0  0  0  0  0  0  0  0  0
   -3.5861   -0.8912    1.0040 H   0  0  0  0  0  0  0  0  0  0  0  0
    3.6823    0.0056    1.1328 H   0  0  0  0  0  0  0  0  0  0  0  0
   -4.6575    0.8475   -1.2774 H   0  0  0  0  0  0  0  0  0  0  0  0
   -5.6284   -0.0504   -0.0965 H   0  0  0  0  0  0  0  0  0  0  0  0
   -4.6280   -0.9266   -1.2690 H   0  0  0  0  0  0  0  0  0  0  0  0
  1  8  1  0  0  0  0
  2  8  1  0  0  0  0
  3  4  1  0  0  0  0
  3  5  1  0  0  0  0
  3 10  1  0  0  0  0
  3 11  1  0  0  0  0
  4  6  1  0  0  0  0
  4 12  1  0  0  0  0
  4 13  1  0  0  0  0
  5  7  1  0  0  0  0
  5 14  1  0  0  0  0
  5 15  1  0  0  0  0
  6  8  1  0  0  0  0
  6 16  1  0  0  0  0
  6 17  1  0  0  0  0
  7  9  1  0  0  0  0
  7 18  1  0  0  0  0
  7 19  1  0  0  0  0
  8 20  1  0  0  0  0
  9 21  1  0  0  0  0
  9 22  1  0  0  0  0
  9 23  1  0  0  0  0
M  END
> <PUBCHEM_COMPOUND_CID>
13184

> <PUBCHEM_CONFORMER_RMSD>
0.6

> <PUBCHEM_CONFORMER_DIVERSEORDER>
1
82
81
77
24
80
2
67
76
21
85
75
6
59
79
51
84
37
68
42
72
35
61
19
38
23
73
88
30
25
65
12
62
63
13
3
69
70
34
5
48
46
64
18
57
4
52
27
87
89
28
58
86
41
60
26
16
66
9
56
36
29
39
71
7
40
44
49
78
55
74
50
47
32
33
17
15
22
83
11
45
20
43
31
14
53
10
8
54

> <PUBCHEM_MMFF94_PARTIAL_CHARGES>
3
1 -0.29
2 -0.29
8 0.58

> <PUBCHEM_EFFECTIVE_ROTOR_COUNT>
5

> <PUBCHEM_PHARMACOPHORE_FEATURES>
2
1 9 hydrophobe
5 3 4 5 6 7 hydrophobe

> <PUBCHEM_HEAVY_ATOM_COUNT>
9

> <PUBCHEM_ATOM_DEF_STEREO_COUNT>
0

> <PUBCHEM_ATOM_UDEF_STEREO_COUNT>
0

> <PUBCHEM_BOND_DEF_STEREO_COUNT>
0

> <PUBCHEM_BOND_UDEF_STEREO_COUNT>
0

> <PUBCHEM_ISOTOPIC_ATOM_COUNT>
0

> <PUBCHEM_COMPONENT_COUNT>
1

> <PUBCHEM_CACTVS_TAUTO_COUNT>
1

> <PUBCHEM_CONFORMER_ID>
0000338000000001

> <PUBCHEM_MMFF94_ENERGY>
-0.4161

> <PUBCHEM_FEATURE_SELFOVERLAP>
10.149

> <PUBCHEM_SHAPE_FINGERPRINT>
11062470 55 16988848276259765257
11987891 27 17385449829748787951
11987891 38 17894351081625839103
12932764 1 17240490207915618449
14251717 144 17968377947827780223
14325111 11 17967816054625678331
14390081 3 16988846068398785104
177051 138 17095241462111817166
18186145 218 17775565359877128473
190213 19 18411982459836776185
20606313 2 18059855030721049340
20645477 70 18409165545185171574
21293036 1 18273214183726772713
22485316 2 17530973475087480175
3248919 1 18410288112418373650
522135 26 18260266356193745678

> <PUBCHEM_SHAPE_MULTIPOLES>
188.96
8.65
1.13
0.95
7.25
0.08
0.04
0.12
-2.12
-1.63
-0.31
-0.17
-0.02
-0.05

> <PUBCHEM_SHAPE_SELFOVERLAP>
316.513

> <PUBCHEM_SHAPE_VOLUME>
127.5

> <PUBCHEM_COORDINATE_TYPE>
2
5
10

$$$$

