9424
  -OEChem-06261203422D

 91 98  0     0  0  0  0  0  0999 V2000
    0.8660    8.4480    0.0000 S   0  0  0  0  0  0  0  0  0  0  0  0
   13.1584    1.5521    0.0000 O   0  0  0  0  0  0  0  0  0  0  0  0
   13.1584   11.0318    0.0000 O   0  0  0  0  0  0  0  0  0  0  0  0
   11.7065    0.7138    0.0000 O   0  0  0  0  0  0  0  0  0  0  0  0
   11.7065   10.1936    0.0000 O   0  0  0  0  0  0  0  0  0  0  0  0
    7.0210   15.8528    0.0000 O   0  0  0  0  0  0  0  0  0  0  0  0
    7.0210    6.3730    0.0000 O   0  0  0  0  0  0  0  0  0  0  0  0
    5.2016   14.8210    0.0000 O   0  0  0  0  0  0  0  0  0  0  0  0
    5.2016    5.3412    0.0000 O   0  0  0  0  0  0  0  0  0  0  0  0
    1.7320    8.9480    0.0000 O   0  5  0  0  0  0  0  0  0  0  0  0
    0.0000    7.9480    0.0000 O   0  5  0  0  0  0  0  0  0  0  0  0
    0.3660    9.3141    0.0000 O   0  0  0  0  0  0  0  0  0  0  0  0
    1.3660    7.5820    0.0000 O   0  0  0  0  0  0  0  0  0  0  0  0
    9.7406   14.2751    0.0000 N   0  3  0  0  0  0  0  0  0  0  0  0
    9.7406    4.7954    0.0000 N   0  3  0  0  0  0  0  0  0  0  0  0
   10.6066    5.2954    0.0000 C   0  0  0  0  0  0  0  0  0  0  0  0
   10.6066   14.7751    0.0000 C   0  0  0  0  0  0  0  0  0  0  0  0
   11.4726    4.7954    0.0000 C   0  0  0  0  0  0  0  0  0  0  0  0
   11.4726   14.2751    0.0000 C   0  0  0  0  0  0  0  0  0  0  0  0
    9.7406   13.2751    0.0000 C   0  0  0  0  0  0  0  0  0  0  0  0
    9.7406    3.7954    0.0000 C   0  0  0  0  0  0  0  0  0  0  0  0
   11.4726   13.2751    0.0000 C   0  0  0  0  0  0  0  0  0  0  0  0
   11.4726    3.7954    0.0000 C   0  0  0  0  0  0  0  0  0  0  0  0
   10.6066   12.7751    0.0000 C   0  0  0  0  0  0  0  0  0  0  0  0
   10.6066    3.2954    0.0000 C   0  0  0  0  0  0  0  0  0  0  0  0
    8.8466   14.8098    0.0000 C   0  0  0  0  0  0  0  0  0  0  0  0
    8.8467    5.3300    0.0000 C   0  0  0  0  0  0  0  0  0  0  0  0
    8.8466   12.7405    0.0000 C   0  0  0  0  0  0  0  0  0  0  0  0
    8.8467    3.2607    0.0000 C   0  0  0  0  0  0  0  0  0  0  0  0
    7.9406    4.8162    0.0000 C   0  0  0  0  0  0  0  0  0  0  0  0
    7.9406   14.2959    0.0000 C   0  0  0  0  0  0  0  0  0  0  0  0
    7.9406   13.2543    0.0000 C   0  0  0  0  0  0  0  0  0  0  0  0
    7.9406    3.7746    0.0000 C   0  0  0  0  0  0  0  0  0  0  0  0
   12.3826   12.7683    0.0000 C   0  0  0  0  0  0  0  0  0  0  0  0
   12.3827    3.2885    0.0000 C   0  0  0  0  0  0  0  0  0  0  0  0
   10.5906   11.7336    0.0000 C   0  0  0  0  0  0  0  0  0  0  0  0
   10.5906    2.2539    0.0000 C   0  0  0  0  0  0  0  0  0  0  0  0
   12.3907    2.2469    0.0000 C   0  0  0  0  0  0  0  0  0  0  0  0
   12.3907   11.7267    0.0000 C   0  0  0  0  0  0  0  0  0  0  0  0
   11.4886   11.2059    0.0000 C   0  0  0  0  0  0  0  0  0  0  0  0
   11.4886    1.7261    0.0000 C   0  0  0  0  0  0  0  0  0  0  0  0
    7.0094   14.8529    0.0000 C   0  0  0  0  0  0  0  0  0  0  0  0
    7.0094    5.3731    0.0000 C   0  0  0  0  0  0  0  0  0  0  0  0
    7.0094    3.2176    0.0000 C   0  0  0  0  0  0  0  0  0  0  0  0
    7.0094   12.6974    0.0000 C   0  0  0  0  0  0  0  0  0  0  0  0
    6.0656    4.8379    0.0000 C   0  0  0  0  0  0  0  0  0  0  0  0
    6.0656   14.3176    0.0000 C   0  0  0  0  0  0  0  0  0  0  0  0
   12.7364    0.6065    0.0000 C   0  0  0  0  0  0  0  0  0  0  0  0
   12.7364   10.0862    0.0000 C   0  0  0  0  0  0  0  0  0  0  0  0
    6.0656   13.2326    0.0000 C   0  0  0  0  0  0  0  0  0  0  0  0
    6.0656    3.7529    0.0000 C   0  0  0  0  0  0  0  0  0  0  0  0
    6.1608   16.3628    0.0000 C   0  0  0  0  0  0  0  0  0  0  0  0
    6.1608    6.8830    0.0000 C   0  0  0  0  0  0  0  0  0  0  0  0
    4.3336    4.8445    0.0000 C   0  0  0  0  0  0  0  0  0  0  0  0
    4.3336   14.3243    0.0000 C   0  0  0  0  0  0  0  0  0  0  0  0
   11.0052   15.2501    0.0000 H   0  0  0  0  0  0  0  0  0  0  0  0
   10.2081   15.2501    0.0000 H   0  0  0  0  0  0  0  0  0  0  0  0
   11.0052    5.7703    0.0000 H   0  0  0  0  0  0  0  0  0  0  0  0
   10.2081    5.7703    0.0000 H   0  0  0  0  0  0  0  0  0  0  0  0
   12.0832    4.6877    0.0000 H   0  0  0  0  0  0  0  0  0  0  0  0
   11.6847    5.3780    0.0000 H   0  0  0  0  0  0  0  0  0  0  0  0
   12.0832   14.1675    0.0000 H   0  0  0  0  0  0  0  0  0  0  0  0
   11.6847   14.8577    0.0000 H   0  0  0  0  0  0  0  0  0  0  0  0
    8.8538    5.9500    0.0000 H   0  0  0  0  0  0  0  0  0  0  0  0
    8.8538   15.4297    0.0000 H   0  0  0  0  0  0  0  0  0  0  0  0
    8.8538   12.1205    0.0000 H   0  0  0  0  0  0  0  0  0  0  0  0
    8.8538    2.6408    0.0000 H   0  0  0  0  0  0  0  0  0  0  0  0
   12.9160    3.6047    0.0000 H   0  0  0  0  0  0  0  0  0  0  0  0
   12.9160   13.0845    0.0000 H   0  0  0  0  0  0  0  0  0  0  0  0
   10.0501    1.9501    0.0000 H   0  0  0  0  0  0  0  0  0  0  0  0
   10.0501   11.4299    0.0000 H   0  0  0  0  0  0  0  0  0  0  0  0
    7.0166   12.0774    0.0000 H   0  0  0  0  0  0  0  0  0  0  0  0
    7.0166    2.5977    0.0000 H   0  0  0  0  0  0  0  0  0  0  0  0
   12.6077    9.4798    0.0000 H   0  0  0  0  0  0  0  0  0  0  0  0
   13.3260    9.8945    0.0000 H   0  0  0  0  0  0  0  0  0  0  0  0
   12.6077    0.0000    0.0000 H   0  0  0  0  0  0  0  0  0  0  0  0
   13.3260    0.4147    0.0000 H   0  0  0  0  0  0  0  0  0  0  0  0
    5.5299   12.9206    0.0000 H   0  0  0  0  0  0  0  0  0  0  0  0
    5.5299    3.4408    0.0000 H   0  0  0  0  0  0  0  0  0  0  0  0
    6.4770   16.8961    0.0000 H   0  0  0  0  0  0  0  0  0  0  0  0
    5.6275   16.6790    0.0000 H   0  0  0  0  0  0  0  0  0  0  0  0
    5.8446   15.8295    0.0000 H   0  0  0  0  0  0  0  0  0  0  0  0
    6.4770    7.4163    0.0000 H   0  0  0  0  0  0  0  0  0  0  0  0
    5.6275    7.1992    0.0000 H   0  0  0  0  0  0  0  0  0  0  0  0
    5.8446    6.3497    0.0000 H   0  0  0  0  0  0  0  0  0  0  0  0
    4.0257   14.8624    0.0000 H   0  0  0  0  0  0  0  0  0  0  0  0
    3.7955   14.0164    0.0000 H   0  0  0  0  0  0  0  0  0  0  0  0
    4.6415   13.7862    0.0000 H   0  0  0  0  0  0  0  0  0  0  0  0
    4.0257    5.3827    0.0000 H   0  0  0  0  0  0  0  0  0  0  0  0
    3.7955    4.5366    0.0000 H   0  0  0  0  0  0  0  0  0  0  0  0
    4.6415    4.3064    0.0000 H   0  0  0  0  0  0  0  0  0  0  0  0
  1 10  1  0  0  0  0
  1 11  1  0  0  0  0
  1 12  2  0  0  0  0
  1 13  2  0  0  0  0
  2 38  1  0  0  0  0
  2 48  1  0  0  0  0
  3 39  1  0  0  0  0
  3 49  1  0  0  0  0
  4 41  1  0  0  0  0
  4 48  1  0  0  0  0
  5 40  1  0  0  0  0
  5 49  1  0  0  0  0
  6 42  1  0  0  0  0
  6 52  1  0  0  0  0
  7 43  1  0  0  0  0
  7 53  1  0  0  0  0
  8 47  1  0  0  0  0
  8 55  1  0  0  0  0
  9 46  1  0  0  0  0
  9 54  1  0  0  0  0
 14 17  1  0  0  0  0
 14 20  2  0  0  0  0
 14 26  1  0  0  0  0
 15 16  1  0  0  0  0
 15 21  2  0  0  0  0
 15 27  1  0  0  0  0
 16 18  1  0  0  0  0
 16 58  1  0  0  0  0
 16 59  1  0  0  0  0
 17 19  1  0  0  0  0
 17 56  1  0  0  0  0
 17 57  1  0  0  0  0
 18 23  1  0  0  0  0
 18 60  1  0  0  0  0
 18 61  1  0  0  0  0
 19 22  1  0  0  0  0
 19 62  1  0  0  0  0
 19 63  1  0  0  0  0
 20 24  1  0  0  0  0
 20 28  1  0  0  0  0
 21 25  1  0  0  0  0
 21 29  1  0  0  0  0
 22 24  1  0  0  0  0
 22 34  2  0  0  0  0
 23 25  1  0  0  0  0
 23 35  2  0  0  0  0
 24 36  2  0  0  0  0
 25 37  2  0  0  0  0
 26 31  2  0  0  0  0
 26 65  1  0  0  0  0
 27 30  2  0  0  0  0
 27 64  1  0  0  0  0
 28 32  2  0  0  0  0
 28 66  1  0  0  0  0
 29 33  2  0  0  0  0
 29 67  1  0  0  0  0
 30 33  1  0  0  0  0
 30 43  1  0  0  0  0
 31 32  1  0  0  0  0
 31 42  1  0  0  0  0
 32 45  1  0  0  0  0
 33 44  1  0  0  0  0
 34 39  1  0  0  0  0
 34 69  1  0  0  0  0
 35 38  1  0  0  0  0
 35 68  1  0  0  0  0
 36 40  1  0  0  0  0
 36 71  1  0  0  0  0
 37 41  1  0  0  0  0
 37 70  1  0  0  0  0
 38 41  2  0  0  0  0
 39 40  2  0  0  0  0
 42 47  2  0  0  0  0
 43 46  2  0  0  0  0
 44 51  2  0  0  0  0
 44 73  1  0  0  0  0
 45 50  2  0  0  0  0
 45 72  1  0  0  0  0
 46 51  1  0  0  0  0
 47 50  1  0  0  0  0
 48 76  1  0  0  0  0
 48 77  1  0  0  0  0
 49 74  1  0  0  0  0
 49 75  1  0  0  0  0
 50 78  1  0  0  0  0
 51 79  1  0  0  0  0
 52 80  1  0  0  0  0
 52 81  1  0  0  0  0
 52 82  1  0  0  0  0
 53 83  1  0  0  0  0
 53 84  1  0  0  0  0
 53 85  1  0  0  0  0
 54 89  1  0  0  0  0
 54 90  1  0  0  0  0
 54 91  1  0  0  0  0
 55 86  1  0  0  0  0
 55 87  1  0  0  0  0
 55 88  1  0  0  0  0
M  CHG  4  10  -1  11  -1  14   1  15   1
M  END
> <PUBCHEM_COMPOUND_CID>
9424

> <PUBCHEM_COMPOUND_CANONICALIZED>
1

> <PUBCHEM_CACTVS_COMPLEXITY>
551

> <PUBCHEM_CACTVS_HBOND_ACCEPTOR>
12

> <PUBCHEM_CACTVS_HBOND_DONOR>
0

> <PUBCHEM_CACTVS_ROTATABLE_BOND>
4

> <PUBCHEM_CACTVS_SUBSKEYS>
AAADcfB/PABAAAAAAAAAAAAAAAAAASJAAAA8ePHiAAAAAEix/gAAHgAAAAAADAzBngc+jtMMFACgAzRnRDCCiCAxIiAI2CA+7JgdJuLEsZukMCpmwBnO6Aew0PMOoAABAAAYQABAAAIAADCAAAAAAAAAAA==

> <PUBCHEM_IUPAC_INCHI>
InChI=1S/2C20H18NO4.H2O4S/c2*1-22-17-4-3-12-7-16-14-9-19-18(24-11-25-19)8-13(14)5-6-21(16)10-15(12)20(17)23-2;1-5(2,3)4/h2*3-4,7-10H,5-6,11H2,1-2H3;(H2,1,2,3,4)/q2*+1;/p-2

> <PUBCHEM_IUPAC_INCHIKEY>
OJVABJMSSDUECT-UHFFFAOYSA-L

> <PUBCHEM_EXACT_MASS>
768.198896

> <PUBCHEM_MOLECULAR_FORMULA>
C40H36N2O12S

> <PUBCHEM_MOLECULAR_WEIGHT>
768.78504

> <PUBCHEM_OPENEYE_CAN_SMILES>
COC1=C(C2=C[N+]3=C(C=C2C=C1)C4=CC5=C(C=C4CC3)OCO5)OC.COC1=C(C2=C[N+]3=C(C=C2C=C1)C4=CC5=C(C=C4CC3)OCO5)OC.[O-]S(=O)(=O)[O-]

> <PUBCHEM_OPENEYE_ISO_SMILES>
COC1=C(C2=C[N+]3=C(C=C2C=C1)C4=CC5=C(C=C4CC3)OCO5)OC.COC1=C(C2=C[N+]3=C(C=C2C=C1)C4=CC5=C(C=C4CC3)OCO5)OC.[O-]S(=O)(=O)[O-]

> <PUBCHEM_CACTVS_TPSA>
170

> <PUBCHEM_MONOISOTOPIC_WEIGHT>
768.198896

> <PUBCHEM_TOTAL_CHARGE>
0

> <PUBCHEM_HEAVY_ATOM_COUNT>
55

> <PUBCHEM_ATOM_DEF_STEREO_COUNT>
0

> <PUBCHEM_ATOM_UDEF_STEREO_COUNT>
0

> <PUBCHEM_BOND_DEF_STEREO_COUNT>
0

> <PUBCHEM_BOND_UDEF_STEREO_COUNT>
0

> <PUBCHEM_ISOTOPIC_ATOM_COUNT>
0

> <PUBCHEM_COMPONENT_COUNT>
3

> <PUBCHEM_CACTVS_TAUTO_COUNT>
1

> <PUBCHEM_COORDINATE_TYPE>
1
5
255

> <PUBCHEM_BONDANNOTATIONS>
14  20  8
14  26  8
15  21  8
15  27  8
20  28  8
21  29  8
22  24  8
22  34  8
23  25  8
23  35  8
24  36  8
25  37  8
26  31  8
27  30  8
28  32  8
29  33  8
30  33  8
30  43  8
31  32  8
31  42  8
32  45  8
33  44  8
34  39  8
35  38  8
36  40  8
37  41  8
38  41  8
39  40  8
42  47  8
43  46  8
44  51  8
45  50  8
46  51  8
47  50  8

$$$$

