51090856
  -OEChem-06241223003D

 45 48  0     0  0  0  0  0  0999 V2000
   -0.5597   -3.0689    0.1257 O   0  0  0  0  0  0  0  0  0  0  0  0
   -3.1702    1.2913   -0.0684 N   0  0  0  0  0  0  0  0  0  0  0  0
   -5.0278   -0.1554   -0.0295 N   0  0  0  0  0  0  0  0  0  0  0  0
   -1.4071   -0.8766    0.0669 N   0  0  0  0  0  0  0  0  0  0  0  0
    4.8981    0.1246    0.0214 N   0  0  0  0  0  0  0  0  0  0  0  0
    5.2170    1.3400    0.4877 N   0  0  0  0  0  0  0  0  0  0  0  0
    7.0375    0.3087   -0.2817 N   0  0  0  0  0  0  0  0  0  0  0  0
    6.5268    1.4469    0.3002 N   0  0  0  0  0  0  0  0  0  0  0  0
   -2.2185    4.0082   -0.2719 C   0  0  0  0  0  0  0  0  0  0  0  0
   -1.8385    2.9544   -1.3053 C   0  0  0  0  0  0  0  0  0  0  0  0
   -2.4662    3.3524    1.0809 C   0  0  0  0  0  0  0  0  0  0  0  0
   -3.5187    2.2487    0.9876 C   0  0  0  0  0  0  0  0  0  0  0  0
   -2.8957    1.8563   -1.3973 C   0  0  0  0  0  0  0  0  0  0  0  0
   -3.6839   -0.0102   -0.0145 C   0  0  0  0  0  0  0  0  0  0  0  0
   -2.7902   -1.0669    0.0516 C   0  0  0  0  0  0  0  0  0  0  0  0
   -3.3092   -2.3558    0.1060 C   0  0  0  0  0  0  0  0  0  0  0  0
   -5.4954   -1.4227    0.0247 C   0  0  0  0  0  0  0  0  0  0  0  0
   -4.6866   -2.5457    0.0927 C   0  0  0  0  0  0  0  0  0  0  0  0
   -0.4032   -1.8528    0.1019 C   0  0  0  0  0  0  0  0  0  0  0  0
    0.9897   -1.3342    0.0810 C   0  0  0  0  0  0  0  0  0  0  0  0
    2.0188   -2.1183   -0.4405 C   0  0  0  0  0  0  0  0  0  0  0  0
    1.2674   -0.0627    0.5826 C   0  0  0  0  0  0  0  0  0  0  0  0
    3.6032   -0.3594    0.0413 C   0  0  0  0  0  0  0  0  0  0  0  0
    3.3254   -1.6310   -0.4604 C   0  0  0  0  0  0  0  0  0  0  0  0
    2.5742    0.4248    0.5628 C   0  0  0  0  0  0  0  0  0  0  0  0
    6.0129   -0.4960   -0.4454 C   0  0  0  0  0  0  0  0  0  0  0  0
   -1.4173    4.7504   -0.1850 H   0  0  0  0  0  0  0  0  0  0  0  0
   -3.1203    4.5402   -0.5978 H   0  0  0  0  0  0  0  0  0  0  0  0
   -0.8739    2.5095   -1.0298 H   0  0  0  0  0  0  0  0  0  0  0  0
   -2.7852    4.1069    1.8085 H   0  0  0  0  0  0  0  0  0  0  0  0
   -1.5254    2.9256    1.4515 H   0  0  0  0  0  0  0  0  0  0  0  0
   -1.7074    3.4248   -2.2861 H   0  0  0  0  0  0  0  0  0  0  0  0
   -4.5045    2.6823    0.7793 H   0  0  0  0  0  0  0  0  0  0  0  0
   -3.5802    1.7397    1.9573 H   0  0  0  0  0  0  0  0  0  0  0  0
   -2.5337    1.0806   -2.0835 H   0  0  0  0  0  0  0  0  0  0  0  0
   -3.8245    2.2586   -1.8204 H   0  0  0  0  0  0  0  0  0  0  0  0
   -2.7153   -3.2563    0.1654 H   0  0  0  0  0  0  0  0  0  0  0  0
   -1.1304    0.0983   -0.0034 H   0  0  0  0  0  0  0  0  0  0  0  0
   -6.5763   -1.5167    0.0119 H   0  0  0  0  0  0  0  0  0  0  0  0
   -5.1150   -3.5406    0.1355 H   0  0  0  0  0  0  0  0  0  0  0  0
    1.8222   -3.1095   -0.8410 H   0  0  0  0  0  0  0  0  0  0  0  0
    0.5059    0.5681    1.0313 H   0  0  0  0  0  0  0  0  0  0  0  0
    4.0883   -2.2802   -0.8780 H   0  0  0  0  0  0  0  0  0  0  0  0
    2.7515    1.4170    0.9700 H   0  0  0  0  0  0  0  0  0  0  0  0
    6.0622   -1.4837   -0.8799 H   0  0  0  0  0  0  0  0  0  0  0  0
  1 19  2  0  0  0  0
  2 12  1  0  0  0  0
  2 13  1  0  0  0  0
  2 14  1  0  0  0  0
  3 14  1  0  0  0  0
  3 17  2  0  0  0  0
  4 15  1  0  0  0  0
  4 19  1  0  0  0  0
  4 38  1  0  0  0  0
  5  6  1  0  0  0  0
  5 23  1  0  0  0  0
  5 26  1  0  0  0  0
  6  8  2  0  0  0  0
  7  8  1  0  0  0  0
  7 26  2  0  0  0  0
  9 10  1  0  0  0  0
  9 11  1  0  0  0  0
  9 27  1  0  0  0  0
  9 28  1  0  0  0  0
 10 13  1  0  0  0  0
 10 29  1  0  0  0  0
 10 32  1  0  0  0  0
 11 12  1  0  0  0  0
 11 30  1  0  0  0  0
 11 31  1  0  0  0  0
 12 33  1  0  0  0  0
 12 34  1  0  0  0  0
 13 35  1  0  0  0  0
 13 36  1  0  0  0  0
 14 15  2  0  0  0  0
 15 16  1  0  0  0  0
 16 18  2  0  0  0  0
 16 37  1  0  0  0  0
 17 18  1  0  0  0  0
 17 39  1  0  0  0  0
 18 40  1  0  0  0  0
 19 20  1  0  0  0  0
 20 21  2  0  0  0  0
 20 22  1  0  0  0  0
 21 24  1  0  0  0  0
 21 41  1  0  0  0  0
 22 25  2  0  0  0  0
 22 42  1  0  0  0  0
 23 24  2  0  0  0  0
 23 25  1  0  0  0  0
 24 43  1  0  0  0  0
 25 44  1  0  0  0  0
 26 45  1  0  0  0  0
M  END
> <PUBCHEM_COMPOUND_CID>
51090856

> <PUBCHEM_CONFORMER_RMSD>
0.8

> <PUBCHEM_CONFORMER_DIVERSEORDER>
1
14
12
4
8
7
2
17
6
13
16
11
9
5
15
10
3

> <PUBCHEM_MMFF94_PARTIAL_CHARGES>
31
1 -0.57
12 0.37
13 0.37
14 0.41
15 0.12
16 -0.15
17 0.16
18 -0.15
19 0.54
2 -0.84
20 0.09
21 -0.15
22 -0.15
23 -0.02
24 -0.15
25 -0.15
26 0.04
3 -0.62
37 0.15
38 0.37
39 0.15
4 -0.55
40 0.15
41 0.15
42 0.15
43 0.15
44 0.15
45 0.15
5 0.59
6 -0.42
7 -0.34

> <PUBCHEM_EFFECTIVE_ROTOR_COUNT>
6.2

> <PUBCHEM_PHARMACOPHORE_FEATURES>
9
1 1 acceptor
1 2 cation
1 3 acceptor
1 4 donor
3 5 7 26 cation
5 5 6 7 8 26 rings
6 2 9 10 11 12 13 rings
6 20 21 22 23 24 25 rings
6 3 14 15 16 17 18 rings

> <PUBCHEM_HEAVY_ATOM_COUNT>
26

> <PUBCHEM_ATOM_DEF_STEREO_COUNT>
0

> <PUBCHEM_ATOM_UDEF_STEREO_COUNT>
0

> <PUBCHEM_BOND_DEF_STEREO_COUNT>
0

> <PUBCHEM_BOND_UDEF_STEREO_COUNT>
0

> <PUBCHEM_ISOTOPIC_ATOM_COUNT>
0

> <PUBCHEM_COMPONENT_COUNT>
1

> <PUBCHEM_CACTVS_TAUTO_COUNT>
2

> <PUBCHEM_CONFORMER_ID>
030B95A800000001

> <PUBCHEM_MMFF94_ENERGY>
84.458

> <PUBCHEM_FEATURE_SELFOVERLAP>
45.669

> <PUBCHEM_SHAPE_FINGERPRINT>
100830 39 18411983585693415400
10087517 78 18412265012924235076
10498660 4 18271813492192218309
10670039 82 18411419527406284172
11135609 149 16300054927110986836
11135609 99 9006519195297283152
11595378 159 17988096550857992594
12107183 9 17694230263023856578
12390115 104 18336818801322041516
12596602 18 17275111617329554146
12788726 201 18272095989323854947
13402501 40 18335704905648324784
13947920 24 18271537471903315709
14251764 75 17685486955181936465
14713325 29 18410569604527792467
15183329 4 18341049701208247458
15419008 145 18270414862648323416
15961568 22 18412542089749037444
17844677 252 18410004473100334086
18336668 15 17988924419195665813
19611394 137 17841984495391113067
21033650 10 18125693873144680430
21236236 1 18409729577411757360
21279426 13 18189610721966845550
21315763 129 18409448086088627326
21315764 268 18410580552927073792
221357 26 18186804677238344850
22956985 138 16977571427524347147
23557571 272 18410008836639180031
23559900 14 18335992956542030961
25019877 29 17749661888224460711
283562 15 18413672426837397843
350125 39 18408885126743574257
4197921 191 18273494564283336356
445580 37 18340194229563967908
469060 322 17132112463768387437
497634 4 17821719551007543323
5104073 3 18270678783102133010
5283173 99 18335699481758582218
6700243 42 17539648493077190942
7808743 9 18339363088134479368

> <PUBCHEM_SHAPE_MULTIPOLES>
494.33
14.33
4.09
0.9
22.11
2.75
-0.11
0.77
-0.04
-5.45
-0.09
-0.43
0.6
0.55

> <PUBCHEM_SHAPE_SELFOVERLAP>
1073.134

> <PUBCHEM_SHAPE_VOLUME>
268.3

> <PUBCHEM_COORDINATE_TYPE>
2
5
10

$$$$

