47205348
  -OEChem-06241222583D

 34 34  0     1  0  0  0  0  0999 V2000
    1.0893    1.0613   -1.9058 O   0  0  0  0  0  0  0  0  0  0  0  0
   -3.3894   -2.3426    0.9393 O   0  5  0  0  0  0  0  0  0  0  0  0
   -3.9136   -1.9897   -1.1631 O   0  0  0  0  0  0  0  0  0  0  0  0
    1.7587    0.6751    0.3210 N   0  0  0  0  0  0  0  0  0  0  0  0
   -3.3552   -1.6380   -0.0972 N   0  3  0  0  0  0  0  0  0  0  0  0
    6.4773   -0.4568   -0.0038 N   0  0  0  0  0  0  0  0  0  0  0  0
    3.1771    0.6992    0.0801 C   0  0  0  0  0  0  0  0  0  0  0  0
    3.8863   -0.6075    0.4561 C   0  0  1  0  0  0  0  0  0  0  0  0
    0.8244    0.8631   -0.7206 C   0  0  0  0  0  0  0  0  0  0  0  0
   -0.6042    0.8341   -0.3687 C   0  0  0  0  0  0  0  0  0  0  0  0
    3.2859   -1.8174   -0.2591 C   0  0  0  0  0  0  0  0  0  0  0  0
    1.3353    0.4449    1.7055 C   0  0  0  0  0  0  0  0  0  0  0  0
   -1.3056   -0.3712   -0.3959 C   0  0  0  0  0  0  0  0  0  0  0  0
   -3.3125    0.7808    0.2983 C   0  0  0  0  0  0  0  0  0  0  0  0
   -2.6596   -0.3980   -0.0625 C   0  0  0  0  0  0  0  0  0  0  0  0
   -1.2570    2.0129   -0.0080 C   0  0  0  0  0  0  0  0  0  0  0  0
   -2.6111    1.9863    0.3255 C   0  0  0  0  0  0  0  0  0  0  0  0
    5.3364   -0.5231    0.1976 C   0  0  0  0  0  0  0  0  0  0  0  0
   -4.7624    0.7867    0.6613 C   0  0  0  0  0  0  0  0  0  0  0  0
    3.3653    0.9308   -0.9757 H   0  0  0  0  0  0  0  0  0  0  0  0
    3.5958    1.5363    0.6535 H   0  0  0  0  0  0  0  0  0  0  0  0
    3.7644   -0.7768    1.5339 H   0  0  0  0  0  0  0  0  0  0  0  0
    3.3508   -1.7057   -1.3477 H   0  0  0  0  0  0  0  0  0  0  0  0
    3.8225   -2.7350    0.0086 H   0  0  0  0  0  0  0  0  0  0  0  0
    2.2339   -1.9662    0.0032 H   0  0  0  0  0  0  0  0  0  0  0  0
    1.3404   -0.6315    1.8992 H   0  0  0  0  0  0  0  0  0  0  0  0
    0.3382    0.8316    1.9172 H   0  0  0  0  0  0  0  0  0  0  0  0
    2.0352    0.9417    2.3848 H   0  0  0  0  0  0  0  0  0  0  0  0
   -0.7918   -1.2884   -0.6774 H   0  0  0  0  0  0  0  0  0  0  0  0
   -0.7196    2.9574    0.0165 H   0  0  0  0  0  0  0  0  0  0  0  0
   -3.1035    2.9142    0.6043 H   0  0  0  0  0  0  0  0  0  0  0  0
   -5.3710    0.4360   -0.1787 H   0  0  0  0  0  0  0  0  0  0  0  0
   -4.9436    0.1489    1.5328 H   0  0  0  0  0  0  0  0  0  0  0  0
   -5.1139    1.7922    0.9178 H   0  0  0  0  0  0  0  0  0  0  0  0
  1  9  2  0  0  0  0
  2  5  1  0  0  0  0
  3  5  2  0  0  0  0
  4  7  1  0  0  0  0
  4  9  1  0  0  0  0
  4 12  1  0  0  0  0
  5 15  1  0  0  0  0
  6 18  3  0  0  0  0
  7  8  1  0  0  0  0
  7 20  1  0  0  0  0
  7 21  1  0  0  0  0
  8 11  1  0  0  0  0
  8 18  1  0  0  0  0
  8 22  1  0  0  0  0
  9 10  1  0  0  0  0
 10 13  2  0  0  0  0
 10 16  1  0  0  0  0
 11 23  1  0  0  0  0
 11 24  1  0  0  0  0
 11 25  1  0  0  0  0
 12 26  1  0  0  0  0
 12 27  1  0  0  0  0
 12 28  1  0  0  0  0
 13 15  1  0  0  0  0
 13 29  1  0  0  0  0
 14 15  2  0  0  0  0
 14 17  1  0  0  0  0
 14 19  1  0  0  0  0
 16 17  2  0  0  0  0
 16 30  1  0  0  0  0
 17 31  1  0  0  0  0
 19 32  1  0  0  0  0
 19 33  1  0  0  0  0
 19 34  1  0  0  0  0
M  CHG  2   2  -1   5   1
M  END
> <PUBCHEM_COMPOUND_CID>
47205348

> <PUBCHEM_CONFORMER_RMSD>
0.6

> <PUBCHEM_CONFORMER_DIVERSEORDER>
1
235
56
77
230
130
159
90
209
215
69
10
151
111
164
165
143
134
162
119
99
188
63
206
234
121
122
224
126
190
189
180
236
148
167
100
216
136
237
70
98
125
200
127
141
214
131
238
227
89
124
11
168
96
221
117
241
203
92
8
187
174
186
71
142
231
212
157
83
137
166
228
53
226
49
161
160
109
195
149
72
123
135
210
204
7
182
118
105
138
30
185
57
205
179
87
196
240
184
169
208
75
15
79
176
28
229
225
42
120
193
202
97
50
219
232
150
153
144
44
197
55
27
145
192
85
223
132
41
171
23
211
147
94
163
38
239
112
12
177
173
64
217
78
155
156
207
102
61
101
191
82
110
66
39
129
139
128
45
51
194
154
114
198
58
46
29
84
213
47
73
59
133
181
18
86
48
146
106
158
34
65
67
40
81
76
233
113
104
140
31
103
172
152
13
60
88
178
170
33
9
74
52
199
218
26
175
91
2
25
5
37
222
68
14
220
43
4
24
19
20
183
35
93
32
17
80
3
21
36
108
6
22
54
201
16
116
62
107
115
95

> <PUBCHEM_MMFF94_PARTIAL_CHARGES>
21
1 -0.57
10 0.09
12 0.3
13 -0.15
14 -0.14
15 0.13
16 -0.15
17 -0.15
18 0.36
19 0.14
2 -0.52
29 0.15
3 -0.52
30 0.15
31 0.15
4 -0.66
5 0.91
6 -0.56
7 0.3
8 0.2
9 0.54

> <PUBCHEM_EFFECTIVE_ROTOR_COUNT>
5

> <PUBCHEM_PHARMACOPHORE_FEATURES>
7
1 1 acceptor
1 11 hydrophobe
1 2 acceptor
1 2 anion
1 3 acceptor
1 6 acceptor
6 10 13 14 15 16 17 rings

> <PUBCHEM_HEAVY_ATOM_COUNT>
19

> <PUBCHEM_ATOM_DEF_STEREO_COUNT>
0

> <PUBCHEM_ATOM_UDEF_STEREO_COUNT>
1

> <PUBCHEM_BOND_DEF_STEREO_COUNT>
0

> <PUBCHEM_BOND_UDEF_STEREO_COUNT>
0

> <PUBCHEM_ISOTOPIC_ATOM_COUNT>
0

> <PUBCHEM_COMPONENT_COUNT>
1

> <PUBCHEM_CACTVS_TAUTO_COUNT>
3

> <PUBCHEM_CONFORMER_ID>
02D04BE400000001

> <PUBCHEM_MMFF94_ENERGY>
56.0443

> <PUBCHEM_FEATURE_SELFOVERLAP>
35.602

> <PUBCHEM_SHAPE_FINGERPRINT>
10366900 7 17895771688902418777
10616163 171 18410292518955163810
11046707 91 18342461430354818700
12236239 1 17988917885912533276
124424 183 17676212398143209889
12507557 5 15502381105904221563
12553582 1 17346326998118861817
12596602 18 16009037137863051938
12633257 1 16733540512196168643
13288520 33 18410292514533121765
13583140 156 17676780832906862200
13675066 3 17530972401688573520
13911882 115 18187075175123296102
14251764 38 10087336938408221454
14341114 176 18261105335632945040
15653759 3 18113623386596213417
17804303 29 18333731312219892464
17834072 33 18343015589111935820
1813 80 17417236762595112596
18186145 218 16271645590046384561
19141452 34 18341048609542443933
193927 3 18271796883084523835
19422 9 18343017761774459284
19784866 240 17988362572890849919
200 152 15913329121889149076
20600515 1 18188758544125534345
20681677 155 18271807968600564201
21267235 1 18341608192684831307
21673915 165 18410857689622896494
23175994 123 16877943854054730144
23402539 116 16916786336068433124
23503958 8 18410855443133143187
23557571 272 18187642569951065476
23559900 14 18337119981471998112
26918003 58 18040155140936289224
4214541 1 18408886273763839648
4325135 7 18202558502286536388
449060 23 18131355223718263544
5104073 3 18335423439562320720
559249 180 18413393150804483495
5924683 9 18113625560387715839
7062679 117 18342173363146757578
7970288 3 18194966227836014867
9709674 26 18410288121114303062

> <PUBCHEM_SHAPE_MULTIPOLES>
358.46
10.98
2.05
1.1
11.33
0.77
0.05
3.69
-1.27
-2.23
0.07
-0.01
-0.08
-0.3

> <PUBCHEM_SHAPE_SELFOVERLAP>
737.439

> <PUBCHEM_SHAPE_VOLUME>
205.8

> <PUBCHEM_COORDINATE_TYPE>
2
5
10

$$$$

