586248
  -OEChem-06241222462D

 41 42  0     0  0  0  0  0  0999 V2000
    4.7320    0.7500    0.0000 S   0  0  0  0  0  0  0  0  0  0  0  0
    4.2320    1.6160    0.0000 O   0  0  0  0  0  0  0  0  0  0  0  0
    5.2320   -0.1160    0.0000 O   0  0  0  0  0  0  0  0  0  0  0  0
    3.0000   -1.2500    0.0000 C   0  0  0  0  0  0  0  0  0  0  0  0
    3.0000   -2.2500    0.0000 C   0  0  0  0  0  0  0  0  0  0  0  0
    3.8660   -0.7500    0.0000 C   0  0  0  0  0  0  0  0  0  0  0  0
    3.8660   -2.7500    0.0000 C   0  0  0  0  0  0  0  0  0  0  0  0
    4.7320   -1.2500    0.0000 C   0  0  0  0  0  0  0  0  0  0  0  0
    4.7320   -2.2500    0.0000 C   0  0  0  0  0  0  0  0  0  0  0  0
    3.8660    0.2500    0.0000 C   0  0  0  0  0  0  0  0  0  0  0  0
    2.0000   -1.2500    0.0000 C   0  0  0  0  0  0  0  0  0  0  0  0
    2.5000   -0.3840    0.0000 C   0  0  0  0  0  0  0  0  0  0  0  0
    5.5981   -0.7500    0.0000 C   0  0  0  0  0  0  0  0  0  0  0  0
    5.5981    1.2500    0.0000 C   0  0  0  0  0  0  0  0  0  0  0  0
    6.4641    0.7500    0.0000 C   0  0  0  0  0  0  0  0  0  0  0  0
    5.5981    2.2500    0.0000 C   0  0  0  0  0  0  0  0  0  0  0  0
    7.3301    1.2500    0.0000 C   0  0  0  0  0  0  0  0  0  0  0  0
    6.4641    2.7500    0.0000 C   0  0  0  0  0  0  0  0  0  0  0  0
    7.3301    2.2500    0.0000 C   0  0  0  0  0  0  0  0  0  0  0  0
    2.3894   -2.1423    0.0000 H   0  0  0  0  0  0  0  0  0  0  0  0
    2.7880   -2.8326    0.0000 H   0  0  0  0  0  0  0  0  0  0  0  0
    3.4675   -3.2250    0.0000 H   0  0  0  0  0  0  0  0  0  0  0  0
    4.2646   -3.2250    0.0000 H   0  0  0  0  0  0  0  0  0  0  0  0
    4.9441   -2.8326    0.0000 H   0  0  0  0  0  0  0  0  0  0  0  0
    5.3426   -2.1423    0.0000 H   0  0  0  0  0  0  0  0  0  0  0  0
    3.6540    0.8326    0.0000 H   0  0  0  0  0  0  0  0  0  0  0  0
    3.2554    0.1423    0.0000 H   0  0  0  0  0  0  0  0  0  0  0  0
    2.0000   -0.6300    0.0000 H   0  0  0  0  0  0  0  0  0  0  0  0
    1.3800   -1.2500    0.0000 H   0  0  0  0  0  0  0  0  0  0  0  0
    2.0000   -1.8700    0.0000 H   0  0  0  0  0  0  0  0  0  0  0  0
    3.0369   -0.0740    0.0000 H   0  0  0  0  0  0  0  0  0  0  0  0
    2.1900    0.1530    0.0000 H   0  0  0  0  0  0  0  0  0  0  0  0
    1.9631   -0.6940    0.0000 H   0  0  0  0  0  0  0  0  0  0  0  0
    5.9081   -1.2869    0.0000 H   0  0  0  0  0  0  0  0  0  0  0  0
    6.1350   -0.4400    0.0000 H   0  0  0  0  0  0  0  0  0  0  0  0
    5.2881   -0.2131    0.0000 H   0  0  0  0  0  0  0  0  0  0  0  0
    6.4641    0.1300    0.0000 H   0  0  0  0  0  0  0  0  0  0  0  0
    5.0611    2.5600    0.0000 H   0  0  0  0  0  0  0  0  0  0  0  0
    7.8671    0.9400    0.0000 H   0  0  0  0  0  0  0  0  0  0  0  0
    6.4641    3.3700    0.0000 H   0  0  0  0  0  0  0  0  0  0  0  0
    7.8671    2.5600    0.0000 H   0  0  0  0  0  0  0  0  0  0  0  0
  1  2  2  0  0  0  0
  1  3  2  0  0  0  0
  1 10  1  0  0  0  0
  1 14  1  0  0  0  0
  4  5  1  0  0  0  0
  4  6  1  0  0  0  0
  4 11  1  0  0  0  0
  4 12  1  0  0  0  0
  5  7  1  0  0  0  0
  5 20  1  0  0  0  0
  5 21  1  0  0  0  0
  6  8  2  0  0  0  0
  6 10  1  0  0  0  0
  7  9  1  0  0  0  0
  7 22  1  0  0  0  0
  7 23  1  0  0  0  0
  8  9  1  0  0  0  0
  8 13  1  0  0  0  0
  9 24  1  0  0  0  0
  9 25  1  0  0  0  0
 10 26  1  0  0  0  0
 10 27  1  0  0  0  0
 11 28  1  0  0  0  0
 11 29  1  0  0  0  0
 11 30  1  0  0  0  0
 12 31  1  0  0  0  0
 12 32  1  0  0  0  0
 12 33  1  0  0  0  0
 13 34  1  0  0  0  0
 13 35  1  0  0  0  0
 13 36  1  0  0  0  0
 14 15  2  0  0  0  0
 14 16  1  0  0  0  0
 15 17  1  0  0  0  0
 15 37  1  0  0  0  0
 16 18  2  0  0  0  0
 16 38  1  0  0  0  0
 17 19  2  0  0  0  0
 17 39  1  0  0  0  0
 18 19  1  0  0  0  0
 18 40  1  0  0  0  0
 19 41  1  0  0  0  0
M  END
> <PUBCHEM_COMPOUND_CID>
586248

> <PUBCHEM_COMPOUND_CANONICALIZED>
1

> <PUBCHEM_CACTVS_COMPLEXITY>
446

> <PUBCHEM_CACTVS_HBOND_ACCEPTOR>
2

> <PUBCHEM_CACTVS_HBOND_DONOR>
0

> <PUBCHEM_CACTVS_ROTATABLE_BOND>
3

> <PUBCHEM_CACTVS_SUBSKEYS>
AAADceB4MABAAAAAAAAAAAAAAAAAAAAAAAAwQAAAAAAAAAABAAAAGAQAAAAADgCEUACyAYAAAAqAAiBCAHBCAAAgCBAIiBgAAIgIICKgERCAIAAggAAoiAcAgMAPAAAAAAAAAAAAAAAAAAAAAAAAAAAAAA==

> <PUBCHEM_IUPAC_OPENEYE_NAME>
(2,6,6-trimethylcyclohexen-1-yl)methylsulfonylbenzene

> <PUBCHEM_IUPAC_CAS_NAME>
(2,6,6-trimethyl-1-cyclohexenyl)methylsulfonylbenzene

> <PUBCHEM_IUPAC_NAME>
(2,6,6-trimethylcyclohexen-1-yl)methylsulfonylbenzene

> <PUBCHEM_IUPAC_SYSTEMATIC_NAME>
(2,6,6-trimethylcyclohexen-1-yl)methylsulfonylbenzene

> <PUBCHEM_IUPAC_TRADITIONAL_NAME>
(2,6,6-trimethylcyclohexen-1-yl)methylsulfonylbenzene

> <PUBCHEM_IUPAC_INCHI>
InChI=1S/C16H22O2S/c1-13-8-7-11-16(2,3)15(13)12-19(17,18)14-9-5-4-6-10-14/h4-6,9-10H,7-8,11-12H2,1-3H3

> <PUBCHEM_IUPAC_INCHIKEY>
WQRHISGXRFLGKQ-UHFFFAOYSA-N

> <PUBCHEM_XLOGP3_AA>
3.5

> <PUBCHEM_EXACT_MASS>
278.134051

> <PUBCHEM_MOLECULAR_FORMULA>
C16H22O2S

> <PUBCHEM_MOLECULAR_WEIGHT>
278.40968

> <PUBCHEM_OPENEYE_CAN_SMILES>
CC1=C(C(CCC1)(C)C)CS(=O)(=O)C2=CC=CC=C2

> <PUBCHEM_OPENEYE_ISO_SMILES>
CC1=C(C(CCC1)(C)C)CS(=O)(=O)C2=CC=CC=C2

> <PUBCHEM_CACTVS_TPSA>
42.5

> <PUBCHEM_MONOISOTOPIC_WEIGHT>
278.134051

> <PUBCHEM_TOTAL_CHARGE>
0

> <PUBCHEM_HEAVY_ATOM_COUNT>
19

> <PUBCHEM_ATOM_DEF_STEREO_COUNT>
0

> <PUBCHEM_ATOM_UDEF_STEREO_COUNT>
0

> <PUBCHEM_BOND_DEF_STEREO_COUNT>
0

> <PUBCHEM_BOND_UDEF_STEREO_COUNT>
0

> <PUBCHEM_ISOTOPIC_ATOM_COUNT>
0

> <PUBCHEM_COMPONENT_COUNT>
1

> <PUBCHEM_CACTVS_TAUTO_COUNT>
1

> <PUBCHEM_COORDINATE_TYPE>
1
5
255

> <PUBCHEM_BONDANNOTATIONS>
14  15  8
14  16  8
15  17  8
16  18  8
17  19  8
18  19  8

$$$$

