17395874
  -OEChem-06241222523D

 51 53  0     1  0  0  0  0  0999 V2000
    1.2274    0.7996   -2.0362 O   0  0  0  0  0  0  0  0  0  0  0  0
    1.3149    2.7249    2.1459 O   0  0  0  0  0  0  0  0  0  0  0  0
    1.0019    2.0258   -0.0633 N   0  0  0  0  0  0  0  0  0  0  0  0
    2.5249    0.9788    1.1834 N   0  0  0  0  0  0  0  0  0  0  0  0
   -1.2861    2.2195   -0.7379 N   0  0  1  0  0  0  0  0  0  0  0  0
    2.6332    0.3042   -0.1001 C   0  0  2  0  0  0  0  0  0  0  0  0
    3.9793    0.6646   -0.7418 C   0  0  0  0  0  0  0  0  0  0  0  0
    1.5382    1.0513   -0.8783 C   0  0  0  0  0  0  0  0  0  0  0  0
    2.3198   -1.1798    0.0298 C   0  0  0  0  0  0  0  0  0  0  0  0
    1.5768    2.0032    1.1923 C   0  0  0  0  0  0  0  0  0  0  0  0
   -0.0478    2.9470   -0.4505 C   0  0  0  0  0  0  0  0  0  0  0  0
    5.1451    0.0945    0.0470 C   0  0  0  0  0  0  0  0  0  0  0  0
    2.7642   -2.0743   -0.9440 C   0  0  0  0  0  0  0  0  0  0  0  0
    1.5888   -1.6453    1.1229 C   0  0  0  0  0  0  0  0  0  0  0  0
   -1.9309    1.8153    0.5136 C   0  0  0  0  0  0  0  0  0  0  0  0
   -2.2146    3.0279   -1.5335 C   0  0  0  0  0  0  0  0  0  0  0  0
    2.4774   -3.4342   -0.8249 C   0  0  0  0  0  0  0  0  0  0  0  0
    1.3021   -3.0053    1.2419 C   0  0  0  0  0  0  0  0  0  0  0  0
   -2.8492    0.6383    0.3168 C   0  0  0  0  0  0  0  0  0  0  0  0
    1.7465   -3.8997    0.2679 C   0  0  0  0  0  0  0  0  0  0  0  0
   -2.4307   -0.4535   -0.4436 C   0  0  0  0  0  0  0  0  0  0  0  0
   -4.1186    0.6403    0.8950 C   0  0  0  0  0  0  0  0  0  0  0  0
   -3.2815   -1.5436   -0.6257 C   0  0  0  0  0  0  0  0  0  0  0  0
   -4.9695   -0.4499    0.7129 C   0  0  0  0  0  0  0  0  0  0  0  0
   -4.5510   -1.5418   -0.0475 C   0  0  0  0  0  0  0  0  0  0  0  0
   -5.4606   -2.7076   -0.2420 C   0  0  0  0  0  0  0  0  0  0  0  0
    4.0975    1.7562   -0.7895 H   0  0  0  0  0  0  0  0  0  0  0  0
    4.0368    0.3204   -1.7811 H   0  0  0  0  0  0  0  0  0  0  0  0
    3.0836    0.7407    1.9974 H   0  0  0  0  0  0  0  0  0  0  0  0
    0.3117    3.4310   -1.3670 H   0  0  0  0  0  0  0  0  0  0  0  0
   -0.1865    3.7244    0.3104 H   0  0  0  0  0  0  0  0  0  0  0  0
    5.1301   -0.9974    0.0944 H   0  0  0  0  0  0  0  0  0  0  0  0
    6.0866    0.3824   -0.4336 H   0  0  0  0  0  0  0  0  0  0  0  0
    5.1752    0.4828    1.0696 H   0  0  0  0  0  0  0  0  0  0  0  0
    3.3194   -1.7444   -1.8160 H   0  0  0  0  0  0  0  0  0  0  0  0
    1.2100   -0.9815    1.8941 H   0  0  0  0  0  0  0  0  0  0  0  0
   -1.1949    1.4779    1.2545 H   0  0  0  0  0  0  0  0  0  0  0  0
   -2.4569    2.6599    0.9789 H   0  0  0  0  0  0  0  0  0  0  0  0
   -3.1264    2.4709   -1.7748 H   0  0  0  0  0  0  0  0  0  0  0  0
   -2.4984    3.9550   -1.0222 H   0  0  0  0  0  0  0  0  0  0  0  0
   -1.7563    3.2952   -2.4925 H   0  0  0  0  0  0  0  0  0  0  0  0
    2.8193   -4.1302   -1.5853 H   0  0  0  0  0  0  0  0  0  0  0  0
    0.7289   -3.3678    2.0903 H   0  0  0  0  0  0  0  0  0  0  0  0
    1.5213   -4.9582    0.3596 H   0  0  0  0  0  0  0  0  0  0  0  0
   -1.4411   -0.4829   -0.8915 H   0  0  0  0  0  0  0  0  0  0  0  0
   -4.4571    1.4838    1.4907 H   0  0  0  0  0  0  0  0  0  0  0  0
   -2.9421   -2.3908   -1.2159 H   0  0  0  0  0  0  0  0  0  0  0  0
   -5.9554   -0.4377    1.1701 H   0  0  0  0  0  0  0  0  0  0  0  0
   -5.3050   -3.4424    0.5541 H   0  0  0  0  0  0  0  0  0  0  0  0
   -6.5105   -2.3957   -0.2316 H   0  0  0  0  0  0  0  0  0  0  0  0
   -5.2805   -3.1926   -1.2075 H   0  0  0  0  0  0  0  0  0  0  0  0
  1  8  2  0  0  0  0
  2 10  2  0  0  0  0
  3  8  1  0  0  0  0
  3 10  1  0  0  0  0
  3 11  1  0  0  0  0
  4  6  1  0  0  0  0
  4 10  1  0  0  0  0
  4 29  1  0  0  0  0
  5 11  1  0  0  0  0
  5 15  1  0  0  0  0
  5 16  1  0  0  0  0
  6  7  1  0  0  0  0
  6  8  1  0  0  0  0
  6  9  1  0  0  0  0
  7 12  1  0  0  0  0
  7 27  1  0  0  0  0
  7 28  1  0  0  0  0
  9 13  2  0  0  0  0
  9 14  1  0  0  0  0
 11 30  1  0  0  0  0
 11 31  1  0  0  0  0
 12 32  1  0  0  0  0
 12 33  1  0  0  0  0
 12 34  1  0  0  0  0
 13 17  1  0  0  0  0
 13 35  1  0  0  0  0
 14 18  2  0  0  0  0
 14 36  1  0  0  0  0
 15 19  1  0  0  0  0
 15 37  1  0  0  0  0
 15 38  1  0  0  0  0
 16 39  1  0  0  0  0
 16 40  1  0  0  0  0
 16 41  1  0  0  0  0
 17 20  2  0  0  0  0
 17 42  1  0  0  0  0
 18 20  1  0  0  0  0
 18 43  1  0  0  0  0
 19 21  2  0  0  0  0
 19 22  1  0  0  0  0
 20 44  1  0  0  0  0
 21 23  1  0  0  0  0
 21 45  1  0  0  0  0
 22 24  2  0  0  0  0
 22 46  1  0  0  0  0
 23 25  2  0  0  0  0
 23 47  1  0  0  0  0
 24 25  1  0  0  0  0
 24 48  1  0  0  0  0
 25 26  1  0  0  0  0
 26 49  1  0  0  0  0
 26 50  1  0  0  0  0
 26 51  1  0  0  0  0
M  END
> <PUBCHEM_COMPOUND_CID>
17395874

> <PUBCHEM_CONFORMER_RMSD>
0.8

> <PUBCHEM_CONFORMER_DIVERSEORDER>
5
41
169
78
219
7
187
73
206
209
80
108
135
174
67
12
62
205
141
119
39
20
148
40
34
203
197
220
158
81
225
31
83
152
123
228
183
63
131
46
38
114
56
190
154
113
229
196
180
172
153
213
91
89
226
48
4
97
194
234
44
47
87
157
198
14
112
179
181
26
173
145
159
51
166
215
124
103
57
6
136
170
42
118
223
175
185
85
207
10
218
208
88
231
117
212
168
129
120
33
27
149
163
130
216
125
35
69
193
66
186
16
202
61
143
162
58
22
192
122
142
126
84
49
233
151
64
2
182
11
54
177
37
68
92
30
195
224
107
191
8
161
72
77
93
171
53
164
86
3
237
147
217
13
79
140
133
60
235
18
94
137
36
95
98
236
102
127
116
65
45
232
111
210
43
21
52
1
28
160
176
59
156
214
96
204
178
50
25
9
29
221
138
19
201
132
24
82
105
90
167
211
227
155
76
184
146
115
99
128
104
165
230
200
74
109
101
150
144
106
110
121
17
32
189
222
139
188
71
134
70
23
15
199
100
55
75

> <PUBCHEM_MMFF94_PARTIAL_CHARGES>
34
1 -0.57
10 0.69
11 0.57
13 -0.15
14 -0.15
15 0.41
16 0.27
17 -0.15
18 -0.15
19 -0.14
2 -0.57
20 -0.15
21 -0.15
22 -0.15
23 -0.15
24 -0.15
25 -0.14
26 0.14
29 0.37
3 -0.42
35 0.15
36 0.15
4 -0.73
42 0.15
43 0.15
44 0.15
45 0.15
46 0.15
47 0.15
48 0.15
5 -0.81
6 0.5
8 0.57
9 -0.14

> <PUBCHEM_EFFECTIVE_ROTOR_COUNT>
6.6

> <PUBCHEM_PHARMACOPHORE_FEATURES>
8
1 1 acceptor
1 12 hydrophobe
1 2 acceptor
1 4 donor
1 5 cation
5 3 4 6 8 10 rings
6 19 21 22 23 24 25 rings
6 9 13 14 17 18 20 rings

> <PUBCHEM_HEAVY_ATOM_COUNT>
26

> <PUBCHEM_ATOM_DEF_STEREO_COUNT>
0

> <PUBCHEM_ATOM_UDEF_STEREO_COUNT>
1

> <PUBCHEM_BOND_DEF_STEREO_COUNT>
0

> <PUBCHEM_BOND_UDEF_STEREO_COUNT>
0

> <PUBCHEM_ISOTOPIC_ATOM_COUNT>
0

> <PUBCHEM_COMPONENT_COUNT>
1

> <PUBCHEM_CACTVS_TAUTO_COUNT>
2

> <PUBCHEM_CONFORMER_ID>
010970A200000005

> <PUBCHEM_MMFF94_ENERGY>
67.2303

> <PUBCHEM_FEATURE_SELFOVERLAP>
40.594

> <PUBCHEM_SHAPE_FINGERPRINT>
10366900 7 18340767048761560427
114674 6 18338519625509175779
11578080 2 17558839617777111382
12156800 1 11085538735571150323
12506688 2 18191871330167552464
12553582 1 18341900662524521009
13122387 1 18051977210223041259
13140716 1 18120943801912086218
13150687 139 17627769947934080460
13402501 40 18270398278666646507
13533116 47 18334295371282509795
13583140 156 18260558822604054221
14223421 5 18410018766255317797
14787075 74 18335979788451804484
14863182 85 18342170025614394358
15537594 2 18266718303748345543
17492 54 17701803407205719140
20028762 73 18261956224304748166
20291156 8 18267298927281401179
20775438 99 17691457153386288463
20775530 9 18267582592765506707
20905425 154 18337388360992806790
21421861 104 18199464540130784186
23379529 103 17756978274745270094
23419403 2 12602681885368521212
23559900 14 17979644760132313764
238 59 18198894821346029059
35225 105 15661483560721200704
3737641 26 18338505447616325075
463206 1 18341041939680169283
5309563 4 18340772520956083911

> <PUBCHEM_SHAPE_MULTIPOLES>
508.39
9.31
4.55
1.4
8.24
1.79
0.11
4.81
-0.06
-0.64
-0.12
-0.44
-0.61
0.39

> <PUBCHEM_SHAPE_SELFOVERLAP>
1085.934

> <PUBCHEM_SHAPE_VOLUME>
284

> <PUBCHEM_COORDINATE_TYPE>
2
5
10

$$$$

