7526
  -OEChem-06261202073D

 18 18  0     0  0  0  0  0  0999 V2000
   -2.6691   -0.2790   -0.4417 O   0  0  0  0  0  0  0  0  0  0  0  0
   -0.6659    0.1542   -0.0544 N   0  0  0  0  0  0  0  0  0  0  0  0
   -1.9119    0.3387    0.3133 N   0  0  0  0  0  0  0  0  0  0  0  0
    2.2362   -0.1789    0.0852 C   0  0  0  0  0  0  0  0  0  0  0  0
    1.5936    1.1335   -0.3455 C   0  0  0  0  0  0  0  0  0  0  0  0
    1.3032   -1.3463   -0.2111 C   0  0  0  0  0  0  0  0  0  0  0  0
    0.1991    1.2983    0.2624 C   0  0  0  0  0  0  0  0  0  0  0  0
   -0.0851   -1.1205    0.3918 C   0  0  0  0  0  0  0  0  0  0  0  0
    3.1904   -0.3188   -0.4345 H   0  0  0  0  0  0  0  0  0  0  0  0
    2.4548   -0.1463    1.1595 H   0  0  0  0  0  0  0  0  0  0  0  0
    2.2298    1.9730   -0.0433 H   0  0  0  0  0  0  0  0  0  0  0  0
    1.5225    1.1641   -1.4402 H   0  0  0  0  0  0  0  0  0  0  0  0
    1.2143   -1.4766   -1.2971 H   0  0  0  0  0  0  0  0  0  0  0  0
    1.7328   -2.2724    0.1875 H   0  0  0  0  0  0  0  0  0  0  0  0
    0.2879    1.4283    1.3502 H   0  0  0  0  0  0  0  0  0  0  0  0
   -0.2334    2.2253   -0.1378 H   0  0  0  0  0  0  0  0  0  0  0  0
   -0.7201   -1.9636    0.0888 H   0  0  0  0  0  0  0  0  0  0  0  0
   -0.0161   -1.1497    1.4882 H   0  0  0  0  0  0  0  0  0  0  0  0
  1  3  2  0  0  0  0
  2  3  1  0  0  0  0
  2  7  1  0  0  0  0
  2  8  1  0  0  0  0
  4  5  1  0  0  0  0
  4  6  1  0  0  0  0
  4  9  1  0  0  0  0
  4 10  1  0  0  0  0
  5  7  1  0  0  0  0
  5 11  1  0  0  0  0
  5 12  1  0  0  0  0
  6  8  1  0  0  0  0
  6 13  1  0  0  0  0
  6 14  1  0  0  0  0
  7 15  1  0  0  0  0
  7 16  1  0  0  0  0
  8 17  1  0  0  0  0
  8 18  1  0  0  0  0
M  END
> <PUBCHEM_COMPOUND_CID>
7526

> <PUBCHEM_CONFORMER_RMSD>
0.4

> <PUBCHEM_CONFORMER_DIVERSEORDER>
1
10
5
8
2
11
6
7
4
9
12
3

> <PUBCHEM_MMFF94_PARTIAL_CHARGES>
5
1 -0.16
2 -0.36
3 -0.01
7 0.27
8 0.27

> <PUBCHEM_EFFECTIVE_ROTOR_COUNT>
2.2

> <PUBCHEM_PHARMACOPHORE_FEATURES>
1
6 2 4 5 6 7 8 rings

> <PUBCHEM_HEAVY_ATOM_COUNT>
8

> <PUBCHEM_ATOM_DEF_STEREO_COUNT>
0

> <PUBCHEM_ATOM_UDEF_STEREO_COUNT>
0

> <PUBCHEM_BOND_DEF_STEREO_COUNT>
0

> <PUBCHEM_BOND_UDEF_STEREO_COUNT>
0

> <PUBCHEM_ISOTOPIC_ATOM_COUNT>
0

> <PUBCHEM_COMPONENT_COUNT>
1

> <PUBCHEM_CACTVS_TAUTO_COUNT>
1

> <PUBCHEM_CONFORMER_ID>
00001D6600000001

> <PUBCHEM_MMFF94_ENERGY>
4.6591

> <PUBCHEM_FEATURE_SELFOVERLAP>
5.074

> <PUBCHEM_SHAPE_FINGERPRINT>
18185500 45 18336264668646244042
20096714 4 18340201895436921674
21040471 1 18195244421366955680
23235685 24 18411983525046856628
23552423 10 18197489830121663430
29004967 10 18341044198473855050
5084963 1 18410013242864071520

> <PUBCHEM_SHAPE_MULTIPOLES>
148.8
2.96
1.44
0.67
1.39
0.02
0.01
0.08
-0.33
-0.51
0.02
-0.01
0.01
-0.07

> <PUBCHEM_SHAPE_SELFOVERLAP>
286.703

> <PUBCHEM_SHAPE_VOLUME>
90.8

> <PUBCHEM_COORDINATE_TYPE>
2
5
10

$$$$

