3789
  -OEChem-06251223412D

 37 39  0     1  0  0  0  0  0999 V2000
    4.5307    0.9048    0.0000 O   0  0  0  0  0  0  0  0  0  0  0  0
    2.5989    0.3872    0.0000 O   0  0  0  0  0  0  0  0  0  0  0  0
    3.3060   -0.3199    0.0000 N   0  0  0  0  0  0  0  0  0  0  0  0
    5.8152    0.6801    0.0000 C   0  0  3  0  0  0  0  0  0  0  0  0
    6.6514   -0.7682    0.0000 C   0  0  3  0  0  0  0  0  0  0  0  0
    4.9790   -0.7682    0.0000 C   0  0  0  0  0  0  0  0  0  0  0  0
    5.1242   -1.2033    0.0000 C   0  0  0  0  0  0  0  0  0  0  0  0
    6.6514    0.1973    0.0000 C   0  0  0  0  0  0  0  0  0  0  0  0
    5.8152   -1.0710    0.0000 C   0  0  0  0  0  0  0  0  0  0  0  0
    4.9790    0.1973    0.0000 C   0  0  0  0  0  0  0  0  0  0  0  0
    5.1242   -0.1580    0.0000 C   0  0  0  0  0  0  0  0  0  0  0  0
    6.0298   -1.6801    0.0000 C   0  0  0  0  0  0  0  0  0  0  0  0
    4.1422   -1.2510    0.0000 C   0  0  0  0  0  0  0  0  0  0  0  0
    5.8152    1.6801    0.0000 C   0  0  0  0  0  0  0  0  0  0  0  0
    7.3585   -1.4753    0.0000 C   0  0  0  0  0  0  0  0  0  0  0  0
    4.2719   -0.0611    0.0000 C   0  0  0  0  0  0  0  0  0  0  0  0
    4.9900   -1.8086    0.0000 H   0  0  0  0  0  0  0  0  0  0  0  0
    7.2620    0.0897    0.0000 H   0  0  0  0  0  0  0  0  0  0  0  0
    6.8635    0.7799    0.0000 H   0  0  0  0  0  0  0  0  0  0  0  0
    4.7670    0.7799    0.0000 H   0  0  0  0  0  0  0  0  0  0  0  0
    4.3684    0.0897    0.0000 H   0  0  0  0  0  0  0  0  0  0  0  0
    5.4453   -1.5685    0.0000 H   0  0  0  0  0  0  0  0  0  0  0  0
    6.1852   -1.5685    0.0000 H   0  0  0  0  0  0  0  0  0  0  0  0
    4.7805    0.3580    0.0000 H   0  0  0  0  0  0  0  0  0  0  0  0
    4.5307   -0.3375    0.0000 H   0  0  0  0  0  0  0  0  0  0  0  0
    5.7204   -2.2174    0.0000 H   0  0  0  0  0  0  0  0  0  0  0  0
    6.5550   -2.0097    0.0000 H   0  0  0  0  0  0  0  0  0  0  0  0
    3.6610   -0.8601    0.0000 H   0  0  0  0  0  0  0  0  0  0  0  0
    3.9491   -1.8401    0.0000 H   0  0  0  0  0  0  0  0  0  0  0  0
    6.4352    1.6801    0.0000 H   0  0  0  0  0  0  0  0  0  0  0  0
    5.8152    2.3001    0.0000 H   0  0  0  0  0  0  0  0  0  0  0  0
    5.1952    1.6801    0.0000 H   0  0  0  0  0  0  0  0  0  0  0  0
    6.9201   -1.9137    0.0000 H   0  0  0  0  0  0  0  0  0  0  0  0
    7.7969   -1.9137    0.0000 H   0  0  0  0  0  0  0  0  0  0  0  0
    7.7969   -1.0369    0.0000 H   0  0  0  0  0  0  0  0  0  0  0  0
    3.1455   -0.9188    0.0000 H   0  0  0  0  0  0  0  0  0  0  0  0
    2.0000    0.2267    0.0000 H   0  0  0  0  0  0  0  0  0  0  0  0
  1 16  2  0  0  0  0
  2  3  1  0  0  0  0
  2 37  1  0  0  0  0
  3 16  1  0  0  0  0
  3 36  1  0  0  0  0
  4  8  1  0  0  0  0
  4 10  1  0  0  0  0
  4 11  1  0  0  0  0
  4 14  1  0  0  0  0
  5  8  1  0  0  0  0
  5  9  1  0  0  0  0
  5 12  1  0  0  0  0
  5 15  1  0  0  0  0
  6  9  1  0  0  0  0
  6 10  1  0  0  0  0
  6 13  1  0  0  0  0
  6 16  1  0  0  0  0
  7 11  1  0  0  0  0
  7 12  1  0  0  0  0
  7 13  1  0  0  0  0
  7 17  1  0  0  0  0
  8 18  1  0  0  0  0
  8 19  1  0  0  0  0
  9 22  1  0  0  0  0
  9 23  1  0  0  0  0
 10 20  1  0  0  0  0
 10 21  1  0  0  0  0
 11 24  1  0  0  0  0
 11 25  1  0  0  0  0
 12 26  1  0  0  0  0
 12 27  1  0  0  0  0
 13 28  1  0  0  0  0
 13 29  1  0  0  0  0
 14 30  1  0  0  0  0
 14 31  1  0  0  0  0
 14 32  1  0  0  0  0
 15 33  1  0  0  0  0
 15 34  1  0  0  0  0
 15 35  1  0  0  0  0
M  END
> <PUBCHEM_COMPOUND_CID>
3789

> <PUBCHEM_COMPOUND_CANONICALIZED>
1

> <PUBCHEM_CACTVS_COMPLEXITY>
334

> <PUBCHEM_CACTVS_HBOND_ACCEPTOR>
2

> <PUBCHEM_CACTVS_HBOND_DONOR>
2

> <PUBCHEM_CACTVS_ROTATABLE_BOND>
1

> <PUBCHEM_CACTVS_SUBSKEYS>
AAADceByMAAAAAAAAAAAAAAAAAAAAAAAAAAwYMGAAAAAAAAAAAAAHgAUCAAADwCBgAACAABQAAAIAAEQEAAAAAAAAAAgAAEAAAAAABIAgAAAAAAAAAAAAAEYiMCPAAAAAAAAAAAAAAQAAAAAAAAAAAAAAA==

> <PUBCHEM_IUPAC_OPENEYE_NAME>
3,5-dimethyladamantane-1-carbohydroxamic acid

> <PUBCHEM_IUPAC_CAS_NAME>
N-hydroxy-3,5-dimethyl-1-adamantanecarboxamide

> <PUBCHEM_IUPAC_NAME>
N-hydroxy-3,5-dimethyladamantane-1-carboxamide

> <PUBCHEM_IUPAC_SYSTEMATIC_NAME>
3,5-dimethyl-N-oxidanyl-adamantane-1-carboxamide

> <PUBCHEM_IUPAC_TRADITIONAL_NAME>
3,5-dimethyladamantane-1-carbohydroxamic acid

> <PUBCHEM_IUPAC_INCHI>
InChI=1S/C13H21NO2/c1-11-3-9-4-12(2,6-11)8-13(5-9,7-11)10(15)14-16/h9,16H,3-8H2,1-2H3,(H,14,15)

> <PUBCHEM_IUPAC_INCHIKEY>
HNCADPIUVJAZJR-UHFFFAOYSA-N

> <PUBCHEM_XLOGP3_AA>
2.4

> <PUBCHEM_EXACT_MASS>
223.157229

> <PUBCHEM_MOLECULAR_FORMULA>
C13H21NO2

> <PUBCHEM_MOLECULAR_WEIGHT>
223.31134

> <PUBCHEM_OPENEYE_CAN_SMILES>
CC12CC3CC(C1)(CC(C3)(C2)C(=O)NO)C

> <PUBCHEM_OPENEYE_ISO_SMILES>
CC12CC3CC(C1)(CC(C3)(C2)C(=O)NO)C

> <PUBCHEM_CACTVS_TPSA>
49.3

> <PUBCHEM_MONOISOTOPIC_WEIGHT>
223.157229

> <PUBCHEM_TOTAL_CHARGE>
0

> <PUBCHEM_HEAVY_ATOM_COUNT>
16

> <PUBCHEM_ATOM_DEF_STEREO_COUNT>
0

> <PUBCHEM_ATOM_UDEF_STEREO_COUNT>
2

> <PUBCHEM_BOND_DEF_STEREO_COUNT>
0

> <PUBCHEM_BOND_UDEF_STEREO_COUNT>
0

> <PUBCHEM_ISOTOPIC_ATOM_COUNT>
0

> <PUBCHEM_COMPONENT_COUNT>
1

> <PUBCHEM_CACTVS_TAUTO_COUNT>
3

> <PUBCHEM_COORDINATE_TYPE>
1
5
255

> <PUBCHEM_BONDANNOTATIONS>
4  14  3
5  15  3

$$$$

