4239
  -OEChem-06251223593D

 32 33  0     0  0  0  0  0  0999 V2000
   -5.3511   -0.4914   -0.0075 O   0  0  0  0  0  0  0  0  0  0  0  0
    0.2380    1.9558   -0.0511 O   0  0  0  0  0  0  0  0  0  0  0  0
    4.4333    0.1119   -0.0048 O   0  0  0  0  0  0  0  0  0  0  0  0
    2.8260   -1.5111    0.0447 O   0  0  0  0  0  0  0  0  0  0  0  0
   -2.5182   -0.3183    0.0217 N   0  0  0  0  0  0  0  0  0  0  0  0
   -1.2194    0.3904   -0.0017 N   0  3  0  0  0  0  0  0  0  0  0  0
   -1.1457    1.6999   -0.0407 N   0  0  0  0  0  0  0  0  0  0  0  0
    2.2704    0.7734   -0.0197 N   0  0  0  0  0  0  0  0  0  0  0  0
   -3.3163    0.0565    1.1946 C   0  0  0  0  0  0  0  0  0  0  0  0
   -3.2827   -0.0841   -1.2086 C   0  0  0  0  0  0  0  0  0  0  0  0
   -4.6203   -0.7354    1.1960 C   0  0  0  0  0  0  0  0  0  0  0  0
   -4.5879   -0.8723   -1.1540 C   0  0  0  0  0  0  0  0  0  0  0  0
   -0.0145   -0.2545    0.0147 C   0  0  0  0  0  0  0  0  0  0  0  0
    0.9059    0.7582   -0.0167 C   0  0  0  0  0  0  0  0  0  0  0  0
    3.1351   -0.3265    0.0102 C   0  0  0  0  0  0  0  0  0  0  0  0
    5.4419   -0.9050    0.0223 C   0  0  0  0  0  0  0  0  0  0  0  0
    6.8054   -0.2475    0.0008 C   0  0  0  0  0  0  0  0  0  0  0  0
   -3.5393    1.1306    1.1790 H   0  0  0  0  0  0  0  0  0  0  0  0
   -2.7582   -0.1602    2.1118 H   0  0  0  0  0  0  0  0  0  0  0  0
   -2.6998   -0.4059   -2.0785 H   0  0  0  0  0  0  0  0  0  0  0  0
   -3.5024    0.9845   -1.3245 H   0  0  0  0  0  0  0  0  0  0  0  0
   -4.4406   -1.8122    1.3027 H   0  0  0  0  0  0  0  0  0  0  0  0
   -5.2475   -0.4195    2.0358 H   0  0  0  0  0  0  0  0  0  0  0  0
   -5.1912   -0.6567   -2.0417 H   0  0  0  0  0  0  0  0  0  0  0  0
   -4.4075   -1.9540   -1.1301 H   0  0  0  0  0  0  0  0  0  0  0  0
    0.1037   -1.3259    0.0461 H   0  0  0  0  0  0  0  0  0  0  0  0
    2.6982    1.6948   -0.0473 H   0  0  0  0  0  0  0  0  0  0  0  0
    5.3333   -1.5022    0.9344 H   0  0  0  0  0  0  0  0  0  0  0  0
    5.3298   -1.5533   -0.8538 H   0  0  0  0  0  0  0  0  0  0  0  0
    7.6014   -0.9971    0.0207 H   0  0  0  0  0  0  0  0  0  0  0  0
    6.9220    0.3685   -0.8968 H   0  0  0  0  0  0  0  0  0  0  0  0
    6.9255    0.4188    0.8614 H   0  0  0  0  0  0  0  0  0  0  0  0
  1 11  1  0  0  0  0
  1 12  1  0  0  0  0
  2  7  1  0  0  0  0
  2 14  1  0  0  0  0
  3 15  1  0  0  0  0
  3 16  1  0  0  0  0
  4 15  2  0  0  0  0
  5  6  1  0  0  0  0
  5  9  1  0  0  0  0
  5 10  1  0  0  0  0
  6  7  2  0  0  0  0
  6 13  1  0  0  0  0
  8 14  1  0  0  0  0
  8 15  1  0  0  0  0
  8 27  1  0  0  0  0
  9 11  1  0  0  0  0
  9 18  1  0  0  0  0
  9 19  1  0  0  0  0
 10 12  1  0  0  0  0
 10 20  1  0  0  0  0
 10 21  1  0  0  0  0
 11 22  1  0  0  0  0
 11 23  1  0  0  0  0
 12 24  1  0  0  0  0
 12 25  1  0  0  0  0
 13 14  2  0  0  0  0
 13 26  1  0  0  0  0
 16 17  1  0  0  0  0
 16 28  1  0  0  0  0
 16 29  1  0  0  0  0
 17 30  1  0  0  0  0
 17 31  1  0  0  0  0
 17 32  1  0  0  0  0
M  CHG  1   6   1
M  END
> <PUBCHEM_COMPOUND_CID>
4239

> <PUBCHEM_CONFORMER_RMSD>
0.8

> <PUBCHEM_CONFORMER_DIVERSEORDER>
1
24
36
26
15
7
42
34
45
14
3
35
40
2
47
43
21
18
27
23
30
37
25
39
10
4
41
33
5
12
19
17
29
9
16
31
28
22
44
46
8
20
6
13
11
38
32

> <PUBCHEM_MMFF94_PARTIAL_CHARGES>
18
1 -0.56
10 0.27
11 0.28
12 0.28
13 0.18
14 0.2
15 0.78
16 0.28
2 -0.02
26 0.15
27 0.37
3 -0.43
4 -0.57
5 -0.28
6 0.37
7 -0.08
8 -0.49
9 0.27

> <PUBCHEM_EFFECTIVE_ROTOR_COUNT>
6.2

> <PUBCHEM_PHARMACOPHORE_FEATURES>
5
1 1 acceptor
1 4 acceptor
1 8 donor
5 2 6 7 13 14 rings
6 1 5 9 10 11 12 rings

> <PUBCHEM_HEAVY_ATOM_COUNT>
17

> <PUBCHEM_ATOM_DEF_STEREO_COUNT>
0

> <PUBCHEM_ATOM_UDEF_STEREO_COUNT>
0

> <PUBCHEM_BOND_DEF_STEREO_COUNT>
0

> <PUBCHEM_BOND_UDEF_STEREO_COUNT>
0

> <PUBCHEM_ISOTOPIC_ATOM_COUNT>
0

> <PUBCHEM_COMPONENT_COUNT>
1

> <PUBCHEM_CACTVS_TAUTO_COUNT>
2

> <PUBCHEM_CONFORMER_ID>
0000108F00000001

> <PUBCHEM_MMFF94_ENERGY>
26.1387

> <PUBCHEM_FEATURE_SELFOVERLAP>
25.371

> <PUBCHEM_SHAPE_FINGERPRINT>
10014705 185 8862648097810172282
100836 57 8070025584405731618
10447042 23 18130514106356489978
10803635 8 16917073256399283995
10968037 39 18413107247452707622
11287383 113 16773511088607522220
11315181 36 17095526171325346387
12091667 2 18408603673341829264
12236239 1 17821728308546066667
12507560 40 13984928658559518301
12596602 18 16805608040298351706
12714333 28 14333408948046231734
13288520 33 18260548926582354221
13583140 156 14634874184131520517
13740256 8 18271520901581741139
13760787 5 18411696552237830661
13862211 1 18410578387973367206
1420 363 18413385445617343146
14251718 22 16845572011271523562
14251731 8 17275105020122831875
14252887 29 18040989670372638390
14350574 20 17988922253835841692
15716309 27 18040998453728393090
17834072 33 17458627783338863776
17834076 25 11384114146256208078
1813 80 18261939812912768580
187816 3 17632858628947941416
19489759 90 15626225727654103366
200 152 18413110580194315908
20281389 69 7420943162993382370
20325693 3 15913331286869092955
20645477 56 7348886663871122928
20645477 70 18271807891085320175
20871999 31 17346603005707816629
21267235 1 18410568483319521942
22224240 67 17095530586947632086
2297311 6 16487254361987797327
23035841 295 17822008727351511734
23198884 109 14117800223475780706
23402539 116 18408324405904598693
23536379 177 14979963583731672666
23559900 14 17489024855819837908
26918003 58 18202279199619116283
2767999 5 10015581688555509390
2871803 45 18201721790664247026
293599 30 8935000369533231668
314173 85 18259977193268020116
351380 3 18335143094003869518
3545911 37 9079114466640019044
4463277 17 18409166619174661888
474229 33 18413106165432562106
5104073 3 18191310579854390546

> <PUBCHEM_SHAPE_MULTIPOLES>
306.45
14.13
1.26
0.95
13.63
0.41
0.01
-5.4
0.21
0.16
-0.04
-1.49
-0.15
-0.12

> <PUBCHEM_SHAPE_SELFOVERLAP>
618.331

> <PUBCHEM_SHAPE_VOLUME>
179.8

> <PUBCHEM_COORDINATE_TYPE>
2
5
10

$$$$

