47205511
  -OEChem-06241222593D

 32 33  0     1  0  0  0  0  0999 V2000
    3.7993   -1.4281    0.4065 S   0  0  0  0  0  0  0  0  0  0  0  0
    5.1995   -1.7951    0.3632 O   0  0  0  0  0  0  0  0  0  0  0  0
    2.8025   -2.2561    1.0531 O   0  0  0  0  0  0  0  0  0  0  0  0
    0.7093    2.9364   -0.6164 O   0  0  0  0  0  0  0  0  0  0  0  0
   -1.4601    2.1860    1.0482 O   0  0  0  0  0  0  0  0  0  0  0  0
   -4.1927   -1.6695   -0.6694 O   0  0  0  0  0  0  0  0  0  0  0  0
    1.4388    0.8711    0.2296 N   0  0  0  0  0  0  0  0  0  0  0  0
   -1.2946    0.3341   -0.4198 N   0  0  0  0  0  0  0  0  0  0  0  0
   -2.8801   -1.3880   -1.0281 N   0  0  0  0  0  0  0  0  0  0  0  0
    2.8552    1.0150    0.0030 C   0  0  1  0  0  0  0  0  0  0  0  0
    3.6650    0.2391    1.0423 C   0  0  0  0  0  0  0  0  0  0  0  0
    3.2758    0.4589   -1.3620 C   0  0  0  0  0  0  0  0  0  0  0  0
    3.2486   -1.0634   -1.2525 C   0  0  0  0  0  0  0  0  0  0  0  0
    0.5240    1.8443   -0.1038 C   0  0  0  0  0  0  0  0  0  0  0  0
   -0.8818    1.4645    0.2529 C   0  0  0  0  0  0  0  0  0  0  0  0
   -2.5613   -0.2890   -0.3384 C   0  0  0  0  0  0  0  0  0  0  0  0
   -3.6226    0.1638    0.4643 C   0  0  0  0  0  0  0  0  0  0  0  0
   -4.6239   -0.7385    0.2197 C   0  0  0  0  0  0  0  0  0  0  0  0
   -6.0007   -0.8855    0.7077 C   0  0  0  0  0  0  0  0  0  0  0  0
    3.0952    2.0826    0.0637 H   0  0  0  0  0  0  0  0  0  0  0  0
    4.6822    0.6371    1.1130 H   0  0  0  0  0  0  0  0  0  0  0  0
    3.2044    0.2162    2.0329 H   0  0  0  0  0  0  0  0  0  0  0  0
    4.2992    0.7862   -1.5845 H   0  0  0  0  0  0  0  0  0  0  0  0
    2.6309    0.8056   -2.1761 H   0  0  0  0  0  0  0  0  0  0  0  0
    2.2309   -1.4493   -1.3619 H   0  0  0  0  0  0  0  0  0  0  0  0
    3.9092   -1.5452   -1.9762 H   0  0  0  0  0  0  0  0  0  0  0  0
    1.1022   -0.0037    0.6226 H   0  0  0  0  0  0  0  0  0  0  0  0
   -0.6462   -0.1263   -1.0537 H   0  0  0  0  0  0  0  0  0  0  0  0
   -3.6797    1.0125    1.1289 H   0  0  0  0  0  0  0  0  0  0  0  0
   -6.7108   -0.8379   -0.1236 H   0  0  0  0  0  0  0  0  0  0  0  0
   -6.1287   -1.8467    1.2150 H   0  0  0  0  0  0  0  0  0  0  0  0
   -6.2555   -0.0917    1.4168 H   0  0  0  0  0  0  0  0  0  0  0  0
  1  2  2  0  0  0  0
  1  3  2  0  0  0  0
  1 11  1  0  0  0  0
  1 13  1  0  0  0  0
  4 14  2  0  0  0  0
  5 15  2  0  0  0  0
  6  9  1  0  0  0  0
  6 18  1  0  0  0  0
  7 10  1  0  0  0  0
  7 14  1  0  0  0  0
  7 27  1  0  0  0  0
  8 15  1  0  0  0  0
  8 16  1  0  0  0  0
  8 28  1  0  0  0  0
  9 16  2  0  0  0  0
 10 11  1  0  0  0  0
 10 12  1  0  0  0  0
 10 20  1  0  0  0  0
 11 21  1  0  0  0  0
 11 22  1  0  0  0  0
 12 13  1  0  0  0  0
 12 23  1  0  0  0  0
 12 24  1  0  0  0  0
 13 25  1  0  0  0  0
 13 26  1  0  0  0  0
 14 15  1  0  0  0  0
 16 17  1  0  0  0  0
 17 18  2  0  0  0  0
 17 29  1  0  0  0  0
 18 19  1  0  0  0  0
 19 30  1  0  0  0  0
 19 31  1  0  0  0  0
 19 32  1  0  0  0  0
M  END
> <PUBCHEM_COMPOUND_CID>
47205511

> <PUBCHEM_CONFORMER_RMSD>
0.8

> <PUBCHEM_CONFORMER_DIVERSEORDER>
1
35
17
34
7
15
27
25
13
30
16
22
4
19
38
18
28
12
36
10
33
37
23
6
26
8
11
31
2
21
14
32
9
20
5
24
29
3

> <PUBCHEM_MMFF94_PARTIAL_CHARGES>
21
1 1.09
10 0.3
11 0.11
13 0.11
14 0.63
15 0.63
16 0.35
17 -0.15
18 -0.04
19 0.18
2 -0.65
27 0.37
28 0.37
29 0.15
3 -0.65
4 -0.57
5 -0.57
6 -0.02
7 -0.73
8 -0.49
9 -0.41

> <PUBCHEM_EFFECTIVE_ROTOR_COUNT>
5.8

> <PUBCHEM_PHARMACOPHORE_FEATURES>
8
1 2 acceptor
1 3 acceptor
1 4 acceptor
1 5 acceptor
1 7 donor
1 8 donor
5 1 10 11 12 13 rings
5 6 9 16 17 18 rings

> <PUBCHEM_HEAVY_ATOM_COUNT>
19

> <PUBCHEM_ATOM_DEF_STEREO_COUNT>
0

> <PUBCHEM_ATOM_UDEF_STEREO_COUNT>
1

> <PUBCHEM_BOND_DEF_STEREO_COUNT>
0

> <PUBCHEM_BOND_UDEF_STEREO_COUNT>
0

> <PUBCHEM_ISOTOPIC_ATOM_COUNT>
0

> <PUBCHEM_COMPONENT_COUNT>
1

> <PUBCHEM_CACTVS_TAUTO_COUNT>
16

> <PUBCHEM_CONFORMER_ID>
02D04C8700000001

> <PUBCHEM_MMFF94_ENERGY>
20.4059

> <PUBCHEM_FEATURE_SELFOVERLAP>
40.617

> <PUBCHEM_SHAPE_FINGERPRINT>
11128504 68 13254800110072012331
122479 349 8790879696425839116
12553582 1 18335422352513354327
12596602 18 17313386669344009187
12616999 72 17774997956264005014
12633257 1 16081381730020529426
12788726 201 18187910798963623793
12824470 246 18339083803838931688
13533116 47 18265050241851482937
13551218 46 18334010606034023575
13828863 39 15432319039866851954
14178342 30 17970060265448572256
1420 369 18410575102006686418
14251764 30 17774993562797668411
14252887 29 18186517687887616360
14528608 73 10447933849974052539
14576447 43 18201716306291742266
15342816 4 18340477946128615132
15375462 189 18410576158668737975
15537594 2 18337383847013989591
15885798 251 18335136484223287169
17818456 19 18041546032089399273
1798214 55 9439402436681972198
1813 80 18343011186401238013
18186145 218 14333124191261203348
193927 3 18411408536057453202
20281475 54 18411135839888712245
20291156 8 18410014350976170320
20388580 30 18342736282513532285
20403669 9 18407755950019531255
20645477 70 17988645138277550745
20671657 53 18343582923720745973
21250096 35 18261112950393618017
2255824 54 18125439717922455828
22646028 28 18341331179941549874
235170 7 16343989100025773343
23559900 14 17676756665221223156
270888 7 8358243852997689450
3004659 81 17917713517429759330
314173 41 18339918221262914749
3421961 26 18411140195127929840
351380 3 18410008840533454415
46194498 28 16917065503877475894
465052 167 18338789031886214823
5104073 3 18259981591420157009
7064713 232 16805606953908989807
7808743 9 8718242656034700998
7970288 3 18341333370048784898
79837 15 17610606893394303425
88748 71 18129102397297229234
94968 8 18412540999006496996
960060 61 17988639670878842893

> <PUBCHEM_SHAPE_MULTIPOLES>
350.57
11.54
2.43
1.1
8.62
0.77
0.12
-7.89
-1.4
-1.13
-0.13
-0.6
-0.15
-0.83

> <PUBCHEM_SHAPE_SELFOVERLAP>
717.77

> <PUBCHEM_SHAPE_VOLUME>
203.2

> <PUBCHEM_COORDINATE_TYPE>
2
5
10

$$$$

