14249
  -OEChem-06241222422D

 51 49  0     0  0  0  0  0  0999 V2000
    5.9161    0.0000    0.0000 Br  0  5  0  0  0  0  0  0  0  0  0  0
    1.4030    3.9030    0.0000 N   0  3  0  0  0  0  0  0  0  0  0  0
    2.2690    4.4030    0.0000 C   0  0  0  0  0  0  0  0  0  0  0  0
    3.1350    3.9030    0.0000 C   0  0  0  0  0  0  0  0  0  0  0  0
    4.0010    4.4030    0.0000 C   0  0  0  0  0  0  0  0  0  0  0  0
    4.8671    3.9030    0.0000 C   0  0  0  0  0  0  0  0  0  0  0  0
    5.7331    4.4030    0.0000 C   0  0  0  0  0  0  0  0  0  0  0  0
    6.5991    3.9030    0.0000 C   0  0  0  0  0  0  0  0  0  0  0  0
    0.5369    3.4030    0.0000 C   0  0  0  0  0  0  0  0  0  0  0  0
    0.9030    4.7690    0.0000 C   0  0  0  0  0  0  0  0  0  0  0  0
    1.9030    3.0369    0.0000 C   0  0  0  0  0  0  0  0  0  0  0  0
    7.4651    4.4030    0.0000 C   0  0  0  0  0  0  0  0  0  0  0  0
    8.3312    3.9030    0.0000 C   0  0  0  0  0  0  0  0  0  0  0  0
    9.1972    4.4030    0.0000 C   0  0  0  0  0  0  0  0  0  0  0  0
   10.0632    3.9030    0.0000 C   0  0  0  0  0  0  0  0  0  0  0  0
   10.9292    4.4030    0.0000 C   0  0  0  0  0  0  0  0  0  0  0  0
   11.7953    3.9030    0.0000 C   0  0  0  0  0  0  0  0  0  0  0  0
    2.6675    4.8779    0.0000 H   0  0  0  0  0  0  0  0  0  0  0  0
    1.8705    4.8779    0.0000 H   0  0  0  0  0  0  0  0  0  0  0  0
    2.7365    3.4280    0.0000 H   0  0  0  0  0  0  0  0  0  0  0  0
    3.5335    3.4280    0.0000 H   0  0  0  0  0  0  0  0  0  0  0  0
    4.3996    4.8779    0.0000 H   0  0  0  0  0  0  0  0  0  0  0  0
    3.6025    4.8779    0.0000 H   0  0  0  0  0  0  0  0  0  0  0  0
    4.4685    3.4280    0.0000 H   0  0  0  0  0  0  0  0  0  0  0  0
    5.2656    3.4280    0.0000 H   0  0  0  0  0  0  0  0  0  0  0  0
    6.1316    4.8779    0.0000 H   0  0  0  0  0  0  0  0  0  0  0  0
    5.3346    4.8779    0.0000 H   0  0  0  0  0  0  0  0  0  0  0  0
    6.2006    3.4280    0.0000 H   0  0  0  0  0  0  0  0  0  0  0  0
    6.9976    3.4280    0.0000 H   0  0  0  0  0  0  0  0  0  0  0  0
    0.2269    3.9399    0.0000 H   0  0  0  0  0  0  0  0  0  0  0  0
    0.0000    3.0930    0.0000 H   0  0  0  0  0  0  0  0  0  0  0  0
    0.8469    2.8660    0.0000 H   0  0  0  0  0  0  0  0  0  0  0  0
    1.4399    5.0790    0.0000 H   0  0  0  0  0  0  0  0  0  0  0  0
    0.5930    5.3059    0.0000 H   0  0  0  0  0  0  0  0  0  0  0  0
    0.3660    4.4590    0.0000 H   0  0  0  0  0  0  0  0  0  0  0  0
    1.3660    2.7269    0.0000 H   0  0  0  0  0  0  0  0  0  0  0  0
    2.2130    2.5000    0.0000 H   0  0  0  0  0  0  0  0  0  0  0  0
    2.4399    3.3469    0.0000 H   0  0  0  0  0  0  0  0  0  0  0  0
    7.8637    4.8779    0.0000 H   0  0  0  0  0  0  0  0  0  0  0  0
    7.0666    4.8779    0.0000 H   0  0  0  0  0  0  0  0  0  0  0  0
    7.9326    3.4280    0.0000 H   0  0  0  0  0  0  0  0  0  0  0  0
    8.7297    3.4280    0.0000 H   0  0  0  0  0  0  0  0  0  0  0  0
    9.5957    4.8779    0.0000 H   0  0  0  0  0  0  0  0  0  0  0  0
    8.7987    4.8779    0.0000 H   0  0  0  0  0  0  0  0  0  0  0  0
    9.6647    3.4280    0.0000 H   0  0  0  0  0  0  0  0  0  0  0  0
   10.4617    3.4280    0.0000 H   0  0  0  0  0  0  0  0  0  0  0  0
   11.3278    4.8779    0.0000 H   0  0  0  0  0  0  0  0  0  0  0  0
   10.5307    4.8779    0.0000 H   0  0  0  0  0  0  0  0  0  0  0  0
   11.4853    3.3660    0.0000 H   0  0  0  0  0  0  0  0  0  0  0  0
   12.3322    3.5930    0.0000 H   0  0  0  0  0  0  0  0  0  0  0  0
   12.1053    4.4399    0.0000 H   0  0  0  0  0  0  0  0  0  0  0  0
  2  3  1  0  0  0  0
  2  9  1  0  0  0  0
  2 10  1  0  0  0  0
  2 11  1  0  0  0  0
  3  4  1  0  0  0  0
  3 18  1  0  0  0  0
  3 19  1  0  0  0  0
  4  5  1  0  0  0  0
  4 20  1  0  0  0  0
  4 21  1  0  0  0  0
  5  6  1  0  0  0  0
  5 22  1  0  0  0  0
  5 23  1  0  0  0  0
  6  7  1  0  0  0  0
  6 24  1  0  0  0  0
  6 25  1  0  0  0  0
  7  8  1  0  0  0  0
  7 26  1  0  0  0  0
  7 27  1  0  0  0  0
  8 12  1  0  0  0  0
  8 28  1  0  0  0  0
  8 29  1  0  0  0  0
  9 30  1  0  0  0  0
  9 31  1  0  0  0  0
  9 32  1  0  0  0  0
 10 33  1  0  0  0  0
 10 34  1  0  0  0  0
 10 35  1  0  0  0  0
 11 36  1  0  0  0  0
 11 37  1  0  0  0  0
 11 38  1  0  0  0  0
 12 13  1  0  0  0  0
 12 39  1  0  0  0  0
 12 40  1  0  0  0  0
 13 14  1  0  0  0  0
 13 41  1  0  0  0  0
 13 42  1  0  0  0  0
 14 15  1  0  0  0  0
 14 43  1  0  0  0  0
 14 44  1  0  0  0  0
 15 16  1  0  0  0  0
 15 45  1  0  0  0  0
 15 46  1  0  0  0  0
 16 17  1  0  0  0  0
 16 47  1  0  0  0  0
 16 48  1  0  0  0  0
 17 49  1  0  0  0  0
 17 50  1  0  0  0  0
 17 51  1  0  0  0  0
M  CHG  2   1  -1   2   1
M  END
> <PUBCHEM_COMPOUND_CID>
14249

> <PUBCHEM_COMPOUND_CANONICALIZED>
1

> <PUBCHEM_CACTVS_COMPLEXITY>
135

> <PUBCHEM_CACTVS_HBOND_ACCEPTOR>
1

> <PUBCHEM_CACTVS_HBOND_DONOR>
0

> <PUBCHEM_CACTVS_ROTATABLE_BOND>
11

> <PUBCHEM_CACTVS_SUBSKEYS>
AAADcfByAAAAEAAAAAAAAAAAAAAAAAAAAAAAAAAAAAAAAAAAAAAAHAAAAAAACADBAAQCAAMAAAAAAAAAAAAAAAAAAAAAAAAIAAAAAAIAgAAEAAAAAAAAAAEQgIAAAAAAAAAAAAAAAAAAAAAAAAAAAAAAAA==

> <PUBCHEM_IUPAC_OPENEYE_NAME>
dodecyl(trimethyl)ammonium bromide

> <PUBCHEM_IUPAC_CAS_NAME>
dodecyl(trimethyl)ammonium bromide

> <PUBCHEM_IUPAC_NAME>
dodecyl(trimethyl)azanium bromide

> <PUBCHEM_IUPAC_SYSTEMATIC_NAME>
dodecyl(trimethyl)azanium bromide

> <PUBCHEM_IUPAC_TRADITIONAL_NAME>
lauryl(trimethyl)ammonium bromide

> <PUBCHEM_IUPAC_INCHI>
InChI=1S/C15H34N.BrH/c1-5-6-7-8-9-10-11-12-13-14-15-16(2,3)4;/h5-15H2,1-4H3;1H/q+1;/p-1

> <PUBCHEM_IUPAC_INCHIKEY>
XJWSAJYUBXQQDR-UHFFFAOYSA-M

> <PUBCHEM_EXACT_MASS>
307.187462

> <PUBCHEM_MOLECULAR_FORMULA>
C15H34BrN

> <PUBCHEM_MOLECULAR_WEIGHT>
308.34116

> <PUBCHEM_OPENEYE_CAN_SMILES>
CCCCCCCCCCCC[N+](C)(C)C.[Br-]

> <PUBCHEM_OPENEYE_ISO_SMILES>
CCCCCCCCCCCC[N+](C)(C)C.[Br-]

> <PUBCHEM_CACTVS_TPSA>
0

> <PUBCHEM_MONOISOTOPIC_WEIGHT>
307.187462

> <PUBCHEM_TOTAL_CHARGE>
0

> <PUBCHEM_HEAVY_ATOM_COUNT>
17

> <PUBCHEM_ATOM_DEF_STEREO_COUNT>
0

> <PUBCHEM_ATOM_UDEF_STEREO_COUNT>
0

> <PUBCHEM_BOND_DEF_STEREO_COUNT>
0

> <PUBCHEM_BOND_UDEF_STEREO_COUNT>
0

> <PUBCHEM_ISOTOPIC_ATOM_COUNT>
0

> <PUBCHEM_COMPONENT_COUNT>
2

> <PUBCHEM_CACTVS_TAUTO_COUNT>
1

> <PUBCHEM_COORDINATE_TYPE>
1
5
255

$$$$

