13867
  -OEChem-06241222402D

 22 21  0     0  0  0  0  0  0999 V2000
    4.7690    6.1200    0.0000 Br  0  0  0  0  0  0  0  0  0  0  0  0
    0.0000    2.8100    0.0000 Br  0  5  0  0  0  0  0  0  0  0  0  0
    3.9030    3.6200    0.0000 N   0  3  0  0  0  0  0  0  0  0  0  0
    3.9030    4.6200    0.0000 C   0  0  0  0  0  0  0  0  0  0  0  0
    3.9030    2.6200    0.0000 C   0  0  0  0  0  0  0  0  0  0  0  0
    4.7690    5.1200    0.0000 C   0  0  0  0  0  0  0  0  0  0  0  0
    3.0369    2.1200    0.0000 C   0  0  0  0  0  0  0  0  0  0  0  0
    4.7690    2.1200    0.0000 C   0  0  0  0  0  0  0  0  0  0  0  0
    3.0369    1.1200    0.0000 C   0  0  0  0  0  0  0  0  0  0  0  0
    4.7690    1.1200    0.0000 C   0  0  0  0  0  0  0  0  0  0  0  0
    3.9030    0.6200    0.0000 C   0  0  0  0  0  0  0  0  0  0  0  0
    4.5230    3.6200    0.0000 H   0  0  0  0  0  0  0  0  0  0  0  0
    3.2830    3.6200    0.0000 H   0  0  0  0  0  0  0  0  0  0  0  0
    3.6909    5.2026    0.0000 H   0  0  0  0  0  0  0  0  0  0  0  0
    3.2924    4.5123    0.0000 H   0  0  0  0  0  0  0  0  0  0  0  0
    4.9810    4.5374    0.0000 H   0  0  0  0  0  0  0  0  0  0  0  0
    5.3796    5.2277    0.0000 H   0  0  0  0  0  0  0  0  0  0  0  0
    2.5000    2.4300    0.0000 H   0  0  0  0  0  0  0  0  0  0  0  0
    5.3059    2.4300    0.0000 H   0  0  0  0  0  0  0  0  0  0  0  0
    2.5000    0.8100    0.0000 H   0  0  0  0  0  0  0  0  0  0  0  0
    5.3059    0.8100    0.0000 H   0  0  0  0  0  0  0  0  0  0  0  0
    3.9030    0.0000    0.0000 H   0  0  0  0  0  0  0  0  0  0  0  0
  1  6  1  0  0  0  0
  3  4  1  0  0  0  0
  3  5  1  0  0  0  0
  3 12  1  0  0  0  0
  3 13  1  0  0  0  0
  4  6  1  0  0  0  0
  4 14  1  0  0  0  0
  4 15  1  0  0  0  0
  5  7  2  0  0  0  0
  5  8  1  0  0  0  0
  6 16  1  0  0  0  0
  6 17  1  0  0  0  0
  7  9  1  0  0  0  0
  7 18  1  0  0  0  0
  8 10  2  0  0  0  0
  8 19  1  0  0  0  0
  9 11  2  0  0  0  0
  9 20  1  0  0  0  0
 10 11  1  0  0  0  0
 10 21  1  0  0  0  0
 11 22  1  0  0  0  0
M  CHG  2   2  -1   3   1
M  END
> <PUBCHEM_COMPOUND_CID>
13867

> <PUBCHEM_COMPOUND_CANONICALIZED>
1

> <PUBCHEM_CACTVS_COMPLEXITY>
79.3

> <PUBCHEM_CACTVS_HBOND_ACCEPTOR>
1

> <PUBCHEM_CACTVS_HBOND_DONOR>
1

> <PUBCHEM_CACTVS_ROTATABLE_BOND>
3

> <PUBCHEM_CACTVS_SUBSKEYS>
AAADccByAAAAGAAAAAAAAAAAAAAAAAAAAAAwAAAAAAAAAAABAAAAHABQAAABSAjBEAQwwILAAACAACRCQACCAAAhAgAIiIAIZIgIICLAkZGEIAhgkADIyAcQAAAAAAAAAAAAAAAAAAAAAAAAAAAAAAAAAA==

> <PUBCHEM_IUPAC_OPENEYE_NAME>
2-bromoethyl(phenyl)ammonium bromide

> <PUBCHEM_IUPAC_CAS_NAME>
2-bromoethyl(phenyl)ammonium bromide

> <PUBCHEM_IUPAC_NAME>
2-bromoethyl(phenyl)azanium bromide

> <PUBCHEM_IUPAC_SYSTEMATIC_NAME>
2-bromoethyl(phenyl)azanium bromide

> <PUBCHEM_IUPAC_TRADITIONAL_NAME>
2-bromoethyl(phenyl)ammonium bromide

> <PUBCHEM_IUPAC_INCHI>
InChI=1S/C8H10BrN.BrH/c9-6-7-10-8-4-2-1-3-5-8;/h1-5,10H,6-7H2;1H

> <PUBCHEM_IUPAC_INCHIKEY>
MXNALQRSXHOIEA-UHFFFAOYSA-N

> <PUBCHEM_EXACT_MASS>
280.923777

> <PUBCHEM_MOLECULAR_FORMULA>
C8H11Br2N

> <PUBCHEM_MOLECULAR_WEIGHT>
280.98764

> <PUBCHEM_OPENEYE_CAN_SMILES>
C1=CC=C(C=C1)[NH2+]CCBr.[Br-]

> <PUBCHEM_OPENEYE_ISO_SMILES>
C1=CC=C(C=C1)[NH2+]CCBr.[Br-]

> <PUBCHEM_CACTVS_TPSA>
16.6

> <PUBCHEM_MONOISOTOPIC_WEIGHT>
278.925824

> <PUBCHEM_TOTAL_CHARGE>
0

> <PUBCHEM_HEAVY_ATOM_COUNT>
11

> <PUBCHEM_ATOM_DEF_STEREO_COUNT>
0

> <PUBCHEM_ATOM_UDEF_STEREO_COUNT>
0

> <PUBCHEM_BOND_DEF_STEREO_COUNT>
0

> <PUBCHEM_BOND_UDEF_STEREO_COUNT>
0

> <PUBCHEM_ISOTOPIC_ATOM_COUNT>
0

> <PUBCHEM_COMPONENT_COUNT>
2

> <PUBCHEM_CACTVS_TAUTO_COUNT>
1

> <PUBCHEM_COORDINATE_TYPE>
1
5
255

> <PUBCHEM_BONDANNOTATIONS>
10  11  8
5  7  8
5  8  8
7  9  8
8  10  8
9  11  8

$$$$

