7804
  -OEChem-06261202203D

 12 12  0     0  0  0  0  0  0999 V2000
    3.2848   -0.0002    0.0002 Br  0  0  0  0  0  0  0  0  0  0  0  0
   -3.2848   -0.0001    0.0001 Br  0  0  0  0  0  0  0  0  0  0  0  0
    1.3949    0.0000   -0.0001 C   0  0  0  0  0  0  0  0  0  0  0  0
   -1.3949    0.0001   -0.0001 C   0  0  0  0  0  0  0  0  0  0  0  0
    0.6974   -1.2079    0.0000 C   0  0  0  0  0  0  0  0  0  0  0  0
   -0.6975   -1.2079    0.0000 C   0  0  0  0  0  0  0  0  0  0  0  0
    0.6975    1.2080    0.0000 C   0  0  0  0  0  0  0  0  0  0  0  0
   -0.6974    1.2080    0.0000 C   0  0  0  0  0  0  0  0  0  0  0  0
    1.2257   -2.1579    0.0001 H   0  0  0  0  0  0  0  0  0  0  0  0
   -1.2258   -2.1578    0.0001 H   0  0  0  0  0  0  0  0  0  0  0  0
    1.2258    2.1580    0.0000 H   0  0  0  0  0  0  0  0  0  0  0  0
   -1.2258    2.1580    0.0001 H   0  0  0  0  0  0  0  0  0  0  0  0
  1  3  1  0  0  0  0
  2  4  1  0  0  0  0
  3  5  2  0  0  0  0
  3  7  1  0  0  0  0
  4  6  2  0  0  0  0
  4  8  1  0  0  0  0
  5  6  1  0  0  0  0
  5  9  1  0  0  0  0
  6 10  1  0  0  0  0
  7  8  2  0  0  0  0
  7 11  1  0  0  0  0
  8 12  1  0  0  0  0
M  END
> <PUBCHEM_COMPOUND_CID>
7804

> <PUBCHEM_CONFORMER_RMSD>
0.4

> <PUBCHEM_CONFORMER_DIVERSEORDER>
1

> <PUBCHEM_MMFF94_PARTIAL_CHARGES>
12
1 -0.11
10 0.15
11 0.15
12 0.15
2 -0.11
3 0.11
4 0.11
5 -0.15
6 -0.15
7 -0.15
8 -0.15
9 0.15

> <PUBCHEM_EFFECTIVE_ROTOR_COUNT>
0

> <PUBCHEM_PHARMACOPHORE_FEATURES>
3
1 1 hydrophobe
1 2 hydrophobe
6 3 4 5 6 7 8 rings

> <PUBCHEM_HEAVY_ATOM_COUNT>
8

> <PUBCHEM_ATOM_DEF_STEREO_COUNT>
0

> <PUBCHEM_ATOM_UDEF_STEREO_COUNT>
0

> <PUBCHEM_BOND_DEF_STEREO_COUNT>
0

> <PUBCHEM_BOND_UDEF_STEREO_COUNT>
0

> <PUBCHEM_ISOTOPIC_ATOM_COUNT>
0

> <PUBCHEM_COMPONENT_COUNT>
1

> <PUBCHEM_CACTVS_TAUTO_COUNT>
1

> <PUBCHEM_CONFORMER_ID>
00001E7C00000001

> <PUBCHEM_MMFF94_ENERGY>
15.1452

> <PUBCHEM_FEATURE_SELFOVERLAP>
15.223

> <PUBCHEM_SHAPE_FINGERPRINT>
10219947 1 18411135835630167979
12032990 46 18410847763547085667
14325111 11 18410575097569222720
15310529 11 16630538344388749872
16714656 1 18410573985441569046
16945 1 18410575084663078918
193761 8 17689999363332406420
21040471 1 18194401091558473665
21293036 1 18412544301430159412
23235685 24 18410579482709628996
23402655 69 18193575561049846757
23552423 10 18056760914826870492
2748010 2 18122343471560786007
29004967 10 18343295985645302977
5084963 1 18333450941044489217

> <PUBCHEM_SHAPE_MULTIPOLES>
176.52
4.57
1.33
0.65
0
0
0
0
0
0
0
0
0
0

> <PUBCHEM_SHAPE_SELFOVERLAP>
335.036

> <PUBCHEM_SHAPE_VOLUME>
111.9

> <PUBCHEM_COORDINATE_TYPE>
2
5
10

$$$$

