11171
  -OEChem-06261205213D

 87 86  0     0  0  0  0  0  0999 V2000
   -0.1709   -2.3620    1.0869 Si  0  0  0  0  0  0  0  0  0  0  0  0
   -2.9254   -2.6315   -0.4526 Si  0  0  0  0  0  0  0  0  0  0  0  0
    2.5003   -2.5488   -0.6197 Si  0  0  0  0  0  0  0  0  0  0  0  0
   -4.2921    0.1068    0.3739 Si  0  0  0  0  0  0  0  0  0  0  0  0
    4.2167    0.1020   -0.9166 Si  0  0  0  0  0  0  0  0  0  0  0  0
   -2.4635    2.6773    0.5831 Si  0  0  0  0  0  0  0  0  0  0  0  0
    3.4188    1.5751    1.7664 Si  0  0  0  0  0  0  0  0  0  0  0  0
   -0.3463    2.6419   -1.7629 Si  0  0  0  0  0  0  0  0  0  0  0  0
   -1.2928   -2.3904   -0.1570 O   0  0  0  0  0  0  0  0  0  0  0  0
    1.3417   -2.0180    0.4617 O   0  0  0  0  0  0  0  0  0  0  0  0
   -3.7925   -1.4909    0.4131 O   0  0  0  0  0  0  0  0  0  0  0  0
    3.7946   -1.4907   -0.6320 O   0  0  0  0  0  0  0  0  0  0  0  0
   -2.9397    1.0952    0.3016 O   0  0  0  0  0  0  0  0  0  0  0  0
    3.3821    1.0742    0.1667 O   0  0  0  0  0  0  0  0  0  0  0  0
   -1.0587    2.9787   -0.2824 O   0  0  0  0  0  0  0  0  0  0  0  0
   -0.1585   -4.0153    1.9869 C   0  0  0  0  0  0  0  0  0  0  0  0
   -0.6250   -1.0421    2.3540 C   0  0  0  0  0  0  0  0  0  0  0  0
   -3.4226   -4.3714    0.0672 C   0  0  0  0  0  0  0  0  0  0  0  0
   -3.2979   -2.4533   -2.2884 C   0  0  0  0  0  0  0  0  0  0  0  0
    3.0673   -4.2789   -0.1320 C   0  0  0  0  0  0  0  0  0  0  0  0
    1.7834   -2.6841   -2.3564 C   0  0  0  0  0  0  0  0  0  0  0  0
   -5.3003    0.5053    1.9111 C   0  0  0  0  0  0  0  0  0  0  0  0
   -5.3797    0.4267   -1.1267 C   0  0  0  0  0  0  0  0  0  0  0  0
    6.0663    0.3410   -0.6930 C   0  0  0  0  0  0  0  0  0  0  0  0
    3.8032    0.6002   -2.6846 C   0  0  0  0  0  0  0  0  0  0  0  0
   -3.8285    3.8587    0.0490 C   0  0  0  0  0  0  0  0  0  0  0  0
   -2.1775    2.9538    2.4198 C   0  0  0  0  0  0  0  0  0  0  0  0
    5.0231    2.4756    2.1587 C   0  0  0  0  0  0  0  0  0  0  0  0
    3.2714    0.1031    2.9306 C   0  0  0  0  0  0  0  0  0  0  0  0
    1.9872    2.7417    2.1240 C   0  0  0  0  0  0  0  0  0  0  0  0
    1.3505    3.4459   -1.8725 C   0  0  0  0  0  0  0  0  0  0  0  0
   -1.3952    3.2838   -3.1888 C   0  0  0  0  0  0  0  0  0  0  0  0
   -0.1398    0.7904   -1.9889 C   0  0  0  0  0  0  0  0  0  0  0  0
    0.0146   -4.8355    1.2843 H   0  0  0  0  0  0  0  0  0  0  0  0
    0.6343   -4.0338    2.7406 H   0  0  0  0  0  0  0  0  0  0  0  0
   -1.1136   -4.1889    2.4905 H   0  0  0  0  0  0  0  0  0  0  0  0
   -0.5486   -0.0475    1.9074 H   0  0  0  0  0  0  0  0  0  0  0  0
   -1.6474   -1.1859    2.7147 H   0  0  0  0  0  0  0  0  0  0  0  0
    0.0489   -1.0869    3.2139 H   0  0  0  0  0  0  0  0  0  0  0  0
   -3.2895   -4.5061    1.1443 H   0  0  0  0  0  0  0  0  0  0  0  0
   -4.4739   -4.5557   -0.1729 H   0  0  0  0  0  0  0  0  0  0  0  0
   -2.8138   -5.1166   -0.4530 H   0  0  0  0  0  0  0  0  0  0  0  0
   -2.9814   -1.4725   -2.6548 H   0  0  0  0  0  0  0  0  0  0  0  0
   -2.7653   -3.2185   -2.8610 H   0  0  0  0  0  0  0  0  0  0  0  0
   -4.3694   -2.5653   -2.4778 H   0  0  0  0  0  0  0  0  0  0  0  0
    3.4642   -4.2770    0.8874 H   0  0  0  0  0  0  0  0  0  0  0  0
    2.2347   -4.9867   -0.1784 H   0  0  0  0  0  0  0  0  0  0  0  0
    3.8536   -4.6274   -0.8080 H   0  0  0  0  0  0  0  0  0  0  0  0
    1.3981   -1.7194   -2.6947 H   0  0  0  0  0  0  0  0  0  0  0  0
    2.5511   -3.0147   -3.0621 H   0  0  0  0  0  0  0  0  0  0  0  0
    0.9625   -3.4071   -2.3776 H   0  0  0  0  0  0  0  0  0  0  0  0
   -4.6946    0.3700    2.8120 H   0  0  0  0  0  0  0  0  0  0  0  0
   -5.6580    1.5386    1.8871 H   0  0  0  0  0  0  0  0  0  0  0  0
   -6.1690   -0.1560    1.9795 H   0  0  0  0  0  0  0  0  0  0  0  0
   -4.8110    0.2997   -2.0521 H   0  0  0  0  0  0  0  0  0  0  0  0
   -6.2253   -0.2670   -1.1428 H   0  0  0  0  0  0  0  0  0  0  0  0
   -5.7735    1.4470   -1.1061 H   0  0  0  0  0  0  0  0  0  0  0  0
    6.3834    0.0104    0.3003 H   0  0  0  0  0  0  0  0  0  0  0  0
    6.6195   -0.2408   -1.4363 H   0  0  0  0  0  0  0  0  0  0  0  0
    6.3382    1.3941   -0.8110 H   0  0  0  0  0  0  0  0  0  0  0  0
    2.7340    0.4949   -2.8788 H   0  0  0  0  0  0  0  0  0  0  0  0
    4.0846    1.6419   -2.8639 H   0  0  0  0  0  0  0  0  0  0  0  0
    4.3447   -0.0302   -3.3959 H   0  0  0  0  0  0  0  0  0  0  0  0
   -4.0692    3.7154   -1.0084 H   0  0  0  0  0  0  0  0  0  0  0  0
   -4.7373    3.6956    0.6354 H   0  0  0  0  0  0  0  0  0  0  0  0
   -3.5111    4.8959    0.1908 H   0  0  0  0  0  0  0  0  0  0  0  0
   -1.4192    2.2636    2.8000 H   0  0  0  0  0  0  0  0  0  0  0  0
   -1.8352    3.9760    2.6055 H   0  0  0  0  0  0  0  0  0  0  0  0
   -3.1008    2.7925    2.9836 H   0  0  0  0  0  0  0  0  0  0  0  0
    5.1682    3.3164    1.4740 H   0  0  0  0  0  0  0  0  0  0  0  0
    5.0036    2.8643    3.1811 H   0  0  0  0  0  0  0  0  0  0  0  0
    5.8804    1.8032    2.0665 H   0  0  0  0  0  0  0  0  0  0  0  0
    2.3409   -0.4379    2.7502 H   0  0  0  0  0  0  0  0  0  0  0  0
    4.1058   -0.5889    2.7837 H   0  0  0  0  0  0  0  0  0  0  0  0
    3.2798    0.4355    3.9727 H   0  0  0  0  0  0  0  0  0  0  0  0
    1.0350    2.2450    1.9198 H   0  0  0  0  0  0  0  0  0  0  0  0
    1.9951    3.0535    3.1724 H   0  0  0  0  0  0  0  0  0  0  0  0
    2.0516    3.6362    1.4980 H   0  0  0  0  0  0  0  0  0  0  0  0
    1.9988    3.0971   -1.0672 H   0  0  0  0  0  0  0  0  0  0  0  0
    1.8275    3.2098   -2.8281 H   0  0  0  0  0  0  0  0  0  0  0  0
    1.2627    4.5334   -1.7925 H   0  0  0  0  0  0  0  0  0  0  0  0
   -2.3776    2.8025   -3.1906 H   0  0  0  0  0  0  0  0  0  0  0  0
   -1.5406    4.3645   -3.1011 H   0  0  0  0  0  0  0  0  0  0  0  0
   -0.9090    3.0773   -4.1468 H   0  0  0  0  0  0  0  0  0  0  0  0
   -1.1069    0.2832   -1.9404 H   0  0  0  0  0  0  0  0  0  0  0  0
    0.3093    0.5692   -2.9609 H   0  0  0  0  0  0  0  0  0  0  0  0
    0.5030    0.3822   -1.2055 H   0  0  0  0  0  0  0  0  0  0  0  0
  1  9  1  0  0  0  0
  1 10  1  0  0  0  0
  1 16  1  0  0  0  0
  1 17  1  0  0  0  0
  2  9  1  0  0  0  0
  2 11  1  0  0  0  0
  2 18  1  0  0  0  0
  2 19  1  0  0  0  0
  3 10  1  0  0  0  0
  3 12  1  0  0  0  0
  3 20  1  0  0  0  0
  3 21  1  0  0  0  0
  4 11  1  0  0  0  0
  4 13  1  0  0  0  0
  4 22  1  0  0  0  0
  4 23  1  0  0  0  0
  5 12  1  0  0  0  0
  5 14  1  0  0  0  0
  5 24  1  0  0  0  0
  5 25  1  0  0  0  0
  6 13  1  0  0  0  0
  6 15  1  0  0  0  0
  6 26  1  0  0  0  0
  6 27  1  0  0  0  0
  7 14  1  0  0  0  0
  7 28  1  0  0  0  0
  7 29  1  0  0  0  0
  7 30  1  0  0  0  0
  8 15  1  0  0  0  0
  8 31  1  0  0  0  0
  8 32  1  0  0  0  0
  8 33  1  0  0  0  0
 16 34  1  0  0  0  0
 16 35  1  0  0  0  0
 16 36  1  0  0  0  0
 17 37  1  0  0  0  0
 17 38  1  0  0  0  0
 17 39  1  0  0  0  0
 18 40  1  0  0  0  0
 18 41  1  0  0  0  0
 18 42  1  0  0  0  0
 19 43  1  0  0  0  0
 19 44  1  0  0  0  0
 19 45  1  0  0  0  0
 20 46  1  0  0  0  0
 20 47  1  0  0  0  0
 20 48  1  0  0  0  0
 21 49  1  0  0  0  0
 21 50  1  0  0  0  0
 21 51  1  0  0  0  0
 22 52  1  0  0  0  0
 22 53  1  0  0  0  0
 22 54  1  0  0  0  0
 23 55  1  0  0  0  0
 23 56  1  0  0  0  0
 23 57  1  0  0  0  0
 24 58  1  0  0  0  0
 24 59  1  0  0  0  0
 24 60  1  0  0  0  0
 25 61  1  0  0  0  0
 25 62  1  0  0  0  0
 25 63  1  0  0  0  0
 26 64  1  0  0  0  0
 26 65  1  0  0  0  0
 26 66  1  0  0  0  0
 27 67  1  0  0  0  0
 27 68  1  0  0  0  0
 27 69  1  0  0  0  0
 28 70  1  0  0  0  0
 28 71  1  0  0  0  0
 28 72  1  0  0  0  0
 29 73  1  0  0  0  0
 29 74  1  0  0  0  0
 29 75  1  0  0  0  0
 30 76  1  0  0  0  0
 30 77  1  0  0  0  0
 30 78  1  0  0  0  0
 31 79  1  0  0  0  0
 31 80  1  0  0  0  0
 31 81  1  0  0  0  0
 32 82  1  0  0  0  0
 32 83  1  0  0  0  0
 32 84  1  0  0  0  0
 33 85  1  0  0  0  0
 33 86  1  0  0  0  0
 33 87  1  0  0  0  0
M  END
> <PUBCHEM_COMPOUND_CID>
11171

> <PUBCHEM_CONFORMER_RMSD>
1.8

> <PUBCHEM_CONFORMER_DIVERSEORDER>
1
50
90
75
48
61
89
45
6
78
54
98
66
106
76
63
118
8
43
84
40
24
52
53
83
111
99
97
107
74
112
65
38
2
113
72
79
15
41
44
108
73
39
109
37
114
62
70
14
102
80
116
69
105
82
64
34
85
42
58
110
51
95
60
104
101
100
88
16
67
81
119
71
46
13
86
7
94
33
5
36
47
77
32
68
115
12
55
59
29
96
11
49
23
30
28
4
20
93
17
18
103
26
35
3
27
117
31
92
10
9
25
87
19
22
91
56
21
57

> <PUBCHEM_MMFF94_PARTIAL_CHARGES>
33
1 0.76
10 -0.59
11 -0.59
12 -0.59
13 -0.59
14 -0.59
15 -0.59
16 -0.08
17 -0.08
18 -0.08
19 -0.08
2 0.76
20 -0.08
21 -0.08
22 -0.08
23 -0.08
24 -0.08
25 -0.08
26 -0.08
27 -0.08
28 -0.08
29 -0.08
3 0.76
30 -0.08
31 -0.08
32 -0.08
33 -0.08
4 0.76
5 0.76
6 0.76
7 0.54
8 0.54
9 -0.59

> <PUBCHEM_EFFECTIVE_ROTOR_COUNT>
14

> <PUBCHEM_PHARMACOPHORE_FEATURES>
0

> <PUBCHEM_HEAVY_ATOM_COUNT>
33

> <PUBCHEM_ATOM_DEF_STEREO_COUNT>
0

> <PUBCHEM_ATOM_UDEF_STEREO_COUNT>
0

> <PUBCHEM_BOND_DEF_STEREO_COUNT>
0

> <PUBCHEM_BOND_UDEF_STEREO_COUNT>
0

> <PUBCHEM_ISOTOPIC_ATOM_COUNT>
0

> <PUBCHEM_COMPONENT_COUNT>
1

> <PUBCHEM_CACTVS_TAUTO_COUNT>
1

> <PUBCHEM_CONFORMER_ID>
00002BA300000001

> <PUBCHEM_MMFF94_ENERGY>
-10.0744

> <PUBCHEM_FEATURE_SELFOVERLAP>
0

> <PUBCHEM_SHAPE_FINGERPRINT>
11513181 2 17755578244350134260
11595378 159 17846504759232160674
12422481 6 18338819873930128610
14840074 17 18272641377435694233
15001296 14 18126268762485017421
15297060 5 18119506779254696520
15406563 42 18117279155985870360
15975801 100 17988928924775088548
20600515 1 17842290163611925280
20764821 26 17981865480950650599
22121540 332 17681829606330828644
23559900 14 18335979770617976516
25265897 201 16953059138405570527
469060 322 18059307460744685045
508706 21 18334298643082037128

> <PUBCHEM_SHAPE_MULTIPOLES>
783.74
10.58
6.37
3.16
1.65
2.14
0.14
-1.51
-0.95
-2.34
0.39
1.4
-1.71
0.92

> <PUBCHEM_SHAPE_SELFOVERLAP>
1355.427

> <PUBCHEM_SHAPE_VOLUME>
519.8

> <PUBCHEM_COORDINATE_TYPE>
2
5
10

$$$$

