3559
  -OEChem-06251223303D

 49 51  0     0  0  0  0  0  0999 V2000
    9.1803   -0.0588    0.2206 Cl  0  0  0  0  0  0  0  0  0  0  0  0
   -8.7674    1.3659    0.4286 F   0  0  0  0  0  0  0  0  0  0  0  0
    2.9355    1.3073   -1.2919 O   0  0  0  0  0  0  0  0  0  0  0  0
   -3.1855   -0.6296   -1.6256 O   0  0  0  0  0  0  0  0  0  0  0  0
    0.4668   -0.3825    0.7324 N   0  0  0  0  0  0  0  0  0  0  0  0
    3.1737    0.3608   -0.2394 C   0  0  0  0  0  0  0  0  0  0  0  0
    2.4552   -0.9541   -0.6160 C   0  0  0  0  0  0  0  0  0  0  0  0
    2.5665    0.8940    1.0788 C   0  0  0  0  0  0  0  0  0  0  0  0
    0.9271   -0.8337   -0.5852 C   0  0  0  0  0  0  0  0  0  0  0  0
    1.0327    0.9277    1.0694 C   0  0  0  0  0  0  0  0  0  0  0  0
   -0.9945   -0.3371    0.7774 C   0  0  0  0  0  0  0  0  0  0  0  0
    4.6953    0.2547   -0.1243 C   0  0  0  0  0  0  0  0  0  0  0  0
   -1.5758   -1.7227    0.4890 C   0  0  0  0  0  0  0  0  0  0  0  0
    5.3272   -0.9664   -0.3544 C   0  0  0  0  0  0  0  0  0  0  0  0
    5.4476    1.3792    0.2118 C   0  0  0  0  0  0  0  0  0  0  0  0
   -3.1067   -1.7286    0.5216 C   0  0  0  0  0  0  0  0  0  0  0  0
    6.7146   -1.0632   -0.2481 C   0  0  0  0  0  0  0  0  0  0  0  0
    6.8351    1.2823    0.3180 C   0  0  0  0  0  0  0  0  0  0  0  0
   -3.7373   -0.8510   -0.5505 C   0  0  0  0  0  0  0  0  0  0  0  0
    7.4685    0.0611    0.0882 C   0  0  0  0  0  0  0  0  0  0  0  0
   -5.0807   -0.2595   -0.2898 C   0  0  0  0  0  0  0  0  0  0  0  0
   -5.9585   -0.9445    0.5204 C   0  0  0  0  0  0  0  0  0  0  0  0
   -5.3937    0.9506   -0.8678 C   0  0  0  0  0  0  0  0  0  0  0  0
   -7.2149   -0.3905    0.7654 C   0  0  0  0  0  0  0  0  0  0  0  0
   -6.6502    1.5046   -0.6226 C   0  0  0  0  0  0  0  0  0  0  0  0
   -7.5608    0.8341    0.1939 C   0  0  0  0  0  0  0  0  0  0  0  0
    2.7352   -1.7553    0.0812 H   0  0  0  0  0  0  0  0  0  0  0  0
    2.7465   -1.2700   -1.6263 H   0  0  0  0  0  0  0  0  0  0  0  0
    2.9094    1.9158    1.2819 H   0  0  0  0  0  0  0  0  0  0  0  0
    2.9015    0.2697    1.9186 H   0  0  0  0  0  0  0  0  0  0  0  0
    0.5799   -1.8422   -0.8221 H   0  0  0  0  0  0  0  0  0  0  0  0
    0.5750   -0.1698   -1.3844 H   0  0  0  0  0  0  0  0  0  0  0  0
    0.6988    1.2257    2.0712 H   0  0  0  0  0  0  0  0  0  0  0  0
    0.6789    1.7007    0.3751 H   0  0  0  0  0  0  0  0  0  0  0  0
   -1.3218   -0.0251    1.7771 H   0  0  0  0  0  0  0  0  0  0  0  0
   -1.3792    0.4030    0.0653 H   0  0  0  0  0  0  0  0  0  0  0  0
   -1.2024   -2.4451    1.2255 H   0  0  0  0  0  0  0  0  0  0  0  0
   -1.3034   -2.0950   -0.5019 H   0  0  0  0  0  0  0  0  0  0  0  0
    1.9840    1.4897   -1.3469 H   0  0  0  0  0  0  0  0  0  0  0  0
    4.7909   -1.8683   -0.6268 H   0  0  0  0  0  0  0  0  0  0  0  0
    4.9772    2.3433    0.3830 H   0  0  0  0  0  0  0  0  0  0  0  0
   -3.4315   -1.3923    1.5127 H   0  0  0  0  0  0  0  0  0  0  0  0
   -3.4672   -2.7523    0.3692 H   0  0  0  0  0  0  0  0  0  0  0  0
    7.1956   -2.0207   -0.4315 H   0  0  0  0  0  0  0  0  0  0  0  0
    7.4102    2.1673    0.5782 H   0  0  0  0  0  0  0  0  0  0  0  0
   -5.7205   -1.9060    0.9635 H   0  0  0  0  0  0  0  0  0  0  0  0
   -4.6925    1.4858   -1.5007 H   0  0  0  0  0  0  0  0  0  0  0  0
   -7.9259   -0.9138    1.3979 H   0  0  0  0  0  0  0  0  0  0  0  0
   -6.9195    2.4585   -1.0664 H   0  0  0  0  0  0  0  0  0  0  0  0
  1 20  1  0  0  0  0
  2 26  1  0  0  0  0
  3  6  1  0  0  0  0
  3 39  1  0  0  0  0
  4 19  2  0  0  0  0
  5  9  1  0  0  0  0
  5 10  1  0  0  0  0
  5 11  1  0  0  0  0
  6  7  1  0  0  0  0
  6  8  1  0  0  0  0
  6 12  1  0  0  0  0
  7  9  1  0  0  0  0
  7 27  1  0  0  0  0
  7 28  1  0  0  0  0
  8 10  1  0  0  0  0
  8 29  1  0  0  0  0
  8 30  1  0  0  0  0
  9 31  1  0  0  0  0
  9 32  1  0  0  0  0
 10 33  1  0  0  0  0
 10 34  1  0  0  0  0
 11 13  1  0  0  0  0
 11 35  1  0  0  0  0
 11 36  1  0  0  0  0
 12 14  2  0  0  0  0
 12 15  1  0  0  0  0
 13 16  1  0  0  0  0
 13 37  1  0  0  0  0
 13 38  1  0  0  0  0
 14 17  1  0  0  0  0
 14 40  1  0  0  0  0
 15 18  2  0  0  0  0
 15 41  1  0  0  0  0
 16 19  1  0  0  0  0
 16 42  1  0  0  0  0
 16 43  1  0  0  0  0
 17 20  2  0  0  0  0
 17 44  1  0  0  0  0
 18 20  1  0  0  0  0
 18 45  1  0  0  0  0
 19 21  1  0  0  0  0
 21 22  2  0  0  0  0
 21 23  1  0  0  0  0
 22 24  1  0  0  0  0
 22 46  1  0  0  0  0
 23 25  2  0  0  0  0
 23 47  1  0  0  0  0
 24 26  2  0  0  0  0
 24 48  1  0  0  0  0
 25 26  1  0  0  0  0
 25 49  1  0  0  0  0
M  END
> <PUBCHEM_COMPOUND_CID>
3559

> <PUBCHEM_CONFORMER_RMSD>
0.8

> <PUBCHEM_CONFORMER_DIVERSEORDER>
1
443
437
168
99
236
408
450
409
169
51
386
2
227
394
204
199
310
279
370
327
326
112
73
369
392
403
200
57
293
182
438
15
97
81
231
387
416
259
224
245
215
250
78
61
319
75
229
359
213
400
209
424
6
206
43
122
334
448
33
47
295
178
273
230
291
98
141
451
323
107
473
110
248
208
114
371
434
217
401
341
405
297
120
308
256
3
276
313
404
109
8
457
477
72
421
471
284
299
162
222
74
79
104
487
466
63
221
459
292
244
119
436
216
86
255
472
155
116
50
311
283
335
294
133
358
195
482
131
439
77
118
68
378
44
329
249
12
290
480
121
212
102
447
253
270
87
474
49
318
95
445
396
422
268
322
414
306
425
272
444
374
373
58
338
108
483
381
25
60
235
175
214
30
260
10
475
430
336
288
80
296
242
357
410
65
103
17
263
280
391
285
289
305
383
219
129
11
138
269
172
101
360
390
262
211
382
258
376
234
225
92
332
243
274
7
412
56
302
456
435
355
55
343
346
307
142
317
300
181
146
190
372
191
282
139
106
193
125
402
399
16
375
349
76
171
85
316
485
287
148
156
240
210
406
418
304
32
40
423
442
154
105
460
94
247
66
454
166
463
486
325
170
254
461
361
207
395
413
31
339
388
96
163
467
365
164
261
264
117
301
201
115
144
20
239
312
356
347
367
128
397
197
89
39
14
137
351
238
111
465
278
62
275
27
151
368
330
45
5
389
205
363
186
83
468
9
440
352
152
303
177
320
426
173
393
331
187
362
127
257
277
167
22
223
377
267
18
64
194
4
180
48
82
478
143
470
159
353
59
420
398
427
198
417
42
46
29
88
13
469
158
34
52
476
481
26
93
380
233
286
140
446
309
145
153
455
484
38
23
441
453
192
157
100
69
71
37
428
407
385
479
411
183
35
174
337
126
160
433
298
113
147
462
271
419
340
123
176
161
28
84
91
185
314
228
19
226
246
344
132
124
149
24
252
232
130
165
179
196
464
348
67
449
251
189
342
237
36
452
345
90
188
384
202
41
366
379
54
220
241
184
333
281
203
324
364
21
135
415
265
136
321
53
431
315
218
134
150
328
70
350
266
432
458
429
354

> <PUBCHEM_MMFF94_PARTIAL_CHARGES>
32
1 -0.18
10 0.27
11 0.27
12 -0.14
14 -0.15
15 -0.15
16 0.06
17 -0.15
18 -0.15
19 0.42
2 -0.19
20 0.18
21 0.09
22 -0.15
23 -0.15
24 -0.15
25 -0.15
26 0.19
3 -0.68
39 0.4
4 -0.57
40 0.15
41 0.15
44 0.15
45 0.15
46 0.15
47 0.15
48 0.15
49 0.15
5 -0.81
6 0.42
9 0.27

> <PUBCHEM_EFFECTIVE_ROTOR_COUNT>
7.2

> <PUBCHEM_PHARMACOPHORE_FEATURES>
7
1 3 acceptor
1 3 donor
1 4 acceptor
1 5 cation
6 12 14 15 17 18 20 rings
6 21 22 23 24 25 26 rings
6 5 6 7 8 9 10 rings

> <PUBCHEM_HEAVY_ATOM_COUNT>
26

> <PUBCHEM_ATOM_DEF_STEREO_COUNT>
0

> <PUBCHEM_ATOM_UDEF_STEREO_COUNT>
0

> <PUBCHEM_BOND_DEF_STEREO_COUNT>
0

> <PUBCHEM_BOND_UDEF_STEREO_COUNT>
0

> <PUBCHEM_ISOTOPIC_ATOM_COUNT>
0

> <PUBCHEM_COMPONENT_COUNT>
1

> <PUBCHEM_CACTVS_TAUTO_COUNT>
2

> <PUBCHEM_CONFORMER_ID>
00000DE700000001

> <PUBCHEM_MMFF94_ENERGY>
63.1694

> <PUBCHEM_FEATURE_SELFOVERLAP>
35.52

> <PUBCHEM_SHAPE_FINGERPRINT>
10 15 17418096546934981937
10165383 225 18341896308108171467
10299344 5 13039187000492770442
10391435 84 7276535504497322061
106641 1 11023821769277135414
10670039 82 18341337773123135237
10674148 151 17775288249373103224
10730089 173 18342739628904784033
11135609 99 8574129675651273801
11135926 11 16588015810395872175
11315181 36 9943809998117290287
11646440 116 16200432468077565596
11719270 70 17675924313760723646
11724838 91 9367344838902893794
11796584 16 18412544276431236090
12166972 35 13686295768548392246
12516196 113 7204775886547656611
12664476 115 18410295826950406801
12838862 33 16660653976716884694
13914758 101 18412826906516018936
14150022 121 13110694878105564991
14251752 14 18408042926769914931
14251764 18 13686299075862678018
14251764 46 18202846548078036347
1454969 45 6194840393313124146
14675020 138 18341629105397885962
14849402 71 14979661153499048510
14856354 85 14836119940689524411
14933364 13 18344145891027544457
15119646 104 16588297340885391167
15142383 8 18334857212764869644
15183329 4 17167581596721248971
15716309 27 11383833762259128665
15728490 51 11815889051106653009
1577012 14 17988935478747223107
18335252 98 10015867587617521328
18608769 82 18412823552574250891
19611394 137 17488444293075429011
19841028 212 18270965756587042034
20238998 120 18260829289648845792
20281389 69 18202566176591429213
21033648 29 18338246946946922544
21095086 128 10375875178057601864
21150785 3 13984661451458604427
21267235 1 11959735975894328742
21298829 104 16370713855831380515
21315759 40 14405185062269305779
21365058 27 15770058332757201963
21585482 111 18197217169568857517
21756936 100 18272937107746535195
21792934 111 17821455656218393792
22224240 67 4823212810775582364
23559900 14 17313676931849843691
246663 6 12391514191583705562
28498 318 18261108591534796406
3009799 131 17894349969170981866
3633792 109 18260544533595850890
4073 2 18059852805864914106
4098825 35 18411138013490083339
4325135 7 14562528479661441480
4339292 15 17386577848114576335
5385378 56 17560806571244762538
5758199 1 16487538048281945521
5969126 39 15357693115262263553
6009941 240 18342737386584001658
6081469 158 18333446574254732854
9953998 17 17632572756995442385

> <PUBCHEM_SHAPE_MULTIPOLES>
512.94
27.8
1.55
1.03
3.06
0.01
0.09
6.74
-0.77
0.77
-0.02
0.48
0.06
0.8

> <PUBCHEM_SHAPE_SELFOVERLAP>
1081.103

> <PUBCHEM_SHAPE_VOLUME>
289.9

> <PUBCHEM_COORDINATE_TYPE>
2
5
10

$$$$

