17395924
  -OEChem-06241222532D

 49 52  0     0  0  0  0  0  0999 V2000
    6.7619   -0.0670    0.0000 O   0  0  0  0  0  0  0  0  0  0  0  0
   11.2619    0.7990    0.0000 O   0  0  0  0  0  0  0  0  0  0  0  0
    3.7320    1.2990    0.0000 N   0  0  0  0  0  0  0  0  0  0  0  0
   11.2619   -0.9330    0.0000 N   0  0  0  0  0  0  0  0  0  0  0  0
    4.6783   -0.0057    0.0000 N   0  0  0  0  0  0  0  0  0  0  0  0
   12.7619   -0.0670    0.0000 C   0  0  0  0  0  0  0  0  0  0  0  0
    5.2619    0.7990    0.0000 C   0  0  0  0  0  0  0  0  0  0  0  0
   12.2619   -0.9330    0.0000 C   0  0  0  0  0  0  0  0  0  0  0  0
    3.7320    0.2990    0.0000 C   0  0  0  0  0  0  0  0  0  0  0  0
   13.7619   -0.0670    0.0000 C   0  0  0  0  0  0  0  0  0  0  0  0
    4.6783    1.6038    0.0000 C   0  0  0  0  0  0  0  0  0  0  0  0
    6.2619    0.7990    0.0000 C   0  0  0  0  0  0  0  0  0  0  0  0
   12.7619   -1.7990    0.0000 C   0  0  0  0  0  0  0  0  0  0  0  0
    9.7619   -0.0670    0.0000 C   0  0  0  0  0  0  0  0  0  0  0  0
   14.2619   -0.9330    0.0000 C   0  0  0  0  0  0  0  0  0  0  0  0
    2.8660    1.7990    0.0000 C   0  0  0  0  0  0  0  0  0  0  0  0
   12.2619    0.7990    0.0000 C   0  0  0  0  0  0  0  0  0  0  0  0
    7.7619   -0.0670    0.0000 C   0  0  0  0  0  0  0  0  0  0  0  0
    2.8660   -0.2010    0.0000 C   0  0  0  0  0  0  0  0  0  0  0  0
   10.7619   -0.0670    0.0000 C   0  0  0  0  0  0  0  0  0  0  0  0
   13.7619   -1.7990    0.0000 C   0  0  0  0  0  0  0  0  0  0  0  0
   14.2619    0.7990    0.0000 C   0  0  0  0  0  0  0  0  0  0  0  0
    9.2619    0.7990    0.0000 C   0  0  0  0  0  0  0  0  0  0  0  0
    9.2619   -0.9330    0.0000 C   0  0  0  0  0  0  0  0  0  0  0  0
    8.2619    0.7990    0.0000 C   0  0  0  0  0  0  0  0  0  0  0  0
    8.2619   -0.9330    0.0000 C   0  0  0  0  0  0  0  0  0  0  0  0
    2.0000    1.2990    0.0000 C   0  0  0  0  0  0  0  0  0  0  0  0
    2.0000    0.2990    0.0000 C   0  0  0  0  0  0  0  0  0  0  0  0
    4.8709    2.1931    0.0000 H   0  0  0  0  0  0  0  0  0  0  0  0
    6.8445    1.0111    0.0000 H   0  0  0  0  0  0  0  0  0  0  0  0
    6.1542    1.4096    0.0000 H   0  0  0  0  0  0  0  0  0  0  0  0
   10.9519   -1.4700    0.0000 H   0  0  0  0  0  0  0  0  0  0  0  0
   12.4519   -2.3360    0.0000 H   0  0  0  0  0  0  0  0  0  0  0  0
   14.8819   -0.9330    0.0000 H   0  0  0  0  0  0  0  0  0  0  0  0
    2.8660    2.4190    0.0000 H   0  0  0  0  0  0  0  0  0  0  0  0
   12.7988    1.1090    0.0000 H   0  0  0  0  0  0  0  0  0  0  0  0
   11.9519    1.3360    0.0000 H   0  0  0  0  0  0  0  0  0  0  0  0
   11.7249    0.4890    0.0000 H   0  0  0  0  0  0  0  0  0  0  0  0
    2.8660   -0.8210    0.0000 H   0  0  0  0  0  0  0  0  0  0  0  0
   14.0719   -2.3360    0.0000 H   0  0  0  0  0  0  0  0  0  0  0  0
   14.7988    0.4890    0.0000 H   0  0  0  0  0  0  0  0  0  0  0  0
   14.5719    1.3360    0.0000 H   0  0  0  0  0  0  0  0  0  0  0  0
   13.7249    1.1090    0.0000 H   0  0  0  0  0  0  0  0  0  0  0  0
    9.5719    1.3360    0.0000 H   0  0  0  0  0  0  0  0  0  0  0  0
    9.5719   -1.4700    0.0000 H   0  0  0  0  0  0  0  0  0  0  0  0
    7.9519    1.3360    0.0000 H   0  0  0  0  0  0  0  0  0  0  0  0
    7.9519   -1.4700    0.0000 H   0  0  0  0  0  0  0  0  0  0  0  0
    1.4631    1.6090    0.0000 H   0  0  0  0  0  0  0  0  0  0  0  0
    1.4631   -0.0110    0.0000 H   0  0  0  0  0  0  0  0  0  0  0  0
  1 12  1  0  0  0  0
  1 18  1  0  0  0  0
  2 20  2  0  0  0  0
  3  9  1  0  0  0  0
  3 11  1  0  0  0  0
  3 16  1  0  0  0  0
  4  8  1  0  0  0  0
  4 20  1  0  0  0  0
  4 32  1  0  0  0  0
  5  7  1  0  0  0  0
  5  9  2  0  0  0  0
  6  8  1  0  0  0  0
  6 10  2  0  0  0  0
  6 17  1  0  0  0  0
  7 11  2  0  0  0  0
  7 12  1  0  0  0  0
  8 13  2  0  0  0  0
  9 19  1  0  0  0  0
 10 15  1  0  0  0  0
 10 22  1  0  0  0  0
 11 29  1  0  0  0  0
 12 30  1  0  0  0  0
 12 31  1  0  0  0  0
 13 21  1  0  0  0  0
 13 33  1  0  0  0  0
 14 20  1  0  0  0  0
 14 23  2  0  0  0  0
 14 24  1  0  0  0  0
 15 21  2  0  0  0  0
 15 34  1  0  0  0  0
 16 27  2  0  0  0  0
 16 35  1  0  0  0  0
 17 36  1  0  0  0  0
 17 37  1  0  0  0  0
 17 38  1  0  0  0  0
 18 25  2  0  0  0  0
 18 26  1  0  0  0  0
 19 28  2  0  0  0  0
 19 39  1  0  0  0  0
 21 40  1  0  0  0  0
 22 41  1  0  0  0  0
 22 42  1  0  0  0  0
 22 43  1  0  0  0  0
 23 25  1  0  0  0  0
 23 44  1  0  0  0  0
 24 26  2  0  0  0  0
 24 45  1  0  0  0  0
 25 46  1  0  0  0  0
 26 47  1  0  0  0  0
 27 28  1  0  0  0  0
 27 48  1  0  0  0  0
 28 49  1  0  0  0  0
M  END
> <PUBCHEM_COMPOUND_CID>
17395924

> <PUBCHEM_COMPOUND_CANONICALIZED>
1

> <PUBCHEM_CACTVS_COMPLEXITY>
520

> <PUBCHEM_CACTVS_HBOND_ACCEPTOR>
3

> <PUBCHEM_CACTVS_HBOND_DONOR>
1

> <PUBCHEM_CACTVS_ROTATABLE_BOND>
5

> <PUBCHEM_CACTVS_SUBSKEYS>
AAADceB7MAAAAAAAAAAAAAAAAAAAAWAAAAA8YIAAAAAAAFgB9AAAHgAQAAAADAzhnwY/9p/MHACoAzd3dASCiC01MqAJ2CE+fNiObvLEvZuXOSju1BPY6aeY3ILOoAAAQAASAABAAACAACQAAAAAAAAAAA==

> <PUBCHEM_IUPAC_OPENEYE_NAME>
N-(2,3-dimethylphenyl)-4-(imidazo[1,2-a]pyridin-2-ylmethoxy)benzamide

> <PUBCHEM_IUPAC_CAS_NAME>
N-(2,3-dimethylphenyl)-4-(2-imidazo[1,2-a]pyridinylmethoxy)benzamide

> <PUBCHEM_IUPAC_NAME>
N-(2,3-dimethylphenyl)-4-(imidazo[1,2-a]pyridin-2-ylmethoxy)benzamide

> <PUBCHEM_IUPAC_SYSTEMATIC_NAME>
N-(2,3-dimethylphenyl)-4-(imidazo[1,2-a]pyridin-2-ylmethoxy)benzamide

> <PUBCHEM_IUPAC_TRADITIONAL_NAME>
N-(2,3-dimethylphenyl)-4-(imidazo[1,2-a]pyridin-2-ylmethoxy)benzamide

> <PUBCHEM_IUPAC_INCHI>
InChI=1S/C23H21N3O2/c1-16-6-5-7-21(17(16)2)25-23(27)18-9-11-20(12-10-18)28-15-19-14-26-13-4-3-8-22(26)24-19/h3-14H,15H2,1-2H3,(H,25,27)

> <PUBCHEM_IUPAC_INCHIKEY>
LIIYEHJGQCWRKR-UHFFFAOYSA-N

> <PUBCHEM_XLOGP3_AA>
4.8

> <PUBCHEM_EXACT_MASS>
371.163377

> <PUBCHEM_MOLECULAR_FORMULA>
C23H21N3O2

> <PUBCHEM_MOLECULAR_WEIGHT>
371.43174

> <PUBCHEM_OPENEYE_CAN_SMILES>
CC1=C(C(=CC=C1)NC(=O)C2=CC=C(C=C2)OCC3=CN4C=CC=CC4=N3)C

> <PUBCHEM_OPENEYE_ISO_SMILES>
CC1=C(C(=CC=C1)NC(=O)C2=CC=C(C=C2)OCC3=CN4C=CC=CC4=N3)C

> <PUBCHEM_CACTVS_TPSA>
55.6

> <PUBCHEM_MONOISOTOPIC_WEIGHT>
371.163377

> <PUBCHEM_TOTAL_CHARGE>
0

> <PUBCHEM_HEAVY_ATOM_COUNT>
28

> <PUBCHEM_ATOM_DEF_STEREO_COUNT>
0

> <PUBCHEM_ATOM_UDEF_STEREO_COUNT>
0

> <PUBCHEM_BOND_DEF_STEREO_COUNT>
0

> <PUBCHEM_BOND_UDEF_STEREO_COUNT>
0

> <PUBCHEM_ISOTOPIC_ATOM_COUNT>
0

> <PUBCHEM_COMPONENT_COUNT>
1

> <PUBCHEM_CACTVS_TAUTO_COUNT>
2

> <PUBCHEM_COORDINATE_TYPE>
1
5
255

> <PUBCHEM_BONDANNOTATIONS>
10  15  8
13  21  8
14  23  8
14  24  8
15  21  8
16  27  8
18  25  8
18  26  8
19  28  8
23  25  8
24  26  8
27  28  8
3  11  8
3  16  8
3  9  8
5  7  8
5  9  8
6  10  8
6  8  8
7  11  8
8  13  8
9  19  8

$$$$

