8239
  -OEChem-06261202412D

 71 70  0     1  0  0  0  0  0999 V2000
   10.1060    0.8660    0.0000 S   0  0  0  0  0  0  0  0  0  0  0  0
    1.4030    6.6760    0.0000 O   0  0  0  0  0  0  0  0  0  0  0  0
    8.8070    8.5420    0.0000 O   0  0  0  0  0  0  0  0  0  0  0  0
    0.5369    3.1760    0.0000 O   0  0  0  0  0  0  0  0  0  0  0  0
    7.9409    5.0420    0.0000 O   0  0  0  0  0  0  0  0  0  0  0  0
    2.2690    2.1760    0.0000 O   0  0  0  0  0  0  0  0  0  0  0  0
    9.6730    4.0420    0.0000 O   0  0  0  0  0  0  0  0  0  0  0  0
   10.9720    1.3660    0.0000 O   0  0  0  0  0  0  0  0  0  0  0  0
    9.2400    0.3660    0.0000 O   0  0  0  0  0  0  0  0  0  0  0  0
    9.6060    1.7320    0.0000 O   0  0  0  0  0  0  0  0  0  0  0  0
   10.6060    0.0000    0.0000 O   0  0  0  0  0  0  0  0  0  0  0  0
    3.1350    7.6760    0.0000 N   0  0  0  0  0  0  0  0  0  0  0  0
   10.5390    9.5420    0.0000 N   0  0  0  0  0  0  0  0  0  0  0  0
   10.5390    8.5420    0.0000 C   0  0  0  0  0  0  0  0  0  0  0  0
    3.1350    6.6760    0.0000 C   0  0  0  0  0  0  0  0  0  0  0  0
    2.2690    6.1760    0.0000 C   0  0  3  0  0  0  0  0  0  0  0  0
    9.6730    8.0420    0.0000 C   0  0  3  0  0  0  0  0  0  0  0  0
    4.0010    8.1760    0.0000 C   0  0  0  0  0  0  0  0  0  0  0  0
   11.4050   10.0421    0.0000 C   0  0  0  0  0  0  0  0  0  0  0  0
    2.2690    5.1760    0.0000 C   0  0  0  0  0  0  0  0  0  0  0  0
    9.6730    7.0420    0.0000 C   0  0  0  0  0  0  0  0  0  0  0  0
    4.0010    9.1760    0.0000 C   0  0  0  0  0  0  0  0  0  0  0  0
    4.8671    7.6760    0.0000 C   0  0  0  0  0  0  0  0  0  0  0  0
   11.4050   11.0421    0.0000 C   0  0  0  0  0  0  0  0  0  0  0  0
   12.2711    9.5420    0.0000 C   0  0  0  0  0  0  0  0  0  0  0  0
    1.4030    4.6760    0.0000 C   0  0  0  0  0  0  0  0  0  0  0  0
    8.8070    6.5420    0.0000 C   0  0  0  0  0  0  0  0  0  0  0  0
    3.1350    4.6760    0.0000 C   0  0  0  0  0  0  0  0  0  0  0  0
   10.5390    6.5420    0.0000 C   0  0  0  0  0  0  0  0  0  0  0  0
    1.4030    3.6760    0.0000 C   0  0  0  0  0  0  0  0  0  0  0  0
    8.8070    5.5420    0.0000 C   0  0  0  0  0  0  0  0  0  0  0  0
    3.1350    3.6760    0.0000 C   0  0  0  0  0  0  0  0  0  0  0  0
   10.5390    5.5420    0.0000 C   0  0  0  0  0  0  0  0  0  0  0  0
    9.6730    5.0420    0.0000 C   0  0  0  0  0  0  0  0  0  0  0  0
    2.2690    3.1760    0.0000 C   0  0  0  0  0  0  0  0  0  0  0  0
    3.3471    6.0934    0.0000 H   0  0  0  0  0  0  0  0  0  0  0  0
    3.7456    6.7837    0.0000 H   0  0  0  0  0  0  0  0  0  0  0  0
   10.7511    7.9594    0.0000 H   0  0  0  0  0  0  0  0  0  0  0  0
   11.1496    8.6497    0.0000 H   0  0  0  0  0  0  0  0  0  0  0  0
    9.6730    8.8920    0.0000 H   0  0  0  0  0  0  0  0  0  0  0  0
    2.2690    7.0260    0.0000 H   0  0  0  0  0  0  0  0  0  0  0  0
    4.0010    7.5560    0.0000 H   0  0  0  0  0  0  0  0  0  0  0  0
   11.4050    9.4220    0.0000 H   0  0  0  0  0  0  0  0  0  0  0  0
    2.5981    7.9860    0.0000 H   0  0  0  0  0  0  0  0  0  0  0  0
   10.0021    9.8520    0.0000 H   0  0  0  0  0  0  0  0  0  0  0  0
   11.9611    9.0051    0.0000 H   0  0  0  0  0  0  0  0  0  0  0  0
   12.8080    9.2320    0.0000 H   0  0  0  0  0  0  0  0  0  0  0  0
   12.5811   10.0790    0.0000 H   0  0  0  0  0  0  0  0  0  0  0  0
   12.0250   11.0421    0.0000 H   0  0  0  0  0  0  0  0  0  0  0  0
   11.4050   11.6621    0.0000 H   0  0  0  0  0  0  0  0  0  0  0  0
   10.7850   11.0421    0.0000 H   0  0  0  0  0  0  0  0  0  0  0  0
    4.5571    7.1391    0.0000 H   0  0  0  0  0  0  0  0  0  0  0  0
    5.4040    7.3660    0.0000 H   0  0  0  0  0  0  0  0  0  0  0  0
    5.1771    8.2130    0.0000 H   0  0  0  0  0  0  0  0  0  0  0  0
    4.6210    9.1760    0.0000 H   0  0  0  0  0  0  0  0  0  0  0  0
    4.0010    9.7960    0.0000 H   0  0  0  0  0  0  0  0  0  0  0  0
    3.3810    9.1760    0.0000 H   0  0  0  0  0  0  0  0  0  0  0  0
    0.8660    4.9860    0.0000 H   0  0  0  0  0  0  0  0  0  0  0  0
    8.2700    6.8520    0.0000 H   0  0  0  0  0  0  0  0  0  0  0  0
    3.6720    4.9860    0.0000 H   0  0  0  0  0  0  0  0  0  0  0  0
   11.0759    6.8520    0.0000 H   0  0  0  0  0  0  0  0  0  0  0  0
    1.4030    7.2960    0.0000 H   0  0  0  0  0  0  0  0  0  0  0  0
    8.8070    9.1620    0.0000 H   0  0  0  0  0  0  0  0  0  0  0  0
    3.6720    3.3660    0.0000 H   0  0  0  0  0  0  0  0  0  0  0  0
   11.0759    5.2320    0.0000 H   0  0  0  0  0  0  0  0  0  0  0  0
    0.0000    3.4860    0.0000 H   0  0  0  0  0  0  0  0  0  0  0  0
    7.4040    5.3520    0.0000 H   0  0  0  0  0  0  0  0  0  0  0  0
    2.8059    1.8660    0.0000 H   0  0  0  0  0  0  0  0  0  0  0  0
   10.2099    3.7320    0.0000 H   0  0  0  0  0  0  0  0  0  0  0  0
   11.5090    1.0560    0.0000 H   0  0  0  0  0  0  0  0  0  0  0  0
    8.7030    0.6760    0.0000 H   0  0  0  0  0  0  0  0  0  0  0  0
  1  8  1  0  0  0  0
  1  9  1  0  0  0  0
  1 10  2  0  0  0  0
  1 11  2  0  0  0  0
  2 16  1  0  0  0  0
  2 62  1  0  0  0  0
  3 17  1  0  0  0  0
  3 63  1  0  0  0  0
  4 30  1  0  0  0  0
  4 66  1  0  0  0  0
  5 31  1  0  0  0  0
  5 67  1  0  0  0  0
  6 35  1  0  0  0  0
  6 68  1  0  0  0  0
  7 34  1  0  0  0  0
  7 69  1  0  0  0  0
  8 70  1  0  0  0  0
  9 71  1  0  0  0  0
 12 15  1  0  0  0  0
 12 18  1  0  0  0  0
 12 44  1  0  0  0  0
 13 14  1  0  0  0  0
 13 19  1  0  0  0  0
 13 45  1  0  0  0  0
 14 17  1  0  0  0  0
 14 38  1  0  0  0  0
 14 39  1  0  0  0  0
 15 16  1  0  0  0  0
 15 36  1  0  0  0  0
 15 37  1  0  0  0  0
 16 20  1  0  0  0  0
 16 41  1  0  0  0  0
 17 21  1  0  0  0  0
 17 40  1  0  0  0  0
 18 22  1  0  0  0  0
 18 23  1  0  0  0  0
 18 42  1  0  0  0  0
 19 24  1  0  0  0  0
 19 25  1  0  0  0  0
 19 43  1  0  0  0  0
 20 26  2  0  0  0  0
 20 28  1  0  0  0  0
 21 27  2  0  0  0  0
 21 29  1  0  0  0  0
 22 55  1  0  0  0  0
 22 56  1  0  0  0  0
 22 57  1  0  0  0  0
 23 52  1  0  0  0  0
 23 53  1  0  0  0  0
 23 54  1  0  0  0  0
 24 49  1  0  0  0  0
 24 50  1  0  0  0  0
 24 51  1  0  0  0  0
 25 46  1  0  0  0  0
 25 47  1  0  0  0  0
 25 48  1  0  0  0  0
 26 30  1  0  0  0  0
 26 58  1  0  0  0  0
 27 31  1  0  0  0  0
 27 59  1  0  0  0  0
 28 32  2  0  0  0  0
 28 60  1  0  0  0  0
 29 33  2  0  0  0  0
 29 61  1  0  0  0  0
 30 35  2  0  0  0  0
 31 34  2  0  0  0  0
 32 35  1  0  0  0  0
 32 64  1  0  0  0  0
 33 34  1  0  0  0  0
 33 65  1  0  0  0  0
M  END
> <PUBCHEM_COMPOUND_CID>
8239

> <PUBCHEM_COMPOUND_CANONICALIZED>
1

> <PUBCHEM_CACTVS_COMPLEXITY>
268

> <PUBCHEM_CACTVS_HBOND_ACCEPTOR>
12

> <PUBCHEM_CACTVS_HBOND_DONOR>
10

> <PUBCHEM_CACTVS_ROTATABLE_BOND>
8

> <PUBCHEM_CACTVS_SUBSKEYS>
AAADcfB7PABAAAAAAAAAAAAAAAAAAAAAAAAwYAAAAAAAAAABQAAAHgAQCAAADDzhmAYyBoLAAoCAAiBCADACAAAgIAAIiIAOiIgLNiKCkROEcAEk0BGZmAfQ8LYOIAABAAAAQABAAAIAAACAAAAAAAAAAA==

> <PUBCHEM_IUPAC_OPENEYE_NAME>
4-[1-hydroxy-2-(isopropylamino)ethyl]benzene-1,2-diol; sulfuric acid

> <PUBCHEM_IUPAC_CAS_NAME>
4-[1-hydroxy-2-(propan-2-ylamino)ethyl]benzene-1,2-diol; sulfuric acid

> <PUBCHEM_IUPAC_NAME>
4-[1-hydroxy-2-(propan-2-ylamino)ethyl]benzene-1,2-diol; sulfuric acid

> <PUBCHEM_IUPAC_SYSTEMATIC_NAME>
4-[1-oxidanyl-2-(propan-2-ylamino)ethyl]benzene-1,2-diol; sulfuric acid

> <PUBCHEM_IUPAC_TRADITIONAL_NAME>
4-[1-hydroxy-2-(isopropylamino)ethyl]pyrocatechol; sulfuric acid

> <PUBCHEM_IUPAC_INCHI>
InChI=1S/2C11H17NO3.H2O4S/c2*1-7(2)12-6-11(15)8-3-4-9(13)10(14)5-8;1-5(2,3)4/h2*3-5,7,11-15H,6H2,1-2H3;(H2,1,2,3,4)

> <PUBCHEM_IUPAC_INCHIKEY>
ZOLBALGTFCCTJF-UHFFFAOYSA-N

> <PUBCHEM_EXACT_MASS>
520.209066

> <PUBCHEM_MOLECULAR_FORMULA>
C22H36N2O10S

> <PUBCHEM_MOLECULAR_WEIGHT>
520.59364

> <PUBCHEM_OPENEYE_CAN_SMILES>
CC(C)NCC(C1=CC(=C(C=C1)O)O)O.CC(C)NCC(C1=CC(=C(C=C1)O)O)O.OS(=O)(=O)O

> <PUBCHEM_OPENEYE_ISO_SMILES>
CC(C)NCC(C1=CC(=C(C=C1)O)O)O.CC(C)NCC(C1=CC(=C(C=C1)O)O)O.OS(=O)(=O)O

> <PUBCHEM_CACTVS_TPSA>
228

> <PUBCHEM_MONOISOTOPIC_WEIGHT>
520.209066

> <PUBCHEM_TOTAL_CHARGE>
0

> <PUBCHEM_HEAVY_ATOM_COUNT>
35

> <PUBCHEM_ATOM_DEF_STEREO_COUNT>
0

> <PUBCHEM_ATOM_UDEF_STEREO_COUNT>
2

> <PUBCHEM_BOND_DEF_STEREO_COUNT>
0

> <PUBCHEM_BOND_UDEF_STEREO_COUNT>
0

> <PUBCHEM_ISOTOPIC_ATOM_COUNT>
0

> <PUBCHEM_COMPONENT_COUNT>
3

> <PUBCHEM_CACTVS_TAUTO_COUNT>
27

> <PUBCHEM_COORDINATE_TYPE>
1
5
255

> <PUBCHEM_BONDANNOTATIONS>
16  41  3
17  40  3
20  26  8
20  28  8
21  27  8
21  29  8
26  30  8
27  31  8
28  32  8
29  33  8
30  35  8
31  34  8
32  35  8
33  34  8

$$$$

