9570
  -OEChem-06261203493D

 34 36  0     1  0  0  0  0  0999 V2000
   -4.6294    1.4592   -0.2070 S   0  0  0  0  0  0  0  0  0  0  0  0
    2.3459    0.5390    0.9300 O   0  0  0  0  0  0  0  0  0  0  0  0
    1.5686   -2.2234   -1.2346 O   0  0  0  0  0  0  0  0  0  0  0  0
    3.8232   -2.0462    0.2722 O   0  0  0  0  0  0  0  0  0  0  0  0
    4.0273    2.7036    0.3383 O   0  0  0  0  0  0  0  0  0  0  0  0
    0.1105    0.2104    0.2054 N   0  0  0  0  0  0  0  0  0  0  0  0
   -1.3982    1.7980   -0.2203 N   0  0  0  0  0  0  0  0  0  0  0  0
   -1.3722   -1.6649    0.6380 N   0  0  0  0  0  0  0  0  0  0  0  0
   -3.7143   -1.0126    0.4251 N   0  0  0  0  0  0  0  0  0  0  0  0
    2.0416   -0.9351   -0.8985 C   0  0  1  0  0  0  0  0  0  0  0  0
    1.4163   -0.4190    0.3885 C   0  0  1  0  0  0  0  0  0  0  0  0
    3.5159   -0.9173   -0.5458 C   0  0  1  0  0  0  0  0  0  0  0  0
    3.6330    0.3481    0.2982 C   0  0  1  0  0  0  0  0  0  0  0  0
    3.9500    1.5860   -0.5291 C   0  0  0  0  0  0  0  0  0  0  0  0
   -1.1136   -0.3859    0.3265 C   0  0  0  0  0  0  0  0  0  0  0  0
   -0.1144    1.5221   -0.1236 C   0  0  0  0  0  0  0  0  0  0  0  0
   -2.0344    0.6144    0.0585 C   0  0  0  0  0  0  0  0  0  0  0  0
   -3.3794    0.2632    0.1159 C   0  0  0  0  0  0  0  0  0  0  0  0
   -2.7049   -1.8845    0.6635 C   0  0  0  0  0  0  0  0  0  0  0  0
   -5.9714    0.4450   -0.9011 C   0  0  0  0  0  0  0  0  0  0  0  0
    1.8422   -0.2582   -1.7374 H   0  0  0  0  0  0  0  0  0  0  0  0
    1.2836   -1.2127    1.1340 H   0  0  0  0  0  0  0  0  0  0  0  0
    4.1724   -0.9482   -1.4200 H   0  0  0  0  0  0  0  0  0  0  0  0
    4.3656    0.2430    1.1066 H   0  0  0  0  0  0  0  0  0  0  0  0
    3.1739    1.7949   -1.2719 H   0  0  0  0  0  0  0  0  0  0  0  0
    4.9101    1.4813   -1.0428 H   0  0  0  0  0  0  0  0  0  0  0  0
    1.7967   -2.8269   -0.5072 H   0  0  0  0  0  0  0  0  0  0  0  0
    4.7617   -1.9790    0.5181 H   0  0  0  0  0  0  0  0  0  0  0  0
    0.6880    2.2288   -0.2858 H   0  0  0  0  0  0  0  0  0  0  0  0
    3.1701    2.7835    0.7906 H   0  0  0  0  0  0  0  0  0  0  0  0
   -3.0096   -2.8966    0.9077 H   0  0  0  0  0  0  0  0  0  0  0  0
   -5.6171   -0.1066   -1.7762 H   0  0  0  0  0  0  0  0  0  0  0  0
   -6.7920    1.0991   -1.2072 H   0  0  0  0  0  0  0  0  0  0  0  0
   -6.3462   -0.2576   -0.1521 H   0  0  0  0  0  0  0  0  0  0  0  0
  1 18  1  0  0  0  0
  1 20  1  0  0  0  0
  2 11  1  0  0  0  0
  2 13  1  0  0  0  0
  3 10  1  0  0  0  0
  3 27  1  0  0  0  0
  4 12  1  0  0  0  0
  4 28  1  0  0  0  0
  5 14  1  0  0  0  0
  5 30  1  0  0  0  0
  6 11  1  0  0  0  0
  6 15  1  0  0  0  0
  6 16  1  0  0  0  0
  7 16  2  0  0  0  0
  7 17  1  0  0  0  0
  8 15  1  0  0  0  0
  8 19  2  0  0  0  0
  9 18  2  0  0  0  0
  9 19  1  0  0  0  0
 10 11  1  0  0  0  0
 10 12  1  0  0  0  0
 10 21  1  0  0  0  0
 11 22  1  0  0  0  0
 12 13  1  0  0  0  0
 12 23  1  0  0  0  0
 13 14  1  0  0  0  0
 13 24  1  0  0  0  0
 14 25  1  0  0  0  0
 14 26  1  0  0  0  0
 15 17  2  0  0  0  0
 16 29  1  0  0  0  0
 17 18  1  0  0  0  0
 19 31  1  0  0  0  0
 20 32  1  0  0  0  0
 20 33  1  0  0  0  0
 20 34  1  0  0  0  0
M  END
> <PUBCHEM_COMPOUND_CID>
9570

> <PUBCHEM_CONFORMER_RMSD>
0.6

> <PUBCHEM_CONFORMER_DIVERSEORDER>
4
40
56
12
50
39
33
38
13
65
16
21
58
1
36
26
62
15
66
6
41
52
67
24
60
47
7
19
69
17
22
45
63
29
28
34
44
14
27
8
32
64
3
35
48
2
37
25
59
5
61
10
46
11
31
23
43
9
57
51
42
49
68
54
30
18
53
20
55

> <PUBCHEM_MMFF94_PARTIAL_CHARGES>
25
1 -0.33
10 0.28
11 0.54
12 0.28
13 0.28
14 0.28
15 0.11
16 0.04
17 0.23
18 0.41
19 0.47
2 -0.56
20 0.23
27 0.4
28 0.4
29 0.15
3 -0.68
30 0.4
31 0.15
4 -0.68
5 -0.68
6 0.05
7 -0.57
8 -0.57
9 -0.62

> <PUBCHEM_EFFECTIVE_ROTOR_COUNT>
4

> <PUBCHEM_PHARMACOPHORE_FEATURES>
14
1 2 acceptor
1 20 hydrophobe
1 3 acceptor
1 3 donor
1 4 acceptor
1 4 donor
1 5 acceptor
1 5 donor
1 9 acceptor
3 6 7 16 cation
3 8 9 19 cation
5 2 10 11 12 13 rings
5 6 7 15 16 17 rings
6 8 9 15 17 18 19 rings

> <PUBCHEM_HEAVY_ATOM_COUNT>
20

> <PUBCHEM_ATOM_DEF_STEREO_COUNT>
4

> <PUBCHEM_ATOM_UDEF_STEREO_COUNT>
0

> <PUBCHEM_BOND_DEF_STEREO_COUNT>
0

> <PUBCHEM_BOND_UDEF_STEREO_COUNT>
0

> <PUBCHEM_ISOTOPIC_ATOM_COUNT>
0

> <PUBCHEM_COMPONENT_COUNT>
1

> <PUBCHEM_CACTVS_TAUTO_COUNT>
1

> <PUBCHEM_CONFORMER_ID>
0000256200000004

> <PUBCHEM_MMFF94_ENERGY>
43.6366

> <PUBCHEM_FEATURE_SELFOVERLAP>
71.192

> <PUBCHEM_SHAPE_FINGERPRINT>
10014705 185 18201721730619042365
10366900 7 17748825207009040721
10498660 4 18341326725659706196
10608611 8 18410854378086800440
11405975 8 18341047501309026170
11578080 2 16772419329585840956
12236239 1 16773794809456613162
12969540 114 18059591208402394661
13296908 3 18413102849021237099
13675066 3 17846770815429220459
14528608 73 18259987037375416749
14790565 3 18267579299000792585
14911166 2 18343023324437310317
15196674 1 18412824677211889643
15219456 202 18408318878360745050
15375358 24 18410572881656157391
15375462 6 18412258407543991686
17834072 14 18412261718620885679
17834072 33 18113904853568506357
17980427 23 17702103565116100676
18186145 218 17561085812595255214
200 152 17313392270160327347
20279233 1 18335697269365361783
20645477 56 18202281407638637605
20645477 70 18041278867268063382
21029758 11 18407762538921583793
23402539 116 18341338854652735407
23557571 272 18271230626069139878
23559900 14 18411136970023961962
296302 2 18408881811208078657
335352 9 18268992149180788015
34934 24 18341336599931782057
3545911 37 18342454833538616996
4340502 62 15913325827939501033
474 4 17274249544653512012
495365 180 17822025193575408968
5104073 3 18342172263112852361
5283173 99 18270688674765288653
633830 44 18265337381826961317
69090 78 18334861653592534575
9709674 26 18263074569073862735

> <PUBCHEM_SHAPE_MULTIPOLES>
372.04
10.17
2.3
0.88
5.92
0.11
0.12
2.56
1.51
-1.4
0.01
-0.06
-0.19
0.86

> <PUBCHEM_SHAPE_SELFOVERLAP>
787.647

> <PUBCHEM_SHAPE_VOLUME>
211.8

> <PUBCHEM_COORDINATE_TYPE>
2
5
10

$$$$

