853911
  -OEChem-06241222463D

 24 24  0     0  0  0  0  0  0999 V2000
    3.8476   -0.0301    0.4909 S   0  0  0  0  0  0  0  0  0  0  0  0
    1.1900   -0.0035    0.6152 N   0  0  0  0  0  0  0  0  0  0  0  0
    2.1694    0.0286   -1.5413 N   0  0  0  0  0  0  0  0  0  0  0  0
   -0.1747   -0.0027    0.3066 C   0  0  0  0  0  0  0  0  0  0  0  0
   -0.8554    1.2058    0.1575 C   0  0  0  0  0  0  0  0  0  0  0  0
   -0.8549   -1.2103    0.1490 C   0  0  0  0  0  0  0  0  0  0  0  0
   -2.2161    1.2067   -0.1491 C   0  0  0  0  0  0  0  0  0  0  0  0
   -2.2157   -1.2093   -0.1577 C   0  0  0  0  0  0  0  0  0  0  0  0
   -2.8962   -0.0008   -0.3068 C   0  0  0  0  0  0  0  0  0  0  0  0
   -0.1547    2.5157    0.3209 C   0  0  0  0  0  0  0  0  0  0  0  0
   -0.1535   -2.5210    0.3023 C   0  0  0  0  0  0  0  0  0  0  0  0
    2.3142    0.0209   -0.1875 C   0  0  0  0  0  0  0  0  0  0  0  0
   -2.7619    2.1388   -0.2697 H   0  0  0  0  0  0  0  0  0  0  0  0
   -2.7612   -2.1407   -0.2850 H   0  0  0  0  0  0  0  0  0  0  0  0
   -3.9557   -0.0002   -0.5460 H   0  0  0  0  0  0  0  0  0  0  0  0
    0.3456    2.5676    1.2937 H   0  0  0  0  0  0  0  0  0  0  0  0
    0.5844    2.6551   -0.4746 H   0  0  0  0  0  0  0  0  0  0  0  0
   -0.8521    3.3592    0.2737 H   0  0  0  0  0  0  0  0  0  0  0  0
    0.5960   -2.6475   -0.4857 H   0  0  0  0  0  0  0  0  0  0  0  0
    0.3348   -2.5853    1.2805 H   0  0  0  0  0  0  0  0  0  0  0  0
   -0.8481   -3.3654    0.2339 H   0  0  0  0  0  0  0  0  0  0  0  0
    1.3799   -0.0658    1.6131 H   0  0  0  0  0  0  0  0  0  0  0  0
    2.9763    0.0242   -2.1564 H   0  0  0  0  0  0  0  0  0  0  0  0
    1.2579    0.0519   -1.9855 H   0  0  0  0  0  0  0  0  0  0  0  0
  1 12  2  0  0  0  0
  2  4  1  0  0  0  0
  2 12  1  0  0  0  0
  2 22  1  0  0  0  0
  3 12  1  0  0  0  0
  3 23  1  0  0  0  0
  3 24  1  0  0  0  0
  4  5  2  0  0  0  0
  4  6  1  0  0  0  0
  5  7  1  0  0  0  0
  5 10  1  0  0  0  0
  6  8  2  0  0  0  0
  6 11  1  0  0  0  0
  7  9  2  0  0  0  0
  7 13  1  0  0  0  0
  8  9  1  0  0  0  0
  8 14  1  0  0  0  0
  9 15  1  0  0  0  0
 10 16  1  0  0  0  0
 10 17  1  0  0  0  0
 10 18  1  0  0  0  0
 11 19  1  0  0  0  0
 11 20  1  0  0  0  0
 11 21  1  0  0  0  0
M  END
> <PUBCHEM_COMPOUND_CID>
853911

> <PUBCHEM_CONFORMER_RMSD>
0.6

> <PUBCHEM_CONFORMER_DIVERSEORDER>
1
4
2
3

> <PUBCHEM_MMFF94_PARTIAL_CHARGES>
18
1 -0.38
10 0.14
11 0.14
12 0.5
13 0.15
14 0.15
15 0.15
2 -0.55
22 0.37
23 0.37
24 0.37
3 -0.8
4 0.12
5 -0.14
6 -0.14
7 -0.15
8 -0.15
9 -0.15

> <PUBCHEM_EFFECTIVE_ROTOR_COUNT>
2

> <PUBCHEM_PHARMACOPHORE_FEATURES>
4
1 1 acceptor
1 2 donor
1 3 donor
6 4 5 6 7 8 9 rings

> <PUBCHEM_HEAVY_ATOM_COUNT>
12

> <PUBCHEM_ATOM_DEF_STEREO_COUNT>
0

> <PUBCHEM_ATOM_UDEF_STEREO_COUNT>
0

> <PUBCHEM_BOND_DEF_STEREO_COUNT>
0

> <PUBCHEM_BOND_UDEF_STEREO_COUNT>
0

> <PUBCHEM_ISOTOPIC_ATOM_COUNT>
0

> <PUBCHEM_COMPONENT_COUNT>
1

> <PUBCHEM_CACTVS_TAUTO_COUNT>
3

> <PUBCHEM_CONFORMER_ID>
000D079700000001

> <PUBCHEM_MMFF94_ENERGY>
52.8279

> <PUBCHEM_FEATURE_SELFOVERLAP>
20.334

> <PUBCHEM_SHAPE_FINGERPRINT>
11206711 2 18340780273266318029
12716758 59 18336258046091588150
13024252 1 15697999634854668489
14614273 12 18127980899847649653
14911166 2 18339094722004188877
15775835 57 18202284744596013992
161256 15 17548403813847762515
16945 1 18410575085116707633
17846911 113 18409173233139259872
193761 8 17689721178590814441
20201158 50 17967250897175130878
20645476 183 17846487102553476638
20871998 184 18260828137963977190
21501502 16 18048315535706656189
22802520 49 17970611081802903958
23402539 116 18262252070162279716
23552423 10 18053947539375776899
23559900 14 18334299799409434338
2748010 2 18052268289051911775
353137 74 18266179615790924681
6333449 129 18334581239087494232
7364860 26 17902797697116645390
75552 356 18411984628927129320
77492 1 17703794725710525472
81228 2 18189599678909783680

> <PUBCHEM_SHAPE_MULTIPOLES>
240.84
4.66
2.19
0.85
3.67
0.01
0.22
0.02
0.25
-0.91
-0.33
0.43
-0.01
-0.02

> <PUBCHEM_SHAPE_SELFOVERLAP>
484.997

> <PUBCHEM_SHAPE_VOLUME>
143.8

> <PUBCHEM_COORDINATE_TYPE>
2
5
10

$$$$

