4619
  -OEChem-06261200153D

 57 57  0     0  0  0  0  0  0999 V2000
   -1.0411    1.7110   -0.1383 O   0  0  0  0  0  0  0  0  0  0  0  0
   -3.0202    1.8932   -1.2991 O   0  0  0  0  0  0  0  0  0  0  0  0
    1.6785    2.1455   -0.5582 O   0  0  0  0  0  0  0  0  0  0  0  0
    3.3875   -0.0114    0.1515 N   0  0  0  0  0  0  0  0  0  0  0  0
   -2.6763   -0.0034    0.2278 C   0  0  0  0  0  0  0  0  0  0  0  0
   -4.0958   -0.4456   -0.2563 C   0  0  0  0  0  0  0  0  0  0  0  0
   -2.6888    0.3299    1.7555 C   0  0  0  0  0  0  0  0  0  0  0  0
   -1.6526   -1.0961   -0.1597 C   0  0  0  0  0  0  0  0  0  0  0  0
   -2.2946    1.3042   -0.5066 C   0  0  0  0  0  0  0  0  0  0  0  0
   -4.6070   -1.7576    0.3317 C   0  0  0  0  0  0  0  0  0  0  0  0
   -3.6844    1.4043    2.1887 C   0  0  0  0  0  0  0  0  0  0  0  0
   -0.8771   -1.7067    0.8261 C   0  0  0  0  0  0  0  0  0  0  0  0
   -1.5042   -1.4707   -1.4952 C   0  0  0  0  0  0  0  0  0  0  0  0
   -0.5787    2.9206   -0.7471 C   0  0  0  0  0  0  0  0  0  0  0  0
    0.0463   -2.6919    0.4763 C   0  0  0  0  0  0  0  0  0  0  0  0
   -0.5809   -2.4560   -1.8448 C   0  0  0  0  0  0  0  0  0  0  0  0
    3.8732    1.1984   -0.4953 C   0  0  0  0  0  0  0  0  0  0  0  0
    0.8156    3.2297   -0.2368 C   0  0  0  0  0  0  0  0  0  0  0  0
    3.0079    2.3913   -0.1216 C   0  0  0  0  0  0  0  0  0  0  0  0
    0.1943   -3.0666   -0.8592 C   0  0  0  0  0  0  0  0  0  0  0  0
    3.8022   -0.0504    1.5560 C   0  0  0  0  0  0  0  0  0  0  0  0
    3.8688   -1.2036   -0.5507 C   0  0  0  0  0  0  0  0  0  0  0  0
    3.2427   -1.2751    2.2598 C   0  0  0  0  0  0  0  0  0  0  0  0
    5.3848   -1.2932   -0.5048 C   0  0  0  0  0  0  0  0  0  0  0  0
   -4.1140   -0.5425   -1.3498 H   0  0  0  0  0  0  0  0  0  0  0  0
   -4.8304    0.3402   -0.0424 H   0  0  0  0  0  0  0  0  0  0  0  0
   -1.6951    0.6686    2.0780 H   0  0  0  0  0  0  0  0  0  0  0  0
   -2.9123   -0.5708    2.3405 H   0  0  0  0  0  0  0  0  0  0  0  0
   -5.6025   -1.9778   -0.0686 H   0  0  0  0  0  0  0  0  0  0  0  0
   -4.6971   -1.7018    1.4200 H   0  0  0  0  0  0  0  0  0  0  0  0
   -3.9589   -2.6012    0.0785 H   0  0  0  0  0  0  0  0  0  0  0  0
   -3.5543    1.6178    3.2552 H   0  0  0  0  0  0  0  0  0  0  0  0
   -4.7185    1.0773    2.0499 H   0  0  0  0  0  0  0  0  0  0  0  0
   -3.5361    2.3414    1.6447 H   0  0  0  0  0  0  0  0  0  0  0  0
   -0.9489   -1.4558    1.8780 H   0  0  0  0  0  0  0  0  0  0  0  0
   -2.0868   -1.0016   -2.2828 H   0  0  0  0  0  0  0  0  0  0  0  0
   -1.2595    3.7425   -0.5003 H   0  0  0  0  0  0  0  0  0  0  0  0
   -0.5508    2.7746   -1.8331 H   0  0  0  0  0  0  0  0  0  0  0  0
    3.8087    1.0891   -1.5861 H   0  0  0  0  0  0  0  0  0  0  0  0
    4.9179    1.4232   -0.2486 H   0  0  0  0  0  0  0  0  0  0  0  0
    0.6477   -3.1719    1.2427 H   0  0  0  0  0  0  0  0  0  0  0  0
   -0.4630   -2.7456   -2.8849 H   0  0  0  0  0  0  0  0  0  0  0  0
    1.1850    4.1532   -0.6958 H   0  0  0  0  0  0  0  0  0  0  0  0
    0.7909    3.3494    0.8526 H   0  0  0  0  0  0  0  0  0  0  0  0
    3.3923    3.2807   -0.6359 H   0  0  0  0  0  0  0  0  0  0  0  0
    3.0243    2.5971    0.9537 H   0  0  0  0  0  0  0  0  0  0  0  0
    0.9142   -3.8329   -1.1314 H   0  0  0  0  0  0  0  0  0  0  0  0
    3.3798    0.8135    2.0819 H   0  0  0  0  0  0  0  0  0  0  0  0
    4.8859    0.0178    1.7036 H   0  0  0  0  0  0  0  0  0  0  0  0
    3.5433   -1.1619   -1.5984 H   0  0  0  0  0  0  0  0  0  0  0  0
    3.4141   -2.1220   -0.1654 H   0  0  0  0  0  0  0  0  0  0  0  0
    3.4007   -1.1772    3.3401 H   0  0  0  0  0  0  0  0  0  0  0  0
    3.7335   -2.2044    1.9572 H   0  0  0  0  0  0  0  0  0  0  0  0
    2.1648   -1.3697    2.1020 H   0  0  0  0  0  0  0  0  0  0  0  0
    5.8893   -0.4201   -0.9275 H   0  0  0  0  0  0  0  0  0  0  0  0
    5.7779   -1.4830    0.4977 H   0  0  0  0  0  0  0  0  0  0  0  0
    5.7003   -2.1480   -1.1155 H   0  0  0  0  0  0  0  0  0  0  0  0
  1  9  1  0  0  0  0
  1 14  1  0  0  0  0
  2  9  2  0  0  0  0
  3 18  1  0  0  0  0
  3 19  1  0  0  0  0
  4 17  1  0  0  0  0
  4 21  1  0  0  0  0
  4 22  1  0  0  0  0
  5  6  1  0  0  0  0
  5  7  1  0  0  0  0
  5  8  1  0  0  0  0
  5  9  1  0  0  0  0
  6 10  1  0  0  0  0
  6 25  1  0  0  0  0
  6 26  1  0  0  0  0
  7 11  1  0  0  0  0
  7 27  1  0  0  0  0
  7 28  1  0  0  0  0
  8 12  2  0  0  0  0
  8 13  1  0  0  0  0
 10 29  1  0  0  0  0
 10 30  1  0  0  0  0
 10 31  1  0  0  0  0
 11 32  1  0  0  0  0
 11 33  1  0  0  0  0
 11 34  1  0  0  0  0
 12 15  1  0  0  0  0
 12 35  1  0  0  0  0
 13 16  2  0  0  0  0
 13 36  1  0  0  0  0
 14 18  1  0  0  0  0
 14 37  1  0  0  0  0
 14 38  1  0  0  0  0
 15 20  2  0  0  0  0
 15 41  1  0  0  0  0
 16 20  1  0  0  0  0
 16 42  1  0  0  0  0
 17 19  1  0  0  0  0
 17 39  1  0  0  0  0
 17 40  1  0  0  0  0
 18 43  1  0  0  0  0
 18 44  1  0  0  0  0
 19 45  1  0  0  0  0
 19 46  1  0  0  0  0
 20 47  1  0  0  0  0
 21 23  1  0  0  0  0
 21 48  1  0  0  0  0
 21 49  1  0  0  0  0
 22 24  1  0  0  0  0
 22 50  1  0  0  0  0
 22 51  1  0  0  0  0
 23 52  1  0  0  0  0
 23 53  1  0  0  0  0
 23 54  1  0  0  0  0
 24 55  1  0  0  0  0
 24 56  1  0  0  0  0
 24 57  1  0  0  0  0
M  END
> <PUBCHEM_COMPOUND_CID>
4619

> <PUBCHEM_CONFORMER_RMSD>
1.2

> <PUBCHEM_CONFORMER_DIVERSEORDER>
1
25
18
59
63
35
33
26
75
50
62
51
44
73
23
37
70
74
11
79
2
42
12
78
55
76
32
71
4
66
77
72
80
41
17
65
9
60
43
45
54
58
19
49
57
48
5
6
34
67
39
14
56
22
29
15
10
16
7
3
30
46
52
53
38
64
27
40
31
36
13
68
28
47
69
24
61
8
21
20

> <PUBCHEM_MMFF94_PARTIAL_CHARGES>
23
1 -0.43
12 -0.15
13 -0.15
14 0.28
15 -0.15
16 -0.15
17 0.27
18 0.28
19 0.28
2 -0.57
20 -0.15
21 0.27
22 0.27
3 -0.56
35 0.15
36 0.15
4 -0.81
41 0.15
42 0.15
47 0.15
5 0.2
8 -0.14
9 0.66

> <PUBCHEM_EFFECTIVE_ROTOR_COUNT>
13

> <PUBCHEM_PHARMACOPHORE_FEATURES>
6
1 10 hydrophobe
1 11 hydrophobe
1 2 acceptor
1 3 acceptor
1 4 cation
6 8 12 13 15 16 20 rings

> <PUBCHEM_HEAVY_ATOM_COUNT>
24

> <PUBCHEM_ATOM_DEF_STEREO_COUNT>
0

> <PUBCHEM_ATOM_UDEF_STEREO_COUNT>
0

> <PUBCHEM_BOND_DEF_STEREO_COUNT>
0

> <PUBCHEM_BOND_UDEF_STEREO_COUNT>
0

> <PUBCHEM_ISOTOPIC_ATOM_COUNT>
0

> <PUBCHEM_COMPONENT_COUNT>
1

> <PUBCHEM_CACTVS_TAUTO_COUNT>
1

> <PUBCHEM_CONFORMER_ID>
0000120B00000001

> <PUBCHEM_MMFF94_ENERGY>
53.9199

> <PUBCHEM_FEATURE_SELFOVERLAP>
30.446

> <PUBCHEM_SHAPE_FINGERPRINT>
10366900 7 17561359573921738954
11221954 11 17474959095406885985
11578080 2 16628855095809646415
12156800 1 14895153647602599800
12422481 6 18337653283903848801
12539773 59 18043244639544919545
12553582 1 18267877081693526092
12592029 89 18341337772916854817
12633257 1 18201711886052938091
13122387 1 18339365266062491940
13402501 40 18262795302322012358
14114207 22 14250699598701573720
14251751 93 18411987982911582695
14251757 5 18341033182790368862
15403338 16 16985485020308688603
19026451 147 17256558235254323014
19319366 153 17774714256932299194
19930381 70 18413109450380897543
20771845 140 16589969557456078455
20905425 154 17905892826828139446
23227448 37 18338519608166010047
3298306 158 18053961811388922701
445580 8 18337390555684100416
474 4 18334847364025552147
539174 4 17753029881054433899
6287921 2 17823684447011559015
7064713 232 18113333141285682929

> <PUBCHEM_SHAPE_MULTIPOLES>
471.32
8.87
3.86
1.74
5.55
0.99
0.79
-0.91
1.88
0.3
-1.21
-0.27
-0.32
-0.74

> <PUBCHEM_SHAPE_SELFOVERLAP>
933.609

> <PUBCHEM_SHAPE_VOLUME>
281.4

> <PUBCHEM_COORDINATE_TYPE>
2
5
10

$$$$

