17396086
  -OEChem-06241222543D

 56 60  0     1  0  0  0  0  0999 V2000
   -8.8241    1.7248    1.4389 Cl  0  0  0  0  0  0  0  0  0  0  0  0
   -3.3498   -0.5946   -0.7689 O   0  0  0  0  0  0  0  0  0  0  0  0
   -0.1994   -1.8612   -0.0944 N   0  0  0  0  0  0  0  0  0  0  0  0
    2.3366   -0.6960    0.6604 N   0  0  0  0  0  0  0  0  0  0  0  0
   -3.2002   -2.1916    0.7904 N   0  0  0  0  0  0  0  0  0  0  0  0
   -4.3601   -1.4761    1.0218 N   0  0  0  0  0  0  0  0  0  0  0  0
   -0.1159   -0.4945    0.4350 C   0  0  0  0  0  0  0  0  0  0  0  0
    1.0408   -2.2154   -0.7955 C   0  0  0  0  0  0  0  0  0  0  0  0
    1.0960   -0.3415    1.3607 C   0  0  0  0  0  0  0  0  0  0  0  0
    2.2533   -2.0620    0.1291 C   0  0  0  0  0  0  0  0  0  0  0  0
   -1.3546   -2.0061   -0.9777 C   0  0  1  0  0  0  0  0  0  0  0  0
    3.4912   -0.5525    1.5451 C   0  0  0  0  0  0  0  0  0  0  0  0
    4.7235   -0.3649    0.7202 C   0  0  0  0  0  0  0  0  0  0  0  0
   -1.4009   -3.4298   -1.5353 C   0  0  0  0  0  0  0  0  0  0  0  0
   -2.6433   -1.6425   -0.2638 C   0  0  0  0  0  0  0  0  0  0  0  0
    5.1731    0.9077    0.3320 C   0  0  0  0  0  0  0  0  0  0  0  0
    5.4218   -1.5125    0.3431 C   0  0  0  0  0  0  0  0  0  0  0  0
    6.3479    1.0178   -0.4494 C   0  0  0  0  0  0  0  0  0  0  0  0
    4.4828    2.0733    0.7022 C   0  0  0  0  0  0  0  0  0  0  0  0
    6.5774   -1.4041   -0.4250 C   0  0  0  0  0  0  0  0  0  0  0  0
    7.0386   -0.1478   -0.8194 C   0  0  0  0  0  0  0  0  0  0  0  0
   -4.4063   -0.5545    0.0884 C   0  0  0  0  0  0  0  0  0  0  0  0
    6.7978    2.2904   -0.8375 C   0  0  0  0  0  0  0  0  0  0  0  0
    4.9440    3.3295    0.3075 C   0  0  0  0  0  0  0  0  0  0  0  0
    6.0993    3.4378   -0.4610 C   0  0  0  0  0  0  0  0  0  0  0  0
   -5.3809    0.4670   -0.1631 C   0  0  0  0  0  0  0  0  0  0  0  0
   -6.4978    0.5849    0.6642 C   0  0  0  0  0  0  0  0  0  0  0  0
   -5.2113    1.3432   -1.2350 C   0  0  0  0  0  0  0  0  0  0  0  0
   -7.4451    1.5789    0.4195 C   0  0  0  0  0  0  0  0  0  0  0  0
   -6.1587    2.3372   -1.4798 C   0  0  0  0  0  0  0  0  0  0  0  0
   -7.2757    2.4551   -0.6526 C   0  0  0  0  0  0  0  0  0  0  0  0
   -0.0497    0.2394   -0.3802 H   0  0  0  0  0  0  0  0  0  0  0  0
   -0.9980   -0.2401    1.0333 H   0  0  0  0  0  0  0  0  0  0  0  0
    1.0445   -3.2649   -1.1065 H   0  0  0  0  0  0  0  0  0  0  0  0
    1.1784   -1.5984   -1.6940 H   0  0  0  0  0  0  0  0  0  0  0  0
    1.1421    0.7031    1.6923 H   0  0  0  0  0  0  0  0  0  0  0  0
    0.9609   -0.9643    2.2555 H   0  0  0  0  0  0  0  0  0  0  0  0
    2.1932   -2.8006    0.9400 H   0  0  0  0  0  0  0  0  0  0  0  0
    3.1252   -2.3088   -0.4817 H   0  0  0  0  0  0  0  0  0  0  0  0
   -1.2572   -1.3247   -1.8356 H   0  0  0  0  0  0  0  0  0  0  0  0
    3.5993   -1.4270    2.2036 H   0  0  0  0  0  0  0  0  0  0  0  0
    3.3721    0.2750    2.2533 H   0  0  0  0  0  0  0  0  0  0  0  0
   -2.3679   -3.6158   -2.0195 H   0  0  0  0  0  0  0  0  0  0  0  0
   -0.6399   -3.6093   -2.3014 H   0  0  0  0  0  0  0  0  0  0  0  0
   -1.2961   -4.1825   -0.7448 H   0  0  0  0  0  0  0  0  0  0  0  0
    5.0981   -2.5008    0.6591 H   0  0  0  0  0  0  0  0  0  0  0  0
    3.5669    2.0576    1.2840 H   0  0  0  0  0  0  0  0  0  0  0  0
    7.1242   -2.2972   -0.7130 H   0  0  0  0  0  0  0  0  0  0  0  0
    7.9448   -0.0868   -1.4185 H   0  0  0  0  0  0  0  0  0  0  0  0
    7.6983    2.3988   -1.4385 H   0  0  0  0  0  0  0  0  0  0  0  0
    4.3988    4.2235    0.5965 H   0  0  0  0  0  0  0  0  0  0  0  0
    6.4571    4.4160   -0.7688 H   0  0  0  0  0  0  0  0  0  0  0  0
   -6.6375   -0.0948    1.5027 H   0  0  0  0  0  0  0  0  0  0  0  0
   -4.3546    1.2833   -1.9014 H   0  0  0  0  0  0  0  0  0  0  0  0
   -6.0271    3.0197   -2.3145 H   0  0  0  0  0  0  0  0  0  0  0  0
   -8.0057    3.2344   -0.8555 H   0  0  0  0  0  0  0  0  0  0  0  0
  1 29  1  0  0  0  0
  2 15  1  0  0  0  0
  2 22  1  0  0  0  0
  3  7  1  0  0  0  0
  3  8  1  0  0  0  0
  3 11  1  0  0  0  0
  4  9  1  0  0  0  0
  4 10  1  0  0  0  0
  4 12  1  0  0  0  0
  5  6  1  0  0  0  0
  5 15  2  0  0  0  0
  6 22  2  0  0  0  0
  7  9  1  0  0  0  0
  7 32  1  0  0  0  0
  7 33  1  0  0  0  0
  8 10  1  0  0  0  0
  8 34  1  0  0  0  0
  8 35  1  0  0  0  0
  9 36  1  0  0  0  0
  9 37  1  0  0  0  0
 10 38  1  0  0  0  0
 10 39  1  0  0  0  0
 11 14  1  0  0  0  0
 11 15  1  0  0  0  0
 11 40  1  0  0  0  0
 12 13  1  0  0  0  0
 12 41  1  0  0  0  0
 12 42  1  0  0  0  0
 13 16  1  0  0  0  0
 13 17  2  0  0  0  0
 14 43  1  0  0  0  0
 14 44  1  0  0  0  0
 14 45  1  0  0  0  0
 16 18  1  0  0  0  0
 16 19  2  0  0  0  0
 17 20  1  0  0  0  0
 17 46  1  0  0  0  0
 18 21  1  0  0  0  0
 18 23  2  0  0  0  0
 19 24  1  0  0  0  0
 19 47  1  0  0  0  0
 20 21  2  0  0  0  0
 20 48  1  0  0  0  0
 21 49  1  0  0  0  0
 22 26  1  0  0  0  0
 23 25  1  0  0  0  0
 23 50  1  0  0  0  0
 24 25  2  0  0  0  0
 24 51  1  0  0  0  0
 25 52  1  0  0  0  0
 26 27  2  0  0  0  0
 26 28  1  0  0  0  0
 27 29  1  0  0  0  0
 27 53  1  0  0  0  0
 28 30  2  0  0  0  0
 28 54  1  0  0  0  0
 29 31  2  0  0  0  0
 30 31  1  0  0  0  0
 30 55  1  0  0  0  0
 31 56  1  0  0  0  0
M  END
> <PUBCHEM_COMPOUND_CID>
17396086

> <PUBCHEM_CONFORMER_RMSD>
1.4

> <PUBCHEM_CONFORMER_DIVERSEORDER>
3
20
18
49
86
39
89
21
94
36
80
83
16
63
25
79
84
14
78
67
59
55
35
30
52
90
72
53
66
81
51
8
73
93
15
28
10
61
77
24
88
40
76
64
95
87
56
31
62
92
38
96
50
13
71
68
85
33
41
4
26
19
5
23
2
46
58
75
60
42
54
70
27
34
9
82
32
45
7
6
43
74
29
69
22
57
91
1
48
17
47
12
44
37
65
11

> <PUBCHEM_MMFF94_PARTIAL_CHARGES>
39
1 -0.18
10 0.27
11 0.45
12 0.41
13 -0.14
15 0.3
17 -0.15
19 -0.15
2 -0.28
20 -0.15
21 -0.15
22 0.43
23 -0.15
24 -0.15
25 -0.15
26 0.05
27 -0.15
28 -0.15
29 0.18
3 -0.81
30 -0.15
31 -0.15
4 -0.81
46 0.15
47 0.15
48 0.15
49 0.15
5 -0.34
50 0.15
51 0.15
52 0.15
53 0.15
54 0.15
55 0.15
56 0.15
6 -0.34
7 0.27
8 0.27
9 0.27

> <PUBCHEM_EFFECTIVE_ROTOR_COUNT>
6.2

> <PUBCHEM_PHARMACOPHORE_FEATURES>
7
1 3 cation
1 4 cation
5 2 5 6 15 22 rings
6 13 16 17 18 20 21 rings
6 16 18 19 23 24 25 rings
6 26 27 28 29 30 31 rings
6 3 4 7 8 9 10 rings

> <PUBCHEM_HEAVY_ATOM_COUNT>
31

> <PUBCHEM_ATOM_DEF_STEREO_COUNT>
0

> <PUBCHEM_ATOM_UDEF_STEREO_COUNT>
1

> <PUBCHEM_BOND_DEF_STEREO_COUNT>
0

> <PUBCHEM_BOND_UDEF_STEREO_COUNT>
0

> <PUBCHEM_ISOTOPIC_ATOM_COUNT>
0

> <PUBCHEM_COMPONENT_COUNT>
1

> <PUBCHEM_CACTVS_TAUTO_COUNT>
1

> <PUBCHEM_CONFORMER_ID>
0109717600000003

> <PUBCHEM_MMFF94_ENERGY>
78.9996

> <PUBCHEM_FEATURE_SELFOVERLAP>
35.549

> <PUBCHEM_SHAPE_FINGERPRINT>
10 15 18060135475411549875
10066227 112 18412829083574080661
10369192 42 18410012161576649223
10554248 39 17822291322797826246
10625338 131 18270688691570884393
10816530 90 18410299125036533848
11456790 92 17703519887059733000
11991303 11 17531536382007450911
12422481 6 17989205932178359277
12522641 24 17632023065005347018
12975358 362 18270103743491740253
13690498 29 17317329406404161198
13782708 43 7853573526159164195
13944108 23 18191024697618994536
14117953 113 17967808389011538526
14251757 52 18341896290205563856
14933364 13 18272650147283808058
14951699 99 18202281403148322789
15183329 4 17603860088134424040
15188451 53 7925914777043595242
15276724 80 18272093832933903860
15357212 105 18057873667855066932
15392192 104 15267048264161227322
15519825 34 16056306242932869417
15840311 113 18343016700880497373
16758388 162 18129953402391403194
17686467 74 18131067088334077419
18393751 57 18343301505469984643
190975 80 12103839059966153103
19377110 9 13470415478265942678
19841028 212 8213881262258259988
2026 5 8430322324982763701
20691028 202 18410015403259267973
21033648 29 18336278859376628042
21033650 10 14345786185364880027
21585481 104 14129054825262574827
23569914 152 17823956001515357710
249057 3 18334859442132867446
2838139 119 18411428336257569175
3504750 166 8789794482870960974
3711267 37 18113332050892063161
393628 194 18335700598625113781
4058900 60 18261105326906646579
4112364 45 17846487111385907733
4144715 1 18201148845900311930
4169191 19 18410575119898965357
4258327 124 18334020484848876687
50009960 94 7636587050108418396
504843 32 18040720238801660087
5718773 13 9007057963655698585
6328613 192 18410293601207534953
6898599 12 18116438042011358662
9689198 14 18273491277947604913

> <PUBCHEM_SHAPE_MULTIPOLES>
614.04
25.85
3.8
1.3
19.82
0.98
-0.01
22.78
0.08
-1.8
1.1
0.97
-0.01
-0.24

> <PUBCHEM_SHAPE_SELFOVERLAP>
1337.673

> <PUBCHEM_SHAPE_VOLUME>
336.5

> <PUBCHEM_COORDINATE_TYPE>
2
5
10

$$$$

