9748
  -OEChem-06261204013D

 23 22  0     0  0  0  0  0  0999 V2000
   -3.1049   -0.1942    0.0736 S   0  0  0  0  0  0  0  0  0  0  0  0
   -4.2883    0.4515   -0.7669 F   0  0  0  0  0  0  0  0  0  0  0  0
    4.6774   -1.2142   -0.1589 F   0  0  0  0  0  0  0  0  0  0  0  0
   -3.0188   -1.5695   -0.3800 O   0  0  0  0  0  0  0  0  0  0  0  0
   -3.3941    0.1335    1.4569 O   0  0  0  0  0  0  0  0  0  0  0  0
    0.8987    0.7678   -0.2888 C   0  0  0  0  0  0  0  0  0  0  0  0
   -0.3742    0.0477    0.1641 C   0  0  0  0  0  0  0  0  0  0  0  0
    2.1502    0.0774    0.2581 C   0  0  0  0  0  0  0  0  0  0  0  0
   -1.6414    0.6584   -0.4179 C   0  0  0  0  0  0  0  0  0  0  0  0
    3.4245    0.7712   -0.2261 C   0  0  0  0  0  0  0  0  0  0  0  0
    4.6711    0.0703    0.2859 C   0  0  0  0  0  0  0  0  0  0  0  0
    0.8711    1.8105    0.0496 H   0  0  0  0  0  0  0  0  0  0  0  0
    0.9377    0.7834   -1.3847 H   0  0  0  0  0  0  0  0  0  0  0  0
   -0.4318    0.0619    1.2595 H   0  0  0  0  0  0  0  0  0  0  0  0
   -0.3142   -1.0084   -0.1273 H   0  0  0  0  0  0  0  0  0  0  0  0
    2.1232    0.0802    1.3546 H   0  0  0  0  0  0  0  0  0  0  0  0
    2.1580   -0.9715   -0.0622 H   0  0  0  0  0  0  0  0  0  0  0  0
   -1.7529    1.7018   -0.1072 H   0  0  0  0  0  0  0  0  0  0  0  0
   -1.6116    0.6222   -1.5118 H   0  0  0  0  0  0  0  0  0  0  0  0
    3.4318    1.8168    0.1016 H   0  0  0  0  0  0  0  0  0  0  0  0
    3.4404    0.7653   -1.3223 H   0  0  0  0  0  0  0  0  0  0  0  0
    4.7027    0.0513    1.3792 H   0  0  0  0  0  0  0  0  0  0  0  0
    5.5754    0.5606   -0.0855 H   0  0  0  0  0  0  0  0  0  0  0  0
  1  2  1  0  0  0  0
  1  4  2  0  0  0  0
  1  5  2  0  0  0  0
  1  9  1  0  0  0  0
  3 11  1  0  0  0  0
  6  7  1  0  0  0  0
  6  8  1  0  0  0  0
  6 12  1  0  0  0  0
  6 13  1  0  0  0  0
  7  9  1  0  0  0  0
  7 14  1  0  0  0  0
  7 15  1  0  0  0  0
  8 10  1  0  0  0  0
  8 16  1  0  0  0  0
  8 17  1  0  0  0  0
  9 18  1  0  0  0  0
  9 19  1  0  0  0  0
 10 11  1  0  0  0  0
 10 20  1  0  0  0  0
 10 21  1  0  0  0  0
 11 22  1  0  0  0  0
 11 23  1  0  0  0  0
M  END
> <PUBCHEM_COMPOUND_CID>
9748

> <PUBCHEM_CONFORMER_RMSD>
0.6

> <PUBCHEM_CONFORMER_DIVERSEORDER>
1
70
80
29
100
83
65
34
111
45
27
16
133
104
79
3
23
50
54
113
12
72
94
108
8
122
2
61
121
101
78
126
43
90
105
87
62
19
135
142
112
13
128
85
25
127
136
4
102
86
116
132
6
93
81
92
40
55
60
140
39
110
52
56
58
95
41
120
51
49
96
63
139
37
117
73
44
131
53
138
115
42
88
30
47
91
97
38
118
33
89
64
129
114
69
35
32
48
125
21
75
46
143
109
103
28
22
137
24
130
119
107
124
67
31
106
9
134
59
98
76
18
99
36
57
14
66
123
10
141
5
7
77
11
17
26
15
82
71
20
74
84
68

> <PUBCHEM_MMFF94_PARTIAL_CHARGES>
7
1 1.39
11 0.34
2 -0.2
3 -0.34
4 -0.65
5 -0.65
9 0.11

> <PUBCHEM_EFFECTIVE_ROTOR_COUNT>
6

> <PUBCHEM_PHARMACOPHORE_FEATURES>
1
4 6 7 8 10 hydrophobe

> <PUBCHEM_HEAVY_ATOM_COUNT>
11

> <PUBCHEM_ATOM_DEF_STEREO_COUNT>
0

> <PUBCHEM_ATOM_UDEF_STEREO_COUNT>
0

> <PUBCHEM_BOND_DEF_STEREO_COUNT>
0

> <PUBCHEM_BOND_UDEF_STEREO_COUNT>
0

> <PUBCHEM_ISOTOPIC_ATOM_COUNT>
0

> <PUBCHEM_COMPONENT_COUNT>
1

> <PUBCHEM_CACTVS_TAUTO_COUNT>
1

> <PUBCHEM_CONFORMER_ID>
0000261400000001

> <PUBCHEM_MMFF94_ENERGY>
0.475

> <PUBCHEM_FEATURE_SELFOVERLAP>
5.074

> <PUBCHEM_SHAPE_FINGERPRINT>
10680689 15 18131350808344294141
11062470 55 9871751295349876876
11987891 38 18408321086306432974
124424 183 17530685407225297985
14123238 8 5761648200589404916
17834072 33 18342453700152476356
17834076 25 15052016779269551700
190213 19 18040715848779625236
1986462 14 15339117922772637185
20279233 1 18334853931067029463
20645477 70 18270690877682565070
20828058 44 18040714757931752638
21119208 17 17988647397409048013
22485316 2 18410578374982535068
23402539 116 18060146427040175356
42 15 18113898282273506144

> <PUBCHEM_SHAPE_MULTIPOLES>
203.94
10.07
1.04
0.84
4.92
0.25
-0.19
1.71
-0.05
0.04
0.17
-0.66
-0.01
0.02

> <PUBCHEM_SHAPE_SELFOVERLAP>
363.399

> <PUBCHEM_SHAPE_VOLUME>
131.7

> <PUBCHEM_COORDINATE_TYPE>
2
5
10

$$$$

