11546
  -OEChem-06261205483D

 22 21  0     0  0  0  0  0  0999 V2000
    1.7263    1.2438    0.0754 O   0  0  0  0  0  0  0  0  0  0  0  0
   -1.1105   -0.0523    0.0097 C   0  0  0  0  0  0  0  0  0  0  0  0
    0.1499   -0.3261   -0.8410 C   0  0  0  0  0  0  0  0  0  0  0  0
   -2.3374   -0.5429   -0.7840 C   0  0  0  0  0  0  0  0  0  0  0  0
   -1.0579   -0.8120    1.3447 C   0  0  0  0  0  0  0  0  0  0  0  0
   -1.2833    1.4506    0.2865 C   0  0  0  0  0  0  0  0  0  0  0  0
    1.4646    0.0711   -0.1913 C   0  0  0  0  0  0  0  0  0  0  0  0
    2.4483   -1.0322    0.1000 C   0  0  0  0  0  0  0  0  0  0  0  0
    0.0952    0.2057   -1.7995 H   0  0  0  0  0  0  0  0  0  0  0  0
    0.2038   -1.3936   -1.0905 H   0  0  0  0  0  0  0  0  0  0  0  0
   -2.4260   -0.0156   -1.7406 H   0  0  0  0  0  0  0  0  0  0  0  0
   -2.2676   -1.6154   -0.9986 H   0  0  0  0  0  0  0  0  0  0  0  0
   -3.2657   -0.3767   -0.2256 H   0  0  0  0  0  0  0  0  0  0  0  0
   -0.2274   -0.4683    1.9708 H   0  0  0  0  0  0  0  0  0  0  0  0
   -0.9307   -1.8880    1.1816 H   0  0  0  0  0  0  0  0  0  0  0  0
   -1.9812   -0.6689    1.9178 H   0  0  0  0  0  0  0  0  0  0  0  0
   -1.2328    2.0328   -0.6403 H   0  0  0  0  0  0  0  0  0  0  0  0
   -0.5207    1.8330    0.9717 H   0  0  0  0  0  0  0  0  0  0  0  0
   -2.2552    1.6538    0.7515 H   0  0  0  0  0  0  0  0  0  0  0  0
    3.3310   -0.6179    0.5950 H   0  0  0  0  0  0  0  0  0  0  0  0
    2.7557   -1.5043   -0.8363 H   0  0  0  0  0  0  0  0  0  0  0  0
    1.9877   -1.7694    0.7620 H   0  0  0  0  0  0  0  0  0  0  0  0
  1  7  2  0  0  0  0
  2  3  1  0  0  0  0
  2  4  1  0  0  0  0
  2  5  1  0  0  0  0
  2  6  1  0  0  0  0
  3  7  1  0  0  0  0
  3  9  1  0  0  0  0
  3 10  1  0  0  0  0
  4 11  1  0  0  0  0
  4 12  1  0  0  0  0
  4 13  1  0  0  0  0
  5 14  1  0  0  0  0
  5 15  1  0  0  0  0
  5 16  1  0  0  0  0
  6 17  1  0  0  0  0
  6 18  1  0  0  0  0
  6 19  1  0  0  0  0
  7  8  1  0  0  0  0
  8 20  1  0  0  0  0
  8 21  1  0  0  0  0
  8 22  1  0  0  0  0
M  END
> <PUBCHEM_COMPOUND_CID>
11546

> <PUBCHEM_CONFORMER_RMSD>
0.4

> <PUBCHEM_CONFORMER_DIVERSEORDER>
1
8
3
5
2
6
7
4

> <PUBCHEM_MMFF94_PARTIAL_CHARGES>
4
1 -0.57
3 0.06
7 0.45
8 0.06

> <PUBCHEM_EFFECTIVE_ROTOR_COUNT>
2

> <PUBCHEM_PHARMACOPHORE_FEATURES>
2
1 1 acceptor
4 2 4 5 6 hydrophobe

> <PUBCHEM_HEAVY_ATOM_COUNT>
8

> <PUBCHEM_ATOM_DEF_STEREO_COUNT>
0

> <PUBCHEM_ATOM_UDEF_STEREO_COUNT>
0

> <PUBCHEM_BOND_DEF_STEREO_COUNT>
0

> <PUBCHEM_BOND_UDEF_STEREO_COUNT>
0

> <PUBCHEM_ISOTOPIC_ATOM_COUNT>
0

> <PUBCHEM_COMPONENT_COUNT>
1

> <PUBCHEM_CACTVS_TAUTO_COUNT>
3

> <PUBCHEM_CONFORMER_ID>
00002D1A00000001

> <PUBCHEM_MMFF94_ENERGY>
15.5934

> <PUBCHEM_FEATURE_SELFOVERLAP>
10.148

> <PUBCHEM_SHAPE_FINGERPRINT>
10857977 72 14418141664626324791
12932741 1 17846212220351207974
21040471 1 17681541859820351901
21922407 69 17023446569658761442
23552423 10 18411982463910249446
24536 1 17917138421129424908
29004967 10 18266456503795206843
369184 2 18335140894843151987
5084963 1 17458340853495237382

> <PUBCHEM_SHAPE_MULTIPOLES>
158.77
3.17
1.29
1.03
1.03
0.39
0.16
-0.5
-0.25
0.01
0.18
-0.41
-0.26
-0.08

> <PUBCHEM_SHAPE_SELFOVERLAP>
290.619

> <PUBCHEM_SHAPE_VOLUME>
102.8

> <PUBCHEM_COORDINATE_TYPE>
2
5
10

$$$$

