11689
  -OEChem-06261205593D

 37 41  0     0  0  0  0  0  0999 V2000
    4.1036    2.2300   -0.6884 Br  0  0  0  0  0  0  0  0  0  0  0  0
    4.1086   -2.2229   -0.6845 Br  0  0  0  0  0  0  0  0  0  0  0  0
   -1.3959   -0.0019    1.7011 O   0  0  0  0  0  0  0  0  0  0  0  0
    2.1357    0.0017   -0.3332 O   0  0  0  0  0  0  0  0  0  0  0  0
   -3.5846   -0.0043    2.4553 O   0  0  0  0  0  0  0  0  0  0  0  0
    2.4538    4.7319    0.0351 O   0  0  0  0  0  0  0  0  0  0  0  0
    2.4619   -4.7282    0.0341 O   0  0  0  0  0  0  0  0  0  0  0  0
   -0.6865   -0.0008    0.4215 C   0  0  0  0  0  0  0  0  0  0  0  0
   -1.8215   -0.0012   -0.5513 C   0  0  0  0  0  0  0  0  0  0  0  0
    0.1541    1.2586    0.3481 C   0  0  0  0  0  0  0  0  0  0  0  0
    0.1559   -1.2589    0.3471 C   0  0  0  0  0  0  0  0  0  0  0  0
   -3.0242   -0.0023    0.1320 C   0  0  0  0  0  0  0  0  0  0  0  0
    1.4968    1.1818   -0.0389 C   0  0  0  0  0  0  0  0  0  0  0  0
    1.4987   -1.1796   -0.0394 C   0  0  0  0  0  0  0  0  0  0  0  0
   -2.7606   -0.0030    1.5628 C   0  0  0  0  0  0  0  0  0  0  0  0
   -1.8075   -0.0004   -1.9373 C   0  0  0  0  0  0  0  0  0  0  0  0
   -0.3869    2.5254    0.6307 C   0  0  0  0  0  0  0  0  0  0  0  0
   -0.3832   -2.5267    0.6286 C   0  0  0  0  0  0  0  0  0  0  0  0
   -4.2491   -0.0026   -0.5097 C   0  0  0  0  0  0  0  0  0  0  0  0
    2.2766    2.3377   -0.1519 C   0  0  0  0  0  0  0  0  0  0  0  0
    2.2806   -2.3343   -0.1522 C   0  0  0  0  0  0  0  0  0  0  0  0
    0.3932    3.6782    0.5250 C   0  0  0  0  0  0  0  0  0  0  0  0
    0.3989   -3.6783    0.5226 C   0  0  0  0  0  0  0  0  0  0  0  0
   -3.0305   -0.0007   -2.6144 C   0  0  0  0  0  0  0  0  0  0  0  0
    1.7246    3.5844    0.1317 C   0  0  0  0  0  0  0  0  0  0  0  0
    1.7305   -3.5820    0.1304 C   0  0  0  0  0  0  0  0  0  0  0  0
   -4.2432   -0.0016   -1.9048 C   0  0  0  0  0  0  0  0  0  0  0  0
   -0.8744    0.0005   -2.4907 H   0  0  0  0  0  0  0  0  0  0  0  0
   -1.4263    2.6294    0.9314 H   0  0  0  0  0  0  0  0  0  0  0  0
   -1.4226   -2.6324    0.9286 H   0  0  0  0  0  0  0  0  0  0  0  0
   -5.1827   -0.0034    0.0411 H   0  0  0  0  0  0  0  0  0  0  0  0
   -0.0484    4.6459    0.7475 H   0  0  0  0  0  0  0  0  0  0  0  0
   -0.0490   -4.6429    0.7464 H   0  0  0  0  0  0  0  0  0  0  0  0
   -3.0449   -0.0001   -3.7010 H   0  0  0  0  0  0  0  0  0  0  0  0
   -5.1836   -0.0018   -2.4491 H   0  0  0  0  0  0  0  0  0  0  0  0
    3.3545    4.4974   -0.2481 H   0  0  0  0  0  0  0  0  0  0  0  0
    1.9019   -5.4874    0.2706 H   0  0  0  0  0  0  0  0  0  0  0  0
  1 20  1  0  0  0  0
  2 21  1  0  0  0  0
  3  8  1  0  0  0  0
  3 15  1  0  0  0  0
  4 13  1  0  0  0  0
  4 14  1  0  0  0  0
  5 15  2  0  0  0  0
  6 25  1  0  0  0  0
  6 36  1  0  0  0  0
  7 26  1  0  0  0  0
  7 37  1  0  0  0  0
  8  9  1  0  0  0  0
  8 10  1  0  0  0  0
  8 11  1  0  0  0  0
  9 12  1  0  0  0  0
  9 16  2  0  0  0  0
 10 13  2  0  0  0  0
 10 17  1  0  0  0  0
 11 14  2  0  0  0  0
 11 18  1  0  0  0  0
 12 15  1  0  0  0  0
 12 19  2  0  0  0  0
 13 20  1  0  0  0  0
 14 21  1  0  0  0  0
 16 24  1  0  0  0  0
 16 28  1  0  0  0  0
 17 22  2  0  0  0  0
 17 29  1  0  0  0  0
 18 23  2  0  0  0  0
 18 30  1  0  0  0  0
 19 27  1  0  0  0  0
 19 31  1  0  0  0  0
 20 25  2  0  0  0  0
 21 26  2  0  0  0  0
 22 25  1  0  0  0  0
 22 32  1  0  0  0  0
 23 26  1  0  0  0  0
 23 33  1  0  0  0  0
 24 27  2  0  0  0  0
 24 34  1  0  0  0  0
 27 35  1  0  0  0  0
M  END
> <PUBCHEM_COMPOUND_CID>
11689

> <PUBCHEM_CONFORMER_RMSD>
0.6

> <PUBCHEM_CONFORMER_DIVERSEORDER>
1

> <PUBCHEM_MMFF94_PARTIAL_CHARGES>
37
1 -0.11
10 -0.14
11 -0.14
12 0.09
13 0.08
14 0.08
15 0.63
16 -0.15
17 -0.15
18 -0.15
19 -0.15
2 -0.11
20 0.11
21 0.11
22 -0.15
23 -0.15
24 -0.15
25 0.08
26 0.08
27 -0.15
28 0.15
29 0.15
3 -0.43
30 0.15
31 0.15
32 0.15
33 0.15
34 0.15
35 0.15
36 0.45
37 0.45
4 -0.17
5 -0.57
6 -0.53
7 -0.53
8 0.71
9 -0.14

> <PUBCHEM_EFFECTIVE_ROTOR_COUNT>
0.4

> <PUBCHEM_PHARMACOPHORE_FEATURES>
11
1 1 hydrophobe
1 2 hydrophobe
1 4 acceptor
1 5 acceptor
1 6 donor
1 7 donor
5 3 8 9 12 15 rings
6 10 13 17 20 22 25 rings
6 11 14 18 21 23 26 rings
6 4 8 10 11 13 14 rings
6 9 12 16 19 24 27 rings

> <PUBCHEM_HEAVY_ATOM_COUNT>
27

> <PUBCHEM_ATOM_DEF_STEREO_COUNT>
0

> <PUBCHEM_ATOM_UDEF_STEREO_COUNT>
0

> <PUBCHEM_BOND_DEF_STEREO_COUNT>
0

> <PUBCHEM_BOND_UDEF_STEREO_COUNT>
0

> <PUBCHEM_ISOTOPIC_ATOM_COUNT>
0

> <PUBCHEM_COMPONENT_COUNT>
1

> <PUBCHEM_CACTVS_TAUTO_COUNT>
5

> <PUBCHEM_CONFORMER_ID>
00002DA900000001

> <PUBCHEM_MMFF94_ENERGY>
82.0791

> <PUBCHEM_FEATURE_SELFOVERLAP>
55.964

> <PUBCHEM_SHAPE_FINGERPRINT>
10165383 225 17839709635454370669
10411042 1 18050842522723498979
10693767 8 18113623378349320310
10721379 63 17757036343071591677
10871710 139 17976249463661807534
1100329 8 18339077082779362186
11101153 10 18051139378801230650
11115154 58 17611789908039914565
11578080 2 17631715175858244605
11725454 13 17415872152663969349
12553582 1 18265606778828530522
12643181 29 18050572847072126104
12730499 353 18270126691368821765
12788726 201 17188139423002126363
13004483 165 17759265254603888999
13009979 54 17458350753685141551
13140716 1 18265881472457510882
13681431 1 18123777449630058721
13911987 19 18271234011100046870
14400156 96 17840827951520354497
14790565 3 18122311706558678232
15324884 4 17774160085412041685
16087824 20 17257091996621147741
16945 1 18410851062129123659
17980427 26 18191280750953377017
1813 80 17969784283366106343
18219364 16 18198056967758161505
18915476 22 18342459214579039855
19591789 44 17978773633037133370
19930381 70 18339629097097351130
20101258 96 17904758135197211674
22112679 90 17603586369720924361
23419403 2 17988346165957348123
23598288 3 17257635146373596022
23598291 2 17968087668410263729
238 59 18125752043886052701
350125 39 17691393119201952176
3886686 26 17614596669288890744
4409770 3 16897108040883612174
6438718 38 17252309107573917891
81228 2 17332828525988016648
9981440 41 15727579525388864648

> <PUBCHEM_SHAPE_MULTIPOLES>
538.19
6.59
5.47
1.63
2.33
0.01
0.33
-0.01
2.35
-7.78
-0.81
2.43
0
0

> <PUBCHEM_SHAPE_SELFOVERLAP>
1207.354

> <PUBCHEM_SHAPE_VOLUME>
294.2

> <PUBCHEM_COORDINATE_TYPE>
2
5
10

$$$$

