17395319
  -OEChem-06241222493D

 41 41  0     0  0  0  0  0  0999 V2000
    0.1375    0.7543    0.9845 O   0  0  0  0  0  0  0  0  0  0  0  0
    4.2772    0.9846    0.3418 O   0  0  0  0  0  0  0  0  0  0  0  0
   -1.2479    0.4942   -0.8948 N   0  0  0  0  0  0  0  0  0  0  0  0
    2.2134    1.6425   -0.5001 N   0  0  0  0  0  0  0  0  0  0  0  0
    2.9700   -0.5810   -0.7201 N   0  0  0  0  0  0  0  0  0  0  0  0
   -2.4594    0.0218   -0.3362 C   0  0  0  0  0  0  0  0  0  0  0  0
   -3.1455    0.7971    0.5987 C   0  0  0  0  0  0  0  0  0  0  0  0
   -2.9679   -1.2189   -0.7212 C   0  0  0  0  0  0  0  0  0  0  0  0
    0.9850    1.2857   -1.2055 C   0  0  0  0  0  0  0  0  0  0  0  0
   -0.0727    0.8184   -0.2223 C   0  0  0  0  0  0  0  0  0  0  0  0
   -4.3401    0.3316    1.1484 C   0  0  0  0  0  0  0  0  0  0  0  0
   -4.1625   -1.6841   -0.1716 C   0  0  0  0  0  0  0  0  0  0  0  0
   -4.8486   -0.9089    0.7633 C   0  0  0  0  0  0  0  0  0  0  0  0
   -2.6263    2.1301    1.0313 C   0  0  0  0  0  0  0  0  0  0  0  0
   -2.2564   -2.0721   -1.7209 C   0  0  0  0  0  0  0  0  0  0  0  0
    3.2319    0.7039   -0.2523 C   0  0  0  0  0  0  0  0  0  0  0  0
    2.3192    3.0303   -0.0690 C   0  0  0  0  0  0  0  0  0  0  0  0
    3.9017   -1.6719   -0.5429 C   0  0  0  0  0  0  0  0  0  0  0  0
    3.6041   -2.3627    0.7463 C   0  0  0  0  0  0  0  0  0  0  0  0
    4.4872   -2.4949    1.7425 C   0  0  0  0  0  0  0  0  0  0  0  0
    1.1560    0.5364   -1.9823 H   0  0  0  0  0  0  0  0  0  0  0  0
    0.6092    2.1806   -1.7175 H   0  0  0  0  0  0  0  0  0  0  0  0
   -1.1235    0.2633   -1.8784 H   0  0  0  0  0  0  0  0  0  0  0  0
   -4.8850    0.9227    1.8798 H   0  0  0  0  0  0  0  0  0  0  0  0
   -4.5736   -2.6476   -0.4609 H   0  0  0  0  0  0  0  0  0  0  0  0
   -5.7785   -1.2713    1.1916 H   0  0  0  0  0  0  0  0  0  0  0  0
   -1.9107    2.0189    1.8507 H   0  0  0  0  0  0  0  0  0  0  0  0
   -2.1651    2.6823    0.2065 H   0  0  0  0  0  0  0  0  0  0  0  0
   -3.4441    2.7646    1.3933 H   0  0  0  0  0  0  0  0  0  0  0  0
   -2.2760   -1.5998   -2.7085 H   0  0  0  0  0  0  0  0  0  0  0  0
   -1.2171   -2.2390   -1.4185 H   0  0  0  0  0  0  0  0  0  0  0  0
   -2.7226   -3.0587   -1.8183 H   0  0  0  0  0  0  0  0  0  0  0  0
    1.4672    3.2744    0.5717 H   0  0  0  0  0  0  0  0  0  0  0  0
    3.2440    3.1997    0.4882 H   0  0  0  0  0  0  0  0  0  0  0  0
    2.3141    3.6755   -0.9522 H   0  0  0  0  0  0  0  0  0  0  0  0
    2.0586   -0.8344   -1.0778 H   0  0  0  0  0  0  0  0  0  0  0  0
    4.9277   -1.2908   -0.5821 H   0  0  0  0  0  0  0  0  0  0  0  0
    3.7594   -2.3654   -1.3775 H   0  0  0  0  0  0  0  0  0  0  0  0
    2.6138   -2.7941    0.8704 H   0  0  0  0  0  0  0  0  0  0  0  0
    4.2132   -3.0147    2.6541 H   0  0  0  0  0  0  0  0  0  0  0  0
    5.4903   -2.0898    1.6689 H   0  0  0  0  0  0  0  0  0  0  0  0
  1 10  2  0  0  0  0
  2 16  2  0  0  0  0
  3  6  1  0  0  0  0
  3 10  1  0  0  0  0
  3 23  1  0  0  0  0
  4  9  1  0  0  0  0
  4 16  1  0  0  0  0
  4 17  1  0  0  0  0
  5 16  1  0  0  0  0
  5 18  1  0  0  0  0
  5 36  1  0  0  0  0
  6  7  2  0  0  0  0
  6  8  1  0  0  0  0
  7 11  1  0  0  0  0
  7 14  1  0  0  0  0
  8 12  2  0  0  0  0
  8 15  1  0  0  0  0
  9 10  1  0  0  0  0
  9 21  1  0  0  0  0
  9 22  1  0  0  0  0
 11 13  2  0  0  0  0
 11 24  1  0  0  0  0
 12 13  1  0  0  0  0
 12 25  1  0  0  0  0
 13 26  1  0  0  0  0
 14 27  1  0  0  0  0
 14 28  1  0  0  0  0
 14 29  1  0  0  0  0
 15 30  1  0  0  0  0
 15 31  1  0  0  0  0
 15 32  1  0  0  0  0
 17 33  1  0  0  0  0
 17 34  1  0  0  0  0
 17 35  1  0  0  0  0
 18 19  1  0  0  0  0
 18 37  1  0  0  0  0
 18 38  1  0  0  0  0
 19 20  2  0  0  0  0
 19 39  1  0  0  0  0
 20 40  1  0  0  0  0
 20 41  1  0  0  0  0
M  END
> <PUBCHEM_COMPOUND_CID>
17395319

> <PUBCHEM_CONFORMER_RMSD>
0.8

> <PUBCHEM_CONFORMER_DIVERSEORDER>
1
11
65
35
82
107
102
83
150
110
123
32
69
40
149
155
115
74
139
147
36
61
73
91
17
100
62
97
112
136
161
98
79
130
157
154
156
148
12
146
2
94
125
134
43
5
81
72
128
111
23
68
20
106
84
19
118
57
38
132
31
116
22
104
60
18
85
15
67
151
135
133
21
103
96
145
126
48
121
28
37
124
158
47
3
66
87
50
95
25
9
152
153
78
117
80
122
88
101
90
45
92
113
142
16
137
70
77
127
51
33
71
34
109
54
29
64
10
160
143
120
93
52
42
159
99
144
7
119
49
30
56
89
53
8
55
39
26
129
140
41
59
75
6
27
141
105
58
44
14
86
108
76
114
138
131
63
46
24
4
13

> <PUBCHEM_MMFF94_PARTIAL_CHARGES>
28
1 -0.57
10 0.57
11 -0.15
12 -0.15
13 -0.15
14 0.14
15 0.14
16 0.69
17 0.3
18 0.44
19 -0.29
2 -0.57
20 -0.3
23 0.37
24 0.15
25 0.15
26 0.15
3 -0.55
36 0.37
39 0.15
4 -0.66
40 0.15
41 0.15
5 -0.73
6 0.12
7 -0.14
8 -0.14
9 0.36

> <PUBCHEM_EFFECTIVE_ROTOR_COUNT>
8

> <PUBCHEM_PHARMACOPHORE_FEATURES>
6
1 1 acceptor
1 2 acceptor
1 20 hydrophobe
1 3 donor
1 5 donor
6 6 7 8 11 12 13 rings

> <PUBCHEM_HEAVY_ATOM_COUNT>
20

> <PUBCHEM_ATOM_DEF_STEREO_COUNT>
0

> <PUBCHEM_ATOM_UDEF_STEREO_COUNT>
0

> <PUBCHEM_BOND_DEF_STEREO_COUNT>
0

> <PUBCHEM_BOND_UDEF_STEREO_COUNT>
0

> <PUBCHEM_ISOTOPIC_ATOM_COUNT>
0

> <PUBCHEM_COMPONENT_COUNT>
1

> <PUBCHEM_CACTVS_TAUTO_COUNT>
4

> <PUBCHEM_CONFORMER_ID>
01096E7700000001

> <PUBCHEM_MMFF94_ENERGY>
61.1565

> <PUBCHEM_FEATURE_SELFOVERLAP>
30.446

> <PUBCHEM_SHAPE_FINGERPRINT>
10616163 171 18042680602954645575
12107183 9 18121491629428362937
12553582 1 18337955713746843894
12633257 1 17096071512313722499
12670546 56 18113620066876507205
12839892 36 17603583011347202159
13167823 11 18335696130903427884
13533116 47 18341325605184841099
13583140 156 17895210873653868768
14289901 80 18261952934064231257
14420673 8 18045766051604794814
15375462 189 18335421231611285780
15537594 2 18342165687840071126
17492 89 18334287665162154367
17780758 139 18117852211860065882
17818456 19 18115858771250927073
1813 80 17704347766784473028
19050596 39 18188486848519798829
20281475 54 18272366503570315140
20645477 70 17560803191273837132
21033648 29 15357694236090530104
212916 134 16660636389084426247
21421861 104 18335695048893390370
2255824 54 18198336261208120676
23402539 116 17603582985972588597
23503953 91 17967818270660283734
235170 7 14907890630864983010
23559900 14 17314487357581782381
351380 3 18341608269904961542
5104073 3 18335133215594783769
56633871 153 18118407481985408311
573450 72 18040149617824598219
6823239 73 17750212821149050670
7064713 232 17822012055175972215
7097593 13 18334294262331686548

> <PUBCHEM_SHAPE_MULTIPOLES>
384.91
10.54
2.99
1.36
1.29
0.15
0.06
-5.44
3.26
2.65
0.3
-0.03
-0.55
-2.16

> <PUBCHEM_SHAPE_SELFOVERLAP>
780.125

> <PUBCHEM_SHAPE_VOLUME>
224.2

> <PUBCHEM_COORDINATE_TYPE>
2
5
10

$$$$

