17396246
  -OEChem-06241222553D

 43 44  0     0  0  0  0  0  0999 V2000
    3.4099    1.0363    0.8756 O   0  0  0  0  0  0  0  0  0  0  0  0
   -0.1107   -2.2885   -0.7112 O   0  0  0  0  0  0  0  0  0  0  0  0
   -6.3299    1.1770    0.1719 O   0  0  0  0  0  0  0  0  0  0  0  0
    1.1872   -0.4901    0.0548 N   0  0  0  0  0  0  0  0  0  0  0  0
   -4.8462   -0.6552    0.1891 N   0  0  0  0  0  0  0  0  0  0  0  0
    2.4949   -1.0342    0.0795 C   0  0  0  0  0  0  0  0  0  0  0  0
    3.5800   -0.2599    0.4898 C   0  0  0  0  0  0  0  0  0  0  0  0
    4.1104    2.0306    0.1314 C   0  0  0  0  0  0  0  0  0  0  0  0
    3.3152    3.3265    0.1723 C   0  0  0  0  0  0  0  0  0  0  0  0
   -1.2028   -0.2826   -0.2692 C   0  0  0  0  0  0  0  0  0  0  0  0
   -0.0104   -1.1132   -0.3234 C   0  0  0  0  0  0  0  0  0  0  0  0
    2.6913   -2.3588   -0.3109 C   0  0  0  0  0  0  0  0  0  0  0  0
   -2.4525   -0.8678   -0.0659 C   0  0  0  0  0  0  0  0  0  0  0  0
   -3.5959   -0.0706   -0.0148 C   0  0  0  0  0  0  0  0  0  0  0  0
    4.8617   -0.8101    0.5095 C   0  0  0  0  0  0  0  0  0  0  0  0
   -1.0965    1.0997   -0.4217 C   0  0  0  0  0  0  0  0  0  0  0  0
    3.9728   -2.9093   -0.2910 C   0  0  0  0  0  0  0  0  0  0  0  0
    3.9956    4.4318   -0.6152 C   0  0  0  0  0  0  0  0  0  0  0  0
    5.0580   -2.1348    0.1193 C   0  0  0  0  0  0  0  0  0  0  0  0
   -3.4895    1.3119   -0.1673 C   0  0  0  0  0  0  0  0  0  0  0  0
   -2.2398    1.8971   -0.3707 C   0  0  0  0  0  0  0  0  0  0  0  0
   -6.0941   -0.0229    0.2694 C   0  0  0  0  0  0  0  0  0  0  0  0
   -7.2087   -1.0128    0.4986 C   0  0  0  0  0  0  0  0  0  0  0  0
    4.2433    1.7136   -0.9112 H   0  0  0  0  0  0  0  0  0  0  0  0
    5.0984    2.1787    0.5819 H   0  0  0  0  0  0  0  0  0  0  0  0
    3.1771    3.6408    1.2137 H   0  0  0  0  0  0  0  0  0  0  0  0
    2.3082    3.1523   -0.2256 H   0  0  0  0  0  0  0  0  0  0  0  0
    1.1481    0.4667    0.3955 H   0  0  0  0  0  0  0  0  0  0  0  0
    1.9075   -3.0246   -0.6409 H   0  0  0  0  0  0  0  0  0  0  0  0
   -2.5421   -1.9448    0.0590 H   0  0  0  0  0  0  0  0  0  0  0  0
    5.7159   -0.2228    0.8349 H   0  0  0  0  0  0  0  0  0  0  0  0
   -0.1516    1.5970   -0.6203 H   0  0  0  0  0  0  0  0  0  0  0  0
    4.1273   -3.9409   -0.5941 H   0  0  0  0  0  0  0  0  0  0  0  0
    4.9899    4.6465   -0.2108 H   0  0  0  0  0  0  0  0  0  0  0  0
    4.1052    4.1532   -1.6681 H   0  0  0  0  0  0  0  0  0  0  0  0
    3.4036    5.3511   -0.5673 H   0  0  0  0  0  0  0  0  0  0  0  0
    6.0555   -2.5640    0.1366 H   0  0  0  0  0  0  0  0  0  0  0  0
   -4.3280    1.9936   -0.1416 H   0  0  0  0  0  0  0  0  0  0  0  0
   -2.1573    2.9726   -0.4982 H   0  0  0  0  0  0  0  0  0  0  0  0
   -4.8408   -1.6680    0.2914 H   0  0  0  0  0  0  0  0  0  0  0  0
   -8.1623   -0.4844    0.5826 H   0  0  0  0  0  0  0  0  0  0  0  0
   -7.2615   -1.7106   -0.3418 H   0  0  0  0  0  0  0  0  0  0  0  0
   -7.0283   -1.5672    1.4238 H   0  0  0  0  0  0  0  0  0  0  0  0
  1  7  1  0  0  0  0
  1  8  1  0  0  0  0
  2 11  2  0  0  0  0
  3 22  2  0  0  0  0
  4  6  1  0  0  0  0
  4 11  1  0  0  0  0
  4 28  1  0  0  0  0
  5 14  1  0  0  0  0
  5 22  1  0  0  0  0
  5 40  1  0  0  0  0
  6  7  1  0  0  0  0
  6 12  2  0  0  0  0
  7 15  2  0  0  0  0
  8  9  1  0  0  0  0
  8 24  1  0  0  0  0
  8 25  1  0  0  0  0
  9 18  1  0  0  0  0
  9 26  1  0  0  0  0
  9 27  1  0  0  0  0
 10 11  1  0  0  0  0
 10 13  2  0  0  0  0
 10 16  1  0  0  0  0
 12 17  1  0  0  0  0
 12 29  1  0  0  0  0
 13 14  1  0  0  0  0
 13 30  1  0  0  0  0
 14 20  2  0  0  0  0
 15 19  1  0  0  0  0
 15 31  1  0  0  0  0
 16 21  2  0  0  0  0
 16 32  1  0  0  0  0
 17 19  2  0  0  0  0
 17 33  1  0  0  0  0
 18 34  1  0  0  0  0
 18 35  1  0  0  0  0
 18 36  1  0  0  0  0
 19 37  1  0  0  0  0
 20 21  1  0  0  0  0
 20 38  1  0  0  0  0
 21 39  1  0  0  0  0
 22 23  1  0  0  0  0
 23 41  1  0  0  0  0
 23 42  1  0  0  0  0
 23 43  1  0  0  0  0
M  END
> <PUBCHEM_COMPOUND_CID>
17396246

> <PUBCHEM_CONFORMER_RMSD>
0.8

> <PUBCHEM_CONFORMER_DIVERSEORDER>
2
51
52
86
4
122
47
68
87
129
141
56
80
134
119
27
20
54
107
95
29
124
101
70
121
57
90
115
81
31
109
18
88
92
67
145
59
13
61
140
135
84
93
105
21
94
58
137
114
110
131
130
123
97
127
78
139
71
98
53
144
22
64
11
143
102
118
96
99
66
117
104
26
49
111
62
28
136
132
138
103
106
82
63
33
125
30
42
37
79
46
116
41
120
128
19
72
75
17
15
91
74
24
108
83
142
113
38
50
100
112
65
69
55
43
45
85
76
36
44
32
89
6
25
23
16
73
77
126
48
12
34
35
40
10
14
3
133
60
39
1
5
9
7
8

> <PUBCHEM_MMFF94_PARTIAL_CHARGES>
31
1 -0.36
10 0.09
11 0.54
12 -0.15
13 -0.15
14 0.12
15 -0.15
16 -0.15
17 -0.15
19 -0.15
2 -0.57
20 -0.15
21 -0.15
22 0.57
23 0.06
28 0.37
29 0.15
3 -0.57
30 0.15
31 0.15
32 0.15
33 0.15
37 0.15
38 0.15
39 0.15
4 -0.55
40 0.37
5 -0.55
6 0.12
7 0.08
8 0.28

> <PUBCHEM_EFFECTIVE_ROTOR_COUNT>
8

> <PUBCHEM_PHARMACOPHORE_FEATURES>
8
1 1 acceptor
1 18 hydrophobe
1 2 acceptor
1 3 acceptor
1 4 donor
1 5 donor
6 10 13 14 16 20 21 rings
6 6 7 12 15 17 19 rings

> <PUBCHEM_HEAVY_ATOM_COUNT>
23

> <PUBCHEM_ATOM_DEF_STEREO_COUNT>
0

> <PUBCHEM_ATOM_UDEF_STEREO_COUNT>
0

> <PUBCHEM_BOND_DEF_STEREO_COUNT>
0

> <PUBCHEM_BOND_UDEF_STEREO_COUNT>
0

> <PUBCHEM_ISOTOPIC_ATOM_COUNT>
0

> <PUBCHEM_COMPONENT_COUNT>
1

> <PUBCHEM_CACTVS_TAUTO_COUNT>
4

> <PUBCHEM_CONFORMER_ID>
0109721600000002

> <PUBCHEM_MMFF94_ENERGY>
75.4746

> <PUBCHEM_FEATURE_SELFOVERLAP>
40.594

> <PUBCHEM_SHAPE_FINGERPRINT>
10366900 7 17631725092694826314
10411042 1 18122062268159480290
10483366 6 18340189823429280012
10937287 8 17834958573403519332
11014199 57 18192427696253263352
11045977 3 18201996629668598315
11724838 91 18187092736532159350
12166972 35 18187646950838170336
12403259 226 18126852813923564828
12616971 3 17894922836151142303
12788726 201 17385710396709248945
13533116 47 18411979152522249021
13583140 156 17702129012602130390
138480 1 18410858798172968740
14114211 68 18196636416369034180
14251764 75 18051691036673805012
14341114 176 18334013934232543474
14790565 3 17619343208797641988
15348495 7 18343294852127696443
15419008 91 17703524199386467053
15475509 35 16845027796234499962
16120349 18 18408887344075762145
16760501 71 18410856525338378888
17844677 252 18336823190915813593
18222031 100 16988555836073643455
18785283 64 18412830162365180928
19427546 62 18339361851653604210
21049683 271 18339073896209008446
21267235 1 18262797492755696606
21315763 129 18338237184233193577
21315764 268 18342742935607440189
21365058 113 18263910211518028758
21792934 111 18410018771315501033
23402539 116 18341897428905056567
23559900 14 18412548746784854523
239999 70 18409729594929821418
350125 39 18409729590470882068
397830 11 18058721396015690579
46194498 28 18413672426663148956
5104073 3 18191593162157567251
53794403 172 18340765936639441444
9999458 23 18413672422405338894

> <PUBCHEM_SHAPE_MULTIPOLES>
445.76
15.31
3.87
0.73
21.93
3.72
0
-0.54
-2.64
-8.06
0.7
-0.17
0.03
0.15

> <PUBCHEM_SHAPE_SELFOVERLAP>
936.477

> <PUBCHEM_SHAPE_VOLUME>
250.4

> <PUBCHEM_COORDINATE_TYPE>
2
5
10

$$$$

