9808
  -OEChem-06261204053D

 14 14  0     0  0  0  0  0  0999 V2000
    2.7219   -1.4406   -0.4944 Cl  0  0  0  0  0  0  0  0  0  0  0  0
    0.0951    2.1725   -0.2285 F   0  0  0  0  0  0  0  0  0  0  0  0
    2.2536    0.9327    0.5274 O   0  0  0  0  0  0  0  0  0  0  0  0
    0.2616   -0.1810    0.0499 C   0  0  0  0  0  0  0  0  0  0  0  0
   -0.4998    0.9771   -0.1070 C   0  0  0  0  0  0  0  0  0  0  0  0
   -0.3693   -1.4187    0.1757 C   0  0  0  0  0  0  0  0  0  0  0  0
   -1.8920    0.8977   -0.1379 C   0  0  0  0  0  0  0  0  0  0  0  0
   -1.7616   -1.4982    0.1447 C   0  0  0  0  0  0  0  0  0  0  0  0
   -2.5229   -0.3400   -0.0121 C   0  0  0  0  0  0  0  0  0  0  0  0
    1.7135   -0.1015    0.0822 C   0  0  0  0  0  0  0  0  0  0  0  0
    0.1939   -2.3370    0.3144 H   0  0  0  0  0  0  0  0  0  0  0  0
   -2.4846    1.7996   -0.2597 H   0  0  0  0  0  0  0  0  0  0  0  0
   -2.2534   -2.4613    0.2463 H   0  0  0  0  0  0  0  0  0  0  0  0
   -3.6070   -0.4017   -0.0353 H   0  0  0  0  0  0  0  0  0  0  0  0
  1 10  1  0  0  0  0
  2  5  1  0  0  0  0
  3 10  2  0  0  0  0
  4  5  1  0  0  0  0
  4  6  2  0  0  0  0
  4 10  1  0  0  0  0
  5  7  2  0  0  0  0
  6  8  1  0  0  0  0
  6 11  1  0  0  0  0
  7  9  1  0  0  0  0
  7 12  1  0  0  0  0
  8  9  2  0  0  0  0
  8 13  1  0  0  0  0
  9 14  1  0  0  0  0
M  END
> <PUBCHEM_COMPOUND_CID>
9808

> <PUBCHEM_CONFORMER_RMSD>
0.4

> <PUBCHEM_CONFORMER_DIVERSEORDER>
2
6
3
1
4
5

> <PUBCHEM_MMFF94_PARTIAL_CHARGES>
14
1 -0.21
10 0.69
11 0.15
12 0.15
13 0.15
14 0.15
2 -0.19
3 -0.57
4 0.09
5 0.19
6 -0.15
7 -0.15
8 -0.15
9 -0.15

> <PUBCHEM_EFFECTIVE_ROTOR_COUNT>
1

> <PUBCHEM_PHARMACOPHORE_FEATURES>
1
6 4 5 6 7 8 9 rings

> <PUBCHEM_HEAVY_ATOM_COUNT>
10

> <PUBCHEM_ATOM_DEF_STEREO_COUNT>
0

> <PUBCHEM_ATOM_UDEF_STEREO_COUNT>
0

> <PUBCHEM_BOND_DEF_STEREO_COUNT>
0

> <PUBCHEM_BOND_UDEF_STEREO_COUNT>
0

> <PUBCHEM_ISOTOPIC_ATOM_COUNT>
0

> <PUBCHEM_COMPONENT_COUNT>
1

> <PUBCHEM_CACTVS_TAUTO_COUNT>
1

> <PUBCHEM_CONFORMER_ID>
0000265000000002

> <PUBCHEM_MMFF94_ENERGY>
24.4455

> <PUBCHEM_FEATURE_SELFOVERLAP>
5.074

> <PUBCHEM_SHAPE_FINGERPRINT>
10857977 72 18267879297410905953
12032990 46 18412255151737663987
12524768 44 18409452466216907890
12716758 59 18341897440977269683
16945 1 18194399987751865631
20201158 50 18188208826918392278
21040471 1 18269559505934146029
23552423 10 18273210889618952790
23559900 14 18047191045467575862
241688 4 18339640139252365313
2748010 2 18411422816797247647
29004967 10 18337952272944880290
369184 2 14996576138880125470
5084963 1 18187931749713470290

> <PUBCHEM_SHAPE_MULTIPOLES>
194.52
3.59
1.86
0.66
1.28
0.29
-0.01
-0.9
-0.21
-0.03
-0.05
0.1
-0.03
0.35

> <PUBCHEM_SHAPE_SELFOVERLAP>
399.617

> <PUBCHEM_SHAPE_VOLUME>
112.9

> <PUBCHEM_COORDINATE_TYPE>
2
5
10

$$$$

