5397
  -OEChem-06261200403D

 33 35  0     1  0  0  0  0  0999 V2000
    2.7748   -1.3916   -0.5283 S   0  0  0  0  0  0  0  0  0  0  0  0
    3.1408    2.6856    0.3341 S   0  0  0  0  0  0  0  0  0  0  0  0
    3.8069   -2.2416    0.0281 O   0  0  0  0  0  0  0  0  0  0  0  0
    2.4965   -1.3522   -1.9503 O   0  0  0  0  0  0  0  0  0  0  0  0
    0.1634    1.9460    0.2758 O   0  0  0  0  0  0  0  0  0  0  0  0
   -1.2847   -2.0089    0.1194 O   0  0  0  0  0  0  0  0  0  0  0  0
    1.2947   -1.5492    0.3586 N   0  0  2  0  0  0  0  0  0  0  0  0
   -1.8467    0.3166    0.0738 N   0  0  0  0  0  0  0  0  0  0  0  0
   -3.8748   -0.9296   -0.0269 N   0  0  0  0  0  0  0  0  0  0  0  0
    3.3112    0.2041   -0.2036 C   0  0  0  0  0  0  0  0  0  0  0  0
    0.4286   -0.4033    0.2026 C   0  0  0  0  0  0  0  0  0  0  0  0
    2.3877    1.1734    0.0969 C   0  0  0  0  0  0  0  0  0  0  0  0
    0.9511    1.0049    0.1948 C   0  0  0  0  0  0  0  0  0  0  0  0
    4.6439    0.6738   -0.2460 C   0  0  0  0  0  0  0  0  0  0  0  0
    1.4422   -2.0184    1.7705 C   0  0  0  0  0  0  0  0  0  0  0  0
   -0.8787   -0.6816    0.1450 C   0  0  0  0  0  0  0  0  0  0  0  0
    4.6968    2.0220    0.0388 C   0  0  0  0  0  0  0  0  0  0  0  0
   -3.2117    0.2756   -0.0219 C   0  0  0  0  0  0  0  0  0  0  0  0
   -3.9253    1.4860   -0.1137 C   0  0  0  0  0  0  0  0  0  0  0  0
   -5.3122    1.4608   -0.2103 C   0  0  0  0  0  0  0  0  0  0  0  0
   -5.2233   -0.9143   -0.1222 C   0  0  0  0  0  0  0  0  0  0  0  0
   -5.9812    0.2418   -0.2152 C   0  0  0  0  0  0  0  0  0  0  0  0
    5.5181    0.0775   -0.4725 H   0  0  0  0  0  0  0  0  0  0  0  0
    1.9074   -3.0085    1.7817 H   0  0  0  0  0  0  0  0  0  0  0  0
    2.0531   -1.3181    2.3487 H   0  0  0  0  0  0  0  0  0  0  0  0
    0.4670   -2.1127    2.2584 H   0  0  0  0  0  0  0  0  0  0  0  0
    5.5729    2.6535    0.0812 H   0  0  0  0  0  0  0  0  0  0  0  0
   -1.4722    1.2588    0.0881 H   0  0  0  0  0  0  0  0  0  0  0  0
   -0.4963   -2.5760    0.0763 H   0  0  0  0  0  0  0  0  0  0  0  0
   -3.4069    2.4412   -0.1101 H   0  0  0  0  0  0  0  0  0  0  0  0
   -5.8709    2.3892   -0.2816 H   0  0  0  0  0  0  0  0  0  0  0  0
   -5.6968   -1.8904   -0.1218 H   0  0  0  0  0  0  0  0  0  0  0  0
   -7.0616    0.1981   -0.2896 H   0  0  0  0  0  0  0  0  0  0  0  0
  1  3  2  0  0  0  0
  1  4  2  0  0  0  0
  1  7  1  0  0  0  0
  1 10  1  0  0  0  0
  2 12  1  0  0  0  0
  2 17  1  0  0  0  0
  5 13  2  0  0  0  0
  6 16  1  0  0  0  0
  6 29  1  0  0  0  0
  7 11  1  0  0  0  0
  7 15  1  0  0  0  0
  8 16  1  0  0  0  0
  8 18  1  0  0  0  0
  8 28  1  0  0  0  0
  9 18  1  0  0  0  0
  9 21  2  0  0  0  0
 10 12  2  0  0  0  0
 10 14  1  0  0  0  0
 11 13  1  0  0  0  0
 11 16  2  0  0  0  0
 12 13  1  0  0  0  0
 14 17  2  0  0  0  0
 14 23  1  0  0  0  0
 15 24  1  0  0  0  0
 15 25  1  0  0  0  0
 15 26  1  0  0  0  0
 17 27  1  0  0  0  0
 18 19  2  0  0  0  0
 19 20  1  0  0  0  0
 19 30  1  0  0  0  0
 20 22  2  0  0  0  0
 20 31  1  0  0  0  0
 21 22  1  0  0  0  0
 21 32  1  0  0  0  0
 22 33  1  0  0  0  0
M  END
> <PUBCHEM_COMPOUND_CID>
5397

> <PUBCHEM_CONFORMER_RMSD>
0.6

> <PUBCHEM_CONFORMER_DIVERSEORDER>
2
18
10
4
14
13
6
9
8
12
7
17
16
1
15
5
3
11

> <PUBCHEM_MMFF94_PARTIAL_CHARGES>
30
1 1.5
10 -0.06
11 0.21
12 -0.05
13 0.64
14 -0.15
15 0.36
16 0.18
17 -0.11
18 0.41
19 -0.15
2 -0.08
20 -0.15
21 0.16
22 -0.15
23 0.15
27 0.15
28 0.4
29 0.45
3 -0.65
30 0.15
31 0.15
32 0.15
33 0.15
4 -0.65
5 -0.57
6 -0.53
7 -0.68
8 -0.6
9 -0.62

> <PUBCHEM_EFFECTIVE_ROTOR_COUNT>
2.2

> <PUBCHEM_PHARMACOPHORE_FEATURES>
10
1 3 acceptor
1 4 acceptor
1 5 acceptor
1 6 donor
1 8 cation
1 8 donor
1 9 acceptor
5 2 10 12 14 17 rings
6 1 7 10 11 12 13 rings
6 9 18 19 20 21 22 rings

> <PUBCHEM_HEAVY_ATOM_COUNT>
22

> <PUBCHEM_ATOM_DEF_STEREO_COUNT>
0

> <PUBCHEM_ATOM_UDEF_STEREO_COUNT>
0

> <PUBCHEM_BOND_DEF_STEREO_COUNT>
0

> <PUBCHEM_BOND_UDEF_STEREO_COUNT>
1

> <PUBCHEM_ISOTOPIC_ATOM_COUNT>
0

> <PUBCHEM_COMPONENT_COUNT>
1

> <PUBCHEM_CACTVS_TAUTO_COUNT>
8

> <PUBCHEM_CONFORMER_ID>
0000151500000002

> <PUBCHEM_MMFF94_ENERGY>
68.4967

> <PUBCHEM_FEATURE_SELFOVERLAP>
50.836

> <PUBCHEM_SHAPE_FINGERPRINT>
10411042 1 17762620994236435602
10595046 47 18334016056283939429
10693767 8 17895747513386605038
11471102 20 18410011052631197536
12107183 9 17758672630985131601
12236239 1 17748824112008683609
12403259 415 18060142093877298197
12730499 353 18338227180985264610
12788726 201 17603861251970737849
13167823 11 18408889546919081935
14341114 176 18412538826201548561
14528608 73 18410576171717098909
15081414 286 18410284813762943685
15196674 1 18410856581589477157
15536298 74 18408604773053988521
17834072 33 18261114058611225069
17844677 252 18336539521432406153
20645477 70 18333729147609084110
21120745 212 16474893952521360818
21267235 1 18336820974269648535
21279426 13 18338799047364898957
21421861 104 17916599763869629160
21452121 103 18409456886186499328
221357 26 18334579057766750037
22182313 1 18195785428185223626
22289505 5 18334859441441946420
22393880 68 18270120252870116053
23402539 116 18334299725772784093
23402655 69 18260830393127398829
23559900 14 18334576888528619158
239999 70 18335699468378048590
29717793 49 18040720320373382725
3004659 81 18341330084862149894
335352 9 18411136927490780350
34797466 226 17822002086909994677
34934 24 18335143051111874486
3545911 37 18411418389261108209
4072396 5 18336275578749470992
4073 2 18130501947134984515
4214541 1 18409730694815664173
42630746 31 18409732859030554592
4340502 62 17132113550474286739
474 4 17988640748820954700
495365 180 17604156909156254488
4990 188 18334009523332681727
5104073 3 18342174488375306081
54040823 5 18113897161134145590
543358 83 18337388352429148353
5895379 119 17605831649663855344
633830 44 18341619161413899556
77779 3 18409730668982297037
8272917 22 18333446551941223908
90127 26 18341885334118440817
9709674 26 18409161082756037135
9999458 23 17988927743553093340

> <PUBCHEM_SHAPE_MULTIPOLES>
422.03
11.98
2.58
0.93
14.56
0.13
0.02
3.76
1.48
-2.39
-0.35
-0.64
-0.49
0.36

> <PUBCHEM_SHAPE_SELFOVERLAP>
894.474

> <PUBCHEM_SHAPE_VOLUME>
236

> <PUBCHEM_COORDINATE_TYPE>
2
5
10

$$$$

