17395817
  -OEChem-06241222522D

 48 51  0     0  0  0  0  0  0999 V2000
    5.5443   -4.0523    0.0000 O   0  0  0  0  0  0  0  0  0  0  0  0
    7.5013   -2.0304    0.0000 O   0  0  0  0  0  0  0  0  0  0  0  0
    8.5310    0.7835    0.0000 N   0  0  0  0  0  0  0  0  0  0  0  0
    7.1441   -0.3356    0.0000 N   0  0  0  0  0  0  0  0  0  0  0  0
    9.5253    0.6772    0.0000 N   0  0  0  0  0  0  0  0  0  0  0  0
    4.5981   -2.7476    0.0000 C   0  0  0  0  0  0  0  0  0  0  0  0
    5.5443   -2.4428    0.0000 C   0  0  0  0  0  0  0  0  0  0  0  0
    4.5981   -3.7476    0.0000 C   0  0  0  0  0  0  0  0  0  0  0  0
    5.8550   -1.4923    0.0000 C   0  0  0  0  0  0  0  0  0  0  0  0
    2.8660   -2.7476    0.0000 C   0  0  0  0  0  0  0  0  0  0  0  0
    3.7320   -2.2476    0.0000 C   0  0  0  0  0  0  0  0  0  0  0  0
    2.8660   -3.7476    0.0000 C   0  0  0  0  0  0  0  0  0  0  0  0
    3.7320   -4.2476    0.0000 C   0  0  0  0  0  0  0  0  0  0  0  0
    6.1279   -3.2476    0.0000 C   0  0  0  0  0  0  0  0  0  0  0  0
    6.8335   -1.2861    0.0000 C   0  0  0  0  0  0  0  0  0  0  0  0
    8.1226   -0.1294    0.0000 C   0  0  0  0  0  0  0  0  0  0  0  0
    8.0325    1.6504    0.0000 C   0  0  0  0  0  0  0  0  0  0  0  0
    2.0000   -2.2476    0.0000 C   0  0  0  0  0  0  0  0  0  0  0  0
    2.0000   -4.2476    0.0000 C   0  0  0  0  0  0  0  0  0  0  0  0
    8.5340    2.5155    0.0000 C   0  0  0  0  0  0  0  0  0  0  0  0
    8.8646   -0.7998    0.0000 C   0  0  0  0  0  0  0  0  0  0  0  0
    9.7315   -0.3013    0.0000 C   0  0  0  0  0  0  0  0  0  0  0  0
    8.0355    3.3824    0.0000 C   0  0  0  0  0  0  0  0  0  0  0  0
    9.5340    2.5138    0.0000 C   0  0  0  0  0  0  0  0  0  0  0  0
    8.5369    4.2476    0.0000 C   0  0  0  0  0  0  0  0  0  0  0  0
   10.0354    3.3790    0.0000 C   0  0  0  0  0  0  0  0  0  0  0  0
    9.5369    4.2458    0.0000 C   0  0  0  0  0  0  0  0  0  0  0  0
    5.8344   -0.8727    0.0000 H   0  0  0  0  0  0  0  0  0  0  0  0
    5.2411   -1.4050    0.0000 H   0  0  0  0  0  0  0  0  0  0  0  0
    3.7320   -1.6276    0.0000 H   0  0  0  0  0  0  0  0  0  0  0  0
    3.7320   -4.8676    0.0000 H   0  0  0  0  0  0  0  0  0  0  0  0
    6.7479   -3.2476    0.0000 H   0  0  0  0  0  0  0  0  0  0  0  0
    7.5582    2.0497    0.0000 H   0  0  0  0  0  0  0  0  0  0  0  0
    7.5568    1.2527    0.0000 H   0  0  0  0  0  0  0  0  0  0  0  0
    6.7301    0.1259    0.0000 H   0  0  0  0  0  0  0  0  0  0  0  0
    2.3100   -1.7106    0.0000 H   0  0  0  0  0  0  0  0  0  0  0  0
    1.4631   -1.9376    0.0000 H   0  0  0  0  0  0  0  0  0  0  0  0
    1.6900   -2.7845    0.0000 H   0  0  0  0  0  0  0  0  0  0  0  0
    1.6900   -3.7106    0.0000 H   0  0  0  0  0  0  0  0  0  0  0  0
    1.4631   -4.5576    0.0000 H   0  0  0  0  0  0  0  0  0  0  0  0
    2.3100   -4.7845    0.0000 H   0  0  0  0  0  0  0  0  0  0  0  0
    8.7987   -1.4163    0.0000 H   0  0  0  0  0  0  0  0  0  0  0  0
   10.2975   -0.5544    0.0000 H   0  0  0  0  0  0  0  0  0  0  0  0
    7.4154    3.3835    0.0000 H   0  0  0  0  0  0  0  0  0  0  0  0
    9.8430    1.9763    0.0000 H   0  0  0  0  0  0  0  0  0  0  0  0
    8.2279    4.7850    0.0000 H   0  0  0  0  0  0  0  0  0  0  0  0
   10.6554    3.3779    0.0000 H   0  0  0  0  0  0  0  0  0  0  0  0
    9.8479    4.7822    0.0000 H   0  0  0  0  0  0  0  0  0  0  0  0
  1  8  1  0  0  0  0
  1 14  1  0  0  0  0
  2 15  2  0  0  0  0
  3  5  1  0  0  0  0
  3 16  1  0  0  0  0
  3 17  1  0  0  0  0
  4 15  1  0  0  0  0
  4 16  1  0  0  0  0
  4 35  1  0  0  0  0
  5 22  2  0  0  0  0
  6  7  1  0  0  0  0
  6  8  2  0  0  0  0
  6 11  1  0  0  0  0
  7  9  1  0  0  0  0
  7 14  2  0  0  0  0
  8 13  1  0  0  0  0
  9 15  1  0  0  0  0
  9 28  1  0  0  0  0
  9 29  1  0  0  0  0
 10 11  2  0  0  0  0
 10 12  1  0  0  0  0
 10 18  1  0  0  0  0
 11 30  1  0  0  0  0
 12 13  2  0  0  0  0
 12 19  1  0  0  0  0
 13 31  1  0  0  0  0
 14 32  1  0  0  0  0
 16 21  2  0  0  0  0
 17 20  1  0  0  0  0
 17 33  1  0  0  0  0
 17 34  1  0  0  0  0
 18 36  1  0  0  0  0
 18 37  1  0  0  0  0
 18 38  1  0  0  0  0
 19 39  1  0  0  0  0
 19 40  1  0  0  0  0
 19 41  1  0  0  0  0
 20 23  2  0  0  0  0
 20 24  1  0  0  0  0
 21 22  1  0  0  0  0
 21 42  1  0  0  0  0
 22 43  1  0  0  0  0
 23 25  1  0  0  0  0
 23 44  1  0  0  0  0
 24 26  2  0  0  0  0
 24 45  1  0  0  0  0
 25 27  2  0  0  0  0
 25 46  1  0  0  0  0
 26 27  1  0  0  0  0
 26 47  1  0  0  0  0
 27 48  1  0  0  0  0
M  END
> <PUBCHEM_COMPOUND_CID>
17395817

> <PUBCHEM_COMPOUND_CANONICALIZED>
1

> <PUBCHEM_CACTVS_COMPLEXITY>
508

> <PUBCHEM_CACTVS_HBOND_ACCEPTOR>
3

> <PUBCHEM_CACTVS_HBOND_DONOR>
1

> <PUBCHEM_CACTVS_ROTATABLE_BOND>
5

> <PUBCHEM_CACTVS_SUBSKEYS>
AAADceB7MAAAAAAAAAAAAAAAAAAAAWJAAAAwYAAAAAAAAEgB/AAAHgAYAAAADAThmgY/ttLIBECqArt39ACSDAMlogAd2CE+bNiMJrLE/VuGvSj83RPIqYe/3/Lu4AADAAAYAADAAAYAADAAAAAAAAAAAA==

> <PUBCHEM_IUPAC_OPENEYE_NAME>
N-(2-benzylpyrazol-3-yl)-2-(5,6-dimethylbenzofuran-3-yl)acetamide

> <PUBCHEM_IUPAC_CAS_NAME>
2-(5,6-dimethyl-3-benzofuranyl)-N-[2-(phenylmethyl)-3-pyrazolyl]acetamide

> <PUBCHEM_IUPAC_NAME>
N-(2-benzylpyrazol-3-yl)-2-(5,6-dimethyl-1-benzofuran-3-yl)acetamide

> <PUBCHEM_IUPAC_SYSTEMATIC_NAME>
2-(5,6-dimethyl-1-benzofuran-3-yl)-N-[2-(phenylmethyl)pyrazol-3-yl]ethanamide

> <PUBCHEM_IUPAC_TRADITIONAL_NAME>
N-(2-benzylpyrazol-3-yl)-2-(5,6-dimethylbenzofuran-3-yl)acetamide

> <PUBCHEM_IUPAC_INCHI>
InChI=1S/C22H21N3O2/c1-15-10-19-18(14-27-20(19)11-16(15)2)12-22(26)24-21-8-9-23-25(21)13-17-6-4-3-5-7-17/h3-11,14H,12-13H2,1-2H3,(H,24,26)

> <PUBCHEM_IUPAC_INCHIKEY>
QHKKRDMOOAHFAQ-UHFFFAOYSA-N

> <PUBCHEM_XLOGP3_AA>
4.1

> <PUBCHEM_EXACT_MASS>
359.163377

> <PUBCHEM_MOLECULAR_FORMULA>
C22H21N3O2

> <PUBCHEM_MOLECULAR_WEIGHT>
359.42104

> <PUBCHEM_OPENEYE_CAN_SMILES>
CC1=C(C=C2C(=C1)C(=CO2)CC(=O)NC3=CC=NN3CC4=CC=CC=C4)C

> <PUBCHEM_OPENEYE_ISO_SMILES>
CC1=C(C=C2C(=C1)C(=CO2)CC(=O)NC3=CC=NN3CC4=CC=CC=C4)C

> <PUBCHEM_CACTVS_TPSA>
60.1

> <PUBCHEM_MONOISOTOPIC_WEIGHT>
359.163377

> <PUBCHEM_TOTAL_CHARGE>
0

> <PUBCHEM_HEAVY_ATOM_COUNT>
27

> <PUBCHEM_ATOM_DEF_STEREO_COUNT>
0

> <PUBCHEM_ATOM_UDEF_STEREO_COUNT>
0

> <PUBCHEM_BOND_DEF_STEREO_COUNT>
0

> <PUBCHEM_BOND_UDEF_STEREO_COUNT>
0

> <PUBCHEM_ISOTOPIC_ATOM_COUNT>
0

> <PUBCHEM_COMPONENT_COUNT>
1

> <PUBCHEM_CACTVS_TAUTO_COUNT>
7

> <PUBCHEM_COORDINATE_TYPE>
1
5
255

> <PUBCHEM_BONDANNOTATIONS>
1  14  8
1  8  8
10  11  8
10  12  8
12  13  8
16  21  8
20  23  8
20  24  8
21  22  8
23  25  8
24  26  8
25  27  8
26  27  8
3  16  8
3  5  8
5  22  8
6  11  8
6  7  8
6  8  8
7  14  8
8  13  8

$$$$

