17395375
  -OEChem-06241222492D

 41 42  0     1  0  0  0  0  0999 V2000
    2.0000   -3.1012    0.0000 F   0  0  0  0  0  0  0  0  0  0  0  0
    4.5981    0.3988    0.0000 O   0  0  0  0  0  0  0  0  0  0  0  0
    6.3301    1.3988    0.0000 O   0  0  0  0  0  0  0  0  0  0  0  0
    7.4128    4.6012    0.0000 O   0  0  0  0  0  0  0  0  0  0  0  0
    2.8660    0.3988    0.0000 O   0  0  0  0  0  0  0  0  0  0  0  0
    3.7320   -4.1012    0.0000 O   0  0  0  0  0  0  0  0  0  0  0  0
    5.4641    2.8988    0.0000 N   0  0  0  0  0  0  0  0  0  0  0  0
    6.4347    4.3933    0.0000 N   0  0  0  0  0  0  0  0  0  0  0  0
    4.5981    1.3988    0.0000 C   0  0  3  0  0  0  0  0  0  0  0  0
    3.7320    1.8988    0.0000 C   0  0  0  0  0  0  0  0  0  0  0  0
    5.4641    1.8988    0.0000 C   0  0  0  0  0  0  0  0  0  0  0  0
    3.7320    2.8988    0.0000 C   0  0  0  0  0  0  0  0  0  0  0  0
    3.7320   -0.1012    0.0000 C   0  0  0  0  0  0  0  0  0  0  0  0
    3.7320   -1.1012    0.0000 C   0  0  0  0  0  0  0  0  0  0  0  0
    6.3301    3.3988    0.0000 C   0  0  0  0  0  0  0  0  0  0  0  0
    2.8660   -1.6012    0.0000 C   0  0  0  0  0  0  0  0  0  0  0  0
    4.5981   -1.6012    0.0000 C   0  0  0  0  0  0  0  0  0  0  0  0
    7.2437    2.9920    0.0000 C   0  0  0  0  0  0  0  0  0  0  0  0
    7.9128    3.7352    0.0000 C   0  0  0  0  0  0  0  0  0  0  0  0
    3.7320   -3.1012    0.0000 C   0  0  0  0  0  0  0  0  0  0  0  0
    2.8660   -2.6012    0.0000 C   0  0  0  0  0  0  0  0  0  0  0  0
    4.5981   -2.6012    0.0000 C   0  0  0  0  0  0  0  0  0  0  0  0
    8.9073    3.6307    0.0000 C   0  0  0  0  0  0  0  0  0  0  0  0
    4.5981   -4.6012    0.0000 C   0  0  0  0  0  0  0  0  0  0  0  0
    5.1350    1.0888    0.0000 H   0  0  0  0  0  0  0  0  0  0  0  0
    3.1215    2.0064    0.0000 H   0  0  0  0  0  0  0  0  0  0  0  0
    3.5200    1.3162    0.0000 H   0  0  0  0  0  0  0  0  0  0  0  0
    4.3520    2.8988    0.0000 H   0  0  0  0  0  0  0  0  0  0  0  0
    3.7320    3.5188    0.0000 H   0  0  0  0  0  0  0  0  0  0  0  0
    3.1120    2.8988    0.0000 H   0  0  0  0  0  0  0  0  0  0  0  0
    4.9272    3.2088    0.0000 H   0  0  0  0  0  0  0  0  0  0  0  0
    2.3291   -1.2912    0.0000 H   0  0  0  0  0  0  0  0  0  0  0  0
    5.1350   -1.2912    0.0000 H   0  0  0  0  0  0  0  0  0  0  0  0
    7.3726    2.3856    0.0000 H   0  0  0  0  0  0  0  0  0  0  0  0
    5.1350   -2.9112    0.0000 H   0  0  0  0  0  0  0  0  0  0  0  0
    8.8425    3.0141    0.0000 H   0  0  0  0  0  0  0  0  0  0  0  0
    9.5239    3.5659    0.0000 H   0  0  0  0  0  0  0  0  0  0  0  0
    8.9721    4.2473    0.0000 H   0  0  0  0  0  0  0  0  0  0  0  0
    4.2881   -5.1382    0.0000 H   0  0  0  0  0  0  0  0  0  0  0  0
    5.1350   -4.9112    0.0000 H   0  0  0  0  0  0  0  0  0  0  0  0
    4.9081   -4.0643    0.0000 H   0  0  0  0  0  0  0  0  0  0  0  0
  1 21  1  0  0  0  0
  2  9  1  0  0  0  0
  2 13  1  0  0  0  0
  3 11  2  0  0  0  0
  4  8  1  0  0  0  0
  4 19  1  0  0  0  0
  5 13  2  0  0  0  0
  6 20  1  0  0  0  0
  6 24  1  0  0  0  0
  7 11  1  0  0  0  0
  7 15  1  0  0  0  0
  7 31  1  0  0  0  0
  8 15  2  0  0  0  0
  9 10  1  0  0  0  0
  9 11  1  0  0  0  0
  9 25  1  0  0  0  0
 10 12  1  0  0  0  0
 10 26  1  0  0  0  0
 10 27  1  0  0  0  0
 12 28  1  0  0  0  0
 12 29  1  0  0  0  0
 12 30  1  0  0  0  0
 13 14  1  0  0  0  0
 14 16  2  0  0  0  0
 14 17  1  0  0  0  0
 15 18  1  0  0  0  0
 16 21  1  0  0  0  0
 16 32  1  0  0  0  0
 17 22  2  0  0  0  0
 17 33  1  0  0  0  0
 18 19  2  0  0  0  0
 18 34  1  0  0  0  0
 19 23  1  0  0  0  0
 20 21  2  0  0  0  0
 20 22  1  0  0  0  0
 22 35  1  0  0  0  0
 23 36  1  0  0  0  0
 23 37  1  0  0  0  0
 23 38  1  0  0  0  0
 24 39  1  0  0  0  0
 24 40  1  0  0  0  0
 24 41  1  0  0  0  0
M  END
> <PUBCHEM_COMPOUND_CID>
17395375

> <PUBCHEM_COMPOUND_CANONICALIZED>
1

> <PUBCHEM_CACTVS_COMPLEXITY>
450

> <PUBCHEM_CACTVS_HBOND_ACCEPTOR>
7

> <PUBCHEM_CACTVS_HBOND_DONOR>
1

> <PUBCHEM_CACTVS_ROTATABLE_BOND>
7

> <PUBCHEM_CACTVS_SUBSKEYS>
AAADceB7OQAAAAAAAAAAAAAAAAAAAWAAAAAwAAAAAAAAAAABwAAAHwAUAAAADBShmgozvpLQBACpAqPyegKCCAAlIgApmCF2bNqOJjrEvZ6HMahm1RvY6ceI7CzOIAAAAAAAAABAAAAAAAAAAAAAAAAAAA==

> <PUBCHEM_IUPAC_OPENEYE_NAME>
1-[(5-methylisoxazol-3-yl)carbamoyl]propyl 3-fluoro-4-methoxy-benzoate

> <PUBCHEM_IUPAC_CAS_NAME>
3-fluoro-4-methoxybenzoic acid [1-[(5-methyl-3-isoxazolyl)amino]-1-oxobutan-2-yl] ester

> <PUBCHEM_IUPAC_NAME>
[1-[(5-methyl-1,2-oxazol-3-yl)amino]-1-oxobutan-2-yl] 3-fluoro-4-methoxybenzoate

> <PUBCHEM_IUPAC_SYSTEMATIC_NAME>
[1-[(5-methyl-1,2-oxazol-3-yl)amino]-1-oxidanylidene-butan-2-yl] 3-fluoranyl-4-methoxy-benzoate

> <PUBCHEM_IUPAC_TRADITIONAL_NAME>
3-fluoro-4-methoxy-benzoic acid 1-[(5-methylisoxazol-3-yl)carbamoyl]propyl ester

> <PUBCHEM_IUPAC_INCHI>
InChI=1S/C16H17FN2O5/c1-4-12(15(20)18-14-7-9(2)24-19-14)23-16(21)10-5-6-13(22-3)11(17)8-10/h5-8,12H,4H2,1-3H3,(H,18,19,20)

> <PUBCHEM_IUPAC_INCHIKEY>
LMZJRFZDMVFYSR-UHFFFAOYSA-N

> <PUBCHEM_XLOGP3_AA>
2.9

> <PUBCHEM_EXACT_MASS>
336.11215

> <PUBCHEM_MOLECULAR_FORMULA>
C16H17FN2O5

> <PUBCHEM_MOLECULAR_WEIGHT>
336.314983

> <PUBCHEM_OPENEYE_CAN_SMILES>
CCC(C(=O)NC1=NOC(=C1)C)OC(=O)C2=CC(=C(C=C2)OC)F

> <PUBCHEM_OPENEYE_ISO_SMILES>
CCC(C(=O)NC1=NOC(=C1)C)OC(=O)C2=CC(=C(C=C2)OC)F

> <PUBCHEM_CACTVS_TPSA>
90.7

> <PUBCHEM_MONOISOTOPIC_WEIGHT>
336.11215

> <PUBCHEM_TOTAL_CHARGE>
0

> <PUBCHEM_HEAVY_ATOM_COUNT>
24

> <PUBCHEM_ATOM_DEF_STEREO_COUNT>
0

> <PUBCHEM_ATOM_UDEF_STEREO_COUNT>
1

> <PUBCHEM_BOND_DEF_STEREO_COUNT>
0

> <PUBCHEM_BOND_UDEF_STEREO_COUNT>
0

> <PUBCHEM_ISOTOPIC_ATOM_COUNT>
0

> <PUBCHEM_COMPONENT_COUNT>
1

> <PUBCHEM_CACTVS_TAUTO_COUNT>
10

> <PUBCHEM_COORDINATE_TYPE>
1
5
255

> <PUBCHEM_BONDANNOTATIONS>
14  16  8
14  17  8
15  18  8
16  21  8
17  22  8
18  19  8
20  21  8
20  22  8
4  19  8
4  8  8
8  15  8
9  10  3

$$$$

