17396291
  -OEChem-06241222553D

 39 42  0     1  0  0  0  0  0999 V2000
   -1.4597    2.9446    1.2255 S   0  0  0  0  0  0  0  0  0  0  0  0
   -1.6279   -2.3706    1.6719 S   0  0  0  0  0  0  0  0  0  0  0  0
    1.2983    1.9563    2.0185 O   0  0  0  0  0  0  0  0  0  0  0  0
   -3.8420    0.0533   -1.9998 O   0  0  0  0  0  0  0  0  0  0  0  0
    1.4361    1.0901   -0.1417 N   0  0  0  0  0  0  0  0  0  0  0  0
   -2.6899    1.2988   -0.4174 N   0  0  0  0  0  0  0  0  0  0  0  0
   -1.5514    0.3048    1.4346 N   0  0  0  0  0  0  0  0  0  0  0  0
    1.1127    1.0950   -1.5997 C   0  0  2  0  0  0  0  0  0  0  0  0
    1.4420   -0.3230   -2.1121 C   0  0  0  0  0  0  0  0  0  0  0  0
    2.3374   -0.8357   -1.0294 C   0  0  0  0  0  0  0  0  0  0  0  0
    2.2741   -0.0241    0.1065 C   0  0  0  0  0  0  0  0  0  0  0  0
    1.9507    2.1382   -2.3480 C   0  0  0  0  0  0  0  0  0  0  0  0
    1.0086    1.9947    0.8212 C   0  0  0  0  0  0  0  0  0  0  0  0
    3.0899   -1.9999   -1.0460 C   0  0  0  0  0  0  0  0  0  0  0  0
    2.9663   -0.3699    1.2577 C   0  0  0  0  0  0  0  0  0  0  0  0
    0.0937    3.0919    0.3324 C   0  0  0  0  0  0  0  0  0  0  0  0
    3.7997   -2.3459    0.1031 C   0  0  0  0  0  0  0  0  0  0  0  0
    3.7365   -1.5376    1.2467 C   0  0  0  0  0  0  0  0  0  0  0  0
   -1.9218    1.3377    0.7395 C   0  0  0  0  0  0  0  0  0  0  0  0
   -2.7607   -1.0566   -0.2171 C   0  0  0  0  0  0  0  0  0  0  0  0
   -1.9931   -0.8788    0.9218 C   0  0  0  0  0  0  0  0  0  0  0  0
   -3.1636    0.1143   -0.9801 C   0  0  0  0  0  0  0  0  0  0  0  0
   -3.0470   -2.4273   -0.4707 C   0  0  0  0  0  0  0  0  0  0  0  0
   -2.4893   -3.2505    0.4826 C   0  0  0  0  0  0  0  0  0  0  0  0
    0.0486    1.3002   -1.7522 H   0  0  0  0  0  0  0  0  0  0  0  0
    1.9237   -0.3257   -3.0943 H   0  0  0  0  0  0  0  0  0  0  0  0
    0.5347   -0.9367   -2.1480 H   0  0  0  0  0  0  0  0  0  0  0  0
    3.0232    1.9393   -2.2435 H   0  0  0  0  0  0  0  0  0  0  0  0
    1.7070    2.1323   -3.4155 H   0  0  0  0  0  0  0  0  0  0  0  0
    1.7742    3.1490   -1.9694 H   0  0  0  0  0  0  0  0  0  0  0  0
    3.1210   -2.6348   -1.9250 H   0  0  0  0  0  0  0  0  0  0  0  0
    2.9471    0.2336    2.1567 H   0  0  0  0  0  0  0  0  0  0  0  0
   -0.1148    3.0948   -0.7339 H   0  0  0  0  0  0  0  0  0  0  0  0
    0.5604    4.0525    0.5735 H   0  0  0  0  0  0  0  0  0  0  0  0
    4.3990   -3.2520    0.1168 H   0  0  0  0  0  0  0  0  0  0  0  0
    4.2924   -1.8231    2.1360 H   0  0  0  0  0  0  0  0  0  0  0  0
   -2.9163    2.1757   -0.8771 H   0  0  0  0  0  0  0  0  0  0  0  0
   -3.6296   -2.7964   -1.3050 H   0  0  0  0  0  0  0  0  0  0  0  0
   -2.5466   -4.3285    0.5374 H   0  0  0  0  0  0  0  0  0  0  0  0
  1 16  1  0  0  0  0
  1 19  1  0  0  0  0
  2 21  1  0  0  0  0
  2 24  1  0  0  0  0
  3 13  2  0  0  0  0
  4 22  2  0  0  0  0
  5  8  1  0  0  0  0
  5 11  1  0  0  0  0
  5 13  1  0  0  0  0
  6 19  1  0  0  0  0
  6 22  1  0  0  0  0
  6 37  1  0  0  0  0
  7 19  2  0  0  0  0
  7 21  1  0  0  0  0
  8  9  1  0  0  0  0
  8 12  1  0  0  0  0
  8 25  1  0  0  0  0
  9 10  1  0  0  0  0
  9 26  1  0  0  0  0
  9 27  1  0  0  0  0
 10 11  1  0  0  0  0
 10 14  2  0  0  0  0
 11 15  2  0  0  0  0
 12 28  1  0  0  0  0
 12 29  1  0  0  0  0
 12 30  1  0  0  0  0
 13 16  1  0  0  0  0
 14 17  1  0  0  0  0
 14 31  1  0  0  0  0
 15 18  1  0  0  0  0
 15 32  1  0  0  0  0
 16 33  1  0  0  0  0
 16 34  1  0  0  0  0
 17 18  2  0  0  0  0
 17 35  1  0  0  0  0
 18 36  1  0  0  0  0
 20 21  2  0  0  0  0
 20 22  1  0  0  0  0
 20 23  1  0  0  0  0
 23 24  2  0  0  0  0
 23 38  1  0  0  0  0
 24 39  1  0  0  0  0
M  END
> <PUBCHEM_COMPOUND_CID>
17396291

> <PUBCHEM_CONFORMER_RMSD>
0.8

> <PUBCHEM_CONFORMER_DIVERSEORDER>
1
197
153
203
104
210
71
26
147
201
48
97
184
51
158
22
186
39
137
135
139
115
189
110
215
2
165
38
121
3
44
56
47
221
202
144
145
58
129
21
222
41
140
105
128
52
83
179
142
73
53
118
226
187
192
62
50
34
94
171
79
214
93
54
169
29
4
116
20
75
9
92
157
19
64
69
57
8
160
141
127
84
35
91
228
101
61
194
67
146
100
49
170
40
55
148
205
130
24
123
196
14
120
27
209
42
109
113
131
161
12
181
78
149
166
5
119
138
220
208
102
43
195
193
108
185
32
216
7
159
13
37
122
218
168
219
30
25
28
6
191
155
103
132
211
23
136
59
206
204
117
198
88
225
126
134
45
95
190
175
183
178
177
180
143
172
154
164
74
63
106
207
224
217
107
72
17
66
31
46
152
10
87
156
188
98
76
223
18
133
167
124
173
163
227
213
112
125
96
77
199
33
11
82
86
176
60
174
212
200
150
182
162
68
111
80
99
89
36
151
114
16
70
65
15
85
81
90

> <PUBCHEM_MMFF94_PARTIAL_CHARGES>
30
1 -0.37
10 -0.14
11 0.12
13 0.57
14 -0.15
15 -0.15
16 0.29
17 -0.15
18 -0.15
19 0.65
2 -0.08
20 -0.09
21 0.17
22 0.72
23 -0.15
24 -0.11
3 -0.57
31 0.15
32 0.15
35 0.15
36 0.15
37 0.37
38 0.15
39 0.15
4 -0.57
5 -0.48
6 -0.49
7 -0.58
8 0.3
9 0.14

> <PUBCHEM_EFFECTIVE_ROTOR_COUNT>
4.6

> <PUBCHEM_PHARMACOPHORE_FEATURES>
7
1 3 acceptor
1 4 acceptor
1 6 donor
5 2 20 21 23 24 rings
5 5 8 9 10 11 rings
6 10 11 14 15 17 18 rings
6 6 7 19 20 21 22 rings

> <PUBCHEM_HEAVY_ATOM_COUNT>
24

> <PUBCHEM_ATOM_DEF_STEREO_COUNT>
0

> <PUBCHEM_ATOM_UDEF_STEREO_COUNT>
1

> <PUBCHEM_BOND_DEF_STEREO_COUNT>
0

> <PUBCHEM_BOND_UDEF_STEREO_COUNT>
0

> <PUBCHEM_ISOTOPIC_ATOM_COUNT>
0

> <PUBCHEM_COMPONENT_COUNT>
1

> <PUBCHEM_CACTVS_TAUTO_COUNT>
4

> <PUBCHEM_CONFORMER_ID>
0109724300000001

> <PUBCHEM_MMFF94_ENERGY>
60.9014

> <PUBCHEM_FEATURE_SELFOVERLAP>
35.687

> <PUBCHEM_SHAPE_FINGERPRINT>
10165383 225 11311490389323392391
11578080 2 17988656232769394748
12156800 1 15730723454613207615
12363563 72 18187365428274142071
12422481 6 16545237424884016848
12553582 1 18261939812885933043
12633257 1 17534624012758649842
12788726 201 18041825312190089601
128993 33 11167945753256291343
13083527 12 17386875857480550901
15664445 248 16624599646428621351
18981168 100 11527956612155804731
192875 21 18335147522093832151
20397935 3 18336537270521188480
20600515 1 18129400317945919436
20775530 9 18269552749893333703
21731516 1 17970323989040391049
23184049 29 18409444760945352370
23419403 2 17905935566201065788
23559900 14 18338251366262925096
23728640 28 18049428533484152435
238 59 17693368949897077234
3027735 51 17693676108909963623
35225 105 17688329179732606234
460360 51 18267861693305505739
5265222 85 17327990662479360830
81228 2 17898274250376783145

> <PUBCHEM_SHAPE_MULTIPOLES>
474.93
6.36
3.82
2.08
0.61
0.24
-0.54
-4.34
-0.89
-0.9
0.99
0.43
0.6
-0.41

> <PUBCHEM_SHAPE_SELFOVERLAP>
1019.781

> <PUBCHEM_SHAPE_VOLUME>
266.4

> <PUBCHEM_COORDINATE_TYPE>
2
5
10

$$$$

