47205661
  -OEChem-06241222592D

 42 43  0     1  0  0  0  0  0999 V2000
    3.7320    0.9827    0.0000 O   0  0  0  0  0  0  0  0  0  0  0  0
    4.5981   -2.5173    0.0000 O   0  0  0  0  0  0  0  0  0  0  0  0
    5.4641    0.9827    0.0000 N   0  0  0  0  0  0  0  0  0  0  0  0
    3.7320   -1.0173    0.0000 N   0  0  0  0  0  0  0  0  0  0  0  0
    5.4641    1.9827    0.0000 C   0  0  3  0  0  0  0  0  0  0  0  0
    4.5981    2.4827    0.0000 C   0  0  0  0  0  0  0  0  0  0  0  0
    4.5981    3.4827    0.0000 C   0  0  0  0  0  0  0  0  0  0  0  0
    6.3301    2.4827    0.0000 C   0  0  0  0  0  0  0  0  0  0  0  0
    5.4641    3.9827    0.0000 C   0  0  0  0  0  0  0  0  0  0  0  0
    6.3301    3.4827    0.0000 C   0  0  0  0  0  0  0  0  0  0  0  0
    7.2241    1.9480    0.0000 C   0  0  0  0  0  0  0  0  0  0  0  0
    7.2241    4.0173    0.0000 C   0  0  0  0  0  0  0  0  0  0  0  0
    4.5981    0.4827    0.0000 C   0  0  0  0  0  0  0  0  0  0  0  0
    8.1301    2.4618    0.0000 C   0  0  0  0  0  0  0  0  0  0  0  0
    8.1301    3.5035    0.0000 C   0  0  0  0  0  0  0  0  0  0  0  0
    4.5981   -0.5173    0.0000 C   0  0  0  0  0  0  0  0  0  0  0  0
    2.8660   -2.5173    0.0000 C   0  0  0  0  0  0  0  0  0  0  0  0
    3.7320   -2.0173    0.0000 C   0  0  0  0  0  0  0  0  0  0  0  0
    2.8660   -3.5173    0.0000 C   0  0  0  0  0  0  0  0  0  0  0  0
    2.0000   -4.0173    0.0000 C   0  0  0  0  0  0  0  0  0  0  0  0
    6.0010    1.6727    0.0000 H   0  0  0  0  0  0  0  0  0  0  0  0
    3.9875    2.5903    0.0000 H   0  0  0  0  0  0  0  0  0  0  0  0
    4.3860    1.9001    0.0000 H   0  0  0  0  0  0  0  0  0  0  0  0
    4.3860    4.0653    0.0000 H   0  0  0  0  0  0  0  0  0  0  0  0
    3.9875    3.3750    0.0000 H   0  0  0  0  0  0  0  0  0  0  0  0
    5.8626    4.4576    0.0000 H   0  0  0  0  0  0  0  0  0  0  0  0
    5.0656    4.4576    0.0000 H   0  0  0  0  0  0  0  0  0  0  0  0
    6.0010    0.6727    0.0000 H   0  0  0  0  0  0  0  0  0  0  0  0
    7.2169    1.3280    0.0000 H   0  0  0  0  0  0  0  0  0  0  0  0
    7.2169    4.6373    0.0000 H   0  0  0  0  0  0  0  0  0  0  0  0
    8.6659    2.1498    0.0000 H   0  0  0  0  0  0  0  0  0  0  0  0
    8.6659    3.8156    0.0000 H   0  0  0  0  0  0  0  0  0  0  0  0
    4.8101   -1.0999    0.0000 H   0  0  0  0  0  0  0  0  0  0  0  0
    5.2087   -0.4097    0.0000 H   0  0  0  0  0  0  0  0  0  0  0  0
    3.1951   -0.7073    0.0000 H   0  0  0  0  0  0  0  0  0  0  0  0
    2.6540   -1.9347    0.0000 H   0  0  0  0  0  0  0  0  0  0  0  0
    2.2554   -2.6250    0.0000 H   0  0  0  0  0  0  0  0  0  0  0  0
    3.0781   -4.0999    0.0000 H   0  0  0  0  0  0  0  0  0  0  0  0
    3.4766   -3.4097    0.0000 H   0  0  0  0  0  0  0  0  0  0  0  0
    1.6900   -3.4804    0.0000 H   0  0  0  0  0  0  0  0  0  0  0  0
    1.4631   -4.3273    0.0000 H   0  0  0  0  0  0  0  0  0  0  0  0
    2.3100   -4.5543    0.0000 H   0  0  0  0  0  0  0  0  0  0  0  0
  1 13  2  0  0  0  0
  2 18  2  0  0  0  0
  3  5  1  0  0  0  0
  3 13  1  0  0  0  0
  3 28  1  0  0  0  0
  4 16  1  0  0  0  0
  4 18  1  0  0  0  0
  4 35  1  0  0  0  0
  5  6  1  0  0  0  0
  5  8  1  0  0  0  0
  5 21  1  0  0  0  0
  6  7  1  0  0  0  0
  6 22  1  0  0  0  0
  6 23  1  0  0  0  0
  7  9  1  0  0  0  0
  7 24  1  0  0  0  0
  7 25  1  0  0  0  0
  8 10  1  0  0  0  0
  8 11  2  0  0  0  0
  9 10  1  0  0  0  0
  9 26  1  0  0  0  0
  9 27  1  0  0  0  0
 10 12  2  0  0  0  0
 11 14  1  0  0  0  0
 11 29  1  0  0  0  0
 12 15  1  0  0  0  0
 12 30  1  0  0  0  0
 13 16  1  0  0  0  0
 14 15  2  0  0  0  0
 14 31  1  0  0  0  0
 15 32  1  0  0  0  0
 16 33  1  0  0  0  0
 16 34  1  0  0  0  0
 17 18  1  0  0  0  0
 17 19  1  0  0  0  0
 17 36  1  0  0  0  0
 17 37  1  0  0  0  0
 19 20  1  0  0  0  0
 19 38  1  0  0  0  0
 19 39  1  0  0  0  0
 20 40  1  0  0  0  0
 20 41  1  0  0  0  0
 20 42  1  0  0  0  0
M  END
> <PUBCHEM_COMPOUND_CID>
47205661

> <PUBCHEM_COMPOUND_CANONICALIZED>
1

> <PUBCHEM_CACTVS_COMPLEXITY>
343

> <PUBCHEM_CACTVS_HBOND_ACCEPTOR>
2

> <PUBCHEM_CACTVS_HBOND_DONOR>
2

> <PUBCHEM_CACTVS_ROTATABLE_BOND>
5

> <PUBCHEM_CACTVS_SUBSKEYS>
AAADceB7MAAAAAAAAAAAAAAAAAAAAAAAAAAwYAAAAAAAAADBAAAAHgAQAAAADCjBmAQyAILAAACIAiFSEACCAAAgAAAIiIGIBIgIYDKAkTGUIAhglgCIiAcQgIAOgAAAAAAQAAAAAACAACQAAAAAAAAAAA==

> <PUBCHEM_IUPAC_OPENEYE_NAME>
N-[2-oxo-2-(tetralin-1-ylamino)ethyl]butanamide

> <PUBCHEM_IUPAC_CAS_NAME>
N-[2-oxo-2-(1,2,3,4-tetrahydronaphthalen-1-ylamino)ethyl]butanamide

> <PUBCHEM_IUPAC_NAME>
N-[2-oxo-2-(1,2,3,4-tetrahydronaphthalen-1-ylamino)ethyl]butanamide

> <PUBCHEM_IUPAC_SYSTEMATIC_NAME>
N-[2-oxidanylidene-2-(1,2,3,4-tetrahydronaphthalen-1-ylamino)ethyl]butanamide

> <PUBCHEM_IUPAC_TRADITIONAL_NAME>
N-[2-keto-2-(tetralin-1-ylamino)ethyl]butyramide

> <PUBCHEM_IUPAC_INCHI>
InChI=1S/C16H22N2O2/c1-2-6-15(19)17-11-16(20)18-14-10-5-8-12-7-3-4-9-13(12)14/h3-4,7,9,14H,2,5-6,8,10-11H2,1H3,(H,17,19)(H,18,20)

> <PUBCHEM_IUPAC_INCHIKEY>
CLOXGPJPDZCFBT-UHFFFAOYSA-N

> <PUBCHEM_XLOGP3_AA>
2

> <PUBCHEM_EXACT_MASS>
274.168128

> <PUBCHEM_MOLECULAR_FORMULA>
C16H22N2O2

> <PUBCHEM_MOLECULAR_WEIGHT>
274.35808

> <PUBCHEM_OPENEYE_CAN_SMILES>
CCCC(=O)NCC(=O)NC1CCCC2=CC=CC=C12

> <PUBCHEM_OPENEYE_ISO_SMILES>
CCCC(=O)NCC(=O)NC1CCCC2=CC=CC=C12

> <PUBCHEM_CACTVS_TPSA>
58.2

> <PUBCHEM_MONOISOTOPIC_WEIGHT>
274.168128

> <PUBCHEM_TOTAL_CHARGE>
0

> <PUBCHEM_HEAVY_ATOM_COUNT>
20

> <PUBCHEM_ATOM_DEF_STEREO_COUNT>
0

> <PUBCHEM_ATOM_UDEF_STEREO_COUNT>
1

> <PUBCHEM_BOND_DEF_STEREO_COUNT>
0

> <PUBCHEM_BOND_UDEF_STEREO_COUNT>
0

> <PUBCHEM_ISOTOPIC_ATOM_COUNT>
0

> <PUBCHEM_COMPONENT_COUNT>
1

> <PUBCHEM_CACTVS_TAUTO_COUNT>
4

> <PUBCHEM_COORDINATE_TYPE>
1
5
255

> <PUBCHEM_BONDANNOTATIONS>
10  12  8
11  14  8
12  15  8
14  15  8
5  3  3
8  10  8
8  11  8

$$$$

