47205469
  -OEChem-06241222593D

 43 44  0     0  0  0  0  0  0999 V2000
   -4.2196   -1.0597    0.1144 S   0  0  0  0  0  0  0  0  0  0  0  0
   -5.1845   -1.3602    1.1535 O   0  0  0  0  0  0  0  0  0  0  0  0
   -4.2279   -1.7791   -1.1443 O   0  0  0  0  0  0  0  0  0  0  0  0
    0.2946    2.4336    1.1101 O   0  0  0  0  0  0  0  0  0  0  0  0
   -1.8338    0.9407   -0.2328 N   0  0  0  0  0  0  0  0  0  0  0  0
    1.5694    1.1173   -0.3166 N   0  0  0  0  0  0  0  0  0  0  0  0
    2.7860    1.1146    0.4634 C   0  0  0  0  0  0  0  0  0  0  0  0
    4.2421   -1.4413   -0.0116 C   0  0  0  0  0  0  0  0  0  0  0  0
    2.7755   -0.0209    1.4898 C   0  0  0  0  0  0  0  0  0  0  0  0
    4.0235    1.0501   -0.4362 C   0  0  0  0  0  0  0  0  0  0  0  0
    4.2298   -0.3281   -1.0667 C   0  0  0  0  0  0  0  0  0  0  0  0
    2.9731   -1.3950    0.8487 C   0  0  0  0  0  0  0  0  0  0  0  0
   -3.0770    1.1638   -0.9908 C   0  0  0  0  0  0  0  0  0  0  0  0
   -1.5506   -0.4937   -0.0526 C   0  0  0  0  0  0  0  0  0  0  0  0
    4.3948   -2.8096   -0.6733 C   0  0  0  0  0  0  0  0  0  0  0  0
   -2.5936   -1.1819    0.8199 C   0  0  0  0  0  0  0  0  0  0  0  0
   -4.3080    0.6804   -0.2337 C   0  0  0  0  0  0  0  0  0  0  0  0
   -0.7109    1.5875   -0.9169 C   0  0  0  0  0  0  0  0  0  0  0  0
    0.4172    1.7818    0.0755 C   0  0  0  0  0  0  0  0  0  0  0  0
    2.8161    2.0645    1.0119 H   0  0  0  0  0  0  0  0  0  0  0  0
    5.1095   -1.2859    0.6439 H   0  0  0  0  0  0  0  0  0  0  0  0
    1.8383   -0.0185    2.0592 H   0  0  0  0  0  0  0  0  0  0  0  0
    3.9588    1.8058   -1.2283 H   0  0  0  0  0  0  0  0  0  0  0  0
    4.9098    1.2949    0.1633 H   0  0  0  0  0  0  0  0  0  0  0  0
    3.5840    0.1470    2.2129 H   0  0  0  0  0  0  0  0  0  0  0  0
    5.1774   -0.3300   -1.6190 H   0  0  0  0  0  0  0  0  0  0  0  0
    3.4397   -0.5187   -1.8035 H   0  0  0  0  0  0  0  0  0  0  0  0
    2.0959   -1.6432    0.2377 H   0  0  0  0  0  0  0  0  0  0  0  0
    3.0310   -2.1538    1.6384 H   0  0  0  0  0  0  0  0  0  0  0  0
    1.5467    0.5485   -1.1574 H   0  0  0  0  0  0  0  0  0  0  0  0
   -1.4822   -0.9989   -1.0249 H   0  0  0  0  0  0  0  0  0  0  0  0
   -3.2113    2.2381   -1.1686 H   0  0  0  0  0  0  0  0  0  0  0  0
   -3.0212    0.6792   -1.9743 H   0  0  0  0  0  0  0  0  0  0  0  0
   -0.5849   -0.6325    0.4472 H   0  0  0  0  0  0  0  0  0  0  0  0
   -5.2166    0.8485   -0.8199 H   0  0  0  0  0  0  0  0  0  0  0  0
   -4.4121    1.2024    0.7235 H   0  0  0  0  0  0  0  0  0  0  0  0
   -2.6325   -0.7309    1.8172 H   0  0  0  0  0  0  0  0  0  0  0  0
   -2.3673   -2.2469    0.9306 H   0  0  0  0  0  0  0  0  0  0  0  0
    5.3172   -2.8555   -1.2617 H   0  0  0  0  0  0  0  0  0  0  0  0
    4.4385   -3.6026    0.0806 H   0  0  0  0  0  0  0  0  0  0  0  0
    3.5549   -3.0246   -1.3427 H   0  0  0  0  0  0  0  0  0  0  0  0
   -0.9803    2.6001   -1.2447 H   0  0  0  0  0  0  0  0  0  0  0  0
   -0.3983    1.0365   -1.8116 H   0  0  0  0  0  0  0  0  0  0  0  0
  1  2  2  0  0  0  0
  1  3  2  0  0  0  0
  1 16  1  0  0  0  0
  1 17  1  0  0  0  0
  4 19  2  0  0  0  0
  5 13  1  0  0  0  0
  5 14  1  0  0  0  0
  5 18  1  0  0  0  0
  6  7  1  0  0  0  0
  6 19  1  0  0  0  0
  6 30  1  0  0  0  0
  7  9  1  0  0  0  0
  7 10  1  0  0  0  0
  7 20  1  0  0  0  0
  8 11  1  0  0  0  0
  8 12  1  0  0  0  0
  8 15  1  0  0  0  0
  8 21  1  0  0  0  0
  9 12  1  0  0  0  0
  9 22  1  0  0  0  0
  9 25  1  0  0  0  0
 10 11  1  0  0  0  0
 10 23  1  0  0  0  0
 10 24  1  0  0  0  0
 11 26  1  0  0  0  0
 11 27  1  0  0  0  0
 12 28  1  0  0  0  0
 12 29  1  0  0  0  0
 13 17  1  0  0  0  0
 13 32  1  0  0  0  0
 13 33  1  0  0  0  0
 14 16  1  0  0  0  0
 14 31  1  0  0  0  0
 14 34  1  0  0  0  0
 15 39  1  0  0  0  0
 15 40  1  0  0  0  0
 15 41  1  0  0  0  0
 16 37  1  0  0  0  0
 16 38  1  0  0  0  0
 17 35  1  0  0  0  0
 17 36  1  0  0  0  0
 18 19  1  0  0  0  0
 18 42  1  0  0  0  0
 18 43  1  0  0  0  0
M  END
> <PUBCHEM_COMPOUND_CID>
47205469

> <PUBCHEM_CONFORMER_RMSD>
0.8

> <PUBCHEM_CONFORMER_DIVERSEORDER>
2
34
27
28
5
46
50
32
42
14
35
36
30
17
9
41
15
4
47
3
23
43
16
25
20
48
49
37
10
53
54
18
51
6
22
52
26
7
11
45
12
39
1
21
29
33
8
31
38
40
19
24
13
44

> <PUBCHEM_MMFF94_PARTIAL_CHARGES>
14
1 1.09
13 0.27
14 0.27
16 0.11
17 0.11
18 0.33
19 0.57
2 -0.65
3 -0.65
30 0.37
4 -0.57
5 -0.81
6 -0.73
7 0.3

> <PUBCHEM_EFFECTIVE_ROTOR_COUNT>
6.2

> <PUBCHEM_PHARMACOPHORE_FEATURES>
7
1 2 acceptor
1 3 acceptor
1 4 acceptor
1 5 cation
1 6 donor
6 1 5 13 14 16 17 rings
6 7 8 9 10 11 12 rings

> <PUBCHEM_HEAVY_ATOM_COUNT>
19

> <PUBCHEM_ATOM_DEF_STEREO_COUNT>
0

> <PUBCHEM_ATOM_UDEF_STEREO_COUNT>
0

> <PUBCHEM_BOND_DEF_STEREO_COUNT>
0

> <PUBCHEM_BOND_UDEF_STEREO_COUNT>
0

> <PUBCHEM_ISOTOPIC_ATOM_COUNT>
0

> <PUBCHEM_COMPONENT_COUNT>
1

> <PUBCHEM_CACTVS_TAUTO_COUNT>
2

> <PUBCHEM_CONFORMER_ID>
02D04C5D00000002

> <PUBCHEM_MMFF94_ENERGY>
21.1838

> <PUBCHEM_FEATURE_SELFOVERLAP>
35.537

> <PUBCHEM_SHAPE_MULTIPOLES>
367.29
11.3
2.52
1.18
3.06
0.39
0.12
6.71
-1.1
-0.96
-0.12
-0.15
0.08
0.83

> <PUBCHEM_SHAPE_SELFOVERLAP>
723.253

> <PUBCHEM_SHAPE_VOLUME>
219.7

> <PUBCHEM_COORDINATE_TYPE>
2
5
10

$$$$

