47205695
  -OEChem-06241222593D

 31 32  0     0  0  0  0  0  0999 V2000
   -4.1376   -1.1895   -0.0636 S   0  0  0  0  0  0  0  0  0  0  0  0
   -1.7675    0.1112   -0.3145 O   0  0  0  0  0  0  0  0  0  0  0  0
    0.8391    2.5034   -0.0761 O   0  0  0  0  0  0  0  0  0  0  0  0
   -5.4842   -0.6703    0.0469 O   0  0  0  0  0  0  0  0  0  0  0  0
   -3.7024   -1.8830   -1.2573 O   0  0  0  0  0  0  0  0  0  0  0  0
    0.8143    0.4433   -1.1415 N   0  0  0  0  0  0  0  0  0  0  0  0
   -3.7790   -2.1381    1.3052 N   0  0  0  0  0  0  0  0  0  0  0  0
    2.1738    0.4818   -1.6175 C   0  0  0  0  0  0  0  0  0  0  0  0
    3.1334   -0.1100   -0.6411 C   0  0  0  0  0  0  0  0  0  0  0  0
   -1.1516    1.2698    0.0388 C   0  0  0  0  0  0  0  0  0  0  0  0
   -3.0245    0.1668    0.1989 C   0  0  0  0  0  0  0  0  0  0  0  0
    0.2531    1.4735   -0.3994 C   0  0  0  0  0  0  0  0  0  0  0  0
   -2.0017    2.0646    0.7723 C   0  0  0  0  0  0  0  0  0  0  0  0
   -3.2179    1.3483    0.8764 C   0  0  0  0  0  0  0  0  0  0  0  0
    3.7308    0.6974    0.3269 C   0  0  0  0  0  0  0  0  0  0  0  0
    3.4336   -1.4709   -0.6961 C   0  0  0  0  0  0  0  0  0  0  0  0
    4.6284    0.1439    1.2399 C   0  0  0  0  0  0  0  0  0  0  0  0
    4.3312   -2.0247    0.2169 C   0  0  0  0  0  0  0  0  0  0  0  0
    4.9286   -1.2172    1.1848 C   0  0  0  0  0  0  0  0  0  0  0  0
    2.4511    1.5176   -1.8475 H   0  0  0  0  0  0  0  0  0  0  0  0
    2.2028   -0.0660   -2.5666 H   0  0  0  0  0  0  0  0  0  0  0  0
    0.2584   -0.3829   -1.3439 H   0  0  0  0  0  0  0  0  0  0  0  0
   -1.7776    3.0388    1.1830 H   0  0  0  0  0  0  0  0  0  0  0  0
   -4.1202    1.6582    1.3838 H   0  0  0  0  0  0  0  0  0  0  0  0
    3.5100    1.7599    0.3800 H   0  0  0  0  0  0  0  0  0  0  0  0
    2.9736   -2.1112   -1.4442 H   0  0  0  0  0  0  0  0  0  0  0  0
    5.0942    0.7726    1.9931 H   0  0  0  0  0  0  0  0  0  0  0  0
    4.5646   -3.0845    0.1744 H   0  0  0  0  0  0  0  0  0  0  0  0
    5.6275   -1.6484    1.8956 H   0  0  0  0  0  0  0  0  0  0  0  0
   -4.0635   -1.7673    2.2210 H   0  0  0  0  0  0  0  0  0  0  0  0
   -3.9326   -3.1513    1.2249 H   0  0  0  0  0  0  0  0  0  0  0  0
  1  4  2  0  0  0  0
  1  5  2  0  0  0  0
  1  7  1  0  0  0  0
  1 11  1  0  0  0  0
  2 10  1  0  0  0  0
  2 11  1  0  0  0  0
  3 12  2  0  0  0  0
  6  8  1  0  0  0  0
  6 12  1  0  0  0  0
  6 22  1  0  0  0  0
  7 30  1  0  0  0  0
  7 31  1  0  0  0  0
  8  9  1  0  0  0  0
  8 20  1  0  0  0  0
  8 21  1  0  0  0  0
  9 15  2  0  0  0  0
  9 16  1  0  0  0  0
 10 12  1  0  0  0  0
 10 13  2  0  0  0  0
 11 14  2  0  0  0  0
 13 14  1  0  0  0  0
 13 23  1  0  0  0  0
 14 24  1  0  0  0  0
 15 17  1  0  0  0  0
 15 25  1  0  0  0  0
 16 18  2  0  0  0  0
 16 26  1  0  0  0  0
 17 19  2  0  0  0  0
 17 27  1  0  0  0  0
 18 19  1  0  0  0  0
 18 28  1  0  0  0  0
 19 29  1  0  0  0  0
M  END
> <PUBCHEM_COMPOUND_CID>
47205695

> <PUBCHEM_CONFORMER_RMSD>
0.6

> <PUBCHEM_CONFORMER_DIVERSEORDER>
1
13
123
46
113
76
85
56
124
94
91
38
72
78
70
55
112
64
119
67
75
49
31
84
106
101
68
51
130
41
48
118
105
95
90
44
62
97
114
126
128
9
12
45
86
25
102
100
71
2
50
129
138
21
17
122
69
43
81
27
125
77
59
54
135
117
58
16
110
42
109
47
65
116
14
60
133
66
4
24
93
131
127
32
52
107
134
121
3
115
15
99
132
33
53
26
80
120
18
137
37
92
28
87
74
83
29
57
40
63
30
136
34
98
73
104
61
39
36
10
35
7
20
5
8
23
88
96
22
6
11
19
82
103
79
111
108
89

> <PUBCHEM_MMFF94_PARTIAL_CHARGES>
29
1 1.5
10 0.05
11 0.08
12 0.71
13 -0.15
14 -0.15
15 -0.15
16 -0.15
17 -0.15
18 -0.15
19 -0.15
2 -0.28
22 0.37
23 0.15
24 0.15
25 0.15
26 0.15
27 0.15
28 0.15
29 0.15
3 -0.57
30 0.42
31 0.42
4 -0.65
5 -0.65
6 -0.73
7 -0.98
8 0.44
9 -0.14

> <PUBCHEM_EFFECTIVE_ROTOR_COUNT>
5

> <PUBCHEM_PHARMACOPHORE_FEATURES>
8
1 2 acceptor
1 3 acceptor
1 4 acceptor
1 5 acceptor
1 6 donor
1 7 donor
5 2 10 11 13 14 rings
6 9 15 16 17 18 19 rings

> <PUBCHEM_HEAVY_ATOM_COUNT>
19

> <PUBCHEM_ATOM_DEF_STEREO_COUNT>
0

> <PUBCHEM_ATOM_UDEF_STEREO_COUNT>
0

> <PUBCHEM_BOND_DEF_STEREO_COUNT>
0

> <PUBCHEM_BOND_UDEF_STEREO_COUNT>
0

> <PUBCHEM_ISOTOPIC_ATOM_COUNT>
0

> <PUBCHEM_COMPONENT_COUNT>
1

> <PUBCHEM_CACTVS_TAUTO_COUNT>
2

> <PUBCHEM_CONFORMER_ID>
02D04D3F00000001

> <PUBCHEM_MMFF94_ENERGY>
25.3127

> <PUBCHEM_FEATURE_SELFOVERLAP>
40.614

> <PUBCHEM_SHAPE_FINGERPRINT>
10447042 23 18411990130542937126
11796584 16 17775291538690473115
12346177 29 18129947908732572916
12410352 35 18343867722833208666
12553582 1 18189036630345895703
12596602 18 15936415502717822978
12892183 10 17967541211490085416
13583140 156 17896056471384021668
13828863 39 15503802688787594786
14178342 30 18115858771134641829
1420 369 18413386540227491546
14251752 14 17846786243458351341
14341114 328 16153430523802434178
14848178 5 18202005404038980891
15003188 33 11815623038265155226
15188451 53 18339653311996423586
15239154 128 7637405107410503539
15342168 16 6122500211490693929
17349148 13 18131346418898416586
17857418 61 18410857650867418411
1813 80 17917988412653898436
18186145 218 12535334719228431708
193927 3 18201708570327681026
19862831 5 13039188095519773837
20281475 54 18341886415944264940
20621476 91 17822873982050193867
20626108 58 17846501422158869340
20645477 70 16486966285324638252
20775530 9 16626036025289850018
21065199 12 17968662734772362808
21069387 34 17560793329733506964
21315759 227 17916863513179575819
21501925 9 18333727992294900173
21503847 285 6266907861575778326
21673915 165 18410015459442132394
22079108 93 4895264928218654589
221357 26 12175607478324965189
22646028 28 18342453746695275510
23253445 4 16877663444103015625
23366157 5 18124305022155173597
23402655 69 10231750111504178530
23559900 14 17750776921932388436
251288 83 18410295826680770804
2838139 119 6481973336971042523
3004659 81 18060132133109589014
32948 21 11671785983475601768
339767 52 18410865347459784583
3472631 163 9079108964623506579
49207404 50 17240482554700472772
5104073 3 18261106396031159368
5161694 15 13326848942192013968
5281201 14 11383817295380921890
559249 180 18270965764600917041
573450 72 18339639039899317721
5924683 9 18260272970902310921
76465 3 18343022198385998756
7808743 9 8214130855117329210
960060 61 15554441907970004814

> <PUBCHEM_SHAPE_MULTIPOLES>
361.42
11.7
2.35
1.26
0.01
0.08
-0.08
6.99
3.05
1.11
0.26
-0.59
0.16
-0.55

> <PUBCHEM_SHAPE_SELFOVERLAP>
755.254

> <PUBCHEM_SHAPE_VOLUME>
205.6

> <PUBCHEM_COORDINATE_TYPE>
2
5
10

$$$$

