3815
  -OEChem-06251223413D

 37 42  0     0  0  0  0  0  0999 V2000
   -2.3973    3.2066   -0.0011 O   0  0  0  0  0  0  0  0  0  0  0  0
    1.5964   -1.9949   -0.0009 N   0  0  0  0  0  0  0  0  0  0  0  0
   -1.1882   -2.1421   -0.0013 N   0  0  0  0  0  0  0  0  0  0  0  0
   -0.1215    3.7798    0.0007 N   0  0  0  0  0  0  0  0  0  0  0  0
    0.7272    1.6600   -0.0004 C   0  0  0  0  0  0  0  0  0  0  0  0
    1.4038    0.4405   -0.0005 C   0  0  0  0  0  0  0  0  0  0  0  0
   -1.2585    0.3038   -0.0009 C   0  0  0  0  0  0  0  0  0  0  0  0
    0.8381   -0.8743   -0.0010 C   0  0  0  0  0  0  0  0  0  0  0  0
   -0.6681    1.5681   -0.0007 C   0  0  0  0  0  0  0  0  0  0  0  0
   -0.5570   -0.9471   -0.0012 C   0  0  0  0  0  0  0  0  0  0  0  0
    1.1546    3.0888    0.0008 C   0  0  0  0  0  0  0  0  0  0  0  0
    2.7980   -0.0148    0.0001 C   0  0  0  0  0  0  0  0  0  0  0  0
   -2.5992   -0.3019   -0.0004 C   0  0  0  0  0  0  0  0  0  0  0  0
    2.8715   -1.4468   -0.0003 C   0  0  0  0  0  0  0  0  0  0  0  0
   -2.5140   -1.7356   -0.0004 C   0  0  0  0  0  0  0  0  0  0  0  0
   -1.2161    2.9194   -0.0001 C   0  0  0  0  0  0  0  0  0  0  0  0
    4.0158    0.7059    0.0009 C   0  0  0  0  0  0  0  0  0  0  0  0
   -3.8961    0.2663    0.0004 C   0  0  0  0  0  0  0  0  0  0  0  0
    4.1032   -2.1181    0.0002 C   0  0  0  0  0  0  0  0  0  0  0  0
   -3.6608   -2.5443    0.0007 C   0  0  0  0  0  0  0  0  0  0  0  0
    5.2377    0.0262    0.0012 C   0  0  0  0  0  0  0  0  0  0  0  0
   -5.0330   -0.5494    0.0016 C   0  0  0  0  0  0  0  0  0  0  0  0
    5.2783   -1.3633    0.0009 C   0  0  0  0  0  0  0  0  0  0  0  0
   -4.9151   -1.9329    0.0019 C   0  0  0  0  0  0  0  0  0  0  0  0
    1.7057    3.3585    0.9048 H   0  0  0  0  0  0  0  0  0  0  0  0
    1.7066    3.3597   -0.9023 H   0  0  0  0  0  0  0  0  0  0  0  0
    1.3102   -2.9653   -0.0012 H   0  0  0  0  0  0  0  0  0  0  0  0
   -0.7984   -3.0758   -0.0014 H   0  0  0  0  0  0  0  0  0  0  0  0
   -0.2089    4.7911    0.0008 H   0  0  0  0  0  0  0  0  0  0  0  0
    4.0101    1.7929    0.0012 H   0  0  0  0  0  0  0  0  0  0  0  0
   -4.0306    1.3430    0.0003 H   0  0  0  0  0  0  0  0  0  0  0  0
    4.1475   -3.2031    0.0000 H   0  0  0  0  0  0  0  0  0  0  0  0
   -3.5789   -3.6272    0.0008 H   0  0  0  0  0  0  0  0  0  0  0  0
    6.1652    0.5925    0.0017 H   0  0  0  0  0  0  0  0  0  0  0  0
   -6.0192   -0.0924    0.0023 H   0  0  0  0  0  0  0  0  0  0  0  0
    6.2390   -1.8720    0.0012 H   0  0  0  0  0  0  0  0  0  0  0  0
   -5.8104   -2.5492    0.0028 H   0  0  0  0  0  0  0  0  0  0  0  0
  1 16  2  0  0  0  0
  2  8  1  0  0  0  0
  2 14  1  0  0  0  0
  2 27  1  0  0  0  0
  3 10  1  0  0  0  0
  3 15  1  0  0  0  0
  3 28  1  0  0  0  0
  4 11  1  0  0  0  0
  4 16  1  0  0  0  0
  4 29  1  0  0  0  0
  5  6  2  0  0  0  0
  5  9  1  0  0  0  0
  5 11  1  0  0  0  0
  6  8  1  0  0  0  0
  6 12  1  0  0  0  0
  7  9  2  0  0  0  0
  7 10  1  0  0  0  0
  7 13  1  0  0  0  0
  8 10  2  0  0  0  0
  9 16  1  0  0  0  0
 11 25  1  0  0  0  0
 11 26  1  0  0  0  0
 12 14  1  0  0  0  0
 12 17  2  0  0  0  0
 13 15  1  0  0  0  0
 13 18  2  0  0  0  0
 14 19  2  0  0  0  0
 15 20  2  0  0  0  0
 17 21  1  0  0  0  0
 17 30  1  0  0  0  0
 18 22  1  0  0  0  0
 18 31  1  0  0  0  0
 19 23  1  0  0  0  0
 19 32  1  0  0  0  0
 20 24  1  0  0  0  0
 20 33  1  0  0  0  0
 21 23  2  0  0  0  0
 21 34  1  0  0  0  0
 22 24  2  0  0  0  0
 22 35  1  0  0  0  0
 23 36  1  0  0  0  0
 24 37  1  0  0  0  0
M  END
> <PUBCHEM_COMPOUND_CID>
3815

> <PUBCHEM_CONFORMER_RMSD>
0.6

> <PUBCHEM_CONFORMER_DIVERSEORDER>
1

> <PUBCHEM_MMFF94_PARTIAL_CHARGES>
33
1 -0.57
10 -0.05
11 0.44
14 -0.15
15 -0.15
16 0.54
17 -0.15
18 -0.15
19 -0.15
2 -0.05
20 -0.15
21 -0.15
22 -0.15
23 -0.15
24 -0.15
27 0.27
28 0.27
29 0.37
3 -0.05
30 0.15
31 0.15
32 0.15
33 0.15
34 0.15
35 0.15
36 0.15
37 0.15
4 -0.73
5 -0.14
6 -0.01
7 -0.01
8 -0.05
9 0.09

> <PUBCHEM_EFFECTIVE_ROTOR_COUNT>
0.4

> <PUBCHEM_PHARMACOPHORE_FEATURES>
12
1 1 acceptor
1 2 cation
1 2 donor
1 3 cation
1 3 donor
1 4 donor
5 2 6 8 12 14 rings
5 3 7 10 13 15 rings
5 4 5 9 11 16 rings
6 12 14 17 19 21 23 rings
6 13 15 18 20 22 24 rings
6 5 6 7 8 9 10 rings

> <PUBCHEM_HEAVY_ATOM_COUNT>
24

> <PUBCHEM_ATOM_DEF_STEREO_COUNT>
0

> <PUBCHEM_ATOM_UDEF_STEREO_COUNT>
0

> <PUBCHEM_BOND_DEF_STEREO_COUNT>
0

> <PUBCHEM_BOND_UDEF_STEREO_COUNT>
0

> <PUBCHEM_ISOTOPIC_ATOM_COUNT>
0

> <PUBCHEM_COMPONENT_COUNT>
1

> <PUBCHEM_CACTVS_TAUTO_COUNT>
15

> <PUBCHEM_CONFORMER_ID>
00000EE700000001

> <PUBCHEM_MMFF94_ENERGY>
89.0642

> <PUBCHEM_FEATURE_SELFOVERLAP>
61.361

> <PUBCHEM_SHAPE_FINGERPRINT>
10050765 1 18194683890377252082
10319926 262 18048621471498538842
10369192 42 16954536788029422480
10411042 1 18410855438658626051
10616163 171 18337672039630793790
10688039 33 18202562878288771661
10906281 52 18266719372747036647
10967382 1 18122344583967910565
1100329 8 18267303132028179195
11045515 52 18202003230891043909
11265709 11 18411133623690368497
11578080 2 17459493111516376913
12107183 9 17549548852377166834
12166972 35 17775282755730220966
12293681 4 18200867401062024195
12403259 226 18335988661869874064
12516196 113 18410013204178068075
12553582 1 18338529568078845350
12788726 201 18271247226265653498
13004483 165 18338808891530219850
13140716 1 18194683661598857809
13544653 18 18343295951037852458
138480 1 15167983773979707009
13862211 1 18410578370355823542
14178342 30 17981344575097235234
14787075 74 18129942278394255962
14790565 3 17688305007467643793
14866123 147 18192991749896351857
15042514 8 18266741479196611496
15131766 46 14853328363111534162
15196674 1 18410856551113444326
15352361 1 18410575067541472367
16087824 20 18267020743052064213
17357779 13 18338814363302516757
17492 89 18267024054092073762
17980427 23 17458332045013224793
19591789 44 18410293627014099448
20510252 161 18263082283077407696
20775438 99 17107962606225618103
21029758 11 18411702058470202515
21049683 271 18056186982362804173
21236236 1 18335702809709688841
21267235 1 18410847750746839654
21478907 32 18411419548258492098
21641784 216 18058996359405457372
221490 88 18125716777952289563
22182313 1 18266485151085328360
2297311 6 18336536197038152534
23352939 185 18260823778709062336
23366157 5 17841999888088969357
23402539 116 18335145301522120735
23557571 272 18188766270986977582
23558518 356 18054779843908134594
23559900 14 18337116657066532041
23845131 108 17399785494465576137
3004659 81 18131070429164720094
3091708 16 9353103967898898688
335352 9 18410856564852616125
3421961 26 18265052431609797921
34934 24 18410862052913945899
350125 39 18409449185642700064
352729 6 17832995218532944909
4409770 3 18127138687136937589
5104073 3 18409167718570323994
5283173 99 18130235968089197405
6443956 14 18340486647294552116
68521 5 18411416241286629036
7164475 11 18340201994674915358
7364860 26 18121781617114337857
8863177 126 17700117821726822411
9709674 26 18118403088697451686

> <PUBCHEM_SHAPE_MULTIPOLES>
473.1
9.78
3.75
0.6
2.21
3.36
0
-6.73
0.01
-1.18
0
0.01
-0.01
0

> <PUBCHEM_SHAPE_SELFOVERLAP>
1114.838

> <PUBCHEM_SHAPE_VOLUME>
238.5

> <PUBCHEM_COORDINATE_TYPE>
2
5
10

$$$$

