17395640
  -OEChem-06241222513D

 33 35  0     0  0  0  0  0  0999 V2000
    1.8317   -1.2136   -1.7077 S   0  0  0  0  0  0  0  0  0  0  0  0
   -0.1697   -1.6963    1.0867 O   0  0  0  0  0  0  0  0  0  0  0  0
    1.8380    0.8174    0.1207 N   0  0  0  0  0  0  0  0  0  0  0  0
    2.6444    1.4232    1.0035 N   0  0  0  0  0  0  0  0  0  0  0  0
    3.7320   -0.2285   -0.0257 N   0  0  0  0  0  0  0  0  0  0  0  0
   -1.4722   -1.4299    1.4910 N   0  0  0  0  0  0  0  0  0  0  0  0
    3.8012    0.7790    0.9098 N   0  0  0  0  0  0  0  0  0  0  0  0
    0.5314    1.2362   -0.0509 C   0  0  0  0  0  0  0  0  0  0  0  0
   -2.1048    2.0804   -0.3971 C   0  0  0  0  0  0  0  0  0  0  0  0
    1.1347   -2.6034   -0.7463 C   0  0  0  0  0  0  0  0  0  0  0  0
   -0.0897    1.0924   -1.2916 C   0  0  0  0  0  0  0  0  0  0  0  0
   -0.1654    1.8022    1.0167 C   0  0  0  0  0  0  0  0  0  0  0  0
   -0.1896   -2.2495   -0.1529 C   0  0  0  0  0  0  0  0  0  0  0  0
    2.5086   -0.1871   -0.5010 C   0  0  0  0  0  0  0  0  0  0  0  0
   -1.4077    1.5145   -1.4646 C   0  0  0  0  0  0  0  0  0  0  0  0
   -1.4836    2.2243    0.8436 C   0  0  0  0  0  0  0  0  0  0  0  0
   -1.4837   -2.3593   -0.5881 C   0  0  0  0  0  0  0  0  0  0  0  0
   -2.2392   -1.8341    0.4745 C   0  0  0  0  0  0  0  0  0  0  0  0
   -3.5143    2.5312   -0.5820 C   0  0  0  0  0  0  0  0  0  0  0  0
   -3.7022   -1.6991    0.5613 C   0  0  0  0  0  0  0  0  0  0  0  0
    1.8422   -2.9065    0.0326 H   0  0  0  0  0  0  0  0  0  0  0  0
    1.0130   -3.4528   -1.4264 H   0  0  0  0  0  0  0  0  0  0  0  0
    0.4210    0.7964   -2.1983 H   0  0  0  0  0  0  0  0  0  0  0  0
    0.2870    1.9168    1.9986 H   0  0  0  0  0  0  0  0  0  0  0  0
   -1.8736    1.4226   -2.4423 H   0  0  0  0  0  0  0  0  0  0  0  0
   -2.0177    2.6588    1.6845 H   0  0  0  0  0  0  0  0  0  0  0  0
   -1.8262   -2.7581   -1.5315 H   0  0  0  0  0  0  0  0  0  0  0  0
   -4.1997    1.6906   -0.4349 H   0  0  0  0  0  0  0  0  0  0  0  0
   -3.7759    3.3230    0.1281 H   0  0  0  0  0  0  0  0  0  0  0  0
   -3.6667    2.9389   -1.5871 H   0  0  0  0  0  0  0  0  0  0  0  0
   -4.1185   -2.4599    1.2292 H   0  0  0  0  0  0  0  0  0  0  0  0
   -3.9839   -0.7132    0.9457 H   0  0  0  0  0  0  0  0  0  0  0  0
   -4.1704   -1.8183   -0.4213 H   0  0  0  0  0  0  0  0  0  0  0  0
  1 10  1  0  0  0  0
  1 14  1  0  0  0  0
  2  6  1  0  0  0  0
  2 13  1  0  0  0  0
  3  4  1  0  0  0  0
  3  8  1  0  0  0  0
  3 14  1  0  0  0  0
  4  7  2  0  0  0  0
  5  7  1  0  0  0  0
  5 14  2  0  0  0  0
  6 18  2  0  0  0  0
  8 11  2  0  0  0  0
  8 12  1  0  0  0  0
  9 15  2  0  0  0  0
  9 16  1  0  0  0  0
  9 19  1  0  0  0  0
 10 13  1  0  0  0  0
 10 21  1  0  0  0  0
 10 22  1  0  0  0  0
 11 15  1  0  0  0  0
 11 23  1  0  0  0  0
 12 16  2  0  0  0  0
 12 24  1  0  0  0  0
 13 17  2  0  0  0  0
 15 25  1  0  0  0  0
 16 26  1  0  0  0  0
 17 18  1  0  0  0  0
 17 27  1  0  0  0  0
 18 20  1  0  0  0  0
 19 28  1  0  0  0  0
 19 29  1  0  0  0  0
 19 30  1  0  0  0  0
 20 31  1  0  0  0  0
 20 32  1  0  0  0  0
 20 33  1  0  0  0  0
M  END
> <PUBCHEM_COMPOUND_CID>
17395640

> <PUBCHEM_CONFORMER_RMSD>
0.6

> <PUBCHEM_CONFORMER_DIVERSEORDER>
7
2
96
27
125
154
29
6
151
5
30
134
152
1
97
34
48
31
8
130
112
163
78
153
114
135
162
146
45
24
40
25
55
119
64
122
16
155
79
71
57
118
20
52
82
149
120
17
105
73
91
72
90
74
121
35
12
157
117
56
39
95
131
89
46
19
143
23
66
133
98
33
38
22
141
108
68
54
145
13
138
140
21
51
26
9
15
101
144
14
76
94
136
92
36
107
147
132
10
67
18
70
47
129
87
83
161
58
49
50
28
128
142
156
59
53
99
102
85
139
109
113
81
126
103
159
100
44
37
137
110
65
150
104
32
43
41
80
86
160
3
63
127
158
11
148
106
60
69
62
4
111
115
61
116
88
75
93
42
84
124
77
123

> <PUBCHEM_MMFF94_PARTIAL_CHARGES>
24
1 -0.29
10 0.41
11 -0.15
12 -0.15
13 -0.04
14 0.24
15 -0.15
16 -0.15
17 -0.15
18 0.11
19 0.14
2 -0.02
20 0.18
23 0.15
24 0.15
25 0.15
26 0.15
27 0.15
3 0.59
4 -0.42
5 -0.34
6 -0.41
8 -0.02
9 -0.14

> <PUBCHEM_EFFECTIVE_ROTOR_COUNT>
4

> <PUBCHEM_PHARMACOPHORE_FEATURES>
5
1 6 acceptor
3 3 5 14 cation
5 2 6 13 17 18 rings
5 3 4 5 7 14 rings
6 8 9 11 12 15 16 rings

> <PUBCHEM_HEAVY_ATOM_COUNT>
20

> <PUBCHEM_ATOM_DEF_STEREO_COUNT>
0

> <PUBCHEM_ATOM_UDEF_STEREO_COUNT>
0

> <PUBCHEM_BOND_DEF_STEREO_COUNT>
0

> <PUBCHEM_BOND_UDEF_STEREO_COUNT>
0

> <PUBCHEM_ISOTOPIC_ATOM_COUNT>
0

> <PUBCHEM_COMPONENT_COUNT>
1

> <PUBCHEM_CACTVS_TAUTO_COUNT>
1

> <PUBCHEM_CONFORMER_ID>
01096FB800000007

> <PUBCHEM_MMFF94_ENERGY>
45.5114

> <PUBCHEM_FEATURE_SELFOVERLAP>
25.371

> <PUBCHEM_SHAPE_FINGERPRINT>
10064457 181 17832957801026068009
104564 63 18341894061038435331
1100329 8 17763187234265998923
11086676 242 18125999369467009610
11370993 70 18268436921921845845
11680986 33 18193272112218498502
12422481 6 18268688637470511907
12716301 132 18265638540216679728
13132413 78 16968570790520451340
13140716 1 17979353062474322171
14251745 187 18409740551491003049
15852999 172 18198348540176306124
15881359 60 18114756918891964942
16752209 62 18342453716693983374
16945 1 18123474882253547838
17357779 13 18409165472434212079
17492 54 17479432978308731223
20388701 513 18337950091238760798
20905425 154 18411698816028662207
23419403 2 17679271265287594438
23559900 14 18335988666407486392
238 59 17623286491449768813
2748010 2 18265034993958251558
3052486 1 17917702522508602071
3323516 105 18121213444686523509
4340502 62 18267026248862280837
495365 180 17408260508533052461
6992083 37 17830730950429582819
81228 2 18270945882632834155

> <PUBCHEM_SHAPE_MULTIPOLES>
384.67
5.14
3.55
1.4
1.01
1.18
0.19
-1.31
-0.35
-2.26
-0.15
0.08
-0.08
1.45

> <PUBCHEM_SHAPE_SELFOVERLAP>
815.994

> <PUBCHEM_SHAPE_VOLUME>
217.5

> <PUBCHEM_COORDINATE_TYPE>
2
5
10

$$$$

