17396335
  -OEChem-06241222563D

 43 45  0     1  0  0  0  0  0999 V2000
   -2.8375    1.4536   -0.7691 S   0  0  0  0  0  0  0  0  0  0  0  0
   -0.3902   -2.9088    1.1454 S   0  0  0  0  0  0  0  0  0  0  0  0
    1.5634    2.3926    0.8535 O   0  0  0  0  0  0  0  0  0  0  0  0
    1.5190   -0.8067    2.4976 O   0  0  0  0  0  0  0  0  0  0  0  0
    2.5778   -0.8200    0.4286 N   0  0  0  0  0  0  0  0  0  0  0  0
   -1.3841   -0.1295   -2.3440 N   0  0  0  0  0  0  0  0  0  0  0  0
   -0.3102   -2.0849   -1.3938 N   0  0  0  0  0  0  0  0  0  0  0  0
   -1.6078   -0.6736    0.0224 C   0  0  0  0  0  0  0  0  0  0  0  0
   -2.2602   -0.1262    1.1718 C   0  0  0  0  0  0  0  0  0  0  0  0
    3.0937    0.5295    0.4697 C   0  0  2  0  0  0  0  0  0  0  0  0
   -2.9605    1.0250    0.8824 C   0  0  0  0  0  0  0  0  0  0  0  0
   -1.8504    0.1048   -1.1018 C   0  0  0  0  0  0  0  0  0  0  0  0
   -0.8038   -1.8020   -0.1693 C   0  0  0  0  0  0  0  0  0  0  0  0
    2.0429    1.4910   -0.0428 C   0  0  0  0  0  0  0  0  0  0  0  0
    4.4092    0.6305   -0.2951 C   0  0  0  0  0  0  0  0  0  0  0  0
   -2.2206   -0.6934    2.5446 C   0  0  0  0  0  0  0  0  0  0  0  0
    1.4247   -2.8055    1.1770 C   0  0  0  0  0  0  0  0  0  0  0  0
    1.8295   -1.3766    1.4528 C   0  0  0  0  0  0  0  0  0  0  0  0
   -3.7603    1.8811    1.7878 C   0  0  0  0  0  0  0  0  0  0  0  0
   -0.6274   -1.2404   -2.3948 C   0  0  0  0  0  0  0  0  0  0  0  0
    1.4405    1.6605   -1.2678 C   0  0  0  0  0  0  0  0  0  0  0  0
    0.5325    2.7352   -1.1141 C   0  0  0  0  0  0  0  0  0  0  0  0
   -0.0650   -1.5825   -3.7345 C   0  0  0  0  0  0  0  0  0  0  0  0
    0.6449    3.1460    0.1937 C   0  0  0  0  0  0  0  0  0  0  0  0
    3.2966    0.7755    1.5201 H   0  0  0  0  0  0  0  0  0  0  0  0
    2.7173   -1.3513   -0.4261 H   0  0  0  0  0  0  0  0  0  0  0  0
    4.8125    1.6479   -0.2494 H   0  0  0  0  0  0  0  0  0  0  0  0
    5.1555   -0.0527    0.1249 H   0  0  0  0  0  0  0  0  0  0  0  0
    4.2810    0.3686   -1.3518 H   0  0  0  0  0  0  0  0  0  0  0  0
   -1.1979   -0.7140    2.9312 H   0  0  0  0  0  0  0  0  0  0  0  0
   -2.8054   -0.1047    3.2588 H   0  0  0  0  0  0  0  0  0  0  0  0
   -2.6439   -1.7024    2.5625 H   0  0  0  0  0  0  0  0  0  0  0  0
    1.8340   -3.1784    0.2338 H   0  0  0  0  0  0  0  0  0  0  0  0
    1.8099   -3.4361    1.9840 H   0  0  0  0  0  0  0  0  0  0  0  0
   -3.1337    2.2724    2.5965 H   0  0  0  0  0  0  0  0  0  0  0  0
   -4.2063    2.7405    1.2758 H   0  0  0  0  0  0  0  0  0  0  0  0
   -4.5787    1.3063    2.2344 H   0  0  0  0  0  0  0  0  0  0  0  0
    1.6335    1.0858   -2.1622 H   0  0  0  0  0  0  0  0  0  0  0  0
   -0.1166    3.1614   -1.8650 H   0  0  0  0  0  0  0  0  0  0  0  0
   -0.4665   -0.9282   -4.5148 H   0  0  0  0  0  0  0  0  0  0  0  0
   -0.3123   -2.6163   -3.9945 H   0  0  0  0  0  0  0  0  0  0  0  0
    1.0237   -1.4730   -3.7184 H   0  0  0  0  0  0  0  0  0  0  0  0
    0.1672    3.9186    0.7783 H   0  0  0  0  0  0  0  0  0  0  0  0
  1 11  1  0  0  0  0
  1 12  1  0  0  0  0
  2 13  1  0  0  0  0
  2 17  1  0  0  0  0
  3 14  1  0  0  0  0
  3 24  1  0  0  0  0
  4 18  2  0  0  0  0
  5 10  1  0  0  0  0
  5 18  1  0  0  0  0
  5 26  1  0  0  0  0
  6 12  1  0  0  0  0
  6 20  2  0  0  0  0
  7 13  2  0  0  0  0
  7 20  1  0  0  0  0
  8  9  1  0  0  0  0
  8 12  2  0  0  0  0
  8 13  1  0  0  0  0
  9 11  2  0  0  0  0
  9 16  1  0  0  0  0
 10 14  1  0  0  0  0
 10 15  1  0  0  0  0
 10 25  1  0  0  0  0
 11 19  1  0  0  0  0
 14 21  2  0  0  0  0
 15 27  1  0  0  0  0
 15 28  1  0  0  0  0
 15 29  1  0  0  0  0
 16 30  1  0  0  0  0
 16 31  1  0  0  0  0
 16 32  1  0  0  0  0
 17 18  1  0  0  0  0
 17 33  1  0  0  0  0
 17 34  1  0  0  0  0
 19 35  1  0  0  0  0
 19 36  1  0  0  0  0
 19 37  1  0  0  0  0
 20 23  1  0  0  0  0
 21 22  1  0  0  0  0
 21 38  1  0  0  0  0
 22 24  2  0  0  0  0
 22 39  1  0  0  0  0
 23 40  1  0  0  0  0
 23 41  1  0  0  0  0
 23 42  1  0  0  0  0
 24 43  1  0  0  0  0
M  END
> <PUBCHEM_COMPOUND_CID>
17396335

> <PUBCHEM_CONFORMER_RMSD>
1

> <PUBCHEM_CONFORMER_DIVERSEORDER>
1
62
116
146
173
37
130
172
167
19
175
77
134
67
87
8
33
39
109
157
4
182
13
10
155
178
102
97
92
107
127
164
82
32
94
174
35
30
68
139
162
90
91
11
163
18
148
70
5
158
184
20
98
58
48
17
61
104
45
144
176
170
66
75
49
161
131
124
15
106
21
120
43
27
80
180
57
179
60
36
129
84
72
14
2
9
24
96
181
101
142
95
46
47
3
93
123
59
111
150
29
141
153
169
183
34
137
44
65
25
108
52
140
41
83
135
38
177
114
160
63
126
6
50
100
74
69
85
22
151
31
23
166
112
53
73
79
159
152
115
51
76
110
133
118
138
132
56
103
42
12
128
26
99
154
149
165
117
78
125
119
89
55
171
64
81
145
16
54
113
143
71
168
28
7
88
105
40
147
122
136
121
86
156

> <PUBCHEM_MMFF94_PARTIAL_CHARGES>
26
1 -0.08
10 0.48
11 -0.14
12 0.3
13 0.41
14 -0.04
16 0.18
17 0.29
18 0.57
19 0.18
2 -0.33
20 0.48
21 -0.15
22 -0.15
23 0.14
24 -0.01
26 0.37
3 -0.28
38 0.15
39 0.15
4 -0.57
43 0.15
5 -0.73
6 -0.57
7 -0.62
9 -0.18

> <PUBCHEM_EFFECTIVE_ROTOR_COUNT>
6

> <PUBCHEM_PHARMACOPHORE_FEATURES>
8
1 3 acceptor
1 4 acceptor
1 5 donor
1 7 acceptor
3 6 7 20 cation
5 1 8 9 11 12 rings
5 3 14 21 22 24 rings
6 6 7 8 12 13 20 rings

> <PUBCHEM_HEAVY_ATOM_COUNT>
24

> <PUBCHEM_ATOM_DEF_STEREO_COUNT>
0

> <PUBCHEM_ATOM_UDEF_STEREO_COUNT>
1

> <PUBCHEM_BOND_DEF_STEREO_COUNT>
0

> <PUBCHEM_BOND_UDEF_STEREO_COUNT>
0

> <PUBCHEM_ISOTOPIC_ATOM_COUNT>
0

> <PUBCHEM_COMPONENT_COUNT>
1

> <PUBCHEM_CACTVS_TAUTO_COUNT>
2

> <PUBCHEM_CONFORMER_ID>
0109726F00000001

> <PUBCHEM_MMFF94_ENERGY>
34.5362

> <PUBCHEM_FEATURE_SELFOVERLAP>
40.675

> <PUBCHEM_SHAPE_FINGERPRINT>
10382601 240 18047172322638931272
104564 63 17907019830604893512
11640471 11 17969525803596370747
12156800 1 15758447318032271708
12539773 59 18041574541511908845
12633257 1 17704347784133050049
128993 33 17631171879458813692
13965767 371 17535203455064526395
14386348 128 17844244030297628260
14817 1 12435259571533270007
15881359 60 17692004812433195768
16945 1 17978485578022676043
17859628 37 18053091006964349881
18219364 16 17917167008563752198
18981168 100 18125736590461885362
19930381 70 18057061300560825523
20905425 154 17977656842560987013
23419403 2 15746036116518812222
238 59 17414195422784969543
3052486 1 16757435438283350513
35225 105 17622127236631369313
3524813 1 16915383427428790995
5845 1 9408138352001387851
6287921 2 16199001939384139148

> <PUBCHEM_SHAPE_MULTIPOLES>
474.93
4.98
3.5
2.87
0.92
0.2
-2.37
2.36
2.5
0.89
0.66
-0.96
-1.37
-0.54

> <PUBCHEM_SHAPE_SELFOVERLAP>
990.223

> <PUBCHEM_SHAPE_VOLUME>
274.4

> <PUBCHEM_COORDINATE_TYPE>
2
5
10

$$$$

