6500
  -OEChem-06261201212D

 21 20  0     1  0  0  0  0  0999 V2000
    4.5981   -0.4330    0.0000 P   0  0  3  0  0  0  0  0  0  0  0  0
    3.7320   -0.9330    0.0000 O   0  0  0  0  0  0  0  0  0  0  0  0
    5.0981   -1.2990    0.0000 O   0  0  0  0  0  0  0  0  0  0  0  0
    5.4641    0.0670    0.0000 N   0  0  0  0  0  0  0  0  0  0  0  0
    3.5981    1.2990    0.0000 N   0  0  0  0  0  0  0  0  0  0  0  0
    6.3301   -0.4330    0.0000 C   0  0  0  0  0  0  0  0  0  0  0  0
    5.4641    1.0670    0.0000 C   0  0  0  0  0  0  0  0  0  0  0  0
    2.8660   -0.4330    0.0000 C   0  0  0  0  0  0  0  0  0  0  0  0
    2.0000   -0.9330    0.0000 C   0  0  0  0  0  0  0  0  0  0  0  0
    4.0981    0.4330    0.0000 C   0  0  0  0  0  0  0  0  0  0  0  0
    6.0201   -0.9699    0.0000 H   0  0  0  0  0  0  0  0  0  0  0  0
    6.8671   -0.7430    0.0000 H   0  0  0  0  0  0  0  0  0  0  0  0
    6.6401    0.1039    0.0000 H   0  0  0  0  0  0  0  0  0  0  0  0
    6.0841    1.0670    0.0000 H   0  0  0  0  0  0  0  0  0  0  0  0
    5.4641    1.6870    0.0000 H   0  0  0  0  0  0  0  0  0  0  0  0
    4.8441    1.0670    0.0000 H   0  0  0  0  0  0  0  0  0  0  0  0
    3.2646    0.0419    0.0000 H   0  0  0  0  0  0  0  0  0  0  0  0
    2.4675    0.0419    0.0000 H   0  0  0  0  0  0  0  0  0  0  0  0
    1.6900   -0.3961    0.0000 H   0  0  0  0  0  0  0  0  0  0  0  0
    1.4631   -1.2430    0.0000 H   0  0  0  0  0  0  0  0  0  0  0  0
    2.3100   -1.4700    0.0000 H   0  0  0  0  0  0  0  0  0  0  0  0
  1  2  1  0  0  0  0
  1  3  2  0  0  0  0
  1  4  1  0  0  0  0
  1 10  1  0  0  0  0
  2  8  1  0  0  0  0
  4  6  1  0  0  0  0
  4  7  1  0  0  0  0
  5 10  3  0  0  0  0
  6 11  1  0  0  0  0
  6 12  1  0  0  0  0
  6 13  1  0  0  0  0
  7 14  1  0  0  0  0
  7 15  1  0  0  0  0
  7 16  1  0  0  0  0
  8  9  1  0  0  0  0
  8 17  1  0  0  0  0
  8 18  1  0  0  0  0
  9 19  1  0  0  0  0
  9 20  1  0  0  0  0
  9 21  1  0  0  0  0
M  END
> <PUBCHEM_COMPOUND_CID>
6500

> <PUBCHEM_COMPOUND_CANONICALIZED>
1

> <PUBCHEM_CACTVS_COMPLEXITY>
193

> <PUBCHEM_CACTVS_HBOND_ACCEPTOR>
4

> <PUBCHEM_CACTVS_HBOND_DONOR>
0

> <PUBCHEM_CACTVS_ROTATABLE_BOND>
3

> <PUBCHEM_CACTVS_SUBSKEYS>
AAADccBjMAIAAAAAAAAAAAAAAAAAAAAAAAAAAAAAAAAAAAAAAAAAHggAgCAAAACggAYCAAIAARAQQAAAAIAAAAAAAAAAAAAIAAAAAAAAAAAAAAAAAAAAAAAAAAAAAAAAAAAAAAAAAAAAAAAAAAAAAAAAAA==

> <PUBCHEM_IUPAC_OPENEYE_NAME>
[dimethylamino(ethoxy)phosphoryl]formonitrile

> <PUBCHEM_IUPAC_CAS_NAME>
[dimethylamino(ethoxy)phosphoryl]formonitrile

> <PUBCHEM_IUPAC_NAME>
[dimethylamino(ethoxy)phosphoryl]formonitrile

> <PUBCHEM_IUPAC_SYSTEMATIC_NAME>
[dimethylamino(ethoxy)phosphoryl]methanenitrile

> <PUBCHEM_IUPAC_TRADITIONAL_NAME>
[dimethylamino(ethoxy)phosphoryl]formonitrile

> <PUBCHEM_IUPAC_INCHI>
InChI=1S/C5H11N2O2P/c1-4-9-10(8,5-6)7(2)3/h4H2,1-3H3

> <PUBCHEM_IUPAC_INCHIKEY>
PJVJTCIRVMBVIA-UHFFFAOYSA-N

> <PUBCHEM_XLOGP3_AA>
0.1

> <PUBCHEM_EXACT_MASS>
162.055814

> <PUBCHEM_MOLECULAR_FORMULA>
C5H11N2O2P

> <PUBCHEM_MOLECULAR_WEIGHT>
162.126802

> <PUBCHEM_OPENEYE_CAN_SMILES>
CCOP(=O)(C#N)N(C)C

> <PUBCHEM_OPENEYE_ISO_SMILES>
CCOP(=O)(C#N)N(C)C

> <PUBCHEM_CACTVS_TPSA>
53.3

> <PUBCHEM_MONOISOTOPIC_WEIGHT>
162.055814

> <PUBCHEM_TOTAL_CHARGE>
0

> <PUBCHEM_HEAVY_ATOM_COUNT>
10

> <PUBCHEM_ATOM_DEF_STEREO_COUNT>
0

> <PUBCHEM_ATOM_UDEF_STEREO_COUNT>
1

> <PUBCHEM_BOND_DEF_STEREO_COUNT>
0

> <PUBCHEM_BOND_UDEF_STEREO_COUNT>
0

> <PUBCHEM_ISOTOPIC_ATOM_COUNT>
0

> <PUBCHEM_COMPONENT_COUNT>
1

> <PUBCHEM_CACTVS_TAUTO_COUNT>
1

> <PUBCHEM_COORDINATE_TYPE>
1
5
255

> <PUBCHEM_BONDANNOTATIONS>
1  10  3

$$$$

