47205597
  -OEChem-06241222593D

 31 32  0     1  0  0  0  0  0999 V2000
   -1.4577    1.6168   -0.4582 O   0  0  0  0  0  0  0  0  0  0  0  0
   -5.1239   -1.4250    0.8064 O   0  0  0  0  0  0  0  0  0  0  0  0
   -0.3659   -0.4582   -0.2829 N   0  0  0  0  0  0  0  0  0  0  0  0
   -3.8390    0.3621    0.0535 N   0  0  0  0  0  0  0  0  0  0  0  0
    4.4303   -1.4178    0.2539 N   0  0  0  0  0  0  0  0  0  0  0  0
    5.5319   -0.6578    0.3712 N   0  0  0  0  0  0  0  0  0  0  0  0
   -5.8093    0.7333    1.1838 N   0  0  0  0  0  0  0  0  0  0  0  0
   -2.7773   -0.4000   -0.5512 C   0  0  2  0  0  0  0  0  0  0  0  0
    0.9773   -0.1058   -0.1365 C   0  0  0  0  0  0  0  0  0  0  0  0
    3.2689   -0.7058    0.1209 C   0  0  0  0  0  0  0  0  0  0  0  0
    3.6526    0.6301    0.1549 C   0  0  0  0  0  0  0  0  0  0  0  0
   -1.4772    0.3900   -0.4130 C   0  0  0  0  0  0  0  0  0  0  0  0
    1.9409   -1.1133   -0.0234 C   0  0  0  0  0  0  0  0  0  0  0  0
    1.3351    1.2434   -0.1056 C   0  0  0  0  0  0  0  0  0  0  0  0
   -3.0808   -0.6944   -2.0119 C   0  0  0  0  0  0  0  0  0  0  0  0
    2.6731    1.6307    0.0400 C   0  0  0  0  0  0  0  0  0  0  0  0
    5.0548    0.5875    0.3104 C   0  0  0  0  0  0  0  0  0  0  0  0
   -4.9338   -0.2158    0.6876 C   0  0  0  0  0  0  0  0  0  0  0  0
   -2.6879   -1.3473   -0.0063 H   0  0  0  0  0  0  0  0  0  0  0  0
    1.6773   -2.1657   -0.0458 H   0  0  0  0  0  0  0  0  0  0  0  0
   -0.5487   -1.4594   -0.2954 H   0  0  0  0  0  0  0  0  0  0  0  0
   -3.1899    0.2315   -2.5883 H   0  0  0  0  0  0  0  0  0  0  0  0
   -4.0122   -1.2613   -2.1144 H   0  0  0  0  0  0  0  0  0  0  0  0
   -2.2741   -1.2758   -2.4706 H   0  0  0  0  0  0  0  0  0  0  0  0
    0.6324    2.0610   -0.1849 H   0  0  0  0  0  0  0  0  0  0  0  0
    2.9408    2.6827    0.0636 H   0  0  0  0  0  0  0  0  0  0  0  0
   -3.8045    1.3756   -0.0069 H   0  0  0  0  0  0  0  0  0  0  0  0
    4.5399   -2.4241    0.2724 H   0  0  0  0  0  0  0  0  0  0  0  0
    5.7478    1.4138    0.3819 H   0  0  0  0  0  0  0  0  0  0  0  0
   -5.6351    1.7269    1.0763 H   0  0  0  0  0  0  0  0  0  0  0  0
   -6.6558    0.4623    1.6727 H   0  0  0  0  0  0  0  0  0  0  0  0
  1 12  2  0  0  0  0
  2 18  2  0  0  0  0
  3  9  1  0  0  0  0
  3 12  1  0  0  0  0
  3 21  1  0  0  0  0
  4  8  1  0  0  0  0
  4 18  1  0  0  0  0
  4 27  1  0  0  0  0
  5  6  1  0  0  0  0
  5 10  1  0  0  0  0
  5 28  1  0  0  0  0
  6 17  2  0  0  0  0
  7 18  1  0  0  0  0
  7 30  1  0  0  0  0
  7 31  1  0  0  0  0
  8 12  1  0  0  0  0
  8 15  1  0  0  0  0
  8 19  1  0  0  0  0
  9 13  2  0  0  0  0
  9 14  1  0  0  0  0
 10 11  2  0  0  0  0
 10 13  1  0  0  0  0
 11 16  1  0  0  0  0
 11 17  1  0  0  0  0
 13 20  1  0  0  0  0
 14 16  2  0  0  0  0
 14 25  1  0  0  0  0
 15 22  1  0  0  0  0
 15 23  1  0  0  0  0
 15 24  1  0  0  0  0
 16 26  1  0  0  0  0
 17 29  1  0  0  0  0
M  END
> <PUBCHEM_COMPOUND_CID>
47205597

> <PUBCHEM_CONFORMER_RMSD>
0.6

> <PUBCHEM_CONFORMER_DIVERSEORDER>
1
62
61
77
75
24
33
53
44
16
83
5
30
81
10
25
39
9
73
46
19
31
56
50
80
58
41
29
70
26
60
43
74
28
88
47
71
89
20
23
32
51
86
36
34
54
78
2
42
69
11
68
27
72
52
76
82
87
65
3
59
4
84
64
22
21
37
38
12
55
15
57
48
35
45
63
85
8
7
90
17
49
79
66
13
14
18
6
40
67

> <PUBCHEM_MMFF94_PARTIAL_CHARGES>
25
1 -0.57
10 -0.15
12 0.57
13 -0.15
14 -0.15
16 -0.15
17 0.14
18 0.69
2 -0.57
20 0.15
21 0.37
25 0.15
26 0.15
27 0.37
28 0.27
29 0.15
3 -0.55
30 0.37
31 0.37
4 -0.73
5 0.3
6 -0.71
7 -0.8
8 0.36
9 0.12

> <PUBCHEM_EFFECTIVE_ROTOR_COUNT>
5

> <PUBCHEM_PHARMACOPHORE_FEATURES>
9
1 1 acceptor
1 2 acceptor
1 3 donor
1 4 donor
1 5 donor
1 6 acceptor
1 7 donor
5 5 6 10 11 17 rings
6 9 10 11 13 14 16 rings

> <PUBCHEM_HEAVY_ATOM_COUNT>
18

> <PUBCHEM_ATOM_DEF_STEREO_COUNT>
0

> <PUBCHEM_ATOM_UDEF_STEREO_COUNT>
1

> <PUBCHEM_BOND_DEF_STEREO_COUNT>
0

> <PUBCHEM_BOND_UDEF_STEREO_COUNT>
0

> <PUBCHEM_ISOTOPIC_ATOM_COUNT>
0

> <PUBCHEM_COMPONENT_COUNT>
1

> <PUBCHEM_CACTVS_TAUTO_COUNT>
15

> <PUBCHEM_CONFORMER_ID>
02D04CDD00000001

> <PUBCHEM_MMFF94_ENERGY>
40.4722

> <PUBCHEM_FEATURE_SELFOVERLAP>
45.811

> <PUBCHEM_SHAPE_FINGERPRINT>
10014705 185 7204482329743182461
10354089 29 18333729113449708184
10912923 1 17677061152505559494
11089746 13 16732710458432175185
11287383 113 17274821337812388948
12236239 1 17894630344298402434
12403259 415 17632303358380390196
12596602 18 17967811622325158339
12616971 3 18260270719975607204
13760787 5 18410017602292943508
1420 363 17775281672844567442
14251718 22 12103842350027120523
14341114 176 18412539924900825560
14350574 20 17846777408035240516
15142383 8 18341332296517489433
15527383 91 18408603656246713449
17844677 252 17632857529531616853
18785283 64 17986954038350770324
19050596 39 18113903736291213021
200 152 18334582334214451344
20645477 56 16515401876601432997
20645477 70 18201720682768608002
21150785 3 14333117594935293530
21267235 1 18411415155461925206
23402539 116 15285366114973999836
23503953 91 17458350723176927247
23557571 272 16415205610986968887
23559900 14 11671485764892489775
26918003 58 18343582936905795553
300161 21 16515689956715657647
3268164 11 14908192945122942263
4072396 5 7997693048416256116
42 15 18413105065472106125
465052 167 18342174484244303442
5104073 3 18189064118052343610
542803 24 17385724681664362334
7495541 125 17346312670440206556

> <PUBCHEM_SHAPE_MULTIPOLES>
333.79
13.04
1.41
1.01
5.85
0.17
0.31
-1.53
-4.25
-0.53
0
1.48
-0.17
-0.42

> <PUBCHEM_SHAPE_SELFOVERLAP>
712.117

> <PUBCHEM_SHAPE_VOLUME>
186

> <PUBCHEM_COORDINATE_TYPE>
2
5
10

$$$$

