17395507
  -OEChem-06241222503D

 42 43  0     1  0  0  0  0  0999 V2000
    5.1055    1.1998   -1.8658 Cl  0  0  0  0  0  0  0  0  0  0  0  0
   -0.5279   -1.1126    1.5476 O   0  0  0  0  0  0  0  0  0  0  0  0
   -2.4290   -2.6278   -1.6320 O   0  0  0  0  0  0  0  0  0  0  0  0
   -2.9097   -1.2767    0.2024 N   0  0  0  0  0  0  0  0  0  0  0  0
    0.3754    0.0222   -0.2975 N   0  0  0  0  0  0  0  0  0  0  0  0
   -2.5528    1.1279    0.4216 C   0  0  0  0  0  0  0  0  0  0  0  0
   -1.6762    2.3232    0.0609 C   0  0  0  0  0  0  0  0  0  0  0  0
   -3.8986    1.5178   -0.1811 C   0  0  0  0  0  0  0  0  0  0  0  0
   -2.5889    3.5283    0.2669 C   0  0  0  0  0  0  0  0  0  0  0  0
   -4.0199    3.0075    0.1229 C   0  0  0  0  0  0  0  0  0  0  0  0
   -2.0173   -0.1897   -0.1109 C   0  0  1  0  0  0  0  0  0  0  0  0
   -0.6467   -0.5054    0.4871 C   0  0  0  0  0  0  0  0  0  0  0  0
   -3.0393   -2.4078   -0.5891 C   0  0  0  0  0  0  0  0  0  0  0  0
    1.7697   -0.0626   -0.0704 C   0  0  0  0  0  0  0  0  0  0  0  0
   -4.0198   -3.3974   -0.0190 C   0  0  0  0  0  0  0  0  0  0  0  0
    2.6599    0.5322   -0.9645 C   0  0  0  0  0  0  0  0  0  0  0  0
    2.2536   -0.7398    1.0489 C   0  0  0  0  0  0  0  0  0  0  0  0
    4.0340    0.4500   -0.7392 C   0  0  0  0  0  0  0  0  0  0  0  0
    3.6277   -0.8221    1.2743 C   0  0  0  0  0  0  0  0  0  0  0  0
    4.5179   -0.2272    0.3802 C   0  0  0  0  0  0  0  0  0  0  0  0
    5.9825   -0.3398    0.6568 C   0  0  0  0  0  0  0  0  0  0  0  0
   -2.6522    1.0798    1.5158 H   0  0  0  0  0  0  0  0  0  0  0  0
   -1.3659    2.2837   -0.9903 H   0  0  0  0  0  0  0  0  0  0  0  0
   -0.7781    2.3976    0.6815 H   0  0  0  0  0  0  0  0  0  0  0  0
   -4.7325    0.9500    0.2431 H   0  0  0  0  0  0  0  0  0  0  0  0
   -3.9022    1.3615   -1.2670 H   0  0  0  0  0  0  0  0  0  0  0  0
   -2.4467    3.9491    1.2690 H   0  0  0  0  0  0  0  0  0  0  0  0
   -2.3697    4.3212   -0.4554 H   0  0  0  0  0  0  0  0  0  0  0  0
   -4.5678    3.5326   -0.6660 H   0  0  0  0  0  0  0  0  0  0  0  0
   -4.5660    3.1618    1.0607 H   0  0  0  0  0  0  0  0  0  0  0  0
   -1.9252   -0.1467   -1.2040 H   0  0  0  0  0  0  0  0  0  0  0  0
   -3.4098   -1.2415    1.0865 H   0  0  0  0  0  0  0  0  0  0  0  0
    0.1134    0.5203   -1.1448 H   0  0  0  0  0  0  0  0  0  0  0  0
   -3.5604   -3.9177    0.8257 H   0  0  0  0  0  0  0  0  0  0  0  0
   -4.2947   -4.1263   -0.7864 H   0  0  0  0  0  0  0  0  0  0  0  0
   -4.9267   -2.8865    0.3172 H   0  0  0  0  0  0  0  0  0  0  0  0
    2.2795    1.0606   -1.8363 H   0  0  0  0  0  0  0  0  0  0  0  0
    1.6290   -1.2280    1.7833 H   0  0  0  0  0  0  0  0  0  0  0  0
    3.9876   -1.3545    2.1509 H   0  0  0  0  0  0  0  0  0  0  0  0
    6.1824   -0.9032    1.5750 H   0  0  0  0  0  0  0  0  0  0  0  0
    6.4272    0.6527    0.7847 H   0  0  0  0  0  0  0  0  0  0  0  0
    6.4889   -0.8646   -0.1599 H   0  0  0  0  0  0  0  0  0  0  0  0
  1 18  1  0  0  0  0
  2 12  2  0  0  0  0
  3 13  2  0  0  0  0
  4 11  1  0  0  0  0
  4 13  1  0  0  0  0
  4 32  1  0  0  0  0
  5 12  1  0  0  0  0
  5 14  1  0  0  0  0
  5 33  1  0  0  0  0
  6  7  1  0  0  0  0
  6  8  1  0  0  0  0
  6 11  1  0  0  0  0
  6 22  1  0  0  0  0
  7  9  1  0  0  0  0
  7 23  1  0  0  0  0
  7 24  1  0  0  0  0
  8 10  1  0  0  0  0
  8 25  1  0  0  0  0
  8 26  1  0  0  0  0
  9 10  1  0  0  0  0
  9 27  1  0  0  0  0
  9 28  1  0  0  0  0
 10 29  1  0  0  0  0
 10 30  1  0  0  0  0
 11 12  1  0  0  0  0
 11 31  1  0  0  0  0
 13 15  1  0  0  0  0
 14 16  2  0  0  0  0
 14 17  1  0  0  0  0
 15 34  1  0  0  0  0
 15 35  1  0  0  0  0
 15 36  1  0  0  0  0
 16 18  1  0  0  0  0
 16 37  1  0  0  0  0
 17 19  2  0  0  0  0
 17 38  1  0  0  0  0
 18 20  2  0  0  0  0
 19 20  1  0  0  0  0
 19 39  1  0  0  0  0
 20 21  1  0  0  0  0
 21 40  1  0  0  0  0
 21 41  1  0  0  0  0
 21 42  1  0  0  0  0
M  END
> <PUBCHEM_COMPOUND_CID>
17395507

> <PUBCHEM_CONFORMER_RMSD>
0.8

> <PUBCHEM_CONFORMER_DIVERSEORDER>
2
23
93
100
104
24
120
64
36
95
106
98
77
111
103
91
122
34
109
27
113
30
88
78
112
72
58
84
44
123
115
80
52
119
99
38
33
87
94
105
28
43
10
107
102
12
66
51
63
79
60
118
15
39
70
35
71
97
45
50
82
73
14
69
96
59
16
54
47
26
117
21
86
108
53
124
57
85
46
29
22
49
61
65
74
68
116
89
19
81
62
20
32
75
13
114
31
40
67
17
90
18
37
76
11
6
121
25
7
48
5
110
55
42
92
9
3
8
101
56
41
1
4
83

> <PUBCHEM_MMFF94_PARTIAL_CHARGES>
21
1 -0.18
11 0.36
12 0.57
13 0.57
14 0.12
15 0.06
16 -0.15
17 -0.15
18 0.18
19 -0.15
2 -0.57
20 -0.14
21 0.14
3 -0.57
32 0.37
33 0.37
37 0.15
38 0.15
39 0.15
4 -0.73
5 -0.55

> <PUBCHEM_EFFECTIVE_ROTOR_COUNT>
7

> <PUBCHEM_PHARMACOPHORE_FEATURES>
6
1 2 acceptor
1 3 acceptor
1 4 donor
1 5 donor
5 6 7 8 9 10 rings
6 14 16 17 18 19 20 rings

> <PUBCHEM_HEAVY_ATOM_COUNT>
21

> <PUBCHEM_ATOM_DEF_STEREO_COUNT>
0

> <PUBCHEM_ATOM_UDEF_STEREO_COUNT>
1

> <PUBCHEM_BOND_DEF_STEREO_COUNT>
0

> <PUBCHEM_BOND_UDEF_STEREO_COUNT>
0

> <PUBCHEM_ISOTOPIC_ATOM_COUNT>
0

> <PUBCHEM_COMPONENT_COUNT>
1

> <PUBCHEM_CACTVS_TAUTO_COUNT>
4

> <PUBCHEM_CONFORMER_ID>
01096F3300000002

> <PUBCHEM_MMFF94_ENERGY>
52.6671

> <PUBCHEM_FEATURE_SELFOVERLAP>
30.446

> <PUBCHEM_SHAPE_FINGERPRINT>
10369192 42 16375245828087095136
10411042 1 18193842531674182211
10906281 52 18195804305721972041
11045515 52 17986680272945052095
11056379 131 18336818715117026558
11796584 16 18115305713398569990
12107183 9 17910120445016336330
12173636 292 18191312791409509213
12236239 1 18060700593405622528
12500047 106 18188780559821068178
12553582 1 18192154785256607615
12616971 3 17704353299361427232
12714826 92 17968093080074584915
12788726 201 18341327778143393851
13583140 156 17676218974207521326
14508225 48 18191042118517881525
14739800 52 18268716018262543992
15042514 8 18410290303374070155
15806764 133 17530962445653889960
15842332 3 18131361842321129770
16087824 20 18410295836020051605
17349148 13 17846507989322172762
17539 30 18261404304291021015
17818456 19 18122351434984015152
1813 80 17899413091531849999
18785283 64 17545027669295610707
19433438 15 18272647970030801012
200 152 18130512911770129554
20101258 96 18195514914375963593
20511986 3 18059306438811799148
20645477 56 18261109720515089993
21033650 10 18195219261881085108
21065201 7 18260268564376940482
21426921 1 18409169900503100987
21524375 3 18126847325055834089
22620623 9 17894921702480255671
23402539 116 18343025467046047510
23557571 272 18113623386574945392
23559900 14 18116150155297178190
23598288 3 18341607110268741491
25147074 1 18060140946973057434
266924 1 18130521802742777435
268830 7 17418374688605770172
474 4 17774999150122761520
5104073 3 17561358466511422608
573450 72 18342183275757184218
633830 44 17703214196778007206
7471813 234 18196379121651245308
7615 1 18059868267741235482
9981440 41 18051127292441182049

> <PUBCHEM_SHAPE_MULTIPOLES>
412.34
11.45
3.52
1.26
12.31
0.12
-0.25
0.99
-1.07
-7.91
-0.43
1.28
-0.26
-2.04

> <PUBCHEM_SHAPE_SELFOVERLAP>
847.073

> <PUBCHEM_SHAPE_VOLUME>
238.3

> <PUBCHEM_COORDINATE_TYPE>
2
5
10

$$$$

