3915
  -OEChem-06251223452D

 60 63  0     1  0  0  0  0  0999 V2000
    2.0000   -5.3672    0.0000 F   0  0  0  0  0  0  0  0  0  0  0  0
    2.5000    3.9629    0.0000 O   0  0  0  0  0  0  0  0  0  0  0  0
    3.6736    4.9477    0.0000 O   0  0  0  0  0  0  0  0  0  0  0  0
    4.0000    1.0969    0.0000 N   0  0  3  0  0  0  0  0  0  0  0  0
    5.0000   -3.6352    0.0000 N   0  0  0  0  0  0  0  0  0  0  0  0
    4.0000    0.0969    0.0000 C   0  0  0  0  0  0  0  0  0  0  0  0
    4.0000    3.0969    0.0000 C   0  0  3  0  0  0  0  0  0  0  0  0
    3.1340    2.5969    0.0000 C   0  0  3  0  0  0  0  0  0  0  0  0
    3.1340    1.5969    0.0000 C   0  0  0  0  0  0  0  0  0  0  0  0
    4.8660    2.5969    0.0000 C   0  0  0  0  0  0  0  0  0  0  0  0
    4.8660    1.5969    0.0000 C   0  0  0  0  0  0  0  0  0  0  0  0
    3.1340   -0.4031    0.0000 C   0  0  0  0  0  0  0  0  0  0  0  0
    4.8660   -0.4031    0.0000 C   0  0  0  0  0  0  0  0  0  0  0  0
    4.0000   -1.9031    0.0000 C   0  0  0  0  0  0  0  0  0  0  0  0
    3.1340   -1.4031    0.0000 C   0  0  0  0  0  0  0  0  0  0  0  0
    4.8660   -1.4031    0.0000 C   0  0  0  0  0  0  0  0  0  0  0  0
    4.7660    3.7396    0.0000 C   0  0  0  0  0  0  0  0  0  0  0  0
    2.2680    3.0969    0.0000 C   0  0  0  0  0  0  0  0  0  0  0  0
    3.5000    3.9629    0.0000 C   0  0  0  0  0  0  0  0  0  0  0  0
    3.5000   -2.7692    0.0000 C   0  0  0  0  0  0  0  0  0  0  0  0
    4.5000   -2.7692    0.0000 C   0  0  0  0  0  0  0  0  0  0  0  0
    5.7057    3.3976    0.0000 C   0  0  0  0  0  0  0  0  0  0  0  0
    4.5924    4.7244    0.0000 C   0  0  0  0  0  0  0  0  0  0  0  0
    2.5000   -2.7692    0.0000 C   0  0  0  0  0  0  0  0  0  0  0  0
    4.0000   -3.6352    0.0000 C   0  0  0  0  0  0  0  0  0  0  0  0
    6.4718    4.0404    0.0000 C   0  0  0  0  0  0  0  0  0  0  0  0
    5.3584    5.3672    0.0000 C   0  0  0  0  0  0  0  0  0  0  0  0
    6.2981    5.0252    0.0000 C   0  0  0  0  0  0  0  0  0  0  0  0
    2.0000   -3.6352    0.0000 C   0  0  0  0  0  0  0  0  0  0  0  0
    3.5000   -4.5012    0.0000 C   0  0  0  0  0  0  0  0  0  0  0  0
    2.5000   -4.5012    0.0000 C   0  0  0  0  0  0  0  0  0  0  0  0
    4.5369    0.4069    0.0000 H   0  0  0  0  0  0  0  0  0  0  0  0
    3.1340    3.2169    0.0000 H   0  0  0  0  0  0  0  0  0  0  0  0
    2.5234    1.7045    0.0000 H   0  0  0  0  0  0  0  0  0  0  0  0
    2.9219    1.0143    0.0000 H   0  0  0  0  0  0  0  0  0  0  0  0
    5.4766    2.4892    0.0000 H   0  0  0  0  0  0  0  0  0  0  0  0
    5.0781    3.1795    0.0000 H   0  0  0  0  0  0  0  0  0  0  0  0
    5.0781    1.0143    0.0000 H   0  0  0  0  0  0  0  0  0  0  0  0
    5.4766    1.7045    0.0000 H   0  0  0  0  0  0  0  0  0  0  0  0
    5.4766   -0.5108    0.0000 H   0  0  0  0  0  0  0  0  0  0  0  0
    5.0781    0.1795    0.0000 H   0  0  0  0  0  0  0  0  0  0  0  0
    2.9219    0.1795    0.0000 H   0  0  0  0  0  0  0  0  0  0  0  0
    2.5234   -0.5108    0.0000 H   0  0  0  0  0  0  0  0  0  0  0  0
    5.0781   -1.9858    0.0000 H   0  0  0  0  0  0  0  0  0  0  0  0
    5.4766   -1.2955    0.0000 H   0  0  0  0  0  0  0  0  0  0  0  0
    2.5234   -1.2955    0.0000 H   0  0  0  0  0  0  0  0  0  0  0  0
    2.9219   -1.9858    0.0000 H   0  0  0  0  0  0  0  0  0  0  0  0
    2.5780    3.6338    0.0000 H   0  0  0  0  0  0  0  0  0  0  0  0
    1.7310    3.4069    0.0000 H   0  0  0  0  0  0  0  0  0  0  0  0
    1.9580    2.5599    0.0000 H   0  0  0  0  0  0  0  0  0  0  0  0
    5.8134    2.7870    0.0000 H   0  0  0  0  0  0  0  0  0  0  0  0
    4.0098    4.9365    0.0000 H   0  0  0  0  0  0  0  0  0  0  0  0
    2.1900   -2.2322    0.0000 H   0  0  0  0  0  0  0  0  0  0  0  0
    4.6200   -3.6352    0.0000 H   0  0  0  0  0  0  0  0  0  0  0  0
    2.1900    4.4998    0.0000 H   0  0  0  0  0  0  0  0  0  0  0  0
    7.0544    3.8284    0.0000 H   0  0  0  0  0  0  0  0  0  0  0  0
    5.2508    5.9778    0.0000 H   0  0  0  0  0  0  0  0  0  0  0  0
    6.7731    5.4238    0.0000 H   0  0  0  0  0  0  0  0  0  0  0  0
    1.3800   -3.6352    0.0000 H   0  0  0  0  0  0  0  0  0  0  0  0
    3.8100   -5.0382    0.0000 H   0  0  0  0  0  0  0  0  0  0  0  0
  1 31  1  0  0  0  0
  2 19  1  0  0  0  0
  2 55  1  0  0  0  0
  3 19  2  0  0  0  0
  4  6  1  0  0  0  0
  4  9  1  0  0  0  0
  4 11  1  0  0  0  0
  5 21  3  0  0  0  0
  6 12  1  0  0  0  0
  6 13  1  0  0  0  0
  6 32  1  0  0  0  0
  7  8  1  0  0  0  0
  7 10  1  0  0  0  0
  7 17  1  0  0  0  0
  7 19  1  0  0  0  0
  8  9  1  0  0  0  0
  8 18  1  0  0  0  0
  8 33  1  0  0  0  0
  9 34  1  0  0  0  0
  9 35  1  0  0  0  0
 10 11  1  0  0  0  0
 10 36  1  0  0  0  0
 10 37  1  0  0  0  0
 11 38  1  0  0  0  0
 11 39  1  0  0  0  0
 12 15  1  0  0  0  0
 12 42  1  0  0  0  0
 12 43  1  0  0  0  0
 13 16  1  0  0  0  0
 13 40  1  0  0  0  0
 13 41  1  0  0  0  0
 14 15  1  0  0  0  0
 14 16  1  0  0  0  0
 14 20  1  0  0  0  0
 14 21  1  0  0  0  0
 15 46  1  0  0  0  0
 15 47  1  0  0  0  0
 16 44  1  0  0  0  0
 16 45  1  0  0  0  0
 17 22  2  0  0  0  0
 17 23  1  0  0  0  0
 18 48  1  0  0  0  0
 18 49  1  0  0  0  0
 18 50  1  0  0  0  0
 20 24  2  0  0  0  0
 20 25  1  0  0  0  0
 22 26  1  0  0  0  0
 22 51  1  0  0  0  0
 23 27  2  0  0  0  0
 23 52  1  0  0  0  0
 24 29  1  0  0  0  0
 24 53  1  0  0  0  0
 25 30  2  0  0  0  0
 25 54  1  0  0  0  0
 26 28  2  0  0  0  0
 26 56  1  0  0  0  0
 27 28  1  0  0  0  0
 27 57  1  0  0  0  0
 28 58  1  0  0  0  0
 29 31  2  0  0  0  0
 29 59  1  0  0  0  0
 30 31  1  0  0  0  0
 30 60  1  0  0  0  0
M  END
> <PUBCHEM_COMPOUND_CID>
3915

> <PUBCHEM_COMPOUND_CANONICALIZED>
1

> <PUBCHEM_CACTVS_COMPLEXITY>
681

> <PUBCHEM_CACTVS_HBOND_ACCEPTOR>
5

> <PUBCHEM_CACTVS_HBOND_DONOR>
1

> <PUBCHEM_CACTVS_ROTATABLE_BOND>
4

> <PUBCHEM_CACTVS_SUBSKEYS>
AAADceB7MQAAAAAAAAAAAAAAAAAAAAAAAAA8YMEAAAAAAAABQAAAHwAACAAADyjBmAwyCIMAAgCYBiDSCAACAAAgAAAIiAEIAIgIoDKAlRCEYAAkwAGIiA+8yOCPgAAAAAAAAAAQAAAAAAAAAAAAAAAAAA==

> <PUBCHEM_IUPAC_OPENEYE_NAME>
1-[4-cyano-4-(4-fluorophenyl)cyclohexyl]-3-methyl-4-phenyl-piperidine-4-carboxylic acid

> <PUBCHEM_IUPAC_CAS_NAME>
1-[4-cyano-4-(4-fluorophenyl)cyclohexyl]-3-methyl-4-phenyl-4-piperidinecarboxylic acid

> <PUBCHEM_IUPAC_NAME>
1-[4-cyano-4-(4-fluorophenyl)cyclohexyl]-3-methyl-4-phenylpiperidine-4-carboxylic acid

> <PUBCHEM_IUPAC_SYSTEMATIC_NAME>
1-[4-cyano-4-(4-fluorophenyl)cyclohexyl]-3-methyl-4-phenyl-piperidine-4-carboxylic acid

> <PUBCHEM_IUPAC_TRADITIONAL_NAME>
1-[4-cyano-4-(4-fluorophenyl)cyclohexyl]-3-methyl-4-phenyl-isonipecotic acid

> <PUBCHEM_IUPAC_INCHI>
InChI=1S/C26H29FN2O2/c1-19-17-29(16-15-26(19,24(30)31)21-5-3-2-4-6-21)23-11-13-25(18-28,14-12-23)20-7-9-22(27)10-8-20/h2-10,19,23H,11-17H2,1H3,(H,30,31)

> <PUBCHEM_IUPAC_INCHIKEY>
ZCGOMHNNNFPNMX-UHFFFAOYSA-N

> <PUBCHEM_XLOGP3_AA>
2.5

> <PUBCHEM_EXACT_MASS>
420.221306

> <PUBCHEM_MOLECULAR_FORMULA>
C26H29FN2O2

> <PUBCHEM_MOLECULAR_WEIGHT>
420.519063

> <PUBCHEM_OPENEYE_CAN_SMILES>
CC1CN(CCC1(C2=CC=CC=C2)C(=O)O)C3CCC(CC3)(C#N)C4=CC=C(C=C4)F

> <PUBCHEM_OPENEYE_ISO_SMILES>
CC1CN(CCC1(C2=CC=CC=C2)C(=O)O)C3CCC(CC3)(C#N)C4=CC=C(C=C4)F

> <PUBCHEM_CACTVS_TPSA>
64.3

> <PUBCHEM_MONOISOTOPIC_WEIGHT>
420.221306

> <PUBCHEM_TOTAL_CHARGE>
0

> <PUBCHEM_HEAVY_ATOM_COUNT>
31

> <PUBCHEM_ATOM_DEF_STEREO_COUNT>
0

> <PUBCHEM_ATOM_UDEF_STEREO_COUNT>
2

> <PUBCHEM_BOND_DEF_STEREO_COUNT>
0

> <PUBCHEM_BOND_UDEF_STEREO_COUNT>
0

> <PUBCHEM_ISOTOPIC_ATOM_COUNT>
0

> <PUBCHEM_COMPONENT_COUNT>
1

> <PUBCHEM_CACTVS_TAUTO_COUNT>
1

> <PUBCHEM_COORDINATE_TYPE>
1
5
255

> <PUBCHEM_BONDANNOTATIONS>
17  22  8
17  23  8
20  24  8
20  25  8
22  26  8
23  27  8
24  29  8
25  30  8
26  28  8
27  28  8
29  31  8
30  31  8
7  19  3
8  18  3

$$$$

