10882
  -OEChem-06261205043D

 23 22  0     0  0  0  0  0  0999 V2000
    1.7408    0.4435   -0.0010 O   0  0  0  0  0  0  0  0  0  0  0  0
    0.5816   -1.5513    0.0040 O   0  0  0  0  0  0  0  0  0  0  0  0
   -1.9038   -0.2169   -0.0303 C   0  0  0  0  0  0  0  0  0  0  0  0
   -3.1179    0.7102    0.0042 C   0  0  0  0  0  0  0  0  0  0  0  0
   -0.5980    0.5757   -0.0066 C   0  0  0  0  0  0  0  0  0  0  0  0
   -4.4189   -0.0760    0.0197 C   0  0  0  0  0  0  0  0  0  0  0  0
    0.6136   -0.3285   -0.0011 C   0  0  0  0  0  0  0  0  0  0  0  0
    2.9792   -0.2740    0.0059 C   0  0  0  0  0  0  0  0  0  0  0  0
    4.1234    0.7174    0.0051 C   0  0  0  0  0  0  0  0  0  0  0  0
   -1.9403   -0.8437   -0.9300 H   0  0  0  0  0  0  0  0  0  0  0  0
   -1.9364   -0.8983    0.8293 H   0  0  0  0  0  0  0  0  0  0  0  0
   -3.1058    1.3716   -0.8698 H   0  0  0  0  0  0  0  0  0  0  0  0
   -3.0747    1.3482    0.8947 H   0  0  0  0  0  0  0  0  0  0  0  0
   -0.5596    1.1997    0.8933 H   0  0  0  0  0  0  0  0  0  0  0  0
   -0.5418    1.2198   -0.8913 H   0  0  0  0  0  0  0  0  0  0  0  0
   -4.5088   -0.7031   -0.8730 H   0  0  0  0  0  0  0  0  0  0  0  0
   -4.4766   -0.7224    0.9013 H   0  0  0  0  0  0  0  0  0  0  0  0
   -5.2741    0.6068    0.0428 H   0  0  0  0  0  0  0  0  0  0  0  0
    3.0330   -0.9008    0.9030 H   0  0  0  0  0  0  0  0  0  0  0  0
    3.0386   -0.9085   -0.8855 H   0  0  0  0  0  0  0  0  0  0  0  0
    5.0877    0.2017    0.0103 H   0  0  0  0  0  0  0  0  0  0  0  0
    4.0726    1.3637   -0.8773 H   0  0  0  0  0  0  0  0  0  0  0  0
    4.0673    1.3712    0.8817 H   0  0  0  0  0  0  0  0  0  0  0  0
  1  7  1  0  0  0  0
  1  8  1  0  0  0  0
  2  7  2  0  0  0  0
  3  4  1  0  0  0  0
  3  5  1  0  0  0  0
  3 10  1  0  0  0  0
  3 11  1  0  0  0  0
  4  6  1  0  0  0  0
  4 12  1  0  0  0  0
  4 13  1  0  0  0  0
  5  7  1  0  0  0  0
  5 14  1  0  0  0  0
  5 15  1  0  0  0  0
  6 16  1  0  0  0  0
  6 17  1  0  0  0  0
  6 18  1  0  0  0  0
  8  9  1  0  0  0  0
  8 19  1  0  0  0  0
  8 20  1  0  0  0  0
  9 21  1  0  0  0  0
  9 22  1  0  0  0  0
  9 23  1  0  0  0  0
M  END
> <PUBCHEM_COMPOUND_CID>
10882

> <PUBCHEM_CONFORMER_RMSD>
0.6

> <PUBCHEM_CONFORMER_DIVERSEORDER>
1
80
84
59
91
82
89
34
60
7
26
49
78
22
86
24
68
90
53
21
31
44
76
85
62
48
87
71
2
50
10
81
3
16
70
19
47
5
88
72
69
8
15
73
52
13
63
46
14
20
11
30
9
64
28
51
4
79
66
56
17
32
18
6
41
12
35
77
37
54
74
25
55
40
75
39
23
61
57
58
67
65
83
36
43
27
33
42
45
38
29

> <PUBCHEM_MMFF94_PARTIAL_CHARGES>
5
1 -0.43
2 -0.57
5 0.06
7 0.66
8 0.28

> <PUBCHEM_EFFECTIVE_ROTOR_COUNT>
5

> <PUBCHEM_PHARMACOPHORE_FEATURES>
2
1 2 acceptor
1 6 hydrophobe

> <PUBCHEM_HEAVY_ATOM_COUNT>
9

> <PUBCHEM_ATOM_DEF_STEREO_COUNT>
0

> <PUBCHEM_ATOM_UDEF_STEREO_COUNT>
0

> <PUBCHEM_BOND_DEF_STEREO_COUNT>
0

> <PUBCHEM_BOND_UDEF_STEREO_COUNT>
0

> <PUBCHEM_ISOTOPIC_ATOM_COUNT>
0

> <PUBCHEM_COMPONENT_COUNT>
1

> <PUBCHEM_CACTVS_TAUTO_COUNT>
1

> <PUBCHEM_CONFORMER_ID>
00002A8200000001

> <PUBCHEM_MMFF94_ENERGY>
0.4744

> <PUBCHEM_FEATURE_SELFOVERLAP>
10.148

> <PUBCHEM_SHAPE_FINGERPRINT>
10219947 1 18060416928064234292
11062470 55 17132114649785434237
12932764 1 14635163385907422949
14325111 11 18410856572751538278
170605 34 18410855490303982010
20645477 70 17822003268063100022
20719005 15 18410855460386637633
21293036 1 18113617880442663472
23235685 24 18412549811841544923
23402539 116 16702029656079911871
23402655 69 18334866060487430341
366044 4 18410012122310377250

> <PUBCHEM_SHAPE_MULTIPOLES>
173.48
7.93
1
0.6
1.07
0.22
0
-1.53
0.05
-0.21
0
0.03
-0.01
0

> <PUBCHEM_SHAPE_SELFOVERLAP>
311.687

> <PUBCHEM_SHAPE_VOLUME>
112.7

> <PUBCHEM_COORDINATE_TYPE>
2
5
10

$$$$

