17395848
  -OEChem-06241222523D

 44 46  0     1  0  0  0  0  0999 V2000
   -5.0492    0.9143    0.0484 S   0  0  0  0  0  0  0  0  0  0  0  0
    1.5955   -0.8373   -1.5433 S   0  0  0  0  0  0  0  0  0  0  0  0
    4.2026    1.9922    1.6108 F   0  0  0  0  0  0  0  0  0  0  0  0
   -5.9616    0.6162    1.1326 O   0  0  0  0  0  0  0  0  0  0  0  0
   -5.2021    2.0828   -0.7931 O   0  0  0  0  0  0  0  0  0  0  0  0
   -1.2158    1.1192   -1.2981 O   0  0  0  0  0  0  0  0  0  0  0  0
   -1.4007   -0.5418    0.3042 N   0  0  0  0  0  0  0  0  0  0  0  0
   -2.8362   -0.5005    0.2954 C   0  0  1  0  0  0  0  0  0  0  0  0
   -3.3761    0.8776    0.6756 C   0  0  0  0  0  0  0  0  0  0  0  0
   -3.4133   -0.8127   -1.0876 C   0  0  0  0  0  0  0  0  0  0  0  0
   -4.9081   -0.5308   -0.9930 C   0  0  0  0  0  0  0  0  0  0  0  0
   -0.7918   -1.5311    1.2018 C   0  0  0  0  0  0  0  0  0  0  0  0
   -0.6611    0.3200   -0.5410 C   0  0  0  0  0  0  0  0  0  0  0  0
   -0.6023   -2.8856    0.5297 C   0  0  0  0  0  0  0  0  0  0  0  0
    0.7975    0.2434   -0.4942 C   0  0  0  0  0  0  0  0  0  0  0  0
    1.6794    0.9370    0.2999 C   0  0  0  0  0  0  0  0  0  0  0  0
    0.0086   -3.9237    1.4602 C   0  0  0  0  0  0  0  0  0  0  0  0
    3.0490    0.5845    0.0539 C   0  0  0  0  0  0  0  0  0  0  0  0
    3.1493   -0.3890   -0.9448 C   0  0  0  0  0  0  0  0  0  0  0  0
    1.2551    1.9451    1.3061 C   0  0  0  0  0  0  0  0  0  0  0  0
    4.2432    1.0591    0.6484 C   0  0  0  0  0  0  0  0  0  0  0  0
    4.3977   -0.8937   -1.3588 C   0  0  0  0  0  0  0  0  0  0  0  0
    5.4831    0.5606    0.2401 C   0  0  0  0  0  0  0  0  0  0  0  0
    5.5572   -0.4055   -0.7532 C   0  0  0  0  0  0  0  0  0  0  0  0
   -3.2350   -1.2398    1.0030 H   0  0  0  0  0  0  0  0  0  0  0  0
   -2.8495    1.7253    0.2350 H   0  0  0  0  0  0  0  0  0  0  0  0
   -3.3994    1.0132    1.7607 H   0  0  0  0  0  0  0  0  0  0  0  0
   -2.9975   -0.1905   -1.8845 H   0  0  0  0  0  0  0  0  0  0  0  0
   -3.2292   -1.8535   -1.3755 H   0  0  0  0  0  0  0  0  0  0  0  0
   -5.3613   -0.3322   -1.9663 H   0  0  0  0  0  0  0  0  0  0  0  0
   -5.4317   -1.3534   -0.4970 H   0  0  0  0  0  0  0  0  0  0  0  0
    0.1784   -1.1617    1.5472 H   0  0  0  0  0  0  0  0  0  0  0  0
   -1.4125   -1.6235    2.1011 H   0  0  0  0  0  0  0  0  0  0  0  0
    0.0129   -2.8093   -0.3677 H   0  0  0  0  0  0  0  0  0  0  0  0
   -1.5773   -3.2578    0.1913 H   0  0  0  0  0  0  0  0  0  0  0  0
    1.0038   -3.6112    1.7920 H   0  0  0  0  0  0  0  0  0  0  0  0
   -0.6186   -4.0736    2.3447 H   0  0  0  0  0  0  0  0  0  0  0  0
    0.1068   -4.8846    0.9455 H   0  0  0  0  0  0  0  0  0  0  0  0
    1.5688    1.6368    2.3091 H   0  0  0  0  0  0  0  0  0  0  0  0
    0.1702    2.0862    1.3300 H   0  0  0  0  0  0  0  0  0  0  0  0
    1.7075    2.9180    1.0864 H   0  0  0  0  0  0  0  0  0  0  0  0
    4.4653   -1.6501   -2.1355 H   0  0  0  0  0  0  0  0  0  0  0  0
    6.3921    0.9327    0.7041 H   0  0  0  0  0  0  0  0  0  0  0  0
    6.5259   -0.7872   -1.0642 H   0  0  0  0  0  0  0  0  0  0  0  0
  1  4  2  0  0  0  0
  1  5  2  0  0  0  0
  1  9  1  0  0  0  0
  1 11  1  0  0  0  0
  2 15  1  0  0  0  0
  2 19  1  0  0  0  0
  3 21  1  0  0  0  0
  6 13  2  0  0  0  0
  7  8  1  0  0  0  0
  7 12  1  0  0  0  0
  7 13  1  0  0  0  0
  8  9  1  0  0  0  0
  8 10  1  0  0  0  0
  8 25  1  0  0  0  0
  9 26  1  0  0  0  0
  9 27  1  0  0  0  0
 10 11  1  0  0  0  0
 10 28  1  0  0  0  0
 10 29  1  0  0  0  0
 11 30  1  0  0  0  0
 11 31  1  0  0  0  0
 12 14  1  0  0  0  0
 12 32  1  0  0  0  0
 12 33  1  0  0  0  0
 13 15  1  0  0  0  0
 14 17  1  0  0  0  0
 14 34  1  0  0  0  0
 14 35  1  0  0  0  0
 15 16  2  0  0  0  0
 16 18  1  0  0  0  0
 16 20  1  0  0  0  0
 17 36  1  0  0  0  0
 17 37  1  0  0  0  0
 17 38  1  0  0  0  0
 18 19  1  0  0  0  0
 18 21  2  0  0  0  0
 19 22  2  0  0  0  0
 20 39  1  0  0  0  0
 20 40  1  0  0  0  0
 20 41  1  0  0  0  0
 21 23  1  0  0  0  0
 22 24  1  0  0  0  0
 22 42  1  0  0  0  0
 23 24  2  0  0  0  0
 23 43  1  0  0  0  0
 24 44  1  0  0  0  0
M  END
> <PUBCHEM_COMPOUND_CID>
17395848

> <PUBCHEM_CONFORMER_RMSD>
0.8

> <PUBCHEM_CONFORMER_DIVERSEORDER>
1
37
53
66
54
48
62
72
49
68
55
65
61
56
76
45
60
67
63
24
17
58
46
43
13
51
69
71
57
41
77
74
3
44
18
64
15
26
38
70
14
27
50
59
47
40
33
73
21
12
75
6
30
25
16
8
42
7
31
39
10
19
32
5
36
35
22
11
4
23
34
28
20
9
29
2
52

> <PUBCHEM_MMFF94_PARTIAL_CHARGES>
23
1 1.09
11 0.11
12 0.3
13 0.71
15 -0.05
16 -0.18
19 0.04
2 -0.08
20 0.18
21 0.19
22 -0.15
23 -0.15
24 -0.15
3 -0.19
4 -0.65
42 0.15
43 0.15
44 0.15
5 -0.65
6 -0.57
7 -0.66
8 0.3
9 0.11

> <PUBCHEM_EFFECTIVE_ROTOR_COUNT>
5.8

> <PUBCHEM_PHARMACOPHORE_FEATURES>
7
1 17 hydrophobe
1 4 acceptor
1 5 acceptor
1 6 acceptor
5 1 8 9 10 11 rings
5 2 15 16 18 19 rings
6 18 19 21 22 23 24 rings

> <PUBCHEM_HEAVY_ATOM_COUNT>
24

> <PUBCHEM_ATOM_DEF_STEREO_COUNT>
0

> <PUBCHEM_ATOM_UDEF_STEREO_COUNT>
1

> <PUBCHEM_BOND_DEF_STEREO_COUNT>
0

> <PUBCHEM_BOND_UDEF_STEREO_COUNT>
0

> <PUBCHEM_ISOTOPIC_ATOM_COUNT>
0

> <PUBCHEM_COMPONENT_COUNT>
1

> <PUBCHEM_CACTVS_TAUTO_COUNT>
1

> <PUBCHEM_CONFORMER_ID>
0109708800000001

> <PUBCHEM_MMFF94_ENERGY>
53.7088

> <PUBCHEM_FEATURE_SELFOVERLAP>
35.596

> <PUBCHEM_SHAPE_FINGERPRINT>
10366900 7 18188195551680538246
10906281 52 18116130243438475156
11089746 13 15502381127532369936
11646440 116 18336814347678625201
12107183 9 16810645117771197754
12166972 35 14345796050318676874
12236239 1 15647053776440364780
12403259 415 18411138043607751349
12422481 6 17201942502729730842
12507560 18 18261105292298118154
12623949 98 12535352345421027640
12633257 1 18200047144297780480
12788726 201 18188768474089481816
13533116 47 18338234985685107522
13544592 145 18410004447182609990
15183329 4 17749106720767044097
15375358 24 18334573508589505470
15788980 27 15863790603945724309
1601671 61 17489587887171643565
17913733 40 18268691940369512395
200 152 16515402975859827357
20600515 1 18271513222064347260
20645477 70 17530959198974781078
20832881 197 18261670488619882570
21033648 29 18341902874232757713
22393880 68 18335430075502966327
22956985 138 16986884681463302907
23402539 116 18410296908305829917
23536379 177 17458060482488444117
23559900 14 17894915109362545264
29717793 49 15647044989164279876
3380486 145 17039229818726908491
351380 180 18040997332214525168
3545911 37 17967248702657995117
38695281 34 18261110811790763463
4073 2 18262235521674815854
4340502 62 18412820304650546990
469060 322 17916003820316062669
495365 180 17821733823447839090
5104073 3 17894912905965519643
5265222 85 18058146364335369046
5283173 99 18114462369940353593
5385378 56 18200305666948149499
633830 44 18335991899847778549
9709674 26 18118122472439802310
9981440 41 16740333148787462297

> <PUBCHEM_SHAPE_MULTIPOLES>
471.75
12.43
2.55
1.47
3.04
2.58
0
-5.16
-1.18
0.49
1.48
-0.33
0.22
1.19

> <PUBCHEM_SHAPE_SELFOVERLAP>
981.062

> <PUBCHEM_SHAPE_VOLUME>
272

> <PUBCHEM_COORDINATE_TYPE>
2
5
10

$$$$

