17395906
  -OEChem-06241222533D

 38 40  0     1  0  0  0  0  0999 V2000
    0.6623    2.4291   -0.8767 O   0  0  0  0  0  0  0  0  0  0  0  0
    1.3813    0.3081   -0.2760 N   0  0  0  0  0  0  0  0  0  0  0  0
   -3.3615   -1.9660   -0.0958 N   0  0  0  0  0  0  0  0  0  0  0  0
   -4.8563   -0.4232    0.4747 N   0  0  0  0  0  0  0  0  0  0  0  0
    3.5595   -0.7143   -0.9097 C   0  0  1  0  0  0  0  0  0  0  0  0
    2.7944    0.5508   -0.4656 C   0  0  2  0  0  0  0  0  0  0  0  0
    3.6781   -1.7417    0.2266 C   0  0  0  0  0  0  0  0  0  0  0  0
    3.4070    1.1464    0.8074 C   0  0  0  0  0  0  0  0  0  0  0  0
    4.2881   -1.1239    1.4828 C   0  0  0  0  0  0  0  0  0  0  0  0
    3.5286    0.1196    1.9331 C   0  0  0  0  0  0  0  0  0  0  0  0
    2.9511   -1.3556   -2.1585 C   0  0  0  0  0  0  0  0  0  0  0  0
    0.4243    1.2841   -0.5017 C   0  0  0  0  0  0  0  0  0  0  0  0
   -0.9819    0.8849   -0.2356 C   0  0  0  0  0  0  0  0  0  0  0  0
   -1.3426   -0.4619   -0.3467 C   0  0  0  0  0  0  0  0  0  0  0  0
   -1.9171    1.8585    0.1226 C   0  0  0  0  0  0  0  0  0  0  0  0
   -2.6755   -0.7787   -0.0831 C   0  0  0  0  0  0  0  0  0  0  0  0
   -3.6302    0.1686    0.2757 C   0  0  0  0  0  0  0  0  0  0  0  0
   -3.2502    1.5172    0.3828 C   0  0  0  0  0  0  0  0  0  0  0  0
   -4.6593   -1.7019    0.2437 C   0  0  0  0  0  0  0  0  0  0  0  0
    4.5794   -0.4009   -1.1744 H   0  0  0  0  0  0  0  0  0  0  0  0
    2.8895    1.3012   -1.2613 H   0  0  0  0  0  0  0  0  0  0  0  0
    4.3033   -2.5827   -0.0973 H   0  0  0  0  0  0  0  0  0  0  0  0
    2.6932   -2.1600    0.4682 H   0  0  0  0  0  0  0  0  0  0  0  0
    2.8160    2.0006    1.1590 H   0  0  0  0  0  0  0  0  0  0  0  0
    4.4080    1.5314    0.5737 H   0  0  0  0  0  0  0  0  0  0  0  0
    5.3343   -0.8590    1.2855 H   0  0  0  0  0  0  0  0  0  0  0  0
    4.2949   -1.8642    2.2908 H   0  0  0  0  0  0  0  0  0  0  0  0
    2.5293   -0.1680    2.2816 H   0  0  0  0  0  0  0  0  0  0  0  0
    4.0428    0.5733    2.7880 H   0  0  0  0  0  0  0  0  0  0  0  0
    1.9532   -1.7615   -1.9627 H   0  0  0  0  0  0  0  0  0  0  0  0
    2.8696   -0.6247   -2.9697 H   0  0  0  0  0  0  0  0  0  0  0  0
    3.5808   -2.1787   -2.5128 H   0  0  0  0  0  0  0  0  0  0  0  0
    1.1170   -0.5762    0.1441 H   0  0  0  0  0  0  0  0  0  0  0  0
   -0.6548   -1.2422   -0.6508 H   0  0  0  0  0  0  0  0  0  0  0  0
   -1.6262    2.9028    0.2120 H   0  0  0  0  0  0  0  0  0  0  0  0
   -3.9693    2.2807    0.6618 H   0  0  0  0  0  0  0  0  0  0  0  0
   -2.9765   -2.8746   -0.3168 H   0  0  0  0  0  0  0  0  0  0  0  0
   -5.4056   -2.4812    0.3042 H   0  0  0  0  0  0  0  0  0  0  0  0
  1 12  2  0  0  0  0
  2  6  1  0  0  0  0
  2 12  1  0  0  0  0
  2 33  1  0  0  0  0
  3 16  1  0  0  0  0
  3 19  1  0  0  0  0
  3 37  1  0  0  0  0
  4 17  1  0  0  0  0
  4 19  2  0  0  0  0
  5  6  1  0  0  0  0
  5  7  1  0  0  0  0
  5 11  1  0  0  0  0
  5 20  1  0  0  0  0
  6  8  1  0  0  0  0
  6 21  1  0  0  0  0
  7  9  1  0  0  0  0
  7 22  1  0  0  0  0
  7 23  1  0  0  0  0
  8 10  1  0  0  0  0
  8 24  1  0  0  0  0
  8 25  1  0  0  0  0
  9 10  1  0  0  0  0
  9 26  1  0  0  0  0
  9 27  1  0  0  0  0
 10 28  1  0  0  0  0
 10 29  1  0  0  0  0
 11 30  1  0  0  0  0
 11 31  1  0  0  0  0
 11 32  1  0  0  0  0
 12 13  1  0  0  0  0
 13 14  2  0  0  0  0
 13 15  1  0  0  0  0
 14 16  1  0  0  0  0
 14 34  1  0  0  0  0
 15 18  2  0  0  0  0
 15 35  1  0  0  0  0
 16 17  2  0  0  0  0
 17 18  1  0  0  0  0
 18 36  1  0  0  0  0
 19 38  1  0  0  0  0
M  END
> <PUBCHEM_COMPOUND_CID>
17395906

> <PUBCHEM_CONFORMER_RMSD>
0.6

> <PUBCHEM_CONFORMER_DIVERSEORDER>
1
28
47
50
42
10
19
4
61
6
30
31
20
27
25
22
52
38
9
26
58
48
21
49
54
7
43
16
12
36
13
2
18
41
57
11
44
56
29
34
62
60
5
8
51
45
33
23
24
3
40
46
32
55
59
14
15
35
53
17
37
39

> <PUBCHEM_MMFF94_PARTIAL_CHARGES>
19
1 -0.57
12 0.54
13 0.09
14 -0.15
15 -0.15
16 -0.15
17 0.23
18 -0.15
19 0.04
2 -0.73
3 0.03
33 0.37
34 0.15
35 0.15
36 0.15
37 0.27
38 0.15
4 -0.57
6 0.3

> <PUBCHEM_EFFECTIVE_ROTOR_COUNT>
4.2

> <PUBCHEM_PHARMACOPHORE_FEATURES>
7
1 1 acceptor
1 2 donor
1 3 donor
3 3 4 19 cation
5 3 4 16 17 19 rings
6 13 14 15 16 17 18 rings
6 5 6 7 8 9 10 rings

> <PUBCHEM_HEAVY_ATOM_COUNT>
19

> <PUBCHEM_ATOM_DEF_STEREO_COUNT>
0

> <PUBCHEM_ATOM_UDEF_STEREO_COUNT>
2

> <PUBCHEM_BOND_DEF_STEREO_COUNT>
0

> <PUBCHEM_BOND_UDEF_STEREO_COUNT>
0

> <PUBCHEM_ISOTOPIC_ATOM_COUNT>
0

> <PUBCHEM_COMPONENT_COUNT>
1

> <PUBCHEM_CACTVS_TAUTO_COUNT>
5

> <PUBCHEM_CONFORMER_ID>
010970C200000001

> <PUBCHEM_MMFF94_ENERGY>
30.0777

> <PUBCHEM_FEATURE_SELFOVERLAP>
35.627

> <PUBCHEM_SHAPE_FINGERPRINT>
10042902 136 17414451785990481330
11543360 7 14476953442105254827
11552529 35 16009600049140441639
11578080 2 17345773944224330612
12346177 29 18340497758670430597
12363563 72 18201719552542992216
12410352 35 18202572782161654867
12507560 40 17821728355463938640
12553582 1 18272644653973163671
12670546 177 13398621719715875897
12892183 10 17240761800198980913
13296908 3 18410011056831329908
13583140 156 16950574301939859881
13675066 3 17967812760507120533
14178342 30 18338518671794067456
1420 369 18343303652109419251
14252887 29 18334571330919611202
14289901 80 16805611373124043828
14420673 8 17976256060663625882
14866123 147 16093162211302199230
15239154 128 8718831989724067995
15342168 16 5472857086403037761
15342816 4 18202841054672277852
15885798 251 18343302569761907621
17804303 29 18334850649696437613
1813 80 17847055563160714837
19107657 162 18260827111439965020
20281475 54 18273213105658547388
20645477 70 18129379294054449877
20671657 53 17988927734588976325
21065199 12 18040438810509490880
21503847 285 4678823861215357906
21756936 100 15866914175310876808
21864079 5 7348592033309604546
22079108 93 14057002672816393455
2255824 54 17845082966170236292
22646028 1 18131634490897174275
22646028 28 18131635594851482026
23366157 5 17986104111340769813
23559900 14 18187355571503792876
23596394 208 13326853353107512016
251288 83 18411990135317952064
2838139 119 14346904474409690291
3060560 45 14189573044761750778
49207404 50 17676207983101166598
5104073 3 18408599258374192001
5374978 207 18260267434293931681
573450 72 18343304794702491289
5924683 9 17604161328793666079
633830 44 15554159384630955181
6823239 73 18114728392088372526
8988823 20 17458635467061743009
960060 61 16487254361207302927
9709674 26 18337945684612994511
9841814 1 18272930484157859016

> <PUBCHEM_SHAPE_MULTIPOLES>
370.2
10.19
2.13
1.37
3.16
0.18
0.03
-4.59
-2.83
0.69
0.26
-2.18
-0.29
0.42

> <PUBCHEM_SHAPE_SELFOVERLAP>
794.593

> <PUBCHEM_SHAPE_VOLUME>
204.3

> <PUBCHEM_COORDINATE_TYPE>
2
5
10

$$$$

