47205060
  -OEChem-06241222583D

 26 27  0     0  0  0  0  0  0999 V2000
    1.1782   -2.0612    0.8190 Cl  0  0  0  0  0  0  0  0  0  0  0  0
    4.1709   -2.3714   -0.3038 Cl  0  0  0  0  0  0  0  0  0  0  0  0
   -0.1785    0.5012    1.9105 O   0  0  0  0  0  0  0  0  0  0  0  0
   -0.8087    1.3295   -0.1615 N   0  0  0  0  0  0  0  0  0  0  0  0
   -3.4802    0.0493   -1.2769 N   0  0  0  0  0  0  0  0  0  0  0  0
   -4.2811   -1.0299   -1.2758 N   0  0  0  0  0  0  0  0  0  0  0  0
   -2.1809    1.6224    0.1851 C   0  0  0  0  0  0  0  0  0  0  0  0
   -3.0802    0.4401   -0.0328 C   0  0  0  0  0  0  0  0  0  0  0  0
    1.4669    0.5673    0.2413 C   0  0  0  0  0  0  0  0  0  0  0  0
    0.1120    0.7815    0.7363 C   0  0  0  0  0  0  0  0  0  0  0  0
   -3.6602   -0.4448    0.8431 C   0  0  0  0  0  0  0  0  0  0  0  0
    2.0663   -0.6921    0.2278 C   0  0  0  0  0  0  0  0  0  0  0  0
    2.1666    1.6779   -0.2308 C   0  0  0  0  0  0  0  0  0  0  0  0
    3.3654   -0.8411   -0.2577 C   0  0  0  0  0  0  0  0  0  0  0  0
    3.4656    1.5290   -0.7162 C   0  0  0  0  0  0  0  0  0  0  0  0
   -4.3874   -1.3273    0.0220 C   0  0  0  0  0  0  0  0  0  0  0  0
    4.0652    0.2696   -0.7295 C   0  0  0  0  0  0  0  0  0  0  0  0
   -2.5053    2.4636   -0.4368 H   0  0  0  0  0  0  0  0  0  0  0  0
   -2.2265    1.9395    1.2328 H   0  0  0  0  0  0  0  0  0  0  0  0
   -0.5128    1.5215   -1.1145 H   0  0  0  0  0  0  0  0  0  0  0  0
   -3.5692   -0.4520    1.9194 H   0  0  0  0  0  0  0  0  0  0  0  0
   -3.2452    0.4701   -2.1673 H   0  0  0  0  0  0  0  0  0  0  0  0
    1.7186    2.6685   -0.2229 H   0  0  0  0  0  0  0  0  0  0  0  0
    4.0110    2.3939   -1.0824 H   0  0  0  0  0  0  0  0  0  0  0  0
   -4.9901   -2.1747    0.3154 H   0  0  0  0  0  0  0  0  0  0  0  0
    5.0786    0.1726   -1.1111 H   0  0  0  0  0  0  0  0  0  0  0  0
  1 12  1  0  0  0  0
  2 14  1  0  0  0  0
  3 10  2  0  0  0  0
  4  7  1  0  0  0  0
  4 10  1  0  0  0  0
  4 20  1  0  0  0  0
  5  6  1  0  0  0  0
  5  8  1  0  0  0  0
  5 22  1  0  0  0  0
  6 16  2  0  0  0  0
  7  8  1  0  0  0  0
  7 18  1  0  0  0  0
  7 19  1  0  0  0  0
  8 11  2  0  0  0  0
  9 10  1  0  0  0  0
  9 12  2  0  0  0  0
  9 13  1  0  0  0  0
 11 16  1  0  0  0  0
 11 21  1  0  0  0  0
 12 14  1  0  0  0  0
 13 15  2  0  0  0  0
 13 23  1  0  0  0  0
 14 17  2  0  0  0  0
 15 17  1  0  0  0  0
 15 24  1  0  0  0  0
 16 25  1  0  0  0  0
 17 26  1  0  0  0  0
M  END
> <PUBCHEM_COMPOUND_CID>
47205060

> <PUBCHEM_CONFORMER_RMSD>
0.6

> <PUBCHEM_CONFORMER_DIVERSEORDER>
3
47
29
19
58
10
46
42
15
24
52
30
37
49
56
22
8
59
34
39
11
17
20
60
16
2
50
28
48
40
55
23
21
33
35
57
51
12
53
18
1
7
41
27
54
25
45
26
36
5
31
14
32
9
43
44
13
6
38
4

> <PUBCHEM_MMFF94_PARTIAL_CHARGES>
24
1 -0.18
10 0.54
11 -0.15
12 0.18
13 -0.15
14 0.18
15 -0.15
16 0.14
17 -0.15
2 -0.18
20 0.37
21 0.15
22 0.27
23 0.15
24 0.15
25 0.15
26 0.15
3 -0.57
4 -0.73
5 0.3
6 -0.71
7 0.48
8 -0.33
9 0.09

> <PUBCHEM_EFFECTIVE_ROTOR_COUNT>
4

> <PUBCHEM_PHARMACOPHORE_FEATURES>
6
1 3 acceptor
1 4 donor
1 5 donor
1 6 acceptor
5 5 6 8 11 16 rings
6 9 12 13 14 15 17 rings

> <PUBCHEM_HEAVY_ATOM_COUNT>
17

> <PUBCHEM_ATOM_DEF_STEREO_COUNT>
0

> <PUBCHEM_ATOM_UDEF_STEREO_COUNT>
0

> <PUBCHEM_BOND_DEF_STEREO_COUNT>
0

> <PUBCHEM_BOND_UDEF_STEREO_COUNT>
0

> <PUBCHEM_ISOTOPIC_ATOM_COUNT>
0

> <PUBCHEM_COMPONENT_COUNT>
1

> <PUBCHEM_CACTVS_TAUTO_COUNT>
4

> <PUBCHEM_CONFORMER_ID>
02D04AC400000003

> <PUBCHEM_MMFF94_ENERGY>
32.1608

> <PUBCHEM_FEATURE_SELFOVERLAP>
30.446

> <PUBCHEM_SHAPE_MULTIPOLES>
332.78
9.36
2.16
1.12
4.68
0.6
0.13
3.43
-3
-1.6
-0.03
0.59
0.06
-0.44

> <PUBCHEM_SHAPE_SELFOVERLAP>
692.991

> <PUBCHEM_SHAPE_VOLUME>
190.7

> <PUBCHEM_COORDINATE_TYPE>
2
5
10

$$$$

