4649
  -OEChem-06261200163D

 18 18  0     0  0  0  0  0  0999 V2000
    0.6705   -2.1801   -0.1869 O   0  0  0  0  0  0  0  0  0  0  0  0
    2.5574    1.4370   -0.4767 O   0  0  0  0  0  0  0  0  0  0  0  0
    2.8355   -0.6088    0.4742 O   0  0  0  0  0  0  0  0  0  0  0  0
   -3.5675    0.0822    0.0040 N   0  0  0  0  0  0  0  0  0  0  0  0
    0.6306    0.2081    0.0328 C   0  0  0  0  0  0  0  0  0  0  0  0
   -0.0296   -1.0154   -0.0820 C   0  0  0  0  0  0  0  0  0  0  0  0
   -2.1578    0.1243    0.0136 C   0  0  0  0  0  0  0  0  0  0  0  0
   -1.4239   -1.0573   -0.0916 C   0  0  0  0  0  0  0  0  0  0  0  0
   -0.1033    1.3895    0.1380 C   0  0  0  0  0  0  0  0  0  0  0  0
   -1.4974    1.3476    0.1284 C   0  0  0  0  0  0  0  0  0  0  0  0
    2.0857    0.2729    0.0462 C   0  0  0  0  0  0  0  0  0  0  0  0
   -1.9333   -2.0140   -0.1815 H   0  0  0  0  0  0  0  0  0  0  0  0
    0.3818    2.3565    0.2417 H   0  0  0  0  0  0  0  0  0  0  0  0
   -2.0585    2.2748    0.2139 H   0  0  0  0  0  0  0  0  0  0  0  0
   -4.1001    0.9386    0.0795 H   0  0  0  0  0  0  0  0  0  0  0  0
   -4.0470   -0.8044   -0.0797 H   0  0  0  0  0  0  0  0  0  0  0  0
    1.6243   -2.0052   -0.2179 H   0  0  0  0  0  0  0  0  0  0  0  0
    3.5377    1.4721   -0.4639 H   0  0  0  0  0  0  0  0  0  0  0  0
  1  6  1  0  0  0  0
  1 17  1  0  0  0  0
  2 11  1  0  0  0  0
  2 18  1  0  0  0  0
  3 11  2  0  0  0  0
  4  7  1  0  0  0  0
  4 15  1  0  0  0  0
  4 16  1  0  0  0  0
  5  6  2  0  0  0  0
  5  9  1  0  0  0  0
  5 11  1  0  0  0  0
  6  8  1  0  0  0  0
  7  8  2  0  0  0  0
  7 10  1  0  0  0  0
  8 12  1  0  0  0  0
  9 10  2  0  0  0  0
  9 13  1  0  0  0  0
 10 14  1  0  0  0  0
M  END
> <PUBCHEM_COMPOUND_CID>
4649

> <PUBCHEM_CONFORMER_RMSD>
0.4

> <PUBCHEM_CONFORMER_DIVERSEORDER>
1
3
2

> <PUBCHEM_MMFF94_PARTIAL_CHARGES>
18
1 -0.53
10 -0.15
11 0.63
12 0.15
13 0.15
14 0.15
15 0.4
16 0.4
17 0.45
18 0.5
2 -0.65
3 -0.57
4 -0.9
5 0.09
6 0.08
7 0.1
8 -0.15
9 -0.15

> <PUBCHEM_EFFECTIVE_ROTOR_COUNT>
1

> <PUBCHEM_PHARMACOPHORE_FEATURES>
7
1 1 donor
1 2 acceptor
1 3 acceptor
1 4 cation
1 4 donor
3 2 3 11 anion
6 5 6 7 8 9 10 rings

> <PUBCHEM_HEAVY_ATOM_COUNT>
11

> <PUBCHEM_ATOM_DEF_STEREO_COUNT>
0

> <PUBCHEM_ATOM_UDEF_STEREO_COUNT>
0

> <PUBCHEM_BOND_DEF_STEREO_COUNT>
0

> <PUBCHEM_BOND_UDEF_STEREO_COUNT>
0

> <PUBCHEM_ISOTOPIC_ATOM_COUNT>
0

> <PUBCHEM_COMPONENT_COUNT>
1

> <PUBCHEM_CACTVS_TAUTO_COUNT>
12

> <PUBCHEM_CONFORMER_ID>
0000122900000001

> <PUBCHEM_MMFF94_ENERGY>
41.6702

> <PUBCHEM_FEATURE_SELFOVERLAP>
35.578

> <PUBCHEM_SHAPE_FINGERPRINT>
10219947 1 18341891883584974729
12897270 3 18410855481750879837
14325111 11 18411418393054896097
16945 1 18410852204600986711
193761 8 17760928841476794233
20645476 183 17844512332514833358
21040471 1 18336829688969002882
23235685 24 18410859845553651529
23402655 69 18191886719885122829
23463225 33 18341335577777129394
23552423 10 18268143347774043607
241688 4 17474665525886685634
2748010 2 18049163272177814725
369184 2 17275390893130118825
5084963 1 18187927321718226136
528886 8 18409733919755562561

> <PUBCHEM_SHAPE_MULTIPOLES>
203.79
4.02
1.71
0.62
0.49
0.34
0
-0.5
0.06
-0.31
-0.09
-0.07
-0.03
-0.21

> <PUBCHEM_SHAPE_SELFOVERLAP>
432.534

> <PUBCHEM_SHAPE_VOLUME>
113.6

> <PUBCHEM_COORDINATE_TYPE>
2
5
10

$$$$

