17395262
  -OEChem-06241222482D

 59 62  0     1  0  0  0  0  0999 V2000
    5.3050    1.2892    0.0000 S   0  0  0  0  0  0  0  0  0  0  0  0
    9.7473   -0.9782    0.0000 S   0  0  0  0  0  0  0  0  0  0  0  0
    2.0000    3.5425    0.0000 F   0  0  0  0  0  0  0  0  0  0  0  0
    5.8683    2.1155    0.0000 O   0  0  0  0  0  0  0  0  0  0  0  0
    4.7416    0.4630    0.0000 O   0  0  0  0  0  0  0  0  0  0  0  0
    7.6595   -2.6533    0.0000 O   0  0  0  0  0  0  0  0  0  0  0  0
    6.1312    0.7259    0.0000 N   0  0  3  0  0  0  0  0  0  0  0  0
    7.6595   -0.9212    0.0000 N   0  0  0  0  0  0  0  0  0  0  0  0
   11.6446   -0.9825    0.0000 N   0  0  0  0  0  0  0  0  0  0  0  0
   12.2282   -1.7873    0.0000 N   0  0  0  0  0  0  0  0  0  0  0  0
    6.9972    1.2259    0.0000 C   0  0  0  0  0  0  0  0  0  0  0  0
    5.9822   -0.2629    0.0000 C   0  0  0  0  0  0  0  0  0  0  0  0
    7.9281    0.8606    0.0000 C   0  0  0  0  0  0  0  0  0  0  0  0
    6.6623   -0.9960    0.0000 C   0  0  0  0  0  0  0  0  0  0  0  0
    8.2228   -0.0950    0.0000 C   0  0  0  0  0  0  0  0  0  0  0  0
    8.1595   -1.7873    0.0000 C   0  0  0  0  0  0  0  0  0  0  0  0
    9.1595   -1.7873    0.0000 C   0  0  0  0  0  0  0  0  0  0  0  0
   10.6984   -1.2873    0.0000 C   0  0  0  0  0  0  0  0  0  0  0  0
   10.6984   -2.2873    0.0000 C   0  0  0  0  0  0  0  0  0  0  0  0
    4.4787    1.8526    0.0000 C   0  0  0  0  0  0  0  0  0  0  0  0
   11.9553   -0.0320    0.0000 C   0  0  0  0  0  0  0  0  0  0  0  0
   12.9338    0.1742    0.0000 C   0  0  0  0  0  0  0  0  0  0  0  0
    9.7473   -2.5963    0.0000 C   0  0  0  0  0  0  0  0  0  0  0  0
   11.6446   -2.5920    0.0000 C   0  0  0  0  0  0  0  0  0  0  0  0
   13.2444    1.1247    0.0000 C   0  0  0  0  0  0  0  0  0  0  0  0
   13.6016   -0.5701    0.0000 C   0  0  0  0  0  0  0  0  0  0  0  0
    4.5534    2.8498    0.0000 C   0  0  0  0  0  0  0  0  0  0  0  0
    3.5778    1.4187    0.0000 C   0  0  0  0  0  0  0  0  0  0  0  0
   11.9553   -3.5425    0.0000 C   0  0  0  0  0  0  0  0  0  0  0  0
    3.7272    3.4131    0.0000 C   0  0  0  0  0  0  0  0  0  0  0  0
    2.7515    1.9820    0.0000 C   0  0  0  0  0  0  0  0  0  0  0  0
    2.8262    2.9792    0.0000 C   0  0  0  0  0  0  0  0  0  0  0  0
    7.3465    1.7382    0.0000 H   0  0  0  0  0  0  0  0  0  0  0  0
    6.5755    1.6804    0.0000 H   0  0  0  0  0  0  0  0  0  0  0  0
    5.4050   -0.0364    0.0000 H   0  0  0  0  0  0  0  0  0  0  0  0
    5.6329   -0.7752    0.0000 H   0  0  0  0  0  0  0  0  0  0  0  0
    8.5464    0.9069    0.0000 H   0  0  0  0  0  0  0  0  0  0  0  0
    8.0205    1.4736    0.0000 H   0  0  0  0  0  0  0  0  0  0  0  0
    6.1254   -1.3060    0.0000 H   0  0  0  0  0  0  0  0  0  0  0  0
    6.8451   -1.5884    0.0000 H   0  0  0  0  0  0  0  0  0  0  0  0
    8.6446   -0.5495    0.0000 H   0  0  0  0  0  0  0  0  0  0  0  0
    8.7598    0.2150    0.0000 H   0  0  0  0  0  0  0  0  0  0  0  0
   11.9347    0.5876    0.0000 H   0  0  0  0  0  0  0  0  0  0  0  0
   11.3414    0.0553    0.0000 H   0  0  0  0  0  0  0  0  0  0  0  0
   12.7411   -0.4151    0.0000 H   0  0  0  0  0  0  0  0  0  0  0  0
    9.5557   -3.1859    0.0000 H   0  0  0  0  0  0  0  0  0  0  0  0
   13.8337    0.9321    0.0000 H   0  0  0  0  0  0  0  0  0  0  0  0
   13.4370    1.7140    0.0000 H   0  0  0  0  0  0  0  0  0  0  0  0
   12.6551    1.3173    0.0000 H   0  0  0  0  0  0  0  0  0  0  0  0
   13.1401   -0.9842    0.0000 H   0  0  0  0  0  0  0  0  0  0  0  0
   14.0157   -1.0316    0.0000 H   0  0  0  0  0  0  0  0  0  0  0  0
   14.0631   -0.1560    0.0000 H   0  0  0  0  0  0  0  0  0  0  0  0
    5.1120    3.1188    0.0000 H   0  0  0  0  0  0  0  0  0  0  0  0
    3.5314    0.8004    0.0000 H   0  0  0  0  0  0  0  0  0  0  0  0
   11.3659   -3.7351    0.0000 H   0  0  0  0  0  0  0  0  0  0  0  0
   12.1479   -4.1318    0.0000 H   0  0  0  0  0  0  0  0  0  0  0  0
   12.5446   -3.3499    0.0000 H   0  0  0  0  0  0  0  0  0  0  0  0
    3.7735    4.0314    0.0000 H   0  0  0  0  0  0  0  0  0  0  0  0
    2.1929    1.7130    0.0000 H   0  0  0  0  0  0  0  0  0  0  0  0
  1  4  2  0  0  0  0
  1  5  2  0  0  0  0
  1  7  1  0  0  0  0
  1 20  1  0  0  0  0
  2 17  1  0  0  0  0
  2 18  1  0  0  0  0
  3 32  1  0  0  0  0
  6 16  2  0  0  0  0
  7 11  1  0  0  0  0
  7 12  1  0  0  0  0
  8 14  1  0  0  0  0
  8 15  1  0  0  0  0
  8 16  1  0  0  0  0
  9 10  1  0  0  0  0
  9 18  1  0  0  0  0
  9 21  1  0  0  0  0
 10 24  2  0  0  0  0
 11 13  1  0  0  0  0
 11 33  1  0  0  0  0
 11 34  1  0  0  0  0
 12 14  1  0  0  0  0
 12 35  1  0  0  0  0
 12 36  1  0  0  0  0
 13 15  1  0  0  0  0
 13 37  1  0  0  0  0
 13 38  1  0  0  0  0
 14 39  1  0  0  0  0
 14 40  1  0  0  0  0
 15 41  1  0  0  0  0
 15 42  1  0  0  0  0
 16 17  1  0  0  0  0
 17 23  2  0  0  0  0
 18 19  2  0  0  0  0
 19 23  1  0  0  0  0
 19 24  1  0  0  0  0
 20 27  2  0  0  0  0
 20 28  1  0  0  0  0
 21 22  1  0  0  0  0
 21 43  1  0  0  0  0
 21 44  1  0  0  0  0
 22 25  1  0  0  0  0
 22 26  1  0  0  0  0
 22 45  1  0  0  0  0
 23 46  1  0  0  0  0
 24 29  1  0  0  0  0
 25 47  1  0  0  0  0
 25 48  1  0  0  0  0
 25 49  1  0  0  0  0
 26 50  1  0  0  0  0
 26 51  1  0  0  0  0
 26 52  1  0  0  0  0
 27 30  1  0  0  0  0
 27 53  1  0  0  0  0
 28 31  2  0  0  0  0
 28 54  1  0  0  0  0
 29 55  1  0  0  0  0
 29 56  1  0  0  0  0
 29 57  1  0  0  0  0
 30 32  2  0  0  0  0
 30 58  1  0  0  0  0
 31 32  1  0  0  0  0
 31 59  1  0  0  0  0
M  END
> <PUBCHEM_COMPOUND_CID>
17395262

> <PUBCHEM_COMPOUND_CANONICALIZED>
1

> <PUBCHEM_CACTVS_COMPLEXITY>
770

> <PUBCHEM_CACTVS_HBOND_ACCEPTOR>
7

> <PUBCHEM_CACTVS_HBOND_DONOR>
0

> <PUBCHEM_CACTVS_ROTATABLE_BOND>
5

> <PUBCHEM_CACTVS_SUBSKEYS>
AAADceB7sQBgAAAAAAAAAAAAAAAAAWJAAAAwAAAABYAWAAAB/AAAHwQIQAAADQjB3gwygdMIAAquAyVyVHDTFJBliBhY2Dk4RNgIYLLg1dGUpQxgjgDoyYcYCQAeAAAAAAAAAAAAAAAAAAAAAAAAAAAAAA==

> <PUBCHEM_IUPAC_OPENEYE_NAME>
[4-(4-fluorophenyl)sulfonyl-1,4-diazepan-1-yl]-(1-isobutyl-3-methyl-thieno[2,3-c]pyrazol-5-yl)methanone

> <PUBCHEM_IUPAC_CAS_NAME>
[4-(4-fluorophenyl)sulfonyl-1,4-diazepan-1-yl]-[3-methyl-1-(2-methylpropyl)-5-thieno[2,3-c]pyrazolyl]methanone

> <PUBCHEM_IUPAC_NAME>
[4-(4-fluorophenyl)sulfonyl-1,4-diazepan-1-yl]-[3-methyl-1-(2-methylpropyl)thieno[2,3-c]pyrazol-5-yl]methanone

> <PUBCHEM_IUPAC_SYSTEMATIC_NAME>
[4-(4-fluorophenyl)sulfonyl-1,4-diazepan-1-yl]-[3-methyl-1-(2-methylpropyl)thieno[2,3-c]pyrazol-5-yl]methanone

> <PUBCHEM_IUPAC_TRADITIONAL_NAME>
[4-(4-fluorophenyl)sulfonyl-1,4-diazepan-1-yl]-(1-isobutyl-3-methyl-thieno[2,3-c]pyrazol-5-yl)methanone

> <PUBCHEM_IUPAC_INCHI>
InChI=1S/C22H27FN4O3S2/c1-15(2)14-27-22-19(16(3)24-27)13-20(31-22)21(28)25-9-4-10-26(12-11-25)32(29,30)18-7-5-17(23)6-8-18/h5-8,13,15H,4,9-12,14H2,1-3H3

> <PUBCHEM_IUPAC_INCHIKEY>
BCFLIERXKAKWEH-UHFFFAOYSA-N

> <PUBCHEM_XLOGP3_AA>
4.1

> <PUBCHEM_EXACT_MASS>
478.150861

> <PUBCHEM_MOLECULAR_FORMULA>
C22H27FN4O3S2

> <PUBCHEM_MOLECULAR_WEIGHT>
478.603183

> <PUBCHEM_OPENEYE_CAN_SMILES>
CC1=NN(C2=C1C=C(S2)C(=O)N3CCCN(CC3)S(=O)(=O)C4=CC=C(C=C4)F)CC(C)C

> <PUBCHEM_OPENEYE_ISO_SMILES>
CC1=NN(C2=C1C=C(S2)C(=O)N3CCCN(CC3)S(=O)(=O)C4=CC=C(C=C4)F)CC(C)C

> <PUBCHEM_CACTVS_TPSA>
112

> <PUBCHEM_MONOISOTOPIC_WEIGHT>
478.150861

> <PUBCHEM_TOTAL_CHARGE>
0

> <PUBCHEM_HEAVY_ATOM_COUNT>
32

> <PUBCHEM_ATOM_DEF_STEREO_COUNT>
0

> <PUBCHEM_ATOM_UDEF_STEREO_COUNT>
0

> <PUBCHEM_BOND_DEF_STEREO_COUNT>
0

> <PUBCHEM_BOND_UDEF_STEREO_COUNT>
0

> <PUBCHEM_ISOTOPIC_ATOM_COUNT>
0

> <PUBCHEM_COMPONENT_COUNT>
1

> <PUBCHEM_CACTVS_TAUTO_COUNT>
1

> <PUBCHEM_COORDINATE_TYPE>
1
5
255

> <PUBCHEM_BONDANNOTATIONS>
10  24  8
17  23  8
18  19  8
19  23  8
19  24  8
2  17  8
2  18  8
20  27  8
20  28  8
27  30  8
28  31  8
30  32  8
31  32  8
9  10  8
9  18  8

$$$$

