12307
  -OEChem-06261206473D

 14 13  0     0  0  0  0  0  0999 V2000
    0.3526   -0.6306    0.0006 O   0  0  0  0  0  0  0  0  0  0  0  0
    1.4954    1.2664    0.0014 O   0  5  0  0  0  0  0  0  0  0  0  0
    2.6260   -0.6554   -0.0038 O   0  0  0  0  0  0  0  0  0  0  0  0
    1.6076    0.0399   -0.0006 N   0  3  0  0  0  0  0  0  0  0  0  0
   -2.0403   -0.5742    0.0050 C   0  0  0  0  0  0  0  0  0  0  0  0
   -0.7623    0.2503    0.0040 C   0  0  0  0  0  0  0  0  0  0  0  0
   -3.2789    0.3036   -0.0066 C   0  0  0  0  0  0  0  0  0  0  0  0
   -2.0492   -1.2409   -0.8658 H   0  0  0  0  0  0  0  0  0  0  0  0
   -2.0557   -1.2286    0.8849 H   0  0  0  0  0  0  0  0  0  0  0  0
   -0.7470    0.8822   -0.8931 H   0  0  0  0  0  0  0  0  0  0  0  0
   -0.7445    0.8805    0.9022 H   0  0  0  0  0  0  0  0  0  0  0  0
   -3.3030    0.9371   -0.8990 H   0  0  0  0  0  0  0  0  0  0  0  0
   -4.1820   -0.3148   -0.0052 H   0  0  0  0  0  0  0  0  0  0  0  0
   -3.3095    0.9510    0.8755 H   0  0  0  0  0  0  0  0  0  0  0  0
  1  4  1  0  0  0  0
  1  6  1  0  0  0  0
  2  4  1  0  0  0  0
  3  4  2  0  0  0  0
  5  6  1  0  0  0  0
  5  7  1  0  0  0  0
  5  8  1  0  0  0  0
  5  9  1  0  0  0  0
  6 10  1  0  0  0  0
  6 11  1  0  0  0  0
  7 12  1  0  0  0  0
  7 13  1  0  0  0  0
  7 14  1  0  0  0  0
M  CHG  2   2  -1   4   1
M  END
> <PUBCHEM_COMPOUND_CID>
12307

> <PUBCHEM_CONFORMER_RMSD>
0.4

> <PUBCHEM_CONFORMER_DIVERSEORDER>
1
11
12
16
10
15
2
9
8
3
4
7
14
13
5
6

> <PUBCHEM_MMFF94_PARTIAL_CHARGES>
5
1 -0.27
2 -0.52
3 -0.52
4 1.03
6 0.28

> <PUBCHEM_EFFECTIVE_ROTOR_COUNT>
3

> <PUBCHEM_PHARMACOPHORE_FEATURES>
3
1 2 acceptor
1 3 acceptor
1 7 hydrophobe

> <PUBCHEM_HEAVY_ATOM_COUNT>
7

> <PUBCHEM_ATOM_DEF_STEREO_COUNT>
0

> <PUBCHEM_ATOM_UDEF_STEREO_COUNT>
0

> <PUBCHEM_BOND_DEF_STEREO_COUNT>
0

> <PUBCHEM_BOND_UDEF_STEREO_COUNT>
0

> <PUBCHEM_ISOTOPIC_ATOM_COUNT>
0

> <PUBCHEM_COMPONENT_COUNT>
1

> <PUBCHEM_CACTVS_TAUTO_COUNT>
1

> <PUBCHEM_CONFORMER_ID>
0000301300000001

> <PUBCHEM_MMFF94_ENERGY>
9.1346

> <PUBCHEM_FEATURE_SELFOVERLAP>
15.293

> <PUBCHEM_SHAPE_FINGERPRINT>
12932764 1 17275113816489965627
14325111 11 18410573955461271907
14390081 3 18408888408520704865
20096714 4 18337673009881608136
29004967 10 18411134736097525762
5460574 1 9295290538709203619

> <PUBCHEM_SHAPE_MULTIPOLES>
121.47
4.56
0.93
0.56
1.26
0.16
0
-0.03
0.01
-0.27
0
0.1
0
0

> <PUBCHEM_SHAPE_SELFOVERLAP>
215.005

> <PUBCHEM_SHAPE_VOLUME>
80.3

> <PUBCHEM_COORDINATE_TYPE>
2
5
10

$$$$

