13063
  -OEChem-06261207433D

 28 28  0     0  0  0  0  0  0999 V2000
   -1.1609    3.5615   -0.1001 F   0  0  0  0  0  0  0  0  0  0  0  0
    2.1726    0.3539    0.1043 N   0  0  0  0  0  0  0  0  0  0  0  0
   -2.3415   -0.9139    0.0336 N   0  0  0  0  0  0  0  0  0  0  0  0
   -0.0759   -0.3104    0.0699 N   0  0  0  0  0  0  0  0  0  0  0  0
    0.5190    2.0131    0.0006 N   0  0  0  0  0  0  0  0  0  0  0  0
   -1.7909    1.3645   -0.0355 N   0  0  0  0  0  0  0  0  0  0  0  0
    2.6493   -1.0107    0.1685 C   0  0  0  0  0  0  0  0  0  0  0  0
    4.0676   -1.0214    0.7233 C   0  0  0  0  0  0  0  0  0  0  0  0
    2.5918   -1.6355   -1.2195 C   0  0  0  0  0  0  0  0  0  0  0  0
    0.8324    0.6957    0.0568 C   0  0  0  0  0  0  0  0  0  0  0  0
   -2.0250   -2.3066    0.0927 C   0  0  0  0  0  0  0  0  0  0  0  0
   -1.3549    0.0958    0.0221 C   0  0  0  0  0  0  0  0  0  0  0  0
   -3.2850   -3.1550    0.1260 C   0  0  0  0  0  0  0  0  0  0  0  0
   -0.7985    2.2690   -0.0426 C   0  0  0  0  0  0  0  0  0  0  0  0
    2.0283   -1.5988    0.8558 H   0  0  0  0  0  0  0  0  0  0  0  0
    2.8419    1.1129    0.0441 H   0  0  0  0  0  0  0  0  0  0  0  0
    4.4479   -2.0451    0.8034 H   0  0  0  0  0  0  0  0  0  0  0  0
    4.7526   -0.4540    0.0830 H   0  0  0  0  0  0  0  0  0  0  0  0
    4.0988   -0.5699    1.7211 H   0  0  0  0  0  0  0  0  0  0  0  0
    1.5680   -1.6761   -1.6053 H   0  0  0  0  0  0  0  0  0  0  0  0
    2.9775   -2.6604   -1.1989 H   0  0  0  0  0  0  0  0  0  0  0  0
    3.1907   -1.0641   -1.9379 H   0  0  0  0  0  0  0  0  0  0  0  0
   -1.4275   -2.5966   -0.7796 H   0  0  0  0  0  0  0  0  0  0  0  0
   -1.4335   -2.5242    0.9898 H   0  0  0  0  0  0  0  0  0  0  0  0
   -3.3061   -0.6054   -0.0053 H   0  0  0  0  0  0  0  0  0  0  0  0
   -3.8985   -2.9114    0.9999 H   0  0  0  0  0  0  0  0  0  0  0  0
   -3.8945   -2.9868   -0.7682 H   0  0  0  0  0  0  0  0  0  0  0  0
   -3.0293   -4.2181    0.1718 H   0  0  0  0  0  0  0  0  0  0  0  0
  1 14  1  0  0  0  0
  2  7  1  0  0  0  0
  2 10  1  0  0  0  0
  2 16  1  0  0  0  0
  3 11  1  0  0  0  0
  3 12  1  0  0  0  0
  3 25  1  0  0  0  0
  4 10  1  0  0  0  0
  4 12  2  0  0  0  0
  5 10  2  0  0  0  0
  5 14  1  0  0  0  0
  6 12  1  0  0  0  0
  6 14  2  0  0  0  0
  7  8  1  0  0  0  0
  7  9  1  0  0  0  0
  7 15  1  0  0  0  0
  8 17  1  0  0  0  0
  8 18  1  0  0  0  0
  8 19  1  0  0  0  0
  9 20  1  0  0  0  0
  9 21  1  0  0  0  0
  9 22  1  0  0  0  0
 11 13  1  0  0  0  0
 11 23  1  0  0  0  0
 11 24  1  0  0  0  0
 13 26  1  0  0  0  0
 13 27  1  0  0  0  0
 13 28  1  0  0  0  0
M  END
> <PUBCHEM_COMPOUND_CID>
13063

> <PUBCHEM_CONFORMER_RMSD>
0.6

> <PUBCHEM_CONFORMER_DIVERSEORDER>
1
35
41
9
43
19
21
39
15
40
14
23
30
25
6
29
34
13
4
32
33
3
42
27
37
17
20
7
26
10
18
22
2
38
11
36
8
12
31
16
28
24
5

> <PUBCHEM_MMFF94_PARTIAL_CHARGES>
13
1 -0.19
10 0.72
11 0.37
12 0.72
14 0.81
16 0.4
2 -0.87
25 0.4
3 -0.87
4 -0.62
5 -0.62
6 -0.62
7 0.37

> <PUBCHEM_EFFECTIVE_ROTOR_COUNT>
4

> <PUBCHEM_PHARMACOPHORE_FEATURES>
6
1 2 donor
1 3 donor
3 7 8 9 hydrophobe
4 2 4 5 10 cation
4 3 4 6 12 cation
6 4 5 6 10 12 14 rings

> <PUBCHEM_HEAVY_ATOM_COUNT>
14

> <PUBCHEM_ATOM_DEF_STEREO_COUNT>
0

> <PUBCHEM_ATOM_UDEF_STEREO_COUNT>
0

> <PUBCHEM_BOND_DEF_STEREO_COUNT>
0

> <PUBCHEM_BOND_UDEF_STEREO_COUNT>
0

> <PUBCHEM_ISOTOPIC_ATOM_COUNT>
0

> <PUBCHEM_COMPONENT_COUNT>
1

> <PUBCHEM_CACTVS_TAUTO_COUNT>
9

> <PUBCHEM_CONFORMER_ID>
0000330700000001

> <PUBCHEM_MMFF94_ENERGY>
30.5908

> <PUBCHEM_FEATURE_SELFOVERLAP>
30.488

> <PUBCHEM_SHAPE_FINGERPRINT>
1 1 17042608085129190733
116883 192 18408321090532705295
12500047 106 17978793733758385126
12532896 13 17903925804567872692
12553582 1 18338785707096536287
12716758 59 18048312546498926582
15442244 35 18265607685704524355
16945 1 18267017439335269204
20510252 161 17900546975371536880
20645476 183 17696166468529445838
20645477 70 17691415105514755879
20871998 184 18187651322877799430
20871998 22 18266742376697271811
21452121 199 18269567030790617434
21665056 4 17907012137986260943
2255824 54 17544749037202186391
23402539 116 18192168181222252093
23557571 272 18188207723454194724
23559900 14 17829891289731525270
257057 1 18339368448321866011
2748010 2 18336555901836137061
33824 294 17186158665832618515
43471831 8 17547289364376556497
54173680 148 18411703217989942747
7364860 26 17760926243079511523
81228 2 18337670918385548457
88987 49 18196081369128245350
9709674 26 18189621721003680558

> <PUBCHEM_SHAPE_MULTIPOLES>
255.93
5.37
3.7
0.74
2.23
1.74
-0.11
-5.69
0.63
-3.05
-0.17
0.48
-0.3
0.28

> <PUBCHEM_SHAPE_SELFOVERLAP>
508.414

> <PUBCHEM_SHAPE_VOLUME>
151.6

> <PUBCHEM_COORDINATE_TYPE>
2
5
10

$$$$

