17395313
  -OEChem-06241222492D

 41 43  0     1  0  0  0  0  0999 V2000
    6.1808    4.2907    0.0000 S   0  0  0  0  0  0  0  0  0  0  0  0
    3.4782   -3.2039    0.0000 S   0  0  0  0  0  0  0  0  0  0  0  0
    4.4487    1.2907    0.0000 O   0  0  0  0  0  0  0  0  0  0  0  0
    5.3147   -2.2093    0.0000 O   0  0  0  0  0  0  0  0  0  0  0  0
    6.1808    1.2907    0.0000 N   0  0  0  0  0  0  0  0  0  0  0  0
    4.4487   -0.7093    0.0000 N   0  0  0  0  0  0  0  0  0  0  0  0
    6.1808    2.2907    0.0000 C   0  0  3  0  0  0  0  0  0  0  0  0
    5.3147    2.7907    0.0000 C   0  0  0  0  0  0  0  0  0  0  0  0
    7.0468    2.7907    0.0000 C   0  0  0  0  0  0  0  0  0  0  0  0
    5.3147    3.7907    0.0000 C   0  0  0  0  0  0  0  0  0  0  0  0
    7.0468    3.7907    0.0000 C   0  0  0  0  0  0  0  0  0  0  0  0
    7.9407    2.2560    0.0000 C   0  0  0  0  0  0  0  0  0  0  0  0
    7.9407    4.3253    0.0000 C   0  0  0  0  0  0  0  0  0  0  0  0
    5.3147    0.7907    0.0000 C   0  0  0  0  0  0  0  0  0  0  0  0
    8.8468    2.7698    0.0000 C   0  0  0  0  0  0  0  0  0  0  0  0
    8.8468    3.8115    0.0000 C   0  0  0  0  0  0  0  0  0  0  0  0
    5.3147   -0.2093    0.0000 C   0  0  0  0  0  0  0  0  0  0  0  0
    4.4487   -1.7093    0.0000 C   0  0  0  0  0  0  0  0  0  0  0  0
    3.5827   -2.2093    0.0000 C   0  0  0  0  0  0  0  0  0  0  0  0
    2.6691   -1.8026    0.0000 C   0  0  0  0  0  0  0  0  0  0  0  0
    2.5000   -3.4118    0.0000 C   0  0  0  0  0  0  0  0  0  0  0  0
    2.0000   -2.5458    0.0000 C   0  0  0  0  0  0  0  0  0  0  0  0
    2.0933   -4.3253    0.0000 C   0  0  0  0  0  0  0  0  0  0  0  0
    6.7177    1.9807    0.0000 H   0  0  0  0  0  0  0  0  0  0  0  0
    4.7042    2.8983    0.0000 H   0  0  0  0  0  0  0  0  0  0  0  0
    5.1027    2.2080    0.0000 H   0  0  0  0  0  0  0  0  0  0  0  0
    5.1027    4.3733    0.0000 H   0  0  0  0  0  0  0  0  0  0  0  0
    4.7042    3.6830    0.0000 H   0  0  0  0  0  0  0  0  0  0  0  0
    6.7177    0.9807    0.0000 H   0  0  0  0  0  0  0  0  0  0  0  0
    7.9336    1.6360    0.0000 H   0  0  0  0  0  0  0  0  0  0  0  0
    7.9336    4.9453    0.0000 H   0  0  0  0  0  0  0  0  0  0  0  0
    9.3825    2.4578    0.0000 H   0  0  0  0  0  0  0  0  0  0  0  0
    9.3825    4.1235    0.0000 H   0  0  0  0  0  0  0  0  0  0  0  0
    5.5268   -0.7920    0.0000 H   0  0  0  0  0  0  0  0  0  0  0  0
    5.9253   -0.1017    0.0000 H   0  0  0  0  0  0  0  0  0  0  0  0
    3.9118   -0.3993    0.0000 H   0  0  0  0  0  0  0  0  0  0  0  0
    2.5402   -1.1962    0.0000 H   0  0  0  0  0  0  0  0  0  0  0  0
    1.3834   -2.4809    0.0000 H   0  0  0  0  0  0  0  0  0  0  0  0
    1.5269   -4.0731    0.0000 H   0  0  0  0  0  0  0  0  0  0  0  0
    1.8411   -4.8917    0.0000 H   0  0  0  0  0  0  0  0  0  0  0  0
    2.6597   -4.5775    0.0000 H   0  0  0  0  0  0  0  0  0  0  0  0
  1 10  1  0  0  0  0
  1 11  1  0  0  0  0
  2 19  1  0  0  0  0
  2 21  1  0  0  0  0
  3 14  2  0  0  0  0
  4 18  2  0  0  0  0
  5  7  1  0  0  0  0
  5 14  1  0  0  0  0
  5 29  1  0  0  0  0
  6 17  1  0  0  0  0
  6 18  1  0  0  0  0
  6 36  1  0  0  0  0
  7  8  1  0  0  0  0
  7  9  1  0  0  0  0
  7 24  1  0  0  0  0
  8 10  1  0  0  0  0
  8 25  1  0  0  0  0
  8 26  1  0  0  0  0
  9 11  1  0  0  0  0
  9 12  2  0  0  0  0
 10 27  1  0  0  0  0
 10 28  1  0  0  0  0
 11 13  2  0  0  0  0
 12 15  1  0  0  0  0
 12 30  1  0  0  0  0
 13 16  1  0  0  0  0
 13 31  1  0  0  0  0
 14 17  1  0  0  0  0
 15 16  2  0  0  0  0
 15 32  1  0  0  0  0
 16 33  1  0  0  0  0
 17 34  1  0  0  0  0
 17 35  1  0  0  0  0
 18 19  1  0  0  0  0
 19 20  2  0  0  0  0
 20 22  1  0  0  0  0
 20 37  1  0  0  0  0
 21 22  2  0  0  0  0
 21 23  1  0  0  0  0
 22 38  1  0  0  0  0
 23 39  1  0  0  0  0
 23 40  1  0  0  0  0
 23 41  1  0  0  0  0
M  END
> <PUBCHEM_COMPOUND_CID>
17395313

> <PUBCHEM_COMPOUND_CANONICALIZED>
1

> <PUBCHEM_CACTVS_COMPLEXITY>
446

> <PUBCHEM_CACTVS_HBOND_ACCEPTOR>
4

> <PUBCHEM_CACTVS_HBOND_DONOR>
2

> <PUBCHEM_CACTVS_ROTATABLE_BOND>
4

> <PUBCHEM_CACTVS_SUBSKEYS>
AAADceB7MABgAAAAAAAAAAAAAAAAASAAAAA0QAAAAAAAAACRwAAAHgQQAAAADCjF2ASyAYLAAAiMAiFSEACDAIAkCBBIiJmIBMgIYDKglTGUIQhglgCoiYcYiIAOAAAAAAAEAAAAAAAAAAgAAAAAAAAAAA==

> <PUBCHEM_IUPAC_OPENEYE_NAME>
5-methyl-N-[2-oxo-2-(thiochroman-4-ylamino)ethyl]thiophene-2-carboxamide

> <PUBCHEM_IUPAC_CAS_NAME>
N-[2-(3,4-dihydro-2H-1-benzothiopyran-4-ylamino)-2-oxoethyl]-5-methyl-2-thiophenecarboxamide

> <PUBCHEM_IUPAC_NAME>
N-[2-(3,4-dihydro-2H-thiochromen-4-ylamino)-2-oxoethyl]-5-methylthiophene-2-carboxamide

> <PUBCHEM_IUPAC_SYSTEMATIC_NAME>
N-[2-(3,4-dihydro-2H-thiochromen-4-ylamino)-2-oxidanylidene-ethyl]-5-methyl-thiophene-2-carboxamide

> <PUBCHEM_IUPAC_TRADITIONAL_NAME>
N-[2-keto-2-(thiochroman-4-ylamino)ethyl]-5-methyl-thiophene-2-carboxamide

> <PUBCHEM_IUPAC_INCHI>
InChI=1S/C17H18N2O2S2/c1-11-6-7-15(23-11)17(21)18-10-16(20)19-13-8-9-22-14-5-3-2-4-12(13)14/h2-7,13H,8-10H2,1H3,(H,18,21)(H,19,20)

> <PUBCHEM_IUPAC_INCHIKEY>
TXTLFJMBPOAWHC-UHFFFAOYSA-N

> <PUBCHEM_XLOGP3_AA>
3.1

> <PUBCHEM_EXACT_MASS>
346.08097

> <PUBCHEM_MOLECULAR_FORMULA>
C17H18N2O2S2

> <PUBCHEM_MOLECULAR_WEIGHT>
346.46702

> <PUBCHEM_OPENEYE_CAN_SMILES>
CC1=CC=C(S1)C(=O)NCC(=O)NC2CCSC3=CC=CC=C23

> <PUBCHEM_OPENEYE_ISO_SMILES>
CC1=CC=C(S1)C(=O)NCC(=O)NC2CCSC3=CC=CC=C23

> <PUBCHEM_CACTVS_TPSA>
112

> <PUBCHEM_MONOISOTOPIC_WEIGHT>
346.08097

> <PUBCHEM_TOTAL_CHARGE>
0

> <PUBCHEM_HEAVY_ATOM_COUNT>
23

> <PUBCHEM_ATOM_DEF_STEREO_COUNT>
0

> <PUBCHEM_ATOM_UDEF_STEREO_COUNT>
1

> <PUBCHEM_BOND_DEF_STEREO_COUNT>
0

> <PUBCHEM_BOND_UDEF_STEREO_COUNT>
0

> <PUBCHEM_ISOTOPIC_ATOM_COUNT>
0

> <PUBCHEM_COMPONENT_COUNT>
1

> <PUBCHEM_CACTVS_TAUTO_COUNT>
10

> <PUBCHEM_COORDINATE_TYPE>
1
5
255

> <PUBCHEM_BONDANNOTATIONS>
11  13  8
12  15  8
13  16  8
15  16  8
19  20  8
2  19  8
2  21  8
20  22  8
21  22  8
7  5  3
9  11  8
9  12  8

$$$$

