12454
  -OEChem-06261206572D

 52 55  0     0  0  0  0  0  0999 V2000
   10.7263   -2.2685    0.0000 Cl  0  0  0  0  0  0  0  0  0  0  0  0
    7.1962   -4.2927    0.0000 S   0  0  0  0  0  0  0  0  0  0  0  0
    2.0000    3.7073    0.0000 O   0  0  0  0  0  0  0  0  0  0  0  0
    5.4641    0.7073    0.0000 N   0  0  0  0  0  0  0  0  0  0  0  0
    3.7320    1.7073    0.0000 N   0  0  0  0  0  0  0  0  0  0  0  0
    5.4641    1.7073    0.0000 C   0  0  0  0  0  0  0  0  0  0  0  0
    4.5981    0.2073    0.0000 C   0  0  0  0  0  0  0  0  0  0  0  0
    3.7320    0.7073    0.0000 C   0  0  0  0  0  0  0  0  0  0  0  0
    4.5981    2.2073    0.0000 C   0  0  0  0  0  0  0  0  0  0  0  0
    6.3301    0.2073    0.0000 C   0  0  0  0  0  0  0  0  0  0  0  0
    2.8660    2.2073    0.0000 C   0  0  0  0  0  0  0  0  0  0  0  0
    6.3301   -0.7927    0.0000 C   0  0  0  0  0  0  0  0  0  0  0  0
    2.8660    3.2073    0.0000 C   0  0  0  0  0  0  0  0  0  0  0  0
    7.1962   -1.2927    0.0000 C   0  0  0  0  0  0  0  0  0  0  0  0
    7.1962   -2.2927    0.0000 C   0  0  0  0  0  0  0  0  0  0  0  0
    8.0622   -2.7927    0.0000 C   0  0  0  0  0  0  0  0  0  0  0  0
    6.3301   -2.7927    0.0000 C   0  0  0  0  0  0  0  0  0  0  0  0
    8.0622   -3.7927    0.0000 C   0  0  0  0  0  0  0  0  0  0  0  0
    6.3301   -3.7927    0.0000 C   0  0  0  0  0  0  0  0  0  0  0  0
    8.9561   -2.2580    0.0000 C   0  0  0  0  0  0  0  0  0  0  0  0
    5.4362   -2.2580    0.0000 C   0  0  0  0  0  0  0  0  0  0  0  0
    8.9561   -4.3273    0.0000 C   0  0  0  0  0  0  0  0  0  0  0  0
    5.4362   -4.3273    0.0000 C   0  0  0  0  0  0  0  0  0  0  0  0
    9.8622   -2.7718    0.0000 C   0  0  0  0  0  0  0  0  0  0  0  0
    4.5301   -2.7718    0.0000 C   0  0  0  0  0  0  0  0  0  0  0  0
    9.8622   -3.8135    0.0000 C   0  0  0  0  0  0  0  0  0  0  0  0
    4.5301   -3.8135    0.0000 C   0  0  0  0  0  0  0  0  0  0  0  0
    6.0747    1.5997    0.0000 H   0  0  0  0  0  0  0  0  0  0  0  0
    5.6762    2.2899    0.0000 H   0  0  0  0  0  0  0  0  0  0  0  0
    4.1996   -0.2676    0.0000 H   0  0  0  0  0  0  0  0  0  0  0  0
    4.9966   -0.2676    0.0000 H   0  0  0  0  0  0  0  0  0  0  0  0
    4.9966    2.6823    0.0000 H   0  0  0  0  0  0  0  0  0  0  0  0
    4.1996    2.6823    0.0000 H   0  0  0  0  0  0  0  0  0  0  0  0
    3.1215    0.8150    0.0000 H   0  0  0  0  0  0  0  0  0  0  0  0
    3.5200    0.1247    0.0000 H   0  0  0  0  0  0  0  0  0  0  0  0
    6.9407    0.0997    0.0000 H   0  0  0  0  0  0  0  0  0  0  0  0
    6.5422    0.7899    0.0000 H   0  0  0  0  0  0  0  0  0  0  0  0
    2.2554    2.3150    0.0000 H   0  0  0  0  0  0  0  0  0  0  0  0
    2.6540    1.6247    0.0000 H   0  0  0  0  0  0  0  0  0  0  0  0
    5.7196   -0.6850    0.0000 H   0  0  0  0  0  0  0  0  0  0  0  0
    6.1181   -1.3753    0.0000 H   0  0  0  0  0  0  0  0  0  0  0  0
    3.4766    3.0997    0.0000 H   0  0  0  0  0  0  0  0  0  0  0  0
    3.0781    3.7899    0.0000 H   0  0  0  0  0  0  0  0  0  0  0  0
    7.7331   -0.9827    0.0000 H   0  0  0  0  0  0  0  0  0  0  0  0
    2.0000    4.3273    0.0000 H   0  0  0  0  0  0  0  0  0  0  0  0
    8.9490   -1.6380    0.0000 H   0  0  0  0  0  0  0  0  0  0  0  0
    5.4434   -1.6380    0.0000 H   0  0  0  0  0  0  0  0  0  0  0  0
    8.9490   -4.9473    0.0000 H   0  0  0  0  0  0  0  0  0  0  0  0
    5.4434   -4.9473    0.0000 H   0  0  0  0  0  0  0  0  0  0  0  0
    3.9944   -2.4598    0.0000 H   0  0  0  0  0  0  0  0  0  0  0  0
   10.3979   -4.1255    0.0000 H   0  0  0  0  0  0  0  0  0  0  0  0
    3.9944   -4.1255    0.0000 H   0  0  0  0  0  0  0  0  0  0  0  0
  1 24  1  0  0  0  0
  2 18  1  0  0  0  0
  2 19  1  0  0  0  0
  3 13  1  0  0  0  0
  3 45  1  0  0  0  0
  4  6  1  0  0  0  0
  4  7  1  0  0  0  0
  4 10  1  0  0  0  0
  5  8  1  0  0  0  0
  5  9  1  0  0  0  0
  5 11  1  0  0  0  0
  6  9  1  0  0  0  0
  6 28  1  0  0  0  0
  6 29  1  0  0  0  0
  7  8  1  0  0  0  0
  7 30  1  0  0  0  0
  7 31  1  0  0  0  0
  8 34  1  0  0  0  0
  8 35  1  0  0  0  0
  9 32  1  0  0  0  0
  9 33  1  0  0  0  0
 10 12  1  0  0  0  0
 10 36  1  0  0  0  0
 10 37  1  0  0  0  0
 11 13  1  0  0  0  0
 11 38  1  0  0  0  0
 11 39  1  0  0  0  0
 12 14  1  0  0  0  0
 12 40  1  0  0  0  0
 12 41  1  0  0  0  0
 13 42  1  0  0  0  0
 13 43  1  0  0  0  0
 14 15  2  3  0  0  0
 14 44  1  0  0  0  0
 15 16  1  0  0  0  0
 15 17  1  0  0  0  0
 16 18  2  0  0  0  0
 16 20  1  0  0  0  0
 17 19  1  0  0  0  0
 17 21  2  0  0  0  0
 18 22  1  0  0  0  0
 19 23  2  0  0  0  0
 20 24  2  0  0  0  0
 20 46  1  0  0  0  0
 21 25  1  0  0  0  0
 21 47  1  0  0  0  0
 22 26  2  0  0  0  0
 22 48  1  0  0  0  0
 23 27  1  0  0  0  0
 23 49  1  0  0  0  0
 24 26  1  0  0  0  0
 25 27  2  0  0  0  0
 25 50  1  0  0  0  0
 26 51  1  0  0  0  0
 27 52  1  0  0  0  0
M  END
> <PUBCHEM_COMPOUND_CID>
12454

> <PUBCHEM_COMPOUND_CANONICALIZED>
1

> <PUBCHEM_CACTVS_COMPLEXITY>
509

> <PUBCHEM_CACTVS_HBOND_ACCEPTOR>
4

> <PUBCHEM_CACTVS_HBOND_DONOR>
1

> <PUBCHEM_CACTVS_ROTATABLE_BOND>
5

> <PUBCHEM_CACTVS_SUBSKEYS>
AAADceB7IABEAAAAAAAAAAAAAAAAAAAAAAA8aIEAAAAAAACRQAAAHgYACAAADALh2CYwAYMAAgiAAiBCAAACAAAgDRAIiBgIAogKcCKhExCUIAAggAC4iAcAgMAOAAIAIAAEAAAABABAAAgAAAAAAAAAAA==

> <PUBCHEM_IUPAC_OPENEYE_NAME>
2-[4-[3-(2-chlorothioxanthen-9-ylidene)propyl]piperazin-1-yl]ethanol

> <PUBCHEM_IUPAC_CAS_NAME>
2-[4-[3-(2-chloro-9-thioxanthenylidene)propyl]-1-piperazinyl]ethanol

> <PUBCHEM_IUPAC_NAME>
2-[4-[3-(2-chlorothioxanthen-9-ylidene)propyl]piperazin-1-yl]ethanol

> <PUBCHEM_IUPAC_SYSTEMATIC_NAME>
2-[4-[3-(2-chloranylthioxanthen-9-ylidene)propyl]piperazin-1-yl]ethanol

> <PUBCHEM_IUPAC_TRADITIONAL_NAME>
2-[4-[3-(2-chlorothioxanthen-9-ylidene)propyl]piperazino]ethanol

> <PUBCHEM_IUPAC_INCHI>
InChI=1S/C22H25ClN2OS/c23-17-7-8-22-20(16-17)18(19-4-1-2-6-21(19)27-22)5-3-9-24-10-12-25(13-11-24)14-15-26/h1-2,4-8,16,26H,3,9-15H2

> <PUBCHEM_IUPAC_INCHIKEY>
WFPIAZLQTJBIFN-UHFFFAOYSA-N

> <PUBCHEM_XLOGP3>
4.3

> <PUBCHEM_EXACT_MASS>
400.137612

> <PUBCHEM_MOLECULAR_FORMULA>
C22H25ClN2OS

> <PUBCHEM_MOLECULAR_WEIGHT>
400.9647

> <PUBCHEM_OPENEYE_CAN_SMILES>
C1CN(CCN1CCC=C2C3=CC=CC=C3SC4=C2C=C(C=C4)Cl)CCO

> <PUBCHEM_OPENEYE_ISO_SMILES>
C1CN(CCN1CCC=C2C3=CC=CC=C3SC4=C2C=C(C=C4)Cl)CCO

> <PUBCHEM_CACTVS_TPSA>
52

> <PUBCHEM_MONOISOTOPIC_WEIGHT>
400.137612

> <PUBCHEM_TOTAL_CHARGE>
0

> <PUBCHEM_HEAVY_ATOM_COUNT>
27

> <PUBCHEM_ATOM_DEF_STEREO_COUNT>
0

> <PUBCHEM_ATOM_UDEF_STEREO_COUNT>
0

> <PUBCHEM_BOND_DEF_STEREO_COUNT>
0

> <PUBCHEM_BOND_UDEF_STEREO_COUNT>
1

> <PUBCHEM_ISOTOPIC_ATOM_COUNT>
0

> <PUBCHEM_COMPONENT_COUNT>
1

> <PUBCHEM_CACTVS_TAUTO_COUNT>
1

> <PUBCHEM_COORDINATE_TYPE>
1
5
255

> <PUBCHEM_BONDANNOTATIONS>
14  15  1
16  18  8
16  20  8
17  19  8
17  21  8
18  22  8
19  23  8
20  24  8
21  25  8
22  26  8
23  27  8
24  26  8
25  27  8

$$$$

