17395995
  -OEChem-06241222533D

 43 44  0     1  0  0  0  0  0999 V2000
    0.0238    1.6380    1.5885 O   0  0  0  0  0  0  0  0  0  0  0  0
   -0.6239   -2.7394    0.3141 O   0  0  0  0  0  0  0  0  0  0  0  0
   -2.2037    0.4075   -1.0111 O   0  0  0  0  0  0  0  0  0  0  0  0
   -0.6945   -0.5113    1.0219 N   0  0  0  0  0  0  0  0  0  0  0  0
    1.2743   -1.3921    0.4590 N   0  0  0  0  0  0  0  0  0  0  0  0
   -4.1741    0.2498    0.2112 N   0  0  0  0  0  0  0  0  0  0  0  0
    1.6062   -0.0423    0.8387 C   0  0  1  0  0  0  0  0  0  0  0  0
    2.2313    0.7374   -0.2995 C   0  0  0  0  0  0  0  0  0  0  0  0
    0.2293    0.4943    1.2034 C   0  0  0  0  0  0  0  0  0  0  0  0
   -2.1151   -0.3740    1.2732 C   0  0  0  0  0  0  0  0  0  0  0  0
   -0.0897   -1.6679    0.5689 C   0  0  0  0  0  0  0  0  0  0  0  0
   -5.0729    0.7492   -0.8046 C   0  0  1  0  0  0  0  0  0  0  0  0
    3.7107    0.4700   -0.4244 C   0  0  0  0  0  0  0  0  0  0  0  0
   -2.8061    0.1205    0.0203 C   0  0  0  0  0  0  0  0  0  0  0  0
   -6.4673    0.1229   -0.6743 C   0  0  0  0  0  0  0  0  0  0  0  0
   -5.1517    2.2699   -0.7189 C   0  0  0  0  0  0  0  0  0  0  0  0
    4.6238    1.2621    0.2718 C   0  0  0  0  0  0  0  0  0  0  0  0
    4.1657   -0.5698   -1.2355 C   0  0  0  0  0  0  0  0  0  0  0  0
   -6.4383   -1.3981   -0.7542 C   0  0  0  0  0  0  0  0  0  0  0  0
    5.9918    1.0148    0.1566 C   0  0  0  0  0  0  0  0  0  0  0  0
    5.5337   -0.8170   -1.3506 C   0  0  0  0  0  0  0  0  0  0  0  0
    6.4467   -0.0247   -0.6544 C   0  0  0  0  0  0  0  0  0  0  0  0
    2.2251   -0.0775    1.7414 H   0  0  0  0  0  0  0  0  0  0  0  0
    2.0892    1.8157   -0.1467 H   0  0  0  0  0  0  0  0  0  0  0  0
    1.7340    0.5170   -1.2540 H   0  0  0  0  0  0  0  0  0  0  0  0
    1.9601   -2.0866    0.1799 H   0  0  0  0  0  0  0  0  0  0  0  0
   -2.5324   -1.3467    1.5529 H   0  0  0  0  0  0  0  0  0  0  0  0
   -2.2742    0.3506    2.0783 H   0  0  0  0  0  0  0  0  0  0  0  0
   -4.6573    0.4840   -1.7848 H   0  0  0  0  0  0  0  0  0  0  0  0
   -7.1167    0.5077   -1.4698 H   0  0  0  0  0  0  0  0  0  0  0  0
   -6.9232    0.4132    0.2806 H   0  0  0  0  0  0  0  0  0  0  0  0
   -4.5601    0.0510    1.1300 H   0  0  0  0  0  0  0  0  0  0  0  0
   -5.5356    2.5935    0.2551 H   0  0  0  0  0  0  0  0  0  0  0  0
   -4.1624    2.7224   -0.8487 H   0  0  0  0  0  0  0  0  0  0  0  0
   -5.8098    2.6720   -1.4962 H   0  0  0  0  0  0  0  0  0  0  0  0
    4.2818    2.0734    0.9088 H   0  0  0  0  0  0  0  0  0  0  0  0
    3.4650   -1.1934   -1.7842 H   0  0  0  0  0  0  0  0  0  0  0  0
   -5.8857   -1.8361    0.0827 H   0  0  0  0  0  0  0  0  0  0  0  0
   -7.4582   -1.7945   -0.7224 H   0  0  0  0  0  0  0  0  0  0  0  0
   -5.9745   -1.7322   -1.6878 H   0  0  0  0  0  0  0  0  0  0  0  0
    6.7026    1.6312    0.6990 H   0  0  0  0  0  0  0  0  0  0  0  0
    5.8881   -1.6262   -1.9823 H   0  0  0  0  0  0  0  0  0  0  0  0
    7.5118   -0.2175   -0.7439 H   0  0  0  0  0  0  0  0  0  0  0  0
  1  9  2  0  0  0  0
  2 11  2  0  0  0  0
  3 14  2  0  0  0  0
  4  9  1  0  0  0  0
  4 10  1  0  0  0  0
  4 11  1  0  0  0  0
  5  7  1  0  0  0  0
  5 11  1  0  0  0  0
  5 26  1  0  0  0  0
  6 12  1  0  0  0  0
  6 14  1  0  0  0  0
  6 32  1  0  0  0  0
  7  8  1  0  0  0  0
  7  9  1  0  0  0  0
  7 23  1  0  0  0  0
  8 13  1  0  0  0  0
  8 24  1  0  0  0  0
  8 25  1  0  0  0  0
 10 14  1  0  0  0  0
 10 27  1  0  0  0  0
 10 28  1  0  0  0  0
 12 15  1  0  0  0  0
 12 16  1  0  0  0  0
 12 29  1  0  0  0  0
 13 17  2  0  0  0  0
 13 18  1  0  0  0  0
 15 19  1  0  0  0  0
 15 30  1  0  0  0  0
 15 31  1  0  0  0  0
 16 33  1  0  0  0  0
 16 34  1  0  0  0  0
 16 35  1  0  0  0  0
 17 20  1  0  0  0  0
 17 36  1  0  0  0  0
 18 21  2  0  0  0  0
 18 37  1  0  0  0  0
 19 38  1  0  0  0  0
 19 39  1  0  0  0  0
 19 40  1  0  0  0  0
 20 22  2  0  0  0  0
 20 41  1  0  0  0  0
 21 22  1  0  0  0  0
 21 42  1  0  0  0  0
 22 43  1  0  0  0  0
M  END
> <PUBCHEM_COMPOUND_CID>
17395995

> <PUBCHEM_CONFORMER_RMSD>
1

> <PUBCHEM_CONFORMER_DIVERSEORDER>
1
132
135
39
94
163
34
137
96
104
92
142
19
155
4
54
31
15
25
141
74
91
9
156
113
158
43
122
11
110
65
99
147
159
121
36
60
151
16
124
2
129
98
162
150
72
71
8
97
119
152
118
146
45
49
89
47
81
40
115
95
78
50
35
130
85
108
5
87
18
143
51
140
53
139
120
102
55
125
12
48
148
126
83
105
22
145
42
30
165
69
106
157
3
52
63
144
67
79
154
114
131
153
133
7
101
128
28
86
44
127
93
164
103
6
90
64
112
117
138
82
107
29
37
161
68
10
61
20
111
38
14
66
59
116
160
17
26
56
100
33
123
149
166
21
88
76
136
27
58
57
77
70
84
24
73
80
23
75
13
41
32
109
134
46
62

> <PUBCHEM_MMFF94_PARTIAL_CHARGES>
26
1 -0.57
10 0.36
11 0.69
12 0.3
13 -0.14
14 0.57
17 -0.15
18 -0.15
2 -0.57
20 -0.15
21 -0.15
22 -0.15
26 0.37
3 -0.57
32 0.37
36 0.15
37 0.15
4 -0.42
41 0.15
42 0.15
43 0.15
5 -0.73
6 -0.73
7 0.36
8 0.14
9 0.57

> <PUBCHEM_EFFECTIVE_ROTOR_COUNT>
7.6

> <PUBCHEM_PHARMACOPHORE_FEATURES>
8
1 1 acceptor
1 19 hydrophobe
1 2 acceptor
1 3 acceptor
1 5 donor
1 6 donor
5 4 5 7 9 11 rings
6 13 17 18 20 21 22 rings

> <PUBCHEM_HEAVY_ATOM_COUNT>
22

> <PUBCHEM_ATOM_DEF_STEREO_COUNT>
0

> <PUBCHEM_ATOM_UDEF_STEREO_COUNT>
2

> <PUBCHEM_BOND_DEF_STEREO_COUNT>
0

> <PUBCHEM_BOND_UDEF_STEREO_COUNT>
0

> <PUBCHEM_ISOTOPIC_ATOM_COUNT>
0

> <PUBCHEM_COMPONENT_COUNT>
1

> <PUBCHEM_CACTVS_TAUTO_COUNT>
4

> <PUBCHEM_CONFORMER_ID>
0109711B00000001

> <PUBCHEM_MMFF94_ENERGY>
36.1207

> <PUBCHEM_FEATURE_SELFOVERLAP>
40.594

> <PUBCHEM_SHAPE_FINGERPRINT>
10447042 23 16950001461225349772
10591671 39 17917709072587202219
106641 1 10735865167041299380
10670039 82 18131354154171830133
11045977 3 11455881460407940533
11315621 246 18262530182960859231
11796584 16 13984664733098819277
12236239 1 17095516314095820776
12293681 160 18260548965031520760
12516196 113 7709456125869150239
12670543 26 18334856155701949808
13403585 85 10879999064701831983
13533116 47 18188206615616896078
13668630 136 17313096475978852398
13685833 64 15647054846082153295
13690498 29 17968671423955550447
14123256 10 17988646281614284983
14251752 14 18260552246417987847
14341114 176 11959729374133644414
14341114 328 15410892968023744453
15003188 100 18411700941805365292
15048467 5 14405181755640178148
15183329 4 18410855494493174920
15301273 46 11095891492260554992
15348495 7 10231742388704548973
15537594 2 4823214992028664693
15961568 22 17203050781024127173
17834072 8 18413666911930077822
17980427 23 14261054464394474939
19784866 140 17530685429074486019
200 152 16732976544815123872
20157964 124 18114179714596202884
20281389 69 16200155386984462228
20567600 247 16443353048655268559
21150785 3 18187085031191635347
21267235 1 9367355834467557696
21344244 181 17749381568314637375
21521239 73 18040716982588117046
21521721 280 15574719049774883626
21637258 2 14707216547154206909
221357 26 18260269659061156297
22224240 67 11743838049711668193
22393880 68 18261403243212409513
23198884 109 18413670223328965397
23402539 116 18408886222250417572
23536379 177 17530679926678223069
23559900 14 16878518829910922426
2767999 5 17060341820674486253
2838139 119 17203612583820353381
3009799 131 18260831501413811440
347723 3 17385722504337547859
351380 3 14490475291970101613
4325135 7 17632297853187169967
5283173 99 18335139769841457768
9709674 26 17677870475459460446

> <PUBCHEM_SHAPE_MULTIPOLES>
420.2
16.98
1.78
1.28
4.29
0.37
0.1
-2.81
-8.11
1.27
0.07
-0.16
-0.03
0.85

> <PUBCHEM_SHAPE_SELFOVERLAP>
871.352

> <PUBCHEM_SHAPE_VOLUME>
240.4

> <PUBCHEM_COORDINATE_TYPE>
2
5
10

$$$$

