582735
  -OEChem-06241222432D

 41 43  0     1  0  0  0  0  0999 V2000
    7.6138   -1.7119    0.0000 O   0  0  0  0  0  0  0  0  0  0  0  0
    6.3246   -2.8686    0.0000 O   0  0  0  0  0  0  0  0  0  0  0  0
    7.9244   -0.7614    0.0000 O   0  0  0  0  0  0  0  0  0  0  0  0
    9.4778    3.9912    0.0000 O   0  5  0  0  0  0  0  0  0  0  0  0
    7.8314    4.5293    0.0000 O   0  0  0  0  0  0  0  0  0  0  0  0
    4.6783   -3.9400    0.0000 N   0  0  0  0  0  0  0  0  0  0  0  0
    6.2781   -0.2233    0.0000 N   0  0  0  0  0  0  0  0  0  0  0  0
    8.4993    3.7850    0.0000 N   0  3  0  0  0  0  0  0  0  0  0  0
    4.9889   -1.3800    0.0000 C   0  0  0  0  0  0  0  0  0  0  0  0
    4.6783   -2.3305    0.0000 C   0  0  0  0  0  0  0  0  0  0  0  0
    5.9674   -1.1738    0.0000 C   0  0  3  0  0  0  0  0  0  0  0  0
    3.7320   -2.6353    0.0000 C   0  0  0  0  0  0  0  0  0  0  0  0
    3.7320   -3.6353    0.0000 C   0  0  0  0  0  0  0  0  0  0  0  0
    5.2619   -3.1353    0.0000 C   0  0  0  0  0  0  0  0  0  0  0  0
    2.8660   -2.1353    0.0000 C   0  0  0  0  0  0  0  0  0  0  0  0
    2.8660   -4.1353    0.0000 C   0  0  0  0  0  0  0  0  0  0  0  0
    6.6353   -1.9181    0.0000 C   0  0  0  0  0  0  0  0  0  0  0  0
    2.0000   -2.6353    0.0000 C   0  0  0  0  0  0  0  0  0  0  0  0
    7.2566   -0.0171    0.0000 C   0  0  0  0  0  0  0  0  0  0  0  0
    2.0000   -3.6353    0.0000 C   0  0  0  0  0  0  0  0  0  0  0  0
    7.5673    0.9335    0.0000 C   0  0  0  0  0  0  0  0  0  0  0  0
    8.5458    1.1397    0.0000 C   0  0  0  0  0  0  0  0  0  0  0  0
    6.8994    1.6778    0.0000 C   0  0  0  0  0  0  0  0  0  0  0  0
    8.8564    2.0902    0.0000 C   0  0  0  0  0  0  0  0  0  0  0  0
    7.2101    2.6283    0.0000 C   0  0  0  0  0  0  0  0  0  0  0  0
    8.1886    2.8345    0.0000 C   0  0  0  0  0  0  0  0  0  0  0  0
    4.9684   -0.7604    0.0000 H   0  0  0  0  0  0  0  0  0  0  0  0
    4.3751   -1.2927    0.0000 H   0  0  0  0  0  0  0  0  0  0  0  0
    5.5534   -0.7123    0.0000 H   0  0  0  0  0  0  0  0  0  0  0  0
    5.8819   -3.1353    0.0000 H   0  0  0  0  0  0  0  0  0  0  0  0
    4.8709   -4.5293    0.0000 H   0  0  0  0  0  0  0  0  0  0  0  0
    5.8640    0.2382    0.0000 H   0  0  0  0  0  0  0  0  0  0  0  0
    2.8660   -1.5153    0.0000 H   0  0  0  0  0  0  0  0  0  0  0  0
    2.8660   -4.7553    0.0000 H   0  0  0  0  0  0  0  0  0  0  0  0
    1.4631   -2.3253    0.0000 H   0  0  0  0  0  0  0  0  0  0  0  0
    1.4631   -3.9453    0.0000 H   0  0  0  0  0  0  0  0  0  0  0  0
    8.9598    0.6782    0.0000 H   0  0  0  0  0  0  0  0  0  0  0  0
    6.2928    1.5499    0.0000 H   0  0  0  0  0  0  0  0  0  0  0  0
    8.0279   -2.1734    0.0000 H   0  0  0  0  0  0  0  0  0  0  0  0
    9.4631    2.2181    0.0000 H   0  0  0  0  0  0  0  0  0  0  0  0
    6.7960    3.0898    0.0000 H   0  0  0  0  0  0  0  0  0  0  0  0
  1 17  1  0  0  0  0
  1 39  1  0  0  0  0
  2 17  2  0  0  0  0
  3 19  2  0  0  0  0
  4  8  1  0  0  0  0
  5  8  2  0  0  0  0
  6 13  1  0  0  0  0
  6 14  1  0  0  0  0
  6 31  1  0  0  0  0
  7 11  1  0  0  0  0
  7 19  1  0  0  0  0
  7 32  1  0  0  0  0
  8 26  1  0  0  0  0
  9 10  1  0  0  0  0
  9 11  1  0  0  0  0
  9 27  1  0  0  0  0
  9 28  1  0  0  0  0
 10 12  1  0  0  0  0
 10 14  2  0  0  0  0
 11 17  1  0  0  0  0
 11 29  1  0  0  0  0
 12 13  1  0  0  0  0
 12 15  2  0  0  0  0
 13 16  2  0  0  0  0
 14 30  1  0  0  0  0
 15 18  1  0  0  0  0
 15 33  1  0  0  0  0
 16 20  1  0  0  0  0
 16 34  1  0  0  0  0
 18 20  2  0  0  0  0
 18 35  1  0  0  0  0
 19 21  1  0  0  0  0
 20 36  1  0  0  0  0
 21 22  2  0  0  0  0
 21 23  1  0  0  0  0
 22 24  1  0  0  0  0
 22 37  1  0  0  0  0
 23 25  2  0  0  0  0
 23 38  1  0  0  0  0
 24 26  2  0  0  0  0
 24 40  1  0  0  0  0
 25 26  1  0  0  0  0
 25 41  1  0  0  0  0
M  CHG  2   4  -1   8   1
M  END
> <PUBCHEM_COMPOUND_CID>
582735

> <PUBCHEM_COMPOUND_CANONICALIZED>
1

> <PUBCHEM_CACTVS_COMPLEXITY>
541

> <PUBCHEM_CACTVS_HBOND_ACCEPTOR>
5

> <PUBCHEM_CACTVS_HBOND_DONOR>
3

> <PUBCHEM_CACTVS_ROTATABLE_BOND>
5

> <PUBCHEM_CACTVS_SUBSKEYS>
AAADccB7OAAAAAAAAAAAAAAAAAAAAWAAAAAwYAAAAAAAAFgB9AAAHgAUCAAADCjBngQ8yPLZ0gCpAzX3XwCCgCA1AiAo2aG4ZNoKIPLAlbGEYQhklgDYyYeY2fKeiAAAAAACAAAQAAAAAAQAAAAAAAAAAA==

> <PUBCHEM_IUPAC_OPENEYE_NAME>
3-(1H-indol-3-yl)-2-[(4-nitrobenzoyl)amino]propanoic acid

> <PUBCHEM_IUPAC_CAS_NAME>
3-(1H-indol-3-yl)-2-[[(4-nitrophenyl)-oxomethyl]amino]propanoic acid

> <PUBCHEM_IUPAC_NAME>
3-(1H-indol-3-yl)-2-[(4-nitrobenzoyl)amino]propanoic acid

> <PUBCHEM_IUPAC_SYSTEMATIC_NAME>
3-(1H-indol-3-yl)-2-[(4-nitrophenyl)carbonylamino]propanoic acid

> <PUBCHEM_IUPAC_TRADITIONAL_NAME>
3-(1H-indol-3-yl)-2-[(4-nitrobenzoyl)amino]propionic acid

> <PUBCHEM_IUPAC_INCHI>
InChI=1S/C18H15N3O5/c22-17(11-5-7-13(8-6-11)21(25)26)20-16(18(23)24)9-12-10-19-15-4-2-1-3-14(12)15/h1-8,10,16,19H,9H2,(H,20,22)(H,23,24)

> <PUBCHEM_IUPAC_INCHIKEY>
CLGVCJFAHFIZIR-UHFFFAOYSA-N

> <PUBCHEM_XLOGP3>
2.1

> <PUBCHEM_EXACT_MASS>
353.101171

> <PUBCHEM_MOLECULAR_FORMULA>
C18H15N3O5

> <PUBCHEM_MOLECULAR_WEIGHT>
353.3288

> <PUBCHEM_OPENEYE_CAN_SMILES>
C1=CC=C2C(=C1)C(=CN2)CC(C(=O)O)NC(=O)C3=CC=C(C=C3)[N+](=O)[O-]

> <PUBCHEM_OPENEYE_ISO_SMILES>
C1=CC=C2C(=C1)C(=CN2)CC(C(=O)O)NC(=O)C3=CC=C(C=C3)[N+](=O)[O-]

> <PUBCHEM_CACTVS_TPSA>
128

> <PUBCHEM_MONOISOTOPIC_WEIGHT>
353.101171

> <PUBCHEM_TOTAL_CHARGE>
0

> <PUBCHEM_HEAVY_ATOM_COUNT>
26

> <PUBCHEM_ATOM_DEF_STEREO_COUNT>
0

> <PUBCHEM_ATOM_UDEF_STEREO_COUNT>
1

> <PUBCHEM_BOND_DEF_STEREO_COUNT>
0

> <PUBCHEM_BOND_UDEF_STEREO_COUNT>
0

> <PUBCHEM_ISOTOPIC_ATOM_COUNT>
0

> <PUBCHEM_COMPONENT_COUNT>
1

> <PUBCHEM_CACTVS_TAUTO_COUNT>
2

> <PUBCHEM_COORDINATE_TYPE>
1
5
255

> <PUBCHEM_BONDANNOTATIONS>
10  12  8
10  14  8
12  13  8
12  15  8
13  16  8
15  18  8
16  20  8
18  20  8
21  22  8
21  23  8
22  24  8
23  25  8
24  26  8
25  26  8
6  13  8
6  14  8
11  9  3

$$$$

