7141
  -OEChem-06261201493D

 31 33  0     0  0  0  0  0  0999 V2000
    5.6226   -1.5322    0.2788 O   0  0  0  0  0  0  0  0  0  0  0  0
    0.9765    1.4797   -0.2390 N   0  0  0  0  0  0  0  0  0  0  0  0
   -2.1940   -0.4656   -0.2327 C   0  0  0  0  0  0  0  0  0  0  0  0
   -3.1097    0.5237    0.1984 C   0  0  0  0  0  0  0  0  0  0  0  0
   -0.3898    1.1603   -0.0935 C   0  0  0  0  0  0  0  0  0  0  0  0
   -0.8374   -0.1310   -0.3737 C   0  0  0  0  0  0  0  0  0  0  0  0
   -2.6416    1.8183    0.4759 C   0  0  0  0  0  0  0  0  0  0  0  0
   -1.2902    2.1331    0.3305 C   0  0  0  0  0  0  0  0  0  0  0  0
    2.1532    0.7173   -0.1079 C   0  0  0  0  0  0  0  0  0  0  0  0
   -2.6620   -1.7604   -0.5101 C   0  0  0  0  0  0  0  0  0  0  0  0
   -4.4663    0.1890    0.3396 C   0  0  0  0  0  0  0  0  0  0  0  0
   -4.0133   -2.0754   -0.3643 C   0  0  0  0  0  0  0  0  0  0  0  0
   -4.9137   -1.1025    0.0597 C   0  0  0  0  0  0  0  0  0  0  0  0
    3.2815    1.0361   -0.8653 C   0  0  0  0  0  0  0  0  0  0  0  0
    2.1934   -0.3596    0.7794 C   0  0  0  0  0  0  0  0  0  0  0  0
    4.4466    0.2802   -0.7359 C   0  0  0  0  0  0  0  0  0  0  0  0
    3.3587   -1.1155    0.9089 C   0  0  0  0  0  0  0  0  0  0  0  0
    4.4853   -0.7956    0.1513 C   0  0  0  0  0  0  0  0  0  0  0  0
   -0.1424   -0.8899   -0.7280 H   0  0  0  0  0  0  0  0  0  0  0  0
   -3.3275    2.5945    0.8090 H   0  0  0  0  0  0  0  0  0  0  0  0
   -0.9529    3.1424    0.5530 H   0  0  0  0  0  0  0  0  0  0  0  0
    1.1438    2.4505   -0.4889 H   0  0  0  0  0  0  0  0  0  0  0  0
   -1.9763   -2.5369   -0.8427 H   0  0  0  0  0  0  0  0  0  0  0  0
   -5.1879    0.9334    0.6698 H   0  0  0  0  0  0  0  0  0  0  0  0
   -4.3623   -3.0806   -0.5820 H   0  0  0  0  0  0  0  0  0  0  0  0
   -5.9655   -1.3484    0.1730 H   0  0  0  0  0  0  0  0  0  0  0  0
    3.2637    1.8713   -1.5608 H   0  0  0  0  0  0  0  0  0  0  0  0
    1.3389   -0.6183    1.3986 H   0  0  0  0  0  0  0  0  0  0  0  0
    5.3175    0.5396   -1.3319 H   0  0  0  0  0  0  0  0  0  0  0  0
    3.3844   -1.9492    1.6053 H   0  0  0  0  0  0  0  0  0  0  0  0
    6.3003   -1.1713   -0.3182 H   0  0  0  0  0  0  0  0  0  0  0  0
  1 18  1  0  0  0  0
  1 31  1  0  0  0  0
  2  5  1  0  0  0  0
  2  9  1  0  0  0  0
  2 22  1  0  0  0  0
  3  4  1  0  0  0  0
  3  6  1  0  0  0  0
  3 10  2  0  0  0  0
  4  7  1  0  0  0  0
  4 11  2  0  0  0  0
  5  6  2  0  0  0  0
  5  8  1  0  0  0  0
  6 19  1  0  0  0  0
  7  8  2  0  0  0  0
  7 20  1  0  0  0  0
  8 21  1  0  0  0  0
  9 14  2  0  0  0  0
  9 15  1  0  0  0  0
 10 12  1  0  0  0  0
 10 23  1  0  0  0  0
 11 13  1  0  0  0  0
 11 24  1  0  0  0  0
 12 13  2  0  0  0  0
 12 25  1  0  0  0  0
 13 26  1  0  0  0  0
 14 16  1  0  0  0  0
 14 27  1  0  0  0  0
 15 17  2  0  0  0  0
 15 28  1  0  0  0  0
 16 18  2  0  0  0  0
 16 29  1  0  0  0  0
 17 18  1  0  0  0  0
 17 30  1  0  0  0  0
M  END
> <PUBCHEM_COMPOUND_CID>
7141

> <PUBCHEM_CONFORMER_RMSD>
0.6

> <PUBCHEM_CONFORMER_DIVERSEORDER>
1
4
5
3
2
6

> <PUBCHEM_MMFF94_PARTIAL_CHARGES>
29
1 -0.53
10 -0.15
11 -0.15
12 -0.15
13 -0.15
14 -0.15
15 -0.15
16 -0.15
17 -0.15
18 0.08
19 0.15
2 -0.6
20 0.15
21 0.15
22 0.4
23 0.15
24 0.15
25 0.15
26 0.15
27 0.15
28 0.15
29 0.15
30 0.15
31 0.45
5 0.1
6 -0.15
7 -0.15
8 -0.15
9 0.1

> <PUBCHEM_EFFECTIVE_ROTOR_COUNT>
2

> <PUBCHEM_PHARMACOPHORE_FEATURES>
6
1 1 donor
1 2 cation
1 2 donor
6 3 4 10 11 12 13 rings
6 3 4 5 6 7 8 rings
6 9 14 15 16 17 18 rings

> <PUBCHEM_HEAVY_ATOM_COUNT>
18

> <PUBCHEM_ATOM_DEF_STEREO_COUNT>
0

> <PUBCHEM_ATOM_UDEF_STEREO_COUNT>
0

> <PUBCHEM_BOND_DEF_STEREO_COUNT>
0

> <PUBCHEM_BOND_UDEF_STEREO_COUNT>
0

> <PUBCHEM_ISOTOPIC_ATOM_COUNT>
0

> <PUBCHEM_COMPONENT_COUNT>
1

> <PUBCHEM_CACTVS_TAUTO_COUNT>
4

> <PUBCHEM_CONFORMER_ID>
00001BE500000001

> <PUBCHEM_MMFF94_ENERGY>
67.6707

> <PUBCHEM_FEATURE_SELFOVERLAP>
30.472

> <PUBCHEM_SHAPE_FINGERPRINT>
10062212 137 18336266756628240431
10616163 171 18409166636127950630
11045515 52 17846501422111838989
11046707 91 18408604755795024081
11578080 2 18128278747103316037
12107183 9 17763745790330317600
12236239 1 18272647956692335476
12553582 1 18337963306911139787
12555020 224 18338528460847786527
12633257 1 17676757717540406337
13167823 11 18342174466420472758
13288520 33 18409166627463623852
13551218 46 18334572490397861623
13862211 1 18261394404491909679
14420673 8 17973718375137002542
14576447 43 18202283624174045770
15188451 53 16443641086437011423
15196674 1 18411138013146944996
16752209 62 18338252538936332173
17804303 29 18187082832601124001
17834072 33 18342453729821510924
17857418 61 18411142437079505794
1813 80 17917138472600376911
18186145 218 15985105188878099769
18915474 69 18342738486015955670
193927 3 18340195336827052138
19422 9 18413105065588254668
200 152 18202282498101303920
20281475 54 18411702079955666444
20291156 8 18411703153660482701
20645477 56 10592043570245161197
21033648 29 15574719148274100554
21267235 1 18412536617707572243
22646028 1 18341895190504018916
22646028 28 18413672409092681714
22950370 63 18339919325386105299
2297311 6 18040985250624495996
23366157 5 18050851009779517585
23402539 116 18409735070743526975
23559900 14 18335430027657446049
2871803 45 17917998273782524682
3004659 81 18202569470831338678
312423 11 18341600499939624116
335352 9 18408604769365903925
351380 3 18342175561579487907
4214541 1 18410855498783205285
465052 167 18336257930291333015
474 4 17701811086718410324
5104073 3 18260543394633004593
559249 180 18270403922147742939
573450 72 18409449214873982385
602551 16 18040716961403144726
76465 3 18261398780715216791
7970288 3 18336551495374810727

> <PUBCHEM_SHAPE_MULTIPOLES>
359.58
11.24
2.06
0.83
5.71
0.09
0.01
-5.47
0.15
-1.18
0.04
0.39
-0.03
-1.12

> <PUBCHEM_SHAPE_SELFOVERLAP>
796.462

> <PUBCHEM_SHAPE_VOLUME>
192.5

> <PUBCHEM_COORDINATE_TYPE>
2
5
10

$$$$

