17396492
  -OEChem-06241222562D

 51 54  0     0  0  0  0  0  0999 V2000
    2.4612    0.3851    0.0000 O   0  0  0  0  0  0  0  0  0  0  0  0
    7.9128    0.5002    0.0000 O   0  0  0  0  0  0  0  0  0  0  0  0
    3.5827   -0.9998    0.0000 N   0  0  0  0  0  0  0  0  0  0  0  0
   12.3231    0.8050    0.0000 N   0  0  0  0  0  0  0  0  0  0  0  0
   12.9067    0.0002    0.0000 N   0  0  0  0  0  0  0  0  0  0  0  0
    8.7788   -0.9998    0.0000 N   0  0  0  0  0  0  0  0  0  0  0  0
   10.5109    1.0002    0.0000 N   0  0  0  0  0  0  0  0  0  0  0  0
    3.4782   -1.9943    0.0000 C   0  0  0  0  0  0  0  0  0  0  0  0
    2.5000   -2.2022    0.0000 C   0  0  0  0  0  0  0  0  0  0  0  0
    2.0000   -1.3362    0.0000 C   0  0  0  0  0  0  0  0  0  0  0  0
    2.6691   -0.5930    0.0000 C   0  0  0  0  0  0  0  0  0  0  0  0
    4.4487   -0.4998    0.0000 C   0  0  0  0  0  0  0  0  0  0  0  0
    5.3147   -0.9998    0.0000 C   0  0  0  0  0  0  0  0  0  0  0  0
   12.6338    1.7555    0.0000 C   0  0  0  0  0  0  0  0  0  0  0  0
    6.1808   -0.4998    0.0000 C   0  0  0  0  0  0  0  0  0  0  0  0
   11.3769    0.5002    0.0000 C   0  0  0  0  0  0  0  0  0  0  0  0
    5.3147   -1.9998    0.0000 C   0  0  0  0  0  0  0  0  0  0  0  0
   11.3769   -0.4998    0.0000 C   0  0  0  0  0  0  0  0  0  0  0  0
    7.0468   -0.9998    0.0000 C   0  0  0  0  0  0  0  0  0  0  0  0
   13.6123    1.9617    0.0000 C   0  0  0  0  0  0  0  0  0  0  0  0
   11.9659    2.4998    0.0000 C   0  0  0  0  0  0  0  0  0  0  0  0
    6.1808   -2.4998    0.0000 C   0  0  0  0  0  0  0  0  0  0  0  0
    9.6448   -0.4998    0.0000 C   0  0  0  0  0  0  0  0  0  0  0  0
   10.5109   -0.9998    0.0000 C   0  0  0  0  0  0  0  0  0  0  0  0
    7.0468   -1.9998    0.0000 C   0  0  0  0  0  0  0  0  0  0  0  0
   12.3231   -0.8045    0.0000 C   0  0  0  0  0  0  0  0  0  0  0  0
    7.9128   -0.4998    0.0000 C   0  0  0  0  0  0  0  0  0  0  0  0
    9.6448    0.5002    0.0000 C   0  0  0  0  0  0  0  0  0  0  0  0
    3.5430   -2.6109    0.0000 H   0  0  0  0  0  0  0  0  0  0  0  0
    4.0982   -1.9943    0.0000 H   0  0  0  0  0  0  0  0  0  0  0  0
    1.9336   -2.4544    0.0000 H   0  0  0  0  0  0  0  0  0  0  0  0
    2.6916   -2.7919    0.0000 H   0  0  0  0  0  0  0  0  0  0  0  0
    1.5851   -0.8754    0.0000 H   0  0  0  0  0  0  0  0  0  0  0  0
    1.4984   -1.7006    0.0000 H   0  0  0  0  0  0  0  0  0  0  0  0
    4.8472   -0.0248    0.0000 H   0  0  0  0  0  0  0  0  0  0  0  0
    4.0502   -0.0248    0.0000 H   0  0  0  0  0  0  0  0  0  0  0  0
   13.0479    1.2940    0.0000 H   0  0  0  0  0  0  0  0  0  0  0  0
    6.1808    0.1202    0.0000 H   0  0  0  0  0  0  0  0  0  0  0  0
    4.7778   -2.3098    0.0000 H   0  0  0  0  0  0  0  0  0  0  0  0
   13.7401    1.3550    0.0000 H   0  0  0  0  0  0  0  0  0  0  0  0
   14.2190    2.0896    0.0000 H   0  0  0  0  0  0  0  0  0  0  0  0
   13.4844    2.5684    0.0000 H   0  0  0  0  0  0  0  0  0  0  0  0
   12.4274    2.9138    0.0000 H   0  0  0  0  0  0  0  0  0  0  0  0
   11.5519    2.9612    0.0000 H   0  0  0  0  0  0  0  0  0  0  0  0
   11.5045    2.0857    0.0000 H   0  0  0  0  0  0  0  0  0  0  0  0
   10.5109   -1.6198    0.0000 H   0  0  0  0  0  0  0  0  0  0  0  0
    6.1808   -3.1198    0.0000 H   0  0  0  0  0  0  0  0  0  0  0  0
   12.5157   -1.3938    0.0000 H   0  0  0  0  0  0  0  0  0  0  0  0
    7.5837   -2.3098    0.0000 H   0  0  0  0  0  0  0  0  0  0  0  0
    8.7788   -1.6198    0.0000 H   0  0  0  0  0  0  0  0  0  0  0  0
    9.1079    0.8102    0.0000 H   0  0  0  0  0  0  0  0  0  0  0  0
  1 11  2  0  0  0  0
  2 27  2  0  0  0  0
  3  8  1  0  0  0  0
  3 11  1  0  0  0  0
  3 12  1  0  0  0  0
  4  5  1  0  0  0  0
  4 14  1  0  0  0  0
  4 16  1  0  0  0  0
  5 26  2  0  0  0  0
  6 23  1  0  0  0  0
  6 27  1  0  0  0  0
  6 50  1  0  0  0  0
  7 16  2  0  0  0  0
  7 28  1  0  0  0  0
  8  9  1  0  0  0  0
  8 29  1  0  0  0  0
  8 30  1  0  0  0  0
  9 10  1  0  0  0  0
  9 31  1  0  0  0  0
  9 32  1  0  0  0  0
 10 11  1  0  0  0  0
 10 33  1  0  0  0  0
 10 34  1  0  0  0  0
 12 13  1  0  0  0  0
 12 35  1  0  0  0  0
 12 36  1  0  0  0  0
 13 15  2  0  0  0  0
 13 17  1  0  0  0  0
 14 20  1  0  0  0  0
 14 21  1  0  0  0  0
 14 37  1  0  0  0  0
 15 19  1  0  0  0  0
 15 38  1  0  0  0  0
 16 18  1  0  0  0  0
 17 22  2  0  0  0  0
 17 39  1  0  0  0  0
 18 24  2  0  0  0  0
 18 26  1  0  0  0  0
 19 25  2  0  0  0  0
 19 27  1  0  0  0  0
 20 40  1  0  0  0  0
 20 41  1  0  0  0  0
 20 42  1  0  0  0  0
 21 43  1  0  0  0  0
 21 44  1  0  0  0  0
 21 45  1  0  0  0  0
 22 25  1  0  0  0  0
 22 47  1  0  0  0  0
 23 24  1  0  0  0  0
 23 28  2  0  0  0  0
 24 46  1  0  0  0  0
 25 49  1  0  0  0  0
 26 48  1  0  0  0  0
 28 51  1  0  0  0  0
M  END
> <PUBCHEM_COMPOUND_CID>
17396492

> <PUBCHEM_COMPOUND_CANONICALIZED>
1

> <PUBCHEM_CACTVS_COMPLEXITY>
583

> <PUBCHEM_CACTVS_HBOND_ACCEPTOR>
4

> <PUBCHEM_CACTVS_HBOND_DONOR>
1

> <PUBCHEM_CACTVS_ROTATABLE_BOND>
5

> <PUBCHEM_CACTVS_SUBSKEYS>
AAADceB7sAAAAAAAAAAAAAAAAAAAAWLAAAA8QAAAAAAAAFgB/AAAHgAYAAAADCjBmwQ/8N/IEACqAjd3dACShCs1kqAd2CEodNiIaPLA3dGUpQhongLIyacciUCOAAACAAAAAAAAAAQAAAAAAAAAAAAAAA==

> <PUBCHEM_IUPAC_OPENEYE_NAME>
N-(1-isopropylpyrazolo[3,4-b]pyridin-5-yl)-3-[(2-oxopyrrolidin-1-yl)methyl]benzamide

> <PUBCHEM_IUPAC_CAS_NAME>
3-[(2-oxo-1-pyrrolidinyl)methyl]-N-(1-propan-2-yl-5-pyrazolo[3,4-b]pyridinyl)benzamide

> <PUBCHEM_IUPAC_NAME>
3-[(2-oxopyrrolidin-1-yl)methyl]-N-(1-propan-2-ylpyrazolo[3,4-b]pyridin-5-yl)benzamide

> <PUBCHEM_IUPAC_SYSTEMATIC_NAME>
3-[(2-oxidanylidenepyrrolidin-1-yl)methyl]-N-(1-propan-2-ylpyrazolo[3,4-b]pyridin-5-yl)benzamide

> <PUBCHEM_IUPAC_TRADITIONAL_NAME>
N-(1-isopropylpyrazolo[3,4-b]pyridin-5-yl)-3-[(2-ketopyrrolidino)methyl]benzamide

> <PUBCHEM_IUPAC_INCHI>
InChI=1S/C21H23N5O2/c1-14(2)26-20-17(11-23-26)10-18(12-22-20)24-21(28)16-6-3-5-15(9-16)13-25-8-4-7-19(25)27/h3,5-6,9-12,14H,4,7-8,13H2,1-2H3,(H,24,28)

> <PUBCHEM_IUPAC_INCHIKEY>
HIQWAYZUBYKDAW-UHFFFAOYSA-N

> <PUBCHEM_XLOGP3_AA>
1.7

> <PUBCHEM_EXACT_MASS>
377.185175

> <PUBCHEM_MOLECULAR_FORMULA>
C21H23N5O2

> <PUBCHEM_MOLECULAR_WEIGHT>
377.43962

> <PUBCHEM_OPENEYE_CAN_SMILES>
CC(C)N1C2=NC=C(C=C2C=N1)NC(=O)C3=CC(=CC=C3)CN4CCCC4=O

> <PUBCHEM_OPENEYE_ISO_SMILES>
CC(C)N1C2=NC=C(C=C2C=N1)NC(=O)C3=CC(=CC=C3)CN4CCCC4=O

> <PUBCHEM_CACTVS_TPSA>
80.1

> <PUBCHEM_MONOISOTOPIC_WEIGHT>
377.185175

> <PUBCHEM_TOTAL_CHARGE>
0

> <PUBCHEM_HEAVY_ATOM_COUNT>
28

> <PUBCHEM_ATOM_DEF_STEREO_COUNT>
0

> <PUBCHEM_ATOM_UDEF_STEREO_COUNT>
0

> <PUBCHEM_BOND_DEF_STEREO_COUNT>
0

> <PUBCHEM_BOND_UDEF_STEREO_COUNT>
0

> <PUBCHEM_ISOTOPIC_ATOM_COUNT>
0

> <PUBCHEM_COMPONENT_COUNT>
1

> <PUBCHEM_CACTVS_TAUTO_COUNT>
4

> <PUBCHEM_COORDINATE_TYPE>
1
5
255

> <PUBCHEM_BONDANNOTATIONS>
13  15  8
13  17  8
15  19  8
16  18  8
17  22  8
18  24  8
18  26  8
19  25  8
22  25  8
23  24  8
23  28  8
4  16  8
4  5  8
5  26  8
7  16  8
7  28  8

$$$$

