7669
  -OEChem-06261202133D

 20 20  0     0  0  0  0  0  0999 V2000
    2.3270    0.0037    0.5475 N   0  0  0  0  0  0  0  0  0  0  0  0
    1.5395    0.0037   -0.6823 C   0  0  0  0  0  0  0  0  0  0  0  0
    0.0879    0.0017   -0.3399 C   0  0  0  0  0  0  0  0  0  0  0  0
   -0.5893   -1.2074   -0.1801 C   0  0  0  0  0  0  0  0  0  0  0  0
   -0.5926    1.2087   -0.1787 C   0  0  0  0  0  0  0  0  0  0  0  0
   -1.9469   -1.2094    0.1404 C   0  0  0  0  0  0  0  0  0  0  0  0
   -1.9501    1.2065    0.1420 C   0  0  0  0  0  0  0  0  0  0  0  0
   -2.6272   -0.0026    0.3015 C   0  0  0  0  0  0  0  0  0  0  0  0
    3.7515   -0.0049    0.2496 C   0  0  0  0  0  0  0  0  0  0  0  0
    1.7749   -0.8785   -1.2913 H   0  0  0  0  0  0  0  0  0  0  0  0
    1.7761    0.8812   -1.2979 H   0  0  0  0  0  0  0  0  0  0  0  0
   -0.0708   -2.1549   -0.3012 H   0  0  0  0  0  0  0  0  0  0  0  0
   -0.0766    2.1576   -0.2988 H   0  0  0  0  0  0  0  0  0  0  0  0
    2.1104    0.8386    1.0924 H   0  0  0  0  0  0  0  0  0  0  0  0
   -2.4741   -2.1507    0.2651 H   0  0  0  0  0  0  0  0  0  0  0  0
   -2.4799    2.1462    0.2680 H   0  0  0  0  0  0  0  0  0  0  0  0
   -3.6841   -0.0042    0.5514 H   0  0  0  0  0  0  0  0  0  0  0  0
    4.0492    0.8819   -0.3195 H   0  0  0  0  0  0  0  0  0  0  0  0
    4.0342   -0.9019   -0.3108 H   0  0  0  0  0  0  0  0  0  0  0  0
    4.3195   -0.0100    1.1851 H   0  0  0  0  0  0  0  0  0  0  0  0
  1  2  1  0  0  0  0
  1  9  1  0  0  0  0
  1 14  1  0  0  0  0
  2  3  1  0  0  0  0
  2 10  1  0  0  0  0
  2 11  1  0  0  0  0
  3  4  2  0  0  0  0
  3  5  1  0  0  0  0
  4  6  1  0  0  0  0
  4 12  1  0  0  0  0
  5  7  2  0  0  0  0
  5 13  1  0  0  0  0
  6  8  2  0  0  0  0
  6 15  1  0  0  0  0
  7  8  1  0  0  0  0
  7 16  1  0  0  0  0
  8 17  1  0  0  0  0
  9 18  1  0  0  0  0
  9 19  1  0  0  0  0
  9 20  1  0  0  0  0
M  END
> <PUBCHEM_COMPOUND_CID>
7669

> <PUBCHEM_CONFORMER_RMSD>
0.4

> <PUBCHEM_CONFORMER_DIVERSEORDER>
1
2
3

> <PUBCHEM_MMFF94_PARTIAL_CHARGES>
15
1 -0.9
12 0.15
13 0.15
14 0.36
15 0.15
16 0.15
17 0.15
2 0.41
3 -0.14
4 -0.15
5 -0.15
6 -0.15
7 -0.15
8 -0.15
9 0.27

> <PUBCHEM_EFFECTIVE_ROTOR_COUNT>
2

> <PUBCHEM_PHARMACOPHORE_FEATURES>
3
1 1 cation
1 1 donor
6 3 4 5 6 7 8 rings

> <PUBCHEM_HEAVY_ATOM_COUNT>
9

> <PUBCHEM_ATOM_DEF_STEREO_COUNT>
0

> <PUBCHEM_ATOM_UDEF_STEREO_COUNT>
0

> <PUBCHEM_BOND_DEF_STEREO_COUNT>
0

> <PUBCHEM_BOND_UDEF_STEREO_COUNT>
0

> <PUBCHEM_ISOTOPIC_ATOM_COUNT>
0

> <PUBCHEM_COMPONENT_COUNT>
1

> <PUBCHEM_CACTVS_TAUTO_COUNT>
1

> <PUBCHEM_CONFORMER_ID>
00001DF500000001

> <PUBCHEM_MMFF94_ENERGY>
18.2035

> <PUBCHEM_FEATURE_SELFOVERLAP>
15.223

> <PUBCHEM_SHAPE_FINGERPRINT>
10857977 72 18335423430581845833
13024252 1 14548739521216723973
14325111 11 18409167753066802220
16945 1 18410561890887503645
20645464 45 17967247615656573470
20653085 51 14201116799433914506
20871998 184 18188204291206139455
21040471 1 18194952157516787165
23402539 116 18260841397144776373
23552423 10 17769082450293825093
2748010 2 18051678143249521437
29004967 10 16732974332210666543
369184 2 18410015437539508283
75552 356 18412262817958472466

> <PUBCHEM_SHAPE_MULTIPOLES>
180.23
4.69
1.27
0.73
4.43
0
0.03
0.01
-0.91
-0.82
0.02
0.13
0
0

> <PUBCHEM_SHAPE_SELFOVERLAP>
362.339

> <PUBCHEM_SHAPE_VOLUME>
107

> <PUBCHEM_COORDINATE_TYPE>
2
5
10

$$$$

