9728
  -OEChem-06261203593D

 18 17  0     0  0  0  0  0  0999 V2000
   -3.2148    1.3444    0.0119 F   0  0  0  0  0  0  0  0  0  0  0  0
    1.4677    0.4123   -0.0033 O   0  0  0  0  0  0  0  0  0  0  0  0
    0.6898   -1.7632    0.0076 O   0  0  0  0  0  0  0  0  0  0  0  0
    2.8194   -0.0585    0.0028 C   0  0  0  0  0  0  0  0  0  0  0  0
    3.7559    1.1310   -0.0020 C   0  0  0  0  0  0  0  0  0  0  0  0
    0.5118   -0.5555    0.0000 C   0  0  0  0  0  0  0  0  0  0  0  0
   -0.8055    0.1165   -0.0058 C   0  0  0  0  0  0  0  0  0  0  0  0
   -1.9285   -0.6130   -0.0028 C   0  0  0  0  0  0  0  0  0  0  0  0
   -3.2957   -0.0140   -0.0084 C   0  0  0  0  0  0  0  0  0  0  0  0
    2.9918   -0.6621    0.9009 H   0  0  0  0  0  0  0  0  0  0  0  0
    2.9962   -0.6725   -0.8874 H   0  0  0  0  0  0  0  0  0  0  0  0
    4.8002    0.8066    0.0025 H   0  0  0  0  0  0  0  0  0  0  0  0
    3.5829    1.7541   -0.8856 H   0  0  0  0  0  0  0  0  0  0  0  0
    3.5785    1.7645    0.8733 H   0  0  0  0  0  0  0  0  0  0  0  0
   -0.8288    1.2007   -0.0124 H   0  0  0  0  0  0  0  0  0  0  0  0
   -1.8834   -1.6987    0.0029 H   0  0  0  0  0  0  0  0  0  0  0  0
   -3.8587   -0.3317    0.8734 H   0  0  0  0  0  0  0  0  0  0  0  0
   -3.8424   -0.3080   -0.9085 H   0  0  0  0  0  0  0  0  0  0  0  0
  1  9  1  0  0  0  0
  2  4  1  0  0  0  0
  2  6  1  0  0  0  0
  3  6  2  0  0  0  0
  4  5  1  0  0  0  0
  4 10  1  0  0  0  0
  4 11  1  0  0  0  0
  5 12  1  0  0  0  0
  5 13  1  0  0  0  0
  5 14  1  0  0  0  0
  6  7  1  0  0  0  0
  7  8  2  0  0  0  0
  7 15  1  0  0  0  0
  8  9  1  0  0  0  0
  8 16  1  0  0  0  0
  9 17  1  0  0  0  0
  9 18  1  0  0  0  0
M  END
> <PUBCHEM_COMPOUND_CID>
9728

> <PUBCHEM_CONFORMER_RMSD>
0.6

> <PUBCHEM_CONFORMER_DIVERSEORDER>
1
18
4
21
16
15
22
3
12
10
13
19
5
20
9
2
6
11
23
17
8
14
7

> <PUBCHEM_MMFF94_PARTIAL_CHARGES>
10
1 -0.34
15 0.15
16 0.15
2 -0.43
3 -0.57
4 0.28
6 0.71
7 -0.14
8 -0.29
9 0.48

> <PUBCHEM_EFFECTIVE_ROTOR_COUNT>
4

> <PUBCHEM_PHARMACOPHORE_FEATURES>
1
1 3 acceptor

> <PUBCHEM_HEAVY_ATOM_COUNT>
9

> <PUBCHEM_ATOM_DEF_STEREO_COUNT>
0

> <PUBCHEM_ATOM_UDEF_STEREO_COUNT>
0

> <PUBCHEM_BOND_DEF_STEREO_COUNT>
0

> <PUBCHEM_BOND_UDEF_STEREO_COUNT>
1

> <PUBCHEM_ISOTOPIC_ATOM_COUNT>
0

> <PUBCHEM_COMPONENT_COUNT>
1

> <PUBCHEM_CACTVS_TAUTO_COUNT>
1

> <PUBCHEM_CONFORMER_ID>
0000260000000001

> <PUBCHEM_MMFF94_ENERGY>
6.1541

> <PUBCHEM_FEATURE_SELFOVERLAP>
5.074

> <PUBCHEM_SHAPE_FINGERPRINT>
10219947 1 17846781805976282686
11062470 55 17775287153233289045
12932764 1 17385736798115400395
14325111 11 18410856542692132902
14390081 3 18408604777306744841
170605 34 18411981381568116610
177051 138 10592041358078774792
20281407 28 9007066763848340468
21293036 1 17168145620005037517
23235685 24 18412831269733338418
23402655 69 18261968448314169269

> <PUBCHEM_SHAPE_MULTIPOLES>
166.2
6.3
1.25
0.58
0.91
0.16
0
-2.74
0
0.01
0
0.02
0
-0.01

> <PUBCHEM_SHAPE_SELFOVERLAP>
309.237

> <PUBCHEM_SHAPE_VOLUME>
104.1

> <PUBCHEM_COORDINATE_TYPE>
2
5
10

$$$$

