7836
  -OEChem-06261202222D

 17 17  0     1  0  0  0  0  0999 V2000
    6.8301    1.1830    0.0000 O   0  0  0  0  0  0  0  0  0  0  0  0
    4.5981    0.3170    0.0000 O   0  0  0  0  0  0  0  0  0  0  0  0
    3.7320   -1.1830    0.0000 O   0  0  0  0  0  0  0  0  0  0  0  0
    6.3301    0.3170    0.0000 C   0  0  3  0  0  0  0  0  0  0  0  0
    7.3301    0.3170    0.0000 C   0  0  0  0  0  0  0  0  0  0  0  0
    5.4641   -0.1830    0.0000 C   0  0  0  0  0  0  0  0  0  0  0  0
    3.7320   -0.1830    0.0000 C   0  0  0  0  0  0  0  0  0  0  0  0
    2.8660    0.3170    0.0000 C   0  0  0  0  0  0  0  0  0  0  0  0
    2.0000   -0.1830    0.0000 C   0  0  0  0  0  0  0  0  0  0  0  0
    5.7291    0.9180    0.0000 H   0  0  0  0  0  0  0  0  0  0  0  0
    7.4378   -0.2936    0.0000 H   0  0  0  0  0  0  0  0  0  0  0  0
    7.9127    0.5290    0.0000 H   0  0  0  0  0  0  0  0  0  0  0  0
    5.0656   -0.6580    0.0000 H   0  0  0  0  0  0  0  0  0  0  0  0
    5.8626   -0.6580    0.0000 H   0  0  0  0  0  0  0  0  0  0  0  0
    2.8660    0.9370    0.0000 H   0  0  0  0  0  0  0  0  0  0  0  0
    1.4631    0.1270    0.0000 H   0  0  0  0  0  0  0  0  0  0  0  0
    2.0000   -0.8030    0.0000 H   0  0  0  0  0  0  0  0  0  0  0  0
  1  4  1  0  0  0  0
  1  5  1  0  0  0  0
  2  6  1  0  0  0  0
  2  7  1  0  0  0  0
  3  7  2  0  0  0  0
  4  5  1  0  0  0  0
  4  6  1  0  0  0  0
  4 10  1  0  0  0  0
  5 11  1  0  0  0  0
  5 12  1  0  0  0  0
  6 13  1  0  0  0  0
  6 14  1  0  0  0  0
  7  8  1  0  0  0  0
  8  9  2  0  0  0  0
  8 15  1  0  0  0  0
  9 16  1  0  0  0  0
  9 17  1  0  0  0  0
M  END
> <PUBCHEM_COMPOUND_CID>
7836

> <PUBCHEM_COMPOUND_CANONICALIZED>
1

> <PUBCHEM_CACTVS_COMPLEXITY>
130

> <PUBCHEM_CACTVS_HBOND_ACCEPTOR>
3

> <PUBCHEM_CACTVS_HBOND_DONOR>
0

> <PUBCHEM_CACTVS_ROTATABLE_BOND>
4

> <PUBCHEM_CACTVS_SUBSKEYS>
AAADccBgMAAAAAAAAAAAAAAAEgAAAAAAAAAAAAAAAAAAAAAAAAAAGgAAAAAACBSggAIACAAABACIACDSCAAAAAAAAAAIAAAAAEABBAAAIAACAAABAAACIIAAAAAAAAAAAAAAAAAAAAAAAAAAAAAAAAAAAA==

> <PUBCHEM_IUPAC_OPENEYE_NAME>
oxiran-2-ylmethyl prop-2-enoate

> <PUBCHEM_IUPAC_CAS_NAME>
2-propenoic acid 2-oxiranylmethyl ester

> <PUBCHEM_IUPAC_NAME>
oxiran-2-ylmethyl prop-2-enoate

> <PUBCHEM_IUPAC_SYSTEMATIC_NAME>
oxiran-2-ylmethyl prop-2-enoate

> <PUBCHEM_IUPAC_TRADITIONAL_NAME>
acrylic acid glycidyl ester

> <PUBCHEM_IUPAC_INCHI>
InChI=1S/C6H8O3/c1-2-6(7)9-4-5-3-8-5/h2,5H,1,3-4H2

> <PUBCHEM_IUPAC_INCHIKEY>
RPQRDASANLAFCM-UHFFFAOYSA-N

> <PUBCHEM_XLOGP3_AA>
0.4

> <PUBCHEM_EXACT_MASS>
128.047344

> <PUBCHEM_MOLECULAR_FORMULA>
C6H8O3

> <PUBCHEM_MOLECULAR_WEIGHT>
128.12592

> <PUBCHEM_OPENEYE_CAN_SMILES>
C=CC(=O)OCC1CO1

> <PUBCHEM_OPENEYE_ISO_SMILES>
C=CC(=O)OCC1CO1

> <PUBCHEM_CACTVS_TPSA>
38.8

> <PUBCHEM_MONOISOTOPIC_WEIGHT>
128.047344

> <PUBCHEM_TOTAL_CHARGE>
0

> <PUBCHEM_HEAVY_ATOM_COUNT>
9

> <PUBCHEM_ATOM_DEF_STEREO_COUNT>
0

> <PUBCHEM_ATOM_UDEF_STEREO_COUNT>
1

> <PUBCHEM_BOND_DEF_STEREO_COUNT>
0

> <PUBCHEM_BOND_UDEF_STEREO_COUNT>
0

> <PUBCHEM_ISOTOPIC_ATOM_COUNT>
0

> <PUBCHEM_COMPONENT_COUNT>
1

> <PUBCHEM_CACTVS_TAUTO_COUNT>
1

> <PUBCHEM_COORDINATE_TYPE>
1
5
255

> <PUBCHEM_BONDANNOTATIONS>
4  10  3

$$$$

