582732
  -OEChem-06241222433D

 48 50  0     1  0  0  0  0  0999 V2000
   -0.2624   -1.9643    1.5591 O   0  0  0  0  0  0  0  0  0  0  0  0
   -3.3969   -2.7911   -1.1892 O   0  0  0  0  0  0  0  0  0  0  0  0
   -4.8946   -1.8165    0.1955 O   0  0  0  0  0  0  0  0  0  0  0  0
   -1.3713   -1.3478   -0.3881 N   0  0  0  0  0  0  0  0  0  0  0  0
   -0.8023    2.8549    1.6533 N   0  0  0  0  0  0  0  0  0  0  0  0
    2.2276   -1.9117    0.1308 C   0  0  0  0  0  0  0  0  0  0  0  0
    2.3565   -0.4615    0.6160 C   0  0  0  0  0  0  0  0  0  0  0  0
    3.3879   -2.2805   -0.8035 C   0  0  0  0  0  0  0  0  0  0  0  0
    3.7132   -0.2033    1.2673 C   0  0  0  0  0  0  0  0  0  0  0  0
    4.7430   -2.0194   -0.1496 C   0  0  0  0  0  0  0  0  0  0  0  0
    4.8640   -0.5794    0.3391 C   0  0  0  0  0  0  0  0  0  0  0  0
    0.8850   -2.1308   -0.5641 C   0  0  0  0  0  0  0  0  0  0  0  0
   -0.2874   -1.8156    0.3403 C   0  0  0  0  0  0  0  0  0  0  0  0
   -2.6277   -0.9722    0.2190 C   0  0  1  0  0  0  0  0  0  0  0  0
   -2.9797    0.4918   -0.0808 C   0  0  0  0  0  0  0  0  0  0  0  0
   -1.9317    1.4617    0.3871 C   0  0  0  0  0  0  0  0  0  0  0  0
   -0.8325    1.9122   -0.3685 C   0  0  0  0  0  0  0  0  0  0  0  0
   -3.7527   -1.8849   -0.2472 C   0  0  0  0  0  0  0  0  0  0  0  0
   -0.1292    2.7951    0.4538 C   0  0  0  0  0  0  0  0  0  0  0  0
   -1.9036    2.0424    1.6178 C   0  0  0  0  0  0  0  0  0  0  0  0
   -0.3508    1.6678   -1.6699 C   0  0  0  0  0  0  0  0  0  0  0  0
    1.0365    3.4484    0.0381 C   0  0  0  0  0  0  0  0  0  0  0  0
    0.8140    2.3142   -2.0993 C   0  0  0  0  0  0  0  0  0  0  0  0
    1.4953    3.1905   -1.2568 C   0  0  0  0  0  0  0  0  0  0  0  0
    2.2780   -2.5685    1.0104 H   0  0  0  0  0  0  0  0  0  0  0  0
    1.5764   -0.2075    1.3408 H   0  0  0  0  0  0  0  0  0  0  0  0
    2.2358    0.2214   -0.2331 H   0  0  0  0  0  0  0  0  0  0  0  0
    3.3189   -1.6998   -1.7324 H   0  0  0  0  0  0  0  0  0  0  0  0
    3.3201   -3.3382   -1.0844 H   0  0  0  0  0  0  0  0  0  0  0  0
    3.7937    0.8545    1.5422 H   0  0  0  0  0  0  0  0  0  0  0  0
    3.7882   -0.7820    2.1962 H   0  0  0  0  0  0  0  0  0  0  0  0
    4.8777   -2.7047    0.6963 H   0  0  0  0  0  0  0  0  0  0  0  0
    5.5446   -2.2342   -0.8652 H   0  0  0  0  0  0  0  0  0  0  0  0
    5.8180   -0.4457    0.8613 H   0  0  0  0  0  0  0  0  0  0  0  0
    4.8733    0.0989   -0.5231 H   0  0  0  0  0  0  0  0  0  0  0  0
    0.8348   -1.5168   -1.4718 H   0  0  0  0  0  0  0  0  0  0  0  0
    0.7844   -3.1780   -0.8736 H   0  0  0  0  0  0  0  0  0  0  0  0
   -2.5440   -1.1186    1.3028 H   0  0  0  0  0  0  0  0  0  0  0  0
   -1.3127   -1.3126   -1.4017 H   0  0  0  0  0  0  0  0  0  0  0  0
   -3.1395    0.6229   -1.1596 H   0  0  0  0  0  0  0  0  0  0  0  0
   -3.9387    0.7452    0.3909 H   0  0  0  0  0  0  0  0  0  0  0  0
   -2.5555    1.9608    2.4762 H   0  0  0  0  0  0  0  0  0  0  0  0
   -0.5227    3.4171    2.4452 H   0  0  0  0  0  0  0  0  0  0  0  0
   -0.8691    0.9900   -2.3418 H   0  0  0  0  0  0  0  0  0  0  0  0
    1.5681    4.1298    0.6936 H   0  0  0  0  0  0  0  0  0  0  0  0
    1.1906    2.1289   -3.1017 H   0  0  0  0  0  0  0  0  0  0  0  0
    2.3987    3.6808   -1.6105 H   0  0  0  0  0  0  0  0  0  0  0  0
   -4.1515   -3.3581   -1.4562 H   0  0  0  0  0  0  0  0  0  0  0  0
  1 13  2  0  0  0  0
  2 18  1  0  0  0  0
  2 48  1  0  0  0  0
  3 18  2  0  0  0  0
  4 13  1  0  0  0  0
  4 14  1  0  0  0  0
  4 39  1  0  0  0  0
  5 19  1  0  0  0  0
  5 20  1  0  0  0  0
  5 43  1  0  0  0  0
  6  7  1  0  0  0  0
  6  8  1  0  0  0  0
  6 12  1  0  0  0  0
  6 25  1  0  0  0  0
  7  9  1  0  0  0  0
  7 26  1  0  0  0  0
  7 27  1  0  0  0  0
  8 10  1  0  0  0  0
  8 28  1  0  0  0  0
  8 29  1  0  0  0  0
  9 11  1  0  0  0  0
  9 30  1  0  0  0  0
  9 31  1  0  0  0  0
 10 11  1  0  0  0  0
 10 32  1  0  0  0  0
 10 33  1  0  0  0  0
 11 34  1  0  0  0  0
 11 35  1  0  0  0  0
 12 13  1  0  0  0  0
 12 36  1  0  0  0  0
 12 37  1  0  0  0  0
 14 15  1  0  0  0  0
 14 18  1  0  0  0  0
 14 38  1  0  0  0  0
 15 16  1  0  0  0  0
 15 40  1  0  0  0  0
 15 41  1  0  0  0  0
 16 17  1  0  0  0  0
 16 20  2  0  0  0  0
 17 19  1  0  0  0  0
 17 21  2  0  0  0  0
 19 22  2  0  0  0  0
 20 42  1  0  0  0  0
 21 23  1  0  0  0  0
 21 44  1  0  0  0  0
 22 24  1  0  0  0  0
 22 45  1  0  0  0  0
 23 24  2  0  0  0  0
 23 46  1  0  0  0  0
 24 47  1  0  0  0  0
M  END
> <PUBCHEM_COMPOUND_CID>
582732

> <PUBCHEM_CONFORMER_RMSD>
1

> <PUBCHEM_CONFORMER_DIVERSEORDER>
1
395
21
589
250
322
149
33
477
494
508
76
195
479
348
5
302
424
91
11
12
133
32
171
257
4
2
36
370
318
8
495
224
18
562
173
144
251
68
135
101
14
9
533
23
239
346
308
118
294
25
186
92
153
37
236
22
83
576
3
126
299
47
72
163
201
296
174
89
146
214
386
136
185
140
88
26
110
575
263
261
187
360
84
107
39
584
29
57
20
65
16
70
292
132
423
252
419
28
290
41
44
453
7
413
182
586
359
531
339
277
578
94
238
369
170
218
127
534
53
321
491
344
219
300
327
105
102
561
67
90
211
204
331
237
148
515
124
450
378
525
354
145
183
96
45
429
40
60
222
197
565
24
460
351
119
117
394
554
269
501
6
245
347
241
155
48
381
274
260
319
52
442
61
99

> <PUBCHEM_MMFF94_PARTIAL_CHARGES>
25
1 -0.57
12 0.06
13 0.57
14 0.36
15 0.18
16 -0.18
18 0.66
19 -0.15
2 -0.65
20 -0.3
21 -0.15
22 -0.15
23 -0.15
24 -0.15
3 -0.57
39 0.37
4 -0.73
42 0.15
43 0.27
44 0.15
45 0.15
46 0.15
47 0.15
48 0.5
5 0.03

> <PUBCHEM_EFFECTIVE_ROTOR_COUNT>
8.2

> <PUBCHEM_PHARMACOPHORE_FEATURES>
10
1 1 acceptor
1 2 acceptor
1 3 acceptor
1 4 donor
1 5 cation
1 5 donor
3 2 3 18 anion
5 5 16 17 19 20 rings
6 17 19 21 22 23 24 rings
6 6 7 8 9 10 11 rings

> <PUBCHEM_HEAVY_ATOM_COUNT>
24

> <PUBCHEM_ATOM_DEF_STEREO_COUNT>
0

> <PUBCHEM_ATOM_UDEF_STEREO_COUNT>
1

> <PUBCHEM_BOND_DEF_STEREO_COUNT>
0

> <PUBCHEM_BOND_UDEF_STEREO_COUNT>
0

> <PUBCHEM_ISOTOPIC_ATOM_COUNT>
0

> <PUBCHEM_COMPONENT_COUNT>
1

> <PUBCHEM_CACTVS_TAUTO_COUNT>
2

> <PUBCHEM_CONFORMER_ID>
0008E44C00000001

> <PUBCHEM_MMFF94_ENERGY>
33.1586

> <PUBCHEM_FEATURE_SELFOVERLAP>
50.897

> <PUBCHEM_SHAPE_FINGERPRINT>
10006869 2 17765995378763424579
10165383 225 16965739011365816852
10498660 4 18198910403698115286
10670039 82 18341035403499418630
1100329 8 18339070580014259849
11045515 52 18343589550870913191
11595378 159 18128552633484101338
12156800 1 16445837987377248120
12166972 35 17704351061261999478
12403259 226 18263087772441647114
12633257 1 17540817626076646802
128993 33 17258494968993326288
133893 2 17558807547219817021
14081887 123 18194409011726204286
14142880 1 18122904493279970769
14251751 93 17624415677296860186
14955137 171 18267564944960685105
17357779 13 18337975435719488015
17492 54 17845643747428702884
17980427 26 17392211620560687765
1813 80 18273217490772501771
18336668 15 18271530797186462548
19930381 70 18043263348601913416
20600515 1 18060424581996980334
20905425 154 17834946486610635479
21421861 104 18192126253936163745
21623110 236 18412257355288066792
23419403 2 18050321143584144085
23557571 272 18334293201343278710
469060 322 17774722064681540502
6287921 2 18262787588550081828
6443956 14 18410300172845023313
7399639 24 18041857181058506458
7471813 234 18261399884321592407
81228 2 18269827765312759562

> <PUBCHEM_SHAPE_MULTIPOLES>
466.34
7.32
4.65
1.49
4.54
2.22
-0.14
-6.92
0.65
-1.47
-0.81
-0.04
0.93
-0.83

> <PUBCHEM_SHAPE_SELFOVERLAP>
988.779

> <PUBCHEM_SHAPE_VOLUME>
259

> <PUBCHEM_COORDINATE_TYPE>
2
5
10

$$$$

