4286
  -OEChem-06261200012D

 52 55  0     0  0  0  0  0  0999 V2000
    5.4050   -2.2249    0.0000 O   0  0  0  0  0  0  0  0  0  0  0  0
    3.6730   -2.2249    0.0000 N   0  0  0  0  0  0  0  0  0  0  0  0
    4.5390   -0.7249    0.0000 N   0  0  0  0  0  0  0  0  0  0  0  0
    5.4050    3.7751    0.0000 N   0  0  0  0  0  0  0  0  0  0  0  0
    6.2710    5.2751    0.0000 N   0  0  0  0  0  0  0  0  0  0  0  0
    7.1371    3.7751    0.0000 N   0  0  0  0  0  0  0  0  0  0  0  0
    3.6730   -3.2249    0.0000 C   0  0  0  0  0  0  0  0  0  0  0  0
    4.5092   -4.6732    0.0000 C   0  0  0  0  0  0  0  0  0  0  0  0
    2.8368   -4.6732    0.0000 C   0  0  0  0  0  0  0  0  0  0  0  0
    2.9819   -5.1083    0.0000 C   0  0  0  0  0  0  0  0  0  0  0  0
    4.5092   -3.7077    0.0000 C   0  0  0  0  0  0  0  0  0  0  0  0
    2.8368   -3.7077    0.0000 C   0  0  0  0  0  0  0  0  0  0  0  0
    2.9819   -4.0630    0.0000 C   0  0  0  0  0  0  0  0  0  0  0  0
    3.6730   -4.9760    0.0000 C   0  0  0  0  0  0  0  0  0  0  0  0
    3.8876   -5.5851    0.0000 C   0  0  0  0  0  0  0  0  0  0  0  0
    2.0000   -5.1560    0.0000 C   0  0  0  0  0  0  0  0  0  0  0  0
    4.5390   -1.7249    0.0000 C   0  0  0  0  0  0  0  0  0  0  0  0
    5.4050   -0.2249    0.0000 C   0  0  0  0  0  0  0  0  0  0  0  0
    5.4050    0.7751    0.0000 C   0  0  0  0  0  0  0  0  0  0  0  0
    6.2711    1.2751    0.0000 C   0  0  0  0  0  0  0  0  0  0  0  0
    4.5390    1.2751    0.0000 C   0  0  0  0  0  0  0  0  0  0  0  0
    6.2711    2.2751    0.0000 C   0  0  0  0  0  0  0  0  0  0  0  0
    4.5390    2.2751    0.0000 C   0  0  0  0  0  0  0  0  0  0  0  0
    5.4050    2.7751    0.0000 C   0  0  0  0  0  0  0  0  0  0  0  0
    6.2710    4.2751    0.0000 C   0  0  0  0  0  0  0  0  0  0  0  0
    5.1016   -4.8559    0.0000 H   0  0  0  0  0  0  0  0  0  0  0  0
    2.8912   -5.2908    0.0000 H   0  0  0  0  0  0  0  0  0  0  0  0
    2.8478   -5.7136    0.0000 H   0  0  0  0  0  0  0  0  0  0  0  0
    5.1198   -3.8153    0.0000 H   0  0  0  0  0  0  0  0  0  0  0  0
    4.7212   -3.1251    0.0000 H   0  0  0  0  0  0  0  0  0  0  0  0
    2.6247   -3.1251    0.0000 H   0  0  0  0  0  0  0  0  0  0  0  0
    2.2262   -3.8153    0.0000 H   0  0  0  0  0  0  0  0  0  0  0  0
    2.6383   -3.5470    0.0000 H   0  0  0  0  0  0  0  0  0  0  0  0
    2.3885   -4.2425    0.0000 H   0  0  0  0  0  0  0  0  0  0  0  0
    3.3030   -5.4735    0.0000 H   0  0  0  0  0  0  0  0  0  0  0  0
    4.0430   -5.4735    0.0000 H   0  0  0  0  0  0  0  0  0  0  0  0
    3.5782   -6.1224    0.0000 H   0  0  0  0  0  0  0  0  0  0  0  0
    4.4127   -5.9147    0.0000 H   0  0  0  0  0  0  0  0  0  0  0  0
    1.5188   -4.7651    0.0000 H   0  0  0  0  0  0  0  0  0  0  0  0
    1.8068   -5.7451    0.0000 H   0  0  0  0  0  0  0  0  0  0  0  0
    3.1361   -1.9149    0.0000 H   0  0  0  0  0  0  0  0  0  0  0  0
    4.0021   -0.4149    0.0000 H   0  0  0  0  0  0  0  0  0  0  0  0
    5.6171   -0.8075    0.0000 H   0  0  0  0  0  0  0  0  0  0  0  0
    6.0156   -0.1172    0.0000 H   0  0  0  0  0  0  0  0  0  0  0  0
    6.8080    0.9651    0.0000 H   0  0  0  0  0  0  0  0  0  0  0  0
    4.0021    0.9651    0.0000 H   0  0  0  0  0  0  0  0  0  0  0  0
    6.8080    2.5851    0.0000 H   0  0  0  0  0  0  0  0  0  0  0  0
    4.0021    2.5851    0.0000 H   0  0  0  0  0  0  0  0  0  0  0  0
    7.6740    4.0851    0.0000 H   0  0  0  0  0  0  0  0  0  0  0  0
    7.1371    3.1551    0.0000 H   0  0  0  0  0  0  0  0  0  0  0  0
    6.8080    5.5851    0.0000 H   0  0  0  0  0  0  0  0  0  0  0  0
    5.7341    5.5851    0.0000 H   0  0  0  0  0  0  0  0  0  0  0  0
  1 17  2  0  0  0  0
  2  7  1  0  0  0  0
  2 17  1  0  0  0  0
  2 41  1  0  0  0  0
  3 17  1  0  0  0  0
  3 18  1  0  0  0  0
  3 42  1  0  0  0  0
  4 24  1  0  0  0  0
  4 25  2  0  0  0  0
  5 25  1  0  0  0  0
  5 51  1  0  0  0  0
  5 52  1  0  0  0  0
  6 25  1  0  0  0  0
  6 49  1  0  0  0  0
  6 50  1  0  0  0  0
  7 11  1  0  0  0  0
  7 12  1  0  0  0  0
  7 13  1  0  0  0  0
  8 11  1  0  0  0  0
  8 14  1  0  0  0  0
  8 15  1  0  0  0  0
  8 26  1  0  0  0  0
  9 12  1  0  0  0  0
  9 14  1  0  0  0  0
  9 16  1  0  0  0  0
  9 27  1  0  0  0  0
 10 13  1  0  0  0  0
 10 15  1  0  0  0  0
 10 16  1  0  0  0  0
 10 28  1  0  0  0  0
 11 29  1  0  0  0  0
 11 30  1  0  0  0  0
 12 31  1  0  0  0  0
 12 32  1  0  0  0  0
 13 33  1  0  0  0  0
 13 34  1  0  0  0  0
 14 35  1  0  0  0  0
 14 36  1  0  0  0  0
 15 37  1  0  0  0  0
 15 38  1  0  0  0  0
 16 39  1  0  0  0  0
 16 40  1  0  0  0  0
 18 19  1  0  0  0  0
 18 43  1  0  0  0  0
 18 44  1  0  0  0  0
 19 20  2  0  0  0  0
 19 21  1  0  0  0  0
 20 22  1  0  0  0  0
 20 45  1  0  0  0  0
 21 23  2  0  0  0  0
 21 46  1  0  0  0  0
 22 24  2  0  0  0  0
 22 47  1  0  0  0  0
 23 24  1  0  0  0  0
 23 48  1  0  0  0  0
M  END
> <PUBCHEM_COMPOUND_CID>
4286

> <PUBCHEM_COMPOUND_CANONICALIZED>
1

> <PUBCHEM_CACTVS_COMPLEXITY>
493

> <PUBCHEM_CACTVS_HBOND_ACCEPTOR>
2

> <PUBCHEM_CACTVS_HBOND_DONOR>
4

> <PUBCHEM_CACTVS_ROTATABLE_BOND>
4

> <PUBCHEM_CACTVS_SUBSKEYS>
AAADceB7oAAAAAAAAAAAAAAAAAAAAAAAAAAwYMGDAAAAAAABAAAAHgAQAAAADYjBGAQxwILAAACoAiRCdACCAAEgAgAIiIAIZIiIICKAkZGEIAholgIIyAcQgMAOCAAAAAAAAAAQAASAAAAAAAAAAAAAAA==

> <PUBCHEM_IUPAC_OPENEYE_NAME>
1-(1-adamantyl)-3-[(4-guanidinophenyl)methyl]urea

> <PUBCHEM_IUPAC_CAS_NAME>
1-(1-adamantyl)-3-[[4-(diaminomethylideneamino)phenyl]methyl]urea

> <PUBCHEM_IUPAC_NAME>
1-(1-adamantyl)-3-[[4-(diaminomethylideneamino)phenyl]methyl]urea

> <PUBCHEM_IUPAC_SYSTEMATIC_NAME>
1-(1-adamantyl)-3-[[4-[bis(azanyl)methylideneamino]phenyl]methyl]urea

> <PUBCHEM_IUPAC_TRADITIONAL_NAME>
1-(1-adamantyl)-3-(4-guanidinobenzyl)urea

> <PUBCHEM_IUPAC_INCHI>
InChI=1S/C19H27N5O/c20-17(21)23-16-3-1-12(2-4-16)11-22-18(25)24-19-8-13-5-14(9-19)7-15(6-13)10-19/h1-4,13-15H,5-11H2,(H4,20,21,23)(H2,22,24,25)

> <PUBCHEM_IUPAC_INCHIKEY>
YQPLKJCBEOVDBS-UHFFFAOYSA-N

> <PUBCHEM_XLOGP3_AA>
2

> <PUBCHEM_EXACT_MASS>
341.221561

> <PUBCHEM_MOLECULAR_FORMULA>
C19H27N5O

> <PUBCHEM_MOLECULAR_WEIGHT>
341.45058

> <PUBCHEM_OPENEYE_CAN_SMILES>
C1C2CC3CC1CC(C2)(C3)NC(=O)NCC4=CC=C(C=C4)N=C(N)N

> <PUBCHEM_OPENEYE_ISO_SMILES>
C1C2CC3CC1CC(C2)(C3)NC(=O)NCC4=CC=C(C=C4)N=C(N)N

> <PUBCHEM_CACTVS_TPSA>
106

> <PUBCHEM_MONOISOTOPIC_WEIGHT>
341.221561

> <PUBCHEM_TOTAL_CHARGE>
0

> <PUBCHEM_HEAVY_ATOM_COUNT>
25

> <PUBCHEM_ATOM_DEF_STEREO_COUNT>
0

> <PUBCHEM_ATOM_UDEF_STEREO_COUNT>
0

> <PUBCHEM_BOND_DEF_STEREO_COUNT>
0

> <PUBCHEM_BOND_UDEF_STEREO_COUNT>
0

> <PUBCHEM_ISOTOPIC_ATOM_COUNT>
0

> <PUBCHEM_COMPONENT_COUNT>
1

> <PUBCHEM_CACTVS_TAUTO_COUNT>
6

> <PUBCHEM_COORDINATE_TYPE>
1
5
255

> <PUBCHEM_BONDANNOTATIONS>
19  20  8
19  21  8
20  22  8
21  23  8
22  24  8
23  24  8

$$$$

