17396214
  -OEChem-06241222553D

 38 40  0     0  0  0  0  0  0999 V2000
   -0.7660    2.8837   -1.2730 S   0  0  0  0  0  0  0  0  0  0  0  0
    6.8501   -0.6929    1.0419 S   0  0  0  0  0  0  0  0  0  0  0  0
   -2.6814    0.2271   -0.3023 O   0  0  0  0  0  0  0  0  0  0  0  0
    2.5890   -0.1926   -0.7699 O   0  0  0  0  0  0  0  0  0  0  0  0
    0.0685    1.4557    0.7137 N   0  0  0  0  0  0  0  0  0  0  0  0
    4.4489    0.3116    0.5794 N   0  0  0  0  0  0  0  0  0  0  0  0
    5.1377   -1.6939   -0.6159 N   0  0  0  0  0  0  0  0  0  0  0  0
    1.1750    2.0256    0.1147 C   0  0  0  0  0  0  0  0  0  0  0  0
    2.5072    1.7320    0.6793 C   0  0  0  0  0  0  0  0  0  0  0  0
   -1.0095    1.8386    0.0661 C   0  0  0  0  0  0  0  0  0  0  0  0
   -2.4033    1.4244    0.4222 C   0  0  0  0  0  0  0  0  0  0  0  0
    0.9222    2.8306   -0.9762 C   0  0  0  0  0  0  0  0  0  0  0  0
   -3.9172   -0.3205   -0.1430 C   0  0  0  0  0  0  0  0  0  0  0  0
    3.1691    0.4968    0.0624 C   0  0  0  0  0  0  0  0  0  0  0  0
   -6.4500   -1.4430    0.1848 C   0  0  0  0  0  0  0  0  0  0  0  0
   -4.8465    0.2892    0.7000 C   0  0  0  0  0  0  0  0  0  0  0  0
   -4.2543   -1.4914   -0.8220 C   0  0  0  0  0  0  0  0  0  0  0  0
   -6.1128   -0.2721    0.8639 C   0  0  0  0  0  0  0  0  0  0  0  0
   -5.5206   -2.0526   -0.6580 C   0  0  0  0  0  0  0  0  0  0  0  0
   -7.8036   -2.0436    0.3597 C   0  0  0  0  0  0  0  0  0  0  0  0
    5.3327   -0.7161    0.2407 C   0  0  0  0  0  0  0  0  0  0  0  0
    7.2988   -2.1064    0.1807 C   0  0  0  0  0  0  0  0  0  0  0  0
    6.2661   -2.4900   -0.6490 C   0  0  0  0  0  0  0  0  0  0  0  0
    3.1753    2.5899    0.5337 H   0  0  0  0  0  0  0  0  0  0  0  0
    2.4247    1.5660    1.7605 H   0  0  0  0  0  0  0  0  0  0  0  0
   -3.1039    2.2251    0.1537 H   0  0  0  0  0  0  0  0  0  0  0  0
   -2.4360    1.2362    1.5028 H   0  0  0  0  0  0  0  0  0  0  0  0
    1.6227    3.3732   -1.5954 H   0  0  0  0  0  0  0  0  0  0  0  0
   -4.6526    1.1966    1.2614 H   0  0  0  0  0  0  0  0  0  0  0  0
   -3.5345   -1.9704   -1.4801 H   0  0  0  0  0  0  0  0  0  0  0  0
   -6.8293    0.2119    1.5225 H   0  0  0  0  0  0  0  0  0  0  0  0
   -5.7719   -2.9641   -1.1939 H   0  0  0  0  0  0  0  0  0  0  0  0
    4.8014    0.9685    1.2708 H   0  0  0  0  0  0  0  0  0  0  0  0
   -8.2043   -1.8316    1.3568 H   0  0  0  0  0  0  0  0  0  0  0  0
   -7.7692   -3.1332    0.2538 H   0  0  0  0  0  0  0  0  0  0  0  0
   -8.4932   -1.6399   -0.3883 H   0  0  0  0  0  0  0  0  0  0  0  0
    8.2634   -2.5738    0.3172 H   0  0  0  0  0  0  0  0  0  0  0  0
    6.2850   -3.3504   -1.3043 H   0  0  0  0  0  0  0  0  0  0  0  0
  1 10  1  0  0  0  0
  1 12  1  0  0  0  0
  2 21  1  0  0  0  0
  2 22  1  0  0  0  0
  3 11  1  0  0  0  0
  3 13  1  0  0  0  0
  4 14  2  0  0  0  0
  5  8  1  0  0  0  0
  5 10  2  0  0  0  0
  6 14  1  0  0  0  0
  6 21  1  0  0  0  0
  6 33  1  0  0  0  0
  7 21  2  0  0  0  0
  7 23  1  0  0  0  0
  8  9  1  0  0  0  0
  8 12  2  0  0  0  0
  9 14  1  0  0  0  0
  9 24  1  0  0  0  0
  9 25  1  0  0  0  0
 10 11  1  0  0  0  0
 11 26  1  0  0  0  0
 11 27  1  0  0  0  0
 12 28  1  0  0  0  0
 13 16  2  0  0  0  0
 13 17  1  0  0  0  0
 15 18  2  0  0  0  0
 15 19  1  0  0  0  0
 15 20  1  0  0  0  0
 16 18  1  0  0  0  0
 16 29  1  0  0  0  0
 17 19  2  0  0  0  0
 17 30  1  0  0  0  0
 18 31  1  0  0  0  0
 19 32  1  0  0  0  0
 20 34  1  0  0  0  0
 20 35  1  0  0  0  0
 20 36  1  0  0  0  0
 22 23  2  0  0  0  0
 22 37  1  0  0  0  0
 23 38  1  0  0  0  0
M  END
> <PUBCHEM_COMPOUND_CID>
17396214

> <PUBCHEM_CONFORMER_RMSD>
1

> <PUBCHEM_CONFORMER_DIVERSEORDER>
1
88
172
49
203
223
116
101
142
134
30
182
62
78
185
10
236
8
196
145
13
263
131
149
103
206
94
112
249
157
124
76
31
19
144
137
265
109
228
184
230
194
26
129
193
99
120
113
91
97
77
245
11
106
122
178
51
155
2
175
54
21
151
240
187
56
34
98
200
37
211
5
105
72
220
246
261
41
47
114
214
201
158
102
207
191
7
136
48
45
264
133
135
40
170
180
164
186
67
68
165
258
32
181
166
42
257
22
260
169
63
210
221
44
198
123
163
248
231
27
159
235
238
224
12
29
126
58
71
74
197
85
244
18
138
115
75
259
188
171
79
226
239
128
35
233
73
237
52
217
251
110
92
208
20
154
219
60
15
125
46
262
218
183
254
50
160
148
146
64
190
140
168
39
177
66
222
53
241
143
232
33
65
212
189
161
118
119
86
23
156
255
38
59
202
167
242
174
176
24
89
55
100
16
96
57
4
216
14
90
229
139
83
61
132
28
17
253
130
209
82
6
225
204
95
152
43
243
69
93
81
252
3
70
147
150
247
250
87
195
215
25
199
153
162
111
104
227
256
121
117
107
213
9
205
179
36
234
192
84
80
141
127
173
108

> <PUBCHEM_MMFF94_PARTIAL_CHARGES>
31
1 -0.08
10 0.2
11 0.46
12 -0.11
13 0.08
14 0.57
15 -0.14
16 -0.15
17 -0.15
18 -0.15
19 -0.15
2 -0.08
20 0.14
21 0.44
22 -0.11
23 0.08
28 0.15
29 0.15
3 -0.36
30 0.15
31 0.15
32 0.15
33 0.37
37 0.15
38 0.15
4 -0.57
5 -0.57
6 -0.49
7 -0.57
8 0.05
9 0.24

> <PUBCHEM_EFFECTIVE_ROTOR_COUNT>
7

> <PUBCHEM_PHARMACOPHORE_FEATURES>
7
1 3 acceptor
1 4 acceptor
1 5 acceptor
1 6 donor
5 1 5 8 10 12 rings
5 2 7 21 22 23 rings
6 13 15 16 17 18 19 rings

> <PUBCHEM_HEAVY_ATOM_COUNT>
23

> <PUBCHEM_ATOM_DEF_STEREO_COUNT>
0

> <PUBCHEM_ATOM_UDEF_STEREO_COUNT>
0

> <PUBCHEM_BOND_DEF_STEREO_COUNT>
0

> <PUBCHEM_BOND_UDEF_STEREO_COUNT>
0

> <PUBCHEM_ISOTOPIC_ATOM_COUNT>
0

> <PUBCHEM_COMPONENT_COUNT>
1

> <PUBCHEM_CACTVS_TAUTO_COUNT>
3

> <PUBCHEM_CONFORMER_ID>
010971F600000001

> <PUBCHEM_MMFF94_ENERGY>
45.0672

> <PUBCHEM_FEATURE_SELFOVERLAP>
35.521

> <PUBCHEM_SHAPE_FINGERPRINT>
10669705 176 10231751197593153072
10753850 27 18342460335106574912
11059845 2 17897710180207525265
117089 54 18054500314821518355
11761917 87 18129647614412094619
11809386 21 17987243403044759936
12107183 9 18261944263327302737
12166972 35 17775563130783756326
12592606 108 18409732829725763631
12760667 363 18413669123542998801
13533116 47 18263925449561477745
13540713 4 18269858495910024180
13668630 136 17988646255691656491
13673619 4 18341896298553262532
13685833 64 18410575071899561560
13757389 114 17415004835495977789
14123256 34 18413387639733799146
14216079 64 18410013230433006111
14251764 30 18342178877362669366
14420673 8 18411979148976582371
14556957 393 16199856393094329022
14565420 104 6843933758076173933
14931854 50 17346322630179489027
15183329 4 13901912232369893148
15510800 12 18187643651892071167
16120349 21 18335695092191606201
16992779 147 16299818347353503944
1768 124 18040154002596409006
17780758 139 17894631487213657049
18335252 98 18334859429585309378
19784866 240 18341609300723265433
1979834 28 16733253608317083822
20028762 73 18334294279902432902
20165401 70 18263645057491850311
20526848 3 9079115565909027890
21033648 29 13984924248419344609
21095086 4 18042394911132855902
21267235 1 18411416211079465683
21304304 249 18409165489645944127
21307412 95 17775000159988884427
21365058 113 17203324465062148597
21585482 310 18272077271925346499
21585483 132 17272583982655242906
21682296 61 18341046346712000507
22224240 67 6771866273123850881
229767 44 17967256372937388815
229767 8 17973153226382248926
23424784 1240 17968653964718806950
23522609 53 18122309524272394424
270888 7 9079114453602090892
2748736 6 8862938360174328770
3004659 81 17917996066058707672
3014063 24 18335423452251978015
3383291 50 18341895169135646203
3472631 163 10447929472843299944
351380 3 18413110554287303803
3627633 1 18340769367902586300
4107672 100 17488750111489501677
46194498 28 17274264920277801101
465052 167 18334292054955821268
474113 269 18041290868567303191
5104073 3 14202556065325346594
5283384 27 6771871740912657323
543368 44 9871755689718592771
559249 180 18408322190656184609
5718773 13 18411700988891568035
6138700 20 18341895203827095675
6327066 14 9511457822964298416
636775 8 18188764098478045814
6712543 237 16153425047777330407
77188 2 18410856529618548221
7970288 3 18411984645717180071

> <PUBCHEM_SHAPE_MULTIPOLES>
454.35
22.12
3.29
1.02
2.38
1.03
-0.07
-25.24
3.15
0.85
-1
0.09
0.18
0.26

> <PUBCHEM_SHAPE_SELFOVERLAP>
945.26

> <PUBCHEM_SHAPE_VOLUME>
260

> <PUBCHEM_COORDINATE_TYPE>
2
5
10

$$$$

