17396117
  -OEChem-06241222543D

 50 52  0     1  0  0  0  0  0999 V2000
    4.8205    2.1436   -0.5559 Cl  0  0  0  0  0  0  0  0  0  0  0  0
    6.1448   -3.0390   -1.1538 Cl  0  0  0  0  0  0  0  0  0  0  0  0
   -4.2260   -0.5244    0.9897 S   0  0  0  0  0  0  0  0  0  0  0  0
   -3.8187   -0.4818    2.3826 O   0  0  0  0  0  0  0  0  0  0  0  0
   -5.5957   -0.2208    0.6159 O   0  0  0  0  0  0  0  0  0  0  0  0
    0.5467    3.2304    0.7203 O   0  0  0  0  0  0  0  0  0  0  0  0
   -3.7694   -2.0116    0.3083 N   0  0  0  0  0  0  0  0  0  0  0  0
    1.1206    0.9869    0.6031 N   0  0  0  0  0  0  0  0  0  0  0  0
   -3.9518   -2.1981   -1.1610 C   0  0  0  0  0  0  0  0  0  0  0  0
   -2.4471   -2.5755    0.6957 C   0  0  0  0  0  0  0  0  0  0  0  0
   -2.6325   -2.7762   -1.6550 C   0  0  0  0  0  0  0  0  0  0  0  0
   -2.1027   -3.5202   -0.4448 C   0  0  0  0  0  0  0  0  0  0  0  0
   -3.1716    0.5772    0.0950 C   0  0  0  0  0  0  0  0  0  0  0  0
   -1.9044    0.8862    0.5894 C   0  0  0  0  0  0  0  0  0  0  0  0
   -3.6078    1.1383   -1.1054 C   0  0  0  0  0  0  0  0  0  0  0  0
   -1.0733    1.7560   -0.1165 C   0  0  0  0  0  0  0  0  0  0  0  0
   -1.5095    2.3168   -1.3170 C   0  0  0  0  0  0  0  0  0  0  0  0
   -2.7769    2.0084   -1.8115 C   0  0  0  0  0  0  0  0  0  0  0  0
    2.4516    1.1256    1.1489 C   0  0  2  0  0  0  0  0  0  0  0  0
    0.2448    2.0624    0.4226 C   0  0  0  0  0  0  0  0  0  0  0  0
   -0.6401    3.2523   -2.0926 C   0  0  0  0  0  0  0  0  0  0  0  0
    3.3975    0.1032    0.5567 C   0  0  0  0  0  0  0  0  0  0  0  0
    2.4150    1.0729    2.6749 C   0  0  0  0  0  0  0  0  0  0  0  0
    4.4898    0.4823   -0.2237 C   0  0  0  0  0  0  0  0  0  0  0  0
    3.1550   -1.2472    0.8088 C   0  0  0  0  0  0  0  0  0  0  0  0
    5.3395   -0.4892   -0.7527 C   0  0  0  0  0  0  0  0  0  0  0  0
    4.0049   -2.2187    0.2795 C   0  0  0  0  0  0  0  0  0  0  0  0
    5.0971   -1.8397   -0.5013 C   0  0  0  0  0  0  0  0  0  0  0  0
   -4.2349   -1.3066   -1.7152 H   0  0  0  0  0  0  0  0  0  0  0  0
   -4.7566   -2.9307   -1.2955 H   0  0  0  0  0  0  0  0  0  0  0  0
   -2.5219   -3.1101    1.6465 H   0  0  0  0  0  0  0  0  0  0  0  0
   -1.6795   -1.8038    0.7768 H   0  0  0  0  0  0  0  0  0  0  0  0
   -1.9459   -1.9650   -1.9261 H   0  0  0  0  0  0  0  0  0  0  0  0
   -2.7602   -3.4217   -2.5283 H   0  0  0  0  0  0  0  0  0  0  0  0
   -1.0308   -3.7269   -0.5085 H   0  0  0  0  0  0  0  0  0  0  0  0
   -2.6326   -4.4728   -0.3249 H   0  0  0  0  0  0  0  0  0  0  0  0
   -1.5612    0.4615    1.5295 H   0  0  0  0  0  0  0  0  0  0  0  0
   -4.5960    0.9278   -1.5041 H   0  0  0  0  0  0  0  0  0  0  0  0
   -3.1340    2.4408   -2.7424 H   0  0  0  0  0  0  0  0  0  0  0  0
    2.7710    2.1421    0.9089 H   0  0  0  0  0  0  0  0  0  0  0  0
    0.7916    0.0552    0.3642 H   0  0  0  0  0  0  0  0  0  0  0  0
   -0.5632    4.2164   -1.5796 H   0  0  0  0  0  0  0  0  0  0  0  0
    0.3616    2.8322   -2.2320 H   0  0  0  0  0  0  0  0  0  0  0  0
   -1.0439    3.4412   -3.0935 H   0  0  0  0  0  0  0  0  0  0  0  0
    1.9872    0.1346    3.0455 H   0  0  0  0  0  0  0  0  0  0  0  0
    3.4206    1.1759    3.0973 H   0  0  0  0  0  0  0  0  0  0  0  0
    1.7969    1.8838    3.0768 H   0  0  0  0  0  0  0  0  0  0  0  0
    2.3077   -1.5672    1.4091 H   0  0  0  0  0  0  0  0  0  0  0  0
    6.1919   -0.1954   -1.3618 H   0  0  0  0  0  0  0  0  0  0  0  0
    3.8031   -3.2673    0.4824 H   0  0  0  0  0  0  0  0  0  0  0  0
  1 24  1  0  0  0  0
  2 28  1  0  0  0  0
  3  4  2  0  0  0  0
  3  5  2  0  0  0  0
  3  7  1  0  0  0  0
  3 13  1  0  0  0  0
  6 20  2  0  0  0  0
  7  9  1  0  0  0  0
  7 10  1  0  0  0  0
  8 19  1  0  0  0  0
  8 20  1  0  0  0  0
  8 41  1  0  0  0  0
  9 11  1  0  0  0  0
  9 29  1  0  0  0  0
  9 30  1  0  0  0  0
 10 12  1  0  0  0  0
 10 31  1  0  0  0  0
 10 32  1  0  0  0  0
 11 12  1  0  0  0  0
 11 33  1  0  0  0  0
 11 34  1  0  0  0  0
 12 35  1  0  0  0  0
 12 36  1  0  0  0  0
 13 14  2  0  0  0  0
 13 15  1  0  0  0  0
 14 16  1  0  0  0  0
 14 37  1  0  0  0  0
 15 18  2  0  0  0  0
 15 38  1  0  0  0  0
 16 17  2  0  0  0  0
 16 20  1  0  0  0  0
 17 18  1  0  0  0  0
 17 21  1  0  0  0  0
 18 39  1  0  0  0  0
 19 22  1  0  0  0  0
 19 23  1  0  0  0  0
 19 40  1  0  0  0  0
 21 42  1  0  0  0  0
 21 43  1  0  0  0  0
 21 44  1  0  0  0  0
 22 24  2  0  0  0  0
 22 25  1  0  0  0  0
 23 45  1  0  0  0  0
 23 46  1  0  0  0  0
 23 47  1  0  0  0  0
 24 26  1  0  0  0  0
 25 27  2  0  0  0  0
 25 48  1  0  0  0  0
 26 28  2  0  0  0  0
 26 49  1  0  0  0  0
 27 28  1  0  0  0  0
 27 50  1  0  0  0  0
M  END
> <PUBCHEM_COMPOUND_CID>
17396117

> <PUBCHEM_CONFORMER_RMSD>
1

> <PUBCHEM_CONFORMER_DIVERSEORDER>
1
85
141
24
83
116
36
10
107
89
56
88
123
103
121
152
150
126
110
155
48
166
112
124
156
133
125
75
157
158
87
154
44
93
149
160
40
80
34
58
82
144
69
145
134
115
130
11
14
27
29
111
142
140
132
161
99
92
64
25
122
84
97
74
138
65
71
151
2
164
143
98
139
96
57
128
67
3
148
5
23
70
118
147
73
26
153
53
167
165
102
43
72
46
109
104
119
13
42
15
9
90
136
45
17
120
8
94
101
106
113
63
37
22
62
127
137
86
76
39
114
163
50
31
30
135
66
28
32
16
54
131
49
68
38
60
77
52
51
35
61
18
108
162
146
12
81
129
59
117
78
33
20
100
105
159
7
6
4
91
95
47
21
41
55
19
79

> <PUBCHEM_MMFF94_PARTIAL_CHARGES>
32
1 -0.18
10 0.36
13 -0.01
14 -0.15
15 -0.15
16 0.09
17 -0.14
18 -0.15
19 0.44
2 -0.18
20 0.54
21 0.14
22 -0.14
24 0.18
25 -0.15
26 -0.15
27 -0.15
28 0.18
3 1.45
37 0.15
38 0.15
39 0.15
4 -0.65
41 0.37
48 0.15
49 0.15
5 -0.65
50 0.15
6 -0.57
7 -0.85
8 -0.73
9 0.36

> <PUBCHEM_EFFECTIVE_ROTOR_COUNT>
7

> <PUBCHEM_PHARMACOPHORE_FEATURES>
7
1 4 acceptor
1 5 acceptor
1 6 acceptor
1 8 donor
5 7 9 10 11 12 rings
6 13 14 15 16 17 18 rings
6 22 24 25 26 27 28 rings

> <PUBCHEM_HEAVY_ATOM_COUNT>
28

> <PUBCHEM_ATOM_DEF_STEREO_COUNT>
0

> <PUBCHEM_ATOM_UDEF_STEREO_COUNT>
1

> <PUBCHEM_BOND_DEF_STEREO_COUNT>
0

> <PUBCHEM_BOND_UDEF_STEREO_COUNT>
0

> <PUBCHEM_ISOTOPIC_ATOM_COUNT>
0

> <PUBCHEM_COMPONENT_COUNT>
1

> <PUBCHEM_CACTVS_TAUTO_COUNT>
2

> <PUBCHEM_CONFORMER_ID>
0109719500000001

> <PUBCHEM_MMFF94_ENERGY>
61.6857

> <PUBCHEM_FEATURE_SELFOVERLAP>
35.538

> <PUBCHEM_SHAPE_FINGERPRINT>
107951 10 17344632763181816401
10928967 22 18409736166077050586
11014199 57 17764026870060137195
11069576 57 17398124759418546719
11477941 20 17632001044987160236
11513181 2 17607242052631409726
11552529 35 17605279462908974671
12160290 23 17843150192390917097
12553582 1 17987529125743938057
12633257 1 17895187818237404931
13103583 49 17458892799716008137
13402501 40 18335419105587215183
13533116 47 17827082810331242907
13583140 156 16517380864313799433
13690498 29 18200020889326068086
14114206 34 17346332500330462379
14251757 5 18342736329842808842
14415361 349 18264488386492646446
14840074 17 18341603807370351551
14910302 57 18336558161057493608
14950920 106 17167860833587670691
15537594 2 18337663144589824530
1813 80 17988088777210130333
19315958 150 18189056408939475129
20693207 138 18335433378069267528
20764821 26 18040713692933403718
21095088 737 10879996856592697927
22393880 68 17917150628033252012
23379529 103 18261668290161233518
23559900 14 18340215193078195944
26353 1 17559691554700424653
3737641 26 18410286974399810968
463206 1 18270674247605572602
474 4 9259547064667737552
5081480 168 16414927318844736583
508706 21 18341060682669724071

> <PUBCHEM_SHAPE_MULTIPOLES>
556.25
12.72
4.34
1.87
10.91
1.2
-0.38
8.14
1.56
-0.33
1.9
-0.7
-0.6
1.52

> <PUBCHEM_SHAPE_SELFOVERLAP>
1151.616

> <PUBCHEM_SHAPE_VOLUME>
321

> <PUBCHEM_COORDINATE_TYPE>
2
5
10

$$$$

