5990
  -OEChem-06261201022D

 56 59  0     1  0  0  0  0  0999 V2000
   10.5194   -2.0023    0.0000 Cl  0  0  0  0  0  0  0  0  0  0  0  0
    6.0678    1.5754    0.0000 O   0  0  0  0  0  0  0  0  0  0  0  0
    9.1837   -1.8311    0.0000 O   0  0  0  0  0  0  0  0  0  0  0  0
    6.9338    2.0754    0.0000 O   0  0  0  0  0  0  0  0  0  0  0  0
    8.6822    2.1100    0.0000 O   0  0  0  0  0  0  0  0  0  0  0  0
    4.6839    1.9818    0.0000 O   0  0  0  0  0  0  0  0  0  0  0  0
    3.4037   -0.9488    0.0000 O   0  0  0  0  0  0  0  0  0  0  0  0
   10.5194    2.1530    0.0000 O   0  0  0  0  0  0  0  0  0  0  0  0
    3.4075    2.0995    0.0000 O   0  0  0  0  0  0  0  0  0  0  0  0
    5.1854   -1.9592    0.0000 N   0  0  0  0  0  0  0  0  0  0  0  0
    2.5357    0.6029    0.0000 N   0  0  0  0  0  0  0  0  0  0  0  0
    6.0678   -0.4246    0.0000 C   0  0  2  0  0  0  0  0  0  0  0  0
    7.7998   -0.4246    0.0000 C   0  0  3  0  0  0  0  0  0  0  0  0
    6.9338   -0.9246    0.0000 C   0  0  0  0  0  0  0  0  0  0  0  0
    6.0678    0.5754    0.0000 C   0  0  1  0  0  0  0  0  0  0  0  0
    5.1738   -0.9593    0.0000 C   0  0  1  0  0  0  0  0  0  0  0  0
    8.6938   -0.9593    0.0000 C   0  0  1  0  0  0  0  0  0  0  0  0
    7.7998    0.5754    0.0000 C   0  0  0  0  0  0  0  0  0  0  0  0
    6.9338    1.0754    0.0000 C   0  0  0  0  0  0  0  0  0  0  0  0
    5.1738    1.1100    0.0000 C   0  0  0  0  0  0  0  0  0  0  0  0
    9.5998   -0.4455    0.0000 C   0  0  0  0  0  0  0  0  0  0  0  0
    4.2678   -0.4455    0.0000 C   0  0  0  0  0  0  0  0  0  0  0  0
    8.6938    1.1100    0.0000 C   0  0  0  0  0  0  0  0  0  0  0  0
    9.5998    0.5962    0.0000 C   0  0  0  0  0  0  0  0  0  0  0  0
    8.1838   -1.8195    0.0000 C   0  0  0  0  0  0  0  0  0  0  0  0
    4.2678    0.5962    0.0000 C   0  0  0  0  0  0  0  0  0  0  0  0
   10.5310   -1.0024    0.0000 C   0  0  0  0  0  0  0  0  0  0  0  0
    4.3252   -2.4692    0.0000 C   0  0  0  0  0  0  0  0  0  0  0  0
    6.0572   -2.4492    0.0000 C   0  0  0  0  0  0  0  0  0  0  0  0
   10.5310    1.1531    0.0000 C   0  0  0  0  0  0  0  0  0  0  0  0
    3.4037    1.0995    0.0000 C   0  0  0  0  0  0  0  0  0  0  0  0
   11.4748   -0.4671    0.0000 C   0  0  0  0  0  0  0  0  0  0  0  0
   11.4748    0.6179    0.0000 C   0  0  0  0  0  0  0  0  0  0  0  0
    6.0740   -1.2246    0.0000 H   0  0  0  0  0  0  0  0  0  0  0  0
    7.7951   -1.0446    0.0000 H   0  0  0  0  0  0  0  0  0  0  0  0
    6.5353   -1.3996    0.0000 H   0  0  0  0  0  0  0  0  0  0  0  0
    7.3323   -1.3996    0.0000 H   0  0  0  0  0  0  0  0  0  0  0  0
    5.7149   -1.2620    0.0000 H   0  0  0  0  0  0  0  0  0  0  0  0
    7.6505   -1.5033    0.0000 H   0  0  0  0  0  0  0  0  0  0  0  0
    7.8676   -2.3528    0.0000 H   0  0  0  0  0  0  0  0  0  0  0  0
    8.7171   -2.1357    0.0000 H   0  0  0  0  0  0  0  0  0  0  0  0
    5.7578    2.1123    0.0000 H   0  0  0  0  0  0  0  0  0  0  0  0
    8.8675   -2.3644    0.0000 H   0  0  0  0  0  0  0  0  0  0  0  0
    4.0090   -1.9359    0.0000 H   0  0  0  0  0  0  0  0  0  0  0  0
    3.7919   -2.7854    0.0000 H   0  0  0  0  0  0  0  0  0  0  0  0
    4.6414   -3.0025    0.0000 H   0  0  0  0  0  0  0  0  0  0  0  0
    5.7534   -2.9897    0.0000 H   0  0  0  0  0  0  0  0  0  0  0  0
    6.5976   -2.7530    0.0000 H   0  0  0  0  0  0  0  0  0  0  0  0
    6.3609   -1.9087    0.0000 H   0  0  0  0  0  0  0  0  0  0  0  0
    9.2155    2.4261    0.0000 H   0  0  0  0  0  0  0  0  0  0  0  0
   12.0105   -0.7792    0.0000 H   0  0  0  0  0  0  0  0  0  0  0  0
   12.0105    0.9299    0.0000 H   0  0  0  0  0  0  0  0  0  0  0  0
    2.0000    0.9149    0.0000 H   0  0  0  0  0  0  0  0  0  0  0  0
    2.5333   -0.0171    0.0000 H   0  0  0  0  0  0  0  0  0  0  0  0
   11.0528    2.4692    0.0000 H   0  0  0  0  0  0  0  0  0  0  0  0
    2.8718    2.4116    0.0000 H   0  0  0  0  0  0  0  0  0  0  0  0
  1 27  1  0  0  0  0
  2 15  1  0  0  0  0
  2 42  1  0  0  0  0
  3 17  1  0  0  0  0
  3 43  1  0  0  0  0
  4 19  2  0  0  0  0
  5 23  1  0  0  0  0
  5 50  1  0  0  0  0
  6 20  2  0  0  0  0
  7 22  2  0  0  0  0
  8 30  1  0  0  0  0
  8 55  1  0  0  0  0
  9 31  1  0  0  0  0
  9 56  1  0  0  0  0
 10 16  1  0  0  0  0
 10 28  1  0  0  0  0
 10 29  1  0  0  0  0
 11 31  1  0  0  0  0
 11 53  1  0  0  0  0
 11 54  1  0  0  0  0
 12 14  1  0  0  0  0
 12 15  1  0  0  0  0
 12 16  1  0  0  0  0
 12 34  1  0  0  0  0
 13 14  1  0  0  0  0
 13 17  1  0  0  0  0
 13 18  1  0  0  0  0
 13 35  1  0  0  0  0
 14 36  1  0  0  0  0
 14 37  1  0  0  0  0
 15 19  1  0  0  0  0
 15 20  1  0  0  0  0
 16 22  1  0  0  0  0
 16 38  1  0  0  0  0
 17 21  1  0  0  0  0
 17 25  1  0  0  0  0
 18 19  1  0  0  0  0
 18 23  2  0  0  0  0
 20 26  1  0  0  0  0
 21 24  1  0  0  0  0
 21 27  2  0  0  0  0
 22 26  1  0  0  0  0
 23 24  1  0  0  0  0
 24 30  2  0  0  0  0
 25 39  1  0  0  0  0
 25 40  1  0  0  0  0
 25 41  1  0  0  0  0
 26 31  2  3  0  0  0
 27 32  1  0  0  0  0
 28 44  1  0  0  0  0
 28 45  1  0  0  0  0
 28 46  1  0  0  0  0
 29 47  1  0  0  0  0
 29 48  1  0  0  0  0
 29 49  1  0  0  0  0
 30 33  1  0  0  0  0
 32 33  2  0  0  0  0
 32 51  1  0  0  0  0
 33 52  1  0  0  0  0
M  END
> <PUBCHEM_COMPOUND_CID>
5990

> <PUBCHEM_COMPOUND_CANONICALIZED>
1

> <PUBCHEM_CACTVS_COMPLEXITY>
1010

> <PUBCHEM_CACTVS_HBOND_ACCEPTOR>
10

> <PUBCHEM_CACTVS_HBOND_DONOR>
6

> <PUBCHEM_CACTVS_ROTATABLE_BOND>
1

> <PUBCHEM_CACTVS_SUBSKEYS>
AAADceB7PAAEAAAAAAAAAAAAAAAAAAAAAAAwYMEAAAAAAADBAAAAHgIQCAAADW7BmCQyBoNAAgCIAqBSQAICAAAgJQAIiAHOCskIJzKLkjKEcAAnwBEImUfe+veugCABIAAZAADAQAbEADYAAAAAAAAAAA==

> <PUBCHEM_IUPAC_OPENEYE_NAME>
(4S,4aS,6S,12aS)-2-[amino(hydroxy)methylene]-7-chloro-4-(dimethylamino)-6,10,11,12a-tetrahydroxy-6-methyl-4,4a,5,5a-tetrahydrotetracene-1,3,12-trione

> <PUBCHEM_IUPAC_CAS_NAME>
(4S,4aS,6S,12aS)-2-[amino(hydroxy)methylidene]-7-chloro-4-(dimethylamino)-6,10,11,12a-tetrahydroxy-6-methyl-4,4a,5,5a-tetrahydrotetracene-1,3,12-trione

> <PUBCHEM_IUPAC_NAME>
(4S,4aS,6S,12aS)-2-[amino(hydroxy)methylidene]-7-chloro-4-(dimethylamino)-6,10,11,12a-tetrahydroxy-6-methyl-4,4a,5,5a-tetrahydrotetracene-1,3,12-trione

> <PUBCHEM_IUPAC_SYSTEMATIC_NAME>
(4S,4aS,6S,12aS)-2-[azanyl(oxidanyl)methylidene]-7-chloranyl-4-(dimethylamino)-6-methyl-6,10,11,12a-tetrakis(oxidanyl)-4,4a,5,5a-tetrahydrotetracene-1,3,12-trione

> <PUBCHEM_IUPAC_TRADITIONAL_NAME>
(4S,4aS,6S,12aS)-2-[amino(hydroxy)methylene]-7-chloro-4-(dimethylamino)-6,10,11,12a-tetrahydroxy-6-methyl-4,4a,5,5a-tetrahydrotetracene-1,3,12-trione

> <PUBCHEM_IUPAC_INCHI>
InChI=1S/C22H23ClN2O8/c1-21(32)7-6-8-15(25(2)3)17(28)13(20(24)31)19(30)22(8,33)18(29)11(7)16(27)12-10(26)5-4-9(23)14(12)21/h4-5,7-8,15,26-27,31-33H,6,24H2,1-3H3/t7?,8-,15-,21-,22-/m0/s1

> <PUBCHEM_IUPAC_INCHIKEY>
WKZUQOQLOHMCQC-RQWFMOQPSA-N

> <PUBCHEM_XLOGP3>
-0.6

> <PUBCHEM_EXACT_MASS>
478.114293

> <PUBCHEM_MOLECULAR_FORMULA>
C22H23ClN2O8

> <PUBCHEM_MOLECULAR_WEIGHT>
478.87962

> <PUBCHEM_OPENEYE_CAN_SMILES>
CC1(C2CC3C(C(=O)C(=C(N)O)C(=O)C3(C(=O)C2=C(C4=C(C=CC(=C41)Cl)O)O)O)N(C)C)O

> <PUBCHEM_OPENEYE_ISO_SMILES>
C[C@@]1(C2C[C@H]3[C@@H](C(=O)C(=C(N)O)C(=O)[C@]3(C(=O)C2=C(C4=C(C=CC(=C41)Cl)O)O)O)N(C)C)O

> <PUBCHEM_CACTVS_TPSA>
182

> <PUBCHEM_MONOISOTOPIC_WEIGHT>
478.114293

> <PUBCHEM_TOTAL_CHARGE>
0

> <PUBCHEM_HEAVY_ATOM_COUNT>
33

> <PUBCHEM_ATOM_DEF_STEREO_COUNT>
4

> <PUBCHEM_ATOM_UDEF_STEREO_COUNT>
1

> <PUBCHEM_BOND_DEF_STEREO_COUNT>
0

> <PUBCHEM_BOND_UDEF_STEREO_COUNT>
1

> <PUBCHEM_ISOTOPIC_ATOM_COUNT>
0

> <PUBCHEM_COMPONENT_COUNT>
1

> <PUBCHEM_CACTVS_TAUTO_COUNT>
132

> <PUBCHEM_COORDINATE_TYPE>
1
5
255

> <PUBCHEM_BONDANNOTATIONS>
16  10  3
12  34  3
13  35  3
17  25  3
15  2  3
21  24  8
21  27  8
24  30  8
26  31  1
27  32  8
17  3  3
30  33  8
32  33  8

$$$$

