7754
  -OEChem-06261202173D

 22 21  0     1  0  0  0  0  0999 V2000
    1.6067    0.9108   -1.0118 O   0  0  0  0  0  0  0  0  0  0  0  0
   -0.8584   -0.4730   -0.3213 C   0  0  1  0  0  0  0  0  0  0  0  0
   -1.2406    0.7675    0.5128 C   0  0  0  0  0  0  0  0  0  0  0  0
    0.5434   -0.9766    0.0695 C   0  0  0  0  0  0  0  0  0  0  0  0
   -1.8719   -1.6074   -0.1380 C   0  0  0  0  0  0  0  0  0  0  0  0
   -2.6150    1.3286    0.1741 C   0  0  0  0  0  0  0  0  0  0  0  0
    1.6455    0.0526   -0.1317 C   0  0  0  0  0  0  0  0  0  0  0  0
    2.7904   -0.0026    0.8464 C   0  0  0  0  0  0  0  0  0  0  0  0
   -0.8473   -0.1899   -1.3818 H   0  0  0  0  0  0  0  0  0  0  0  0
   -0.5092    1.5676    0.3555 H   0  0  0  0  0  0  0  0  0  0  0  0
   -1.2120    0.5230    1.5819 H   0  0  0  0  0  0  0  0  0  0  0  0
    0.8149   -1.8580   -0.5230 H   0  0  0  0  0  0  0  0  0  0  0  0
    0.5397   -1.2754    1.1249 H   0  0  0  0  0  0  0  0  0  0  0  0
   -1.9926   -1.8663    0.9193 H   0  0  0  0  0  0  0  0  0  0  0  0
   -2.8530   -1.3355   -0.5392 H   0  0  0  0  0  0  0  0  0  0  0  0
   -1.5461   -2.5073   -0.6710 H   0  0  0  0  0  0  0  0  0  0  0  0
   -3.4152    0.6451    0.4723 H   0  0  0  0  0  0  0  0  0  0  0  0
   -2.7056    1.5273   -0.8985 H   0  0  0  0  0  0  0  0  0  0  0  0
   -2.7755    2.2714    0.7074 H   0  0  0  0  0  0  0  0  0  0  0  0
    3.2246   -1.0056    0.8451 H   0  0  0  0  0  0  0  0  0  0  0  0
    3.5627    0.7130    0.5511 H   0  0  0  0  0  0  0  0  0  0  0  0
    2.4305    0.2525    1.8460 H   0  0  0  0  0  0  0  0  0  0  0  0
  1  7  2  0  0  0  0
  2  3  1  0  0  0  0
  2  4  1  0  0  0  0
  2  5  1  0  0  0  0
  2  9  1  0  0  0  0
  3  6  1  0  0  0  0
  3 10  1  0  0  0  0
  3 11  1  0  0  0  0
  4  7  1  0  0  0  0
  4 12  1  0  0  0  0
  4 13  1  0  0  0  0
  5 14  1  0  0  0  0
  5 15  1  0  0  0  0
  5 16  1  0  0  0  0
  6 17  1  0  0  0  0
  6 18  1  0  0  0  0
  6 19  1  0  0  0  0
  7  8  1  0  0  0  0
  8 20  1  0  0  0  0
  8 21  1  0  0  0  0
  8 22  1  0  0  0  0
M  END
> <PUBCHEM_COMPOUND_CID>
7754

> <PUBCHEM_CONFORMER_RMSD>
0.6

> <PUBCHEM_CONFORMER_DIVERSEORDER>
3
17
7
27
23
26
22
4
19
13
21
8
15
9
14
5
16
11
12
20
25
1
18
10
2
6
24

> <PUBCHEM_MMFF94_PARTIAL_CHARGES>
4
1 -0.57
4 0.06
7 0.45
8 0.06

> <PUBCHEM_EFFECTIVE_ROTOR_COUNT>
3

> <PUBCHEM_PHARMACOPHORE_FEATURES>
3
1 1 acceptor
1 5 hydrophobe
1 6 hydrophobe

> <PUBCHEM_HEAVY_ATOM_COUNT>
8

> <PUBCHEM_ATOM_DEF_STEREO_COUNT>
0

> <PUBCHEM_ATOM_UDEF_STEREO_COUNT>
1

> <PUBCHEM_BOND_DEF_STEREO_COUNT>
0

> <PUBCHEM_BOND_UDEF_STEREO_COUNT>
0

> <PUBCHEM_ISOTOPIC_ATOM_COUNT>
0

> <PUBCHEM_COMPONENT_COUNT>
1

> <PUBCHEM_CACTVS_TAUTO_COUNT>
3

> <PUBCHEM_CONFORMER_ID>
00001E4A00000003

> <PUBCHEM_MMFF94_ENERGY>
6.5612

> <PUBCHEM_FEATURE_SELFOVERLAP>
15.224

> <PUBCHEM_SHAPE_FINGERPRINT>
12932741 1 17385434419342865204
12932764 1 17240766129932222998
14390081 3 17968099771528007241
20096714 4 18339915017201448631
21040471 1 18263356044134494913
23552423 10 18342172267450445510
23552449 1 18187930530011388449
24536 1 18411699868015789206
29004967 10 15213288682598202074
5084963 1 17845385370416747094

> <PUBCHEM_SHAPE_MULTIPOLES>
158.77
3.88
1.47
0.84
0.81
0.27
0.04
-0.94
-0.59
-1.12
0.03
0.35
-0.13
-0.27

> <PUBCHEM_SHAPE_SELFOVERLAP>
284.766

> <PUBCHEM_SHAPE_VOLUME>
103.5

> <PUBCHEM_COORDINATE_TYPE>
2
5
10

$$$$

