10877
  -OEChem-06261205042D

 17 15  0     0  0  0  0  0  0999 V2000
    0.0000    1.6200    0.0000 Na  0  3  0  0  0  0  0  0  0  0  0  0
    0.8660    2.1200    0.0000 O   0  5  0  0  0  0  0  0  0  0  0  0
    1.7321    0.6200    0.0000 O   0  0  0  0  0  0  0  0  0  0  0  0
    3.4641    1.6200    0.0000 C   0  0  0  0  0  0  0  0  0  0  0  0
    2.5981    2.1200    0.0000 C   0  0  0  0  0  0  0  0  0  0  0  0
    4.3301    2.1200    0.0000 C   0  0  0  0  0  0  0  0  0  0  0  0
    3.4641    0.6200    0.0000 C   0  0  0  0  0  0  0  0  0  0  0  0
    1.7321    1.6200    0.0000 C   0  0  0  0  0  0  0  0  0  0  0  0
    3.4641    2.2400    0.0000 H   0  0  0  0  0  0  0  0  0  0  0  0
    2.1995    2.5949    0.0000 H   0  0  0  0  0  0  0  0  0  0  0  0
    2.9966    2.5949    0.0000 H   0  0  0  0  0  0  0  0  0  0  0  0
    4.6401    1.5831    0.0000 H   0  0  0  0  0  0  0  0  0  0  0  0
    4.8671    2.4300    0.0000 H   0  0  0  0  0  0  0  0  0  0  0  0
    4.0201    2.6569    0.0000 H   0  0  0  0  0  0  0  0  0  0  0  0
    2.8441    0.6200    0.0000 H   0  0  0  0  0  0  0  0  0  0  0  0
    3.4641    0.0000    0.0000 H   0  0  0  0  0  0  0  0  0  0  0  0
    4.0841    0.6200    0.0000 H   0  0  0  0  0  0  0  0  0  0  0  0
  2  8  1  0  0  0  0
  3  8  2  0  0  0  0
  4  5  1  0  0  0  0
  4  6  1  0  0  0  0
  4  7  1  0  0  0  0
  4  9  1  0  0  0  0
  5  8  1  0  0  0  0
  5 10  1  0  0  0  0
  5 11  1  0  0  0  0
  6 12  1  0  0  0  0
  6 13  1  0  0  0  0
  6 14  1  0  0  0  0
  7 15  1  0  0  0  0
  7 16  1  0  0  0  0
  7 17  1  0  0  0  0
M  CHG  2   1   1   2  -1
M  END
> <PUBCHEM_COMPOUND_CID>
10877

> <PUBCHEM_COMPOUND_CANONICALIZED>
1

> <PUBCHEM_CACTVS_COMPLEXITY>
61

> <PUBCHEM_CACTVS_HBOND_ACCEPTOR>
2

> <PUBCHEM_CACTVS_HBOND_DONOR>
0

> <PUBCHEM_CACTVS_ROTATABLE_BOND>
1

> <PUBCHEM_CACTVS_SUBSKEYS>
AAADccBgMCAAAAAAAAAAAAAAAAAAAAAAAAAAAAAAAAAAAAAAAAAAGgAAAAAADQCAgAACCAAAAAAIAACQCAAAAAAAAAAAAAEAAAAAABAAAAAAAAAEAAAAAAAAAAAIAAAAAAAAAAAAAAAAAAAAAAAAAAAAAA==

> <PUBCHEM_IUPAC_OPENEYE_NAME>
sodium 3-methylbutanoate

> <PUBCHEM_IUPAC_CAS_NAME>
sodium 3-methylbutanoate

> <PUBCHEM_IUPAC_NAME>
sodium 3-methylbutanoate

> <PUBCHEM_IUPAC_SYSTEMATIC_NAME>
sodium 3-methylbutanoate

> <PUBCHEM_IUPAC_TRADITIONAL_NAME>
sodium 3-methylbutyrate

> <PUBCHEM_IUPAC_INCHI>
InChI=1S/C5H10O2.Na/c1-4(2)3-5(6)7;/h4H,3H2,1-2H3,(H,6,7);/q;+1/p-1

> <PUBCHEM_IUPAC_INCHIKEY>
JJZAWYXASMCCLB-UHFFFAOYSA-M

> <PUBCHEM_EXACT_MASS>
124.050024

> <PUBCHEM_MOLECULAR_FORMULA>
C5H9NaO2

> <PUBCHEM_MOLECULAR_WEIGHT>
124.113529

> <PUBCHEM_OPENEYE_CAN_SMILES>
CC(C)CC(=O)[O-].[Na+]

> <PUBCHEM_OPENEYE_ISO_SMILES>
CC(C)CC(=O)[O-].[Na+]

> <PUBCHEM_CACTVS_TPSA>
40.1

> <PUBCHEM_MONOISOTOPIC_WEIGHT>
124.050024

> <PUBCHEM_TOTAL_CHARGE>
0

> <PUBCHEM_HEAVY_ATOM_COUNT>
8

> <PUBCHEM_ATOM_DEF_STEREO_COUNT>
0

> <PUBCHEM_ATOM_UDEF_STEREO_COUNT>
0

> <PUBCHEM_BOND_DEF_STEREO_COUNT>
0

> <PUBCHEM_BOND_UDEF_STEREO_COUNT>
0

> <PUBCHEM_ISOTOPIC_ATOM_COUNT>
0

> <PUBCHEM_COMPONENT_COUNT>
2

> <PUBCHEM_CACTVS_TAUTO_COUNT>
1

> <PUBCHEM_COORDINATE_TYPE>
1
5
255

$$$$

