11922
  -OEChem-06261206173D

 15 15  0     0  0  0  0  0  0999 V2000
    1.2006   -2.5050    0.0004 O   0  5  0  0  0  0  0  0  0  0  0  0
    2.2552   -0.5796   -0.0008 O   0  0  0  0  0  0  0  0  0  0  0  0
    1.1982   -1.2522   -0.0001 N   0  3  0  0  0  0  0  0  0  0  0  0
    2.0246    2.2823    0.0006 N   0  0  0  0  0  0  0  0  0  0  0  0
   -0.0508   -0.5681   -0.0001 C   0  0  0  0  0  0  0  0  0  0  0  0
   -0.1177    0.8252   -0.0004 C   0  0  0  0  0  0  0  0  0  0  0  0
   -1.2241   -1.3226    0.0002 C   0  0  0  0  0  0  0  0  0  0  0  0
   -1.3579    1.4638   -0.0003 C   0  0  0  0  0  0  0  0  0  0  0  0
   -2.4642   -0.6841    0.0002 C   0  0  0  0  0  0  0  0  0  0  0  0
   -2.5310    0.7091    0.0000 C   0  0  0  0  0  0  0  0  0  0  0  0
    1.0671    1.6311    0.0002 C   0  0  0  0  0  0  0  0  0  0  0  0
   -1.2167   -2.4097    0.0004 H   0  0  0  0  0  0  0  0  0  0  0  0
   -1.4285    2.5491   -0.0004 H   0  0  0  0  0  0  0  0  0  0  0  0
   -3.3780   -1.2711    0.0004 H   0  0  0  0  0  0  0  0  0  0  0  0
   -3.4967    1.2063    0.0000 H   0  0  0  0  0  0  0  0  0  0  0  0
  1  3  1  0  0  0  0
  2  3  2  0  0  0  0
  3  5  1  0  0  0  0
  4 11  3  0  0  0  0
  5  6  1  0  0  0  0
  5  7  2  0  0  0  0
  6  8  2  0  0  0  0
  6 11  1  0  0  0  0
  7  9  1  0  0  0  0
  7 12  1  0  0  0  0
  8 10  1  0  0  0  0
  8 13  1  0  0  0  0
  9 10  2  0  0  0  0
  9 14  1  0  0  0  0
 10 15  1  0  0  0  0
M  CHG  2   1  -1   3   1
M  END
> <PUBCHEM_COMPOUND_CID>
11922

> <PUBCHEM_CONFORMER_RMSD>
0.4

> <PUBCHEM_CONFORMER_DIVERSEORDER>
1

> <PUBCHEM_MMFF94_PARTIAL_CHARGES>
15
1 -0.52
10 -0.15
11 0.48
12 0.15
13 0.15
14 0.15
15 0.15
2 -0.52
3 0.91
4 -0.56
5 0.13
6 0.07
7 -0.15
8 -0.15
9 -0.15

> <PUBCHEM_EFFECTIVE_ROTOR_COUNT>
1

> <PUBCHEM_PHARMACOPHORE_FEATURES>
5
1 1 acceptor
1 1 anion
1 2 acceptor
1 4 acceptor
6 5 6 7 8 9 10 rings

> <PUBCHEM_HEAVY_ATOM_COUNT>
11

> <PUBCHEM_ATOM_DEF_STEREO_COUNT>
0

> <PUBCHEM_ATOM_UDEF_STEREO_COUNT>
0

> <PUBCHEM_BOND_DEF_STEREO_COUNT>
0

> <PUBCHEM_BOND_UDEF_STEREO_COUNT>
0

> <PUBCHEM_ISOTOPIC_ATOM_COUNT>
0

> <PUBCHEM_COMPONENT_COUNT>
1

> <PUBCHEM_CACTVS_TAUTO_COUNT>
1

> <PUBCHEM_CONFORMER_ID>
00002E9200000001

> <PUBCHEM_MMFF94_ENERGY>
33.7148

> <PUBCHEM_FEATURE_SELFOVERLAP>
25.456

> <PUBCHEM_SHAPE_FINGERPRINT>
12423570 1 9335109189179690091
16945 1 18410856602811021605
18185500 45 18195525028591519435
193761 8 18410856555698230661
20871998 184 16892567057971823060
21040471 1 17978228253515377344
23552423 10 18411700971959306829
241688 4 17761775469540383691
2748010 2 18195524800931723191
66348 1 18410854377817521741

> <PUBCHEM_SHAPE_MULTIPOLES>
204.67
3.15
2.42
0.58
0.45
0.43
0
-0.53
0
-1.24
0
0.06
-0.03
0

> <PUBCHEM_SHAPE_SELFOVERLAP>
434.246

> <PUBCHEM_SHAPE_VOLUME>
112.5

> <PUBCHEM_COORDINATE_TYPE>
2
5
10

$$$$

