51091018
  -OEChem-06241223013D

 42 43  0     0  0  0  0  0  0999 V2000
    0.1253    3.2744   -0.2060 S   0  0  0  0  0  0  0  0  0  0  0  0
    2.1997    1.3102   -1.3317 S   0  0  0  0  0  0  0  0  0  0  0  0
   -3.7730   -2.1112    1.3892 O   0  0  0  0  0  0  0  0  0  0  0  0
    5.4602    0.1816    0.5122 O   0  0  0  0  0  0  0  0  0  0  0  0
   -2.2497   -2.6465   -0.3012 N   0  0  0  0  0  0  0  0  0  0  0  0
    1.2489    1.1577    1.0672 N   0  0  0  0  0  0  0  0  0  0  0  0
    6.1087   -1.5460   -0.8576 N   0  0  0  0  0  0  0  0  0  0  0  0
   -2.2002    1.8800    0.3023 C   0  0  0  0  0  0  0  0  0  0  0  0
   -1.2305    2.8291    0.9215 C   0  0  0  0  0  0  0  0  0  0  0  0
   -3.0835   -0.3572    0.0738 C   0  0  0  0  0  0  0  0  0  0  0  0
   -2.1757    0.5300    0.6522 C   0  0  0  0  0  0  0  0  0  0  0  0
    2.7652    0.0435   -0.3234 C   0  0  0  0  0  0  0  0  0  0  0  0
    2.1497    0.1228    0.9082 C   0  0  0  0  0  0  0  0  0  0  0  0
   -3.1327    2.3431   -0.6262 C   0  0  0  0  0  0  0  0  0  0  0  0
    3.7639   -0.9202   -0.8276 C   0  0  0  0  0  0  0  0  0  0  0  0
   -4.0160    0.1058   -0.8547 C   0  0  0  0  0  0  0  0  0  0  0  0
    1.1946    1.8491   -0.0494 C   0  0  0  0  0  0  0  0  0  0  0  0
   -3.0585   -1.7647    0.4391 C   0  0  0  0  0  0  0  0  0  0  0  0
   -4.0407    1.4560   -1.2045 C   0  0  0  0  0  0  0  0  0  0  0  0
    2.3691   -0.7890    2.0496 C   0  0  0  0  0  0  0  0  0  0  0  0
    5.1805   -0.6854   -0.3108 C   0  0  0  0  0  0  0  0  0  0  0  0
   -1.4216   -2.1924   -1.4163 C   0  0  0  0  0  0  0  0  0  0  0  0
   -2.1835   -4.0708   -0.0058 C   0  0  0  0  0  0  0  0  0  0  0  0
   -1.7573    3.7546    1.1838 H   0  0  0  0  0  0  0  0  0  0  0  0
   -0.8356    2.4449    1.8686 H   0  0  0  0  0  0  0  0  0  0  0  0
   -1.4529    0.1649    1.3780 H   0  0  0  0  0  0  0  0  0  0  0  0
   -3.1650    3.3927   -0.9063 H   0  0  0  0  0  0  0  0  0  0  0  0
    3.4716   -1.9367   -0.5345 H   0  0  0  0  0  0  0  0  0  0  0  0
    3.8019   -0.9153   -1.9245 H   0  0  0  0  0  0  0  0  0  0  0  0
   -4.7279   -0.5766   -1.3119 H   0  0  0  0  0  0  0  0  0  0  0  0
   -4.7670    1.8165   -1.9271 H   0  0  0  0  0  0  0  0  0  0  0  0
    2.1940   -1.8287    1.7557 H   0  0  0  0  0  0  0  0  0  0  0  0
    1.6887   -0.5572    2.8755 H   0  0  0  0  0  0  0  0  0  0  0  0
    3.3936   -0.7007    2.4239 H   0  0  0  0  0  0  0  0  0  0  0  0
   -1.7305   -2.7317   -2.3171 H   0  0  0  0  0  0  0  0  0  0  0  0
   -1.4877   -1.1231   -1.6149 H   0  0  0  0  0  0  0  0  0  0  0  0
   -0.3785   -2.4369   -1.1922 H   0  0  0  0  0  0  0  0  0  0  0  0
   -1.1509   -4.3334    0.2411 H   0  0  0  0  0  0  0  0  0  0  0  0
   -2.8295   -4.3272    0.8376 H   0  0  0  0  0  0  0  0  0  0  0  0
   -2.5068   -4.6307   -0.8879 H   0  0  0  0  0  0  0  0  0  0  0  0
    7.0874   -1.4939   -0.5953 H   0  0  0  0  0  0  0  0  0  0  0  0
    5.8540   -2.2578   -1.5349 H   0  0  0  0  0  0  0  0  0  0  0  0
  1  9  1  0  0  0  0
  1 17  1  0  0  0  0
  2 12  1  0  0  0  0
  2 17  1  0  0  0  0
  3 18  2  0  0  0  0
  4 21  2  0  0  0  0
  5 18  1  0  0  0  0
  5 22  1  0  0  0  0
  5 23  1  0  0  0  0
  6 13  1  0  0  0  0
  6 17  2  0  0  0  0
  7 21  1  0  0  0  0
  7 41  1  0  0  0  0
  7 42  1  0  0  0  0
  8  9  1  0  0  0  0
  8 11  2  0  0  0  0
  8 14  1  0  0  0  0
  9 24  1  0  0  0  0
  9 25  1  0  0  0  0
 10 11  1  0  0  0  0
 10 16  2  0  0  0  0
 10 18  1  0  0  0  0
 11 26  1  0  0  0  0
 12 13  2  0  0  0  0
 12 15  1  0  0  0  0
 13 20  1  0  0  0  0
 14 19  2  0  0  0  0
 14 27  1  0  0  0  0
 15 21  1  0  0  0  0
 15 28  1  0  0  0  0
 15 29  1  0  0  0  0
 16 19  1  0  0  0  0
 16 30  1  0  0  0  0
 19 31  1  0  0  0  0
 20 32  1  0  0  0  0
 20 33  1  0  0  0  0
 20 34  1  0  0  0  0
 22 35  1  0  0  0  0
 22 36  1  0  0  0  0
 22 37  1  0  0  0  0
 23 38  1  0  0  0  0
 23 39  1  0  0  0  0
 23 40  1  0  0  0  0
M  END
> <PUBCHEM_COMPOUND_CID>
51091018

> <PUBCHEM_CONFORMER_RMSD>
1

> <PUBCHEM_CONFORMER_DIVERSEORDER>
1
199
106
108
136
201
37
174
100
169
65
36
132
111
97
35
92
127
198
173
52
200
168
157
90
155
77
191
84
42
88
91
57
184
70
162
23
179
130
137
32
107
29
78
61
19
49
165
96
192
141
86
170
144
114
39
62
101
164
98
25
45
178
146
183
63
117
202
135
186
166
9
22
129
81
142
151
188
103
185
99
79
175
150
46
122
17
120
125
4
66
131
119
159
180
7
55
203
197
41
181
75
43
30
56
140
177
11
6
163
156
182
118
95
105
126
145
3
89
133
93
123
110
154
28
44
76
158
51
112
71
83
69
48
47
64
149
67
161
171
147
14
87
15
189
190
53
187
27
50
13
60
38
2
94
121
12
72
102
21
128
40
167
176
74
134
153
33
124
160
10
116
148
143
20
80
113
31
196
115
59
138
58
205
172
73
193
8
16
204
194
104
54
26
85
195
68
82
24
18
5
109
34
139
152

> <PUBCHEM_MMFF94_PARTIAL_CHARGES>
29
1 -0.29
10 0.09
11 -0.15
12 -0.14
13 0.05
14 -0.15
15 0.24
16 -0.15
17 0.43
18 0.54
19 -0.15
2 -0.08
20 0.18
21 0.57
22 0.3
23 0.3
26 0.15
27 0.15
3 -0.57
30 0.15
31 0.15
4 -0.57
41 0.37
42 0.37
5 -0.66
6 -0.57
7 -0.8
8 -0.14
9 0.37

> <PUBCHEM_EFFECTIVE_ROTOR_COUNT>
7

> <PUBCHEM_PHARMACOPHORE_FEATURES>
6
1 3 acceptor
1 4 acceptor
1 6 acceptor
1 7 donor
5 2 6 12 13 17 rings
6 8 10 11 14 16 19 rings

> <PUBCHEM_HEAVY_ATOM_COUNT>
23

> <PUBCHEM_ATOM_DEF_STEREO_COUNT>
0

> <PUBCHEM_ATOM_UDEF_STEREO_COUNT>
0

> <PUBCHEM_BOND_DEF_STEREO_COUNT>
0

> <PUBCHEM_BOND_UDEF_STEREO_COUNT>
0

> <PUBCHEM_ISOTOPIC_ATOM_COUNT>
0

> <PUBCHEM_COMPONENT_COUNT>
1

> <PUBCHEM_CACTVS_TAUTO_COUNT>
3

> <PUBCHEM_CONFORMER_ID>
030B964A00000001

> <PUBCHEM_MMFF94_ENERGY>
49.2683

> <PUBCHEM_FEATURE_SELFOVERLAP>
30.446

> <PUBCHEM_SHAPE_FINGERPRINT>
10366900 7 17676780871619629144
107951 10 17632008780064802673
11014199 57 17977387136011322070
11135609 12 18268989799839302945
12553582 1 18341055210949902465
12633257 1 18043229285385359671
12788726 201 18118412975501553825
12990986 174 18338233752522799030
13402501 40 18187364384581226263
14251751 93 18343016696701808050
14251757 5 18341332283537161476
14916288 52 18265896852524381407
15163728 17 17056700397715633213
15415430 112 18271527584524486488
16752209 62 18338247054226373329
20511986 3 17559977552631164360
20600515 1 18261096504663986509
20645476 183 18059579130722346609
20775438 99 17106263834806439815
21634736 98 18272647909785474184
22393880 68 18060424616314533628
23466295 7 18270949155756915371
23559900 14 18335711533115854072
2818148 4 17978212882017335591
339767 52 18342749532798409002
340366 18 18131912663519483821
4280585 95 18342184388370511080
602551 16 18335425729064549960
6437827 68 18047470308224912206
9709674 26 18264500494279921749

> <PUBCHEM_SHAPE_MULTIPOLES>
454.35
10.11
4.02
1.39
12.54
1.51
-0.22
4.04
1.81
-4.01
0.12
0.25
0.17
0.63

> <PUBCHEM_SHAPE_SELFOVERLAP>
922.704

> <PUBCHEM_SHAPE_VOLUME>
267.4

> <PUBCHEM_COORDINATE_TYPE>
2
5
10

$$$$

