3497
  -OEChem-06251223272D

 67 69  0     1  0  0  0  0  0999 V2000
    4.6318    0.8676    0.0000 O   0  0  0  0  0  0  0  0  0  0  0  0
    6.3246   -2.3159    0.0000 O   0  0  0  0  0  0  0  0  0  0  0  0
    8.1886    3.3872    0.0000 O   0  0  0  0  0  0  0  0  0  0  0  0
    6.5422    3.9253    0.0000 O   0  0  0  0  0  0  0  0  0  0  0  0
    6.2781    0.3295    0.0000 N   0  0  0  0  0  0  0  0  0  0  0  0
    7.6138   -1.1591    0.0000 N   0  0  0  0  0  0  0  0  0  0  0  0
    4.6783   -3.3872    0.0000 N   0  0  0  0  0  0  0  0  0  0  0  0
    5.9209    2.0243    0.0000 C   0  0  3  0  0  0  0  0  0  0  0  0
    5.2531    2.7686    0.0000 C   0  0  0  0  0  0  0  0  0  0  0  0
    4.2746    2.5624    0.0000 C   0  0  0  0  0  0  0  0  0  0  0  0
    5.9674   -0.6210    0.0000 C   0  0  3  0  0  0  0  0  0  0  0  0
    4.9889   -0.8273    0.0000 C   0  0  0  0  0  0  0  0  0  0  0  0
    5.6103    1.0738    0.0000 C   0  0  0  0  0  0  0  0  0  0  0  0
    6.8994    2.2305    0.0000 C   0  0  0  0  0  0  0  0  0  0  0  0
    4.6783   -1.7778    0.0000 C   0  0  0  0  0  0  0  0  0  0  0  0
    3.6067    3.3067    0.0000 C   0  0  0  0  0  0  0  0  0  0  0  0
    3.9639    1.6119    0.0000 C   0  0  0  0  0  0  0  0  0  0  0  0
    6.6353   -1.3654    0.0000 C   0  0  0  0  0  0  0  0  0  0  0  0
    3.7320   -2.0825    0.0000 C   0  0  0  0  0  0  0  0  0  0  0  0
    3.7320   -3.0825    0.0000 C   0  0  0  0  0  0  0  0  0  0  0  0
    5.2619   -2.5825    0.0000 C   0  0  0  0  0  0  0  0  0  0  0  0
    8.2816   -1.9034    0.0000 C   0  0  3  0  0  0  0  0  0  0  0  0
    7.2101    3.1810    0.0000 C   0  0  0  0  0  0  0  0  0  0  0  0
    2.8660   -1.5825    0.0000 C   0  0  0  0  0  0  0  0  0  0  0  0
    9.2601   -1.6972    0.0000 C   0  0  0  0  0  0  0  0  0  0  0  0
    2.8660   -3.5825    0.0000 C   0  0  0  0  0  0  0  0  0  0  0  0
    7.9710   -2.8540    0.0000 C   0  0  0  0  0  0  0  0  0  0  0  0
    2.0000   -2.0825    0.0000 C   0  0  0  0  0  0  0  0  0  0  0  0
    2.0000   -3.0825    0.0000 C   0  0  0  0  0  0  0  0  0  0  0  0
    9.9280   -2.4415    0.0000 C   0  0  0  0  0  0  0  0  0  0  0  0
    9.5708   -0.7467    0.0000 C   0  0  0  0  0  0  0  0  0  0  0  0
   10.9065   -2.2353    0.0000 C   0  0  0  0  0  0  0  0  0  0  0  0
   10.5493   -0.5405    0.0000 C   0  0  0  0  0  0  0  0  0  0  0  0
   11.2171   -1.2848    0.0000 C   0  0  0  0  0  0  0  0  0  0  0  0
    6.1135    2.6136    0.0000 H   0  0  0  0  0  0  0  0  0  0  0  0
    5.7794    3.0962    0.0000 H   0  0  0  0  0  0  0  0  0  0  0  0
    5.0218    3.3438    0.0000 H   0  0  0  0  0  0  0  0  0  0  0  0
    4.6886    2.1009    0.0000 H   0  0  0  0  0  0  0  0  0  0  0  0
    5.5534   -0.1596    0.0000 H   0  0  0  0  0  0  0  0  0  0  0  0
    4.9684   -0.2076    0.0000 H   0  0  0  0  0  0  0  0  0  0  0  0
    4.3751   -0.7399    0.0000 H   0  0  0  0  0  0  0  0  0  0  0  0
    6.9200    1.6108    0.0000 H   0  0  0  0  0  0  0  0  0  0  0  0
    7.5132    2.1432    0.0000 H   0  0  0  0  0  0  0  0  0  0  0  0
    6.8848    0.4573    0.0000 H   0  0  0  0  0  0  0  0  0  0  0  0
    4.0682    3.7207    0.0000 H   0  0  0  0  0  0  0  0  0  0  0  0
    3.1927    3.7682    0.0000 H   0  0  0  0  0  0  0  0  0  0  0  0
    3.1453    2.8926    0.0000 H   0  0  0  0  0  0  0  0  0  0  0  0
    3.3746    1.8045    0.0000 H   0  0  0  0  0  0  0  0  0  0  0  0
    3.7713    1.0225    0.0000 H   0  0  0  0  0  0  0  0  0  0  0  0
    4.5532    1.4192    0.0000 H   0  0  0  0  0  0  0  0  0  0  0  0
    5.8819   -2.5825    0.0000 H   0  0  0  0  0  0  0  0  0  0  0  0
    8.4742   -1.3141    0.0000 H   0  0  0  0  0  0  0  0  0  0  0  0
    7.8064   -0.5698    0.0000 H   0  0  0  0  0  0  0  0  0  0  0  0
    4.8709   -3.9766    0.0000 H   0  0  0  0  0  0  0  0  0  0  0  0
    2.8660   -0.9625    0.0000 H   0  0  0  0  0  0  0  0  0  0  0  0
    2.8660   -4.2025    0.0000 H   0  0  0  0  0  0  0  0  0  0  0  0
    7.3816   -2.6613    0.0000 H   0  0  0  0  0  0  0  0  0  0  0  0
    7.7784   -3.4433    0.0000 H   0  0  0  0  0  0  0  0  0  0  0  0
    8.5603   -3.0466    0.0000 H   0  0  0  0  0  0  0  0  0  0  0  0
    1.4631   -1.7725    0.0000 H   0  0  0  0  0  0  0  0  0  0  0  0
    1.4631   -3.3925    0.0000 H   0  0  0  0  0  0  0  0  0  0  0  0
    9.7354   -3.0308    0.0000 H   0  0  0  0  0  0  0  0  0  0  0  0
    9.1567   -0.2852    0.0000 H   0  0  0  0  0  0  0  0  0  0  0  0
    8.3812    3.9766    0.0000 H   0  0  0  0  0  0  0  0  0  0  0  0
   11.3206   -2.6968    0.0000 H   0  0  0  0  0  0  0  0  0  0  0  0
   10.7419    0.0488    0.0000 H   0  0  0  0  0  0  0  0  0  0  0  0
   11.8238   -1.1569    0.0000 H   0  0  0  0  0  0  0  0  0  0  0  0
  1 13  2  0  0  0  0
  2 18  2  0  0  0  0
  3 23  1  0  0  0  0
  3 64  1  0  0  0  0
  4 23  2  0  0  0  0
  5 11  1  0  0  0  0
  5 13  1  0  0  0  0
  5 44  1  0  0  0  0
  6 18  1  0  0  0  0
  6 22  1  0  0  0  0
  6 53  1  0  0  0  0
  7 20  1  0  0  0  0
  7 21  1  0  0  0  0
  7 54  1  0  0  0  0
  8  9  1  0  0  0  0
  8 13  1  0  0  0  0
  8 14  1  0  0  0  0
  8 35  1  0  0  0  0
  9 10  1  0  0  0  0
  9 36  1  0  0  0  0
  9 37  1  0  0  0  0
 10 16  1  0  0  0  0
 10 17  1  0  0  0  0
 10 38  1  0  0  0  0
 11 12  1  0  0  0  0
 11 18  1  0  0  0  0
 11 39  1  0  0  0  0
 12 15  1  0  0  0  0
 12 40  1  0  0  0  0
 12 41  1  0  0  0  0
 14 23  1  0  0  0  0
 14 42  1  0  0  0  0
 14 43  1  0  0  0  0
 15 19  1  0  0  0  0
 15 21  2  0  0  0  0
 16 45  1  0  0  0  0
 16 46  1  0  0  0  0
 16 47  1  0  0  0  0
 17 48  1  0  0  0  0
 17 49  1  0  0  0  0
 17 50  1  0  0  0  0
 19 20  1  0  0  0  0
 19 24  2  0  0  0  0
 20 26  2  0  0  0  0
 21 51  1  0  0  0  0
 22 25  1  0  0  0  0
 22 27  1  0  0  0  0
 22 52  1  0  0  0  0
 24 28  1  0  0  0  0
 24 55  1  0  0  0  0
 25 30  2  0  0  0  0
 25 31  1  0  0  0  0
 26 29  1  0  0  0  0
 26 56  1  0  0  0  0
 27 57  1  0  0  0  0
 27 58  1  0  0  0  0
 27 59  1  0  0  0  0
 28 29  2  0  0  0  0
 28 60  1  0  0  0  0
 29 61  1  0  0  0  0
 30 32  1  0  0  0  0
 30 62  1  0  0  0  0
 31 33  2  0  0  0  0
 31 63  1  0  0  0  0
 32 34  2  0  0  0  0
 32 65  1  0  0  0  0
 33 34  1  0  0  0  0
 33 66  1  0  0  0  0
 34 67  1  0  0  0  0
M  END
> <PUBCHEM_COMPOUND_CID>
3497

> <PUBCHEM_COMPOUND_CANONICALIZED>
1

> <PUBCHEM_CACTVS_COMPLEXITY>
691

> <PUBCHEM_CACTVS_HBOND_ACCEPTOR>
4

> <PUBCHEM_CACTVS_HBOND_DONOR>
4

> <PUBCHEM_CACTVS_ROTATABLE_BOND>
11

> <PUBCHEM_CACTVS_SUBSKEYS>
AAADcfB7OAAAAAAAAAAAAAAAAAAAAWAAAAAwYAAAAAAAAFgB9AAAHgAQCAAADSjBngQ+yPLJkgCoAzX3XACCgCAxAiAI2aG4ZJgIYPLAkbGUYAhklgDIyAe/ydCOgAAAAAACAAAAAAAAAAQAAAAAAAAAAA==

> <PUBCHEM_IUPAC_OPENEYE_NAME>
3-[[1-(1H-indol-3-ylmethyl)-2-oxo-2-(1-phenylethylamino)ethyl]carbamoyl]-5-methyl-hexanoic acid

> <PUBCHEM_IUPAC_CAS_NAME>
3-[[[3-(1H-indol-3-yl)-1-oxo-1-(1-phenylethylamino)propan-2-yl]amino]-oxomethyl]-5-methylhexanoic acid

> <PUBCHEM_IUPAC_NAME>
3-[[3-(1H-indol-3-yl)-1-oxo-1-(1-phenylethylamino)propan-2-yl]carbamoyl]-5-methylhexanoic acid

> <PUBCHEM_IUPAC_SYSTEMATIC_NAME>
3-[[3-(1H-indol-3-yl)-1-oxidanylidene-1-(1-phenylethylamino)propan-2-yl]carbamoyl]-5-methyl-hexanoic acid

> <PUBCHEM_IUPAC_TRADITIONAL_NAME>
3-[[1-(1H-indol-3-ylmethyl)-2-keto-2-(1-phenylethylamino)ethyl]carbamoyl]-5-methyl-hexanoic acid

> <PUBCHEM_IUPAC_INCHI>
InChI=1S/C27H33N3O4/c1-17(2)13-20(15-25(31)32)26(33)30-24(14-21-16-28-23-12-8-7-11-22(21)23)27(34)29-18(3)19-9-5-4-6-10-19/h4-12,16-18,20,24,28H,13-15H2,1-3H3,(H,29,34)(H,30,33)(H,31,32)

> <PUBCHEM_IUPAC_INCHIKEY>
BLPWNGOQQLJQOL-UHFFFAOYSA-N

> <PUBCHEM_XLOGP3>
3.3

> <PUBCHEM_EXACT_MASS>
463.247107

> <PUBCHEM_MOLECULAR_FORMULA>
C27H33N3O4

> <PUBCHEM_MOLECULAR_WEIGHT>
463.56862

> <PUBCHEM_OPENEYE_CAN_SMILES>
CC(C)CC(CC(=O)O)C(=O)NC(CC1=CNC2=CC=CC=C21)C(=O)NC(C)C3=CC=CC=C3

> <PUBCHEM_OPENEYE_ISO_SMILES>
CC(C)CC(CC(=O)O)C(=O)NC(CC1=CNC2=CC=CC=C21)C(=O)NC(C)C3=CC=CC=C3

> <PUBCHEM_CACTVS_TPSA>
111

> <PUBCHEM_MONOISOTOPIC_WEIGHT>
463.247107

> <PUBCHEM_TOTAL_CHARGE>
0

> <PUBCHEM_HEAVY_ATOM_COUNT>
34

> <PUBCHEM_ATOM_DEF_STEREO_COUNT>
0

> <PUBCHEM_ATOM_UDEF_STEREO_COUNT>
3

> <PUBCHEM_BOND_DEF_STEREO_COUNT>
0

> <PUBCHEM_BOND_UDEF_STEREO_COUNT>
0

> <PUBCHEM_ISOTOPIC_ATOM_COUNT>
0

> <PUBCHEM_COMPONENT_COUNT>
1

> <PUBCHEM_CACTVS_TAUTO_COUNT>
4

> <PUBCHEM_COORDINATE_TYPE>
1
5
255

> <PUBCHEM_BONDANNOTATIONS>
11  12  3
15  19  8
15  21  8
19  20  8
19  24  8
20  26  8
22  27  3
24  28  8
25  30  8
25  31  8
26  29  8
28  29  8
30  32  8
31  33  8
32  34  8
33  34  8
7  20  8
7  21  8
8  9  3

$$$$

