585149
  -OEChem-06241222453D

 33 34  0     1  0  0  0  0  0999 V2000
    0.5221   -1.6277   -0.8433 S   0  0  0  0  0  0  0  0  0  0  0  0
   -3.0447    1.5250   -1.7135 S   0  0  0  0  0  0  0  0  0  0  0  0
    1.1464   -2.6840   -0.0695 O   0  0  0  0  0  0  0  0  0  0  0  0
    0.0820   -1.8810   -2.2018 O   0  0  0  0  0  0  0  0  0  0  0  0
    1.6081    2.3726    1.6091 O   0  0  0  0  0  0  0  0  0  0  0  0
    0.7316    2.1894   -0.4757 O   0  0  0  0  0  0  0  0  0  0  0  0
    1.5244   -0.2561   -0.8381 N   0  0  0  0  0  0  0  0  0  0  0  0
   -1.7371    0.5036   -1.6439 N   0  0  0  0  0  0  0  0  0  0  0  0
   -3.7371    1.2462   -0.2302 N   0  0  0  0  0  0  0  0  0  0  0  0
    3.5211    0.3277    0.5193 C   0  0  0  0  0  0  0  0  0  0  0  0
    1.9823    0.3185    0.4483 C   0  0  1  0  0  0  0  0  0  0  0  0
    4.0791   -1.1004    0.5390 C   0  0  0  0  0  0  0  0  0  0  0  0
    4.1328    1.0842   -0.6662 C   0  0  0  0  0  0  0  0  0  0  0  0
   -0.8869   -1.0529    0.0563 C   0  0  0  0  0  0  0  0  0  0  0  0
    1.3798    1.7097    0.4456 C   0  0  0  0  0  0  0  0  0  0  0  0
   -1.7885   -0.1031   -0.4472 C   0  0  0  0  0  0  0  0  0  0  0  0
   -1.1306   -1.5576    1.3327 C   0  0  0  0  0  0  0  0  0  0  0  0
   -2.9677    0.3348    0.3864 C   0  0  0  0  0  0  0  0  0  0  0  0
   -2.2364   -1.1470    2.1142 C   0  0  0  0  0  0  0  0  0  0  0  0
   -3.1807   -0.2019    1.6789 C   0  0  0  0  0  0  0  0  0  0  0  0
    1.5665   -0.2352    1.2959 H   0  0  0  0  0  0  0  0  0  0  0  0
    3.8309    0.8318    1.4432 H   0  0  0  0  0  0  0  0  0  0  0  0
    1.6066    0.3264   -1.6803 H   0  0  0  0  0  0  0  0  0  0  0  0
    5.1655   -1.0848    0.6787 H   0  0  0  0  0  0  0  0  0  0  0  0
    3.8729   -1.6348   -0.3940 H   0  0  0  0  0  0  0  0  0  0  0  0
    3.6468   -1.6735    1.3660 H   0  0  0  0  0  0  0  0  0  0  0  0
    3.7726    2.1165   -0.7151 H   0  0  0  0  0  0  0  0  0  0  0  0
    3.9199    0.5992   -1.6244 H   0  0  0  0  0  0  0  0  0  0  0  0
    5.2229    1.1291   -0.5615 H   0  0  0  0  0  0  0  0  0  0  0  0
   -0.4636   -2.2938    1.7765 H   0  0  0  0  0  0  0  0  0  0  0  0
   -2.3606   -1.5855    3.1035 H   0  0  0  0  0  0  0  0  0  0  0  0
   -4.0176    0.0926    2.3014 H   0  0  0  0  0  0  0  0  0  0  0  0
    1.2028    3.2659    1.6061 H   0  0  0  0  0  0  0  0  0  0  0  0
  1  3  2  0  0  0  0
  1  4  2  0  0  0  0
  1  7  1  0  0  0  0
  1 14  1  0  0  0  0
  2  8  1  0  0  0  0
  2  9  1  0  0  0  0
  5 15  1  0  0  0  0
  5 33  1  0  0  0  0
  6 15  2  0  0  0  0
  7 11  1  0  0  0  0
  7 23  1  0  0  0  0
  8 16  2  0  0  0  0
  9 18  2  0  0  0  0
 10 11  1  0  0  0  0
 10 12  1  0  0  0  0
 10 13  1  0  0  0  0
 10 22  1  0  0  0  0
 11 15  1  0  0  0  0
 11 21  1  0  0  0  0
 12 24  1  0  0  0  0
 12 25  1  0  0  0  0
 12 26  1  0  0  0  0
 13 27  1  0  0  0  0
 13 28  1  0  0  0  0
 13 29  1  0  0  0  0
 14 16  1  0  0  0  0
 14 17  2  0  0  0  0
 16 18  1  0  0  0  0
 17 19  1  0  0  0  0
 17 30  1  0  0  0  0
 18 20  1  0  0  0  0
 19 20  2  0  0  0  0
 19 31  1  0  0  0  0
 20 32  1  0  0  0  0
M  END
> <PUBCHEM_COMPOUND_CID>
585149

> <PUBCHEM_CONFORMER_RMSD>
0.8

> <PUBCHEM_CONFORMER_DIVERSEORDER>
1
19
29
21
14
32
34
25
6
30
28
37
15
13
17
12
26
7
23
36
9
33
27
24
10
31
35
18
3
20
16
5
8
22
2
4
11

> <PUBCHEM_MMFF94_PARTIAL_CHARGES>
22
1 1.45
11 0.42
14 -0.01
15 0.66
16 0.29
17 -0.15
18 0.29
19 -0.15
2 0.44
20 -0.15
23 0.42
3 -0.65
30 0.15
31 0.15
32 0.15
33 0.5
4 -0.65
5 -0.65
6 -0.57
7 -0.91
8 -0.51
9 -0.51

> <PUBCHEM_EFFECTIVE_ROTOR_COUNT>
5

> <PUBCHEM_PHARMACOPHORE_FEATURES>
11
1 3 acceptor
1 4 acceptor
1 5 acceptor
1 6 acceptor
1 7 donor
1 8 acceptor
1 9 acceptor
3 10 12 13 hydrophobe
3 5 6 15 anion
5 2 8 9 16 18 rings
6 14 16 17 18 19 20 rings

> <PUBCHEM_HEAVY_ATOM_COUNT>
20

> <PUBCHEM_ATOM_DEF_STEREO_COUNT>
0

> <PUBCHEM_ATOM_UDEF_STEREO_COUNT>
1

> <PUBCHEM_BOND_DEF_STEREO_COUNT>
0

> <PUBCHEM_BOND_UDEF_STEREO_COUNT>
0

> <PUBCHEM_ISOTOPIC_ATOM_COUNT>
0

> <PUBCHEM_COMPONENT_COUNT>
1

> <PUBCHEM_CACTVS_TAUTO_COUNT>
1

> <PUBCHEM_CONFORMER_ID>
0008EDBD00000001

> <PUBCHEM_MMFF94_ENERGY>
31.1177

> <PUBCHEM_FEATURE_SELFOVERLAP>
56.008

> <PUBCHEM_SHAPE_FINGERPRINT>
10366900 7 18130785612191659435
104564 63 18043801203219958768
10863032 1 17632577171304028680
11640471 11 16370994256823518219
12011746 2 17775010089583604439
12077114 3 18273497862005920955
121448 382 15140968356620643471
124424 183 18271813448962840394
12592029 89 18260554432852052375
12633257 1 18269533010528765753
12892183 10 17346595244939094786
128993 33 17902215729026932144
13464514 151 17981618370118363381
14817 1 14871120535338000003
15309172 13 18261105249348542146
15653759 3 18060416880814423400
16945 1 18261399974172636967
18186145 218 17676769786319444864
18219364 16 18408036295271818641
19049666 15 18057319698456416251
192875 21 16588314851519687472
20511035 2 18267867190019599580
20600515 1 17203030942591110085
21069387 34 14490739145007129212
21524375 3 18116144485165010895
21731516 1 13326588331886761602
22112679 90 15195271045651984055
23175994 123 18339356482827848414
23184049 59 18187366549682625394
23493267 7 17774728661667158040
23503958 8 16487248855106475515
23559900 14 17630030801354403374
25 1 18337678614919580469
3286 77 18263361408743833115
350125 39 18046060454485209314
568465 68 18338504292275124592
598444 67 17989210356158047931
74978 22 17750517265489416720
81228 2 17399525523988559026

> <PUBCHEM_SHAPE_MULTIPOLES>
380.87
6.55
2.4
1.83
2.9
0.02
-0.16
1.77
0.97
0.11
-0.03
-0.89
-0.24
1.48

> <PUBCHEM_SHAPE_SELFOVERLAP>
773.198

> <PUBCHEM_SHAPE_VOLUME>
222.9

> <PUBCHEM_COORDINATE_TYPE>
2
5
10

$$$$

