47205496
  -OEChem-06241222593D

 28 29  0     0  0  0  0  0  0999 V2000
   -3.6421    1.3772   -0.7485 S   0  0  0  0  0  0  0  0  0  0  0  0
    4.8150    1.0605    0.9167 O   0  0  0  0  0  0  0  0  0  0  0  0
    1.0868   -1.3316   -1.4623 O   0  0  0  0  0  0  0  0  0  0  0  0
   -0.8291   -2.1091    0.7408 O   0  0  0  0  0  0  0  0  0  0  0  0
    1.5217   -0.1622    0.5516 N   0  0  0  0  0  0  0  0  0  0  0  0
   -1.4711   -0.0955   -0.3294 N   0  0  0  0  0  0  0  0  0  0  0  0
   -3.6206   -0.8408    0.5792 N   0  0  0  0  0  0  0  0  0  0  0  0
    3.5216    0.9012    1.3989 N   0  0  0  0  0  0  0  0  0  0  0  0
    2.8811    0.2130    0.4496 C   0  0  0  0  0  0  0  0  0  0  0  0
    4.9156    0.4679   -0.3007 C   0  0  0  0  0  0  0  0  0  0  0  0
    3.7112   -0.0870   -0.6442 C   0  0  0  0  0  0  0  0  0  0  0  0
   -2.8610   -0.0006   -0.0880 C   0  0  0  0  0  0  0  0  0  0  0  0
   -5.1265    0.8175   -0.0967 C   0  0  0  0  0  0  0  0  0  0  0  0
    0.7849   -0.8689   -0.3749 C   0  0  0  0  0  0  0  0  0  0  0  0
   -0.6230   -1.0983    0.0902 C   0  0  0  0  0  0  0  0  0  0  0  0
   -4.9190   -0.3699    0.5734 C   0  0  0  0  0  0  0  0  0  0  0  0
    6.2253    0.5416   -0.9600 C   0  0  0  0  0  0  0  0  0  0  0  0
   -6.3709    1.5851   -0.2955 C   0  0  0  0  0  0  0  0  0  0  0  0
    3.4947   -0.6226   -1.5560 H   0  0  0  0  0  0  0  0  0  0  0  0
    1.0728    0.1358    1.4141 H   0  0  0  0  0  0  0  0  0  0  0  0
   -1.0887    0.6726   -0.8756 H   0  0  0  0  0  0  0  0  0  0  0  0
   -5.6856   -0.9411    1.0799 H   0  0  0  0  0  0  0  0  0  0  0  0
    6.5155    1.5840   -1.1239 H   0  0  0  0  0  0  0  0  0  0  0  0
    6.9934    0.0632   -0.3446 H   0  0  0  0  0  0  0  0  0  0  0  0
    6.2075    0.0381   -1.9316 H   0  0  0  0  0  0  0  0  0  0  0  0
   -6.2863    2.5879    0.1363 H   0  0  0  0  0  0  0  0  0  0  0  0
   -6.6040    1.6851   -1.3608 H   0  0  0  0  0  0  0  0  0  0  0  0
   -7.2204    1.0880    0.1845 H   0  0  0  0  0  0  0  0  0  0  0  0
  1 12  1  0  0  0  0
  1 13  1  0  0  0  0
  2  8  1  0  0  0  0
  2 10  1  0  0  0  0
  3 14  2  0  0  0  0
  4 15  2  0  0  0  0
  5  9  1  0  0  0  0
  5 14  1  0  0  0  0
  5 20  1  0  0  0  0
  6 12  1  0  0  0  0
  6 15  1  0  0  0  0
  6 21  1  0  0  0  0
  7 12  2  0  0  0  0
  7 16  1  0  0  0  0
  8  9  2  0  0  0  0
  9 11  1  0  0  0  0
 10 11  2  0  0  0  0
 10 17  1  0  0  0  0
 11 19  1  0  0  0  0
 13 16  2  0  0  0  0
 13 18  1  0  0  0  0
 14 15  1  0  0  0  0
 16 22  1  0  0  0  0
 17 23  1  0  0  0  0
 17 24  1  0  0  0  0
 17 25  1  0  0  0  0
 18 26  1  0  0  0  0
 18 27  1  0  0  0  0
 18 28  1  0  0  0  0
M  END
> <PUBCHEM_COMPOUND_CID>
47205496

> <PUBCHEM_CONFORMER_RMSD>
0.6

> <PUBCHEM_CONFORMER_DIVERSEORDER>
1
12
10
8
2
9
11
3
4
6
7
5

> <PUBCHEM_MMFF94_PARTIAL_CHARGES>
22
1 -0.08
10 -0.04
11 -0.15
12 0.44
13 -0.14
14 0.63
15 0.63
16 0.08
17 0.18
18 0.18
19 0.15
2 -0.02
20 0.37
21 0.37
22 0.15
3 -0.57
4 -0.57
5 -0.49
6 -0.49
7 -0.57
8 -0.41
9 0.35

> <PUBCHEM_EFFECTIVE_ROTOR_COUNT>
5

> <PUBCHEM_PHARMACOPHORE_FEATURES>
6
1 3 acceptor
1 4 acceptor
1 5 donor
1 6 donor
5 1 7 12 13 16 rings
5 2 8 9 10 11 rings

> <PUBCHEM_HEAVY_ATOM_COUNT>
18

> <PUBCHEM_ATOM_DEF_STEREO_COUNT>
0

> <PUBCHEM_ATOM_UDEF_STEREO_COUNT>
0

> <PUBCHEM_BOND_DEF_STEREO_COUNT>
0

> <PUBCHEM_BOND_UDEF_STEREO_COUNT>
0

> <PUBCHEM_ISOTOPIC_ATOM_COUNT>
0

> <PUBCHEM_COMPONENT_COUNT>
1

> <PUBCHEM_CACTVS_TAUTO_COUNT>
24

> <PUBCHEM_CONFORMER_ID>
02D04C7800000001

> <PUBCHEM_MMFF94_ENERGY>
19.5365

> <PUBCHEM_FEATURE_SELFOVERLAP>
30.447

> <PUBCHEM_SHAPE_FINGERPRINT>
100836 57 18413106169020303356
10354089 29 16558747915003093164
106641 1 15410603757863700565
10803635 8 5689596061487192041
11128504 68 14996288002345543129
12107183 9 16267175198953491145
12236239 1 16917348121442086930
12403259 415 18187365376618373250
12516196 113 12391510888490078511
12596602 18 16415478246536329873
12730499 353 18113893870852067671
13288520 33 7637397428921347937
13533116 47 18337112379796589578
13685833 64 9583511036726447541
13862211 1 7781513711597049765
14252887 29 13901915535379131128
14341114 176 15770059453701531932
14341114 328 17060341837685784153
14528608 73 17458352939754734829
14848160 23 9655579595462402116
15048467 5 17846776283228712292
15183329 4 16515399694531265124
15242439 84 18040994025558997746
17834072 8 17530962484493062180
17980427 23 17489300863735678711
18186145 218 17386014948513117554
193927 3 9439116606877331901
19784866 170 18272932752163861231
200 152 14418127409809087306
20281389 69 18202285805680068788
20374829 77 8070028861291640039
20432913 95 13039189220874986673
20605781 2 18408605876971346889
20645477 56 18410011022424164231
20645477 70 17313373553051873022
20871999 31 5473142921219901003
21033648 29 18335991878183324104
212847 35 18411985780094383464
21637258 2 7348884451825919185
221357 26 17240483641000716280
22224240 67 14261348021161479800
23402539 116 18411422786922439319
23402655 69 17603585252934494775
23557571 272 18337100181999622607
23559900 14 18270951449111585622
239999 70 9943804496016095112
266924 1 14708031315219505406
2916195 48 18335988588280488577
293599 30 18411419522873725723
29717793 49 14490462085415209856
3014965 18 18187642570161932662
314173 85 10375875203168165519
351380 3 7637397424062333101
3545911 37 18260545623947734327
4325135 7 18333734590213687847
465052 167 10303808800215565200
5104073 3 17986949842615251545
542803 24 17632859719721941289

> <PUBCHEM_SHAPE_MULTIPOLES>
336.75
15.34
1.47
1.03
0.29
0.25
0
-8.09
0.38
-1.2
0.01
0.94
-0.03
0.79

> <PUBCHEM_SHAPE_SELFOVERLAP>
696.397

> <PUBCHEM_SHAPE_VOLUME>
193.5

> <PUBCHEM_COORDINATE_TYPE>
2
5
10

$$$$

