5721
  -OEChem-06261200503D

 43 43  0     1  0  0  0  0  0999 V2000
    1.0808    1.0958    0.3627 O   0  0  0  0  0  0  0  0  0  0  0  0
    1.2855   -2.3964   -0.6127 O   0  0  0  0  0  0  0  0  0  0  0  0
    3.0386   -0.4972   -1.8534 O   0  0  0  0  0  0  0  0  0  0  0  0
    5.4070   -1.4029   -0.7781 O   0  0  0  0  0  0  0  0  0  0  0  0
   -2.4929   -2.4893    1.4335 O   0  0  0  0  0  0  0  0  0  0  0  0
    1.9460    3.4252    0.9018 O   0  0  0  0  0  0  0  0  0  0  0  0
   -0.0974    4.4379    0.7302 O   0  0  0  0  0  0  0  0  0  0  0  0
   -0.8140   -0.8824    1.5605 N   0  0  0  0  0  0  0  0  0  0  0  0
   -2.1446    0.5135   -1.5661 N   0  0  0  0  0  0  0  0  0  0  0  0
   -3.5930   -0.3441   -3.1530 N   0  0  0  0  0  0  0  0  0  0  0  0
   -3.9578   -0.9516   -0.9867 N   0  0  0  0  0  0  0  0  0  0  0  0
    0.6558   -0.1200   -0.2764 C   0  0  2  0  0  0  0  0  0  0  0  0
   -0.7635   -0.5403    0.1536 C   0  0  2  0  0  0  0  0  0  0  0  0
    1.7037   -1.1892    0.0191 C   0  0  2  0  0  0  0  0  0  0  0  0
   -1.7618    0.5879   -0.1500 C   0  0  1  0  0  0  0  0  0  0  0  0
    3.1082   -0.7928   -0.4538 C   0  0  1  0  0  0  0  0  0  0  0  0
   -1.1652    1.9382    0.1146 C   0  0  0  0  0  0  0  0  0  0  0  0
    0.1425    2.1013    0.3655 C   0  0  0  0  0  0  0  0  0  0  0  0
    4.1626   -1.8827   -0.2754 C   0  0  0  0  0  0  0  0  0  0  0  0
   -1.6784   -1.8305    2.0748 C   0  0  0  0  0  0  0  0  0  0  0  0
    0.6147    3.4504    0.6799 C   0  0  0  0  0  0  0  0  0  0  0  0
   -3.1709   -0.2223   -1.8501 C   0  0  0  0  0  0  0  0  0  0  0  0
   -1.5059   -2.0084    3.5595 C   0  0  0  0  0  0  0  0  0  0  0  0
    0.6233    0.0631   -1.3596 H   0  0  0  0  0  0  0  0  0  0  0  0
   -1.0551   -1.4404   -0.4021 H   0  0  0  0  0  0  0  0  0  0  0  0
    1.7602   -1.3832    1.0964 H   0  0  0  0  0  0  0  0  0  0  0  0
   -2.6342    0.5252    0.5119 H   0  0  0  0  0  0  0  0  0  0  0  0
    3.4537    0.1176    0.0503 H   0  0  0  0  0  0  0  0  0  0  0  0
   -0.2217   -0.3591    2.1992 H   0  0  0  0  0  0  0  0  0  0  0  0
   -1.8545    2.7784    0.1242 H   0  0  0  0  0  0  0  0  0  0  0  0
    3.9063   -2.7811   -0.8459 H   0  0  0  0  0  0  0  0  0  0  0  0
    4.2837   -2.1429    0.7805 H   0  0  0  0  0  0  0  0  0  0  0  0
    1.3031   -2.2491   -1.5739 H   0  0  0  0  0  0  0  0  0  0  0  0
    2.6779    0.4006   -1.9477 H   0  0  0  0  0  0  0  0  0  0  0  0
   -2.2701   -2.6913    3.9409 H   0  0  0  0  0  0  0  0  0  0  0  0
   -0.5168   -2.4260    3.7671 H   0  0  0  0  0  0  0  0  0  0  0  0
   -1.6097   -1.0451    4.0671 H   0  0  0  0  0  0  0  0  0  0  0  0
    6.0584   -2.1133   -0.6489 H   0  0  0  0  0  0  0  0  0  0  0  0
   -3.1120    0.1355   -3.9062 H   0  0  0  0  0  0  0  0  0  0  0  0
   -4.3936   -0.9153   -3.4003 H   0  0  0  0  0  0  0  0  0  0  0  0
   -4.7456   -1.4877   -1.3352 H   0  0  0  0  0  0  0  0  0  0  0  0
   -3.7769   -1.0199    0.0074 H   0  0  0  0  0  0  0  0  0  0  0  0
    2.3009    4.3142    1.1164 H   0  0  0  0  0  0  0  0  0  0  0  0
  1 12  1  0  0  0  0
  1 18  1  0  0  0  0
  2 14  1  0  0  0  0
  2 33  1  0  0  0  0
  3 16  1  0  0  0  0
  3 34  1  0  0  0  0
  4 19  1  0  0  0  0
  4 38  1  0  0  0  0
  5 20  2  0  0  0  0
  6 21  1  0  0  0  0
  6 43  1  0  0  0  0
  7 21  2  0  0  0  0
  8 13  1  0  0  0  0
  8 20  1  0  0  0  0
  8 29  1  0  0  0  0
  9 15  1  0  0  0  0
  9 22  2  0  0  0  0
 10 22  1  0  0  0  0
 10 39  1  0  0  0  0
 10 40  1  0  0  0  0
 11 22  1  0  0  0  0
 11 41  1  0  0  0  0
 11 42  1  0  0  0  0
 12 13  1  0  0  0  0
 12 14  1  0  0  0  0
 12 24  1  0  0  0  0
 13 15  1  0  0  0  0
 13 25  1  0  0  0  0
 14 16  1  0  0  0  0
 14 26  1  0  0  0  0
 15 17  1  0  0  0  0
 15 27  1  0  0  0  0
 16 19  1  0  0  0  0
 16 28  1  0  0  0  0
 17 18  2  0  0  0  0
 17 30  1  0  0  0  0
 18 21  1  0  0  0  0
 19 31  1  0  0  0  0
 19 32  1  0  0  0  0
 20 23  1  0  0  0  0
 23 35  1  0  0  0  0
 23 36  1  0  0  0  0
 23 37  1  0  0  0  0
M  END
> <PUBCHEM_COMPOUND_CID>
5721

> <PUBCHEM_CONFORMER_RMSD>
0.8

> <PUBCHEM_CONFORMER_DIVERSEORDER>
6
376
285
74
280
401
301
204
358
212
381
317
352
178
252
89
396
210
334
100
348
172
361
288
250
344
319
223
283
171
114
145
153
236
134
261
343
164
208
355
228
297
406
369
37
328
359
335
260
165
245
209
193
243
360
139
191
408
302
75
318
227
49
284
249
289
371
293
78
107
309
132
131
291
99
413
398
399
86
85
127
407
144
326
189
366
312
11
351
8
310
373
349
290
176
242
126
238
102
112
138
97
40
192
104
215
231
275
410
27
105
267
342
375
337
281
347
362
34
403
397
158
198
229
200
113
313
311
19
370
255
225
188
257
346
199
402
70
356
387
207
414
130
232
378
186
374
287
119
140
77
239
181
73
404
296
268
316
395
379
389
190
241
235
57
146
365
259
323
98
117
56
329
368
129
315
256
206
262
409
273
118
94
123
353
330
52
300
333
271
173
350
240
149
51
76
269
147
152
341
411
115
203
195
305
295
183
13
234
55
390
247
325
340
108
87
150
265
69
72
168
226
222
303
36
26
380
160
304
383
363
90
345
46
253
110
29
248
327
354
155
25
182
392
372
197
294
224
142
128
169
163
50
214
393
339
154
391
116
196
38
412
66
64
382
282
308
384
174
233
185
415
314
58
162
230
278
202
299
68
332
44
133
322
306
377
274
148
151
82
167
161
177
17
4
220
166
405
88
159
101
277
320
59
270
137
61
211
63
201
218
388
251
32
12
367
357
109
258
244
71
279
307
179
122
324
400
331
394
175
93
298
22
33
1
385
80
237
42
95
180
31
266
2
286
62
263
216
10
60
219
135
5
111
170
143
292
217
106
53
121
23
79
18
16
91
83
386
213
205
187
221
81
43
48
194
67
272
39
3
92
24
84
136
30
141
103
14
336
7
125
364
21
9
254
65
184
156
321
124
54
264
338
157
45
96
47
41
276
120
246
28
20
15
35

> <PUBCHEM_MMFF94_PARTIAL_CHARGES>
33
1 -0.36
10 -0.85
11 -0.85
12 0.28
13 0.3
14 0.28
15 0.38
16 0.28
17 -0.29
18 0.09
19 0.28
2 -0.68
20 0.57
21 0.71
22 0.55
23 0.06
29 0.37
3 -0.68
30 0.15
33 0.4
34 0.4
38 0.4
39 0.4
4 -0.68
40 0.4
41 0.4
42 0.4
43 0.5
5 -0.57
6 -0.65
7 -0.57
8 -0.73
9 -0.7

> <PUBCHEM_EFFECTIVE_ROTOR_COUNT>
7.8

> <PUBCHEM_PHARMACOPHORE_FEATURES>
16
1 1 acceptor
1 10 donor
1 11 donor
1 2 acceptor
1 2 donor
1 3 acceptor
1 3 donor
1 4 acceptor
1 4 donor
1 5 acceptor
1 6 acceptor
1 7 acceptor
1 8 donor
3 6 7 21 anion
4 9 10 11 22 cation
6 1 12 13 15 17 18 rings

> <PUBCHEM_HEAVY_ATOM_COUNT>
23

> <PUBCHEM_ATOM_DEF_STEREO_COUNT>
0

> <PUBCHEM_ATOM_UDEF_STEREO_COUNT>
5

> <PUBCHEM_BOND_DEF_STEREO_COUNT>
0

> <PUBCHEM_BOND_UDEF_STEREO_COUNT>
0

> <PUBCHEM_ISOTOPIC_ATOM_COUNT>
0

> <PUBCHEM_COMPONENT_COUNT>
1

> <PUBCHEM_CACTVS_TAUTO_COUNT>
4

> <PUBCHEM_CONFORMER_ID>
0000165900000006

> <PUBCHEM_MMFF94_ENERGY>
55.8241

> <PUBCHEM_FEATURE_SELFOVERLAP>
81.332

> <PUBCHEM_SHAPE_FINGERPRINT>
107951 10 16394031438933691671
11578080 2 17843944971640743341
11582403 64 16755849500308324501
12293681 160 18126579039601935781
12293681 25 17769659698362706075
12553582 1 18189913061314334071
12714826 92 17559938979033981018
12788726 201 18122343750960604848
13140716 1 18266998670723844400
13149001 5 18201446839452507303
133893 2 17970058942387778416
13911987 19 18338503146141544310
14251740 79 17774996946594009802
14787075 74 18126548236455256777
14817 1 16243288334925722713
14863182 85 14937252852291782095
16945 1 17755876555350757492
17349148 13 18128818736720143878
17980427 23 17461403023733399065
1813 80 17749104495746989383
18915476 22 18048880684698962481
19765921 60 17699291280554472949
20101258 96 18260537966073929488
20600515 1 17483347012070652507
20602899 9 17417528149913633010
20671657 53 18041293109484930215
20721686 56 18335991892218128400
21304303 282 17840598315933157876
21339142 36 18341317946931461946
22182313 1 18127131861884939816
23402539 116 18267306615431012950
23419403 2 18199176287832732707
23526113 38 18269563753503814673
23558518 356 17836632399077473330
23559900 14 18060138769731074226
238 59 17974584502098453245
2748010 2 17982731878975796681
298252 57 16459385375117447271
531348 171 17537712575698029718
68419 9 17115536466975564257
81228 2 18121210141761870336
9981440 41 17469911899392563385

> <PUBCHEM_SHAPE_MULTIPOLES>
412.32
6.22
4
2.51
5.88
4.81
0.41
-4.56
-4.6
0.53
3.03
-2.96
-1.68
1.74

> <PUBCHEM_SHAPE_SELFOVERLAP>
840.202

> <PUBCHEM_SHAPE_VOLUME>
234.8

> <PUBCHEM_COORDINATE_TYPE>
2
5
10

$$$$

