9672
  -OEChem-06261203563D

 16 15  0     0  0  0  0  0  0999 V2000
    2.4180   -0.2639    0.1285 F   0  0  0  0  0  0  0  0  0  0  0  0
    1.3966   -1.7894   -1.0367 F   0  0  0  0  0  0  0  0  0  0  0  0
    1.1968   -1.7671    1.1284 F   0  0  0  0  0  0  0  0  0  0  0  0
    1.7421    1.6673    0.0954 F   0  0  0  0  0  0  0  0  0  0  0  0
   -0.0128    2.0531   -1.1274 F   0  0  0  0  0  0  0  0  0  0  0  0
   -0.1787    2.0320    1.0453 F   0  0  0  0  0  0  0  0  0  0  0  0
   -1.3835   -1.8626   -0.1776 F   0  0  0  0  0  0  0  0  0  0  0  0
   -2.2805    0.3231   -0.2251 O   0  0  0  0  0  0  0  0  0  0  0  0
    0.0671   -0.0519   -0.0487 C   0  0  0  0  0  0  0  0  0  0  0  0
    1.2583   -0.9651    0.0334 C   0  0  0  0  0  0  0  0  0  0  0  0
    0.4131    1.4108   -0.0083 C   0  0  0  0  0  0  0  0  0  0  0  0
   -1.1908   -0.5219   -0.1496 C   0  0  0  0  0  0  0  0  0  0  0  0
   -3.4455   -0.2642    0.3424 C   0  0  0  0  0  0  0  0  0  0  0  0
   -3.7660   -1.1329   -0.2425 H   0  0  0  0  0  0  0  0  0  0  0  0
   -4.2477    0.4790    0.3188 H   0  0  0  0  0  0  0  0  0  0  0  0
   -3.2713   -0.5499    1.3855 H   0  0  0  0  0  0  0  0  0  0  0  0
  1 10  1  0  0  0  0
  2 10  1  0  0  0  0
  3 10  1  0  0  0  0
  4 11  1  0  0  0  0
  5 11  1  0  0  0  0
  6 11  1  0  0  0  0
  7 12  1  0  0  0  0
  8 12  1  0  0  0  0
  8 13  1  0  0  0  0
  9 10  1  0  0  0  0
  9 11  1  0  0  0  0
  9 12  2  0  0  0  0
 13 14  1  0  0  0  0
 13 15  1  0  0  0  0
 13 16  1  0  0  0  0
M  END
> <PUBCHEM_COMPOUND_CID>
9672

> <PUBCHEM_CONFORMER_RMSD>
0.6

> <PUBCHEM_CONFORMER_DIVERSEORDER>
1
2

> <PUBCHEM_MMFF94_PARTIAL_CHARGES>
13
1 -0.34
10 1.16
11 1.16
12 0.23
13 0.28
2 -0.34
3 -0.34
4 -0.34
5 -0.34
6 -0.34
7 -0.15
8 -0.36
9 -0.28

> <PUBCHEM_EFFECTIVE_ROTOR_COUNT>
3

> <PUBCHEM_PHARMACOPHORE_FEATURES>
1
1 8 acceptor

> <PUBCHEM_HEAVY_ATOM_COUNT>
13

> <PUBCHEM_ATOM_DEF_STEREO_COUNT>
0

> <PUBCHEM_ATOM_UDEF_STEREO_COUNT>
0

> <PUBCHEM_BOND_DEF_STEREO_COUNT>
0

> <PUBCHEM_BOND_UDEF_STEREO_COUNT>
0

> <PUBCHEM_ISOTOPIC_ATOM_COUNT>
0

> <PUBCHEM_COMPONENT_COUNT>
1

> <PUBCHEM_CACTVS_TAUTO_COUNT>
1

> <PUBCHEM_CONFORMER_ID>
000025C800000001

> <PUBCHEM_MMFF94_ENERGY>
14.6595

> <PUBCHEM_FEATURE_SELFOVERLAP>
5.074

> <PUBCHEM_SHAPE_FINGERPRINT>
12423570 1 13536480720773140154
12524768 44 18335422408495979239
161256 15 18412263968930833516
16945 1 18334572447247241204
18185500 45 18411983580549161122
20653091 64 18340761572746570001
21040471 1 17474108700440707021
23552423 10 18198346143843134591
241688 4 17832414667898438378
2748010 2 18193840336270037236
5084963 1 17623305870057020773
528862 383 18340770343085664451

> <PUBCHEM_SHAPE_MULTIPOLES>
210.75
3.26
2.19
0.86
2.68
0.41
-0.01
-0.64
-0.27
-0.8
0.03
-0.13
0.03
-0.01

> <PUBCHEM_SHAPE_SELFOVERLAP>
428.145

> <PUBCHEM_SHAPE_VOLUME>
123.8

> <PUBCHEM_COORDINATE_TYPE>
2
5
10

$$$$

