17396261
  -OEChem-06241222553D

 45 46  0     0  0  0  0  0  0999 V2000
    4.7610    1.0431    1.0631 O   0  0  0  0  0  0  0  0  0  0  0  0
   -1.3035   -1.3923   -1.1437 O   0  0  0  0  0  0  0  0  0  0  0  0
    2.7087   -2.4622    0.5547 O   0  0  0  0  0  0  0  0  0  0  0  0
    4.8644   -1.6582    0.6296 O   0  0  0  0  0  0  0  0  0  0  0  0
   -1.0802    0.9020   -1.3953 N   0  0  0  0  0  0  0  0  0  0  0  0
    0.1329    0.8672   -2.1799 C   0  0  0  0  0  0  0  0  0  0  0  0
    1.3612    0.9081   -1.3175 C   0  0  0  0  0  0  0  0  0  0  0  0
   -2.9551   -0.0450   -0.1662 C   0  0  0  0  0  0  0  0  0  0  0  0
   -4.1650   -0.5884   -0.5983 C   0  0  0  0  0  0  0  0  0  0  0  0
   -1.7266   -0.2450   -0.9229 C   0  0  0  0  0  0  0  0  0  0  0  0
    1.9344   -0.2793   -0.8625 C   0  0  0  0  0  0  0  0  0  0  0  0
   -5.2794    0.3677    1.3202 C   0  0  0  0  0  0  0  0  0  0  0  0
   -5.3271   -0.3821    0.1450 C   0  0  0  0  0  0  0  0  0  0  0  0
    3.0765   -0.2409   -0.0627 C   0  0  0  0  0  0  0  0  0  0  0  0
    1.9301    2.1342   -0.9726 C   0  0  0  0  0  0  0  0  0  0  0  0
   -2.9073    0.7046    1.0091 C   0  0  0  0  0  0  0  0  0  0  0  0
    3.6452    0.9851    0.2824 C   0  0  0  0  0  0  0  0  0  0  0  0
   -4.0695    0.9111    1.7522 C   0  0  0  0  0  0  0  0  0  0  0  0
    3.0721    2.1726   -0.1727 C   0  0  0  0  0  0  0  0  0  0  0  0
   -4.2442   -1.3951   -1.8534 C   0  0  0  0  0  0  0  0  0  0  0  0
   -6.5218    0.5885    2.1153 C   0  0  0  0  0  0  0  0  0  0  0  0
    3.6600   -1.4919    0.4013 C   0  0  0  0  0  0  0  0  0  0  0  0
    5.2731    2.3390    1.3652 C   0  0  0  0  0  0  0  0  0  0  0  0
    3.1602   -3.7424    1.0095 C   0  0  0  0  0  0  0  0  0  0  0  0
    0.1358   -0.0315   -2.8079 H   0  0  0  0  0  0  0  0  0  0  0  0
    0.1107    1.7277   -2.8583 H   0  0  0  0  0  0  0  0  0  0  0  0
   -1.4765    1.8129   -1.1817 H   0  0  0  0  0  0  0  0  0  0  0  0
    1.4886   -1.2264   -1.1562 H   0  0  0  0  0  0  0  0  0  0  0  0
   -6.2729   -0.8035   -0.1878 H   0  0  0  0  0  0  0  0  0  0  0  0
    1.4909    3.0657   -1.3201 H   0  0  0  0  0  0  0  0  0  0  0  0
   -1.9716    1.1312    1.3620 H   0  0  0  0  0  0  0  0  0  0  0  0
   -4.0194    1.4978    2.6656 H   0  0  0  0  0  0  0  0  0  0  0  0
    3.4568    3.1607    0.0542 H   0  0  0  0  0  0  0  0  0  0  0  0
   -5.2830   -1.5683   -2.1562 H   0  0  0  0  0  0  0  0  0  0  0  0
   -3.7748   -2.3734   -1.7093 H   0  0  0  0  0  0  0  0  0  0  0  0
   -3.7578   -0.8757   -2.6858 H   0  0  0  0  0  0  0  0  0  0  0  0
   -7.0538    1.4699    1.7437 H   0  0  0  0  0  0  0  0  0  0  0  0
   -7.1886   -0.2782    2.0520 H   0  0  0  0  0  0  0  0  0  0  0  0
   -6.2931    0.7394    3.1758 H   0  0  0  0  0  0  0  0  0  0  0  0
    6.1588    2.1963    1.9933 H   0  0  0  0  0  0  0  0  0  0  0  0
    4.5606    2.9286    1.9522 H   0  0  0  0  0  0  0  0  0  0  0  0
    5.6061    2.8628    0.4627 H   0  0  0  0  0  0  0  0  0  0  0  0
    3.8690   -4.1683    0.2933 H   0  0  0  0  0  0  0  0  0  0  0  0
    3.6180   -3.6511    1.9989 H   0  0  0  0  0  0  0  0  0  0  0  0
    2.2925   -4.4033    1.0821 H   0  0  0  0  0  0  0  0  0  0  0  0
  1 17  1  0  0  0  0
  1 23  1  0  0  0  0
  2 10  2  0  0  0  0
  3 22  1  0  0  0  0
  3 24  1  0  0  0  0
  4 22  2  0  0  0  0
  5  6  1  0  0  0  0
  5 10  1  0  0  0  0
  5 27  1  0  0  0  0
  6  7  1  0  0  0  0
  6 25  1  0  0  0  0
  6 26  1  0  0  0  0
  7 11  2  0  0  0  0
  7 15  1  0  0  0  0
  8  9  2  0  0  0  0
  8 10  1  0  0  0  0
  8 16  1  0  0  0  0
  9 13  1  0  0  0  0
  9 20  1  0  0  0  0
 11 14  1  0  0  0  0
 11 28  1  0  0  0  0
 12 13  2  0  0  0  0
 12 18  1  0  0  0  0
 12 21  1  0  0  0  0
 13 29  1  0  0  0  0
 14 17  2  0  0  0  0
 14 22  1  0  0  0  0
 15 19  2  0  0  0  0
 15 30  1  0  0  0  0
 16 18  2  0  0  0  0
 16 31  1  0  0  0  0
 17 19  1  0  0  0  0
 18 32  1  0  0  0  0
 19 33  1  0  0  0  0
 20 34  1  0  0  0  0
 20 35  1  0  0  0  0
 20 36  1  0  0  0  0
 21 37  1  0  0  0  0
 21 38  1  0  0  0  0
 21 39  1  0  0  0  0
 23 40  1  0  0  0  0
 23 41  1  0  0  0  0
 23 42  1  0  0  0  0
 24 43  1  0  0  0  0
 24 44  1  0  0  0  0
 24 45  1  0  0  0  0
M  END
> <PUBCHEM_COMPOUND_CID>
17396261

> <PUBCHEM_CONFORMER_RMSD>
0.8

> <PUBCHEM_CONFORMER_DIVERSEORDER>
12
118
134
63
121
85
103
10
125
73
67
113
158
133
97
102
132
161
112
21
19
13
129
109
82
25
135
139
18
69
8
23
108
131
68
57
83
93
140
144
92
20
149
46
148
106
128
88
27
114
53
62
28
96
35
2
145
162
101
17
51
150
79
78
44
32
70
45
22
60
155
115
71
136
65
89
104
117
52
86
72
40
143
39
43
111
33
41
124
156
123
11
127
36
116
99
152
31
107
49
75
94
119
55
24
91
160
80
120
147
122
26
87
130
90
56
6
110
37
95
34
77
66
126
159
61
1
5
81
141
76
50
157
59
137
47
151
74
105
98
64
4
42
54
48
142
154
100
84
15
153
30
7
3
29
16
138
146
9
38
58
14

> <PUBCHEM_MMFF94_PARTIAL_CHARGES>
31
1 -0.36
10 0.54
11 -0.15
12 -0.14
13 -0.15
14 0.09
15 -0.15
16 -0.15
17 0.08
18 -0.15
19 -0.15
2 -0.57
20 0.14
21 0.14
22 0.63
23 0.28
24 0.28
27 0.37
28 0.15
29 0.15
3 -0.43
30 0.15
31 0.15
32 0.15
33 0.15
4 -0.57
5 -0.73
6 0.44
7 -0.14
8 0.09
9 -0.14

> <PUBCHEM_EFFECTIVE_ROTOR_COUNT>
7

> <PUBCHEM_PHARMACOPHORE_FEATURES>
6
1 1 acceptor
1 2 acceptor
1 4 acceptor
1 5 donor
6 7 11 14 15 17 19 rings
6 8 9 12 13 16 18 rings

> <PUBCHEM_HEAVY_ATOM_COUNT>
24

> <PUBCHEM_ATOM_DEF_STEREO_COUNT>
0

> <PUBCHEM_ATOM_UDEF_STEREO_COUNT>
0

> <PUBCHEM_BOND_DEF_STEREO_COUNT>
0

> <PUBCHEM_BOND_UDEF_STEREO_COUNT>
0

> <PUBCHEM_ISOTOPIC_ATOM_COUNT>
0

> <PUBCHEM_COMPONENT_COUNT>
1

> <PUBCHEM_CACTVS_TAUTO_COUNT>
2

> <PUBCHEM_CONFORMER_ID>
010972250000000C

> <PUBCHEM_MMFF94_ENERGY>
78.6892

> <PUBCHEM_FEATURE_SELFOVERLAP>
30.451

> <PUBCHEM_SHAPE_FINGERPRINT>
10369192 42 14761790618163064286
10498660 4 5256402799274067797
10670039 82 14779809560774539264
10981352 41 16484972806878024443
114674 6 17846498175174488026
11595378 159 18113334224065951217
12107183 9 17975692015461239937
12236239 1 18113336388344093005
12363563 72 16272208595755331268
12422481 6 18127677435345628709
12553582 1 17989201534295241854
12596602 18 17967817106681669370
12633257 1 18113617919260860727
12670546 56 18187650201775225541
12778500 126 18114455768490645848
12892183 10 18412261765744622333
13402501 40 17203599410897356162
13533116 47 18342728646472812059
13726171 33 16516238522797290505
13914758 101 18202005452465146261
14251751 18 14405194945047245009
14252887 29 17989491822697921636
14341114 328 17894912914555038137
14347329 18 15574700396594481792
14386348 63 16773800285534601693
14739800 52 17386582249685317112
14849402 71 18334581197135302128
14863182 85 18131348597216904366
15142526 21 17827652357075174864
15238133 3 16877666764439815826
15475509 84 18043534022010863432
173720 79 18040427829148286517
17980427 23 17531245011948445749
1813 80 16702297966338386597
19377110 9 18114458951747434655
193927 3 16917347039295224405
1979834 28 18131344198505546864
20403669 9 16271921602083053953
20511986 3 18114475495639530045
20645477 70 17632582608442481965
20775530 9 17914340331873463970
21033648 29 17489596679476081191
21065198 48 18040720233745971485
21421861 104 18261668272432393622
21521721 280 18200582619888741308
21623969 137 17560802104330580808
22224240 67 18267881484377798200
23557571 272 15574709154486498333
23559900 14 14332847016216377181
268830 7 18113341894798362125
3117164 225 18122057878101179505
341906 21 16660080010119354657
3421961 26 18271249429953238210
345986 75 18265338489363989328
3633792 109 18339382811410208703
3680242 22 18041263444647145529
3737641 26 18052536862000496318
5104073 3 18261387819969415355
5758199 1 18264491694440682088
7808743 9 15936979518018195356
86090 222 17274527828074046091
960060 61 10951764145301010985

> <PUBCHEM_SHAPE_MULTIPOLES>
465.45
14.03
2.67
1.92
9.68
2
-0.17
-1.19
8.41
-5.14
0.84
1.73
-0.32
-1.83

> <PUBCHEM_SHAPE_SELFOVERLAP>
987.88

> <PUBCHEM_SHAPE_VOLUME>
261.7

> <PUBCHEM_COORDINATE_TYPE>
2
5
10

$$$$

