17395556
  -OEChem-06241222513D

 48 49  0     1  0  0  0  0  0999 V2000
   -2.9434   -0.7792   -1.4315 O   0  0  0  0  0  0  0  0  0  0  0  0
   -0.7412   -0.7982    0.2228 N   0  0  0  0  0  0  0  0  0  0  0  0
    2.0651   -0.2827    0.0890 N   0  0  0  0  0  0  0  0  0  0  0  0
   -4.1911    0.2146    0.2566 N   0  0  0  0  0  0  0  0  0  0  0  0
   -0.2465    0.5698    0.0247 C   0  0  0  0  0  0  0  0  0  0  0  0
    0.1936   -1.5496    1.0690 C   0  0  0  0  0  0  0  0  0  0  0  0
    1.1247    0.5647   -0.6550 C   0  0  0  0  0  0  0  0  0  0  0  0
    1.5802   -1.6249    0.4251 C   0  0  0  0  0  0  0  0  0  0  0  0
   -2.0749   -0.7794    0.8227 C   0  0  0  0  0  0  0  0  0  0  0  0
    3.4349   -0.0664   -0.0982 C   0  0  0  0  0  0  0  0  0  0  0  0
   -3.0891   -0.4552   -0.2550 C   0  0  0  0  0  0  0  0  0  0  0  0
    4.1311    0.8384    0.7034 C   0  0  0  0  0  0  0  0  0  0  0  0
   -5.3196    0.6175   -0.5520 C   0  0  1  0  0  0  0  0  0  0  0  0
    4.1041   -0.7678   -1.1013 C   0  0  0  0  0  0  0  0  0  0  0  0
   -6.6189    0.6210    0.2638 C   0  0  0  0  0  0  0  0  0  0  0  0
    5.4964    1.0413    0.5022 C   0  0  0  0  0  0  0  0  0  0  0  0
   -5.0549    1.9930   -1.1553 C   0  0  0  0  0  0  0  0  0  0  0  0
    3.4399    1.6033    1.7850 C   0  0  0  0  0  0  0  0  0  0  0  0
    5.4694   -0.5649   -1.3023 C   0  0  0  0  0  0  0  0  0  0  0  0
    6.1655    0.3397   -0.5007 C   0  0  0  0  0  0  0  0  0  0  0  0
   -6.9252   -0.7349    0.8871 C   0  0  0  0  0  0  0  0  0  0  0  0
   -0.1728    1.0985    0.9850 H   0  0  0  0  0  0  0  0  0  0  0  0
   -0.9329    1.1440   -0.6088 H   0  0  0  0  0  0  0  0  0  0  0  0
   -0.1685   -2.5746    1.2145 H   0  0  0  0  0  0  0  0  0  0  0  0
    0.2734   -1.0867    2.0621 H   0  0  0  0  0  0  0  0  0  0  0  0
    1.4924    1.5965   -0.7114 H   0  0  0  0  0  0  0  0  0  0  0  0
    1.0353    0.1929   -1.6838 H   0  0  0  0  0  0  0  0  0  0  0  0
    1.5386   -2.2424   -0.4811 H   0  0  0  0  0  0  0  0  0  0  0  0
    2.2674   -2.1121    1.1277 H   0  0  0  0  0  0  0  0  0  0  0  0
   -2.3515   -1.7749    1.1931 H   0  0  0  0  0  0  0  0  0  0  0  0
   -2.1378   -0.0830    1.6672 H   0  0  0  0  0  0  0  0  0  0  0  0
   -5.4215   -0.1017   -1.3743 H   0  0  0  0  0  0  0  0  0  0  0  0
   -4.1921    0.4865    1.2355 H   0  0  0  0  0  0  0  0  0  0  0  0
    3.5770   -1.4720   -1.7399 H   0  0  0  0  0  0  0  0  0  0  0  0
   -7.4558    0.9114   -0.3827 H   0  0  0  0  0  0  0  0  0  0  0  0
   -6.5588    1.3677    1.0654 H   0  0  0  0  0  0  0  0  0  0  0  0
    6.0537    1.7433    1.1168 H   0  0  0  0  0  0  0  0  0  0  0  0
   -5.8879    2.3078   -1.7924 H   0  0  0  0  0  0  0  0  0  0  0  0
   -4.1469    1.9847   -1.7684 H   0  0  0  0  0  0  0  0  0  0  0  0
   -4.9168    2.7493   -0.3745 H   0  0  0  0  0  0  0  0  0  0  0  0
    2.7620    2.3467    1.3538 H   0  0  0  0  0  0  0  0  0  0  0  0
    2.8714    0.9300    2.4353 H   0  0  0  0  0  0  0  0  0  0  0  0
    4.1528    2.1357    2.4242 H   0  0  0  0  0  0  0  0  0  0  0  0
    5.9902   -1.1099   -2.0842 H   0  0  0  0  0  0  0  0  0  0  0  0
    7.2284    0.4981   -0.6580 H   0  0  0  0  0  0  0  0  0  0  0  0
   -7.8907   -0.7010    1.4020 H   0  0  0  0  0  0  0  0  0  0  0  0
   -6.1671   -1.0223    1.6221 H   0  0  0  0  0  0  0  0  0  0  0  0
   -6.9778   -1.5150    0.1210 H   0  0  0  0  0  0  0  0  0  0  0  0
  1 11  2  0  0  0  0
  2  5  1  0  0  0  0
  2  6  1  0  0  0  0
  2  9  1  0  0  0  0
  3  7  1  0  0  0  0
  3  8  1  0  0  0  0
  3 10  1  0  0  0  0
  4 11  1  0  0  0  0
  4 13  1  0  0  0  0
  4 33  1  0  0  0  0
  5  7  1  0  0  0  0
  5 22  1  0  0  0  0
  5 23  1  0  0  0  0
  6  8  1  0  0  0  0
  6 24  1  0  0  0  0
  6 25  1  0  0  0  0
  7 26  1  0  0  0  0
  7 27  1  0  0  0  0
  8 28  1  0  0  0  0
  8 29  1  0  0  0  0
  9 11  1  0  0  0  0
  9 30  1  0  0  0  0
  9 31  1  0  0  0  0
 10 12  1  0  0  0  0
 10 14  2  0  0  0  0
 12 16  2  0  0  0  0
 12 18  1  0  0  0  0
 13 15  1  0  0  0  0
 13 17  1  0  0  0  0
 13 32  1  0  0  0  0
 14 19  1  0  0  0  0
 14 34  1  0  0  0  0
 15 21  1  0  0  0  0
 15 35  1  0  0  0  0
 15 36  1  0  0  0  0
 16 20  1  0  0  0  0
 16 37  1  0  0  0  0
 17 38  1  0  0  0  0
 17 39  1  0  0  0  0
 17 40  1  0  0  0  0
 18 41  1  0  0  0  0
 18 42  1  0  0  0  0
 18 43  1  0  0  0  0
 19 20  2  0  0  0  0
 19 44  1  0  0  0  0
 20 45  1  0  0  0  0
 21 46  1  0  0  0  0
 21 47  1  0  0  0  0
 21 48  1  0  0  0  0
M  END
> <PUBCHEM_COMPOUND_CID>
17395556

> <PUBCHEM_CONFORMER_RMSD>
1

> <PUBCHEM_CONFORMER_DIVERSEORDER>
1
60
54
58
73
56
68
47
34
9
48
36
66
70
55
75
32
49
79
78
67
17
13
50
4
72
71
82
52
80
27
45
83
65
24
31
41
37
76
69
38
57
44
59
12
43
53
62
2
74
30
18
10
64
51
5
42
11
33
77
46
6
19
81
61
7
26
63
16
35
14
29
40
39
28
25
21
3
20
8
22
23
15

> <PUBCHEM_MMFF94_PARTIAL_CHARGES>
23
1 -0.57
10 0.1
11 0.57
12 -0.14
13 0.3
14 -0.15
16 -0.15
18 0.14
19 -0.15
2 -0.81
20 -0.15
3 -0.84
33 0.37
34 0.15
37 0.15
4 -0.73
44 0.15
45 0.15
5 0.27
6 0.27
7 0.37
8 0.37
9 0.33

> <PUBCHEM_EFFECTIVE_ROTOR_COUNT>
7.2

> <PUBCHEM_PHARMACOPHORE_FEATURES>
7
1 1 acceptor
1 2 cation
1 21 hydrophobe
1 3 cation
1 4 donor
6 10 12 14 16 19 20 rings
6 2 3 5 6 7 8 rings

> <PUBCHEM_HEAVY_ATOM_COUNT>
21

> <PUBCHEM_ATOM_DEF_STEREO_COUNT>
0

> <PUBCHEM_ATOM_UDEF_STEREO_COUNT>
1

> <PUBCHEM_BOND_DEF_STEREO_COUNT>
0

> <PUBCHEM_BOND_UDEF_STEREO_COUNT>
0

> <PUBCHEM_ISOTOPIC_ATOM_COUNT>
0

> <PUBCHEM_COMPONENT_COUNT>
1

> <PUBCHEM_CACTVS_TAUTO_COUNT>
2

> <PUBCHEM_CONFORMER_ID>
01096F6400000001

> <PUBCHEM_MMFF94_ENERGY>
56.5828

> <PUBCHEM_FEATURE_SELFOVERLAP>
35.523

> <PUBCHEM_SHAPE_FINGERPRINT>
10 15 17775282729506885521
10354089 29 15626222416424326220
10613725 11 15864069879914893131
11315181 36 9439399147312017223
11646440 116 18411409605895025073
11796584 16 15719111336076233454
12236239 1 17312821572112284415
12730499 353 18409443704610672898
12892183 10 12895083937183742910
12916748 109 18272931634966163421
12969540 114 18335152998055717871
13073987 5 17917714656002144979
13533116 47 18342180024578230834
14251764 18 16271924895911363631
14251764 46 17846498131823374467
14341114 328 15697998535147900944
14933364 13 18259981574609227321
15183329 4 17240765107645415613
1601671 61 17775287179314381468
17492 89 14906803231155297328
17834076 25 18131631188104259894
19377110 9 16056884636965966715
200 152 16370722634507052546
20157964 124 17458344122519120584
20281389 69 17917713508592060788
20645477 56 18410015425324714263
21033648 29 18337397015742064816
21623969 137 12031789175379048440
220451 1 15140679194068684693
221357 26 17822291309981567448
22224240 67 17203608168973670515
22289505 5 18113620084573568576
23035841 295 5545197225339182469
23198884 109 17240762891853702067
23402539 116 18410015412123269038
23424782 7 18261672567901343195
23536379 177 17240480321132927055
23559900 14 16950854621755010266
249057 3 17385723582595807614
2916195 48 18343588434464122737
293599 30 18343302578304284951
29717793 49 15574708097782274244
3004659 81 15213018254509245054
34797466 226 17894909615946418773
3545911 37 18411416215891521051
4073 2 18261674757923246606
4340502 62 13830130585939214240
465052 167 7420942089040295332
5104073 3 17845375625774308673
5385378 56 17917430985654120395
542803 24 17060620001242404084
559249 180 6699802073964396013
633830 44 18338809905305583854
7495541 125 15482379876930069549

> <PUBCHEM_SHAPE_MULTIPOLES>
411.36
17.71
1.51
1.28
14.75
0.14
-0.07
4.35
1.2
0.48
-0.17
-0.73
0.16
1.71

> <PUBCHEM_SHAPE_SELFOVERLAP>
835.704

> <PUBCHEM_SHAPE_VOLUME>
240.4

> <PUBCHEM_COORDINATE_TYPE>
2
5
10

$$$$

