17395888
  -OEChem-06241222533D

 47 49  0     1  0  0  0  0  0999 V2000
    4.5653   -1.7197    0.5238 S   0  0  0  0  0  0  0  0  0  0  0  0
    5.6600   -2.0892   -0.3490 O   0  0  0  0  0  0  0  0  0  0  0  0
    3.9962   -2.6413    1.4850 O   0  0  0  0  0  0  0  0  0  0  0  0
    0.8642    0.1776    0.9601 O   0  0  0  0  0  0  0  0  0  0  0  0
   -3.0724    1.5943    1.8668 O   0  0  0  0  0  0  0  0  0  0  0  0
    2.1845    1.1719   -0.6881 N   0  0  0  0  0  0  0  0  0  0  0  0
    3.3955    0.4774   -0.3510 C   0  0  2  0  0  0  0  0  0  0  0  0
    3.2425   -1.0387   -0.4665 C   0  0  0  0  0  0  0  0  0  0  0  0
    3.8327    0.7484    1.0908 C   0  0  0  0  0  0  0  0  0  0  0  0
    4.9927   -0.2020    1.3643 C   0  0  0  0  0  0  0  0  0  0  0  0
    2.2804    2.1131   -1.8077 C   0  0  0  0  0  0  0  0  0  0  0  0
    0.9790    0.9618    0.0138 C   0  0  0  0  0  0  0  0  0  0  0  0
   -0.2121    1.7783   -0.4718 C   0  0  0  0  0  0  0  0  0  0  0  0
    1.9746    1.4373   -3.1284 C   0  0  0  0  0  0  0  0  0  0  0  0
   -1.4654    1.4806    0.2961 C   0  0  0  0  0  0  0  0  0  0  0  0
   -2.4423    0.4948   -0.0034 C   0  0  0  0  0  0  0  0  0  0  0  0
   -3.4085    0.6056    0.9913 C   0  0  0  0  0  0  0  0  0  0  0  0
   -1.8946    2.1179    1.4373 C   0  0  0  0  0  0  0  0  0  0  0  0
   -2.6166   -0.4776   -1.0036 C   0  0  0  0  0  0  0  0  0  0  0  0
   -3.7551   -1.2937   -0.9569 C   0  0  0  0  0  0  0  0  0  0  0  0
   -4.5502   -0.1905    1.0640 C   0  0  0  0  0  0  0  0  0  0  0  0
   -4.7033   -1.1506    0.0593 C   0  0  0  0  0  0  0  0  0  0  0  0
   -3.9337   -2.3265   -2.0237 C   0  0  0  0  0  0  0  0  0  0  0  0
   -5.9134   -2.0292    0.0974 C   0  0  0  0  0  0  0  0  0  0  0  0
    4.2070    0.7913   -1.0210 H   0  0  0  0  0  0  0  0  0  0  0  0
    3.3535   -1.3808   -1.4991 H   0  0  0  0  0  0  0  0  0  0  0  0
    2.3061   -1.4324   -0.0666 H   0  0  0  0  0  0  0  0  0  0  0  0
    4.1357    1.7914    1.2327 H   0  0  0  0  0  0  0  0  0  0  0  0
    3.0393    0.5469    1.8169 H   0  0  0  0  0  0  0  0  0  0  0  0
    5.1356   -0.3954    2.4294 H   0  0  0  0  0  0  0  0  0  0  0  0
    5.9206    0.1748    0.9240 H   0  0  0  0  0  0  0  0  0  0  0  0
    3.2861    2.5492   -1.8266 H   0  0  0  0  0  0  0  0  0  0  0  0
    1.6011    2.9564   -1.6678 H   0  0  0  0  0  0  0  0  0  0  0  0
    0.0132    2.8429   -0.3414 H   0  0  0  0  0  0  0  0  0  0  0  0
   -0.3941    1.5867   -1.5322 H   0  0  0  0  0  0  0  0  0  0  0  0
    0.9838    0.9751   -3.1397 H   0  0  0  0  0  0  0  0  0  0  0  0
    2.7040    0.6477   -3.3385 H   0  0  0  0  0  0  0  0  0  0  0  0
    2.0213    2.1633   -3.9460 H   0  0  0  0  0  0  0  0  0  0  0  0
   -1.4968    2.9222    2.0390 H   0  0  0  0  0  0  0  0  0  0  0  0
   -1.8783   -0.5886   -1.7925 H   0  0  0  0  0  0  0  0  0  0  0  0
   -5.2726   -0.0620    1.8620 H   0  0  0  0  0  0  0  0  0  0  0  0
   -3.1080   -2.3131   -2.7438 H   0  0  0  0  0  0  0  0  0  0  0  0
   -4.8547   -2.1445   -2.5870 H   0  0  0  0  0  0  0  0  0  0  0  0
   -3.9638   -3.3304   -1.5879 H   0  0  0  0  0  0  0  0  0  0  0  0
   -6.5153   -1.8970   -0.8075 H   0  0  0  0  0  0  0  0  0  0  0  0
   -5.6241   -3.0807    0.1940 H   0  0  0  0  0  0  0  0  0  0  0  0
   -6.5591   -1.7932    0.9507 H   0  0  0  0  0  0  0  0  0  0  0  0
  1  2  2  0  0  0  0
  1  3  2  0  0  0  0
  1  8  1  0  0  0  0
  1 10  1  0  0  0  0
  4 12  2  0  0  0  0
  5 17  1  0  0  0  0
  5 18  1  0  0  0  0
  6  7  1  0  0  0  0
  6 11  1  0  0  0  0
  6 12  1  0  0  0  0
  7  8  1  0  0  0  0
  7  9  1  0  0  0  0
  7 25  1  0  0  0  0
  8 26  1  0  0  0  0
  8 27  1  0  0  0  0
  9 10  1  0  0  0  0
  9 28  1  0  0  0  0
  9 29  1  0  0  0  0
 10 30  1  0  0  0  0
 10 31  1  0  0  0  0
 11 14  1  0  0  0  0
 11 32  1  0  0  0  0
 11 33  1  0  0  0  0
 12 13  1  0  0  0  0
 13 15  1  0  0  0  0
 13 34  1  0  0  0  0
 13 35  1  0  0  0  0
 14 36  1  0  0  0  0
 14 37  1  0  0  0  0
 14 38  1  0  0  0  0
 15 16  1  0  0  0  0
 15 18  2  0  0  0  0
 16 17  2  0  0  0  0
 16 19  1  0  0  0  0
 17 21  1  0  0  0  0
 18 39  1  0  0  0  0
 19 20  2  0  0  0  0
 19 40  1  0  0  0  0
 20 22  1  0  0  0  0
 20 23  1  0  0  0  0
 21 22  2  0  0  0  0
 21 41  1  0  0  0  0
 22 24  1  0  0  0  0
 23 42  1  0  0  0  0
 23 43  1  0  0  0  0
 23 44  1  0  0  0  0
 24 45  1  0  0  0  0
 24 46  1  0  0  0  0
 24 47  1  0  0  0  0
M  END
> <PUBCHEM_COMPOUND_CID>
17395888

> <PUBCHEM_CONFORMER_RMSD>
0.8

> <PUBCHEM_CONFORMER_DIVERSEORDER>
1
246
136
315
114
217
237
262
264
92
118
6
151
74
242
103
280
12
211
57
143
276
147
51
233
243
96
18
68
87
11
85
222
130
203
249
298
180
281
267
64
288
104
220
81
179
158
125
177
254
194
189
167
106
278
292
72
121
188
53
285
132
290
181
60
165
14
127
93
234
110
225
145
77
94
111
215
75
202
61
138
135
226
26
208
40
235
123
24
207
255
296
212
73
139
250
162
266
223
28
198
91
244
36
140
109
301
284
275
204
313
115
253
209
122
67
43
25
197
47
261
45
182
41
141
309
155
283
270
119
129
238
146
231
279
97
88
303
30
154
54
173
236
205
116
229
187
269
297
193
232
174
21
117
37
50
55
295
56
184
216
286
271
230
150
248
42
33
32
164
257
277
29
16
294
149
128
38
39
260
31
221
258
273
153
287
66
171
70
82
305
268
71
59
224
272
144
148
228
252
274
105
314
78
172
46
219
58
195
10
241
84
265
291
34
152
263
160
200
251
63
69
113
86
44
196
190
282
23
302
131
245
142
76
108
178
300
163
19
157
289
7
183
186
259
317
316
17
247
307
293
176
22
168
15
49
27
214
185
65
199
169
156
213
8
170
98
191
35
95
311
9
99
89
133
124
218
306
3
101
240
192
5
107
308
137
166
100
102
112
2
4
256
227
134
159
161
175
13
62
310
90
20
304
80
210
312
120
83
48
126
79
239
299
206
52
201

> <PUBCHEM_MMFF94_PARTIAL_CHARGES>
24
1 1.09
10 0.11
11 0.3
12 0.57
13 0.24
15 -0.18
17 0.14
18 -0.01
19 -0.15
2 -0.65
20 -0.14
21 -0.15
22 -0.14
23 0.14
24 0.14
3 -0.65
39 0.15
4 -0.57
40 0.15
41 0.15
5 -0.28
6 -0.66
7 0.3
8 0.11

> <PUBCHEM_EFFECTIVE_ROTOR_COUNT>
5.8

> <PUBCHEM_PHARMACOPHORE_FEATURES>
7
1 2 acceptor
1 3 acceptor
1 4 acceptor
1 5 acceptor
5 1 7 8 9 10 rings
5 5 15 16 17 18 rings
6 16 17 19 20 21 22 rings

> <PUBCHEM_HEAVY_ATOM_COUNT>
24

> <PUBCHEM_ATOM_DEF_STEREO_COUNT>
0

> <PUBCHEM_ATOM_UDEF_STEREO_COUNT>
1

> <PUBCHEM_BOND_DEF_STEREO_COUNT>
0

> <PUBCHEM_BOND_UDEF_STEREO_COUNT>
0

> <PUBCHEM_ISOTOPIC_ATOM_COUNT>
0

> <PUBCHEM_COMPONENT_COUNT>
1

> <PUBCHEM_CACTVS_TAUTO_COUNT>
1

> <PUBCHEM_CONFORMER_ID>
010970B000000001

> <PUBCHEM_MMFF94_ENERGY>
48.082

> <PUBCHEM_FEATURE_SELFOVERLAP>
35.639

> <PUBCHEM_SHAPE_FINGERPRINT>
10042902 136 18338789139476727422
10319926 262 17168417276897473732
10928967 22 18199187485066590442
11315621 136 17916572125781985234
11370993 144 14852422416921828525
11578080 2 18266478554501391189
12236239 1 18411415090552171209
12363563 72 17346597517087732828
12553582 1 17822843170608674061
12596602 18 18186522124752279794
12616971 3 18201708553654272649
12633257 1 16153716375218846619
12788726 201 17969200279989233041
12839892 36 17821728351301029095
12892183 10 17822020839006247256
13009979 54 18335692866855169304
13167823 11 18334015020969890098
13533116 47 18338797818856273321
13583140 156 17677354808352893744
14178342 30 17895745322151241381
1420 369 18411420613526614554
14420673 8 17608076887068510822
14848178 5 18341337725229265395
14848178 96 8069737525255075970
15003188 33 12895081764230698928
15188451 53 18335428975442705851
15475509 35 17906162959419090715
15806764 133 14907882861100106157
15842332 3 18267280132278186845
17349148 13 18343863316359968690
17357779 13 17060623330195694764
17780758 139 17968381263663254424
17857418 61 18334863817886780163
1813 80 18059852909096453828
18222031 100 17989205975766256880
19377110 9 18187368679944420976
19784866 240 18343301466071038925
200 152 18059860541142958465
20554085 129 16952814124034152521
20645477 70 17418092075146286420
20693207 138 15553862426313187928
21344244 181 16763128692158755036
23366157 5 17611472930910981361
235170 7 14907885141907127258
23557571 272 16950546788316272433
23559900 14 14045740383212239660
23598288 3 18198892789900896437
2838139 119 10230882575582289498
3004659 81 18272932696002329767
34797466 226 15984259587960222991
351380 3 18411698802943287266
3882209 13 15073163489508304927
46194498 28 16701738237610443726
463206 1 18264494988068824115
49207404 50 15719386252717315516
5081480 168 15482374435085018045
5104073 3 17749113322321650602
5281201 14 16487259820400860965
559249 180 18337673122278719209
5924683 9 17894639157977404169
6823239 73 14045735976649556574
7970288 3 18265054635535383795

> <PUBCHEM_SHAPE_MULTIPOLES>
469.3
12.85
2.66
2.02
0.08
0.74
-1.22
9.94
2.28
-0.55
-0.22
-0.49
-0.65
-2.91

> <PUBCHEM_SHAPE_SELFOVERLAP>
987.991

> <PUBCHEM_SHAPE_VOLUME>
269.4

> <PUBCHEM_COORDINATE_TYPE>
2
5
10

$$$$

