17395724
  -OEChem-06241222522D

 36 39  0     0  0  0  0  0  0999 V2000
    4.9718    0.4887    0.0000 S   0  0  0  0  0  0  0  0  0  0  0  0
    6.8069   -0.5000    0.0000 O   0  0  0  0  0  0  0  0  0  0  0  0
    9.4050    2.0000    0.0000 O   0  0  0  0  0  0  0  0  0  0  0  0
    5.9409   -2.0000    0.0000 O   0  0  0  0  0  0  0  0  0  0  0  0
    9.4050   -1.0000    0.0000 N   0  0  0  0  0  0  0  0  0  0  0  0
    8.5390    0.5000    0.0000 N   0  0  0  0  0  0  0  0  0  0  0  0
   10.2710   -0.5000    0.0000 C   0  0  0  0  0  0  0  0  0  0  0  0
   10.2710    0.5000    0.0000 C   0  0  0  0  0  0  0  0  0  0  0  0
    3.5000   -0.1681    0.0000 C   0  0  0  0  0  0  0  0  0  0  0  0
    8.5390   -0.5000    0.0000 C   0  0  0  0  0  0  0  0  0  0  0  0
    4.0000    0.6979    0.0000 C   0  0  0  0  0  0  0  0  0  0  0  0
    7.6730   -1.0000    0.0000 C   0  0  0  0  0  0  0  0  0  0  0  0
    5.0749   -0.5000    0.0000 C   0  0  0  0  0  0  0  0  0  0  0  0
    4.1671   -0.9051    0.0000 C   0  0  0  0  0  0  0  0  0  0  0  0
   11.1650   -1.0347    0.0000 C   0  0  0  0  0  0  0  0  0  0  0  0
    9.4050    1.0000    0.0000 C   0  0  0  0  0  0  0  0  0  0  0  0
   11.1650    1.0347    0.0000 C   0  0  0  0  0  0  0  0  0  0  0  0
    2.5000   -0.1681    0.0000 C   0  0  0  0  0  0  0  0  0  0  0  0
    3.5000    1.5640    0.0000 C   0  0  0  0  0  0  0  0  0  0  0  0
    5.9409   -1.0000    0.0000 C   0  0  0  0  0  0  0  0  0  0  0  0
   12.0710   -0.5208    0.0000 C   0  0  0  0  0  0  0  0  0  0  0  0
   12.0710    0.5208    0.0000 C   0  0  0  0  0  0  0  0  0  0  0  0
    2.0000    0.6979    0.0000 C   0  0  0  0  0  0  0  0  0  0  0  0
    2.5000    1.5640    0.0000 C   0  0  0  0  0  0  0  0  0  0  0  0
    9.4050   -1.6200    0.0000 H   0  0  0  0  0  0  0  0  0  0  0  0
    7.2744   -1.4750    0.0000 H   0  0  0  0  0  0  0  0  0  0  0  0
    8.0715   -1.4750    0.0000 H   0  0  0  0  0  0  0  0  0  0  0  0
    4.0392   -1.5118    0.0000 H   0  0  0  0  0  0  0  0  0  0  0  0
   11.1578   -1.6546    0.0000 H   0  0  0  0  0  0  0  0  0  0  0  0
   11.1578    1.6546    0.0000 H   0  0  0  0  0  0  0  0  0  0  0  0
    2.1900   -0.7050    0.0000 H   0  0  0  0  0  0  0  0  0  0  0  0
    3.8100    2.1009    0.0000 H   0  0  0  0  0  0  0  0  0  0  0  0
   12.6068   -0.8329    0.0000 H   0  0  0  0  0  0  0  0  0  0  0  0
   12.6068    0.8329    0.0000 H   0  0  0  0  0  0  0  0  0  0  0  0
    1.3800    0.6979    0.0000 H   0  0  0  0  0  0  0  0  0  0  0  0
    2.1900    2.1009    0.0000 H   0  0  0  0  0  0  0  0  0  0  0  0
  1 11  1  0  0  0  0
  1 13  1  0  0  0  0
  2 12  1  0  0  0  0
  2 20  1  0  0  0  0
  3 16  2  0  0  0  0
  4 20  2  0  0  0  0
  5  7  1  0  0  0  0
  5 10  1  0  0  0  0
  5 25  1  0  0  0  0
  6 10  2  0  0  0  0
  6 16  1  0  0  0  0
  7  8  1  0  0  0  0
  7 15  2  0  0  0  0
  8 16  1  0  0  0  0
  8 17  2  0  0  0  0
  9 11  1  0  0  0  0
  9 14  1  0  0  0  0
  9 18  2  0  0  0  0
 10 12  1  0  0  0  0
 11 19  2  0  0  0  0
 12 26  1  0  0  0  0
 12 27  1  0  0  0  0
 13 14  2  0  0  0  0
 13 20  1  0  0  0  0
 14 28  1  0  0  0  0
 15 21  1  0  0  0  0
 15 29  1  0  0  0  0
 17 22  1  0  0  0  0
 17 30  1  0  0  0  0
 18 23  1  0  0  0  0
 18 31  1  0  0  0  0
 19 24  1  0  0  0  0
 19 32  1  0  0  0  0
 21 22  2  0  0  0  0
 21 33  1  0  0  0  0
 22 34  1  0  0  0  0
 23 24  2  0  0  0  0
 23 35  1  0  0  0  0
 24 36  1  0  0  0  0
M  END
> <PUBCHEM_COMPOUND_CID>
17395724

> <PUBCHEM_COMPOUND_CANONICALIZED>
1

> <PUBCHEM_CACTVS_COMPLEXITY>
550

> <PUBCHEM_CACTVS_HBOND_ACCEPTOR>
4

> <PUBCHEM_CACTVS_HBOND_DONOR>
1

> <PUBCHEM_CACTVS_ROTATABLE_BOND>
4

> <PUBCHEM_CACTVS_SUBSKEYS>
AAADccB7MABAAAAAAAAAAAAAAAAAASAAAAAwYIAAAAAAAEiB9AAAHgQQAAAADAih2AIxycLABAisAifyfASDAIElChBJiBkQbMgKJjrg/ZmHMYhk0AH46ceYyKCOAAAAAAAGAAAAAAAAAAwAAAAAAAAAAA==

> <PUBCHEM_IUPAC_OPENEYE_NAME>
(4-oxo-1H-quinazolin-2-yl)methyl benzothiophene-2-carboxylate

> <PUBCHEM_IUPAC_CAS_NAME>
1-benzothiophene-2-carboxylic acid (4-oxo-1H-quinazolin-2-yl)methyl ester

> <PUBCHEM_IUPAC_NAME>
(4-oxo-1H-quinazolin-2-yl)methyl 1-benzothiophene-2-carboxylate

> <PUBCHEM_IUPAC_SYSTEMATIC_NAME>
(4-oxidanylidene-1H-quinazolin-2-yl)methyl 1-benzothiophene-2-carboxylate

> <PUBCHEM_IUPAC_TRADITIONAL_NAME>
benzothiophene-2-carboxylic acid (4-keto-1H-quinazolin-2-yl)methyl ester

> <PUBCHEM_IUPAC_INCHI>
InChI=1S/C18H12N2O3S/c21-17-12-6-2-3-7-13(12)19-16(20-17)10-23-18(22)15-9-11-5-1-4-8-14(11)24-15/h1-9H,10H2,(H,19,20,21)

> <PUBCHEM_IUPAC_INCHIKEY>
ORKYDUCLUVANSL-UHFFFAOYSA-N

> <PUBCHEM_XLOGP3_AA>
3.6

> <PUBCHEM_EXACT_MASS>
336.056863

> <PUBCHEM_MOLECULAR_FORMULA>
C18H12N2O3S

> <PUBCHEM_MOLECULAR_WEIGHT>
336.36448

> <PUBCHEM_OPENEYE_CAN_SMILES>
C1=CC=C2C(=C1)C=C(S2)C(=O)OCC3=NC(=O)C4=CC=CC=C4N3

> <PUBCHEM_OPENEYE_ISO_SMILES>
C1=CC=C2C(=C1)C=C(S2)C(=O)OCC3=NC(=O)C4=CC=CC=C4N3

> <PUBCHEM_CACTVS_TPSA>
96

> <PUBCHEM_MONOISOTOPIC_WEIGHT>
336.056863

> <PUBCHEM_TOTAL_CHARGE>
0

> <PUBCHEM_HEAVY_ATOM_COUNT>
24

> <PUBCHEM_ATOM_DEF_STEREO_COUNT>
0

> <PUBCHEM_ATOM_UDEF_STEREO_COUNT>
0

> <PUBCHEM_BOND_DEF_STEREO_COUNT>
0

> <PUBCHEM_BOND_UDEF_STEREO_COUNT>
0

> <PUBCHEM_ISOTOPIC_ATOM_COUNT>
0

> <PUBCHEM_COMPONENT_COUNT>
1

> <PUBCHEM_CACTVS_TAUTO_COUNT>
10

> <PUBCHEM_COORDINATE_TYPE>
1
5
255

> <PUBCHEM_BONDANNOTATIONS>
1  11  8
1  13  8
11  19  8
13  14  8
15  21  8
17  22  8
18  23  8
19  24  8
21  22  8
23  24  8
5  10  8
5  7  8
6  10  8
6  16  8
7  15  8
7  8  8
8  16  8
8  17  8
9  11  8
9  14  8
9  18  8

$$$$

