17395597
  -OEChem-06241222512D

 61 64  0     1  0  0  0  0  0999 V2000
    2.9511    4.3295    0.0000 S   0  0  0  0  0  0  0  0  0  0  0  0
    4.6222   -0.0667    0.0000 S   0  0  0  0  0  0  0  0  0  0  0  0
    2.3633    5.1385    0.0000 O   0  0  0  0  0  0  0  0  0  0  0  0
    2.0000    4.0205    0.0000 O   0  0  0  0  0  0  0  0  0  0  0  0
    3.4466    1.5513    0.0000 O   0  0  0  0  0  0  0  0  0  0  0  0
    4.8479    2.5694    0.0000 N   0  0  0  0  0  0  0  0  0  0  0  0
    5.7100   -2.4146    0.0000 N   0  0  0  0  0  0  0  0  0  0  0  0
    6.2100   -0.8757    0.0000 N   0  0  0  0  0  0  0  0  0  0  0  0
    4.9009   -1.8268    0.0000 N   0  0  0  0  0  0  0  0  0  0  0  0
    4.2601    3.3784    0.0000 C   0  0  3  0  0  0  0  0  0  0  0  0
    3.2601    3.3784    0.0000 C   0  0  0  0  0  0  0  0  0  0  0  0
    4.5691    4.3295    0.0000 C   0  0  0  0  0  0  0  0  0  0  0  0
    3.7601    4.9173    0.0000 C   0  0  0  0  0  0  0  0  0  0  0  0
    5.8424    2.6739    0.0000 C   0  0  0  0  0  0  0  0  0  0  0  0
    4.4411    1.6559    0.0000 C   0  0  0  0  0  0  0  0  0  0  0  0
    6.2491    3.5875    0.0000 C   0  0  0  0  0  0  0  0  0  0  0  0
    5.0289    0.8468    0.0000 C   0  0  0  0  0  0  0  0  0  0  0  0
    7.2436    3.6920    0.0000 C   0  0  0  0  0  0  0  0  0  0  0  0
    5.6613    4.3965    0.0000 C   0  0  0  0  0  0  0  0  0  0  0  0
    7.6504    4.6056    0.0000 C   0  0  0  0  0  0  0  0  0  0  0  0
    6.0681    5.3100    0.0000 C   0  0  0  0  0  0  0  0  0  0  0  0
    5.2100   -0.8757    0.0000 C   0  0  0  0  0  0  0  0  0  0  0  0
    7.0626    5.4146    0.0000 C   0  0  0  0  0  0  0  0  0  0  0  0
    7.4700   -2.1358    0.0000 C   0  0  0  0  0  0  0  0  0  0  0  0
    6.5190   -1.8268    0.0000 C   0  0  0  0  0  0  0  0  0  0  0  0
    8.2132   -1.4667    0.0000 C   0  0  0  0  0  0  0  0  0  0  0  0
    7.6779   -3.1140    0.0000 C   0  0  0  0  0  0  0  0  0  0  0  0
    5.7100   -3.4146    0.0000 C   0  0  0  0  0  0  0  0  0  0  0  0
    4.8439   -3.9146    0.0000 C   0  0  0  0  0  0  0  0  0  0  0  0
    6.5760   -3.9146    0.0000 C   0  0  0  0  0  0  0  0  0  0  0  0
    4.8439   -4.9146    0.0000 C   0  0  0  0  0  0  0  0  0  0  0  0
    6.5760   -4.9146    0.0000 C   0  0  0  0  0  0  0  0  0  0  0  0
    5.7100   -5.4146    0.0000 C   0  0  0  0  0  0  0  0  0  0  0  0
    4.8724    3.4754    0.0000 H   0  0  0  0  0  0  0  0  0  0  0  0
    2.6536    3.2495    0.0000 H   0  0  0  0  0  0  0  0  0  0  0  0
    3.3249    2.7618    0.0000 H   0  0  0  0  0  0  0  0  0  0  0  0
    5.1355    4.0773    0.0000 H   0  0  0  0  0  0  0  0  0  0  0  0
    4.8791    4.8664    0.0000 H   0  0  0  0  0  0  0  0  0  0  0  0
    4.1749    5.3780    0.0000 H   0  0  0  0  0  0  0  0  0  0  0  0
    3.3452    5.3780    0.0000 H   0  0  0  0  0  0  0  0  0  0  0  0
    5.7991    2.0554    0.0000 H   0  0  0  0  0  0  0  0  0  0  0  0
    6.4440    2.5239    0.0000 H   0  0  0  0  0  0  0  0  0  0  0  0
    5.5429    0.5001    0.0000 H   0  0  0  0  0  0  0  0  0  0  0  0
    5.4596    1.2928    0.0000 H   0  0  0  0  0  0  0  0  0  0  0  0
    7.6081    3.1904    0.0000 H   0  0  0  0  0  0  0  0  0  0  0  0
    5.0447    4.3317    0.0000 H   0  0  0  0  0  0  0  0  0  0  0  0
    8.2670    4.6704    0.0000 H   0  0  0  0  0  0  0  0  0  0  0  0
    5.7036    5.8116    0.0000 H   0  0  0  0  0  0  0  0  0  0  0  0
    7.0093   -2.5507    0.0000 H   0  0  0  0  0  0  0  0  0  0  0  0
    7.3148    5.9810    0.0000 H   0  0  0  0  0  0  0  0  0  0  0  0
    8.6280   -1.9274    0.0000 H   0  0  0  0  0  0  0  0  0  0  0  0
    8.6739   -1.0518    0.0000 H   0  0  0  0  0  0  0  0  0  0  0  0
    7.7983   -1.0059    0.0000 H   0  0  0  0  0  0  0  0  0  0  0  0
    7.0715   -3.2428    0.0000 H   0  0  0  0  0  0  0  0  0  0  0  0
    7.8068   -3.7204    0.0000 H   0  0  0  0  0  0  0  0  0  0  0  0
    8.2844   -2.9850    0.0000 H   0  0  0  0  0  0  0  0  0  0  0  0
    4.3070   -3.6046    0.0000 H   0  0  0  0  0  0  0  0  0  0  0  0
    7.1129   -3.6046    0.0000 H   0  0  0  0  0  0  0  0  0  0  0  0
    4.3070   -5.2246    0.0000 H   0  0  0  0  0  0  0  0  0  0  0  0
    7.1129   -5.2246    0.0000 H   0  0  0  0  0  0  0  0  0  0  0  0
    5.7100   -6.0346    0.0000 H   0  0  0  0  0  0  0  0  0  0  0  0
  1  3  2  0  0  0  0
  1  4  2  0  0  0  0
  1 11  1  0  0  0  0
  1 13  1  0  0  0  0
  2 17  1  0  0  0  0
  2 22  1  0  0  0  0
  5 15  2  0  0  0  0
  6 10  1  0  0  0  0
  6 14  1  0  0  0  0
  6 15  1  0  0  0  0
  7  9  1  0  0  0  0
  7 25  1  0  0  0  0
  7 28  1  0  0  0  0
  8 22  1  0  0  0  0
  8 25  2  0  0  0  0
  9 22  2  0  0  0  0
 10 11  1  0  0  0  0
 10 12  1  0  0  0  0
 10 34  1  0  0  0  0
 11 35  1  0  0  0  0
 11 36  1  0  0  0  0
 12 13  1  0  0  0  0
 12 37  1  0  0  0  0
 12 38  1  0  0  0  0
 13 39  1  0  0  0  0
 13 40  1  0  0  0  0
 14 16  1  0  0  0  0
 14 41  1  0  0  0  0
 14 42  1  0  0  0  0
 15 17  1  0  0  0  0
 16 18  2  0  0  0  0
 16 19  1  0  0  0  0
 17 43  1  0  0  0  0
 17 44  1  0  0  0  0
 18 20  1  0  0  0  0
 18 45  1  0  0  0  0
 19 21  2  0  0  0  0
 19 46  1  0  0  0  0
 20 23  2  0  0  0  0
 20 47  1  0  0  0  0
 21 23  1  0  0  0  0
 21 48  1  0  0  0  0
 23 50  1  0  0  0  0
 24 25  1  0  0  0  0
 24 26  1  0  0  0  0
 24 27  1  0  0  0  0
 24 49  1  0  0  0  0
 26 51  1  0  0  0  0
 26 52  1  0  0  0  0
 26 53  1  0  0  0  0
 27 54  1  0  0  0  0
 27 55  1  0  0  0  0
 27 56  1  0  0  0  0
 28 29  2  0  0  0  0
 28 30  1  0  0  0  0
 29 31  1  0  0  0  0
 29 57  1  0  0  0  0
 30 32  2  0  0  0  0
 30 58  1  0  0  0  0
 31 33  2  0  0  0  0
 31 59  1  0  0  0  0
 32 33  1  0  0  0  0
 32 60  1  0  0  0  0
 33 61  1  0  0  0  0
M  END
> <PUBCHEM_COMPOUND_CID>
17395597

> <PUBCHEM_COMPOUND_CANONICALIZED>
1

> <PUBCHEM_CACTVS_COMPLEXITY>
745

> <PUBCHEM_CACTVS_HBOND_ACCEPTOR>
6

> <PUBCHEM_CACTVS_HBOND_DONOR>
0

> <PUBCHEM_CACTVS_ROTATABLE_BOND>
8

> <PUBCHEM_CACTVS_SUBSKEYS>
AAADceB7sABgAAAAAAAAAAAAAAAAAWJAAAAwYAAAAAAAAAAB0AAAHgQIAAAADSjF2wSz0IcIEAqqAidydHDS1CthArAdiAA4ZIiIKCLgmZGEIAhojgLoyCcQgAAOAAAAAAAAAAAAAAAAAAAAAAAAAAAAAA==

> <PUBCHEM_IUPAC_OPENEYE_NAME>
N-benzyl-N-(1,1-dioxothiolan-3-yl)-2-[(5-isopropyl-1-phenyl-1,2,4-triazol-3-yl)sulfanyl]acetamide

> <PUBCHEM_IUPAC_CAS_NAME>
N-(1,1-dioxo-3-thiolanyl)-N-(phenylmethyl)-2-[(1-phenyl-5-propan-2-yl-1,2,4-triazol-3-yl)thio]acetamide

> <PUBCHEM_IUPAC_NAME>
N-benzyl-N-(1,1-dioxothiolan-3-yl)-2-[(1-phenyl-5-propan-2-yl-1,2,4-triazol-3-yl)sulfanyl]acetamide

> <PUBCHEM_IUPAC_SYSTEMATIC_NAME>
N-[1,1-bis(oxidanylidene)thiolan-3-yl]-N-(phenylmethyl)-2-[(1-phenyl-5-propan-2-yl-1,2,4-triazol-3-yl)sulfanyl]ethanamide

> <PUBCHEM_IUPAC_TRADITIONAL_NAME>
N-benzyl-N-(1,1-diketothiolan-3-yl)-2-[(5-isopropyl-1-phenyl-1,2,4-triazol-3-yl)thio]acetamide

> <PUBCHEM_IUPAC_INCHI>
InChI=1S/C24H28N4O3S2/c1-18(2)23-25-24(26-28(23)20-11-7-4-8-12-20)32-16-22(29)27(15-19-9-5-3-6-10-19)21-13-14-33(30,31)17-21/h3-12,18,21H,13-17H2,1-2H3

> <PUBCHEM_IUPAC_INCHIKEY>
ROLURAXVIIFGJU-UHFFFAOYSA-N

> <PUBCHEM_XLOGP3_AA>
4.3

> <PUBCHEM_EXACT_MASS>
484.160283

> <PUBCHEM_MOLECULAR_FORMULA>
C24H28N4O3S2

> <PUBCHEM_MOLECULAR_WEIGHT>
484.63412

> <PUBCHEM_OPENEYE_CAN_SMILES>
CC(C)C1=NC(=NN1C2=CC=CC=C2)SCC(=O)N(CC3=CC=CC=C3)C4CCS(=O)(=O)C4

> <PUBCHEM_OPENEYE_ISO_SMILES>
CC(C)C1=NC(=NN1C2=CC=CC=C2)SCC(=O)N(CC3=CC=CC=C3)C4CCS(=O)(=O)C4

> <PUBCHEM_CACTVS_TPSA>
119

> <PUBCHEM_MONOISOTOPIC_WEIGHT>
484.160283

> <PUBCHEM_TOTAL_CHARGE>
0

> <PUBCHEM_HEAVY_ATOM_COUNT>
33

> <PUBCHEM_ATOM_DEF_STEREO_COUNT>
0

> <PUBCHEM_ATOM_UDEF_STEREO_COUNT>
1

> <PUBCHEM_BOND_DEF_STEREO_COUNT>
0

> <PUBCHEM_BOND_UDEF_STEREO_COUNT>
0

> <PUBCHEM_ISOTOPIC_ATOM_COUNT>
0

> <PUBCHEM_COMPONENT_COUNT>
1

> <PUBCHEM_CACTVS_TAUTO_COUNT>
3

> <PUBCHEM_COORDINATE_TYPE>
1
5
255

> <PUBCHEM_BONDANNOTATIONS>
16  18  8
16  19  8
18  20  8
19  21  8
20  23  8
21  23  8
28  29  8
28  30  8
29  31  8
30  32  8
31  33  8
32  33  8
10  6  3
7  25  8
7  9  8
8  22  8
8  25  8
9  22  8

$$$$

