6642
  -OEChem-06261201253D

 28 28  0     0  0  0  0  0  0999 V2000
   -0.1607   -1.1911   -0.0136 S   0  0  0  0  0  0  0  0  0  0  0  0
    1.0375   -0.0801    0.0085 O   0  0  0  0  0  0  0  0  0  0  0  0
   -0.1526   -1.9215    1.2389 O   0  0  0  0  0  0  0  0  0  0  0  0
   -0.1089   -1.8771   -1.2909 O   0  0  0  0  0  0  0  0  0  0  0  0
    3.3061    0.6854    0.0294 C   0  0  0  0  0  0  0  0  0  0  0  0
    2.3862   -0.5271    0.0069 C   0  0  0  0  0  0  0  0  0  0  0  0
    4.7765    0.2776    0.0129 C   0  0  0  0  0  0  0  0  0  0  0  0
   -1.6402   -0.2286   -0.0045 C   0  0  0  0  0  0  0  0  0  0  0  0
    5.6912    1.4917   -0.0081 C   0  0  0  0  0  0  0  0  0  0  0  0
   -2.2041    0.1602   -1.2088 C   0  0  0  0  0  0  0  0  0  0  0  0
   -2.2135    0.1227    1.2070 C   0  0  0  0  0  0  0  0  0  0  0  0
   -3.3729    0.9212   -1.2016 C   0  0  0  0  0  0  0  0  0  0  0  0
   -3.3825    0.8837    1.2141 C   0  0  0  0  0  0  0  0  0  0  0  0
   -3.9622    1.2830    0.0097 C   0  0  0  0  0  0  0  0  0  0  0  0
    3.0892    1.2913    0.9181 H   0  0  0  0  0  0  0  0  0  0  0  0
    3.0802    1.3262   -0.8321 H   0  0  0  0  0  0  0  0  0  0  0  0
    2.5668   -1.1257   -0.8926 H   0  0  0  0  0  0  0  0  0  0  0  0
    2.5603   -1.1541    0.8883 H   0  0  0  0  0  0  0  0  0  0  0  0
    4.9821   -0.3405   -0.8689 H   0  0  0  0  0  0  0  0  0  0  0  0
    5.0040   -0.3310    0.8959 H   0  0  0  0  0  0  0  0  0  0  0  0
    5.5118    2.1029   -0.8983 H   0  0  0  0  0  0  0  0  0  0  0  0
    5.5330    2.1172    0.8763 H   0  0  0  0  0  0  0  0  0  0  0  0
    6.7393    1.1765   -0.0181 H   0  0  0  0  0  0  0  0  0  0  0  0
   -1.7571   -0.1039   -2.1623 H   0  0  0  0  0  0  0  0  0  0  0  0
   -1.7742   -0.1695    2.1557 H   0  0  0  0  0  0  0  0  0  0  0  0
   -3.8234    1.2339   -2.1391 H   0  0  0  0  0  0  0  0  0  0  0  0
   -3.8403    1.1675    2.1572 H   0  0  0  0  0  0  0  0  0  0  0  0
   -4.8718    1.8764    0.0154 H   0  0  0  0  0  0  0  0  0  0  0  0
  1  2  1  0  0  0  0
  1  3  2  0  0  0  0
  1  4  2  0  0  0  0
  1  8  1  0  0  0  0
  2  6  1  0  0  0  0
  5  6  1  0  0  0  0
  5  7  1  0  0  0  0
  5 15  1  0  0  0  0
  5 16  1  0  0  0  0
  6 17  1  0  0  0  0
  6 18  1  0  0  0  0
  7  9  1  0  0  0  0
  7 19  1  0  0  0  0
  7 20  1  0  0  0  0
  8 10  2  0  0  0  0
  8 11  1  0  0  0  0
  9 21  1  0  0  0  0
  9 22  1  0  0  0  0
  9 23  1  0  0  0  0
 10 12  1  0  0  0  0
 10 24  1  0  0  0  0
 11 13  2  0  0  0  0
 11 25  1  0  0  0  0
 12 14  2  0  0  0  0
 12 26  1  0  0  0  0
 13 14  1  0  0  0  0
 13 27  1  0  0  0  0
 14 28  1  0  0  0  0
M  END
> <PUBCHEM_COMPOUND_CID>
6642

> <PUBCHEM_CONFORMER_RMSD>
0.6

> <PUBCHEM_CONFORMER_DIVERSEORDER>
1
17
16
10
6
18
12
4
15
7
9
11
5
14
8
2
3
13

> <PUBCHEM_MMFF94_PARTIAL_CHARGES>
16
1 1.49
10 -0.15
11 -0.15
12 -0.15
13 -0.15
14 -0.15
2 -0.46
24 0.15
25 0.15
26 0.15
27 0.15
28 0.15
3 -0.65
4 -0.65
6 0.28
8 -0.01

> <PUBCHEM_EFFECTIVE_ROTOR_COUNT>
5

> <PUBCHEM_PHARMACOPHORE_FEATURES>
4
1 3 acceptor
1 4 acceptor
1 9 hydrophobe
6 8 10 11 12 13 14 rings

> <PUBCHEM_HEAVY_ATOM_COUNT>
14

> <PUBCHEM_ATOM_DEF_STEREO_COUNT>
0

> <PUBCHEM_ATOM_UDEF_STEREO_COUNT>
0

> <PUBCHEM_BOND_DEF_STEREO_COUNT>
0

> <PUBCHEM_BOND_UDEF_STEREO_COUNT>
0

> <PUBCHEM_ISOTOPIC_ATOM_COUNT>
0

> <PUBCHEM_COMPONENT_COUNT>
1

> <PUBCHEM_CACTVS_TAUTO_COUNT>
1

> <PUBCHEM_CONFORMER_ID>
000019F200000001

> <PUBCHEM_MMFF94_ENERGY>
11.3752

> <PUBCHEM_FEATURE_SELFOVERLAP>
20.314

> <PUBCHEM_SHAPE_FINGERPRINT>
10014705 185 18337677404261068332
10465860 71 14490480802186243451
11046707 91 10447931663513860880
11089746 13 17676775297569756744
11127187 94 4823209507434262437
11543360 7 15502662576802398384
122479 349 18340765953739831690
12251169 10 15554443011370177567
12507560 40 16917073316475792610
12892183 10 16200154334675172608
13675066 3 17275105033598271960
14123255 352 18412263922150442780
14123260 362 18186515488753772952
1420 369 10231762197452829648
15775835 57 18409453604351443533
167882 2 17750222759925270470
17870717 6 4823221618941701028
18186145 218 18336540611990063598
193927 3 9006776540144898392
19784866 240 10015567416585101705
200 152 8718830881759577724
20112054 13 18202281415980450980
20300324 65 16660365874262822913
20325693 3 15430035465901161353
20374829 77 7348889953457466276
204376 136 18272088309574117562
20645476 183 16877951550593562973
20645477 56 18060421292362917364
20645477 70 17822279207401920566
20871999 31 14418132941626653497
21499 59 18187365462570661431
21524375 3 18410575076147211791
21650355 55 15338826556924282021
22926399 37 18261115209673334617
23402539 116 17385443237238011832
23402655 69 17240479251681016696
23403322 49 7060380318669494116
23500284 214 18412539899389354834
23559900 14 16342292690975751602
27216 239 17917990559979303369
633830 44 18262794206551482966
83771 10 10592041358294916238
90316 7 14189293815673271103

> <PUBCHEM_SHAPE_MULTIPOLES>
274.35
9.88
1.59
1.21
13.89
0.49
0.01
-6.95
-0.07
0.18
0.01
-1.24
0.12
0.02

> <PUBCHEM_SHAPE_SELFOVERLAP>
537.146

> <PUBCHEM_SHAPE_VOLUME>
164.8

> <PUBCHEM_COORDINATE_TYPE>
2
5
10

$$$$

