6433
  -OEChem-06261201193D

 32 31  0     0  0  0  0  0  0999 V2000
    1.6090    0.0198   -0.2347 S   0  0  0  0  0  0  0  0  0  0  0  0
   -1.3786   -0.5542   -0.1814 S   0  0  0  0  0  0  0  0  0  0  0  0
    1.5533   -0.2365   -1.6622 O   0  0  0  0  0  0  0  0  0  0  0  0
    2.6337    0.8960    0.3042 O   0  0  0  0  0  0  0  0  0  0  0  0
   -1.1911   -1.7865    0.5626 O   0  0  0  0  0  0  0  0  0  0  0  0
   -1.4553   -0.5850   -1.6304 O   0  0  0  0  0  0  0  0  0  0  0  0
   -0.0478    0.6478    0.3116 C   0  0  0  0  0  0  0  0  0  0  0  0
   -0.3318    2.0065   -0.3903 C   0  0  0  0  0  0  0  0  0  0  0  0
   -0.0552    0.7966    1.8418 C   0  0  0  0  0  0  0  0  0  0  0  0
    1.8438   -1.5545    0.5583 C   0  0  0  0  0  0  0  0  0  0  0  0
   -2.9147    0.1360    0.3935 C   0  0  0  0  0  0  0  0  0  0  0  0
    0.6474    3.1407   -0.1087 C   0  0  0  0  0  0  0  0  0  0  0  0
    3.1738   -2.1703    0.1852 C   0  0  0  0  0  0  0  0  0  0  0  0
   -4.0865   -0.7564    0.0507 C   0  0  0  0  0  0  0  0  0  0  0  0
   -0.3770    1.8616   -1.4767 H   0  0  0  0  0  0  0  0  0  0  0  0
   -1.3214    2.3675   -0.0913 H   0  0  0  0  0  0  0  0  0  0  0  0
    0.8121    1.3582    2.2025 H   0  0  0  0  0  0  0  0  0  0  0  0
   -0.0381   -0.1750    2.3451 H   0  0  0  0  0  0  0  0  0  0  0  0
   -0.9511    1.3228    2.1861 H   0  0  0  0  0  0  0  0  0  0  0  0
    1.7812   -1.4124    1.6390 H   0  0  0  0  0  0  0  0  0  0  0  0
    1.0611   -2.2325    0.2237 H   0  0  0  0  0  0  0  0  0  0  0  0
   -2.8480    0.2616    1.4766 H   0  0  0  0  0  0  0  0  0  0  0  0
   -3.0541    1.1103   -0.0785 H   0  0  0  0  0  0  0  0  0  0  0  0
    0.2496    4.0754   -0.5197 H   0  0  0  0  0  0  0  0  0  0  0  0
    1.6130    2.9746   -0.5919 H   0  0  0  0  0  0  0  0  0  0  0  0
    0.8032    3.2958    0.9618 H   0  0  0  0  0  0  0  0  0  0  0  0
    3.2945   -3.1413    0.6756 H   0  0  0  0  0  0  0  0  0  0  0  0
    3.2522   -2.3242   -0.8959 H   0  0  0  0  0  0  0  0  0  0  0  0
    4.0071   -1.5301    0.4920 H   0  0  0  0  0  0  0  0  0  0  0  0
   -5.0201   -0.3136    0.4113 H   0  0  0  0  0  0  0  0  0  0  0  0
   -4.1742   -0.8989   -1.0311 H   0  0  0  0  0  0  0  0  0  0  0  0
   -3.9808   -1.7447    0.5096 H   0  0  0  0  0  0  0  0  0  0  0  0
  1  3  2  0  0  0  0
  1  4  2  0  0  0  0
  1  7  1  0  0  0  0
  1 10  1  0  0  0  0
  2  5  2  0  0  0  0
  2  6  2  0  0  0  0
  2  7  1  0  0  0  0
  2 11  1  0  0  0  0
  7  8  1  0  0  0  0
  7  9  1  0  0  0  0
  8 12  1  0  0  0  0
  8 15  1  0  0  0  0
  8 16  1  0  0  0  0
  9 17  1  0  0  0  0
  9 18  1  0  0  0  0
  9 19  1  0  0  0  0
 10 13  1  0  0  0  0
 10 20  1  0  0  0  0
 10 21  1  0  0  0  0
 11 14  1  0  0  0  0
 11 22  1  0  0  0  0
 11 23  1  0  0  0  0
 12 24  1  0  0  0  0
 12 25  1  0  0  0  0
 12 26  1  0  0  0  0
 13 27  1  0  0  0  0
 13 28  1  0  0  0  0
 13 29  1  0  0  0  0
 14 30  1  0  0  0  0
 14 31  1  0  0  0  0
 14 32  1  0  0  0  0
M  END
> <PUBCHEM_COMPOUND_CID>
6433

> <PUBCHEM_CONFORMER_RMSD>
0.6

> <PUBCHEM_CONFORMER_DIVERSEORDER>
1
3
7
6
5
4
2

> <PUBCHEM_MMFF94_PARTIAL_CHARGES>
9
1 1.09
10 0.11
11 0.11
2 1.09
3 -0.65
4 -0.65
5 -0.65
6 -0.65
7 0.21

> <PUBCHEM_EFFECTIVE_ROTOR_COUNT>
5

> <PUBCHEM_PHARMACOPHORE_FEATURES>
5
1 12 hydrophobe
1 3 acceptor
1 4 acceptor
1 5 acceptor
1 6 acceptor

> <PUBCHEM_HEAVY_ATOM_COUNT>
14

> <PUBCHEM_ATOM_DEF_STEREO_COUNT>
0

> <PUBCHEM_ATOM_UDEF_STEREO_COUNT>
0

> <PUBCHEM_BOND_DEF_STEREO_COUNT>
0

> <PUBCHEM_BOND_UDEF_STEREO_COUNT>
0

> <PUBCHEM_ISOTOPIC_ATOM_COUNT>
0

> <PUBCHEM_COMPONENT_COUNT>
1

> <PUBCHEM_CACTVS_TAUTO_COUNT>
1

> <PUBCHEM_CONFORMER_ID>
0000192100000001

> <PUBCHEM_MMFF94_ENERGY>
13.0399

> <PUBCHEM_FEATURE_SELFOVERLAP>
25.409

> <PUBCHEM_SHAPE_FINGERPRINT>
10702982 57 17259078805061374252
14648413 74 18055070965428735081
15881359 60 17532666825825628925
16945 1 18339643321886597273
19021347 4 17330273866402739304
20511035 2 17824832139466098471
20711985 344 17901919127211996932
207724 885 18411416207254009921
20871998 184 17972606760005815654
21296965 67 18339647844413125107
22344851 341 17975402521500875912
23419403 2 17341859652753762596
23526113 38 17489581230046174769
23552423 10 18120096078810944247
2748010 2 18267883832870262869
528886 8 18196093239795677384
7364860 26 18267303131969871081

> <PUBCHEM_SHAPE_MULTIPOLES>
272.34
4.67
2.58
1.24
2.3
1.67
0.03
-3.15
-0.07
-1.22
-0.06
-0.02
0.04
-0.15

> <PUBCHEM_SHAPE_SELFOVERLAP>
489.055

> <PUBCHEM_SHAPE_VOLUME>
175.2

> <PUBCHEM_COORDINATE_TYPE>
2
5
10

$$$$

