10655
  -OEChem-06261204482D

 35 36  0     0  0  0  0  0  0999 V2000
    3.0000   -3.6550    0.0000 S   0  0  0  0  0  0  0  0  0  0  0  0
    2.1340   -5.1550    0.0000 Na  0  3  0  0  0  0  0  0  0  0  0  0
    3.8660    4.8450    0.0000 O   0  0  0  0  0  0  0  0  0  0  0  0
    3.0000   -4.6550    0.0000 O   0  5  0  0  0  0  0  0  0  0  0  0
    2.0000   -3.6550    0.0000 O   0  0  0  0  0  0  0  0  0  0  0  0
    4.0000   -3.6550    0.0000 O   0  0  0  0  0  0  0  0  0  0  0  0
    3.8660    0.8450    0.0000 N   0  0  0  0  0  0  0  0  0  0  0  0
    3.0000    0.3450    0.0000 N   0  0  0  0  0  0  0  0  0  0  0  0
    4.7321    2.3450    0.0000 C   0  0  0  0  0  0  0  0  0  0  0  0
    4.7321    3.3450    0.0000 C   0  0  0  0  0  0  0  0  0  0  0  0
    3.8660    1.8450    0.0000 C   0  0  0  0  0  0  0  0  0  0  0  0
    3.8660    3.8450    0.0000 C   0  0  0  0  0  0  0  0  0  0  0  0
    5.6260    1.8103    0.0000 C   0  0  0  0  0  0  0  0  0  0  0  0
    5.6260    3.8797    0.0000 C   0  0  0  0  0  0  0  0  0  0  0  0
    3.0000    2.3450    0.0000 C   0  0  0  0  0  0  0  0  0  0  0  0
    3.0000    3.3450    0.0000 C   0  0  0  0  0  0  0  0  0  0  0  0
    6.5321    2.3242    0.0000 C   0  0  0  0  0  0  0  0  0  0  0  0
    6.5321    3.3658    0.0000 C   0  0  0  0  0  0  0  0  0  0  0  0
    3.0000   -2.6550    0.0000 C   0  0  0  0  0  0  0  0  0  0  0  0
    3.0000   -0.6550    0.0000 C   0  0  0  0  0  0  0  0  0  0  0  0
    3.8660   -2.1550    0.0000 C   0  0  0  0  0  0  0  0  0  0  0  0
    2.1340   -2.1550    0.0000 C   0  0  0  0  0  0  0  0  0  0  0  0
    3.8660   -1.1550    0.0000 C   0  0  0  0  0  0  0  0  0  0  0  0
    2.1340   -1.1550    0.0000 C   0  0  0  0  0  0  0  0  0  0  0  0
    5.6188    1.1904    0.0000 H   0  0  0  0  0  0  0  0  0  0  0  0
    5.6188    4.4996    0.0000 H   0  0  0  0  0  0  0  0  0  0  0  0
    2.4631    2.0350    0.0000 H   0  0  0  0  0  0  0  0  0  0  0  0
    2.4631    3.6550    0.0000 H   0  0  0  0  0  0  0  0  0  0  0  0
    7.0678    2.0121    0.0000 H   0  0  0  0  0  0  0  0  0  0  0  0
    7.0678    3.6779    0.0000 H   0  0  0  0  0  0  0  0  0  0  0  0
    4.4030   -2.4650    0.0000 H   0  0  0  0  0  0  0  0  0  0  0  0
    1.5970   -2.4650    0.0000 H   0  0  0  0  0  0  0  0  0  0  0  0
    4.4030   -0.8450    0.0000 H   0  0  0  0  0  0  0  0  0  0  0  0
    1.5970   -0.8450    0.0000 H   0  0  0  0  0  0  0  0  0  0  0  0
    3.3291    5.1550    0.0000 H   0  0  0  0  0  0  0  0  0  0  0  0
  1  4  1  0  0  0  0
  1  5  2  0  0  0  0
  1  6  2  0  0  0  0
  1 19  1  0  0  0  0
  3 12  1  0  0  0  0
  3 35  1  0  0  0  0
  7  8  2  0  0  0  0
  7 11  1  0  0  0  0
  8 20  1  0  0  0  0
  9 10  1  0  0  0  0
  9 11  1  0  0  0  0
  9 13  2  0  0  0  0
 10 12  1  0  0  0  0
 10 14  2  0  0  0  0
 11 15  2  0  0  0  0
 12 16  2  0  0  0  0
 13 17  1  0  0  0  0
 13 25  1  0  0  0  0
 14 18  1  0  0  0  0
 14 26  1  0  0  0  0
 15 16  1  0  0  0  0
 15 27  1  0  0  0  0
 16 28  1  0  0  0  0
 17 18  2  0  0  0  0
 17 29  1  0  0  0  0
 18 30  1  0  0  0  0
 19 21  2  0  0  0  0
 19 22  1  0  0  0  0
 20 23  2  0  0  0  0
 20 24  1  0  0  0  0
 21 23  1  0  0  0  0
 21 31  1  0  0  0  0
 22 24  2  0  0  0  0
 22 32  1  0  0  0  0
 23 33  1  0  0  0  0
 24 34  1  0  0  0  0
M  CHG  2   2   1   4  -1
M  END
> <PUBCHEM_COMPOUND_CID>
10655

> <PUBCHEM_COMPOUND_CANONICALIZED>
1

> <PUBCHEM_CACTVS_COMPLEXITY>
509

> <PUBCHEM_CACTVS_HBOND_ACCEPTOR>
6

> <PUBCHEM_CACTVS_HBOND_DONOR>
1

> <PUBCHEM_CACTVS_ROTATABLE_BOND>
2

> <PUBCHEM_CACTVS_SUBSKEYS>
AAADccB7OCBAAAAAAAAAAAAAAAAAAAAAAAAwYMAAAAAAAADBVAAAHgQICAAADAyB2AAwx8AAAgKCAiRCQHDCAEAgIgAIiBgGbIgIJiKCkZOAcABkwBEI2AewwLAOgEQBQAAaAAAAiAKAADQAAAAAAAAAAA==

> <PUBCHEM_IUPAC_OPENEYE_NAME>
sodium 4-[(4-hydroxy-1-naphthyl)azo]benzenesulfonate

> <PUBCHEM_IUPAC_CAS_NAME>
sodium 4-[(4-hydroxy-1-naphthalenyl)azo]benzenesulfonate

> <PUBCHEM_IUPAC_NAME>
sodium 4-[(4-hydroxynaphthalen-1-yl)diazenyl]benzenesulfonate

> <PUBCHEM_IUPAC_SYSTEMATIC_NAME>
sodium 4-[(4-oxidanylnaphthalen-1-yl)diazenyl]benzenesulfonate

> <PUBCHEM_IUPAC_TRADITIONAL_NAME>
sodium 4-[(4-hydroxy-1-naphthyl)azo]besylate

> <PUBCHEM_IUPAC_INCHI>
InChI=1S/C16H12N2O4S.Na/c19-16-10-9-15(13-3-1-2-4-14(13)16)18-17-11-5-7-12(8-6-11)23(20,21)22;/h1-10,19H,(H,20,21,22);/q;+1/p-1

> <PUBCHEM_IUPAC_INCHIKEY>
AZLXCBPKSXFMET-UHFFFAOYSA-M

> <PUBCHEM_EXACT_MASS>
350.033722

> <PUBCHEM_MOLECULAR_FORMULA>
C16H11N2NaO4S

> <PUBCHEM_MOLECULAR_WEIGHT>
350.324309

> <PUBCHEM_OPENEYE_CAN_SMILES>
C1=CC=C2C(=C1)C(=CC=C2O)N=NC3=CC=C(C=C3)S(=O)(=O)[O-].[Na+]

> <PUBCHEM_OPENEYE_ISO_SMILES>
C1=CC=C2C(=C1)C(=CC=C2O)N=NC3=CC=C(C=C3)S(=O)(=O)[O-].[Na+]

> <PUBCHEM_CACTVS_TPSA>
111

> <PUBCHEM_MONOISOTOPIC_WEIGHT>
350.033722

> <PUBCHEM_TOTAL_CHARGE>
0

> <PUBCHEM_HEAVY_ATOM_COUNT>
24

> <PUBCHEM_ATOM_DEF_STEREO_COUNT>
0

> <PUBCHEM_ATOM_UDEF_STEREO_COUNT>
0

> <PUBCHEM_BOND_DEF_STEREO_COUNT>
0

> <PUBCHEM_BOND_UDEF_STEREO_COUNT>
0

> <PUBCHEM_ISOTOPIC_ATOM_COUNT>
0

> <PUBCHEM_COMPONENT_COUNT>
2

> <PUBCHEM_CACTVS_TAUTO_COUNT>
4

> <PUBCHEM_COORDINATE_TYPE>
1
5
255

> <PUBCHEM_BONDANNOTATIONS>
10  12  8
10  14  8
11  15  8
12  16  8
13  17  8
14  18  8
15  16  8
17  18  8
19  21  8
19  22  8
20  23  8
20  24  8
21  23  8
22  24  8
9  10  8
9  11  8
9  13  8

$$$$

