9725
  -OEChem-06261203592D

 31 31  0     0  0  0  0  0  0999 V2000
    2.8660    0.0670    0.0000 O   0  0  0  0  0  0  0  0  0  0  0  0
    4.5981    2.0670    0.0000 N   0  3  0  0  0  0  0  0  0  0  0  0
    3.7320    1.5670    0.0000 C   0  0  0  0  0  0  0  0  0  0  0  0
    5.4641    2.5670    0.0000 C   0  0  0  0  0  0  0  0  0  0  0  0
    4.0981    2.9330    0.0000 C   0  0  0  0  0  0  0  0  0  0  0  0
    5.0981    1.2010    0.0000 C   0  0  0  0  0  0  0  0  0  0  0  0
    3.7320    0.5670    0.0000 C   0  0  0  0  0  0  0  0  0  0  0  0
    2.8660   -0.9330    0.0000 C   0  0  0  0  0  0  0  0  0  0  0  0
    2.0000   -1.4330    0.0000 C   0  0  0  0  0  0  0  0  0  0  0  0
    3.7320   -1.4330    0.0000 C   0  0  0  0  0  0  0  0  0  0  0  0
    2.0000   -2.4330    0.0000 C   0  0  0  0  0  0  0  0  0  0  0  0
    3.7320   -2.4330    0.0000 C   0  0  0  0  0  0  0  0  0  0  0  0
    2.8660   -2.9330    0.0000 C   0  0  0  0  0  0  0  0  0  0  0  0
    3.5200    2.1496    0.0000 H   0  0  0  0  0  0  0  0  0  0  0  0
    3.1215    1.4593    0.0000 H   0  0  0  0  0  0  0  0  0  0  0  0
    5.7741    2.0300    0.0000 H   0  0  0  0  0  0  0  0  0  0  0  0
    4.6350    3.2430    0.0000 H   0  0  0  0  0  0  0  0  0  0  0  0
    3.7881    3.4700    0.0000 H   0  0  0  0  0  0  0  0  0  0  0  0
    3.5611    2.6230    0.0000 H   0  0  0  0  0  0  0  0  0  0  0  0
    4.5611    0.8910    0.0000 H   0  0  0  0  0  0  0  0  0  0  0  0
    5.4081    0.6640    0.0000 H   0  0  0  0  0  0  0  0  0  0  0  0
    5.6350    1.5110    0.0000 H   0  0  0  0  0  0  0  0  0  0  0  0
    6.0010    2.8770    0.0000 H   0  0  0  0  0  0  0  0  0  0  0  0
    5.1541    3.1039    0.0000 H   0  0  0  0  0  0  0  0  0  0  0  0
    3.9441   -0.0156    0.0000 H   0  0  0  0  0  0  0  0  0  0  0  0
    4.3426    0.6746    0.0000 H   0  0  0  0  0  0  0  0  0  0  0  0
    1.4631   -1.1230    0.0000 H   0  0  0  0  0  0  0  0  0  0  0  0
    4.2690   -1.1230    0.0000 H   0  0  0  0  0  0  0  0  0  0  0  0
    1.4631   -2.7430    0.0000 H   0  0  0  0  0  0  0  0  0  0  0  0
    4.2690   -2.7430    0.0000 H   0  0  0  0  0  0  0  0  0  0  0  0
    2.8660   -3.5530    0.0000 H   0  0  0  0  0  0  0  0  0  0  0  0
  1  7  1  0  0  0  0
  1  8  1  0  0  0  0
  2  3  1  0  0  0  0
  2  4  1  0  0  0  0
  2  5  1  0  0  0  0
  2  6  1  0  0  0  0
  3  7  1  0  0  0  0
  3 14  1  0  0  0  0
  3 15  1  0  0  0  0
  4 16  1  0  0  0  0
  4 23  1  0  0  0  0
  4 24  1  0  0  0  0
  5 17  1  0  0  0  0
  5 18  1  0  0  0  0
  5 19  1  0  0  0  0
  6 20  1  0  0  0  0
  6 21  1  0  0  0  0
  6 22  1  0  0  0  0
  7 25  1  0  0  0  0
  7 26  1  0  0  0  0
  8  9  2  0  0  0  0
  8 10  1  0  0  0  0
  9 11  1  0  0  0  0
  9 27  1  0  0  0  0
 10 12  2  0  0  0  0
 10 28  1  0  0  0  0
 11 13  2  0  0  0  0
 11 29  1  0  0  0  0
 12 13  1  0  0  0  0
 12 30  1  0  0  0  0
 13 31  1  0  0  0  0
M  CHG  1   2   1
M  END
> <PUBCHEM_COMPOUND_CID>
9725

> <PUBCHEM_COMPOUND_CANONICALIZED>
1

> <PUBCHEM_CACTVS_COMPLEXITY>
134

> <PUBCHEM_CACTVS_HBOND_ACCEPTOR>
1

> <PUBCHEM_CACTVS_HBOND_DONOR>
0

> <PUBCHEM_CACTVS_ROTATABLE_BOND>
4

> <PUBCHEM_CACTVS_SUBSKEYS>
AAADceByIAAAAAAAAAAAAAAAAAAAAAAAAAAwAAAAAAAAAAABAAAAHgAAAAAACAThkAYyBoMABACAACBCAAACCAAgIAAIiAAOCIgOJiKEMRqDOCCkwBEYqAeAQAAAAAAAAAAAAAAAAAAAAAAAAAAAAAAAAA==

> <PUBCHEM_IUPAC_OPENEYE_NAME>
trimethyl(2-phenoxyethyl)ammonium

> <PUBCHEM_IUPAC_CAS_NAME>
trimethyl(2-phenoxyethyl)ammonium

> <PUBCHEM_IUPAC_NAME>
trimethyl(2-phenoxyethyl)azanium

> <PUBCHEM_IUPAC_SYSTEMATIC_NAME>
trimethyl(2-phenoxyethyl)azanium

> <PUBCHEM_IUPAC_TRADITIONAL_NAME>
trimethyl(2-phenoxyethyl)ammonium

> <PUBCHEM_IUPAC_INCHI>
InChI=1S/C11H18NO/c1-12(2,3)9-10-13-11-7-5-4-6-8-11/h4-8H,9-10H2,1-3H3/q+1

> <PUBCHEM_IUPAC_INCHIKEY>
VCXBSHBJVUIQHJ-UHFFFAOYSA-N

> <PUBCHEM_XLOGP3>
1.9

> <PUBCHEM_EXACT_MASS>
180.138839

> <PUBCHEM_MOLECULAR_FORMULA>
C11H18NO+

> <PUBCHEM_MOLECULAR_WEIGHT>
180.26672

> <PUBCHEM_OPENEYE_CAN_SMILES>
C[N+](C)(C)CCOC1=CC=CC=C1

> <PUBCHEM_OPENEYE_ISO_SMILES>
C[N+](C)(C)CCOC1=CC=CC=C1

> <PUBCHEM_CACTVS_TPSA>
9.2

> <PUBCHEM_MONOISOTOPIC_WEIGHT>
180.138839

> <PUBCHEM_TOTAL_CHARGE>
1

> <PUBCHEM_HEAVY_ATOM_COUNT>
13

> <PUBCHEM_ATOM_DEF_STEREO_COUNT>
0

> <PUBCHEM_ATOM_UDEF_STEREO_COUNT>
0

> <PUBCHEM_BOND_DEF_STEREO_COUNT>
0

> <PUBCHEM_BOND_UDEF_STEREO_COUNT>
0

> <PUBCHEM_ISOTOPIC_ATOM_COUNT>
0

> <PUBCHEM_COMPONENT_COUNT>
1

> <PUBCHEM_CACTVS_TAUTO_COUNT>
1

> <PUBCHEM_COORDINATE_TYPE>
1
5
255

> <PUBCHEM_BONDANNOTATIONS>
10  12  8
11  13  8
12  13  8
8  10  8
8  9  8
9  11  8

$$$$

