17396450
  -OEChem-06241222563D

 41 43  0     0  0  0  0  0  0999 V2000
   -7.9306   -0.0683   -0.8275 Cl  0  0  0  0  0  0  0  0  0  0  0  0
   -5.2160   -1.2254   -0.4960 S   0  0  0  0  0  0  0  0  0  0  0  0
    3.1728   -1.9336   -1.2150 S   0  0  0  0  0  0  0  0  0  0  0  0
    2.3024    1.4374   -2.1373 O   0  0  0  0  0  0  0  0  0  0  0  0
   -1.6056   -0.1284    0.5311 N   0  0  0  0  0  0  0  0  0  0  0  0
    0.9344    0.8814   -0.3251 N   0  0  0  0  0  0  0  0  0  0  0  0
    5.0653   -0.9524    0.3717 N   0  0  0  0  0  0  0  0  0  0  0  0
   -1.3893    0.2537   -0.8720 C   0  0  0  0  0  0  0  0  0  0  0  0
   -0.3630   -0.6495    1.1188 C   0  0  0  0  0  0  0  0  0  0  0  0
   -0.2977    1.3173   -0.9785 C   0  0  0  0  0  0  0  0  0  0  0  0
    0.7591    0.3885    1.0456 C   0  0  0  0  0  0  0  0  0  0  0  0
   -2.6773   -1.1179    0.6346 C   0  0  0  0  0  0  0  0  0  0  0  0
    2.1556    1.0240   -0.9880 C   0  0  0  0  0  0  0  0  0  0  0  0
   -4.0379   -0.4870    0.5034 C   0  0  0  0  0  0  0  0  0  0  0  0
    3.3830    0.6624   -0.2664 C   0  0  0  0  0  0  0  0  0  0  0  0
   -4.5115    0.6615    1.0986 C   0  0  0  0  0  0  0  0  0  0  0  0
    3.9357   -0.6080   -0.2864 C   0  0  0  0  0  0  0  0  0  0  0  0
    4.0314    1.6426    0.4768 C   0  0  0  0  0  0  0  0  0  0  0  0
   -5.8592    0.9392    0.7293 C   0  0  0  0  0  0  0  0  0  0  0  0
   -6.3644   -0.0078   -0.1343 C   0  0  0  0  0  0  0  0  0  0  0  0
    5.1961    1.3268    1.1675 C   0  0  0  0  0  0  0  0  0  0  0  0
    5.6678    0.0266    1.0834 C   0  0  0  0  0  0  0  0  0  0  0  0
    3.6487   -3.3832   -0.2344 C   0  0  0  0  0  0  0  0  0  0  0  0
   -1.1038   -0.6212   -1.4717 H   0  0  0  0  0  0  0  0  0  0  0  0
   -2.3051    0.6672   -1.3098 H   0  0  0  0  0  0  0  0  0  0  0  0
   -0.0483   -1.5656    0.6012 H   0  0  0  0  0  0  0  0  0  0  0  0
   -0.5221   -0.9045    2.1734 H   0  0  0  0  0  0  0  0  0  0  0  0
   -0.1134    1.5557   -2.0311 H   0  0  0  0  0  0  0  0  0  0  0  0
   -0.6149    2.2441   -0.4845 H   0  0  0  0  0  0  0  0  0  0  0  0
    0.5151    1.2583    1.6679 H   0  0  0  0  0  0  0  0  0  0  0  0
    1.6801   -0.0449    1.4415 H   0  0  0  0  0  0  0  0  0  0  0  0
   -2.5325   -1.9375   -0.0817 H   0  0  0  0  0  0  0  0  0  0  0  0
   -2.6610   -1.5791    1.6324 H   0  0  0  0  0  0  0  0  0  0  0  0
   -3.9265    1.2770    1.7702 H   0  0  0  0  0  0  0  0  0  0  0  0
    3.6395    2.6552    0.5259 H   0  0  0  0  0  0  0  0  0  0  0  0
   -6.4244    1.7921    1.0834 H   0  0  0  0  0  0  0  0  0  0  0  0
    5.7182    2.0745    1.7533 H   0  0  0  0  0  0  0  0  0  0  0  0
    6.5722   -0.2710    1.6037 H   0  0  0  0  0  0  0  0  0  0  0  0
    3.1547   -4.2678   -0.6449 H   0  0  0  0  0  0  0  0  0  0  0  0
    3.3347   -3.2625    0.8062 H   0  0  0  0  0  0  0  0  0  0  0  0
    4.7294   -3.5426   -0.2768 H   0  0  0  0  0  0  0  0  0  0  0  0
  1 20  1  0  0  0  0
  2 14  1  0  0  0  0
  2 20  1  0  0  0  0
  3 17  1  0  0  0  0
  3 23  1  0  0  0  0
  4 13  2  0  0  0  0
  5  8  1  0  0  0  0
  5  9  1  0  0  0  0
  5 12  1  0  0  0  0
  6 10  1  0  0  0  0
  6 11  1  0  0  0  0
  6 13  1  0  0  0  0
  7 17  1  0  0  0  0
  7 22  2  0  0  0  0
  8 10  1  0  0  0  0
  8 24  1  0  0  0  0
  8 25  1  0  0  0  0
  9 11  1  0  0  0  0
  9 26  1  0  0  0  0
  9 27  1  0  0  0  0
 10 28  1  0  0  0  0
 10 29  1  0  0  0  0
 11 30  1  0  0  0  0
 11 31  1  0  0  0  0
 12 14  1  0  0  0  0
 12 32  1  0  0  0  0
 12 33  1  0  0  0  0
 13 15  1  0  0  0  0
 14 16  2  0  0  0  0
 15 17  2  0  0  0  0
 15 18  1  0  0  0  0
 16 19  1  0  0  0  0
 16 34  1  0  0  0  0
 18 21  2  0  0  0  0
 18 35  1  0  0  0  0
 19 20  2  0  0  0  0
 19 36  1  0  0  0  0
 21 22  1  0  0  0  0
 21 37  1  0  0  0  0
 22 38  1  0  0  0  0
 23 39  1  0  0  0  0
 23 40  1  0  0  0  0
 23 41  1  0  0  0  0
M  END
> <PUBCHEM_COMPOUND_CID>
17396450

> <PUBCHEM_CONFORMER_RMSD>
0.8

> <PUBCHEM_CONFORMER_DIVERSEORDER>
1
104
212
214
189
136
242
249
172
30
211
273
231
240
183
241
171
155
100
95
239
156
197
254
196
269
162
101
126
154
65
208
70
233
129
117
177
203
186
140
150
201
47
35
202
227
178
102
247
250
219
131
218
152
192
146
164
217
58
166
256
226
213
145
89
234
180
170
182
176
76
205
257
235
185
261
179
238
113
133
262
71
160
173
94
157
142
209
199
225
232
252
245
200
53
52
32
81
255
174
134
258
139
108
246
141
195
274
33
28
159
119
260
114
77
259
48
151
144
125
169
128
132
267
220
75
56
149
244
44
67
24
68
31
264
230
158
59
26
8
46
137
82
163
248
41
42
123
222
188
64
109
143
38
96
78
107
87
21
110
34
40
103
223
251
124
210
79
63
175
272
263
135
37
49
90
92
215
206
187
165
116
193
228
270
99
45
91
73
253
207
13
130
2
127
39
122
36
23
147
25
224
112
98
60
181
72
27
83
22
5
148
7
61
153
10
243
268
138
265
74
9
190
167
66
121
29
54
55
86
204
120
266
17
16
115
3
118
80
88
229
184
14
198
43
4
12
106
20
194
69
237
11
51
97
105
168
62
84
93
57
15
6
271
111
18
50
161
85
216
221
236
191
19

> <PUBCHEM_MMFF94_PARTIAL_CHARGES>
28
1 -0.12
10 0.3
11 0.3
12 0.45
13 0.54
14 -0.14
15 0.09
16 -0.15
17 0.41
18 -0.15
19 -0.15
2 -0.08
20 0.16
21 -0.15
22 0.16
23 0.23
3 -0.33
34 0.15
35 0.15
36 0.15
37 0.15
38 0.15
4 -0.57
5 -0.81
6 -0.66
7 -0.62
8 0.27
9 0.27

> <PUBCHEM_EFFECTIVE_ROTOR_COUNT>
6.2

> <PUBCHEM_PHARMACOPHORE_FEATURES>
7
1 23 hydrophobe
1 4 acceptor
1 5 cation
1 7 acceptor
5 2 14 16 19 20 rings
6 5 6 8 9 10 11 rings
6 7 15 17 18 21 22 rings

> <PUBCHEM_HEAVY_ATOM_COUNT>
23

> <PUBCHEM_ATOM_DEF_STEREO_COUNT>
0

> <PUBCHEM_ATOM_UDEF_STEREO_COUNT>
0

> <PUBCHEM_BOND_DEF_STEREO_COUNT>
0

> <PUBCHEM_BOND_UDEF_STEREO_COUNT>
0

> <PUBCHEM_ISOTOPIC_ATOM_COUNT>
0

> <PUBCHEM_COMPONENT_COUNT>
1

> <PUBCHEM_CACTVS_TAUTO_COUNT>
1

> <PUBCHEM_CONFORMER_ID>
010972E200000001

> <PUBCHEM_MMFF94_ENERGY>
49.2449

> <PUBCHEM_FEATURE_SELFOVERLAP>
35.52

> <PUBCHEM_SHAPE_FINGERPRINT>
10 15 16009039354250143538
10906281 52 17845637163359973316
11089746 13 18343024359530164505
11135609 149 17985287392991521775
114674 6 18270956960019116330
11796584 16 17749384858723348119
11954058 11 16806994649679661198
12107183 9 17537986353391199755
12166972 35 11671781585081503199
12236239 1 18341613686058564761
12596602 18 17313103038082621490
12616971 3 17346598522162561279
12670546 56 18041551533430282729
13073987 5 18040991865322252091
13533116 47 18261106417653610226
13583140 156 17677049023649966467
14123256 10 5906051456617250473
14211702 104 18200303321996817307
14251758 9 17775280560812002241
14251764 18 17530683195923548545
14294032 229 15481001248431408653
14856354 85 13758068615709166451
15142383 8 16128665145067191589
15183329 4 18343577452338040679
17857418 61 18113339713197666263
1813 80 17489298707039389404
19141452 34 18271807878295643251
19489759 90 18040713658879087081
20157964 124 18260546710205065195
20511986 3 17895207592272162623
21150785 3 16443069370381199489
21285901 2 17988922314218747966
21304304 249 18059861705696716362
21344244 78 16951134005700015194
21781051 124 15625642999418535027
21859007 373 17703243909177398789
22182313 1 17988371484531056606
22224240 67 18261680286268252114
23035841 295 11312063145188557289
23402539 116 18334577923958440493
23522609 53 13182160977747426503
23536379 177 18187364333426564945
23559900 14 18270669871224178756
29717793 49 18273213093290428437
3004659 81 18187358869917434614
335352 9 17346600751044956879
34797466 226 16732975402048056209
3633792 109 18338804515749296785
4073 2 18338796710997836843
42630746 31 18408885148545731026
4325135 7 13984660335337189905
4340502 62 17676488328517361222
5104073 3 18187631545017703379
8988823 20 18113620084061605752
9971528 1 18342733022564562084

> <PUBCHEM_SHAPE_MULTIPOLES>
462.09
17.54
2.04
1.36
23.22
1.65
-0.32
0.44
1.24
-3.16
-0.19
-0.51
-0.3
0.06

> <PUBCHEM_SHAPE_SELFOVERLAP>
939.4

> <PUBCHEM_SHAPE_VOLUME>
271.8

> <PUBCHEM_COORDINATE_TYPE>
2
5
10

$$$$

