7006
  -OEChem-06261201403D

 16 17  0     0  0  0  0  0  0999 V2000
   -1.6066   -2.0918   -0.0001 O   0  0  0  0  0  0  0  0  0  0  0  0
   -0.8041    1.7384    0.0002 N   0  0  0  0  0  0  0  0  0  0  0  0
   -2.3240    0.0808   -0.0005 N   0  0  0  0  0  0  0  0  0  0  0  0
   -2.0838    1.3109    0.0004 N   0  0  0  0  0  0  0  0  0  0  0  0
    0.0621   -0.4871    0.0002 C   0  0  0  0  0  0  0  0  0  0  0  0
    0.2869    0.8790    0.0001 C   0  0  0  0  0  0  0  0  0  0  0  0
    1.1162   -1.4025    0.0004 C   0  0  0  0  0  0  0  0  0  0  0  0
    1.6036    1.3468   -0.0002 C   0  0  0  0  0  0  0  0  0  0  0  0
    2.4266   -0.9280    0.0001 C   0  0  0  0  0  0  0  0  0  0  0  0
    2.6707    0.4455   -0.0003 C   0  0  0  0  0  0  0  0  0  0  0  0
   -1.3476   -0.8920   -0.0002 C   0  0  0  0  0  0  0  0  0  0  0  0
    0.9370   -2.4734    0.0005 H   0  0  0  0  0  0  0  0  0  0  0  0
    1.8092    2.4144   -0.0004 H   0  0  0  0  0  0  0  0  0  0  0  0
   -0.6341    2.7372    0.0010 H   0  0  0  0  0  0  0  0  0  0  0  0
    3.2578   -1.6270    0.0002 H   0  0  0  0  0  0  0  0  0  0  0  0
    3.6921    0.8149   -0.0006 H   0  0  0  0  0  0  0  0  0  0  0  0
  1 11  2  0  0  0  0
  2  4  1  0  0  0  0
  2  6  1  0  0  0  0
  2 14  1  0  0  0  0
  3  4  2  0  0  0  0
  3 11  1  0  0  0  0
  5  6  1  0  0  0  0
  5  7  2  0  0  0  0
  5 11  1  0  0  0  0
  6  8  2  0  0  0  0
  7  9  1  0  0  0  0
  7 12  1  0  0  0  0
  8 10  1  0  0  0  0
  8 13  1  0  0  0  0
  9 10  2  0  0  0  0
  9 15  1  0  0  0  0
 10 16  1  0  0  0  0
M  END
> <PUBCHEM_COMPOUND_CID>
7006

> <PUBCHEM_CONFORMER_RMSD>
0.4

> <PUBCHEM_CONFORMER_DIVERSEORDER>
1

> <PUBCHEM_MMFF94_PARTIAL_CHARGES>
16
1 -0.57
10 -0.15
11 0.69
12 0.15
13 0.15
14 0.4
15 0.15
16 0.15
2 -0.46
3 -0.21
4 -0.04
5 0.09
6 0.1
7 -0.15
8 -0.15
9 -0.15

> <PUBCHEM_EFFECTIVE_ROTOR_COUNT>
0

> <PUBCHEM_PHARMACOPHORE_FEATURES>
5
1 1 acceptor
1 2 donor
1 3 donor
6 2 3 4 5 6 11 rings
6 5 6 7 8 9 10 rings

> <PUBCHEM_HEAVY_ATOM_COUNT>
11

> <PUBCHEM_ATOM_DEF_STEREO_COUNT>
0

> <PUBCHEM_ATOM_UDEF_STEREO_COUNT>
0

> <PUBCHEM_BOND_DEF_STEREO_COUNT>
0

> <PUBCHEM_BOND_UDEF_STEREO_COUNT>
0

> <PUBCHEM_ISOTOPIC_ATOM_COUNT>
0

> <PUBCHEM_COMPONENT_COUNT>
1

> <PUBCHEM_CACTVS_TAUTO_COUNT>
3

> <PUBCHEM_CONFORMER_ID>
00001B5E00000001

> <PUBCHEM_MMFF94_ENERGY>
46.9932

> <PUBCHEM_FEATURE_SELFOVERLAP>
25.462

> <PUBCHEM_SHAPE_FINGERPRINT>
12423570 1 8602142839323974954
12524768 44 18336824294316233278
12897270 3 18338235955714122598
16945 1 18410855490367077636
18185500 45 18338798896951080142
19973954 147 18410853231240601748
20871998 184 18187643566045654031
21040471 1 18338517563834890756
23552423 10 18272368625099302430
23559900 14 18261947579453154486
241688 4 15024152264150831529
2748010 2 18193839245306087542
5084963 1 17970354921289361865
528886 8 18410016511439646394
66348 1 18410576149915234126

> <PUBCHEM_SHAPE_MULTIPOLES>
205.56
3.4
1.92
0.58
0.39
0.15
0
0.02
0
-0.44
0
0.06
0.01
0

> <PUBCHEM_SHAPE_SELFOVERLAP>
452.022

> <PUBCHEM_SHAPE_VOLUME>
110.4

> <PUBCHEM_COORDINATE_TYPE>
2
5
10

$$$$

