13814
  -OEChem-06241222402D

 64 70  0     1  0  0  0  0  0999 V2000
    7.4437   -2.7197    0.0000 O   0  0  0  0  0  0  0  0  0  0  0  0
    3.7849   -3.3104    0.0000 O   0  0  0  0  0  0  0  0  0  0  0  0
    2.0296   -0.2702    0.0000 O   0  0  0  0  0  0  0  0  0  0  0  0
    2.6709   -1.9268    0.0000 N   0  0  0  0  0  0  0  0  0  0  0  0
   10.0418   -2.2197    0.0000 N   0  0  0  0  0  0  0  0  0  0  0  0
    3.5000    1.3537    0.0000 N   0  0  0  0  0  0  0  0  0  0  0  0
    5.9778   -0.5949    0.0000 C   0  0  3  0  0  0  0  0  0  0  0  0
    4.2457   -1.5949    0.0000 C   0  0  3  0  0  0  0  0  0  0  0  0
    3.7457   -0.7288    0.0000 C   0  0  3  0  0  0  0  0  0  0  0  0
    6.2366    0.3711    0.0000 C   0  0  3  0  0  0  0  0  0  0  0  0
    5.5000    1.3537    0.0000 C   0  0  0  0  0  0  0  0  0  0  0  0
    7.8098   -1.3537    0.0000 C   0  0  0  0  0  0  0  0  0  0  0  0
    8.0686   -0.3878    0.0000 C   0  0  0  0  0  0  0  0  0  0  0  0
    3.5787   -2.3319    0.0000 C   0  0  0  0  0  0  0  0  0  0  0  0
    2.7739   -0.9380    0.0000 C   0  0  0  0  0  0  0  0  0  0  0  0
    8.3098   -2.2197    0.0000 C   0  0  3  0  0  0  0  0  0  0  0  0
    5.0000    2.2197    0.0000 C   0  0  0  0  0  0  0  0  0  0  0  0
    8.8098   -3.0857    0.0000 C   0  0  0  0  0  0  0  0  0  0  0  0
    9.1758   -1.7197    0.0000 C   0  0  0  0  0  0  0  0  0  0  0  0
    5.5000    3.0857    0.0000 C   0  0  0  0  0  0  0  0  0  0  0  0
    4.0000    2.2197    0.0000 C   0  0  0  0  0  0  0  0  0  0  0  0
    8.3098   -3.9518    0.0000 C   0  0  0  0  0  0  0  0  0  0  0  0
    9.8098   -3.0857    0.0000 C   0  0  0  0  0  0  0  0  0  0  0  0
    9.1758   -0.7197    0.0000 C   0  0  0  0  0  0  0  0  0  0  0  0
    6.5000    3.0857    0.0000 C   0  0  0  0  0  0  0  0  0  0  0  0
    5.0000    3.9518    0.0000 C   0  0  0  0  0  0  0  0  0  0  0  0
    3.5000    3.0857    0.0000 C   0  0  0  0  0  0  0  0  0  0  0  0
    8.8098   -4.8178    0.0000 C   0  0  0  0  0  0  0  0  0  0  0  0
   10.3097   -3.9518    0.0000 C   0  0  0  0  0  0  0  0  0  0  0  0
   10.0418   -0.2197    0.0000 C   0  0  0  0  0  0  0  0  0  0  0  0
    7.0000    3.9518    0.0000 C   0  0  0  0  0  0  0  0  0  0  0  0
    5.5000    4.8178    0.0000 C   0  0  0  0  0  0  0  0  0  0  0  0
   10.9078   -1.7197    0.0000 C   0  0  0  0  0  0  0  0  0  0  0  0
    2.5000    3.0857    0.0000 C   0  0  0  0  0  0  0  0  0  0  0  0
    9.8098   -4.8178    0.0000 C   0  0  0  0  0  0  0  0  0  0  0  0
    2.5000    1.3537    0.0000 C   0  0  0  0  0  0  0  0  0  0  0  0
   10.9078   -0.7197    0.0000 C   0  0  0  0  0  0  0  0  0  0  0  0
    6.5000    4.8178    0.0000 C   0  0  0  0  0  0  0  0  0  0  0  0
    2.0000    2.2197    0.0000 C   0  0  0  0  0  0  0  0  0  0  0  0
    6.4483   -0.1911    0.0000 H   0  0  0  0  0  0  0  0  0  0  0  0
    4.6353   -2.0772    0.0000 H   0  0  0  0  0  0  0  0  0  0  0  0
    3.5543   -0.1391    0.0000 H   0  0  0  0  0  0  0  0  0  0  0  0
    6.6168    0.8608    0.0000 H   0  0  0  0  0  0  0  0  0  0  0  0
    8.6246   -0.1135    0.0000 H   0  0  0  0  0  0  0  0  0  0  0  0
    2.1339   -2.2368    0.0000 H   0  0  0  0  0  0  0  0  0  0  0  0
    6.9068   -2.4097    0.0000 H   0  0  0  0  0  0  0  0  0  0  0  0
    7.6898   -3.9518    0.0000 H   0  0  0  0  0  0  0  0  0  0  0  0
   10.1197   -2.5488    0.0000 H   0  0  0  0  0  0  0  0  0  0  0  0
    8.6388   -0.4097    0.0000 H   0  0  0  0  0  0  0  0  0  0  0  0
    6.8100    2.5488    0.0000 H   0  0  0  0  0  0  0  0  0  0  0  0
    4.3800    3.9518    0.0000 H   0  0  0  0  0  0  0  0  0  0  0  0
    3.8100    3.6227    0.0000 H   0  0  0  0  0  0  0  0  0  0  0  0
    8.4998   -5.3547    0.0000 H   0  0  0  0  0  0  0  0  0  0  0  0
   10.9297   -3.9518    0.0000 H   0  0  0  0  0  0  0  0  0  0  0  0
   10.0418    0.4003    0.0000 H   0  0  0  0  0  0  0  0  0  0  0  0
    7.6200    3.9518    0.0000 H   0  0  0  0  0  0  0  0  0  0  0  0
    5.1900    5.3547    0.0000 H   0  0  0  0  0  0  0  0  0  0  0  0
   11.4448   -2.0297    0.0000 H   0  0  0  0  0  0  0  0  0  0  0  0
    2.1900    3.6227    0.0000 H   0  0  0  0  0  0  0  0  0  0  0  0
   10.1197   -5.3547    0.0000 H   0  0  0  0  0  0  0  0  0  0  0  0
    2.1900    0.8167    0.0000 H   0  0  0  0  0  0  0  0  0  0  0  0
   11.4448   -0.4097    0.0000 H   0  0  0  0  0  0  0  0  0  0  0  0
    6.8100    5.3547    0.0000 H   0  0  0  0  0  0  0  0  0  0  0  0
    1.3800    2.2197    0.0000 H   0  0  0  0  0  0  0  0  0  0  0  0
  1 16  1  0  0  0  0
  1 46  1  0  0  0  0
  2 14  2  0  0  0  0
  3 15  2  0  0  0  0
  4 14  1  0  0  0  0
  4 15  1  0  0  0  0
  4 45  1  0  0  0  0
  5 19  1  0  0  0  0
  5 33  2  0  0  0  0
  6 21  1  0  0  0  0
  6 36  2  0  0  0  0
  7  8  1  0  0  0  0
  7 11  1  0  0  0  0
  7 12  1  0  0  0  0
  7 40  1  0  0  0  0
  8  9  1  0  0  0  0
  8 14  1  0  0  0  0
  8 41  1  0  0  0  0
  9 10  1  0  0  0  0
  9 15  1  0  0  0  0
  9 42  1  0  0  0  0
 10 11  1  0  0  0  0
 10 13  1  0  0  0  0
 10 43  1  0  0  0  0
 11 17  2  3  0  0  0
 12 13  2  0  0  0  0
 12 16  1  0  0  0  0
 13 44  1  0  0  0  0
 16 18  1  0  0  0  0
 16 19  1  0  0  0  0
 17 20  1  0  0  0  0
 17 21  1  0  0  0  0
 18 22  2  0  0  0  0
 18 23  1  0  0  0  0
 19 24  2  0  0  0  0
 20 25  2  0  0  0  0
 20 26  1  0  0  0  0
 21 27  2  0  0  0  0
 22 28  1  0  0  0  0
 22 47  1  0  0  0  0
 23 29  2  0  0  0  0
 23 48  1  0  0  0  0
 24 30  1  0  0  0  0
 24 49  1  0  0  0  0
 25 31  1  0  0  0  0
 25 50  1  0  0  0  0
 26 32  2  0  0  0  0
 26 51  1  0  0  0  0
 27 34  1  0  0  0  0
 27 52  1  0  0  0  0
 28 35  2  0  0  0  0
 28 53  1  0  0  0  0
 29 35  1  0  0  0  0
 29 54  1  0  0  0  0
 30 37  2  0  0  0  0
 30 55  1  0  0  0  0
 31 38  2  0  0  0  0
 31 56  1  0  0  0  0
 32 38  1  0  0  0  0
 32 57  1  0  0  0  0
 33 37  1  0  0  0  0
 33 58  1  0  0  0  0
 34 39  2  0  0  0  0
 34 59  1  0  0  0  0
 35 60  1  0  0  0  0
 36 39  1  0  0  0  0
 36 61  1  0  0  0  0
 37 62  1  0  0  0  0
 38 63  1  0  0  0  0
 39 64  1  0  0  0  0
M  END
> <PUBCHEM_COMPOUND_CID>
13814

> <PUBCHEM_COMPOUND_CANONICALIZED>
1

> <PUBCHEM_CACTVS_COMPLEXITY>
1040

> <PUBCHEM_CACTVS_HBOND_ACCEPTOR>
5

> <PUBCHEM_CACTVS_HBOND_DONOR>
2

> <PUBCHEM_CACTVS_ROTATABLE_BOND>
5

> <PUBCHEM_CACTVS_SUBSKEYS>
AAADceB/MAAAAAAAAAAAAAAAAAAAAeIEAAA8eIECAAAWAAAB9AAAHgAQCAAADUzBngQ8gJLIEgCoAzV3VASCgCAxAiAI2CE4bJgKJvLAkZGEcAhk1CHY2Aed3PLOgAAAAAAAAAAAAAAAAAAAAQAACAAAAA==

> <PUBCHEM_IUPAC_INCHI>
InChI=1S/C33H25N3O3/c37-31-28-22-19-23(33(39,21-13-5-2-6-14-21)25-16-8-10-18-35-25)29(30(28)32(38)36-31)27(22)26(20-11-3-1-4-12-20)24-15-7-9-17-34-24/h1-19,22,28-30,39H,(H,36,37,38)

> <PUBCHEM_IUPAC_INCHIKEY>
DNTHHIVFNQZZRD-UHFFFAOYSA-N

> <PUBCHEM_XLOGP3_AA>
3.1

> <PUBCHEM_EXACT_MASS>
511.189592

> <PUBCHEM_MOLECULAR_FORMULA>
C33H25N3O3

> <PUBCHEM_MOLECULAR_WEIGHT>
511.5699

> <PUBCHEM_OPENEYE_CAN_SMILES>
C1=CC=C(C=C1)C(=C2C3C=C(C2C4C3C(=O)NC4=O)C(C5=CC=CC=C5)(C6=CC=CC=N6)O)C7=CC=CC=N7

> <PUBCHEM_OPENEYE_ISO_SMILES>
C1=CC=C(C=C1)C(=C2C3C=C(C2C4C3C(=O)NC4=O)C(C5=CC=CC=C5)(C6=CC=CC=N6)O)C7=CC=CC=N7

> <PUBCHEM_CACTVS_TPSA>
92.2

> <PUBCHEM_MONOISOTOPIC_WEIGHT>
511.189592

> <PUBCHEM_TOTAL_CHARGE>
0

> <PUBCHEM_HEAVY_ATOM_COUNT>
39

> <PUBCHEM_ATOM_DEF_STEREO_COUNT>
0

> <PUBCHEM_ATOM_UDEF_STEREO_COUNT>
5

> <PUBCHEM_BOND_DEF_STEREO_COUNT>
0

> <PUBCHEM_BOND_UDEF_STEREO_COUNT>
1

> <PUBCHEM_ISOTOPIC_ATOM_COUNT>
0

> <PUBCHEM_COMPONENT_COUNT>
1

> <PUBCHEM_CACTVS_TAUTO_COUNT>
3

> <PUBCHEM_COORDINATE_TYPE>
1
5
255

> <PUBCHEM_BONDANNOTATIONS>
16  1  3
10  13  3
11  17  1
18  22  8
18  23  8
19  24  8
20  25  8
20  26  8
21  27  8
22  28  8
23  29  8
24  30  8
25  31  8
26  32  8
27  34  8
28  35  8
29  35  8
30  37  8
31  38  8
32  38  8
33  37  8
34  39  8
36  39  8
5  19  8
5  33  8
6  21  8
6  36  8
7  11  3
8  14  3
9  15  3

$$$$

