10884
  -OEChem-06261205053D

 25 24  0     0  0  0  0  0  0999 V2000
   -1.7437   -0.4223    0.1776 O   0  0  0  0  0  0  0  0  0  0  0  0
   -0.8666    1.6874   -0.0579 O   0  0  0  0  0  0  0  0  0  0  0  0
    0.4312   -0.0982    0.6593 N   0  0  0  0  0  0  0  0  0  0  0  0
    2.7882    0.0263   -0.0638 C   0  0  0  0  0  0  0  0  0  0  0  0
    1.6778    0.5989    0.8243 C   0  0  0  0  0  0  0  0  0  0  0  0
    2.3992    0.1540   -1.5371 C   0  0  0  0  0  0  0  0  0  0  0  0
    3.0826   -1.4371    0.2734 C   0  0  0  0  0  0  0  0  0  0  0  0
   -0.7389    0.5023    0.2319 C   0  0  0  0  0  0  0  0  0  0  0  0
   -3.0193    0.0665   -0.2524 C   0  0  0  0  0  0  0  0  0  0  0  0
   -4.0103   -1.0778   -0.2554 C   0  0  0  0  0  0  0  0  0  0  0  0
    3.6999    0.6110    0.1099 H   0  0  0  0  0  0  0  0  0  0  0  0
    1.9569    0.5059    1.8798 H   0  0  0  0  0  0  0  0  0  0  0  0
    1.5406    1.6658    0.6158 H   0  0  0  0  0  0  0  0  0  0  0  0
    1.5314   -0.4639   -1.7910 H   0  0  0  0  0  0  0  0  0  0  0  0
    3.2283   -0.1638   -2.1789 H   0  0  0  0  0  0  0  0  0  0  0  0
    2.1647    1.1933   -1.7905 H   0  0  0  0  0  0  0  0  0  0  0  0
    2.2370   -2.0929    0.0423 H   0  0  0  0  0  0  0  0  0  0  0  0
    3.3235   -1.5503    1.3355 H   0  0  0  0  0  0  0  0  0  0  0  0
    3.9431   -1.7946   -0.3025 H   0  0  0  0  0  0  0  0  0  0  0  0
    0.3889   -1.0804    0.9131 H   0  0  0  0  0  0  0  0  0  0  0  0
   -3.3602    0.8496    0.4338 H   0  0  0  0  0  0  0  0  0  0  0  0
   -2.9293    0.4810   -1.2626 H   0  0  0  0  0  0  0  0  0  0  0  0
   -4.9981   -0.7389   -0.5799 H   0  0  0  0  0  0  0  0  0  0  0  0
   -3.6737   -1.8774   -0.9235 H   0  0  0  0  0  0  0  0  0  0  0  0
   -4.0973   -1.5149    0.7448 H   0  0  0  0  0  0  0  0  0  0  0  0
  1  8  1  0  0  0  0
  1  9  1  0  0  0  0
  2  8  2  0  0  0  0
  3  5  1  0  0  0  0
  3  8  1  0  0  0  0
  3 20  1  0  0  0  0
  4  5  1  0  0  0  0
  4  6  1  0  0  0  0
  4  7  1  0  0  0  0
  4 11  1  0  0  0  0
  5 12  1  0  0  0  0
  5 13  1  0  0  0  0
  6 14  1  0  0  0  0
  6 15  1  0  0  0  0
  6 16  1  0  0  0  0
  7 17  1  0  0  0  0
  7 18  1  0  0  0  0
  7 19  1  0  0  0  0
  9 10  1  0  0  0  0
  9 21  1  0  0  0  0
  9 22  1  0  0  0  0
 10 23  1  0  0  0  0
 10 24  1  0  0  0  0
 10 25  1  0  0  0  0
M  END
> <PUBCHEM_COMPOUND_CID>
10884

> <PUBCHEM_CONFORMER_RMSD>
0.6

> <PUBCHEM_CONFORMER_DIVERSEORDER>
1
7
15
11
5
14
4
3
16
19
9
2
17
21
12
20
6
22
23
8
18
13
10

> <PUBCHEM_MMFF94_PARTIAL_CHARGES>
7
1 -0.43
2 -0.57
20 0.37
3 -0.73
5 0.3
8 0.78
9 0.28

> <PUBCHEM_EFFECTIVE_ROTOR_COUNT>
5

> <PUBCHEM_PHARMACOPHORE_FEATURES>
3
1 2 acceptor
1 3 donor
3 4 6 7 hydrophobe

> <PUBCHEM_HEAVY_ATOM_COUNT>
10

> <PUBCHEM_ATOM_DEF_STEREO_COUNT>
0

> <PUBCHEM_ATOM_UDEF_STEREO_COUNT>
0

> <PUBCHEM_BOND_DEF_STEREO_COUNT>
0

> <PUBCHEM_BOND_UDEF_STEREO_COUNT>
0

> <PUBCHEM_ISOTOPIC_ATOM_COUNT>
0

> <PUBCHEM_COMPONENT_COUNT>
1

> <PUBCHEM_CACTVS_TAUTO_COUNT>
2

> <PUBCHEM_CONFORMER_ID>
00002A8400000001

> <PUBCHEM_MMFF94_ENERGY>
4.5123

> <PUBCHEM_FEATURE_SELFOVERLAP>
15.223

> <PUBCHEM_SHAPE_FINGERPRINT>
10149128 111 10952046788145219158
11031198 65 13542463193725894794
12897270 3 18273208694911497200
12932741 1 15051431835084052328
12932764 1 18334572455868830937
14252887 29 16950558870317569926
14390081 3 13902189270386937269
177051 138 18408887364590587246
18186145 218 16056880238803430365
20201158 50 17603301561712727998
20281407 28 18260265252577139251
20653085 51 16200428108865133837
21119208 17 17131837572686592095
21293036 1 17846498097700928497
22485316 2 18333739000533131671
23552423 10 17987518284903682394
29004967 10 16371008550690956920
3248919 1 17632289090546382080
581208 293 16370729218428147510

> <PUBCHEM_SHAPE_MULTIPOLES>
189.08
6.51
1.24
0.99
4.16
0.01
-0.31
2.78
-0.93
-0.02
0.07
-0.73
-0.05
-0.19

> <PUBCHEM_SHAPE_SELFOVERLAP>
345.088

> <PUBCHEM_SHAPE_VOLUME>
121.4

> <PUBCHEM_COORDINATE_TYPE>
2
5
10

$$$$

