17396300
  -OEChem-06241222553D

 40 41  0     0  0  0  0  0  0999 V2000
   -1.5094   -1.9903   -0.2681 O   0  0  0  0  0  0  0  0  0  0  0  0
   -7.0078    0.9176    0.1751 O   0  0  0  0  0  0  0  0  0  0  0  0
    4.7210    0.0815    0.0107 N   0  0  0  0  0  0  0  0  0  0  0  0
   -0.8926    0.2626    0.0313 N   0  0  0  0  0  0  0  0  0  0  0  0
   -4.7757    1.1817    0.7139 N   0  0  0  0  0  0  0  0  0  0  0  0
    3.3111    0.1270    0.0163 C   0  0  0  0  0  0  0  0  0  0  0  0
    5.4137   -1.1804   -0.1569 C   0  0  0  0  0  0  0  0  0  0  0  0
    5.4948    1.2980    0.1586 C   0  0  0  0  0  0  0  0  0  0  0  0
    2.6532    1.3462    0.1775 C   0  0  0  0  0  0  0  0  0  0  0  0
    2.5749   -1.0476   -0.1402 C   0  0  0  0  0  0  0  0  0  0  0  0
    0.5229    0.2168    0.0262 C   0  0  0  0  0  0  0  0  0  0  0  0
    5.4651   -1.9271    1.1622 C   0  0  0  0  0  0  0  0  0  0  0  0
    5.5832    2.0254   -1.1692 C   0  0  0  0  0  0  0  0  0  0  0  0
    1.2591    1.3912    0.1824 C   0  0  0  0  0  0  0  0  0  0  0  0
    1.1808   -1.0025   -0.1352 C   0  0  0  0  0  0  0  0  0  0  0  0
   -1.7796   -0.7983   -0.1101 C   0  0  0  0  0  0  0  0  0  0  0  0
   -3.1761   -0.3674   -0.0522 C   0  0  0  0  0  0  0  0  0  0  0  0
   -3.4763    0.7421    0.6345 C   0  0  0  0  0  0  0  0  0  0  0  0
   -4.2219   -1.1084   -0.7142 C   0  0  0  0  0  0  0  0  0  0  0  0
   -5.4974   -0.7018   -0.6532 C   0  0  0  0  0  0  0  0  0  0  0  0
   -5.8428    0.5340    0.1105 C   0  0  0  0  0  0  0  0  0  0  0  0
    6.4464   -0.9956   -0.4806 H   0  0  0  0  0  0  0  0  0  0  0  0
    4.9875   -1.7947   -0.9580 H   0  0  0  0  0  0  0  0  0  0  0  0
    5.1167    1.9473    0.9561 H   0  0  0  0  0  0  0  0  0  0  0  0
    6.5160    1.0496    0.4766 H   0  0  0  0  0  0  0  0  0  0  0  0
    3.1646    2.2934    0.3063 H   0  0  0  0  0  0  0  0  0  0  0  0
    3.0247   -2.0251   -0.2734 H   0  0  0  0  0  0  0  0  0  0  0  0
    6.0225   -2.8619    1.0423 H   0  0  0  0  0  0  0  0  0  0  0  0
    4.4742   -2.1788    1.5500 H   0  0  0  0  0  0  0  0  0  0  0  0
    5.9740   -1.3309    1.9278 H   0  0  0  0  0  0  0  0  0  0  0  0
    6.2023    2.9223   -1.0648 H   0  0  0  0  0  0  0  0  0  0  0  0
    4.6070    2.3381   -1.5498 H   0  0  0  0  0  0  0  0  0  0  0  0
    6.0437    1.3888   -1.9329 H   0  0  0  0  0  0  0  0  0  0  0  0
    0.7586    2.3478    0.3099 H   0  0  0  0  0  0  0  0  0  0  0  0
    0.6774   -1.9507   -0.2623 H   0  0  0  0  0  0  0  0  0  0  0  0
   -1.2471    1.2129    0.0821 H   0  0  0  0  0  0  0  0  0  0  0  0
   -2.7914    1.3541    1.2059 H   0  0  0  0  0  0  0  0  0  0  0  0
   -3.9651   -2.0030   -1.2713 H   0  0  0  0  0  0  0  0  0  0  0  0
   -4.9555    2.0236    1.2532 H   0  0  0  0  0  0  0  0  0  0  0  0
   -6.2964   -1.2432   -1.1452 H   0  0  0  0  0  0  0  0  0  0  0  0
  1 16  2  0  0  0  0
  2 21  2  0  0  0  0
  3  6  1  0  0  0  0
  3  7  1  0  0  0  0
  3  8  1  0  0  0  0
  4 11  1  0  0  0  0
  4 16  1  0  0  0  0
  4 36  1  0  0  0  0
  5 18  1  0  0  0  0
  5 21  1  0  0  0  0
  5 39  1  0  0  0  0
  6  9  2  0  0  0  0
  6 10  1  0  0  0  0
  7 12  1  0  0  0  0
  7 22  1  0  0  0  0
  7 23  1  0  0  0  0
  8 13  1  0  0  0  0
  8 24  1  0  0  0  0
  8 25  1  0  0  0  0
  9 14  1  0  0  0  0
  9 26  1  0  0  0  0
 10 15  2  0  0  0  0
 10 27  1  0  0  0  0
 11 14  2  0  0  0  0
 11 15  1  0  0  0  0
 12 28  1  0  0  0  0
 12 29  1  0  0  0  0
 12 30  1  0  0  0  0
 13 31  1  0  0  0  0
 13 32  1  0  0  0  0
 13 33  1  0  0  0  0
 14 34  1  0  0  0  0
 15 35  1  0  0  0  0
 16 17  1  0  0  0  0
 17 18  2  0  0  0  0
 17 19  1  0  0  0  0
 18 37  1  0  0  0  0
 19 20  2  0  0  0  0
 19 38  1  0  0  0  0
 20 21  1  0  0  0  0
 20 40  1  0  0  0  0
M  END
> <PUBCHEM_COMPOUND_CID>
17396300

> <PUBCHEM_CONFORMER_RMSD>
0.8

> <PUBCHEM_CONFORMER_DIVERSEORDER>
3
10
2
8
6
5
9
1
4
7

> <PUBCHEM_MMFF94_PARTIAL_CHARGES>
28
1 -0.57
10 -0.15
11 0.12
14 -0.15
15 -0.15
16 0.62
17 0.01
18 -0.04
19 -0.15
2 -0.57
20 -0.14
21 0.62
26 0.15
27 0.15
3 -0.84
34 0.15
35 0.15
36 0.37
37 0.15
38 0.15
39 0.37
4 -0.55
40 0.15
5 -0.54
6 0.1
7 0.37
8 0.37
9 -0.15

> <PUBCHEM_EFFECTIVE_ROTOR_COUNT>
6

> <PUBCHEM_PHARMACOPHORE_FEATURES>
7
1 1 acceptor
1 2 acceptor
1 3 cation
1 4 donor
1 5 donor
6 5 17 18 19 20 21 rings
6 6 9 10 11 14 15 rings

> <PUBCHEM_HEAVY_ATOM_COUNT>
21

> <PUBCHEM_ATOM_DEF_STEREO_COUNT>
0

> <PUBCHEM_ATOM_UDEF_STEREO_COUNT>
0

> <PUBCHEM_BOND_DEF_STEREO_COUNT>
0

> <PUBCHEM_BOND_UDEF_STEREO_COUNT>
0

> <PUBCHEM_ISOTOPIC_ATOM_COUNT>
0

> <PUBCHEM_COMPONENT_COUNT>
1

> <PUBCHEM_CACTVS_TAUTO_COUNT>
7

> <PUBCHEM_CONFORMER_ID>
0109724C00000003

> <PUBCHEM_MMFF94_ENERGY>
74.2304

> <PUBCHEM_FEATURE_SELFOVERLAP>
35.52

> <PUBCHEM_SHAPE_FINGERPRINT>
10554248 39 18411429431157810086
10595046 47 18335139786905210855
10906281 52 18261656121801108119
11315181 36 17240479182950698345
11719270 70 17821731666931567582
12107183 9 17613148989846285531
12236239 1 18409168805349730935
12596602 18 18060416902631989249
12788726 201 17895184537093388080
13167372 99 18410292553151235545
13533116 47 17774727566988724154
14251752 14 18342182219142624613
14251764 18 18408325471003662591
14528608 73 18260546684873286780
15048467 5 18412261714152221820
15183329 4 18333446560204130036
15196674 1 18408323267764677902
1577012 14 18335139774136282221
17834072 33 18113901537267970388
17844677 252 17989489658124250980
19489759 90 16660361498134117187
200 152 17894351060161201099
20281389 69 18411983576570932329
20612939 158 18343580733635129916
20645477 70 18410575106982350118
21033648 29 17560538239057602205
21150785 3 13840263659510556488
21267235 1 18334288752205117615
220451 1 18335980891551303502
22224240 67 15841551847692726337
23081809 10 18335424547405322087
23402539 116 17967820440198744301
23402655 69 18261112950224923591
23522609 53 18266153128675674781
23536379 177 18408886243556293091
23559900 14 17968386637005361209
29717793 49 18113333129023071862
300161 21 18261394412765027608
3004659 81 18409727383564586694
3014965 18 18130514131741132906
335352 9 18408602574495151942
34797466 226 16009027233836895560
3545911 37 18259984873323413193
397830 11 16271063918177786273
4072396 5 18041002868981342142
4073 2 18058726893062327738
4214541 1 18333450933087440335
4340502 62 16415203360640279688
4463277 17 18410011026639990676
5104073 3 18335984190086298058
542803 24 18272370849655069397
6328613 192 18410288073664051548
9965369 4 18334296508794637699
9981440 41 17185883791777771152

> <PUBCHEM_SHAPE_MULTIPOLES>
405.49
17.2
1.85
0.83
8.29
0.08
-0.01
-2.44
-0.06
-2.18
-0.02
-0.32
-0.01
-1.71

> <PUBCHEM_SHAPE_SELFOVERLAP>
853.863

> <PUBCHEM_SHAPE_VOLUME>
228.2

> <PUBCHEM_COORDINATE_TYPE>
2
5
10

$$$$

