17396401
  -OEChem-06241222562D

 36 38  0     0  0  0  0  0  0999 V2000
    6.7619    2.0981    0.0000 O   0  0  0  0  0  0  0  0  0  0  0  0
   11.2619   -0.5000    0.0000 O   0  0  0  0  0  0  0  0  0  0  0  0
    3.7320    1.7320    0.0000 N   0  0  0  0  0  0  0  0  0  0  0  0
    4.6783    0.4273    0.0000 N   0  0  0  0  0  0  0  0  0  0  0  0
    6.7619    0.3660    0.0000 N   0  0  0  0  0  0  0  0  0  0  0  0
    9.7619   -1.3660    0.0000 N   0  0  0  0  0  0  0  0  0  0  0  0
    3.7320    0.7321    0.0000 C   0  0  0  0  0  0  0  0  0  0  0  0
    5.2619    1.2320    0.0000 C   0  0  0  0  0  0  0  0  0  0  0  0
    4.6783    2.0368    0.0000 C   0  0  0  0  0  0  0  0  0  0  0  0
    7.7619    0.3660    0.0000 C   0  0  0  0  0  0  0  0  0  0  0  0
    6.2619    1.2320    0.0000 C   0  0  0  0  0  0  0  0  0  0  0  0
    2.8660    2.2320    0.0000 C   0  0  0  0  0  0  0  0  0  0  0  0
    2.8660    0.2321    0.0000 C   0  0  0  0  0  0  0  0  0  0  0  0
    9.2619   -0.5000    0.0000 C   0  0  0  0  0  0  0  0  0  0  0  0
    8.2619   -0.5000    0.0000 C   0  0  0  0  0  0  0  0  0  0  0  0
    8.2619    1.2320    0.0000 C   0  0  0  0  0  0  0  0  0  0  0  0
    2.0000    1.7320    0.0000 C   0  0  0  0  0  0  0  0  0  0  0  0
    2.0000    0.7321    0.0000 C   0  0  0  0  0  0  0  0  0  0  0  0
    9.7619    0.3660    0.0000 C   0  0  0  0  0  0  0  0  0  0  0  0
    9.2619    1.2320    0.0000 C   0  0  0  0  0  0  0  0  0  0  0  0
   10.7619   -1.3660    0.0000 C   0  0  0  0  0  0  0  0  0  0  0  0
   11.2619   -2.2320    0.0000 C   0  0  0  0  0  0  0  0  0  0  0  0
    4.8709    2.6261    0.0000 H   0  0  0  0  0  0  0  0  0  0  0  0
    2.8660    2.8521    0.0000 H   0  0  0  0  0  0  0  0  0  0  0  0
    2.8660   -0.3879    0.0000 H   0  0  0  0  0  0  0  0  0  0  0  0
    6.4519   -0.1709    0.0000 H   0  0  0  0  0  0  0  0  0  0  0  0
    7.9519   -1.0369    0.0000 H   0  0  0  0  0  0  0  0  0  0  0  0
    7.9519    1.7690    0.0000 H   0  0  0  0  0  0  0  0  0  0  0  0
    1.4631    2.0420    0.0000 H   0  0  0  0  0  0  0  0  0  0  0  0
    1.4631    0.4221    0.0000 H   0  0  0  0  0  0  0  0  0  0  0  0
   10.3819    0.3660    0.0000 H   0  0  0  0  0  0  0  0  0  0  0  0
    9.5719    1.7690    0.0000 H   0  0  0  0  0  0  0  0  0  0  0  0
    9.4519   -1.9030    0.0000 H   0  0  0  0  0  0  0  0  0  0  0  0
   10.7249   -2.5420    0.0000 H   0  0  0  0  0  0  0  0  0  0  0  0
   11.5719   -2.7690    0.0000 H   0  0  0  0  0  0  0  0  0  0  0  0
   11.7988   -1.9220    0.0000 H   0  0  0  0  0  0  0  0  0  0  0  0
  1 11  2  0  0  0  0
  2 21  2  0  0  0  0
  3  7  1  0  0  0  0
  3  9  1  0  0  0  0
  3 12  1  0  0  0  0
  4  7  2  0  0  0  0
  4  8  1  0  0  0  0
  5 10  1  0  0  0  0
  5 11  1  0  0  0  0
  5 26  1  0  0  0  0
  6 14  1  0  0  0  0
  6 21  1  0  0  0  0
  6 33  1  0  0  0  0
  7 13  1  0  0  0  0
  8  9  2  0  0  0  0
  8 11  1  0  0  0  0
  9 23  1  0  0  0  0
 10 15  1  0  0  0  0
 10 16  2  0  0  0  0
 12 17  2  0  0  0  0
 12 24  1  0  0  0  0
 13 18  2  0  0  0  0
 13 25  1  0  0  0  0
 14 15  2  0  0  0  0
 14 19  1  0  0  0  0
 15 27  1  0  0  0  0
 16 20  1  0  0  0  0
 16 28  1  0  0  0  0
 17 18  1  0  0  0  0
 17 29  1  0  0  0  0
 18 30  1  0  0  0  0
 19 20  2  0  0  0  0
 19 31  1  0  0  0  0
 20 32  1  0  0  0  0
 21 22  1  0  0  0  0
 22 34  1  0  0  0  0
 22 35  1  0  0  0  0
 22 36  1  0  0  0  0
M  END
> <PUBCHEM_COMPOUND_CID>
17396401

> <PUBCHEM_COMPOUND_CANONICALIZED>
1

> <PUBCHEM_CACTVS_COMPLEXITY>
428

> <PUBCHEM_CACTVS_HBOND_ACCEPTOR>
3

> <PUBCHEM_CACTVS_HBOND_DONOR>
2

> <PUBCHEM_CACTVS_ROTATABLE_BOND>
3

> <PUBCHEM_CACTVS_SUBSKEYS>
AAADccB7sAAAAAAAAAAAAAAAAAAAAWAAAAA8QAAAAAAAAFgB8AAAHgAQAAAACAjBlwQ/8J/MGACoATd3dACCgC03EqAJ2CG4dNiIaOrA2fGUIIholALIyOcQAAAAAAAAAAQAAAAAAAAACAAAAAAAAAAAAA==

> <PUBCHEM_IUPAC_OPENEYE_NAME>
N-(3-acetamidophenyl)imidazo[1,2-a]pyridine-2-carboxamide

> <PUBCHEM_IUPAC_CAS_NAME>
N-(3-acetamidophenyl)-2-imidazo[1,2-a]pyridinecarboxamide

> <PUBCHEM_IUPAC_NAME>
N-(3-acetamidophenyl)imidazo[1,2-a]pyridine-2-carboxamide

> <PUBCHEM_IUPAC_SYSTEMATIC_NAME>
N-(3-acetamidophenyl)imidazo[1,2-a]pyridine-2-carboxamide

> <PUBCHEM_IUPAC_TRADITIONAL_NAME>
N-(3-acetamidophenyl)imidazo[1,2-a]pyridine-2-carboxamide

> <PUBCHEM_IUPAC_INCHI>
InChI=1S/C16H14N4O2/c1-11(21)17-12-5-4-6-13(9-12)18-16(22)14-10-20-8-3-2-7-15(20)19-14/h2-10H,1H3,(H,17,21)(H,18,22)

> <PUBCHEM_IUPAC_INCHIKEY>
PCMIKGRAKYTZTR-UHFFFAOYSA-N

> <PUBCHEM_XLOGP3_AA>
2.1

> <PUBCHEM_EXACT_MASS>
294.111676

> <PUBCHEM_MOLECULAR_FORMULA>
C16H14N4O2

> <PUBCHEM_MOLECULAR_WEIGHT>
294.30796

> <PUBCHEM_OPENEYE_CAN_SMILES>
CC(=O)NC1=CC=CC(=C1)NC(=O)C2=CN3C=CC=CC3=N2

> <PUBCHEM_OPENEYE_ISO_SMILES>
CC(=O)NC1=CC=CC(=C1)NC(=O)C2=CN3C=CC=CC3=N2

> <PUBCHEM_CACTVS_TPSA>
75.5

> <PUBCHEM_MONOISOTOPIC_WEIGHT>
294.111676

> <PUBCHEM_TOTAL_CHARGE>
0

> <PUBCHEM_HEAVY_ATOM_COUNT>
22

> <PUBCHEM_ATOM_DEF_STEREO_COUNT>
0

> <PUBCHEM_ATOM_UDEF_STEREO_COUNT>
0

> <PUBCHEM_BOND_DEF_STEREO_COUNT>
0

> <PUBCHEM_BOND_UDEF_STEREO_COUNT>
0

> <PUBCHEM_ISOTOPIC_ATOM_COUNT>
0

> <PUBCHEM_COMPONENT_COUNT>
1

> <PUBCHEM_CACTVS_TAUTO_COUNT>
6

> <PUBCHEM_COORDINATE_TYPE>
1
5
255

> <PUBCHEM_BONDANNOTATIONS>
10  15  8
10  16  8
12  17  8
13  18  8
14  15  8
14  19  8
16  20  8
17  18  8
19  20  8
3  12  8
3  7  8
3  9  8
4  7  8
4  8  8
7  13  8
8  9  8

$$$$

