17396402
  -OEChem-06241222562D

 32 34  0     0  0  0  0  0  0999 V2000
   10.7619   -0.5000    0.0000 Br  0  0  0  0  0  0  0  0  0  0  0  0
    6.7619    1.2320    0.0000 O   0  0  0  0  0  0  0  0  0  0  0  0
    3.7320    0.8660    0.0000 N   0  0  0  0  0  0  0  0  0  0  0  0
    6.7619   -0.5000    0.0000 N   0  0  0  0  0  0  0  0  0  0  0  0
    4.6783   -0.4387    0.0000 N   0  0  0  0  0  0  0  0  0  0  0  0
    3.7320   -0.1340    0.0000 C   0  0  0  0  0  0  0  0  0  0  0  0
    5.2619    0.3660    0.0000 C   0  0  0  0  0  0  0  0  0  0  0  0
    4.6783    1.1708    0.0000 C   0  0  0  0  0  0  0  0  0  0  0  0
    7.7619   -0.5000    0.0000 C   0  0  0  0  0  0  0  0  0  0  0  0
    8.2619    0.3660    0.0000 C   0  0  0  0  0  0  0  0  0  0  0  0
    6.2619    0.3660    0.0000 C   0  0  0  0  0  0  0  0  0  0  0  0
    2.8660    1.3660    0.0000 C   0  0  0  0  0  0  0  0  0  0  0  0
    2.8660   -0.6340    0.0000 C   0  0  0  0  0  0  0  0  0  0  0  0
    8.2619   -1.3660    0.0000 C   0  0  0  0  0  0  0  0  0  0  0  0
    9.2619    0.3660    0.0000 C   0  0  0  0  0  0  0  0  0  0  0  0
    2.0000    0.8660    0.0000 C   0  0  0  0  0  0  0  0  0  0  0  0
    2.0000   -0.1340    0.0000 C   0  0  0  0  0  0  0  0  0  0  0  0
    7.7619    1.2320    0.0000 C   0  0  0  0  0  0  0  0  0  0  0  0
    9.2619   -1.3660    0.0000 C   0  0  0  0  0  0  0  0  0  0  0  0
    9.7619   -0.5000    0.0000 C   0  0  0  0  0  0  0  0  0  0  0  0
    4.8709    1.7601    0.0000 H   0  0  0  0  0  0  0  0  0  0  0  0
    6.4519   -1.0369    0.0000 H   0  0  0  0  0  0  0  0  0  0  0  0
    2.8660    1.9860    0.0000 H   0  0  0  0  0  0  0  0  0  0  0  0
    2.8660   -1.2540    0.0000 H   0  0  0  0  0  0  0  0  0  0  0  0
    7.9519   -1.9030    0.0000 H   0  0  0  0  0  0  0  0  0  0  0  0
    9.5719    0.9030    0.0000 H   0  0  0  0  0  0  0  0  0  0  0  0
    1.4631    1.1760    0.0000 H   0  0  0  0  0  0  0  0  0  0  0  0
    1.4631   -0.4440    0.0000 H   0  0  0  0  0  0  0  0  0  0  0  0
    8.2988    1.5420    0.0000 H   0  0  0  0  0  0  0  0  0  0  0  0
    7.4519    1.7690    0.0000 H   0  0  0  0  0  0  0  0  0  0  0  0
    7.2249    0.9221    0.0000 H   0  0  0  0  0  0  0  0  0  0  0  0
    9.5719   -1.9030    0.0000 H   0  0  0  0  0  0  0  0  0  0  0  0
  1 20  1  0  0  0  0
  2 11  2  0  0  0  0
  3  6  1  0  0  0  0
  3  8  1  0  0  0  0
  3 12  1  0  0  0  0
  4  9  1  0  0  0  0
  4 11  1  0  0  0  0
  4 22  1  0  0  0  0
  5  6  2  0  0  0  0
  5  7  1  0  0  0  0
  6 13  1  0  0  0  0
  7  8  2  0  0  0  0
  7 11  1  0  0  0  0
  8 21  1  0  0  0  0
  9 10  2  0  0  0  0
  9 14  1  0  0  0  0
 10 15  1  0  0  0  0
 10 18  1  0  0  0  0
 12 16  2  0  0  0  0
 12 23  1  0  0  0  0
 13 17  2  0  0  0  0
 13 24  1  0  0  0  0
 14 19  2  0  0  0  0
 14 25  1  0  0  0  0
 15 20  2  0  0  0  0
 15 26  1  0  0  0  0
 16 17  1  0  0  0  0
 16 27  1  0  0  0  0
 17 28  1  0  0  0  0
 18 29  1  0  0  0  0
 18 30  1  0  0  0  0
 18 31  1  0  0  0  0
 19 20  1  0  0  0  0
 19 32  1  0  0  0  0
M  END
> <PUBCHEM_COMPOUND_CID>
17396402

> <PUBCHEM_COMPOUND_CANONICALIZED>
1

> <PUBCHEM_CACTVS_COMPLEXITY>
365

> <PUBCHEM_CACTVS_HBOND_ACCEPTOR>
2

> <PUBCHEM_CACTVS_HBOND_DONOR>
1

> <PUBCHEM_CACTVS_ROTATABLE_BOND>
2

> <PUBCHEM_CACTVS_SUBSKEYS>
AAADccBzIAAAEAAAAAAAAAAAAAAAAWAAAAA8QAAAAAAAAFgB8AAAHgBQAAABrAjBnwQ/8J/MGACoAzd3dACCgC03EqQJ2CG4dPiIaOrA2bGUIIholALIyvcQgAAOAAAgEAACAAAAAEAgAAQAAAAAAAAAAA==

> <PUBCHEM_IUPAC_OPENEYE_NAME>
N-(4-bromo-2-methyl-phenyl)imidazo[1,2-a]pyridine-2-carboxamide

> <PUBCHEM_IUPAC_CAS_NAME>
N-(4-bromo-2-methylphenyl)-2-imidazo[1,2-a]pyridinecarboxamide

> <PUBCHEM_IUPAC_NAME>
N-(4-bromo-2-methylphenyl)imidazo[1,2-a]pyridine-2-carboxamide

> <PUBCHEM_IUPAC_SYSTEMATIC_NAME>
N-(4-bromanyl-2-methyl-phenyl)imidazo[1,2-a]pyridine-2-carboxamide

> <PUBCHEM_IUPAC_TRADITIONAL_NAME>
N-(4-bromo-2-methyl-phenyl)imidazo[1,2-a]pyridine-2-carboxamide

> <PUBCHEM_IUPAC_INCHI>
InChI=1S/C15H12BrN3O/c1-10-8-11(16)5-6-12(10)18-15(20)13-9-19-7-3-2-4-14(19)17-13/h2-9H,1H3,(H,18,20)

> <PUBCHEM_IUPAC_INCHIKEY>
FCWXLTIEHPDKEW-UHFFFAOYSA-N

> <PUBCHEM_XLOGP3_AA>
4

> <PUBCHEM_EXACT_MASS>
329.016374

> <PUBCHEM_MOLECULAR_FORMULA>
C15H12BrN3O

> <PUBCHEM_MOLECULAR_WEIGHT>
330.17928

> <PUBCHEM_OPENEYE_CAN_SMILES>
CC1=C(C=CC(=C1)Br)NC(=O)C2=CN3C=CC=CC3=N2

> <PUBCHEM_OPENEYE_ISO_SMILES>
CC1=C(C=CC(=C1)Br)NC(=O)C2=CN3C=CC=CC3=N2

> <PUBCHEM_CACTVS_TPSA>
46.4

> <PUBCHEM_MONOISOTOPIC_WEIGHT>
329.016374

> <PUBCHEM_TOTAL_CHARGE>
0

> <PUBCHEM_HEAVY_ATOM_COUNT>
20

> <PUBCHEM_ATOM_DEF_STEREO_COUNT>
0

> <PUBCHEM_ATOM_UDEF_STEREO_COUNT>
0

> <PUBCHEM_BOND_DEF_STEREO_COUNT>
0

> <PUBCHEM_BOND_UDEF_STEREO_COUNT>
0

> <PUBCHEM_ISOTOPIC_ATOM_COUNT>
0

> <PUBCHEM_COMPONENT_COUNT>
1

> <PUBCHEM_CACTVS_TAUTO_COUNT>
2

> <PUBCHEM_COORDINATE_TYPE>
1
5
255

> <PUBCHEM_BONDANNOTATIONS>
10  15  8
12  16  8
13  17  8
14  19  8
15  20  8
16  17  8
19  20  8
3  12  8
3  6  8
3  8  8
5  6  8
5  7  8
6  13  8
7  8  8
9  10  8
9  14  8

$$$$

