51090891
  -OEChem-06241223003D

 51 51  0     1  0  0  0  0  0999 V2000
   -1.9902   -0.7474   -0.6269 O   0  0  0  0  0  0  0  0  0  0  0  0
   -4.3329    0.9712    1.5431 O   0  0  0  0  0  0  0  0  0  0  0  0
   -6.1705   -1.0447   -1.4783 O   0  0  0  0  0  0  0  0  0  0  0  0
   -0.0296    0.0161    0.3581 N   0  0  0  0  0  0  0  0  0  0  0  0
   -3.1951    1.6398   -0.3721 N   0  0  0  0  0  0  0  0  0  0  0  0
   -6.6235    0.6841    0.0161 N   0  0  0  0  0  0  0  0  0  0  0  0
    6.8145    0.9906   -0.6914 C   0  0  0  0  0  0  0  0  0  0  0  0
    6.4285   -0.3632   -0.0641 C   0  0  0  0  0  0  0  0  0  0  0  0
    4.9393   -0.5907    0.0287 C   0  0  0  0  0  0  0  0  0  0  0  0
    0.7146   -1.2302    0.2912 C   0  0  1  0  0  0  0  0  0  0  0  0
    2.1866   -1.0093    0.2005 C   0  0  0  0  0  0  0  0  0  0  0  0
    4.2417   -0.1846    1.1664 C   0  0  0  0  0  0  0  0  0  0  0  0
    4.2604   -1.2058   -1.0232 C   0  0  0  0  0  0  0  0  0  0  0  0
    6.2615    2.1725    0.1089 C   0  0  0  0  0  0  0  0  0  0  0  0
    8.3381    1.1016   -0.7877 C   0  0  0  0  0  0  0  0  0  0  0  0
    2.8654   -0.3940    1.2523 C   0  0  0  0  0  0  0  0  0  0  0  0
    2.8841   -1.4153   -0.9372 C   0  0  0  0  0  0  0  0  0  0  0  0
    0.3026   -2.1181    1.4750 C   0  0  0  0  0  0  0  0  0  0  0  0
   -1.3245    0.1464   -0.1104 C   0  0  0  0  0  0  0  0  0  0  0  0
   -1.8615    1.5391    0.1426 C   0  0  0  0  0  0  0  0  0  0  0  0
   -4.3361    1.3460    0.3733 C   0  0  0  0  0  0  0  0  0  0  0  0
   -5.6051    1.5963   -0.4132 C   0  0  0  0  0  0  0  0  0  0  0  0
   -6.8246   -0.5687   -0.5541 C   0  0  0  0  0  0  0  0  0  0  0  0
   -7.9437   -1.3317    0.1024 C   0  0  0  0  0  0  0  0  0  0  0  0
    6.4039    1.0458   -1.7078 H   0  0  0  0  0  0  0  0  0  0  0  0
    6.8673   -0.4520    0.9391 H   0  0  0  0  0  0  0  0  0  0  0  0
    6.8750   -1.1796   -0.6477 H   0  0  0  0  0  0  0  0  0  0  0  0
    0.3759   -1.7490   -0.6155 H   0  0  0  0  0  0  0  0  0  0  0  0
    4.7581    0.2923    1.9951 H   0  0  0  0  0  0  0  0  0  0  0  0
    4.7927   -1.5241   -1.9156 H   0  0  0  0  0  0  0  0  0  0  0  0
    8.8032    1.0685    0.2034 H   0  0  0  0  0  0  0  0  0  0  0  0
    6.5547    2.1148    1.1626 H   0  0  0  0  0  0  0  0  0  0  0  0
    5.1702    2.2233    0.0524 H   0  0  0  0  0  0  0  0  0  0  0  0
    8.6306    2.0412   -1.2683 H   0  0  0  0  0  0  0  0  0  0  0  0
    8.7504    0.2807   -1.3840 H   0  0  0  0  0  0  0  0  0  0  0  0
    6.6415    3.1192   -0.2913 H   0  0  0  0  0  0  0  0  0  0  0  0
    2.3400   -0.0672    2.1455 H   0  0  0  0  0  0  0  0  0  0  0  0
    2.3705   -1.8948   -1.7662 H   0  0  0  0  0  0  0  0  0  0  0  0
    0.5042   -1.6348    2.4376 H   0  0  0  0  0  0  0  0  0  0  0  0
   -0.7698   -2.3405    1.4439 H   0  0  0  0  0  0  0  0  0  0  0  0
    0.8442   -3.0703    1.4559 H   0  0  0  0  0  0  0  0  0  0  0  0
    0.4084    0.8153    0.8081 H   0  0  0  0  0  0  0  0  0  0  0  0
   -1.8578    1.7435    1.2179 H   0  0  0  0  0  0  0  0  0  0  0  0
   -1.2387    2.2739   -0.3761 H   0  0  0  0  0  0  0  0  0  0  0  0
   -3.3012    1.9429   -1.3359 H   0  0  0  0  0  0  0  0  0  0  0  0
   -5.9470    2.6166   -0.2169 H   0  0  0  0  0  0  0  0  0  0  0  0
   -5.4343    1.4717   -1.4870 H   0  0  0  0  0  0  0  0  0  0  0  0
   -7.2100    0.9666    0.7962 H   0  0  0  0  0  0  0  0  0  0  0  0
   -8.8104   -0.6824    0.2556 H   0  0  0  0  0  0  0  0  0  0  0  0
   -8.2428   -2.1677   -0.5360 H   0  0  0  0  0  0  0  0  0  0  0  0
   -7.6025   -1.7172    1.0670 H   0  0  0  0  0  0  0  0  0  0  0  0
  1 19  2  0  0  0  0
  2 21  2  0  0  0  0
  3 23  2  0  0  0  0
  4 10  1  0  0  0  0
  4 19  1  0  0  0  0
  4 42  1  0  0  0  0
  5 20  1  0  0  0  0
  5 21  1  0  0  0  0
  5 45  1  0  0  0  0
  6 22  1  0  0  0  0
  6 23  1  0  0  0  0
  6 48  1  0  0  0  0
  7  8  1  0  0  0  0
  7 14  1  0  0  0  0
  7 15  1  0  0  0  0
  7 25  1  0  0  0  0
  8  9  1  0  0  0  0
  8 26  1  0  0  0  0
  8 27  1  0  0  0  0
  9 12  2  0  0  0  0
  9 13  1  0  0  0  0
 10 11  1  0  0  0  0
 10 18  1  0  0  0  0
 10 28  1  0  0  0  0
 11 16  2  0  0  0  0
 11 17  1  0  0  0  0
 12 16  1  0  0  0  0
 12 29  1  0  0  0  0
 13 17  2  0  0  0  0
 13 30  1  0  0  0  0
 14 32  1  0  0  0  0
 14 33  1  0  0  0  0
 14 36  1  0  0  0  0
 15 31  1  0  0  0  0
 15 34  1  0  0  0  0
 15 35  1  0  0  0  0
 16 37  1  0  0  0  0
 17 38  1  0  0  0  0
 18 39  1  0  0  0  0
 18 40  1  0  0  0  0
 18 41  1  0  0  0  0
 19 20  1  0  0  0  0
 20 43  1  0  0  0  0
 20 44  1  0  0  0  0
 21 22  1  0  0  0  0
 22 46  1  0  0  0  0
 22 47  1  0  0  0  0
 23 24  1  0  0  0  0
 24 49  1  0  0  0  0
 24 50  1  0  0  0  0
 24 51  1  0  0  0  0
M  END
> <PUBCHEM_COMPOUND_CID>
51090891

> <PUBCHEM_CONFORMER_RMSD>
1.2

> <PUBCHEM_CONFORMER_DIVERSEORDER>
1
78
91
28
72
68
140
96
29
64
71
18
109
137
97
23
125
19
133
4
57
111
10
139
121
92
11
90
42
27
37
119
110
130
62
99
84
15
115
129
144
83
107
143
94
25
80
7
93
138
85
22
9
141
49
124
26
82
70
47
104
75
35
44
116
127
2
60
36
112
122
20
63
134
41
39
59
33
65
17
50
103
67
105
100
46
118
114
79
117
101
52
53
55
3
61
45
43
81
54
16
108
73
106
126
98
74
132
31
102
24
48
131
87
56
38
123
89
12
76
142
113
58
6
32
86
120
30
69
8
5
145
95
88
21
51
40
13
66
34
136
135
128
77
14

> <PUBCHEM_MMFF94_PARTIAL_CHARGES>
27
1 -0.57
10 0.44
11 -0.14
12 -0.15
13 -0.15
16 -0.15
17 -0.15
19 0.57
2 -0.57
20 0.36
21 0.57
22 0.36
23 0.57
24 0.06
29 0.15
3 -0.57
30 0.15
37 0.15
38 0.15
4 -0.73
42 0.37
45 0.37
48 0.37
5 -0.73
6 -0.73
8 0.14
9 -0.14

> <PUBCHEM_EFFECTIVE_ROTOR_COUNT>
11

> <PUBCHEM_PHARMACOPHORE_FEATURES>
8
1 1 acceptor
1 2 acceptor
1 3 acceptor
1 4 donor
1 5 donor
1 6 donor
3 7 14 15 hydrophobe
6 9 11 12 13 16 17 rings

> <PUBCHEM_HEAVY_ATOM_COUNT>
24

> <PUBCHEM_ATOM_DEF_STEREO_COUNT>
0

> <PUBCHEM_ATOM_UDEF_STEREO_COUNT>
1

> <PUBCHEM_BOND_DEF_STEREO_COUNT>
0

> <PUBCHEM_BOND_UDEF_STEREO_COUNT>
0

> <PUBCHEM_ISOTOPIC_ATOM_COUNT>
0

> <PUBCHEM_COMPONENT_COUNT>
1

> <PUBCHEM_CACTVS_TAUTO_COUNT>
8

> <PUBCHEM_CONFORMER_ID>
030B95CB00000001

> <PUBCHEM_MMFF94_ENERGY>
46.0751

> <PUBCHEM_FEATURE_SELFOVERLAP>
40.594

> <PUBCHEM_SHAPE_FINGERPRINT>
10 15 17275100631294022184
10429389 143 16917075464360556269
10674148 151 6771865165270183030
11273773 118 4678547836826537555
11315181 36 18335419085240967793
11719270 70 13830133905880460088
11724838 91 18201718440436658612
12373685 5 14261357916739588097
12730499 353 17676492769693237446
13422730 43 18341058453797416706
13685833 64 7493284431078508824
13914758 101 11312060958775617877
14123256 10 18273214197039033395
14216079 64 8142090849297909340
14251732 16 18408604760137360293
14251752 14 7493009561313093803
14347424 109 10807929350244998342
14428016 204 17131541761921431572
14444916 359 14634865336705146469
14856354 85 15502383310008869717
15183329 4 13912606099293618544
15301273 46 14548740638514967138
18335252 98 18260544528673363559
20105231 36 16225763004321261287
20511986 3 15554450682440387905
21150785 3 18260265239549734509
21365058 27 17240198837835801967
22224240 67 17489869345142649266
22896161 15 18410292510686398023
23424782 7 18333449816095496927
24771293 8 18202277026498163900
28498 318 8430321224985105144
3472631 163 18343578530601587878
34797466 226 17748820809474395020
4258327 124 17845357883053412100
4325135 7 18335421253059794245
445580 167 18336271162689783933
5207 217 18407760343491272698
53794403 172 18269557135318836500
5381727 24 18342460344667538202
6394761 36 10303815384252522355

> <PUBCHEM_SHAPE_MULTIPOLES>
461.36
24.1
1.99
1.16
10.44
0.3
-0.13
6
5.56
-0.02
-0.12
-0.07
-0.3
-0.67

> <PUBCHEM_SHAPE_SELFOVERLAP>
926.04

> <PUBCHEM_SHAPE_VOLUME>
269.7

> <PUBCHEM_COORDINATE_TYPE>
2
5
10

$$$$

