17396153
  -OEChem-06241222543D

 45 47  0     1  0  0  0  0  0999 V2000
   -2.8595    1.1319   -1.7960 O   0  0  0  0  0  0  0  0  0  0  0  0
    1.2980    0.5353   -1.2319 O   0  0  0  0  0  0  0  0  0  0  0  0
   -1.9066   -2.7606   -0.5043 N   0  0  0  0  0  0  0  0  0  0  0  0
    0.1868   -0.5665    0.4676 N   0  0  0  0  0  0  0  0  0  0  0  0
   -2.8508   -1.7420    1.2287 N   0  0  0  0  0  0  0  0  0  0  0  0
    2.4613   -0.4130    0.5731 N   0  0  0  0  0  0  0  0  0  0  0  0
   -1.1555   -0.3783   -0.0700 C   0  0  1  0  0  0  0  0  0  0  0  0
   -1.9885   -1.6193    0.2440 C   0  0  0  0  0  0  0  0  0  0  0  0
   -1.8086    0.8983    0.3458 C   0  0  0  0  0  0  0  0  0  0  0  0
   -2.6326    1.5978   -0.5359 C   0  0  0  0  0  0  0  0  0  0  0  0
   -1.5871    1.3902    1.6322 C   0  0  0  0  0  0  0  0  0  0  0  0
   -2.7715   -3.6689    0.0380 C   0  0  0  0  0  0  0  0  0  0  0  0
   -1.0664   -2.9831   -1.6571 C   0  0  0  0  0  0  0  0  0  0  0  0
   -3.3421   -3.0175    1.1063 C   0  0  0  0  0  0  0  0  0  0  0  0
   -3.2351    2.7891   -0.1311 C   0  0  0  0  0  0  0  0  0  0  0  0
    1.3249   -0.0840   -0.1711 C   0  0  0  0  0  0  0  0  0  0  0  0
   -2.1896    2.5815    2.0369 C   0  0  0  0  0  0  0  0  0  0  0  0
   -3.0135    3.2809    1.1552 C   0  0  0  0  0  0  0  0  0  0  0  0
    3.8108   -0.1110    0.2762 C   0  0  0  0  0  0  0  0  0  0  0  0
   -3.7149    1.9104   -2.6303 C   0  0  0  0  0  0  0  0  0  0  0  0
    4.8244   -0.5235    1.1413 C   0  0  0  0  0  0  0  0  0  0  0  0
    4.1285    0.5987   -0.8819 C   0  0  0  0  0  0  0  0  0  0  0  0
    6.1553   -0.2261    0.8485 C   0  0  0  0  0  0  0  0  0  0  0  0
    5.4595    0.8960   -1.1747 C   0  0  0  0  0  0  0  0  0  0  0  0
    6.4729    0.4835   -0.3095 C   0  0  0  0  0  0  0  0  0  0  0  0
   -1.0245   -0.3365   -1.1584 H   0  0  0  0  0  0  0  0  0  0  0  0
    0.2911   -1.0292    1.3659 H   0  0  0  0  0  0  0  0  0  0  0  0
   -0.9602    0.8600    2.3439 H   0  0  0  0  0  0  0  0  0  0  0  0
   -2.9045   -4.6634   -0.3644 H   0  0  0  0  0  0  0  0  0  0  0  0
   -1.1881   -4.0138   -2.0006 H   0  0  0  0  0  0  0  0  0  0  0  0
   -0.0251   -2.8155   -1.3727 H   0  0  0  0  0  0  0  0  0  0  0  0
   -1.3723   -2.2952   -2.4490 H   0  0  0  0  0  0  0  0  0  0  0  0
   -4.0819   -3.4020    1.7930 H   0  0  0  0  0  0  0  0  0  0  0  0
   -3.8866    3.3860   -0.7599 H   0  0  0  0  0  0  0  0  0  0  0  0
   -2.0196    2.9631    3.0394 H   0  0  0  0  0  0  0  0  0  0  0  0
   -3.4827    4.2080    1.4718 H   0  0  0  0  0  0  0  0  0  0  0  0
    2.3095   -0.9332    1.4336 H   0  0  0  0  0  0  0  0  0  0  0  0
   -4.7319    1.9654   -2.2270 H   0  0  0  0  0  0  0  0  0  0  0  0
   -3.2911    2.9001   -2.8321 H   0  0  0  0  0  0  0  0  0  0  0  0
   -3.7834    1.3927   -3.5929 H   0  0  0  0  0  0  0  0  0  0  0  0
    4.5906   -1.0773    2.0470 H   0  0  0  0  0  0  0  0  0  0  0  0
    3.4011    0.9514   -1.5993 H   0  0  0  0  0  0  0  0  0  0  0  0
    6.9445   -0.5472    1.5221 H   0  0  0  0  0  0  0  0  0  0  0  0
    5.7083    1.4486   -2.0762 H   0  0  0  0  0  0  0  0  0  0  0  0
    7.5092    0.7150   -0.5375 H   0  0  0  0  0  0  0  0  0  0  0  0
  1 10  1  0  0  0  0
  1 20  1  0  0  0  0
  2 16  2  0  0  0  0
  3  8  1  0  0  0  0
  3 12  1  0  0  0  0
  3 13  1  0  0  0  0
  4  7  1  0  0  0  0
  4 16  1  0  0  0  0
  4 27  1  0  0  0  0
  5  8  2  0  0  0  0
  5 14  1  0  0  0  0
  6 16  1  0  0  0  0
  6 19  1  0  0  0  0
  6 37  1  0  0  0  0
  7  8  1  0  0  0  0
  7  9  1  0  0  0  0
  7 26  1  0  0  0  0
  9 10  1  0  0  0  0
  9 11  2  0  0  0  0
 10 15  2  0  0  0  0
 11 17  1  0  0  0  0
 11 28  1  0  0  0  0
 12 14  2  0  0  0  0
 12 29  1  0  0  0  0
 13 30  1  0  0  0  0
 13 31  1  0  0  0  0
 13 32  1  0  0  0  0
 14 33  1  0  0  0  0
 15 18  1  0  0  0  0
 15 34  1  0  0  0  0
 17 18  2  0  0  0  0
 17 35  1  0  0  0  0
 18 36  1  0  0  0  0
 19 21  2  0  0  0  0
 19 22  1  0  0  0  0
 20 38  1  0  0  0  0
 20 39  1  0  0  0  0
 20 40  1  0  0  0  0
 21 23  1  0  0  0  0
 21 41  1  0  0  0  0
 22 24  2  0  0  0  0
 22 42  1  0  0  0  0
 23 25  2  0  0  0  0
 23 43  1  0  0  0  0
 24 25  1  0  0  0  0
 24 44  1  0  0  0  0
 25 45  1  0  0  0  0
M  END
> <PUBCHEM_COMPOUND_CID>
17396153

> <PUBCHEM_CONFORMER_RMSD>
0.8

> <PUBCHEM_CONFORMER_DIVERSEORDER>
1
85
65
123
20
112
35
67
121
96
86
59
97
128
56
14
81
79
24
106
93
78
2
63
70
122
102
92
104
82
126
39
83
5
130
89
41
95
114
69
61
47
120
124
64
94
103
51
119
72
131
101
53
50
77
109
91
111
74
73
87
23
46
75
127
66
115
108
100
71
40
117
68
42
25
90
54
55
31
125
36
98
129
52
49
43
26
3
34
45
30
33
6
105
88
113
16
110
116
38
32
44
60
37
29
9
80
76
18
118
27
19
99
58
11
62
48
21
8
107
28
57
22
15
12
84
17
10
4
13
7

> <PUBCHEM_MMFF94_PARTIAL_CHARGES>
38
1 -0.36
10 0.08
11 -0.15
12 -0.3
13 0.26
14 0.08
15 -0.15
16 0.69
17 -0.15
18 -0.15
19 0.12
2 -0.57
20 0.28
21 -0.15
22 -0.15
23 -0.15
24 -0.15
25 -0.15
27 0.37
28 0.15
29 0.15
3 0.05
33 0.15
34 0.15
35 0.15
36 0.15
37 0.37
4 -0.73
41 0.15
42 0.15
43 0.15
44 0.15
45 0.15
5 -0.57
6 -0.55
7 0.62
8 0.01
9 -0.14

> <PUBCHEM_EFFECTIVE_ROTOR_COUNT>
7

> <PUBCHEM_PHARMACOPHORE_FEATURES>
8
1 1 acceptor
1 2 acceptor
1 4 donor
1 6 donor
3 3 5 8 cation
5 3 5 8 12 14 rings
6 19 21 22 23 24 25 rings
6 9 10 11 15 17 18 rings

> <PUBCHEM_HEAVY_ATOM_COUNT>
25

> <PUBCHEM_ATOM_DEF_STEREO_COUNT>
0

> <PUBCHEM_ATOM_UDEF_STEREO_COUNT>
1

> <PUBCHEM_BOND_DEF_STEREO_COUNT>
0

> <PUBCHEM_BOND_UDEF_STEREO_COUNT>
0

> <PUBCHEM_ISOTOPIC_ATOM_COUNT>
0

> <PUBCHEM_COMPONENT_COUNT>
1

> <PUBCHEM_CACTVS_TAUTO_COUNT>
3

> <PUBCHEM_CONFORMER_ID>
010971B900000001

> <PUBCHEM_MMFF94_ENERGY>
68.2754

> <PUBCHEM_FEATURE_SELFOVERLAP>
40.65

> <PUBCHEM_SHAPE_FINGERPRINT>
105312 117 18339641260370958348
11056379 131 18336536132524121390
11101153 10 17984128263639920468
11545043 162 18186799176371740898
11552529 35 18409451349894728038
11582403 64 16198206082260668845
12107183 9 18053949734610507034
12714826 92 18260828142395964650
12788726 201 18340495477943083147
13004483 165 18192142690601769579
13583140 156 17274813688328357632
13631057 29 18269838627459118154
14674994 50 16372431164134743575
15131766 46 15504074233741875914
15439362 3 17903070380690426966
17844677 252 18335414622542977040
20511986 3 18059591191196430616
21033650 10 17241603004373477464
21426921 1 18410007706814815842
21756936 100 18114738351500665232
22182313 1 17968639601941766366
22907989 373 18335702715315139789
283562 15 18342455889805614939
4258327 124 17917702500591076772
4409770 3 18409455760979401367
497634 4 17846217713941758814
5104073 3 18343309163380447248
5219985 9 18125151642119256963
6677587 24 16120269446851459039
7237137 82 18340767035850128844
9981440 41 17823145677381135718

> <PUBCHEM_SHAPE_MULTIPOLES>
482.83
11.8
3.99
1.83
26.76
2.09
0.6
-2.72
0.49
-8.17
-0.46
-1.61
-0.86
-0.09

> <PUBCHEM_SHAPE_SELFOVERLAP>
1038.21

> <PUBCHEM_SHAPE_VOLUME>
264.7

> <PUBCHEM_COORDINATE_TYPE>
2
5
10

$$$$

