17396259
  -OEChem-06241222553D

 37 38  0     0  0  0  0  0  0999 V2000
    6.3748   -0.5381    0.3788 S   0  0  0  0  0  0  0  0  0  0  0  0
   -4.4557   -2.3184   -0.4152 O   0  0  0  0  0  0  0  0  0  0  0  0
    0.1679    2.4677    0.2387 O   0  0  0  0  0  0  0  0  0  0  0  0
    0.4385    0.1494   -0.0006 N   0  0  0  0  0  0  0  0  0  0  0  0
   -3.7409   -0.1570    0.2729 C   0  0  0  0  0  0  0  0  0  0  0  0
   -1.7515    1.1807   -0.0263 C   0  0  0  0  0  0  0  0  0  0  0  0
   -2.3570   -0.0119    0.3696 C   0  0  0  0  0  0  0  0  0  0  0  0
   -4.3889   -1.4324    0.6953 C   0  0  0  0  0  0  0  0  0  0  0  0
   -0.3088    1.3332    0.0745 C   0  0  0  0  0  0  0  0  0  0  0  0
    1.8426   -0.0143    0.0898 C   0  0  0  0  0  0  0  0  0  0  0  0
   -4.5192    0.8905   -0.2196 C   0  0  0  0  0  0  0  0  0  0  0  0
   -2.5299    2.2281   -0.5190 C   0  0  0  0  0  0  0  0  0  0  0  0
   -3.9138    2.0830   -0.6156 C   0  0  0  0  0  0  0  0  0  0  0  0
    2.6627    1.0982    0.2781 C   0  0  0  0  0  0  0  0  0  0  0  0
    2.4054   -1.2868   -0.0110 C   0  0  0  0  0  0  0  0  0  0  0  0
    4.6082   -0.3340    0.2652 C   0  0  0  0  0  0  0  0  0  0  0  0
    4.0455    0.9383    0.3658 C   0  0  0  0  0  0  0  0  0  0  0  0
    3.7883   -1.4465    0.0767 C   0  0  0  0  0  0  0  0  0  0  0  0
   -5.0671   -3.5513   -0.0616 C   0  0  0  0  0  0  0  0  0  0  0  0
    6.6989   -1.2783   -1.2364 C   0  0  0  0  0  0  0  0  0  0  0  0
   -1.7860   -0.8343    0.7916 H   0  0  0  0  0  0  0  0  0  0  0  0
   -5.3991   -1.2356    1.0761 H   0  0  0  0  0  0  0  0  0  0  0  0
   -3.8191   -1.8970    1.5099 H   0  0  0  0  0  0  0  0  0  0  0  0
   -5.5981    0.7890   -0.3022 H   0  0  0  0  0  0  0  0  0  0  0  0
   -2.0778    3.1637   -0.8380 H   0  0  0  0  0  0  0  0  0  0  0  0
   -0.0551   -0.7205   -0.1806 H   0  0  0  0  0  0  0  0  0  0  0  0
   -4.5198    2.8979   -1.0008 H   0  0  0  0  0  0  0  0  0  0  0  0
    2.3027    2.1133    0.3651 H   0  0  0  0  0  0  0  0  0  0  0  0
    1.7776   -2.1623   -0.1558 H   0  0  0  0  0  0  0  0  0  0  0  0
    4.6698    1.8164    0.5127 H   0  0  0  0  0  0  0  0  0  0  0  0
    4.2025   -2.4489    0.0050 H   0  0  0  0  0  0  0  0  0  0  0  0
   -4.4881   -4.0576    0.7168 H   0  0  0  0  0  0  0  0  0  0  0  0
   -6.0941   -3.3868    0.2786 H   0  0  0  0  0  0  0  0  0  0  0  0
   -5.0919   -4.1900   -0.9486 H   0  0  0  0  0  0  0  0  0  0  0  0
    7.7795   -1.3678   -1.3775 H   0  0  0  0  0  0  0  0  0  0  0  0
    6.2980   -0.6501   -2.0368 H   0  0  0  0  0  0  0  0  0  0  0  0
    6.2627   -2.2782   -1.3061 H   0  0  0  0  0  0  0  0  0  0  0  0
  1 16  1  0  0  0  0
  1 20  1  0  0  0  0
  2  8  1  0  0  0  0
  2 19  1  0  0  0  0
  3  9  2  0  0  0  0
  4  9  1  0  0  0  0
  4 10  1  0  0  0  0
  4 26  1  0  0  0  0
  5  7  2  0  0  0  0
  5  8  1  0  0  0  0
  5 11  1  0  0  0  0
  6  7  1  0  0  0  0
  6  9  1  0  0  0  0
  6 12  2  0  0  0  0
  7 21  1  0  0  0  0
  8 22  1  0  0  0  0
  8 23  1  0  0  0  0
 10 14  2  0  0  0  0
 10 15  1  0  0  0  0
 11 13  2  0  0  0  0
 11 24  1  0  0  0  0
 12 13  1  0  0  0  0
 12 25  1  0  0  0  0
 13 27  1  0  0  0  0
 14 17  1  0  0  0  0
 14 28  1  0  0  0  0
 15 18  2  0  0  0  0
 15 29  1  0  0  0  0
 16 17  2  0  0  0  0
 16 18  1  0  0  0  0
 17 30  1  0  0  0  0
 18 31  1  0  0  0  0
 19 32  1  0  0  0  0
 19 33  1  0  0  0  0
 19 34  1  0  0  0  0
 20 35  1  0  0  0  0
 20 36  1  0  0  0  0
 20 37  1  0  0  0  0
M  END
> <PUBCHEM_COMPOUND_CID>
17396259

> <PUBCHEM_CONFORMER_RMSD>
0.8

> <PUBCHEM_CONFORMER_DIVERSEORDER>
1
8
14
16
27
19
20
21
18
30
28
7
13
3
17
22
24
26
25
11
5
23
6
12
10
15
4
2
29
9

> <PUBCHEM_MMFF94_PARTIAL_CHARGES>
29
1 -0.33
10 0.12
11 -0.15
12 -0.15
13 -0.15
14 -0.15
15 -0.15
16 0.1
17 -0.15
18 -0.15
19 0.28
2 -0.56
20 0.23
21 0.15
24 0.15
25 0.15
26 0.37
27 0.15
28 0.15
29 0.15
3 -0.57
30 0.15
31 0.15
4 -0.55
5 -0.14
6 0.09
7 -0.15
8 0.42
9 0.54

> <PUBCHEM_EFFECTIVE_ROTOR_COUNT>
6

> <PUBCHEM_PHARMACOPHORE_FEATURES>
6
1 2 acceptor
1 20 hydrophobe
1 3 acceptor
1 4 donor
6 10 14 15 16 17 18 rings
6 5 6 7 11 12 13 rings

> <PUBCHEM_HEAVY_ATOM_COUNT>
20

> <PUBCHEM_ATOM_DEF_STEREO_COUNT>
0

> <PUBCHEM_ATOM_UDEF_STEREO_COUNT>
0

> <PUBCHEM_BOND_DEF_STEREO_COUNT>
0

> <PUBCHEM_BOND_UDEF_STEREO_COUNT>
0

> <PUBCHEM_ISOTOPIC_ATOM_COUNT>
0

> <PUBCHEM_COMPONENT_COUNT>
1

> <PUBCHEM_CACTVS_TAUTO_COUNT>
2

> <PUBCHEM_CONFORMER_ID>
0109722300000001

> <PUBCHEM_MMFF94_ENERGY>
63.4522

> <PUBCHEM_FEATURE_SELFOVERLAP>
30.446

> <PUBCHEM_SHAPE_FINGERPRINT>
10616163 171 18410857685364774515
11524674 6 17312823784194905711
11796584 16 18337956800178026874
11809386 21 18131360708703127227
12236239 1 17203606030090408912
12760667 363 18335141947975621167
13288520 33 18411698807132571093
13631057 29 18410858745984235595
13740256 8 18409448068112361632
13911882 115 17894905261330057686
1420 363 18260266391239273268
14429380 30 18196655086349348043
15196674 1 18411702067123479664
15250474 111 18129958873858257754
15352361 1 18339644417673177915
15880784 105 18260825960399370498
17780758 139 17967244304674645203
17834072 33 18130783478152088980
17844677 252 18410851066635737016
18681886 176 18412826876899848448
18927931 339 18342734118240177743
19141452 34 18410570700414326753
200 152 18041568047727494984
20281475 54 18411132494673554625
21054139 6 18131917057429055370
21065198 57 18339645654032967385
21267235 1 18411693296589069784
21709351 56 18131634491182173748
220451 1 18130221674759536112
221490 88 18411699846419815312
2303208 19 17967808367161921246
23081809 10 17418372524189899994
23402539 116 18131635607910528464
23559900 14 18410582815847461144
23622692 118 18339364055087287095
26918003 58 18335144232006731152
335352 9 18412829106109344069
3545911 37 18340487875655445452
4073 2 18201996638448222730
4214541 1 18412828022838711721
5104073 3 18334583446869678664
542803 24 16845283990954759324
5924683 9 18409732842330811339
7062679 117 18342455958476903806
7495541 125 18260551095952503544
7970288 3 18051133597448364939
9709674 26 18200871777680846441

> <PUBCHEM_SHAPE_MULTIPOLES>
398.72
15.33
2.88
0.79
13.28
1.54
0.09
8.8
1.65
-5.31
0.32
0.4
0.07
0.93

> <PUBCHEM_SHAPE_SELFOVERLAP>
826.142

> <PUBCHEM_SHAPE_VOLUME>
230.2

> <PUBCHEM_COORDINATE_TYPE>
2
5
10

$$$$

