13813
  -OEChem-06241222403D

 74 76  0     1  0  0  0  0  0999 V2000
   -3.2533    0.9331    1.0743 O   0  0  0  0  0  0  0  0  0  0  0  0
    4.5603    2.5532   -1.6981 O   0  0  0  0  0  0  0  0  0  0  0  0
    8.2687    0.0843    1.4415 O   0  0  0  0  0  0  0  0  0  0  0  0
    6.1939   -2.6481   -1.9000 O   0  0  0  0  0  0  0  0  0  0  0  0
   -3.5295    1.7092   -1.0752 O   0  0  0  0  0  0  0  0  0  0  0  0
    8.1954   -2.2643   -0.0244 O   0  0  0  0  0  0  0  0  0  0  0  0
   -8.5728    0.6576   -1.4873 O   0  0  0  0  0  0  0  0  0  0  0  0
   -6.7177   -2.5544    1.5422 O   0  0  0  0  0  0  0  0  0  0  0  0
   -8.8661   -1.6149    0.0684 O   0  0  0  0  0  0  0  0  0  0  0  0
    0.4367    1.1733    0.7614 N   0  0  0  0  0  0  0  0  0  0  0  0
    3.1318    1.6536   -0.0810 N   0  0  0  0  0  0  0  0  0  0  0  0
    0.7145    2.0478   -0.3874 C   0  0  0  0  0  0  0  0  0  0  0  0
    1.4436    0.1059    0.8495 C   0  0  0  0  0  0  0  0  0  0  0  0
    2.1024    2.6744   -0.2640 C   0  0  0  0  0  0  0  0  0  0  0  0
    2.8525    0.6871    0.9868 C   0  0  0  0  0  0  0  0  0  0  0  0
   -0.9070    0.6050    0.6612 C   0  0  0  0  0  0  0  0  0  0  0  0
   -1.9816    1.5760    1.1561 C   0  0  2  0  0  0  0  0  0  0  0  0
    4.2981    1.7034   -0.8482 C   0  0  0  0  0  0  0  0  0  0  0  0
   -1.7761    2.0082    2.6023 C   0  0  0  0  0  0  0  0  0  0  0  0
    5.3154    0.6659   -0.6320 C   0  0  0  0  0  0  0  0  0  0  0  0
    5.2758   -0.5151   -1.3729 C   0  0  0  0  0  0  0  0  0  0  0  0
    6.3227    0.8631    0.3126 C   0  0  0  0  0  0  0  0  0  0  0  0
   -3.9186    1.0833   -0.1014 C   0  0  0  0  0  0  0  0  0  0  0  0
    7.2903   -0.1208    0.5161 C   0  0  0  0  0  0  0  0  0  0  0  0
    6.2433   -1.4990   -1.1695 C   0  0  0  0  0  0  0  0  0  0  0  0
    7.2506   -1.3019   -0.2250 C   0  0  0  0  0  0  0  0  0  0  0  0
   -5.2211    0.3718   -0.0578 C   0  0  0  0  0  0  0  0  0  0  0  0
   -5.3652   -0.7719    0.7277 C   0  0  0  0  0  0  0  0  0  0  0  0
   -6.3012    0.8485   -0.8004 C   0  0  0  0  0  0  0  0  0  0  0  0
   -7.5257    0.1815   -0.7575 C   0  0  0  0  0  0  0  0  0  0  0  0
   -6.5896   -1.4388    0.7706 C   0  0  0  0  0  0  0  0  0  0  0  0
   -7.6698   -0.9620    0.0281 C   0  0  0  0  0  0  0  0  0  0  0  0
    8.2369    1.3184    2.1558 C   0  0  0  0  0  0  0  0  0  0  0  0
    5.1321   -2.7703   -2.8442 C   0  0  0  0  0  0  0  0  0  0  0  0
    7.9108   -3.2548    0.9606 C   0  0  0  0  0  0  0  0  0  0  0  0
   -8.3413    1.8316   -2.2635 C   0  0  0  0  0  0  0  0  0  0  0  0
   -5.5654   -2.9748    2.2697 C   0  0  0  0  0  0  0  0  0  0  0  0
   -9.0737   -2.6450   -0.8952 C   0  0  0  0  0  0  0  0  0  0  0  0
    0.6529    1.4832   -1.3275 H   0  0  0  0  0  0  0  0  0  0  0  0
   -0.0169    2.8611   -0.4442 H   0  0  0  0  0  0  0  0  0  0  0  0
    1.3985   -0.5385   -0.0388 H   0  0  0  0  0  0  0  0  0  0  0  0
    1.2498   -0.5246    1.7256 H   0  0  0  0  0  0  0  0  0  0  0  0
    2.1480    3.3394    0.6072 H   0  0  0  0  0  0  0  0  0  0  0  0
    2.3146    3.2820   -1.1498 H   0  0  0  0  0  0  0  0  0  0  0  0
    2.9521    1.2255    1.9374 H   0  0  0  0  0  0  0  0  0  0  0  0
    3.5811   -0.1265    0.9978 H   0  0  0  0  0  0  0  0  0  0  0  0
   -0.9851   -0.2971    1.2851 H   0  0  0  0  0  0  0  0  0  0  0  0
   -1.1294    0.2585   -0.3569 H   0  0  0  0  0  0  0  0  0  0  0  0
   -1.9868    2.4903    0.5502 H   0  0  0  0  0  0  0  0  0  0  0  0
   -2.6085    2.6401    2.9315 H   0  0  0  0  0  0  0  0  0  0  0  0
   -0.8469    2.5703    2.7345 H   0  0  0  0  0  0  0  0  0  0  0  0
   -1.7600    1.1405    3.2711 H   0  0  0  0  0  0  0  0  0  0  0  0
    4.4683   -0.6099   -2.0917 H   0  0  0  0  0  0  0  0  0  0  0  0
    6.3001    1.8015    0.8569 H   0  0  0  0  0  0  0  0  0  0  0  0
   -4.4957   -1.1178    1.2750 H   0  0  0  0  0  0  0  0  0  0  0  0
   -6.1343    1.7439   -1.3895 H   0  0  0  0  0  0  0  0  0  0  0  0
    8.3791    2.1752    1.4884 H   0  0  0  0  0  0  0  0  0  0  0  0
    7.3312    1.4090    2.7652 H   0  0  0  0  0  0  0  0  0  0  0  0
    9.0854    1.3114    2.8480 H   0  0  0  0  0  0  0  0  0  0  0  0
    4.1532   -2.7762   -2.3526 H   0  0  0  0  0  0  0  0  0  0  0  0
    5.2006   -2.0102   -3.6299 H   0  0  0  0  0  0  0  0  0  0  0  0
    5.2469   -3.7433   -3.3335 H   0  0  0  0  0  0  0  0  0  0  0  0
    8.7555   -3.9477    1.0036 H   0  0  0  0  0  0  0  0  0  0  0  0
    7.0107   -3.8172    0.6931 H   0  0  0  0  0  0  0  0  0  0  0  0
    7.7863   -2.7942    1.9458 H   0  0  0  0  0  0  0  0  0  0  0  0
   -9.2787    2.0665   -2.7786 H   0  0  0  0  0  0  0  0  0  0  0  0
   -7.5876    1.6607   -3.0398 H   0  0  0  0  0  0  0  0  0  0  0  0
   -8.1028    2.6936   -1.6312 H   0  0  0  0  0  0  0  0  0  0  0  0
   -5.8491   -3.8719    2.8301 H   0  0  0  0  0  0  0  0  0  0  0  0
   -5.2567   -2.2260    3.0072 H   0  0  0  0  0  0  0  0  0  0  0  0
   -4.7486   -3.2656    1.6002 H   0  0  0  0  0  0  0  0  0  0  0  0
   -9.0258   -2.2386   -1.9104 H   0  0  0  0  0  0  0  0  0  0  0  0
   -8.3320   -3.4410   -0.7744 H   0  0  0  0  0  0  0  0  0  0  0  0
  -10.0691   -3.0682   -0.7351 H   0  0  0  0  0  0  0  0  0  0  0  0
  1 17  1  0  0  0  0
  1 23  1  0  0  0  0
  2 18  2  0  0  0  0
  3 24  1  0  0  0  0
  3 33  1  0  0  0  0
  4 25  1  0  0  0  0
  4 34  1  0  0  0  0
  5 23  2  0  0  0  0
  6 26  1  0  0  0  0
  6 35  1  0  0  0  0
  7 30  1  0  0  0  0
  7 36  1  0  0  0  0
  8 31  1  0  0  0  0
  8 37  1  0  0  0  0
  9 32  1  0  0  0  0
  9 38  1  0  0  0  0
 10 12  1  0  0  0  0
 10 13  1  0  0  0  0
 10 16  1  0  0  0  0
 11 14  1  0  0  0  0
 11 15  1  0  0  0  0
 11 18  1  0  0  0  0
 12 14  1  0  0  0  0
 12 39  1  0  0  0  0
 12 40  1  0  0  0  0
 13 15  1  0  0  0  0
 13 41  1  0  0  0  0
 13 42  1  0  0  0  0
 14 43  1  0  0  0  0
 14 44  1  0  0  0  0
 15 45  1  0  0  0  0
 15 46  1  0  0  0  0
 16 17  1  0  0  0  0
 16 47  1  0  0  0  0
 16 48  1  0  0  0  0
 17 19  1  0  0  0  0
 17 49  1  0  0  0  0
 18 20  1  0  0  0  0
 19 50  1  0  0  0  0
 19 51  1  0  0  0  0
 19 52  1  0  0  0  0
 20 21  2  0  0  0  0
 20 22  1  0  0  0  0
 21 25  1  0  0  0  0
 21 53  1  0  0  0  0
 22 24  2  0  0  0  0
 22 54  1  0  0  0  0
 23 27  1  0  0  0  0
 24 26  1  0  0  0  0
 25 26  2  0  0  0  0
 27 28  2  0  0  0  0
 27 29  1  0  0  0  0
 28 31  1  0  0  0  0
 28 55  1  0  0  0  0
 29 30  2  0  0  0  0
 29 56  1  0  0  0  0
 30 32  1  0  0  0  0
 31 32  2  0  0  0  0
 33 57  1  0  0  0  0
 33 58  1  0  0  0  0
 33 59  1  0  0  0  0
 34 60  1  0  0  0  0
 34 61  1  0  0  0  0
 34 62  1  0  0  0  0
 35 63  1  0  0  0  0
 35 64  1  0  0  0  0
 35 65  1  0  0  0  0
 36 66  1  0  0  0  0
 36 67  1  0  0  0  0
 36 68  1  0  0  0  0
 37 69  1  0  0  0  0
 37 70  1  0  0  0  0
 37 71  1  0  0  0  0
 38 72  1  0  0  0  0
 38 73  1  0  0  0  0
 38 74  1  0  0  0  0
M  END
> <PUBCHEM_COMPOUND_CID>
13813

> <PUBCHEM_CONFORMER_RMSD>
1.2

> <PUBCHEM_CONFORMER_DIVERSEORDER>
71
93
20
100
114
76
127
111
125
107
75
38
59
95
42
102
116
106
110
98
126
123
81
28
84
119
121
91
22
57
96
73
69
97
103
118
122
105
109
41
104
58
117
120
51
14
72
32
21
112
108
92
27
124
87
99
16
62
82
113
25
53
29
40
9
48
67
54
74
83
1
80
85
31
37
19
39
47
94
65
63
66
43
15
24
79
90
23
44
30
60
115
56
11
26
17
36
88
86
52
12
61
55
5
35
13
45
70
6
89
33
49
18
10
34
2
8
46
68
101
64
50
3
77
7
4
78

> <PUBCHEM_MMFF94_PARTIAL_CHARGES>
41
1 -0.43
10 -0.81
11 -0.66
12 0.27
13 0.27
14 0.3
15 0.3
16 0.27
17 0.28
18 0.54
2 -0.57
20 0.09
21 -0.15
22 -0.15
23 0.63
24 0.08
25 0.08
26 0.08
27 0.09
28 -0.15
29 -0.15
3 -0.36
30 0.08
31 0.08
32 0.08
33 0.28
34 0.28
35 0.28
36 0.28
37 0.28
38 0.28
4 -0.36
5 -0.57
53 0.15
54 0.15
55 0.15
56 0.15
6 -0.36
7 -0.36
8 -0.36
9 -0.36

> <PUBCHEM_EFFECTIVE_ROTOR_COUNT>
14.2

> <PUBCHEM_PHARMACOPHORE_FEATURES>
12
1 10 cation
1 2 acceptor
1 3 acceptor
1 4 acceptor
1 5 acceptor
1 6 acceptor
1 7 acceptor
1 8 acceptor
1 9 acceptor
6 10 11 12 13 14 15 rings
6 20 21 22 24 25 26 rings
6 27 28 29 30 31 32 rings

> <PUBCHEM_HEAVY_ATOM_COUNT>
38

> <PUBCHEM_ATOM_DEF_STEREO_COUNT>
0

> <PUBCHEM_ATOM_UDEF_STEREO_COUNT>
1

> <PUBCHEM_BOND_DEF_STEREO_COUNT>
0

> <PUBCHEM_BOND_UDEF_STEREO_COUNT>
0

> <PUBCHEM_ISOTOPIC_ATOM_COUNT>
0

> <PUBCHEM_COMPONENT_COUNT>
1

> <PUBCHEM_CACTVS_TAUTO_COUNT>
1

> <PUBCHEM_CONFORMER_ID>
000035F500000047

> <PUBCHEM_MMFF94_ENERGY>
160.9469

> <PUBCHEM_FEATURE_SELFOVERLAP>
60.912

> <PUBCHEM_SHAPE_FINGERPRINT>
10 15 8574716797717560017
10066227 49 18413107281474972210
10391435 84 18335987484468703435
11135926 11 18410849993574005739
11386260 185 16917062223066372212
12013929 112 16415199030849599415
12082328 90 18335706065833385261
12539765 74 10735877287946113152
13782708 43 18271515416797864425
13811026 1 18343865498087310425
14537116 161 12175619586629440134
15183329 4 17918274272380956240
15230672 131 18131638876824155827
15328684 2 14707195664918446466
15392192 104 13912325646920564604
15510794 2 18410298012033127921
15840311 113 11527939067441357878
18335252 114 13758355570832025110
18603816 31 17604151412273485375
19841028 212 18268995448533862314
2026 5 18410574002838515119
21130935 74 17822564036346765952
212700 22 18187932814992610286
21895439 516 18202558458588179787
3383291 50 18113896074096827278
3711267 37 13326855534935159447
4093350 32 9079125453399237492
4169191 19 10303818674793738935
42767 39 18407755941239919882
437795 150 17417523602640779747
4403749 210 7565347514581020121
44880568 143 17989204845921749501
4625314 4 18060139821517994501
504579 68 16559034865677913121
504843 32 12823290162245852177
6126387 218 16805603699141463249
6201320 82 14763247699653271535
9831232 110 18272366486332306870
9937071 3 18335415747703362387
9962374 69 16371305337337399625

> <PUBCHEM_SHAPE_MULTIPOLES>
719.24
34.81
3.39
2.13
17.24
2.06
-0.08
20.76
-4.19
-1.55
-0.21
-0.24
0.42
3.99

> <PUBCHEM_SHAPE_SELFOVERLAP>
1508.884

> <PUBCHEM_SHAPE_VOLUME>
407.8

> <PUBCHEM_COORDINATE_TYPE>
2
5
10

$$$$

