13756
  -OEChem-06241222402D

 31 33  0     1  0  0  0  0  0999 V2000
    7.6574   -0.1586    0.0000 Cl  0  0  0  0  0  0  0  0  0  0  0  0
    2.6131    0.5001    0.0000 O   0  0  0  0  0  0  0  0  0  0  0  0
    2.6131   -2.8655    0.0000 O   0  0  0  0  0  0  0  0  0  0  0  0
    3.2366   -0.2818    0.0000 N   0  0  3  0  0  0  0  0  0  0  0  0
    4.2115   -2.3062    0.0000 N   0  0  0  0  0  0  0  0  0  0  0  0
    4.2115   -0.0592    0.0000 C   0  0  0  0  0  0  0  0  0  0  0  0
    4.9933   -0.6827    0.0000 C   0  0  0  0  0  0  0  0  0  0  0  0
    4.4340    0.9157    0.0000 C   0  0  0  0  0  0  0  0  0  0  0  0
    4.9933   -1.6827    0.0000 C   0  0  0  0  0  0  0  0  0  0  0  0
    2.8027   -1.1827    0.0000 C   0  0  0  0  0  0  0  0  0  0  0  0
    5.8873   -0.1481    0.0000 C   0  0  0  0  0  0  0  0  0  0  0  0
    3.2366   -2.0837    0.0000 C   0  0  0  0  0  0  0  0  0  0  0  0
    5.8873   -2.2174    0.0000 C   0  0  0  0  0  0  0  0  0  0  0  0
    5.3896    1.2104    0.0000 C   0  0  0  0  0  0  0  0  0  0  0  0
    3.7010    1.5958    0.0000 C   0  0  0  0  0  0  0  0  0  0  0  0
    6.7933   -0.6619    0.0000 C   0  0  0  0  0  0  0  0  0  0  0  0
    6.7933   -1.7036    0.0000 C   0  0  0  0  0  0  0  0  0  0  0  0
    5.6121    2.1854    0.0000 C   0  0  0  0  0  0  0  0  0  0  0  0
    3.9235    2.5708    0.0000 C   0  0  0  0  0  0  0  0  0  0  0  0
    4.8791    2.8655    0.0000 C   0  0  0  0  0  0  0  0  0  0  0  0
    2.3180   -0.7962    0.0000 H   0  0  0  0  0  0  0  0  0  0  0  0
    2.3180   -1.5693    0.0000 H   0  0  0  0  0  0  0  0  0  0  0  0
    5.8801    0.4719    0.0000 H   0  0  0  0  0  0  0  0  0  0  0  0
    5.8801   -2.8374    0.0000 H   0  0  0  0  0  0  0  0  0  0  0  0
    5.8441    0.7887    0.0000 H   0  0  0  0  0  0  0  0  0  0  0  0
    3.1085    1.4131    0.0000 H   0  0  0  0  0  0  0  0  0  0  0  0
    7.3291   -2.0156    0.0000 H   0  0  0  0  0  0  0  0  0  0  0  0
    6.2046    2.3681    0.0000 H   0  0  0  0  0  0  0  0  0  0  0  0
    3.4690    2.9925    0.0000 H   0  0  0  0  0  0  0  0  0  0  0  0
    5.0170    3.4700    0.0000 H   0  0  0  0  0  0  0  0  0  0  0  0
    2.0000    0.4077    0.0000 H   0  0  0  0  0  0  0  0  0  0  0  0
  1 16  1  0  0  0  0
  2  4  1  0  0  0  0
  2 31  1  0  0  0  0
  3 12  2  0  0  0  0
  4  6  1  0  0  0  0
  4 10  1  0  0  0  0
  5  9  2  0  0  0  0
  5 12  1  0  0  0  0
  6  7  2  0  0  0  0
  6  8  1  0  0  0  0
  7  9  1  0  0  0  0
  7 11  1  0  0  0  0
  8 14  2  0  0  0  0
  8 15  1  0  0  0  0
  9 13  1  0  0  0  0
 10 12  1  0  0  0  0
 10 21  1  0  0  0  0
 10 22  1  0  0  0  0
 11 16  2  0  0  0  0
 11 23  1  0  0  0  0
 13 17  2  0  0  0  0
 13 24  1  0  0  0  0
 14 18  1  0  0  0  0
 14 25  1  0  0  0  0
 15 19  2  0  0  0  0
 15 26  1  0  0  0  0
 16 17  1  0  0  0  0
 17 27  1  0  0  0  0
 18 20  2  0  0  0  0
 18 28  1  0  0  0  0
 19 20  1  0  0  0  0
 19 29  1  0  0  0  0
 20 30  1  0  0  0  0
M  END
> <PUBCHEM_COMPOUND_CID>
13756

> <PUBCHEM_COMPOUND_CANONICALIZED>
1

> <PUBCHEM_CACTVS_COMPLEXITY>
554

> <PUBCHEM_CACTVS_HBOND_ACCEPTOR>
3

> <PUBCHEM_CACTVS_HBOND_DONOR>
1

> <PUBCHEM_CACTVS_ROTATABLE_BOND>
1

> <PUBCHEM_CACTVS_SUBSKEYS>
AAADccBzMAAEAAAAAAAAAAAAAAAAAAAAAAAwQAAABAAAAAABAAAAHgIECAAADArBmAQwAIIQAACoAyVyVACCAAAgAAAoiAC4BJgIYCKAkTGUIAhggACIiAcQgAAOAAAAAAAAAAAAAAAAAAAAAAAAAAAAAA==

> <PUBCHEM_IUPAC_OPENEYE_NAME>
7-chloro-4-hydroxy-5-phenyl-3H-1,4-benzodiazepin-2-one

> <PUBCHEM_IUPAC_CAS_NAME>
7-chloro-4-hydroxy-5-phenyl-3H-1,4-benzodiazepin-2-one

> <PUBCHEM_IUPAC_NAME>
7-chloro-4-hydroxy-5-phenyl-3H-1,4-benzodiazepin-2-one

> <PUBCHEM_IUPAC_SYSTEMATIC_NAME>
7-chloranyl-4-oxidanyl-5-phenyl-3H-1,4-benzodiazepin-2-one

> <PUBCHEM_IUPAC_TRADITIONAL_NAME>
7-chloro-4-hydroxy-5-phenyl-3H-1,4-benzodiazepin-2-one

> <PUBCHEM_IUPAC_INCHI>
InChI=1S/C15H11ClN2O2/c16-11-6-7-13-12(8-11)15(10-4-2-1-3-5-10)18(20)9-14(19)17-13/h1-8,20H,9H2

> <PUBCHEM_IUPAC_INCHIKEY>
PSADRZMLSXCSAS-UHFFFAOYSA-N

> <PUBCHEM_XLOGP3>
2.3

> <PUBCHEM_EXACT_MASS>
286.050905

> <PUBCHEM_MOLECULAR_FORMULA>
C15H11ClN2O2

> <PUBCHEM_MOLECULAR_WEIGHT>
286.71304

> <PUBCHEM_OPENEYE_CAN_SMILES>
C1C(=O)N=C2C=CC(=CC2=C(N1O)C3=CC=CC=C3)Cl

> <PUBCHEM_OPENEYE_ISO_SMILES>
C1C(=O)N=C2C=CC(=CC2=C(N1O)C3=CC=CC=C3)Cl

> <PUBCHEM_CACTVS_TPSA>
52.9

> <PUBCHEM_MONOISOTOPIC_WEIGHT>
286.050905

> <PUBCHEM_TOTAL_CHARGE>
0

> <PUBCHEM_HEAVY_ATOM_COUNT>
20

> <PUBCHEM_ATOM_DEF_STEREO_COUNT>
0

> <PUBCHEM_ATOM_UDEF_STEREO_COUNT>
0

> <PUBCHEM_BOND_DEF_STEREO_COUNT>
0

> <PUBCHEM_BOND_UDEF_STEREO_COUNT>
0

> <PUBCHEM_ISOTOPIC_ATOM_COUNT>
0

> <PUBCHEM_COMPONENT_COUNT>
1

> <PUBCHEM_CACTVS_TAUTO_COUNT>
2

> <PUBCHEM_COORDINATE_TYPE>
1
5
255

> <PUBCHEM_BONDANNOTATIONS>
11  16  8
13  17  8
14  18  8
15  19  8
16  17  8
18  20  8
19  20  8
7  11  8
7  9  8
8  14  8
8  15  8
9  13  8

$$$$

