17396219
  -OEChem-06241222553D

 50 53  0     1  0  0  0  0  0999 V2000
    3.8983    2.0532    0.7374 S   0  0  0  0  0  0  0  0  0  0  0  0
    2.6616    2.5800    1.2765 O   0  0  0  0  0  0  0  0  0  0  0  0
    5.1683    2.7254    0.9177 O   0  0  0  0  0  0  0  0  0  0  0  0
    1.8790   -1.8099   -1.9360 O   0  0  0  0  0  0  0  0  0  0  0  0
   -3.9673   -1.0181   -0.1885 O   0  0  0  0  0  0  0  0  0  0  0  0
    2.1582   -0.6273    0.0699 N   0  0  0  0  0  0  0  0  0  0  0  0
   -0.6350   -0.2482   -1.2082 N   0  0  0  0  0  0  0  0  0  0  0  0
   -1.9873   -0.1564   -1.0412 N   0  0  0  0  0  0  0  0  0  0  0  0
    3.6056   -0.5051    0.0642 C   0  0  2  0  0  0  0  0  0  0  0  0
    4.0752    0.3481    1.2552 C   0  0  0  0  0  0  0  0  0  0  0  0
    4.0731    0.2621   -1.1893 C   0  0  0  0  0  0  0  0  0  0  0  0
    3.6660    1.7214   -1.0008 C   0  0  0  0  0  0  0  0  0  0  0  0
    4.2193   -1.9035    0.1147 C   0  0  0  0  0  0  0  0  0  0  0  0
    1.4584   -1.2644   -0.9281 C   0  0  0  0  0  0  0  0  0  0  0  0
   -0.0117   -1.2624   -0.7053 C   0  0  0  0  0  0  0  0  0  0  0  0
   -0.6551   -2.3471    0.0338 C   0  0  0  0  0  0  0  0  0  0  0  0
   -2.0307   -2.2526    0.2107 C   0  0  0  0  0  0  0  0  0  0  0  0
   -2.7513   -1.0946   -0.3512 C   0  0  0  0  0  0  0  0  0  0  0  0
    0.0477   -3.4426    0.5405 C   0  0  0  0  0  0  0  0  0  0  0  0
   -2.6705    0.9894   -1.6183 C   0  0  0  0  0  0  0  0  0  0  0  0
   -2.7171   -3.2525    0.9076 C   0  0  0  0  0  0  0  0  0  0  0  0
   -0.6375   -4.4398    1.2361 C   0  0  0  0  0  0  0  0  0  0  0  0
   -2.7404    2.1431   -0.6600 C   0  0  0  0  0  0  0  0  0  0  0  0
   -2.0164   -4.3445    1.4205 C   0  0  0  0  0  0  0  0  0  0  0  0
   -1.7200    3.0937   -0.6376 C   0  0  0  0  0  0  0  0  0  0  0  0
   -3.8255    2.2641    0.2080 C   0  0  0  0  0  0  0  0  0  0  0  0
   -1.7847    4.1656    0.2526 C   0  0  0  0  0  0  0  0  0  0  0  0
   -3.8902    3.3360    1.0983 C   0  0  0  0  0  0  0  0  0  0  0  0
   -2.8699    4.2868    1.1207 C   0  0  0  0  0  0  0  0  0  0  0  0
    5.1385    0.1931    1.4665 H   0  0  0  0  0  0  0  0  0  0  0  0
    3.4934    0.1875    2.1668 H   0  0  0  0  0  0  0  0  0  0  0  0
    5.1682    0.2108   -1.2587 H   0  0  0  0  0  0  0  0  0  0  0  0
    3.6810   -0.1284   -2.1322 H   0  0  0  0  0  0  0  0  0  0  0  0
    4.2805    2.4042   -1.5913 H   0  0  0  0  0  0  0  0  0  0  0  0
    2.6087    1.8735   -1.2366 H   0  0  0  0  0  0  0  0  0  0  0  0
    5.3116   -1.8519    0.1902 H   0  0  0  0  0  0  0  0  0  0  0  0
    3.9905   -2.4958   -0.7766 H   0  0  0  0  0  0  0  0  0  0  0  0
    3.8538   -2.4615    0.9848 H   0  0  0  0  0  0  0  0  0  0  0  0
    1.6427   -0.2306    0.8508 H   0  0  0  0  0  0  0  0  0  0  0  0
    1.1212   -3.5412    0.4098 H   0  0  0  0  0  0  0  0  0  0  0  0
   -2.1440    1.2837   -2.5353 H   0  0  0  0  0  0  0  0  0  0  0  0
   -3.6821    0.7028   -1.9322 H   0  0  0  0  0  0  0  0  0  0  0  0
   -3.7916   -3.2010    1.0595 H   0  0  0  0  0  0  0  0  0  0  0  0
   -0.0953   -5.2926    1.6344 H   0  0  0  0  0  0  0  0  0  0  0  0
   -2.5461   -5.1229    1.9620 H   0  0  0  0  0  0  0  0  0  0  0  0
   -0.8681    3.0095   -1.3072 H   0  0  0  0  0  0  0  0  0  0  0  0
   -4.6333    1.5382    0.1985 H   0  0  0  0  0  0  0  0  0  0  0  0
   -0.9897    4.9054    0.2705 H   0  0  0  0  0  0  0  0  0  0  0  0
   -4.7359    3.4314    1.7729 H   0  0  0  0  0  0  0  0  0  0  0  0
   -2.9204    5.1214    1.8138 H   0  0  0  0  0  0  0  0  0  0  0  0
  1  2  2  0  0  0  0
  1  3  2  0  0  0  0
  1 10  1  0  0  0  0
  1 12  1  0  0  0  0
  4 14  2  0  0  0  0
  5 18  2  0  0  0  0
  6  9  1  0  0  0  0
  6 14  1  0  0  0  0
  6 39  1  0  0  0  0
  7  8  1  0  0  0  0
  7 15  2  0  0  0  0
  8 18  1  0  0  0  0
  8 20  1  0  0  0  0
  9 10  1  0  0  0  0
  9 11  1  0  0  0  0
  9 13  1  0  0  0  0
 10 30  1  0  0  0  0
 10 31  1  0  0  0  0
 11 12  1  0  0  0  0
 11 32  1  0  0  0  0
 11 33  1  0  0  0  0
 12 34  1  0  0  0  0
 12 35  1  0  0  0  0
 13 36  1  0  0  0  0
 13 37  1  0  0  0  0
 13 38  1  0  0  0  0
 14 15  1  0  0  0  0
 15 16  1  0  0  0  0
 16 17  1  0  0  0  0
 16 19  2  0  0  0  0
 17 18  1  0  0  0  0
 17 21  2  0  0  0  0
 19 22  1  0  0  0  0
 19 40  1  0  0  0  0
 20 23  1  0  0  0  0
 20 41  1  0  0  0  0
 20 42  1  0  0  0  0
 21 24  1  0  0  0  0
 21 43  1  0  0  0  0
 22 24  2  0  0  0  0
 22 44  1  0  0  0  0
 23 25  2  0  0  0  0
 23 26  1  0  0  0  0
 24 45  1  0  0  0  0
 25 27  1  0  0  0  0
 25 46  1  0  0  0  0
 26 28  2  0  0  0  0
 26 47  1  0  0  0  0
 27 29  2  0  0  0  0
 27 48  1  0  0  0  0
 28 29  1  0  0  0  0
 28 49  1  0  0  0  0
 29 50  1  0  0  0  0
M  END
> <PUBCHEM_COMPOUND_CID>
17396219

> <PUBCHEM_CONFORMER_RMSD>
0.8

> <PUBCHEM_CONFORMER_DIVERSEORDER>
1
153
142
180
126
187
94
213
203
120
83
61
162
101
79
28
175
62
155
177
140
205
202
111
116
75
129
165
89
176
114
204
141
112
80
159
132
122
207
171
184
185
178
195
186
169
139
196
22
138
166
97
108
20
182
173
78
133
86
113
107
24
179
183
74
27
156
134
131
170
135
208
158
127
146
93
152
118
206
168
222
23
161
124
154
167
106
123
172
121
211
137
130
201
66
115
105
119
197
9
194
189
84
109
68
65
147
163
63
117
11
214
58
143
128
70
157
64
72
174
10
181
100
88
14
59
102
144
215
98
192
13
77
193
85
69
99
212
12
90
3
125
103
87
7
200
92
191
19
151
26
136
60
16
56
209
188
76
21
67
221
25
220
199
15
53
219
73
210
148
91
6
190
41
29
198
38
218
40
110
160
216
81
4
18
57
95
145
50
17
104
71
82
150
51
96
52
55
217
54
34
49
44
36
30
42
45
37
35
48
33
8
164
149
47
5
46
39
43
2
32
31

> <PUBCHEM_MMFF94_PARTIAL_CHARGES>
37
1 1.09
10 0.11
12 0.11
14 0.63
15 0.36
16 0.09
17 0.09
18 0.54
19 -0.15
2 -0.65
20 0.44
21 -0.15
22 -0.15
23 -0.14
24 -0.15
25 -0.15
26 -0.15
27 -0.15
28 -0.15
29 -0.15
3 -0.65
39 0.37
4 -0.57
40 0.15
43 0.15
44 0.15
45 0.15
46 0.15
47 0.15
48 0.15
49 0.15
5 -0.57
50 0.15
6 -0.73
7 -0.51
8 -0.3
9 0.3

> <PUBCHEM_EFFECTIVE_ROTOR_COUNT>
5.8

> <PUBCHEM_PHARMACOPHORE_FEATURES>
10
1 2 acceptor
1 3 acceptor
1 4 acceptor
1 5 acceptor
1 6 donor
1 7 acceptor
5 1 9 10 11 12 rings
6 16 17 19 21 22 24 rings
6 23 25 26 27 28 29 rings
6 7 8 15 16 17 18 rings

> <PUBCHEM_HEAVY_ATOM_COUNT>
29

> <PUBCHEM_ATOM_DEF_STEREO_COUNT>
0

> <PUBCHEM_ATOM_UDEF_STEREO_COUNT>
1

> <PUBCHEM_BOND_DEF_STEREO_COUNT>
0

> <PUBCHEM_BOND_UDEF_STEREO_COUNT>
0

> <PUBCHEM_ISOTOPIC_ATOM_COUNT>
0

> <PUBCHEM_COMPONENT_COUNT>
1

> <PUBCHEM_CACTVS_TAUTO_COUNT>
2

> <PUBCHEM_CONFORMER_ID>
010971FB00000001

> <PUBCHEM_MMFF94_ENERGY>
74.0108

> <PUBCHEM_FEATURE_SELFOVERLAP>
50.785

> <PUBCHEM_SHAPE_FINGERPRINT>
10006869 2 18338521954125261359
1100329 8 17977947118173548498
11059048 146 18341037606115806644
12160290 23 17988625381929655983
12293681 160 18196963044547729711
12633257 1 18197228150981587940
12788726 201 18340761547008862887
12925494 130 17326892284444278897
13140716 1 18339081617415825588
13583140 156 17549541164528144485
14081887 123 18127134069815037342
14251764 38 18261962933016952580
14363568 33 17042602012156762752
14466204 15 18051423065179157522
14713325 29 18266180530946370568
14955137 171 16754087464348131823
15142526 21 18265331888284494225
20764821 26 18337111271146427257
21458453 9 18052218982938774417
23558518 356 18409451409575838621
23559900 14 18272082748272510398
23845131 108 18198900512847297249
25222932 49 14614533184895927097
3886686 26 17913239647941228162
392239 28 18337379565670086809
469060 322 18053370007934715192
5081480 168 16519598866771298068
5252454 2 17981031235230401053
5309563 4 17689156712239728504
6086070 43 17113831137600781413
6371009 1 18196393608480871811
79837 15 18342738567520647067
9777508 108 18340196483788938227

> <PUBCHEM_SHAPE_MULTIPOLES>
562.24
8.85
6.76
1.45
6.56
1.69
0.15
-7.93
-1.27
-5.37
-3.6
0.2
-0.04
0.67

> <PUBCHEM_SHAPE_SELFOVERLAP>
1214.107

> <PUBCHEM_SHAPE_VOLUME>
310.4

> <PUBCHEM_COORDINATE_TYPE>
2
5
10

$$$$

