17396140
  -OEChem-06241222543D

 33 34  0     1  0  0  0  0  0999 V2000
   -2.9433    1.2956   -0.7101 S   0  0  0  0  0  0  0  0  0  0  0  0
   -1.8942   -1.4740   -1.4874 S   0  0  0  0  0  0  0  0  0  0  0  0
   -0.0021    3.0135   -0.5707 O   0  0  0  0  0  0  0  0  0  0  0  0
    0.1896    0.9111    0.4545 N   0  0  0  0  0  0  0  0  0  0  0  0
   -2.8717   -0.9329    0.8188 N   0  0  0  0  0  0  0  0  0  0  0  0
   -2.5171   -2.2697    0.8672 N   0  0  0  0  0  0  0  0  0  0  0  0
   -1.5561   -3.9381   -0.5189 N   0  0  0  0  0  0  0  0  0  0  0  0
   -1.9125    2.0904    0.5665 C   0  0  1  0  0  0  0  0  0  0  0  0
    1.5289    0.5460    0.1794 C   0  0  0  0  0  0  0  0  0  0  0  0
   -0.4696    2.0760    0.0702 C   0  0  0  0  0  0  0  0  0  0  0  0
   -2.4105    3.5087    0.8147 C   0  0  0  0  0  0  0  0  0  0  0  0
    2.0312   -0.6691    0.6449 C   0  0  0  0  0  0  0  0  0  0  0  0
    3.3514   -1.0280    0.3734 C   0  0  0  0  0  0  0  0  0  0  0  0
    2.3469    1.4022   -0.5579 C   0  0  0  0  0  0  0  0  0  0  0  0
    4.1693   -0.1717   -0.3638 C   0  0  0  0  0  0  0  0  0  0  0  0
    3.6671    1.0433   -0.8296 C   0  0  0  0  0  0  0  0  0  0  0  0
    3.8887   -2.3267    0.8714 C   0  0  0  0  0  0  0  0  0  0  0  0
   -2.6003   -0.3985   -0.3527 C   0  0  0  0  0  0  0  0  0  0  0  0
   -1.9959   -2.6781   -0.2700 C   0  0  0  0  0  0  0  0  0  0  0  0
   -1.9910    1.5402    1.5111 H   0  0  0  0  0  0  0  0  0  0  0  0
   -0.3320    0.2319    1.0036 H   0  0  0  0  0  0  0  0  0  0  0  0
   -1.7770    4.0083    1.5567 H   0  0  0  0  0  0  0  0  0  0  0  0
   -2.3854    4.1225   -0.0932 H   0  0  0  0  0  0  0  0  0  0  0  0
   -3.4355    3.5086    1.2017 H   0  0  0  0  0  0  0  0  0  0  0  0
    1.3942   -1.3371    1.2206 H   0  0  0  0  0  0  0  0  0  0  0  0
    2.0317    2.3572   -0.9533 H   0  0  0  0  0  0  0  0  0  0  0  0
    5.2002   -0.4390   -0.5805 H   0  0  0  0  0  0  0  0  0  0  0  0
    4.3052    1.7093   -1.4035 H   0  0  0  0  0  0  0  0  0  0  0  0
    4.2891   -2.2046    1.8827 H   0  0  0  0  0  0  0  0  0  0  0  0
    3.1072   -3.0938    0.8924 H   0  0  0  0  0  0  0  0  0  0  0  0
    4.6872   -2.7012    0.2218 H   0  0  0  0  0  0  0  0  0  0  0  0
   -1.6034   -4.6695    0.1828 H   0  0  0  0  0  0  0  0  0  0  0  0
   -1.1608   -4.1990   -1.4164 H   0  0  0  0  0  0  0  0  0  0  0  0
  1  8  1  0  0  0  0
  1 18  1  0  0  0  0
  2 18  1  0  0  0  0
  2 19  1  0  0  0  0
  3 10  2  0  0  0  0
  4  9  1  0  0  0  0
  4 10  1  0  0  0  0
  4 21  1  0  0  0  0
  5  6  1  0  0  0  0
  5 18  2  0  0  0  0
  6 19  2  0  0  0  0
  7 19  1  0  0  0  0
  7 32  1  0  0  0  0
  7 33  1  0  0  0  0
  8 10  1  0  0  0  0
  8 11  1  0  0  0  0
  8 20  1  0  0  0  0
  9 12  1  0  0  0  0
  9 14  2  0  0  0  0
 11 22  1  0  0  0  0
 11 23  1  0  0  0  0
 11 24  1  0  0  0  0
 12 13  2  0  0  0  0
 12 25  1  0  0  0  0
 13 15  1  0  0  0  0
 13 17  1  0  0  0  0
 14 16  1  0  0  0  0
 14 26  1  0  0  0  0
 15 16  2  0  0  0  0
 15 27  1  0  0  0  0
 16 28  1  0  0  0  0
 17 29  1  0  0  0  0
 17 30  1  0  0  0  0
 17 31  1  0  0  0  0
M  END
> <PUBCHEM_COMPOUND_CID>
17396140

> <PUBCHEM_CONFORMER_RMSD>
0.8

> <PUBCHEM_CONFORMER_DIVERSEORDER>
1
106
84
135
59
73
39
168
136
170
48
138
131
89
133
79
134
145
51
151
171
113
85
108
140
169
77
141
65
166
104
102
146
121
71
142
43
57
160
42
173
40
12
46
127
44
7
63
56
125
72
70
115
150
122
28
55
58
67
143
94
75
154
123
6
158
167
32
101
128
86
69
126
34
21
53
129
8
30
98
107
147
137
26
78
38
36
139
153
62
132
13
87
163
45
66
100
76
17
157
11
124
81
109
2
74
22
19
114
96
80
54
92
99
23
152
111
144
9
61
155
47
14
172
117
60
52
176
37
103
18
105
5
41
97
3
112
27
93
25
174
35
119
29
64
156
15
164
4
68
20
130
90
165
16
175
148
31
120
33
149
83
24
159
88
110
10
49
82
162
91
161
118
50
95
116

> <PUBCHEM_MMFF94_PARTIAL_CHARGES>
25
1 -0.29
10 0.57
12 -0.15
13 -0.14
14 -0.15
15 -0.15
16 -0.15
17 0.14
18 0.43
19 0.46
2 -0.08
21 0.37
25 0.15
26 0.15
27 0.15
28 0.15
3 -0.57
32 0.4
33 0.4
4 -0.55
5 -0.34
6 -0.34
7 -0.88
8 0.29
9 0.12

> <PUBCHEM_EFFECTIVE_ROTOR_COUNT>
5

> <PUBCHEM_PHARMACOPHORE_FEATURES>
8
1 11 hydrophobe
1 3 acceptor
1 4 donor
1 5 acceptor
1 7 donor
3 6 7 19 cation
5 2 5 6 18 19 rings
6 9 12 13 14 15 16 rings

> <PUBCHEM_HEAVY_ATOM_COUNT>
19

> <PUBCHEM_ATOM_DEF_STEREO_COUNT>
0

> <PUBCHEM_ATOM_UDEF_STEREO_COUNT>
1

> <PUBCHEM_BOND_DEF_STEREO_COUNT>
0

> <PUBCHEM_BOND_UDEF_STEREO_COUNT>
0

> <PUBCHEM_ISOTOPIC_ATOM_COUNT>
0

> <PUBCHEM_COMPONENT_COUNT>
1

> <PUBCHEM_CACTVS_TAUTO_COUNT>
4

> <PUBCHEM_CONFORMER_ID>
010971AC00000001

> <PUBCHEM_MMFF94_ENERGY>
41.527

> <PUBCHEM_FEATURE_SELFOVERLAP>
40.594

> <PUBCHEM_SHAPE_FINGERPRINT>
10616163 171 18410288125382708350
10759866 29 18272643537656187510
114674 6 17187010786974834435
11578080 2 17677621860576224129
12054548 360 18121779435080885052
12553582 1 18265615372947073075
12596599 1 17610591164754066095
12788726 201 18260544550243249377
13631057 29 18337389315008341764
14081887 123 18190478090068928040
15006816 218 17615971448879312103
16752209 62 18263096555338199497
20291156 8 18266456507863431270
20775438 99 16964124456198753487
21634736 98 18343297042476315508
23557571 272 18040999570646951536
23559900 14 18337120046592521528
23728640 28 18336271261690237923
81228 2 18337691761909653113
90525 40 18338234997825606733

> <PUBCHEM_SHAPE_MULTIPOLES>
372.92
7.08
4.27
1.07
6.48
1.39
0.13
0.96
-0.2
-3.66
-0.18
-0.21
0.15
-1.29

> <PUBCHEM_SHAPE_SELFOVERLAP>
753.762

> <PUBCHEM_SHAPE_VOLUME>
219.3

> <PUBCHEM_COORDINATE_TYPE>
2
5
10

$$$$

