17396345
  -OEChem-06241222562D

 48 51  0     0  0  0  0  0  0999 V2000
    7.6530   -5.8034    0.0000 F   0  0  0  0  0  0  0  0  0  0  0  0
    4.5981    2.8034    0.0000 O   0  0  0  0  0  0  0  0  0  0  0  0
    6.4103   -2.0013    0.0000 N   0  0  0  0  0  0  0  0  0  0  0  0
    4.5981    0.8034    0.0000 N   0  0  0  0  0  0  0  0  0  0  0  0
    2.8660    2.8034    0.0000 N   0  0  0  0  0  0  0  0  0  0  0  0
    6.9939   -1.1966    0.0000 N   0  0  0  0  0  0  0  0  0  0  0  0
    4.5981   -2.1966    0.0000 N   0  0  0  0  0  0  0  0  0  0  0  0
    3.7320   -0.6966    0.0000 N   0  0  0  0  0  0  0  0  0  0  0  0
    5.4641   -0.6966    0.0000 C   0  0  0  0  0  0  0  0  0  0  0  0
    5.4641   -1.6966    0.0000 C   0  0  0  0  0  0  0  0  0  0  0  0
    4.5981   -0.1966    0.0000 C   0  0  0  0  0  0  0  0  0  0  0  0
    3.7320    4.3034    0.0000 C   0  0  0  0  0  0  0  0  0  0  0  0
    2.8660    3.8034    0.0000 C   0  0  0  0  0  0  0  0  0  0  0  0
    3.7320    1.3034    0.0000 C   0  0  0  0  0  0  0  0  0  0  0  0
    6.7210   -2.9518    0.0000 C   0  0  0  0  0  0  0  0  0  0  0  0
    4.5981    3.8034    0.0000 C   0  0  0  0  0  0  0  0  0  0  0  0
    6.4103   -0.3919    0.0000 C   0  0  0  0  0  0  0  0  0  0  0  0
    3.7320    2.3034    0.0000 C   0  0  0  0  0  0  0  0  0  0  0  0
    3.7320    5.3034    0.0000 C   0  0  0  0  0  0  0  0  0  0  0  0
    2.0000    4.3034    0.0000 C   0  0  0  0  0  0  0  0  0  0  0  0
    6.0531   -3.6962    0.0000 C   0  0  0  0  0  0  0  0  0  0  0  0
    7.6995   -3.1581    0.0000 C   0  0  0  0  0  0  0  0  0  0  0  0
    5.4641    4.3034    0.0000 C   0  0  0  0  0  0  0  0  0  0  0  0
    2.8660    5.8034    0.0000 C   0  0  0  0  0  0  0  0  0  0  0  0
    2.0000    5.3034    0.0000 C   0  0  0  0  0  0  0  0  0  0  0  0
    3.7320   -1.6966    0.0000 C   0  0  0  0  0  0  0  0  0  0  0  0
    6.3638   -4.6467    0.0000 C   0  0  0  0  0  0  0  0  0  0  0  0
    8.0102   -4.1086    0.0000 C   0  0  0  0  0  0  0  0  0  0  0  0
    7.3423   -4.8529    0.0000 C   0  0  0  0  0  0  0  0  0  0  0  0
    3.1215    1.4111    0.0000 H   0  0  0  0  0  0  0  0  0  0  0  0
    3.5200    0.7208    0.0000 H   0  0  0  0  0  0  0  0  0  0  0  0
    4.1996    3.3285    0.0000 H   0  0  0  0  0  0  0  0  0  0  0  0
    4.9966    3.3285    0.0000 H   0  0  0  0  0  0  0  0  0  0  0  0
    5.1350    1.1134    0.0000 H   0  0  0  0  0  0  0  0  0  0  0  0
    6.6029    0.1975    0.0000 H   0  0  0  0  0  0  0  0  0  0  0  0
    2.3291    2.4934    0.0000 H   0  0  0  0  0  0  0  0  0  0  0  0
    4.2690    5.6134    0.0000 H   0  0  0  0  0  0  0  0  0  0  0  0
    1.4631    3.9934    0.0000 H   0  0  0  0  0  0  0  0  0  0  0  0
    5.4465   -3.5683    0.0000 H   0  0  0  0  0  0  0  0  0  0  0  0
    8.1136   -2.6966    0.0000 H   0  0  0  0  0  0  0  0  0  0  0  0
    5.7741    3.7665    0.0000 H   0  0  0  0  0  0  0  0  0  0  0  0
    6.0010    4.6134    0.0000 H   0  0  0  0  0  0  0  0  0  0  0  0
    5.1541    4.8403    0.0000 H   0  0  0  0  0  0  0  0  0  0  0  0
    2.8660    6.4234    0.0000 H   0  0  0  0  0  0  0  0  0  0  0  0
    1.4631    5.6134    0.0000 H   0  0  0  0  0  0  0  0  0  0  0  0
    3.1951   -2.0066    0.0000 H   0  0  0  0  0  0  0  0  0  0  0  0
    5.9497   -5.1081    0.0000 H   0  0  0  0  0  0  0  0  0  0  0  0
    8.6168   -4.2364    0.0000 H   0  0  0  0  0  0  0  0  0  0  0  0
  1 29  1  0  0  0  0
  2 18  2  0  0  0  0
  3  6  1  0  0  0  0
  3 10  1  0  0  0  0
  3 15  1  0  0  0  0
  4 11  1  0  0  0  0
  4 14  1  0  0  0  0
  4 34  1  0  0  0  0
  5 13  1  0  0  0  0
  5 18  1  0  0  0  0
  5 36  1  0  0  0  0
  6 17  2  0  0  0  0
  7 10  2  0  0  0  0
  7 26  1  0  0  0  0
  8 11  1  0  0  0  0
  8 26  2  0  0  0  0
  9 10  1  0  0  0  0
  9 11  2  0  0  0  0
  9 17  1  0  0  0  0
 12 13  1  0  0  0  0
 12 16  1  0  0  0  0
 12 19  2  0  0  0  0
 13 20  2  0  0  0  0
 14 18  1  0  0  0  0
 14 30  1  0  0  0  0
 14 31  1  0  0  0  0
 15 21  2  0  0  0  0
 15 22  1  0  0  0  0
 16 23  1  0  0  0  0
 16 32  1  0  0  0  0
 16 33  1  0  0  0  0
 17 35  1  0  0  0  0
 19 24  1  0  0  0  0
 19 37  1  0  0  0  0
 20 25  1  0  0  0  0
 20 38  1  0  0  0  0
 21 27  1  0  0  0  0
 21 39  1  0  0  0  0
 22 28  2  0  0  0  0
 22 40  1  0  0  0  0
 23 41  1  0  0  0  0
 23 42  1  0  0  0  0
 23 43  1  0  0  0  0
 24 25  2  0  0  0  0
 24 44  1  0  0  0  0
 25 45  1  0  0  0  0
 26 46  1  0  0  0  0
 27 29  2  0  0  0  0
 27 47  1  0  0  0  0
 28 29  1  0  0  0  0
 28 48  1  0  0  0  0
M  END
> <PUBCHEM_COMPOUND_CID>
17396345

> <PUBCHEM_COMPOUND_CANONICALIZED>
1

> <PUBCHEM_CACTVS_COMPLEXITY>
543

> <PUBCHEM_CACTVS_HBOND_ACCEPTOR>
6

> <PUBCHEM_CACTVS_HBOND_DONOR>
2

> <PUBCHEM_CACTVS_ROTATABLE_BOND>
6

> <PUBCHEM_CACTVS_SUBSKEYS>
AAADceB7oQAAAAAAAAAAAAAAAAAAAWAAAAA8YIAAAAAAAFgB/AAAHwAYAAAADAjBmww/8N7IEACqAjd3dACShCsxgqAd2KCoZJiIaOLA2fGUpAhonALIyCcQgIAOAAAAAAACAAAAAAAAAAQAAAAAAAAAAA==

> <PUBCHEM_IUPAC_OPENEYE_NAME>
N-(2-ethylphenyl)-2-[[1-(4-fluorophenyl)pyrazolo[3,4-d]pyrimidin-4-yl]amino]acetamide

> <PUBCHEM_IUPAC_CAS_NAME>
N-(2-ethylphenyl)-2-[[1-(4-fluorophenyl)-4-pyrazolo[3,4-d]pyrimidinyl]amino]acetamide

> <PUBCHEM_IUPAC_NAME>
N-(2-ethylphenyl)-2-[[1-(4-fluorophenyl)pyrazolo[3,4-d]pyrimidin-4-yl]amino]acetamide

> <PUBCHEM_IUPAC_SYSTEMATIC_NAME>
N-(2-ethylphenyl)-2-[[1-(4-fluorophenyl)pyrazolo[3,4-d]pyrimidin-4-yl]amino]ethanamide

> <PUBCHEM_IUPAC_TRADITIONAL_NAME>
N-(2-ethylphenyl)-2-[[1-(4-fluorophenyl)pyrazolo[3,4-d]pyrimidin-4-yl]amino]acetamide

> <PUBCHEM_IUPAC_INCHI>
InChI=1S/C21H19FN6O/c1-2-14-5-3-4-6-18(14)27-19(29)12-23-20-17-11-26-28(21(17)25-13-24-20)16-9-7-15(22)8-10-16/h3-11,13H,2,12H2,1H3,(H,27,29)(H,23,24,25)

> <PUBCHEM_IUPAC_INCHIKEY>
INMOPZJZDNKYQP-UHFFFAOYSA-N

> <PUBCHEM_XLOGP3_AA>
4

> <PUBCHEM_EXACT_MASS>
390.160437

> <PUBCHEM_MOLECULAR_FORMULA>
C21H19FN6O

> <PUBCHEM_MOLECULAR_WEIGHT>
390.413563

> <PUBCHEM_OPENEYE_CAN_SMILES>
CCC1=CC=CC=C1NC(=O)CNC2=NC=NC3=C2C=NN3C4=CC=C(C=C4)F

> <PUBCHEM_OPENEYE_ISO_SMILES>
CCC1=CC=CC=C1NC(=O)CNC2=NC=NC3=C2C=NN3C4=CC=C(C=C4)F

> <PUBCHEM_CACTVS_TPSA>
84.7

> <PUBCHEM_MONOISOTOPIC_WEIGHT>
390.160437

> <PUBCHEM_TOTAL_CHARGE>
0

> <PUBCHEM_HEAVY_ATOM_COUNT>
29

> <PUBCHEM_ATOM_DEF_STEREO_COUNT>
0

> <PUBCHEM_ATOM_UDEF_STEREO_COUNT>
0

> <PUBCHEM_BOND_DEF_STEREO_COUNT>
0

> <PUBCHEM_BOND_UDEF_STEREO_COUNT>
0

> <PUBCHEM_ISOTOPIC_ATOM_COUNT>
0

> <PUBCHEM_COMPONENT_COUNT>
1

> <PUBCHEM_CACTVS_TAUTO_COUNT>
16

> <PUBCHEM_COORDINATE_TYPE>
1
5
255

> <PUBCHEM_BONDANNOTATIONS>
12  13  8
12  19  8
13  20  8
15  21  8
15  22  8
19  24  8
20  25  8
21  27  8
22  28  8
24  25  8
27  29  8
28  29  8
3  10  8
3  6  8
6  17  8
7  10  8
7  26  8
8  11  8
8  26  8
9  10  8
9  11  8
9  17  8

$$$$

