7937
  -OEChem-06261202282D

 17 17  0     0  0  0  0  0  0999 V2000
    3.7320   -1.0000    0.0000 N   0  0  0  0  0  0  0  0  0  0  0  0
    2.8660   -0.5000    0.0000 C   0  0  0  0  0  0  0  0  0  0  0  0
    4.5981   -0.5000    0.0000 C   0  0  0  0  0  0  0  0  0  0  0  0
    2.8660    0.5000    0.0000 C   0  0  0  0  0  0  0  0  0  0  0  0
    4.5981    0.5000    0.0000 C   0  0  0  0  0  0  0  0  0  0  0  0
    3.7320    1.0000    0.0000 C   0  0  0  0  0  0  0  0  0  0  0  0
    2.0000   -1.0000    0.0000 C   0  0  0  0  0  0  0  0  0  0  0  0
    5.4641   -1.0000    0.0000 C   0  0  0  0  0  0  0  0  0  0  0  0
    2.3291    0.8100    0.0000 H   0  0  0  0  0  0  0  0  0  0  0  0
    5.1350    0.8100    0.0000 H   0  0  0  0  0  0  0  0  0  0  0  0
    3.7320    1.6200    0.0000 H   0  0  0  0  0  0  0  0  0  0  0  0
    1.6900   -0.4631    0.0000 H   0  0  0  0  0  0  0  0  0  0  0  0
    1.4631   -1.3100    0.0000 H   0  0  0  0  0  0  0  0  0  0  0  0
    2.3100   -1.5369    0.0000 H   0  0  0  0  0  0  0  0  0  0  0  0
    5.1541   -1.5369    0.0000 H   0  0  0  0  0  0  0  0  0  0  0  0
    6.0010   -1.3100    0.0000 H   0  0  0  0  0  0  0  0  0  0  0  0
    5.7741   -0.4631    0.0000 H   0  0  0  0  0  0  0  0  0  0  0  0
  1  2  2  0  0  0  0
  1  3  1  0  0  0  0
  2  4  1  0  0  0  0
  2  7  1  0  0  0  0
  3  5  2  0  0  0  0
  3  8  1  0  0  0  0
  4  6  2  0  0  0  0
  4  9  1  0  0  0  0
  5  6  1  0  0  0  0
  5 10  1  0  0  0  0
  6 11  1  0  0  0  0
  7 12  1  0  0  0  0
  7 13  1  0  0  0  0
  7 14  1  0  0  0  0
  8 15  1  0  0  0  0
  8 16  1  0  0  0  0
  8 17  1  0  0  0  0
M  END
> <PUBCHEM_COMPOUND_CID>
7937

> <PUBCHEM_COMPOUND_CANONICALIZED>
1

> <PUBCHEM_CACTVS_COMPLEXITY>
62.8

> <PUBCHEM_CACTVS_HBOND_ACCEPTOR>
1

> <PUBCHEM_CACTVS_HBOND_DONOR>
0

> <PUBCHEM_CACTVS_ROTATABLE_BOND>
0

> <PUBCHEM_CACTVS_SUBSKEYS>
AAADccBiAAAAAAAAAAAAAAAAAAAAAAAAAAAsAAAAAAAAAAABgAAAHAAAAAAACAiBFgAygJIIEACgASRiRACCgCAhAiAImCAwZJgIIOLAkZGEIAhggADIyAcQgAAAAAAAAAAAAAAAAAAAAAAAAAAAAAAAAA==

> <PUBCHEM_IUPAC_OPENEYE_NAME>
2,6-dimethylpyridine

> <PUBCHEM_IUPAC_CAS_NAME>
2,6-dimethylpyridine

> <PUBCHEM_IUPAC_NAME>
2,6-dimethylpyridine

> <PUBCHEM_IUPAC_SYSTEMATIC_NAME>
2,6-dimethylpyridine

> <PUBCHEM_IUPAC_TRADITIONAL_NAME>
2,6-lutidine

> <PUBCHEM_IUPAC_INCHI>
InChI=1S/C7H9N/c1-6-4-3-5-7(2)8-6/h3-5H,1-2H3

> <PUBCHEM_IUPAC_INCHIKEY>
OISVCGZHLKNMSJ-UHFFFAOYSA-N

> <PUBCHEM_XLOGP3>
1.7

> <PUBCHEM_EXACT_MASS>
107.073499

> <PUBCHEM_MOLECULAR_FORMULA>
C7H9N

> <PUBCHEM_MOLECULAR_WEIGHT>
107.15306

> <PUBCHEM_OPENEYE_CAN_SMILES>
CC1=NC(=CC=C1)C

> <PUBCHEM_OPENEYE_ISO_SMILES>
CC1=NC(=CC=C1)C

> <PUBCHEM_CACTVS_TPSA>
12.9

> <PUBCHEM_MONOISOTOPIC_WEIGHT>
107.073499

> <PUBCHEM_TOTAL_CHARGE>
0

> <PUBCHEM_HEAVY_ATOM_COUNT>
8

> <PUBCHEM_ATOM_DEF_STEREO_COUNT>
0

> <PUBCHEM_ATOM_UDEF_STEREO_COUNT>
0

> <PUBCHEM_BOND_DEF_STEREO_COUNT>
0

> <PUBCHEM_BOND_UDEF_STEREO_COUNT>
0

> <PUBCHEM_ISOTOPIC_ATOM_COUNT>
0

> <PUBCHEM_COMPONENT_COUNT>
1

> <PUBCHEM_CACTVS_TAUTO_COUNT>
1

> <PUBCHEM_COORDINATE_TYPE>
1
5
255

> <PUBCHEM_BONDANNOTATIONS>
1  2  8
1  3  8
2  4  8
3  5  8
4  6  8
5  6  8

$$$$

