10401
  -OEChem-06261204323D

 18 18  0     0  0  0  0  0  0999 V2000
    0.6647    1.2158    0.0868 O   0  0  0  0  0  0  0  0  0  0  0  0
    2.4535   -0.1231    0.3601 O   0  0  0  0  0  0  0  0  0  0  0  0
   -1.9021   -0.6989    0.0321 C   0  0  0  0  0  0  0  0  0  0  0  0
   -0.6497   -1.5430    0.2460 C   0  0  0  0  0  0  0  0  0  0  0  0
   -1.7275    0.7770    0.3797 C   0  0  0  0  0  0  0  0  0  0  0  0
    0.5166   -1.1127   -0.6319 C   0  0  0  0  0  0  0  0  0  0  0  0
   -0.6509    1.4615   -0.4494 C   0  0  0  0  0  0  0  0  0  0  0  0
    1.2953    0.0235   -0.0235 C   0  0  0  0  0  0  0  0  0  0  0  0
   -2.2307   -0.7913   -1.0107 H   0  0  0  0  0  0  0  0  0  0  0  0
   -2.7109   -1.1096    0.6487 H   0  0  0  0  0  0  0  0  0  0  0  0
   -0.9010   -2.5836    0.0072 H   0  0  0  0  0  0  0  0  0  0  0  0
   -0.3643   -1.5199    1.3049 H   0  0  0  0  0  0  0  0  0  0  0  0
   -2.6852    1.2797    0.2001 H   0  0  0  0  0  0  0  0  0  0  0  0
   -1.4982    0.8741    1.4475 H   0  0  0  0  0  0  0  0  0  0  0  0
    0.2194   -0.8701   -1.6567 H   0  0  0  0  0  0  0  0  0  0  0  0
    1.2130   -1.9572   -0.7156 H   0  0  0  0  0  0  0  0  0  0  0  0
   -0.6899    1.1954   -1.5111 H   0  0  0  0  0  0  0  0  0  0  0  0
   -0.7954    2.5458   -0.3908 H   0  0  0  0  0  0  0  0  0  0  0  0
  1  7  1  0  0  0  0
  1  8  1  0  0  0  0
  2  8  2  0  0  0  0
  3  4  1  0  0  0  0
  3  5  1  0  0  0  0
  3  9  1  0  0  0  0
  3 10  1  0  0  0  0
  4  6  1  0  0  0  0
  4 11  1  0  0  0  0
  4 12  1  0  0  0  0
  5  7  1  0  0  0  0
  5 13  1  0  0  0  0
  5 14  1  0  0  0  0
  6  8  1  0  0  0  0
  6 15  1  0  0  0  0
  6 16  1  0  0  0  0
  7 17  1  0  0  0  0
  7 18  1  0  0  0  0
M  END
> <PUBCHEM_COMPOUND_CID>
10401

> <PUBCHEM_CONFORMER_RMSD>
0.4

> <PUBCHEM_CONFORMER_DIVERSEORDER>
1
3
2
4

> <PUBCHEM_MMFF94_PARTIAL_CHARGES>
5
1 -0.43
2 -0.57
6 0.06
7 0.28
8 0.66

> <PUBCHEM_EFFECTIVE_ROTOR_COUNT>
1.2

> <PUBCHEM_PHARMACOPHORE_FEATURES>
2
1 2 acceptor
7 1 3 4 5 6 7 8 rings

> <PUBCHEM_HEAVY_ATOM_COUNT>
8

> <PUBCHEM_ATOM_DEF_STEREO_COUNT>
0

> <PUBCHEM_ATOM_UDEF_STEREO_COUNT>
0

> <PUBCHEM_BOND_DEF_STEREO_COUNT>
0

> <PUBCHEM_BOND_UDEF_STEREO_COUNT>
0

> <PUBCHEM_ISOTOPIC_ATOM_COUNT>
0

> <PUBCHEM_COMPONENT_COUNT>
1

> <PUBCHEM_CACTVS_TAUTO_COUNT>
1

> <PUBCHEM_CONFORMER_ID>
000028A100000001

> <PUBCHEM_MMFF94_ENERGY>
10.596

> <PUBCHEM_FEATURE_SELFOVERLAP>
10.148

> <PUBCHEM_SHAPE_FINGERPRINT>
16714656 1 18411694391963920836
18185500 45 17183061345502304007
21040471 1 18194957663343087669
23235685 24 18335985371281424913
29004967 10 18408877455910780603
5084963 1 18334016090026395371

> <PUBCHEM_SHAPE_MULTIPOLES>
152.9
2.47
1.66
0.71
0.6
0.01
0.04
-0.01
-0.37
-0.39
0.1
-0.01
0.03
0.08

> <PUBCHEM_SHAPE_SELFOVERLAP>
296.31

> <PUBCHEM_SHAPE_VOLUME>
91

> <PUBCHEM_COORDINATE_TYPE>
2
5
10

$$$$

