13819
  -OEChem-06241222403D

 23 22  0     0  0  0  0  0  0999 V2000
    0.0313   -1.8299   -1.4290 Cl  0  0  0  0  0  0  0  0  0  0  0  0
    0.0102   -0.3142   -0.0376 Si  0  0  0  0  0  0  0  0  0  0  0  0
   -1.5188   -0.5128    1.0009 C   0  0  0  0  0  0  0  0  0  0  0  0
    1.5446   -0.4699    1.0001 C   0  0  0  0  0  0  0  0  0  0  0  0
   -0.0125    1.3027   -0.9544 C   0  0  0  0  0  0  0  0  0  0  0  0
   -2.8412   -0.4036    0.2530 C   0  0  0  0  0  0  0  0  0  0  0  0
    2.8631   -0.3238    0.2518 C   0  0  0  0  0  0  0  0  0  0  0  0
   -0.0768    2.5516   -0.0849 C   0  0  0  0  0  0  0  0  0  0  0  0
   -1.4833   -1.4864    1.5036 H   0  0  0  0  0  0  0  0  0  0  0  0
   -1.5072    0.2425    1.7953 H   0  0  0  0  0  0  0  0  0  0  0  0
    1.5122    0.2852    1.7942 H   0  0  0  0  0  0  0  0  0  0  0  0
    1.5365   -1.4440    1.5030 H   0  0  0  0  0  0  0  0  0  0  0  0
    0.8793    1.3681   -1.5885 H   0  0  0  0  0  0  0  0  0  0  0  0
   -0.8713    1.3141   -1.6358 H   0  0  0  0  0  0  0  0  0  0  0  0
   -3.6763   -0.5325    0.9497 H   0  0  0  0  0  0  0  0  0  0  0  0
   -2.9552    0.5755   -0.2246 H   0  0  0  0  0  0  0  0  0  0  0  0
   -2.9336   -1.1719   -0.5221 H   0  0  0  0  0  0  0  0  0  0  0  0
    3.7018   -0.4317    0.9479 H   0  0  0  0  0  0  0  0  0  0  0  0
    2.9758   -1.0875   -0.5251 H   0  0  0  0  0  0  0  0  0  0  0  0
    2.9507    0.6592   -0.2233 H   0  0  0  0  0  0  0  0  0  0  0  0
   -0.0840    3.4475   -0.7145 H   0  0  0  0  0  0  0  0  0  0  0  0
   -0.9834    2.5683    0.5297 H   0  0  0  0  0  0  0  0  0  0  0  0
    0.7877    2.6204    0.5844 H   0  0  0  0  0  0  0  0  0  0  0  0
  1  2  1  0  0  0  0
  2  3  1  0  0  0  0
  2  4  1  0  0  0  0
  2  5  1  0  0  0  0
  3  6  1  0  0  0  0
  3  9  1  0  0  0  0
  3 10  1  0  0  0  0
  4  7  1  0  0  0  0
  4 11  1  0  0  0  0
  4 12  1  0  0  0  0
  5  8  1  0  0  0  0
  5 13  1  0  0  0  0
  5 14  1  0  0  0  0
  6 15  1  0  0  0  0
  6 16  1  0  0  0  0
  6 17  1  0  0  0  0
  7 18  1  0  0  0  0
  7 19  1  0  0  0  0
  7 20  1  0  0  0  0
  8 21  1  0  0  0  0
  8 22  1  0  0  0  0
  8 23  1  0  0  0  0
M  END
> <PUBCHEM_COMPOUND_CID>
13819

> <PUBCHEM_CONFORMER_RMSD>
0.6

> <PUBCHEM_CONFORMER_DIVERSEORDER>
1
11
4
5
8
7
6
9
3
2
10

> <PUBCHEM_MMFF94_PARTIAL_CHARGES>
5
1 -0.37
2 0.61
3 -0.08
4 -0.08
5 -0.08

> <PUBCHEM_EFFECTIVE_ROTOR_COUNT>
3

> <PUBCHEM_PHARMACOPHORE_FEATURES>
0

> <PUBCHEM_HEAVY_ATOM_COUNT>
8

> <PUBCHEM_ATOM_DEF_STEREO_COUNT>
0

> <PUBCHEM_ATOM_UDEF_STEREO_COUNT>
0

> <PUBCHEM_BOND_DEF_STEREO_COUNT>
0

> <PUBCHEM_BOND_UDEF_STEREO_COUNT>
0

> <PUBCHEM_ISOTOPIC_ATOM_COUNT>
0

> <PUBCHEM_COMPONENT_COUNT>
1

> <PUBCHEM_CACTVS_TAUTO_COUNT>
1

> <PUBCHEM_CONFORMER_ID>
000035FB00000001

> <PUBCHEM_MMFF94_ENERGY>
-3.9546

> <PUBCHEM_FEATURE_SELFOVERLAP>
0

> <PUBCHEM_SHAPE_FINGERPRINT>
10219947 1 18407755932813210251
12423570 1 6511609941945740090
137420 1 7182945113258727079
14128692 85 16199568208930704411
14993402 34 18334858255809102047
16945 1 16773798095090828866
20653091 64 17843943889340282481
21930827 45 17547560943511012942
23211744 25 16536786599924294061
23552449 11 18199738159902376043
29004967 10 17988926647703527842
3250762 1 17686896532923905695
528862 383 17771908220983955656
5943 1 5635563177637010662

> <PUBCHEM_SHAPE_MULTIPOLES>
184.72
3.03
2.11
1.28
0.07
1.37
-0.18
-0.79
1.04
-0.07
-0.81
0.01
-0.39
0.03

> <PUBCHEM_SHAPE_SELFOVERLAP>
306.22

> <PUBCHEM_SHAPE_VOLUME>
127.1

> <PUBCHEM_COORDINATE_TYPE>
2
5
10

$$$$

