5905
  -OEChem-06261200583D

 28 29  0     1  0  0  0  0  0999 V2000
   -2.6313   -3.0212    0.3530 I   0  0  0  0  0  0  0  0  0  0  0  0
    1.6065   -0.1760   -0.9977 O   0  0  0  0  0  0  0  0  0  0  0  0
    3.8614    1.5505    0.1454 O   0  0  0  0  0  0  0  0  0  0  0  0
    2.2565   -2.8769   -0.6283 O   0  0  0  0  0  0  0  0  0  0  0  0
   -1.0880    2.8798   -0.3553 O   0  0  0  0  0  0  0  0  0  0  0  0
   -4.3664   -0.2867    0.2110 O   0  0  0  0  0  0  0  0  0  0  0  0
   -0.4267    0.6477   -0.1840 N   0  0  0  0  0  0  0  0  0  0  0  0
   -2.7084    1.2819   -0.0733 N   0  0  0  0  0  0  0  0  0  0  0  0
    3.0541    0.5363    0.7395 C   0  0  1  0  0  0  0  0  0  0  0  0
    0.9748    0.9182   -0.3182 C   0  0  1  0  0  0  0  0  0  0  0  0
    1.6741    1.0841    1.0212 C   0  0  0  0  0  0  0  0  0  0  0  0
    2.7860   -0.5705   -0.2707 C   0  0  1  0  0  0  0  0  0  0  0  0
    2.5037   -1.9159    0.3853 C   0  0  0  0  0  0  0  0  0  0  0  0
   -1.3777    1.6897   -0.2152 C   0  0  0  0  0  0  0  0  0  0  0  0
   -0.8344   -0.6708   -0.0206 C   0  0  0  0  0  0  0  0  0  0  0  0
   -2.1095   -1.0550    0.1154 C   0  0  0  0  0  0  0  0  0  0  0  0
   -3.1746   -0.0153    0.0923 C   0  0  0  0  0  0  0  0  0  0  0  0
    3.5729    0.1852    1.6364 H   0  0  0  0  0  0  0  0  0  0  0  0
    1.1230    1.8131   -0.9343 H   0  0  0  0  0  0  0  0  0  0  0  0
    1.1888    0.4800    1.7974 H   0  0  0  0  0  0  0  0  0  0  0  0
    1.6649    2.1273    1.3524 H   0  0  0  0  0  0  0  0  0  0  0  0
    3.5944   -0.6701   -1.0035 H   0  0  0  0  0  0  0  0  0  0  0  0
    1.6514   -1.8910    1.0680 H   0  0  0  0  0  0  0  0  0  0  0  0
    3.3804   -2.2442    0.9538 H   0  0  0  0  0  0  0  0  0  0  0  0
    3.9605    2.2634    0.7993 H   0  0  0  0  0  0  0  0  0  0  0  0
   -0.0661   -1.4265   -0.0124 H   0  0  0  0  0  0  0  0  0  0  0  0
   -3.4101    2.0168   -0.0931 H   0  0  0  0  0  0  0  0  0  0  0  0
    2.0955   -3.7266   -0.1839 H   0  0  0  0  0  0  0  0  0  0  0  0
  1 16  1  0  0  0  0
  2 10  1  0  0  0  0
  2 12  1  0  0  0  0
  3  9  1  0  0  0  0
  3 25  1  0  0  0  0
  4 13  1  0  0  0  0
  4 28  1  0  0  0  0
  5 14  2  0  0  0  0
  6 17  2  0  0  0  0
  7 10  1  0  0  0  0
  7 14  1  0  0  0  0
  7 15  1  0  0  0  0
  8 14  1  0  0  0  0
  8 17  1  0  0  0  0
  8 27  1  0  0  0  0
  9 11  1  0  0  0  0
  9 12  1  0  0  0  0
  9 18  1  0  0  0  0
 10 11  1  0  0  0  0
 10 19  1  0  0  0  0
 11 20  1  0  0  0  0
 11 21  1  0  0  0  0
 12 13  1  0  0  0  0
 12 22  1  0  0  0  0
 13 23  1  0  0  0  0
 13 24  1  0  0  0  0
 15 16  2  0  0  0  0
 15 26  1  0  0  0  0
 16 17  1  0  0  0  0
M  END
> <PUBCHEM_COMPOUND_CID>
5905

> <PUBCHEM_CONFORMER_RMSD>
0.6

> <PUBCHEM_CONFORMER_DIVERSEORDER>
1
10
14
12
7
8
9
4
15
5
13
11
2
6
3

> <PUBCHEM_MMFF94_PARTIAL_CHARGES>
20
1 -0.09
10 0.58
12 0.28
13 0.28
14 0.69
15 -0.04
16 0.1
17 0.62
2 -0.56
25 0.4
26 0.15
27 0.37
28 0.4
3 -0.68
4 -0.68
5 -0.57
6 -0.57
7 -0.47
8 -0.49
9 0.28

> <PUBCHEM_EFFECTIVE_ROTOR_COUNT>
3

> <PUBCHEM_PHARMACOPHORE_FEATURES>
11
1 1 hydrophobe
1 2 acceptor
1 3 acceptor
1 3 donor
1 4 acceptor
1 4 donor
1 5 acceptor
1 6 acceptor
1 8 donor
5 2 9 10 11 12 rings
6 7 8 14 15 16 17 rings

> <PUBCHEM_HEAVY_ATOM_COUNT>
17

> <PUBCHEM_ATOM_DEF_STEREO_COUNT>
3

> <PUBCHEM_ATOM_UDEF_STEREO_COUNT>
0

> <PUBCHEM_BOND_DEF_STEREO_COUNT>
0

> <PUBCHEM_BOND_UDEF_STEREO_COUNT>
0

> <PUBCHEM_ISOTOPIC_ATOM_COUNT>
0

> <PUBCHEM_COMPONENT_COUNT>
1

> <PUBCHEM_CACTVS_TAUTO_COUNT>
3

> <PUBCHEM_CONFORMER_ID>
0000171100000001

> <PUBCHEM_MMFF94_ENERGY>
42.6569

> <PUBCHEM_FEATURE_SELFOVERLAP>
55.822

> <PUBCHEM_SHAPE_FINGERPRINT>
10366900 7 18114190683151425305
10608611 8 18337678614977842984
10616163 171 18339078168615225970
10618630 7 18343019986630594703
10967382 1 18411138021900565807
12382932 28 18339080389113123307
12500047 106 18340775930542827901
12553582 1 17981310210737001179
12932764 1 17604162475011766060
13140716 1 18194125109708090209
14178342 30 18266182738269286859
14223421 5 18409169909056164234
14251705 54 18052814750262660139
15219456 202 18335144227817096292
15375462 6 18409731768072165588
16945 1 18411980260555239653
17804303 29 18193551388097970710
17834074 16 18409447003013258682
19049666 15 18191030203635147280
19107657 46 18339361851263123031
19591789 44 18050845821679855601
19784866 170 18337673001550402904
20510252 161 18336266842338013761
20645477 70 18261397783908433327
20871998 184 18262799549606804895
21501502 16 18335984280423002752
23184049 29 18339928224331677698
2334 1 17835238948229603605
23402539 116 18129954355942304880
23557571 272 18263073344944385884
23559900 14 18410296934502914252
2748010 2 18198062688754514901
3312278 4 18339077086330505019
34934 24 18340211795479178083
69090 78 18335145284743048079
7364860 26 18335138730643949422
81228 2 18272364304462910217
8809292 202 18412542119703265714
9709674 26 18409448119699825238

> <PUBCHEM_SHAPE_MULTIPOLES>
322.48
6.48
3.11
0.81
0.59
1.26
0.06
1.26
0.79
0.97
-0.21
-0.3
0.09
0.59

> <PUBCHEM_SHAPE_SELFOVERLAP>
655.94

> <PUBCHEM_SHAPE_VOLUME>
191.2

> <PUBCHEM_COORDINATE_TYPE>
2
5
10

$$$$

