17395948
  -OEChem-06241222532D

 29 29  0     0  0  0  0  0  0999 V2000
    2.9511   -0.3871    0.0000 O   0  0  0  0  0  0  0  0  0  0  0  0
    6.8747    1.9804    0.0000 O   0  0  0  0  0  0  0  0  0  0  0  0
   10.9250   -0.9623    0.0000 O   0  5  0  0  0  0  0  0  0  0  0  0
    9.5237   -1.9804    0.0000 O   0  0  0  0  0  0  0  0  0  0  0  0
    6.3395    0.3331    0.0000 N   0  0  0  0  0  0  0  0  0  0  0  0
    8.8427    1.2810    0.0000 N   0  0  0  0  0  0  0  0  0  0  0  0
    9.9305   -1.0668    0.0000 N   0  3  0  0  0  0  0  0  0  0  0  0
    4.6453   -0.0270    0.0000 C   0  0  0  0  0  0  0  0  0  0  0  0
    5.3884    0.6421    0.0000 C   0  0  0  0  0  0  0  0  0  0  0  0
    3.6942    0.2820    0.0000 C   0  0  0  0  0  0  0  0  0  0  0  0
    8.0337    0.6932    0.0000 C   0  0  0  0  0  0  0  0  0  0  0  0
    7.0826    1.0022    0.0000 C   0  0  0  0  0  0  0  0  0  0  0  0
    8.3427   -0.2578    0.0000 C   0  0  0  0  0  0  0  0  0  0  0  0
    9.3427   -0.2578    0.0000 C   0  0  0  0  0  0  0  0  0  0  0  0
    9.6517    0.6932    0.0000 C   0  0  0  0  0  0  0  0  0  0  0  0
    2.0000   -0.0781    0.0000 C   0  0  0  0  0  0  0  0  0  0  0  0
    4.3542   -0.5744    0.0000 H   0  0  0  0  0  0  0  0  0  0  0  0
    5.1338   -0.4087    0.0000 H   0  0  0  0  0  0  0  0  0  0  0  0
    5.6795    1.1896    0.0000 H   0  0  0  0  0  0  0  0  0  0  0  0
    4.8998    1.0238    0.0000 H   0  0  0  0  0  0  0  0  0  0  0  0
    3.9853    0.8294    0.0000 H   0  0  0  0  0  0  0  0  0  0  0  0
    3.2056    0.6637    0.0000 H   0  0  0  0  0  0  0  0  0  0  0  0
    6.4684   -0.2733    0.0000 H   0  0  0  0  0  0  0  0  0  0  0  0
    7.9782   -0.7594    0.0000 H   0  0  0  0  0  0  0  0  0  0  0  0
    8.8427    1.9010    0.0000 H   0  0  0  0  0  0  0  0  0  0  0  0
   10.2413    0.8848    0.0000 H   0  0  0  0  0  0  0  0  0  0  0  0
    2.1916    0.5116    0.0000 H   0  0  0  0  0  0  0  0  0  0  0  0
    1.4103    0.1135    0.0000 H   0  0  0  0  0  0  0  0  0  0  0  0
    1.8084   -0.6678    0.0000 H   0  0  0  0  0  0  0  0  0  0  0  0
  1 10  1  0  0  0  0
  1 16  1  0  0  0  0
  2 12  2  0  0  0  0
  3  7  1  0  0  0  0
  4  7  2  0  0  0  0
  5  9  1  0  0  0  0
  5 12  1  0  0  0  0
  5 23  1  0  0  0  0
  6 11  1  0  0  0  0
  6 15  1  0  0  0  0
  6 25  1  0  0  0  0
  7 14  1  0  0  0  0
  8  9  1  0  0  0  0
  8 10  1  0  0  0  0
  8 17  1  0  0  0  0
  8 18  1  0  0  0  0
  9 19  1  0  0  0  0
  9 20  1  0  0  0  0
 10 21  1  0  0  0  0
 10 22  1  0  0  0  0
 11 12  1  0  0  0  0
 11 13  2  0  0  0  0
 13 14  1  0  0  0  0
 13 24  1  0  0  0  0
 14 15  2  0  0  0  0
 15 26  1  0  0  0  0
 16 27  1  0  0  0  0
 16 28  1  0  0  0  0
 16 29  1  0  0  0  0
M  CHG  2   3  -1   7   1
M  END
> <PUBCHEM_COMPOUND_CID>
17395948

> <PUBCHEM_COMPOUND_CANONICALIZED>
1

> <PUBCHEM_CACTVS_COMPLEXITY>
254

> <PUBCHEM_CACTVS_HBOND_ACCEPTOR>
4

> <PUBCHEM_CACTVS_HBOND_DONOR>
2

> <PUBCHEM_CACTVS_ROTATABLE_BOND>
5

> <PUBCHEM_CACTVS_SUBSKEYS>
AAADccBzOAAAAAAAAAAAAAAAAAAAAWAAAAAAAAAAAAAAAAABgAAAHgAUAAAACAjhlgY+wJLZ1ACpATV3VwCCgCA3EiAg2aG4dNoIYPLA1fGUBQhiloDIyYYcAQAAAAAAAAAAAAAAAAAAAAAAAAAAAAAAAA==

> <PUBCHEM_IUPAC_OPENEYE_NAME>
N-(3-methoxypropyl)-4-nitro-1H-pyrrole-2-carboxamide

> <PUBCHEM_IUPAC_CAS_NAME>
N-(3-methoxypropyl)-4-nitro-1H-pyrrole-2-carboxamide

> <PUBCHEM_IUPAC_NAME>
N-(3-methoxypropyl)-4-nitro-1H-pyrrole-2-carboxamide

> <PUBCHEM_IUPAC_SYSTEMATIC_NAME>
N-(3-methoxypropyl)-4-nitro-1H-pyrrole-2-carboxamide

> <PUBCHEM_IUPAC_TRADITIONAL_NAME>
N-(3-methoxypropyl)-4-nitro-1H-pyrrole-2-carboxamide

> <PUBCHEM_IUPAC_INCHI>
InChI=1S/C9H13N3O4/c1-16-4-2-3-10-9(13)8-5-7(6-11-8)12(14)15/h5-6,11H,2-4H2,1H3,(H,10,13)

> <PUBCHEM_IUPAC_INCHIKEY>
YDCMSMCNKKWKOY-UHFFFAOYSA-N

> <PUBCHEM_XLOGP3_AA>
0.4

> <PUBCHEM_EXACT_MASS>
227.090606

> <PUBCHEM_MOLECULAR_FORMULA>
C9H13N3O4

> <PUBCHEM_MOLECULAR_WEIGHT>
227.21722

> <PUBCHEM_OPENEYE_CAN_SMILES>
COCCCNC(=O)C1=CC(=CN1)[N+](=O)[O-]

> <PUBCHEM_OPENEYE_ISO_SMILES>
COCCCNC(=O)C1=CC(=CN1)[N+](=O)[O-]

> <PUBCHEM_CACTVS_TPSA>
99.9

> <PUBCHEM_MONOISOTOPIC_WEIGHT>
227.090606

> <PUBCHEM_TOTAL_CHARGE>
0

> <PUBCHEM_HEAVY_ATOM_COUNT>
16

> <PUBCHEM_ATOM_DEF_STEREO_COUNT>
0

> <PUBCHEM_ATOM_UDEF_STEREO_COUNT>
0

> <PUBCHEM_BOND_DEF_STEREO_COUNT>
0

> <PUBCHEM_BOND_UDEF_STEREO_COUNT>
0

> <PUBCHEM_ISOTOPIC_ATOM_COUNT>
0

> <PUBCHEM_COMPONENT_COUNT>
1

> <PUBCHEM_CACTVS_TAUTO_COUNT>
7

> <PUBCHEM_COORDINATE_TYPE>
1
5
255

> <PUBCHEM_BONDANNOTATIONS>
11  13  8
13  14  8
14  15  8
6  11  8
6  15  8

$$$$

