10745
  -OEChem-06261204543D

 34 35  0     0  0  0  0  0  0999 V2000
   -0.7085   -1.1426    0.3744 O   0  0  0  0  0  0  0  0  0  0  0  0
    2.4182    0.9947   -1.2431 O   0  0  0  0  0  0  0  0  0  0  0  0
   -0.0568   -0.0682   -1.5886 O   0  0  0  0  0  0  0  0  0  0  0  0
   -2.3755    2.5362    1.0300 O   0  0  0  0  0  0  0  0  0  0  0  0
   -1.0076    1.0316    2.0459 O   0  0  0  0  0  0  0  0  0  0  0  0
    2.1035    2.1924    0.7435 O   0  0  0  0  0  0  0  0  0  0  0  0
    1.6065   -0.9742   -0.1399 C   0  0  0  0  0  0  0  0  0  0  0  0
    2.6354   -0.1286   -0.5025 C   0  0  0  0  0  0  0  0  0  0  0  0
   -2.0092   -0.8947    0.0517 C   0  0  0  0  0  0  0  0  0  0  0  0
   -2.6387    0.2791    0.4656 C   0  0  0  0  0  0  0  0  0  0  0  0
    1.8231   -2.1135    0.6099 C   0  0  0  0  0  0  0  0  0  0  0  0
    0.2150   -0.6677   -0.5590 C   0  0  0  0  0  0  0  0  0  0  0  0
    3.9352   -0.4344   -0.0990 C   0  0  0  0  0  0  0  0  0  0  0  0
   -2.7115   -1.8337   -0.7038 C   0  0  0  0  0  0  0  0  0  0  0  0
    3.1228   -2.4193    1.0133 C   0  0  0  0  0  0  0  0  0  0  0  0
   -3.9705    0.5140    0.1241 C   0  0  0  0  0  0  0  0  0  0  0  0
    4.1789   -1.5799    0.6590 C   0  0  0  0  0  0  0  0  0  0  0  0
   -4.0435   -1.5987   -1.0454 C   0  0  0  0  0  0  0  0  0  0  0  0
   -4.6729   -0.4250   -0.6314 C   0  0  0  0  0  0  0  0  0  0  0  0
   -1.9239    1.2726    1.2548 C   0  0  0  0  0  0  0  0  0  0  0  0
    2.1520    2.1415   -0.4784 C   0  0  0  0  0  0  0  0  0  0  0  0
    1.9281    3.3183   -1.3811 C   0  0  0  0  0  0  0  0  0  0  0  0
    1.0221   -2.7921    0.8873 H   0  0  0  0  0  0  0  0  0  0  0  0
    4.7631    0.2142   -0.3721 H   0  0  0  0  0  0  0  0  0  0  0  0
   -2.2279   -2.7509   -1.0292 H   0  0  0  0  0  0  0  0  0  0  0  0
    3.3134   -3.3129    1.6005 H   0  0  0  0  0  0  0  0  0  0  0  0
   -4.4926    1.4126    0.4423 H   0  0  0  0  0  0  0  0  0  0  0  0
    5.1910   -1.8186    0.9723 H   0  0  0  0  0  0  0  0  0  0  0  0
   -4.5906   -2.3302   -1.6329 H   0  0  0  0  0  0  0  0  0  0  0  0
   -5.7109   -0.2438   -0.8950 H   0  0  0  0  0  0  0  0  0  0  0  0
    2.8229    3.4981   -1.9820 H   0  0  0  0  0  0  0  0  0  0  0  0
    1.7288    4.2071   -0.7757 H   0  0  0  0  0  0  0  0  0  0  0  0
    1.0635    3.1311   -2.0226 H   0  0  0  0  0  0  0  0  0  0  0  0
   -1.8877    3.1986    1.5644 H   0  0  0  0  0  0  0  0  0  0  0  0
  1  9  1  0  0  0  0
  1 12  1  0  0  0  0
  2  8  1  0  0  0  0
  2 21  1  0  0  0  0
  3 12  2  0  0  0  0
  4 20  1  0  0  0  0
  4 34  1  0  0  0  0
  5 20  2  0  0  0  0
  6 21  2  0  0  0  0
  7  8  1  0  0  0  0
  7 11  2  0  0  0  0
  7 12  1  0  0  0  0
  8 13  2  0  0  0  0
  9 10  1  0  0  0  0
  9 14  2  0  0  0  0
 10 16  2  0  0  0  0
 10 20  1  0  0  0  0
 11 15  1  0  0  0  0
 11 23  1  0  0  0  0
 13 17  1  0  0  0  0
 13 24  1  0  0  0  0
 14 18  1  0  0  0  0
 14 25  1  0  0  0  0
 15 17  2  0  0  0  0
 15 26  1  0  0  0  0
 16 19  1  0  0  0  0
 16 27  1  0  0  0  0
 17 28  1  0  0  0  0
 18 19  2  0  0  0  0
 18 29  1  0  0  0  0
 19 30  1  0  0  0  0
 21 22  1  0  0  0  0
 22 31  1  0  0  0  0
 22 32  1  0  0  0  0
 22 33  1  0  0  0  0
M  END
> <PUBCHEM_COMPOUND_CID>
10745

> <PUBCHEM_CONFORMER_RMSD>
0.8

> <PUBCHEM_CONFORMER_DIVERSEORDER>
1
137
89
181
154
132
26
141
99
41
113
21
147
74
62
159
50
65
155
60
116
209
191
219
63
28
160
40
24
58
211
108
146
227
190
75
222
188
199
208
39
25
96
200
31
215
177
6
142
192
206
164
66
111
133
81
176
35
112
127
92
29
138
80
225
110
195
86
67
102
84
173
69
210
163
165
82
72
53
203
229
216
118
184
44
234
47
179
143
68
126
120
109
34
104
197
91
223
70
100
174
64
4
117
207
85
77
153
106
27
123
59
180
139
201
185
150
220
170
175
37
230
79
16
202
71
97
42
161
136
46
115
107
149
83
158
140
54
20
129
224
131
156
78
2
122
30
128
114
18
8
228
231
217
152
167
87
105
193
11
76
22
52
57
134
51
145
48
93
38
9
186
73
151
5
135
17
55
178
125
45
194
15
187
10
33
3
56
168
119
23
169
182
204
61
7
162
171
218
43
233
148
12
166
172
90
14
144
183
103
19
196
221
130
226
212
101
13
205
189
49
198
213
95
32
94
88
124
98
121
157
214
36
232

> <PUBCHEM_MMFF94_PARTIAL_CHARGES>
31
1 -0.23
10 0.09
11 -0.15
12 0.63
13 -0.15
14 -0.15
15 -0.15
16 -0.15
17 -0.15
18 -0.15
19 -0.15
2 -0.23
20 0.63
21 0.66
22 0.06
23 0.15
24 0.15
25 0.15
26 0.15
27 0.15
28 0.15
29 0.15
3 -0.57
30 0.15
34 0.5
4 -0.65
5 -0.57
6 -0.57
7 0.09
8 0.08
9 0.08

> <PUBCHEM_EFFECTIVE_ROTOR_COUNT>
6

> <PUBCHEM_PHARMACOPHORE_FEATURES>
7
1 3 acceptor
1 4 acceptor
1 5 acceptor
1 6 acceptor
3 4 5 20 anion
6 7 8 11 13 15 17 rings
6 9 10 14 16 18 19 rings

> <PUBCHEM_HEAVY_ATOM_COUNT>
22

> <PUBCHEM_ATOM_DEF_STEREO_COUNT>
0

> <PUBCHEM_ATOM_UDEF_STEREO_COUNT>
0

> <PUBCHEM_BOND_DEF_STEREO_COUNT>
0

> <PUBCHEM_BOND_UDEF_STEREO_COUNT>
0

> <PUBCHEM_ISOTOPIC_ATOM_COUNT>
0

> <PUBCHEM_COMPONENT_COUNT>
1

> <PUBCHEM_CACTVS_TAUTO_COUNT>
1

> <PUBCHEM_CONFORMER_ID>
000029F900000001

> <PUBCHEM_MMFF94_ENERGY>
77.2451

> <PUBCHEM_FEATURE_SELFOVERLAP>
35.578

> <PUBCHEM_SHAPE_FINGERPRINT>
10062212 137 18186804669244587095
11578080 2 18120969232498387361
12236239 1 18409732888826807007
12507557 5 18412548716640715179
13009979 54 18188200018014068018
13134695 92 18059859488954826030
13224815 77 17822285739387449907
13583140 156 17988066907563479745
13965767 371 17253132633188095432
14787075 74 17329140274330834543
15375462 478 18040443217024578086
17349148 13 18186806906537660543
17492 89 18335136505566878743
17980427 23 18041005088946684128
18335252 114 17984721154084441837
18681886 176 18187370891873813446
192875 21 18411139151371339801
200 152 18409737257188296887
20715895 44 18119532291798388397
2255824 54 18343017744990144790
23402539 116 17967827084581911487
23419403 2 17902271984619305824
23557571 272 16805598213549886499
23559900 14 18337118881844059323
238 59 18129086845415218568
312423 11 18263067873404243435
4409770 3 17407408399990258564
474 4 18128256683908089124
6992083 37 18193550305697438954
7097593 13 18265894842110928459
7471813 234 18188789270025411118
7615 1 18408035225872460611
84936 182 18193837037851614076
9971528 1 18411423934111522614
9981440 41 17765717919148943792

> <PUBCHEM_SHAPE_MULTIPOLES>
417.53
8.1
3.02
1.35
3.24
1.91
-0.18
-2.56
0.53
-2.17
0.08
0.26
0.5
-2.09

> <PUBCHEM_SHAPE_SELFOVERLAP>
905.871

> <PUBCHEM_SHAPE_VOLUME>
223.4

> <PUBCHEM_COORDINATE_TYPE>
2
5
10

$$$$

