17396350
  -OEChem-06241222563D

 45 46  0     0  0  0  0  0  0999 V2000
    3.7194   -1.5568   -1.3388 O   0  0  0  0  0  0  0  0  0  0  0  0
   -0.5915   -2.3760   -0.5914 O   0  0  0  0  0  0  0  0  0  0  0  0
    2.0555   -2.1572    0.1894 N   0  0  0  0  0  0  0  0  0  0  0  0
   -1.1507   -0.6920    0.9479 N   0  0  0  0  0  0  0  0  0  0  0  0
    2.5230    0.1823   -0.4300 C   0  0  0  0  0  0  0  0  0  0  0  0
    3.1639    0.9675    0.5283 C   0  0  0  0  0  0  0  0  0  0  0  0
    0.9954   -1.7311    1.1005 C   0  0  0  0  0  0  0  0  0  0  0  0
    2.8143   -1.2392   -0.5574 C   0  0  0  0  0  0  0  0  0  0  0  0
    1.9299    2.9008   -0.2307 C   0  0  0  0  0  0  0  0  0  0  0  0
    2.8674    2.3268    0.6279 C   0  0  0  0  0  0  0  0  0  0  0  0
    1.5853    0.7563   -1.2885 C   0  0  0  0  0  0  0  0  0  0  0  0
    1.2887    2.1155   -1.1889 C   0  0  0  0  0  0  0  0  0  0  0  0
   -0.3329   -1.6589    0.3695 C   0  0  0  0  0  0  0  0  0  0  0  0
    2.2748   -3.5943    0.1052 C   0  0  0  0  0  0  0  0  0  0  0  0
    4.1732    0.3783    1.4590 C   0  0  0  0  0  0  0  0  0  0  0  0
   -2.4605   -0.3240    0.5579 C   0  0  0  0  0  0  0  0  0  0  0  0
    1.6148    4.3547   -0.1249 C   0  0  0  0  0  0  0  0  0  0  0  0
   -3.1409    0.6742    1.2553 C   0  0  0  0  0  0  0  0  0  0  0  0
   -3.0710   -0.9595   -0.5234 C   0  0  0  0  0  0  0  0  0  0  0  0
   -5.0423    0.4016   -0.2102 C   0  0  0  0  0  0  0  0  0  0  0  0
   -4.4318    1.0370    0.8712 C   0  0  0  0  0  0  0  0  0  0  0  0
   -4.3618   -0.5967   -0.9073 C   0  0  0  0  0  0  0  0  0  0  0  0
   -6.4222    0.7906   -0.6206 C   0  0  0  0  0  0  0  0  0  0  0  0
    1.2431   -0.7682    1.5530 H   0  0  0  0  0  0  0  0  0  0  0  0
    0.9042   -2.4582    1.9154 H   0  0  0  0  0  0  0  0  0  0  0  0
    3.3629    2.9432    1.3743 H   0  0  0  0  0  0  0  0  0  0  0  0
    1.0787    0.1550   -2.0392 H   0  0  0  0  0  0  0  0  0  0  0  0
    0.5547    2.5501   -1.8621 H   0  0  0  0  0  0  0  0  0  0  0  0
    2.5898   -3.9602    1.0868 H   0  0  0  0  0  0  0  0  0  0  0  0
    3.0542   -3.8273   -0.6248 H   0  0  0  0  0  0  0  0  0  0  0  0
    1.3489   -4.0923   -0.1932 H   0  0  0  0  0  0  0  0  0  0  0  0
    3.7103   -0.3737    2.1059 H   0  0  0  0  0  0  0  0  0  0  0  0
    4.9924   -0.0825    0.8971 H   0  0  0  0  0  0  0  0  0  0  0  0
    4.6182    1.1384    2.1105 H   0  0  0  0  0  0  0  0  0  0  0  0
   -0.7866   -0.1813    1.7493 H   0  0  0  0  0  0  0  0  0  0  0  0
    1.2699    4.7575   -1.0833 H   0  0  0  0  0  0  0  0  0  0  0  0
    2.5016    4.9292    0.1633 H   0  0  0  0  0  0  0  0  0  0  0  0
    0.8321    4.5157    0.6231 H   0  0  0  0  0  0  0  0  0  0  0  0
   -2.6763    1.1779    2.0991 H   0  0  0  0  0  0  0  0  0  0  0  0
   -2.6086   -1.7394   -1.1117 H   0  0  0  0  0  0  0  0  0  0  0  0
   -4.9510    1.8177    1.4209 H   0  0  0  0  0  0  0  0  0  0  0  0
   -4.8272   -1.0970   -1.7526 H   0  0  0  0  0  0  0  0  0  0  0  0
   -7.0119    1.1219    0.2410 H   0  0  0  0  0  0  0  0  0  0  0  0
   -6.9555   -0.0556   -1.0669 H   0  0  0  0  0  0  0  0  0  0  0  0
   -6.3814    1.6041   -1.3516 H   0  0  0  0  0  0  0  0  0  0  0  0
  1  8  2  0  0  0  0
  2 13  2  0  0  0  0
  3  7  1  0  0  0  0
  3  8  1  0  0  0  0
  3 14  1  0  0  0  0
  4 13  1  0  0  0  0
  4 16  1  0  0  0  0
  4 35  1  0  0  0  0
  5  6  2  0  0  0  0
  5  8  1  0  0  0  0
  5 11  1  0  0  0  0
  6 10  1  0  0  0  0
  6 15  1  0  0  0  0
  7 13  1  0  0  0  0
  7 24  1  0  0  0  0
  7 25  1  0  0  0  0
  9 10  2  0  0  0  0
  9 12  1  0  0  0  0
  9 17  1  0  0  0  0
 10 26  1  0  0  0  0
 11 12  2  0  0  0  0
 11 27  1  0  0  0  0
 12 28  1  0  0  0  0
 14 29  1  0  0  0  0
 14 30  1  0  0  0  0
 14 31  1  0  0  0  0
 15 32  1  0  0  0  0
 15 33  1  0  0  0  0
 15 34  1  0  0  0  0
 16 18  2  0  0  0  0
 16 19  1  0  0  0  0
 17 36  1  0  0  0  0
 17 37  1  0  0  0  0
 17 38  1  0  0  0  0
 18 21  1  0  0  0  0
 18 39  1  0  0  0  0
 19 22  2  0  0  0  0
 19 40  1  0  0  0  0
 20 21  2  0  0  0  0
 20 22  1  0  0  0  0
 20 23  1  0  0  0  0
 21 41  1  0  0  0  0
 22 42  1  0  0  0  0
 23 43  1  0  0  0  0
 23 44  1  0  0  0  0
 23 45  1  0  0  0  0
M  END
> <PUBCHEM_COMPOUND_CID>
17396350

> <PUBCHEM_CONFORMER_RMSD>
0.8

> <PUBCHEM_CONFORMER_DIVERSEORDER>
1
88
63
28
112
22
118
95
87
57
78
80
100
107
46
68
117
74
50
40
34
38
24
10
97
8
47
110
91
85
4
65
96
67
3
92
13
75
49
86
66
84
106
55
43
17
98
116
70
94
114
41
32
115
83
71
12
104
103
76
45
6
89
42
27
2
54
102
105
101
5
25
119
81
99
9
52
31
53
23
109
73
93
48
56
37
60
113
14
61
72
62
16
26
33
29
44
59
108
21
36
20
35
58
15
79
51
82
30
111
39
69
7
11
64
90
19
18
77

> <PUBCHEM_MMFF94_PARTIAL_CHARGES>
31
1 -0.57
10 -0.15
11 -0.15
12 -0.15
13 0.57
14 0.3
15 0.14
16 0.12
17 0.14
18 -0.15
19 -0.15
2 -0.57
20 -0.14
21 -0.15
22 -0.15
23 0.14
26 0.15
27 0.15
28 0.15
3 -0.66
35 0.37
39 0.15
4 -0.55
40 0.15
41 0.15
42 0.15
5 0.09
6 -0.14
7 0.36
8 0.54
9 -0.14

> <PUBCHEM_EFFECTIVE_ROTOR_COUNT>
6

> <PUBCHEM_PHARMACOPHORE_FEATURES>
5
1 1 acceptor
1 2 acceptor
1 4 donor
6 16 18 19 20 21 22 rings
6 5 6 9 10 11 12 rings

> <PUBCHEM_HEAVY_ATOM_COUNT>
23

> <PUBCHEM_ATOM_DEF_STEREO_COUNT>
0

> <PUBCHEM_ATOM_UDEF_STEREO_COUNT>
0

> <PUBCHEM_BOND_DEF_STEREO_COUNT>
0

> <PUBCHEM_BOND_UDEF_STEREO_COUNT>
0

> <PUBCHEM_ISOTOPIC_ATOM_COUNT>
0

> <PUBCHEM_COMPONENT_COUNT>
1

> <PUBCHEM_CACTVS_TAUTO_COUNT>
2

> <PUBCHEM_CONFORMER_ID>
0109727E00000001

> <PUBCHEM_MMFF94_ENERGY>
73.0209

> <PUBCHEM_FEATURE_SELFOVERLAP>
25.371

> <PUBCHEM_SHAPE_FINGERPRINT>
104564 63 17835783571921569774
11140007 195 14907915893566537328
11370993 70 18122066398936603544
11578080 2 5732065214007750718
12403259 327 16773802471736181609
12633257 1 18199764561082506672
12788726 201 17766832111218205970
13134695 92 18269549597487117190
13140716 1 18128256683918541168
13583140 156 18201144525790920555
13726171 33 15554160497116988351
14251764 38 18125162632554789121
15210252 30 17917128577513185492
15420108 30 18190201026488308346
17980427 23 18045530563232734178
18335252 114 18124322859934653909
192875 21 18335134289278903217
20157964 124 18411142416295727085
20511986 3 17822872900330488525
20621476 13 18340768122530258121
20715895 44 18410019853515384081
21033648 29 17346601915482059583
21298829 104 18335986449835785233
21315763 76 18410586080454986153
21860390 5 18335698325890432908
22149856 69 18041265579868949131
22289505 5 18200592634744919951
22749437 52 18338514110770959609
23558518 356 17698723610326875259
23559900 14 18260828176576049419
3060560 45 18334289915988813574
345986 75 17486233385118433050
474 4 18411139095710812379
508706 21 17416688141027695725
513532 50 18113614616726552534
574716 61 18261126153555583805
5939293 188 18341050731583504672
6328613 192 18198056977097572060
6443956 14 18412262861077398852
7832392 63 18409164407155936150
8509985 295 17846510235436834592
9971528 1 18335419097297441236
9981440 41 17905331723552432760

> <PUBCHEM_SHAPE_MULTIPOLES>
451.63
10.25
3.9
1.25
16.69
1.46
-0.04
2.29
0.32
-4.82
0.27
-0.28
0.05
-0.02

> <PUBCHEM_SHAPE_SELFOVERLAP>
953.389

> <PUBCHEM_SHAPE_VOLUME>
255.3

> <PUBCHEM_COORDINATE_TYPE>
2
5
10

$$$$

