10899
  -OEChem-06261205053D

 11 10  0     0  0  0  0  0  0999 V2000
    1.6846   -0.6146   -0.1187 Cl  0  0  0  0  0  0  0  0  0  0  0  0
   -0.7824    0.5657   -0.3230 C   0  0  0  0  0  0  0  0  0  0  0  0
    0.6024    0.7364    0.2904 C   0  0  0  0  0  0  0  0  0  0  0  0
   -1.5045   -0.6875    0.1513 C   0  0  0  0  0  0  0  0  0  0  0  0
   -0.7076    0.5469   -1.4168 H   0  0  0  0  0  0  0  0  0  0  0  0
   -1.3891    1.4411   -0.0629 H   0  0  0  0  0  0  0  0  0  0  0  0
    0.5416    0.7947    1.3815 H   0  0  0  0  0  0  0  0  0  0  0  0
    1.0690    1.6556   -0.0761 H   0  0  0  0  0  0  0  0  0  0  0  0
   -1.5632   -0.7166    1.2441 H   0  0  0  0  0  0  0  0  0  0  0  0
   -2.5264   -0.7006   -0.2415 H   0  0  0  0  0  0  0  0  0  0  0  0
   -1.0088   -1.5995   -0.1936 H   0  0  0  0  0  0  0  0  0  0  0  0
  1  3  1  0  0  0  0
  2  3  1  0  0  0  0
  2  4  1  0  0  0  0
  2  5  1  0  0  0  0
  2  6  1  0  0  0  0
  3  7  1  0  0  0  0
  3  8  1  0  0  0  0
  4  9  1  0  0  0  0
  4 10  1  0  0  0  0
  4 11  1  0  0  0  0
M  END
> <PUBCHEM_COMPOUND_CID>
10899

> <PUBCHEM_CONFORMER_RMSD>
0.4

> <PUBCHEM_CONFORMER_DIVERSEORDER>
1
2
3

> <PUBCHEM_MMFF94_PARTIAL_CHARGES>
2
1 -0.29
3 0.29

> <PUBCHEM_EFFECTIVE_ROTOR_COUNT>
1

> <PUBCHEM_PHARMACOPHORE_FEATURES>
1
1 4 hydrophobe

> <PUBCHEM_HEAVY_ATOM_COUNT>
4

> <PUBCHEM_ATOM_DEF_STEREO_COUNT>
0

> <PUBCHEM_ATOM_UDEF_STEREO_COUNT>
0

> <PUBCHEM_BOND_DEF_STEREO_COUNT>
0

> <PUBCHEM_BOND_UDEF_STEREO_COUNT>
0

> <PUBCHEM_ISOTOPIC_ATOM_COUNT>
0

> <PUBCHEM_COMPONENT_COUNT>
1

> <PUBCHEM_CACTVS_TAUTO_COUNT>
1

> <PUBCHEM_CONFORMER_ID>
00002A9300000001

> <PUBCHEM_MMFF94_ENERGY>
-2.2754

> <PUBCHEM_FEATURE_SELFOVERLAP>
5.074

> <PUBCHEM_SHAPE_FINGERPRINT>
139733 1 9367345924849078822
20096714 4 9439409025072061982
21015797 1 9078577904754700237
5943 1 11561349196829641829

> <PUBCHEM_SHAPE_MULTIPOLES>
84.19
2.17
1.05
0.68
0.29
0
-0.01
-0.67
-0.03
-0.01
0.02
0
0.02
0.13

> <PUBCHEM_SHAPE_SELFOVERLAP>
128.504

> <PUBCHEM_SHAPE_VOLUME>
61.4

> <PUBCHEM_COORDINATE_TYPE>
2
5
10

$$$$

