6011
  -OEChem-06261201032D

 54 57  0     1  0  0  0  0  0999 V2000
    8.6500    2.1128    0.0000 O   0  0  0  0  0  0  0  0  0  0  0  0
    2.0000   -2.1948    0.0000 O   0  0  0  0  0  0  0  0  0  0  0  0
    5.6610   -0.1425    0.0000 C   0  0  1  0  0  0  0  0  0  0  0  0
    6.5271   -0.6425    0.0000 C   0  0  2  0  0  0  0  0  0  0  0  0
    7.3931   -0.1425    0.0000 C   0  0  1  0  0  0  0  0  0  0  0  0
    4.7510   -0.6493    0.0000 C   0  0  2  0  0  0  0  0  0  0  0  0
    7.3931    0.8575    0.0000 C   0  0  2  0  0  0  0  0  0  0  0  0
    4.7430   -1.6909    0.0000 C   0  0  1  0  0  0  0  0  0  0  0  0
    5.6610    0.8575    0.0000 C   0  0  0  0  0  0  0  0  0  0  0  0
    6.5271    1.3575    0.0000 C   0  0  0  0  0  0  0  0  0  0  0  0
    6.5431   -1.6840    0.0000 C   0  0  0  0  0  0  0  0  0  0  0  0
    8.3393   -0.4472    0.0000 C   0  0  0  0  0  0  0  0  0  0  0  0
    8.3393    1.1623    0.0000 C   0  0  2  0  0  0  0  0  0  0  0  0
    5.6451   -2.2117    0.0000 C   0  0  0  0  0  0  0  0  0  0  0  0
    3.8242   -0.0852    0.0000 C   0  0  0  0  0  0  0  0  0  0  0  0
    8.9229    0.3575    0.0000 C   0  0  0  0  0  0  0  0  0  0  0  0
    3.8076   -2.2406    0.0000 C   0  0  0  0  0  0  0  0  0  0  0  0
    4.7587    0.3507    0.0000 C   0  0  0  0  0  0  0  0  0  0  0  0
    7.3931    1.8575    0.0000 C   0  0  0  0  0  0  0  0  0  0  0  0
    2.8763   -0.6132    0.0000 C   0  0  2  0  0  0  0  0  0  0  0  0
    2.8680   -1.6981    0.0000 C   0  0  0  0  0  0  0  0  0  0  0  0
    2.0161   -0.1032    0.0000 C   0  0  0  0  0  0  0  0  0  0  0  0
    6.3972    0.2825    0.0000 H   0  0  0  0  0  0  0  0  0  0  0  0
    7.2664   -1.0618    0.0000 H   0  0  0  0  0  0  0  0  0  0  0  0
    7.4830   -0.9877    0.0000 H   0  0  0  0  0  0  0  0  0  0  0  0
    4.7463   -2.5409    0.0000 H   0  0  0  0  0  0  0  0  0  0  0  0
    5.4490    1.4401    0.0000 H   0  0  0  0  0  0  0  0  0  0  0  0
    5.0504    0.7499    0.0000 H   0  0  0  0  0  0  0  0  0  0  0  0
    6.9256    1.8325    0.0000 H   0  0  0  0  0  0  0  0  0  0  0  0
    6.1285    1.8325    0.0000 H   0  0  0  0  0  0  0  0  0  0  0  0
    6.7612   -2.2644    0.0000 H   0  0  0  0  0  0  0  0  0  0  0  0
    7.1523   -1.5685    0.0000 H   0  0  0  0  0  0  0  0  0  0  0  0
    8.0883   -1.0141    0.0000 H   0  0  0  0  0  0  0  0  0  0  0  0
    8.8767   -0.7564    0.0000 H   0  0  0  0  0  0  0  0  0  0  0  0
    7.9018    1.6016    0.0000 H   0  0  0  0  0  0  0  0  0  0  0  0
    5.2478   -2.6877    0.0000 H   0  0  0  0  0  0  0  0  0  0  0  0
    6.0460   -2.6846    0.0000 H   0  0  0  0  0  0  0  0  0  0  0  0
    4.2324    0.3814    0.0000 H   0  0  0  0  0  0  0  0  0  0  0  0
    3.4343    0.3968    0.0000 H   0  0  0  0  0  0  0  0  0  0  0  0
    9.3838   -0.0572    0.0000 H   0  0  0  0  0  0  0  0  0  0  0  0
    9.3838    0.7723    0.0000 H   0  0  0  0  0  0  0  0  0  0  0  0
    3.4103   -2.7166    0.0000 H   0  0  0  0  0  0  0  0  0  0  0  0
    4.2085   -2.7135    0.0000 H   0  0  0  0  0  0  0  0  0  0  0  0
    5.3787    0.3459    0.0000 H   0  0  0  0  0  0  0  0  0  0  0  0
    4.7635    0.9706    0.0000 H   0  0  0  0  0  0  0  0  0  0  0  0
    4.1388    0.3554    0.0000 H   0  0  0  0  0  0  0  0  0  0  0  0
    8.0131    1.8575    0.0000 H   0  0  0  0  0  0  0  0  0  0  0  0
    7.3931    2.4775    0.0000 H   0  0  0  0  0  0  0  0  0  0  0  0
    6.7731    1.8575    0.0000 H   0  0  0  0  0  0  0  0  0  0  0  0
    2.3364   -0.9180    0.0000 H   0  0  0  0  0  0  0  0  0  0  0  0
    9.2566    2.2406    0.0000 H   0  0  0  0  0  0  0  0  0  0  0  0
    2.3323    0.4301    0.0000 H   0  0  0  0  0  0  0  0  0  0  0  0
    1.4828    0.2130    0.0000 H   0  0  0  0  0  0  0  0  0  0  0  0
    1.6999   -0.6365    0.0000 H   0  0  0  0  0  0  0  0  0  0  0  0
 13  1  1  1  0  0  0
  1 51  1  0  0  0  0
  2 21  2  0  0  0  0
  3  4  1  0  0  0  0
  3  6  1  0  0  0  0
  3  9  1  0  0  0  0
  3 23  1  6  0  0  0
  4  5  1  0  0  0  0
  4 11  1  0  0  0  0
  4 24  1  1  0  0  0
  5  7  1  0  0  0  0
  5 12  1  0  0  0  0
  5 25  1  6  0  0  0
  6  8  1  0  0  0  0
  6 15  1  0  0  0  0
  6 18  1  1  0  0  0
  7 10  1  0  0  0  0
  7 13  1  0  0  0  0
  7 19  1  1  0  0  0
  8 14  1  0  0  0  0
  8 17  1  0  0  0  0
  8 26  1  6  0  0  0
  9 10  1  0  0  0  0
  9 27  1  0  0  0  0
  9 28  1  0  0  0  0
 10 29  1  0  0  0  0
 10 30  1  0  0  0  0
 11 14  1  0  0  0  0
 11 31  1  0  0  0  0
 11 32  1  0  0  0  0
 12 16  1  0  0  0  0
 12 33  1  0  0  0  0
 12 34  1  0  0  0  0
 13 16  1  0  0  0  0
 13 35  1  0  0  0  0
 14 36  1  0  0  0  0
 14 37  1  0  0  0  0
 15 20  1  0  0  0  0
 15 38  1  0  0  0  0
 15 39  1  0  0  0  0
 16 40  1  0  0  0  0
 16 41  1  0  0  0  0
 17 21  1  0  0  0  0
 17 42  1  0  0  0  0
 17 43  1  0  0  0  0
 18 44  1  0  0  0  0
 18 45  1  0  0  0  0
 18 46  1  0  0  0  0
 19 47  1  0  0  0  0
 19 48  1  0  0  0  0
 19 49  1  0  0  0  0
 20 21  1  0  0  0  0
 20 22  1  6  0  0  0
 20 50  1  0  0  0  0
 22 52  1  0  0  0  0
 22 53  1  0  0  0  0
 22 54  1  0  0  0  0
M  END
> <PUBCHEM_COMPOUND_CID>
6011

> <PUBCHEM_COMPOUND_CANONICALIZED>
1

> <PUBCHEM_CACTVS_COMPLEXITY>
486

> <PUBCHEM_CACTVS_HBOND_ACCEPTOR>
2

> <PUBCHEM_CACTVS_HBOND_DONOR>
1

> <PUBCHEM_CACTVS_ROTATABLE_BOND>
0

> <PUBCHEM_CACTVS_SUBSKEYS>
AAADcfB4MAAAAAAAAAAAAAAAAAAAAYAAAAAwYMAAAAAAAGDAAAAAGgAACAAADxSggAICAAAAAgAIAIAQAAAAAAAAAAAAAAEAAAAAEBIAAAAAQAAEAAAAAAGIyPCPgAAAAAAAAACAAAQAACAAAIAADAAAAA==

> <PUBCHEM_IUPAC_OPENEYE_NAME>
(2R,5S,8R,9S,10S,13S,14S,17S)-17-hydroxy-2,10,13-trimethyl-1,2,4,5,6,7,8,9,11,12,14,15,16,17-tetradecahydrocyclopenta[a]phenanthren-3-one

> <PUBCHEM_IUPAC_CAS_NAME>
(2R,5S,8R,9S,10S,13S,14S,17S)-17-hydroxy-2,10,13-trimethyl-1,2,4,5,6,7,8,9,11,12,14,15,16,17-tetradecahydrocyclopenta[a]phenanthren-3-one

> <PUBCHEM_IUPAC_NAME>
(2R,5S,8R,9S,10S,13S,14S,17S)-17-hydroxy-2,10,13-trimethyl-1,2,4,5,6,7,8,9,11,12,14,15,16,17-tetradecahydrocyclopenta[a]phenanthren-3-one

> <PUBCHEM_IUPAC_SYSTEMATIC_NAME>
(2R,5S,8R,9S,10S,13S,14S,17S)-2,10,13-trimethyl-17-oxidanyl-1,2,4,5,6,7,8,9,11,12,14,15,16,17-tetradecahydrocyclopenta[a]phenanthren-3-one

> <PUBCHEM_IUPAC_TRADITIONAL_NAME>
(2R,5S,8R,9S,10S,13S,14S,17S)-17-hydroxy-2,10,13-trimethyl-1,2,4,5,6,7,8,9,11,12,14,15,16,17-tetradecahydrocyclopenta[a]phenanthren-3-one

> <PUBCHEM_IUPAC_INCHI>
InChI=1S/C20H32O2/c1-12-11-20(3)13(10-17(12)21)4-5-14-15-6-7-18(22)19(15,2)9-8-16(14)20/h12-16,18,22H,4-11H2,1-3H3/t12-,13+,14+,15+,16+,18+,19+,20+/m1/s1

> <PUBCHEM_IUPAC_INCHIKEY>
IKXILDNPCZPPRV-RFMGOVQKSA-N

> <PUBCHEM_XLOGP3>
4.2

> <PUBCHEM_EXACT_MASS>
304.24023

> <PUBCHEM_MOLECULAR_FORMULA>
C20H32O2

> <PUBCHEM_MOLECULAR_WEIGHT>
304.46688

> <PUBCHEM_OPENEYE_CAN_SMILES>
CC1CC2(C(CCC3C2CCC4(C3CCC4O)C)CC1=O)C

> <PUBCHEM_OPENEYE_ISO_SMILES>
C[C@@H]1C[C@]2([C@@H](CC[C@@H]3[C@@H]2CC[C@]4([C@H]3CC[C@@H]4O)C)CC1=O)C

> <PUBCHEM_CACTVS_TPSA>
37.3

> <PUBCHEM_MONOISOTOPIC_WEIGHT>
304.24023

> <PUBCHEM_TOTAL_CHARGE>
0

> <PUBCHEM_HEAVY_ATOM_COUNT>
22

> <PUBCHEM_ATOM_DEF_STEREO_COUNT>
8

> <PUBCHEM_ATOM_UDEF_STEREO_COUNT>
0

> <PUBCHEM_BOND_DEF_STEREO_COUNT>
0

> <PUBCHEM_BOND_UDEF_STEREO_COUNT>
0

> <PUBCHEM_ISOTOPIC_ATOM_COUNT>
0

> <PUBCHEM_COMPONENT_COUNT>
1

> <PUBCHEM_CACTVS_TAUTO_COUNT>
3

> <PUBCHEM_COORDINATE_TYPE>
1
5
255

> <PUBCHEM_BONDANNOTATIONS>
13  1  5
20  22  6
3  23  6
4  24  5
5  25  6
6  18  5
7  19  5
8  26  6

$$$$

