11708
  -OEChem-06261206013D

 24 23  0     1  0  0  0  0  0999 V2000
   -1.5907    0.6682    1.1635 O   0  0  0  0  0  0  0  0  0  0  0  0
   -0.7196    0.4608    0.0417 C   0  0  1  0  0  0  0  0  0  0  0  0
    0.7050    0.2528    0.6011 C   0  0  0  0  0  0  0  0  0  0  0  0
   -1.2711   -0.7433   -0.7494 C   0  0  0  0  0  0  0  0  0  0  0  0
    1.7895   -0.0049   -0.4472 C   0  0  0  0  0  0  0  0  0  0  0  0
   -0.8016    1.7217   -0.8284 C   0  0  0  0  0  0  0  0  0  0  0  0
   -1.2443   -2.0651    0.0102 C   0  0  0  0  0  0  0  0  0  0  0  0
    3.1329   -0.2902    0.2086 C   0  0  0  0  0  0  0  0  0  0  0  0
    0.9825    1.1367    1.1923 H   0  0  0  0  0  0  0  0  0  0  0  0
    0.6921   -0.5672    1.3308 H   0  0  0  0  0  0  0  0  0  0  0  0
   -0.7220   -0.8660   -1.6904 H   0  0  0  0  0  0  0  0  0  0  0  0
   -2.3165   -0.5464   -1.0218 H   0  0  0  0  0  0  0  0  0  0  0  0
    1.5223   -0.8613   -1.0746 H   0  0  0  0  0  0  0  0  0  0  0  0
    1.8959    0.8637   -1.1056 H   0  0  0  0  0  0  0  0  0  0  0  0
   -1.8390    1.9359   -1.1111 H   0  0  0  0  0  0  0  0  0  0  0  0
   -0.2135    1.6280   -1.7462 H   0  0  0  0  0  0  0  0  0  0  0  0
   -0.4475    2.5988   -0.2748 H   0  0  0  0  0  0  0  0  0  0  0  0
   -0.2203   -2.3964    0.2050 H   0  0  0  0  0  0  0  0  0  0  0  0
   -1.7336   -2.8449   -0.5827 H   0  0  0  0  0  0  0  0  0  0  0  0
   -1.7737   -1.9887    0.9648 H   0  0  0  0  0  0  0  0  0  0  0  0
   -2.4902    0.8189    0.8261 H   0  0  0  0  0  0  0  0  0  0  0  0
    3.8972   -0.4662   -0.5549 H   0  0  0  0  0  0  0  0  0  0  0  0
    3.4561    0.5551    0.8244 H   0  0  0  0  0  0  0  0  0  0  0  0
    3.0780   -1.1792    0.8451 H   0  0  0  0  0  0  0  0  0  0  0  0
  1  2  1  0  0  0  0
  1 21  1  0  0  0  0
  2  3  1  0  0  0  0
  2  4  1  0  0  0  0
  2  6  1  0  0  0  0
  3  5  1  0  0  0  0
  3  9  1  0  0  0  0
  3 10  1  0  0  0  0
  4  7  1  0  0  0  0
  4 11  1  0  0  0  0
  4 12  1  0  0  0  0
  5  8  1  0  0  0  0
  5 13  1  0  0  0  0
  5 14  1  0  0  0  0
  6 15  1  0  0  0  0
  6 16  1  0  0  0  0
  6 17  1  0  0  0  0
  7 18  1  0  0  0  0
  7 19  1  0  0  0  0
  7 20  1  0  0  0  0
  8 22  1  0  0  0  0
  8 23  1  0  0  0  0
  8 24  1  0  0  0  0
M  END
> <PUBCHEM_COMPOUND_CID>
11708

> <PUBCHEM_CONFORMER_RMSD>
0.6

> <PUBCHEM_CONFORMER_DIVERSEORDER>
6
13
14
2
19
8
16
12
4
18
3
7
11
17
1
10
9
15
5

> <PUBCHEM_MMFF94_PARTIAL_CHARGES>
3
1 -0.68
2 0.28
21 0.4

> <PUBCHEM_EFFECTIVE_ROTOR_COUNT>
3

> <PUBCHEM_PHARMACOPHORE_FEATURES>
4
1 1 acceptor
1 1 donor
1 7 hydrophobe
1 8 hydrophobe

> <PUBCHEM_HEAVY_ATOM_COUNT>
8

> <PUBCHEM_ATOM_DEF_STEREO_COUNT>
0

> <PUBCHEM_ATOM_UDEF_STEREO_COUNT>
1

> <PUBCHEM_BOND_DEF_STEREO_COUNT>
0

> <PUBCHEM_BOND_UDEF_STEREO_COUNT>
0

> <PUBCHEM_ISOTOPIC_ATOM_COUNT>
0

> <PUBCHEM_COMPONENT_COUNT>
1

> <PUBCHEM_CACTVS_TAUTO_COUNT>
1

> <PUBCHEM_CONFORMER_ID>
00002DBC00000006

> <PUBCHEM_MMFF94_ENERGY>
9.8275

> <PUBCHEM_FEATURE_SELFOVERLAP>
20.297

> <PUBCHEM_SHAPE_FINGERPRINT>
12932764 1 18343020025876079224
13024252 1 16200430286176039344
137420 1 13919293432340679111
15310529 11 17702932760170892738
16714656 1 18413107285759201645
21040471 1 18194976368004847964
23235687 12 18409158905618977324
23552423 10 18200597969310364670
24536 1 17603596235266220936
29004967 10 17906742396902167003
369184 2 18410299137678595392
5943 1 9146439569395478457

> <PUBCHEM_SHAPE_MULTIPOLES>
158.77
3.15
1.7
0.97
3.35
0.31
-0.09
0.71
-0.1
-1.16
0.27
-0.27
-0.18
-0.09

> <PUBCHEM_SHAPE_SELFOVERLAP>
282.708

> <PUBCHEM_SHAPE_VOLUME>
104.8

> <PUBCHEM_COORDINATE_TYPE>
2
5
10

$$$$

