5345
  -OEChem-06261200383D

 46 49  0     0  0  0  0  0  0999 V2000
    0.1328   -0.3095   -2.3327 Br  0  0  0  0  0  0  0  0  0  0  0  0
   -4.4618   -3.4190    1.3126 Br  0  0  0  0  0  0  0  0  0  0  0  0
   -2.3330   -2.0017   -3.8659 Br  0  0  0  0  0  0  0  0  0  0  0  0
   -4.6545   -3.5446   -2.0323 Br  0  0  0  0  0  0  0  0  0  0  0  0
    4.6458    0.1599   -1.0131 S   0  0  0  0  0  0  0  0  0  0  0  0
   -1.9618    4.0410   -0.9530 S   0  0  0  0  0  0  0  0  0  0  0  0
   -0.6875   -0.9456    2.2731 O   0  0  0  0  0  0  0  0  0  0  0  0
   -2.4832   -2.1168    3.1382 O   0  0  0  0  0  0  0  0  0  0  0  0
    5.0689   -2.5742    0.1790 O   0  0  0  0  0  0  0  0  0  0  0  0
   -0.3185    5.1703    1.3054 O   0  0  0  0  0  0  0  0  0  0  0  0
    4.8629   -0.6167   -2.4343 O   0  0  0  0  0  0  0  0  0  0  0  0
   -0.8709    4.8063   -1.8988 O   0  0  0  0  0  0  0  0  0  0  0  0
    4.0275    1.4410   -1.3174 O   0  0  0  0  0  0  0  0  0  0  0  0
    5.8907    0.0934   -0.2653 O   0  0  0  0  0  0  0  0  0  0  0  0
   -2.6545    3.0779   -1.7947 O   0  0  0  0  0  0  0  0  0  0  0  0
   -2.7018    5.0472   -0.2091 O   0  0  0  0  0  0  0  0  0  0  0  0
   -0.1713   -0.5053    0.9647 C   0  0  0  0  0  0  0  0  0  0  0  0
   -1.1630   -1.1705    0.0560 C   0  0  0  0  0  0  0  0  0  0  0  0
    1.2436   -1.0576    0.7502 C   0  0  0  0  0  0  0  0  0  0  0  0
   -0.2153    1.0246    1.0518 C   0  0  0  0  0  0  0  0  0  0  0  0
   -2.1282   -1.8300    0.7948 C   0  0  0  0  0  0  0  0  0  0  0  0
   -1.8407   -1.6749    2.2073 C   0  0  0  0  0  0  0  0  0  0  0  0
   -1.2112   -1.2252   -1.3310 C   0  0  0  0  0  0  0  0  0  0  0  0
    2.1914   -0.3036    0.0559 C   0  0  0  0  0  0  0  0  0  0  0  0
   -0.9693    1.7566    0.1326 C   0  0  0  0  0  0  0  0  0  0  0  0
    1.5866   -2.3158    1.2484 C   0  0  0  0  0  0  0  0  0  0  0  0
    0.4987    1.6896    2.0502 C   0  0  0  0  0  0  0  0  0  0  0  0
   -3.1690   -2.5382    0.2196 C   0  0  0  0  0  0  0  0  0  0  0  0
    3.4780   -0.8058   -0.1393 C   0  0  0  0  0  0  0  0  0  0  0  0
   -1.0093    3.1487    0.2119 C   0  0  0  0  0  0  0  0  0  0  0  0
   -2.2518   -1.9313   -1.9438 C   0  0  0  0  0  0  0  0  0  0  0  0
   -3.2264   -2.5819   -1.1723 C   0  0  0  0  0  0  0  0  0  0  0  0
    2.8731   -2.8182    1.0529 C   0  0  0  0  0  0  0  0  0  0  0  0
    0.4590    3.0817    2.1292 C   0  0  0  0  0  0  0  0  0  0  0  0
    3.8189   -2.0632    0.3591 C   0  0  0  0  0  0  0  0  0  0  0  0
   -0.2951    3.8113    1.2101 C   0  0  0  0  0  0  0  0  0  0  0  0
    1.9496    0.6871   -0.3134 H   0  0  0  0  0  0  0  0  0  0  0  0
   -1.5786    1.2697   -0.6149 H   0  0  0  0  0  0  0  0  0  0  0  0
    0.8677   -2.9274    1.7860 H   0  0  0  0  0  0  0  0  0  0  0  0
    1.0888    1.1380    2.7775 H   0  0  0  0  0  0  0  0  0  0  0  0
    3.1316   -3.7993    1.4422 H   0  0  0  0  0  0  0  0  0  0  0  0
    1.0175    3.5916    2.9096 H   0  0  0  0  0  0  0  0  0  0  0  0
    5.6077   -1.9910   -0.3773 H   0  0  0  0  0  0  0  0  0  0  0  0
   -0.8142    5.5632    0.5708 H   0  0  0  0  0  0  0  0  0  0  0  0
    4.0587   -0.6972   -2.9993 H   0  0  0  0  0  0  0  0  0  0  0  0
   -0.2595    4.2174   -2.4006 H   0  0  0  0  0  0  0  0  0  0  0  0
  1 23  1  0  0  0  0
  2 28  1  0  0  0  0
  3 31  1  0  0  0  0
  4 32  1  0  0  0  0
  5 11  1  0  0  0  0
  5 13  2  0  0  0  0
  5 14  2  0  0  0  0
  5 29  1  0  0  0  0
  6 12  1  0  0  0  0
  6 15  2  0  0  0  0
  6 16  2  0  0  0  0
  6 30  1  0  0  0  0
  7 17  1  0  0  0  0
  7 22  1  0  0  0  0
  8 22  2  0  0  0  0
  9 35  1  0  0  0  0
  9 43  1  0  0  0  0
 10 36  1  0  0  0  0
 10 44  1  0  0  0  0
 11 45  1  0  0  0  0
 12 46  1  0  0  0  0
 17 18  1  0  0  0  0
 17 19  1  0  0  0  0
 17 20  1  0  0  0  0
 18 21  2  0  0  0  0
 18 23  1  0  0  0  0
 19 24  2  0  0  0  0
 19 26  1  0  0  0  0
 20 25  2  0  0  0  0
 20 27  1  0  0  0  0
 21 22  1  0  0  0  0
 21 28  1  0  0  0  0
 23 31  2  0  0  0  0
 24 29  1  0  0  0  0
 24 37  1  0  0  0  0
 25 30  1  0  0  0  0
 25 38  1  0  0  0  0
 26 33  2  0  0  0  0
 26 39  1  0  0  0  0
 27 34  2  0  0  0  0
 27 40  1  0  0  0  0
 28 32  2  0  0  0  0
 29 35  2  0  0  0  0
 30 36  2  0  0  0  0
 31 32  1  0  0  0  0
 33 35  1  0  0  0  0
 33 41  1  0  0  0  0
 34 36  1  0  0  0  0
 34 42  1  0  0  0  0
M  END
> <PUBCHEM_COMPOUND_CID>
5345

> <PUBCHEM_CONFORMER_RMSD>
0.8

> <PUBCHEM_CONFORMER_DIVERSEORDER>
1
6
18
10
15
12
14
3
5
11
9
4
8
16
17
13
19
7
2

> <PUBCHEM_MMFF94_PARTIAL_CHARGES>
46
1 -0.11
10 -0.53
11 -0.68
12 -0.68
13 -0.65
14 -0.65
15 -0.65
16 -0.65
17 0.71
18 -0.14
19 -0.14
2 -0.11
20 -0.14
21 0.09
22 0.63
23 0.11
24 -0.15
25 -0.15
26 -0.15
27 -0.15
28 0.11
29 -0.01
3 -0.11
30 -0.01
31 0.11
32 0.11
33 -0.15
34 -0.15
35 0.08
36 0.08
37 0.15
38 0.15
39 0.15
4 -0.11
40 0.15
41 0.15
42 0.15
43 0.45
44 0.45
45 0.5
46 0.5
5 1.49
6 1.49
7 -0.43
8 -0.57
9 -0.53

> <PUBCHEM_EFFECTIVE_ROTOR_COUNT>
4.4

> <PUBCHEM_PHARMACOPHORE_FEATURES>
19
1 1 hydrophobe
1 10 donor
1 11 acceptor
1 12 acceptor
1 13 acceptor
1 14 acceptor
1 15 acceptor
1 16 acceptor
1 2 hydrophobe
1 3 hydrophobe
1 4 hydrophobe
1 8 acceptor
1 9 donor
4 5 11 13 14 anion
4 6 12 15 16 anion
5 7 17 18 21 22 rings
6 18 21 23 28 31 32 rings
6 19 24 26 29 33 35 rings
6 20 25 27 30 34 36 rings

> <PUBCHEM_HEAVY_ATOM_COUNT>
36

> <PUBCHEM_ATOM_DEF_STEREO_COUNT>
0

> <PUBCHEM_ATOM_UDEF_STEREO_COUNT>
0

> <PUBCHEM_BOND_DEF_STEREO_COUNT>
0

> <PUBCHEM_BOND_UDEF_STEREO_COUNT>
0

> <PUBCHEM_ISOTOPIC_ATOM_COUNT>
0

> <PUBCHEM_COMPONENT_COUNT>
1

> <PUBCHEM_CACTVS_TAUTO_COUNT>
5

> <PUBCHEM_CONFORMER_ID>
000014E100000001

> <PUBCHEM_MMFF94_ENERGY>
102.5148

> <PUBCHEM_FEATURE_SELFOVERLAP>
96.616

> <PUBCHEM_SHAPE_FINGERPRINT>
10764073 3 13987708266909646038
11045515 52 18337671914754826458
11069576 57 16101394280898408629
11115154 58 18269850739910543119
11445158 3 17691379942195523207
11578080 2 17532116953963131107
11763715 3 18265591239905736614
11991303 11 18052528069574012311
12160290 23 18042693986019751843
12741549 16 17845653625547287785
12788726 201 18267314303333035755
13149001 5 17680742442011004680
133893 2 17613420161201720795
15439362 3 17615409156367383481
15484559 13 16679559825389270468
15815584 197 17475849347791210083
17980427 26 17330797286078561827
1813 80 17823135631632179934
18603816 31 13986903536884507166
19319366 153 17620782882336031581
21304303 282 17914079700219560040
21716022 299 17100587047439313779
22907989 373 17969777665222078444
23598288 3 18264479762441070730
244849 19 17840317618899825003
24893989 43 16599920240429089861
26353 1 18189630349191759460
3388396 114 18126549151731807948
3493558 16 17774706620042532637
35225 105 18193828469164576797
404807 78 17771078369922858485
4394409 98 17192059762140789212
4409770 3 18044942513131777723
469060 322 17984669317770750864
5080951 261 17895482552316508050
5081480 168 18118424864334350951
6691757 9 17538295325313542146

> <PUBCHEM_SHAPE_MULTIPOLES>
713.64
8.28
6.58
3.09
0.75
12.25
1
-11.04
3.16
-3.48
0.39
2.36
-0.64
0.86

> <PUBCHEM_SHAPE_SELFOVERLAP>
1505.796

> <PUBCHEM_SHAPE_VOLUME>
413.4

> <PUBCHEM_COORDINATE_TYPE>
2
5
10

$$$$

