13011
  -OEChem-06261207393D

 16 16  0     0  0  0  0  0  0999 V2000
    0.0608   -2.6526    0.0013 Cl  0  0  0  0  0  0  0  0  0  0  0  0
    1.8953   -0.2703   -0.0008 O   0  0  0  0  0  0  0  0  0  0  0  0
    0.5635    0.0208   -0.0001 C   0  0  0  0  0  0  0  0  0  0  0  0
   -0.3981   -0.9897   -0.0008 C   0  0  0  0  0  0  0  0  0  0  0  0
    0.1691    1.3588    0.0006 C   0  0  0  0  0  0  0  0  0  0  0  0
   -1.7541   -0.6620   -0.0007 C   0  0  0  0  0  0  0  0  0  0  0  0
   -1.1869    1.6863    0.0006 C   0  0  0  0  0  0  0  0  0  0  0  0
   -2.1484    0.6759   -0.0001 C   0  0  0  0  0  0  0  0  0  0  0  0
    2.7988    0.8327    0.0001 C   0  0  0  0  0  0  0  0  0  0  0  0
    0.8549    2.1988    0.0011 H   0  0  0  0  0  0  0  0  0  0  0  0
   -2.5155   -1.4379   -0.0008 H   0  0  0  0  0  0  0  0  0  0  0  0
   -1.4953    2.7278    0.0012 H   0  0  0  0  0  0  0  0  0  0  0  0
   -3.2041    0.9311    0.0000 H   0  0  0  0  0  0  0  0  0  0  0  0
    2.7045    1.4330    0.9115 H   0  0  0  0  0  0  0  0  0  0  0  0
    2.7045    1.4343   -0.9105 H   0  0  0  0  0  0  0  0  0  0  0  0
    3.8122    0.4172   -0.0002 H   0  0  0  0  0  0  0  0  0  0  0  0
  1  4  1  0  0  0  0
  2  3  1  0  0  0  0
  2  9  1  0  0  0  0
  3  4  1  0  0  0  0
  3  5  2  0  0  0  0
  4  6  2  0  0  0  0
  5  7  1  0  0  0  0
  5 10  1  0  0  0  0
  6  8  1  0  0  0  0
  6 11  1  0  0  0  0
  7  8  2  0  0  0  0
  7 12  1  0  0  0  0
  8 13  1  0  0  0  0
  9 14  1  0  0  0  0
  9 15  1  0  0  0  0
  9 16  1  0  0  0  0
M  END
> <PUBCHEM_COMPOUND_CID>
13011

> <PUBCHEM_CONFORMER_RMSD>
0.4

> <PUBCHEM_CONFORMER_DIVERSEORDER>
3
1
2

> <PUBCHEM_MMFF94_PARTIAL_CHARGES>
13
1 -0.18
10 0.15
11 0.15
12 0.15
13 0.15
2 -0.36
3 0.08
4 0.18
5 -0.15
6 -0.15
7 -0.15
8 -0.15
9 0.28

> <PUBCHEM_EFFECTIVE_ROTOR_COUNT>
1

> <PUBCHEM_PHARMACOPHORE_FEATURES>
2
1 2 acceptor
6 3 4 5 6 7 8 rings

> <PUBCHEM_HEAVY_ATOM_COUNT>
9

> <PUBCHEM_ATOM_DEF_STEREO_COUNT>
0

> <PUBCHEM_ATOM_UDEF_STEREO_COUNT>
0

> <PUBCHEM_BOND_DEF_STEREO_COUNT>
0

> <PUBCHEM_BOND_UDEF_STEREO_COUNT>
0

> <PUBCHEM_ISOTOPIC_ATOM_COUNT>
0

> <PUBCHEM_COMPONENT_COUNT>
1

> <PUBCHEM_CACTVS_TAUTO_COUNT>
1

> <PUBCHEM_CONFORMER_ID>
000032D300000003

> <PUBCHEM_MMFF94_ENERGY>
29.947

> <PUBCHEM_FEATURE_SELFOVERLAP>
10.148

> <PUBCHEM_SHAPE_FINGERPRINT>
12423570 1 17122843327448880773
16714656 1 18410854326299136596
16945 1 18266740173336779300
18185500 45 17690841155442441143
193761 8 17906172107039540805
20871998 184 18044931269034081910
21040471 1 18410575093400804004
23552423 10 18124029293527349455
241688 4 16537081273287954595
2748010 2 18411415141611509991
5084963 1 18114183055262945288

> <PUBCHEM_SHAPE_MULTIPOLES>
181.22
2.88
2.31
0.61
1.56
1.44
0
-1.03
0
-0.31
0
-0.02
0.01
0

> <PUBCHEM_SHAPE_SELFOVERLAP>
364.092

> <PUBCHEM_SHAPE_VOLUME>
108

> <PUBCHEM_COORDINATE_TYPE>
2
5
10

$$$$

