11112
  -OEChem-06261205193D

 17 17  0     0  0  0  0  0  0999 V2000
   -1.8157    1.4487    0.4170 O   0  0  0  0  0  0  0  0  0  0  0  0
   -2.1410   -0.7532   -0.2375 N   0  0  0  0  0  0  0  0  0  0  0  0
    1.9846   -1.3578    0.1813 N   0  0  0  0  0  0  0  0  0  0  0  0
   -3.5174   -0.6336   -0.2230 N   0  0  0  0  0  0  0  0  0  0  0  0
    0.0978    0.1473    0.0407 C   0  0  0  0  0  0  0  0  0  0  0  0
    0.9572    1.2139   -0.1982 C   0  0  0  0  0  0  0  0  0  0  0  0
   -1.3403    0.3426    0.0980 C   0  0  0  0  0  0  0  0  0  0  0  0
    0.6566   -1.1076    0.2222 C   0  0  0  0  0  0  0  0  0  0  0  0
    2.3297    0.9963   -0.2476 C   0  0  0  0  0  0  0  0  0  0  0  0
    2.7886   -0.2966   -0.0530 C   0  0  0  0  0  0  0  0  0  0  0  0
    0.5762    2.2200   -0.3520 H   0  0  0  0  0  0  0  0  0  0  0  0
    0.0617   -1.9888    0.4386 H   0  0  0  0  0  0  0  0  0  0  0  0
    3.0185    1.8124   -0.4333 H   0  0  0  0  0  0  0  0  0  0  0  0
    3.8502   -0.5192   -0.0821 H   0  0  0  0  0  0  0  0  0  0  0  0
   -1.7612   -1.6418   -0.5471 H   0  0  0  0  0  0  0  0  0  0  0  0
   -3.8436   -0.8624   -1.1611 H   0  0  0  0  0  0  0  0  0  0  0  0
   -3.8712   -1.3705    0.3855 H   0  0  0  0  0  0  0  0  0  0  0  0
  1  7  2  0  0  0  0
  2  4  1  0  0  0  0
  2  7  1  0  0  0  0
  2 15  1  0  0  0  0
  3  8  1  0  0  0  0
  3 10  2  0  0  0  0
  4 16  1  0  0  0  0
  4 17  1  0  0  0  0
  5  6  1  0  0  0  0
  5  7  1  0  0  0  0
  5  8  2  0  0  0  0
  6  9  2  0  0  0  0
  6 11  1  0  0  0  0
  8 12  1  0  0  0  0
  9 10  1  0  0  0  0
  9 13  1  0  0  0  0
 10 14  1  0  0  0  0
M  END
> <PUBCHEM_COMPOUND_CID>
11112

> <PUBCHEM_CONFORMER_RMSD>
0.4

> <PUBCHEM_CONFORMER_DIVERSEORDER>
1
6
4
5
2
3

> <PUBCHEM_MMFF94_PARTIAL_CHARGES>
17
1 -0.57
10 0.16
11 0.15
12 0.15
13 0.15
14 0.15
15 0.37
16 0.36
17 0.36
2 -0.42
3 -0.62
4 -0.73
5 0.09
6 -0.15
7 0.54
8 0.16
9 -0.15

> <PUBCHEM_EFFECTIVE_ROTOR_COUNT>
2

> <PUBCHEM_PHARMACOPHORE_FEATURES>
5
1 1 acceptor
1 2 donor
1 3 acceptor
1 4 donor
6 3 5 6 8 9 10 rings

> <PUBCHEM_HEAVY_ATOM_COUNT>
10

> <PUBCHEM_ATOM_DEF_STEREO_COUNT>
0

> <PUBCHEM_ATOM_UDEF_STEREO_COUNT>
0

> <PUBCHEM_BOND_DEF_STEREO_COUNT>
0

> <PUBCHEM_BOND_UDEF_STEREO_COUNT>
0

> <PUBCHEM_ISOTOPIC_ATOM_COUNT>
0

> <PUBCHEM_COMPONENT_COUNT>
1

> <PUBCHEM_CACTVS_TAUTO_COUNT>
2

> <PUBCHEM_CONFORMER_ID>
00002B6800000001

> <PUBCHEM_MMFF94_ENERGY>
26.0996

> <PUBCHEM_FEATURE_SELFOVERLAP>
26.877

> <PUBCHEM_SHAPE_FINGERPRINT>
12897270 3 18412263900306022887
14128692 85 18335979852411771966
14325111 11 18411135831340696276
16945 1 18339916022418961698
20201158 50 18271808999371784819
20653091 64 18343023319709846032
21040471 1 18340762638099003624
23402655 69 18411709807044885645
23552423 10 18342735268874506246
29004967 10 17988352767316781376
5084963 1 18342740710677289028

> <PUBCHEM_SHAPE_MULTIPOLES>
184.98
4.4
1.42
0.62
2.29
0.08
0
-0.59
0.35
-0.26
-0.07
-0.01
0.03
-0.3

> <PUBCHEM_SHAPE_SELFOVERLAP>
383.545

> <PUBCHEM_SHAPE_VOLUME>
104.7

> <PUBCHEM_COORDINATE_TYPE>
2
5
10

$$$$

