10534
  -OEChem-06261204393D

 39 40  0     1  0  0  0  0  0999 V2000
   -1.6407    0.7523    0.9756 C   0  0  2  0  0  0  0  0  0  0  0  0
   -0.8493   -0.4567    0.3733 C   0  0  1  0  0  0  0  0  0  0  0  0
   -3.1254   -0.0873   -0.4675 C   0  0  2  0  0  0  0  0  0  0  0  0
   -3.0799    0.2144    1.0289 C   0  0  0  0  0  0  0  0  0  0  0  0
   -1.8277    1.8961   -0.0473 C   0  0  0  0  0  0  0  0  0  0  0  0
   -1.8971   -0.9660   -0.6110 C   0  0  0  0  0  0  0  0  0  0  0  0
   -2.7960    1.2855   -1.0774 C   0  0  0  0  0  0  0  0  0  0  0  0
    0.4608   -0.0467   -0.3135 C   0  0  0  0  0  0  0  0  0  0  0  0
   -0.5273   -1.4984    1.4606 C   0  0  0  0  0  0  0  0  0  0  0  0
   -1.7939   -2.0157   -1.4337 C   0  0  0  0  0  0  0  0  0  0  0  0
    1.4618    0.4917    0.7005 C   0  0  0  0  0  0  0  0  0  0  0  0
    2.7399    0.8976    0.0226 C   0  0  0  0  0  0  0  0  0  0  0  0
    3.8519    0.1580   -0.1492 C   0  0  0  0  0  0  0  0  0  0  0  0
    5.1019    0.6257   -0.8393 C   0  0  0  0  0  0  0  0  0  0  0  0
    3.9209   -1.2505    0.3776 C   0  0  0  0  0  0  0  0  0  0  0  0
   -1.2599    1.1014    1.9389 H   0  0  0  0  0  0  0  0  0  0  0  0
   -4.0553   -0.5321   -0.8267 H   0  0  0  0  0  0  0  0  0  0  0  0
   -3.8105    0.9715    1.3359 H   0  0  0  0  0  0  0  0  0  0  0  0
   -3.2029   -0.6696    1.6623 H   0  0  0  0  0  0  0  0  0  0  0  0
   -0.9041    2.2662   -0.4963 H   0  0  0  0  0  0  0  0  0  0  0  0
   -2.3078    2.7549    0.4388 H   0  0  0  0  0  0  0  0  0  0  0  0
   -3.6955    1.9056   -1.1614 H   0  0  0  0  0  0  0  0  0  0  0  0
   -2.3391    1.2082   -2.0699 H   0  0  0  0  0  0  0  0  0  0  0  0
    0.9000   -0.9262   -0.8061 H   0  0  0  0  0  0  0  0  0  0  0  0
    0.2985    0.6714   -1.1251 H   0  0  0  0  0  0  0  0  0  0  0  0
    0.1839   -2.2509    1.0997 H   0  0  0  0  0  0  0  0  0  0  0  0
   -0.1147   -1.0381    2.3644 H   0  0  0  0  0  0  0  0  0  0  0  0
   -1.4216   -2.0481    1.7763 H   0  0  0  0  0  0  0  0  0  0  0  0
   -0.8899   -2.6132   -1.4718 H   0  0  0  0  0  0  0  0  0  0  0  0
   -2.6145   -2.2974   -2.0844 H   0  0  0  0  0  0  0  0  0  0  0  0
    1.6812   -0.2162    1.5030 H   0  0  0  0  0  0  0  0  0  0  0  0
    1.0592    1.3823    1.1978 H   0  0  0  0  0  0  0  0  0  0  0  0
    2.7382    1.9080   -0.3843 H   0  0  0  0  0  0  0  0  0  0  0  0
    5.3134    0.0006   -1.7127 H   0  0  0  0  0  0  0  0  0  0  0  0
    5.0087    1.6610   -1.1834 H   0  0  0  0  0  0  0  0  0  0  0  0
    5.9561    0.5756   -0.1564 H   0  0  0  0  0  0  0  0  0  0  0  0
    4.5871   -1.2932    1.2455 H   0  0  0  0  0  0  0  0  0  0  0  0
    2.9569   -1.6747    0.6663 H   0  0  0  0  0  0  0  0  0  0  0  0
    4.3257   -1.9157   -0.3936 H   0  0  0  0  0  0  0  0  0  0  0  0
  1  2  1  0  0  0  0
  1  4  1  0  0  0  0
  1  5  1  0  0  0  0
  1 16  1  0  0  0  0
  2  6  1  0  0  0  0
  2  8  1  0  0  0  0
  2  9  1  0  0  0  0
  3  4  1  0  0  0  0
  3  6  1  0  0  0  0
  3  7  1  0  0  0  0
  3 17  1  0  0  0  0
  4 18  1  0  0  0  0
  4 19  1  0  0  0  0
  5  7  1  0  0  0  0
  5 20  1  0  0  0  0
  5 21  1  0  0  0  0
  6 10  2  0  0  0  0
  7 22  1  0  0  0  0
  7 23  1  0  0  0  0
  8 11  1  0  0  0  0
  8 24  1  0  0  0  0
  8 25  1  0  0  0  0
  9 26  1  0  0  0  0
  9 27  1  0  0  0  0
  9 28  1  0  0  0  0
 10 29  1  0  0  0  0
 10 30  1  0  0  0  0
 11 12  1  0  0  0  0
 11 31  1  0  0  0  0
 11 32  1  0  0  0  0
 12 13  2  0  0  0  0
 12 33  1  0  0  0  0
 13 14  1  0  0  0  0
 13 15  1  0  0  0  0
 14 34  1  0  0  0  0
 14 35  1  0  0  0  0
 14 36  1  0  0  0  0
 15 37  1  0  0  0  0
 15 38  1  0  0  0  0
 15 39  1  0  0  0  0
M  END
> <PUBCHEM_COMPOUND_CID>
10534

> <PUBCHEM_CONFORMER_RMSD>
0.6

> <PUBCHEM_CONFORMER_DIVERSEORDER>
1
25
16
19
7
20
22
5
9
26
21
6
24
14
12
11
8
13
18
3
4
2
17
10
23
15

> <PUBCHEM_MMFF94_PARTIAL_CHARGES>
12
10 -0.3
11 0.14
12 -0.29
13 -0.28
14 0.14
15 0.14
2 0.14
29 0.15
3 0.14
30 0.15
33 0.15
6 -0.28

> <PUBCHEM_EFFECTIVE_ROTOR_COUNT>
3.8

> <PUBCHEM_PHARMACOPHORE_FEATURES>
2
3 13 14 15 hydrophobe
7 1 2 3 4 5 6 7 rings

> <PUBCHEM_HEAVY_ATOM_COUNT>
15

> <PUBCHEM_ATOM_DEF_STEREO_COUNT>
0

> <PUBCHEM_ATOM_UDEF_STEREO_COUNT>
3

> <PUBCHEM_BOND_DEF_STEREO_COUNT>
0

> <PUBCHEM_BOND_UDEF_STEREO_COUNT>
0

> <PUBCHEM_ISOTOPIC_ATOM_COUNT>
0

> <PUBCHEM_COMPONENT_COUNT>
1

> <PUBCHEM_CACTVS_TAUTO_COUNT>
1

> <PUBCHEM_CONFORMER_ID>
0000292600000001

> <PUBCHEM_MMFF94_ENERGY>
44.724

> <PUBCHEM_FEATURE_SELFOVERLAP>
10.148

> <PUBCHEM_SHAPE_FINGERPRINT>
10062212 137 18338249265913199338
10680689 15 18336257969077556500
10922523 26 18340485672690163468
11315181 36 14923936869664497208
12173636 292 17775565334075650178
12592029 89 18188204411528695791
12916754 54 17823134532236005404
12932764 1 18335424547632045536
13024252 1 17346599651844396585
13296908 3 17023187085452533498
14144814 61 18333450962988668264
15775835 57 18340207487468711721
16945 1 18187098242980620905
17870717 6 17749373872296796660
18186145 218 18040437676965126880
200 152 14634869755935991828
20325693 3 18260257534563035172
20645477 70 18340483469810316534
2306618 200 18186801421875044617
23402539 116 18342461421817631917
23419403 2 15839290019267352961
23559900 14 17748831804838345584
27216 239 13901913301516108927
2838139 119 17057267715265893645
4028521 119 18342465854102977852
4175511 318 18335141994286299292
633830 44 17561084748028934842
69090 78 18260552233707250079
74978 22 18040721329347792720
93112 12 18260833661692534508
9709674 26 18412820279476952666

> <PUBCHEM_SHAPE_MULTIPOLES>
308.69
7.75
1.71
1.25
11.24
0.27
-0.03
-1.07
1.57
-0.79
0.26
-0.63
0.32
-0.47

> <PUBCHEM_SHAPE_SELFOVERLAP>
636.426

> <PUBCHEM_SHAPE_VOLUME>
178.3

> <PUBCHEM_COORDINATE_TYPE>
2
5
10

$$$$

