17395363
  -OEChem-06241222492D

 47 49  0     0  0  0  0  0  0999 V2000
    5.8826    3.0862    0.0000 S   0  0  0  0  0  0  0  0  0  0  0  0
    6.3826    3.9522    0.0000 O   0  0  0  0  0  0  0  0  0  0  0  0
    6.8826    3.0862    0.0000 O   0  0  0  0  0  0  0  0  0  0  0  0
    8.5327    0.5444    0.0000 O   0  0  0  0  0  0  0  0  0  0  0  0
    4.1506    2.0862    0.0000 N   0  0  0  0  0  0  0  0  0  0  0  0
    5.0166    3.5862    0.0000 N   0  0  0  0  0  0  0  0  0  0  0  0
    7.6725   -0.9589    0.0000 N   0  0  0  0  0  0  0  0  0  0  0  0
    3.3797    1.4798    0.0000 C   0  0  0  0  0  0  0  0  0  0  0  0
    2.4244    1.7020    0.0000 C   0  0  0  0  0  0  0  0  0  0  0  0
    2.0000    2.5862    0.0000 C   0  0  0  0  0  0  0  0  0  0  0  0
    2.4244    3.4704    0.0000 C   0  0  0  0  0  0  0  0  0  0  0  0
    3.3797    3.6925    0.0000 C   0  0  0  0  0  0  0  0  0  0  0  0
    4.1506    3.0862    0.0000 C   0  0  0  0  0  0  0  0  0  0  0  0
    5.0166    1.5862    0.0000 C   0  0  0  0  0  0  0  0  0  0  0  0
    5.8826    2.0862    0.0000 C   0  0  0  0  0  0  0  0  0  0  0  0
    5.0005    0.5447    0.0000 C   0  0  0  0  0  0  0  0  0  0  0  0
    6.7926    1.5793    0.0000 C   0  0  0  0  0  0  0  0  0  0  0  0
    6.8007    0.5377    0.0000 C   0  0  0  0  0  0  0  0  0  0  0  0
    5.8986    0.0169    0.0000 C   0  0  0  0  0  0  0  0  0  0  0  0
    7.6686    0.0411    0.0000 C   0  0  0  0  0  0  0  0  0  0  0  0
    8.5404   -1.4556    0.0000 C   0  0  0  0  0  0  0  0  0  0  0  0
    8.5443   -2.4556    0.0000 C   0  0  0  0  0  0  0  0  0  0  0  0
    9.4122   -2.9522    0.0000 C   0  0  0  0  0  0  0  0  0  0  0  0
    9.4161   -3.9522    0.0000 C   0  0  0  0  0  0  0  0  0  0  0  0
    3.1079    0.9226    0.0000 H   0  0  0  0  0  0  0  0  0  0  0  0
    3.8622    1.0905    0.0000 H   0  0  0  0  0  0  0  0  0  0  0  0
    1.8196    1.5653    0.0000 H   0  0  0  0  0  0  0  0  0  0  0  0
    2.4224    1.0820    0.0000 H   0  0  0  0  0  0  0  0  0  0  0  0
    1.5151    2.9725    0.0000 H   0  0  0  0  0  0  0  0  0  0  0  0
    1.5151    2.1998    0.0000 H   0  0  0  0  0  0  0  0  0  0  0  0
    2.4224    4.0904    0.0000 H   0  0  0  0  0  0  0  0  0  0  0  0
    1.8196    3.6070    0.0000 H   0  0  0  0  0  0  0  0  0  0  0  0
    3.8622    4.0819    0.0000 H   0  0  0  0  0  0  0  0  0  0  0  0
    3.1079    4.2498    0.0000 H   0  0  0  0  0  0  0  0  0  0  0  0
    4.4601    0.2409    0.0000 H   0  0  0  0  0  0  0  0  0  0  0  0
    7.3260    1.8955    0.0000 H   0  0  0  0  0  0  0  0  0  0  0  0
    5.8962   -0.6031    0.0000 H   0  0  0  0  0  0  0  0  0  0  0  0
    9.1514   -1.5609    0.0000 H   0  0  0  0  0  0  0  0  0  0  0  0
    8.7502   -0.8721    0.0000 H   0  0  0  0  0  0  0  0  0  0  0  0
    7.9333   -2.3502    0.0000 H   0  0  0  0  0  0  0  0  0  0  0  0
    8.3345   -3.0390    0.0000 H   0  0  0  0  0  0  0  0  0  0  0  0
    7.1367   -1.2710    0.0000 H   0  0  0  0  0  0  0  0  0  0  0  0
   10.0232   -3.0575    0.0000 H   0  0  0  0  0  0  0  0  0  0  0  0
    9.6220   -2.3688    0.0000 H   0  0  0  0  0  0  0  0  0  0  0  0
    8.7961   -3.9546    0.0000 H   0  0  0  0  0  0  0  0  0  0  0  0
    9.4185   -4.5722    0.0000 H   0  0  0  0  0  0  0  0  0  0  0  0
   10.0361   -3.9498    0.0000 H   0  0  0  0  0  0  0  0  0  0  0  0
  1  2  2  0  0  0  0
  1  3  2  0  0  0  0
  1  6  1  0  0  0  0
  1 15  1  0  0  0  0
  4 20  2  0  0  0  0
  5  8  1  0  0  0  0
  5 13  1  0  0  0  0
  5 14  1  0  0  0  0
  6 13  2  0  0  0  0
  7 20  1  0  0  0  0
  7 21  1  0  0  0  0
  7 42  1  0  0  0  0
  8  9  1  0  0  0  0
  8 25  1  0  0  0  0
  8 26  1  0  0  0  0
  9 10  1  0  0  0  0
  9 27  1  0  0  0  0
  9 28  1  0  0  0  0
 10 11  1  0  0  0  0
 10 29  1  0  0  0  0
 10 30  1  0  0  0  0
 11 12  1  0  0  0  0
 11 31  1  0  0  0  0
 11 32  1  0  0  0  0
 12 13  1  0  0  0  0
 12 33  1  0  0  0  0
 12 34  1  0  0  0  0
 14 15  2  0  0  0  0
 14 16  1  0  0  0  0
 15 17  1  0  0  0  0
 16 19  2  0  0  0  0
 16 35  1  0  0  0  0
 17 18  2  0  0  0  0
 17 36  1  0  0  0  0
 18 19  1  0  0  0  0
 18 20  1  0  0  0  0
 19 37  1  0  0  0  0
 21 22  1  0  0  0  0
 21 38  1  0  0  0  0
 21 39  1  0  0  0  0
 22 23  1  0  0  0  0
 22 40  1  0  0  0  0
 22 41  1  0  0  0  0
 23 24  1  0  0  0  0
 23 43  1  0  0  0  0
 23 44  1  0  0  0  0
 24 45  1  0  0  0  0
 24 46  1  0  0  0  0
 24 47  1  0  0  0  0
M  END
> <PUBCHEM_COMPOUND_CID>
17395363

> <PUBCHEM_COMPOUND_CANONICALIZED>
1

> <PUBCHEM_CACTVS_COMPLEXITY>
597

> <PUBCHEM_CACTVS_HBOND_ACCEPTOR>
4

> <PUBCHEM_CACTVS_HBOND_DONOR>
1

> <PUBCHEM_CACTVS_ROTATABLE_BOND>
4

> <PUBCHEM_CACTVS_SUBSKEYS>
AAADceB7MABAAAAAAAAAAAAAAAAAAAAAAAAwQAAABYAAAACBAAAAHgQQQAAADAjB2AQzwYPAAAKoAidycHDCABAlAgAJiJ04ZMgIIDLAnZGEIQhglgDIyYcYiQCeCAAAgAAAAQAQAAEAAAACAAAAAAAAAA==

> <PUBCHEM_IUPAC_OPENEYE_NAME>
N-butyl-5,5-dioxo-8,9,10,11-tetrahydro-7H-azepino[2,1-c][1,2,4]benzothiadiazine-3-carboxamide

> <PUBCHEM_IUPAC_CAS_NAME>
N-butyl-5,5-dioxo-8,9,10,11-tetrahydro-7H-azepino[2,1-c][1,2,4]benzothiadiazine-3-carboxamide

> <PUBCHEM_IUPAC_NAME>
N-butyl-5,5-dioxo-8,9,10,11-tetrahydro-7H-azepino[2,1-c][1,2,4]benzothiadiazine-3-carboxamide

> <PUBCHEM_IUPAC_SYSTEMATIC_NAME>
N-butyl-5,5-bis(oxidanylidene)-8,9,10,11-tetrahydro-7H-azepino[2,1-c][1,2,4]benzothiadiazine-3-carboxamide

> <PUBCHEM_IUPAC_TRADITIONAL_NAME>
N-butyl-5,5-diketo-8,9,10,11-tetrahydro-7H-azepino[2,1-c][1,2,4]benzothiadiazine-3-carboxamide

> <PUBCHEM_IUPAC_INCHI>
InChI=1S/C17H23N3O3S/c1-2-3-10-18-17(21)13-8-9-14-15(12-13)24(22,23)19-16-7-5-4-6-11-20(14)16/h8-9,12H,2-7,10-11H2,1H3,(H,18,21)

> <PUBCHEM_IUPAC_INCHIKEY>
HJLRDRAHWXRRJG-UHFFFAOYSA-N

> <PUBCHEM_XLOGP3_AA>
1.9

> <PUBCHEM_EXACT_MASS>
349.146013

> <PUBCHEM_MOLECULAR_FORMULA>
C17H23N3O3S

> <PUBCHEM_MOLECULAR_WEIGHT>
349.44782

> <PUBCHEM_OPENEYE_CAN_SMILES>
CCCCNC(=O)C1=CC2=C(C=C1)N3CCCCCC3=NS2(=O)=O

> <PUBCHEM_OPENEYE_ISO_SMILES>
CCCCNC(=O)C1=CC2=C(C=C1)N3CCCCCC3=NS2(=O)=O

> <PUBCHEM_CACTVS_TPSA>
87.2

> <PUBCHEM_MONOISOTOPIC_WEIGHT>
349.146013

> <PUBCHEM_TOTAL_CHARGE>
0

> <PUBCHEM_HEAVY_ATOM_COUNT>
24

> <PUBCHEM_ATOM_DEF_STEREO_COUNT>
0

> <PUBCHEM_ATOM_UDEF_STEREO_COUNT>
0

> <PUBCHEM_BOND_DEF_STEREO_COUNT>
0

> <PUBCHEM_BOND_UDEF_STEREO_COUNT>
0

> <PUBCHEM_ISOTOPIC_ATOM_COUNT>
0

> <PUBCHEM_COMPONENT_COUNT>
1

> <PUBCHEM_CACTVS_TAUTO_COUNT>
2

> <PUBCHEM_COORDINATE_TYPE>
1
5
255

> <PUBCHEM_BONDANNOTATIONS>
14  15  8
14  16  8
15  17  8
16  19  8
17  18  8
18  19  8

$$$$

