3560
  -OEChem-06251223302D

 64 67  0     1  0  0  0  0  0999 V2000
    2.0161   -0.3784    0.0000 Br  0  0  0  0  0  0  0  0  0  0  0  0
    5.0182    0.3484    0.0000 F   0  0  0  0  0  0  0  0  0  0  0  0
    5.6489   -3.4869    0.0000 F   0  0  0  0  0  0  0  0  0  0  0  0
    8.0319    1.8387    0.0000 O   0  0  0  0  0  0  0  0  0  0  0  0
    4.7950    1.0824    0.0000 O   0  0  0  0  0  0  0  0  0  0  0  0
    9.7423    1.9027    0.0000 O   0  0  0  0  0  0  0  0  0  0  0  0
   10.9151    0.2827    0.0000 O   0  0  0  0  0  0  0  0  0  0  0  0
    2.0000   -2.4700    0.0000 O   0  0  0  0  0  0  0  0  0  0  0  0
    9.1931    3.1238    0.0000 O   0  0  0  0  0  0  0  0  0  0  0  0
   11.0932   -1.4402    0.0000 O   0  0  0  0  0  0  0  0  0  0  0  0
    7.3931    0.5824    0.0000 C   0  0  3  0  0  0  0  0  0  0  0  0
    7.3931   -0.4176    0.0000 C   0  0  3  0  0  0  0  0  0  0  0  0
    6.5271   -0.9176    0.0000 C   0  0  3  0  0  0  0  0  0  0  0  0
    5.6610   -0.4176    0.0000 C   0  0  3  0  0  0  0  0  0  0  0  0
    8.3393    0.8871    0.0000 C   0  0  3  0  0  0  0  0  0  0  0  0
    6.5271    1.0824    0.0000 C   0  0  0  0  0  0  0  0  0  0  0  0
    8.3393   -0.7224    0.0000 C   0  0  0  0  0  0  0  0  0  0  0  0
    5.6610    0.5824    0.0000 C   0  0  3  0  0  0  0  0  0  0  0  0
    4.7510   -0.9245    0.0000 C   0  0  3  0  0  0  0  0  0  0  0  0
    8.9229    0.0824    0.0000 C   0  0  0  0  0  0  0  0  0  0  0  0
    6.5431   -1.9591    0.0000 C   0  0  0  0  0  0  0  0  0  0  0  0
    7.3931    1.5824    0.0000 C   0  0  0  0  0  0  0  0  0  0  0  0
    5.6451   -2.4869    0.0000 C   0  0  3  0  0  0  0  0  0  0  0  0
    4.7430   -1.9661    0.0000 C   0  0  0  0  0  0  0  0  0  0  0  0
    9.3340    0.9899    0.0000 C   0  0  0  0  0  0  0  0  0  0  0  0
    4.4163    0.0178    0.0000 C   0  0  0  0  0  0  0  0  0  0  0  0
    3.8242   -0.3604    0.0000 C   0  0  0  0  0  0  0  0  0  0  0  0
    3.8076   -2.5158    0.0000 C   0  0  0  0  0  0  0  0  0  0  0  0
    9.9204    0.1799    0.0000 C   0  0  0  0  0  0  0  0  0  0  0  0
    2.8763   -0.8883    0.0000 C   0  0  0  0  0  0  0  0  0  0  0  0
    2.8680   -1.9733    0.0000 C   0  0  0  0  0  0  0  0  0  0  0  0
    8.2415    2.8165    0.0000 C   0  0  0  0  0  0  0  0  0  0  0  0
    7.4996    3.4869    0.0000 C   0  0  0  0  0  0  0  0  0  0  0  0
   11.5015   -0.5274    0.0000 C   0  0  0  0  0  0  0  0  0  0  0  0
   12.4962   -0.4245    0.0000 C   0  0  0  0  0  0  0  0  0  0  0  0
    7.4830   -1.2629    0.0000 H   0  0  0  0  0  0  0  0  0  0  0  0
    7.2664   -1.3370    0.0000 H   0  0  0  0  0  0  0  0  0  0  0  0
    6.9256    1.5573    0.0000 H   0  0  0  0  0  0  0  0  0  0  0  0
    6.1285    1.5573    0.0000 H   0  0  0  0  0  0  0  0  0  0  0  0
    8.0883   -1.2893    0.0000 H   0  0  0  0  0  0  0  0  0  0  0  0
    8.8767   -1.0316    0.0000 H   0  0  0  0  0  0  0  0  0  0  0  0
    5.6610    1.4324    0.0000 H   0  0  0  0  0  0  0  0  0  0  0  0
    9.3838   -0.3324    0.0000 H   0  0  0  0  0  0  0  0  0  0  0  0
    9.3838    0.4971    0.0000 H   0  0  0  0  0  0  0  0  0  0  0  0
    6.7612   -2.5395    0.0000 H   0  0  0  0  0  0  0  0  0  0  0  0
    7.1523   -1.8436    0.0000 H   0  0  0  0  0  0  0  0  0  0  0  0
    8.0131    1.5824    0.0000 H   0  0  0  0  0  0  0  0  0  0  0  0
    7.3931    2.2024    0.0000 H   0  0  0  0  0  0  0  0  0  0  0  0
    6.7731    1.5824    0.0000 H   0  0  0  0  0  0  0  0  0  0  0  0
    4.9098   -2.9133    0.0000 H   0  0  0  0  0  0  0  0  0  0  0  0
    5.0005    0.2254    0.0000 H   0  0  0  0  0  0  0  0  0  0  0  0
    4.2087    0.6020    0.0000 H   0  0  0  0  0  0  0  0  0  0  0  0
    3.8320   -0.1897    0.0000 H   0  0  0  0  0  0  0  0  0  0  0  0
    3.8361    0.2595    0.0000 H   0  0  0  0  0  0  0  0  0  0  0  0
    4.7950    1.7024    0.0000 H   0  0  0  0  0  0  0  0  0  0  0  0
    3.8100   -3.1358    0.0000 H   0  0  0  0  0  0  0  0  0  0  0  0
    9.3627   -0.0910    0.0000 H   0  0  0  0  0  0  0  0  0  0  0  0
   10.0903   -0.4164    0.0000 H   0  0  0  0  0  0  0  0  0  0  0  0
    7.9152    3.9469    0.0000 H   0  0  0  0  0  0  0  0  0  0  0  0
    7.0395    3.9026    0.0000 H   0  0  0  0  0  0  0  0  0  0  0  0
    7.0839    3.0269    0.0000 H   0  0  0  0  0  0  0  0  0  0  0  0
   12.5599   -1.0413    0.0000 H   0  0  0  0  0  0  0  0  0  0  0  0
   13.1129   -0.3608    0.0000 H   0  0  0  0  0  0  0  0  0  0  0  0
   12.4324    0.1922    0.0000 H   0  0  0  0  0  0  0  0  0  0  0  0
  1 30  1  0  0  0  0
  2 14  1  0  0  0  0
  3 23  1  0  0  0  0
  4 15  1  0  0  0  0
  4 32  1  0  0  0  0
  5 18  1  0  0  0  0
  5 55  1  0  0  0  0
  6 25  2  0  0  0  0
  7 29  1  0  0  0  0
  7 34  1  0  0  0  0
  8 31  2  0  0  0  0
  9 32  2  0  0  0  0
 10 34  2  0  0  0  0
 11 12  1  0  0  0  0
 11 15  1  0  0  0  0
 11 16  1  0  0  0  0
 11 22  1  0  0  0  0
 12 13  1  0  0  0  0
 12 17  1  0  0  0  0
 12 36  1  0  0  0  0
 13 14  1  0  0  0  0
 13 21  1  0  0  0  0
 13 37  1  0  0  0  0
 14 18  1  0  0  0  0
 14 19  1  0  0  0  0
 15 20  1  0  0  0  0
 15 25  1  0  0  0  0
 16 18  1  0  0  0  0
 16 38  1  0  0  0  0
 16 39  1  0  0  0  0
 17 20  1  0  0  0  0
 17 40  1  0  0  0  0
 17 41  1  0  0  0  0
 18 42  1  0  0  0  0
 19 24  1  0  0  0  0
 19 26  1  0  0  0  0
 19 27  1  0  0  0  0
 20 43  1  0  0  0  0
 20 44  1  0  0  0  0
 21 23  1  0  0  0  0
 21 45  1  0  0  0  0
 21 46  1  0  0  0  0
 22 47  1  0  0  0  0
 22 48  1  0  0  0  0
 22 49  1  0  0  0  0
 23 24  1  0  0  0  0
 23 50  1  0  0  0  0
 24 28  2  0  0  0  0
 25 29  1  0  0  0  0
 26 51  1  0  0  0  0
 26 52  1  0  0  0  0
 26 53  1  0  0  0  0
 27 30  2  0  0  0  0
 27 54  1  0  0  0  0
 28 31  1  0  0  0  0
 28 56  1  0  0  0  0
 29 57  1  0  0  0  0
 29 58  1  0  0  0  0
 30 31  1  0  0  0  0
 32 33  1  0  0  0  0
 33 59  1  0  0  0  0
 33 60  1  0  0  0  0
 33 61  1  0  0  0  0
 34 35  1  0  0  0  0
 35 62  1  0  0  0  0
 35 63  1  0  0  0  0
 35 64  1  0  0  0  0
M  END
> <PUBCHEM_COMPOUND_CID>
3560

> <PUBCHEM_COMPOUND_CANONICALIZED>
1

> <PUBCHEM_CACTVS_COMPLEXITY>
1070

> <PUBCHEM_CACTVS_HBOND_ACCEPTOR>
9

> <PUBCHEM_CACTVS_HBOND_DONOR>
1

> <PUBCHEM_CACTVS_ROTATABLE_BOND>
6

> <PUBCHEM_CACTVS_SUBSKEYS>
AAADceB4OYAAEAAAAAAAAAAAAAAAAYAAAAAwYIAAAAAAAGDAAAAAGwBACAABj1SggAICCAAABgCIAqDSCAIAAAAgAAAACAFAAGggEBIAAQQCQAAFgAAIAYPIzPDPgAAAAAAAAADAAAYAADAAAYAADAAAAA==

> <PUBCHEM_IUPAC_OPENEYE_NAME>
[2-(17-acetoxy-2-bromo-6,9-difluoro-11-hydroxy-10,13-dimethyl-3-oxo-6,7,8,11,12,14,15,16-octahydrocyclopenta[a]phenanthren-17-yl)-2-oxo-ethyl] acetate

> <PUBCHEM_IUPAC_CAS_NAME>
acetic acid [2-(17-acetyloxy-2-bromo-6,9-difluoro-11-hydroxy-10,13-dimethyl-3-oxo-6,7,8,11,12,14,15,16-octahydrocyclopenta[a]phenanthren-17-yl)-2-oxoethyl] ester

> <PUBCHEM_IUPAC_NAME>
[2-(17-acetyloxy-2-bromo-6,9-difluoro-11-hydroxy-10,13-dimethyl-3-oxo-6,7,8,11,12,14,15,16-octahydrocyclopenta[a]phenanthren-17-yl)-2-oxoethyl] acetate

> <PUBCHEM_IUPAC_SYSTEMATIC_NAME>
[2-[17-acetyloxy-2-bromanyl-6,9-bis(fluoranyl)-10,13-dimethyl-11-oxidanyl-3-oxidanylidene-6,7,8,11,12,14,15,16-octahydrocyclopenta[a]phenanthren-17-yl]-2-oxidanylidene-ethyl] ethanoate

> <PUBCHEM_IUPAC_TRADITIONAL_NAME>
acetic acid [2-(17-acetoxy-2-bromo-6,9-difluoro-11-hydroxy-3-keto-10,13-dimethyl-6,7,8,11,12,14,15,16-octahydrocyclopenta[a]phenanthren-17-yl)-2-keto-ethyl] ester

> <PUBCHEM_IUPAC_INCHI>
InChI=1S/C25H29BrF2O7/c1-12(29)34-11-21(33)24(35-13(2)30)6-5-14-15-7-18(27)16-8-19(31)17(26)9-23(16,4)25(15,28)20(32)10-22(14,24)3/h8-9,14-15,18,20,32H,5-7,10-11H2,1-4H3

> <PUBCHEM_IUPAC_INCHIKEY>
YCISZOVUHXIOFY-UHFFFAOYSA-N

> <PUBCHEM_XLOGP3>
2.7

> <PUBCHEM_EXACT_MASS>
558.106472

> <PUBCHEM_MOLECULAR_FORMULA>
C25H29BrF2O7

> <PUBCHEM_MOLECULAR_WEIGHT>
559.394366

> <PUBCHEM_OPENEYE_CAN_SMILES>
CC(=O)OCC(=O)C1(CCC2C1(CC(C3(C2CC(C4=CC(=O)C(=CC43C)Br)F)F)O)C)OC(=O)C

> <PUBCHEM_OPENEYE_ISO_SMILES>
CC(=O)OCC(=O)C1(CCC2C1(CC(C3(C2CC(C4=CC(=O)C(=CC43C)Br)F)F)O)C)OC(=O)C

> <PUBCHEM_CACTVS_TPSA>
107

> <PUBCHEM_MONOISOTOPIC_WEIGHT>
558.106472

> <PUBCHEM_TOTAL_CHARGE>
0

> <PUBCHEM_HEAVY_ATOM_COUNT>
35

> <PUBCHEM_ATOM_DEF_STEREO_COUNT>
0

> <PUBCHEM_ATOM_UDEF_STEREO_COUNT>
8

> <PUBCHEM_BOND_DEF_STEREO_COUNT>
0

> <PUBCHEM_BOND_UDEF_STEREO_COUNT>
0

> <PUBCHEM_ISOTOPIC_ATOM_COUNT>
0

> <PUBCHEM_COMPONENT_COUNT>
1

> <PUBCHEM_CACTVS_TAUTO_COUNT>
2

> <PUBCHEM_COORDINATE_TYPE>
1
5
255

> <PUBCHEM_BONDANNOTATIONS>
11  22  3
12  36  3
13  37  3
15  25  3
18  42  3
19  26  3
14  2  3
23  50  3

$$$$

