12598
  -OEChem-06261207082D

 60 63  0     0  0  0  0  0  0999 V2000
    6.3301   -3.2327    0.0000 S   0  0  0  0  0  0  0  0  0  0  0  0
    9.8564   -0.2085    0.0000 O   0  0  0  0  0  0  0  0  0  0  0  0
    4.5981    1.7673    0.0000 N   0  0  0  0  0  0  0  0  0  0  0  0
    2.8660    2.7673    0.0000 N   0  0  0  0  0  0  0  0  0  0  0  0
    6.3301   -1.2327    0.0000 N   0  0  0  0  0  0  0  0  0  0  0  0
    4.5981    2.7673    0.0000 C   0  0  0  0  0  0  0  0  0  0  0  0
    3.7320    1.2673    0.0000 C   0  0  0  0  0  0  0  0  0  0  0  0
    5.4641    1.2673    0.0000 C   0  0  0  0  0  0  0  0  0  0  0  0
    2.8660    1.7673    0.0000 C   0  0  0  0  0  0  0  0  0  0  0  0
    3.7320    3.2673    0.0000 C   0  0  0  0  0  0  0  0  0  0  0  0
    5.4641    0.2673    0.0000 C   0  0  0  0  0  0  0  0  0  0  0  0
    6.3301   -0.2327    0.0000 C   0  0  0  0  0  0  0  0  0  0  0  0
    2.0000    3.2673    0.0000 C   0  0  0  0  0  0  0  0  0  0  0  0
    7.1962   -1.7327    0.0000 C   0  0  0  0  0  0  0  0  0  0  0  0
    5.4641   -1.7327    0.0000 C   0  0  0  0  0  0  0  0  0  0  0  0
    7.1962   -2.7327    0.0000 C   0  0  0  0  0  0  0  0  0  0  0  0
    5.4641   -2.7327    0.0000 C   0  0  0  0  0  0  0  0  0  0  0  0
    8.0901   -1.1980    0.0000 C   0  0  0  0  0  0  0  0  0  0  0  0
    4.5702   -1.1980    0.0000 C   0  0  0  0  0  0  0  0  0  0  0  0
    8.9962   -1.7118    0.0000 C   0  0  0  0  0  0  0  0  0  0  0  0
    8.0901   -3.2673    0.0000 C   0  0  0  0  0  0  0  0  0  0  0  0
    4.5702   -3.2673    0.0000 C   0  0  0  0  0  0  0  0  0  0  0  0
    8.9962   -2.7535    0.0000 C   0  0  0  0  0  0  0  0  0  0  0  0
    3.6641   -1.7118    0.0000 C   0  0  0  0  0  0  0  0  0  0  0  0
    9.8602   -1.2085    0.0000 C   0  0  0  0  0  0  0  0  0  0  0  0
    3.6641   -2.7535    0.0000 C   0  0  0  0  0  0  0  0  0  0  0  0
   10.7282   -1.7052    0.0000 C   0  0  0  0  0  0  0  0  0  0  0  0
   11.5923   -1.2018    0.0000 C   0  0  0  0  0  0  0  0  0  0  0  0
   12.4602   -1.6985    0.0000 C   0  0  0  0  0  0  0  0  0  0  0  0
    5.2087    2.6597    0.0000 H   0  0  0  0  0  0  0  0  0  0  0  0
    4.8101    3.3499    0.0000 H   0  0  0  0  0  0  0  0  0  0  0  0
    3.3335    0.7924    0.0000 H   0  0  0  0  0  0  0  0  0  0  0  0
    4.1306    0.7924    0.0000 H   0  0  0  0  0  0  0  0  0  0  0  0
    6.0747    1.1597    0.0000 H   0  0  0  0  0  0  0  0  0  0  0  0
    5.6762    1.8499    0.0000 H   0  0  0  0  0  0  0  0  0  0  0  0
    2.2554    1.8750    0.0000 H   0  0  0  0  0  0  0  0  0  0  0  0
    2.6540    1.1847    0.0000 H   0  0  0  0  0  0  0  0  0  0  0  0
    4.1306    3.7423    0.0000 H   0  0  0  0  0  0  0  0  0  0  0  0
    3.3335    3.7423    0.0000 H   0  0  0  0  0  0  0  0  0  0  0  0
    4.8535    0.3750    0.0000 H   0  0  0  0  0  0  0  0  0  0  0  0
    5.2520   -0.3153    0.0000 H   0  0  0  0  0  0  0  0  0  0  0  0
    6.9407   -0.3403    0.0000 H   0  0  0  0  0  0  0  0  0  0  0  0
    6.5422    0.3499    0.0000 H   0  0  0  0  0  0  0  0  0  0  0  0
    2.3100    3.8043    0.0000 H   0  0  0  0  0  0  0  0  0  0  0  0
    1.4631    3.5773    0.0000 H   0  0  0  0  0  0  0  0  0  0  0  0
    1.6900    2.7304    0.0000 H   0  0  0  0  0  0  0  0  0  0  0  0
    8.0829   -0.5780    0.0000 H   0  0  0  0  0  0  0  0  0  0  0  0
    4.5773   -0.5780    0.0000 H   0  0  0  0  0  0  0  0  0  0  0  0
    8.0829   -3.8873    0.0000 H   0  0  0  0  0  0  0  0  0  0  0  0
    4.5773   -3.8873    0.0000 H   0  0  0  0  0  0  0  0  0  0  0  0
    9.5319   -3.0656    0.0000 H   0  0  0  0  0  0  0  0  0  0  0  0
    3.1284   -1.3998    0.0000 H   0  0  0  0  0  0  0  0  0  0  0  0
    3.1284   -3.0656    0.0000 H   0  0  0  0  0  0  0  0  0  0  0  0
   10.3315   -2.1817    0.0000 H   0  0  0  0  0  0  0  0  0  0  0  0
   11.1286   -2.1786    0.0000 H   0  0  0  0  0  0  0  0  0  0  0  0
   11.9890   -0.7254    0.0000 H   0  0  0  0  0  0  0  0  0  0  0  0
   11.1919   -0.7284    0.0000 H   0  0  0  0  0  0  0  0  0  0  0  0
   12.1523   -2.2366    0.0000 H   0  0  0  0  0  0  0  0  0  0  0  0
   12.9984   -2.0064    0.0000 H   0  0  0  0  0  0  0  0  0  0  0  0
   12.7682   -1.1604    0.0000 H   0  0  0  0  0  0  0  0  0  0  0  0
  1 16  1  0  0  0  0
  1 17  1  0  0  0  0
  2 25  2  0  0  0  0
  3  6  1  0  0  0  0
  3  7  1  0  0  0  0
  3  8  1  0  0  0  0
  4  9  1  0  0  0  0
  4 10  1  0  0  0  0
  4 13  1  0  0  0  0
  5 12  1  0  0  0  0
  5 14  1  0  0  0  0
  5 15  1  0  0  0  0
  6 10  1  0  0  0  0
  6 30  1  0  0  0  0
  6 31  1  0  0  0  0
  7  9  1  0  0  0  0
  7 32  1  0  0  0  0
  7 33  1  0  0  0  0
  8 11  1  0  0  0  0
  8 34  1  0  0  0  0
  8 35  1  0  0  0  0
  9 36  1  0  0  0  0
  9 37  1  0  0  0  0
 10 38  1  0  0  0  0
 10 39  1  0  0  0  0
 11 12  1  0  0  0  0
 11 40  1  0  0  0  0
 11 41  1  0  0  0  0
 12 42  1  0  0  0  0
 12 43  1  0  0  0  0
 13 44  1  0  0  0  0
 13 45  1  0  0  0  0
 13 46  1  0  0  0  0
 14 16  2  0  0  0  0
 14 18  1  0  0  0  0
 15 17  1  0  0  0  0
 15 19  2  0  0  0  0
 16 21  1  0  0  0  0
 17 22  2  0  0  0  0
 18 20  2  0  0  0  0
 18 47  1  0  0  0  0
 19 24  1  0  0  0  0
 19 48  1  0  0  0  0
 20 23  1  0  0  0  0
 20 25  1  0  0  0  0
 21 23  2  0  0  0  0
 21 49  1  0  0  0  0
 22 26  1  0  0  0  0
 22 50  1  0  0  0  0
 23 51  1  0  0  0  0
 24 26  2  0  0  0  0
 24 52  1  0  0  0  0
 25 27  1  0  0  0  0
 26 53  1  0  0  0  0
 27 28  1  0  0  0  0
 27 54  1  0  0  0  0
 27 55  1  0  0  0  0
 28 29  1  0  0  0  0
 28 56  1  0  0  0  0
 28 57  1  0  0  0  0
 29 58  1  0  0  0  0
 29 59  1  0  0  0  0
 29 60  1  0  0  0  0
M  END
> <PUBCHEM_COMPOUND_CID>
12598

> <PUBCHEM_COMPOUND_CANONICALIZED>
1

> <PUBCHEM_CACTVS_COMPLEXITY>
536

> <PUBCHEM_CACTVS_HBOND_ACCEPTOR>
5

> <PUBCHEM_CACTVS_HBOND_DONOR>
0

> <PUBCHEM_CACTVS_ROTATABLE_BOND>
7

> <PUBCHEM_CACTVS_SUBSKEYS>
AAADceB7IABAAAAAAAAAAAAAAAAAAAAAAAA8eIEAAAAAAACxQAAAHgQAAAAADAzB2AQywYMAAAiIAqRSQACCAAAlChAIiB0IZMgIYHLg1ZGUIQhggADoyYcciICOEAAAQAAAAQAgAACAAAACAAAAAAAAAA==

> <PUBCHEM_IUPAC_OPENEYE_NAME>
1-[10-[3-(4-methylpiperazin-1-yl)propyl]phenothiazin-2-yl]butan-1-one

> <PUBCHEM_IUPAC_CAS_NAME>
1-[10-[3-(4-methyl-1-piperazinyl)propyl]-2-phenothiazinyl]-1-butanone

> <PUBCHEM_IUPAC_NAME>
1-[10-[3-(4-methylpiperazin-1-yl)propyl]phenothiazin-2-yl]butan-1-one

> <PUBCHEM_IUPAC_SYSTEMATIC_NAME>
1-[10-[3-(4-methylpiperazin-1-yl)propyl]phenothiazin-2-yl]butan-1-one

> <PUBCHEM_IUPAC_TRADITIONAL_NAME>
1-[10-[3-(4-methylpiperazino)propyl]phenothiazin-2-yl]butan-1-one

> <PUBCHEM_IUPAC_INCHI>
InChI=1S/C24H31N3OS/c1-3-7-22(28)19-10-11-24-21(18-19)27(20-8-4-5-9-23(20)29-24)13-6-12-26-16-14-25(2)15-17-26/h4-5,8-11,18H,3,6-7,12-17H2,1-2H3

> <PUBCHEM_IUPAC_INCHIKEY>
DVLBYTMYSMAKHP-UHFFFAOYSA-N

> <PUBCHEM_XLOGP3>
5

> <PUBCHEM_EXACT_MASS>
409.218784

> <PUBCHEM_MOLECULAR_FORMULA>
C24H31N3OS

> <PUBCHEM_MOLECULAR_WEIGHT>
409.58744

> <PUBCHEM_OPENEYE_CAN_SMILES>
CCCC(=O)C1=CC2=C(C=C1)SC3=CC=CC=C3N2CCCN4CCN(CC4)C

> <PUBCHEM_OPENEYE_ISO_SMILES>
CCCC(=O)C1=CC2=C(C=C1)SC3=CC=CC=C3N2CCCN4CCN(CC4)C

> <PUBCHEM_CACTVS_TPSA>
52.1

> <PUBCHEM_MONOISOTOPIC_WEIGHT>
409.218784

> <PUBCHEM_TOTAL_CHARGE>
0

> <PUBCHEM_HEAVY_ATOM_COUNT>
29

> <PUBCHEM_ATOM_DEF_STEREO_COUNT>
0

> <PUBCHEM_ATOM_UDEF_STEREO_COUNT>
0

> <PUBCHEM_BOND_DEF_STEREO_COUNT>
0

> <PUBCHEM_BOND_UDEF_STEREO_COUNT>
0

> <PUBCHEM_ISOTOPIC_ATOM_COUNT>
0

> <PUBCHEM_COMPONENT_COUNT>
1

> <PUBCHEM_CACTVS_TAUTO_COUNT>
2

> <PUBCHEM_COORDINATE_TYPE>
1
5
255

> <PUBCHEM_BONDANNOTATIONS>
14  16  8
14  18  8
15  17  8
15  19  8
16  21  8
17  22  8
18  20  8
19  24  8
20  23  8
21  23  8
22  26  8
24  26  8

$$$$

