4704
  -OEChem-06261200183D

 24 25  0     0  0  0  0  0  0999 V2000
    2.1449    0.0806   -1.9832 S   0  0  0  0  0  0  0  0  0  0  0  0
   -3.0351   -2.8301    0.0687 F   0  0  0  0  0  0  0  0  0  0  0  0
    3.9371   -0.5979    1.4637 O   0  0  0  0  0  0  0  0  0  0  0  0
    4.6373   -0.9111   -0.6673 O   0  0  0  0  0  0  0  0  0  0  0  0
   -1.4146    2.3831   -0.0123 N   0  0  0  0  0  0  0  0  0  0  0  0
   -1.0132    0.2002    0.2136 C   0  0  0  0  0  0  0  0  0  0  0  0
   -2.0135    1.1436   -0.0306 C   0  0  0  0  0  0  0  0  0  0  0  0
    0.2050    0.9166    0.3791 C   0  0  0  0  0  0  0  0  0  0  0  0
   -0.0740    2.2561    0.2344 C   0  0  0  0  0  0  0  0  0  0  0  0
   -1.3620   -1.1646    0.2481 C   0  0  0  0  0  0  0  0  0  0  0  0
   -3.3505    0.7890   -0.2425 C   0  0  0  0  0  0  0  0  0  0  0  0
    1.4899    0.3942    0.6444 C   0  0  0  0  0  0  0  0  0  0  0  0
   -2.6954   -1.5341    0.0379 C   0  0  0  0  0  0  0  0  0  0  0  0
   -3.6728   -0.5705   -0.2032 C   0  0  0  0  0  0  0  0  0  0  0  0
    2.4425   -0.0046   -0.2712 C   0  0  0  0  0  0  0  0  0  0  0  0
    3.7743   -0.5503    0.1204 C   0  0  0  0  0  0  0  0  0  0  0  0
   -1.8958    3.2595   -0.1600 H   0  0  0  0  0  0  0  0  0  0  0  0
    0.5569    3.1333    0.2838 H   0  0  0  0  0  0  0  0  0  0  0  0
   -0.6127   -1.9288    0.4346 H   0  0  0  0  0  0  0  0  0  0  0  0
   -4.1122    1.5383   -0.4306 H   0  0  0  0  0  0  0  0  0  0  0  0
    1.7290    0.3109    1.7026 H   0  0  0  0  0  0  0  0  0  0  0  0
   -4.7022   -0.8801   -0.3638 H   0  0  0  0  0  0  0  0  0  0  0  0
    0.8956    0.5630   -1.9968 H   0  0  0  0  0  0  0  0  0  0  0  0
    4.8159   -0.9543    1.7148 H   0  0  0  0  0  0  0  0  0  0  0  0
  1 15  1  0  0  0  0
  1 23  1  0  0  0  0
  2 13  1  0  0  0  0
  3 16  1  0  0  0  0
  3 24  1  0  0  0  0
  4 16  2  0  0  0  0
  5  7  1  0  0  0  0
  5  9  1  0  0  0  0
  5 17  1  0  0  0  0
  6  7  2  0  0  0  0
  6  8  1  0  0  0  0
  6 10  1  0  0  0  0
  7 11  1  0  0  0  0
  8  9  2  0  0  0  0
  8 12  1  0  0  0  0
  9 18  1  0  0  0  0
 10 13  2  0  0  0  0
 10 19  1  0  0  0  0
 11 14  2  0  0  0  0
 11 20  1  0  0  0  0
 12 15  2  0  0  0  0
 12 21  1  0  0  0  0
 13 14  1  0  0  0  0
 14 22  1  0  0  0  0
 15 16  1  0  0  0  0
M  END
> <PUBCHEM_COMPOUND_CID>
4704

> <PUBCHEM_CONFORMER_RMSD>
0.6

> <PUBCHEM_CONFORMER_DIVERSEORDER>
2
3
4
1

> <PUBCHEM_MMFF94_PARTIAL_CHARGES>
23
1 -0.28
10 -0.15
11 -0.15
12 -0.1
13 0.19
14 -0.15
15 0.12
16 0.71
17 0.27
18 0.15
19 0.15
2 -0.19
20 0.15
21 0.15
22 0.15
23 0.18
24 0.5
3 -0.65
4 -0.57
5 0.03
7 -0.15
8 -0.05
9 -0.3

> <PUBCHEM_EFFECTIVE_ROTOR_COUNT>
2

> <PUBCHEM_PHARMACOPHORE_FEATURES>
7
1 3 acceptor
1 4 acceptor
1 5 cation
1 5 donor
3 3 4 16 anion
5 5 6 7 8 9 rings
6 6 7 10 11 13 14 rings

> <PUBCHEM_HEAVY_ATOM_COUNT>
16

> <PUBCHEM_ATOM_DEF_STEREO_COUNT>
0

> <PUBCHEM_ATOM_UDEF_STEREO_COUNT>
0

> <PUBCHEM_BOND_DEF_STEREO_COUNT>
0

> <PUBCHEM_BOND_UDEF_STEREO_COUNT>
1

> <PUBCHEM_ISOTOPIC_ATOM_COUNT>
0

> <PUBCHEM_COMPONENT_COUNT>
1

> <PUBCHEM_CACTVS_TAUTO_COUNT>
4

> <PUBCHEM_CONFORMER_ID>
0000126000000002

> <PUBCHEM_MMFF94_ENERGY>
37.313

> <PUBCHEM_FEATURE_SELFOVERLAP>
35.672

> <PUBCHEM_SHAPE_FINGERPRINT>
10062212 137 18131075952028393899
10616163 171 18410290341507016990
11543360 7 16056595404993619179
11578080 2 17415595123089992380
12032990 46 18409448046948644611
12236239 1 17775282802858634112
12363563 72 18335980853065630287
12553582 1 18339354167556100651
13140716 1 18335978662985601105
13296908 3 18336266738799349313
14115302 16 18201997724679263973
14386348 63 17822004337409469726
14911166 2 18340216254008679005
15375358 24 17894635884811606021
16752209 62 18270977846185834161
16945 1 18409725192719925897
17804303 29 18335420162423099897
17870717 6 18262784289777926134
18186145 218 13686300157914965916
19141452 34 17967531242955575767
20279233 1 17676485072641922574
20645476 183 17417811768558773587
20645477 70 17762630490920466223
20871998 22 18193276282810733753
21061003 4 16805325500412091336
22959321 94 18413110580099331658
232386 152 18411981338665676198
23366157 5 17985833622616036868
23402539 116 18335993067847105821
23557571 272 18042116708446080724
23559900 14 18335704992254383304
2748010 2 18194975037087297057
559249 180 17842567515699697730
568465 68 17240480277972354966
5902787 121 18337674118030727864
7364860 26 17974006141924082697
77492 1 17703503389462698168
81228 2 17969765565845967129
8809292 202 18411980235001726739
9709674 26 18189049957682383414

> <PUBCHEM_SHAPE_MULTIPOLES>
309.13
7.31
2.11
1.09
4.83
0.02
-0.39
-3.52
-0.18
-2.04
0.15
1.19
-0.04
0.01

> <PUBCHEM_SHAPE_SELFOVERLAP>
664.861

> <PUBCHEM_SHAPE_VOLUME>
173.9

> <PUBCHEM_COORDINATE_TYPE>
2
5
10

$$$$

