17396508
  -OEChem-06241222573D

 49 52  0     0  0  0  0  0  0999 V2000
    0.2337    5.5964    0.0255 F   0  0  0  0  0  0  0  0  0  0  0  0
    1.8983   -1.5500   -1.6906 O   0  0  0  0  0  0  0  0  0  0  0  0
    6.1864   -1.3358    0.2316 O   0  0  0  0  0  0  0  0  0  0  0  0
   -3.7422    0.5993    0.4160 N   0  0  0  0  0  0  0  0  0  0  0  0
    2.6528   -2.0074    0.4541 N   0  0  0  0  0  0  0  0  0  0  0  0
   -2.0355   -0.5307   -0.4427 C   0  0  0  0  0  0  0  0  0  0  0  0
   -0.6887   -0.8744   -1.0050 C   0  0  0  0  0  0  0  0  0  0  0  0
   -3.1141   -1.4373   -0.2437 C   0  0  0  0  0  0  0  0  0  0  0  0
   -2.4520    0.7131   -0.0279 C   0  0  0  0  0  0  0  0  0  0  0  0
   -4.1724   -0.7030    0.2960 C   0  0  0  0  0  0  0  0  0  0  0  0
    0.3076   -1.2853    0.0836 C   0  0  0  0  0  0  0  0  0  0  0  0
   -1.7556    1.9784   -0.0139 C   0  0  0  0  0  0  0  0  0  0  0  0
   -3.2922   -2.8163   -0.4715 C   0  0  0  0  0  0  0  0  0  0  0  0
    1.6832   -1.6218   -0.4778 C   0  0  0  0  0  0  0  0  0  0  0  0
   -5.4047   -1.2811    0.6204 C   0  0  0  0  0  0  0  0  0  0  0  0
   -4.5197   -3.4081   -0.1519 C   0  0  0  0  0  0  0  0  0  0  0  0
   -5.5582   -2.6505    0.3856 C   0  0  0  0  0  0  0  0  0  0  0  0
    3.9933   -2.3504   -0.0047 C   0  0  0  0  0  0  0  0  0  0  0  0
   -1.2817    2.5269   -1.2057 C   0  0  0  0  0  0  0  0  0  0  0  0
   -1.5576    2.6524    1.1912 C   0  0  0  0  0  0  0  0  0  0  0  0
    2.4459   -2.1071    1.8972 C   0  0  0  0  0  0  0  0  0  0  0  0
    4.8602   -1.1287    0.0209 C   0  0  0  0  0  0  0  0  0  0  0  0
   -0.6099    3.7492   -1.1925 C   0  0  0  0  0  0  0  0  0  0  0  0
   -0.8858    3.8746    1.2045 C   0  0  0  0  0  0  0  0  0  0  0  0
   -0.4118    4.4230    0.0128 C   0  0  0  0  0  0  0  0  0  0  0  0
    4.5986    0.2135   -0.1281 C   0  0  0  0  0  0  0  0  0  0  0  0
    5.8440    0.8735   -0.0005 C   0  0  0  0  0  0  0  0  0  0  0  0
    6.7781   -0.1124    0.2171 C   0  0  0  0  0  0  0  0  0  0  0  0
   -0.2832   -0.0360   -1.5812 H   0  0  0  0  0  0  0  0  0  0  0  0
   -0.7974   -1.6937   -1.7278 H   0  0  0  0  0  0  0  0  0  0  0  0
    0.4192   -0.4619    0.7991 H   0  0  0  0  0  0  0  0  0  0  0  0
   -0.0759   -2.1633    0.6166 H   0  0  0  0  0  0  0  0  0  0  0  0
   -4.3039    1.3576    0.7787 H   0  0  0  0  0  0  0  0  0  0  0  0
   -2.4930   -3.4224   -0.8883 H   0  0  0  0  0  0  0  0  0  0  0  0
   -6.2139   -0.6921    1.0389 H   0  0  0  0  0  0  0  0  0  0  0  0
   -4.6627   -4.4714   -0.3252 H   0  0  0  0  0  0  0  0  0  0  0  0
    3.9505   -2.7301   -1.0315 H   0  0  0  0  0  0  0  0  0  0  0  0
    4.4046   -3.1428    0.6301 H   0  0  0  0  0  0  0  0  0  0  0  0
   -6.5032   -3.1306    0.6265 H   0  0  0  0  0  0  0  0  0  0  0  0
   -1.4366    2.0246   -2.1576 H   0  0  0  0  0  0  0  0  0  0  0  0
   -1.9164    2.2390    2.1309 H   0  0  0  0  0  0  0  0  0  0  0  0
    2.5967   -3.1485    2.1975 H   0  0  0  0  0  0  0  0  0  0  0  0
    1.4490   -1.7995    2.2109 H   0  0  0  0  0  0  0  0  0  0  0  0
    3.1784   -1.4741    2.4068 H   0  0  0  0  0  0  0  0  0  0  0  0
   -0.2430    4.1779   -2.1203 H   0  0  0  0  0  0  0  0  0  0  0  0
   -0.7304    4.3991    2.1427 H   0  0  0  0  0  0  0  0  0  0  0  0
    3.6359    0.6705   -0.3075 H   0  0  0  0  0  0  0  0  0  0  0  0
    6.0369    1.9349   -0.0600 H   0  0  0  0  0  0  0  0  0  0  0  0
    7.8470   -0.1084    0.3727 H   0  0  0  0  0  0  0  0  0  0  0  0
  1 25  1  0  0  0  0
  2 14  2  0  0  0  0
  3 22  1  0  0  0  0
  3 28  1  0  0  0  0
  4  9  1  0  0  0  0
  4 10  1  0  0  0  0
  4 33  1  0  0  0  0
  5 14  1  0  0  0  0
  5 18  1  0  0  0  0
  5 21  1  0  0  0  0
  6  7  1  0  0  0  0
  6  8  1  0  0  0  0
  6  9  2  0  0  0  0
  7 11  1  0  0  0  0
  7 29  1  0  0  0  0
  7 30  1  0  0  0  0
  8 10  1  0  0  0  0
  8 13  2  0  0  0  0
  9 12  1  0  0  0  0
 10 15  2  0  0  0  0
 11 14  1  0  0  0  0
 11 31  1  0  0  0  0
 11 32  1  0  0  0  0
 12 19  2  0  0  0  0
 12 20  1  0  0  0  0
 13 16  1  0  0  0  0
 13 34  1  0  0  0  0
 15 17  1  0  0  0  0
 15 35  1  0  0  0  0
 16 17  2  0  0  0  0
 16 36  1  0  0  0  0
 17 39  1  0  0  0  0
 18 22  1  0  0  0  0
 18 37  1  0  0  0  0
 18 38  1  0  0  0  0
 19 23  1  0  0  0  0
 19 40  1  0  0  0  0
 20 24  2  0  0  0  0
 20 41  1  0  0  0  0
 21 42  1  0  0  0  0
 21 43  1  0  0  0  0
 21 44  1  0  0  0  0
 22 26  2  0  0  0  0
 23 25  2  0  0  0  0
 23 45  1  0  0  0  0
 24 25  1  0  0  0  0
 24 46  1  0  0  0  0
 26 27  1  0  0  0  0
 26 47  1  0  0  0  0
 27 28  2  0  0  0  0
 27 48  1  0  0  0  0
 28 49  1  0  0  0  0
M  END
> <PUBCHEM_COMPOUND_CID>
17396508

> <PUBCHEM_CONFORMER_RMSD>
1

> <PUBCHEM_CONFORMER_DIVERSEORDER>
1
50
82
63
114
117
207
85
34
91
163
191
100
69
83
111
128
160
93
18
59
119
65
205
16
183
158
200
23
201
90
195
129
138
86
179
31
101
180
185
47
3
143
188
177
190
122
97
68
181
45
113
98
72
112
154
17
199
39
43
77
109
127
168
175
37
67
92
32
70
9
19
95
165
184
7
30
76
52
80
146
53
153
48
2
27
62
46
150
55
56
8
187
36
87
25
13
197
29
26
123
21
136
20
208
35
166
171
57
38
10
15
194
66
78
126
14
137
157
148
141
71
134
140
193
51
104
88
89
74
142
6
182
108
11
81
151
22
118
198
103
64
145
44
120
5
96
147
203
172
186
173
164
131
144
75
24
115
206
40
60
41
102
159
139
33
178
156
149
152
105
176
94
189
162
211
42
61
54
174
28
110
204
121
209
12
4
202
49
155
130
58
125
84
99
196
135
169
192
167
170
210
79
107
161
133
106
73
132
116
124

> <PUBCHEM_MMFF94_PARTIAL_CHARGES>
39
1 -0.19
10 -0.15
11 0.06
12 0.05
13 -0.15
14 0.57
15 -0.15
16 -0.15
17 -0.15
18 0.48
19 -0.15
2 -0.57
20 -0.15
21 0.3
22 -0.04
23 -0.15
24 -0.15
25 0.19
26 -0.15
27 -0.15
28 -0.01
3 -0.28
33 0.27
34 0.15
35 0.15
36 0.15
39 0.15
4 0.03
40 0.15
41 0.15
45 0.15
46 0.15
47 0.15
48 0.15
49 0.15
5 -0.66
6 -0.18
7 0.18
9 -0.2

> <PUBCHEM_EFFECTIVE_ROTOR_COUNT>
7

> <PUBCHEM_PHARMACOPHORE_FEATURES>
8
1 2 acceptor
1 3 acceptor
1 4 cation
1 4 donor
5 3 22 26 27 28 rings
5 4 6 8 9 10 rings
6 12 19 20 23 24 25 rings
6 8 10 13 15 16 17 rings

> <PUBCHEM_HEAVY_ATOM_COUNT>
28

> <PUBCHEM_ATOM_DEF_STEREO_COUNT>
0

> <PUBCHEM_ATOM_UDEF_STEREO_COUNT>
0

> <PUBCHEM_BOND_DEF_STEREO_COUNT>
0

> <PUBCHEM_BOND_UDEF_STEREO_COUNT>
0

> <PUBCHEM_ISOTOPIC_ATOM_COUNT>
0

> <PUBCHEM_COMPONENT_COUNT>
1

> <PUBCHEM_CACTVS_TAUTO_COUNT>
1

> <PUBCHEM_CONFORMER_ID>
0109731C00000001

> <PUBCHEM_MMFF94_ENERGY>
53.6113

> <PUBCHEM_FEATURE_SELFOVERLAP>
40.686

> <PUBCHEM_SHAPE_FINGERPRINT>
100830 39 18338519768070881486
10369192 42 16950563256059116404
10670039 82 18339346557854890300
11045515 52 18343866606547640357
11578080 2 17773616952954384255
11595378 159 18270412688619482810
12107183 9 17405435884952591658
12156800 1 15722440661569823505
12166972 35 17703226217995700630
12596602 18 17988929989615715802
12788726 201 18271814582908449891
13560911 43 18343027662613314352
1361 2 18051131389629167448
14363568 33 18116721720480430536
14394314 77 18413102888530777651
14955137 171 18190741925699252329
15183329 4 8574443014774335334
15230672 131 17042870864367905742
15419008 145 18339657724204073960
15439362 3 17907864998981196321
15927050 60 17255677495863344678
15961568 22 18408879616928222764
17844677 252 18265047115100246462
17980427 23 17895184503461292095
18336668 15 18130786716103516111
19315092 285 16915411898867126194
19611394 137 17984972705312312338
20600515 1 18188473783941122605
20771845 171 17339000738470889607
21049683 271 18128250082806924005
21304253 13 18408037404117251009
21796203 349 17980726430329474995
22956985 138 17694500347604963619
23366157 5 18054787283360969703
23559900 14 18267030445198095411
25019877 29 16950841401745648838
38695281 34 9006790786229360700
392239 28 18341604919539846426
4144715 1 18049159171070395594
469060 322 18337941355433660408
6057620 51 18200869592334231518
633830 44 13984963822021610822
7399639 24 18041272266199092694
9962374 69 18119248360401649367
9981440 41 17259629669378044113

> <PUBCHEM_SHAPE_MULTIPOLES>
547.25
13.13
5.91
1.13
15.58
9.26
0.09
-12.16
1.69
-3.39
0.25
0.09
0.17
-0.39

> <PUBCHEM_SHAPE_SELFOVERLAP>
1200.124

> <PUBCHEM_SHAPE_VOLUME>
298.2

> <PUBCHEM_COORDINATE_TYPE>
2
5
10

$$$$

