12320
  -OEChem-06261206483D

 13 12  0     0  0  0  0  0  0999 V2000
   -0.0121   -0.6821   -0.0096 S   0  0  0  0  0  0  0  0  0  0  0  0
    1.3295    0.5382   -0.0096 C   0  0  0  0  0  0  0  0  0  0  0  0
    2.6791   -0.1539    0.0114 C   0  0  0  0  0  0  0  0  0  0  0  0
   -1.3693    0.3744    0.0021 C   0  0  0  0  0  0  0  0  0  0  0  0
   -2.6271   -0.0766    0.0057 C   0  0  0  0  0  0  0  0  0  0  0  0
    1.2508    1.1651   -0.9039 H   0  0  0  0  0  0  0  0  0  0  0  0
    1.2351    1.1836    0.8701 H   0  0  0  0  0  0  0  0  0  0  0  0
    2.8013   -0.7702    0.9087 H   0  0  0  0  0  0  0  0  0  0  0  0
    2.8189   -0.7895   -0.8697 H   0  0  0  0  0  0  0  0  0  0  0  0
    3.4807    0.5922    0.0113 H   0  0  0  0  0  0  0  0  0  0  0  0
   -1.1994    1.4464    0.0063 H   0  0  0  0  0  0  0  0  0  0  0  0
   -3.4565    0.6230    0.0130 H   0  0  0  0  0  0  0  0  0  0  0  0
   -2.8651   -1.1353    0.0016 H   0  0  0  0  0  0  0  0  0  0  0  0
  1  2  1  0  0  0  0
  1  4  1  0  0  0  0
  2  3  1  0  0  0  0
  2  6  1  0  0  0  0
  2  7  1  0  0  0  0
  3  8  1  0  0  0  0
  3  9  1  0  0  0  0
  3 10  1  0  0  0  0
  4  5  2  0  0  0  0
  4 11  1  0  0  0  0
  5 12  1  0  0  0  0
  5 13  1  0  0  0  0
M  END
> <PUBCHEM_COMPOUND_CID>
12320

> <PUBCHEM_CONFORMER_RMSD>
0.4

> <PUBCHEM_CONFORMER_DIVERSEORDER>
1
5
4
3
2

> <PUBCHEM_MMFF94_PARTIAL_CHARGES>
7
1 -0.33
11 0.15
12 0.15
13 0.15
2 0.23
4 -0.05
5 -0.3

> <PUBCHEM_EFFECTIVE_ROTOR_COUNT>
2

> <PUBCHEM_PHARMACOPHORE_FEATURES>
2
1 3 hydrophobe
1 5 hydrophobe

> <PUBCHEM_HEAVY_ATOM_COUNT>
5

> <PUBCHEM_ATOM_DEF_STEREO_COUNT>
0

> <PUBCHEM_ATOM_UDEF_STEREO_COUNT>
0

> <PUBCHEM_BOND_DEF_STEREO_COUNT>
0

> <PUBCHEM_BOND_UDEF_STEREO_COUNT>
0

> <PUBCHEM_ISOTOPIC_ATOM_COUNT>
0

> <PUBCHEM_COMPONENT_COUNT>
1

> <PUBCHEM_CACTVS_TAUTO_COUNT>
1

> <PUBCHEM_CONFORMER_ID>
0000302000000001

> <PUBCHEM_MMFF94_ENERGY>
1.2632

> <PUBCHEM_FEATURE_SELFOVERLAP>
10.149

> <PUBCHEM_SHAPE_FINGERPRINT>
14390081 3 18259989283711695785
16714656 1 18411981355792810741
20096714 4 18410856529643655248
29004967 10 7276831307162963990
5460574 1 9295290538424302048

> <PUBCHEM_SHAPE_MULTIPOLES>
106.75
4.05
0.83
0.63
0.17
0.05
0
-0.08
-0.02
0.05
0
0
0.01
0

> <PUBCHEM_SHAPE_SELFOVERLAP>
169.545

> <PUBCHEM_SHAPE_VOLUME>
76.1

> <PUBCHEM_COORDINATE_TYPE>
2
5
10

$$$$

