17395969
  -OEChem-06241222533D

 58 62  0     0  0  0  0  0  0999 V2000
    1.8289   -3.4176   -0.8989 O   0  0  0  0  0  0  0  0  0  0  0  0
    4.6639   -3.1821    0.5283 O   0  0  0  0  0  0  0  0  0  0  0  0
   -2.0813   -0.8589    0.5061 N   0  0  0  0  0  0  0  0  0  0  0  0
    0.5679   -1.5475   -0.3447 N   0  0  0  0  0  0  0  0  0  0  0  0
    3.1201   -0.1808   -0.4048 N   0  0  0  0  0  0  0  0  0  0  0  0
    4.3334    0.3075   -0.0953 N   0  0  0  0  0  0  0  0  0  0  0  0
   -0.9313   -0.6138    1.3878 C   0  0  0  0  0  0  0  0  0  0  0  0
   -1.8495   -2.0535   -0.3186 C   0  0  0  0  0  0  0  0  0  0  0  0
    0.3548   -0.4265    0.5793 C   0  0  0  0  0  0  0  0  0  0  0  0
   -0.5923   -1.8824   -1.1695 C   0  0  0  0  0  0  0  0  0  0  0  0
   -3.3075   -1.0054    1.2894 C   0  0  0  0  0  0  0  0  0  0  0  0
   -4.5357   -0.7142    0.4686 C   0  0  0  0  0  0  0  0  0  0  0  0
    1.7719   -2.2474   -0.5219 C   0  0  0  0  0  0  0  0  0  0  0  0
   -5.0803    0.5770    0.3758 C   0  0  0  0  0  0  0  0  0  0  0  0
    3.0103   -1.5302   -0.2387 C   0  0  0  0  0  0  0  0  0  0  0  0
   -5.1231   -1.7849   -0.2060 C   0  0  0  0  0  0  0  0  0  0  0  0
   -6.2370    0.7851   -0.4127 C   0  0  0  0  0  0  0  0  0  0  0  0
   -4.5025    1.6662    1.0482 C   0  0  0  0  0  0  0  0  0  0  0  0
   -6.2602   -1.5803   -0.9818 C   0  0  0  0  0  0  0  0  0  0  0  0
   -6.8147   -0.3041   -1.0853 C   0  0  0  0  0  0  0  0  0  0  0  0
    4.2371   -1.9541    0.2109 C   0  0  0  0  0  0  0  0  0  0  0  0
   -6.7817    2.0762   -0.5057 C   0  0  0  0  0  0  0  0  0  0  0  0
    5.0113   -0.7804    0.2800 C   0  0  0  0  0  0  0  0  0  0  0  0
   -5.0572    2.9422    0.9447 C   0  0  0  0  0  0  0  0  0  0  0  0
   -6.1947    3.1467    0.1693 C   0  0  0  0  0  0  0  0  0  0  0  0
    4.7000    1.6372   -0.1773 C   0  0  0  0  0  0  0  0  0  0  0  0
    5.9930    2.0268    0.1724 C   0  0  0  0  0  0  0  0  0  0  0  0
    3.7785    2.5895   -0.6130 C   0  0  0  0  0  0  0  0  0  0  0  0
    6.0200   -3.3109    0.9745 C   0  0  0  0  0  0  0  0  0  0  0  0
    6.3644    3.3686    0.0866 C   0  0  0  0  0  0  0  0  0  0  0  0
    4.1501    3.9313   -0.6988 C   0  0  0  0  0  0  0  0  0  0  0  0
    5.4430    4.3208   -0.3489 C   0  0  0  0  0  0  0  0  0  0  0  0
   -0.8036   -1.4484    2.0903 H   0  0  0  0  0  0  0  0  0  0  0  0
   -1.0956    0.2941    1.9804 H   0  0  0  0  0  0  0  0  0  0  0  0
   -2.6710   -2.2246   -1.0188 H   0  0  0  0  0  0  0  0  0  0  0  0
   -1.7481   -2.9495    0.3081 H   0  0  0  0  0  0  0  0  0  0  0  0
    0.3053    0.4906   -0.0197 H   0  0  0  0  0  0  0  0  0  0  0  0
    1.1919   -0.3412    1.2782 H   0  0  0  0  0  0  0  0  0  0  0  0
   -0.4004   -2.7919   -1.7484 H   0  0  0  0  0  0  0  0  0  0  0  0
   -0.7234   -1.0629   -1.8871 H   0  0  0  0  0  0  0  0  0  0  0  0
   -3.3793   -2.0170    1.7168 H   0  0  0  0  0  0  0  0  0  0  0  0
   -3.2999   -0.3702    2.1827 H   0  0  0  0  0  0  0  0  0  0  0  0
   -4.7225   -2.7918   -0.1235 H   0  0  0  0  0  0  0  0  0  0  0  0
   -3.6054    1.5778    1.6525 H   0  0  0  0  0  0  0  0  0  0  0  0
   -6.7200   -2.4149   -1.5030 H   0  0  0  0  0  0  0  0  0  0  0  0
   -7.7046   -0.1676   -1.6962 H   0  0  0  0  0  0  0  0  0  0  0  0
   -7.6701    2.2594   -1.1064 H   0  0  0  0  0  0  0  0  0  0  0  0
    6.0437   -0.7048    0.5939 H   0  0  0  0  0  0  0  0  0  0  0  0
   -4.5985    3.7776    1.4661 H   0  0  0  0  0  0  0  0  0  0  0  0
   -6.6253    4.1405    0.0883 H   0  0  0  0  0  0  0  0  0  0  0  0
    6.7437    1.3219    0.5160 H   0  0  0  0  0  0  0  0  0  0  0  0
    2.7632    2.3205   -0.8933 H   0  0  0  0  0  0  0  0  0  0  0  0
    6.1987   -4.3689    1.1883 H   0  0  0  0  0  0  0  0  0  0  0  0
    6.1826   -2.7478    1.8993 H   0  0  0  0  0  0  0  0  0  0  0  0
    6.7203   -3.0022    0.1914 H   0  0  0  0  0  0  0  0  0  0  0  0
    7.3710    3.6725    0.3587 H   0  0  0  0  0  0  0  0  0  0  0  0
    3.4330    4.6732   -1.0380 H   0  0  0  0  0  0  0  0  0  0  0  0
    5.7323    5.3655   -0.4157 H   0  0  0  0  0  0  0  0  0  0  0  0
  1 13  2  0  0  0  0
  2 21  1  0  0  0  0
  2 29  1  0  0  0  0
  3  7  1  0  0  0  0
  3  8  1  0  0  0  0
  3 11  1  0  0  0  0
  4  9  1  0  0  0  0
  4 10  1  0  0  0  0
  4 13  1  0  0  0  0
  5  6  1  0  0  0  0
  5 15  2  0  0  0  0
  6 23  1  0  0  0  0
  6 26  1  0  0  0  0
  7  9  1  0  0  0  0
  7 33  1  0  0  0  0
  7 34  1  0  0  0  0
  8 10  1  0  0  0  0
  8 35  1  0  0  0  0
  8 36  1  0  0  0  0
  9 37  1  0  0  0  0
  9 38  1  0  0  0  0
 10 39  1  0  0  0  0
 10 40  1  0  0  0  0
 11 12  1  0  0  0  0
 11 41  1  0  0  0  0
 11 42  1  0  0  0  0
 12 14  1  0  0  0  0
 12 16  2  0  0  0  0
 13 15  1  0  0  0  0
 14 17  1  0  0  0  0
 14 18  2  0  0  0  0
 15 21  1  0  0  0  0
 16 19  1  0  0  0  0
 16 43  1  0  0  0  0
 17 20  1  0  0  0  0
 17 22  2  0  0  0  0
 18 24  1  0  0  0  0
 18 44  1  0  0  0  0
 19 20  2  0  0  0  0
 19 45  1  0  0  0  0
 20 46  1  0  0  0  0
 21 23  2  0  0  0  0
 22 25  1  0  0  0  0
 22 47  1  0  0  0  0
 23 48  1  0  0  0  0
 24 25  2  0  0  0  0
 24 49  1  0  0  0  0
 25 50  1  0  0  0  0
 26 27  2  0  0  0  0
 26 28  1  0  0  0  0
 27 30  1  0  0  0  0
 27 51  1  0  0  0  0
 28 31  2  0  0  0  0
 28 52  1  0  0  0  0
 29 53  1  0  0  0  0
 29 54  1  0  0  0  0
 29 55  1  0  0  0  0
 30 32  2  0  0  0  0
 30 56  1  0  0  0  0
 31 32  1  0  0  0  0
 31 57  1  0  0  0  0
 32 58  1  0  0  0  0
M  END
> <PUBCHEM_COMPOUND_CID>
17395969

> <PUBCHEM_CONFORMER_RMSD>
1

> <PUBCHEM_CONFORMER_DIVERSEORDER>
1
50
123
30
177
73
26
93
197
99
71
92
172
205
37
60
53
94
170
166
195
206
8
150
66
124
202
201
35
87
65
125
4
159
61
178
142
173
163
115
186
135
164
183
184
57
148
156
21
75
97
133
151
180
52
106
191
129
27
141
160
49
82
200
114
16
78
23
29
100
42
155
136
18
77
59
152
74
131
79
76
48
89
153
196
22
188
118
19
103
199
145
198
190
203
174
128
24
137
85
31
96
41
162
102
127
158
105
83
38
88
157
130
140
146
154
55
182
108
119
117
84
39
169
80
17
15
90
113
120
111
175
179
33
112
81
72
139
176
116
58
3
189
193
12
110
70
147
34
149
144
165
121
44
11
5
194
98
56
185
207
62
10
187
104
138
46
64
181
101
161
168
20
9
126
192
45
32
51
91
43
143
13
54
6
28
36
95
25
68
109
107
40
69
204
67
86
132
171
47
122
63
14
167
134
2
7

> <PUBCHEM_MMFF94_PARTIAL_CHARGES>
43
1 -0.57
10 0.3
11 0.41
12 -0.14
13 0.72
15 0.2
16 -0.15
18 -0.15
19 -0.15
2 -0.34
20 -0.15
21 0.06
22 -0.15
23 -0.3
24 -0.15
25 -0.15
26 -0.02
27 -0.15
28 -0.15
29 0.28
3 -0.81
30 -0.15
31 -0.15
32 -0.15
4 -0.66
43 0.15
44 0.15
45 0.15
46 0.15
47 0.15
48 0.15
49 0.15
5 -0.71
50 0.15
51 0.15
52 0.15
56 0.15
57 0.15
58 0.15
6 0.59
7 0.27
8 0.27
9 0.3

> <PUBCHEM_EFFECTIVE_ROTOR_COUNT>
7.2

> <PUBCHEM_PHARMACOPHORE_FEATURES>
9
1 1 acceptor
1 2 acceptor
1 3 cation
1 5 acceptor
5 5 6 15 21 23 rings
6 12 14 16 17 19 20 rings
6 14 17 18 22 24 25 rings
6 26 27 28 30 31 32 rings
6 3 4 7 8 9 10 rings

> <PUBCHEM_HEAVY_ATOM_COUNT>
32

> <PUBCHEM_ATOM_DEF_STEREO_COUNT>
0

> <PUBCHEM_ATOM_UDEF_STEREO_COUNT>
0

> <PUBCHEM_BOND_DEF_STEREO_COUNT>
0

> <PUBCHEM_BOND_UDEF_STEREO_COUNT>
0

> <PUBCHEM_ISOTOPIC_ATOM_COUNT>
0

> <PUBCHEM_COMPONENT_COUNT>
1

> <PUBCHEM_CACTVS_TAUTO_COUNT>
1

> <PUBCHEM_CONFORMER_ID>
0109710100000001

> <PUBCHEM_MMFF94_ENERGY>
108.6493

> <PUBCHEM_FEATURE_SELFOVERLAP>
45.696

> <PUBCHEM_SHAPE_FINGERPRINT>
10050765 1 18339642227082244386
10411042 1 18196094576797122466
10595046 47 18408887296161137431
10673678 19 18334292041923057350
10835480 77 18342741788782528715
10864689 126 17405707464071503341
11101153 10 18410012096904466533
11135609 127 18409456890107192741
11476731 118 18264210223110573089
11991303 11 17022905605970289103
12422481 6 17632294553739969685
12728209 76 18040716982851744599
12821665 9 18335702707447923885
13690498 29 7059841557966381995
13878862 14 18341346538855461636
13911987 19 17458338620613500623
14556957 393 17313097609866712153
14930077 153 18335715966476633045
15082195 135 18260267473043700049
15183329 4 18334855056438170571
15289351 153 18336266757061198880
15320295 44 18333733516091945311
15419008 145 18271539654079498800
15439362 3 18266171722901869580
16758388 162 17985836058236430067
19053607 189 18336274474104885832
19302320 297 18193826279217267481
20058555 10 18410573959788530909
20511986 3 17968944076731843624
20715895 44 18409447003377275216
21298829 104 18338795611554981988
21315764 268 18271809076712792877
21792964 463 18199180690206107196
21814621 53 17775277287973070451
22122407 14 18411692192808816283
24204213 126 17543634592586663014
2748736 6 18410296869667402864
2838139 119 18341612681004659817
3388396 114 16388182544276112692
34797466 226 18040704879828979015
397830 11 17987507131301259835
4073 2 18130784504000842370
4144715 1 18130493150657178427
4169191 19 18342739572490175261
44555599 121 18336260249536710825
6371009 1 18188771781108525184
99344 41 18410294705141263120

> <PUBCHEM_SHAPE_MULTIPOLES>
626.88
21.51
5.25
1.06
9.47
3.26
-0.09
13.11
1.05
-8.4
0.35
0.76
-0.2
-2.26

> <PUBCHEM_SHAPE_SELFOVERLAP>
1376.639

> <PUBCHEM_SHAPE_VOLUME>
339.2

> <PUBCHEM_COORDINATE_TYPE>
2
5
10

$$$$

