51090912
  -OEChem-06241223003D

 47 49  0     1  0  0  0  0  0999 V2000
   -7.1649   -0.7544    0.1138 O   0  0  0  0  0  0  0  0  0  0  0  0
   -2.0849    0.2535    1.7808 O   0  0  0  0  0  0  0  0  0  0  0  0
    5.7311    0.2885   -0.1936 O   0  0  0  0  0  0  0  0  0  0  0  0
    2.7489   -1.3778    0.7069 O   0  0  0  0  0  0  0  0  0  0  0  0
   -2.3921   -0.5844   -0.3814 N   0  0  0  0  0  0  0  0  0  0  0  0
    3.0631    0.8200   -0.0676 N   0  0  0  0  0  0  0  0  0  0  0  0
   -4.8256   -0.6605   -0.2371 C   0  0  1  0  0  0  0  0  0  0  0  0
   -5.1760    0.2448    0.9237 C   0  0  0  0  0  0  0  0  0  0  0  0
   -3.5204   -1.4136   -0.0664 C   0  0  0  0  0  0  0  0  0  0  0  0
   -6.0485   -1.5594   -0.2955 C   0  0  0  0  0  0  0  0  0  0  0  0
   -6.6624    0.4472    0.7166 C   0  0  0  0  0  0  0  0  0  0  0  0
   -1.9404   -0.5993   -1.7809 C   0  0  0  0  0  0  0  0  0  0  0  0
   -1.7518    0.2015    0.5974 C   0  0  0  0  0  0  0  0  0  0  0  0
   -0.9015   -1.6759   -2.0168 C   0  0  0  0  0  0  0  0  0  0  0  0
   -0.6112    1.0442    0.2043 C   0  0  0  0  0  0  0  0  0  0  0  0
    0.6854    0.5324    0.2549 C   0  0  0  0  0  0  0  0  0  0  0  0
   -0.8274    2.3555   -0.2196 C   0  0  0  0  0  0  0  0  0  0  0  0
    1.7659    1.3316   -0.1185 C   0  0  0  0  0  0  0  0  0  0  0  0
    0.2531    3.1549   -0.5929 C   0  0  0  0  0  0  0  0  0  0  0  0
    1.5498    2.6429   -0.5426 C   0  0  0  0  0  0  0  0  0  0  0  0
    3.4701   -0.4611    0.3281 C   0  0  0  0  0  0  0  0  0  0  0  0
    4.9318   -0.7187    0.2464 C   0  0  0  0  0  0  0  0  0  0  0  0
    5.6798   -1.8338    0.5449 C   0  0  0  0  0  0  0  0  0  0  0  0
    7.0250   -1.4897    0.2709 C   0  0  0  0  0  0  0  0  0  0  0  0
    7.0031   -0.1887   -0.1757 C   0  0  0  0  0  0  0  0  0  0  0  0
   -4.8033   -0.0556   -1.1543 H   0  0  0  0  0  0  0  0  0  0  0  0
   -5.0032   -0.2604    1.8817 H   0  0  0  0  0  0  0  0  0  0  0  0
   -4.6274    1.1907    0.9296 H   0  0  0  0  0  0  0  0  0  0  0  0
   -3.4974   -2.2995   -0.7120 H   0  0  0  0  0  0  0  0  0  0  0  0
   -3.4216   -1.7748    0.9644 H   0  0  0  0  0  0  0  0  0  0  0  0
   -5.9739   -2.4026    0.4003 H   0  0  0  0  0  0  0  0  0  0  0  0
   -6.2319   -1.9524   -1.2999 H   0  0  0  0  0  0  0  0  0  0  0  0
   -6.8578    1.2741    0.0256 H   0  0  0  0  0  0  0  0  0  0  0  0
   -7.1945    0.6409    1.6521 H   0  0  0  0  0  0  0  0  0  0  0  0
   -1.5283    0.3734   -2.0610 H   0  0  0  0  0  0  0  0  0  0  0  0
   -2.8085   -0.7646   -2.4295 H   0  0  0  0  0  0  0  0  0  0  0  0
   -0.5783   -1.6646   -3.0626 H   0  0  0  0  0  0  0  0  0  0  0  0
   -1.3107   -2.6691   -1.8039 H   0  0  0  0  0  0  0  0  0  0  0  0
   -0.0164   -1.5493   -1.3911 H   0  0  0  0  0  0  0  0  0  0  0  0
    0.7847   -0.4853    0.6056 H   0  0  0  0  0  0  0  0  0  0  0  0
   -1.8338    2.7637   -0.2631 H   0  0  0  0  0  0  0  0  0  0  0  0
    0.0847    4.1758   -0.9230 H   0  0  0  0  0  0  0  0  0  0  0  0
    2.3823    3.2771   -0.8366 H   0  0  0  0  0  0  0  0  0  0  0  0
    3.7973    1.4621   -0.3591 H   0  0  0  0  0  0  0  0  0  0  0  0
    5.3074   -2.7787    0.9144 H   0  0  0  0  0  0  0  0  0  0  0  0
    7.9009   -2.1117    0.3846 H   0  0  0  0  0  0  0  0  0  0  0  0
    7.7662    0.5025   -0.5024 H   0  0  0  0  0  0  0  0  0  0  0  0
  1 10  1  0  0  0  0
  1 11  1  0  0  0  0
  2 13  2  0  0  0  0
  3 22  1  0  0  0  0
  3 25  1  0  0  0  0
  4 21  2  0  0  0  0
  5  9  1  0  0  0  0
  5 12  1  0  0  0  0
  5 13  1  0  0  0  0
  6 18  1  0  0  0  0
  6 21  1  0  0  0  0
  6 44  1  0  0  0  0
  7  8  1  0  0  0  0
  7  9  1  0  0  0  0
  7 10  1  0  0  0  0
  7 26  1  0  0  0  0
  8 11  1  0  0  0  0
  8 27  1  0  0  0  0
  8 28  1  0  0  0  0
  9 29  1  0  0  0  0
  9 30  1  0  0  0  0
 10 31  1  0  0  0  0
 10 32  1  0  0  0  0
 11 33  1  0  0  0  0
 11 34  1  0  0  0  0
 12 14  1  0  0  0  0
 12 35  1  0  0  0  0
 12 36  1  0  0  0  0
 13 15  1  0  0  0  0
 14 37  1  0  0  0  0
 14 38  1  0  0  0  0
 14 39  1  0  0  0  0
 15 16  2  0  0  0  0
 15 17  1  0  0  0  0
 16 18  1  0  0  0  0
 16 40  1  0  0  0  0
 17 19  2  0  0  0  0
 17 41  1  0  0  0  0
 18 20  2  0  0  0  0
 19 20  1  0  0  0  0
 19 42  1  0  0  0  0
 20 43  1  0  0  0  0
 21 22  1  0  0  0  0
 22 23  2  0  0  0  0
 23 24  1  0  0  0  0
 23 45  1  0  0  0  0
 24 25  2  0  0  0  0
 24 46  1  0  0  0  0
 25 47  1  0  0  0  0
M  END
> <PUBCHEM_COMPOUND_CID>
51090912

> <PUBCHEM_CONFORMER_RMSD>
1

> <PUBCHEM_CONFORMER_DIVERSEORDER>
1
40
33
133
58
23
156
117
107
138
106
79
96
37
170
125
105
52
152
111
93
113
142
154
61
110
161
14
104
175
130
91
99
62
84
109
67
144
49
148
74
71
98
70
165
83
95
16
124
56
140
54
92
32
81
73
135
4
90
89
101
47
26
63
139
171
65
68
28
164
97
141
82
127
168
118
53
134
143
157
119
131
10
80
34
115
102
75
39
163
7
43
132
38
72
145
120
46
77
31
147
122
166
146
87
162
158
153
60
150
167
19
57
59
8
55
48
76
149
42
69
24
21
18
88
20
108
123
114
22
94
9
155
173
159
126
116
29
86
112
2
50
136
169
11
137
174
44
27
100
15
12
6
160
51
30
13
85
41
36
172
66
5
35
64
128
45
3
129
103
78
17
151
121
25

> <PUBCHEM_MMFF94_PARTIAL_CHARGES>
30
1 -0.56
10 0.28
11 0.28
12 0.3
13 0.54
15 0.09
16 -0.15
17 -0.15
18 0.12
19 -0.15
2 -0.57
20 -0.15
21 0.71
22 0.05
23 -0.15
24 -0.15
25 -0.01
3 -0.28
4 -0.57
40 0.15
41 0.15
42 0.15
43 0.15
44 0.37
45 0.15
46 0.15
47 0.15
5 -0.66
6 -0.55
9 0.3

> <PUBCHEM_EFFECTIVE_ROTOR_COUNT>
9

> <PUBCHEM_PHARMACOPHORE_FEATURES>
8
1 1 acceptor
1 2 acceptor
1 3 acceptor
1 4 acceptor
1 6 donor
5 1 7 8 10 11 rings
5 3 22 23 24 25 rings
6 15 16 17 18 19 20 rings

> <PUBCHEM_HEAVY_ATOM_COUNT>
25

> <PUBCHEM_ATOM_DEF_STEREO_COUNT>
0

> <PUBCHEM_ATOM_UDEF_STEREO_COUNT>
1

> <PUBCHEM_BOND_DEF_STEREO_COUNT>
0

> <PUBCHEM_BOND_UDEF_STEREO_COUNT>
0

> <PUBCHEM_ISOTOPIC_ATOM_COUNT>
0

> <PUBCHEM_COMPONENT_COUNT>
1

> <PUBCHEM_CACTVS_TAUTO_COUNT>
2

> <PUBCHEM_CONFORMER_ID>
030B95E000000001

> <PUBCHEM_MMFF94_ENERGY>
60.529

> <PUBCHEM_FEATURE_SELFOVERLAP>
40.595

> <PUBCHEM_SHAPE_FINGERPRINT>
10 15 4967605079839507482
10299344 5 18411416211127211242
10622 236 17753910323871279351
11265709 11 18412827992779286808
11524674 6 16515407369384830487
12107183 9 18409161130765484177
12236239 1 18187644674310369785
12516196 113 18411983559512122696
12553582 1 18339380607791285166
12592606 108 18410578358267415855
12760667 363 18343017809061167809
13533116 47 18334859364364708984
13673619 4 17704356563209609661
13685833 64 18342458140584001866
14117953 113 18334855039037061199
14123256 10 10447927270210690515
14251764 18 18260828177087706919
14840074 17 18334296466024481774
15021287 119 18411133620144766789
15183329 4 18273502282075758371
15461852 350 16588032303808584821
15849732 13 18187085048640588583
16087824 20 18198344160244432253
16110190 28 18260834756882652590
17492 89 17980478967388496475
18006028 8 18413107268542584577
1813 80 18410000053541972820
18335252 98 12103841280960481633
18643901 69 18262229028179883454
19784866 240 18411416198368695465
20567600 254 7709459403018939297
20832881 197 18272086080802654241
21267235 1 18412542124150823896
21365058 113 16917343706669719765
21792961 116 17916881230235630582
23198884 109 15339121268378087340
23522609 53 18195777800376598956
23559900 14 18200031716601257913
23622692 88 18040154011133050101
2838139 119 6483351110238306395
3004659 81 17917996061969371256
335352 9 18412263922355924503
34797466 226 16200426967068659862
351380 3 18410579487506009618
4017518 198 17240477009750735710
4098825 35 16414930775776574118
4325135 7 18409727349479116076
437815 12 18201999919655614745
46194498 28 16917350299423010614
465052 167 18409725127905007095
5104073 3 17969212336215387579
5207 217 10447925075055108493
559249 180 18333450933272368427
6138700 20 18412262852524368027
7226269 152 16443345373559058187
7970288 3 18412831278677610570
9981440 41 14518312053353559435

> <PUBCHEM_SHAPE_MULTIPOLES>
481.05
17.94
2.43
1.16
4.77
1.77
-0.33
-10.65
3.49
0.85
-0.6
-0.83
-0.3
-1.15

> <PUBCHEM_SHAPE_SELFOVERLAP>
1021.996

> <PUBCHEM_SHAPE_VOLUME>
269.1

> <PUBCHEM_COORDINATE_TYPE>
2
5
10

$$$$

