10077
  -OEChem-06261204173D

 40 44  0     1  0  0  0  0  0999 V2000
    1.8098    0.9617    1.2611 O   0  0  0  0  0  0  0  0  0  0  0  0
    1.9527    2.9400   -0.6201 O   0  0  0  0  0  0  0  0  0  0  0  0
    4.0767   -0.7982    0.7358 O   0  0  0  0  0  0  0  0  0  0  0  0
   -3.2425   -0.8834    0.4638 N   0  0  1  0  0  0  0  0  0  0  0  0
   -0.4850    0.5142    0.6657 C   0  0  1  0  0  0  0  0  0  0  0  0
   -1.5010    0.6398   -0.4500 C   0  0  2  0  0  0  0  0  0  0  0  0
   -2.0829   -0.8212   -0.4330 C   0  0  2  0  0  0  0  0  0  0  0  0
    0.5667    1.6117    0.8501 C   0  0  2  0  0  0  0  0  0  0  0  0
   -1.3200    0.1604    1.9690 C   0  0  0  0  0  0  0  0  0  0  0  0
    0.4841   -0.5681    0.2006 C   0  0  0  0  0  0  0  0  0  0  0  0
   -0.9241    1.2177   -1.7462 C   0  0  0  0  0  0  0  0  0  0  0  0
   -1.2132   -1.7924   -1.2676 C   0  0  0  0  0  0  0  0  0  0  0  0
   -2.8942   -0.0823    1.7017 C   0  0  0  0  0  0  0  0  0  0  0  0
    0.2171   -1.6367   -0.6908 C   0  0  0  0  0  0  0  0  0  0  0  0
   -0.2636    2.5615   -1.4398 C   0  0  0  0  0  0  0  0  0  0  0  0
    0.8610    2.3997   -0.4350 C   0  0  0  0  0  0  0  0  0  0  0  0
    1.7562   -0.2583    0.6281 C   0  0  0  0  0  0  0  0  0  0  0  0
   -4.4718   -0.4351   -0.1699 C   0  0  0  0  0  0  0  0  0  0  0  0
    1.2853   -2.4621   -1.0284 C   0  0  0  0  0  0  0  0  0  0  0  0
    2.8182   -1.0775    0.3139 C   0  0  0  0  0  0  0  0  0  0  0  0
    2.5706   -2.1914   -0.5091 C   0  0  0  0  0  0  0  0  0  0  0  0
   -2.2668    1.3758   -0.1674 H   0  0  0  0  0  0  0  0  0  0  0  0
   -2.7005   -0.6935   -1.3406 H   0  0  0  0  0  0  0  0  0  0  0  0
    0.2765    2.3382    1.6168 H   0  0  0  0  0  0  0  0  0  0  0  0
   -1.2402    0.9707    2.7029 H   0  0  0  0  0  0  0  0  0  0  0  0
   -0.9125   -0.7458    2.4342 H   0  0  0  0  0  0  0  0  0  0  0  0
   -1.7308    1.3623   -2.4742 H   0  0  0  0  0  0  0  0  0  0  0  0
   -0.1884    0.5613   -2.2200 H   0  0  0  0  0  0  0  0  0  0  0  0
   -1.1970   -1.5743   -2.3422 H   0  0  0  0  0  0  0  0  0  0  0  0
   -1.5500   -2.8229   -1.1114 H   0  0  0  0  0  0  0  0  0  0  0  0
   -3.3187   -0.5942    2.5728 H   0  0  0  0  0  0  0  0  0  0  0  0
   -3.3699    0.9067    1.6571 H   0  0  0  0  0  0  0  0  0  0  0  0
   -0.9859    3.2783   -1.0345 H   0  0  0  0  0  0  0  0  0  0  0  0
    0.1488    2.9836   -2.3626 H   0  0  0  0  0  0  0  0  0  0  0  0
   -5.2968   -0.4801    0.5506 H   0  0  0  0  0  0  0  0  0  0  0  0
   -4.7587   -1.0977   -0.9951 H   0  0  0  0  0  0  0  0  0  0  0  0
   -4.4195    0.5930   -0.5457 H   0  0  0  0  0  0  0  0  0  0  0  0
    1.1433   -3.3057   -1.6974 H   0  0  0  0  0  0  0  0  0  0  0  0
    3.3902   -2.8503   -0.7894 H   0  0  0  0  0  0  0  0  0  0  0  0
    4.6800   -1.4832    0.3999 H   0  0  0  0  0  0  0  0  0  0  0  0
  1  8  1  0  0  0  0
  1 17  1  0  0  0  0
  2 16  2  0  0  0  0
  3 20  1  0  0  0  0
  3 40  1  0  0  0  0
  4  7  1  0  0  0  0
  4 13  1  0  0  0  0
  4 18  1  0  0  0  0
  5  6  1  0  0  0  0
  5  8  1  0  0  0  0
  5  9  1  0  0  0  0
  5 10  1  0  0  0  0
  6  7  1  0  0  0  0
  6 11  1  0  0  0  0
  6 22  1  0  0  0  0
  7 12  1  0  0  0  0
  7 23  1  0  0  0  0
  8 16  1  0  0  0  0
  8 24  1  0  0  0  0
  9 13  1  0  0  0  0
  9 25  1  0  0  0  0
  9 26  1  0  0  0  0
 10 14  2  0  0  0  0
 10 17  1  0  0  0  0
 11 15  1  0  0  0  0
 11 27  1  0  0  0  0
 11 28  1  0  0  0  0
 12 14  1  0  0  0  0
 12 29  1  0  0  0  0
 12 30  1  0  0  0  0
 13 31  1  0  0  0  0
 13 32  1  0  0  0  0
 14 19  1  0  0  0  0
 15 16  1  0  0  0  0
 15 33  1  0  0  0  0
 15 34  1  0  0  0  0
 17 20  2  0  0  0  0
 18 35  1  0  0  0  0
 18 36  1  0  0  0  0
 18 37  1  0  0  0  0
 19 21  2  0  0  0  0
 19 38  1  0  0  0  0
 20 21  1  0  0  0  0
 21 39  1  0  0  0  0
M  END
> <PUBCHEM_COMPOUND_CID>
10077

> <PUBCHEM_CONFORMER_RMSD>
0.6

> <PUBCHEM_CONFORMER_DIVERSEORDER>
1

> <PUBCHEM_MMFF94_PARTIAL_CHARGES>
21
1 -0.36
10 -0.14
12 0.14
13 0.27
14 -0.14
15 0.06
16 0.45
17 0.08
18 0.27
19 -0.15
2 -0.57
20 0.08
21 -0.15
3 -0.53
38 0.15
39 0.15
4 -0.81
40 0.45
5 0.14
7 0.27
8 0.34

> <PUBCHEM_EFFECTIVE_ROTOR_COUNT>
1.4

> <PUBCHEM_PHARMACOPHORE_FEATURES>
9
1 1 acceptor
1 2 acceptor
1 3 donor
1 4 cation
5 1 5 8 10 17 rings
6 10 14 17 19 20 21 rings
6 4 5 6 7 9 13 rings
6 5 6 7 10 12 14 rings
6 5 6 8 11 15 16 rings

> <PUBCHEM_HEAVY_ATOM_COUNT>
21

> <PUBCHEM_ATOM_DEF_STEREO_COUNT>
4

> <PUBCHEM_ATOM_UDEF_STEREO_COUNT>
0

> <PUBCHEM_BOND_DEF_STEREO_COUNT>
0

> <PUBCHEM_BOND_UDEF_STEREO_COUNT>
0

> <PUBCHEM_ISOTOPIC_ATOM_COUNT>
0

> <PUBCHEM_COMPONENT_COUNT>
1

> <PUBCHEM_CACTVS_TAUTO_COUNT>
9

> <PUBCHEM_CONFORMER_ID>
0000275D00000001

> <PUBCHEM_MMFF94_ENERGY>
128.1464

> <PUBCHEM_FEATURE_SELFOVERLAP>
47.042

> <PUBCHEM_SHAPE_FINGERPRINT>
10863032 1 18124032330396177771
10948715 1 17835794205933833029
12011746 2 18114460153715772543
12035758 1 18124880307349140745
12403814 3 18411709811054950906
12423570 1 10692255774198626385
12592029 89 17839728275749305717
13140716 1 18117290163554611210
13172582 1 18334582325783006210
13681431 1 18057863840721733381
141345 1 7419238781998307797
14142880 1 18044381762317630816
14181834 199 18339912719615517565
144361 1 18050881872986348784
14817 1 12426260820400150492
14840074 17 18199193880710419272
15375462 478 16950285143646380339
15881359 60 18045815439354038043
16945 1 18041289815234548459
17357779 13 18265629834402301845
17492 54 18126820760798737756
1813 80 18267848631313030222
19868273 325 18270397329388735366
20600515 1 17560218332391441719
21330990 113 17544737380750836657
22182313 1 18267327446154455476
2334 1 17829621564782678590
23419403 2 17899163721102951881
23557571 272 18127690641963258566
2748010 2 17973452288742679054
576247 118 18057862801260298913
5845 1 7703187784341212752
6442390 28 17043444813721307301
6786 2 15683287980455051541
7364860 26 18339357448905684053
81228 2 17768512134366008953

> <PUBCHEM_SHAPE_MULTIPOLES>
409.58
4.86
2.81
1.58
1.43
1.24
-0.17
-2.35
-1.17
-1.59
1.39
0.58
0.33
0.18

> <PUBCHEM_SHAPE_SELFOVERLAP>
923.005

> <PUBCHEM_SHAPE_VOLUME>
215

> <PUBCHEM_COORDINATE_TYPE>
2
5
10

$$$$

