17395968
  -OEChem-06241222533D

 70 72  0     1  0  0  0  0  0999 V2000
   -3.9841    0.3319    1.6304 S   0  0  0  0  0  0  0  0  0  0  0  0
    4.2028    0.7807   -1.6216 O   0  0  0  0  0  0  0  0  0  0  0  0
   -5.2952   -0.1997    1.9709 O   0  0  0  0  0  0  0  0  0  0  0  0
   -3.0177    0.6090    2.6826 O   0  0  0  0  0  0  0  0  0  0  0  0
    0.8526   -0.0564    0.9104 O   0  0  0  0  0  0  0  0  0  0  0  0
   -5.3801   -1.5556   -0.2574 O   0  0  0  0  0  0  0  0  0  0  0  0
   -4.1869    1.7444    0.6808 N   0  0  0  0  0  0  0  0  0  0  0  0
    3.4160   -0.3032    0.2830 N   0  0  0  0  0  0  0  0  0  0  0  0
    0.1712   -1.6508   -0.6704 N   0  0  0  0  0  0  0  0  0  0  0  0
    4.9951    1.4890    0.5181 C   0  0  0  0  0  0  0  0  0  0  0  0
    5.7361    2.5622   -0.2820 C   0  0  0  0  0  0  0  0  0  0  0  0
    5.9326    0.6392    1.3783 C   0  0  0  0  0  0  0  0  0  0  0  0
    6.9507    2.0179   -1.0321 C   0  0  0  0  0  0  0  0  0  0  0  0
    7.1568    0.1272    0.6199 C   0  0  0  0  0  0  0  0  0  0  0  0
    7.8872    1.2514   -0.1053 C   0  0  0  0  0  0  0  0  0  0  0  0
    4.1800    0.6283   -0.4030 C   0  0  0  0  0  0  0  0  0  0  0  0
   -2.9282    2.3273    0.1291 C   0  0  0  0  0  0  0  0  0  0  0  0
   -5.2692    1.6724   -0.3448 C   0  0  0  0  0  0  0  0  0  0  0  0
   -3.1999    3.7371   -0.3852 C   0  0  0  0  0  0  0  0  0  0  0  0
   -5.5738    3.0727   -0.8669 C   0  0  0  0  0  0  0  0  0  0  0  0
   -4.3202    3.7433   -1.4217 C   0  0  0  0  0  0  0  0  0  0  0  0
    2.5293   -1.2337   -0.3689 C   0  0  1  0  0  0  0  0  0  0  0  0
    2.8942   -2.7086   -0.0951 C   0  0  0  0  0  0  0  0  0  0  0  0
   -3.2412   -0.7436    0.4680 C   0  0  0  0  0  0  0  0  0  0  0  0
    1.0952   -0.9045    0.0562 C   0  0  0  0  0  0  0  0  0  0  0  0
    2.7133   -3.0548    1.3861 C   0  0  0  0  0  0  0  0  0  0  0  0
    4.3142   -3.0699   -0.5438 C   0  0  0  0  0  0  0  0  0  0  0  0
   -1.8507   -0.7718    0.3604 C   0  0  0  0  0  0  0  0  0  0  0  0
   -1.2394   -1.6223   -0.5607 C   0  0  0  0  0  0  0  0  0  0  0  0
   -4.0204   -1.5664   -0.3455 C   0  0  0  0  0  0  0  0  0  0  0  0
   -2.0185   -2.4450   -1.3742 C   0  0  0  0  0  0  0  0  0  0  0  0
   -3.4090   -2.4171   -1.2665 C   0  0  0  0  0  0  0  0  0  0  0  0
   -6.0927   -2.4306   -1.1292 C   0  0  0  0  0  0  0  0  0  0  0  0
    4.2787    1.9952    1.1796 H   0  0  0  0  0  0  0  0  0  0  0  0
    6.0828    3.3349    0.4170 H   0  0  0  0  0  0  0  0  0  0  0  0
    5.0653    3.0692   -0.9862 H   0  0  0  0  0  0  0  0  0  0  0  0
    5.4261   -0.2111    1.8465 H   0  0  0  0  0  0  0  0  0  0  0  0
    6.2887    1.2652    2.2078 H   0  0  0  0  0  0  0  0  0  0  0  0
    7.4961    2.8521   -1.4889 H   0  0  0  0  0  0  0  0  0  0  0  0
    6.6377    1.3657   -1.8547 H   0  0  0  0  0  0  0  0  0  0  0  0
    7.8421   -0.3651    1.3193 H   0  0  0  0  0  0  0  0  0  0  0  0
    6.8457   -0.6327   -0.1070 H   0  0  0  0  0  0  0  0  0  0  0  0
    8.7203    0.8366   -0.6838 H   0  0  0  0  0  0  0  0  0  0  0  0
    8.3208    1.9406    0.6298 H   0  0  0  0  0  0  0  0  0  0  0  0
   -2.1628    2.3828    0.9097 H   0  0  0  0  0  0  0  0  0  0  0  0
   -2.5506    1.7147   -0.6959 H   0  0  0  0  0  0  0  0  0  0  0  0
   -6.1845    1.2637    0.0943 H   0  0  0  0  0  0  0  0  0  0  0  0
   -4.9613    1.0327   -1.1782 H   0  0  0  0  0  0  0  0  0  0  0  0
   -2.2871    4.1550   -0.8241 H   0  0  0  0  0  0  0  0  0  0  0  0
   -3.4814    4.3853    0.4542 H   0  0  0  0  0  0  0  0  0  0  0  0
   -5.9810    3.6863   -0.0535 H   0  0  0  0  0  0  0  0  0  0  0  0
   -6.3414    3.0196   -1.6469 H   0  0  0  0  0  0  0  0  0  0  0  0
   -4.5486    4.7734   -1.7169 H   0  0  0  0  0  0  0  0  0  0  0  0
   -3.9892    3.2148   -2.3240 H   0  0  0  0  0  0  0  0  0  0  0  0
    2.5839   -1.0628   -1.4520 H   0  0  0  0  0  0  0  0  0  0  0  0
    3.3958   -0.2745    1.2979 H   0  0  0  0  0  0  0  0  0  0  0  0
    2.2137   -3.3565   -0.6611 H   0  0  0  0  0  0  0  0  0  0  0  0
    2.9412   -4.1127    1.5594 H   0  0  0  0  0  0  0  0  0  0  0  0
    1.6844   -2.8908    1.7209 H   0  0  0  0  0  0  0  0  0  0  0  0
    3.3803   -2.4681    2.0262 H   0  0  0  0  0  0  0  0  0  0  0  0
    5.0702   -2.5345    0.0394 H   0  0  0  0  0  0  0  0  0  0  0  0
    4.4596   -2.8231   -1.6006 H   0  0  0  0  0  0  0  0  0  0  0  0
    4.4968   -4.1429   -0.4219 H   0  0  0  0  0  0  0  0  0  0  0  0
   -1.2916   -0.1166    1.0108 H   0  0  0  0  0  0  0  0  0  0  0  0
    0.5282   -2.2860   -1.3800 H   0  0  0  0  0  0  0  0  0  0  0  0
   -1.5537   -3.1122   -2.0956 H   0  0  0  0  0  0  0  0  0  0  0  0
   -3.9469   -3.0839   -1.9313 H   0  0  0  0  0  0  0  0  0  0  0  0
   -5.9369   -2.1680   -2.1811 H   0  0  0  0  0  0  0  0  0  0  0  0
   -5.8658   -3.4819   -0.9215 H   0  0  0  0  0  0  0  0  0  0  0  0
   -7.1591   -2.2904   -0.9231 H   0  0  0  0  0  0  0  0  0  0  0  0
  1  3  2  0  0  0  0
  1  4  2  0  0  0  0
  1  7  1  0  0  0  0
  1 24  1  0  0  0  0
  2 16  2  0  0  0  0
  5 25  2  0  0  0  0
  6 30  1  0  0  0  0
  6 33  1  0  0  0  0
  7 17  1  0  0  0  0
  7 18  1  0  0  0  0
  8 16  1  0  0  0  0
  8 22  1  0  0  0  0
  8 56  1  0  0  0  0
  9 25  1  0  0  0  0
  9 29  1  0  0  0  0
  9 65  1  0  0  0  0
 10 11  1  0  0  0  0
 10 12  1  0  0  0  0
 10 16  1  0  0  0  0
 10 34  1  0  0  0  0
 11 13  1  0  0  0  0
 11 35  1  0  0  0  0
 11 36  1  0  0  0  0
 12 14  1  0  0  0  0
 12 37  1  0  0  0  0
 12 38  1  0  0  0  0
 13 15  1  0  0  0  0
 13 39  1  0  0  0  0
 13 40  1  0  0  0  0
 14 15  1  0  0  0  0
 14 41  1  0  0  0  0
 14 42  1  0  0  0  0
 15 43  1  0  0  0  0
 15 44  1  0  0  0  0
 17 19  1  0  0  0  0
 17 45  1  0  0  0  0
 17 46  1  0  0  0  0
 18 20  1  0  0  0  0
 18 47  1  0  0  0  0
 18 48  1  0  0  0  0
 19 21  1  0  0  0  0
 19 49  1  0  0  0  0
 19 50  1  0  0  0  0
 20 21  1  0  0  0  0
 20 51  1  0  0  0  0
 20 52  1  0  0  0  0
 21 53  1  0  0  0  0
 21 54  1  0  0  0  0
 22 23  1  0  0  0  0
 22 25  1  0  0  0  0
 22 55  1  0  0  0  0
 23 26  1  0  0  0  0
 23 27  1  0  0  0  0
 23 57  1  0  0  0  0
 24 28  1  0  0  0  0
 24 30  2  0  0  0  0
 26 58  1  0  0  0  0
 26 59  1  0  0  0  0
 26 60  1  0  0  0  0
 27 61  1  0  0  0  0
 27 62  1  0  0  0  0
 27 63  1  0  0  0  0
 28 29  2  0  0  0  0
 28 64  1  0  0  0  0
 29 31  1  0  0  0  0
 30 32  1  0  0  0  0
 31 32  2  0  0  0  0
 31 66  1  0  0  0  0
 32 67  1  0  0  0  0
 33 68  1  0  0  0  0
 33 69  1  0  0  0  0
 33 70  1  0  0  0  0
M  END
> <PUBCHEM_COMPOUND_CID>
17395968

> <PUBCHEM_CONFORMER_RMSD>
1.2

> <PUBCHEM_CONFORMER_DIVERSEORDER>
5
122
49
98
119
130
50
52
24
34
72
45
105
6
17
25
10
32
107
93
80
37
117
67
19
138
78
94
118
27
116
120
103
132
41
46
106
83
102
58
137
74
75
99
68
82
127
8
90
56
43
96
60
109
12
131
92
97
61
64
95
115
139
63
112
135
59
15
26
71
13
125
38
62
53
55
42
108
54
77
114
104
21
28
100
76
123
66
86
39
84
136
35
44
121
51
23
73
65
31
2
85
81
48
126
129
88
113
16
89
128
69
70
91
9
3
22
57
7
11
79
133
29
111
87
101
4
20
36
30
33
134
124
110
40
1
47
14
18

> <PUBCHEM_MMFF94_PARTIAL_CHARGES>
27
1 1.45
10 0.06
16 0.57
17 0.36
18 0.36
2 -0.57
22 0.36
24 -0.01
25 0.57
28 -0.15
29 0.12
3 -0.65
30 0.08
31 -0.15
32 -0.15
33 0.28
4 -0.65
5 -0.57
56 0.37
6 -0.36
64 0.15
65 0.37
66 0.15
67 0.15
7 -0.85
8 -0.73
9 -0.55

> <PUBCHEM_EFFECTIVE_ROTOR_COUNT>
12.4

> <PUBCHEM_PHARMACOPHORE_FEATURES>
11
1 2 acceptor
1 3 acceptor
1 4 acceptor
1 5 acceptor
1 6 acceptor
1 8 donor
1 9 donor
3 23 26 27 hydrophobe
6 10 11 12 13 14 15 rings
6 24 28 29 30 31 32 rings
6 7 17 18 19 20 21 rings

> <PUBCHEM_HEAVY_ATOM_COUNT>
33

> <PUBCHEM_ATOM_DEF_STEREO_COUNT>
0

> <PUBCHEM_ATOM_UDEF_STEREO_COUNT>
1

> <PUBCHEM_BOND_DEF_STEREO_COUNT>
0

> <PUBCHEM_BOND_UDEF_STEREO_COUNT>
0

> <PUBCHEM_ISOTOPIC_ATOM_COUNT>
0

> <PUBCHEM_COMPONENT_COUNT>
1

> <PUBCHEM_CACTVS_TAUTO_COUNT>
4

> <PUBCHEM_CONFORMER_ID>
0109710000000005

> <PUBCHEM_MMFF94_ENERGY>
67.0136

> <PUBCHEM_FEATURE_SELFOVERLAP>
55.846

> <PUBCHEM_SHAPE_FINGERPRINT>
10050765 1 18338803415557869326
10290309 65 18187358878523440607
10670039 82 18334013848391102852
11007060 377 18411415107442513859
12422481 6 18273220833032622180
13583140 156 17985250018739545363
13911987 19 17967817197646460129
14118638 360 18260267438668520399
14856354 85 18265613178319304470
15183329 4 18335136441684752500
15513586 35 17981019939403765033
15575132 122 18409728448252220101
19611394 137 17912075058852892947
20511986 3 18187938287149969786
21033648 144 18335413586886373679
21033648 29 17988351680647838051
21049683 271 18045224843730347703
21927370 108 18124023534842077051
23559900 14 17314498434746076654
2838139 119 18340768144473976000
3459 39 18114758074675836050
3552219 110 17897152530438483955
44249763 50 18115040627331070024
497634 4 17603856785441665131
5104073 3 17988081204834738747
5372103 7 17558570238394684157
563151 97 18413394219903622342
6086070 43 17458920283791866882
7237137 82 18041000618418284175

> <PUBCHEM_SHAPE_MULTIPOLES>
638.68
19.81
4.47
1.54
22.48
1.47
0.62
10.67
-0.92
-3.55
-1.66
-1.24
-0.01
-0.71

> <PUBCHEM_SHAPE_SELFOVERLAP>
1306.728

> <PUBCHEM_SHAPE_VOLUME>
369.4

> <PUBCHEM_COORDINATE_TYPE>
2
5
10

$$$$

