6100
  -OEChem-06261201062D

 48 48  0     0  0  0  0  0  0999 V2000
    4.8059    2.6200    0.0000 Br  0  0  0  0  0  0  0  0  0  0  0  0
    1.4030    4.9300    0.0000 S   0  0  0  0  0  0  0  0  0  0  0  0
    1.4030    5.9300    0.0000 O   0  5  0  0  0  0  0  0  0  0  0  0
    2.4030    4.9300    0.0000 O   0  0  0  0  0  0  0  0  0  0  0  0
    0.4030    4.9300    0.0000 O   0  0  0  0  0  0  0  0  0  0  0  0
    7.4040    4.1200    0.0000 N   0  3  0  0  0  0  0  0  0  0  0  0
    6.5380    3.6200    0.0000 C   0  0  0  0  0  0  0  0  0  0  0  0
    8.2700    4.6200    0.0000 C   0  0  0  0  0  0  0  0  0  0  0  0
    6.9040    4.9860    0.0000 C   0  0  0  0  0  0  0  0  0  0  0  0
    7.9040    3.2540    0.0000 C   0  0  0  0  0  0  0  0  0  0  0  0
    6.5380    2.6200    0.0000 C   0  0  0  0  0  0  0  0  0  0  0  0
    8.2700    5.6200    0.0000 C   0  0  0  0  0  0  0  0  0  0  0  0
    5.6720    2.1200    0.0000 C   0  0  0  0  0  0  0  0  0  0  0  0
    7.4040    2.1200    0.0000 C   0  0  0  0  0  0  0  0  0  0  0  0
    5.6720    1.1200    0.0000 C   0  0  0  0  0  0  0  0  0  0  0  0
    7.4040    1.1200    0.0000 C   0  0  0  0  0  0  0  0  0  0  0  0
    6.5380    0.6200    0.0000 C   0  0  0  0  0  0  0  0  0  0  0  0
    1.4030    3.9300    0.0000 C   0  0  0  0  0  0  0  0  0  0  0  0
    1.4030    1.9300    0.0000 C   0  0  0  0  0  0  0  0  0  0  0  0
    0.5369    3.4300    0.0000 C   0  0  0  0  0  0  0  0  0  0  0  0
    2.2690    3.4300    0.0000 C   0  0  0  0  0  0  0  0  0  0  0  0
    0.5369    2.4300    0.0000 C   0  0  0  0  0  0  0  0  0  0  0  0
    2.2690    2.4300    0.0000 C   0  0  0  0  0  0  0  0  0  0  0  0
    1.4030    0.9300    0.0000 C   0  0  0  0  0  0  0  0  0  0  0  0
    6.3259    4.2026    0.0000 H   0  0  0  0  0  0  0  0  0  0  0  0
    5.9274    3.5123    0.0000 H   0  0  0  0  0  0  0  0  0  0  0  0
    8.4821    4.0374    0.0000 H   0  0  0  0  0  0  0  0  0  0  0  0
    8.8806    4.7277    0.0000 H   0  0  0  0  0  0  0  0  0  0  0  0
    7.4409    5.2960    0.0000 H   0  0  0  0  0  0  0  0  0  0  0  0
    6.5940    5.5230    0.0000 H   0  0  0  0  0  0  0  0  0  0  0  0
    6.3671    4.6760    0.0000 H   0  0  0  0  0  0  0  0  0  0  0  0
    7.3671    2.9440    0.0000 H   0  0  0  0  0  0  0  0  0  0  0  0
    8.2140    2.7170    0.0000 H   0  0  0  0  0  0  0  0  0  0  0  0
    8.4409    3.5640    0.0000 H   0  0  0  0  0  0  0  0  0  0  0  0
    8.8900    5.6200    0.0000 H   0  0  0  0  0  0  0  0  0  0  0  0
    8.2700    6.2400    0.0000 H   0  0  0  0  0  0  0  0  0  0  0  0
    7.6500    5.6200    0.0000 H   0  0  0  0  0  0  0  0  0  0  0  0
    7.9409    2.4300    0.0000 H   0  0  0  0  0  0  0  0  0  0  0  0
    5.1350    0.8100    0.0000 H   0  0  0  0  0  0  0  0  0  0  0  0
    7.9409    0.8100    0.0000 H   0  0  0  0  0  0  0  0  0  0  0  0
    6.5380    0.0000    0.0000 H   0  0  0  0  0  0  0  0  0  0  0  0
    0.0000    3.7400    0.0000 H   0  0  0  0  0  0  0  0  0  0  0  0
    2.8059    3.7400    0.0000 H   0  0  0  0  0  0  0  0  0  0  0  0
    0.0000    2.1200    0.0000 H   0  0  0  0  0  0  0  0  0  0  0  0
    2.8059    2.1200    0.0000 H   0  0  0  0  0  0  0  0  0  0  0  0
    0.7830    0.9300    0.0000 H   0  0  0  0  0  0  0  0  0  0  0  0
    1.4030    0.3100    0.0000 H   0  0  0  0  0  0  0  0  0  0  0  0
    2.0230    0.9300    0.0000 H   0  0  0  0  0  0  0  0  0  0  0  0
  1 13  1  0  0  0  0
  2  3  1  0  0  0  0
  2  4  2  0  0  0  0
  2  5  2  0  0  0  0
  2 18  1  0  0  0  0
  6  7  1  0  0  0  0
  6  8  1  0  0  0  0
  6  9  1  0  0  0  0
  6 10  1  0  0  0  0
  7 11  1  0  0  0  0
  7 25  1  0  0  0  0
  7 26  1  0  0  0  0
  8 12  1  0  0  0  0
  8 27  1  0  0  0  0
  8 28  1  0  0  0  0
  9 29  1  0  0  0  0
  9 30  1  0  0  0  0
  9 31  1  0  0  0  0
 10 32  1  0  0  0  0
 10 33  1  0  0  0  0
 10 34  1  0  0  0  0
 11 13  1  0  0  0  0
 11 14  2  0  0  0  0
 12 35  1  0  0  0  0
 12 36  1  0  0  0  0
 12 37  1  0  0  0  0
 13 15  2  0  0  0  0
 14 16  1  0  0  0  0
 14 38  1  0  0  0  0
 15 17  1  0  0  0  0
 15 39  1  0  0  0  0
 16 17  2  0  0  0  0
 16 40  1  0  0  0  0
 17 41  1  0  0  0  0
 18 20  2  0  0  0  0
 18 21  1  0  0  0  0
 19 22  2  0  0  0  0
 19 23  1  0  0  0  0
 19 24  1  0  0  0  0
 20 22  1  0  0  0  0
 20 42  1  0  0  0  0
 21 23  2  0  0  0  0
 21 43  1  0  0  0  0
 22 44  1  0  0  0  0
 23 45  1  0  0  0  0
 24 46  1  0  0  0  0
 24 47  1  0  0  0  0
 24 48  1  0  0  0  0
M  CHG  2   3  -1   6   1
M  END
> <PUBCHEM_COMPOUND_CID>
6100

> <PUBCHEM_COMPOUND_CANONICALIZED>
1

> <PUBCHEM_CACTVS_COMPLEXITY>
349

> <PUBCHEM_CACTVS_HBOND_ACCEPTOR>
3

> <PUBCHEM_CACTVS_HBOND_DONOR>
0

> <PUBCHEM_CACTVS_ROTATABLE_BOND>
3

> <PUBCHEM_CACTVS_SUBSKEYS>
AAADceB6MABAEAAAAAAAAAAAAAAAAAAAAAAwYAAAAAAAAAABQAAAHARAAAABrADBWAQyAYMAAAKAAiBCAHDCAEAgAAQIiBgIBKgIICKAkRGEIAhggACIihcQgAAOEAAAAAAAgAAgAAAAAAEAAAAAAAAAAA==

> <PUBCHEM_IUPAC_OPENEYE_NAME>
(2-bromophenyl)methyl-ethyl-dimethyl-ammonium; 4-methylbenzenesulfonate

> <PUBCHEM_IUPAC_CAS_NAME>
(2-bromophenyl)methyl-ethyl-dimethylammonium; 4-methylbenzenesulfonate

> <PUBCHEM_IUPAC_NAME>
(2-bromophenyl)methyl-ethyl-dimethylazanium; 4-methylbenzenesulfonate

> <PUBCHEM_IUPAC_SYSTEMATIC_NAME>
(2-bromophenyl)methyl-ethyl-dimethyl-azanium; 4-methylbenzenesulfonate

> <PUBCHEM_IUPAC_TRADITIONAL_NAME>
(2-bromobenzyl)-ethyl-dimethyl-ammonium tosylate

> <PUBCHEM_IUPAC_INCHI>
InChI=1S/C11H17BrN.C7H8O3S/c1-4-13(2,3)9-10-7-5-6-8-11(10)12;1-6-2-4-7(5-3-6)11(8,9)10/h5-8H,4,9H2,1-3H3;2-5H,1H3,(H,8,9,10)/q+1;/p-1

> <PUBCHEM_IUPAC_INCHIKEY>
KVWNWTZZBKCOPM-UHFFFAOYSA-M

> <PUBCHEM_EXACT_MASS>
413.066027

> <PUBCHEM_MOLECULAR_FORMULA>
C18H24BrNO3S

> <PUBCHEM_MOLECULAR_WEIGHT>
414.35706

> <PUBCHEM_OPENEYE_CAN_SMILES>
CC[N+](C)(C)CC1=CC=CC=C1Br.CC1=CC=C(C=C1)S(=O)(=O)[O-]

> <PUBCHEM_OPENEYE_ISO_SMILES>
CC[N+](C)(C)CC1=CC=CC=C1Br.CC1=CC=C(C=C1)S(=O)(=O)[O-]

> <PUBCHEM_CACTVS_TPSA>
65.6

> <PUBCHEM_MONOISOTOPIC_WEIGHT>
413.066027

> <PUBCHEM_TOTAL_CHARGE>
0

> <PUBCHEM_HEAVY_ATOM_COUNT>
24

> <PUBCHEM_ATOM_DEF_STEREO_COUNT>
0

> <PUBCHEM_ATOM_UDEF_STEREO_COUNT>
0

> <PUBCHEM_BOND_DEF_STEREO_COUNT>
0

> <PUBCHEM_BOND_UDEF_STEREO_COUNT>
0

> <PUBCHEM_ISOTOPIC_ATOM_COUNT>
0

> <PUBCHEM_COMPONENT_COUNT>
2

> <PUBCHEM_CACTVS_TAUTO_COUNT>
1

> <PUBCHEM_COORDINATE_TYPE>
1
5
255

> <PUBCHEM_BONDANNOTATIONS>
11  13  8
11  14  8
13  15  8
14  16  8
15  17  8
16  17  8
18  20  8
18  21  8
19  22  8
19  23  8
20  22  8
21  23  8

$$$$

