11271
  -OEChem-06261205283D

 22 21  0     0  0  0  0  0  0999 V2000
    0.0001   -0.0021   -1.5643 O   0  0  0  0  0  0  0  0  0  0  0  0
    1.2960    0.1101    0.4689 C   0  0  0  0  0  0  0  0  0  0  0  0
   -1.2959   -0.1088    0.4689 C   0  0  0  0  0  0  0  0  0  0  0  0
    0.0000   -0.0003   -0.3324 C   0  0  0  0  0  0  0  0  0  0  0  0
    2.3266    0.9538   -0.2755 C   0  0  0  0  0  0  0  0  0  0  0  0
    1.8343   -1.2864    0.7554 C   0  0  0  0  0  0  0  0  0  0  0  0
   -2.3264   -0.9544   -0.2736 C   0  0  0  0  0  0  0  0  0  0  0  0
   -1.8347    1.2882    0.7526 C   0  0  0  0  0  0  0  0  0  0  0  0
    1.0698    0.6150    1.4153 H   0  0  0  0  0  0  0  0  0  0  0  0
   -1.0696   -0.6116    1.4164 H   0  0  0  0  0  0  0  0  0  0  0  0
    2.6231    0.4860   -1.2209 H   0  0  0  0  0  0  0  0  0  0  0  0
    3.2276    1.0908    0.3313 H   0  0  0  0  0  0  0  0  0  0  0  0
    1.9210    1.9440   -0.5095 H   0  0  0  0  0  0  0  0  0  0  0  0
    1.1031   -1.8830    1.3111 H   0  0  0  0  0  0  0  0  0  0  0  0
    2.0574   -1.8245   -0.1727 H   0  0  0  0  0  0  0  0  0  0  0  0
    2.7519   -1.2369    1.3508 H   0  0  0  0  0  0  0  0  0  0  0  0
   -1.9206   -1.9452   -0.5053 H   0  0  0  0  0  0  0  0  0  0  0  0
   -3.2275   -1.0902    0.3336 H   0  0  0  0  0  0  0  0  0  0  0  0
   -2.6231   -0.4889   -1.2199 H   0  0  0  0  0  0  0  0  0  0  0  0
   -2.0580    1.8242   -0.1766 H   0  0  0  0  0  0  0  0  0  0  0  0
   -2.7521    1.2396    1.3482 H   0  0  0  0  0  0  0  0  0  0  0  0
   -1.1035    1.8861    1.3071 H   0  0  0  0  0  0  0  0  0  0  0  0
  1  4  2  0  0  0  0
  2  4  1  0  0  0  0
  2  5  1  0  0  0  0
  2  6  1  0  0  0  0
  2  9  1  0  0  0  0
  3  4  1  0  0  0  0
  3  7  1  0  0  0  0
  3  8  1  0  0  0  0
  3 10  1  0  0  0  0
  5 11  1  0  0  0  0
  5 12  1  0  0  0  0
  5 13  1  0  0  0  0
  6 14  1  0  0  0  0
  6 15  1  0  0  0  0
  6 16  1  0  0  0  0
  7 17  1  0  0  0  0
  7 18  1  0  0  0  0
  7 19  1  0  0  0  0
  8 20  1  0  0  0  0
  8 21  1  0  0  0  0
  8 22  1  0  0  0  0
M  END
> <PUBCHEM_COMPOUND_CID>
11271

> <PUBCHEM_CONFORMER_RMSD>
0.4

> <PUBCHEM_CONFORMER_DIVERSEORDER>
1
12
8
6
3
4
11
10
9
2
13
5
7

> <PUBCHEM_MMFF94_PARTIAL_CHARGES>
4
1 -0.57
2 0.06
3 0.06
4 0.45

> <PUBCHEM_EFFECTIVE_ROTOR_COUNT>
2

> <PUBCHEM_PHARMACOPHORE_FEATURES>
3
1 1 acceptor
3 2 5 6 hydrophobe
3 3 7 8 hydrophobe

> <PUBCHEM_HEAVY_ATOM_COUNT>
8

> <PUBCHEM_ATOM_DEF_STEREO_COUNT>
0

> <PUBCHEM_ATOM_UDEF_STEREO_COUNT>
0

> <PUBCHEM_BOND_DEF_STEREO_COUNT>
0

> <PUBCHEM_BOND_UDEF_STEREO_COUNT>
0

> <PUBCHEM_ISOTOPIC_ATOM_COUNT>
0

> <PUBCHEM_COMPONENT_COUNT>
1

> <PUBCHEM_CACTVS_TAUTO_COUNT>
2

> <PUBCHEM_CONFORMER_ID>
00002C0700000001

> <PUBCHEM_MMFF94_ENERGY>
7.9685

> <PUBCHEM_FEATURE_SELFOVERLAP>
15.223

> <PUBCHEM_SHAPE_FINGERPRINT>
10857977 72 16878229641167900019
137420 1 15954966144931076829
16714656 1 17023460824602475741
21040471 1 16515687779198802484
21922407 69 18411982442366763336
23552423 10 18340768229613894066
24536 1 18338536216851418746
29004967 10 16128650847157947280
5084963 1 16443339849603328774

> <PUBCHEM_SHAPE_MULTIPOLES>
158.77
3.32
1.27
1.07
0
0
-0.25
0
0.34
0
0.24
0
0
-0.6

> <PUBCHEM_SHAPE_SELFOVERLAP>
289.077

> <PUBCHEM_SHAPE_VOLUME>
103.7

> <PUBCHEM_COORDINATE_TYPE>
2
5
10

$$$$

