11833
  -OEChem-06261206103D

 20 21  0     0  0  0  0  0  0999 V2000
   -0.8938   -1.4626    0.0000 O   0  0  0  0  0  0  0  0  0  0  0  0
   -3.1747   -1.3016   -0.0002 O   0  0  0  0  0  0  0  0  0  0  0  0
    0.4480    0.5787   -0.0001 C   0  0  0  0  0  0  0  0  0  0  0  0
   -0.7932    1.3646    0.0000 C   0  0  0  0  0  0  0  0  0  0  0  0
    0.3575   -0.8140   -0.0003 C   0  0  0  0  0  0  0  0  0  0  0  0
    1.7291    1.1467    0.0002 C   0  0  0  0  0  0  0  0  0  0  0  0
   -1.9690    0.7210    0.0003 C   0  0  0  0  0  0  0  0  0  0  0  0
    1.4867   -1.6348   -0.0003 C   0  0  0  0  0  0  0  0  0  0  0  0
   -0.7294    2.8641   -0.0004 C   0  0  0  0  0  0  0  0  0  0  0  0
    2.8706    0.3369    0.0003 C   0  0  0  0  0  0  0  0  0  0  0  0
    2.7493   -1.0517    0.0000 C   0  0  0  0  0  0  0  0  0  0  0  0
   -2.0811   -0.7474    0.0005 C   0  0  0  0  0  0  0  0  0  0  0  0
    1.8696    2.2245    0.0005 H   0  0  0  0  0  0  0  0  0  0  0  0
   -2.9059    1.2700    0.0003 H   0  0  0  0  0  0  0  0  0  0  0  0
    1.3873   -2.7161   -0.0003 H   0  0  0  0  0  0  0  0  0  0  0  0
   -0.2093    3.2311   -0.8917 H   0  0  0  0  0  0  0  0  0  0  0  0
   -0.2096    3.2315    0.8909 H   0  0  0  0  0  0  0  0  0  0  0  0
   -1.7278    3.3156   -0.0007 H   0  0  0  0  0  0  0  0  0  0  0  0
    3.8562    0.7939    0.0006 H   0  0  0  0  0  0  0  0  0  0  0  0
    3.6381   -1.6755    0.0000 H   0  0  0  0  0  0  0  0  0  0  0  0
  1  5  1  0  0  0  0
  1 12  1  0  0  0  0
  2 12  2  0  0  0  0
  3  4  1  0  0  0  0
  3  5  1  0  0  0  0
  3  6  2  0  0  0  0
  4  7  2  0  0  0  0
  4  9  1  0  0  0  0
  5  8  2  0  0  0  0
  6 10  1  0  0  0  0
  6 13  1  0  0  0  0
  7 12  1  0  0  0  0
  7 14  1  0  0  0  0
  8 11  1  0  0  0  0
  8 15  1  0  0  0  0
  9 16  1  0  0  0  0
  9 17  1  0  0  0  0
  9 18  1  0  0  0  0
 10 11  2  0  0  0  0
 10 19  1  0  0  0  0
 11 20  1  0  0  0  0
M  END
> <PUBCHEM_COMPOUND_CID>
11833

> <PUBCHEM_CONFORMER_RMSD>
0.4

> <PUBCHEM_CONFORMER_DIVERSEORDER>
1

> <PUBCHEM_MMFF94_PARTIAL_CHARGES>
17
1 -0.23
10 -0.15
11 -0.15
12 0.71
13 0.15
14 0.15
15 0.15
19 0.15
2 -0.57
20 0.15
3 0.03
4 -0.17
5 0.08
6 -0.15
7 -0.14
8 -0.15
9 0.14

> <PUBCHEM_EFFECTIVE_ROTOR_COUNT>
0

> <PUBCHEM_PHARMACOPHORE_FEATURES>
3
1 2 acceptor
6 1 3 4 5 7 12 rings
6 3 5 6 8 10 11 rings

> <PUBCHEM_HEAVY_ATOM_COUNT>
12

> <PUBCHEM_ATOM_DEF_STEREO_COUNT>
0

> <PUBCHEM_ATOM_UDEF_STEREO_COUNT>
0

> <PUBCHEM_BOND_DEF_STEREO_COUNT>
0

> <PUBCHEM_BOND_UDEF_STEREO_COUNT>
0

> <PUBCHEM_ISOTOPIC_ATOM_COUNT>
0

> <PUBCHEM_COMPONENT_COUNT>
1

> <PUBCHEM_CACTVS_TAUTO_COUNT>
1

> <PUBCHEM_CONFORMER_ID>
00002E3900000001

> <PUBCHEM_MMFF94_ENERGY>
37.9293

> <PUBCHEM_FEATURE_SELFOVERLAP>
15.25

> <PUBCHEM_SHAPE_FINGERPRINT>
10967382 1 18194402186585178117
11206711 2 18339920519197025476
12032990 46 18339072705422041723
12423570 1 7753786227130158036
12897270 3 18410857676457893686
13380535 76 17904771324867587453
161256 15 18335422331286612704
16945 1 18194402414339770596
193761 8 18050287273456015335
19973954 147 18338234989425576204
20201158 50 18341898450326434139
20871998 184 18187366574967015847
21040471 1 17906452478257161632
21501502 16 18339357586560577472
2334 1 18410855430226985985
23463225 33 18411980251938729806
23552423 10 18272366499032533566
23559900 14 17541095807500348166
241688 4 18411418423077476041
2748010 2 18410015424744394197
5084963 1 18260266382222064474

> <PUBCHEM_SHAPE_MULTIPOLES>
235.22
3.97
2.34
0.6
0.48
1.08
0
-1.22
0
-0.88
0
0.03
0.03
0

> <PUBCHEM_SHAPE_SELFOVERLAP>
510.522

> <PUBCHEM_SHAPE_VOLUME>
128.8

> <PUBCHEM_COORDINATE_TYPE>
2
5
10

$$$$

