13179
  -OEChem-06261207513D

 19 18  0     0  0  0  0  0  0999 V2000
    1.6453   -1.4707   -0.0023 O   0  0  0  0  0  0  0  0  0  0  0  0
   -2.3962    1.4076   -0.0024 O   0  0  0  0  0  0  0  0  0  0  0  0
    0.0546    0.2680   -0.0004 N   0  0  0  0  0  0  0  0  0  0  0  0
   -3.4746   -0.6514    0.0010 N   0  0  0  0  0  0  0  0  0  0  0  0
   -4.7343   -0.0881    0.0032 N   0  0  0  0  0  0  0  0  0  0  0  0
    3.7759    0.3221    0.0011 N   0  3  0  0  0  0  0  0  0  0  0  0
    4.8047   -0.0149    0.0014 N   0  0  0  0  0  0  0  0  0  0  0  0
   -1.0814   -0.6201   -0.0005 C   0  0  0  0  0  0  0  0  0  0  0  0
   -2.3659    0.1793   -0.0017 C   0  0  0  0  0  0  0  0  0  0  0  0
    1.3807   -0.1084   -0.0005 C   0  0  0  0  0  0  0  0  0  0  0  0
    2.3913    0.7765    0.0009 C   0  0  0  0  0  0  0  0  0  0  0  0
   -1.0661   -1.2562    0.8918 H   0  0  0  0  0  0  0  0  0  0  0  0
   -1.0654   -1.2571   -0.8920 H   0  0  0  0  0  0  0  0  0  0  0  0
   -0.1222    1.2687    0.0013 H   0  0  0  0  0  0  0  0  0  0  0  0
   -3.4010   -1.6639    0.0022 H   0  0  0  0  0  0  0  0  0  0  0  0
    2.2043    1.8452    0.0022 H   0  0  0  0  0  0  0  0  0  0  0  0
   -5.2220   -0.4576    0.8183 H   0  0  0  0  0  0  0  0  0  0  0  0
   -5.2250   -0.4581   -0.8098 H   0  0  0  0  0  0  0  0  0  0  0  0
    2.6112   -1.5890   -0.0021 H   0  0  0  0  0  0  0  0  0  0  0  0
  1 10  1  0  0  0  0
  1 19  1  0  0  0  0
  2  9  2  0  0  0  0
  3  8  1  0  0  0  0
  3 10  1  0  0  0  0
  3 14  1  0  0  0  0
  4  5  1  0  0  0  0
  4  9  1  0  0  0  0
  4 15  1  0  0  0  0
  5 17  1  0  0  0  0
  5 18  1  0  0  0  0
  6  7  3  0  0  0  0
  6 11  1  0  0  0  0
  8  9  1  0  0  0  0
  8 12  1  0  0  0  0
  8 13  1  0  0  0  0
 10 11  2  0  0  0  0
 11 16  1  0  0  0  0
M  CHG  1   6   1
M  END
> <PUBCHEM_COMPOUND_CID>
13179

> <PUBCHEM_CONFORMER_RMSD>
0.6

> <PUBCHEM_CONFORMER_DIVERSEORDER>
1
12
11
4
6
7
9
5
10
8
13
14
2
3

> <PUBCHEM_MMFF94_PARTIAL_CHARGES>
17
1 -0.53
10 0.18
11 -0.02
14 0.4
15 0.37
16 0.15
17 0.36
18 0.36
19 0.45
2 -0.57
3 -0.87
4 -0.42
5 -0.73
6 1.36
7 -0.49
8 0.43
9 0.57

> <PUBCHEM_EFFECTIVE_ROTOR_COUNT>
4

> <PUBCHEM_PHARMACOPHORE_FEATURES>
6
1 1 donor
1 2 acceptor
1 3 cation
1 3 donor
1 4 donor
1 5 donor

> <PUBCHEM_HEAVY_ATOM_COUNT>
11

> <PUBCHEM_ATOM_DEF_STEREO_COUNT>
0

> <PUBCHEM_ATOM_UDEF_STEREO_COUNT>
0

> <PUBCHEM_BOND_DEF_STEREO_COUNT>
0

> <PUBCHEM_BOND_UDEF_STEREO_COUNT>
1

> <PUBCHEM_ISOTOPIC_ATOM_COUNT>
0

> <PUBCHEM_COMPONENT_COUNT>
1

> <PUBCHEM_CACTVS_TAUTO_COUNT>
2

> <PUBCHEM_CONFORMER_ID>
0000337B00000001

> <PUBCHEM_MMFF94_ENERGY>
12.2209

> <PUBCHEM_FEATURE_SELFOVERLAP>
31.997

> <PUBCHEM_SHAPE_FINGERPRINT>
10219947 1 15769775758485166022
11062470 55 10807940361865612724
12932764 1 17168441431593118699
13380535 76 18412823577568815322
14123238 8 17458062647104598932
14325111 11 18410855503093659015
17834076 25 16486977293346858349
20279233 1 17703782631056519179
20645477 70 18337959016460877143
20719005 15 18410855460376107618
22485316 2 8502656991428388396
23402539 116 18411427189385178559
23402655 69 18335708281856635885
3248919 1 16916770920829375499
42788 4 18410575076099615524

> <PUBCHEM_SHAPE_MULTIPOLES>
189.73
8.68
1.04
0.55
0.57
0.02
0
-0.29
-0.01
-0.09
0
0
0
0

> <PUBCHEM_SHAPE_SELFOVERLAP>
361.032

> <PUBCHEM_SHAPE_VOLUME>
114.1

> <PUBCHEM_COORDINATE_TYPE>
2
5
10

$$$$

