7019
  -OEChem-06261201413D

 25 27  0     0  0  0  0  0  0999 V2000
    0.0000    1.5499    0.0000 N   0  0  0  0  0  0  0  0  0  0  0  0
    0.0002   -2.6417    0.0000 N   0  0  0  0  0  0  0  0  0  0  0  0
   -1.2147   -0.5270   -0.0001 C   0  0  0  0  0  0  0  0  0  0  0  0
    1.2147   -0.5271   -0.0001 C   0  0  0  0  0  0  0  0  0  0  0  0
    0.0000   -1.2202   -0.0002 C   0  0  0  0  0  0  0  0  0  0  0  0
   -1.1672    0.8772   -0.0001 C   0  0  0  0  0  0  0  0  0  0  0  0
    1.1671    0.8772    0.0000 C   0  0  0  0  0  0  0  0  0  0  0  0
   -2.4500   -1.1980    0.0000 C   0  0  0  0  0  0  0  0  0  0  0  0
    2.4500   -1.1980    0.0001 C   0  0  0  0  0  0  0  0  0  0  0  0
   -2.3732    1.5731   -0.0001 C   0  0  0  0  0  0  0  0  0  0  0  0
    2.3731    1.5732    0.0000 C   0  0  0  0  0  0  0  0  0  0  0  0
   -3.6415   -0.4789    0.0001 C   0  0  0  0  0  0  0  0  0  0  0  0
    3.6415   -0.4788    0.0001 C   0  0  0  0  0  0  0  0  0  0  0  0
   -3.6026    0.9095    0.0001 C   0  0  0  0  0  0  0  0  0  0  0  0
    3.6025    0.9096    0.0000 C   0  0  0  0  0  0  0  0  0  0  0  0
   -2.5408   -2.2789    0.0001 H   0  0  0  0  0  0  0  0  0  0  0  0
    2.5408   -2.2789    0.0002 H   0  0  0  0  0  0  0  0  0  0  0  0
   -2.3692    2.6616   -0.0001 H   0  0  0  0  0  0  0  0  0  0  0  0
    2.3691    2.6618    0.0000 H   0  0  0  0  0  0  0  0  0  0  0  0
   -4.5946   -0.9988    0.0003 H   0  0  0  0  0  0  0  0  0  0  0  0
    4.5947   -0.9988    0.0002 H   0  0  0  0  0  0  0  0  0  0  0  0
   -4.5266    1.4803    0.0002 H   0  0  0  0  0  0  0  0  0  0  0  0
    4.5265    1.4805    0.0000 H   0  0  0  0  0  0  0  0  0  0  0  0
    0.8578   -3.1718   -0.0008 H   0  0  0  0  0  0  0  0  0  0  0  0
   -0.8574   -3.1718   -0.0008 H   0  0  0  0  0  0  0  0  0  0  0  0
  1  6  2  0  0  0  0
  1  7  1  0  0  0  0
  2  5  1  0  0  0  0
  2 24  1  0  0  0  0
  2 25  1  0  0  0  0
  3  5  2  0  0  0  0
  3  6  1  0  0  0  0
  3  8  1  0  0  0  0
  4  5  1  0  0  0  0
  4  7  1  0  0  0  0
  4  9  2  0  0  0  0
  6 10  1  0  0  0  0
  7 11  2  0  0  0  0
  8 12  2  0  0  0  0
  8 16  1  0  0  0  0
  9 13  1  0  0  0  0
  9 17  1  0  0  0  0
 10 14  2  0  0  0  0
 10 18  1  0  0  0  0
 11 15  1  0  0  0  0
 11 19  1  0  0  0  0
 12 14  1  0  0  0  0
 12 20  1  0  0  0  0
 13 15  2  0  0  0  0
 13 21  1  0  0  0  0
 14 22  1  0  0  0  0
 15 23  1  0  0  0  0
M  END
> <PUBCHEM_COMPOUND_CID>
7019

> <PUBCHEM_CONFORMER_RMSD>
0.4

> <PUBCHEM_CONFORMER_DIVERSEORDER>
1

> <PUBCHEM_MMFF94_PARTIAL_CHARGES>
23
1 -0.62
10 -0.15
11 -0.15
12 -0.15
13 -0.15
14 -0.15
15 -0.15
16 0.15
17 0.15
18 0.15
19 0.15
2 -0.9
20 0.15
21 0.15
22 0.15
23 0.15
24 0.4
25 0.4
5 0.1
6 0.31
7 0.31
8 -0.15
9 -0.15

> <PUBCHEM_EFFECTIVE_ROTOR_COUNT>
0

> <PUBCHEM_PHARMACOPHORE_FEATURES>
6
1 1 acceptor
1 2 cation
1 2 donor
6 1 3 4 5 6 7 rings
6 3 6 8 10 12 14 rings
6 4 7 9 11 13 15 rings

> <PUBCHEM_HEAVY_ATOM_COUNT>
15

> <PUBCHEM_ATOM_DEF_STEREO_COUNT>
0

> <PUBCHEM_ATOM_UDEF_STEREO_COUNT>
0

> <PUBCHEM_BOND_DEF_STEREO_COUNT>
0

> <PUBCHEM_BOND_UDEF_STEREO_COUNT>
0

> <PUBCHEM_ISOTOPIC_ATOM_COUNT>
0

> <PUBCHEM_COMPONENT_COUNT>
1

> <PUBCHEM_CACTVS_TAUTO_COUNT>
2

> <PUBCHEM_CONFORMER_ID>
00001B6B00000001

> <PUBCHEM_MMFF94_ENERGY>
64.5725

> <PUBCHEM_FEATURE_SELFOVERLAP>
30.507

> <PUBCHEM_SHAPE_FINGERPRINT>
10062212 137 18338247049583311467
10608611 8 18410859858175147109
10967382 1 18410855485913815814
11132069 177 18409454690946611856
11471102 20 18410579508495296197
12032990 46 18410849966865081155
13140716 1 18410575131913046353
13221675 6 18410856559639815558
13380535 76 18410856559640114371
13897977 150 18411140268147330197
14144814 61 18411419513946298024
14325111 11 18410573985167522244
14614273 12 18200600310183741773
15196674 1 18410575088958091685
15219456 202 18409447002933981461
15309172 13 18409721859571934443
15442244 35 18194120943821635650
15536298 74 18334295375023387636
15775835 57 18410570690911658532
16945 1 18410575101843026055
18186145 218 18335978752778980892
193761 8 17690279734534293924
200 152 18113628876302733549
20510252 161 18260827089997193017
20645476 183 17844228662836162782
20645477 70 18336833099426503695
21267235 1 18410565193353740514
21501502 16 18410575084663111397
2334 1 18410856529575141925
23402539 116 18334586719492033998
23402655 69 18263658406312977365
23463225 33 18341613745623688808
23559900 14 18261111881637701812
2748010 2 18411417310580537461
335352 9 18050287269097569565
43471831 8 18342180006818099731
474 4 16987148311325411372
5104073 3 18410573985151478113
528886 8 18410298020617787939
53812653 166 18334861606078810648
54173680 148 18124312696928954515
69090 78 18334299738362169783
7364860 26 18191868044254125726
8809292 202 18272645727815442099
9709674 26 18409162182373413374

> <PUBCHEM_SHAPE_MULTIPOLES>
298.73
6.21
2.03
0.61
0
0.49
0
-0.94
0
0
0
0
-0.01
0

> <PUBCHEM_SHAPE_SELFOVERLAP>
679.326

> <PUBCHEM_SHAPE_VOLUME>
155.1

> <PUBCHEM_COORDINATE_TYPE>
2
5
10

$$$$

