586013
  -OEChem-06241222453D

 24 24  0     0  0  0  0  0  0999 V2000
   -3.4354   -1.3450    0.7709 O   0  0  0  0  0  0  0  0  0  0  0  0
    1.9656   -0.6623   -0.0858 N   0  0  0  0  0  0  0  0  0  0  0  0
    0.7134   -0.0131   -0.0763 C   0  0  0  0  0  0  0  0  0  0  0  0
   -1.6931   -0.1048   -0.2693 C   0  0  0  0  0  0  0  0  0  0  0  0
   -0.4551   -0.7475   -0.2778 C   0  0  0  0  0  0  0  0  0  0  0  0
    3.1878    0.0317    0.1125 C   0  0  0  0  0  0  0  0  0  0  0  0
    0.6441    1.3640    0.1339 C   0  0  0  0  0  0  0  0  0  0  0  0
   -1.7624    1.2725   -0.0591 C   0  0  0  0  0  0  0  0  0  0  0  0
   -0.5938    2.0069    0.1426 C   0  0  0  0  0  0  0  0  0  0  0  0
   -2.9428   -0.8896   -0.4834 C   0  0  0  0  0  0  0  0  0  0  0  0
    4.3718   -0.9127    0.0919 C   0  0  0  0  0  0  0  0  0  0  0  0
   -0.4016   -1.8218   -0.4399 H   0  0  0  0  0  0  0  0  0  0  0  0
    1.9707   -1.6636   -0.2465 H   0  0  0  0  0  0  0  0  0  0  0  0
    3.3373    0.7828   -0.6723 H   0  0  0  0  0  0  0  0  0  0  0  0
    3.1884    0.5471    1.0805 H   0  0  0  0  0  0  0  0  0  0  0  0
    1.5270    1.9755    0.2934 H   0  0  0  0  0  0  0  0  0  0  0  0
   -2.7209    1.7846   -0.0483 H   0  0  0  0  0  0  0  0  0  0  0  0
   -0.6484    3.0792    0.3063 H   0  0  0  0  0  0  0  0  0  0  0  0
   -3.7138   -0.2785   -0.9655 H   0  0  0  0  0  0  0  0  0  0  0  0
   -2.7580   -1.7567   -1.1270 H   0  0  0  0  0  0  0  0  0  0  0  0
    4.2855   -1.6689    0.8796 H   0  0  0  0  0  0  0  0  0  0  0  0
    4.4399   -1.4370   -0.8673 H   0  0  0  0  0  0  0  0  0  0  0  0
    5.3049   -0.3624    0.2474 H   0  0  0  0  0  0  0  0  0  0  0  0
   -4.2469   -1.8501    0.5918 H   0  0  0  0  0  0  0  0  0  0  0  0
  1 10  1  0  0  0  0
  1 24  1  0  0  0  0
  2  3  1  0  0  0  0
  2  6  1  0  0  0  0
  2 13  1  0  0  0  0
  3  5  1  0  0  0  0
  3  7  2  0  0  0  0
  4  5  2  0  0  0  0
  4  8  1  0  0  0  0
  4 10  1  0  0  0  0
  5 12  1  0  0  0  0
  6 11  1  0  0  0  0
  6 14  1  0  0  0  0
  6 15  1  0  0  0  0
  7  9  1  0  0  0  0
  7 16  1  0  0  0  0
  8  9  2  0  0  0  0
  8 17  1  0  0  0  0
  9 18  1  0  0  0  0
 10 19  1  0  0  0  0
 10 20  1  0  0  0  0
 11 21  1  0  0  0  0
 11 22  1  0  0  0  0
 11 23  1  0  0  0  0
M  END
> <PUBCHEM_COMPOUND_CID>
586013

> <PUBCHEM_CONFORMER_RMSD>
0.6

> <PUBCHEM_CONFORMER_DIVERSEORDER>
2
5
11
12
8
7
9
6
4
10
3
1

> <PUBCHEM_MMFF94_PARTIAL_CHARGES>
16
1 -0.68
10 0.42
12 0.15
13 0.4
16 0.15
17 0.15
18 0.15
2 -0.87
24 0.4
3 0.1
4 -0.14
5 -0.15
6 0.37
7 -0.15
8 -0.15
9 -0.15

> <PUBCHEM_EFFECTIVE_ROTOR_COUNT>
3

> <PUBCHEM_PHARMACOPHORE_FEATURES>
5
1 1 acceptor
1 1 donor
1 2 cation
1 2 donor
6 3 4 5 7 8 9 rings

> <PUBCHEM_HEAVY_ATOM_COUNT>
11

> <PUBCHEM_ATOM_DEF_STEREO_COUNT>
0

> <PUBCHEM_ATOM_UDEF_STEREO_COUNT>
0

> <PUBCHEM_BOND_DEF_STEREO_COUNT>
0

> <PUBCHEM_BOND_UDEF_STEREO_COUNT>
0

> <PUBCHEM_ISOTOPIC_ATOM_COUNT>
0

> <PUBCHEM_COMPONENT_COUNT>
1

> <PUBCHEM_CACTVS_TAUTO_COUNT>
1

> <PUBCHEM_CONFORMER_ID>
0008F11D00000002

> <PUBCHEM_MMFF94_ENERGY>
30.8929

> <PUBCHEM_FEATURE_SELFOVERLAP>
25.371

> <PUBCHEM_SHAPE_FINGERPRINT>
10857977 72 18335151889991143376
11543360 7 15985098570565624798
12032990 46 18410572864302351318
12932764 1 17241061975927515326
13024252 1 16916496072950526169
14128692 85 18412262804952504788
14325111 11 18336830900571780004
16945 1 18260270707048448661
20871998 184 18114183076690270324
20871998 22 18260815016960064399
21061003 4 18186522089975939345
23402539 116 18261967300734935950
23552423 10 18343584044722690132
25610 137 18340765953618733276
2748010 2 18336563632841054101
3312278 4 18342460390862073802
6333449 129 18189059848738715300

> <PUBCHEM_SHAPE_MULTIPOLES>
215.52
6.02
1.68
0.68
4.97
0.69
0.02
-3.28
0.49
-0.83
0.12
-0.22
-0.08
0.16

> <PUBCHEM_SHAPE_SELFOVERLAP>
434.789

> <PUBCHEM_SHAPE_VOLUME>
127.3

> <PUBCHEM_COORDINATE_TYPE>
2
5
10

$$$$

