12870
  -OEChem-06261207283D

 26 27  0     0  0  0  0  0  0999 V2000
    3.7881   -2.4056    0.6368 Cl  0  0  0  0  0  0  0  0  0  0  0  0
   -0.4597    1.2216    2.0002 O   0  0  0  0  0  0  0  0  0  0  0  0
    0.7379    2.4196   -0.9456 N   0  0  0  0  0  0  0  0  0  0  0  0
    0.9446    0.3556    0.3423 C   0  0  0  0  0  0  0  0  0  0  0  0
   -1.6226    0.0616    0.3351 C   0  0  0  0  0  0  0  0  0  0  0  0
   -0.4056    0.5747    0.9437 C   0  0  0  0  0  0  0  0  0  0  0  0
    1.4522    1.2639   -0.5583 C   0  0  0  0  0  0  0  0  0  0  0  0
    1.6336   -0.7735    0.7275 C   0  0  0  0  0  0  0  0  0  0  0  0
    2.7151    1.0325   -1.1033 C   0  0  0  0  0  0  0  0  0  0  0  0
   -1.5553   -0.6651   -0.8537 C   0  0  0  0  0  0  0  0  0  0  0  0
   -2.8572    0.2965    0.9400 C   0  0  0  0  0  0  0  0  0  0  0  0
    2.8964   -1.0051    0.1824 C   0  0  0  0  0  0  0  0  0  0  0  0
    3.4372   -0.1022   -0.7330 C   0  0  0  0  0  0  0  0  0  0  0  0
   -2.7228   -1.1569   -1.4375 C   0  0  0  0  0  0  0  0  0  0  0  0
   -4.0247   -0.1955    0.3562 C   0  0  0  0  0  0  0  0  0  0  0  0
   -3.9574   -0.9221   -0.8325 C   0  0  0  0  0  0  0  0  0  0  0  0
    1.2051   -1.4719    1.4413 H   0  0  0  0  0  0  0  0  0  0  0  0
    3.1485    1.7280   -1.8177 H   0  0  0  0  0  0  0  0  0  0  0  0
   -0.6163   -0.8709   -1.3583 H   0  0  0  0  0  0  0  0  0  0  0  0
   -2.9372    0.8597    1.8660 H   0  0  0  0  0  0  0  0  0  0  0  0
    4.4200   -0.2699   -1.1660 H   0  0  0  0  0  0  0  0  0  0  0  0
   -2.6711   -1.7227   -2.3632 H   0  0  0  0  0  0  0  0  0  0  0  0
   -4.9862   -0.0128    0.8269 H   0  0  0  0  0  0  0  0  0  0  0  0
   -4.8664   -1.3049   -1.2871 H   0  0  0  0  0  0  0  0  0  0  0  0
    1.1455    3.0616   -1.6126 H   0  0  0  0  0  0  0  0  0  0  0  0
   -0.1782    2.6123   -0.5646 H   0  0  0  0  0  0  0  0  0  0  0  0
  1 12  1  0  0  0  0
  2  6  2  0  0  0  0
  3  7  1  0  0  0  0
  3 25  1  0  0  0  0
  3 26  1  0  0  0  0
  4  6  1  0  0  0  0
  4  7  2  0  0  0  0
  4  8  1  0  0  0  0
  5  6  1  0  0  0  0
  5 10  2  0  0  0  0
  5 11  1  0  0  0  0
  7  9  1  0  0  0  0
  8 12  2  0  0  0  0
  8 17  1  0  0  0  0
  9 13  2  0  0  0  0
  9 18  1  0  0  0  0
 10 14  1  0  0  0  0
 10 19  1  0  0  0  0
 11 15  2  0  0  0  0
 11 20  1  0  0  0  0
 12 13  1  0  0  0  0
 13 21  1  0  0  0  0
 14 16  2  0  0  0  0
 14 22  1  0  0  0  0
 15 16  1  0  0  0  0
 15 23  1  0  0  0  0
 16 24  1  0  0  0  0
M  END
> <PUBCHEM_COMPOUND_CID>
12870

> <PUBCHEM_CONFORMER_RMSD>
0.6

> <PUBCHEM_CONFORMER_DIVERSEORDER>
1
2

> <PUBCHEM_MMFF94_PARTIAL_CHARGES>
26
1 -0.18
10 -0.15
11 -0.15
12 0.18
13 -0.15
14 -0.15
15 -0.15
16 -0.15
17 0.15
18 0.15
19 0.15
2 -0.57
20 0.15
21 0.15
22 0.15
23 0.15
24 0.15
25 0.4
26 0.4
3 -0.9
4 0.09
5 0.09
6 0.4
7 0.1
8 -0.15
9 -0.15

> <PUBCHEM_EFFECTIVE_ROTOR_COUNT>
2

> <PUBCHEM_PHARMACOPHORE_FEATURES>
5
1 2 acceptor
1 3 cation
1 3 donor
6 4 7 8 9 12 13 rings
6 5 10 11 14 15 16 rings

> <PUBCHEM_HEAVY_ATOM_COUNT>
16

> <PUBCHEM_ATOM_DEF_STEREO_COUNT>
0

> <PUBCHEM_ATOM_UDEF_STEREO_COUNT>
0

> <PUBCHEM_BOND_DEF_STEREO_COUNT>
0

> <PUBCHEM_BOND_UDEF_STEREO_COUNT>
0

> <PUBCHEM_ISOTOPIC_ATOM_COUNT>
0

> <PUBCHEM_COMPONENT_COUNT>
1

> <PUBCHEM_CACTVS_TAUTO_COUNT>
3

> <PUBCHEM_CONFORMER_ID>
0000324600000001

> <PUBCHEM_MMFF94_ENERGY>
61.9777

> <PUBCHEM_FEATURE_SELFOVERLAP>
25.371

> <PUBCHEM_SHAPE_FINGERPRINT>
10062212 137 18187085074695592575
10610426 29 18261406584380552392
11578080 2 18190486989136267936
11769659 78 18333736844290731066
12236239 1 18333724723797946250
12346177 29 16443353070261719941
13083527 12 14854744486510853725
13134695 92 18202848746964265788
14115302 16 18186800236658905191
14576447 43 18411418367454060046
15375462 189 18187361004383980803
16752209 62 17677045858549076625
16945 1 18272088236554327192
1813 80 18266451182652935622
18186145 218 16415478280821734257
19422 9 18409444774257606387
200 152 18201437021447490370
20361792 2 18341618147949349518
20600515 1 16878227562229572073
20645476 183 18263921047304194135
20645477 70 17917709114988359730
20671657 53 18343303694979749990
22112679 90 18190727808062746064
2255824 54 18338795590111209492
22646028 28 18260833699914963935
22802520 49 16558478589961218854
23114952 82 16701721801308581030
232386 152 17603590694605356855
23402539 116 17986957538885785730
23419403 2 17754496531072387016
23526113 38 16988833969644828184
23559900 14 16733252552177296892
23598291 2 18338226171599254633
25 1 17560797706289253432
298252 57 12391502118493927168
3323516 105 17489301971404587587
465052 167 17970337128142584263
474 4 18050006589007111936
4990 188 16988847168047563003
5281201 14 17203608198584845527
5902787 121 17313391075953716931
633830 44 16774082877645810847
7364860 26 16372704920785989425
77492 1 18334002900176548121

> <PUBCHEM_SHAPE_MULTIPOLES>
320.29
7.17
1.84
1.39
1.9
0.04
-0.15
-3.62
0.99
-1.78
0.18
0.47
0.19
-1.36

> <PUBCHEM_SHAPE_SELFOVERLAP>
688.475

> <PUBCHEM_SHAPE_VOLUME>
177.8

> <PUBCHEM_COORDINATE_TYPE>
2
5
10

$$$$

