14089
  -OEChem-06241222423D

 18 18  0     1  0  0  0  0  0999 V2000
    1.8351   -2.0849   -0.7315 Cl  0  0  0  0  0  0  0  0  0  0  0  0
    2.2251    1.9684    0.7828 Cl  0  0  0  0  0  0  0  0  0  0  0  0
    1.4687   -0.6117    0.2406 C   0  0  2  0  0  0  0  0  0  0  0  0
    0.0217   -0.2747    0.1072 C   0  0  0  0  0  0  0  0  0  0  0  0
   -0.9100   -0.8449    0.9745 C   0  0  0  0  0  0  0  0  0  0  0  0
   -0.3996    0.6102   -0.8852 C   0  0  0  0  0  0  0  0  0  0  0  0
    2.4594    0.4878   -0.1846 C   0  0  0  0  0  0  0  0  0  0  0  0
   -2.2632   -0.5302    0.8494 C   0  0  0  0  0  0  0  0  0  0  0  0
   -1.7527    0.9251   -1.0103 C   0  0  0  0  0  0  0  0  0  0  0  0
   -2.6845    0.3549   -0.1429 C   0  0  0  0  0  0  0  0  0  0  0  0
    1.6880   -0.8804    1.2813 H   0  0  0  0  0  0  0  0  0  0  0  0
   -0.5959   -1.5370    1.7513 H   0  0  0  0  0  0  0  0  0  0  0  0
    0.2877    1.0583   -1.5949 H   0  0  0  0  0  0  0  0  0  0  0  0
    3.4886    0.1588   -0.0040 H   0  0  0  0  0  0  0  0  0  0  0  0
    2.3869    0.7563   -1.2428 H   0  0  0  0  0  0  0  0  0  0  0  0
   -2.9888   -0.9747    1.5242 H   0  0  0  0  0  0  0  0  0  0  0  0
   -2.0820    1.6101   -1.7862 H   0  0  0  0  0  0  0  0  0  0  0  0
   -3.7383    0.5989   -0.2412 H   0  0  0  0  0  0  0  0  0  0  0  0
  1  3  1  0  0  0  0
  2  7  1  0  0  0  0
  3  4  1  0  0  0  0
  3  7  1  0  0  0  0
  3 11  1  0  0  0  0
  4  5  2  0  0  0  0
  4  6  1  0  0  0  0
  5  8  1  0  0  0  0
  5 12  1  0  0  0  0
  6  9  2  0  0  0  0
  6 13  1  0  0  0  0
  7 14  1  0  0  0  0
  7 15  1  0  0  0  0
  8 10  2  0  0  0  0
  8 16  1  0  0  0  0
  9 10  1  0  0  0  0
  9 17  1  0  0  0  0
 10 18  1  0  0  0  0
M  END
> <PUBCHEM_COMPOUND_CID>
14089

> <PUBCHEM_CONFORMER_RMSD>
0.4

> <PUBCHEM_CONFORMER_DIVERSEORDER>
2
10
11
4
6
5
3
13
1
9
12
8
7

> <PUBCHEM_MMFF94_PARTIAL_CHARGES>
15
1 -0.29
10 -0.15
12 0.15
13 0.15
16 0.15
17 0.15
18 0.15
2 -0.29
3 0.43
4 -0.14
5 -0.15
6 -0.15
7 0.29
8 -0.15
9 -0.15

> <PUBCHEM_EFFECTIVE_ROTOR_COUNT>
2

> <PUBCHEM_PHARMACOPHORE_FEATURES>
1
6 4 5 6 8 9 10 rings

> <PUBCHEM_HEAVY_ATOM_COUNT>
10

> <PUBCHEM_ATOM_DEF_STEREO_COUNT>
0

> <PUBCHEM_ATOM_UDEF_STEREO_COUNT>
1

> <PUBCHEM_BOND_DEF_STEREO_COUNT>
0

> <PUBCHEM_BOND_UDEF_STEREO_COUNT>
0

> <PUBCHEM_ISOTOPIC_ATOM_COUNT>
0

> <PUBCHEM_COMPONENT_COUNT>
1

> <PUBCHEM_CACTVS_TAUTO_COUNT>
1

> <PUBCHEM_CONFORMER_ID>
0000370900000002

> <PUBCHEM_MMFF94_ENERGY>
22.8221

> <PUBCHEM_FEATURE_SELFOVERLAP>
5.074

> <PUBCHEM_SHAPE_FINGERPRINT>
10857977 72 17632013048771885473
12326174 3 17822282518309671230
12423570 1 15892259914789110079
12524768 44 18343865532494488999
12932741 1 18272651298203161687
12932764 1 18410288107912571807
15219456 202 18342453764007110854
15310529 11 17748829635283651369
16945 1 18334013903893231889
18380122 1 18271238301165252379
19973954 147 18339360876178829365
20201158 50 18340769350800779294
20645464 45 18201725062901591561
20653085 51 18190461765035385417
20711978 78 18334859445715386110
20871998 184 17982441607842935859
21040471 1 17130430301077218407
21061003 4 18117552058018031778
23211744 41 18271814475412661954
23552423 10 4678810670732605236
2748010 2 18060416941260418007
29004967 10 18261392312003936330
369184 2 14476971055613291229
5084963 1 17845929748799568871

> <PUBCHEM_SHAPE_MULTIPOLES>
209.53
3.93
1.8
1.1
0.34
0.15
-0.01
-0.68
0.16
-1.61
-0.04
0.27
-0.03
0.92

> <PUBCHEM_SHAPE_SELFOVERLAP>
407.328

> <PUBCHEM_SHAPE_VOLUME>
125.4

> <PUBCHEM_COORDINATE_TYPE>
2
5
10

$$$$

