13630
  -OEChem-06241222393D

 18 18  0     0  0  0  0  0  0999 V2000
    1.3841   -0.0031   -1.2338 S   0  0  0  0  0  0  0  0  0  0  0  0
    1.8577    0.0046    1.3685 O   0  0  0  0  0  0  0  0  0  0  0  0
   -0.2729   -0.0012   -0.5768 C   0  0  0  0  0  0  0  0  0  0  0  0
   -0.9213    1.2072   -0.3225 C   0  0  0  0  0  0  0  0  0  0  0  0
   -0.9212   -1.2087   -0.3175 C   0  0  0  0  0  0  0  0  0  0  0  0
   -2.2181    1.2083    0.1914 C   0  0  0  0  0  0  0  0  0  0  0  0
   -2.2181   -1.2077    0.1962 C   0  0  0  0  0  0  0  0  0  0  0  0
   -2.8665    0.0009    0.4506 C   0  0  0  0  0  0  0  0  0  0  0  0
    2.3472    0.0002    0.2453 C   0  0  0  0  0  0  0  0  0  0  0  0
    3.8291   -0.0006   -0.0015 C   0  0  0  0  0  0  0  0  0  0  0  0
   -0.4319    2.1583   -0.5178 H   0  0  0  0  0  0  0  0  0  0  0  0
   -0.4319   -2.1605   -0.5090 H   0  0  0  0  0  0  0  0  0  0  0  0
   -2.7230    2.1493    0.3898 H   0  0  0  0  0  0  0  0  0  0  0  0
   -2.7231   -2.1477    0.3983 H   0  0  0  0  0  0  0  0  0  0  0  0
   -3.8762    0.0017    0.8507 H   0  0  0  0  0  0  0  0  0  0  0  0
    4.1208   -0.8978   -0.5543 H   0  0  0  0  0  0  0  0  0  0  0  0
    4.3549   -0.0014    0.9582 H   0  0  0  0  0  0  0  0  0  0  0  0
    4.1216    0.8968   -0.5537 H   0  0  0  0  0  0  0  0  0  0  0  0
  1  3  1  0  0  0  0
  1  9  1  0  0  0  0
  2  9  2  0  0  0  0
  3  4  2  0  0  0  0
  3  5  1  0  0  0  0
  4  6  1  0  0  0  0
  4 11  1  0  0  0  0
  5  7  2  0  0  0  0
  5 12  1  0  0  0  0
  6  8  2  0  0  0  0
  6 13  1  0  0  0  0
  7  8  1  0  0  0  0
  7 14  1  0  0  0  0
  8 15  1  0  0  0  0
  9 10  1  0  0  0  0
 10 16  1  0  0  0  0
 10 17  1  0  0  0  0
 10 18  1  0  0  0  0
M  END
> <PUBCHEM_COMPOUND_CID>
13630

> <PUBCHEM_CONFORMER_RMSD>
0.4

> <PUBCHEM_CONFORMER_DIVERSEORDER>
1
10
13
11
12
6
8
5
15
9
7
4
14
2
3

> <PUBCHEM_MMFF94_PARTIAL_CHARGES>
15
1 -0.24
10 0.06
11 0.15
12 0.15
13 0.15
14 0.15
15 0.15
2 -0.57
3 0.1
4 -0.15
5 -0.15
6 -0.15
7 -0.15
8 -0.15
9 0.65

> <PUBCHEM_EFFECTIVE_ROTOR_COUNT>
2

> <PUBCHEM_PHARMACOPHORE_FEATURES>
1
6 3 4 5 6 7 8 rings

> <PUBCHEM_HEAVY_ATOM_COUNT>
10

> <PUBCHEM_ATOM_DEF_STEREO_COUNT>
0

> <PUBCHEM_ATOM_UDEF_STEREO_COUNT>
0

> <PUBCHEM_BOND_DEF_STEREO_COUNT>
0

> <PUBCHEM_BOND_UDEF_STEREO_COUNT>
0

> <PUBCHEM_ISOTOPIC_ATOM_COUNT>
0

> <PUBCHEM_COMPONENT_COUNT>
1

> <PUBCHEM_CACTVS_TAUTO_COUNT>
1

> <PUBCHEM_CONFORMER_ID>
0000353E00000001

> <PUBCHEM_MMFF94_ENERGY>
20.3307

> <PUBCHEM_FEATURE_SELFOVERLAP>
5.074

> <PUBCHEM_SHAPE_FINGERPRINT>
10857977 72 18334572417446129829
11031198 65 16443337681009003756
124424 183 17749112239968746606
12897270 3 10087639299440711156
12932764 1 17560807636464729444
13024252 1 15052016779701983997
13839132 238 17969776578247309973
15775835 57 18411980303515260986
16945 1 18338784672435977943
20201158 50 17458341965865263206
20645464 45 17822005428051477471
20653085 51 14996288015335985569
20871998 184 18261105219400179767
21040471 1 18194669583128662621
22445834 79 17775006816449298874
23402539 116 18260275148761934325
23552423 10 17626934293052359237
2748010 2 17979897626294767437
369184 2 18335707147705506215
75552 356 18413387618258735271

> <PUBCHEM_SHAPE_MULTIPOLES>
203.78
5.14
1.21
1.02
3.29
0
0.01
0
-1.02
-0.91
0.05
0.46
0
0

> <PUBCHEM_SHAPE_SELFOVERLAP>
401.727

> <PUBCHEM_SHAPE_VOLUME>
121.8

> <PUBCHEM_COORDINATE_TYPE>
2
5
10

$$$$

