11343
  -OEChem-06261205333D

 23 24  0     0  0  0  0  0  0999 V2000
   -2.9285   -2.2978    0.0004 S   0  0  0  0  0  0  0  0  0  0  0  0
    0.1050   -2.3518   -0.0156 O   0  0  0  0  0  0  0  0  0  0  0  0
   -2.8892    2.6348   -0.0051 O   0  0  0  0  0  0  0  0  0  0  0  0
   -1.0519   -0.2961    0.0089 N   0  0  0  0  0  0  0  0  0  0  0  0
   -3.2284    0.3427   -0.0028 N   0  0  0  0  0  0  0  0  0  0  0  0
   -0.9897    1.1534    0.0157 C   0  0  0  0  0  0  0  0  0  0  0  0
    0.0858   -1.1241    0.0002 C   0  0  0  0  0  0  0  0  0  0  0  0
    1.3924   -0.4519   -0.0001 C   0  0  0  0  0  0  0  0  0  0  0  0
   -2.4035   -0.6500    0.0017 C   0  0  0  0  0  0  0  0  0  0  0  0
   -2.4622    1.4870    0.0004 C   0  0  0  0  0  0  0  0  0  0  0  0
    2.0101   -0.1432    1.2076 C   0  0  0  0  0  0  0  0  0  0  0  0
    2.0017   -0.1290   -1.2083 C   0  0  0  0  0  0  0  0  0  0  0  0
    3.2504    0.4953    1.2071 C   0  0  0  0  0  0  0  0  0  0  0  0
    3.2419    0.5094   -1.2089 C   0  0  0  0  0  0  0  0  0  0  0  0
    3.8662    0.8215   -0.0012 C   0  0  0  0  0  0  0  0  0  0  0  0
   -0.4937    1.5212   -0.8850 H   0  0  0  0  0  0  0  0  0  0  0  0
   -0.5138    1.5118    0.9311 H   0  0  0  0  0  0  0  0  0  0  0  0
    1.5380   -0.3931    2.1539 H   0  0  0  0  0  0  0  0  0  0  0  0
    1.5230   -0.3677   -2.1542 H   0  0  0  0  0  0  0  0  0  0  0  0
    3.7364    0.7386    2.1474 H   0  0  0  0  0  0  0  0  0  0  0  0
    3.7214    0.7636   -2.1496 H   0  0  0  0  0  0  0  0  0  0  0  0
    4.8318    1.3187   -0.0016 H   0  0  0  0  0  0  0  0  0  0  0  0
   -4.2469   -2.0531   -0.0066 H   0  0  0  0  0  0  0  0  0  0  0  0
  1  9  1  0  0  0  0
  1 23  1  0  0  0  0
  2  7  2  0  0  0  0
  3 10  2  0  0  0  0
  4  6  1  0  0  0  0
  4  7  1  0  0  0  0
  4  9  1  0  0  0  0
  5  9  2  0  0  0  0
  5 10  1  0  0  0  0
  6 10  1  0  0  0  0
  6 16  1  0  0  0  0
  6 17  1  0  0  0  0
  7  8  1  0  0  0  0
  8 11  2  0  0  0  0
  8 12  1  0  0  0  0
 11 13  1  0  0  0  0
 11 18  1  0  0  0  0
 12 14  2  0  0  0  0
 12 19  1  0  0  0  0
 13 15  2  0  0  0  0
 13 20  1  0  0  0  0
 14 15  1  0  0  0  0
 14 21  1  0  0  0  0
 15 22  1  0  0  0  0
M  END
> <PUBCHEM_COMPOUND_CID>
11343

> <PUBCHEM_CONFORMER_RMSD>
0.6

> <PUBCHEM_CONFORMER_DIVERSEORDER>
1
4
3
2

> <PUBCHEM_MMFF94_PARTIAL_CHARGES>
21
1 -0.32
10 0.72
11 -0.15
12 -0.15
13 -0.15
14 -0.15
15 -0.15
18 0.15
19 0.15
2 -0.57
20 0.15
21 0.15
22 0.15
23 0.18
3 -0.57
4 -0.42
5 -0.66
6 0.36
7 0.54
8 0.09
9 0.65

> <PUBCHEM_EFFECTIVE_ROTOR_COUNT>
2.4

> <PUBCHEM_PHARMACOPHORE_FEATURES>
5
1 2 acceptor
1 3 acceptor
1 5 donor
5 4 5 6 9 10 rings
6 8 11 12 13 14 15 rings

> <PUBCHEM_HEAVY_ATOM_COUNT>
15

> <PUBCHEM_ATOM_DEF_STEREO_COUNT>
0

> <PUBCHEM_ATOM_UDEF_STEREO_COUNT>
0

> <PUBCHEM_BOND_DEF_STEREO_COUNT>
0

> <PUBCHEM_BOND_UDEF_STEREO_COUNT>
0

> <PUBCHEM_ISOTOPIC_ATOM_COUNT>
0

> <PUBCHEM_COMPONENT_COUNT>
1

> <PUBCHEM_CACTVS_TAUTO_COUNT>
3

> <PUBCHEM_CONFORMER_ID>
00002C4F00000001

> <PUBCHEM_MMFF94_ENERGY>
43.2564

> <PUBCHEM_FEATURE_SELFOVERLAP>
25.371

> <PUBCHEM_SHAPE_FINGERPRINT>
10498660 4 18410576188649502965
10608611 8 18260269629254451840
11132069 177 18411981347355908837
11471102 22 14979964661842284444
12173636 292 18265616670591783701
12236239 1 17703794687034759594
12932764 1 17675926477964973230
13380535 21 18262789795836315275
13538477 17 17916026755018800170
13764800 53 18410002269502302817
14614273 12 18271815656813394669
15219456 202 17676202447046648950
15669948 3 18412548691124326867
15775835 57 18201999945409776152
16945 1 18410573985620982031
17357990 137 17917702509655361836
1741750 31 18262517129916650145
18186145 218 17894900854555915746
19422 9 18060704974757749826
20510252 161 18335134241870206547
20525323 117 18343304768895705559
20645477 70 16443337719668796268
20671657 1 18052254286831110707
21524375 3 18341898540436169458
22802520 49 17822838896773166974
23048698 100 16988568961567214894
23402539 116 18264498295077052182
23557571 272 18187358788117370381
23559900 14 18115020931333555486
2748010 2 18052810636047188391
305870 269 18269840963820924762
6049 1 17821721706891273544
7097593 13 17843142530015904274
7364860 26 17974290120724165606
77492 1 17704075066726231490
81228 2 17538013463167437798

> <PUBCHEM_SHAPE_MULTIPOLES>
290.84
6.53
2.14
1.01
1.69
0.13
0
1.29
0
-2.81
-0.01
1.07
0.01
-0.01

> <PUBCHEM_SHAPE_SELFOVERLAP>
617.598

> <PUBCHEM_SHAPE_VOLUME>
164.4

> <PUBCHEM_COORDINATE_TYPE>
2
5
10

$$$$

