11157
  -OEChem-06261205203D

 19 19  0     0  0  0  0  0  0999 V2000
    2.3750    0.0090   -0.5776 N   0  0  0  0  0  0  0  0  0  0  0  0
    3.7414   -0.0111   -0.1723 N   0  0  0  0  0  0  0  0  0  0  0  0
    0.0867    0.0033    0.3138 C   0  0  0  0  0  0  0  0  0  0  0  0
    1.5449    0.0079    0.6282 C   0  0  0  0  0  0  0  0  0  0  0  0
   -0.5987    1.2091    0.1659 C   0  0  0  0  0  0  0  0  0  0  0  0
   -0.5914   -1.2068    0.1682 C   0  0  0  0  0  0  0  0  0  0  0  0
   -1.9623    1.2048   -0.1276 C   0  0  0  0  0  0  0  0  0  0  0  0
   -1.9551   -1.2111   -0.1254 C   0  0  0  0  0  0  0  0  0  0  0  0
   -2.6405   -0.0053   -0.2733 C   0  0  0  0  0  0  0  0  0  0  0  0
    1.7736    0.8891    1.2437 H   0  0  0  0  0  0  0  0  0  0  0  0
    1.7768   -0.8641    1.2559 H   0  0  0  0  0  0  0  0  0  0  0  0
   -0.0819    2.1590    0.2752 H   0  0  0  0  0  0  0  0  0  0  0  0
   -0.0689   -2.1533    0.2792 H   0  0  0  0  0  0  0  0  0  0  0  0
   -2.4961    2.1437   -0.2432 H   0  0  0  0  0  0  0  0  0  0  0  0
   -2.4832   -2.1533   -0.2394 H   0  0  0  0  0  0  0  0  0  0  0  0
    2.1820   -0.8272   -1.1285 H   0  0  0  0  0  0  0  0  0  0  0  0
   -3.7022   -0.0087   -0.5022 H   0  0  0  0  0  0  0  0  0  0  0  0
    3.9586   -0.9134    0.2502 H   0  0  0  0  0  0  0  0  0  0  0  0
    4.3312    0.0572   -1.0006 H   0  0  0  0  0  0  0  0  0  0  0  0
  1  2  1  0  0  0  0
  1  4  1  0  0  0  0
  1 16  1  0  0  0  0
  2 18  1  0  0  0  0
  2 19  1  0  0  0  0
  3  4  1  0  0  0  0
  3  5  2  0  0  0  0
  3  6  1  0  0  0  0
  4 10  1  0  0  0  0
  4 11  1  0  0  0  0
  5  7  1  0  0  0  0
  5 12  1  0  0  0  0
  6  8  2  0  0  0  0
  6 13  1  0  0  0  0
  7  9  2  0  0  0  0
  7 14  1  0  0  0  0
  8  9  1  0  0  0  0
  8 15  1  0  0  0  0
  9 17  1  0  0  0  0
M  END
> <PUBCHEM_COMPOUND_CID>
11157

> <PUBCHEM_CONFORMER_RMSD>
0.4

> <PUBCHEM_CONFORMER_DIVERSEORDER>
1
2
3

> <PUBCHEM_MMFF94_PARTIAL_CHARGES>
17
1 -0.63
12 0.15
13 0.15
14 0.15
15 0.15
16 0.36
17 0.15
18 0.36
19 0.36
2 -0.72
3 -0.14
4 0.41
5 -0.15
6 -0.15
7 -0.15
8 -0.15
9 -0.15

> <PUBCHEM_EFFECTIVE_ROTOR_COUNT>
2

> <PUBCHEM_PHARMACOPHORE_FEATURES>
3
1 1 donor
1 2 donor
6 3 5 6 7 8 9 rings

> <PUBCHEM_HEAVY_ATOM_COUNT>
9

> <PUBCHEM_ATOM_DEF_STEREO_COUNT>
0

> <PUBCHEM_ATOM_UDEF_STEREO_COUNT>
0

> <PUBCHEM_BOND_DEF_STEREO_COUNT>
0

> <PUBCHEM_BOND_UDEF_STEREO_COUNT>
0

> <PUBCHEM_ISOTOPIC_ATOM_COUNT>
0

> <PUBCHEM_COMPONENT_COUNT>
1

> <PUBCHEM_CACTVS_TAUTO_COUNT>
1

> <PUBCHEM_CONFORMER_ID>
00002B9500000001

> <PUBCHEM_MMFF94_ENERGY>
18.2294

> <PUBCHEM_FEATURE_SELFOVERLAP>
16.553

> <PUBCHEM_SHAPE_FINGERPRINT>
12716758 59 18408889550644298170
12897270 3 18409731755139505070
13024252 1 17561080298163143883
14128692 85 18267583507487597557
14325111 11 18412263977773696192
16714656 1 18410857659430985713
16945 1 18338811060630648473
20201158 50 17967248715326547854
20645464 45 17823441351688110194
21040471 1 18266190615413120969
21293036 1 18341058453823744893
23235685 24 18410579530328919581
23552423 10 18200316489716900816
2748010 2 18051145691843057459
29004967 10 16370725919903800410
369184 2 18410013234237116202

> <PUBCHEM_SHAPE_MULTIPOLES>
175.25
4.4
1.28
0.71
4.08
0
-0.02
0.01
0.77
-0.82
-0.02
0.1
0
0

> <PUBCHEM_SHAPE_SELFOVERLAP>
354.051

> <PUBCHEM_SHAPE_VOLUME>
102

> <PUBCHEM_COORDINATE_TYPE>
2
5
10

$$$$

