17396408
  -OEChem-06241222563D

 46 49  0     1  0  0  0  0  0999 V2000
   -2.4809   -3.0344    0.0679 S   0  0  0  0  0  0  0  0  0  0  0  0
   -4.1606   -0.6496   -1.1021 O   0  0  0  0  0  0  0  0  0  0  0  0
   -3.0117    0.5997    0.4857 N   0  0  0  0  0  0  0  0  0  0  0  0
    1.7855   -0.5534    1.2670 N   0  0  0  0  0  0  0  0  0  0  0  0
   -0.2780   -1.7418    0.8301 N   0  0  0  0  0  0  0  0  0  0  0  0
    0.5404   -1.4837   -1.8736 N   0  0  0  0  0  0  0  0  0  0  0  0
   -0.5852   -2.0919   -1.5591 N   0  0  0  0  0  0  0  0  0  0  0  0
   -1.7980    2.6518    0.1043 C   0  0  0  0  0  0  0  0  0  0  0  0
   -1.2034    3.5394   -0.9496 C   0  0  0  0  0  0  0  0  0  0  0  0
   -0.5018    2.2743   -0.5506 C   0  0  0  0  0  0  0  0  0  0  0  0
   -3.0361    1.8648   -0.2129 C   0  0  2  0  0  0  0  0  0  0  0  0
   -4.3000    2.6381    0.1405 C   0  0  0  0  0  0  0  0  0  0  0  0
   -3.5798   -0.5571   -0.0220 C   0  0  0  0  0  0  0  0  0  0  0  0
   -3.4367   -1.7399    0.9067 C   0  0  0  0  0  0  0  0  0  0  0  0
    2.8134   -0.0324    0.5075 C   0  0  0  0  0  0  0  0  0  0  0  0
    2.5202   -0.2956   -0.8357 C   0  0  0  0  0  0  0  0  0  0  0  0
    0.8562   -1.1344    0.4520 C   0  0  0  0  0  0  0  0  0  0  0  0
    1.2840   -0.9912   -0.8537 C   0  0  0  0  0  0  0  0  0  0  0  0
    1.7008   -0.4945    2.7108 C   0  0  0  0  0  0  0  0  0  0  0  0
    3.9708    0.6465    0.9055 C   0  0  0  0  0  0  0  0  0  0  0  0
    3.4239    0.1391   -1.8255 C   0  0  0  0  0  0  0  0  0  0  0  0
   -0.9396   -2.1935   -0.2531 C   0  0  0  0  0  0  0  0  0  0  0  0
    0.9804    0.7524    3.1942 C   0  0  0  0  0  0  0  0  0  0  0  0
    4.8515    1.0681   -0.0948 C   0  0  0  0  0  0  0  0  0  0  0  0
    4.5845    0.8191   -1.4395 C   0  0  0  0  0  0  0  0  0  0  0  0
   -1.7547    2.9863    1.1344 H   0  0  0  0  0  0  0  0  0  0  0  0
   -1.6661    3.5717   -1.9282 H   0  0  0  0  0  0  0  0  0  0  0  0
   -0.7693    4.4789   -0.6301 H   0  0  0  0  0  0  0  0  0  0  0  0
    0.4040    2.3646    0.0357 H   0  0  0  0  0  0  0  0  0  0  0  0
   -0.4967    1.4637   -1.2680 H   0  0  0  0  0  0  0  0  0  0  0  0
   -3.0702    1.6471   -1.2883 H   0  0  0  0  0  0  0  0  0  0  0  0
   -4.3443    2.8562    1.2137 H   0  0  0  0  0  0  0  0  0  0  0  0
   -4.3360    3.5930   -0.3947 H   0  0  0  0  0  0  0  0  0  0  0  0
   -5.1981    2.0673   -0.1187 H   0  0  0  0  0  0  0  0  0  0  0  0
   -2.5815    0.5775    1.4059 H   0  0  0  0  0  0  0  0  0  0  0  0
   -4.4364   -2.1191    1.1397 H   0  0  0  0  0  0  0  0  0  0  0  0
   -2.9517   -1.4712    1.8495 H   0  0  0  0  0  0  0  0  0  0  0  0
    2.7137   -0.5436    3.1230 H   0  0  0  0  0  0  0  0  0  0  0  0
    1.1761   -1.3926    3.0560 H   0  0  0  0  0  0  0  0  0  0  0  0
    4.1884    0.8503    1.9484 H   0  0  0  0  0  0  0  0  0  0  0  0
    3.2286   -0.0476   -2.8776 H   0  0  0  0  0  0  0  0  0  0  0  0
    1.4988    1.6607    2.8694 H   0  0  0  0  0  0  0  0  0  0  0  0
    0.9283    0.7613    4.2872 H   0  0  0  0  0  0  0  0  0  0  0  0
   -0.0420    0.7950    2.8032 H   0  0  0  0  0  0  0  0  0  0  0  0
    5.7586    1.5994    0.1821 H   0  0  0  0  0  0  0  0  0  0  0  0
    5.2846    1.1570   -2.1989 H   0  0  0  0  0  0  0  0  0  0  0  0
  1 14  1  0  0  0  0
  1 22  1  0  0  0  0
  2 13  2  0  0  0  0
  3 11  1  0  0  0  0
  3 13  1  0  0  0  0
  3 35  1  0  0  0  0
  4 15  1  0  0  0  0
  4 17  1  0  0  0  0
  4 19  1  0  0  0  0
  5 17  1  0  0  0  0
  5 22  2  0  0  0  0
  6  7  2  0  0  0  0
  6 18  1  0  0  0  0
  7 22  1  0  0  0  0
  8  9  1  0  0  0  0
  8 10  1  0  0  0  0
  8 11  1  0  0  0  0
  8 26  1  0  0  0  0
  9 10  1  0  0  0  0
  9 27  1  0  0  0  0
  9 28  1  0  0  0  0
 10 29  1  0  0  0  0
 10 30  1  0  0  0  0
 11 12  1  0  0  0  0
 11 31  1  0  0  0  0
 12 32  1  0  0  0  0
 12 33  1  0  0  0  0
 12 34  1  0  0  0  0
 13 14  1  0  0  0  0
 14 36  1  0  0  0  0
 14 37  1  0  0  0  0
 15 16  1  0  0  0  0
 15 20  2  0  0  0  0
 16 18  1  0  0  0  0
 16 21  2  0  0  0  0
 17 18  2  0  0  0  0
 19 23  1  0  0  0  0
 19 38  1  0  0  0  0
 19 39  1  0  0  0  0
 20 24  1  0  0  0  0
 20 40  1  0  0  0  0
 21 25  1  0  0  0  0
 21 41  1  0  0  0  0
 23 42  1  0  0  0  0
 23 43  1  0  0  0  0
 23 44  1  0  0  0  0
 24 25  2  0  0  0  0
 24 45  1  0  0  0  0
 25 46  1  0  0  0  0
M  END
> <PUBCHEM_COMPOUND_CID>
17396408

> <PUBCHEM_CONFORMER_RMSD>
1

> <PUBCHEM_CONFORMER_DIVERSEORDER>
1
5
111
100
51
76
102
25
4
73
24
81
35
134
15
38
49
82
2
68
63
36
94
89
128
131
98
80
113
87
3
77
116
119
121
110
67
122
12
106
39
93
26
91
43
133
18
92
83
55
22
123
50
64
85
32
53
20
103
130
107
17
28
58
33
52
44
101
105
61
79
30
129
8
23
29
42
14
88
125
66
109
59
11
37
124
132
6
57
45
104
34
126
115
114
31
74
62
95
118
48
19
47
97
60
27
16
127
96
78
46
108
69
75
84
41
56
21
40
9
117
65
99
71
112
120
7
70
10
54
72
90
13
86

> <PUBCHEM_MMFF94_PARTIAL_CHARGES>
32
1 -0.33
10 -0.2
11 0.4
13 0.57
14 0.29
15 -0.15
17 0.11
18 0.26
19 0.26
2 -0.57
20 -0.15
21 -0.15
22 0.72
24 -0.15
25 -0.15
26 0.1
27 0.1
28 0.1
29 0.1
3 -0.73
30 0.1
35 0.37
4 0.05
40 0.15
41 0.15
45 0.15
46 0.15
5 -0.57
6 -0.26
7 -0.31
8 -0.19
9 -0.2

> <PUBCHEM_EFFECTIVE_ROTOR_COUNT>
7.6

> <PUBCHEM_PHARMACOPHORE_FEATURES>
7
1 2 acceptor
1 3 donor
1 4 cation
3 5 7 22 cation
5 4 15 16 17 18 rings
6 15 16 20 21 24 25 rings
6 5 6 7 17 18 22 rings

> <PUBCHEM_HEAVY_ATOM_COUNT>
25

> <PUBCHEM_ATOM_DEF_STEREO_COUNT>
0

> <PUBCHEM_ATOM_UDEF_STEREO_COUNT>
1

> <PUBCHEM_BOND_DEF_STEREO_COUNT>
0

> <PUBCHEM_BOND_UDEF_STEREO_COUNT>
0

> <PUBCHEM_ISOTOPIC_ATOM_COUNT>
0

> <PUBCHEM_COMPONENT_COUNT>
1

> <PUBCHEM_CACTVS_TAUTO_COUNT>
2

> <PUBCHEM_CONFORMER_ID>
010972B800000001

> <PUBCHEM_MMFF94_ENERGY>
44.8721

> <PUBCHEM_FEATURE_SELFOVERLAP>
35.744

> <PUBCHEM_SHAPE_FINGERPRINT>
10165383 225 17822559569322490715
10498660 4 18339080492498352021
10670039 82 18343009004752718940
10675989 125 17406846549612756365
11421498 54 17916871209676301747
11578080 2 17749964245917382200
11595378 159 18200049360426935408
11640471 11 17560796667033794231
12293681 4 17913193283373277570
12596602 18 17346315969133417203
13726171 33 18339066151339443497
13965767 371 17415277510020569573
13994607 96 17272255043276667236
14251757 17 17967244300305921864
14341114 328 17918268766301428376
14787075 74 17344050884674707427
17357779 13 18041288647277679343
17492 54 18272084972553522317
19930381 70 15528823982574201462
20511986 3 17489041413034893285
20600515 1 16965825447387775678
21033648 29 17676768648148434723
23419403 2 17313668123209698344
23557571 272 18335687334826282127
23559900 14 17404308889628439709
238 59 16879375465227607773
3052486 1 18341901783168171993
35225 105 18124630632014461381
3524813 1 17967533437034757755
469060 322 18126539294354153819
7808743 9 18410853287323310937

> <PUBCHEM_SHAPE_MULTIPOLES>
487.56
8.21
3.46
2.08
2.12
1.47
1.48
2.66
-1.29
-4.52
-0.72
1.77
-0.25
-0.11

> <PUBCHEM_SHAPE_SELFOVERLAP>
1034.044

> <PUBCHEM_SHAPE_VOLUME>
277.1

> <PUBCHEM_COORDINATE_TYPE>
2
5
10

$$$$

