13114
  -OEChem-06261207463D

 40 42  0     0  0  0  0  0  0999 V2000
    0.1969   -2.8794    0.4018 Br  0  0  0  0  0  0  0  0  0  0  0  0
   -2.0633   -1.4202   -2.1477 F   0  0  0  0  0  0  0  0  0  0  0  0
    5.7211   -0.3754    0.2748 O   0  0  0  0  0  0  0  0  0  0  0  0
    0.1292   -0.0113    0.1554 C   0  0  0  0  0  0  0  0  0  0  0  0
    1.6251   -0.1084    0.1880 C   0  0  0  0  0  0  0  0  0  0  0  0
   -0.5285    1.2804    0.0341 C   0  0  0  0  0  0  0  0  0  0  0  0
   -0.5975   -1.1728    0.2422 C   0  0  0  0  0  0  0  0  0  0  0  0
   -2.0739   -1.2173    0.2212 C   0  0  0  0  0  0  0  0  0  0  0  0
    2.2573   -0.0477    1.4050 C   0  0  0  0  0  0  0  0  0  0  0  0
    2.2947   -0.2539   -1.0019 C   0  0  0  0  0  0  0  0  0  0  0  0
   -0.8243    1.7967   -1.2276 C   0  0  0  0  0  0  0  0  0  0  0  0
   -0.8635    2.0029    1.1794 C   0  0  0  0  0  0  0  0  0  0  0  0
    3.6489   -0.1382    1.4343 C   0  0  0  0  0  0  0  0  0  0  0  0
    3.6863   -0.3445   -0.9726 C   0  0  0  0  0  0  0  0  0  0  0  0
    4.3635   -0.2868    0.2455 C   0  0  0  0  0  0  0  0  0  0  0  0
   -2.7336   -1.3402   -0.9890 C   0  0  0  0  0  0  0  0  0  0  0  0
   -2.7637   -1.1346    1.4181 C   0  0  0  0  0  0  0  0  0  0  0  0
   -1.4547    3.0354   -1.3439 C   0  0  0  0  0  0  0  0  0  0  0  0
   -1.4940    3.2416    1.0629 C   0  0  0  0  0  0  0  0  0  0  0  0
   -1.7896    3.7579   -0.1988 C   0  0  0  0  0  0  0  0  0  0  0  0
   -4.1279   -1.3820   -1.0026 C   0  0  0  0  0  0  0  0  0  0  0  0
   -4.1579   -1.1761    1.4042 C   0  0  0  0  0  0  0  0  0  0  0  0
   -4.8400   -1.2999    0.1940 C   0  0  0  0  0  0  0  0  0  0  0  0
    6.3894   -0.5262   -0.9768 C   0  0  0  0  0  0  0  0  0  0  0  0
    1.7094    0.0668    2.3355 H   0  0  0  0  0  0  0  0  0  0  0  0
    1.7748   -0.3008   -1.9544 H   0  0  0  0  0  0  0  0  0  0  0  0
   -0.5712    1.2465   -2.1307 H   0  0  0  0  0  0  0  0  0  0  0  0
   -0.6412    1.6151    2.1707 H   0  0  0  0  0  0  0  0  0  0  0  0
    4.1708   -0.0929    2.3863 H   0  0  0  0  0  0  0  0  0  0  0  0
    4.1785   -0.4591   -1.9324 H   0  0  0  0  0  0  0  0  0  0  0  0
   -2.2444   -1.0378    2.3677 H   0  0  0  0  0  0  0  0  0  0  0  0
   -1.6855    3.4372   -2.3263 H   0  0  0  0  0  0  0  0  0  0  0  0
   -1.7553    3.8040    1.9544 H   0  0  0  0  0  0  0  0  0  0  0  0
   -2.2809    4.7222   -0.2895 H   0  0  0  0  0  0  0  0  0  0  0  0
   -4.6588   -1.4781   -1.9451 H   0  0  0  0  0  0  0  0  0  0  0  0
   -4.7123   -1.1119    2.3359 H   0  0  0  0  0  0  0  0  0  0  0  0
   -5.9255   -1.3321    0.1831 H   0  0  0  0  0  0  0  0  0  0  0  0
    7.4624   -0.5803   -0.7658 H   0  0  0  0  0  0  0  0  0  0  0  0
    6.2341    0.3442   -1.6232 H   0  0  0  0  0  0  0  0  0  0  0  0
    6.1129   -1.4642   -1.4701 H   0  0  0  0  0  0  0  0  0  0  0  0
  1  7  1  0  0  0  0
  2 16  1  0  0  0  0
  3 15  1  0  0  0  0
  3 24  1  0  0  0  0
  4  5  1  0  0  0  0
  4  6  1  0  0  0  0
  4  7  2  0  0  0  0
  5  9  2  0  0  0  0
  5 10  1  0  0  0  0
  6 11  2  0  0  0  0
  6 12  1  0  0  0  0
  7  8  1  0  0  0  0
  8 16  1  0  0  0  0
  8 17  2  0  0  0  0
  9 13  1  0  0  0  0
  9 25  1  0  0  0  0
 10 14  2  0  0  0  0
 10 26  1  0  0  0  0
 11 18  1  0  0  0  0
 11 27  1  0  0  0  0
 12 19  2  0  0  0  0
 12 28  1  0  0  0  0
 13 15  2  0  0  0  0
 13 29  1  0  0  0  0
 14 15  1  0  0  0  0
 14 30  1  0  0  0  0
 16 21  2  0  0  0  0
 17 22  1  0  0  0  0
 17 31  1  0  0  0  0
 18 20  2  0  0  0  0
 18 32  1  0  0  0  0
 19 20  1  0  0  0  0
 19 33  1  0  0  0  0
 20 34  1  0  0  0  0
 21 23  1  0  0  0  0
 21 35  1  0  0  0  0
 22 23  2  0  0  0  0
 22 36  1  0  0  0  0
 23 37  1  0  0  0  0
 24 38  1  0  0  0  0
 24 39  1  0  0  0  0
 24 40  1  0  0  0  0
M  END
> <PUBCHEM_COMPOUND_CID>
13114

> <PUBCHEM_CONFORMER_RMSD>
0.8

> <PUBCHEM_CONFORMER_DIVERSEORDER>
1
2

> <PUBCHEM_MMFF94_PARTIAL_CHARGES>
37
1 -0.11
10 -0.15
11 -0.15
12 -0.15
13 -0.15
14 -0.15
15 0.08
16 0.19
17 -0.15
18 -0.15
19 -0.15
2 -0.19
20 -0.15
21 -0.15
22 -0.15
23 -0.15
24 0.28
25 0.15
26 0.15
27 0.15
28 0.15
29 0.15
3 -0.36
30 0.15
31 0.15
32 0.15
33 0.15
34 0.15
35 0.15
36 0.15
37 0.15
4 -0.06
5 0.03
6 0.03
7 0.08
8 0.03
9 -0.15

> <PUBCHEM_EFFECTIVE_ROTOR_COUNT>
4

> <PUBCHEM_PHARMACOPHORE_FEATURES>
5
1 1 hydrophobe
1 3 acceptor
6 5 9 10 13 14 15 rings
6 6 11 12 18 19 20 rings
6 8 16 17 21 22 23 rings

> <PUBCHEM_HEAVY_ATOM_COUNT>
24

> <PUBCHEM_ATOM_DEF_STEREO_COUNT>
0

> <PUBCHEM_ATOM_UDEF_STEREO_COUNT>
0

> <PUBCHEM_BOND_DEF_STEREO_COUNT>
0

> <PUBCHEM_BOND_UDEF_STEREO_COUNT>
1

> <PUBCHEM_ISOTOPIC_ATOM_COUNT>
0

> <PUBCHEM_COMPONENT_COUNT>
1

> <PUBCHEM_CACTVS_TAUTO_COUNT>
1

> <PUBCHEM_CONFORMER_ID>
0000333A00000001

> <PUBCHEM_MMFF94_ENERGY>
91.6748

> <PUBCHEM_FEATURE_SELFOVERLAP>
25.371

> <PUBCHEM_SHAPE_FINGERPRINT>
104564 63 18340490057920435329
10764073 3 15650389785061101585
11101153 10 18271231717898948484
11578080 2 17753308040501111860
12236239 1 17490153010964169690
12553582 1 18340495469220889642
12714826 92 18408328799740525720
12788726 201 18343589563634190714
12954195 1 18335980990868197286
13009979 54 17896592878713802235
13134695 92 18192713341711322341
13140716 1 18196369209120336346
13149001 5 17911247122101541691
133893 2 17620774786032326957
13681431 1 18051979121467455821
13911987 19 18201719496635188454
13965767 371 17391032141010311003
14347332 77 18337393846278284974
14910302 57 17531788247758586878
14955137 171 18266448807509718579
15131766 46 15721105760454871248
15849732 13 17968093093639929927
16752209 62 18342751731700559794
17357779 13 18335435542759041573
1813 80 18336257942901525533
200 152 17203890743134967650
20510252 161 18410015450725233704
20600515 1 18264473001766492003
21041028 32 18340198593119118305
21236236 1 18339921614688031064
21285901 2 18187350043611812479
21304303 282 17481751771038435517
21330990 113 17313649516989144927
21641784 216 18202271520391950812
229495 10 14491020739683819561
23175994 123 18201438026522591555
23402539 116 18409166593241399358
23419403 2 17605017847982659553
23557571 272 18334572469323516508
23558518 356 17915174839296523802
23559900 14 18266458712115265778
25147074 1 17986964144513793378
266924 87 18340493390462025431
283562 15 18412826914578725171
3027735 51 18339644550363548675
314173 85 18335986380514194274
350125 39 18194677296674038162
469060 322 18272075124304185009
5171179 24 18042422252430477313
68521 5 18413110567277934441
6992083 37 17823414908038945407
7237137 82 18410570708656277204
81228 2 18340481253037252489

> <PUBCHEM_SHAPE_MULTIPOLES>
486.71
9.61
3.42
1.55
12.8
3.58
-0.12
-4.82
-0.79
-3.89
-0.06
-0.38
0.04
0.04

> <PUBCHEM_SHAPE_SELFOVERLAP>
1053.712

> <PUBCHEM_SHAPE_VOLUME>
272.2

> <PUBCHEM_COORDINATE_TYPE>
2
5
10

$$$$

