10210
  -OEChem-06261204223D

 28 29  0     0  0  0  0  0  0999 V2000
   -1.9600    1.5889   -2.2055 O   0  0  0  0  0  0  0  0  0  0  0  0
    2.0226   -2.5525   -1.3104 O   0  0  0  0  0  0  0  0  0  0  0  0
   -0.1800    2.2838   -0.9747 O   0  0  0  0  0  0  0  0  0  0  0  0
   -0.0465   -1.6476   -1.5673 O   0  0  0  0  0  0  0  0  0  0  0  0
   -0.6909   -0.1132    0.6934 C   0  0  0  0  0  0  0  0  0  0  0  0
    0.7291    0.1748    0.6392 C   0  0  0  0  0  0  0  0  0  0  0  0
   -1.5941    0.5423   -0.1432 C   0  0  0  0  0  0  0  0  0  0  0  0
    1.5788   -0.5341   -0.2099 C   0  0  0  0  0  0  0  0  0  0  0  0
   -1.1484   -1.0662    1.6035 C   0  0  0  0  0  0  0  0  0  0  0  0
    1.2415    1.1825    1.4564 C   0  0  0  0  0  0  0  0  0  0  0  0
   -2.9549    0.2450   -0.0698 C   0  0  0  0  0  0  0  0  0  0  0  0
    2.9410   -0.2355   -0.2417 C   0  0  0  0  0  0  0  0  0  0  0  0
   -2.5093   -1.3634    1.6770 C   0  0  0  0  0  0  0  0  0  0  0  0
    2.6037    1.4809    1.4246 C   0  0  0  0  0  0  0  0  0  0  0  0
   -3.4126   -0.7078    0.8405 C   0  0  0  0  0  0  0  0  0  0  0  0
    3.4535    0.7720    0.5757 C   0  0  0  0  0  0  0  0  0  0  0  0
   -1.1584    1.5454   -1.1081 C   0  0  0  0  0  0  0  0  0  0  0  0
    1.0848   -1.5954   -1.0798 C   0  0  0  0  0  0  0  0  0  0  0  0
   -0.4592   -1.5879    2.2635 H   0  0  0  0  0  0  0  0  0  0  0  0
    0.5945    1.7463    2.1245 H   0  0  0  0  0  0  0  0  0  0  0  0
   -3.6873    0.7471   -0.6964 H   0  0  0  0  0  0  0  0  0  0  0  0
    3.6285   -0.7581   -0.9015 H   0  0  0  0  0  0  0  0  0  0  0  0
   -2.8658   -2.1049    2.3860 H   0  0  0  0  0  0  0  0  0  0  0  0
    3.0026    2.2662    2.0601 H   0  0  0  0  0  0  0  0  0  0  0  0
   -4.4725   -0.9371    0.9003 H   0  0  0  0  0  0  0  0  0  0  0  0
    4.5135    1.0072    0.5488 H   0  0  0  0  0  0  0  0  0  0  0  0
   -1.6605    2.2650   -2.8500 H   0  0  0  0  0  0  0  0  0  0  0  0
    1.6835   -3.2623   -1.8965 H   0  0  0  0  0  0  0  0  0  0  0  0
  1 17  1  0  0  0  0
  1 27  1  0  0  0  0
  2 18  1  0  0  0  0
  2 28  1  0  0  0  0
  3 17  2  0  0  0  0
  4 18  2  0  0  0  0
  5  6  1  0  0  0  0
  5  7  1  0  0  0  0
  5  9  2  0  0  0  0
  6  8  1  0  0  0  0
  6 10  2  0  0  0  0
  7 11  2  0  0  0  0
  7 17  1  0  0  0  0
  8 12  2  0  0  0  0
  8 18  1  0  0  0  0
  9 13  1  0  0  0  0
  9 19  1  0  0  0  0
 10 14  1  0  0  0  0
 10 20  1  0  0  0  0
 11 15  1  0  0  0  0
 11 21  1  0  0  0  0
 12 16  1  0  0  0  0
 12 22  1  0  0  0  0
 13 15  2  0  0  0  0
 13 23  1  0  0  0  0
 14 16  2  0  0  0  0
 14 24  1  0  0  0  0
 15 25  1  0  0  0  0
 16 26  1  0  0  0  0
M  END
> <PUBCHEM_COMPOUND_CID>
10210

> <PUBCHEM_CONFORMER_RMSD>
0.6

> <PUBCHEM_CONFORMER_DIVERSEORDER>
2
1

> <PUBCHEM_MMFF94_PARTIAL_CHARGES>
26
1 -0.65
10 -0.15
11 -0.15
12 -0.15
13 -0.15
14 -0.15
15 -0.15
16 -0.15
17 0.63
18 0.63
19 0.15
2 -0.65
20 0.15
21 0.15
22 0.15
23 0.15
24 0.15
25 0.15
26 0.15
27 0.5
28 0.5
3 -0.57
4 -0.57
7 0.09
8 0.09
9 -0.15

> <PUBCHEM_EFFECTIVE_ROTOR_COUNT>
3

> <PUBCHEM_PHARMACOPHORE_FEATURES>
8
1 1 acceptor
1 2 acceptor
1 3 acceptor
1 4 acceptor
3 1 3 17 anion
3 2 4 18 anion
6 5 7 9 11 13 15 rings
6 6 8 10 12 14 16 rings

> <PUBCHEM_HEAVY_ATOM_COUNT>
18

> <PUBCHEM_ATOM_DEF_STEREO_COUNT>
0

> <PUBCHEM_ATOM_UDEF_STEREO_COUNT>
0

> <PUBCHEM_BOND_DEF_STEREO_COUNT>
0

> <PUBCHEM_BOND_UDEF_STEREO_COUNT>
0

> <PUBCHEM_ISOTOPIC_ATOM_COUNT>
0

> <PUBCHEM_COMPONENT_COUNT>
1

> <PUBCHEM_CACTVS_TAUTO_COUNT>
1

> <PUBCHEM_CONFORMER_ID>
000027E200000002

> <PUBCHEM_MMFF94_ENERGY>
67.0971

> <PUBCHEM_FEATURE_SELFOVERLAP>
40.71

> <PUBCHEM_SHAPE_FINGERPRINT>
11582403 64 16972874596822307652
11725454 13 17548755897871022212
12035759 4 16969702187868803996
12236239 1 15791726403836482777
12403814 3 18195820565628962496
12423570 1 14897767710437702714
12491281 212 14274005585776527450
12808571 1 15140947448756288617
13294875 104 16905836500871388580
13538477 17 16415481540828564745
13583140 156 17912400621858586896
14817 1 7608259412158367927
15219456 202 18408882974943775491
15309172 13 17968657103748387232
15881359 60 18123772875431950653
16945 1 18040986332813790858
18175812 5 18338794516042123545
18219364 16 18114754754296928592
19049666 15 18196654222732925602
20344682 1 18339359669303217900
20600515 1 17703782600907364957
22112679 90 15984814982290697591
22802520 49 18195528318552344484
23236772 104 15936692579531523291
232386 152 17059771096835579579
23402539 116 18059304170994856715
23419403 2 18263917911634890519
23493267 7 18130796714967060136
23557571 272 18202273727899378797
23559900 14 17989207079530751450
238 59 17898885518712141948
2748010 2 18271241728781191531
3286 77 18186793690680522099
430814 3 15864339238351005331
4340502 62 17313667036667491475
474 4 16082516340516727320
5845 1 9109211922529478506
77492 1 15864068779954833713
81228 2 17917133014113979793
8272917 22 17241308288049145891

> <PUBCHEM_SHAPE_MULTIPOLES>
346.95
4.82
2.1
1.84
0.13
0.23
0.24
0.03
-1.34
0.37
1
-0.4
-0.03
1.86

> <PUBCHEM_SHAPE_SELFOVERLAP>
766.741

> <PUBCHEM_SHAPE_VOLUME>
185.2

> <PUBCHEM_COORDINATE_TYPE>
2
5
10

$$$$

