12495
  -OEChem-06261207003D

 14 14  0     0  0  0  0  0  0999 V2000
    4.0913   -0.0003    0.0003 I   0  0  0  0  0  0  0  0  0  0  0  0
   -2.8041   -1.0977    0.0001 O   0  5  0  0  0  0  0  0  0  0  0  0
   -2.8041    1.0975    0.0003 O   0  0  0  0  0  0  0  0  0  0  0  0
   -2.1959    0.0000   -0.0001 N   0  3  0  0  0  0  0  0  0  0  0  0
   -0.7760    0.0000   -0.0002 C   0  0  0  0  0  0  0  0  0  0  0  0
   -0.0787   -1.2080   -0.0001 C   0  0  0  0  0  0  0  0  0  0  0  0
   -0.0787    1.2081   -0.0002 C   0  0  0  0  0  0  0  0  0  0  0  0
    1.3161   -1.2079    0.0000 C   0  0  0  0  0  0  0  0  0  0  0  0
    1.3163    1.2082   -0.0001 C   0  0  0  0  0  0  0  0  0  0  0  0
    2.0137    0.0001    0.0000 C   0  0  0  0  0  0  0  0  0  0  0  0
   -0.5887   -2.1679   -0.0001 H   0  0  0  0  0  0  0  0  0  0  0  0
   -0.5888    2.1680   -0.0002 H   0  0  0  0  0  0  0  0  0  0  0  0
    1.8403   -2.1603    0.0002 H   0  0  0  0  0  0  0  0  0  0  0  0
    1.8405    2.1606   -0.0001 H   0  0  0  0  0  0  0  0  0  0  0  0
  1 10  1  0  0  0  0
  2  4  1  0  0  0  0
  3  4  2  0  0  0  0
  4  5  1  0  0  0  0
  5  6  2  0  0  0  0
  5  7  1  0  0  0  0
  6  8  1  0  0  0  0
  6 11  1  0  0  0  0
  7  9  2  0  0  0  0
  7 12  1  0  0  0  0
  8 10  2  0  0  0  0
  8 13  1  0  0  0  0
  9 10  1  0  0  0  0
  9 14  1  0  0  0  0
M  CHG  2   2  -1   4   1
M  END
> <PUBCHEM_COMPOUND_CID>
12495

> <PUBCHEM_CONFORMER_RMSD>
0.4

> <PUBCHEM_CONFORMER_DIVERSEORDER>
1

> <PUBCHEM_MMFF94_PARTIAL_CHARGES>
14
1 -0.08
10 0.08
11 0.15
12 0.15
13 0.15
14 0.15
2 -0.52
3 -0.52
4 0.91
5 0.13
6 -0.15
7 -0.15
8 -0.15
9 -0.15

> <PUBCHEM_EFFECTIVE_ROTOR_COUNT>
1

> <PUBCHEM_PHARMACOPHORE_FEATURES>
5
1 1 hydrophobe
1 2 acceptor
1 2 anion
1 3 acceptor
6 5 6 7 8 9 10 rings

> <PUBCHEM_HEAVY_ATOM_COUNT>
10

> <PUBCHEM_ATOM_DEF_STEREO_COUNT>
0

> <PUBCHEM_ATOM_UDEF_STEREO_COUNT>
0

> <PUBCHEM_BOND_DEF_STEREO_COUNT>
0

> <PUBCHEM_BOND_UDEF_STEREO_COUNT>
0

> <PUBCHEM_ISOTOPIC_ATOM_COUNT>
0

> <PUBCHEM_COMPONENT_COUNT>
1

> <PUBCHEM_CACTVS_TAUTO_COUNT>
1

> <PUBCHEM_CONFORMER_ID>
000030CF00000001

> <PUBCHEM_MMFF94_ENERGY>
26.9012

> <PUBCHEM_FEATURE_SELFOVERLAP>
25.453

> <PUBCHEM_SHAPE_FINGERPRINT>
10857977 72 18410020918049685978
11062470 55 17561081423529016868
12032990 46 18409441475738573246
14325111 11 18410573976967789376
14993402 34 18343864394697297388
16945 1 18410856564172120708
193761 8 17617940674494555872
21040471 1 18338516313941313892
21293036 1 18411978040573865524
23235685 24 18410860970982698176
23380061 330 18335144163403013062
23402539 116 18261683631646784110
23402655 69 18192447461908738933
23463225 33 18342741857913546538
23552423 10 18271803544589018103
2748010 2 18122626046381466268
29004967 10 18412260653178897882
5084963 1 18261389996984701049
528886 8 18410017662374791704
53812653 166 18334862735818681360

> <PUBCHEM_SHAPE_MULTIPOLES>
201.01
5.48
1.4
0.63
2.1
0
0
0
0
-0.27
0
0.21
0
0

> <PUBCHEM_SHAPE_SELFOVERLAP>
397.573

> <PUBCHEM_SHAPE_VOLUME>
123.5

> <PUBCHEM_COORDINATE_TYPE>
2
5
10

$$$$

