14001
  -OEChem-06241222413D

 64 68  0     1  0  0  0  0  0999 V2000
    2.9614   -3.4301   -0.8095 O   0  0  0  0  0  0  0  0  0  0  0  0
    4.7323   -0.4034   -0.2741 N   0  0  3  0  0  0  0  0  0  0  0  0
    0.5720   -0.7275    0.4021 N   0  0  0  0  0  0  0  0  0  0  0  0
    5.1011   -2.5515   -0.9588 N   0  0  0  0  0  0  0  0  0  0  0  0
   -3.6612   -2.8723   -1.0436 N   0  0  0  0  0  0  0  0  0  0  0  0
    3.4077   -1.0762   -0.2211 C   0  0  0  0  0  0  0  0  0  0  0  0
    2.4165   -0.4734   -1.2330 C   0  0  0  0  0  0  0  0  0  0  0  0
    2.8692   -1.1737    1.2177 C   0  0  0  0  0  0  0  0  0  0  0  0
    0.9688   -0.9155   -0.9984 C   0  0  0  0  0  0  0  0  0  0  0  0
    1.3904   -1.5677    1.2846 C   0  0  0  0  0  0  0  0  0  0  0  0
    3.7477   -2.5012   -0.6911 C   0  0  0  0  0  0  0  0  0  0  0  0
    5.7748   -1.3148   -0.7318 C   0  0  0  0  0  0  0  0  0  0  0  0
   -0.8467   -1.0432    0.5738 C   0  0  0  0  0  0  0  0  0  0  0  0
    5.0480    0.9106    0.0428 C   0  0  0  0  0  0  0  0  0  0  0  0
   -1.7003   -0.1345   -0.3292 C   0  0  0  0  0  0  0  0  0  0  0  0
   -3.2543   -0.3724   -0.2437 C   0  0  0  0  0  0  0  0  0  0  0  0
    4.0623    1.8323    0.4932 C   0  0  0  0  0  0  0  0  0  0  0  0
    6.3753    1.4116   -0.0642 C   0  0  0  0  0  0  0  0  0  0  0  0
   -3.7122   -0.0977    1.2096 C   0  0  0  0  0  0  0  0  0  0  0  0
   -4.0630    0.5282   -1.2151 C   0  0  0  0  0  0  0  0  0  0  0  0
    4.3796    3.1527    0.8121 C   0  0  0  0  0  0  0  0  0  0  0  0
    6.6924    2.7318    0.2550 C   0  0  0  0  0  0  0  0  0  0  0  0
   -3.4862   -1.7817   -0.6857 C   0  0  0  0  0  0  0  0  0  0  0  0
    5.6947    3.6024    0.6930 C   0  0  0  0  0  0  0  0  0  0  0  0
   -4.2615   -1.1327    1.9147 C   0  0  0  0  0  0  0  0  0  0  0  0
   -5.4149    0.3451   -1.2771 C   0  0  0  0  0  0  0  0  0  0  0  0
   -3.5415    1.1643    1.7075 C   0  0  0  0  0  0  0  0  0  0  0  0
   -3.3750    1.4509   -1.9503 C   0  0  0  0  0  0  0  0  0  0  0  0
   -4.6739   -0.8855    3.2240 C   0  0  0  0  0  0  0  0  0  0  0  0
   -6.1419    1.1546   -2.1499 C   0  0  0  0  0  0  0  0  0  0  0  0
   -3.9538    1.4115    3.0170 C   0  0  0  0  0  0  0  0  0  0  0  0
   -4.1020    2.2605   -2.8230 C   0  0  0  0  0  0  0  0  0  0  0  0
   -4.5201    0.3865    3.7751 C   0  0  0  0  0  0  0  0  0  0  0  0
   -5.4855    2.1122   -2.9227 C   0  0  0  0  0  0  0  0  0  0  0  0
    2.4398    0.6200   -1.2179 H   0  0  0  0  0  0  0  0  0  0  0  0
    2.7063   -0.7482   -2.2565 H   0  0  0  0  0  0  0  0  0  0  0  0
    3.4527   -1.9053    1.7930 H   0  0  0  0  0  0  0  0  0  0  0  0
    2.9874   -0.2315    1.7598 H   0  0  0  0  0  0  0  0  0  0  0  0
    0.4028   -0.2891   -1.6906 H   0  0  0  0  0  0  0  0  0  0  0  0
    0.8289   -1.9563   -1.3156 H   0  0  0  0  0  0  0  0  0  0  0  0
    1.0610   -1.4471    2.3245 H   0  0  0  0  0  0  0  0  0  0  0  0
    1.2703   -2.6304    1.0395 H   0  0  0  0  0  0  0  0  0  0  0  0
    6.5445   -1.4847    0.0277 H   0  0  0  0  0  0  0  0  0  0  0  0
    6.2224   -0.9961   -1.6785 H   0  0  0  0  0  0  0  0  0  0  0  0
   -1.1221   -0.8739    1.6208 H   0  0  0  0  0  0  0  0  0  0  0  0
   -1.0358   -2.1004    0.3516 H   0  0  0  0  0  0  0  0  0  0  0  0
    5.5687   -3.3910   -1.2861 H   0  0  0  0  0  0  0  0  0  0  0  0
   -1.4408    0.9071   -0.0982 H   0  0  0  0  0  0  0  0  0  0  0  0
   -1.4470   -0.3203   -1.3775 H   0  0  0  0  0  0  0  0  0  0  0  0
    3.0215    1.5488    0.6068 H   0  0  0  0  0  0  0  0  0  0  0  0
    7.1900    0.7747   -0.4006 H   0  0  0  0  0  0  0  0  0  0  0  0
    3.6032    3.8314    1.1530 H   0  0  0  0  0  0  0  0  0  0  0  0
    7.7161    3.0827    0.1625 H   0  0  0  0  0  0  0  0  0  0  0  0
    5.9416    4.6304    0.9413 H   0  0  0  0  0  0  0  0  0  0  0  0
   -4.4027   -2.1366    1.5352 H   0  0  0  0  0  0  0  0  0  0  0  0
   -5.9416   -0.3930   -0.6814 H   0  0  0  0  0  0  0  0  0  0  0  0
   -3.1071    1.9743    1.1320 H   0  0  0  0  0  0  0  0  0  0  0  0
   -2.3072    1.6173   -1.9149 H   0  0  0  0  0  0  0  0  0  0  0  0
   -5.1147   -1.6830    3.8151 H   0  0  0  0  0  0  0  0  0  0  0  0
   -7.2191    1.0399   -2.2270 H   0  0  0  0  0  0  0  0  0  0  0  0
   -3.8350    2.4021    3.4461 H   0  0  0  0  0  0  0  0  0  0  0  0
   -3.5921    3.0076   -3.4244 H   0  0  0  0  0  0  0  0  0  0  0  0
   -4.8413    0.5790    4.7946 H   0  0  0  0  0  0  0  0  0  0  0  0
   -6.0516    2.7429   -3.6019 H   0  0  0  0  0  0  0  0  0  0  0  0
  1 11  2  0  0  0  0
  2  6  1  0  0  0  0
  2 12  1  0  0  0  0
  2 14  1  0  0  0  0
  3  9  1  0  0  0  0
  3 10  1  0  0  0  0
  3 13  1  0  0  0  0
  4 11  1  0  0  0  0
  4 12  1  0  0  0  0
  4 47  1  0  0  0  0
  5 23  3  0  0  0  0
  6  7  1  0  0  0  0
  6  8  1  0  0  0  0
  6 11  1  0  0  0  0
  7  9  1  0  0  0  0
  7 35  1  0  0  0  0
  7 36  1  0  0  0  0
  8 10  1  0  0  0  0
  8 37  1  0  0  0  0
  8 38  1  0  0  0  0
  9 39  1  0  0  0  0
  9 40  1  0  0  0  0
 10 41  1  0  0  0  0
 10 42  1  0  0  0  0
 12 43  1  0  0  0  0
 12 44  1  0  0  0  0
 13 15  1  0  0  0  0
 13 45  1  0  0  0  0
 13 46  1  0  0  0  0
 14 17  2  0  0  0  0
 14 18  1  0  0  0  0
 15 16  1  0  0  0  0
 15 48  1  0  0  0  0
 15 49  1  0  0  0  0
 16 19  1  0  0  0  0
 16 20  1  0  0  0  0
 16 23  1  0  0  0  0
 17 21  1  0  0  0  0
 17 50  1  0  0  0  0
 18 22  2  0  0  0  0
 18 51  1  0  0  0  0
 19 25  2  0  0  0  0
 19 27  1  0  0  0  0
 20 26  2  0  0  0  0
 20 28  1  0  0  0  0
 21 24  2  0  0  0  0
 21 52  1  0  0  0  0
 22 24  1  0  0  0  0
 22 53  1  0  0  0  0
 24 54  1  0  0  0  0
 25 29  1  0  0  0  0
 25 55  1  0  0  0  0
 26 30  1  0  0  0  0
 26 56  1  0  0  0  0
 27 31  2  0  0  0  0
 27 57  1  0  0  0  0
 28 32  2  0  0  0  0
 28 58  1  0  0  0  0
 29 33  2  0  0  0  0
 29 59  1  0  0  0  0
 30 34  2  0  0  0  0
 30 60  1  0  0  0  0
 31 33  1  0  0  0  0
 31 61  1  0  0  0  0
 32 34  1  0  0  0  0
 32 62  1  0  0  0  0
 33 63  1  0  0  0  0
 34 64  1  0  0  0  0
M  END
> <PUBCHEM_COMPOUND_CID>
14001

> <PUBCHEM_CONFORMER_RMSD>
1

> <PUBCHEM_CONFORMER_DIVERSEORDER>
1
20
19
18
11
23
5
12
4
22
26
24
10
8
6
21
25
2
3
15
13
9
14
7
17
16

> <PUBCHEM_MMFF94_PARTIAL_CHARGES>
47
1 -0.57
10 0.27
11 0.57
12 0.67
13 0.27
14 0.1
16 0.49
17 -0.15
18 -0.15
19 -0.14
2 -0.84
20 -0.14
21 -0.15
22 -0.15
23 0.36
24 -0.15
25 -0.15
26 -0.15
27 -0.15
28 -0.15
29 -0.15
3 -0.81
30 -0.15
31 -0.15
32 -0.15
33 -0.15
34 -0.15
4 -0.73
47 0.37
5 -0.56
50 0.15
51 0.15
52 0.15
53 0.15
54 0.15
55 0.15
56 0.15
57 0.15
58 0.15
59 0.15
6 0.43
60 0.15
61 0.15
62 0.15
63 0.15
64 0.15
9 0.27

> <PUBCHEM_EFFECTIVE_ROTOR_COUNT>
7.6

> <PUBCHEM_PHARMACOPHORE_FEATURES>
10
1 1 acceptor
1 2 cation
1 3 cation
1 4 donor
1 5 acceptor
5 2 4 6 11 12 rings
6 14 17 18 21 22 24 rings
6 19 25 27 29 31 33 rings
6 20 26 28 30 32 34 rings
6 3 6 7 8 9 10 rings

> <PUBCHEM_HEAVY_ATOM_COUNT>
34

> <PUBCHEM_ATOM_DEF_STEREO_COUNT>
0

> <PUBCHEM_ATOM_UDEF_STEREO_COUNT>
0

> <PUBCHEM_BOND_DEF_STEREO_COUNT>
0

> <PUBCHEM_BOND_UDEF_STEREO_COUNT>
0

> <PUBCHEM_ISOTOPIC_ATOM_COUNT>
0

> <PUBCHEM_COMPONENT_COUNT>
1

> <PUBCHEM_CACTVS_TAUTO_COUNT>
2

> <PUBCHEM_CONFORMER_ID>
000036B100000001

> <PUBCHEM_MMFF94_ENERGY>
119.7866

> <PUBCHEM_FEATURE_SELFOVERLAP>
50.748

> <PUBCHEM_SHAPE_FINGERPRINT>
11135926 11 18260542300102236640
11315621 246 14346085174616843797
11331351 85 16663723955511843270
11621639 307 17749387040287836000
12616971 3 17895182346691617754
13782708 43 17917701453363212218
14347332 77 15141259749298832231
14556957 393 17385731317959449961
14856354 85 16879619385411546895
15021287 119 17969774383930627882
15081414 286 18340758270402710884
15082195 135 18040726848554938610
15131766 46 18115019693676593265
15183329 4 18186236217622805816
15289351 153 17531535279377034240
17809404 112 17846780736582426697
18470217 77 17561083554160298033
21033648 144 18410853222772246486
21033648 29 17775284962847460348
22122407 14 18336267967313581005
23081809 10 17022901281080567406
23516275 100 18130241358596194364
23522609 53 16878765171875823560
23559900 14 18334584585347572566
249057 25 17386011701718223750
25269216 80 15068623734413692445
268830 7 18187074087736440674
3383291 50 17418372485740968251
3388396 114 16807029631851268329
3552219 110 18046337532296857787
3610482 184 17023170639695846369
4073 2 16558460989438863194
44249763 50 18271541800792201644
497634 4 18114179705789931983
504579 68 17240484706104931236
508706 21 17489590056478371941
5104073 3 16630532864052750416
6608658 132 16588020230133634081
6695519 79 18200858634981045627
6697151 62 18051982712414056350
9981440 41 17560808775195422491

> <PUBCHEM_SHAPE_MULTIPOLES>
673.91
18.28
3.48
3.07
12.42
1.05
2.22
9.62
-0.52
3.75
-0.99
-7.17
0.68
5.9

> <PUBCHEM_SHAPE_SELFOVERLAP>
1470.899

> <PUBCHEM_SHAPE_VOLUME>
361.9

> <PUBCHEM_COORDINATE_TYPE>
2
5
10

$$$$

