3942
  -OEChem-06251223472D

 39 41  0     0  0  0  0  0  0999 V2000
    3.6397    1.7514    0.0000 S   0  0  0  0  0  0  0  0  0  0  0  0
    3.4782   -1.3309    0.0000 S   0  0  0  0  0  0  0  0  0  0  0  0
    6.1808   -1.8364    0.0000 N   0  3  0  0  0  0  0  0  0  0  0  0
    7.0468   -1.3364    0.0000 C   0  0  0  0  0  0  0  0  0  0  0  0
    5.3147   -1.3364    0.0000 C   0  0  0  0  0  0  0  0  0  0  0  0
    7.0468   -0.3364    0.0000 C   0  0  0  0  0  0  0  0  0  0  0  0
    5.3147   -0.3364    0.0000 C   0  0  0  0  0  0  0  0  0  0  0  0
    6.1808    0.1636    0.0000 C   0  0  0  0  0  0  0  0  0  0  0  0
    6.6808   -2.7024    0.0000 C   0  0  0  0  0  0  0  0  0  0  0  0
    5.6808   -2.7024    0.0000 C   0  0  0  0  0  0  0  0  0  0  0  0
    4.4487    0.1636    0.0000 C   0  0  0  0  0  0  0  0  0  0  0  0
    4.4487    1.1636    0.0000 C   0  0  0  0  0  0  0  0  0  0  0  0
    3.5827   -0.3364    0.0000 C   0  0  0  0  0  0  0  0  0  0  0  0
    5.2577    1.7514    0.0000 C   0  0  0  0  0  0  0  0  0  0  0  0
    2.6691    0.0703    0.0000 C   0  0  0  0  0  0  0  0  0  0  0  0
    4.9487    2.7024    0.0000 C   0  0  0  0  0  0  0  0  0  0  0  0
    2.0000   -0.6728    0.0000 C   0  0  0  0  0  0  0  0  0  0  0  0
    3.9487    2.7024    0.0000 C   0  0  0  0  0  0  0  0  0  0  0  0
    2.5000   -1.5388    0.0000 C   0  0  0  0  0  0  0  0  0  0  0  0
    7.2588   -1.9190    0.0000 H   0  0  0  0  0  0  0  0  0  0  0  0
    7.6574   -1.2288    0.0000 H   0  0  0  0  0  0  0  0  0  0  0  0
    4.7042   -1.2288    0.0000 H   0  0  0  0  0  0  0  0  0  0  0  0
    5.1027   -1.9190    0.0000 H   0  0  0  0  0  0  0  0  0  0  0  0
    7.6574   -0.4441    0.0000 H   0  0  0  0  0  0  0  0  0  0  0  0
    7.2588    0.2462    0.0000 H   0  0  0  0  0  0  0  0  0  0  0  0
    6.5793    0.6385    0.0000 H   0  0  0  0  0  0  0  0  0  0  0  0
    5.7822    0.6385    0.0000 H   0  0  0  0  0  0  0  0  0  0  0  0
    6.1438   -3.0124    0.0000 H   0  0  0  0  0  0  0  0  0  0  0  0
    6.9908   -3.2394    0.0000 H   0  0  0  0  0  0  0  0  0  0  0  0
    7.2177   -2.3924    0.0000 H   0  0  0  0  0  0  0  0  0  0  0  0
    5.1438   -2.3924    0.0000 H   0  0  0  0  0  0  0  0  0  0  0  0
    5.3708   -3.2394    0.0000 H   0  0  0  0  0  0  0  0  0  0  0  0
    6.2177   -3.0124    0.0000 H   0  0  0  0  0  0  0  0  0  0  0  0
    5.8474    1.5598    0.0000 H   0  0  0  0  0  0  0  0  0  0  0  0
    2.5402    0.6768    0.0000 H   0  0  0  0  0  0  0  0  0  0  0  0
    5.3131    3.2040    0.0000 H   0  0  0  0  0  0  0  0  0  0  0  0
    1.3834   -0.6080    0.0000 H   0  0  0  0  0  0  0  0  0  0  0  0
    3.5843    3.2040    0.0000 H   0  0  0  0  0  0  0  0  0  0  0  0
    2.2478   -2.1052    0.0000 H   0  0  0  0  0  0  0  0  0  0  0  0
  1 12  1  0  0  0  0
  1 18  1  0  0  0  0
  2 13  1  0  0  0  0
  2 19  1  0  0  0  0
  3  4  1  0  0  0  0
  3  5  1  0  0  0  0
  3  9  1  0  0  0  0
  3 10  1  0  0  0  0
  4  6  1  0  0  0  0
  4 20  1  0  0  0  0
  4 21  1  0  0  0  0
  5  7  1  0  0  0  0
  5 22  1  0  0  0  0
  5 23  1  0  0  0  0
  6  8  1  0  0  0  0
  6 24  1  0  0  0  0
  6 25  1  0  0  0  0
  7  8  1  0  0  0  0
  7 11  2  0  0  0  0
  8 26  1  0  0  0  0
  8 27  1  0  0  0  0
  9 28  1  0  0  0  0
  9 29  1  0  0  0  0
  9 30  1  0  0  0  0
 10 31  1  0  0  0  0
 10 32  1  0  0  0  0
 10 33  1  0  0  0  0
 11 12  1  0  0  0  0
 11 13  1  0  0  0  0
 12 14  2  0  0  0  0
 13 15  2  0  0  0  0
 14 16  1  0  0  0  0
 14 34  1  0  0  0  0
 15 17  1  0  0  0  0
 15 35  1  0  0  0  0
 16 18  2  0  0  0  0
 16 36  1  0  0  0  0
 17 19  2  0  0  0  0
 17 37  1  0  0  0  0
 18 38  1  0  0  0  0
 19 39  1  0  0  0  0
M  CHG  1   3   1
M  END
> <PUBCHEM_COMPOUND_CID>
3942

> <PUBCHEM_COMPOUND_CANONICALIZED>
1

> <PUBCHEM_CACTVS_COMPLEXITY>
344

> <PUBCHEM_CACTVS_HBOND_ACCEPTOR>
2

> <PUBCHEM_CACTVS_HBOND_DONOR>
0

> <PUBCHEM_CACTVS_ROTATABLE_BOND>
2

> <PUBCHEM_CACTVS_SUBSKEYS>
AAADceB6AABgAAAAAAAAAAAAAAAAASJAAAAsAAAAAAAAAAAB4AAAHAQAAAAADADFUASyAYMAAAiEAiBCAACDAIAgCBBIiBgIAIgIICKgkRCEIAAggACoiAcQgIAAAAAAAAAAAAAAAAAAAAAAAAAAAAAAAA==

> <PUBCHEM_IUPAC_OPENEYE_NAME>
3-[bis(2-thienyl)methylene]-1,1-dimethyl-piperidin-1-ium

> <PUBCHEM_IUPAC_CAS_NAME>
3-(dithiophen-2-ylmethylidene)-1,1-dimethylpiperidin-1-ium

> <PUBCHEM_IUPAC_NAME>
3-(dithiophen-2-ylmethylidene)-1,1-dimethylpiperidin-1-ium

> <PUBCHEM_IUPAC_SYSTEMATIC_NAME>
3-(dithiophen-2-ylmethylidene)-1,1-dimethyl-piperidin-1-ium

> <PUBCHEM_IUPAC_TRADITIONAL_NAME>
3-[bis(2-thienyl)methylene]-1,1-dimethyl-piperidin-1-ium

> <PUBCHEM_IUPAC_INCHI>
InChI=1S/C16H20NS2/c1-17(2)9-3-6-13(12-17)16(14-7-4-10-18-14)15-8-5-11-19-15/h4-5,7-8,10-11H,3,6,9,12H2,1-2H3/q+1

> <PUBCHEM_IUPAC_INCHIKEY>
VLYQYGBYQKDJLK-UHFFFAOYSA-N

> <PUBCHEM_XLOGP3_AA>
3.8

> <PUBCHEM_EXACT_MASS>
290.103717

> <PUBCHEM_MOLECULAR_FORMULA>
C16H20NS2+

> <PUBCHEM_MOLECULAR_WEIGHT>
290.4667

> <PUBCHEM_OPENEYE_CAN_SMILES>
C[N+]1(CCCC(=C(C2=CC=CS2)C3=CC=CS3)C1)C

> <PUBCHEM_OPENEYE_ISO_SMILES>
C[N+]1(CCCC(=C(C2=CC=CS2)C3=CC=CS3)C1)C

> <PUBCHEM_CACTVS_TPSA>
56.5

> <PUBCHEM_MONOISOTOPIC_WEIGHT>
290.103717

> <PUBCHEM_TOTAL_CHARGE>
1

> <PUBCHEM_HEAVY_ATOM_COUNT>
19

> <PUBCHEM_ATOM_DEF_STEREO_COUNT>
0

> <PUBCHEM_ATOM_UDEF_STEREO_COUNT>
0

> <PUBCHEM_BOND_DEF_STEREO_COUNT>
0

> <PUBCHEM_BOND_UDEF_STEREO_COUNT>
0

> <PUBCHEM_ISOTOPIC_ATOM_COUNT>
0

> <PUBCHEM_COMPONENT_COUNT>
1

> <PUBCHEM_CACTVS_TAUTO_COUNT>
1

> <PUBCHEM_COORDINATE_TYPE>
1
5
255

> <PUBCHEM_BONDANNOTATIONS>
1  12  8
1  18  8
12  14  8
13  15  8
14  16  8
15  17  8
16  18  8
17  19  8
2  13  8
2  19  8

$$$$

