47205515
  -OEChem-06241222593D

 42 43  0     0  0  0  0  0  0999 V2000
    0.4460   -0.3696    1.8986 O   0  0  0  0  0  0  0  0  0  0  0  0
   -1.2693   -1.6322    0.9794 N   0  0  0  0  0  0  0  0  0  0  0  0
    1.8312   -2.7795   -1.6836 N   0  0  0  0  0  0  0  0  0  0  0  0
   -3.8361   -0.2373    0.2634 C   0  0  0  0  0  0  0  0  0  0  0  0
   -3.0736   -0.0635    1.5812 C   0  0  0  0  0  0  0  0  0  0  0  0
   -4.6793    1.0003   -0.0538 C   0  0  0  0  0  0  0  0  0  0  0  0
   -2.2685   -1.3033    1.9586 C   0  0  0  0  0  0  0  0  0  0  0  0
   -5.4868    0.8689   -1.3469 C   0  0  0  0  0  0  0  0  0  0  0  0
    0.9321   -1.5450   -0.0713 C   0  0  0  0  0  0  0  0  0  0  0  0
    2.0204   -0.8323   -0.6326 C   0  0  0  0  0  0  0  0  0  0  0  0
    0.0261   -1.1305    1.0306 C   0  0  0  0  0  0  0  0  0  0  0  0
   -6.3803    2.0666   -1.6301 C   0  0  0  0  0  0  0  0  0  0  0  0
    2.5461    0.4618   -0.3054 C   0  0  0  0  0  0  0  0  0  0  0  0
    0.8379   -2.7455   -0.7400 C   0  0  0  0  0  0  0  0  0  0  0  0
    2.5582   -1.6189   -1.6273 C   0  0  0  0  0  0  0  0  0  0  0  0
    3.8681    0.5906    0.1205 C   0  0  0  0  0  0  0  0  0  0  0  0
    1.7350    1.5915   -0.4135 C   0  0  0  0  0  0  0  0  0  0  0  0
    4.3789    1.8491    0.4383 C   0  0  0  0  0  0  0  0  0  0  0  0
    2.2459    2.8499   -0.0960 C   0  0  0  0  0  0  0  0  0  0  0  0
    3.5679    2.9788    0.3298 C   0  0  0  0  0  0  0  0  0  0  0  0
   -4.4878   -1.1167    0.3293 H   0  0  0  0  0  0  0  0  0  0  0  0
   -3.1347   -0.4135   -0.5604 H   0  0  0  0  0  0  0  0  0  0  0  0
   -2.4031    0.8010    1.5006 H   0  0  0  0  0  0  0  0  0  0  0  0
   -3.7832    0.1533    2.3887 H   0  0  0  0  0  0  0  0  0  0  0  0
   -5.3688    1.1883    0.7787 H   0  0  0  0  0  0  0  0  0  0  0  0
   -4.0250    1.8779   -0.1269 H   0  0  0  0  0  0  0  0  0  0  0  0
   -1.7830   -1.1440    2.9277 H   0  0  0  0  0  0  0  0  0  0  0  0
   -2.9287   -2.1719    2.0547 H   0  0  0  0  0  0  0  0  0  0  0  0
   -4.8003    0.7291   -2.1904 H   0  0  0  0  0  0  0  0  0  0  0  0
   -6.1122   -0.0304   -1.2943 H   0  0  0  0  0  0  0  0  0  0  0  0
   -1.5472   -2.2357    0.2116 H   0  0  0  0  0  0  0  0  0  0  0  0
   -7.1076    2.2100   -0.8248 H   0  0  0  0  0  0  0  0  0  0  0  0
   -5.7871    2.9816   -1.7242 H   0  0  0  0  0  0  0  0  0  0  0  0
   -6.9305    1.9186   -2.5645 H   0  0  0  0  0  0  0  0  0  0  0  0
    0.1637   -3.5841   -0.6335 H   0  0  0  0  0  0  0  0  0  0  0  0
    3.3886   -1.4644   -2.3033 H   0  0  0  0  0  0  0  0  0  0  0  0
    2.0023   -3.5438   -2.3224 H   0  0  0  0  0  0  0  0  0  0  0  0
    4.5159   -0.2777    0.2164 H   0  0  0  0  0  0  0  0  0  0  0  0
    0.7029    1.5121   -0.7470 H   0  0  0  0  0  0  0  0  0  0  0  0
    5.4079    1.9496    0.7710 H   0  0  0  0  0  0  0  0  0  0  0  0
    1.6146    3.7296   -0.1808 H   0  0  0  0  0  0  0  0  0  0  0  0
    3.9657    3.9586    0.5772 H   0  0  0  0  0  0  0  0  0  0  0  0
  1 11  2  0  0  0  0
  2  7  1  0  0  0  0
  2 11  1  0  0  0  0
  2 31  1  0  0  0  0
  3 14  1  0  0  0  0
  3 15  1  0  0  0  0
  3 37  1  0  0  0  0
  4  5  1  0  0  0  0
  4  6  1  0  0  0  0
  4 21  1  0  0  0  0
  4 22  1  0  0  0  0
  5  7  1  0  0  0  0
  5 23  1  0  0  0  0
  5 24  1  0  0  0  0
  6  8  1  0  0  0  0
  6 25  1  0  0  0  0
  6 26  1  0  0  0  0
  7 27  1  0  0  0  0
  7 28  1  0  0  0  0
  8 12  1  0  0  0  0
  8 29  1  0  0  0  0
  8 30  1  0  0  0  0
  9 10  1  0  0  0  0
  9 11  1  0  0  0  0
  9 14  2  0  0  0  0
 10 13  1  0  0  0  0
 10 15  2  0  0  0  0
 12 32  1  0  0  0  0
 12 33  1  0  0  0  0
 12 34  1  0  0  0  0
 13 16  2  0  0  0  0
 13 17  1  0  0  0  0
 14 35  1  0  0  0  0
 15 36  1  0  0  0  0
 16 18  1  0  0  0  0
 16 38  1  0  0  0  0
 17 19  2  0  0  0  0
 17 39  1  0  0  0  0
 18 20  2  0  0  0  0
 18 40  1  0  0  0  0
 19 20  1  0  0  0  0
 19 41  1  0  0  0  0
 20 42  1  0  0  0  0
M  END
> <PUBCHEM_COMPOUND_CID>
47205515

> <PUBCHEM_CONFORMER_RMSD>
0.8

> <PUBCHEM_CONFORMER_DIVERSEORDER>
1
10
80
62
109
166
8
150
87
183
157
141
128
7
161
192
110
9
86
91
140
191
179
30
176
11
131
44
162
120
123
202
185
29
193
14
58
28
196
63
190
2
34
105
188
199
39
65
6
149
50
135
174
75
142
70
22
15
189
93
125
13
107
18
85
134
103
76
184
200
101
119
35
69
154
158
201
112
205
45
47
66
40
168
79
132
163
5
147
4
115
67
197
82
32
48
59
57
97
43
194
51
3
182
88
129
61
89
177
12
16
203
175
138
167
106
151
146
33
160
42
127
60
96
49
159
104
181
25
118
204
137
173
19
133
98
26
126
152
84
143
72
187
41
31
169
81
122
153
55
37
116
56
178
74
195
73
100
64
124
77
27
17
113
148
99
111
54
38
78
24
90
108
170
172
21
94
156
114
102
130
198
121
95
139
171
46
155
23
164
144
180
68
186
83
92
71
145
52
136
53
117
165
20
36

> <PUBCHEM_MMFF94_PARTIAL_CHARGES>
24
1 -0.57
10 -0.05
11 0.72
13 0.05
14 -0.3
15 -0.3
16 -0.15
17 -0.15
18 -0.15
19 -0.15
2 -0.73
20 -0.15
3 0.03
31 0.37
35 0.15
36 0.15
37 0.27
38 0.15
39 0.15
40 0.15
41 0.15
42 0.15
7 0.3
9 -0.09

> <PUBCHEM_EFFECTIVE_ROTOR_COUNT>
8

> <PUBCHEM_PHARMACOPHORE_FEATURES>
8
1 1 acceptor
1 12 hydrophobe
1 2 donor
1 3 cation
1 3 donor
4 4 5 6 8 hydrophobe
5 3 9 10 14 15 rings
6 13 16 17 18 19 20 rings

> <PUBCHEM_HEAVY_ATOM_COUNT>
20

> <PUBCHEM_ATOM_DEF_STEREO_COUNT>
0

> <PUBCHEM_ATOM_UDEF_STEREO_COUNT>
0

> <PUBCHEM_BOND_DEF_STEREO_COUNT>
0

> <PUBCHEM_BOND_UDEF_STEREO_COUNT>
0

> <PUBCHEM_ISOTOPIC_ATOM_COUNT>
0

> <PUBCHEM_COMPONENT_COUNT>
1

> <PUBCHEM_CACTVS_TAUTO_COUNT>
5

> <PUBCHEM_CONFORMER_ID>
02D04C8B00000001

> <PUBCHEM_MMFF94_ENERGY>
25.7851

> <PUBCHEM_FEATURE_SELFOVERLAP>
40.594

> <PUBCHEM_SHAPE_FINGERPRINT>
10498660 4 18131067186680423089
10764073 3 17702406085638042594
10871710 139 16177615055023315244
11069576 57 17023749068854061639
11552529 35 12462129166505962369
11725454 13 18272376317227682203
12596602 18 12750935755828599949
12633257 1 13254794638378635977
12769317 202 18334580126786170169
13103583 49 11383565541715004535
13134695 92 18120067719110753822
13402501 40 18201725046191935549
13583140 156 18129933473653661018
14251732 17 18202006495139885752
14251764 38 17986391088386409741
14347329 18 17059477681976302405
14950920 106 11887665213576433621
14957384 54 18196938764691098552
15003188 100 18411700963575347741
15238133 3 16271922744496797437
15342816 4 14924233763152112859
17093844 170 18130510811626360053
19752476 56 18271251641956419137
21304303 282 17318201349495200270
21475661 188 18130790027465668285
21968339 14 18263096529415538341
23557571 272 17916001513633197387
238 59 18260265226923295529
2838139 119 18270409269435137773
312425 83 18262528121191472893
328310 1195 18410295796204854849
341906 21 17131825452773965035
3459 39 16701751522677389773
34797466 226 18337680806481672901
427121 178 17346325937477983575
5969126 39 17468459861413358558
633830 44 17026240428900015408
7471813 234 17314781009091281794

> <PUBCHEM_SHAPE_MULTIPOLES>
395.76
10.98
3.4
1.72
18.97
0.5
-0.18
9.98
3.96
-2.73
0.95
1.39
-0.75
3.01

> <PUBCHEM_SHAPE_SELFOVERLAP>
822.42

> <PUBCHEM_SHAPE_VOLUME>
226.1

> <PUBCHEM_COORDINATE_TYPE>
2
5
10

$$$$

