10862
  -OEChem-06261205032D

 44 43  0     0  0  0  0  0  0999 V2000
    0.0000    5.0785    0.0000 Cl  0  0  0  0  0  0  0  0  0  0  0  0
    6.1350    5.6200    0.0000 O   0  0  0  0  0  0  0  0  0  0  0  0
    4.4030    5.6200    0.0000 O   0  0  0  0  0  0  0  0  0  0  0  0
    7.8671    8.6200    0.0000 N   0  0  0  0  0  0  0  0  0  0  0  0
    7.0010    8.1200    0.0000 C   0  0  0  0  0  0  0  0  0  0  0  0
    7.0010    7.1200    0.0000 C   0  0  0  0  0  0  0  0  0  0  0  0
    7.8671    9.6200    0.0000 C   0  0  0  0  0  0  0  0  0  0  0  0
    8.7331    8.1200    0.0000 C   0  0  0  0  0  0  0  0  0  0  0  0
    6.1350    6.6200    0.0000 C   0  0  0  0  0  0  0  0  0  0  0  0
    8.7331   10.1200    0.0000 C   0  0  0  0  0  0  0  0  0  0  0  0
    9.5991    8.6200    0.0000 C   0  0  0  0  0  0  0  0  0  0  0  0
    5.2690    5.1200    0.0000 C   0  0  0  0  0  0  0  0  0  0  0  0
    5.2690    4.1200    0.0000 C   0  0  0  0  0  0  0  0  0  0  0  0
    4.4030    2.6200    0.0000 C   0  0  0  0  0  0  0  0  0  0  0  0
    4.4030    3.6200    0.0000 C   0  0  0  0  0  0  0  0  0  0  0  0
    5.2690    2.1200    0.0000 C   0  0  0  0  0  0  0  0  0  0  0  0
    3.5369    2.1200    0.0000 C   0  0  0  0  0  0  0  0  0  0  0  0
    5.2690    1.1200    0.0000 C   0  0  0  0  0  0  0  0  0  0  0  0
    3.5369    1.1200    0.0000 C   0  0  0  0  0  0  0  0  0  0  0  0
    4.4030    0.6200    0.0000 C   0  0  0  0  0  0  0  0  0  0  0  0
    6.3905    8.0123    0.0000 H   0  0  0  0  0  0  0  0  0  0  0  0
    6.7890    8.7026    0.0000 H   0  0  0  0  0  0  0  0  0  0  0  0
    7.6116    7.2277    0.0000 H   0  0  0  0  0  0  0  0  0  0  0  0
    7.2131    6.5374    0.0000 H   0  0  0  0  0  0  0  0  0  0  0  0
    7.2565    9.5123    0.0000 H   0  0  0  0  0  0  0  0  0  0  0  0
    7.6550   10.2026    0.0000 H   0  0  0  0  0  0  0  0  0  0  0  0
    9.1316    7.6451    0.0000 H   0  0  0  0  0  0  0  0  0  0  0  0
    8.3346    7.6451    0.0000 H   0  0  0  0  0  0  0  0  0  0  0  0
    5.5244    6.5123    0.0000 H   0  0  0  0  0  0  0  0  0  0  0  0
    5.9230    7.2026    0.0000 H   0  0  0  0  0  0  0  0  0  0  0  0
    9.0431    9.5831    0.0000 H   0  0  0  0  0  0  0  0  0  0  0  0
    8.4231   10.6569    0.0000 H   0  0  0  0  0  0  0  0  0  0  0  0
    9.2700   10.4300    0.0000 H   0  0  0  0  0  0  0  0  0  0  0  0
    9.2891    9.1569    0.0000 H   0  0  0  0  0  0  0  0  0  0  0  0
   10.1360    8.9300    0.0000 H   0  0  0  0  0  0  0  0  0  0  0  0
    9.9091    8.0831    0.0000 H   0  0  0  0  0  0  0  0  0  0  0  0
    5.8059    3.8100    0.0000 H   0  0  0  0  0  0  0  0  0  0  0  0
    3.8660    3.9300    0.0000 H   0  0  0  0  0  0  0  0  0  0  0  0
    5.8059    2.4300    0.0000 H   0  0  0  0  0  0  0  0  0  0  0  0
    3.0000    2.4300    0.0000 H   0  0  0  0  0  0  0  0  0  0  0  0
    5.8059    0.8100    0.0000 H   0  0  0  0  0  0  0  0  0  0  0  0
    3.0000    0.8100    0.0000 H   0  0  0  0  0  0  0  0  0  0  0  0
    4.4030    0.0000    0.0000 H   0  0  0  0  0  0  0  0  0  0  0  0
    1.0000    5.0785    0.0000 H   0  0  0  0  0  0  0  0  0  0  0  0
  1 44  1  0  0  0  0
  2  9  1  0  0  0  0
  2 12  1  0  0  0  0
  3 12  2  0  0  0  0
  4  5  1  0  0  0  0
  4  7  1  0  0  0  0
  4  8  1  0  0  0  0
  5  6  1  0  0  0  0
  5 21  1  0  0  0  0
  5 22  1  0  0  0  0
  6  9  1  0  0  0  0
  6 23  1  0  0  0  0
  6 24  1  0  0  0  0
  7 10  1  0  0  0  0
  7 25  1  0  0  0  0
  7 26  1  0  0  0  0
  8 11  1  0  0  0  0
  8 27  1  0  0  0  0
  8 28  1  0  0  0  0
  9 29  1  0  0  0  0
  9 30  1  0  0  0  0
 10 31  1  0  0  0  0
 10 32  1  0  0  0  0
 10 33  1  0  0  0  0
 11 34  1  0  0  0  0
 11 35  1  0  0  0  0
 11 36  1  0  0  0  0
 12 13  1  0  0  0  0
 13 15  2  3  0  0  0
 13 37  1  0  0  0  0
 14 15  1  0  0  0  0
 14 16  2  0  0  0  0
 14 17  1  0  0  0  0
 15 38  1  0  0  0  0
 16 18  1  0  0  0  0
 16 39  1  0  0  0  0
 17 19  2  0  0  0  0
 17 40  1  0  0  0  0
 18 20  2  0  0  0  0
 18 41  1  0  0  0  0
 19 20  1  0  0  0  0
 19 42  1  0  0  0  0
 20 43  1  0  0  0  0
M  END
> <PUBCHEM_COMPOUND_CID>
10862

> <PUBCHEM_COMPOUND_CANONICALIZED>
1

> <PUBCHEM_CACTVS_COMPLEXITY>
266

> <PUBCHEM_CACTVS_HBOND_ACCEPTOR>
3

> <PUBCHEM_CACTVS_HBOND_DONOR>
1

> <PUBCHEM_CACTVS_ROTATABLE_BOND>
9

> <PUBCHEM_CACTVS_SUBSKEYS>
AAADceB6MAAEAAAAAAAAAAAAAAAAAAAAAAAwAAAAAAAAAAABAAAAHgAAAAAADADhmAYyCIMABACIAiDSCAACAAAgAAAIiAAIAMgIJCKAMRCGMAAigACIqYcAgAAOAAAAAAAAAAAAAAAAAAAAAAAAAAAAAA==

> <PUBCHEM_IUPAC_OPENEYE_NAME>
3-(diethylamino)propyl 3-phenylprop-2-enoate hydrochloride

> <PUBCHEM_IUPAC_CAS_NAME>
3-phenyl-2-propenoic acid 3-(diethylamino)propyl ester hydrochloride

> <PUBCHEM_IUPAC_NAME>
3-(diethylamino)propyl 3-phenylprop-2-enoate hydrochloride

> <PUBCHEM_IUPAC_SYSTEMATIC_NAME>
3-(diethylamino)propyl 3-phenylprop-2-enoate hydrochloride

> <PUBCHEM_IUPAC_TRADITIONAL_NAME>
3-phenylacrylic acid 3-(diethylamino)propyl ester hydrochloride

> <PUBCHEM_IUPAC_INCHI>
InChI=1S/C16H23NO2.ClH/c1-3-17(4-2)13-8-14-19-16(18)12-11-15-9-6-5-7-10-15;/h5-7,9-12H,3-4,8,13-14H2,1-2H3;1H

> <PUBCHEM_IUPAC_INCHIKEY>
DHFMGRKPVMBKKX-UHFFFAOYSA-N

> <PUBCHEM_XLOGP3_AA>
4.663

> <PUBCHEM_EXACT_MASS>
297.149557

> <PUBCHEM_MOLECULAR_FORMULA>
C16H24ClNO2

> <PUBCHEM_MOLECULAR_WEIGHT>
297.82026

> <PUBCHEM_OPENEYE_CAN_SMILES>
CCN(CC)CCCOC(=O)C=CC1=CC=CC=C1.Cl

> <PUBCHEM_OPENEYE_ISO_SMILES>
CCN(CC)CCCOC(=O)C=CC1=CC=CC=C1.Cl

> <PUBCHEM_CACTVS_TPSA>
29.5

> <PUBCHEM_MONOISOTOPIC_WEIGHT>
297.149557

> <PUBCHEM_TOTAL_CHARGE>
0

> <PUBCHEM_HEAVY_ATOM_COUNT>
20

> <PUBCHEM_ATOM_DEF_STEREO_COUNT>
0

> <PUBCHEM_ATOM_UDEF_STEREO_COUNT>
0

> <PUBCHEM_BOND_DEF_STEREO_COUNT>
0

> <PUBCHEM_BOND_UDEF_STEREO_COUNT>
1

> <PUBCHEM_ISOTOPIC_ATOM_COUNT>
0

> <PUBCHEM_COMPONENT_COUNT>
2

> <PUBCHEM_CACTVS_TAUTO_COUNT>
1

> <PUBCHEM_COORDINATE_TYPE>
1
5
255

> <PUBCHEM_BONDANNOTATIONS>
13  15  1
14  16  8
14  17  8
16  18  8
17  19  8
18  20  8
19  20  8

$$$$

