7841
  -OEChem-06261202223D

  9  8  0     0  0  0  0  0  0999 V2000
    2.0239   -0.4356   -0.0444 Br  0  0  0  0  0  0  0  0  0  0  0  0
    0.4703    0.7299   -0.1382 C   0  0  0  0  0  0  0  0  0  0  0  0
   -0.6974    0.0086    0.4393 C   0  0  0  0  0  0  0  0  0  0  0  0
   -1.7967   -0.3029   -0.2567 C   0  0  0  0  0  0  0  0  0  0  0  0
    0.3387    0.9958   -1.1905 H   0  0  0  0  0  0  0  0  0  0  0  0
    0.7057    1.6276    0.4388 H   0  0  0  0  0  0  0  0  0  0  0  0
   -0.6597   -0.2581    1.4927 H   0  0  0  0  0  0  0  0  0  0  0  0
   -2.6215   -0.8198    0.2215 H   0  0  0  0  0  0  0  0  0  0  0  0
   -1.8936   -0.0512   -1.3070 H   0  0  0  0  0  0  0  0  0  0  0  0
  1  2  1  0  0  0  0
  2  3  1  0  0  0  0
  2  5  1  0  0  0  0
  2  6  1  0  0  0  0
  3  4  2  0  0  0  0
  3  7  1  0  0  0  0
  4  8  1  0  0  0  0
  4  9  1  0  0  0  0
M  END
> <PUBCHEM_COMPOUND_CID>
7841

> <PUBCHEM_CONFORMER_RMSD>
0.4

> <PUBCHEM_CONFORMER_DIVERSEORDER>
2
3
1

> <PUBCHEM_MMFF94_PARTIAL_CHARGES>
7
1 -0.23
2 0.37
3 -0.29
4 -0.3
7 0.15
8 0.15
9 0.15

> <PUBCHEM_EFFECTIVE_ROTOR_COUNT>
1

> <PUBCHEM_PHARMACOPHORE_FEATURES>
2
1 1 hydrophobe
1 4 hydrophobe

> <PUBCHEM_HEAVY_ATOM_COUNT>
4

> <PUBCHEM_ATOM_DEF_STEREO_COUNT>
0

> <PUBCHEM_ATOM_UDEF_STEREO_COUNT>
0

> <PUBCHEM_BOND_DEF_STEREO_COUNT>
0

> <PUBCHEM_BOND_UDEF_STEREO_COUNT>
0

> <PUBCHEM_ISOTOPIC_ATOM_COUNT>
0

> <PUBCHEM_COMPONENT_COUNT>
1

> <PUBCHEM_CACTVS_TAUTO_COUNT>
1

> <PUBCHEM_CONFORMER_ID>
00001EA100000002

> <PUBCHEM_MMFF94_ENERGY>
0.0918

> <PUBCHEM_FEATURE_SELFOVERLAP>
10.149

> <PUBCHEM_SHAPE_FINGERPRINT>
139733 1 9511458918339038760
16714656 1 15051731997278792935
20096714 4 10231753383762810454
21015797 1 6698080310914992441
29004967 10 18413103948717253826
5460574 1 8935003667872923178

> <PUBCHEM_SHAPE_MULTIPOLES>
88.26
2.78
0.85
0.72
0.46
0.05
0.01
-0.66
-0.19
0.13
-0.03
0
-0.01
-0.04

> <PUBCHEM_SHAPE_SELFOVERLAP>
135.897

> <PUBCHEM_SHAPE_VOLUME>
65.2

> <PUBCHEM_COORDINATE_TYPE>
2
5
10

$$$$

