3726
  -OEChem-06251223372D

 43 46  0     1  0  0  0  0  0999 V2000
    3.8080    4.7420    0.0000 I   0  0  0  0  0  0  0  0  0  0  0  0
    4.6701   -4.2420    0.0000 S   0  0  3  0  0  0  0  0  0  0  0  0
    5.5361   -4.7420    0.0000 O   0  0  0  0  0  0  0  0  0  0  0  0
    5.4791    0.3458    0.0000 N   0  0  0  0  0  0  0  0  0  0  0  0
    3.8611    0.3458    0.0000 N   0  0  0  0  0  0  0  0  0  0  0  0
    6.9334    3.7239    0.0000 N   0  0  0  0  0  0  0  0  0  0  0  0
    5.1701    1.2969    0.0000 C   0  0  0  0  0  0  0  0  0  0  0  0
    4.1701    1.2969    0.0000 C   0  0  0  0  0  0  0  0  0  0  0  0
    4.6701   -0.2420    0.0000 C   0  0  0  0  0  0  0  0  0  0  0  0
    4.6701   -1.2420    0.0000 C   0  0  0  0  0  0  0  0  0  0  0  0
    3.5823    2.1059    0.0000 C   0  0  0  0  0  0  0  0  0  0  0  0
    5.7579    2.1059    0.0000 C   0  0  0  0  0  0  0  0  0  0  0  0
    3.8041   -1.7420    0.0000 C   0  0  0  0  0  0  0  0  0  0  0  0
    5.5361   -1.7420    0.0000 C   0  0  0  0  0  0  0  0  0  0  0  0
    3.9890    3.0194    0.0000 C   0  0  0  0  0  0  0  0  0  0  0  0
    2.5878    2.0014    0.0000 C   0  0  0  0  0  0  0  0  0  0  0  0
    4.6701   -3.2420    0.0000 C   0  0  0  0  0  0  0  0  0  0  0  0
    3.8041   -2.7420    0.0000 C   0  0  0  0  0  0  0  0  0  0  0  0
    5.5361   -2.7420    0.0000 C   0  0  0  0  0  0  0  0  0  0  0  0
    5.3511    3.0194    0.0000 C   0  0  0  0  0  0  0  0  0  0  0  0
    6.7524    2.0014    0.0000 C   0  0  0  0  0  0  0  0  0  0  0  0
    3.4013    3.8284    0.0000 C   0  0  0  0  0  0  0  0  0  0  0  0
    2.0000    2.8104    0.0000 C   0  0  0  0  0  0  0  0  0  0  0  0
    2.4067    3.7239    0.0000 C   0  0  0  0  0  0  0  0  0  0  0  0
    5.9389    3.8284    0.0000 C   0  0  0  0  0  0  0  0  0  0  0  0
    7.3402    2.8104    0.0000 C   0  0  0  0  0  0  0  0  0  0  0  0
    3.8041   -4.7420    0.0000 C   0  0  0  0  0  0  0  0  0  0  0  0
    6.0688    0.1542    0.0000 H   0  0  0  0  0  0  0  0  0  0  0  0
    3.2671   -1.4320    0.0000 H   0  0  0  0  0  0  0  0  0  0  0  0
    6.0730   -1.4320    0.0000 H   0  0  0  0  0  0  0  0  0  0  0  0
    4.6056    3.0842    0.0000 H   0  0  0  0  0  0  0  0  0  0  0  0
    2.3356    1.4350    0.0000 H   0  0  0  0  0  0  0  0  0  0  0  0
    3.2671   -3.0520    0.0000 H   0  0  0  0  0  0  0  0  0  0  0  0
    6.0730   -3.0520    0.0000 H   0  0  0  0  0  0  0  0  0  0  0  0
    4.7345    3.0842    0.0000 H   0  0  0  0  0  0  0  0  0  0  0  0
    7.0046    1.4350    0.0000 H   0  0  0  0  0  0  0  0  0  0  0  0
    1.3834    2.7456    0.0000 H   0  0  0  0  0  0  0  0  0  0  0  0
    2.0423    4.2255    0.0000 H   0  0  0  0  0  0  0  0  0  0  0  0
    5.6868    4.3948    0.0000 H   0  0  0  0  0  0  0  0  0  0  0  0
    7.9568    2.7456    0.0000 H   0  0  0  0  0  0  0  0  0  0  0  0
    3.4941   -4.2050    0.0000 H   0  0  0  0  0  0  0  0  0  0  0  0
    3.2671   -5.0520    0.0000 H   0  0  0  0  0  0  0  0  0  0  0  0
    4.1141   -5.2789    0.0000 H   0  0  0  0  0  0  0  0  0  0  0  0
  1 22  1  0  0  0  0
  2  3  2  0  0  0  0
  2 17  1  0  0  0  0
  2 27  1  0  0  0  0
  4  7  1  0  0  0  0
  4  9  1  0  0  0  0
  4 28  1  0  0  0  0
  5  8  1  0  0  0  0
  5  9  2  0  0  0  0
  6 25  2  0  0  0  0
  6 26  1  0  0  0  0
  7  8  2  0  0  0  0
  7 12  1  0  0  0  0
  8 11  1  0  0  0  0
  9 10  1  0  0  0  0
 10 13  2  0  0  0  0
 10 14  1  0  0  0  0
 11 15  2  0  0  0  0
 11 16  1  0  0  0  0
 12 20  2  0  0  0  0
 12 21  1  0  0  0  0
 13 18  1  0  0  0  0
 13 29  1  0  0  0  0
 14 19  2  0  0  0  0
 14 30  1  0  0  0  0
 15 22  1  0  0  0  0
 15 31  1  0  0  0  0
 16 23  2  0  0  0  0
 16 32  1  0  0  0  0
 17 18  2  0  0  0  0
 17 19  1  0  0  0  0
 18 33  1  0  0  0  0
 19 34  1  0  0  0  0
 20 25  1  0  0  0  0
 20 35  1  0  0  0  0
 21 26  2  0  0  0  0
 21 36  1  0  0  0  0
 22 24  2  0  0  0  0
 23 24  1  0  0  0  0
 23 37  1  0  0  0  0
 24 38  1  0  0  0  0
 25 39  1  0  0  0  0
 26 40  1  0  0  0  0
 27 41  1  0  0  0  0
 27 42  1  0  0  0  0
 27 43  1  0  0  0  0
M  END
> <PUBCHEM_COMPOUND_CID>
3726

> <PUBCHEM_COMPOUND_CANONICALIZED>
1

> <PUBCHEM_CACTVS_COMPLEXITY>
508

> <PUBCHEM_CACTVS_HBOND_ACCEPTOR>
4

> <PUBCHEM_CACTVS_HBOND_DONOR>
1

> <PUBCHEM_CACTVS_ROTATABLE_BOND>
4

> <PUBCHEM_CACTVS_SUBSKEYS>
AAADceB7IABAAgAAAAAAAAAAAAAAAWAAAAA8YIAAAAAAAAAB9AAAHAQwAAAADAjDXwS/kZbJkAqgAzZnZEDCgC2xGrAJ2Tg4dJiIaOLgmZGUIAhogALIyCcQgMAOEAAAAAAAAAAgAAAAAAAAAAAAAAAAAA==

> <PUBCHEM_IUPAC_OPENEYE_NAME>
4-[4-(3-iodophenyl)-2-(4-methylsulfinylphenyl)-1H-imidazol-5-yl]pyridine

> <PUBCHEM_IUPAC_CAS_NAME>
4-[4-(3-iodophenyl)-2-(4-methylsulfinylphenyl)-1H-imidazol-5-yl]pyridine

> <PUBCHEM_IUPAC_NAME>
4-[4-(3-iodophenyl)-2-(4-methylsulfinylphenyl)-1H-imidazol-5-yl]pyridine

> <PUBCHEM_IUPAC_SYSTEMATIC_NAME>
4-[4-(3-iodanylphenyl)-2-(4-methylsulfinylphenyl)-1H-imidazol-5-yl]pyridine

> <PUBCHEM_IUPAC_TRADITIONAL_NAME>
4-[4-(3-iodophenyl)-2-(4-methylsulfinylphenyl)-1H-imidazol-5-yl]pyridine

> <PUBCHEM_IUPAC_INCHI>
InChI=1S/C21H16IN3OS/c1-27(26)18-7-5-15(6-8-18)21-24-19(14-9-11-23-12-10-14)20(25-21)16-3-2-4-17(22)13-16/h2-13H,1H3,(H,24,25)

> <PUBCHEM_IUPAC_INCHIKEY>
RXDZANYWRNIAOR-UHFFFAOYSA-N

> <PUBCHEM_XLOGP3_AA>
3.8

> <PUBCHEM_EXACT_MASS>
485.005881

> <PUBCHEM_MOLECULAR_FORMULA>
C21H16IN3OS

> <PUBCHEM_MOLECULAR_WEIGHT>
485.34071

> <PUBCHEM_OPENEYE_CAN_SMILES>
CS(=O)C1=CC=C(C=C1)C2=NC(=C(N2)C3=CC=NC=C3)C4=CC(=CC=C4)I

> <PUBCHEM_OPENEYE_ISO_SMILES>
CS(=O)C1=CC=C(C=C1)C2=NC(=C(N2)C3=CC=NC=C3)C4=CC(=CC=C4)I

> <PUBCHEM_CACTVS_TPSA>
77.8

> <PUBCHEM_MONOISOTOPIC_WEIGHT>
485.005881

> <PUBCHEM_TOTAL_CHARGE>
0

> <PUBCHEM_HEAVY_ATOM_COUNT>
27

> <PUBCHEM_ATOM_DEF_STEREO_COUNT>
0

> <PUBCHEM_ATOM_UDEF_STEREO_COUNT>
1

> <PUBCHEM_BOND_DEF_STEREO_COUNT>
0

> <PUBCHEM_BOND_UDEF_STEREO_COUNT>
0

> <PUBCHEM_ISOTOPIC_ATOM_COUNT>
0

> <PUBCHEM_COMPONENT_COUNT>
1

> <PUBCHEM_CACTVS_TAUTO_COUNT>
3

> <PUBCHEM_COORDINATE_TYPE>
1
5
255

> <PUBCHEM_BONDANNOTATIONS>
10  13  8
10  14  8
11  15  8
11  16  8
12  20  8
12  21  8
13  18  8
14  19  8
15  22  8
16  23  8
17  18  8
17  19  8
2  27  3
20  25  8
21  26  8
22  24  8
23  24  8
4  7  8
4  9  8
5  8  8
5  9  8
6  25  8
6  26  8
7  8  8

$$$$

