7062
  -OEChem-06261201423D

 27 27  0     0  0  0  0  0  0999 V2000
   -3.1342   -1.4468    0.5036 O   0  0  0  0  0  0  0  0  0  0  0  0
    1.4727   -0.1354   -0.0028 N   0  0  0  0  0  0  0  0  0  0  0  0
    2.4647    0.8713   -0.3236 C   0  0  0  0  0  0  0  0  0  0  0  0
    1.9121   -1.4605    0.3874 C   0  0  0  0  0  0  0  0  0  0  0  0
    0.0978    0.1741   -0.0564 C   0  0  0  0  0  0  0  0  0  0  0  0
    2.8515    1.6730    0.9078 C   0  0  0  0  0  0  0  0  0  0  0  0
    2.0052   -2.3842   -0.8152 C   0  0  0  0  0  0  0  0  0  0  0  0
   -0.8496   -0.8016    0.2540 C   0  0  0  0  0  0  0  0  0  0  0  0
   -0.3147    1.4560   -0.4199 C   0  0  0  0  0  0  0  0  0  0  0  0
   -2.2094   -0.4952    0.2009 C   0  0  0  0  0  0  0  0  0  0  0  0
   -1.6743    1.7624   -0.4732 C   0  0  0  0  0  0  0  0  0  0  0  0
   -2.6217    0.7869   -0.1626 C   0  0  0  0  0  0  0  0  0  0  0  0
    3.3737    0.3702   -0.6835 H   0  0  0  0  0  0  0  0  0  0  0  0
    2.1820    1.5182   -1.1605 H   0  0  0  0  0  0  0  0  0  0  0  0
    2.9198   -1.3873    0.8188 H   0  0  0  0  0  0  0  0  0  0  0  0
    1.3197   -1.9003    1.1965 H   0  0  0  0  0  0  0  0  0  0  0  0
    1.9996    2.2284    1.3121 H   0  0  0  0  0  0  0  0  0  0  0  0
    3.2300    1.0209    1.7021 H   0  0  0  0  0  0  0  0  0  0  0  0
    3.6371    2.3933    0.6589 H   0  0  0  0  0  0  0  0  0  0  0  0
    1.0294   -2.5328   -1.2878 H   0  0  0  0  0  0  0  0  0  0  0  0
    2.6830   -1.9785   -1.5737 H   0  0  0  0  0  0  0  0  0  0  0  0
    2.3862   -3.3642   -0.5111 H   0  0  0  0  0  0  0  0  0  0  0  0
   -0.5911   -1.8188    0.5267 H   0  0  0  0  0  0  0  0  0  0  0  0
    0.3678    2.2644   -0.6561 H   0  0  0  0  0  0  0  0  0  0  0  0
   -1.9963    2.7616   -0.7524 H   0  0  0  0  0  0  0  0  0  0  0  0
   -3.6779    1.0387   -0.2069 H   0  0  0  0  0  0  0  0  0  0  0  0
   -4.0231   -1.0620    0.4149 H   0  0  0  0  0  0  0  0  0  0  0  0
  1 10  1  0  0  0  0
  1 27  1  0  0  0  0
  2  3  1  0  0  0  0
  2  4  1  0  0  0  0
  2  5  1  0  0  0  0
  3  6  1  0  0  0  0
  3 13  1  0  0  0  0
  3 14  1  0  0  0  0
  4  7  1  0  0  0  0
  4 15  1  0  0  0  0
  4 16  1  0  0  0  0
  5  8  2  0  0  0  0
  5  9  1  0  0  0  0
  6 17  1  0  0  0  0
  6 18  1  0  0  0  0
  6 19  1  0  0  0  0
  7 20  1  0  0  0  0
  7 21  1  0  0  0  0
  7 22  1  0  0  0  0
  8 10  1  0  0  0  0
  8 23  1  0  0  0  0
  9 11  2  0  0  0  0
  9 24  1  0  0  0  0
 10 12  2  0  0  0  0
 11 12  1  0  0  0  0
 11 25  1  0  0  0  0
 12 26  1  0  0  0  0
M  END
> <PUBCHEM_COMPOUND_CID>
7062

> <PUBCHEM_CONFORMER_RMSD>
0.6

> <PUBCHEM_CONFORMER_DIVERSEORDER>
3
10
14
13
7
5
11
6
12
4
1
2
8
9

> <PUBCHEM_MMFF94_PARTIAL_CHARGES>
15
1 -0.53
10 0.08
11 -0.15
12 -0.15
2 -0.84
23 0.15
24 0.15
25 0.15
26 0.15
27 0.45
3 0.37
4 0.37
5 0.1
8 -0.15
9 -0.15

> <PUBCHEM_EFFECTIVE_ROTOR_COUNT>
3

> <PUBCHEM_PHARMACOPHORE_FEATURES>
3
1 1 donor
1 2 cation
6 5 8 9 10 11 12 rings

> <PUBCHEM_HEAVY_ATOM_COUNT>
12

> <PUBCHEM_ATOM_DEF_STEREO_COUNT>
0

> <PUBCHEM_ATOM_UDEF_STEREO_COUNT>
0

> <PUBCHEM_BOND_DEF_STEREO_COUNT>
0

> <PUBCHEM_BOND_UDEF_STEREO_COUNT>
0

> <PUBCHEM_ISOTOPIC_ATOM_COUNT>
0

> <PUBCHEM_COMPONENT_COUNT>
1

> <PUBCHEM_CACTVS_TAUTO_COUNT>
3

> <PUBCHEM_CONFORMER_ID>
00001B9600000003

> <PUBCHEM_MMFF94_ENERGY>
37.6372

> <PUBCHEM_FEATURE_SELFOVERLAP>
15.223

> <PUBCHEM_SHAPE_FINGERPRINT>
10608611 8 18339648931114106732
107287 299 18334851693415402678
10857977 72 18270968925227660497
12524768 44 18340770441595605701
12716758 59 18200595942112233113
12897270 3 18411980252060192140
12932764 1 17894352159314158749
13380535 21 18339067289425908060
13380535 76 18340497698477331346
14252887 29 18269538465274855643
14648413 74 18265055910686210400
15219456 202 18409732884710687584
161256 15 18410847780848098910
16945 1 18268708320751993917
17990270 104 18337111292837274790
18186145 218 17912377712344819613
18380122 1 18412266094950025488
19973954 147 18339079409849945660
20201158 50 18265337394147536006
20645477 70 18335989748349140999
20871998 184 18267022743640926751
20871998 22 18270666581421635467
21501502 16 18339360867609694956
22802520 49 18338512070481931583
2334 1 18413950589861092335
23552423 10 18059286660154643495
2748010 2 18342738554682665471
369184 2 18411422842788720817
7364860 26 18261958548039712830
81228 2 18059569222275330465

> <PUBCHEM_SHAPE_MULTIPOLES>
236.1
4.61
2.31
0.82
0.53
0.47
0
0.14
0.47
-1.04
-0.16
-0.23
0
0.93

> <PUBCHEM_SHAPE_SELFOVERLAP>
476.052

> <PUBCHEM_SHAPE_VOLUME>
139.6

> <PUBCHEM_COORDINATE_TYPE>
2
5
10

$$$$

