3353
  -OEChem-06251223212D

143147  0     1  0  0  0  0  0999 V2000
   14.9314   -2.9124    0.0000 O   0  0  0  0  0  0  0  0  0  0  0  0
   13.7043   -4.3652    0.0000 O   0  0  0  0  0  0  0  0  0  0  0  0
   12.3333   -2.4124    0.0000 O   0  0  0  0  0  0  0  0  0  0  0  0
   14.9314   -1.9124    0.0000 O   0  0  0  0  0  0  0  0  0  0  0  0
   14.8333   -0.6498    0.0000 O   0  0  0  0  0  0  0  0  0  0  0  0
   13.8333    4.5464    0.0000 O   0  0  0  0  0  0  0  0  0  0  0  0
   17.3063   -3.6784    0.0000 O   0  0  0  0  0  0  0  0  0  0  0  0
   11.8333    4.5464    0.0000 O   0  0  0  0  0  0  0  0  0  0  0  0
   18.3955   -2.9124    0.0000 O   0  0  0  0  0  0  0  0  0  0  0  0
   11.9506   -0.5919    0.0000 O   0  0  0  0  0  0  0  0  0  0  0  0
   16.6995   -1.8438    0.0000 O   0  0  0  0  0  0  0  0  0  0  0  0
   10.5297   -0.9727    0.0000 O   0  0  0  0  0  0  0  0  0  0  0  0
    7.1962   -1.9641    0.0000 O   0  0  0  0  0  0  0  0  0  0  0  0
    6.3301   -3.4641    0.0000 O   0  0  0  0  0  0  0  0  0  0  0  0
   17.5294   -1.4124    0.0000 N   0  0  0  0  0  0  0  0  0  0  0  0
    5.4641   -1.9641    0.0000 N   0  0  0  0  0  0  0  0  0  0  0  0
   14.0653   -2.4124    0.0000 C   0  0  3  0  0  0  0  0  0  0  0  0
   15.8091   -3.4282    0.0000 C   0  0  3  0  0  0  0  0  0  0  0  0
   14.0536   -3.4282    0.0000 C   0  0  3  0  0  0  0  0  0  0  0  0
   14.9314   -3.9395    0.0000 C   0  0  0  0  0  0  0  0  0  0  0  0
   15.7974   -2.4124    0.0000 C   0  0  3  0  0  0  0  0  0  0  0  0
   13.1993   -2.9124    0.0000 C   0  0  3  0  0  0  0  0  0  0  0  0
   13.1993   -3.9124    0.0000 C   0  0  0  0  0  0  0  0  0  0  0  0
   12.3333   -4.4124    0.0000 C   0  0  3  0  0  0  0  0  0  0  0  0
   16.1584   -4.3652    0.0000 C   0  0  0  0  0  0  0  0  0  0  0  0
   16.6634   -2.9124    0.0000 C   0  0  0  0  0  0  0  0  0  0  0  0
   13.3333    1.9483    0.0000 C   0  0  3  0  0  0  0  0  0  0  0  0
   13.8333    2.8143    0.0000 C   0  0  0  0  0  0  0  0  0  0  0  0
   12.3333    1.9483    0.0000 C   0  0  0  0  0  0  0  0  0  0  0  0
   13.3333    3.6803    0.0000 C   0  0  3  0  0  0  0  0  0  0  0  0
   16.6634   -0.9124    0.0000 C   0  0  3  0  0  0  0  0  0  0  0  0
   12.3333    3.6803    0.0000 C   0  0  3  0  0  0  0  0  0  0  0  0
   11.8333    2.8143    0.0000 C   0  0  0  0  0  0  0  0  0  0  0  0
   11.4673   -3.9124    0.0000 C   0  0  0  0  0  0  0  0  0  0  0  0
   17.5294   -2.4124    0.0000 C   0  0  0  0  0  0  0  0  0  0  0  0
   16.6634    0.0876    0.0000 C   0  0  0  0  0  0  0  0  0  0  0  0
   13.8333   -0.6498    0.0000 C   0  0  3  0  0  0  0  0  0  0  0  0
   18.3955   -0.9124    0.0000 C   0  0  0  0  0  0  0  0  0  0  0  0
   13.3333   -1.5158    0.0000 C   0  0  3  0  0  0  0  0  0  0  0  0
   13.8333    1.0823    0.0000 C   0  0  0  0  0  0  0  0  0  0  0  0
   17.5294    0.5876    0.0000 C   0  0  0  0  0  0  0  0  0  0  0  0
   18.3955    0.0876    0.0000 C   0  0  0  0  0  0  0  0  0  0  0  0
   12.3333   -5.4124    0.0000 C   0  0  0  0  0  0  0  0  0  0  0  0
   13.3333    0.2162    0.0000 C   0  0  0  0  0  0  0  0  0  0  0  0
   12.3333   -1.5158    0.0000 C   0  0  3  0  0  0  0  0  0  0  0  0
   15.7974   -1.4124    0.0000 C   0  0  0  0  0  0  0  0  0  0  0  0
   10.5013   -4.1712    0.0000 C   0  0  0  0  0  0  0  0  0  0  0  0
   14.3412   -5.1362    0.0000 C   0  0  0  0  0  0  0  0  0  0  0  0
   11.4673   -2.9124    0.0000 C   0  0  0  0  0  0  0  0  0  0  0  0
   11.6262   -2.2229    0.0000 C   0  0  0  0  0  0  0  0  0  0  0  0
    9.7942   -2.4641    0.0000 C   0  0  3  0  0  0  0  0  0  0  0  0
   14.3333   -1.5158    0.0000 C   0  0  0  0  0  0  0  0  0  0  0  0
    9.7942   -3.4641    0.0000 C   0  0  0  0  0  0  0  0  0  0  0  0
   12.3333    0.2162    0.0000 C   0  0  0  0  0  0  0  0  0  0  0  0
   10.6603   -1.9641    0.0000 C   0  0  0  0  0  0  0  0  0  0  0  0
   10.2425   -5.1371    0.0000 C   0  0  0  0  0  0  0  0  0  0  0  0
    8.9282   -1.9641    0.0000 C   0  0  0  0  0  0  0  0  0  0  0  0
   13.3333    5.4124    0.0000 C   0  0  0  0  0  0  0  0  0  0  0  0
    8.0622   -2.4641    0.0000 C   0  0  0  0  0  0  0  0  0  0  0  0
    6.3301   -2.4641    0.0000 C   0  0  0  0  0  0  0  0  0  0  0  0
    4.5981   -2.4641    0.0000 C   0  0  0  0  0  0  0  0  0  0  0  0
    3.7320   -1.9641    0.0000 C   0  0  0  0  0  0  0  0  0  0  0  0
    3.7320   -0.9641    0.0000 C   0  0  0  0  0  0  0  0  0  0  0  0
    2.8660   -2.4641    0.0000 C   0  0  0  0  0  0  0  0  0  0  0  0
    2.8660   -0.4641    0.0000 C   0  0  0  0  0  0  0  0  0  0  0  0
    2.0000   -1.9641    0.0000 C   0  0  0  0  0  0  0  0  0  0  0  0
    2.0000   -0.9641    0.0000 C   0  0  0  0  0  0  0  0  0  0  0  0
   14.0653   -1.5624    0.0000 H   0  0  0  0  0  0  0  0  0  0  0  0
   16.6448   -3.2725    0.0000 H   0  0  0  0  0  0  0  0  0  0  0  0
   13.2180   -3.2725    0.0000 H   0  0  0  0  0  0  0  0  0  0  0  0
   14.5322   -4.4139    0.0000 H   0  0  0  0  0  0  0  0  0  0  0  0
   15.3305   -4.4139    0.0000 H   0  0  0  0  0  0  0  0  0  0  0  0
   13.1993   -2.0624    0.0000 H   0  0  0  0  0  0  0  0  0  0  0  0
   13.4114   -4.4950    0.0000 H   0  0  0  0  0  0  0  0  0  0  0  0
   13.8099   -3.8047    0.0000 H   0  0  0  0  0  0  0  0  0  0  0  0
   11.5972   -4.8374    0.0000 H   0  0  0  0  0  0  0  0  0  0  0  0
   15.5774   -4.5817    0.0000 H   0  0  0  0  0  0  0  0  0  0  0  0
   16.3749   -4.9461    0.0000 H   0  0  0  0  0  0  0  0  0  0  0  0
   16.7393   -4.1486    0.0000 H   0  0  0  0  0  0  0  0  0  0  0  0
   14.1833    1.9483    0.0000 H   0  0  0  0  0  0  0  0  0  0  0  0
   14.3082    2.4158    0.0000 H   0  0  0  0  0  0  0  0  0  0  0  0
   14.3082    3.2128    0.0000 H   0  0  0  0  0  0  0  0  0  0  0  0
   11.7507    1.7362    0.0000 H   0  0  0  0  0  0  0  0  0  0  0  0
   12.4409    1.3377    0.0000 H   0  0  0  0  0  0  0  0  0  0  0  0
   12.9083    4.4165    0.0000 H   0  0  0  0  0  0  0  0  0  0  0  0
   17.3995   -0.4874    0.0000 H   0  0  0  0  0  0  0  0  0  0  0  0
   12.7583    4.4165    0.0000 H   0  0  0  0  0  0  0  0  0  0  0  0
   11.3583    3.2128    0.0000 H   0  0  0  0  0  0  0  0  0  0  0  0
   11.3583    2.4158    0.0000 H   0  0  0  0  0  0  0  0  0  0  0  0
   11.9057   -3.4740    0.0000 H   0  0  0  0  0  0  0  0  0  0  0  0
   11.1573   -3.3754    0.0000 H   0  0  0  0  0  0  0  0  0  0  0  0
   14.9314   -1.2924    0.0000 H   0  0  0  0  0  0  0  0  0  0  0  0
   16.4514    0.6702    0.0000 H   0  0  0  0  0  0  0  0  0  0  0  0
   16.0528   -0.0201    0.0000 H   0  0  0  0  0  0  0  0  0  0  0  0
   14.2583    0.0863    0.0000 H   0  0  0  0  0  0  0  0  0  0  0  0
   18.6075   -1.4950    0.0000 H   0  0  0  0  0  0  0  0  0  0  0  0
   19.0060   -0.8047    0.0000 H   0  0  0  0  0  0  0  0  0  0  0  0
   13.3333   -2.3658    0.0000 H   0  0  0  0  0  0  0  0  0  0  0  0
   14.4533    1.0823    0.0000 H   0  0  0  0  0  0  0  0  0  0  0  0
   17.9280    1.0626    0.0000 H   0  0  0  0  0  0  0  0  0  0  0  0
   17.1309    1.0626    0.0000 H   0  0  0  0  0  0  0  0  0  0  0  0
   19.0060   -0.0201    0.0000 H   0  0  0  0  0  0  0  0  0  0  0  0
   18.6075    0.6702    0.0000 H   0  0  0  0  0  0  0  0  0  0  0  0
   11.7133   -5.4124    0.0000 H   0  0  0  0  0  0  0  0  0  0  0  0
   12.3333   -6.0324    0.0000 H   0  0  0  0  0  0  0  0  0  0  0  0
   12.9533   -5.4124    0.0000 H   0  0  0  0  0  0  0  0  0  0  0  0
   11.4996   -1.3500    0.0000 H   0  0  0  0  0  0  0  0  0  0  0  0
   13.8632   -5.5310    0.0000 H   0  0  0  0  0  0  0  0  0  0  0  0
   14.7361   -5.6141    0.0000 H   0  0  0  0  0  0  0  0  0  0  0  0
   14.8192   -4.7413    0.0000 H   0  0  0  0  0  0  0  0  0  0  0  0
   11.1573   -2.3754    0.0000 H   0  0  0  0  0  0  0  0  0  0  0  0
   10.9303   -3.2224    0.0000 H   0  0  0  0  0  0  0  0  0  0  0  0
   11.7773   -3.4493    0.0000 H   0  0  0  0  0  0  0  0  0  0  0  0
   11.3642   -2.7848    0.0000 H   0  0  0  0  0  0  0  0  0  0  0  0
   12.1341   -2.5785    0.0000 H   0  0  0  0  0  0  0  0  0  0  0  0
    9.7942   -1.6141    0.0000 H   0  0  0  0  0  0  0  0  0  0  0  0
   14.3333   -2.1358    0.0000 H   0  0  0  0  0  0  0  0  0  0  0  0
   14.9533   -1.5158    0.0000 H   0  0  0  0  0  0  0  0  0  0  0  0
   14.3333   -0.8958    0.0000 H   0  0  0  0  0  0  0  0  0  0  0  0
    9.2214   -3.7014    0.0000 H   0  0  0  0  0  0  0  0  0  0  0  0
   12.3333    0.8362    0.0000 H   0  0  0  0  0  0  0  0  0  0  0  0
   11.7133    0.2162    0.0000 H   0  0  0  0  0  0  0  0  0  0  0  0
   12.3333   -0.4038    0.0000 H   0  0  0  0  0  0  0  0  0  0  0  0
   11.2133    4.5464    0.0000 H   0  0  0  0  0  0  0  0  0  0  0  0
    9.6436   -4.9767    0.0000 H   0  0  0  0  0  0  0  0  0  0  0  0
   10.0820   -5.7360    0.0000 H   0  0  0  0  0  0  0  0  0  0  0  0
   10.8414   -5.2976    0.0000 H   0  0  0  0  0  0  0  0  0  0  0  0
    9.3267   -1.4892    0.0000 H   0  0  0  0  0  0  0  0  0  0  0  0
    8.5297   -1.4892    0.0000 H   0  0  0  0  0  0  0  0  0  0  0  0
   13.8702    5.7224    0.0000 H   0  0  0  0  0  0  0  0  0  0  0  0
   13.0233    5.9493    0.0000 H   0  0  0  0  0  0  0  0  0  0  0  0
   12.7964    5.1024    0.0000 H   0  0  0  0  0  0  0  0  0  0  0  0
   11.3359   -0.5110    0.0000 H   0  0  0  0  0  0  0  0  0  0  0  0
    7.6636   -2.9390    0.0000 H   0  0  0  0  0  0  0  0  0  0  0  0
    8.4607   -2.9390    0.0000 H   0  0  0  0  0  0  0  0  0  0  0  0
    5.4641   -1.3441    0.0000 H   0  0  0  0  0  0  0  0  0  0  0  0
    4.1996   -2.9390    0.0000 H   0  0  0  0  0  0  0  0  0  0  0  0
    4.9966   -2.9390    0.0000 H   0  0  0  0  0  0  0  0  0  0  0  0
    4.2690   -0.6541    0.0000 H   0  0  0  0  0  0  0  0  0  0  0  0
    2.8660   -3.0841    0.0000 H   0  0  0  0  0  0  0  0  0  0  0  0
    2.8660    0.1559    0.0000 H   0  0  0  0  0  0  0  0  0  0  0  0
    1.4631   -2.2741    0.0000 H   0  0  0  0  0  0  0  0  0  0  0  0
    1.4631   -0.6541    0.0000 H   0  0  0  0  0  0  0  0  0  0  0  0
  1 17  1  0  0  0  0
  1 21  1  0  0  0  0
  2 19  1  0  0  0  0
  2 48  1  0  0  0  0
  3 22  1  0  0  0  0
  3 49  1  0  0  0  0
  4 21  1  0  0  0  0
  4 92  1  0  0  0  0
  5 37  1  0  0  0  0
  5 46  1  0  0  0  0
  6 30  1  0  0  0  0
  6 58  1  0  0  0  0
  7 26  2  0  0  0  0
  8 32  1  0  0  0  0
  8124  1  0  0  0  0
  9 35  2  0  0  0  0
 10 45  1  0  0  0  0
 10133  1  0  0  0  0
 11 46  2  0  0  0  0
 12 55  2  0  0  0  0
 13 59  1  0  0  0  0
 13 60  1  0  0  0  0
 14 60  2  0  0  0  0
 15 31  1  0  0  0  0
 15 35  1  0  0  0  0
 15 38  1  0  0  0  0
 16 60  1  0  0  0  0
 16 61  1  0  0  0  0
 16136  1  0  0  0  0
 17 19  1  0  0  0  0
 17 22  1  0  0  0  0
 17 68  1  0  0  0  0
 18 20  1  0  0  0  0
 18 21  1  0  0  0  0
 18 25  1  0  0  0  0
 18 69  1  0  0  0  0
 19 20  1  0  0  0  0
 19 70  1  0  0  0  0
 20 71  1  0  0  0  0
 20 72  1  0  0  0  0
 21 26  1  0  0  0  0
 22 23  1  0  0  0  0
 22 73  1  0  0  0  0
 23 24  1  0  0  0  0
 23 74  1  0  0  0  0
 23 75  1  0  0  0  0
 24 34  1  0  0  0  0
 24 43  1  0  0  0  0
 24 76  1  0  0  0  0
 25 77  1  0  0  0  0
 25 78  1  0  0  0  0
 25 79  1  0  0  0  0
 26 35  1  0  0  0  0
 27 28  1  0  0  0  0
 27 29  1  0  0  0  0
 27 40  1  0  0  0  0
 27 80  1  0  0  0  0
 28 30  1  0  0  0  0
 28 81  1  0  0  0  0
 28 82  1  0  0  0  0
 29 33  1  0  0  0  0
 29 83  1  0  0  0  0
 29 84  1  0  0  0  0
 30 32  1  0  0  0  0
 30 85  1  0  0  0  0
 31 36  1  0  0  0  0
 31 46  1  0  0  0  0
 31 86  1  0  0  0  0
 32 33  1  0  0  0  0
 32 87  1  0  0  0  0
 33 88  1  0  0  0  0
 33 89  1  0  0  0  0
 34 47  1  0  0  0  0
 34 90  1  0  0  0  0
 34 91  1  0  0  0  0
 36 41  1  0  0  0  0
 36 93  1  0  0  0  0
 36 94  1  0  0  0  0
 37 39  1  0  0  0  0
 37 44  1  0  0  0  0
 37 95  1  0  0  0  0
 38 42  1  0  0  0  0
 38 96  1  0  0  0  0
 38 97  1  0  0  0  0
 39 45  1  0  0  0  0
 39 52  1  0  0  0  0
 39 98  1  0  0  0  0
 40 44  2  3  0  0  0
 40 99  1  0  0  0  0
 41 42  1  0  0  0  0
 41100  1  0  0  0  0
 41101  1  0  0  0  0
 42102  1  0  0  0  0
 42103  1  0  0  0  0
 43104  1  0  0  0  0
 43105  1  0  0  0  0
 43106  1  0  0  0  0
 44 54  1  0  0  0  0
 45 50  1  0  0  0  0
 45107  1  0  0  0  0
 47 53  2  3  0  0  0
 47 56  1  0  0  0  0
 48108  1  0  0  0  0
 48109  1  0  0  0  0
 48110  1  0  0  0  0
 49111  1  0  0  0  0
 49112  1  0  0  0  0
 49113  1  0  0  0  0
 50 55  1  0  0  0  0
 50114  1  0  0  0  0
 50115  1  0  0  0  0
 51 53  1  0  0  0  0
 51 55  1  0  0  0  0
 51 57  1  0  0  0  0
 51116  1  0  0  0  0
 52117  1  0  0  0  0
 52118  1  0  0  0  0
 52119  1  0  0  0  0
 53120  1  0  0  0  0
 54121  1  0  0  0  0
 54122  1  0  0  0  0
 54123  1  0  0  0  0
 56125  1  0  0  0  0
 56126  1  0  0  0  0
 56127  1  0  0  0  0
 57 59  1  0  0  0  0
 57128  1  0  0  0  0
 57129  1  0  0  0  0
 58130  1  0  0  0  0
 58131  1  0  0  0  0
 58132  1  0  0  0  0
 59134  1  0  0  0  0
 59135  1  0  0  0  0
 61 62  1  0  0  0  0
 61137  1  0  0  0  0
 61138  1  0  0  0  0
 62 63  2  0  0  0  0
 62 64  1  0  0  0  0
 63 65  1  0  0  0  0
 63139  1  0  0  0  0
 64 66  2  0  0  0  0
 64140  1  0  0  0  0
 65 67  2  0  0  0  0
 65141  1  0  0  0  0
 66 67  1  0  0  0  0
 66142  1  0  0  0  0
 67143  1  0  0  0  0
M  END
> <PUBCHEM_COMPOUND_CID>
3353

> <PUBCHEM_COMPOUND_CANONICALIZED>
1

> <PUBCHEM_CACTVS_COMPLEXITY>
1730

> <PUBCHEM_CACTVS_HBOND_ACCEPTOR>
14

> <PUBCHEM_CACTVS_HBOND_DONOR>
4

> <PUBCHEM_CACTVS_ROTATABLE_BOND>
11

> <PUBCHEM_CACTVS_SUBSKEYS>
AAADcfB/PAAAAAAAAAAAAAAAAAAAAAAAAAA8aIEAAAAAAAABAAAAHgAQCAAADTzhmAYyCIPABgCIAqHSGAKCAAAgAAAIiIHIBIkbNDaAsTWPcAhnpgCfqAfa7PTOAAAAAAAAAABAAAIAAACAAAAAAAAAAA==

> <PUBCHEM_IUPAC_INCHI>
InChI=1S/C51H76N2O14/c1-30-22-31(2)24-43(63-7)46-44(64-8)26-33(4)51(61,67-46)47(57)48(58)53-20-13-12-16-38(53)49(59)66-45(32(3)25-36-17-18-39(54)42(27-36)62-6)34(5)40(55)28-41(56)37(23-30)19-21-65-50(60)52-29-35-14-10-9-11-15-35/h9-11,14-15,23,25,31,33-34,36-40,42-46,54-55,61H,12-13,16-22,24,26-29H2,1-8H3,(H,52,60)

> <PUBCHEM_IUPAC_INCHIKEY>
JEQCTALUECDHLT-UHFFFAOYSA-N

> <PUBCHEM_XLOGP3>
3.2

> <PUBCHEM_EXACT_MASS>
940.529655

> <PUBCHEM_MOLECULAR_FORMULA>
C51H76N2O14

> <PUBCHEM_MOLECULAR_WEIGHT>
941.15414

> <PUBCHEM_OPENEYE_CAN_SMILES>
CC1CC(C2C(CC(C(O2)(C(=O)C(=O)N3CCCCC3C(=O)OC(C(C(CC(=O)C(C=C(C1)C)CCOC(=O)NCC4=CC=CC=C4)O)C)C(=CC5CCC(C(C5)OC)O)C)O)C)OC)OC

> <PUBCHEM_OPENEYE_ISO_SMILES>
CC1CC(C2C(CC(C(O2)(C(=O)C(=O)N3CCCCC3C(=O)OC(C(C(CC(=O)C(C=C(C1)C)CCOC(=O)NCC4=CC=CC=C4)O)C)C(=CC5CCC(C(C5)OC)O)C)O)C)OC)OC

> <PUBCHEM_CACTVS_TPSA>
217

> <PUBCHEM_MONOISOTOPIC_WEIGHT>
940.529655

> <PUBCHEM_TOTAL_CHARGE>
0

> <PUBCHEM_HEAVY_ATOM_COUNT>
67

> <PUBCHEM_ATOM_DEF_STEREO_COUNT>
0

> <PUBCHEM_ATOM_UDEF_STEREO_COUNT>
14

> <PUBCHEM_BOND_DEF_STEREO_COUNT>
0

> <PUBCHEM_BOND_UDEF_STEREO_COUNT>
2

> <PUBCHEM_ISOTOPIC_ATOM_COUNT>
0

> <PUBCHEM_COMPONENT_COUNT>
1

> <PUBCHEM_CACTVS_TAUTO_COUNT>
10

> <PUBCHEM_COORDINATE_TYPE>
1
5
255

> <PUBCHEM_BONDANNOTATIONS>
17  68  3
18  69  3
19  70  3
22  73  3
24  76  3
27  80  3
30  85  3
31  86  3
32  87  3
37  95  3
39  98  3
21  4  3
40  44  1
45  107  3
47  53  1
51  116  3
62  63  8
62  64  8
63  65  8
64  66  8
65  67  8
66  67  8

$$$$

