17396434
  -OEChem-06241222562D

 47 48  0     0  0  0  0  0  0999 V2000
    4.5981    0.3693    0.0000 S   0  0  0  0  0  0  0  0  0  0  0  0
    4.5981   -1.6307    0.0000 O   0  0  0  0  0  0  0  0  0  0  0  0
    2.8660   -1.6307    0.0000 N   0  0  0  0  0  0  0  0  0  0  0  0
    5.4071    1.9571    0.0000 N   0  0  0  0  0  0  0  0  0  0  0  0
    4.0981    2.9081    0.0000 N   0  0  0  0  0  0  0  0  0  0  0  0
    3.7891    1.9571    0.0000 N   0  0  0  0  0  0  0  0  0  0  0  0
    2.8660   -2.6307    0.0000 C   0  0  0  0  0  0  0  0  0  0  0  0
    2.0000   -3.1307    0.0000 C   0  0  0  0  0  0  0  0  0  0  0  0
    3.7320   -3.1307    0.0000 C   0  0  0  0  0  0  0  0  0  0  0  0
    2.0000   -4.1307    0.0000 C   0  0  0  0  0  0  0  0  0  0  0  0
    3.7320   -4.1307    0.0000 C   0  0  0  0  0  0  0  0  0  0  0  0
    2.8660   -4.6307    0.0000 C   0  0  0  0  0  0  0  0  0  0  0  0
    2.0000   -1.1307    0.0000 C   0  0  0  0  0  0  0  0  0  0  0  0
    3.7320   -1.1307    0.0000 C   0  0  0  0  0  0  0  0  0  0  0  0
    2.0000   -0.1307    0.0000 C   0  0  0  0  0  0  0  0  0  0  0  0
    3.7320   -0.1307    0.0000 C   0  0  0  0  0  0  0  0  0  0  0  0
    5.6859    3.7172    0.0000 C   0  0  0  0  0  0  0  0  0  0  0  0
    4.5981    1.3693    0.0000 C   0  0  0  0  0  0  0  0  0  0  0  0
    5.0981    2.9081    0.0000 C   0  0  0  0  0  0  0  0  0  0  0  0
    6.6804    3.6126    0.0000 C   0  0  0  0  0  0  0  0  0  0  0  0
    5.2791    4.6307    0.0000 C   0  0  0  0  0  0  0  0  0  0  0  0
    3.4030   -2.3207    0.0000 H   0  0  0  0  0  0  0  0  0  0  0  0
    4.3426   -3.2384    0.0000 H   0  0  0  0  0  0  0  0  0  0  0  0
    3.9441   -2.5481    0.0000 H   0  0  0  0  0  0  0  0  0  0  0  0
    1.7880   -2.5481    0.0000 H   0  0  0  0  0  0  0  0  0  0  0  0
    1.3894   -3.2384    0.0000 H   0  0  0  0  0  0  0  0  0  0  0  0
    1.3894   -4.0230    0.0000 H   0  0  0  0  0  0  0  0  0  0  0  0
    1.7880   -4.7133    0.0000 H   0  0  0  0  0  0  0  0  0  0  0  0
    3.9441   -4.7133    0.0000 H   0  0  0  0  0  0  0  0  0  0  0  0
    4.3426   -4.0230    0.0000 H   0  0  0  0  0  0  0  0  0  0  0  0
    2.4675   -5.1056    0.0000 H   0  0  0  0  0  0  0  0  0  0  0  0
    3.2646   -5.1056    0.0000 H   0  0  0  0  0  0  0  0  0  0  0  0
    1.3894   -1.0230    0.0000 H   0  0  0  0  0  0  0  0  0  0  0  0
    1.7880   -1.7133    0.0000 H   0  0  0  0  0  0  0  0  0  0  0  0
    2.6200   -0.1307    0.0000 H   0  0  0  0  0  0  0  0  0  0  0  0
    2.0000    0.4893    0.0000 H   0  0  0  0  0  0  0  0  0  0  0  0
    1.3800   -0.1307    0.0000 H   0  0  0  0  0  0  0  0  0  0  0  0
    3.5200    0.4519    0.0000 H   0  0  0  0  0  0  0  0  0  0  0  0
    3.1215   -0.2384    0.0000 H   0  0  0  0  0  0  0  0  0  0  0  0
    6.0503    4.2188    0.0000 H   0  0  0  0  0  0  0  0  0  0  0  0
    5.8455    4.8829    0.0000 H   0  0  0  0  0  0  0  0  0  0  0  0
    5.0270    5.1971    0.0000 H   0  0  0  0  0  0  0  0  0  0  0  0
    4.7127    4.3785    0.0000 H   0  0  0  0  0  0  0  0  0  0  0  0
    6.6156    2.9960    0.0000 H   0  0  0  0  0  0  0  0  0  0  0  0
    7.2970    3.5478    0.0000 H   0  0  0  0  0  0  0  0  0  0  0  0
    6.7452    4.2292    0.0000 H   0  0  0  0  0  0  0  0  0  0  0  0
    3.7336    3.4097    0.0000 H   0  0  0  0  0  0  0  0  0  0  0  0
  1 16  1  0  0  0  0
  1 18  1  0  0  0  0
  2 14  2  0  0  0  0
  3  7  1  0  0  0  0
  3 13  1  0  0  0  0
  3 14  1  0  0  0  0
  4 18  1  0  0  0  0
  4 19  2  0  0  0  0
  5  6  1  0  0  0  0
  5 19  1  0  0  0  0
  5 47  1  0  0  0  0
  6 18  2  0  0  0  0
  7  8  1  0  0  0  0
  7  9  1  0  0  0  0
  7 22  1  0  0  0  0
  8 10  1  0  0  0  0
  8 25  1  0  0  0  0
  8 26  1  0  0  0  0
  9 11  1  0  0  0  0
  9 23  1  0  0  0  0
  9 24  1  0  0  0  0
 10 12  1  0  0  0  0
 10 27  1  0  0  0  0
 10 28  1  0  0  0  0
 11 12  1  0  0  0  0
 11 29  1  0  0  0  0
 11 30  1  0  0  0  0
 12 31  1  0  0  0  0
 12 32  1  0  0  0  0
 13 15  1  0  0  0  0
 13 33  1  0  0  0  0
 13 34  1  0  0  0  0
 14 16  1  0  0  0  0
 15 35  1  0  0  0  0
 15 36  1  0  0  0  0
 15 37  1  0  0  0  0
 16 38  1  0  0  0  0
 16 39  1  0  0  0  0
 17 19  1  0  0  0  0
 17 20  1  0  0  0  0
 17 21  1  0  0  0  0
 17 40  1  0  0  0  0
 20 44  1  0  0  0  0
 20 45  1  0  0  0  0
 20 46  1  0  0  0  0
 21 41  1  0  0  0  0
 21 42  1  0  0  0  0
 21 43  1  0  0  0  0
M  END
> <PUBCHEM_COMPOUND_CID>
17396434

> <PUBCHEM_COMPOUND_CANONICALIZED>
1

> <PUBCHEM_CACTVS_COMPLEXITY>
334

> <PUBCHEM_CACTVS_HBOND_ACCEPTOR>
4

> <PUBCHEM_CACTVS_HBOND_DONOR>
1

> <PUBCHEM_CACTVS_ROTATABLE_BOND>
6

> <PUBCHEM_CACTVS_SUBSKEYS>
AAADceBzoABAAAAAAAAAAAAAAAAAAWAAAAAwAAAAAAAAAAABgAAAHgQYAAAADSjFwwSDEAdrEAgqAAMwNAAQ0AvAALAVIAA4AACACAIAiAAEAAAAHgKAAAEQAAAAAAAAAAAAAAAAAAAAAAAAAAAAAAAAAA==

> <PUBCHEM_IUPAC_OPENEYE_NAME>
N-cyclohexyl-N-ethyl-2-[(5-isopropyl-1H-1,2,4-triazol-3-yl)sulfanyl]acetamide

> <PUBCHEM_IUPAC_CAS_NAME>
N-cyclohexyl-N-ethyl-2-[(5-propan-2-yl-1H-1,2,4-triazol-3-yl)thio]acetamide

> <PUBCHEM_IUPAC_NAME>
N-cyclohexyl-N-ethyl-2-[(5-propan-2-yl-1H-1,2,4-triazol-3-yl)sulfanyl]acetamide

> <PUBCHEM_IUPAC_SYSTEMATIC_NAME>
N-cyclohexyl-N-ethyl-2-[(5-propan-2-yl-1H-1,2,4-triazol-3-yl)sulfanyl]ethanamide

> <PUBCHEM_IUPAC_TRADITIONAL_NAME>
N-cyclohexyl-N-ethyl-2-[(5-isopropyl-1H-1,2,4-triazol-3-yl)thio]acetamide

> <PUBCHEM_IUPAC_INCHI>
InChI=1S/C15H26N4OS/c1-4-19(12-8-6-5-7-9-12)13(20)10-21-15-16-14(11(2)3)17-18-15/h11-12H,4-10H2,1-3H3,(H,16,17,18)

> <PUBCHEM_IUPAC_INCHIKEY>
SKTVKNBGFASYEE-UHFFFAOYSA-N

> <PUBCHEM_XLOGP3_AA>
3.7

> <PUBCHEM_EXACT_MASS>
310.182732

> <PUBCHEM_MOLECULAR_FORMULA>
C15H26N4OS

> <PUBCHEM_MOLECULAR_WEIGHT>
310.45814

> <PUBCHEM_OPENEYE_CAN_SMILES>
CCN(C1CCCCC1)C(=O)CSC2=NNC(=N2)C(C)C

> <PUBCHEM_OPENEYE_ISO_SMILES>
CCN(C1CCCCC1)C(=O)CSC2=NNC(=N2)C(C)C

> <PUBCHEM_CACTVS_TPSA>
87.2

> <PUBCHEM_MONOISOTOPIC_WEIGHT>
310.182732

> <PUBCHEM_TOTAL_CHARGE>
0

> <PUBCHEM_HEAVY_ATOM_COUNT>
21

> <PUBCHEM_ATOM_DEF_STEREO_COUNT>
0

> <PUBCHEM_ATOM_UDEF_STEREO_COUNT>
0

> <PUBCHEM_BOND_DEF_STEREO_COUNT>
0

> <PUBCHEM_BOND_UDEF_STEREO_COUNT>
0

> <PUBCHEM_ISOTOPIC_ATOM_COUNT>
0

> <PUBCHEM_COMPONENT_COUNT>
1

> <PUBCHEM_CACTVS_TAUTO_COUNT>
5

> <PUBCHEM_COORDINATE_TYPE>
1
5
255

> <PUBCHEM_BONDANNOTATIONS>
4  18  8
4  19  8
5  19  8
5  6  8
6  18  8

$$$$

