17396283
  -OEChem-06241222552D

 33 35  0     0  0  0  0  0  0999 V2000
    6.7619    0.7321    0.0000 O   0  0  0  0  0  0  0  0  0  0  0  0
    3.7320    0.3660    0.0000 N   0  0  0  0  0  0  0  0  0  0  0  0
    4.6783    0.6708    0.0000 N   0  0  0  0  0  0  0  0  0  0  0  0
    6.7619   -1.0000    0.0000 N   0  0  0  0  0  0  0  0  0  0  0  0
    4.6783   -0.9387    0.0000 N   0  0  0  0  0  0  0  0  0  0  0  0
    2.8660   -1.1340    0.0000 N   0  0  0  0  0  0  0  0  0  0  0  0
    2.8660    0.8660    0.0000 C   0  0  0  0  0  0  0  0  0  0  0  0
    3.7320   -0.6340    0.0000 C   0  0  0  0  0  0  0  0  0  0  0  0
    5.2619   -0.1340    0.0000 C   0  0  0  0  0  0  0  0  0  0  0  0
    7.7619   -1.0000    0.0000 C   0  0  0  0  0  0  0  0  0  0  0  0
    2.0000    0.3660    0.0000 C   0  0  0  0  0  0  0  0  0  0  0  0
    6.2619   -0.1340    0.0000 C   0  0  0  0  0  0  0  0  0  0  0  0
    2.8660    1.8660    0.0000 C   0  0  0  0  0  0  0  0  0  0  0  0
    9.7619   -1.0000    0.0000 C   0  0  0  0  0  0  0  0  0  0  0  0
    8.2619   -1.8660    0.0000 C   0  0  0  0  0  0  0  0  0  0  0  0
    8.2619   -0.1340    0.0000 C   0  0  0  0  0  0  0  0  0  0  0  0
    9.2619   -1.8660    0.0000 C   0  0  0  0  0  0  0  0  0  0  0  0
    9.2619   -0.1340    0.0000 C   0  0  0  0  0  0  0  0  0  0  0  0
    2.0000   -0.6340    0.0000 C   0  0  0  0  0  0  0  0  0  0  0  0
   10.7619   -1.0000    0.0000 C   0  0  0  0  0  0  0  0  0  0  0  0
    1.4631    0.6760    0.0000 H   0  0  0  0  0  0  0  0  0  0  0  0
    3.4860    1.8660    0.0000 H   0  0  0  0  0  0  0  0  0  0  0  0
    2.8660    2.4860    0.0000 H   0  0  0  0  0  0  0  0  0  0  0  0
    2.2460    1.8660    0.0000 H   0  0  0  0  0  0  0  0  0  0  0  0
    6.4519   -1.5369    0.0000 H   0  0  0  0  0  0  0  0  0  0  0  0
    7.9519   -2.4030    0.0000 H   0  0  0  0  0  0  0  0  0  0  0  0
    7.9519    0.4030    0.0000 H   0  0  0  0  0  0  0  0  0  0  0  0
    9.5719   -2.4030    0.0000 H   0  0  0  0  0  0  0  0  0  0  0  0
    9.5719    0.4030    0.0000 H   0  0  0  0  0  0  0  0  0  0  0  0
    1.4631   -0.9440    0.0000 H   0  0  0  0  0  0  0  0  0  0  0  0
   10.7619   -1.6200    0.0000 H   0  0  0  0  0  0  0  0  0  0  0  0
   11.3819   -1.0000    0.0000 H   0  0  0  0  0  0  0  0  0  0  0  0
   10.7619   -0.3800    0.0000 H   0  0  0  0  0  0  0  0  0  0  0  0
  1 12  2  0  0  0  0
  2  3  1  0  0  0  0
  2  7  1  0  0  0  0
  2  8  1  0  0  0  0
  3  9  2  0  0  0  0
  4 10  1  0  0  0  0
  4 12  1  0  0  0  0
  4 25  1  0  0  0  0
  5  8  2  0  0  0  0
  5  9  1  0  0  0  0
  6  8  1  0  0  0  0
  6 19  2  0  0  0  0
  7 11  2  0  0  0  0
  7 13  1  0  0  0  0
  9 12  1  0  0  0  0
 10 15  2  0  0  0  0
 10 16  1  0  0  0  0
 11 19  1  0  0  0  0
 11 21  1  0  0  0  0
 13 22  1  0  0  0  0
 13 23  1  0  0  0  0
 13 24  1  0  0  0  0
 14 17  2  0  0  0  0
 14 18  1  0  0  0  0
 14 20  1  0  0  0  0
 15 17  1  0  0  0  0
 15 26  1  0  0  0  0
 16 18  2  0  0  0  0
 16 27  1  0  0  0  0
 17 28  1  0  0  0  0
 18 29  1  0  0  0  0
 19 30  1  0  0  0  0
 20 31  1  0  0  0  0
 20 32  1  0  0  0  0
 20 33  1  0  0  0  0
M  END
> <PUBCHEM_COMPOUND_CID>
17396283

> <PUBCHEM_COMPOUND_CANONICALIZED>
1

> <PUBCHEM_CACTVS_COMPLEXITY>
356

> <PUBCHEM_CACTVS_HBOND_ACCEPTOR>
4

> <PUBCHEM_CACTVS_HBOND_DONOR>
1

> <PUBCHEM_CACTVS_ROTATABLE_BOND>
2

> <PUBCHEM_CACTVS_SUBSKEYS>
AAADccBzoAAAAAAAAAAAAAAAAAAAAWAAAAA8QAAAAAAAAFgB8AAAHgAYAAAADAjBnwQ/0JbIEACqAzd3dACShCszAqAd2CC4ZJiIaKLA2fGUpAhonALIyCcQgAAOCAAAAAAAAAAQAAAAAAAAAAAAAAAAAA==

> <PUBCHEM_IUPAC_OPENEYE_NAME>
7-methyl-N-(p-tolyl)-[1,2,4]triazolo[1,5-a]pyrimidine-2-carboxamide

> <PUBCHEM_IUPAC_CAS_NAME>
7-methyl-N-(4-methylphenyl)-[1,2,4]triazolo[1,5-a]pyrimidine-2-carboxamide

> <PUBCHEM_IUPAC_NAME>
7-methyl-N-(4-methylphenyl)-[1,2,4]triazolo[1,5-a]pyrimidine-2-carboxamide

> <PUBCHEM_IUPAC_SYSTEMATIC_NAME>
7-methyl-N-(4-methylphenyl)-[1,2,4]triazolo[1,5-a]pyrimidine-2-carboxamide

> <PUBCHEM_IUPAC_TRADITIONAL_NAME>
7-methyl-N-(p-tolyl)-[1,2,4]triazolo[1,5-a]pyrimidine-2-carboxamide

> <PUBCHEM_IUPAC_INCHI>
InChI=1S/C14H13N5O/c1-9-3-5-11(6-4-9)16-13(20)12-17-14-15-8-7-10(2)19(14)18-12/h3-8H,1-2H3,(H,16,20)

> <PUBCHEM_IUPAC_INCHIKEY>
LJAKRHUQLRPOGH-UHFFFAOYSA-N

> <PUBCHEM_XLOGP3_AA>
2

> <PUBCHEM_EXACT_MASS>
267.11201

> <PUBCHEM_MOLECULAR_FORMULA>
C14H13N5O

> <PUBCHEM_MOLECULAR_WEIGHT>
267.28592

> <PUBCHEM_OPENEYE_CAN_SMILES>
CC1=CC=C(C=C1)NC(=O)C2=NN3C(=CC=NC3=N2)C

> <PUBCHEM_OPENEYE_ISO_SMILES>
CC1=CC=C(C=C1)NC(=O)C2=NN3C(=CC=NC3=N2)C

> <PUBCHEM_CACTVS_TPSA>
72.2

> <PUBCHEM_MONOISOTOPIC_WEIGHT>
267.11201

> <PUBCHEM_TOTAL_CHARGE>
0

> <PUBCHEM_HEAVY_ATOM_COUNT>
20

> <PUBCHEM_ATOM_DEF_STEREO_COUNT>
0

> <PUBCHEM_ATOM_UDEF_STEREO_COUNT>
0

> <PUBCHEM_BOND_DEF_STEREO_COUNT>
0

> <PUBCHEM_BOND_UDEF_STEREO_COUNT>
0

> <PUBCHEM_ISOTOPIC_ATOM_COUNT>
0

> <PUBCHEM_COMPONENT_COUNT>
1

> <PUBCHEM_CACTVS_TAUTO_COUNT>
2

> <PUBCHEM_COORDINATE_TYPE>
1
5
255

> <PUBCHEM_BONDANNOTATIONS>
10  15  8
10  16  8
11  19  8
14  17  8
14  18  8
15  17  8
16  18  8
2  3  8
2  7  8
2  8  8
3  9  8
5  8  8
5  9  8
6  19  8
6  8  8
7  11  8

$$$$

