12828
  -OEChem-06261207252D

 19 19  0     0  0  0  0  0  0999 V2000
    6.7871   -0.6075    0.0000 O   0  0  0  0  0  0  0  0  0  0  0  0
    9.2903    0.3404    0.0000 O   0  5  0  0  0  0  0  0  0  0  0  0
    8.7551   -1.3069    0.0000 O   0  0  0  0  0  0  0  0  0  0  0  0
    3.1249   -0.9468    0.0000 O   0  0  0  0  0  0  0  0  0  0  0  0
    8.5471   -0.3288    0.0000 N   0  3  0  0  0  0  0  0  0  0  0  0
    2.5897    0.7005    0.0000 N   0  0  0  0  0  0  0  0  0  0  0  0
    5.9781   -0.0198    0.0000 C   0  0  0  0  0  0  0  0  0  0  0  0
    6.2871    0.9313    0.0000 C   0  0  0  0  0  0  0  0  0  0  0  0
    7.5961   -0.0198    0.0000 C   0  0  0  0  0  0  0  0  0  0  0  0
    7.2871    0.9313    0.0000 C   0  0  0  0  0  0  0  0  0  0  0  0
    5.0270   -0.3288    0.0000 C   0  0  0  0  0  0  0  0  0  0  0  0
    4.2839    0.3404    0.0000 C   0  0  0  0  0  0  0  0  0  0  0  0
    3.3328    0.0313    0.0000 C   0  0  0  0  0  0  0  0  0  0  0  0
    5.9226    1.4329    0.0000 H   0  0  0  0  0  0  0  0  0  0  0  0
    7.6515    1.4329    0.0000 H   0  0  0  0  0  0  0  0  0  0  0  0
    4.8981   -0.9352    0.0000 H   0  0  0  0  0  0  0  0  0  0  0  0
    4.4128    0.9468    0.0000 H   0  0  0  0  0  0  0  0  0  0  0  0
    2.0000    0.5089    0.0000 H   0  0  0  0  0  0  0  0  0  0  0  0
    2.7186    1.3069    0.0000 H   0  0  0  0  0  0  0  0  0  0  0  0
  1  7  1  0  0  0  0
  1  9  1  0  0  0  0
  2  5  1  0  0  0  0
  3  5  2  0  0  0  0
  4 13  2  0  0  0  0
  5  9  1  0  0  0  0
  6 13  1  0  0  0  0
  6 18  1  0  0  0  0
  6 19  1  0  0  0  0
  7  8  2  0  0  0  0
  7 11  1  0  0  0  0
  8 10  1  0  0  0  0
  8 14  1  0  0  0  0
  9 10  2  0  0  0  0
 10 15  1  0  0  0  0
 11 12  2  3  0  0  0
 11 16  1  0  0  0  0
 12 13  1  0  0  0  0
 12 17  1  0  0  0  0
M  CHG  2   2  -1   5   1
M  END
> <PUBCHEM_COMPOUND_CID>
12828

> <PUBCHEM_COMPOUND_CANONICALIZED>
1

> <PUBCHEM_CACTVS_COMPLEXITY>
245

> <PUBCHEM_CACTVS_HBOND_ACCEPTOR>
4

> <PUBCHEM_CACTVS_HBOND_DONOR>
1

> <PUBCHEM_CACTVS_ROTATABLE_BOND>
2

> <PUBCHEM_CACTVS_SUBSKEYS>
AAADcYBjOAAAAAAAAAAAAAAAAAAAASAAAAAAAAAAAAAAAAABgAAAHgAUAAAACASBkAAwhIBQRECJAKFSUwCCCAAsIgAoiAEGbMoMJjKEtZuKGSDk0BEI6Ya8AAAAAAAAAAAAAAAAAAAAAAAAAAAAAAAAAA==

> <PUBCHEM_IUPAC_OPENEYE_NAME>
3-(5-nitro-2-furyl)prop-2-enamide

> <PUBCHEM_IUPAC_CAS_NAME>
3-(5-nitro-2-furanyl)-2-propenamide

> <PUBCHEM_IUPAC_NAME>
3-(5-nitrofuran-2-yl)prop-2-enamide

> <PUBCHEM_IUPAC_SYSTEMATIC_NAME>
3-(5-nitrofuran-2-yl)prop-2-enamide

> <PUBCHEM_IUPAC_TRADITIONAL_NAME>
3-(5-nitro-2-furyl)acrylamide

> <PUBCHEM_IUPAC_INCHI>
InChI=1S/C7H6N2O4/c8-6(10)3-1-5-2-4-7(13-5)9(11)12/h1-4H,(H2,8,10)

> <PUBCHEM_IUPAC_INCHIKEY>
IZFMIIGMIPRYKL-UHFFFAOYSA-N

> <PUBCHEM_XLOGP3>
0.6

> <PUBCHEM_EXACT_MASS>
182.032757

> <PUBCHEM_MOLECULAR_FORMULA>
C7H6N2O4

> <PUBCHEM_MOLECULAR_WEIGHT>
182.13354

> <PUBCHEM_OPENEYE_CAN_SMILES>
C1=C(OC(=C1)[N+](=O)[O-])C=CC(=O)N

> <PUBCHEM_OPENEYE_ISO_SMILES>
C1=C(OC(=C1)[N+](=O)[O-])C=CC(=O)N

> <PUBCHEM_CACTVS_TPSA>
102

> <PUBCHEM_MONOISOTOPIC_WEIGHT>
182.032757

> <PUBCHEM_TOTAL_CHARGE>
0

> <PUBCHEM_HEAVY_ATOM_COUNT>
13

> <PUBCHEM_ATOM_DEF_STEREO_COUNT>
0

> <PUBCHEM_ATOM_UDEF_STEREO_COUNT>
0

> <PUBCHEM_BOND_DEF_STEREO_COUNT>
0

> <PUBCHEM_BOND_UDEF_STEREO_COUNT>
1

> <PUBCHEM_ISOTOPIC_ATOM_COUNT>
0

> <PUBCHEM_COMPONENT_COUNT>
1

> <PUBCHEM_CACTVS_TAUTO_COUNT>
2

> <PUBCHEM_COORDINATE_TYPE>
1
5
255

> <PUBCHEM_BONDANNOTATIONS>
1  7  8
1  9  8
11  12  1
7  8  8
8  10  8
9  10  8

$$$$

