6863
  -OEChem-06261201323D

 24 25  0     0  0  0  0  0  0999 V2000
    2.1726    0.1664   -1.7106 S   0  0  0  0  0  0  0  0  0  0  0  0
    1.8905    0.1104    0.8819 N   0  0  0  0  0  0  0  0  0  0  0  0
    3.8939    1.1688    0.0319 N   0  0  0  0  0  0  0  0  0  0  0  0
   -0.4828    0.1601    0.2730 C   0  0  0  0  0  0  0  0  0  0  0  0
   -1.6471   -0.5515   -0.1023 C   0  0  0  0  0  0  0  0  0  0  0  0
    0.7081   -0.5465    0.5072 C   0  0  0  0  0  0  0  0  0  0  0  0
   -1.5861   -1.9486   -0.2327 C   0  0  0  0  0  0  0  0  0  0  0  0
   -0.5438    1.5572    0.4029 C   0  0  0  0  0  0  0  0  0  0  0  0
   -2.8381    0.1548   -0.3367 C   0  0  0  0  0  0  0  0  0  0  0  0
    0.7506   -1.9346    0.3735 C   0  0  0  0  0  0  0  0  0  0  0  0
   -0.3944   -2.6344    0.0041 C   0  0  0  0  0  0  0  0  0  0  0  0
   -1.7357    2.2426    0.1664 C   0  0  0  0  0  0  0  0  0  0  0  0
   -2.8808    1.5428   -0.2027 C   0  0  0  0  0  0  0  0  0  0  0  0
    2.6930    0.5125   -0.0558 C   0  0  0  0  0  0  0  0  0  0  0  0
   -2.4689   -2.5161   -0.5202 H   0  0  0  0  0  0  0  0  0  0  0  0
    0.3257    2.1414    0.6947 H   0  0  0  0  0  0  0  0  0  0  0  0
   -3.7452   -0.3717   -0.6263 H   0  0  0  0  0  0  0  0  0  0  0  0
    1.6715   -2.4821    0.5587 H   0  0  0  0  0  0  0  0  0  0  0  0
   -0.3610   -3.7150   -0.0992 H   0  0  0  0  0  0  0  0  0  0  0  0
   -1.7702    3.3231    0.2717 H   0  0  0  0  0  0  0  0  0  0  0  0
   -3.8084    2.0771   -0.3864 H   0  0  0  0  0  0  0  0  0  0  0  0
    4.2888    1.4180    0.9323 H   0  0  0  0  0  0  0  0  0  0  0  0
    4.4230    1.4264   -0.7937 H   0  0  0  0  0  0  0  0  0  0  0  0
    3.2199    0.7160   -2.3412 H   0  0  0  0  0  0  0  0  0  0  0  0
  1 14  1  0  0  0  0
  1 24  1  0  0  0  0
  2  6  1  0  0  0  0
  2 14  2  0  0  0  0
  3 14  1  0  0  0  0
  3 22  1  0  0  0  0
  3 23  1  0  0  0  0
  4  5  1  0  0  0  0
  4  6  1  0  0  0  0
  4  8  2  0  0  0  0
  5  7  1  0  0  0  0
  5  9  2  0  0  0  0
  6 10  2  0  0  0  0
  7 11  2  0  0  0  0
  7 15  1  0  0  0  0
  8 12  1  0  0  0  0
  8 16  1  0  0  0  0
  9 13  1  0  0  0  0
  9 17  1  0  0  0  0
 10 11  1  0  0  0  0
 10 18  1  0  0  0  0
 11 19  1  0  0  0  0
 12 13  2  0  0  0  0
 12 20  1  0  0  0  0
 13 21  1  0  0  0  0
M  END
> <PUBCHEM_COMPOUND_CID>
6863

> <PUBCHEM_CONFORMER_RMSD>
0.4

> <PUBCHEM_CONFORMER_DIVERSEORDER>
1
2

> <PUBCHEM_MMFF94_PARTIAL_CHARGES>
22
1 -0.32
10 -0.15
11 -0.15
12 -0.15
13 -0.15
14 0.64
15 0.15
16 0.15
17 0.15
18 0.15
19 0.15
2 -0.63
20 0.15
21 0.15
22 0.4
23 0.4
24 0.18
3 -0.85
6 0.18
7 -0.15
8 -0.15
9 -0.15

> <PUBCHEM_EFFECTIVE_ROTOR_COUNT>
1

> <PUBCHEM_PHARMACOPHORE_FEATURES>
5
1 3 donor
3 1 3 14 anion
3 2 3 14 cation
6 4 5 6 7 10 11 rings
6 4 5 8 9 12 13 rings

> <PUBCHEM_HEAVY_ATOM_COUNT>
14

> <PUBCHEM_ATOM_DEF_STEREO_COUNT>
0

> <PUBCHEM_ATOM_UDEF_STEREO_COUNT>
0

> <PUBCHEM_BOND_DEF_STEREO_COUNT>
0

> <PUBCHEM_BOND_UDEF_STEREO_COUNT>
0

> <PUBCHEM_ISOTOPIC_ATOM_COUNT>
0

> <PUBCHEM_COMPONENT_COUNT>
1

> <PUBCHEM_CACTVS_TAUTO_COUNT>
3

> <PUBCHEM_CONFORMER_ID>
00001ACF00000001

> <PUBCHEM_MMFF94_ENERGY>
53.2775

> <PUBCHEM_FEATURE_SELFOVERLAP>
25.398

> <PUBCHEM_SHAPE_FINGERPRINT>
1 1 18123750021868861622
11206711 2 18265911167708615911
11640471 11 17631722756470195580
12138202 97 18187082819579007350
12202030 40 14563971064486603349
12716758 59 18335972121460200254
14614273 12 18272097127300205965
14648413 74 17691686014533632825
15775835 57 18201719569897227068
16945 1 18409737226964860955
17134986 127 18196368341125414396
17357990 137 17631998798297140684
19837323 101 18411127030915718674
20510252 161 18336261232667067866
20645476 183 18060410300982697462
21501502 16 18120381110162909937
21524375 3 18272088348365771912
22802520 49 18115005490108474862
2334 1 18337678640931827993
23402539 116 18262811661340538358
23552423 10 17978515565763892099
23557571 272 18045488734567213876
23559900 14 18260548923247443752
241688 4 16247441344962915299
2748010 2 18337954622645535835
305870 269 18271245053091192370
3071541 158 17476919528960681791
353137 74 18409167731407531361
53812653 8 18411984662991481731
6333449 129 18335984172922141880
7364860 26 17975978983416298006
77492 1 17703800163186627408
81228 2 18193826055387870123

> <PUBCHEM_SHAPE_MULTIPOLES>
282
4.51
2.53
0.97
2.11
1
0.34
-2.55
0.65
-0.99
-0.16
0.57
-0.06
-0.14

> <PUBCHEM_SHAPE_SELFOVERLAP>
605.55

> <PUBCHEM_SHAPE_VOLUME>
157.5

> <PUBCHEM_COORDINATE_TYPE>
2
5
10

$$$$

