11876
  -OEChem-06261206133D

 18 18  0     0  0  0  0  0  0999 V2000
    1.9592    1.3648   -1.1129 O   0  0  0  0  0  0  0  0  0  0  0  0
    0.3205   -2.8523    0.0105 O   0  5  0  0  0  0  0  0  0  0  0  0
    1.8640   -1.2916   -0.0246 O   0  0  0  0  0  0  0  0  0  0  0  0
    0.6620   -1.6465   -0.0058 N   0  3  0  0  0  0  0  0  0  0  0  0
    1.9912    1.3717    1.1801 N   0  0  0  0  0  0  0  0  0  0  0  0
   -0.0224    0.7098   -0.0213 C   0  0  0  0  0  0  0  0  0  0  0  0
   -0.3497   -0.6459   -0.0033 C   0  0  0  0  0  0  0  0  0  0  0  0
   -1.0328    1.6714   -0.0188 C   0  0  0  0  0  0  0  0  0  0  0  0
   -1.6875   -1.0402    0.0173 C   0  0  0  0  0  0  0  0  0  0  0  0
   -2.3707    1.2771    0.0017 C   0  0  0  0  0  0  0  0  0  0  0  0
   -2.6981   -0.0786    0.0196 C   0  0  0  0  0  0  0  0  0  0  0  0
    1.3642    1.1604   -0.0425 C   0  0  0  0  0  0  0  0  0  0  0  0
   -0.7913    2.7312   -0.0329 H   0  0  0  0  0  0  0  0  0  0  0  0
   -1.9844   -2.0858    0.0317 H   0  0  0  0  0  0  0  0  0  0  0  0
   -3.1575    2.0257    0.0035 H   0  0  0  0  0  0  0  0  0  0  0  0
   -3.7399   -0.3850    0.0355 H   0  0  0  0  0  0  0  0  0  0  0  0
    1.5164    1.2156    2.0636 H   0  0  0  0  0  0  0  0  0  0  0  0
    2.9531    1.6910    1.2250 H   0  0  0  0  0  0  0  0  0  0  0  0
  1 12  2  0  0  0  0
  2  4  1  0  0  0  0
  3  4  2  0  0  0  0
  4  7  1  0  0  0  0
  5 12  1  0  0  0  0
  5 17  1  0  0  0  0
  5 18  1  0  0  0  0
  6  7  1  0  0  0  0
  6  8  2  0  0  0  0
  6 12  1  0  0  0  0
  7  9  2  0  0  0  0
  8 10  1  0  0  0  0
  8 13  1  0  0  0  0
  9 11  1  0  0  0  0
  9 14  1  0  0  0  0
 10 11  2  0  0  0  0
 10 15  1  0  0  0  0
 11 16  1  0  0  0  0
M  CHG  2   2  -1   4   1
M  END
> <PUBCHEM_COMPOUND_CID>
11876

> <PUBCHEM_CONFORMER_RMSD>
0.6

> <PUBCHEM_CONFORMER_DIVERSEORDER>
1
2

> <PUBCHEM_MMFF94_PARTIAL_CHARGES>
18
1 -0.57
10 -0.15
11 -0.15
12 0.54
13 0.15
14 0.15
15 0.15
16 0.15
17 0.37
18 0.37
2 -0.52
3 -0.52
4 0.91
5 -0.8
6 0.09
7 0.13
8 -0.15
9 -0.15

> <PUBCHEM_EFFECTIVE_ROTOR_COUNT>
2

> <PUBCHEM_PHARMACOPHORE_FEATURES>
6
1 1 acceptor
1 2 acceptor
1 2 anion
1 3 acceptor
1 5 donor
6 6 7 8 9 10 11 rings

> <PUBCHEM_HEAVY_ATOM_COUNT>
12

> <PUBCHEM_ATOM_DEF_STEREO_COUNT>
0

> <PUBCHEM_ATOM_UDEF_STEREO_COUNT>
0

> <PUBCHEM_BOND_DEF_STEREO_COUNT>
0

> <PUBCHEM_BOND_UDEF_STEREO_COUNT>
0

> <PUBCHEM_ISOTOPIC_ATOM_COUNT>
0

> <PUBCHEM_COMPONENT_COUNT>
1

> <PUBCHEM_CACTVS_TAUTO_COUNT>
2

> <PUBCHEM_CONFORMER_ID>
00002E6400000001

> <PUBCHEM_MMFF94_ENERGY>
46.0802

> <PUBCHEM_FEATURE_SELFOVERLAP>
30.53

> <PUBCHEM_SHAPE_FINGERPRINT>
12423570 1 8463842577247477913
12524768 44 17542226113241048711
16945 1 18195525020122800245
18185500 45 17763177338423731583
193761 8 18338797943832213837
20511035 2 18192155008541607277
20871998 184 17468474811708127020
21040471 1 18266740181926687916
2334 1 18338797806272109967
23552423 10 18341609373510446925
241688 4 17259060117542547099
2748010 2 18411696552453945967
5084963 1 18043234761078232909
7364860 26 18188775083700881399

> <PUBCHEM_SHAPE_MULTIPOLES>
219.38
3.12
2.41
0.76
0.78
1.32
0.02
-0.87
0.05
-0.65
0.01
-0.33
-0.27
0.03

> <PUBCHEM_SHAPE_SELFOVERLAP>
466.477

> <PUBCHEM_SHAPE_VOLUME>
122.1

> <PUBCHEM_COORDINATE_TYPE>
2
5
10

$$$$

