14253
  -OEChem-06241222423D

 54 53  0     0  0  0  0  0  0999 V2000
    8.7758    0.3175   -0.1272 S   0  0  0  0  0  0  0  0  0  0  0  0
    9.8371   -0.9215   -0.1241 O   0  0  0  0  0  0  0  0  0  0  0  0
    8.8817    1.0251    1.1362 O   0  0  0  0  0  0  0  0  0  0  0  0
    8.8776    1.0142   -1.3971 O   0  0  0  0  0  0  0  0  0  0  0  0
   -1.6292    0.2592    0.1984 C   0  0  0  0  0  0  0  0  0  0  0  0
   -0.3579   -0.5941    0.1360 C   0  0  0  0  0  0  0  0  0  0  0  0
   -2.9497   -0.5001    0.0351 C   0  0  0  0  0  0  0  0  0  0  0  0
    0.9294    0.2301    0.2163 C   0  0  0  0  0  0  0  0  0  0  0  0
   -4.1867    0.3930    0.1615 C   0  0  0  0  0  0  0  0  0  0  0  0
    2.1997   -0.6192    0.0953 C   0  0  0  0  0  0  0  0  0  0  0  0
   -5.4726   -0.4182   -0.0192 C   0  0  0  0  0  0  0  0  0  0  0  0
    3.4868    0.2032    0.2018 C   0  0  0  0  0  0  0  0  0  0  0  0
   -6.7472    0.4273    0.0755 C   0  0  0  0  0  0  0  0  0  0  0  0
    4.7569   -0.6357    0.0216 C   0  0  0  0  0  0  0  0  0  0  0  0
   -8.0314   -0.3909   -0.0843 C   0  0  0  0  0  0  0  0  0  0  0  0
    6.0413    0.1983    0.0508 C   0  0  0  0  0  0  0  0  0  0  0  0
   -9.3029    0.4640   -0.0612 C   0  0  0  0  0  0  0  0  0  0  0  0
    7.2977   -0.6451   -0.1230 C   0  0  0  0  0  0  0  0  0  0  0  0
  -10.5864   -0.3458   -0.2495 C   0  0  0  0  0  0  0  0  0  0  0  0
  -11.8199    0.5385   -0.1430 C   0  0  0  0  0  0  0  0  0  0  0  0
   -1.5749    1.0302   -0.5808 H   0  0  0  0  0  0  0  0  0  0  0  0
   -1.6440    0.7913    1.1581 H   0  0  0  0  0  0  0  0  0  0  0  0
   -0.3746   -1.3257    0.9528 H   0  0  0  0  0  0  0  0  0  0  0  0
   -0.3600   -1.1650   -0.8007 H   0  0  0  0  0  0  0  0  0  0  0  0
   -2.9982   -1.2933    0.7913 H   0  0  0  0  0  0  0  0  0  0  0  0
   -2.9553   -0.9955   -0.9437 H   0  0  0  0  0  0  0  0  0  0  0  0
    0.9480    0.7752    1.1680 H   0  0  0  0  0  0  0  0  0  0  0  0
    0.9266    0.9838   -0.5808 H   0  0  0  0  0  0  0  0  0  0  0  0
   -4.1928    0.8783    1.1448 H   0  0  0  0  0  0  0  0  0  0  0  0
   -4.1444    1.1877   -0.5927 H   0  0  0  0  0  0  0  0  0  0  0  0
    2.1864   -1.1470   -0.8662 H   0  0  0  0  0  0  0  0  0  0  0  0
    2.1980   -1.3869    0.8788 H   0  0  0  0  0  0  0  0  0  0  0  0
   -5.4500   -0.9197   -0.9948 H   0  0  0  0  0  0  0  0  0  0  0  0
   -5.5107   -1.2078    0.7415 H   0  0  0  0  0  0  0  0  0  0  0  0
    3.4696    0.9932   -0.5592 H   0  0  0  0  0  0  0  0  0  0  0  0
    3.5188    0.7034    1.1775 H   0  0  0  0  0  0  0  0  0  0  0  0
   -6.7166    1.2053   -0.6973 H   0  0  0  0  0  0  0  0  0  0  0  0
   -6.7680    0.9429    1.0434 H   0  0  0  0  0  0  0  0  0  0  0  0
    4.7013   -1.1719   -0.9339 H   0  0  0  0  0  0  0  0  0  0  0  0
    4.7996   -1.3964    0.8106 H   0  0  0  0  0  0  0  0  0  0  0  0
   -7.9904   -0.9417   -1.0321 H   0  0  0  0  0  0  0  0  0  0  0  0
   -8.0841   -1.1399    0.7153 H   0  0  0  0  0  0  0  0  0  0  0  0
    6.0949    0.7459    0.9998 H   0  0  0  0  0  0  0  0  0  0  0  0
    5.9986    0.9563   -0.7410 H   0  0  0  0  0  0  0  0  0  0  0  0
   -9.2391    1.2253   -0.8486 H   0  0  0  0  0  0  0  0  0  0  0  0
   -9.3498    1.0014    0.8943 H   0  0  0  0  0  0  0  0  0  0  0  0
    7.2651   -1.1995   -1.0665 H   0  0  0  0  0  0  0  0  0  0  0  0
    7.3799   -1.3617    0.7011 H   0  0  0  0  0  0  0  0  0  0  0  0
  -10.5740   -0.8383   -1.2285 H   0  0  0  0  0  0  0  0  0  0  0  0
  -10.6427   -1.1337    0.5105 H   0  0  0  0  0  0  0  0  0  0  0  0
  -11.8764    1.0170    0.8399 H   0  0  0  0  0  0  0  0  0  0  0  0
  -12.7266   -0.0582   -0.2829 H   0  0  0  0  0  0  0  0  0  0  0  0
  -11.8074    1.3223   -0.9071 H   0  0  0  0  0  0  0  0  0  0  0  0
    9.8846   -1.4413   -0.9607 H   0  0  0  0  0  0  0  0  0  0  0  0
  1  2  1  0  0  0  0
  1  3  2  0  0  0  0
  1  4  2  0  0  0  0
  1 18  1  0  0  0  0
  2 54  1  0  0  0  0
  5  6  1  0  0  0  0
  5  7  1  0  0  0  0
  5 21  1  0  0  0  0
  5 22  1  0  0  0  0
  6  8  1  0  0  0  0
  6 23  1  0  0  0  0
  6 24  1  0  0  0  0
  7  9  1  0  0  0  0
  7 25  1  0  0  0  0
  7 26  1  0  0  0  0
  8 10  1  0  0  0  0
  8 27  1  0  0  0  0
  8 28  1  0  0  0  0
  9 11  1  0  0  0  0
  9 29  1  0  0  0  0
  9 30  1  0  0  0  0
 10 12  1  0  0  0  0
 10 31  1  0  0  0  0
 10 32  1  0  0  0  0
 11 13  1  0  0  0  0
 11 33  1  0  0  0  0
 11 34  1  0  0  0  0
 12 14  1  0  0  0  0
 12 35  1  0  0  0  0
 12 36  1  0  0  0  0
 13 15  1  0  0  0  0
 13 37  1  0  0  0  0
 13 38  1  0  0  0  0
 14 16  1  0  0  0  0
 14 39  1  0  0  0  0
 14 40  1  0  0  0  0
 15 17  1  0  0  0  0
 15 41  1  0  0  0  0
 15 42  1  0  0  0  0
 16 18  1  0  0  0  0
 16 43  1  0  0  0  0
 16 44  1  0  0  0  0
 17 19  1  0  0  0  0
 17 45  1  0  0  0  0
 17 46  1  0  0  0  0
 18 47  1  0  0  0  0
 18 48  1  0  0  0  0
 19 20  1  0  0  0  0
 19 49  1  0  0  0  0
 19 50  1  0  0  0  0
 20 51  1  0  0  0  0
 20 52  1  0  0  0  0
 20 53  1  0  0  0  0
M  END
> <PUBCHEM_COMPOUND_CID>
14253

> <PUBCHEM_CONFORMER_RMSD>
1.6

> <PUBCHEM_CONFORMER_DIVERSEORDER>
1
17
22
3
15
10
11
18
28
12
16
19
21
20
2
24
27
14
13
6
5
4
23
26
8
9
7
25

> <PUBCHEM_MMFF94_PARTIAL_CHARGES>
6
1 1.38
18 0.11
2 -0.68
3 -0.65
4 -0.65
54 0.5

> <PUBCHEM_EFFECTIVE_ROTOR_COUNT>
15

> <PUBCHEM_PHARMACOPHORE_FEATURES>
5
1 2 acceptor
1 20 hydrophobe
1 3 acceptor
1 4 acceptor
4 1 2 3 4 anion

> <PUBCHEM_HEAVY_ATOM_COUNT>
20

> <PUBCHEM_ATOM_DEF_STEREO_COUNT>
0

> <PUBCHEM_ATOM_UDEF_STEREO_COUNT>
0

> <PUBCHEM_BOND_DEF_STEREO_COUNT>
0

> <PUBCHEM_BOND_UDEF_STEREO_COUNT>
0

> <PUBCHEM_ISOTOPIC_ATOM_COUNT>
0

> <PUBCHEM_COMPONENT_COUNT>
1

> <PUBCHEM_CACTVS_TAUTO_COUNT>
1

> <PUBCHEM_CONFORMER_ID>
000037AD00000001

> <PUBCHEM_MMFF94_ENERGY>
-0.7817

> <PUBCHEM_FEATURE_SELFOVERLAP>
25.425

> <PUBCHEM_SHAPE_FINGERPRINT>
12498461 61 10735862982475705329
14251764 46 17095523998356679087
14251920 1 6916262936925282678
14344974 52 18260552182789978883
15061470 23 18202848760118407229
15510794 2 18334009493331779303
155225 1 17918272031320436596
20812841 46 15913327971397207076
21362267 2 17916877815289128285
21362267 313 17559968781859332280
22224240 67 15697999622507830738
232437 2 7060377024814407581
23521765 1 18335138695867408210
23581129 1 18411982463841605987
246663 6 6050445916203810082
33684 2 18410575088963327467
67123 10 18259704497620972955
8209 1 18407478864372562571

> <PUBCHEM_SHAPE_MULTIPOLES>
397.83
47.62
0.89
0.74
31.46
0.01
0.05
5.59
4.78
-0.79
0.01
-1
0.12
-0.07

> <PUBCHEM_SHAPE_SELFOVERLAP>
712.564

> <PUBCHEM_SHAPE_VOLUME>
255.8

> <PUBCHEM_COORDINATE_TYPE>
2
5
10

$$$$

