11887
  -OEChem-06261206143D

 23 23  0     0  0  0  0  0  0999 V2000
    2.2526   -0.7516   -0.4858 O   0  0  0  0  0  0  0  0  0  0  0  0
    0.6503    2.9521    0.1034 O   0  5  0  0  0  0  0  0  0  0  0  0
    2.4212    1.6972   -0.2250 O   0  0  0  0  0  0  0  0  0  0  0  0
   -3.9761   -1.1863    0.1158 O   0  5  0  0  0  0  0  0  0  0  0  0
   -3.7289    0.9836    0.3384 O   0  0  0  0  0  0  0  0  0  0  0  0
    1.1832    1.8323   -0.0802 N   0  3  0  0  0  0  0  0  0  0  0  0
   -3.2518   -0.1626    0.1570 N   0  3  0  0  0  0  0  0  0  0  0  0
    0.9084   -0.5882   -0.3276 C   0  0  0  0  0  0  0  0  0  0  0  0
    0.3558    0.6765   -0.1252 C   0  0  0  0  0  0  0  0  0  0  0  0
   -1.8484   -0.3059   -0.0064 C   0  0  0  0  0  0  0  0  0  0  0  0
   -1.0227    0.8176    0.0354 C   0  0  0  0  0  0  0  0  0  0  0  0
    0.0825   -1.7116   -0.3694 C   0  0  0  0  0  0  0  0  0  0  0  0
   -1.2958   -1.5705   -0.2088 C   0  0  0  0  0  0  0  0  0  0  0  0
    2.9202   -1.5791    0.4641 C   0  0  0  0  0  0  0  0  0  0  0  0
    4.3495   -1.1036    0.6141 C   0  0  0  0  0  0  0  0  0  0  0  0
   -1.4563    1.8024    0.1934 H   0  0  0  0  0  0  0  0  0  0  0  0
    0.4971   -2.7023   -0.5350 H   0  0  0  0  0  0  0  0  0  0  0  0
   -1.9083   -2.4676   -0.2491 H   0  0  0  0  0  0  0  0  0  0  0  0
    2.4223   -1.5391    1.4410 H   0  0  0  0  0  0  0  0  0  0  0  0
    2.9094   -2.6135    0.1038 H   0  0  0  0  0  0  0  0  0  0  0  0
    4.9004   -1.7382    1.3139 H   0  0  0  0  0  0  0  0  0  0  0  0
    4.8637   -1.1139   -0.3525 H   0  0  0  0  0  0  0  0  0  0  0  0
    4.3781   -0.0719    0.9795 H   0  0  0  0  0  0  0  0  0  0  0  0
  1  8  1  0  0  0  0
  1 14  1  0  0  0  0
  2  6  1  0  0  0  0
  3  6  2  0  0  0  0
  4  7  1  0  0  0  0
  5  7  2  0  0  0  0
  6  9  1  0  0  0  0
  7 10  1  0  0  0  0
  8  9  2  0  0  0  0
  8 12  1  0  0  0  0
  9 11  1  0  0  0  0
 10 11  2  0  0  0  0
 10 13  1  0  0  0  0
 11 16  1  0  0  0  0
 12 13  2  0  0  0  0
 12 17  1  0  0  0  0
 13 18  1  0  0  0  0
 14 15  1  0  0  0  0
 14 19  1  0  0  0  0
 14 20  1  0  0  0  0
 15 21  1  0  0  0  0
 15 22  1  0  0  0  0
 15 23  1  0  0  0  0
M  CHG  4   2  -1   4  -1   6   1   7   1
M  END
> <PUBCHEM_COMPOUND_CID>
11887

> <PUBCHEM_CONFORMER_RMSD>
0.6

> <PUBCHEM_CONFORMER_DIVERSEORDER>
1
3
2
5
4

> <PUBCHEM_MMFF94_PARTIAL_CHARGES>
17
1 -0.36
10 0.13
11 -0.15
12 -0.15
13 -0.15
14 0.28
16 0.15
17 0.15
18 0.15
2 -0.52
3 -0.52
4 -0.52
5 -0.52
6 0.91
7 0.91
8 0.08
9 0.13

> <PUBCHEM_EFFECTIVE_ROTOR_COUNT>
4

> <PUBCHEM_PHARMACOPHORE_FEATURES>
8
1 1 acceptor
1 2 acceptor
1 2 anion
1 3 acceptor
1 4 acceptor
1 4 anion
1 5 acceptor
6 8 9 10 11 12 13 rings

> <PUBCHEM_HEAVY_ATOM_COUNT>
15

> <PUBCHEM_ATOM_DEF_STEREO_COUNT>
0

> <PUBCHEM_ATOM_UDEF_STEREO_COUNT>
0

> <PUBCHEM_BOND_DEF_STEREO_COUNT>
0

> <PUBCHEM_BOND_UDEF_STEREO_COUNT>
0

> <PUBCHEM_ISOTOPIC_ATOM_COUNT>
0

> <PUBCHEM_COMPONENT_COUNT>
1

> <PUBCHEM_CACTVS_TAUTO_COUNT>
1

> <PUBCHEM_CONFORMER_ID>
00002E6F00000001

> <PUBCHEM_MMFF94_ENERGY>
53.754

> <PUBCHEM_FEATURE_SELFOVERLAP>
40.781

> <PUBCHEM_SHAPE_FINGERPRINT>
10130415 120 18343863342145752426
10465860 250 18272377520019010962
10967382 1 18337952268655194141
10980938 120 18337946796982962028
11132069 177 18263643025159260139
12032990 46 18337667632794024462
12251169 10 18409169900244923890
124424 183 18130791204502796735
12644460 14 18270668771432801088
13140716 1 18409444752677288131
13380535 76 18193556662286031655
13922767 16 18408888468481272961
14325111 11 18409726223569819901
15375462 189 18060142093392138034
15442244 35 18409729547505345779
15536298 74 18261674779518778656
16945 1 18335972164383661783
193761 8 18049724014265182670
20388701 513 18193560197260205686
20510252 161 18118408577691685410
20511035 2 18042411218379281990
20645477 70 18410013204906120575
20671657 1 18266455412757774492
20871998 184 18117287071478500686
20871998 22 18262793107261479382
21029758 27 18342733039965782390
21501502 16 18265053526868786327
21501925 9 18408891723866257195
22959321 4 18339078194917701731
2297311 6 18263639736243323462
2334 1 18265049124601030959
23402539 116 18188784957825725734
23463225 33 18411136943890024886
23532345 42 18408893957708102826
23552423 10 18051411768998067302
2748010 2 18337961189371158212
3286 77 18343584014916473063
5104073 3 18337381648766006283
53812654 25 18259989270884757726
7364860 26 18263927640041861896
81228 2 17906153393877633736

> <PUBCHEM_SHAPE_MULTIPOLES>
269.38
6.15
2.36
0.66
0.3
1.52
-0.01
-2.2
-1.4
-0.79
0.02
-0.17
-0.09
-0.35

> <PUBCHEM_SHAPE_SELFOVERLAP>
562.326

> <PUBCHEM_SHAPE_VOLUME>
153.5

> <PUBCHEM_COORDINATE_TYPE>
2
5
10

$$$$

