17396515
  -OEChem-06241222573D

 39 41  0     1  0  0  0  0  0999 V2000
   -3.2332    1.5992    0.7435 O   0  0  0  0  0  0  0  0  0  0  0  0
   -2.3635   -0.9163   -0.3570 O   0  0  0  0  0  0  0  0  0  0  0  0
   -0.2863   -1.6401    0.8539 O   0  0  0  0  0  0  0  0  0  0  0  0
    5.5229    1.9786   -1.2581 O   0  0  0  0  0  0  0  0  0  0  0  0
    0.9332    0.1202   -0.1248 N   0  0  0  0  0  0  0  0  0  0  0  0
    7.0195    0.4163   -0.4980 N   0  0  0  0  0  0  0  0  0  0  0  0
   -1.9854    0.9880    1.1079 C   0  0  1  0  0  0  0  0  0  0  0  0
   -1.4641    0.1561   -0.0591 C   0  0  1  0  0  0  0  0  0  0  0  0
   -1.0336    2.1185    1.4838 C   0  0  0  0  0  0  0  0  0  0  0  0
   -0.2003   -0.5638    0.2793 C   0  0  0  0  0  0  0  0  0  0  0  0
   -4.0864    0.7231    0.1284 C   0  0  0  0  0  0  0  0  0  0  0  0
   -3.6670   -0.4999   -0.3961 C   0  0  0  0  0  0  0  0  0  0  0  0
   -5.4247    1.1042    0.0280 C   0  0  0  0  0  0  0  0  0  0  0  0
   -4.5927   -1.3632   -0.9830 C   0  0  0  0  0  0  0  0  0  0  0  0
    2.2528   -0.3036    0.0540 C   0  0  0  0  0  0  0  0  0  0  0  0
   -6.3479    0.2468   -0.5709 C   0  0  0  0  0  0  0  0  0  0  0  0
   -5.9333   -0.9877   -1.0709 C   0  0  0  0  0  0  0  0  0  0  0  0
    3.3076    0.4859   -0.4038 C   0  0  0  0  0  0  0  0  0  0  0  0
    2.5148   -1.5169    0.6904 C   0  0  0  0  0  0  0  0  0  0  0  0
    4.6245    0.0619   -0.2255 C   0  0  0  0  0  0  0  0  0  0  0  0
    3.8318   -1.9408    0.8689 C   0  0  0  0  0  0  0  0  0  0  0  0
    4.8865   -1.1513    0.4109 C   0  0  0  0  0  0  0  0  0  0  0  0
    5.7247    0.8848   -0.7019 C   0  0  0  0  0  0  0  0  0  0  0  0
   -2.1639    0.3637    1.9942 H   0  0  0  0  0  0  0  0  0  0  0  0
   -1.3423    0.7567   -0.9703 H   0  0  0  0  0  0  0  0  0  0  0  0
   -0.0921    1.7423    1.8932 H   0  0  0  0  0  0  0  0  0  0  0  0
   -0.8161    2.7536    0.6180 H   0  0  0  0  0  0  0  0  0  0  0  0
   -1.4945    2.7668    2.2376 H   0  0  0  0  0  0  0  0  0  0  0  0
    0.8122    1.0148   -0.5939 H   0  0  0  0  0  0  0  0  0  0  0  0
   -5.7575    2.0605    0.4225 H   0  0  0  0  0  0  0  0  0  0  0  0
   -4.2765   -2.3229   -1.3826 H   0  0  0  0  0  0  0  0  0  0  0  0
   -6.6544   -1.6555   -1.5332 H   0  0  0  0  0  0  0  0  0  0  0  0
   -7.3914    0.5389   -0.6442 H   0  0  0  0  0  0  0  0  0  0  0  0
    3.0921    1.4303   -0.8987 H   0  0  0  0  0  0  0  0  0  0  0  0
    1.7635   -2.1900    1.0758 H   0  0  0  0  0  0  0  0  0  0  0  0
    4.0363   -2.8856    1.3647 H   0  0  0  0  0  0  0  0  0  0  0  0
    5.8818   -1.5423    0.5841 H   0  0  0  0  0  0  0  0  0  0  0  0
    7.2734   -0.4559   -0.0526 H   0  0  0  0  0  0  0  0  0  0  0  0
    7.8051    0.9756   -0.8153 H   0  0  0  0  0  0  0  0  0  0  0  0
  1  7  1  0  0  0  0
  1 11  1  0  0  0  0
  2  8  1  0  0  0  0
  2 12  1  0  0  0  0
  3 10  2  0  0  0  0
  4 23  2  0  0  0  0
  5 10  1  0  0  0  0
  5 15  1  0  0  0  0
  5 29  1  0  0  0  0
  6 23  1  0  0  0  0
  6 38  1  0  0  0  0
  6 39  1  0  0  0  0
  7  8  1  0  0  0  0
  7  9  1  0  0  0  0
  7 24  1  0  0  0  0
  8 10  1  0  0  0  0
  8 25  1  0  0  0  0
  9 26  1  0  0  0  0
  9 27  1  0  0  0  0
  9 28  1  0  0  0  0
 11 12  1  0  0  0  0
 11 13  2  0  0  0  0
 12 14  2  0  0  0  0
 13 16  1  0  0  0  0
 13 30  1  0  0  0  0
 14 17  1  0  0  0  0
 14 31  1  0  0  0  0
 15 18  1  0  0  0  0
 15 19  2  0  0  0  0
 16 17  2  0  0  0  0
 16 33  1  0  0  0  0
 17 32  1  0  0  0  0
 18 20  2  0  0  0  0
 18 34  1  0  0  0  0
 19 21  1  0  0  0  0
 19 35  1  0  0  0  0
 20 22  1  0  0  0  0
 20 23  1  0  0  0  0
 21 22  2  0  0  0  0
 21 36  1  0  0  0  0
 22 37  1  0  0  0  0
M  END
> <PUBCHEM_COMPOUND_CID>
17396515

> <PUBCHEM_CONFORMER_RMSD>
0.8

> <PUBCHEM_CONFORMER_DIVERSEORDER>
1
40
91
85
51
22
50
38
12
78
70
52
56
42
23
69
74
95
57
71
72
33
92
54
24
61
28
8
76
64
90
48
32
3
81
6
35
45
82
16
9
79
39
60
53
29
83
84
88
44
4
87
31
20
80
68
47
89
63
96
58
62
21
5
43
27
77
36
98
99
93
2
17
55
46
15
10
65
14
67
41
26
30
18
66
34
97
37
94
49
25
7
86
11
75
59
13
19
73

> <PUBCHEM_MMFF94_PARTIAL_CHARGES>
33
1 -0.36
10 0.57
11 0.08
12 0.08
13 -0.15
14 -0.15
15 0.12
16 -0.15
17 -0.15
18 -0.15
19 -0.15
2 -0.36
20 0.09
21 -0.15
22 -0.15
23 0.54
29 0.37
3 -0.57
30 0.15
31 0.15
32 0.15
33 0.15
34 0.15
35 0.15
36 0.15
37 0.15
38 0.37
39 0.37
4 -0.57
5 -0.55
6 -0.8
7 0.28
8 0.34

> <PUBCHEM_EFFECTIVE_ROTOR_COUNT>
4.8

> <PUBCHEM_PHARMACOPHORE_FEATURES>
9
1 1 acceptor
1 2 acceptor
1 3 acceptor
1 4 acceptor
1 5 donor
1 6 donor
6 1 2 7 8 11 12 rings
6 11 12 13 14 16 17 rings
6 15 18 19 20 21 22 rings

> <PUBCHEM_HEAVY_ATOM_COUNT>
23

> <PUBCHEM_ATOM_DEF_STEREO_COUNT>
0

> <PUBCHEM_ATOM_UDEF_STEREO_COUNT>
2

> <PUBCHEM_BOND_DEF_STEREO_COUNT>
0

> <PUBCHEM_BOND_UDEF_STEREO_COUNT>
0

> <PUBCHEM_ISOTOPIC_ATOM_COUNT>
0

> <PUBCHEM_COMPONENT_COUNT>
1

> <PUBCHEM_CACTVS_TAUTO_COUNT>
4

> <PUBCHEM_CONFORMER_ID>
0109732300000001

> <PUBCHEM_MMFF94_ENERGY>
78.7337

> <PUBCHEM_FEATURE_SELFOVERLAP>
45.729

> <PUBCHEM_SHAPE_FINGERPRINT>
10 15 13758067481194306534
10595046 47 18411703205221169775
10906281 52 18188195585855783571
10912923 1 18409449232027374178
10968037 39 18333732412401303439
11089746 13 18412541003718410036
11524674 6 14117799106895418161
11963148 33 17676216753399019431
12107183 9 17545321238262066746
12166972 35 18413388726508647028
12236239 1 18411983589476582391
12516196 113 17603590716159379713
12788726 201 18040995180472658299
13288520 33 17894352164505782013
13533116 47 18338521936475952634
13631057 29 18128816340012653859
13685833 64 5761654780969705156
14123256 10 18407760322011077037
1420 363 15719111353213923351
14350574 20 4751158510650542056
14528608 73 18411136922710581100
14767858 380 18409172086572934991
15183329 4 18342742922479834701
15348495 7 14045730487908458460
15461852 350 14189570802425117795
16993438 75 17987510403908772715
17834072 33 18410013243053949506
18222031 100 17095250202512494449
18335252 98 18059566963328326667
18681886 176 17968100785493573952
200 152 18410015450851840571
20157964 124 17988924487472134178
20511986 3 18341346542675564380
21033648 29 15626229052133208303
21033650 10 17898261005198672000
21049683 271 18339643344274433537
21065198 48 18337672026682237722
21150785 3 18343304739063173271
21267235 1 18113621137204345119
21365058 113 15430031029194690488
220451 1 18260266360953241963
2297311 6 17095239220312845113
2303208 19 15285358414039388671
23081809 10 18409172133970594883
23402539 116 18113908177783392719
23522609 53 18189029002379184625
23557571 272 16805594902183173537
23559900 14 18187092706493638905
29717793 49 18334292102527684582
300161 21 18202567280292535654
3004659 81 18333734606655123800
335352 9 18113625591280694493
34797466 226 16732702710485324392
4073 2 17703784795388039122
4325135 7 18409167714127299284
4340502 62 13758079610171478992
474 4 17988354893768678456
5385378 56 12822748210102254881
542803 24 18413109471866004166
5486654 2 18187367627614155639
7495541 125 17603597317355282939

> <PUBCHEM_SHAPE_MULTIPOLES>
439.89
16.95
1.83
1.08
4.89
0.2
0.07
1.22
-6.01
0.33
0.37
0.15
0.18
-2.33

> <PUBCHEM_SHAPE_SELFOVERLAP>
961.699

> <PUBCHEM_SHAPE_VOLUME>
236.5

> <PUBCHEM_COORDINATE_TYPE>
2
5
10

$$$$

