14267
  -OEChem-06241222422D

 20 20  0     0  0  0  0  0  0999 V2000
    2.5000   -1.0670    0.0000 N   0  0  0  0  0  0  0  0  0  0  0  0
    2.0000   -1.9330    0.0000 C   0  0  0  0  0  0  0  0  0  0  0  0
    3.0000   -1.9330    0.0000 C   0  0  0  0  0  0  0  0  0  0  0  0
    2.5000   -0.0670    0.0000 C   0  0  0  0  0  0  0  0  0  0  0  0
    3.3660    0.4330    0.0000 C   0  0  0  0  0  0  0  0  0  0  0  0
    3.3660    1.4330    0.0000 C   0  0  0  0  0  0  0  0  0  0  0  0
    4.2320    1.9330    0.0000 C   0  0  0  0  0  0  0  0  0  0  0  0
    3.1077   -2.5436    0.0000 H   0  0  0  0  0  0  0  0  0  0  0  0
    3.5826   -1.7210    0.0000 H   0  0  0  0  0  0  0  0  0  0  0  0
    1.4174   -1.7210    0.0000 H   0  0  0  0  0  0  0  0  0  0  0  0
    1.8923   -2.5436    0.0000 H   0  0  0  0  0  0  0  0  0  0  0  0
    2.2880    0.5156    0.0000 H   0  0  0  0  0  0  0  0  0  0  0  0
    1.8894   -0.1746    0.0000 H   0  0  0  0  0  0  0  0  0  0  0  0
    3.5781   -0.1496    0.0000 H   0  0  0  0  0  0  0  0  0  0  0  0
    3.9766    0.5407    0.0000 H   0  0  0  0  0  0  0  0  0  0  0  0
    3.1540    2.0156    0.0000 H   0  0  0  0  0  0  0  0  0  0  0  0
    2.7554    1.3254    0.0000 H   0  0  0  0  0  0  0  0  0  0  0  0
    4.5420    1.3961    0.0000 H   0  0  0  0  0  0  0  0  0  0  0  0
    4.7690    2.2430    0.0000 H   0  0  0  0  0  0  0  0  0  0  0  0
    3.9220    2.4700    0.0000 H   0  0  0  0  0  0  0  0  0  0  0  0
  1  2  1  0  0  0  0
  1  3  1  0  0  0  0
  1  4  1  0  0  0  0
  2  3  1  0  0  0  0
  2 10  1  0  0  0  0
  2 11  1  0  0  0  0
  3  8  1  0  0  0  0
  3  9  1  0  0  0  0
  4  5  1  0  0  0  0
  4 12  1  0  0  0  0
  4 13  1  0  0  0  0
  5  6  1  0  0  0  0
  5 14  1  0  0  0  0
  5 15  1  0  0  0  0
  6  7  1  0  0  0  0
  6 16  1  0  0  0  0
  6 17  1  0  0  0  0
  7 18  1  0  0  0  0
  7 19  1  0  0  0  0
  7 20  1  0  0  0  0
M  END
> <PUBCHEM_COMPOUND_CID>
14267

> <PUBCHEM_COMPOUND_CANONICALIZED>
1

> <PUBCHEM_CACTVS_COMPLEXITY>
48.1

> <PUBCHEM_CACTVS_HBOND_ACCEPTOR>
1

> <PUBCHEM_CACTVS_HBOND_DONOR>
0

> <PUBCHEM_CACTVS_ROTATABLE_BOND>
3

> <PUBCHEM_CACTVS_SUBSKEYS>
AAADccBiAAAAAAAAAAAAAAAAFgAAAAAAAAAAAAAAAAAAAAAAAAAAHAAAAAAACADBAAQCAAMAAAAAAAAAAAAAAAAAAAAAAAAIAAAAAAAAgAAEAAAAAACAAAAAAAAAAAAAAAAAAAAAAAAAAAAAAAAAAAAAAA==

> <PUBCHEM_IUPAC_OPENEYE_NAME>
1-butylaziridine

> <PUBCHEM_IUPAC_CAS_NAME>
1-butylaziridine

> <PUBCHEM_IUPAC_NAME>
1-butylaziridine

> <PUBCHEM_IUPAC_SYSTEMATIC_NAME>
1-butylaziridine

> <PUBCHEM_IUPAC_TRADITIONAL_NAME>
1-butylethylenimine

> <PUBCHEM_IUPAC_INCHI>
InChI=1S/C6H13N/c1-2-3-4-7-5-6-7/h2-6H2,1H3

> <PUBCHEM_IUPAC_INCHIKEY>
XIEJPTDTTYFCJM-UHFFFAOYSA-N

> <PUBCHEM_XLOGP3_AA>
1.3

> <PUBCHEM_EXACT_MASS>
99.104799

> <PUBCHEM_MOLECULAR_FORMULA>
C6H13N

> <PUBCHEM_MOLECULAR_WEIGHT>
99.17412

> <PUBCHEM_OPENEYE_CAN_SMILES>
CCCCN1CC1

> <PUBCHEM_OPENEYE_ISO_SMILES>
CCCCN1CC1

> <PUBCHEM_CACTVS_TPSA>
3

> <PUBCHEM_MONOISOTOPIC_WEIGHT>
99.104799

> <PUBCHEM_TOTAL_CHARGE>
0

> <PUBCHEM_HEAVY_ATOM_COUNT>
7

> <PUBCHEM_ATOM_DEF_STEREO_COUNT>
0

> <PUBCHEM_ATOM_UDEF_STEREO_COUNT>
0

> <PUBCHEM_BOND_DEF_STEREO_COUNT>
0

> <PUBCHEM_BOND_UDEF_STEREO_COUNT>
0

> <PUBCHEM_ISOTOPIC_ATOM_COUNT>
0

> <PUBCHEM_COMPONENT_COUNT>
1

> <PUBCHEM_CACTVS_TAUTO_COUNT>
1

> <PUBCHEM_COORDINATE_TYPE>
1
5
255

$$$$

