12798
  -OEChem-06261207232D

 25 25  0     0  0  0  0  0  0999 V2000
    4.5981   -0.8660    0.0000 O   0  0  0  0  0  0  0  0  0  0  0  0
    2.0000    0.6340    0.0000 O   0  0  0  0  0  0  0  0  0  0  0  0
    3.7320   -2.3660    0.0000 O   0  0  0  0  0  0  0  0  0  0  0  0
    2.8660   -0.8660    0.0000 N   0  0  0  0  0  0  0  0  0  0  0  0
    3.7320    0.6340    0.0000 C   0  0  0  0  0  0  0  0  0  0  0  0
    4.2320    1.5000    0.0000 C   0  0  0  0  0  0  0  0  0  0  0  0
    3.2320    1.5000    0.0000 C   0  0  0  0  0  0  0  0  0  0  0  0
    4.5981    0.1340    0.0000 C   0  0  0  0  0  0  0  0  0  0  0  0
    2.8660    0.1340    0.0000 C   0  0  0  0  0  0  0  0  0  0  0  0
    5.2320    1.5000    0.0000 C   0  0  0  0  0  0  0  0  0  0  0  0
    3.7320    2.3660    0.0000 C   0  0  0  0  0  0  0  0  0  0  0  0
    3.7320   -1.3660    0.0000 C   0  0  0  0  0  0  0  0  0  0  0  0
    4.3397    2.1106    0.0000 H   0  0  0  0  0  0  0  0  0  0  0  0
    3.6494    1.7120    0.0000 H   0  0  0  0  0  0  0  0  0  0  0  0
    2.7571    1.8985    0.0000 H   0  0  0  0  0  0  0  0  0  0  0  0
    2.7571    1.1015    0.0000 H   0  0  0  0  0  0  0  0  0  0  0  0
    5.2087    0.0263    0.0000 H   0  0  0  0  0  0  0  0  0  0  0  0
    4.8101    0.7166    0.0000 H   0  0  0  0  0  0  0  0  0  0  0  0
    5.2320    0.8800    0.0000 H   0  0  0  0  0  0  0  0  0  0  0  0
    5.8520    1.5000    0.0000 H   0  0  0  0  0  0  0  0  0  0  0  0
    5.2320    2.1200    0.0000 H   0  0  0  0  0  0  0  0  0  0  0  0
    4.2690    2.0560    0.0000 H   0  0  0  0  0  0  0  0  0  0  0  0
    4.0420    2.9030    0.0000 H   0  0  0  0  0  0  0  0  0  0  0  0
    3.1951    2.6760    0.0000 H   0  0  0  0  0  0  0  0  0  0  0  0
    2.3291   -1.1760    0.0000 H   0  0  0  0  0  0  0  0  0  0  0  0
  1  8  1  0  0  0  0
  1 12  1  0  0  0  0
  2  9  2  0  0  0  0
  3 12  2  0  0  0  0
  4  9  1  0  0  0  0
  4 12  1  0  0  0  0
  4 25  1  0  0  0  0
  5  6  1  0  0  0  0
  5  7  1  0  0  0  0
  5  8  1  0  0  0  0
  5  9  1  0  0  0  0
  6 10  1  0  0  0  0
  6 13  1  0  0  0  0
  6 14  1  0  0  0  0
  7 11  1  0  0  0  0
  7 15  1  0  0  0  0
  7 16  1  0  0  0  0
  8 17  1  0  0  0  0
  8 18  1  0  0  0  0
 10 19  1  0  0  0  0
 10 20  1  0  0  0  0
 10 21  1  0  0  0  0
 11 22  1  0  0  0  0
 11 23  1  0  0  0  0
 11 24  1  0  0  0  0
M  END
> <PUBCHEM_COMPOUND_CID>
12798

> <PUBCHEM_COMPOUND_CANONICALIZED>
1

> <PUBCHEM_CACTVS_COMPLEXITY>
208

> <PUBCHEM_CACTVS_HBOND_ACCEPTOR>
3

> <PUBCHEM_CACTVS_HBOND_DONOR>
1

> <PUBCHEM_CACTVS_ROTATABLE_BOND>
2

> <PUBCHEM_CACTVS_SUBSKEYS>
AAADccByMAAAAAAAAAAAAAAAAAAAAAAAAAAsAAAAAAAAAAAAAAAAHgAQAAAADgChgAICCALABAAIAAEQGAAAAAAAAAAAAAEAAAEAABYAgAAMAAAGJCAAAAAAAAALAAAAAAAAAAAAAAAAAAAAAAAAAAAAAA==

> <PUBCHEM_IUPAC_OPENEYE_NAME>
5,5-diethyl-1,3-oxazinane-2,4-dione

> <PUBCHEM_IUPAC_CAS_NAME>
5,5-diethyl-1,3-oxazinane-2,4-dione

> <PUBCHEM_IUPAC_NAME>
5,5-diethyl-1,3-oxazinane-2,4-dione

> <PUBCHEM_IUPAC_SYSTEMATIC_NAME>
5,5-diethyl-1,3-oxazinane-2,4-dione

> <PUBCHEM_IUPAC_TRADITIONAL_NAME>
5,5-diethyl-1,3-oxazinane-2,4-quinone

> <PUBCHEM_IUPAC_INCHI>
InChI=1S/C8H13NO3/c1-3-8(4-2)5-12-7(11)9-6(8)10/h3-5H2,1-2H3,(H,9,10,11)

> <PUBCHEM_IUPAC_INCHIKEY>
ORTYMGHCFWKXHO-UHFFFAOYSA-N

> <PUBCHEM_XLOGP3_AA>
1.1

> <PUBCHEM_EXACT_MASS>
171.089543

> <PUBCHEM_MOLECULAR_FORMULA>
C8H13NO3

> <PUBCHEM_MOLECULAR_WEIGHT>
171.19372

> <PUBCHEM_OPENEYE_CAN_SMILES>
CCC1(COC(=O)NC1=O)CC

> <PUBCHEM_OPENEYE_ISO_SMILES>
CCC1(COC(=O)NC1=O)CC

> <PUBCHEM_CACTVS_TPSA>
55.4

> <PUBCHEM_MONOISOTOPIC_WEIGHT>
171.089543

> <PUBCHEM_TOTAL_CHARGE>
0

> <PUBCHEM_HEAVY_ATOM_COUNT>
12

> <PUBCHEM_ATOM_DEF_STEREO_COUNT>
0

> <PUBCHEM_ATOM_UDEF_STEREO_COUNT>
0

> <PUBCHEM_BOND_DEF_STEREO_COUNT>
0

> <PUBCHEM_BOND_UDEF_STEREO_COUNT>
0

> <PUBCHEM_ISOTOPIC_ATOM_COUNT>
0

> <PUBCHEM_COMPONENT_COUNT>
1

> <PUBCHEM_CACTVS_TAUTO_COUNT>
3

> <PUBCHEM_COORDINATE_TYPE>
1
5
255

$$$$

