17395405
  -OEChem-06241222502D

 44 45  0     0  0  0  0  0  0999 V2000
    3.0000   -2.1636    0.0000 S   0  0  0  0  0  0  0  0  0  0  0  0
    3.8660    3.3364    0.0000 S   0  0  0  0  0  0  0  0  0  0  0  0
    3.8090   -3.7514    0.0000 S   0  0  0  0  0  0  0  0  0  0  0  0
    2.0000   -2.1636    0.0000 O   0  0  0  0  0  0  0  0  0  0  0  0
    4.0000   -2.1636    0.0000 O   0  0  0  0  0  0  0  0  0  0  0  0
    2.1340    2.3364    0.0000 O   0  0  0  0  0  0  0  0  0  0  0  0
    3.0000   -1.1636    0.0000 N   0  0  0  0  0  0  0  0  0  0  0  0
    3.0000    0.8364    0.0000 N   0  0  0  0  0  0  0  0  0  0  0  0
    2.1340   -0.6636    0.0000 C   0  0  0  0  0  0  0  0  0  0  0  0
    3.8660   -0.6636    0.0000 C   0  0  0  0  0  0  0  0  0  0  0  0
    2.1340    0.3364    0.0000 C   0  0  0  0  0  0  0  0  0  0  0  0
    3.8660    0.3364    0.0000 C   0  0  0  0  0  0  0  0  0  0  0  0
    3.0000    1.8364    0.0000 C   0  0  0  0  0  0  0  0  0  0  0  0
    3.8660    2.3364    0.0000 C   0  0  0  0  0  0  0  0  0  0  0  0
    4.7320    3.8364    0.0000 C   0  0  0  0  0  0  0  0  0  0  0  0
    3.0000   -3.1636    0.0000 C   0  0  0  0  0  0  0  0  0  0  0  0
    5.5981    4.3364    0.0000 C   0  0  0  0  0  0  0  0  0  0  0  0
    4.2320    4.7024    0.0000 C   0  0  0  0  0  0  0  0  0  0  0  0
    5.2320    2.9704    0.0000 C   0  0  0  0  0  0  0  0  0  0  0  0
    2.1910   -3.7514    0.0000 C   0  0  0  0  0  0  0  0  0  0  0  0
    2.5000   -4.7024    0.0000 C   0  0  0  0  0  0  0  0  0  0  0  0
    3.5000   -4.7024    0.0000 C   0  0  0  0  0  0  0  0  0  0  0  0
    4.0781   -1.2462    0.0000 H   0  0  0  0  0  0  0  0  0  0  0  0
    4.4766   -0.5559    0.0000 H   0  0  0  0  0  0  0  0  0  0  0  0
    1.5234   -0.5559    0.0000 H   0  0  0  0  0  0  0  0  0  0  0  0
    1.9219   -1.2462    0.0000 H   0  0  0  0  0  0  0  0  0  0  0  0
    4.4766    0.2287    0.0000 H   0  0  0  0  0  0  0  0  0  0  0  0
    4.0781    0.9190    0.0000 H   0  0  0  0  0  0  0  0  0  0  0  0
    1.9219    0.9190    0.0000 H   0  0  0  0  0  0  0  0  0  0  0  0
    1.5234    0.2287    0.0000 H   0  0  0  0  0  0  0  0  0  0  0  0
    4.0781    1.7538    0.0000 H   0  0  0  0  0  0  0  0  0  0  0  0
    4.4766    2.4441    0.0000 H   0  0  0  0  0  0  0  0  0  0  0  0
    4.6951    2.6604    0.0000 H   0  0  0  0  0  0  0  0  0  0  0  0
    5.5420    2.4334    0.0000 H   0  0  0  0  0  0  0  0  0  0  0  0
    5.9081    3.7995    0.0000 H   0  0  0  0  0  0  0  0  0  0  0  0
    6.1350    4.6464    0.0000 H   0  0  0  0  0  0  0  0  0  0  0  0
    5.2881    4.8733    0.0000 H   0  0  0  0  0  0  0  0  0  0  0  0
    4.7690    5.0124    0.0000 H   0  0  0  0  0  0  0  0  0  0  0  0
    3.9220    5.2394    0.0000 H   0  0  0  0  0  0  0  0  0  0  0  0
    3.6951    4.3924    0.0000 H   0  0  0  0  0  0  0  0  0  0  0  0
    5.7690    3.2804    0.0000 H   0  0  0  0  0  0  0  0  0  0  0  0
    1.6013   -3.5598    0.0000 H   0  0  0  0  0  0  0  0  0  0  0  0
    2.1356   -5.2040    0.0000 H   0  0  0  0  0  0  0  0  0  0  0  0
    3.8644   -5.2040    0.0000 H   0  0  0  0  0  0  0  0  0  0  0  0
  1  4  2  0  0  0  0
  1  5  2  0  0  0  0
  1  7  1  0  0  0  0
  1 16  1  0  0  0  0
  2 14  1  0  0  0  0
  2 15  1  0  0  0  0
  3 16  1  0  0  0  0
  3 22  1  0  0  0  0
  6 13  2  0  0  0  0
  7  9  1  0  0  0  0
  7 10  1  0  0  0  0
  8 11  1  0  0  0  0
  8 12  1  0  0  0  0
  8 13  1  0  0  0  0
  9 11  1  0  0  0  0
  9 25  1  0  0  0  0
  9 26  1  0  0  0  0
 10 12  1  0  0  0  0
 10 23  1  0  0  0  0
 10 24  1  0  0  0  0
 11 29  1  0  0  0  0
 11 30  1  0  0  0  0
 12 27  1  0  0  0  0
 12 28  1  0  0  0  0
 13 14  1  0  0  0  0
 14 31  1  0  0  0  0
 14 32  1  0  0  0  0
 15 17  1  0  0  0  0
 15 18  1  0  0  0  0
 15 19  1  0  0  0  0
 16 20  2  0  0  0  0
 17 35  1  0  0  0  0
 17 36  1  0  0  0  0
 17 37  1  0  0  0  0
 18 38  1  0  0  0  0
 18 39  1  0  0  0  0
 18 40  1  0  0  0  0
 19 33  1  0  0  0  0
 19 34  1  0  0  0  0
 19 41  1  0  0  0  0
 20 21  1  0  0  0  0
 20 42  1  0  0  0  0
 21 22  2  0  0  0  0
 21 43  1  0  0  0  0
 22 44  1  0  0  0  0
M  END
> <PUBCHEM_COMPOUND_CID>
17395405

> <PUBCHEM_COMPOUND_CANONICALIZED>
1

> <PUBCHEM_CACTVS_COMPLEXITY>
488

> <PUBCHEM_CACTVS_HBOND_ACCEPTOR>
6

> <PUBCHEM_CACTVS_HBOND_DONOR>
0

> <PUBCHEM_CACTVS_ROTATABLE_BOND>
5

> <PUBCHEM_CACTVS_SUBSKEYS>
AAADceBzMABgAAAAAAAAAAAAAAAAASAAAAAsAAAAAAAAAAABgAAAHgQAQAAADADF0ASyAYMAAAqMACFSEHBDAZAgCBBIiBgIAIgIYAAgAQAQAAAABgCgAAAAAAAAAAAAAAAAAAAAAAAAAAAAAAAAAAAAAA==

> <PUBCHEM_IUPAC_OPENEYE_NAME>
2-tert-butylsulfanyl-1-[4-(2-thienylsulfonyl)piperazin-1-yl]ethanone

> <PUBCHEM_IUPAC_CAS_NAME>
2-(tert-butylthio)-1-(4-thiophen-2-ylsulfonyl-1-piperazinyl)ethanone

> <PUBCHEM_IUPAC_NAME>
2-tert-butylsulfanyl-1-(4-thiophen-2-ylsulfonylpiperazin-1-yl)ethanone

> <PUBCHEM_IUPAC_SYSTEMATIC_NAME>
2-tert-butylsulfanyl-1-(4-thiophen-2-ylsulfonylpiperazin-1-yl)ethanone

> <PUBCHEM_IUPAC_TRADITIONAL_NAME>
2-(tert-butylthio)-1-[4-(2-thienylsulfonyl)piperazino]ethanone

> <PUBCHEM_IUPAC_INCHI>
InChI=1S/C14H22N2O3S3/c1-14(2,3)21-11-12(17)15-6-8-16(9-7-15)22(18,19)13-5-4-10-20-13/h4-5,10H,6-9,11H2,1-3H3

> <PUBCHEM_IUPAC_INCHIKEY>
RKFLKJQKLRCCKQ-UHFFFAOYSA-N

> <PUBCHEM_XLOGP3_AA>
2

> <PUBCHEM_EXACT_MASS>
362.079256

> <PUBCHEM_MOLECULAR_FORMULA>
C14H22N2O3S3

> <PUBCHEM_MOLECULAR_WEIGHT>
362.53108

> <PUBCHEM_OPENEYE_CAN_SMILES>
CC(C)(C)SCC(=O)N1CCN(CC1)S(=O)(=O)C2=CC=CS2

> <PUBCHEM_OPENEYE_ISO_SMILES>
CC(C)(C)SCC(=O)N1CCN(CC1)S(=O)(=O)C2=CC=CS2

> <PUBCHEM_CACTVS_TPSA>
120

> <PUBCHEM_MONOISOTOPIC_WEIGHT>
362.079256

> <PUBCHEM_TOTAL_CHARGE>
0

> <PUBCHEM_HEAVY_ATOM_COUNT>
22

> <PUBCHEM_ATOM_DEF_STEREO_COUNT>
0

> <PUBCHEM_ATOM_UDEF_STEREO_COUNT>
0

> <PUBCHEM_BOND_DEF_STEREO_COUNT>
0

> <PUBCHEM_BOND_UDEF_STEREO_COUNT>
0

> <PUBCHEM_ISOTOPIC_ATOM_COUNT>
0

> <PUBCHEM_COMPONENT_COUNT>
1

> <PUBCHEM_CACTVS_TAUTO_COUNT>
1

> <PUBCHEM_COORDINATE_TYPE>
1
5
255

> <PUBCHEM_BONDANNOTATIONS>
16  20  8
20  21  8
21  22  8
3  16  8
3  22  8

$$$$

