47205569
  -OEChem-06241222593D

 38 40  0     0  0  0  0  0  0999 V2000
    5.0569    0.2898    0.3210 S   0  0  0  0  0  0  0  0  0  0  0  0
   -5.8714   -0.0911   -0.1800 S   0  0  0  0  0  0  0  0  0  0  0  0
    6.2534   -0.5245    0.2418 O   0  0  0  0  0  0  0  0  0  0  0  0
    5.0866    1.6050    0.9303 O   0  0  0  0  0  0  0  0  0  0  0  0
    0.3022   -1.9552   -0.6072 O   0  0  0  0  0  0  0  0  0  0  0  0
    2.0640   -0.0146   -0.5531 N   0  0  0  0  0  0  0  0  0  0  0  0
   -1.4324   -0.6006    0.1472 N   0  0  0  0  0  0  0  0  0  0  0  0
    2.4059   -0.0753    0.8784 C   0  0  0  0  0  0  0  0  0  0  0  0
    2.9375    0.9170   -1.2872 C   0  0  0  0  0  0  0  0  0  0  0  0
    3.7895   -0.6686    1.1160 C   0  0  0  0  0  0  0  0  0  0  0  0
    4.3865    0.4457   -1.3170 C   0  0  0  0  0  0  0  0  0  0  0  0
    0.6634    0.3852   -0.7137 C   0  0  0  0  0  0  0  0  0  0  0  0
   -2.2403   -1.7448    0.6092 C   0  0  0  0  0  0  0  0  0  0  0  0
   -0.1633   -0.8340   -0.3886 C   0  0  0  0  0  0  0  0  0  0  0  0
   -1.9868    0.7472    0.4079 C   0  0  0  0  0  0  0  0  0  0  0  0
   -3.6194   -1.7594   -0.0605 C   0  0  0  0  0  0  0  0  0  0  0  0
   -3.4716    0.7598    0.2121 C   0  0  0  0  0  0  0  0  0  0  0  0
   -4.2094   -0.3900    0.0098 C   0  0  0  0  0  0  0  0  0  0  0  0
   -4.3128    1.9140    0.2179 C   0  0  0  0  0  0  0  0  0  0  0  0
   -5.6387    1.5945    0.0157 C   0  0  0  0  0  0  0  0  0  0  0  0
    1.6938   -0.7080    1.4213 H   0  0  0  0  0  0  0  0  0  0  0  0
    2.3477    0.9239    1.3304 H   0  0  0  0  0  0  0  0  0  0  0  0
    2.6022    0.9904   -2.3293 H   0  0  0  0  0  0  0  0  0  0  0  0
    2.8746    1.9250   -0.8570 H   0  0  0  0  0  0  0  0  0  0  0  0
    4.4727   -0.5325   -1.8022 H   0  0  0  0  0  0  0  0  0  0  0  0
    5.0164    1.1575   -1.8594 H   0  0  0  0  0  0  0  0  0  0  0  0
    4.0244   -0.6932    2.1846 H   0  0  0  0  0  0  0  0  0  0  0  0
    3.8530   -1.6892    0.7239 H   0  0  0  0  0  0  0  0  0  0  0  0
    0.4301    0.6470   -1.7527 H   0  0  0  0  0  0  0  0  0  0  0  0
    0.4514    1.2463   -0.0759 H   0  0  0  0  0  0  0  0  0  0  0  0
   -2.3401   -1.6435    1.6974 H   0  0  0  0  0  0  0  0  0  0  0  0
   -1.7267   -2.6922    0.4172 H   0  0  0  0  0  0  0  0  0  0  0  0
   -1.5492    1.4841   -0.2698 H   0  0  0  0  0  0  0  0  0  0  0  0
   -1.7330    1.0132    1.4397 H   0  0  0  0  0  0  0  0  0  0  0  0
   -4.2600   -2.5006    0.4296 H   0  0  0  0  0  0  0  0  0  0  0  0
   -3.5137   -2.0459   -1.1140 H   0  0  0  0  0  0  0  0  0  0  0  0
   -3.9642    2.9286    0.3628 H   0  0  0  0  0  0  0  0  0  0  0  0
   -6.4809    2.2706   -0.0267 H   0  0  0  0  0  0  0  0  0  0  0  0
  1  3  2  0  0  0  0
  1  4  2  0  0  0  0
  1 10  1  0  0  0  0
  1 11  1  0  0  0  0
  2 18  1  0  0  0  0
  2 20  1  0  0  0  0
  5 14  2  0  0  0  0
  6  8  1  0  0  0  0
  6  9  1  0  0  0  0
  6 12  1  0  0  0  0
  7 13  1  0  0  0  0
  7 14  1  0  0  0  0
  7 15  1  0  0  0  0
  8 10  1  0  0  0  0
  8 21  1  0  0  0  0
  8 22  1  0  0  0  0
  9 11  1  0  0  0  0
  9 23  1  0  0  0  0
  9 24  1  0  0  0  0
 10 27  1  0  0  0  0
 10 28  1  0  0  0  0
 11 25  1  0  0  0  0
 11 26  1  0  0  0  0
 12 14  1  0  0  0  0
 12 29  1  0  0  0  0
 12 30  1  0  0  0  0
 13 16  1  0  0  0  0
 13 31  1  0  0  0  0
 13 32  1  0  0  0  0
 15 17  1  0  0  0  0
 15 33  1  0  0  0  0
 15 34  1  0  0  0  0
 16 18  1  0  0  0  0
 16 35  1  0  0  0  0
 16 36  1  0  0  0  0
 17 18  2  0  0  0  0
 17 19  1  0  0  0  0
 19 20  2  0  0  0  0
 19 37  1  0  0  0  0
 20 38  1  0  0  0  0
M  END
> <PUBCHEM_COMPOUND_CID>
47205569

> <PUBCHEM_CONFORMER_RMSD>
0.6

> <PUBCHEM_CONFORMER_DIVERSEORDER>
1
124
38
139
98
73
122
15
109
40
112
118
20
136
99
13
155
154
158
11
6
60
146
160
142
104
30
141
119
88
129
120
74
29
102
23
80
110
108
153
87
125
126
135
33
117
107
134
57
14
55
53
5
91
115
159
103
31
17
105
75
121
113
111
77
157
145
66
36
27
131
50
123
39
106
61
114
149
143
89
152
130
127
3
2
4
133
138
82
92
26
42
34
94
96
144
101
47
32
90
16
46
76
35
78
148
85
69
72
18
156
63
68
71
79
81
97
56
150
54
52
93
95
151
58
137
49
12
41
116
37
24
128
140
21
10
132
44
67
22
86
43
9
48
25
83
70
64
100
45
19
7
147
51
65
62
59
84
8
28

> <PUBCHEM_MMFF94_PARTIAL_CHARGES>
22
1 1.09
10 0.11
11 0.11
12 0.33
13 0.3
14 0.57
15 0.48
16 0.18
17 -0.18
18 -0.14
19 -0.15
2 -0.08
20 -0.11
3 -0.65
37 0.15
38 0.15
4 -0.65
5 -0.57
6 -0.81
7 -0.66
8 0.27
9 0.27

> <PUBCHEM_EFFECTIVE_ROTOR_COUNT>
4.8

> <PUBCHEM_PHARMACOPHORE_FEATURES>
7
1 3 acceptor
1 4 acceptor
1 5 acceptor
1 6 cation
5 2 17 18 19 20 rings
6 1 6 8 9 10 11 rings
6 7 13 15 16 17 18 rings

> <PUBCHEM_HEAVY_ATOM_COUNT>
20

> <PUBCHEM_ATOM_DEF_STEREO_COUNT>
0

> <PUBCHEM_ATOM_UDEF_STEREO_COUNT>
0

> <PUBCHEM_BOND_DEF_STEREO_COUNT>
0

> <PUBCHEM_BOND_UDEF_STEREO_COUNT>
0

> <PUBCHEM_ISOTOPIC_ATOM_COUNT>
0

> <PUBCHEM_COMPONENT_COUNT>
1

> <PUBCHEM_CACTVS_TAUTO_COUNT>
1

> <PUBCHEM_CONFORMER_ID>
02D04CC100000001

> <PUBCHEM_MMFF94_ENERGY>
34.721

> <PUBCHEM_FEATURE_SELFOVERLAP>
35.598

> <PUBCHEM_SHAPE_FINGERPRINT>
10354089 29 17703789228110285936
10912923 1 17561080250802491614
11089746 13 18408610249179586420
11128504 68 5978382833123734050
11315181 36 18130786724545763477
117890 112 18411420630848882441
12107183 9 17553777547773602776
12236239 1 18131350795638597376
12403259 415 17822292344820343571
12516196 113 12103842354243044655
12596602 18 16845283913371210593
12616971 3 17275384283275612390
12633257 1 16702306719903546634
12969540 114 17022910068504267773
13533116 47 18340209703967515298
13583140 156 17676491618177888983
13740256 8 10015571814261866677
14123256 10 5978383919634467260
14251764 18 17917707976689767622
14251764 38 17967811617809242713
14251764 75 17174598881978997625
14573314 32 18113329834419152374
15527383 91 16272207487975171436
15537594 2 15195571195541662914
15788980 27 18202559570741674512
17834072 33 17917990542667350966
17844677 252 18261950756705495464
17980427 23 18412825755523072717
1813 80 16128653102311554022
19489759 90 18334858316381554163
20281389 69 18343585148571697493
20511986 3 18201173095369508585
20645477 56 18407757054332242531
21033648 29 17895206467116994336
21315764 268 18410581669160018092
23402539 116 18410579478952699741
23503953 91 17846781771890883288
23557571 272 18041265609447656607
23559900 14 18262785380546736054
23622692 88 17489586770485434110
2767999 5 18411139156041210837
2838139 119 18261118499597262317
2916195 48 18040440953824856544
300161 21 18272376368745969553
3004659 81 18341049713919056786
341906 21 18408321077389424792
345986 75 17273718600875761736
34797466 226 17676200234706091836
351380 180 18186803569121159545
3545911 37 18409727382715241063
4073 2 18131347467598632522
4214541 1 18342457032466647589
4325135 7 18335423470191262407
441001 317 18260546740823932185
5104073 3 17274538699005361256
5385378 56 18264760138064383227
542803 24 17989203746060986829
573450 72 18271810098841065163
8272917 22 17846498175153265170
9965369 4 18342460382314454258
9981440 41 18341606032380007643

> <PUBCHEM_SHAPE_MULTIPOLES>
391.72
14.93
1.71
1.02
3.87
0.16
0.08
-4.11
-1.3
-1.64
-0.07
1.16
-0.1
-0.38

> <PUBCHEM_SHAPE_SELFOVERLAP>
797.988

> <PUBCHEM_SHAPE_VOLUME>
228.2

> <PUBCHEM_COORDINATE_TYPE>
2
5
10

$$$$

