8633
  -OEChem-06261202583D

 45 46  0     1  0  0  0  0  0999 V2000
    0.3840   -0.5608   -0.3975 O   0  0  0  0  0  0  0  0  0  0  0  0
   -0.8597   -0.1669   -2.2942 O   0  0  0  0  0  0  0  0  0  0  0  0
   -3.2325    1.0077   -1.5935 N   0  0  0  0  0  0  0  0  0  0  0  0
    2.7439   -0.1420   -0.0083 C   0  0  1  0  0  0  0  0  0  0  0  0
    1.5164    0.1562   -0.8865 C   0  0  2  0  0  0  0  0  0  0  0  0
    2.5648    0.4258    1.4079 C   0  0  0  0  0  0  0  0  0  0  0  0
    1.0218    2.2271    0.5092 C   0  0  1  0  0  0  0  0  0  0  0  0
    1.1984    1.6544   -0.9063 C   0  0  0  0  0  0  0  0  0  0  0  0
    2.2478    1.9201    1.3783 C   0  0  0  0  0  0  0  0  0  0  0  0
    3.0409   -1.6413    0.0585 C   0  0  0  0  0  0  0  0  0  0  0  0
    0.7662    3.7324    0.4521 C   0  0  0  0  0  0  0  0  0  0  0  0
    3.1854   -2.2201   -1.3460 C   0  0  0  0  0  0  0  0  0  0  0  0
    4.3001   -1.9002    0.8808 C   0  0  0  0  0  0  0  0  0  0  0  0
   -0.7695   -0.3970   -1.0981 C   0  0  0  0  0  0  0  0  0  0  0  0
   -1.9469   -0.5348   -0.2042 C   0  0  0  0  0  0  0  0  0  0  0  0
   -3.1123    0.1552   -0.4734 C   0  0  0  0  0  0  0  0  0  0  0  0
   -1.8274   -1.3697    0.8906 C   0  0  0  0  0  0  0  0  0  0  0  0
   -4.2014    0.0054    0.3851 C   0  0  0  0  0  0  0  0  0  0  0  0
   -2.9165   -1.5196    1.7491 C   0  0  0  0  0  0  0  0  0  0  0  0
   -4.1035   -0.8320    1.4964 C   0  0  0  0  0  0  0  0  0  0  0  0
    3.6056    0.3681   -0.4631 H   0  0  0  0  0  0  0  0  0  0  0  0
    1.7124   -0.1519   -1.9202 H   0  0  0  0  0  0  0  0  0  0  0  0
    3.4757    0.3064    2.0028 H   0  0  0  0  0  0  0  0  0  0  0  0
    1.7632   -0.1067    1.9350 H   0  0  0  0  0  0  0  0  0  0  0  0
    0.1437    1.7592    0.9728 H   0  0  0  0  0  0  0  0  0  0  0  0
    0.3037    1.8807   -1.4952 H   0  0  0  0  0  0  0  0  0  0  0  0
    2.0269    2.1777   -1.4027 H   0  0  0  0  0  0  0  0  0  0  0  0
    2.0760    2.2726    2.4025 H   0  0  0  0  0  0  0  0  0  0  0  0
    3.1208    2.4662    0.9982 H   0  0  0  0  0  0  0  0  0  0  0  0
    2.2143   -2.1695    0.5516 H   0  0  0  0  0  0  0  0  0  0  0  0
   -0.1301    3.9516   -0.1376 H   0  0  0  0  0  0  0  0  0  0  0  0
    0.6128    4.1383    1.4575 H   0  0  0  0  0  0  0  0  0  0  0  0
    1.6094    4.2634   -0.0026 H   0  0  0  0  0  0  0  0  0  0  0  0
    3.8971   -1.6450   -1.9482 H   0  0  0  0  0  0  0  0  0  0  0  0
    3.5497   -3.2528   -1.3018 H   0  0  0  0  0  0  0  0  0  0  0  0
    2.2285   -2.2574   -1.8754 H   0  0  0  0  0  0  0  0  0  0  0  0
    5.1382   -1.2813    0.5427 H   0  0  0  0  0  0  0  0  0  0  0  0
    4.6085   -2.9484    0.7937 H   0  0  0  0  0  0  0  0  0  0  0  0
    4.1391   -1.7191    1.9476 H   0  0  0  0  0  0  0  0  0  0  0  0
   -0.9219   -1.9296    1.1054 H   0  0  0  0  0  0  0  0  0  0  0  0
   -5.1326    0.5350    0.2000 H   0  0  0  0  0  0  0  0  0  0  0  0
   -2.8418   -2.1743    2.6125 H   0  0  0  0  0  0  0  0  0  0  0  0
   -4.9517   -0.9494    2.1644 H   0  0  0  0  0  0  0  0  0  0  0  0
   -2.4532    1.1522   -2.2202 H   0  0  0  0  0  0  0  0  0  0  0  0
   -4.1003    1.5012   -1.7568 H   0  0  0  0  0  0  0  0  0  0  0  0
  1  5  1  0  0  0  0
  1 14  1  0  0  0  0
  2 14  2  0  0  0  0
  3 16  1  0  0  0  0
  3 44  1  0  0  0  0
  3 45  1  0  0  0  0
  4  5  1  0  0  0  0
  4  6  1  0  0  0  0
  4 10  1  0  0  0  0
  4 21  1  0  0  0  0
  5  8  1  0  0  0  0
  5 22  1  0  0  0  0
  6  9  1  0  0  0  0
  6 23  1  0  0  0  0
  6 24  1  0  0  0  0
  7  8  1  0  0  0  0
  7  9  1  0  0  0  0
  7 11  1  0  0  0  0
  7 25  1  0  0  0  0
  8 26  1  0  0  0  0
  8 27  1  0  0  0  0
  9 28  1  0  0  0  0
  9 29  1  0  0  0  0
 10 12  1  0  0  0  0
 10 13  1  0  0  0  0
 10 30  1  0  0  0  0
 11 31  1  0  0  0  0
 11 32  1  0  0  0  0
 11 33  1  0  0  0  0
 12 34  1  0  0  0  0
 12 35  1  0  0  0  0
 12 36  1  0  0  0  0
 13 37  1  0  0  0  0
 13 38  1  0  0  0  0
 13 39  1  0  0  0  0
 14 15  1  0  0  0  0
 15 16  1  0  0  0  0
 15 17  2  0  0  0  0
 16 18  2  0  0  0  0
 17 19  1  0  0  0  0
 17 40  1  0  0  0  0
 18 20  1  0  0  0  0
 18 41  1  0  0  0  0
 19 20  2  0  0  0  0
 19 42  1  0  0  0  0
 20 43  1  0  0  0  0
M  END
> <PUBCHEM_COMPOUND_CID>
8633

> <PUBCHEM_CONFORMER_RMSD>
0.8

> <PUBCHEM_CONFORMER_DIVERSEORDER>
1
53
41
88
51
50
55
63
108
96
28
85
4
74
19
62
9
112
98
6
93
42
59
91
2
66
107
106
56
109
49
15
83
81
90
72
57
14
95
5
30
114
37
116
7
43
47
16
13
79
97
69
70
20
89
12
87
25
104
103
29
77
23
115
36
76
60
100
64
3
39
68
33
99
38
34
118
52
10
102
111
78
117
58
35
31
73
101
110
40
45
11
18
92
75
44
82
24
32
105
26
80
113
67
46
71
48
22
61
54
8
65
21
94
17
27
86
84

> <PUBCHEM_MMFF94_PARTIAL_CHARGES>
17
1 -0.43
14 0.63
15 0.09
16 0.1
17 -0.15
18 -0.15
19 -0.15
2 -0.57
20 -0.15
3 -0.9
40 0.15
41 0.15
42 0.15
43 0.15
44 0.4
45 0.4
5 0.28

> <PUBCHEM_EFFECTIVE_ROTOR_COUNT>
5.2

> <PUBCHEM_PHARMACOPHORE_FEATURES>
6
1 2 acceptor
1 3 cation
1 3 donor
3 10 12 13 hydrophobe
6 15 16 17 18 19 20 rings
6 4 5 6 7 8 9 rings

> <PUBCHEM_HEAVY_ATOM_COUNT>
20

> <PUBCHEM_ATOM_DEF_STEREO_COUNT>
0

> <PUBCHEM_ATOM_UDEF_STEREO_COUNT>
3

> <PUBCHEM_BOND_DEF_STEREO_COUNT>
0

> <PUBCHEM_BOND_UDEF_STEREO_COUNT>
0

> <PUBCHEM_ISOTOPIC_ATOM_COUNT>
0

> <PUBCHEM_COMPONENT_COUNT>
1

> <PUBCHEM_CACTVS_TAUTO_COUNT>
2

> <PUBCHEM_CONFORMER_ID>
000021B900000001

> <PUBCHEM_MMFF94_ENERGY>
65.0707

> <PUBCHEM_FEATURE_SELFOVERLAP>
30.446

> <PUBCHEM_SHAPE_FINGERPRINT>
10366900 7 18055909901279723875
10382601 240 18114748114641752480
104564 63 17974562799871169358
10764073 3 5757191674288980214
11086676 242 17822290219217603464
11640471 11 16806450206091243481
121448 382 11094731391444816208
12506688 2 18272365412553851698
12507560 18 18057331788852671001
12553582 1 18260547857526121774
12633257 1 18265030536357166227
12714826 92 17561368421501471415
12760667 363 18049447234284286690
12788726 201 18194680608499648010
12824470 246 17629206185050401730
13134695 92 18334016103075139380
13533116 47 18198332967258381051
13583140 156 18263079908229700019
13965767 371 17168134641863076521
14178342 30 17899153619577469114
14223421 5 17983292630058761587
14251739 40 17676215679582555287
14289901 80 18119239572280435147
14790565 3 18047761395301859056
14866123 147 17187563287251771291
15295992 7 18410857677022746913
15653759 3 18272931605212440377
16752209 62 15984563138952959239
17357779 13 18117003375877025908
17357990 137 16878489147138854861
17804303 29 17917983993216991787
17980427 23 14057018121223043826
1813 80 17677872699888477894
18981168 100 15721618119545231199
19049666 15 18271815652365576085
20600515 1 17916025844569876764
21041028 32 18336545014426649904
21524375 3 17249489478882608340
22149856 69 14997103819891960303
23175994 123 18337950198486310166
23184049 59 17749390403051113558
23559900 14 17917989434961349935
31174 14 18267009566892129401
3286 77 18341608192547609651
3797600 57 16884111895063866723
6049 1 18131070398793708061
6786 2 17190632617353342892
6992083 37 17676499353482125918
7097593 13 18335419002560455195
7615 1 16878230766354126415
81228 2 17977384159751388364

> <PUBCHEM_SHAPE_MULTIPOLES>
394.87
7.45
2.85
1.75
3.37
2.37
0.23
-4.03
-2.09
-2.69
-0.57
0.52
-0.22
1.37

> <PUBCHEM_SHAPE_SELFOVERLAP>
820.697

> <PUBCHEM_SHAPE_VOLUME>
224.3

> <PUBCHEM_COORDINATE_TYPE>
2
5
10

$$$$

