5225
  -OEChem-06261200353D

 49 50  0     0  0  0  0  0  0999 V2000
    2.8694    1.9052    1.0987 S   0  0  0  0  0  0  0  0  0  0  0  0
   -2.9388    1.5966    0.1263 O   0  0  0  0  0  0  0  0  0  0  0  0
   -2.6209   -0.6099   -0.5598 O   0  0  0  0  0  0  0  0  0  0  0  0
    3.0717    2.0670    2.5336 O   0  0  0  0  0  0  0  0  0  0  0  0
    3.4417    2.8933    0.1926 O   0  0  0  0  0  0  0  0  0  0  0  0
    2.2548   -1.9608    1.4857 O   0  0  0  0  0  0  0  0  0  0  0  0
   -1.5594   -3.6023    0.7898 O   0  0  0  0  0  0  0  0  0  0  0  0
    0.0109   -3.3980    2.4110 O   0  0  0  0  0  0  0  0  0  0  0  0
    3.4147    0.3321    0.6555 N   0  0  0  0  0  0  0  0  0  0  0  0
    0.3340   -2.4885    0.2816 N   0  0  0  0  0  0  0  0  0  0  0  0
   -4.8669    0.3612   -0.5747 C   0  0  0  0  0  0  0  0  0  0  0  0
   -5.2265    1.4432   -1.6014 C   0  0  0  0  0  0  0  0  0  0  0  0
   -5.3205   -1.0192   -1.0677 C   0  0  0  0  0  0  0  0  0  0  0  0
   -5.5773    0.6755    0.7519 C   0  0  0  0  0  0  0  0  0  0  0  0
   -3.3500    0.3524   -0.3502 C   0  0  0  0  0  0  0  0  0  0  0  0
    1.1494    1.8136    0.8113 C   0  0  0  0  0  0  0  0  0  0  0  0
   -1.5632    1.6699    0.3569 C   0  0  0  0  0  0  0  0  0  0  0  0
    3.0374   -0.1763   -0.6357 C   0  0  0  0  0  0  0  0  0  0  0  0
    0.6322    2.1556   -0.4383 C   0  0  0  0  0  0  0  0  0  0  0  0
    0.2924    1.3987    1.8309 C   0  0  0  0  0  0  0  0  0  0  0  0
   -0.7416    2.0829   -0.6683 C   0  0  0  0  0  0  0  0  0  0  0  0
   -1.0814    1.3259    1.6007 C   0  0  0  0  0  0  0  0  0  0  0  0
    2.1678   -1.2564   -0.7480 C   0  0  0  0  0  0  0  0  0  0  0  0
    3.5596    0.4316   -1.7730 C   0  0  0  0  0  0  0  0  0  0  0  0
    1.8166   -1.7335   -2.0109 C   0  0  0  0  0  0  0  0  0  0  0  0
    3.2084   -0.0455   -3.0357 C   0  0  0  0  0  0  0  0  0  0  0  0
    2.3370   -1.1279   -3.1547 C   0  0  0  0  0  0  0  0  0  0  0  0
    1.6065   -1.9095    0.4276 C   0  0  0  0  0  0  0  0  0  0  0  0
   -0.3583   -3.1773    1.2643 C   0  0  0  0  0  0  0  0  0  0  0  0
   -4.9665    2.4468   -1.2463 H   0  0  0  0  0  0  0  0  0  0  0  0
   -4.6875    1.2827   -2.5423 H   0  0  0  0  0  0  0  0  0  0  0  0
   -6.2995    1.4376   -1.8229 H   0  0  0  0  0  0  0  0  0  0  0  0
   -4.8341   -1.2801   -2.0147 H   0  0  0  0  0  0  0  0  0  0  0  0
   -6.4036   -1.0469   -1.2306 H   0  0  0  0  0  0  0  0  0  0  0  0
   -5.0699   -1.8033   -0.3438 H   0  0  0  0  0  0  0  0  0  0  0  0
   -5.2869   -0.0392    1.5307 H   0  0  0  0  0  0  0  0  0  0  0  0
   -5.3262    1.6761    1.1217 H   0  0  0  0  0  0  0  0  0  0  0  0
   -6.6663    0.6288    0.6394 H   0  0  0  0  0  0  0  0  0  0  0  0
    3.4525   -0.3633    1.4109 H   0  0  0  0  0  0  0  0  0  0  0  0
    1.2784    2.4847   -1.2469 H   0  0  0  0  0  0  0  0  0  0  0  0
    0.6732    1.1187    2.8089 H   0  0  0  0  0  0  0  0  0  0  0  0
   -1.1443    2.3497   -1.6403 H   0  0  0  0  0  0  0  0  0  0  0  0
   -1.7483    1.0009    2.3930 H   0  0  0  0  0  0  0  0  0  0  0  0
    4.2550    1.2627   -1.7016 H   0  0  0  0  0  0  0  0  0  0  0  0
    1.1690   -2.5942   -2.1502 H   0  0  0  0  0  0  0  0  0  0  0  0
    3.6182    0.4220   -3.9263 H   0  0  0  0  0  0  0  0  0  0  0  0
    2.0707   -1.5044   -4.1381 H   0  0  0  0  0  0  0  0  0  0  0  0
   -0.1603   -2.3810   -0.5990 H   0  0  0  0  0  0  0  0  0  0  0  0
   -2.0684   -4.0919    1.4706 H   0  0  0  0  0  0  0  0  0  0  0  0
  1  4  2  0  0  0  0
  1  5  2  0  0  0  0
  1  9  1  0  0  0  0
  1 16  1  0  0  0  0
  2 15  1  0  0  0  0
  2 17  1  0  0  0  0
  3 15  2  0  0  0  0
  6 28  2  0  0  0  0
  7 29  1  0  0  0  0
  7 49  1  0  0  0  0
  8 29  2  0  0  0  0
  9 18  1  0  0  0  0
  9 39  1  0  0  0  0
 10 28  1  0  0  0  0
 10 29  1  0  0  0  0
 10 48  1  0  0  0  0
 11 12  1  0  0  0  0
 11 13  1  0  0  0  0
 11 14  1  0  0  0  0
 11 15  1  0  0  0  0
 12 30  1  0  0  0  0
 12 31  1  0  0  0  0
 12 32  1  0  0  0  0
 13 33  1  0  0  0  0
 13 34  1  0  0  0  0
 13 35  1  0  0  0  0
 14 36  1  0  0  0  0
 14 37  1  0  0  0  0
 14 38  1  0  0  0  0
 16 19  2  0  0  0  0
 16 20  1  0  0  0  0
 17 21  2  0  0  0  0
 17 22  1  0  0  0  0
 18 23  1  0  0  0  0
 18 24  2  0  0  0  0
 19 21  1  0  0  0  0
 19 40  1  0  0  0  0
 20 22  2  0  0  0  0
 20 41  1  0  0  0  0
 21 42  1  0  0  0  0
 22 43  1  0  0  0  0
 23 25  2  0  0  0  0
 23 28  1  0  0  0  0
 24 26  1  0  0  0  0
 24 44  1  0  0  0  0
 25 27  1  0  0  0  0
 25 45  1  0  0  0  0
 26 27  2  0  0  0  0
 26 46  1  0  0  0  0
 27 47  1  0  0  0  0
M  END
> <PUBCHEM_COMPOUND_CID>
5225

> <PUBCHEM_CONFORMER_RMSD>
1

> <PUBCHEM_CONFORMER_DIVERSEORDER>
1
29
137
184
119
171
217
95
75
173
212
211
26
172
145
104
190
108
121
179
186
199
167
162
147
47
45
109
214
226
2
140
97
187
69
100
123
15
117
182
169
200
149
58
193
3
144
22
126
72
98
146
90
185
101
92
59
194
61
189
19
85
136
112
223
133
99
208
115
228
62
124
56
5
180
164
16
94
215
18
74
168
43
138
111
206
81
21
181
222
166
165
202
207
150
79
196
153
195
84
66
49
160
70
17
7
176
132
36
80
219
209
106
34
231
198
191
216
175
129
44
174
48
57
170
14
42
203
6
65
50
135
114
4
163
13
77
156
141
213
8
139
130
188
224
127
31
68
178
63
87
122
197
230
67
131
177
55
152
116
51
113
118
205
27
158
192
53
64
105
210
157
82
40
125
220
33
30
96
120
159
225
60
183
78
38
76
143
89
25
103
128
148
39
88
28
201
227
91
221
151
32
155
218
9
24
102
204
46
161
86
10
142
12
229
54
83
107
154
52
93
110
134
23
73
35
37
71
41
11
20

> <PUBCHEM_MMFF94_PARTIAL_CHARGES>
37
1 1.45
10 -0.49
11 0.06
15 0.66
16 -0.01
17 0.08
18 0.2
19 -0.15
2 -0.23
20 -0.15
21 -0.15
22 -0.15
23 0.09
24 -0.15
25 -0.15
26 -0.15
27 -0.15
28 0.54
29 0.78
3 -0.57
39 0.42
4 -0.65
40 0.15
41 0.15
42 0.15
43 0.15
44 0.15
45 0.15
46 0.15
47 0.15
48 0.37
49 0.5
5 -0.65
6 -0.57
7 -0.65
8 -0.57
9 -0.76

> <PUBCHEM_EFFECTIVE_ROTOR_COUNT>
9

> <PUBCHEM_PHARMACOPHORE_FEATURES>
11
1 10 donor
1 3 acceptor
1 4 acceptor
1 5 acceptor
1 6 acceptor
1 8 acceptor
1 9 donor
3 7 8 29 anion
4 11 12 13 14 hydrophobe
6 16 17 19 20 21 22 rings
6 18 23 24 25 26 27 rings

> <PUBCHEM_HEAVY_ATOM_COUNT>
29

> <PUBCHEM_ATOM_DEF_STEREO_COUNT>
0

> <PUBCHEM_ATOM_UDEF_STEREO_COUNT>
0

> <PUBCHEM_BOND_DEF_STEREO_COUNT>
0

> <PUBCHEM_BOND_UDEF_STEREO_COUNT>
0

> <PUBCHEM_ISOTOPIC_ATOM_COUNT>
0

> <PUBCHEM_COMPONENT_COUNT>
1

> <PUBCHEM_CACTVS_TAUTO_COUNT>
5

> <PUBCHEM_CONFORMER_ID>
0000146900000001

> <PUBCHEM_MMFF94_ENERGY>
77.577

> <PUBCHEM_FEATURE_SELFOVERLAP>
55.84

> <PUBCHEM_SHAPE_FINGERPRINT>
10316853 100 18200588091476902243
108634 29 18337104545232825134
11285246 1 17251698805654317966
11796584 16 18113625607933185893
12156800 1 17698430040943337612
12293681 25 17970600031411747022
12596599 1 17460304684283443331
13617811 41 17917714587794592597
13726171 33 17557110979509342677
14068700 675 17837778086072994994
14114211 68 17985798610543696215
14251757 17 18261947471335276955
15324115 91 17988638657588547891
15635459 17 18113334236576073029
15664445 248 18410290302625912996
16114785 44 17033917039250818744
17093844 170 18339932527730711360
17357779 13 17826198897055170590
17492 54 18339339917371421804
17909252 39 17313090969298139100
18336668 15 17770789214842878674
20567600 347 18188502284763928080
20645477 70 18040438776308352285
20691752 17 18272101460969466101
20764821 26 18200595766256379907
20775438 99 18115320985769700687
20775530 9 17245815319012761631
20905425 154 17975698290308446554
21197605 99 17827650140750646063
21452121 99 18128238026934184546
22182313 1 17973704897512919596
22393880 68 18336549416905265749
23419403 2 17681518517290042804
23559900 14 17241324827699586621
238 59 17986652943556476850
239999 70 18186804668727947348
3052486 1 17915743067790962754
463206 1 17692811901560841947
508706 21 18197776588436156227
6669772 16 18339653261142267888
6786 2 14566239241142716666
6823239 73 17676485111333571148

> <PUBCHEM_SHAPE_MULTIPOLES>
549.61
9.07
3.7
2.6
14.2
1.89
-0.74
-1.96
-4.17
-1.34
2.2
-2.25
1.08
1.44

> <PUBCHEM_SHAPE_SELFOVERLAP>
1154.838

> <PUBCHEM_SHAPE_VOLUME>
311.5

> <PUBCHEM_COORDINATE_TYPE>
2
5
10

$$$$

