9322
  -OEChem-06261203363D

  3  2  0     0  0  0  0  0  0999 V2000
    1.5802    0.0000    0.0000 S   0  5  0  0  0  0  0  0  0  0  0  0
   -1.3701    0.0000    0.0000 N   0  0  0  0  0  0  0  0  0  0  0  0
   -0.2101    0.0000    0.0000 C   0  0  0  0  0  0  0  0  0  0  0  0
  1  3  1  0  0  0  0
  2  3  3  0  0  0  0
M  CHG  1   1  -1
M  END
> <PUBCHEM_COMPOUND_CID>
9322

> <PUBCHEM_CONFORMER_RMSD>
0.4

> <PUBCHEM_CONFORMER_DIVERSEORDER>
1

> <PUBCHEM_MMFF94_PARTIAL_CHARGES>
3
1 -0.88
2 -0.56
3 0.44

> <PUBCHEM_EFFECTIVE_ROTOR_COUNT>
0

> <PUBCHEM_PHARMACOPHORE_FEATURES>
1
1 2 acceptor

> <PUBCHEM_HEAVY_ATOM_COUNT>
3

> <PUBCHEM_ATOM_DEF_STEREO_COUNT>
0

> <PUBCHEM_ATOM_UDEF_STEREO_COUNT>
0

> <PUBCHEM_BOND_DEF_STEREO_COUNT>
0

> <PUBCHEM_BOND_UDEF_STEREO_COUNT>
0

> <PUBCHEM_ISOTOPIC_ATOM_COUNT>
0

> <PUBCHEM_COMPONENT_COUNT>
1

> <PUBCHEM_CACTVS_TAUTO_COUNT>
1

> <PUBCHEM_CONFORMER_ID>
0000246A00000001

> <PUBCHEM_MMFF94_ENERGY>
0

> <PUBCHEM_FEATURE_SELFOVERLAP>
5.074

> <PUBCHEM_SHAPE_FINGERPRINT>
139733 1 9943805586389012704
20096714 4 18335137549222046368
21015797 1 9870305428594760075
5460574 1 9943811088257936640

> <PUBCHEM_SHAPE_MULTIPOLES>
60.61
2.08
0.62
0.62
0.23
0
0
0
0
0.08
0
0.08
0
0

> <PUBCHEM_SHAPE_SELFOVERLAP>
90.101

> <PUBCHEM_SHAPE_VOLUME>
44.4

> <PUBCHEM_COORDINATE_TYPE>
2
5
10

$$$$

