11940
  -OEChem-06261206183D

 26 28  0     0  0  0  0  0  0999 V2000
    0.0000    1.4822   -0.3340 C   0  0  0  0  0  0  0  0  0  0  0  0
    0.0000   -1.4818   -0.3350 C   0  0  0  0  0  0  0  0  0  0  0  0
    1.2711    0.7020   -0.1124 C   0  0  0  0  0  0  0  0  0  0  0  0
   -1.2711    0.7020   -0.1128 C   0  0  0  0  0  0  0  0  0  0  0  0
    1.2711   -0.7020   -0.1126 C   0  0  0  0  0  0  0  0  0  0  0  0
   -1.2710   -0.7020   -0.1126 C   0  0  0  0  0  0  0  0  0  0  0  0
    2.4817    1.3919    0.0527 C   0  0  0  0  0  0  0  0  0  0  0  0
   -2.4818    1.3919    0.0520 C   0  0  0  0  0  0  0  0  0  0  0  0
    2.4816   -1.3920    0.0525 C   0  0  0  0  0  0  0  0  0  0  0  0
   -2.4816   -1.3920    0.0529 C   0  0  0  0  0  0  0  0  0  0  0  0
    3.6772    0.6958    0.2274 C   0  0  0  0  0  0  0  0  0  0  0  0
   -3.6772    0.6958    0.2270 C   0  0  0  0  0  0  0  0  0  0  0  0
    3.6772   -0.6960    0.2272 C   0  0  0  0  0  0  0  0  0  0  0  0
   -3.6771   -0.6960    0.2278 C   0  0  0  0  0  0  0  0  0  0  0  0
   -0.0001    2.3405    0.3505 H   0  0  0  0  0  0  0  0  0  0  0  0
    0.0001    1.8617   -1.3634 H   0  0  0  0  0  0  0  0  0  0  0  0
    0.0000   -1.8600   -1.3648 H   0  0  0  0  0  0  0  0  0  0  0  0
    0.0000   -2.3409    0.3483 H   0  0  0  0  0  0  0  0  0  0  0  0
    2.4979    2.4791    0.0439 H   0  0  0  0  0  0  0  0  0  0  0  0
   -2.4980    2.4791    0.0428 H   0  0  0  0  0  0  0  0  0  0  0  0
    2.4978   -2.4791    0.0433 H   0  0  0  0  0  0  0  0  0  0  0  0
   -2.4977   -2.4791    0.0442 H   0  0  0  0  0  0  0  0  0  0  0  0
    4.6082    1.2396    0.3575 H   0  0  0  0  0  0  0  0  0  0  0  0
   -4.6083    1.2396    0.3569 H   0  0  0  0  0  0  0  0  0  0  0  0
    4.6082   -1.2398    0.3571 H   0  0  0  0  0  0  0  0  0  0  0  0
   -4.6080   -1.2399    0.3583 H   0  0  0  0  0  0  0  0  0  0  0  0
  1  3  1  0  0  0  0
  1  4  1  0  0  0  0
  1 15  1  0  0  0  0
  1 16  1  0  0  0  0
  2  5  1  0  0  0  0
  2  6  1  0  0  0  0
  2 17  1  0  0  0  0
  2 18  1  0  0  0  0
  3  5  1  0  0  0  0
  3  7  2  0  0  0  0
  4  6  1  0  0  0  0
  4  8  2  0  0  0  0
  5  9  2  0  0  0  0
  6 10  2  0  0  0  0
  7 11  1  0  0  0  0
  7 19  1  0  0  0  0
  8 12  1  0  0  0  0
  8 20  1  0  0  0  0
  9 13  1  0  0  0  0
  9 21  1  0  0  0  0
 10 14  1  0  0  0  0
 10 22  1  0  0  0  0
 11 13  2  0  0  0  0
 11 23  1  0  0  0  0
 12 14  2  0  0  0  0
 12 24  1  0  0  0  0
 13 25  1  0  0  0  0
 14 26  1  0  0  0  0
M  END
> <PUBCHEM_COMPOUND_CID>
11940

> <PUBCHEM_CONFORMER_RMSD>
0.4

> <PUBCHEM_CONFORMER_DIVERSEORDER>
1

> <PUBCHEM_MMFF94_PARTIAL_CHARGES>
22
1 0.29
10 -0.15
11 -0.15
12 -0.15
13 -0.15
14 -0.15
19 0.15
2 0.29
20 0.15
21 0.15
22 0.15
23 0.15
24 0.15
25 0.15
26 0.15
3 -0.14
4 -0.14
5 -0.14
6 -0.14
7 -0.15
8 -0.15
9 -0.15

> <PUBCHEM_EFFECTIVE_ROTOR_COUNT>
0.4

> <PUBCHEM_PHARMACOPHORE_FEATURES>
3
6 1 2 3 4 5 6 rings
6 3 5 7 9 11 13 rings
6 4 6 8 10 12 14 rings

> <PUBCHEM_HEAVY_ATOM_COUNT>
14

> <PUBCHEM_ATOM_DEF_STEREO_COUNT>
0

> <PUBCHEM_ATOM_UDEF_STEREO_COUNT>
0

> <PUBCHEM_BOND_DEF_STEREO_COUNT>
0

> <PUBCHEM_BOND_UDEF_STEREO_COUNT>
0

> <PUBCHEM_ISOTOPIC_ATOM_COUNT>
0

> <PUBCHEM_COMPONENT_COUNT>
1

> <PUBCHEM_CACTVS_TAUTO_COUNT>
1

> <PUBCHEM_CONFORMER_ID>
00002EA400000001

> <PUBCHEM_MMFF94_ENERGY>
37.8943

> <PUBCHEM_FEATURE_SELFOVERLAP>
15.264

> <PUBCHEM_SHAPE_FINGERPRINT>
10411042 1 15744443393387054327
10608611 8 18410296929728132845
10967382 1 18410573998046928558
10980938 120 18410292514786381306
11132069 177 18410016537061718096
11471102 20 18410579491484160596
12032990 46 18411694404775132062
12251169 10 18410573993741385746
12382932 28 18408321111669938009
12696612 119 18341326721433265388
13221675 6 18411983559169179170
13296908 3 18341894103719050434
13380535 76 18409167722917986007
13581323 91 18413671309417517157
14144814 61 18410575093253013626
14325111 11 18410012134720382508
15196674 1 18410575084663078928
15219456 202 18409166640343257527
15309172 13 18260823795915454091
15375462 189 18059860622668014818
15442244 35 18265895954781375026
15536298 74 18334575746167109982
15775835 57 18334292041727865352
16945 1 18410855464423129230
17802600 8 18409455781899992441
17804303 29 18409162246813246812
17844478 74 18060419135672286205
18186145 218 18261949742940115636
18522853 276 18408605855100930161
19422 9 18343861108725607800
200 152 18114192912893300455
20201158 50 18410574011016401867
20510252 161 18260265282673806009
20528008 55 18409172112405918613
20645477 70 18337678610814731887
21267235 1 18411128134722560466
21501502 16 18410573967971581973
21501925 9 18412549790377277466
2334 1 18410856533869985877
23402539 116 18261404342191352567
23463225 33 18413107264379343172
23559900 14 18336550542286884610
2748010 2 18410575119022817607
335352 9 18122625225710371246
474 4 17058640756370786292
5104073 3 18410855464423130088
528886 8 18409736165939101290
53812653 166 18261396620035502000
69090 78 18334581243767609423
7364860 26 18262517138380321950
84936 31 16227169408447520070
8809292 202 18272645744715788371
9709674 26 18410006624283077791

> <PUBCHEM_SHAPE_MULTIPOLES>
288.11
6.7
1.76
0.65
0
0
0
0
0.92
0
-0.06
0
0
0

> <PUBCHEM_SHAPE_SELFOVERLAP>
638.963

> <PUBCHEM_SHAPE_VOLUME>
141.9

> <PUBCHEM_COORDINATE_TYPE>
2
5
10

$$$$

