17396646
  -OEChem-06241222573D

 44 45  0     0  0  0  0  0  0999 V2000
   -1.4571   -2.6079   -0.1076 O   0  0  0  0  0  0  0  0  0  0  0  0
    0.1565    1.1733   -0.3165 O   0  0  0  0  0  0  0  0  0  0  0  0
   -4.8957    2.6776    0.6423 O   0  0  0  0  0  0  0  0  0  0  0  0
    1.6022   -0.2013    0.9220 N   0  0  0  0  0  0  0  0  0  0  0  0
   -2.0475   -0.4091    0.6418 C   0  0  0  0  0  0  0  0  0  0  0  0
   -0.7574   -0.2733    1.3808 C   0  0  0  0  0  0  0  0  0  0  0  0
    2.8740    0.1083    0.3840 C   0  0  0  0  0  0  0  0  0  0  0  0
    5.2676   -0.2174    0.3500 C   0  0  0  0  0  0  0  0  0  0  0  0
   -2.3412   -1.5719   -0.0704 C   0  0  0  0  0  0  0  0  0  0  0  0
   -2.9642    0.6418    0.6699 C   0  0  0  0  0  0  0  0  0  0  0  0
    5.3808    0.7213   -0.6756 C   0  0  0  0  0  0  0  0  0  0  0  0
    0.3704    0.3313    0.5497 C   0  0  0  0  0  0  0  0  0  0  0  0
   -4.1746    0.5300   -0.0142 C   0  0  0  0  0  0  0  0  0  0  0  0
    4.0143   -0.5239    0.8798 C   0  0  0  0  0  0  0  0  0  0  0  0
    2.9870    1.0470   -0.6416 C   0  0  0  0  0  0  0  0  0  0  0  0
    4.2404    1.3534   -1.1713 C   0  0  0  0  0  0  0  0  0  0  0  0
   -3.5516   -1.6838   -0.7547 C   0  0  0  0  0  0  0  0  0  0  0  0
   -4.4683   -0.6328   -0.7265 C   0  0  0  0  0  0  0  0  0  0  0  0
    6.4748   -0.9067    0.8964 C   0  0  0  0  0  0  0  0  0  0  0  0
    6.7118    1.0655   -1.2595 C   0  0  0  0  0  0  0  0  0  0  0  0
   -5.1299    1.6261    0.0139 C   0  0  0  0  0  0  0  0  0  0  0  0
   -6.4543    1.5108   -0.7331 C   0  0  0  0  0  0  0  0  0  0  0  0
   -1.8383   -3.7583   -0.8595 C   0  0  0  0  0  0  0  0  0  0  0  0
   -0.8914    0.3746    2.2573 H   0  0  0  0  0  0  0  0  0  0  0  0
   -0.4602   -1.2477    1.7877 H   0  0  0  0  0  0  0  0  0  0  0  0
   -2.7245    1.5450    1.2263 H   0  0  0  0  0  0  0  0  0  0  0  0
    3.9222   -1.2552    1.6797 H   0  0  0  0  0  0  0  0  0  0  0  0
    1.6130   -0.8911    1.6700 H   0  0  0  0  0  0  0  0  0  0  0  0
    2.1524    1.5774   -1.0776 H   0  0  0  0  0  0  0  0  0  0  0  0
    4.3119    2.0869   -1.9703 H   0  0  0  0  0  0  0  0  0  0  0  0
   -3.8475   -2.5554   -1.3281 H   0  0  0  0  0  0  0  0  0  0  0  0
   -5.3981   -0.7602   -1.2722 H   0  0  0  0  0  0  0  0  0  0  0  0
    6.2140   -1.6116    1.6935 H   0  0  0  0  0  0  0  0  0  0  0  0
    7.1733   -0.1801    1.3242 H   0  0  0  0  0  0  0  0  0  0  0  0
    6.9800   -1.4796    0.1120 H   0  0  0  0  0  0  0  0  0  0  0  0
    7.3742    1.4793   -0.4923 H   0  0  0  0  0  0  0  0  0  0  0  0
    7.1779    0.1806   -1.7048 H   0  0  0  0  0  0  0  0  0  0  0  0
    6.6252    1.8179   -2.0513 H   0  0  0  0  0  0  0  0  0  0  0  0
   -7.0435    0.6818   -0.3326 H   0  0  0  0  0  0  0  0  0  0  0  0
   -6.2749    1.3883   -1.8043 H   0  0  0  0  0  0  0  0  0  0  0  0
   -7.0272    2.4326   -0.5898 H   0  0  0  0  0  0  0  0  0  0  0  0
   -2.7274   -4.2398   -0.4384 H   0  0  0  0  0  0  0  0  0  0  0  0
   -1.9534   -3.5254   -1.9237 H   0  0  0  0  0  0  0  0  0  0  0  0
   -1.0190   -4.4804   -0.7800 H   0  0  0  0  0  0  0  0  0  0  0  0
  1  9  1  0  0  0  0
  1 23  1  0  0  0  0
  2 12  2  0  0  0  0
  3 21  2  0  0  0  0
  4  7  1  0  0  0  0
  4 12  1  0  0  0  0
  4 28  1  0  0  0  0
  5  6  1  0  0  0  0
  5  9  2  0  0  0  0
  5 10  1  0  0  0  0
  6 12  1  0  0  0  0
  6 24  1  0  0  0  0
  6 25  1  0  0  0  0
  7 14  2  0  0  0  0
  7 15  1  0  0  0  0
  8 11  2  0  0  0  0
  8 14  1  0  0  0  0
  8 19  1  0  0  0  0
  9 17  1  0  0  0  0
 10 13  2  0  0  0  0
 10 26  1  0  0  0  0
 11 16  1  0  0  0  0
 11 20  1  0  0  0  0
 13 18  1  0  0  0  0
 13 21  1  0  0  0  0
 14 27  1  0  0  0  0
 15 16  2  0  0  0  0
 15 29  1  0  0  0  0
 16 30  1  0  0  0  0
 17 18  2  0  0  0  0
 17 31  1  0  0  0  0
 18 32  1  0  0  0  0
 19 33  1  0  0  0  0
 19 34  1  0  0  0  0
 19 35  1  0  0  0  0
 20 36  1  0  0  0  0
 20 37  1  0  0  0  0
 20 38  1  0  0  0  0
 21 22  1  0  0  0  0
 22 39  1  0  0  0  0
 22 40  1  0  0  0  0
 22 41  1  0  0  0  0
 23 42  1  0  0  0  0
 23 43  1  0  0  0  0
 23 44  1  0  0  0  0
M  END
> <PUBCHEM_COMPOUND_CID>
17396646

> <PUBCHEM_CONFORMER_RMSD>
0.8

> <PUBCHEM_CONFORMER_DIVERSEORDER>
11
167
124
96
67
152
104
174
30
80
33
162
85
64
108
147
70
86
143
127
169
134
43
166
153
102
105
99
82
59
12
156
22
28
168
165
139
76
151
112
10
37
90
20
159
55
158
110
141
163
164
27
75
83
81
171
172
21
175
100
136
123
142
26
36
173
148
4
24
150
48
140
44
93
2
160
23
61
52
69
60
137
107
46
5
72
57
41
149
49
132
115
133
95
92
19
3
18
121
35
63
84
53
74
131
170
118
130
146
16
65
111
128
14
47
1
117
66
125
116
79
29
6
144
109
71
73
126
25
87
155
154
7
51
135
161
113
138
106
129
89
17
98
40
78
68
88
56
9
157
119
42
58
103
50
97
77
39
32
120
38
8
31
114
145
91
54
122
15
101
94
34
45
13
62

> <PUBCHEM_MMFF94_PARTIAL_CHARGES>
30
1 -0.36
10 -0.15
11 -0.14
12 0.57
13 0.09
14 -0.15
15 -0.15
16 -0.15
17 -0.15
18 -0.15
19 0.14
2 -0.57
20 0.14
21 0.42
22 0.06
23 0.28
26 0.15
27 0.15
28 0.37
29 0.15
3 -0.57
30 0.15
31 0.15
32 0.15
4 -0.55
5 -0.14
6 0.2
7 0.12
8 -0.14
9 0.08

> <PUBCHEM_EFFECTIVE_ROTOR_COUNT>
6

> <PUBCHEM_PHARMACOPHORE_FEATURES>
6
1 1 acceptor
1 2 acceptor
1 3 acceptor
1 4 donor
6 5 9 10 13 17 18 rings
6 7 8 11 14 15 16 rings

> <PUBCHEM_HEAVY_ATOM_COUNT>
23

> <PUBCHEM_ATOM_DEF_STEREO_COUNT>
0

> <PUBCHEM_ATOM_UDEF_STEREO_COUNT>
0

> <PUBCHEM_BOND_DEF_STEREO_COUNT>
0

> <PUBCHEM_BOND_UDEF_STEREO_COUNT>
0

> <PUBCHEM_ISOTOPIC_ATOM_COUNT>
0

> <PUBCHEM_COMPONENT_COUNT>
1

> <PUBCHEM_CACTVS_TAUTO_COUNT>
4

> <PUBCHEM_CONFORMER_ID>
010973A60000000B

> <PUBCHEM_MMFF94_ENERGY>
76.8521

> <PUBCHEM_FEATURE_SELFOVERLAP>
30.446

> <PUBCHEM_SHAPE_FINGERPRINT>
10 15 12967123887822930276
10366900 7 16732976540335754770
105312 117 18408039624235645695
10595046 47 18198622125672464966
107951 10 18334853914130611095
10803635 8 18334013873897350891
11315181 36 17240760658154229840
11796584 16 18261108561528294526
12236239 1 18202002122942059304
12616971 3 17918279740554331754
12788726 201 17968656145717823857
13167372 99 17988361567805471748
13668630 136 15068628179931632485
13690498 29 17899693462174549150
14117953 113 18338236085075085262
14251752 14 18409450305806056152
14251757 5 18335416833670438641
14713325 29 18341326709376993459
14848160 23 16225766307177432908
14849402 71 8790589400821120710
15183329 4 18409728477990086332
15716309 27 7420945370052697477
15788980 27 18341047441564540610
167882 2 18192147325024943391
17870717 6 17603578612952043495
18222031 100 16515399665025825752
19489759 90 17675924313195824633
20281389 69 17775567554510939045
20511986 3 18341907268368708888
21756936 100 17775565312848753489
22224240 67 14979953684243921801
22393880 68 18262237703713017118
23081809 10 18201722842925687072
23198884 109 18411138022132635581
23402539 116 18334863826545331885
23402655 69 18201717324082628568
23559900 14 17822018562256790960
2838139 119 18131357444728591661
29717793 49 18412259567580813534
300161 21 18410856547393321248
3004659 81 18411419553418947642
34797466 226 17604422982311689000
4015057 19 15719683060700776363
4073 2 16916775250620569480
44062 13 18115590335636658431
44880568 143 16805606988216396729
469060 322 10951774139379024127
497634 4 17274542001845949355
5104073 3 17203326655395359504
5283173 99 18114186327959979793
5385378 56 18117550941764001819
542803 24 17917993867272725040
559249 180 18410578391930841530
633830 44 17418094270122215474
7226269 152 17967249819101598753

> <PUBCHEM_SHAPE_MULTIPOLES>
450.74
16.86
2.54
1.15
11.75
1.97
0.01
-7.21
3.13
-3.77
0.75
0.69
0
-1.9

> <PUBCHEM_SHAPE_SELFOVERLAP>
955.186

> <PUBCHEM_SHAPE_VOLUME>
252.9

> <PUBCHEM_COORDINATE_TYPE>
2
5
10

$$$$

