11475
  -OEChem-06261205433D

 20 20  0     0  0  0  0  0  0999 V2000
   -2.4759    1.5390   -0.0893 N   0  0  0  0  0  0  0  0  0  0  0  0
    0.8507   -0.0488    0.2890 C   0  0  0  0  0  0  0  0  0  0  0  0
    2.2647    0.3470    0.5487 C   0  0  0  0  0  0  0  0  0  0  0  0
   -0.1455    0.9253    0.2219 C   0  0  0  0  0  0  0  0  0  0  0  0
    0.5244   -1.3935    0.1127 C   0  0  0  0  0  0  0  0  0  0  0  0
   -1.4680    0.5545   -0.0217 C   0  0  0  0  0  0  0  0  0  0  0  0
    3.0418    0.6312   -0.7325 C   0  0  0  0  0  0  0  0  0  0  0  0
   -0.7980   -1.7643   -0.1308 C   0  0  0  0  0  0  0  0  0  0  0  0
   -1.7941   -0.7903   -0.1981 C   0  0  0  0  0  0  0  0  0  0  0  0
    2.2914    1.2344    1.1936 H   0  0  0  0  0  0  0  0  0  0  0  0
    2.7749   -0.4426    1.1147 H   0  0  0  0  0  0  0  0  0  0  0  0
    0.1090    1.9741    0.3575 H   0  0  0  0  0  0  0  0  0  0  0  0
    1.2916   -2.1618    0.1608 H   0  0  0  0  0  0  0  0  0  0  0  0
    3.0742   -0.2517   -1.3799 H   0  0  0  0  0  0  0  0  0  0  0  0
    4.0713    0.9171   -0.4949 H   0  0  0  0  0  0  0  0  0  0  0  0
    2.5838    1.4482   -1.3001 H   0  0  0  0  0  0  0  0  0  0  0  0
   -1.0519   -2.8113   -0.2686 H   0  0  0  0  0  0  0  0  0  0  0  0
   -2.8209   -1.0919   -0.3886 H   0  0  0  0  0  0  0  0  0  0  0  0
   -2.2403    2.5142    0.0377 H   0  0  0  0  0  0  0  0  0  0  0  0
   -3.4347    1.2704   -0.2665 H   0  0  0  0  0  0  0  0  0  0  0  0
  1  6  1  0  0  0  0
  1 19  1  0  0  0  0
  1 20  1  0  0  0  0
  2  3  1  0  0  0  0
  2  4  2  0  0  0  0
  2  5  1  0  0  0  0
  3  7  1  0  0  0  0
  3 10  1  0  0  0  0
  3 11  1  0  0  0  0
  4  6  1  0  0  0  0
  4 12  1  0  0  0  0
  5  8  2  0  0  0  0
  5 13  1  0  0  0  0
  6  9  2  0  0  0  0
  7 14  1  0  0  0  0
  7 15  1  0  0  0  0
  7 16  1  0  0  0  0
  8  9  1  0  0  0  0
  8 17  1  0  0  0  0
  9 18  1  0  0  0  0
M  END
> <PUBCHEM_COMPOUND_CID>
11475

> <PUBCHEM_CONFORMER_RMSD>
0.4

> <PUBCHEM_CONFORMER_DIVERSEORDER>
1
2
3
4

> <PUBCHEM_MMFF94_PARTIAL_CHARGES>
14
1 -0.9
12 0.15
13 0.15
17 0.15
18 0.15
19 0.4
2 -0.14
20 0.4
3 0.14
4 -0.15
5 -0.15
6 0.1
8 -0.15
9 -0.15

> <PUBCHEM_EFFECTIVE_ROTOR_COUNT>
1

> <PUBCHEM_PHARMACOPHORE_FEATURES>
4
1 1 cation
1 1 donor
1 7 hydrophobe
6 2 4 5 6 8 9 rings

> <PUBCHEM_HEAVY_ATOM_COUNT>
9

> <PUBCHEM_ATOM_DEF_STEREO_COUNT>
0

> <PUBCHEM_ATOM_UDEF_STEREO_COUNT>
0

> <PUBCHEM_BOND_DEF_STEREO_COUNT>
0

> <PUBCHEM_BOND_UDEF_STEREO_COUNT>
0

> <PUBCHEM_ISOTOPIC_ATOM_COUNT>
0

> <PUBCHEM_COMPONENT_COUNT>
1

> <PUBCHEM_CACTVS_TAUTO_COUNT>
1

> <PUBCHEM_CONFORMER_ID>
00002CD300000001

> <PUBCHEM_MMFF94_ENERGY>
28.3618

> <PUBCHEM_FEATURE_SELFOVERLAP>
20.297

> <PUBCHEM_SHAPE_FINGERPRINT>
11206711 2 18337402534611477149
12716758 59 18334574629428185754
14325111 11 18411138043554698408
16714656 1 18337952273024098822
16945 1 18337961064758928267
20645464 45 17822867372538228000
20653085 51 18272071795783482524
21040471 1 18337117846688044362
23235685 24 18410015463409759657
23552423 10 18343305898498907002
2748010 2 18337670931296986423
29004967 10 16009022839963791946
369184 2 18187649050908444082
5084963 1 18041839498018031906

> <PUBCHEM_SHAPE_MULTIPOLES>
180.23
3.58
1.65
0.73
1.92
0.3
0.02
-1.26
0.58
-0.91
0.05
0.28
-0.02
-0.11

> <PUBCHEM_SHAPE_SELFOVERLAP>
366.981

> <PUBCHEM_SHAPE_VOLUME>
105.6

> <PUBCHEM_COORDINATE_TYPE>
2
5
10

$$$$

