4040
  -OEChem-06251223503D

 17 16  0     1  0  0  0  0  0999 V2000
    3.1571    0.8859   -0.0292 S   0  0  0  0  0  0  0  0  0  0  0  0
   -1.4224    0.8692    0.2924 O   0  0  0  0  0  0  0  0  0  0  0  0
   -1.3630   -1.3228   -0.4210 O   0  0  0  0  0  0  0  0  0  0  0  0
    1.2176   -1.5752    0.1796 N   0  0  0  0  0  0  0  0  0  0  0  0
    0.6532   -0.2443    0.4171 C   0  0  1  0  0  0  0  0  0  0  0  0
    1.3886    0.7799   -0.4486 C   0  0  0  0  0  0  0  0  0  0  0  0
   -0.8177   -0.3308    0.0469 C   0  0  0  0  0  0  0  0  0  0  0  0
   -2.8134    0.9382   -0.0372 C   0  0  0  0  0  0  0  0  0  0  0  0
    0.7220   -0.0092    1.4852 H   0  0  0  0  0  0  0  0  0  0  0  0
    1.2967    0.5381   -1.5140 H   0  0  0  0  0  0  0  0  0  0  0  0
    0.9566    1.7771   -0.3118 H   0  0  0  0  0  0  0  0  0  0  0  0
    2.2061   -1.5713    0.4299 H   0  0  0  0  0  0  0  0  0  0  0  0
    1.1854   -1.7933   -0.8162 H   0  0  0  0  0  0  0  0  0  0  0  0
    2.9906    1.2674    1.2457 H   0  0  0  0  0  0  0  0  0  0  0  0
   -3.3791    0.2112    0.5533 H   0  0  0  0  0  0  0  0  0  0  0  0
   -2.9578    0.7639   -1.1077 H   0  0  0  0  0  0  0  0  0  0  0  0
   -3.1709    1.9422    0.2061 H   0  0  0  0  0  0  0  0  0  0  0  0
  1  6  1  0  0  0  0
  1 14  1  0  0  0  0
  2  7  1  0  0  0  0
  2  8  1  0  0  0  0
  3  7  2  0  0  0  0
  4  5  1  0  0  0  0
  4 12  1  0  0  0  0
  4 13  1  0  0  0  0
  5  6  1  0  0  0  0
  5  7  1  0  0  0  0
  5  9  1  0  0  0  0
  6 10  1  0  0  0  0
  6 11  1  0  0  0  0
  8 15  1  0  0  0  0
  8 16  1  0  0  0  0
  8 17  1  0  0  0  0
M  END
> <PUBCHEM_COMPOUND_CID>
4040

> <PUBCHEM_CONFORMER_RMSD>
0.6

> <PUBCHEM_CONFORMER_DIVERSEORDER>
3
15
10
2
6
12
14
11
4
9
1
13
5
8
7

> <PUBCHEM_MMFF94_PARTIAL_CHARGES>
11
1 -0.41
12 0.36
13 0.36
14 0.18
2 -0.43
3 -0.57
4 -0.99
5 0.33
6 0.23
7 0.66
8 0.28

> <PUBCHEM_EFFECTIVE_ROTOR_COUNT>
3

> <PUBCHEM_PHARMACOPHORE_FEATURES>
3
1 3 acceptor
1 4 cation
1 4 donor

> <PUBCHEM_HEAVY_ATOM_COUNT>
8

> <PUBCHEM_ATOM_DEF_STEREO_COUNT>
0

> <PUBCHEM_ATOM_UDEF_STEREO_COUNT>
1

> <PUBCHEM_BOND_DEF_STEREO_COUNT>
0

> <PUBCHEM_BOND_UDEF_STEREO_COUNT>
0

> <PUBCHEM_ISOTOPIC_ATOM_COUNT>
0

> <PUBCHEM_COMPONENT_COUNT>
1

> <PUBCHEM_CACTVS_TAUTO_COUNT>
1

> <PUBCHEM_CONFORMER_ID>
00000FC800000003

> <PUBCHEM_MMFF94_ENERGY>
10.1873

> <PUBCHEM_FEATURE_SELFOVERLAP>
15.223

> <PUBCHEM_SHAPE_FINGERPRINT>
14325111 11 18339360769321442728
14390081 3 18334858307449098544
20096714 4 18412822516558373161
20653085 51 18339345376047994520
21040471 1 18335987540287161321
23235685 24 18343304751526127168
23552423 10 18339367469080391687
29004967 10 12535358882793416956
5084963 1 18043242436437836184

> <PUBCHEM_SHAPE_MULTIPOLES>
151.77
4.19
1.43
0.67
0.83
0.4
0.01
-1.93
0.11
-0.08
0.04
0.06
-0.02
-0.2

> <PUBCHEM_SHAPE_SELFOVERLAP>
269.687

> <PUBCHEM_SHAPE_VOLUME>
100.8

> <PUBCHEM_COORDINATE_TYPE>
2
5
10

$$$$

