17395518
  -OEChem-06241222503D

 35 36  0     1  0  0  0  0  0999 V2000
    6.0959   -1.5233   -1.0563 F   0  0  0  0  0  0  0  0  0  0  0  0
    1.6627    1.0088    0.9913 O   0  0  0  0  0  0  0  0  0  0  0  0
   -0.6006   -0.1540    1.7163 O   0  0  0  0  0  0  0  0  0  0  0  0
   -1.7265    0.5340   -0.2257 N   0  0  0  0  0  0  0  0  0  0  0  0
   -3.2371   -0.7733    1.0437 N   0  0  0  0  0  0  0  0  0  0  0  0
    0.5677    1.2006    0.1096 C   0  0  1  0  0  0  0  0  0  0  0  0
   -0.6464    0.4467    0.6467 C   0  0  0  0  0  0  0  0  0  0  0  0
    0.2878    2.6897   -0.0284 C   0  0  0  0  0  0  0  0  0  0  0  0
   -3.0075   -0.0482   -0.0741 C   0  0  0  0  0  0  0  0  0  0  0  0
   -3.9464    0.1563   -1.0724 C   0  0  0  0  0  0  0  0  0  0  0  0
    2.7679    0.3775    0.4800 C   0  0  0  0  0  0  0  0  0  0  0  0
   -5.2017   -0.4203   -0.9133 C   0  0  0  0  0  0  0  0  0  0  0  0
   -3.6565    0.9632   -2.2921 C   0  0  0  0  0  0  0  0  0  0  0  0
    2.6596   -0.9179   -0.0260 C   0  0  0  0  0  0  0  0  0  0  0  0
    4.0004    1.0304    0.4674 C   0  0  0  0  0  0  0  0  0  0  0  0
   -5.4758   -1.1730    0.2231 C   0  0  0  0  0  0  0  0  0  0  0  0
   -4.4686   -1.3182    1.1635 C   0  0  0  0  0  0  0  0  0  0  0  0
    3.7839   -1.5601   -0.5448 C   0  0  0  0  0  0  0  0  0  0  0  0
    5.1247    0.3882   -0.0513 C   0  0  0  0  0  0  0  0  0  0  0  0
    5.0163   -0.9071   -0.5574 C   0  0  0  0  0  0  0  0  0  0  0  0
    0.7862    0.8063   -0.8928 H   0  0  0  0  0  0  0  0  0  0  0  0
    1.1951    3.2222   -0.3342 H   0  0  0  0  0  0  0  0  0  0  0  0
   -0.4973    2.9042   -0.7591 H   0  0  0  0  0  0  0  0  0  0  0  0
   -0.0200    3.1157    0.9334 H   0  0  0  0  0  0  0  0  0  0  0  0
   -1.5748    1.0560   -1.0833 H   0  0  0  0  0  0  0  0  0  0  0  0
   -5.9765   -0.2929   -1.6643 H   0  0  0  0  0  0  0  0  0  0  0  0
   -3.3973    1.9927   -2.0234 H   0  0  0  0  0  0  0  0  0  0  0  0
   -2.8388    0.5159   -2.8671 H   0  0  0  0  0  0  0  0  0  0  0  0
   -4.5255    1.0151   -2.9576 H   0  0  0  0  0  0  0  0  0  0  0  0
    1.7085   -1.4431   -0.0143 H   0  0  0  0  0  0  0  0  0  0  0  0
    4.0903    2.0396    0.8599 H   0  0  0  0  0  0  0  0  0  0  0  0
   -6.4472   -1.6318    0.3684 H   0  0  0  0  0  0  0  0  0  0  0  0
   -4.6316   -1.8958    2.0674 H   0  0  0  0  0  0  0  0  0  0  0  0
    3.7005   -2.5693   -0.9371 H   0  0  0  0  0  0  0  0  0  0  0  0
    6.0843    0.8964   -0.0616 H   0  0  0  0  0  0  0  0  0  0  0  0
  1 20  1  0  0  0  0
  2  6  1  0  0  0  0
  2 11  1  0  0  0  0
  3  7  2  0  0  0  0
  4  7  1  0  0  0  0
  4  9  1  0  0  0  0
  4 25  1  0  0  0  0
  5  9  1  0  0  0  0
  5 17  2  0  0  0  0
  6  7  1  0  0  0  0
  6  8  1  0  0  0  0
  6 21  1  0  0  0  0
  8 22  1  0  0  0  0
  8 23  1  0  0  0  0
  8 24  1  0  0  0  0
  9 10  2  0  0  0  0
 10 12  1  0  0  0  0
 10 13  1  0  0  0  0
 11 14  2  0  0  0  0
 11 15  1  0  0  0  0
 12 16  2  0  0  0  0
 12 26  1  0  0  0  0
 13 27  1  0  0  0  0
 13 28  1  0  0  0  0
 13 29  1  0  0  0  0
 14 18  1  0  0  0  0
 14 30  1  0  0  0  0
 15 19  2  0  0  0  0
 15 31  1  0  0  0  0
 16 17  1  0  0  0  0
 16 32  1  0  0  0  0
 17 33  1  0  0  0  0
 18 20  2  0  0  0  0
 18 34  1  0  0  0  0
 19 20  1  0  0  0  0
 19 35  1  0  0  0  0
M  END
> <PUBCHEM_COMPOUND_CID>
17395518

> <PUBCHEM_CONFORMER_RMSD>
0.8

> <PUBCHEM_CONFORMER_DIVERSEORDER>
1
8
71
70
61
67
72
48
5
46
55
47
12
53
54
37
52
22
18
58
17
16
69
73
65
38
49
66
63
51
62
26
28
14
21
19
57
68
11
41
64
34
15
24
31
25
33
20
23
43
35
6
60
30
36
32
27
13
50
39
59
45
40
29
3
56
2
44
9
10
42
7
4

> <PUBCHEM_MMFF94_PARTIAL_CHARGES>
27
1 -0.19
10 -0.14
11 0.08
12 -0.15
13 0.14
14 -0.15
15 -0.15
16 -0.15
17 0.16
18 -0.15
19 -0.15
2 -0.36
20 0.19
25 0.37
26 0.15
3 -0.57
30 0.15
31 0.15
32 0.15
33 0.15
34 0.15
35 0.15
4 -0.55
5 -0.62
6 0.34
7 0.57
9 0.43

> <PUBCHEM_EFFECTIVE_ROTOR_COUNT>
5

> <PUBCHEM_PHARMACOPHORE_FEATURES>
6
1 2 acceptor
1 3 acceptor
1 4 donor
1 5 acceptor
6 11 14 15 18 19 20 rings
6 5 9 10 12 16 17 rings

> <PUBCHEM_HEAVY_ATOM_COUNT>
20

> <PUBCHEM_ATOM_DEF_STEREO_COUNT>
0

> <PUBCHEM_ATOM_UDEF_STEREO_COUNT>
1

> <PUBCHEM_BOND_DEF_STEREO_COUNT>
0

> <PUBCHEM_BOND_UDEF_STEREO_COUNT>
0

> <PUBCHEM_ISOTOPIC_ATOM_COUNT>
0

> <PUBCHEM_COMPONENT_COUNT>
1

> <PUBCHEM_CACTVS_TAUTO_COUNT>
3

> <PUBCHEM_CONFORMER_ID>
01096F3E00000001

> <PUBCHEM_MMFF94_ENERGY>
58.1992

> <PUBCHEM_FEATURE_SELFOVERLAP>
30.459

> <PUBCHEM_SHAPE_FINGERPRINT>
10912923 1 15936694770033461392
11089746 13 14979951459455799222
12236239 1 17022902328788473331
12390115 104 17773608298812203373
12403259 118 6266892480965653763
12596602 18 14707215409325853898
12616971 3 16950565467160366388
12633257 1 14996284704021656337
12670546 177 17632856412597110765
13103583 49 16298102069088287535
13167823 11 17022904536169580785
13402501 40 18341326721671265795
13533116 47 17822293427067894657
13544653 18 18113336414130006992
13668630 136 18259703385108905783
13685833 64 18335698317564261499
13914758 101 17022901285939835817
13955234 65 17968665896021644440
14178342 30 13912598326088654173
14341114 328 15213018232775932674
14386348 63 18341894073828450227
14528608 73 15554445176281660190
14573314 32 17988928885381417447
14840074 17 17749388143951018308
15188451 53 13984962713708688693
15348495 7 6483343439658642374
15537594 2 17894914001556434398
15788980 27 17603587422061907721
15961568 22 16772952476645716548
17844677 252 18261107469852376761
17870717 6 17989205949986001063
1813 80 17749095686722248036
193927 3 18041549312995448398
19489759 90 17131835373594647791
19784866 240 18260821592686570809
200 152 17894631465490640704
20325693 3 17203330018459772223
20645477 70 18407762521466868792
20871999 31 17704352194953588477
21033650 10 16772948275998258452
21267235 1 18040425616976638414
22061861 79 18409169917440351302
221357 26 18273222976063138325
2215653 11 18412272727049411319
2297311 6 17703789207104830983
23175994 123 18410294684030072737
23198884 109 15913606181375767790
23366157 5 15408954636877868923
23402539 116 18261670462617970352
23402655 69 13038902222955254026
23557571 272 17846784009189322541
23559900 14 18201441315945716729
239999 70 18341613694680141450
2767999 5 12967129385164862870
2838139 119 13686297980704378118
2871803 45 18411699915782564890
3004659 81 18202563995233384978
314194 84 17967253087576939782
3411729 13 13841132230673026402
34797466 226 17845928550635640500
351380 180 9871752390213239410
351380 3 17313105254385862702
4259306 186 18260548969848557910
46194498 28 17988642922132520189
465052 167 17821725018606490606
4990 188 18060424598860124161
5104073 3 18114184202705048880
5281201 14 18202284679939688605
5283173 99 17917436466232817388
559249 180 16515684464270066079
56616090 284 18202279230021374178
573450 72 15285360592015107869
5924683 9 6771567227678954597

> <PUBCHEM_SHAPE_MULTIPOLES>
382.62
13.97
1.75
1.37
2.72
0.61
-0.32
-6.3
-3.88
0.56
-0.06
-1.12
0.05
2.04

> <PUBCHEM_SHAPE_SELFOVERLAP>
810.604

> <PUBCHEM_SHAPE_VOLUME>
214.3

> <PUBCHEM_COORDINATE_TYPE>
2
5
10

$$$$

