9010
  -OEChem-06261203192D

 25 21  0     0  0  0  0  0  0999 V2000
    6.3301    1.2500    0.0000 Bi  0  0  0  0  0  0  0  0  0  0  0  0
    7.1962    1.7500    0.0000 S   0  0  0  0  0  0  0  0  0  0  0  0
    5.4641    1.7500    0.0000 S   0  0  0  0  0  0  0  0  0  0  0  0
    6.3301    0.2500    0.0000 S   0  0  0  0  0  0  0  0  0  0  0  0
   10.6603    1.7500    0.0000 Na  0  3  0  0  0  0  0  0  0  0  0  0
    2.0000    1.7500    0.0000 Na  0  3  0  0  0  0  0  0  0  0  0  0
    4.5981   -2.7500    0.0000 Na  0  3  0  0  0  0  0  0  0  0  0  0
    9.7942    1.2500    0.0000 O   0  5  0  0  0  0  0  0  0  0  0  0
    2.8660    1.2500    0.0000 O   0  5  0  0  0  0  0  0  0  0  0  0
    4.5981   -1.7500    0.0000 O   0  5  0  0  0  0  0  0  0  0  0  0
    8.9282    2.7500    0.0000 O   0  0  0  0  0  0  0  0  0  0  0  0
    3.7320    2.7500    0.0000 O   0  0  0  0  0  0  0  0  0  0  0  0
    6.3301   -1.7500    0.0000 O   0  0  0  0  0  0  0  0  0  0  0  0
    8.0622    1.2500    0.0000 C   0  0  0  0  0  0  0  0  0  0  0  0
    4.5981    1.2500    0.0000 C   0  0  0  0  0  0  0  0  0  0  0  0
    5.4641   -0.2500    0.0000 C   0  0  0  0  0  0  0  0  0  0  0  0
    8.9282    1.7500    0.0000 C   0  0  0  0  0  0  0  0  0  0  0  0
    3.7320    1.7500    0.0000 C   0  0  0  0  0  0  0  0  0  0  0  0
    5.4641   -1.2500    0.0000 C   0  0  0  0  0  0  0  0  0  0  0  0
    7.6636    0.7751    0.0000 H   0  0  0  0  0  0  0  0  0  0  0  0
    8.4607    0.7751    0.0000 H   0  0  0  0  0  0  0  0  0  0  0  0
    4.1996    0.7751    0.0000 H   0  0  0  0  0  0  0  0  0  0  0  0
    4.9966    0.7751    0.0000 H   0  0  0  0  0  0  0  0  0  0  0  0
    5.2520    0.3326    0.0000 H   0  0  0  0  0  0  0  0  0  0  0  0
    4.8535   -0.3577    0.0000 H   0  0  0  0  0  0  0  0  0  0  0  0
  1  2  1  0  0  0  0
  1  3  1  0  0  0  0
  1  4  1  0  0  0  0
  2 14  1  0  0  0  0
  3 15  1  0  0  0  0
  4 16  1  0  0  0  0
  8 17  1  0  0  0  0
  9 18  1  0  0  0  0
 10 19  1  0  0  0  0
 11 17  2  0  0  0  0
 12 18  2  0  0  0  0
 13 19  2  0  0  0  0
 14 17  1  0  0  0  0
 14 20  1  0  0  0  0
 14 21  1  0  0  0  0
 15 18  1  0  0  0  0
 15 22  1  0  0  0  0
 15 23  1  0  0  0  0
 16 19  1  0  0  0  0
 16 24  1  0  0  0  0
 16 25  1  0  0  0  0
M  CHG  6   5   1   6   1   7   1   8  -1   9  -1  10  -1
M  END
> <PUBCHEM_COMPOUND_CID>
9010

> <PUBCHEM_COMPOUND_CANONICALIZED>
1

> <PUBCHEM_CACTVS_COMPLEXITY>
214

> <PUBCHEM_CACTVS_HBOND_ACCEPTOR>
9

> <PUBCHEM_CACTVS_HBOND_DONOR>
0

> <PUBCHEM_CACTVS_ROTATABLE_BOND>
6

> <PUBCHEM_CACTVS_SUBSKEYS>
AAADcYBgODBgAAAAAAAAACAAAAAAAAAAAAAAAAAAAAAAAAAAAAAAGgQAAAAAAACEwACACAAAAAAIAACQCAAAAAAAAAAAAAAAAAAAAAAAAAAAAAAAAAAAAAAAAAAAAAAAAAAAAAAAAAAAAAAAAAAAAAAAAA==

> <PUBCHEM_IUPAC_OPENEYE_NAME>
trisodium 2-[bis(carboxylatomethylsulfanyl)bismuthanylsulfanyl]acetate

> <PUBCHEM_IUPAC_CAS_NAME>
trisodium 2-[bis(carboxylatomethylthio)bismuthinothio]acetate

> <PUBCHEM_IUPAC_NAME>
trisodium 2-[bis(carboxylatomethylsulfanyl)bismuthanylsulfanyl]acetate

> <PUBCHEM_IUPAC_SYSTEMATIC_NAME>
trisodium 2-bis[(2-oxidanidyl-2-oxidanylidene-ethyl)sulfanyl]bismuthanylsulfanylethanoate

> <PUBCHEM_IUPAC_TRADITIONAL_NAME>
trisodium 2-[bis(carboxylatomethylthio)bismuthinothio]acetate

> <PUBCHEM_IUPAC_INCHI>
InChI=1S/3C2H4O2S.Bi.3Na/c3*3-2(4)1-5;;;;/h3*5H,1H2,(H,3,4);;;;/q;;;+3;3*+1/p-6

> <PUBCHEM_IUPAC_INCHIKEY>
WFPLKLBJDHWTHE-UHFFFAOYSA-H

> <PUBCHEM_EXACT_MASS>
547.882357

> <PUBCHEM_MOLECULAR_FORMULA>
C6H6BiNa3O6S3

> <PUBCHEM_MOLECULAR_WEIGHT>
548.252948

> <PUBCHEM_OPENEYE_CAN_SMILES>
C(C(=O)[O-])S[Bi](SCC(=O)[O-])SCC(=O)[O-].[Na+].[Na+].[Na+]

> <PUBCHEM_OPENEYE_ISO_SMILES>
C(C(=O)[O-])S[Bi](SCC(=O)[O-])SCC(=O)[O-].[Na+].[Na+].[Na+]

> <PUBCHEM_CACTVS_TPSA>
196

> <PUBCHEM_MONOISOTOPIC_WEIGHT>
547.882357

> <PUBCHEM_TOTAL_CHARGE>
0

> <PUBCHEM_HEAVY_ATOM_COUNT>
19

> <PUBCHEM_ATOM_DEF_STEREO_COUNT>
0

> <PUBCHEM_ATOM_UDEF_STEREO_COUNT>
0

> <PUBCHEM_BOND_DEF_STEREO_COUNT>
0

> <PUBCHEM_BOND_UDEF_STEREO_COUNT>
0

> <PUBCHEM_ISOTOPIC_ATOM_COUNT>
0

> <PUBCHEM_COMPONENT_COUNT>
4

> <PUBCHEM_CACTVS_TAUTO_COUNT>
1

> <PUBCHEM_COORDINATE_TYPE>
1
5
255

$$$$

