17395871
  -OEChem-06241222522D

 48 50  0     1  0  0  0  0  0999 V2000
    4.2788    1.5794    0.0000 O   0  0  0  0  0  0  0  0  0  0  0  0
    6.3479   -1.2685    0.0000 O   0  0  0  0  0  0  0  0  0  0  0  0
    4.5878   -0.9897    0.0000 N   0  0  0  0  0  0  0  0  0  0  0  0
    5.5388    0.3193    0.0000 N   0  0  0  0  0  0  0  0  0  0  0  0
    7.2614    0.5003    0.0000 N   0  0  3  0  0  0  0  0  0  0  0  0
    4.0000   -0.1807    0.0000 C   0  0  0  0  0  0  0  0  0  0  0  0
    3.5000   -1.0467    0.0000 C   0  0  0  0  0  0  0  0  0  0  0  0
    3.5000    0.6853    0.0000 C   0  0  0  0  0  0  0  0  0  0  0  0
    2.5000    0.6853    0.0000 C   0  0  0  0  0  0  0  0  0  0  0  0
    2.5000   -1.0467    0.0000 C   0  0  0  0  0  0  0  0  0  0  0  0
    2.0000   -0.1807    0.0000 C   0  0  0  0  0  0  0  0  0  0  0  0
    4.5878    0.6283    0.0000 C   0  0  0  0  0  0  0  0  0  0  0  0
    5.5388   -0.6807    0.0000 C   0  0  0  0  0  0  0  0  0  0  0  0
    6.3479    0.9071    0.0000 C   0  0  0  0  0  0  0  0  0  0  0  0
    8.0704    1.0881    0.0000 C   0  0  0  0  0  0  0  0  0  0  0  0
    7.3659   -0.4942    0.0000 C   0  0  0  0  0  0  0  0  0  0  0  0
    8.9840    0.6814    0.0000 C   0  0  0  0  0  0  0  0  0  0  0  0
    9.7930    1.2692    0.0000 C   0  0  0  0  0  0  0  0  0  0  0  0
    9.0885   -0.3131    0.0000 C   0  0  0  0  0  0  0  0  0  0  0  0
   10.7065    0.8624    0.0000 C   0  0  0  0  0  0  0  0  0  0  0  0
   10.0020   -0.7199    0.0000 C   0  0  0  0  0  0  0  0  0  0  0  0
   10.8111   -0.1321    0.0000 C   0  0  0  0  0  0  0  0  0  0  0  0
   11.7246   -0.5388    0.0000 C   0  0  0  0  0  0  0  0  0  0  0  0
    3.3923   -1.6573    0.0000 H   0  0  0  0  0  0  0  0  0  0  0  0
    4.0826   -1.2588    0.0000 H   0  0  0  0  0  0  0  0  0  0  0  0
    4.0826    0.8974    0.0000 H   0  0  0  0  0  0  0  0  0  0  0  0
    3.3923    1.2959    0.0000 H   0  0  0  0  0  0  0  0  0  0  0  0
    1.9174   -1.2588    0.0000 H   0  0  0  0  0  0  0  0  0  0  0  0
    2.6077   -1.6573    0.0000 H   0  0  0  0  0  0  0  0  0  0  0  0
    2.6077    1.2959    0.0000 H   0  0  0  0  0  0  0  0  0  0  0  0
    1.9174    0.8974    0.0000 H   0  0  0  0  0  0  0  0  0  0  0  0
    1.5250    0.2178    0.0000 H   0  0  0  0  0  0  0  0  0  0  0  0
    1.5250   -0.5792    0.0000 H   0  0  0  0  0  0  0  0  0  0  0  0
    4.3962   -1.5794    0.0000 H   0  0  0  0  0  0  0  0  0  0  0  0
    6.6946    1.4211    0.0000 H   0  0  0  0  0  0  0  0  0  0  0  0
    5.9019    1.3378    0.0000 H   0  0  0  0  0  0  0  0  0  0  0  0
    8.4171    1.6021    0.0000 H   0  0  0  0  0  0  0  0  0  0  0  0
    7.6244    1.5188    0.0000 H   0  0  0  0  0  0  0  0  0  0  0  0
    6.7493   -0.5590    0.0000 H   0  0  0  0  0  0  0  0  0  0  0  0
    7.4307   -1.1108    0.0000 H   0  0  0  0  0  0  0  0  0  0  0  0
    7.9825   -0.4294    0.0000 H   0  0  0  0  0  0  0  0  0  0  0  0
    9.7282    1.8858    0.0000 H   0  0  0  0  0  0  0  0  0  0  0  0
    8.5869   -0.6776    0.0000 H   0  0  0  0  0  0  0  0  0  0  0  0
   11.2081    1.2269    0.0000 H   0  0  0  0  0  0  0  0  0  0  0  0
   10.0668   -1.3365    0.0000 H   0  0  0  0  0  0  0  0  0  0  0  0
   11.4724   -1.1052    0.0000 H   0  0  0  0  0  0  0  0  0  0  0  0
   12.2910   -0.7910    0.0000 H   0  0  0  0  0  0  0  0  0  0  0  0
   11.9768    0.0276    0.0000 H   0  0  0  0  0  0  0  0  0  0  0  0
  1 12  2  0  0  0  0
  2 13  2  0  0  0  0
  3  6  1  0  0  0  0
  3 13  1  0  0  0  0
  3 34  1  0  0  0  0
  4 12  1  0  0  0  0
  4 13  1  0  0  0  0
  4 14  1  0  0  0  0
  5 14  1  0  0  0  0
  5 15  1  0  0  0  0
  5 16  1  0  0  0  0
  6  7  1  0  0  0  0
  6  8  1  0  0  0  0
  6 12  1  0  0  0  0
  7 10  1  0  0  0  0
  7 24  1  0  0  0  0
  7 25  1  0  0  0  0
  8  9  1  0  0  0  0
  8 26  1  0  0  0  0
  8 27  1  0  0  0  0
  9 11  1  0  0  0  0
  9 30  1  0  0  0  0
  9 31  1  0  0  0  0
 10 11  1  0  0  0  0
 10 28  1  0  0  0  0
 10 29  1  0  0  0  0
 11 32  1  0  0  0  0
 11 33  1  0  0  0  0
 14 35  1  0  0  0  0
 14 36  1  0  0  0  0
 15 17  1  0  0  0  0
 15 37  1  0  0  0  0
 15 38  1  0  0  0  0
 16 39  1  0  0  0  0
 16 40  1  0  0  0  0
 16 41  1  0  0  0  0
 17 18  2  0  0  0  0
 17 19  1  0  0  0  0
 18 20  1  0  0  0  0
 18 42  1  0  0  0  0
 19 21  2  0  0  0  0
 19 43  1  0  0  0  0
 20 22  2  0  0  0  0
 20 44  1  0  0  0  0
 21 22  1  0  0  0  0
 21 45  1  0  0  0  0
 22 23  1  0  0  0  0
 23 46  1  0  0  0  0
 23 47  1  0  0  0  0
 23 48  1  0  0  0  0
M  END
> <PUBCHEM_COMPOUND_CID>
17395871

> <PUBCHEM_COMPOUND_CANONICALIZED>
1

> <PUBCHEM_CACTVS_COMPLEXITY>
451

> <PUBCHEM_CACTVS_HBOND_ACCEPTOR>
3

> <PUBCHEM_CACTVS_HBOND_DONOR>
1

> <PUBCHEM_CACTVS_ROTATABLE_BOND>
4

> <PUBCHEM_CACTVS_SUBSKEYS>
AAADceB7MAAAAAAAAAAAAAAAAAAAAWAAAAAwYAAAAAAAAAABAAAAHgAQAAAADIjBmAQzAIPAAACIAiFSEACCAAAgAAAIiAGIBIiIYDKAkTGUIAholyIIiAcYiACOQAAAAAAAAACAAAAAAAAAAAAAAAAAAA==

> <PUBCHEM_IUPAC_OPENEYE_NAME>
3-[[methyl(p-tolylmethyl)amino]methyl]-1,3-diazaspiro[4.5]decane-2,4-dione

> <PUBCHEM_IUPAC_CAS_NAME>
3-[[methyl-[(4-methylphenyl)methyl]amino]methyl]-1,3-diazaspiro[4.5]decane-2,4-dione

> <PUBCHEM_IUPAC_NAME>
3-[[methyl-[(4-methylphenyl)methyl]amino]methyl]-1,3-diazaspiro[4.5]decane-2,4-dione

> <PUBCHEM_IUPAC_SYSTEMATIC_NAME>
3-[[methyl-[(4-methylphenyl)methyl]amino]methyl]-1,3-diazaspiro[4.5]decane-2,4-dione

> <PUBCHEM_IUPAC_TRADITIONAL_NAME>
3-[[methyl-(4-methylbenzyl)amino]methyl]-1,3-diazaspiro[4.5]decane-2,4-quinone

> <PUBCHEM_IUPAC_INCHI>
InChI=1S/C18H25N3O2/c1-14-6-8-15(9-7-14)12-20(2)13-21-16(22)18(19-17(21)23)10-4-3-5-11-18/h6-9H,3-5,10-13H2,1-2H3,(H,19,23)

> <PUBCHEM_IUPAC_INCHIKEY>
RTHMXBGZZJNXAL-UHFFFAOYSA-N

> <PUBCHEM_XLOGP3_AA>
2.7

> <PUBCHEM_EXACT_MASS>
315.194677

> <PUBCHEM_MOLECULAR_FORMULA>
C18H25N3O2

> <PUBCHEM_MOLECULAR_WEIGHT>
315.41

> <PUBCHEM_OPENEYE_CAN_SMILES>
CC1=CC=C(C=C1)CN(C)CN2C(=O)C3(CCCCC3)NC2=O

> <PUBCHEM_OPENEYE_ISO_SMILES>
CC1=CC=C(C=C1)CN(C)CN2C(=O)C3(CCCCC3)NC2=O

> <PUBCHEM_CACTVS_TPSA>
52.6

> <PUBCHEM_MONOISOTOPIC_WEIGHT>
315.194677

> <PUBCHEM_TOTAL_CHARGE>
0

> <PUBCHEM_HEAVY_ATOM_COUNT>
23

> <PUBCHEM_ATOM_DEF_STEREO_COUNT>
0

> <PUBCHEM_ATOM_UDEF_STEREO_COUNT>
0

> <PUBCHEM_BOND_DEF_STEREO_COUNT>
0

> <PUBCHEM_BOND_UDEF_STEREO_COUNT>
0

> <PUBCHEM_ISOTOPIC_ATOM_COUNT>
0

> <PUBCHEM_COMPONENT_COUNT>
1

> <PUBCHEM_CACTVS_TAUTO_COUNT>
2

> <PUBCHEM_COORDINATE_TYPE>
1
5
255

> <PUBCHEM_BONDANNOTATIONS>
17  18  8
17  19  8
18  20  8
19  21  8
20  22  8
21  22  8

$$$$

