5867
  -OEChem-06261200573D

 56 59  0     1  0  0  0  0  0999 V2000
    2.9859    0.2360    1.9879 O   0  0  0  0  0  0  0  0  0  0  0  0
   -0.3954   -2.4000   -1.1539 O   0  0  0  0  0  0  0  0  0  0  0  0
    5.3322    0.5665   -0.2330 O   0  0  0  0  0  0  0  0  0  0  0  0
   -5.4195   -0.2167    2.3452 O   0  0  0  0  0  0  0  0  0  0  0  0
    5.8075   -2.0202    0.5939 O   0  0  0  0  0  0  0  0  0  0  0  0
    0.8650    1.1877    0.1926 C   0  0  2  0  0  0  0  0  0  0  0  0
    1.8521    0.0600   -0.2040 C   0  0  1  0  0  0  0  0  0  0  0  0
   -0.4869    1.0895   -0.5324 C   0  0  1  0  0  0  0  0  0  0  0  0
   -1.1538   -0.2827   -0.1737 C   0  0  1  0  0  0  0  0  0  0  0  0
    3.0989    0.5170    0.5961 C   0  0  1  0  0  0  0  0  0  0  0  0
   -2.5802   -0.4449   -0.8049 C   0  0  2  0  0  0  0  0  0  0  0  0
    1.6891    2.4607    0.0196 C   0  0  0  0  0  0  0  0  0  0  0  0
    1.2217   -1.2777    0.2009 C   0  0  0  0  0  0  0  0  0  0  0  0
    3.1197    2.0512    0.4211 C   0  0  0  0  0  0  0  0  0  0  0  0
   -1.4019    2.2736   -0.1761 C   0  0  0  0  0  0  0  0  0  0  0  0
   -0.1428   -1.4133   -0.4658 C   0  0  0  0  0  0  0  0  0  0  0  0
   -3.3791    0.8007   -0.3827 C   0  0  0  0  0  0  0  0  0  0  0  0
    2.1702    0.0271   -1.7258 C   0  0  0  0  0  0  0  0  0  0  0  0
   -2.7939    2.1295   -0.7874 C   0  0  0  0  0  0  0  0  0  0  0  0
   -3.2977   -1.7458   -0.3215 C   0  0  0  0  0  0  0  0  0  0  0  0
   -2.5254   -0.5192   -2.3511 C   0  0  0  0  0  0  0  0  0  0  0  0
    4.3963   -0.1128    0.1865 C   0  0  0  0  0  0  0  0  0  0  0  0
   -3.9579   -1.6037    1.0431 C   0  0  0  0  0  0  0  0  0  0  0  0
   -4.4759    0.7557    0.3962 C   0  0  0  0  0  0  0  0  0  0  0  0
   -5.0104   -0.4997    1.0100 C   0  0  2  0  0  0  0  0  0  0  0  0
    4.4821   -1.6185    0.3191 C   0  0  0  0  0  0  0  0  0  0  0  0
    0.6501    1.1033    1.2705 H   0  0  0  0  0  0  0  0  0  0  0  0
   -0.3080    1.1372   -1.6120 H   0  0  0  0  0  0  0  0  0  0  0  0
   -1.2834   -0.3110    0.9194 H   0  0  0  0  0  0  0  0  0  0  0  0
    1.3190    3.2744    0.6520 H   0  0  0  0  0  0  0  0  0  0  0  0
    1.6690    2.8143   -1.0174 H   0  0  0  0  0  0  0  0  0  0  0  0
    1.0712   -1.3586    1.2830 H   0  0  0  0  0  0  0  0  0  0  0  0
    1.8361   -2.1270   -0.1118 H   0  0  0  0  0  0  0  0  0  0  0  0
    3.8022    2.3927   -0.3649 H   0  0  0  0  0  0  0  0  0  0  0  0
    3.4061    2.5648    1.3463 H   0  0  0  0  0  0  0  0  0  0  0  0
   -0.9578    3.2118   -0.5290 H   0  0  0  0  0  0  0  0  0  0  0  0
   -1.4903    2.3573    0.9153 H   0  0  0  0  0  0  0  0  0  0  0  0
    2.8611   -0.7859   -1.9700 H   0  0  0  0  0  0  0  0  0  0  0  0
    1.2785   -0.1406   -2.3369 H   0  0  0  0  0  0  0  0  0  0  0  0
    2.6294    0.9556   -2.0789 H   0  0  0  0  0  0  0  0  0  0  0  0
   -2.7467    2.2100   -1.8787 H   0  0  0  0  0  0  0  0  0  0  0  0
   -3.4178    2.9651   -0.4476 H   0  0  0  0  0  0  0  0  0  0  0  0
   -2.6134   -2.5980   -0.2929 H   0  0  0  0  0  0  0  0  0  0  0  0
   -4.0811   -2.0234   -1.0413 H   0  0  0  0  0  0  0  0  0  0  0  0
   -2.0986   -1.4659   -2.6967 H   0  0  0  0  0  0  0  0  0  0  0  0
   -3.5329   -0.4497   -2.7800 H   0  0  0  0  0  0  0  0  0  0  0  0
   -1.9330    0.2827   -2.7997 H   0  0  0  0  0  0  0  0  0  0  0  0
   -4.4331   -2.5488    1.3334 H   0  0  0  0  0  0  0  0  0  0  0  0
   -3.2043   -1.4049    1.8158 H   0  0  0  0  0  0  0  0  0  0  0  0
   -4.9904    1.6796    0.6505 H   0  0  0  0  0  0  0  0  0  0  0  0
    3.7176    0.6776    2.4523 H   0  0  0  0  0  0  0  0  0  0  0  0
   -5.8970   -0.8245    0.4550 H   0  0  0  0  0  0  0  0  0  0  0  0
    4.1689   -2.0851   -0.6170 H   0  0  0  0  0  0  0  0  0  0  0  0
    3.8534   -1.9826    1.1348 H   0  0  0  0  0  0  0  0  0  0  0  0
   -4.6418    0.0875    2.8442 H   0  0  0  0  0  0  0  0  0  0  0  0
    6.0447   -1.6685    1.4690 H   0  0  0  0  0  0  0  0  0  0  0  0
  1 10  1  0  0  0  0
  1 51  1  0  0  0  0
  2 16  2  0  0  0  0
  3 22  2  0  0  0  0
  4 25  1  0  0  0  0
  4 55  1  0  0  0  0
  5 26  1  0  0  0  0
  5 56  1  0  0  0  0
  6  7  1  0  0  0  0
  6  8  1  0  0  0  0
  6 12  1  0  0  0  0
  6 27  1  0  0  0  0
  7 10  1  0  0  0  0
  7 13  1  0  0  0  0
  7 18  1  0  0  0  0
  8  9  1  0  0  0  0
  8 15  1  0  0  0  0
  8 28  1  0  0  0  0
  9 11  1  0  0  0  0
  9 16  1  0  0  0  0
  9 29  1  0  0  0  0
 10 14  1  0  0  0  0
 10 22  1  0  0  0  0
 11 17  1  0  0  0  0
 11 20  1  0  0  0  0
 11 21  1  0  0  0  0
 12 14  1  0  0  0  0
 12 30  1  0  0  0  0
 12 31  1  0  0  0  0
 13 16  1  0  0  0  0
 13 32  1  0  0  0  0
 13 33  1  0  0  0  0
 14 34  1  0  0  0  0
 14 35  1  0  0  0  0
 15 19  1  0  0  0  0
 15 36  1  0  0  0  0
 15 37  1  0  0  0  0
 17 19  1  0  0  0  0
 17 24  2  0  0  0  0
 18 38  1  0  0  0  0
 18 39  1  0  0  0  0
 18 40  1  0  0  0  0
 19 41  1  0  0  0  0
 19 42  1  0  0  0  0
 20 23  1  0  0  0  0
 20 43  1  0  0  0  0
 20 44  1  0  0  0  0
 21 45  1  0  0  0  0
 21 46  1  0  0  0  0
 21 47  1  0  0  0  0
 22 26  1  0  0  0  0
 23 25  1  0  0  0  0
 23 48  1  0  0  0  0
 23 49  1  0  0  0  0
 24 25  1  0  0  0  0
 24 50  1  0  0  0  0
 25 52  1  0  0  0  0
 26 53  1  0  0  0  0
 26 54  1  0  0  0  0
M  END
> <PUBCHEM_COMPOUND_CID>
5867

> <PUBCHEM_CONFORMER_RMSD>
0.8

> <PUBCHEM_CONFORMER_DIVERSEORDER>
1
3
2

> <PUBCHEM_MMFF94_PARTIAL_CHARGES>
20
1 -0.68
10 0.34
11 0.14
13 0.06
16 0.45
17 -0.28
19 0.14
2 -0.57
22 0.45
24 -0.29
25 0.42
26 0.34
3 -0.57
4 -0.68
5 -0.68
50 0.15
51 0.4
55 0.4
56 0.4
9 0.06

> <PUBCHEM_EFFECTIVE_ROTOR_COUNT>
3.8

> <PUBCHEM_PHARMACOPHORE_FEATURES>
12
1 1 acceptor
1 1 donor
1 2 acceptor
1 3 acceptor
1 4 acceptor
1 4 donor
1 5 acceptor
1 5 donor
5 6 7 10 12 14 rings
6 11 17 20 23 24 25 rings
6 6 7 8 9 13 16 rings
6 8 9 11 15 17 19 rings

> <PUBCHEM_HEAVY_ATOM_COUNT>
26

> <PUBCHEM_ATOM_DEF_STEREO_COUNT>
7

> <PUBCHEM_ATOM_UDEF_STEREO_COUNT>
0

> <PUBCHEM_BOND_DEF_STEREO_COUNT>
0

> <PUBCHEM_BOND_UDEF_STEREO_COUNT>
0

> <PUBCHEM_ISOTOPIC_ATOM_COUNT>
0

> <PUBCHEM_COMPONENT_COUNT>
1

> <PUBCHEM_CACTVS_TAUTO_COUNT>
9

> <PUBCHEM_CONFORMER_ID>
000016EB00000001

> <PUBCHEM_MMFF94_ENERGY>
77.4814

> <PUBCHEM_FEATURE_SELFOVERLAP>
61.01

> <PUBCHEM_SHAPE_FINGERPRINT>
11045977 3 18131350804487034099
11405975 8 17385731265960152978
11552529 35 17899133815388672475
12236239 1 17704069620908335908
12403259 226 18338807731667588332
12403259 415 18261398844923831632
12422481 6 18261386797355553635
12553582 1 18340218422350069184
12596602 18 17418371394017733348
12633257 1 17603586309264496960
12788726 201 17604131675954716248
13009979 54 17917138498623803924
13140716 1 18336262336964422425
13224815 77 18272094859562676821
13583140 156 17345217560948206629
13675066 3 18334301954575811488
14178342 30 18191296289744426257
14223421 5 18341048618501754181
14341114 176 18343860026256692848
14790565 3 18336819793402036212
14955137 171 18410004455503681528
15196674 1 18410297990669314668
15209289 33 18201721742934199803
15209294 21 17603300441010879395
15375358 24 8502377736770278828
15788980 27 18413394241071912551
16945 1 18264225633457440460
17349148 13 17748829600876466284
1813 80 17418095394908015404
18769570 83 14707206655918514443
19591789 44 18410860953671148686
20261772 1 18335702711057023993
20739085 24 18340193099381498333
20775438 99 12027809837531455601
21033648 29 17968678093090442088
21267235 1 18412541028649261854
21682296 61 18188769599212806718
221490 88 18413392021054128232
22182313 1 18116992388997157871
23402539 116 18113912567139606252
23557571 272 17132123467675047061
23559900 14 18343310253289770516
2748010 2 18191031294393213100
2838139 119 14202502296634900761
296302 2 6988321637851502190
335352 9 18337397139816334692
350125 39 18410852170357734708
4340502 62 14490467565302577565
465052 167 18272077271787611939
5104073 3 18114186276525594466

> <PUBCHEM_SHAPE_MULTIPOLES>
505.72
10.82
2.39
1.48
2.9
0.38
-0.05
-3.02
4.31
0.48
-0.11
-1.25
-0.28
0.25

> <PUBCHEM_SHAPE_SELFOVERLAP>
1088.941

> <PUBCHEM_SHAPE_VOLUME>
275.8

> <PUBCHEM_COORDINATE_TYPE>
2
5
10

$$$$

