7978
  -OEChem-06261202313D

 12 12  0     0  0  0  0  0  0999 V2000
    0.3093    1.2049    0.0001 N   0  0  0  0  0  0  0  0  0  0  0  0
    0.3096   -1.2049    0.0001 N   0  0  0  0  0  0  0  0  0  0  0  0
    2.3229    0.0002   -0.0002 N   0  0  0  0  0  0  0  0  0  0  0  0
    0.9108    0.0000    0.0003 C   0  0  0  0  0  0  0  0  0  0  0  0
   -1.7742    0.0000    0.0000 C   0  0  0  0  0  0  0  0  0  0  0  0
   -1.0394    1.1678   -0.0001 C   0  0  0  0  0  0  0  0  0  0  0  0
   -1.0391   -1.1680   -0.0001 C   0  0  0  0  0  0  0  0  0  0  0  0
   -2.8558   -0.0002    0.0000 H   0  0  0  0  0  0  0  0  0  0  0  0
   -1.5297    2.1355   -0.0002 H   0  0  0  0  0  0  0  0  0  0  0  0
   -1.5294   -2.1357   -0.0003 H   0  0  0  0  0  0  0  0  0  0  0  0
    2.8200   -0.8799    0.0001 H   0  0  0  0  0  0  0  0  0  0  0  0
    2.8199    0.8801    0.0004 H   0  0  0  0  0  0  0  0  0  0  0  0
  1  4  1  0  0  0  0
  1  6  2  0  0  0  0
  2  4  2  0  0  0  0
  2  7  1  0  0  0  0
  3  4  1  0  0  0  0
  3 11  1  0  0  0  0
  3 12  1  0  0  0  0
  5  6  1  0  0  0  0
  5  7  2  0  0  0  0
  5  8  1  0  0  0  0
  6  9  1  0  0  0  0
  7 10  1  0  0  0  0
M  END
> <PUBCHEM_COMPOUND_CID>
7978

> <PUBCHEM_CONFORMER_RMSD>
0.4

> <PUBCHEM_CONFORMER_DIVERSEORDER>
1

> <PUBCHEM_MMFF94_PARTIAL_CHARGES>
12
1 -0.62
10 0.15
11 0.4
12 0.4
2 -0.62
3 -0.9
4 0.72
5 -0.15
6 0.16
7 0.16
8 0.15
9 0.15

> <PUBCHEM_EFFECTIVE_ROTOR_COUNT>
0

> <PUBCHEM_PHARMACOPHORE_FEATURES>
4
1 1 acceptor
1 3 donor
4 1 2 3 4 cation
6 1 2 4 5 6 7 rings

> <PUBCHEM_HEAVY_ATOM_COUNT>
7

> <PUBCHEM_ATOM_DEF_STEREO_COUNT>
0

> <PUBCHEM_ATOM_UDEF_STEREO_COUNT>
0

> <PUBCHEM_BOND_DEF_STEREO_COUNT>
0

> <PUBCHEM_BOND_UDEF_STEREO_COUNT>
0

> <PUBCHEM_ISOTOPIC_ATOM_COUNT>
0

> <PUBCHEM_COMPONENT_COUNT>
1

> <PUBCHEM_CACTVS_TAUTO_COUNT>
2

> <PUBCHEM_CONFORMER_ID>
00001F2A00000001

> <PUBCHEM_MMFF94_ENERGY>
19.1505

> <PUBCHEM_FEATURE_SELFOVERLAP>
20.297

> <PUBCHEM_SHAPE_FINGERPRINT>
16714656 1 18410569587247358438
20096714 4 18194118753208895035
21040471 1 18266458900207720289
23552423 10 18272645788119115758
29004967 10 18272922826088277961

> <PUBCHEM_SHAPE_MULTIPOLES>
129.11
2.22
1.36
0.58
0.83
0
0
0
0
-0.3
0
-0.04
0
0

> <PUBCHEM_SHAPE_SELFOVERLAP>
264.27

> <PUBCHEM_SHAPE_VOLUME>
70.9

> <PUBCHEM_COORDINATE_TYPE>
2
5
10

$$$$

