586238
  -OEChem-06241222462D

 51 53  0     1  0  0  0  0  0999 V2000
    8.8564    1.7117    0.0000 S   0  0  0  0  0  0  0  0  0  0  0  0
    4.6318   -0.0637    0.0000 O   0  0  0  0  0  0  0  0  0  0  0  0
    9.8070    1.4010    0.0000 O   0  0  0  0  0  0  0  0  0  0  0  0
    7.9059    2.0224    0.0000 O   0  0  0  0  0  0  0  0  0  0  0  0
    2.8660   -5.5138    0.0000 O   0  0  0  0  0  0  0  0  0  0  0  0
    4.6783   -2.7090    0.0000 N   0  0  0  0  0  0  0  0  0  0  0  0
    8.5458    0.7612    0.0000 N   0  0  0  0  0  0  0  0  0  0  0  0
    2.8660   -2.5138    0.0000 N   0  0  0  0  0  0  0  0  0  0  0  0
    4.6783   -4.3185    0.0000 N   0  0  0  0  0  0  0  0  0  0  0  0
    2.0000   -4.0138    0.0000 N   0  0  0  0  0  0  0  0  0  0  0  0
    4.9889   -1.7585    0.0000 C   0  0  3  0  0  0  0  0  0  0  0  0
    5.9674   -1.5523    0.0000 C   0  0  0  0  0  0  0  0  0  0  0  0
    6.2781   -0.6018    0.0000 C   0  0  0  0  0  0  0  0  0  0  0  0
    7.2566   -0.3956    0.0000 C   0  0  0  0  0  0  0  0  0  0  0  0
    4.3211   -1.0142    0.0000 C   0  0  0  0  0  0  0  0  0  0  0  0
    7.5673    0.5550    0.0000 C   0  0  0  0  0  0  0  0  0  0  0  0
    3.7320   -3.0138    0.0000 C   0  0  0  0  0  0  0  0  0  0  0  0
    5.2619   -3.5138    0.0000 C   0  0  0  0  0  0  0  0  0  0  0  0
    3.7320   -4.0138    0.0000 C   0  0  0  0  0  0  0  0  0  0  0  0
    2.8660   -4.5138    0.0000 C   0  0  0  0  0  0  0  0  0  0  0  0
    9.1671    2.6622    0.0000 C   0  0  0  0  0  0  0  0  0  0  0  0
    2.0000   -3.0138    0.0000 C   0  0  0  0  0  0  0  0  0  0  0  0
   10.1456    2.8684    0.0000 C   0  0  0  0  0  0  0  0  0  0  0  0
    8.4993    3.4065    0.0000 C   0  0  0  0  0  0  0  0  0  0  0  0
    9.7884    4.5633    0.0000 C   0  0  0  0  0  0  0  0  0  0  0  0
   10.4563    3.8190    0.0000 C   0  0  0  0  0  0  0  0  0  0  0  0
    8.8099    4.3570    0.0000 C   0  0  0  0  0  0  0  0  0  0  0  0
   10.0991    5.5138    0.0000 C   0  0  0  0  0  0  0  0  0  0  0  0
    5.5566   -2.3912    0.0000 H   0  0  0  0  0  0  0  0  0  0  0  0
    5.9880   -2.1720    0.0000 H   0  0  0  0  0  0  0  0  0  0  0  0
    6.5812   -1.6396    0.0000 H   0  0  0  0  0  0  0  0  0  0  0  0
    6.2575    0.0179    0.0000 H   0  0  0  0  0  0  0  0  0  0  0  0
    5.6643   -0.5144    0.0000 H   0  0  0  0  0  0  0  0  0  0  0  0
    7.2772   -1.0152    0.0000 H   0  0  0  0  0  0  0  0  0  0  0  0
    7.8704   -0.4829    0.0000 H   0  0  0  0  0  0  0  0  0  0  0  0
    3.7742   -0.7222    0.0000 H   0  0  0  0  0  0  0  0  0  0  0  0
    3.9385   -1.5021    0.0000 H   0  0  0  0  0  0  0  0  0  0  0  0
    7.5467    1.1746    0.0000 H   0  0  0  0  0  0  0  0  0  0  0  0
    6.9534    0.6423    0.0000 H   0  0  0  0  0  0  0  0  0  0  0  0
    5.8819   -3.5138    0.0000 H   0  0  0  0  0  0  0  0  0  0  0  0
    8.9598    0.2997    0.0000 H   0  0  0  0  0  0  0  0  0  0  0  0
    2.8660   -1.8938    0.0000 H   0  0  0  0  0  0  0  0  0  0  0  0
    4.2177    0.3978    0.0000 H   0  0  0  0  0  0  0  0  0  0  0  0
    1.4631   -2.7038    0.0000 H   0  0  0  0  0  0  0  0  0  0  0  0
   10.5597    2.4070    0.0000 H   0  0  0  0  0  0  0  0  0  0  0  0
    7.8926    3.2787    0.0000 H   0  0  0  0  0  0  0  0  0  0  0  0
   11.0629    3.9468    0.0000 H   0  0  0  0  0  0  0  0  0  0  0  0
    8.3958    4.8185    0.0000 H   0  0  0  0  0  0  0  0  0  0  0  0
   10.6884    5.3212    0.0000 H   0  0  0  0  0  0  0  0  0  0  0  0
   10.2917    6.1031    0.0000 H   0  0  0  0  0  0  0  0  0  0  0  0
    9.5098    5.7064    0.0000 H   0  0  0  0  0  0  0  0  0  0  0  0
  1  3  2  0  0  0  0
  1  4  2  0  0  0  0
  1  7  1  0  0  0  0
  1 21  1  0  0  0  0
  2 15  1  0  0  0  0
  2 43  1  0  0  0  0
  5 20  2  0  0  0  0
  6 11  1  0  0  0  0
  6 17  1  0  0  0  0
  6 18  1  0  0  0  0
  7 16  1  0  0  0  0
  7 41  1  0  0  0  0
  8 17  1  0  0  0  0
  8 22  1  0  0  0  0
  8 42  1  0  0  0  0
  9 18  2  0  0  0  0
  9 19  1  0  0  0  0
 10 20  1  0  0  0  0
 10 22  2  0  0  0  0
 11 12  1  0  0  0  0
 11 15  1  0  0  0  0
 11 29  1  0  0  0  0
 12 13  1  0  0  0  0
 12 30  1  0  0  0  0
 12 31  1  0  0  0  0
 13 14  1  0  0  0  0
 13 32  1  0  0  0  0
 13 33  1  0  0  0  0
 14 16  1  0  0  0  0
 14 34  1  0  0  0  0
 14 35  1  0  0  0  0
 15 36  1  0  0  0  0
 15 37  1  0  0  0  0
 16 38  1  0  0  0  0
 16 39  1  0  0  0  0
 17 19  2  0  0  0  0
 18 40  1  0  0  0  0
 19 20  1  0  0  0  0
 21 23  2  0  0  0  0
 21 24  1  0  0  0  0
 22 44  1  0  0  0  0
 23 26  1  0  0  0  0
 23 45  1  0  0  0  0
 24 27  2  0  0  0  0
 24 46  1  0  0  0  0
 25 26  2  0  0  0  0
 25 27  1  0  0  0  0
 25 28  1  0  0  0  0
 26 47  1  0  0  0  0
 27 48  1  0  0  0  0
 28 49  1  0  0  0  0
 28 50  1  0  0  0  0
 28 51  1  0  0  0  0
M  END
> <PUBCHEM_COMPOUND_CID>
586238

> <PUBCHEM_COMPOUND_CANONICALIZED>
1

> <PUBCHEM_CACTVS_COMPLEXITY>
657

> <PUBCHEM_CACTVS_HBOND_ACCEPTOR>
6

> <PUBCHEM_CACTVS_HBOND_DONOR>
3

> <PUBCHEM_CACTVS_ROTATABLE_BOND>
9

> <PUBCHEM_CACTVS_SUBSKEYS>
AAADceB7uABAAAAAAAAAAAAAAAAAAWAAAAAwQAAAAAAAAEABwAAAHgQQSAAADCjh3gY3sZfMEgKoAydzdHDCgD03EKAJ2JmoVMiKeCrA2TCUYIAskALYiGeQwAAOEAAAAAAAAAAgAAAAAAAAAAAAAAAAAA==

> <PUBCHEM_IUPAC_OPENEYE_NAME>
N-[6-hydroxy-5-(6-oxo-3H-purin-9-yl)hexyl]-4-methyl-benzenesulfonamide

> <PUBCHEM_IUPAC_CAS_NAME>
N-[6-hydroxy-5-(6-oxo-3H-purin-9-yl)hexyl]-4-methylbenzenesulfonamide

> <PUBCHEM_IUPAC_NAME>
N-[6-hydroxy-5-(6-oxo-3H-purin-9-yl)hexyl]-4-methylbenzenesulfonamide

> <PUBCHEM_IUPAC_SYSTEMATIC_NAME>
4-methyl-N-[6-oxidanyl-5-(6-oxidanylidene-3H-purin-9-yl)hexyl]benzenesulfonamide

> <PUBCHEM_IUPAC_TRADITIONAL_NAME>
N-[6-hydroxy-5-(6-keto-3H-purin-9-yl)hexyl]-4-methyl-benzenesulfonamide

> <PUBCHEM_IUPAC_INCHI>
InChI=1S/C18H23N5O4S/c1-13-5-7-15(8-6-13)28(26,27)22-9-3-2-4-14(10-24)23-12-21-16-17(23)19-11-20-18(16)25/h5-8,11-12,14,22,24H,2-4,9-10H2,1H3,(H,19,20,25)

> <PUBCHEM_IUPAC_INCHIKEY>
SZVCUVKUPHTQHL-UHFFFAOYSA-N

> <PUBCHEM_XLOGP3_AA>
0.8

> <PUBCHEM_EXACT_MASS>
405.147075

> <PUBCHEM_MOLECULAR_FORMULA>
C18H23N5O4S

> <PUBCHEM_MOLECULAR_WEIGHT>
405.47132

> <PUBCHEM_OPENEYE_CAN_SMILES>
CC1=CC=C(C=C1)S(=O)(=O)NCCCCC(CO)N2C=NC3=C2NC=NC3=O

> <PUBCHEM_OPENEYE_ISO_SMILES>
CC1=CC=C(C=C1)S(=O)(=O)NCCCCC(CO)N2C=NC3=C2NC=NC3=O

> <PUBCHEM_CACTVS_TPSA>
134

> <PUBCHEM_MONOISOTOPIC_WEIGHT>
405.147075

> <PUBCHEM_TOTAL_CHARGE>
0

> <PUBCHEM_HEAVY_ATOM_COUNT>
28

> <PUBCHEM_ATOM_DEF_STEREO_COUNT>
0

> <PUBCHEM_ATOM_UDEF_STEREO_COUNT>
1

> <PUBCHEM_BOND_DEF_STEREO_COUNT>
0

> <PUBCHEM_BOND_UDEF_STEREO_COUNT>
0

> <PUBCHEM_ISOTOPIC_ATOM_COUNT>
0

> <PUBCHEM_COMPONENT_COUNT>
1

> <PUBCHEM_CACTVS_TAUTO_COUNT>
3

> <PUBCHEM_COORDINATE_TYPE>
1
5
255

> <PUBCHEM_BONDANNOTATIONS>
10  20  8
10  22  8
11  29  3
17  19  8
19  20  8
21  23  8
21  24  8
23  26  8
24  27  8
25  26  8
25  27  8
6  17  8
6  18  8
8  17  8
8  22  8
9  18  8
9  19  8

$$$$

