10842
  -OEChem-06261205013D

 28 29  0     0  0  0  0  0  0999 V2000
    0.6540    2.9053   -0.7937 S   0  0  0  0  0  0  0  0  0  0  0  0
   -0.6552    2.9057    0.7946 S   0  0  0  0  0  0  0  0  0  0  0  0
    3.2153   -2.8438   -0.2213 O   0  5  0  0  0  0  0  0  0  0  0  0
   -3.2142   -2.8443    0.2211 O   0  5  0  0  0  0  0  0  0  0  0  0
    1.3540   -2.3071   -1.2542 O   0  0  0  0  0  0  0  0  0  0  0  0
   -1.3537   -2.3070    1.2551 O   0  0  0  0  0  0  0  0  0  0  0  0
    2.3696   -1.9925   -0.5878 N   0  3  0  0  0  0  0  0  0  0  0  0
   -2.3689   -1.9927    0.5880 N   0  3  0  0  0  0  0  0  0  0  0  0
    1.8365    1.6715   -0.2879 C   0  0  0  0  0  0  0  0  0  0  0  0
   -1.8380    1.6705    0.2878 C   0  0  0  0  0  0  0  0  0  0  0  0
    2.5676   -0.6307   -0.2370 C   0  0  0  0  0  0  0  0  0  0  0  0
   -2.5673   -0.6310    0.2370 C   0  0  0  0  0  0  0  0  0  0  0  0
    1.6412    0.3341   -0.6330 C   0  0  0  0  0  0  0  0  0  0  0  0
   -1.6415    0.3341    0.6334 C   0  0  0  0  0  0  0  0  0  0  0  0
    2.9581    2.0439    0.4530 C   0  0  0  0  0  0  0  0  0  0  0  0
   -2.9583    2.0434   -0.4535 C   0  0  0  0  0  0  0  0  0  0  0  0
    3.6892   -0.2581    0.5038 C   0  0  0  0  0  0  0  0  0  0  0  0
   -3.6886   -0.2588   -0.5045 C   0  0  0  0  0  0  0  0  0  0  0  0
    3.8845    1.0791    0.8488 C   0  0  0  0  0  0  0  0  0  0  0  0
   -3.8842    1.0783   -0.8497 C   0  0  0  0  0  0  0  0  0  0  0  0
    0.7677    0.0610   -1.2210 H   0  0  0  0  0  0  0  0  0  0  0  0
   -0.7681    0.0616    1.2220 H   0  0  0  0  0  0  0  0  0  0  0  0
    3.1278    3.0812    0.7312 H   0  0  0  0  0  0  0  0  0  0  0  0
   -3.1279    3.0807   -0.7318 H   0  0  0  0  0  0  0  0  0  0  0  0
    4.4317   -0.9820    0.8295 H   0  0  0  0  0  0  0  0  0  0  0  0
   -4.4306   -0.9831   -0.8306 H   0  0  0  0  0  0  0  0  0  0  0  0
    4.7578    1.3696    1.4256 H   0  0  0  0  0  0  0  0  0  0  0  0
   -4.7571    1.3683   -1.4271 H   0  0  0  0  0  0  0  0  0  0  0  0
  1  2  1  0  0  0  0
  1  9  1  0  0  0  0
  2 10  1  0  0  0  0
  3  7  1  0  0  0  0
  4  8  1  0  0  0  0
  5  7  2  0  0  0  0
  6  8  2  0  0  0  0
  7 11  1  0  0  0  0
  8 12  1  0  0  0  0
  9 13  1  0  0  0  0
  9 15  2  0  0  0  0
 10 14  1  0  0  0  0
 10 16  2  0  0  0  0
 11 13  2  0  0  0  0
 11 17  1  0  0  0  0
 12 14  2  0  0  0  0
 12 18  1  0  0  0  0
 13 21  1  0  0  0  0
 14 22  1  0  0  0  0
 15 19  1  0  0  0  0
 15 23  1  0  0  0  0
 16 20  1  0  0  0  0
 16 24  1  0  0  0  0
 17 19  2  0  0  0  0
 17 25  1  0  0  0  0
 18 20  2  0  0  0  0
 18 26  1  0  0  0  0
 19 27  1  0  0  0  0
 20 28  1  0  0  0  0
M  CHG  4   3  -1   4  -1   7   1   8   1
M  END
> <PUBCHEM_COMPOUND_CID>
10842

> <PUBCHEM_CONFORMER_RMSD>
0.8

> <PUBCHEM_CONFORMER_DIVERSEORDER>
1
53
47
49
46
57
7
40
54
65
18
39
13
17
14
52
55
48
8
2
58
12
11
41
63
37
67
56
64
44
68
33
35
66
9
34
10
51
42
50
43
62
45
61
20
6
19
5
24
30
16
69
59
60
29
36
25
28
38
4
15
3
27
26
32
31
23
21
22

> <PUBCHEM_MMFF94_PARTIAL_CHARGES>
28
1 -0.1
10 0.1
11 0.13
12 0.13
13 -0.15
14 -0.15
15 -0.15
16 -0.15
17 -0.15
18 -0.15
19 -0.15
2 -0.1
20 -0.15
21 0.15
22 0.15
23 0.15
24 0.15
25 0.15
26 0.15
27 0.15
28 0.15
3 -0.52
4 -0.52
5 -0.52
6 -0.52
7 0.91
8 0.91
9 0.1

> <PUBCHEM_EFFECTIVE_ROTOR_COUNT>
5

> <PUBCHEM_PHARMACOPHORE_FEATURES>
8
1 3 acceptor
1 3 anion
1 4 acceptor
1 4 anion
1 5 acceptor
1 6 acceptor
6 10 12 14 16 18 20 rings
6 9 11 13 15 17 19 rings

> <PUBCHEM_HEAVY_ATOM_COUNT>
20

> <PUBCHEM_ATOM_DEF_STEREO_COUNT>
0

> <PUBCHEM_ATOM_UDEF_STEREO_COUNT>
0

> <PUBCHEM_BOND_DEF_STEREO_COUNT>
0

> <PUBCHEM_BOND_UDEF_STEREO_COUNT>
0

> <PUBCHEM_ISOTOPIC_ATOM_COUNT>
0

> <PUBCHEM_COMPONENT_COUNT>
1

> <PUBCHEM_CACTVS_TAUTO_COUNT>
1

> <PUBCHEM_CONFORMER_ID>
00002A5A00000001

> <PUBCHEM_MMFF94_ENERGY>
48.3314

> <PUBCHEM_FEATURE_SELFOVERLAP>
40.758

> <PUBCHEM_SHAPE_FINGERPRINT>
10366900 7 18113344110970163232
10616163 171 18338796702212378828
10693767 8 18044687315777607399
10759866 29 17843399588409569636
1100329 8 16250540867988264918
11370993 70 18410866459544701097
12553582 1 18338780273910107309
12633257 1 17901945567257453040
13544592 271 18336553720066551801
14178342 30 18336256877623600944
1420 336 18267858565677608067
14223421 5 18409727327007292772
14251705 54 18338792291243795739
14251740 79 16027567572303424718
14251745 187 18337115682367386320
14251757 5 17544448200756421558
15375358 24 18410582785545124640
15635459 17 18410291427858858124
17093844 170 18267875050005053344
17492 89 18411702062613007634
19930381 70 18265897037414073775
22749437 52 18410857659151423841
23558518 356 18190736642642103929
23559900 14 18408893949071007272
463206 1 17900270697727104711
5309563 4 17548972261597122011
8809292 202 18267017452415226500
9709674 26 18408886256356811887

> <PUBCHEM_SHAPE_MULTIPOLES>
385.85
7.38
3.87
1.01
0
1.04
0
1.46
0
0
0
0
0.01
1.01

> <PUBCHEM_SHAPE_SELFOVERLAP>
798.716

> <PUBCHEM_SHAPE_VOLUME>
222.6

> <PUBCHEM_COORDINATE_TYPE>
2
5
10

$$$$

