51091002
  -OEChem-06241223013D

 41 43  0     0  0  0  0  0  0999 V2000
   -2.2518    3.2280   -0.2522 S   0  0  0  0  0  0  0  0  0  0  0  0
   -3.7970    0.3830    0.3722 O   0  0  0  0  0  0  0  0  0  0  0  0
    4.3480    1.9560    0.4178 O   0  0  0  0  0  0  0  0  0  0  0  0
    4.7504   -2.5005   -0.1826 N   0  0  0  0  0  0  0  0  0  0  0  0
    5.9711   -1.9949    0.0634 N   0  0  0  0  0  0  0  0  0  0  0  0
   -0.6631    1.1948   -0.4093 N   0  0  0  0  0  0  0  0  0  0  0  0
    4.3722   -0.3635    0.0659 C   0  0  0  0  0  0  0  0  0  0  0  0
    5.7337   -0.6892    0.2143 C   0  0  0  0  0  0  0  0  0  0  0  0
    3.7580   -1.5649   -0.1919 C   0  0  0  0  0  0  0  0  0  0  0  0
    3.6946    0.9523    0.1557 C   0  0  0  0  0  0  0  0  0  0  0  0
    6.8545    0.2230    0.5039 C   0  0  0  0  0  0  0  0  0  0  0  0
    4.5933   -3.9177   -0.4056 C   0  0  0  0  0  0  0  0  0  0  0  0
    2.2196    0.9856   -0.0499 C   0  0  0  0  0  0  0  0  0  0  0  0
    0.1050    2.3033   -0.1105 C   0  0  0  0  0  0  0  0  0  0  0  0
   -1.9211    1.5636   -0.5072 C   0  0  0  0  0  0  0  0  0  0  0  0
   -3.0564    0.6340   -0.8214 C   0  0  0  0  0  0  0  0  0  0  0  0
    1.5001    2.1561    0.0465 C   0  0  0  0  0  0  0  0  0  0  0  0
   -0.5787    3.4945    0.0136 C   0  0  0  0  0  0  0  0  0  0  0  0
   -4.8547   -0.4682    0.2770 C   0  0  0  0  0  0  0  0  0  0  0  0
   -5.1723   -1.0517   -0.9494 C   0  0  0  0  0  0  0  0  0  0  0  0
   -5.6210   -0.7570    1.4061 C   0  0  0  0  0  0  0  0  0  0  0  0
   -6.2565   -1.9241   -1.0470 C   0  0  0  0  0  0  0  0  0  0  0  0
   -6.7051   -1.6294    1.3087 C   0  0  0  0  0  0  0  0  0  0  0  0
   -7.0228   -2.2129    0.0821 C   0  0  0  0  0  0  0  0  0  0  0  0
    2.7314   -1.8479   -0.3782 H   0  0  0  0  0  0  0  0  0  0  0  0
    6.9427    0.9857   -0.2766 H   0  0  0  0  0  0  0  0  0  0  0  0
    7.8101   -0.3100    0.5557 H   0  0  0  0  0  0  0  0  0  0  0  0
    6.7035    0.7266    1.4642 H   0  0  0  0  0  0  0  0  0  0  0  0
    3.5401   -4.1448   -0.5884 H   0  0  0  0  0  0  0  0  0  0  0  0
    4.9400   -4.4465    0.4857 H   0  0  0  0  0  0  0  0  0  0  0  0
    5.1919   -4.1972   -1.2762 H   0  0  0  0  0  0  0  0  0  0  0  0
    1.6951    0.0651   -0.2749 H   0  0  0  0  0  0  0  0  0  0  0  0
   -2.6204   -0.2982   -1.2035 H   0  0  0  0  0  0  0  0  0  0  0  0
   -3.6911    1.0962   -1.5885 H   0  0  0  0  0  0  0  0  0  0  0  0
    2.0566    3.0636    0.2755 H   0  0  0  0  0  0  0  0  0  0  0  0
   -0.1968    4.4805    0.2403 H   0  0  0  0  0  0  0  0  0  0  0  0
   -4.6228   -0.8732   -1.8672 H   0  0  0  0  0  0  0  0  0  0  0  0
   -5.3784   -0.3054    2.3641 H   0  0  0  0  0  0  0  0  0  0  0  0
   -6.5049   -2.3790   -2.0015 H   0  0  0  0  0  0  0  0  0  0  0  0
   -7.3018   -1.8543    2.1878 H   0  0  0  0  0  0  0  0  0  0  0  0
   -7.8669   -2.8921    0.0064 H   0  0  0  0  0  0  0  0  0  0  0  0
  1 15  1  0  0  0  0
  1 18  1  0  0  0  0
  2 16  1  0  0  0  0
  2 19  1  0  0  0  0
  3 10  2  0  0  0  0
  4  5  1  0  0  0  0
  4  9  1  0  0  0  0
  4 12  1  0  0  0  0
  5  8  2  0  0  0  0
  6 14  1  0  0  0  0
  6 15  2  0  0  0  0
  7  8  1  0  0  0  0
  7  9  2  0  0  0  0
  7 10  1  0  0  0  0
  8 11  1  0  0  0  0
  9 25  1  0  0  0  0
 10 13  1  0  0  0  0
 11 26  1  0  0  0  0
 11 27  1  0  0  0  0
 11 28  1  0  0  0  0
 12 29  1  0  0  0  0
 12 30  1  0  0  0  0
 12 31  1  0  0  0  0
 13 17  2  0  0  0  0
 13 32  1  0  0  0  0
 14 17  1  0  0  0  0
 14 18  2  0  0  0  0
 15 16  1  0  0  0  0
 16 33  1  0  0  0  0
 16 34  1  0  0  0  0
 17 35  1  0  0  0  0
 18 36  1  0  0  0  0
 19 20  2  0  0  0  0
 19 21  1  0  0  0  0
 20 22  1  0  0  0  0
 20 37  1  0  0  0  0
 21 23  2  0  0  0  0
 21 38  1  0  0  0  0
 22 24  2  0  0  0  0
 22 39  1  0  0  0  0
 23 24  1  0  0  0  0
 23 40  1  0  0  0  0
 24 41  1  0  0  0  0
M  END
> <PUBCHEM_COMPOUND_CID>
51091002

> <PUBCHEM_CONFORMER_RMSD>
1.2

> <PUBCHEM_CONFORMER_DIVERSEORDER>
1
69
34
50
57
45
51
27
22
8
26
6
46
62
55
42
64
35
36
17
59
5
18
68
14
29
20
70
16
25
28
63
47
2
24
49
19
9
48
33
60
4
40
21
65
44
43
67
66
58
54
56
41
12
3
32
31
7
61
10
52
15
39
13
23
53
30
11
37
38

> <PUBCHEM_MMFF94_PARTIAL_CHARGES>
33
1 -0.08
10 0.64
11 0.18
12 0.26
13 -0.14
14 0.18
15 0.2
16 0.46
17 -0.1
18 -0.11
19 0.08
2 -0.36
20 -0.15
21 -0.15
22 -0.15
23 -0.15
24 -0.15
25 0.15
3 -0.57
32 0.15
35 0.15
36 0.15
37 0.15
38 0.15
39 0.15
4 0.31
40 0.15
41 0.15
5 -0.71
6 -0.57
7 -0.09
8 0.11
9 -0.3

> <PUBCHEM_EFFECTIVE_ROTOR_COUNT>
6

> <PUBCHEM_PHARMACOPHORE_FEATURES>
7
1 2 acceptor
1 3 acceptor
1 5 acceptor
1 6 acceptor
5 1 6 14 15 18 rings
5 4 5 7 8 9 rings
6 19 20 21 22 23 24 rings

> <PUBCHEM_HEAVY_ATOM_COUNT>
24

> <PUBCHEM_ATOM_DEF_STEREO_COUNT>
0

> <PUBCHEM_ATOM_UDEF_STEREO_COUNT>
0

> <PUBCHEM_BOND_DEF_STEREO_COUNT>
1

> <PUBCHEM_BOND_UDEF_STEREO_COUNT>
0

> <PUBCHEM_ISOTOPIC_ATOM_COUNT>
0

> <PUBCHEM_COMPONENT_COUNT>
1

> <PUBCHEM_CACTVS_TAUTO_COUNT>
1

> <PUBCHEM_CONFORMER_ID>
030B963A00000001

> <PUBCHEM_MMFF94_ENERGY>
51.4687

> <PUBCHEM_FEATURE_SELFOVERLAP>
35.52

> <PUBCHEM_SHAPE_FINGERPRINT>
10 15 6266906792440223285
10319688 140 18269271262205872660
10669705 162 18341904013163294087
11197282 1 18411979152749531051
11211813 128 18335421280006179274
11410812 94 16343157921259741892
117089 54 18338789108700221599
11809386 21 18058740233030386225
11991303 11 17771347754160728229
12107183 9 18261943138225212737
12422481 6 17458339779985386271
12623949 98 18260539065817536646
12633257 1 16153718599880375005
12760667 363 18413107252027301673
13533116 47 18262515888307397273
13540713 4 18267607765706758253
13551218 46 18408322168738386015
13885169 86 9367345951199358743
13911852 28 18409449176804728709
13955234 65 18046067060108916705
13989917 61 18196369221826221347
14123256 34 18343299245710109875
14211702 104 18410570725318785501
14216079 64 18411982447500656243
14251764 30 18409168801128513041
14556957 393 14045745962649421751
14950920 106 17022908921763921665
15347590 135 18041009388942457568
15475509 35 18114748139778365304
15510800 12 18059569153254998811
15519825 34 15213880211859870799
17492 89 18338517559956745924
1768 124 18261110738248662111
19301676 85 17401774519663705135
19301679 30 18408876335747430929
20028762 73 18334859411366931310
20165401 70 18120091689998810119
20398071 356 18412541016292153483
20691028 202 9439407926088416287
21197605 99 18408605851639925678
21682296 61 18413106135573148995
21774942 28 12391249222372347398
22149856 69 18334006225146205304
229767 8 18046336707209963454
23424784 1240 18189329233725710790
23522609 53 18122028023852947053
25222932 49 18408606989711093318
270888 7 8935002568509118405
3014063 24 18261960648500435895
3089732 80 18343017779060038043
314194 84 18337669690325906789
33382 64 18334294266811296184
34797466 226 16127811830356753429
439807 62 18272652372103280111
444735 86 18201446921020560730
4461854 278 18040713641710605990
46194498 28 17489031444167945100
465052 167 18335417933023915093
50009960 94 17842297018960862402
5104073 3 18114184180782436352
513202 73 18412825798747162085
56633871 153 18334014956793651279
5718773 13 18343026635683483730
636775 8 18336818806398029990
6431902 208 18411141363348218591
6698420 124 17831021595515788297
7970288 3 18410014295569181847

> <PUBCHEM_SHAPE_MULTIPOLES>
471.08
20.6
4.21
0.94
5.86
0.16
-0.1
-20.45
-2.96
-1.64
0.49
1.48
-0.28
0.95

> <PUBCHEM_SHAPE_SELFOVERLAP>
997.449

> <PUBCHEM_SHAPE_VOLUME>
266.4

> <PUBCHEM_COORDINATE_TYPE>
2
5
10

$$$$

