12385
  -OEChem-06261206533D

 22 21  0     0  0  0  0  0  0999 V2000
    4.9625   -1.0191   -0.2875 N   0  0  0  0  0  0  0  0  0  0  0  0
   -3.9445   -1.7895    0.2978 N   0  0  0  0  0  0  0  0  0  0  0  0
    0.4413    0.9166    0.2969 C   0  0  0  0  0  0  0  0  0  0  0  0
   -0.8643    0.4366   -0.3423 C   0  0  0  0  0  0  0  0  0  0  0  0
    1.6292    0.0648   -0.1669 C   0  0  0  0  0  0  0  0  0  0  0  0
   -2.1027    1.1952    0.1526 C   0  0  0  0  0  0  0  0  0  0  0  0
    2.9604    0.5289    0.4264 C   0  0  0  0  0  0  0  0  0  0  0  0
   -3.4403    0.6955   -0.3967 C   0  0  0  0  0  0  0  0  0  0  0  0
    4.0788   -0.3361    0.0273 C   0  0  0  0  0  0  0  0  0  0  0  0
   -3.7204   -0.6928   -0.0078 C   0  0  0  0  0  0  0  0  0  0  0  0
    0.3592    0.8628    1.3890 H   0  0  0  0  0  0  0  0  0  0  0  0
    0.6132    1.9672    0.0349 H   0  0  0  0  0  0  0  0  0  0  0  0
   -0.7955    0.5362   -1.4325 H   0  0  0  0  0  0  0  0  0  0  0  0
   -0.9825   -0.6326   -0.1300 H   0  0  0  0  0  0  0  0  0  0  0  0
    1.6914    0.0903   -1.2626 H   0  0  0  0  0  0  0  0  0  0  0  0
    1.4518   -0.9828    0.1096 H   0  0  0  0  0  0  0  0  0  0  0  0
   -2.1293    1.1489    1.2493 H   0  0  0  0  0  0  0  0  0  0  0  0
   -1.9932    2.2547   -0.1109 H   0  0  0  0  0  0  0  0  0  0  0  0
    2.8890    0.5416    1.5204 H   0  0  0  0  0  0  0  0  0  0  0  0
    3.1639    1.5582    0.1092 H   0  0  0  0  0  0  0  0  0  0  0  0
   -4.2427    1.3446   -0.0275 H   0  0  0  0  0  0  0  0  0  0  0  0
   -3.4407    0.7786   -1.4895 H   0  0  0  0  0  0  0  0  0  0  0  0
  1  9  3  0  0  0  0
  2 10  3  0  0  0  0
  3  4  1  0  0  0  0
  3  5  1  0  0  0  0
  3 11  1  0  0  0  0
  3 12  1  0  0  0  0
  4  6  1  0  0  0  0
  4 13  1  0  0  0  0
  4 14  1  0  0  0  0
  5  7  1  0  0  0  0
  5 15  1  0  0  0  0
  5 16  1  0  0  0  0
  6  8  1  0  0  0  0
  6 17  1  0  0  0  0
  6 18  1  0  0  0  0
  7  9  1  0  0  0  0
  7 19  1  0  0  0  0
  7 20  1  0  0  0  0
  8 10  1  0  0  0  0
  8 21  1  0  0  0  0
  8 22  1  0  0  0  0
M  END
> <PUBCHEM_COMPOUND_CID>
12385

> <PUBCHEM_CONFORMER_RMSD>
0.6

> <PUBCHEM_CONFORMER_DIVERSEORDER>
1
52
32
49
3
44
23
8
17
48
31
6
33
21
55
38
58
7
20
26
9
2
50
19
54
51
41
46
12
40
53
37
57
22
13
35
4
56
45
14
5
11
25
42
39
15
36
47
34
24
43
10
28
27
29
16
18
30

> <PUBCHEM_MMFF94_PARTIAL_CHARGES>
6
1 -0.56
10 0.36
2 -0.56
7 0.2
8 0.2
9 0.36

> <PUBCHEM_EFFECTIVE_ROTOR_COUNT>
5

> <PUBCHEM_PHARMACOPHORE_FEATURES>
4
1 1 acceptor
1 2 acceptor
3 3 5 7 hydrophobe
3 4 6 8 hydrophobe

> <PUBCHEM_HEAVY_ATOM_COUNT>
10

> <PUBCHEM_ATOM_DEF_STEREO_COUNT>
0

> <PUBCHEM_ATOM_UDEF_STEREO_COUNT>
0

> <PUBCHEM_BOND_DEF_STEREO_COUNT>
0

> <PUBCHEM_BOND_UDEF_STEREO_COUNT>
0

> <PUBCHEM_ISOTOPIC_ATOM_COUNT>
0

> <PUBCHEM_COMPONENT_COUNT>
1

> <PUBCHEM_CACTVS_TAUTO_COUNT>
1

> <PUBCHEM_CONFORMER_ID>
0000306100000001

> <PUBCHEM_MMFF94_ENERGY>
0.9016

> <PUBCHEM_FEATURE_SELFOVERLAP>
20.297

> <PUBCHEM_SHAPE_FINGERPRINT>
10680689 15 17989203780589855045
11062470 55 10159693608008220100
11987891 38 18408603699365035542
12032990 46 18335420166575648720
12757275 245 18343018870203134275
14251710 61 18339922619483681035
14251718 22 18343579621454813156
14252887 29 16732979864861786606
14455015 7 17822284721712484998
177051 138 18411702062675414544
17834072 32 8429781369551473675
17834072 33 18272927194624107452
17834074 16 18334574667903933318
190213 19 18335144202052599768
1986462 14 18341612645938189309
20432913 95 16950281823272657318
20828058 44 18334294283769424057
22485316 2 18272656774397259712
23402539 116 16558753442251378788
81539 233 12463575105869062032

> <PUBCHEM_SHAPE_MULTIPOLES>
195.83
10.01
1.33
0.68
5.21
0.36
0
4.44
0.25
-1.14
-0.1
-0.01
-0.03
0.47

> <PUBCHEM_SHAPE_SELFOVERLAP>
355.133

> <PUBCHEM_SHAPE_VOLUME>
120.8

> <PUBCHEM_COORDINATE_TYPE>
2
5
10

$$$$

