11640
  -OEChem-06261205562D

 10  9  0     0  0  0  0  0  0999 V2000
    2.5369    0.0600    0.0000 As  0  0  0  0  0  0  0  0  0  0  0  0
    3.4030    0.5600    0.0000 C   0  0  0  0  0  0  0  0  0  0  0  0
    4.2690    0.0600    0.0000 C   0  0  0  0  0  0  0  0  0  0  0  0
    3.8015    1.0350    0.0000 H   0  0  0  0  0  0  0  0  0  0  0  0
    3.0044    1.0350    0.0000 H   0  0  0  0  0  0  0  0  0  0  0  0
    3.9590   -0.4769    0.0000 H   0  0  0  0  0  0  0  0  0  0  0  0
    4.8059   -0.2500    0.0000 H   0  0  0  0  0  0  0  0  0  0  0  0
    4.5790    0.5969    0.0000 H   0  0  0  0  0  0  0  0  0  0  0  0
    2.0000    0.3700    0.0000 H   0  0  0  0  0  0  0  0  0  0  0  0
    2.5369   -0.5600    0.0000 H   0  0  0  0  0  0  0  0  0  0  0  0
  1  2  1  0  0  0  0
  1  9  1  0  0  0  0
  1 10  1  0  0  0  0
  2  3  1  0  0  0  0
  2  4  1  0  0  0  0
  2  5  1  0  0  0  0
  3  6  1  0  0  0  0
  3  7  1  0  0  0  0
  3  8  1  0  0  0  0
M  END
> <PUBCHEM_COMPOUND_CID>
11640

> <PUBCHEM_COMPOUND_CANONICALIZED>
1

> <PUBCHEM_CACTVS_COMPLEXITY>
2.8

> <PUBCHEM_CACTVS_HBOND_ACCEPTOR>
0

> <PUBCHEM_CACTVS_HBOND_DONOR>
0

> <PUBCHEM_CACTVS_ROTATABLE_BOND>
0

> <PUBCHEM_CACTVS_SUBSKEYS>
AAADcYBAAAAAAAAAQAAAAAAAAAAAAAAAAAAAAAAAAAAAAAAAAAAAGAEAAAAEAACAAAACAAAAAAAAAAAAAAAAAAAAAAAAAAAAAAAAAAAAAAAAAAAAAAAAAAAAAAAAAAAAAAAAAAAAAAAAAAAAAAAAAAAAAA==

> <PUBCHEM_IUPAC_OPENEYE_NAME>
ethylarsane

> <PUBCHEM_IUPAC_CAS_NAME>
ethylarsine

> <PUBCHEM_IUPAC_NAME>
ethylarsane

> <PUBCHEM_IUPAC_SYSTEMATIC_NAME>
ethylarsane

> <PUBCHEM_IUPAC_TRADITIONAL_NAME>
ethylarsine

> <PUBCHEM_IUPAC_INCHI>
InChI=1S/C2H7As/c1-2-3/h2-3H2,1H3

> <PUBCHEM_IUPAC_INCHIKEY>
OSAGMAAQMRQLLW-UHFFFAOYSA-N

> <PUBCHEM_EXACT_MASS>
105.976372

> <PUBCHEM_MOLECULAR_FORMULA>
C2H7As

> <PUBCHEM_MOLECULAR_WEIGHT>
105.99858

> <PUBCHEM_OPENEYE_CAN_SMILES>
CC[AsH2]

> <PUBCHEM_OPENEYE_ISO_SMILES>
CC[AsH2]

> <PUBCHEM_CACTVS_TPSA>
0

> <PUBCHEM_MONOISOTOPIC_WEIGHT>
105.976372

> <PUBCHEM_TOTAL_CHARGE>
0

> <PUBCHEM_HEAVY_ATOM_COUNT>
3

> <PUBCHEM_ATOM_DEF_STEREO_COUNT>
0

> <PUBCHEM_ATOM_UDEF_STEREO_COUNT>
0

> <PUBCHEM_BOND_DEF_STEREO_COUNT>
0

> <PUBCHEM_BOND_UDEF_STEREO_COUNT>
0

> <PUBCHEM_ISOTOPIC_ATOM_COUNT>
0

> <PUBCHEM_COMPONENT_COUNT>
1

> <PUBCHEM_CACTVS_TAUTO_COUNT>
1

> <PUBCHEM_COORDINATE_TYPE>
1
5
255

$$$$

