9460
  -OEChem-06261203433D

 32 33  0     0  0  0  0  0  0999 V2000
    0.5178    1.0710   -0.3387 N   0  0  0  0  0  0  0  0  0  0  0  0
    1.8777    2.4156    1.0580 N   0  0  0  0  0  0  0  0  0  0  0  0
   -0.0122    3.3862    0.1362 N   0  0  0  0  0  0  0  0  0  0  0  0
   -0.5484    0.8019   -1.2697 C   0  0  0  0  0  0  0  0  0  0  0  0
   -1.6827    0.0692   -0.6362 C   0  0  0  0  0  0  0  0  0  0  0  0
    1.4334   -0.0127   -0.1304 C   0  0  0  0  0  0  0  0  0  0  0  0
   -1.6953   -1.3256   -0.6295 C   0  0  0  0  0  0  0  0  0  0  0  0
   -2.7314    0.7788   -0.0509 C   0  0  0  0  0  0  0  0  0  0  0  0
    0.7576    2.3335    0.2614 C   0  0  0  0  0  0  0  0  0  0  0  0
    1.2359   -0.8655    0.9408 C   0  0  0  0  0  0  0  0  0  0  0  0
    2.4918   -0.1787   -1.0056 C   0  0  0  0  0  0  0  0  0  0  0  0
   -2.7562   -2.0106   -0.0374 C   0  0  0  0  0  0  0  0  0  0  0  0
   -3.7922    0.0937    0.5415 C   0  0  0  0  0  0  0  0  0  0  0  0
    2.1268   -1.9195    1.1435 C   0  0  0  0  0  0  0  0  0  0  0  0
    3.3824   -1.2330   -0.8029 C   0  0  0  0  0  0  0  0  0  0  0  0
   -3.8046   -1.3010    0.5483 C   0  0  0  0  0  0  0  0  0  0  0  0
    3.1999   -2.1034    0.2717 C   0  0  0  0  0  0  0  0  0  0  0  0
   -0.1826    0.2399   -2.1409 H   0  0  0  0  0  0  0  0  0  0  0  0
   -0.9235    1.7380   -1.7049 H   0  0  0  0  0  0  0  0  0  0  0  0
   -0.8916   -1.8935   -1.0907 H   0  0  0  0  0  0  0  0  0  0  0  0
   -2.7343    1.8655   -0.0486 H   0  0  0  0  0  0  0  0  0  0  0  0
    0.4093   -0.7251    1.6314 H   0  0  0  0  0  0  0  0  0  0  0  0
    2.6410    0.4955   -1.8440 H   0  0  0  0  0  0  0  0  0  0  0  0
   -2.7670   -3.0966   -0.0340 H   0  0  0  0  0  0  0  0  0  0  0  0
   -4.6086    0.6462    0.9974 H   0  0  0  0  0  0  0  0  0  0  0  0
    1.9859   -2.5959    1.9815 H   0  0  0  0  0  0  0  0  0  0  0  0
    4.2182   -1.3759   -1.4816 H   0  0  0  0  0  0  0  0  0  0  0  0
   -4.6308   -1.8346    1.0091 H   0  0  0  0  0  0  0  0  0  0  0  0
    3.8937   -2.9238    0.4299 H   0  0  0  0  0  0  0  0  0  0  0  0
    2.5217    1.6477    1.2034 H   0  0  0  0  0  0  0  0  0  0  0  0
    2.1097    3.2824    1.5319 H   0  0  0  0  0  0  0  0  0  0  0  0
    0.3901    4.1542    0.6844 H   0  0  0  0  0  0  0  0  0  0  0  0
  1  4  1  0  0  0  0
  1  6  1  0  0  0  0
  1  9  1  0  0  0  0
  2  9  1  0  0  0  0
  2 30  1  0  0  0  0
  2 31  1  0  0  0  0
  3  9  2  0  0  0  0
  3 32  1  0  0  0  0
  4  5  1  0  0  0  0
  4 18  1  0  0  0  0
  4 19  1  0  0  0  0
  5  7  2  0  0  0  0
  5  8  1  0  0  0  0
  6 10  2  0  0  0  0
  6 11  1  0  0  0  0
  7 12  1  0  0  0  0
  7 20  1  0  0  0  0
  8 13  2  0  0  0  0
  8 21  1  0  0  0  0
 10 14  1  0  0  0  0
 10 22  1  0  0  0  0
 11 15  2  0  0  0  0
 11 23  1  0  0  0  0
 12 16  2  0  0  0  0
 12 24  1  0  0  0  0
 13 16  1  0  0  0  0
 13 25  1  0  0  0  0
 14 17  2  0  0  0  0
 14 26  1  0  0  0  0
 15 17  1  0  0  0  0
 15 27  1  0  0  0  0
 16 28  1  0  0  0  0
 17 29  1  0  0  0  0
M  END
> <PUBCHEM_COMPOUND_CID>
9460

> <PUBCHEM_CONFORMER_RMSD>
0.6

> <PUBCHEM_CONFORMER_DIVERSEORDER>
1
8
23
13
11
9
27
28
25
21
26
5
10
18
12
3
15
4
22
16
6
19
20
24
17
7
2
14

> <PUBCHEM_MMFF94_PARTIAL_CHARGES>
30
1 -0.52
10 -0.15
11 -0.15
12 -0.15
13 -0.15
14 -0.15
15 -0.15
16 -0.15
17 -0.15
2 -0.85
20 0.15
21 0.15
22 0.15
23 0.15
24 0.15
25 0.15
26 0.15
27 0.15
28 0.15
29 0.15
3 -0.85
30 0.4
31 0.4
32 0.4
4 0.51
5 -0.14
6 0.1
7 -0.15
8 -0.15
9 0.55

> <PUBCHEM_EFFECTIVE_ROTOR_COUNT>
4

> <PUBCHEM_PHARMACOPHORE_FEATURES>
5
1 2 donor
1 3 donor
4 1 2 3 9 cation
6 5 7 8 12 13 16 rings
6 6 10 11 14 15 17 rings

> <PUBCHEM_HEAVY_ATOM_COUNT>
17

> <PUBCHEM_ATOM_DEF_STEREO_COUNT>
0

> <PUBCHEM_ATOM_UDEF_STEREO_COUNT>
0

> <PUBCHEM_BOND_DEF_STEREO_COUNT>
0

> <PUBCHEM_BOND_UDEF_STEREO_COUNT>
0

> <PUBCHEM_ISOTOPIC_ATOM_COUNT>
0

> <PUBCHEM_COMPONENT_COUNT>
1

> <PUBCHEM_CACTVS_TAUTO_COUNT>
1

> <PUBCHEM_CONFORMER_ID>
000024F400000001

> <PUBCHEM_MMFF94_ENERGY>
68.0317

> <PUBCHEM_FEATURE_SELFOVERLAP>
25.419

> <PUBCHEM_SHAPE_FINGERPRINT>
104564 63 18049440645170561867
11578080 2 17916603023492084692
12506688 2 18342175600260469714
12507560 14 18333452071301259677
12553582 1 18410578426206125319
12714826 92 18058732545064865023
13533116 47 18267016160268880659
13538477 17 17909546504151939644
14178342 30 17976549312350257369
14223421 5 18122909733450996143
14787075 74 18272089349678707618
15375462 189 18272927258347081139
15490181 8 17475234600495307788
15906896 17 17686914120846761492
16752209 62 17907873038574392813
16945 1 18265342878720247463
17804303 29 18411692206226688791
17841504 4 18410292476168417007
18186145 218 11023821833612104062
19422 9 18201709695624975855
19784866 135 18049726514152524554
20291156 8 18342453789534555347
20645477 70 18265342707528607215
21524375 3 17468767285954132048
21731228 192 17470460525191994520
21731516 1 18412272743591321167
22445834 79 18339640028116173151
2255824 54 18197491831460281644
23419403 2 13958026907525767418
23557571 272 17898294055367458786
23598294 1 18049159174721037856
238078 22 18340474669037055958
2748010 2 18339381706817616581
3084891 72 17905336469892350885
31174 14 18339644413256469135
4175511 71 18334568062254605949
5902787 121 18411706503861606666
7097593 13 18263640680587021641
7364860 26 18263079907728299685
74978 22 18336270059284024247
81228 2 17828212321720259336
83771 10 18272929453096468351

> <PUBCHEM_SHAPE_MULTIPOLES>
334.91
6.09
2.96
1.09
2.48
2.08
0.02
-3.85
-0.43
-0.93
-0.73
-0.39
-0.04
0.1

> <PUBCHEM_SHAPE_SELFOVERLAP>
713.799

> <PUBCHEM_SHAPE_VOLUME>
182.6

> <PUBCHEM_COORDINATE_TYPE>
2
5
10

$$$$

