582856
  -OEChem-06241222442D

 38 37  0     1  0  0  0  0  0999 V2000
    2.8660    0.3170    0.0000 Si  0  0  0  0  0  0  0  0  0  0  0  0
    3.7320    0.8170    0.0000 O   0  0  0  0  0  0  0  0  0  0  0  0
    4.5981    0.3170    0.0000 C   0  0  3  0  0  0  0  0  0  0  0  0
    4.5981   -0.6830    0.0000 C   0  0  0  0  0  0  0  0  0  0  0  0
    5.4641    0.8170    0.0000 C   0  0  0  0  0  0  0  0  0  0  0  0
    2.0000   -0.1830    0.0000 C   0  0  0  0  0  0  0  0  0  0  0  0
    2.3660    1.1830    0.0000 C   0  0  0  0  0  0  0  0  0  0  0  0
    3.3660   -0.5490    0.0000 C   0  0  0  0  0  0  0  0  0  0  0  0
    5.4641   -1.1830    0.0000 C   0  0  0  0  0  0  0  0  0  0  0  0
    6.3301    0.3170    0.0000 C   0  0  0  0  0  0  0  0  0  0  0  0
    8.0622   -0.6830    0.0000 C   0  0  0  0  0  0  0  0  0  0  0  0
    7.1962   -0.1830    0.0000 C   0  0  0  0  0  0  0  0  0  0  0  0
    8.9282   -0.1830    0.0000 C   0  0  0  0  0  0  0  0  0  0  0  0
    9.7942   -0.6830    0.0000 C   0  0  0  0  0  0  0  0  0  0  0  0
    4.5981    0.9370    0.0000 H   0  0  0  0  0  0  0  0  0  0  0  0
    3.9875   -0.5754    0.0000 H   0  0  0  0  0  0  0  0  0  0  0  0
    4.3860   -1.2656    0.0000 H   0  0  0  0  0  0  0  0  0  0  0  0
    5.8626    1.2919    0.0000 H   0  0  0  0  0  0  0  0  0  0  0  0
    5.0656    1.2919    0.0000 H   0  0  0  0  0  0  0  0  0  0  0  0
    2.9030    1.4930    0.0000 H   0  0  0  0  0  0  0  0  0  0  0  0
    2.0560    1.7200    0.0000 H   0  0  0  0  0  0  0  0  0  0  0  0
    1.8291    0.8730    0.0000 H   0  0  0  0  0  0  0  0  0  0  0  0
    1.6900    0.3539    0.0000 H   0  0  0  0  0  0  0  0  0  0  0  0
    1.4631   -0.4930    0.0000 H   0  0  0  0  0  0  0  0  0  0  0  0
    2.3100   -0.7199    0.0000 H   0  0  0  0  0  0  0  0  0  0  0  0
    2.8291   -0.8590    0.0000 H   0  0  0  0  0  0  0  0  0  0  0  0
    3.6760   -1.0860    0.0000 H   0  0  0  0  0  0  0  0  0  0  0  0
    3.9030   -0.2390    0.0000 H   0  0  0  0  0  0  0  0  0  0  0  0
    5.1541   -1.7200    0.0000 H   0  0  0  0  0  0  0  0  0  0  0  0
    6.0010   -1.4930    0.0000 H   0  0  0  0  0  0  0  0  0  0  0  0
    5.7741   -0.6461    0.0000 H   0  0  0  0  0  0  0  0  0  0  0  0
    7.6636   -1.1580    0.0000 H   0  0  0  0  0  0  0  0  0  0  0  0
    8.4607   -1.1580    0.0000 H   0  0  0  0  0  0  0  0  0  0  0  0
    9.3267    0.2919    0.0000 H   0  0  0  0  0  0  0  0  0  0  0  0
    8.5297    0.2919    0.0000 H   0  0  0  0  0  0  0  0  0  0  0  0
    9.4842   -1.2200    0.0000 H   0  0  0  0  0  0  0  0  0  0  0  0
   10.3312   -0.9930    0.0000 H   0  0  0  0  0  0  0  0  0  0  0  0
   10.1042   -0.1461    0.0000 H   0  0  0  0  0  0  0  0  0  0  0  0
  1  2  1  0  0  0  0
  1  6  1  0  0  0  0
  1  7  1  0  0  0  0
  1  8  1  0  0  0  0
  2  3  1  0  0  0  0
  3  4  1  0  0  0  0
  3  5  1  0  0  0  0
  3 15  1  0  0  0  0
  4  9  1  0  0  0  0
  4 16  1  0  0  0  0
  4 17  1  0  0  0  0
  5 10  1  0  0  0  0
  5 18  1  0  0  0  0
  5 19  1  0  0  0  0
  6 23  1  0  0  0  0
  6 24  1  0  0  0  0
  6 25  1  0  0  0  0
  7 20  1  0  0  0  0
  7 21  1  0  0  0  0
  7 22  1  0  0  0  0
  8 26  1  0  0  0  0
  8 27  1  0  0  0  0
  8 28  1  0  0  0  0
  9 29  1  0  0  0  0
  9 30  1  0  0  0  0
  9 31  1  0  0  0  0
 10 12  3  0  0  0  0
 11 12  1  0  0  0  0
 11 13  1  0  0  0  0
 11 32  1  0  0  0  0
 11 33  1  0  0  0  0
 13 14  1  0  0  0  0
 13 34  1  0  0  0  0
 13 35  1  0  0  0  0
 14 36  1  0  0  0  0
 14 37  1  0  0  0  0
 14 38  1  0  0  0  0
M  END
> <PUBCHEM_COMPOUND_CID>
582856

> <PUBCHEM_COMPOUND_CANONICALIZED>
1

> <PUBCHEM_CACTVS_COMPLEXITY>
203

> <PUBCHEM_CACTVS_HBOND_ACCEPTOR>
1

> <PUBCHEM_CACTVS_HBOND_DONOR>
0

> <PUBCHEM_CACTVS_ROTATABLE_BOND>
5

> <PUBCHEM_CACTVS_SUBSKEYS>
AAADceBwIAgAAAAAAAAAAAAAAAAAAAAAAAAAAAAAAAAAAAAAAAAAGhAAAEAACBSggAJCAAAAAAFAEAAAAAgAAAAAAAAAAAAAAAAAAAIAAAAAAAAAAAAAAAAAAAAAAAAAAAAAAAAAAAAAAAAAAAAAAAAAAA==

> <PUBCHEM_IUPAC_OPENEYE_NAME>
1-ethylhept-3-ynoxy(trimethyl)silane

> <PUBCHEM_IUPAC_CAS_NAME>
trimethyl(non-5-yn-3-yloxy)silane

> <PUBCHEM_IUPAC_NAME>
trimethyl(non-5-yn-3-yloxy)silane

> <PUBCHEM_IUPAC_SYSTEMATIC_NAME>
trimethyl(non-5-yn-3-yloxy)silane

> <PUBCHEM_IUPAC_TRADITIONAL_NAME>
1-ethylhept-3-ynoxy(trimethyl)silane

> <PUBCHEM_IUPAC_INCHI>
InChI=1S/C12H24OSi/c1-6-8-9-10-11-12(7-2)13-14(3,4)5/h12H,6-8,11H2,1-5H3

> <PUBCHEM_IUPAC_INCHIKEY>
KWMMGJNASBHABM-UHFFFAOYSA-N

> <PUBCHEM_EXACT_MASS>
212.159642

> <PUBCHEM_MOLECULAR_FORMULA>
C12H24OSi

> <PUBCHEM_MOLECULAR_WEIGHT>
212.40386

> <PUBCHEM_OPENEYE_CAN_SMILES>
CCCC#CCC(CC)O[Si](C)(C)C

> <PUBCHEM_OPENEYE_ISO_SMILES>
CCCC#CCC(CC)O[Si](C)(C)C

> <PUBCHEM_CACTVS_TPSA>
9.2

> <PUBCHEM_MONOISOTOPIC_WEIGHT>
212.159642

> <PUBCHEM_TOTAL_CHARGE>
0

> <PUBCHEM_HEAVY_ATOM_COUNT>
14

> <PUBCHEM_ATOM_DEF_STEREO_COUNT>
0

> <PUBCHEM_ATOM_UDEF_STEREO_COUNT>
1

> <PUBCHEM_BOND_DEF_STEREO_COUNT>
0

> <PUBCHEM_BOND_UDEF_STEREO_COUNT>
0

> <PUBCHEM_ISOTOPIC_ATOM_COUNT>
0

> <PUBCHEM_COMPONENT_COUNT>
1

> <PUBCHEM_CACTVS_TAUTO_COUNT>
1

> <PUBCHEM_COORDINATE_TYPE>
1
5
255

> <PUBCHEM_BONDANNOTATIONS>
3  5  3

$$$$

