5956
  -OEChem-06261201002D

137140  0     1  0  0  0  0  0999 V2000
    9.2966    0.0619    0.0000 S   0  0  0  0  0  0  0  0  0  0  0  0
   10.1627    0.5619    0.0000 S   0  0  0  0  0  0  0  0  0  0  0  0
    4.7306    0.8625    0.0000 O   0  0  0  0  0  0  0  0  0  0  0  0
    5.8326    0.0619    0.0000 O   0  0  0  0  0  0  0  0  0  0  0  0
    2.7091    3.8481    0.0000 O   0  0  0  0  0  0  0  0  0  0  0  0
    5.8326   -0.9381    0.0000 O   0  0  0  0  0  0  0  0  0  0  0  0
    6.6986   -4.4381    0.0000 O   0  0  0  0  0  0  0  0  0  0  0  0
    4.9665   -1.4381    0.0000 O   0  0  0  0  0  0  0  0  0  0  0  0
   10.1627   -5.4381    0.0000 O   0  0  0  0  0  0  0  0  0  0  0  0
    4.2839    7.0915    0.0000 O   0  0  0  0  0  0  0  0  0  0  0  0
   13.6268   -4.4381    0.0000 O   0  0  0  0  0  0  0  0  0  0  0  0
   12.2367   -0.4984    0.0000 O   0  0  0  0  0  0  0  0  0  0  0  0
    8.4306   -7.4381    0.0000 O   0  0  0  0  0  0  0  0  0  0  0  0
    6.6986    1.5619    0.0000 N   0  0  0  0  0  0  0  0  0  0  0  0
    4.1954    2.5098    0.0000 N   0  0  0  0  0  0  0  0  0  0  0  0
    7.5646   -0.9381    0.0000 N   0  0  0  0  0  0  0  0  0  0  0  0
    3.8680    5.1352    0.0000 N   0  0  0  0  0  0  0  0  0  0  0  0
    7.5646   -2.9381    0.0000 N   0  0  0  0  0  0  0  0  0  0  0  0
    9.2966   -3.9381    0.0000 N   0  0  0  0  0  0  0  0  0  0  0  0
    7.6723    6.3713    0.0000 N   0  0  0  0  0  0  0  0  0  0  0  0
   11.8947   -4.4381    0.0000 N   0  0  0  0  0  0  0  0  0  0  0  0
   11.8947   -2.4381    0.0000 N   0  0  0  0  0  0  0  0  0  0  0  0
    4.1005   -2.9381    0.0000 N   0  0  0  0  0  0  0  0  0  0  0  0
   10.1627   -1.4381    0.0000 N   0  0  0  0  0  0  0  0  0  0  0  0
    2.5896    7.4516    0.0000 N   0  0  0  0  0  0  0  0  0  0  0  0
    6.6986   -7.4381    0.0000 N   0  0  0  0  0  0  0  0  0  0  0  0
    5.8896    2.1497    0.0000 C   0  0  3  0  0  0  0  0  0  0  0  0
    6.1986    3.1008    0.0000 C   0  0  0  0  0  0  0  0  0  0  0  0
    7.1986    3.1008    0.0000 C   0  0  0  0  0  0  0  0  0  0  0  0
    7.5076    2.1497    0.0000 C   0  0  0  0  0  0  0  0  0  0  0  0
    4.9385    1.8407    0.0000 C   0  0  0  0  0  0  0  0  0  0  0  0
    6.6986    0.5619    0.0000 C   0  0  0  0  0  0  0  0  0  0  0  0
    7.5646    0.0619    0.0000 C   0  0  3  0  0  0  0  0  0  0  0  0
    4.4033    3.4880    0.0000 C   0  0  3  0  0  0  0  0  0  0  0  0
    8.4306    0.5619    0.0000 C   0  0  0  0  0  0  0  0  0  0  0  0
    5.3543    3.7970    0.0000 C   0  0  0  0  0  0  0  0  0  0  0  0
    5.5622    4.7751    0.0000 C   0  0  0  0  0  0  0  0  0  0  0  0
    3.6601    4.1571    0.0000 C   0  0  0  0  0  0  0  0  0  0  0  0
    6.6986   -1.4381    0.0000 C   0  0  0  0  0  0  0  0  0  0  0  0
    6.6986   -2.4381    0.0000 C   0  0  3  0  0  0  0  0  0  0  0  0
    6.5133    5.0841    0.0000 C   0  0  0  0  0  0  0  0  0  0  0  0
    5.8326   -2.9381    0.0000 C   0  0  0  0  0  0  0  0  0  0  0  0
    6.7212    6.0623    0.0000 C   0  0  0  0  0  0  0  0  0  0  0  0
    8.4306   -4.4381    0.0000 C   0  0  3  0  0  0  0  0  0  0  0  0
    7.5646   -3.9381    0.0000 C   0  0  0  0  0  0  0  0  0  0  0  0
    3.1249    5.8044    0.0000 C   0  0  0  0  0  0  0  0  0  0  0  0
    8.4306   -5.4381    0.0000 C   0  0  0  0  0  0  0  0  0  0  0  0
   11.0287    0.0619    0.0000 C   0  0  0  0  0  0  0  0  0  0  0  0
    4.9665   -2.4381    0.0000 C   0  0  0  0  0  0  0  0  0  0  0  0
   11.0287   -3.9381    0.0000 C   0  0  3  0  0  0  0  0  0  0  0  0
   11.0287   -0.9381    0.0000 C   0  0  3  0  0  0  0  0  0  0  0  0
   10.1627   -4.4381    0.0000 C   0  0  0  0  0  0  0  0  0  0  0  0
   12.7608   -2.9381    0.0000 C   0  0  3  0  0  0  0  0  0  0  0  0
    7.5646   -5.9381    0.0000 C   0  0  0  0  0  0  0  0  0  0  0  0
   10.6867   -2.9984    0.0000 C   0  0  0  0  0  0  0  0  0  0  0  0
    3.3328    6.7825    0.0000 C   0  0  0  0  0  0  0  0  0  0  0  0
   12.7608   -3.9381    0.0000 C   0  0  0  0  0  0  0  0  0  0  0  0
   11.8947   -1.4381    0.0000 C   0  0  0  0  0  0  0  0  0  0  0  0
   13.6268   -2.4381    0.0000 C   0  0  0  0  0  0  0  0  0  0  0  0
   11.3295   -2.2324    0.0000 C   0  0  0  0  0  0  0  0  0  0  0  0
    7.5646   -6.9381    0.0000 C   0  0  0  0  0  0  0  0  0  0  0  0
   14.4928   -2.9381    0.0000 C   0  0  0  0  0  0  0  0  0  0  0  0
   10.9874   -1.2927    0.0000 C   0  0  0  0  0  0  0  0  0  0  0  0
   12.3143   -2.4060    0.0000 C   0  0  0  0  0  0  0  0  0  0  0  0
   14.4928   -3.9381    0.0000 C   0  0  0  0  0  0  0  0  0  0  0  0
   15.3588   -2.4381    0.0000 C   0  0  0  0  0  0  0  0  0  0  0  0
   11.6302   -0.5266    0.0000 C   0  0  0  0  0  0  0  0  0  0  0  0
   12.9571   -1.6400    0.0000 C   0  0  0  0  0  0  0  0  0  0  0  0
   12.6150   -0.7003    0.0000 C   0  0  0  0  0  0  0  0  0  0  0  0
   15.3588   -4.4381    0.0000 C   0  0  0  0  0  0  0  0  0  0  0  0
   16.2249   -2.9381    0.0000 C   0  0  0  0  0  0  0  0  0  0  0  0
   16.2249   -3.9381    0.0000 C   0  0  0  0  0  0  0  0  0  0  0  0
    5.7566    1.3102    0.0000 H   0  0  0  0  0  0  0  0  0  0  0  0
    6.2634    3.7174    0.0000 H   0  0  0  0  0  0  0  0  0  0  0  0
    5.5921    3.2296    0.0000 H   0  0  0  0  0  0  0  0  0  0  0  0
    7.8050    3.2296    0.0000 H   0  0  0  0  0  0  0  0  0  0  0  0
    7.1338    3.7174    0.0000 H   0  0  0  0  0  0  0  0  0  0  0  0
    7.8176    1.6128    0.0000 H   0  0  0  0  0  0  0  0  0  0  0  0
    8.0740    2.4019    0.0000 H   0  0  0  0  0  0  0  0  0  0  0  0
    6.8285   -0.3631    0.0000 H   0  0  0  0  0  0  0  0  0  0  0  0
    3.6057    2.3182    0.0000 H   0  0  0  0  0  0  0  0  0  0  0  0
    3.5949    3.2253    0.0000 H   0  0  0  0  0  0  0  0  0  0  0  0
    8.8292    1.0368    0.0000 H   0  0  0  0  0  0  0  0  0  0  0  0
    8.0321    1.0369    0.0000 H   0  0  0  0  0  0  0  0  0  0  0  0
    5.4406    3.1830    0.0000 H   0  0  0  0  0  0  0  0  0  0  0  0
    5.9739    3.7753    0.0000 H   0  0  0  0  0  0  0  0  0  0  0  0
    8.1015   -1.2481    0.0000 H   0  0  0  0  0  0  0  0  0  0  0  0
    5.4760    5.3891    0.0000 H   0  0  0  0  0  0  0  0  0  0  0  0
    4.9426    4.7968    0.0000 H   0  0  0  0  0  0  0  0  0  0  0  0
    6.6986   -3.2881    0.0000 H   0  0  0  0  0  0  0  0  0  0  0  0
    6.5996    4.4702    0.0000 H   0  0  0  0  0  0  0  0  0  0  0  0
    7.1329    5.0625    0.0000 H   0  0  0  0  0  0  0  0  0  0  0  0
    4.4577    5.3268    0.0000 H   0  0  0  0  0  0  0  0  0  0  0  0
    5.4340   -3.4130    0.0000 H   0  0  0  0  0  0  0  0  0  0  0  0
    6.2311   -3.4130    0.0000 H   0  0  0  0  0  0  0  0  0  0  0  0
    8.1015   -2.6281    0.0000 H   0  0  0  0  0  0  0  0  0  0  0  0
    6.6349    6.6762    0.0000 H   0  0  0  0  0  0  0  0  0  0  0  0
    6.1016    6.0839    0.0000 H   0  0  0  0  0  0  0  0  0  0  0  0
    9.1668   -4.8631    0.0000 H   0  0  0  0  0  0  0  0  0  0  0  0
    2.5500    6.0366    0.0000 H   0  0  0  0  0  0  0  0  0  0  0  0
    2.7963    5.2786    0.0000 H   0  0  0  0  0  0  0  0  0  0  0  0
    8.6427   -6.0207    0.0000 H   0  0  0  0  0  0  0  0  0  0  0  0
    9.0412   -5.3304    0.0000 H   0  0  0  0  0  0  0  0  0  0  0  0
   11.6393   -0.0458    0.0000 H   0  0  0  0  0  0  0  0  0  0  0  0
   11.2408    0.6445    0.0000 H   0  0  0  0  0  0  0  0  0  0  0  0
   11.6798   -3.3917    0.0000 H   0  0  0  0  0  0  0  0  0  0  0  0
    9.2966   -3.3181    0.0000 H   0  0  0  0  0  0  0  0  0  0  0  0
   11.0287   -1.7881    0.0000 H   0  0  0  0  0  0  0  0  0  0  0  0
    7.8012    6.9778    0.0000 H   0  0  0  0  0  0  0  0  0  0  0  0
    8.1330    5.9564    0.0000 H   0  0  0  0  0  0  0  0  0  0  0  0
   12.7608   -2.0881    0.0000 H   0  0  0  0  0  0  0  0  0  0  0  0
    7.3526   -5.3555    0.0000 H   0  0  0  0  0  0  0  0  0  0  0  0
    6.9540   -6.0458    0.0000 H   0  0  0  0  0  0  0  0  0  0  0  0
   10.2882   -2.5234    0.0000 H   0  0  0  0  0  0  0  0  0  0  0  0
   10.1497   -3.3084    0.0000 H   0  0  0  0  0  0  0  0  0  0  0  0
   11.8947   -5.0581    0.0000 H   0  0  0  0  0  0  0  0  0  0  0  0
   14.0253   -1.9631    0.0000 H   0  0  0  0  0  0  0  0  0  0  0  0
   13.2282   -1.9632    0.0000 H   0  0  0  0  0  0  0  0  0  0  0  0
   11.5847   -2.9750    0.0000 H   0  0  0  0  0  0  0  0  0  0  0  0
    3.5636   -2.6281    0.0000 H   0  0  0  0  0  0  0  0  0  0  0  0
    4.1005   -3.5581    0.0000 H   0  0  0  0  0  0  0  0  0  0  0  0
    9.6257   -1.1281    0.0000 H   0  0  0  0  0  0  0  0  0  0  0  0
   10.1627   -2.0581    0.0000 H   0  0  0  0  0  0  0  0  0  0  0  0
    2.7186    8.0581    0.0000 H   0  0  0  0  0  0  0  0  0  0  0  0
    2.0000    7.2600    0.0000 H   0  0  0  0  0  0  0  0  0  0  0  0
   10.3769   -1.1850    0.0000 H   0  0  0  0  0  0  0  0  0  0  0  0
   12.5263   -2.9886    0.0000 H   0  0  0  0  0  0  0  0  0  0  0  0
   13.9559   -4.2481    0.0000 H   0  0  0  0  0  0  0  0  0  0  0  0
   15.3588   -1.8181    0.0000 H   0  0  0  0  0  0  0  0  0  0  0  0
    6.6986   -8.0581    0.0000 H   0  0  0  0  0  0  0  0  0  0  0  0
    6.1616   -7.1281    0.0000 H   0  0  0  0  0  0  0  0  0  0  0  0
   11.4182    0.0560    0.0000 H   0  0  0  0  0  0  0  0  0  0  0  0
   13.5676   -1.7476    0.0000 H   0  0  0  0  0  0  0  0  0  0  0  0
   13.0136   -0.2253    0.0000 H   0  0  0  0  0  0  0  0  0  0  0  0
   15.3588   -5.0581    0.0000 H   0  0  0  0  0  0  0  0  0  0  0  0
   16.7618   -2.6281    0.0000 H   0  0  0  0  0  0  0  0  0  0  0  0
   16.7618   -4.2481    0.0000 H   0  0  0  0  0  0  0  0  0  0  0  0
  1  2  1  0  0  0  0
  1 35  1  0  0  0  0
  2 48  1  0  0  0  0
  3 31  2  0  0  0  0
  4 32  2  0  0  0  0
  5 38  2  0  0  0  0
  6 39  2  0  0  0  0
  7 45  2  0  0  0  0
  8 49  2  0  0  0  0
  9 52  2  0  0  0  0
 10 56  2  0  0  0  0
 11 57  2  0  0  0  0
 12 58  2  0  0  0  0
 13 61  2  0  0  0  0
 14 27  1  0  0  0  0
 14 30  1  0  0  0  0
 14 32  1  0  0  0  0
 15 31  1  0  0  0  0
 15 34  1  0  0  0  0
 15 81  1  0  0  0  0
 16 33  1  0  0  0  0
 16 39  1  0  0  0  0
 16 87  1  0  0  0  0
 17 38  1  0  0  0  0
 17 46  1  0  0  0  0
 17 93  1  0  0  0  0
 18 40  1  0  0  0  0
 18 45  1  0  0  0  0
 18 96  1  0  0  0  0
 19 44  1  0  0  0  0
 19 52  1  0  0  0  0
 19107  1  0  0  0  0
 20 43  1  0  0  0  0
 20109  1  0  0  0  0
 20110  1  0  0  0  0
 21 50  1  0  0  0  0
 21 57  1  0  0  0  0
 21116  1  0  0  0  0
 22 53  1  0  0  0  0
 22 58  1  0  0  0  0
 22119  1  0  0  0  0
 23 49  1  0  0  0  0
 23120  1  0  0  0  0
 23121  1  0  0  0  0
 24 51  1  0  0  0  0
 24122  1  0  0  0  0
 24123  1  0  0  0  0
 25 56  1  0  0  0  0
 25124  1  0  0  0  0
 25125  1  0  0  0  0
 26 61  1  0  0  0  0
 26130  1  0  0  0  0
 26131  1  0  0  0  0
 27 28  1  0  0  0  0
 27 31  1  0  0  0  0
 27 73  1  0  0  0  0
 28 29  1  0  0  0  0
 28 74  1  0  0  0  0
 28 75  1  0  0  0  0
 29 30  1  0  0  0  0
 29 76  1  0  0  0  0
 29 77  1  0  0  0  0
 30 78  1  0  0  0  0
 30 79  1  0  0  0  0
 32 33  1  0  0  0  0
 33 35  1  0  0  0  0
 33 80  1  0  0  0  0
 34 36  1  0  0  0  0
 34 38  1  0  0  0  0
 34 82  1  0  0  0  0
 35 83  1  0  0  0  0
 35 84  1  0  0  0  0
 36 37  1  0  0  0  0
 36 85  1  0  0  0  0
 36 86  1  0  0  0  0
 37 41  1  0  0  0  0
 37 88  1  0  0  0  0
 37 89  1  0  0  0  0
 39 40  1  0  0  0  0
 40 42  1  0  0  0  0
 40 90  1  0  0  0  0
 41 43  1  0  0  0  0
 41 91  1  0  0  0  0
 41 92  1  0  0  0  0
 42 49  1  0  0  0  0
 42 94  1  0  0  0  0
 42 95  1  0  0  0  0
 43 97  1  0  0  0  0
 43 98  1  0  0  0  0
 44 45  1  0  0  0  0
 44 47  1  0  0  0  0
 44 99  1  0  0  0  0
 46 56  1  0  0  0  0
 46100  1  0  0  0  0
 46101  1  0  0  0  0
 47 54  1  0  0  0  0
 47102  1  0  0  0  0
 47103  1  0  0  0  0
 48 51  1  0  0  0  0
 48104  1  0  0  0  0
 48105  1  0  0  0  0
 50 52  1  0  0  0  0
 50 55  1  0  0  0  0
 50106  1  0  0  0  0
 51 58  1  0  0  0  0
 51108  1  0  0  0  0
 53 57  1  0  0  0  0
 53 59  1  0  0  0  0
 53111  1  0  0  0  0
 54 61  1  0  0  0  0
 54112  1  0  0  0  0
 54113  1  0  0  0  0
 55 60  1  0  0  0  0
 55114  1  0  0  0  0
 55115  1  0  0  0  0
 59 62  1  0  0  0  0
 59117  1  0  0  0  0
 59118  1  0  0  0  0
 60 63  2  0  0  0  0
 60 64  1  0  0  0  0
 62 65  2  0  0  0  0
 62 66  1  0  0  0  0
 63 67  1  0  0  0  0
 63126  1  0  0  0  0
 64 68  2  0  0  0  0
 64127  1  0  0  0  0
 65 70  1  0  0  0  0
 65128  1  0  0  0  0
 66 71  2  0  0  0  0
 66129  1  0  0  0  0
 67 69  2  0  0  0  0
 67132  1  0  0  0  0
 68 69  1  0  0  0  0
 68133  1  0  0  0  0
 69134  1  0  0  0  0
 70 72  2  0  0  0  0
 70135  1  0  0  0  0
 71 72  1  0  0  0  0
 71136  1  0  0  0  0
 72137  1  0  0  0  0
M  END
> <PUBCHEM_COMPOUND_CID>
5956

> <PUBCHEM_COMPOUND_CANONICALIZED>
1

> <PUBCHEM_CACTVS_COMPLEXITY>
1920

> <PUBCHEM_CACTVS_HBOND_ACCEPTOR>
15

> <PUBCHEM_CACTVS_HBOND_DONOR>
12

> <PUBCHEM_CACTVS_ROTATABLE_BOND>
19

> <PUBCHEM_CACTVS_SUBSKEYS>
AAADcfB//ABgAAAAAAAAAAAAAAAAAWAAAAAwYAAAAAAAAAABQAAAHgQQAAAADCjF2ASwAIPAAACIAiFSEAACAAAgAAAIiIGIAIgIYDqA0TGUIAAglgCIiAcdi4COAAAAAAAAAAAAAAAAAAAAAAAAAAAAAA==

> <PUBCHEM_IUPAC_OPENEYE_NAME>
1-[19-amino-7-(2-amino-2-oxo-ethyl)-10-(3-amino-3-oxo-propyl)-13,16-dibenzyl-6,9,12,15,18-pentaoxo-1,2-dithia-5,8,11,14,17-pentazacycloicosane-4-carbonyl]-N-[5-amino-1-[(2-amino-2-oxo-ethyl)carbamoyl]pentyl]pyrrolidine-2-carboxamide

> <PUBCHEM_IUPAC_CAS_NAME>
N-[6-amino-1-[(2-amino-2-oxoethyl)amino]-1-oxohexan-2-yl]-1-[[19-amino-7-(2-amino-2-oxoethyl)-10-(3-amino-3-oxopropyl)-6,9,12,15,18-pentaoxo-13,16-bis(phenylmethyl)-1,2-dithia-5,8,11,14,17-pentazacycloeicos-4-yl]-oxomethyl]-2-pyrrolidinecarboxamide

> <PUBCHEM_IUPAC_NAME>
N-[6-amino-1-[(2-amino-2-oxoethyl)amino]-1-oxohexan-2-yl]-1-[19-amino-7-(2-amino-2-oxoethyl)-10-(3-amino-3-oxopropyl)-13,16-dibenzyl-6,9,12,15,18-pentaoxo-1,2-dithia-5,8,11,14,17-pentazacycloicosane-4-carbonyl]pyrrolidine-2-carboxamide

> <PUBCHEM_IUPAC_SYSTEMATIC_NAME>
N-[6-azanyl-1-[(2-azanyl-2-oxidanylidene-ethyl)amino]-1-oxidanylidene-hexan-2-yl]-1-[[19-azanyl-7-(2-azanyl-2-oxidanylidene-ethyl)-10-(3-azanyl-3-oxidanylidene-propyl)-6,9,12,15,18-pentakis(oxidanylidene)-13,16-bis(phenylmethyl)-1,2-dithia-5,8,11,14,17-pentazacycloicos-4-yl]carbonyl]pyrrolidine-2-carboxamide

> <PUBCHEM_IUPAC_TRADITIONAL_NAME>
1-[19-amino-7-(2-amino-2-keto-ethyl)-10-(3-amino-3-keto-propyl)-13,16-dibenzyl-6,9,12,15,18-pentaketo-1,2-dithia-5,8,11,14,17-pentazacycloeicosane-4-carbonyl]-N-[5-amino-1-[(2-amino-2-keto-ethyl)carbamoyl]pentyl]pyrrolidine-2-carboxamide

> <PUBCHEM_IUPAC_INCHI>
InChI=1S/C46H65N13O11S2/c47-18-8-7-14-29(40(64)52-23-38(51)62)54-45(69)35-15-9-19-59(35)46(70)34-25-72-71-24-28(48)39(63)55-31(20-26-10-3-1-4-11-26)43(67)56-32(21-27-12-5-2-6-13-27)42(66)53-30(16-17-36(49)60)41(65)57-33(22-37(50)61)44(68)58-34/h1-6,10-13,28-35H,7-9,14-25,47-48H2,(H2,49,60)(H2,50,61)(H2,51,62)(H,52,64)(H,53,66)(H,54,69)(H,55,63)(H,56,67)(H,57,65)(H,58,68)

> <PUBCHEM_IUPAC_INCHIKEY>
SFKQVVDKFKYTNA-UHFFFAOYSA-N

> <PUBCHEM_XLOGP3_AA>
-3.5

> <PUBCHEM_EXACT_MASS>
1039.436792

> <PUBCHEM_MOLECULAR_FORMULA>
C46H65N13O11S2

> <PUBCHEM_MOLECULAR_WEIGHT>
1040.2188

> <PUBCHEM_OPENEYE_CAN_SMILES>
C1CC(N(C1)C(=O)C2CSSCC(C(=O)NC(C(=O)NC(C(=O)NC(C(=O)NC(C(=O)N2)CC(=O)N)CCC(=O)N)CC3=CC=CC=C3)CC4=CC=CC=C4)N)C(=O)NC(CCCCN)C(=O)NCC(=O)N

> <PUBCHEM_OPENEYE_ISO_SMILES>
C1CC(N(C1)C(=O)C2CSSCC(C(=O)NC(C(=O)NC(C(=O)NC(C(=O)NC(C(=O)N2)CC(=O)N)CCC(=O)N)CC3=CC=CC=C3)CC4=CC=CC=C4)N)C(=O)NC(CCCCN)C(=O)NCC(=O)N

> <PUBCHEM_CACTVS_TPSA>
456

> <PUBCHEM_MONOISOTOPIC_WEIGHT>
1039.436792

> <PUBCHEM_TOTAL_CHARGE>
0

> <PUBCHEM_HEAVY_ATOM_COUNT>
72

> <PUBCHEM_ATOM_DEF_STEREO_COUNT>
0

> <PUBCHEM_ATOM_UDEF_STEREO_COUNT>
8

> <PUBCHEM_BOND_DEF_STEREO_COUNT>
0

> <PUBCHEM_BOND_UDEF_STEREO_COUNT>
0

> <PUBCHEM_ISOTOPIC_ATOM_COUNT>
0

> <PUBCHEM_COMPONENT_COUNT>
1

> <PUBCHEM_CACTVS_TAUTO_COUNT>
1001

> <PUBCHEM_COORDINATE_TYPE>
1
5
255

> <PUBCHEM_BONDANNOTATIONS>
27  73  3
33  80  3
34  82  3
40  90  3
44  99  3
50  106  3
51  108  3
53  111  3
60  63  8
60  64  8
62  65  8
62  66  8
63  67  8
64  68  8
65  70  8
66  71  8
67  69  8
68  69  8
70  72  8
71  72  8

$$$$

