3556
  -OEChem-06251223302D

 93 96  0     1  0  0  0  0  0999 V2000
    8.2443   -4.1086    0.0000 S   0  0  0  0  0  0  0  0  0  0  0  0
    2.8718   -0.9934    0.0000 S   0  0  0  0  0  0  0  0  0  0  0  0
    3.7235   -3.5950    0.0000 S   0  0  0  0  0  0  0  0  0  0  0  0
    7.3763   -3.6120    0.0000 O   0  0  0  0  0  0  0  0  0  0  0  0
    3.7435   -0.5034    0.0000 O   0  0  0  0  0  0  0  0  0  0  0  0
    3.7274   -2.5950    0.0000 O   0  0  0  0  0  0  0  0  0  0  0  0
    9.1122   -4.6053    0.0000 O   0  5  0  0  0  0  0  0  0  0  0  0
    7.7476   -4.9765    0.0000 O   0  0  0  0  0  0  0  0  0  0  0  0
    8.7409   -3.2407    0.0000 O   0  0  0  0  0  0  0  0  0  0  0  0
    2.0000   -1.4833    0.0000 O   0  5  0  0  0  0  0  0  0  0  0  0
    2.3818   -0.1216    0.0000 O   0  0  0  0  0  0  0  0  0  0  0  0
    3.3617   -1.8651    0.0000 O   0  0  0  0  0  0  0  0  0  0  0  0
    3.7197   -4.5950    0.0000 O   0  5  0  0  0  0  0  0  0  0  0  0
    2.7235   -3.5912    0.0000 O   0  0  0  0  0  0  0  0  0  0  0  0
    4.7235   -3.5989    0.0000 O   0  0  0  0  0  0  0  0  0  0  0  0
    9.1205   -0.5427    0.0000 C   0  0  3  0  0  0  0  0  0  0  0  0
    9.1205    0.4573    0.0000 C   0  0  3  0  0  0  0  0  0  0  0  0
    8.2544   -1.0427    0.0000 C   0  0  3  0  0  0  0  0  0  0  0  0
    7.3884   -0.5427    0.0000 C   0  0  3  0  0  0  0  0  0  0  0  0
    6.4784   -1.0495    0.0000 C   0  0  3  0  0  0  0  0  0  0  0  0
   10.0667    0.7620    0.0000 C   0  0  3  0  0  0  0  0  0  0  0  0
    6.4704   -2.0911    0.0000 C   0  0  3  0  0  0  0  0  0  0  0  0
    8.2544    0.9573    0.0000 C   0  0  0  0  0  0  0  0  0  0  0  0
    7.3884    0.4573    0.0000 C   0  0  0  0  0  0  0  0  0  0  0  0
    8.2705   -2.0842    0.0000 C   0  0  0  0  0  0  0  0  0  0  0  0
   10.0667   -0.8474    0.0000 C   0  0  0  0  0  0  0  0  0  0  0  0
    7.3724   -2.6120    0.0000 C   0  0  3  0  0  0  0  0  0  0  0  0
   10.6503   -0.0427    0.0000 C   0  0  0  0  0  0  0  0  0  0  0  0
    5.5516   -0.4855    0.0000 C   0  0  0  0  0  0  0  0  0  0  0  0
    5.5350   -2.6409    0.0000 C   0  0  0  0  0  0  0  0  0  0  0  0
    9.1205    1.4573    0.0000 C   0  0  0  0  0  0  0  0  0  0  0  0
   10.3773    1.7126    0.0000 C   0  0  3  0  0  0  0  0  0  0  0  0
    6.4861   -0.0496    0.0000 C   0  0  0  0  0  0  0  0  0  0  0  0
    4.6037   -1.0134    0.0000 C   0  0  3  0  0  0  0  0  0  0  0  0
    4.5953   -2.0984    0.0000 C   0  0  3  0  0  0  0  0  0  0  0  0
   11.3558    1.9188    0.0000 C   0  0  0  0  0  0  0  0  0  0  0  0
    9.7095    2.4569    0.0000 C   0  0  0  0  0  0  0  0  0  0  0  0
   11.6665    2.8693    0.0000 C   0  0  0  0  0  0  0  0  0  0  0  0
   12.6450    3.0755    0.0000 C   0  0  3  0  0  0  0  0  0  0  0  0
   12.9557    4.0260    0.0000 C   0  0  0  0  0  0  0  0  0  0  0  0
   13.3129    2.3312    0.0000 C   0  0  0  0  0  0  0  0  0  0  0  0
   13.2663    4.9765    0.0000 C   0  0  0  0  0  0  0  0  0  0  0  0
   13.9062    3.7154    0.0000 C   0  0  0  0  0  0  0  0  0  0  0  0
   12.0052    4.3367    0.0000 C   0  0  0  0  0  0  0  0  0  0  0  0
    9.1861   -1.1592    0.0000 H   0  0  0  0  0  0  0  0  0  0  0  0
    8.7937   -1.3486    0.0000 H   0  0  0  0  0  0  0  0  0  0  0  0
    7.9253   -0.2327    0.0000 H   0  0  0  0  0  0  0  0  0  0  0  0
   10.6792    0.8582    0.0000 H   0  0  0  0  0  0  0  0  0  0  0  0
    6.4728   -2.7111    0.0000 H   0  0  0  0  0  0  0  0  0  0  0  0
    8.6530    1.4322    0.0000 H   0  0  0  0  0  0  0  0  0  0  0  0
    7.8559    1.4322    0.0000 H   0  0  0  0  0  0  0  0  0  0  0  0
    7.1764    1.0399    0.0000 H   0  0  0  0  0  0  0  0  0  0  0  0
    6.7778    0.3496    0.0000 H   0  0  0  0  0  0  0  0  0  0  0  0
    8.4885   -2.6646    0.0000 H   0  0  0  0  0  0  0  0  0  0  0  0
    8.8796   -1.9687    0.0000 H   0  0  0  0  0  0  0  0  0  0  0  0
    9.8156   -1.4143    0.0000 H   0  0  0  0  0  0  0  0  0  0  0  0
   10.6041   -1.1566    0.0000 H   0  0  0  0  0  0  0  0  0  0  0  0
    6.8361   -2.9230    0.0000 H   0  0  0  0  0  0  0  0  0  0  0  0
   11.1112   -0.4574    0.0000 H   0  0  0  0  0  0  0  0  0  0  0  0
   11.1112    0.3720    0.0000 H   0  0  0  0  0  0  0  0  0  0  0  0
    5.9598   -0.0188    0.0000 H   0  0  0  0  0  0  0  0  0  0  0  0
    5.1616   -0.0034    0.0000 H   0  0  0  0  0  0  0  0  0  0  0  0
    5.1376   -3.1168    0.0000 H   0  0  0  0  0  0  0  0  0  0  0  0
    5.9359   -3.1138    0.0000 H   0  0  0  0  0  0  0  0  0  0  0  0
    9.7405    1.4573    0.0000 H   0  0  0  0  0  0  0  0  0  0  0  0
    9.1205    2.0773    0.0000 H   0  0  0  0  0  0  0  0  0  0  0  0
    8.5005    1.4573    0.0000 H   0  0  0  0  0  0  0  0  0  0  0  0
   10.5700    2.3019    0.0000 H   0  0  0  0  0  0  0  0  0  0  0  0
    7.1061   -0.0544    0.0000 H   0  0  0  0  0  0  0  0  0  0  0  0
    6.4909    0.5704    0.0000 H   0  0  0  0  0  0  0  0  0  0  0  0
    5.8661   -0.0448    0.0000 H   0  0  0  0  0  0  0  0  0  0  0  0
    4.0638   -1.3182    0.0000 H   0  0  0  0  0  0  0  0  0  0  0  0
    4.0602   -1.7853    0.0000 H   0  0  0  0  0  0  0  0  0  0  0  0
   11.3764    1.2991    0.0000 H   0  0  0  0  0  0  0  0  0  0  0  0
   11.9697    1.8314    0.0000 H   0  0  0  0  0  0  0  0  0  0  0  0
   10.1710    2.8709    0.0000 H   0  0  0  0  0  0  0  0  0  0  0  0
    9.2954    2.9183    0.0000 H   0  0  0  0  0  0  0  0  0  0  0  0
    9.2480    2.0428    0.0000 H   0  0  0  0  0  0  0  0  0  0  0  0
   11.6459    3.4890    0.0000 H   0  0  0  0  0  0  0  0  0  0  0  0
   11.0527    2.9566    0.0000 H   0  0  0  0  0  0  0  0  0  0  0  0
   12.4524    2.4862    0.0000 H   0  0  0  0  0  0  0  0  0  0  0  0
   12.8514    1.9172    0.0000 H   0  0  0  0  0  0  0  0  0  0  0  0
   13.7269    1.8698    0.0000 H   0  0  0  0  0  0  0  0  0  0  0  0
   13.7743    2.7453    0.0000 H   0  0  0  0  0  0  0  0  0  0  0  0
   13.8557    4.7839    0.0000 H   0  0  0  0  0  0  0  0  0  0  0  0
   13.7136    3.1261    0.0000 H   0  0  0  0  0  0  0  0  0  0  0  0
   14.4955    3.5228    0.0000 H   0  0  0  0  0  0  0  0  0  0  0  0
   14.0988    4.3047    0.0000 H   0  0  0  0  0  0  0  0  0  0  0  0
   12.1978    4.9260    0.0000 H   0  0  0  0  0  0  0  0  0  0  0  0
   11.4158    4.5293    0.0000 H   0  0  0  0  0  0  0  0  0  0  0  0
   11.8125    3.7474    0.0000 H   0  0  0  0  0  0  0  0  0  0  0  0
   13.4590    5.5659    0.0000 H   0  0  0  0  0  0  0  0  0  0  0  0
   12.6770    5.1692    0.0000 H   0  0  0  0  0  0  0  0  0  0  0  0
  1  4  1  0  0  0  0
  1  7  1  0  0  0  0
  1  8  2  0  0  0  0
  1  9  2  0  0  0  0
  2  5  1  0  0  0  0
  2 10  1  0  0  0  0
  2 11  2  0  0  0  0
  2 12  2  0  0  0  0
  3  6  1  0  0  0  0
  3 13  1  0  0  0  0
  3 14  2  0  0  0  0
  3 15  2  0  0  0  0
  4 27  1  0  0  0  0
  5 34  1  0  0  0  0
  6 35  1  0  0  0  0
 16 17  1  0  0  0  0
 16 18  1  0  0  0  0
 16 26  1  0  0  0  0
 16 45  1  0  0  0  0
 17 21  1  0  0  0  0
 17 23  1  0  0  0  0
 17 31  1  0  0  0  0
 18 19  1  0  0  0  0
 18 25  1  0  0  0  0
 18 46  1  0  0  0  0
 19 20  1  0  0  0  0
 19 24  1  0  0  0  0
 19 47  1  0  0  0  0
 20 22  1  0  0  0  0
 20 29  1  0  0  0  0
 20 33  1  0  0  0  0
 21 28  1  0  0  0  0
 21 32  1  0  0  0  0
 21 48  1  0  0  0  0
 22 27  1  0  0  0  0
 22 30  1  0  0  0  0
 22 49  1  0  0  0  0
 23 24  1  0  0  0  0
 23 50  1  0  0  0  0
 23 51  1  0  0  0  0
 24 52  1  0  0  0  0
 24 53  1  0  0  0  0
 25 27  1  0  0  0  0
 25 54  1  0  0  0  0
 25 55  1  0  0  0  0
 26 28  1  0  0  0  0
 26 56  1  0  0  0  0
 26 57  1  0  0  0  0
 27 58  1  0  0  0  0
 28 59  1  0  0  0  0
 28 60  1  0  0  0  0
 29 34  1  0  0  0  0
 29 61  1  0  0  0  0
 29 62  1  0  0  0  0
 30 35  1  0  0  0  0
 30 63  1  0  0  0  0
 30 64  1  0  0  0  0
 31 65  1  0  0  0  0
 31 66  1  0  0  0  0
 31 67  1  0  0  0  0
 32 36  1  0  0  0  0
 32 37  1  0  0  0  0
 32 68  1  0  0  0  0
 33 69  1  0  0  0  0
 33 70  1  0  0  0  0
 33 71  1  0  0  0  0
 34 35  1  0  0  0  0
 34 72  1  0  0  0  0
 35 73  1  0  0  0  0
 36 38  1  0  0  0  0
 36 74  1  0  0  0  0
 36 75  1  0  0  0  0
 37 76  1  0  0  0  0
 37 77  1  0  0  0  0
 37 78  1  0  0  0  0
 38 39  1  0  0  0  0
 38 79  1  0  0  0  0
 38 80  1  0  0  0  0
 39 40  1  0  0  0  0
 39 41  1  0  0  0  0
 39 81  1  0  0  0  0
 40 42  1  0  0  0  0
 40 43  1  0  0  0  0
 40 44  1  0  0  0  0
 41 82  1  0  0  0  0
 41 83  1  0  0  0  0
 41 84  1  0  0  0  0
 42 85  1  0  0  0  0
 42 92  1  0  0  0  0
 42 93  1  0  0  0  0
 43 86  1  0  0  0  0
 43 87  1  0  0  0  0
 43 88  1  0  0  0  0
 44 89  1  0  0  0  0
 44 90  1  0  0  0  0
 44 91  1  0  0  0  0
M  CHG  3   7  -1  10  -1  13  -1
M  END
> <PUBCHEM_COMPOUND_CID>
3556

> <PUBCHEM_COMPOUND_CANONICALIZED>
1

> <PUBCHEM_CACTVS_COMPLEXITY>
1320

> <PUBCHEM_CACTVS_HBOND_ACCEPTOR>
12

> <PUBCHEM_CACTVS_HBOND_DONOR>
0

> <PUBCHEM_CACTVS_ROTATABLE_BOND>
8

> <PUBCHEM_CACTVS_SUBSKEYS>
AAADcfB4PABgAAAAAAAAAAAAAAAAAYAAAAAwYMAAAAAAAGDAAAAAGgAAAAAADxSggAICAAAAAAAAAAAAADAAAAAAAAAAAAAAAAABAAIAAAAAAAAEAAAAAAHA4PQPgAAAAAAAAADAAAYAADCAAQAACAAAAA==

> <PUBCHEM_IUPAC_OPENEYE_NAME>
[10,13-dimethyl-2,3-disulfonatooxy-17-(1,4,5,5-tetramethylhexyl)-2,3,4,5,6,7,8,9,11,12,14,15,16,17-tetradecahydro-1H-cyclopenta[a]phenanthren-6-yl] sulfate

> <PUBCHEM_IUPAC_CAS_NAME>
[10,13-dimethyl-2,3-disulfonatooxy-17-(5,6,6-trimethylheptan-2-yl)-2,3,4,5,6,7,8,9,11,12,14,15,16,17-tetradecahydro-1H-cyclopenta[a]phenanthren-6-yl] sulfate

> <PUBCHEM_IUPAC_NAME>
[10,13-dimethyl-2,3-disulfonatooxy-17-(5,6,6-trimethylheptan-2-yl)-2,3,4,5,6,7,8,9,11,12,14,15,16,17-tetradecahydro-1H-cyclopenta[a]phenanthren-6-yl] sulfate

> <PUBCHEM_IUPAC_SYSTEMATIC_NAME>
[10,13-dimethyl-2,3-disulfonatooxy-17-(5,6,6-trimethylheptan-2-yl)-2,3,4,5,6,7,8,9,11,12,14,15,16,17-tetradecahydro-1H-cyclopenta[a]phenanthren-6-yl] sulfate

> <PUBCHEM_IUPAC_TRADITIONAL_NAME>
[10,13-dimethyl-2,3-disulfato-17-(1,4,5,5-tetramethylhexyl)-2,3,4,5,6,7,8,9,11,12,14,15,16,17-tetradecahydro-1H-cyclopenta[a]phenanthren-6-yl] sulfate

> <PUBCHEM_IUPAC_INCHI>
InChI=1S/C29H52O12S3/c1-17(8-9-18(2)27(3,4)5)20-10-11-21-19-14-24(39-42(30,31)32)23-15-25(40-43(33,34)35)26(41-44(36,37)38)16-29(23,7)22(19)12-13-28(20,21)6/h17-26H,8-16H2,1-7H3,(H,30,31,32)(H,33,34,35)(H,36,37,38)/p-3

> <PUBCHEM_IUPAC_INCHIKEY>
UYXOPBYFUWYADH-UHFFFAOYSA-K

> <PUBCHEM_XLOGP3_AA>
6.3

> <PUBCHEM_EXACT_MASS>
685.238615

> <PUBCHEM_MOLECULAR_FORMULA>
C29H49O12S3-3

> <PUBCHEM_MOLECULAR_WEIGHT>
685.88716

> <PUBCHEM_OPENEYE_CAN_SMILES>
CC(CCC(C)C(C)(C)C)C1CCC2C1(CCC3C2CC(C4C3(CC(C(C4)OS(=O)(=O)[O-])OS(=O)(=O)[O-])C)OS(=O)(=O)[O-])C

> <PUBCHEM_OPENEYE_ISO_SMILES>
CC(CCC(C)C(C)(C)C)C1CCC2C1(CCC3C2CC(C4C3(CC(C(C4)OS(=O)(=O)[O-])OS(=O)(=O)[O-])C)OS(=O)(=O)[O-])C

> <PUBCHEM_CACTVS_TPSA>
224

> <PUBCHEM_MONOISOTOPIC_WEIGHT>
685.238615

> <PUBCHEM_TOTAL_CHARGE>
-3

> <PUBCHEM_HEAVY_ATOM_COUNT>
44

> <PUBCHEM_ATOM_DEF_STEREO_COUNT>
0

> <PUBCHEM_ATOM_UDEF_STEREO_COUNT>
12

> <PUBCHEM_BOND_DEF_STEREO_COUNT>
0

> <PUBCHEM_BOND_UDEF_STEREO_COUNT>
0

> <PUBCHEM_ISOTOPIC_ATOM_COUNT>
0

> <PUBCHEM_COMPONENT_COUNT>
1

> <PUBCHEM_CACTVS_TAUTO_COUNT>
1

> <PUBCHEM_COORDINATE_TYPE>
1
5
255

> <PUBCHEM_BONDANNOTATIONS>
16  26  3
17  31  3
18  25  3
19  24  3
20  33  3
21  28  3
22  30  3
32  37  3
39  41  3
27  4  3
34  5  3
35  6  3

$$$$

