8543
  -OEChem-06261202532D

 39 41  0     1  0  0  0  0  0999 V2000
    3.7025    0.0000    0.0000 Br  0  5  0  0  0  0  0  0  0  0  0  0
    0.5357    3.2384    0.0000 O   0  0  0  0  0  0  0  0  0  0  0  0
    5.0628    4.7907    0.0000 N   0  3  0  0  0  0  0  0  0  0  0  0
    5.9288    5.2907    0.0000 C   0  0  3  0  0  0  0  0  0  0  0  0
    5.9288    6.2907    0.0000 C   0  0  3  0  0  0  0  0  0  0  0  0
    6.8750    4.9860    0.0000 C   0  0  0  0  0  0  0  0  0  0  0  0
    6.8750    6.5954    0.0000 C   0  0  0  0  0  0  0  0  0  0  0  0
    5.0628    6.7907    0.0000 C   0  0  0  0  0  0  0  0  0  0  0  0
    7.4586    5.7907    0.0000 C   0  0  0  0  0  0  0  0  0  0  0  0
    4.1968    6.2907    0.0000 C   0  0  0  0  0  0  0  0  0  0  0  0
    4.1968    5.2907    0.0000 C   0  0  0  0  0  0  0  0  0  0  0  0
    5.0788    3.7492    0.0000 C   0  0  0  0  0  0  0  0  0  0  0  0
    3.2868    4.7839    0.0000 C   0  0  0  0  0  0  0  0  0  0  0  0
    4.1808    3.2215    0.0000 C   0  0  0  0  0  0  0  0  0  0  0  0
    3.2787    3.7423    0.0000 C   0  0  0  0  0  0  0  0  0  0  0  0
    2.3599    5.3480    0.0000 C   0  0  0  0  0  0  0  0  0  0  0  0
    2.3433    3.1926    0.0000 C   0  0  0  0  0  0  0  0  0  0  0  0
    1.4120    4.8200    0.0000 C   0  0  0  0  0  0  0  0  0  0  0  0
    1.4037    3.7350    0.0000 C   0  0  0  0  0  0  0  0  0  0  0  0
    6.0188    4.4455    0.0000 H   0  0  0  0  0  0  0  0  0  0  0  0
    6.0188    7.1360    0.0000 H   0  0  0  0  0  0  0  0  0  0  0  0
    6.6240    4.4191    0.0000 H   0  0  0  0  0  0  0  0  0  0  0  0
    7.4124    4.6768    0.0000 H   0  0  0  0  0  0  0  0  0  0  0  0
    7.4124    6.9047    0.0000 H   0  0  0  0  0  0  0  0  0  0  0  0
    6.6240    7.1624    0.0000 H   0  0  0  0  0  0  0  0  0  0  0  0
    5.4613    7.2657    0.0000 H   0  0  0  0  0  0  0  0  0  0  0  0
    4.6643    7.2657    0.0000 H   0  0  0  0  0  0  0  0  0  0  0  0
    7.9195    5.3760    0.0000 H   0  0  0  0  0  0  0  0  0  0  0  0
    7.9195    6.2054    0.0000 H   0  0  0  0  0  0  0  0  0  0  0  0
    3.9847    6.8733    0.0000 H   0  0  0  0  0  0  0  0  0  0  0  0
    3.5862    6.1831    0.0000 H   0  0  0  0  0  0  0  0  0  0  0  0
    5.2969    3.1688    0.0000 H   0  0  0  0  0  0  0  0  0  0  0  0
    5.6880    3.8647    0.0000 H   0  0  0  0  0  0  0  0  0  0  0  0
    3.7835    2.7455    0.0000 H   0  0  0  0  0  0  0  0  0  0  0  0
    4.5818    2.7486    0.0000 H   0  0  0  0  0  0  0  0  0  0  0  0
    2.3719    5.9678    0.0000 H   0  0  0  0  0  0  0  0  0  0  0  0
    2.3457    2.5726    0.0000 H   0  0  0  0  0  0  0  0  0  0  0  0
    0.8787    5.1362    0.0000 H   0  0  0  0  0  0  0  0  0  0  0  0
    0.0000    3.5504    0.0000 H   0  0  0  0  0  0  0  0  0  0  0  0
  2 19  1  0  0  0  0
  2 39  1  0  0  0  0
  3  4  1  0  0  0  0
  3 11  2  0  0  0  0
  3 12  1  0  0  0  0
  4  5  1  0  0  0  0
  4  6  1  0  0  0  0
  4 20  1  0  0  0  0
  5  7  1  0  0  0  0
  5  8  1  0  0  0  0
  5 21  1  0  0  0  0
  6  9  1  0  0  0  0
  6 22  1  0  0  0  0
  6 23  1  0  0  0  0
  7  9  1  0  0  0  0
  7 24  1  0  0  0  0
  7 25  1  0  0  0  0
  8 10  1  0  0  0  0
  8 26  1  0  0  0  0
  8 27  1  0  0  0  0
  9 28  1  0  0  0  0
  9 29  1  0  0  0  0
 10 11  1  0  0  0  0
 10 30  1  0  0  0  0
 10 31  1  0  0  0  0
 11 13  1  0  0  0  0
 12 14  1  0  0  0  0
 12 32  1  0  0  0  0
 12 33  1  0  0  0  0
 13 15  2  0  0  0  0
 13 16  1  0  0  0  0
 14 15  1  0  0  0  0
 14 34  1  0  0  0  0
 14 35  1  0  0  0  0
 15 17  1  0  0  0  0
 16 18  2  0  0  0  0
 16 36  1  0  0  0  0
 17 19  2  0  0  0  0
 17 37  1  0  0  0  0
 18 19  1  0  0  0  0
 18 38  1  0  0  0  0
M  CHG  2   1  -1   3   1
M  END
> <PUBCHEM_COMPOUND_CID>
8543

> <PUBCHEM_COMPOUND_CANONICALIZED>
1

> <PUBCHEM_CACTVS_COMPLEXITY>
375

> <PUBCHEM_CACTVS_HBOND_ACCEPTOR>
2

> <PUBCHEM_CACTVS_HBOND_DONOR>
1

> <PUBCHEM_CACTVS_ROTATABLE_BOND>
0

> <PUBCHEM_CACTVS_SUBSKEYS>
AAADceB6IAAAEAAAAAAAAAAAAAAAAYAAAAAwQIAAAAAAAECxAAAAHgAACAAADSzBmAQwBoMAAgCgAyBiBAACAAAgIAAIiAA+CJgIJqKCkROEcAAkwBGImAeQ0PIOoAABAAAQAABAAAIAACAAAAAAAQAAAA==

> <PUBCHEM_IUPAC_INCHI>
InChI=1S/C16H19NO.BrH/c18-13-5-6-14-12(10-13)8-9-17-15-3-1-2-11(15)4-7-16(14)17;/h5-6,10-11,15H,1-4,7-9H2;1H

> <PUBCHEM_IUPAC_INCHIKEY>
OUILVKYDBNPYBM-UHFFFAOYSA-N

> <PUBCHEM_EXACT_MASS>
321.072826

> <PUBCHEM_MOLECULAR_FORMULA>
C16H20BrNO

> <PUBCHEM_MOLECULAR_WEIGHT>
322.2401

> <PUBCHEM_OPENEYE_CAN_SMILES>
C1CC2CCC3=[N+](C2C1)CCC4=C3C=CC(=C4)O.[Br-]

> <PUBCHEM_OPENEYE_ISO_SMILES>
C1CC2CCC3=[N+](C2C1)CCC4=C3C=CC(=C4)O.[Br-]

> <PUBCHEM_CACTVS_TPSA>
23.2

> <PUBCHEM_MONOISOTOPIC_WEIGHT>
321.072826

> <PUBCHEM_TOTAL_CHARGE>
0

> <PUBCHEM_HEAVY_ATOM_COUNT>
19

> <PUBCHEM_ATOM_DEF_STEREO_COUNT>
0

> <PUBCHEM_ATOM_UDEF_STEREO_COUNT>
2

> <PUBCHEM_BOND_DEF_STEREO_COUNT>
0

> <PUBCHEM_BOND_UDEF_STEREO_COUNT>
0

> <PUBCHEM_ISOTOPIC_ATOM_COUNT>
0

> <PUBCHEM_COMPONENT_COUNT>
2

> <PUBCHEM_CACTVS_TAUTO_COUNT>
9

> <PUBCHEM_COORDINATE_TYPE>
1
5
255

> <PUBCHEM_BONDANNOTATIONS>
13  15  8
13  16  8
15  17  8
16  18  8
17  19  8
18  19  8
4  20  3
5  21  3

$$$$

