11871
  -OEChem-06261206133D

 15 15  0     0  0  0  0  0  0999 V2000
    1.8913    2.7740   -0.0008 Cl  0  0  0  0  0  0  0  0  0  0  0  0
    2.5844   -2.5658   -0.0003 Cl  0  0  0  0  0  0  0  0  0  0  0  0
   -1.0143    2.0804    0.0002 O   0  0  0  0  0  0  0  0  0  0  0  0
   -2.5455   -1.6766   -0.0006 O   0  5  0  0  0  0  0  0  0  0  0  0
   -2.8734    0.4941    0.0002 O   0  0  0  0  0  0  0  0  0  0  0  0
   -2.1108   -0.5007   -0.0002 N   0  3  0  0  0  0  0  0  0  0  0  0
   -0.7043   -0.2883    0.0002 C   0  0  0  0  0  0  0  0  0  0  0  0
   -0.1753    1.0024    0.0002 C   0  0  0  0  0  0  0  0  0  0  0  0
    0.1491   -1.3916    0.0002 C   0  0  0  0  0  0  0  0  0  0  0  0
    1.2069    1.1899    0.0002 C   0  0  0  0  0  0  0  0  0  0  0  0
    1.5314   -1.2043    0.0003 C   0  0  0  0  0  0  0  0  0  0  0  0
    2.0604    0.0864    0.0003 C   0  0  0  0  0  0  0  0  0  0  0  0
   -0.2385   -2.4081    0.0001 H   0  0  0  0  0  0  0  0  0  0  0  0
    3.1387    0.2310    0.0001 H   0  0  0  0  0  0  0  0  0  0  0  0
   -1.8479    1.8576   -0.4426 H   0  0  0  0  0  0  0  0  0  0  0  0
  1 10  1  0  0  0  0
  2 11  1  0  0  0  0
  3  8  1  0  0  0  0
  3 15  1  0  0  0  0
  4  6  1  0  0  0  0
  5  6  2  0  0  0  0
  6  7  1  0  0  0  0
  7  8  2  0  0  0  0
  7  9  1  0  0  0  0
  8 10  1  0  0  0  0
  9 11  2  0  0  0  0
  9 13  1  0  0  0  0
 10 12  2  0  0  0  0
 11 12  1  0  0  0  0
 12 14  1  0  0  0  0
M  CHG  2   4  -1   6   1
M  END
> <PUBCHEM_COMPOUND_CID>
11871

> <PUBCHEM_CONFORMER_RMSD>
0.4

> <PUBCHEM_CONFORMER_DIVERSEORDER>
1

> <PUBCHEM_MMFF94_PARTIAL_CHARGES>
15
1 -0.18
10 0.18
11 0.18
12 -0.15
13 0.15
14 0.15
15 0.45
2 -0.18
3 -0.53
4 -0.52
5 -0.52
6 0.91
7 0.13
8 0.08
9 -0.15

> <PUBCHEM_EFFECTIVE_ROTOR_COUNT>
1

> <PUBCHEM_PHARMACOPHORE_FEATURES>
5
1 3 donor
1 4 acceptor
1 4 anion
1 5 acceptor
6 7 8 9 10 11 12 rings

> <PUBCHEM_HEAVY_ATOM_COUNT>
12

> <PUBCHEM_ATOM_DEF_STEREO_COUNT>
0

> <PUBCHEM_ATOM_UDEF_STEREO_COUNT>
0

> <PUBCHEM_BOND_DEF_STEREO_COUNT>
0

> <PUBCHEM_BOND_UDEF_STEREO_COUNT>
0

> <PUBCHEM_ISOTOPIC_ATOM_COUNT>
0

> <PUBCHEM_COMPONENT_COUNT>
1

> <PUBCHEM_CACTVS_TAUTO_COUNT>
4

> <PUBCHEM_CONFORMER_ID>
00002E5F00000001

> <PUBCHEM_MMFF94_ENERGY>
35.6212

> <PUBCHEM_FEATURE_SELFOVERLAP>
25.453

> <PUBCHEM_SHAPE_FINGERPRINT>
1 1 18194401095969433772
12423570 1 14381830782898080168
13380535 76 17907865002764265946
14648413 74 18412825780849556321
16945 1 18410575084784469668
17990270 104 18411703179351288746
193761 8 18410855498957298052
20645476 183 17267778772821723868
20645477 70 18339652122881722695
20871998 184 17683815675868589766
21040471 1 17834114139365994276
2334 1 17762056541143628482
23402539 116 17614301269199549789
23552423 10 18411978027172057335
23559900 14 17686907529080147574
241688 4 18123188176001428624
2748010 2 17907571437560008118
7364860 26 18408322168553561568
81228 2 17688585378879410618

> <PUBCHEM_SHAPE_MULTIPOLES>
228.1
3.64
3.02
0.59
1.37
1.11
0
-1.64
0
-1.82
0
-0.09
0
0

> <PUBCHEM_SHAPE_SELFOVERLAP>
465.125

> <PUBCHEM_SHAPE_VOLUME>
134.4

> <PUBCHEM_COORDINATE_TYPE>
2
5
10

$$$$

