13632
  -OEChem-06241222393D

 25 25  0     0  0  0  0  0  0999 V2000
    1.6896    1.0248    1.1620 O   0  0  0  0  0  0  0  0  0  0  0  0
    0.5157    1.1241   -0.8475 N   0  0  0  0  0  0  0  0  0  0  0  0
   -1.6886   -1.3973    0.2939 C   0  0  0  0  0  0  0  0  0  0  0  0
   -1.7183    0.0379    0.8415 C   0  0  0  0  0  0  0  0  0  0  0  0
   -0.5082   -1.8162   -0.5951 C   0  0  0  0  0  0  0  0  0  0  0  0
   -1.8423    1.1437   -0.2218 C   0  0  0  0  0  0  0  0  0  0  0  0
    0.8610   -1.8576    0.1071 C   0  0  0  0  0  0  0  0  0  0  0  0
   -0.5692    1.9756   -0.4187 C   0  0  0  0  0  0  0  0  0  0  0  0
    1.8605   -0.8005   -0.3817 C   0  0  0  0  0  0  0  0  0  0  0  0
    1.3999    0.5655    0.0603 C   0  0  0  0  0  0  0  0  0  0  0  0
   -2.6131   -1.5643   -0.2744 H   0  0  0  0  0  0  0  0  0  0  0  0
   -1.7369   -2.0857    1.1478 H   0  0  0  0  0  0  0  0  0  0  0  0
   -2.6102    0.1039    1.4797 H   0  0  0  0  0  0  0  0  0  0  0  0
   -0.8737    0.2122    1.5147 H   0  0  0  0  0  0  0  0  0  0  0  0
   -0.4830   -1.2203   -1.5121 H   0  0  0  0  0  0  0  0  0  0  0  0
   -0.7268   -2.8396   -0.9303 H   0  0  0  0  0  0  0  0  0  0  0  0
   -2.1588    0.7148   -1.1803 H   0  0  0  0  0  0  0  0  0  0  0  0
   -2.6378    1.8337    0.0863 H   0  0  0  0  0  0  0  0  0  0  0  0
    1.3112   -2.8396   -0.0873 H   0  0  0  0  0  0  0  0  0  0  0  0
    0.7370   -1.7860    1.1944 H   0  0  0  0  0  0  0  0  0  0  0  0
   -0.7271    2.7269   -1.1985 H   0  0  0  0  0  0  0  0  0  0  0  0
   -0.2996    2.4881    0.5107 H   0  0  0  0  0  0  0  0  0  0  0  0
    1.9751   -0.8417   -1.4704 H   0  0  0  0  0  0  0  0  0  0  0  0
    2.8479   -0.9846    0.0562 H   0  0  0  0  0  0  0  0  0  0  0  0
    0.4786    0.7658   -1.7970 H   0  0  0  0  0  0  0  0  0  0  0  0
  1 10  2  0  0  0  0
  2  8  1  0  0  0  0
  2 10  1  0  0  0  0
  2 25  1  0  0  0  0
  3  4  1  0  0  0  0
  3  5  1  0  0  0  0
  3 11  1  0  0  0  0
  3 12  1  0  0  0  0
  4  6  1  0  0  0  0
  4 13  1  0  0  0  0
  4 14  1  0  0  0  0
  5  7  1  0  0  0  0
  5 15  1  0  0  0  0
  5 16  1  0  0  0  0
  6  8  1  0  0  0  0
  6 17  1  0  0  0  0
  6 18  1  0  0  0  0
  7  9  1  0  0  0  0
  7 19  1  0  0  0  0
  7 20  1  0  0  0  0
  8 21  1  0  0  0  0
  8 22  1  0  0  0  0
  9 10  1  0  0  0  0
  9 23  1  0  0  0  0
  9 24  1  0  0  0  0
M  END
> <PUBCHEM_COMPOUND_CID>
13632

> <PUBCHEM_CONFORMER_RMSD>
0.4

> <PUBCHEM_CONFORMER_DIVERSEORDER>
2
16
1
8
18
26
19
9
10
27
22
20
23
25
7
24
21
13
14
4
3
6
11
5
17
15
12

> <PUBCHEM_MMFF94_PARTIAL_CHARGES>
6
1 -0.57
10 0.57
2 -0.73
25 0.37
8 0.3
9 0.06

> <PUBCHEM_EFFECTIVE_ROTOR_COUNT>
1.6

> <PUBCHEM_PHARMACOPHORE_FEATURES>
2
1 1 acceptor
1 2 donor

> <PUBCHEM_HEAVY_ATOM_COUNT>
10

> <PUBCHEM_ATOM_DEF_STEREO_COUNT>
0

> <PUBCHEM_ATOM_UDEF_STEREO_COUNT>
0

> <PUBCHEM_BOND_DEF_STEREO_COUNT>
0

> <PUBCHEM_BOND_UDEF_STEREO_COUNT>
0

> <PUBCHEM_ISOTOPIC_ATOM_COUNT>
0

> <PUBCHEM_COMPONENT_COUNT>
1

> <PUBCHEM_CACTVS_TAUTO_COUNT>
2

> <PUBCHEM_CONFORMER_ID>
0000354000000002

> <PUBCHEM_MMFF94_ENERGY>
19.2254

> <PUBCHEM_FEATURE_SELFOVERLAP>
10.148

> <PUBCHEM_SHAPE_FINGERPRINT>
16945 1 18053934323518547662
18185500 45 17617938028488895919
20201158 50 17114948245234243095
21040471 1 18340486793281092692
21922407 69 15338822166903066645
241688 4 18411411778657593378
2748010 2 18410852144556009679
5084963 1 18191006946287110051
528862 383 12357433131994529248
54338 74 17618532894333750962
66348 1 18339358694493445255

> <PUBCHEM_SHAPE_MULTIPOLES>
194.94
2.54
2.32
0.92
0.13
0.4
0.11
-0.11
0.12
0.1
-0.08
-0.02
-0.14
0.42

> <PUBCHEM_SHAPE_SELFOVERLAP>
372.284

> <PUBCHEM_SHAPE_VOLUME>
118

> <PUBCHEM_COORDINATE_TYPE>
2
5
10

$$$$

