12154
  -OEChem-06261206362D

 18 18  0     0  0  0  0  0  0999 V2000
    4.5981    2.5000    0.0000 O   0  0  0  0  0  0  0  0  0  0  0  0
    2.8660    0.5000    0.0000 N   0  0  0  0  0  0  0  0  0  0  0  0
    3.7320    1.0000    0.0000 N   0  0  0  0  0  0  0  0  0  0  0  0
    2.8660   -0.5000    0.0000 C   0  0  0  0  0  0  0  0  0  0  0  0
    2.0000   -1.0000    0.0000 C   0  0  0  0  0  0  0  0  0  0  0  0
    3.7320   -1.0000    0.0000 C   0  0  0  0  0  0  0  0  0  0  0  0
    2.0000   -2.0000    0.0000 C   0  0  0  0  0  0  0  0  0  0  0  0
    3.7320   -2.0000    0.0000 C   0  0  0  0  0  0  0  0  0  0  0  0
    2.8660   -2.5000    0.0000 C   0  0  0  0  0  0  0  0  0  0  0  0
    3.7320    2.0000    0.0000 C   0  0  0  0  0  0  0  0  0  0  0  0
    1.4631   -0.6900    0.0000 H   0  0  0  0  0  0  0  0  0  0  0  0
    4.2690   -0.6900    0.0000 H   0  0  0  0  0  0  0  0  0  0  0  0
    2.3291    0.8100    0.0000 H   0  0  0  0  0  0  0  0  0  0  0  0
    1.4631   -2.3100    0.0000 H   0  0  0  0  0  0  0  0  0  0  0  0
    4.2690   -2.3100    0.0000 H   0  0  0  0  0  0  0  0  0  0  0  0
    2.8660   -3.1200    0.0000 H   0  0  0  0  0  0  0  0  0  0  0  0
    4.2690    0.6900    0.0000 H   0  0  0  0  0  0  0  0  0  0  0  0
    3.1951    2.3100    0.0000 H   0  0  0  0  0  0  0  0  0  0  0  0
  1 10  2  0  0  0  0
  2  3  1  0  0  0  0
  2  4  1  0  0  0  0
  2 13  1  0  0  0  0
  3 10  1  0  0  0  0
  3 17  1  0  0  0  0
  4  5  2  0  0  0  0
  4  6  1  0  0  0  0
  5  7  1  0  0  0  0
  5 11  1  0  0  0  0
  6  8  2  0  0  0  0
  6 12  1  0  0  0  0
  7  9  2  0  0  0  0
  7 14  1  0  0  0  0
  8  9  1  0  0  0  0
  8 15  1  0  0  0  0
  9 16  1  0  0  0  0
 10 18  1  0  0  0  0
M  END
> <PUBCHEM_COMPOUND_CID>
12154

> <PUBCHEM_COMPOUND_CANONICALIZED>
1

> <PUBCHEM_CACTVS_COMPLEXITY>
99.8

> <PUBCHEM_CACTVS_HBOND_ACCEPTOR>
2

> <PUBCHEM_CACTVS_HBOND_DONOR>
2

> <PUBCHEM_CACTVS_ROTATABLE_BOND>
2

> <PUBCHEM_CACTVS_SUBSKEYS>
AAADccBjIAAAAAAAAAAAAAAAAAAAAAAAAAAwAAAAAAAAAAABAAAAHgAYAAAACAiBEAYwwIBiAACIACRC0ACCBAAgAgIaqIAAZIgIICKAkZGAIABgkAAIyAcQAAAAAAAAAAAAAAAAAAAAAAAAAAAAAAAAAA==

> <PUBCHEM_IUPAC_OPENEYE_NAME>
N-anilinoformamide

> <PUBCHEM_IUPAC_CAS_NAME>
N-anilinoformamide

> <PUBCHEM_IUPAC_NAME>
N-anilinoformamide

> <PUBCHEM_IUPAC_SYSTEMATIC_NAME>
N-phenylazanylmethanamide

> <PUBCHEM_IUPAC_TRADITIONAL_NAME>
N-anilinoformamide

> <PUBCHEM_IUPAC_INCHI>
InChI=1S/C7H8N2O/c10-6-8-9-7-4-2-1-3-5-7/h1-6,9H,(H,8,10)

> <PUBCHEM_IUPAC_INCHIKEY>
QIWOKEQEGOOGGH-UHFFFAOYSA-N

> <PUBCHEM_XLOGP3_AA>
1.4

> <PUBCHEM_EXACT_MASS>
136.063663

> <PUBCHEM_MOLECULAR_FORMULA>
C7H8N2O

> <PUBCHEM_MOLECULAR_WEIGHT>
136.15122

> <PUBCHEM_OPENEYE_CAN_SMILES>
C1=CC=C(C=C1)NNC=O

> <PUBCHEM_OPENEYE_ISO_SMILES>
C1=CC=C(C=C1)NNC=O

> <PUBCHEM_CACTVS_TPSA>
41.1

> <PUBCHEM_MONOISOTOPIC_WEIGHT>
136.063663

> <PUBCHEM_TOTAL_CHARGE>
0

> <PUBCHEM_HEAVY_ATOM_COUNT>
10

> <PUBCHEM_ATOM_DEF_STEREO_COUNT>
0

> <PUBCHEM_ATOM_UDEF_STEREO_COUNT>
0

> <PUBCHEM_BOND_DEF_STEREO_COUNT>
0

> <PUBCHEM_BOND_UDEF_STEREO_COUNT>
0

> <PUBCHEM_ISOTOPIC_ATOM_COUNT>
0

> <PUBCHEM_COMPONENT_COUNT>
1

> <PUBCHEM_CACTVS_TAUTO_COUNT>
2

> <PUBCHEM_COORDINATE_TYPE>
1
5
255

> <PUBCHEM_BONDANNOTATIONS>
4  5  8
4  6  8
5  7  8
6  8  8
7  9  8
8  9  8

$$$$

