12274
  -OEChem-06261206452D

 11 11  0     0  0  0  0  0  0999 V2000
    2.0000   -1.0000    0.0000 Br  0  0  0  0  0  0  0  0  0  0  0  0
    5.4641   -1.0000    0.0000 Br  0  0  0  0  0  0  0  0  0  0  0  0
    3.7320   -1.0000    0.0000 N   0  0  0  0  0  0  0  0  0  0  0  0
    3.7320    1.0000    0.0000 C   0  0  0  0  0  0  0  0  0  0  0  0
    2.8660    0.5000    0.0000 C   0  0  0  0  0  0  0  0  0  0  0  0
    4.5981    0.5000    0.0000 C   0  0  0  0  0  0  0  0  0  0  0  0
    2.8660   -0.5000    0.0000 C   0  0  0  0  0  0  0  0  0  0  0  0
    4.5981   -0.5000    0.0000 C   0  0  0  0  0  0  0  0  0  0  0  0
    3.7320    1.6200    0.0000 H   0  0  0  0  0  0  0  0  0  0  0  0
    2.3291    0.8100    0.0000 H   0  0  0  0  0  0  0  0  0  0  0  0
    5.1350    0.8100    0.0000 H   0  0  0  0  0  0  0  0  0  0  0  0
  1  7  1  0  0  0  0
  2  8  1  0  0  0  0
  3  7  2  0  0  0  0
  3  8  1  0  0  0  0
  4  5  2  0  0  0  0
  4  6  1  0  0  0  0
  4  9  1  0  0  0  0
  5  7  1  0  0  0  0
  5 10  1  0  0  0  0
  6  8  2  0  0  0  0
  6 11  1  0  0  0  0
M  END
> <PUBCHEM_COMPOUND_CID>
12274

> <PUBCHEM_COMPOUND_CANONICALIZED>
1

> <PUBCHEM_CACTVS_COMPLEXITY>
68.8

> <PUBCHEM_CACTVS_HBOND_ACCEPTOR>
1

> <PUBCHEM_CACTVS_HBOND_DONOR>
0

> <PUBCHEM_CACTVS_ROTATABLE_BOND>
0

> <PUBCHEM_CACTVS_SUBSKEYS>
AAADcQBiAAAAGAAAAAAAAAAAAAAAAAAAAAAsAAAAAAAAAAABgAAAHABAAAABOACBEgAwgJIIEACgACBiRACCgCAhAiQImCAwZLgIIOLAkZGEIAhggADIyhYQAAAAAAAAAAAAAAAAAAAAAAAAAAAAAAAAAA==

> <PUBCHEM_IUPAC_OPENEYE_NAME>
2,6-dibromopyridine

> <PUBCHEM_IUPAC_CAS_NAME>
2,6-dibromopyridine

> <PUBCHEM_IUPAC_NAME>
2,6-dibromopyridine

> <PUBCHEM_IUPAC_SYSTEMATIC_NAME>
2,6-bis(bromanyl)pyridine

> <PUBCHEM_IUPAC_TRADITIONAL_NAME>
2,6-dibromopyridine

> <PUBCHEM_IUPAC_INCHI>
InChI=1S/C5H3Br2N/c6-4-2-1-3-5(7)8-4/h1-3H

> <PUBCHEM_IUPAC_INCHIKEY>
FEYDZHNIIMENOB-UHFFFAOYSA-N

> <PUBCHEM_XLOGP3_AA>
2.9

> <PUBCHEM_EXACT_MASS>
236.861177

> <PUBCHEM_MOLECULAR_FORMULA>
C5H3Br2N

> <PUBCHEM_MOLECULAR_WEIGHT>
236.89202

> <PUBCHEM_OPENEYE_CAN_SMILES>
C1=CC(=NC(=C1)Br)Br

> <PUBCHEM_OPENEYE_ISO_SMILES>
C1=CC(=NC(=C1)Br)Br

> <PUBCHEM_CACTVS_TPSA>
12.9

> <PUBCHEM_MONOISOTOPIC_WEIGHT>
234.863223

> <PUBCHEM_TOTAL_CHARGE>
0

> <PUBCHEM_HEAVY_ATOM_COUNT>
8

> <PUBCHEM_ATOM_DEF_STEREO_COUNT>
0

> <PUBCHEM_ATOM_UDEF_STEREO_COUNT>
0

> <PUBCHEM_BOND_DEF_STEREO_COUNT>
0

> <PUBCHEM_BOND_UDEF_STEREO_COUNT>
0

> <PUBCHEM_ISOTOPIC_ATOM_COUNT>
0

> <PUBCHEM_COMPONENT_COUNT>
1

> <PUBCHEM_CACTVS_TAUTO_COUNT>
1

> <PUBCHEM_COORDINATE_TYPE>
1
5
255

> <PUBCHEM_BONDANNOTATIONS>
3  7  8
3  8  8
4  5  8
4  6  8
5  7  8
6  8  8

$$$$

