9761
  -OEChem-06261204023D

 18 17  0     0  0  0  0  0  0999 V2000
   -2.7069   -1.1096   -0.1296 F   0  0  0  0  0  0  0  0  0  0  0  0
   -0.1392    0.0890    0.3158 C   0  0  0  0  0  0  0  0  0  0  0  0
   -1.3465    0.7969   -0.3030 C   0  0  0  0  0  0  0  0  0  0  0  0
    1.1747    0.6632   -0.2187 C   0  0  0  0  0  0  0  0  0  0  0  0
   -2.6551    0.2088    0.1969 C   0  0  0  0  0  0  0  0  0  0  0  0
    2.3589   -0.0067    0.4134 C   0  0  0  0  0  0  0  0  0  0  0  0
    3.3142   -0.6417   -0.2747 C   0  0  0  0  0  0  0  0  0  0  0  0
   -0.1872   -0.9849    0.0953 H   0  0  0  0  0  0  0  0  0  0  0  0
   -0.1765    0.1935    1.4076 H   0  0  0  0  0  0  0  0  0  0  0  0
   -1.3148    1.8676   -0.0721 H   0  0  0  0  0  0  0  0  0  0  0  0
   -1.3038    0.6893   -1.3933 H   0  0  0  0  0  0  0  0  0  0  0  0
    1.2058    0.5608   -1.3103 H   0  0  0  0  0  0  0  0  0  0  0  0
    1.2257    1.7359    0.0032 H   0  0  0  0  0  0  0  0  0  0  0  0
   -2.7462    0.2936    1.2837 H   0  0  0  0  0  0  0  0  0  0  0  0
   -3.5103    0.7060   -0.2695 H   0  0  0  0  0  0  0  0  0  0  0  0
    2.4457    0.0468    1.4956 H   0  0  0  0  0  0  0  0  0  0  0  0
    4.1509   -1.0993    0.2417 H   0  0  0  0  0  0  0  0  0  0  0  0
    3.2801   -0.7171   -1.3559 H   0  0  0  0  0  0  0  0  0  0  0  0
  1  5  1  0  0  0  0
  2  3  1  0  0  0  0
  2  4  1  0  0  0  0
  2  8  1  0  0  0  0
  2  9  1  0  0  0  0
  3  5  1  0  0  0  0
  3 10  1  0  0  0  0
  3 11  1  0  0  0  0
  4  6  1  0  0  0  0
  4 12  1  0  0  0  0
  4 13  1  0  0  0  0
  5 14  1  0  0  0  0
  5 15  1  0  0  0  0
  6  7  2  0  0  0  0
  6 16  1  0  0  0  0
  7 17  1  0  0  0  0
  7 18  1  0  0  0  0
M  END
> <PUBCHEM_COMPOUND_CID>
9761

> <PUBCHEM_CONFORMER_RMSD>
0.6

> <PUBCHEM_CONFORMER_DIVERSEORDER>
1
20
23
7
24
19
10
2
6
25
22
21
13
8
3
12
14
17
5
16
9
11
18
15
4

> <PUBCHEM_MMFF94_PARTIAL_CHARGES>
8
1 -0.34
16 0.15
17 0.15
18 0.15
4 0.14
5 0.34
6 -0.29
7 -0.3

> <PUBCHEM_EFFECTIVE_ROTOR_COUNT>
4

> <PUBCHEM_PHARMACOPHORE_FEATURES>
2
1 7 hydrophobe
4 2 3 4 6 hydrophobe

> <PUBCHEM_HEAVY_ATOM_COUNT>
7

> <PUBCHEM_ATOM_DEF_STEREO_COUNT>
0

> <PUBCHEM_ATOM_UDEF_STEREO_COUNT>
0

> <PUBCHEM_BOND_DEF_STEREO_COUNT>
0

> <PUBCHEM_BOND_UDEF_STEREO_COUNT>
0

> <PUBCHEM_ISOTOPIC_ATOM_COUNT>
0

> <PUBCHEM_COMPONENT_COUNT>
1

> <PUBCHEM_CACTVS_TAUTO_COUNT>
1

> <PUBCHEM_CONFORMER_ID>
0000262100000001

> <PUBCHEM_MMFF94_ENERGY>
-0.1011

> <PUBCHEM_FEATURE_SELFOVERLAP>
10.15

> <PUBCHEM_SHAPE_FINGERPRINT>
12932764 1 17917436453184138016
14325111 11 18410012139220980704
14390081 3 9943806685705546183
21293036 1 15123502592885330554
29004967 10 17095239220049094392
5460574 1 6916258537924125944

> <PUBCHEM_SHAPE_MULTIPOLES>
136.78
5.33
0.94
0.68
0.84
0.08
-0.02
1.44
0.19
-0.29
0.07
0.1
-0.02
0.04

> <PUBCHEM_SHAPE_SELFOVERLAP>
239.96

> <PUBCHEM_SHAPE_VOLUME>
89.9

> <PUBCHEM_COORDINATE_TYPE>
2
5
10

$$$$

