17395445
  -OEChem-06241222503D

 47 48  0     0  0  0  0  0  0999 V2000
    3.5731    2.3984    0.9290 Cl  0  0  0  0  0  0  0  0  0  0  0  0
    7.3385   -0.1181   -1.3269 F   0  0  0  0  0  0  0  0  0  0  0  0
   -0.0813    0.5563    1.6153 O   0  0  0  0  0  0  0  0  0  0  0  0
    2.3866   -0.3660    1.0626 O   0  0  0  0  0  0  0  0  0  0  0  0
   -5.1533    0.2068   -0.7563 N   0  0  0  0  0  0  0  0  0  0  0  0
   -1.0498   -0.7534   -0.0455 N   0  0  0  0  0  0  0  0  0  0  0  0
   -4.8634   -1.0645   -0.0641 C   0  0  0  0  0  0  0  0  0  0  0  0
   -4.2140    1.3295   -0.5651 C   0  0  0  0  0  0  0  0  0  0  0  0
   -2.4191   -0.3432    0.1588 C   0  0  0  0  0  0  0  0  0  0  0  0
   -3.3824   -1.4747   -0.1991 C   0  0  0  0  0  0  0  0  0  0  0  0
   -2.7423    0.8844   -0.6919 C   0  0  0  0  0  0  0  0  0  0  0  0
   -5.3021   -1.0274    1.4105 C   0  0  0  0  0  0  0  0  0  0  0  0
   -5.7275   -2.1452   -0.7553 C   0  0  0  0  0  0  0  0  0  0  0  0
   -4.4633    2.0657    0.7631 C   0  0  0  0  0  0  0  0  0  0  0  0
   -4.5096    2.3436   -1.6951 C   0  0  0  0  0  0  0  0  0  0  0  0
    0.0081   -0.2643    0.7061 C   0  0  0  0  0  0  0  0  0  0  0  0
    1.3277   -0.8683    0.2753 C   0  0  0  0  0  0  0  0  0  0  0  0
    3.6243   -0.2820    0.4699 C   0  0  0  0  0  0  0  0  0  0  0  0
    4.2849    0.9401    0.3441 C   0  0  0  0  0  0  0  0  0  0  0  0
    4.2186   -1.4488   -0.0112 C   0  0  0  0  0  0  0  0  0  0  0  0
    5.5396    0.9955   -0.2627 C   0  0  0  0  0  0  0  0  0  0  0  0
    5.4732   -1.3933   -0.6180 C   0  0  0  0  0  0  0  0  0  0  0  0
    6.1337   -0.1712   -0.7436 C   0  0  0  0  0  0  0  0  0  0  0  0
   -2.5259   -0.0916    1.2194 H   0  0  0  0  0  0  0  0  0  0  0  0
   -3.1725   -2.3508    0.4291 H   0  0  0  0  0  0  0  0  0  0  0  0
   -3.1824   -1.7941   -1.2324 H   0  0  0  0  0  0  0  0  0  0  0  0
   -2.5164    0.6519   -1.7429 H   0  0  0  0  0  0  0  0  0  0  0  0
   -2.0738    1.7126   -0.4211 H   0  0  0  0  0  0  0  0  0  0  0  0
   -6.1093    0.5059   -0.5665 H   0  0  0  0  0  0  0  0  0  0  0  0
   -4.6417   -0.4328    2.0426 H   0  0  0  0  0  0  0  0  0  0  0  0
   -5.3045   -2.0374    1.8387 H   0  0  0  0  0  0  0  0  0  0  0  0
   -6.3191   -0.6318    1.5161 H   0  0  0  0  0  0  0  0  0  0  0  0
   -6.7976   -1.9252   -0.6592 H   0  0  0  0  0  0  0  0  0  0  0  0
   -5.4984   -2.2147   -1.8256 H   0  0  0  0  0  0  0  0  0  0  0  0
   -5.5505   -3.1342   -0.3166 H   0  0  0  0  0  0  0  0  0  0  0  0
   -5.5277    2.2862    0.9053 H   0  0  0  0  0  0  0  0  0  0  0  0
   -4.1140    1.5123    1.6356 H   0  0  0  0  0  0  0  0  0  0  0  0
   -3.9318    3.0252    0.7790 H   0  0  0  0  0  0  0  0  0  0  0  0
   -5.5359    2.7251   -1.6333 H   0  0  0  0  0  0  0  0  0  0  0  0
   -3.8316    3.2035   -1.6431 H   0  0  0  0  0  0  0  0  0  0  0  0
   -4.3851    1.8862   -2.6840 H   0  0  0  0  0  0  0  0  0  0  0  0
   -0.8517   -1.3883   -0.8138 H   0  0  0  0  0  0  0  0  0  0  0  0
    1.4747   -0.6329   -0.7868 H   0  0  0  0  0  0  0  0  0  0  0  0
    1.2696   -1.9556    0.3995 H   0  0  0  0  0  0  0  0  0  0  0  0
    3.7204   -2.4095    0.0866 H   0  0  0  0  0  0  0  0  0  0  0  0
    6.0673    1.9399   -0.3686 H   0  0  0  0  0  0  0  0  0  0  0  0
    5.9370   -2.3016   -0.9912 H   0  0  0  0  0  0  0  0  0  0  0  0
  1 19  1  0  0  0  0
  2 23  1  0  0  0  0
  3 16  2  0  0  0  0
  4 17  1  0  0  0  0
  4 18  1  0  0  0  0
  5  7  1  0  0  0  0
  5  8  1  0  0  0  0
  5 29  1  0  0  0  0
  6  9  1  0  0  0  0
  6 16  1  0  0  0  0
  6 42  1  0  0  0  0
  7 10  1  0  0  0  0
  7 12  1  0  0  0  0
  7 13  1  0  0  0  0
  8 11  1  0  0  0  0
  8 14  1  0  0  0  0
  8 15  1  0  0  0  0
  9 10  1  0  0  0  0
  9 11  1  0  0  0  0
  9 24  1  0  0  0  0
 10 25  1  0  0  0  0
 10 26  1  0  0  0  0
 11 27  1  0  0  0  0
 11 28  1  0  0  0  0
 12 30  1  0  0  0  0
 12 31  1  0  0  0  0
 12 32  1  0  0  0  0
 13 33  1  0  0  0  0
 13 34  1  0  0  0  0
 13 35  1  0  0  0  0
 14 36  1  0  0  0  0
 14 37  1  0  0  0  0
 14 38  1  0  0  0  0
 15 39  1  0  0  0  0
 15 40  1  0  0  0  0
 15 41  1  0  0  0  0
 16 17  1  0  0  0  0
 17 43  1  0  0  0  0
 17 44  1  0  0  0  0
 18 19  2  0  0  0  0
 18 20  1  0  0  0  0
 19 21  1  0  0  0  0
 20 22  2  0  0  0  0
 20 45  1  0  0  0  0
 21 23  2  0  0  0  0
 21 46  1  0  0  0  0
 22 23  1  0  0  0  0
 22 47  1  0  0  0  0
M  END
> <PUBCHEM_COMPOUND_CID>
17395445

> <PUBCHEM_CONFORMER_RMSD>
1

> <PUBCHEM_CONFORMER_DIVERSEORDER>
1
76
106
103
13
45
51
6
98
28
104
101
74
14
60
49
18
55
41
47
17
31
42
25
62
5
105
83
37
34
53
16
102
8
56
2
59
30
85
52
4
50
63
94
95
44
15
65
89
88
75
93
3
90
40
86
99
92
69
48
24
72
80
66
87
68
12
84
71
73
70
58
79
54
96
77
23
97
38
39
82
32
10
43
100
46
57
27
29
81
35
7
61
64
19
91
9
67
26
20
21
36
33
22
11
78

> <PUBCHEM_MMFF94_PARTIAL_CHARGES>
22
1 -0.18
16 0.57
17 0.34
18 0.08
19 0.18
2 -0.19
20 -0.15
21 -0.15
22 -0.15
23 0.19
29 0.36
3 -0.57
4 -0.36
42 0.37
45 0.15
46 0.15
47 0.15
5 -0.9
6 -0.73
7 0.27
8 0.27
9 0.3

> <PUBCHEM_EFFECTIVE_ROTOR_COUNT>
6.2

> <PUBCHEM_PHARMACOPHORE_FEATURES>
9
1 3 acceptor
1 4 acceptor
1 5 cation
1 5 donor
1 6 donor
3 7 12 13 hydrophobe
3 8 14 15 hydrophobe
6 18 19 20 21 22 23 rings
6 5 7 8 9 10 11 rings

> <PUBCHEM_HEAVY_ATOM_COUNT>
23

> <PUBCHEM_ATOM_DEF_STEREO_COUNT>
0

> <PUBCHEM_ATOM_UDEF_STEREO_COUNT>
0

> <PUBCHEM_BOND_DEF_STEREO_COUNT>
0

> <PUBCHEM_BOND_UDEF_STEREO_COUNT>
0

> <PUBCHEM_ISOTOPIC_ATOM_COUNT>
0

> <PUBCHEM_COMPONENT_COUNT>
1

> <PUBCHEM_CACTVS_TAUTO_COUNT>
2

> <PUBCHEM_CONFORMER_ID>
01096EF500000001

> <PUBCHEM_MMFF94_ENERGY>
50.0622

> <PUBCHEM_FEATURE_SELFOVERLAP>
45.676

> <PUBCHEM_SHAPE_FINGERPRINT>
10595046 47 18342178868851881778
10670039 82 17846784022533121476
10912923 1 17489317415895792699
11315181 36 16415474931406775735
11315621 246 18338239250260708815
11497681 19 17825115805335540823
11524674 6 15791729664408270879
12166972 35 18335415734270048488
12403259 415 18410579465777874784
12596602 18 13758069710372562420
12616971 3 14273739516789608811
12730499 353 18341889672130784194
13631057 29 15840978959301111659
13668630 136 17385716985510645566
14251764 18 17704077292231389130
14528608 73 18272654541220052554
14933364 13 18412259545072054093
15183329 4 18333730256085225112
15778101 99 18336826498330989673
15788980 27 16805327703445431673
17093844 174 5184344080197613115
17349148 13 15647051542946412472
17844677 252 18335417958893828449
1813 80 14345792717070634136
21315763 178 14418129643212998846
22061861 79 17821729442296185294
221357 26 18408325475710365944
22289505 5 18410013260962000916
2297311 6 18408604743405981371
23081809 10 17561369504170814226
23198884 109 17989486333492561403
23522609 53 17315608765158620521
23559900 14 18187089455582937632
2747138 104 17987510425867879163
2767999 5 15123509198893457918
29717793 49 17167855392697451940
300161 21 13542467544575368402
3004659 81 18187365424617484770
34797466 226 18261949657404669388
4214541 1 18409451401339208233
4325135 7 18412825768091495487
497634 4 18408887343611506101
5104073 3 18271814548358469937
5281201 14 18409169891871137304
5283173 99 18411420643485942561
542803 24 17989770007613606442
90127 26 18343301457180450313

> <PUBCHEM_SHAPE_MULTIPOLES>
446.22
18.6
2.23
1.24
12.53
0.87
0.02
-1.44
-5.04
-2.03
-0.22
-0.55
0.34
1.27

> <PUBCHEM_SHAPE_SELFOVERLAP>
911.036

> <PUBCHEM_SHAPE_VOLUME>
260.9

> <PUBCHEM_COORDINATE_TYPE>
2
5
10

$$$$

