9127
  -OEChem-06261203263D

 44 50  0     0  0  0  0  0  0999 V2000
   -0.8479    0.4868    0.0003 C   0  0  0  0  0  0  0  0  0  0  0  0
   -2.1022    1.1604    0.0001 C   0  0  0  0  0  0  0  0  0  0  0  0
   -0.8242   -0.9279    0.0005 C   0  0  0  0  0  0  0  0  0  0  0  0
    0.3744    1.2357    0.0003 C   0  0  0  0  0  0  0  0  0  0  0  0
   -3.3238    0.4370   -0.0002 C   0  0  0  0  0  0  0  0  0  0  0  0
    1.6432    0.5647    0.0003 C   0  0  0  0  0  0  0  0  0  0  0  0
   -2.0522   -1.6761    0.0001 C   0  0  0  0  0  0  0  0  0  0  0  0
   -3.2985   -0.9935   -0.0002 C   0  0  0  0  0  0  0  0  0  0  0  0
    1.6576   -0.8391    0.0008 C   0  0  0  0  0  0  0  0  0  0  0  0
   -2.1308    2.5821    0.0002 C   0  0  0  0  0  0  0  0  0  0  0  0
    0.4480   -1.5446    0.0009 C   0  0  0  0  0  0  0  0  0  0  0  0
    0.2789    2.6412    0.0004 C   0  0  0  0  0  0  0  0  0  0  0  0
   -0.9434    3.3018    0.0005 C   0  0  0  0  0  0  0  0  0  0  0  0
    2.9111    1.2113   -0.0003 C   0  0  0  0  0  0  0  0  0  0  0  0
   -4.5253    1.1931   -0.0005 C   0  0  0  0  0  0  0  0  0  0  0  0
    2.8748   -1.5477    0.0011 C   0  0  0  0  0  0  0  0  0  0  0  0
   -3.3413    3.2778    0.0001 C   0  0  0  0  0  0  0  0  0  0  0  0
    4.1332    0.5115   -0.0003 C   0  0  0  0  0  0  0  0  0  0  0  0
   -2.0861   -3.0996   -0.0001 C   0  0  0  0  0  0  0  0  0  0  0  0
    4.1130   -0.8927    0.0005 C   0  0  0  0  0  0  0  0  0  0  0  0
   -4.4861   -1.7775   -0.0006 C   0  0  0  0  0  0  0  0  0  0  0  0
   -4.5370    2.5851   -0.0004 C   0  0  0  0  0  0  0  0  0  0  0  0
   -3.2702   -3.8347   -0.0005 C   0  0  0  0  0  0  0  0  0  0  0  0
   -4.4763   -3.1703   -0.0006 C   0  0  0  0  0  0  0  0  0  0  0  0
    5.3704    1.1795   -0.0013 C   0  0  0  0  0  0  0  0  0  0  0  0
    5.3264   -1.6024    0.0005 C   0  0  0  0  0  0  0  0  0  0  0  0
    6.5682    0.4644   -0.0013 C   0  0  0  0  0  0  0  0  0  0  0  0
    6.5462   -0.9264   -0.0004 C   0  0  0  0  0  0  0  0  0  0  0  0
    0.5243   -2.6302    0.0013 H   0  0  0  0  0  0  0  0  0  0  0  0
    1.1622    3.2738    0.0006 H   0  0  0  0  0  0  0  0  0  0  0  0
   -0.9462    4.3901    0.0007 H   0  0  0  0  0  0  0  0  0  0  0  0
    2.9675    2.2983   -0.0010 H   0  0  0  0  0  0  0  0  0  0  0  0
   -5.4999    0.7129   -0.0008 H   0  0  0  0  0  0  0  0  0  0  0  0
    2.8575   -2.6384    0.0015 H   0  0  0  0  0  0  0  0  0  0  0  0
   -3.3648    4.3654    0.0003 H   0  0  0  0  0  0  0  0  0  0  0  0
   -1.1732   -3.6890    0.0000 H   0  0  0  0  0  0  0  0  0  0  0  0
   -5.4699   -1.3158   -0.0008 H   0  0  0  0  0  0  0  0  0  0  0  0
   -5.4808    3.1221   -0.0006 H   0  0  0  0  0  0  0  0  0  0  0  0
   -3.2394   -4.9198   -0.0006 H   0  0  0  0  0  0  0  0  0  0  0  0
   -5.4101   -3.7236   -0.0009 H   0  0  0  0  0  0  0  0  0  0  0  0
    5.4104    2.2668   -0.0020 H   0  0  0  0  0  0  0  0  0  0  0  0
    5.3300   -2.6905    0.0012 H   0  0  0  0  0  0  0  0  0  0  0  0
    7.5165    0.9936   -0.0020 H   0  0  0  0  0  0  0  0  0  0  0  0
    7.4772   -1.4854   -0.0003 H   0  0  0  0  0  0  0  0  0  0  0  0
  1  2  1  0  0  0  0
  1  3  1  0  0  0  0
  1  4  2  0  0  0  0
  2  5  1  0  0  0  0
  2 10  2  0  0  0  0
  3  7  1  0  0  0  0
  3 11  2  0  0  0  0
  4  6  1  0  0  0  0
  4 12  1  0  0  0  0
  5  8  1  0  0  0  0
  5 15  2  0  0  0  0
  6  9  1  0  0  0  0
  6 14  2  0  0  0  0
  7  8  1  0  0  0  0
  7 19  2  0  0  0  0
  8 21  2  0  0  0  0
  9 11  1  0  0  0  0
  9 16  2  0  0  0  0
 10 13  1  0  0  0  0
 10 17  1  0  0  0  0
 11 29  1  0  0  0  0
 12 13  2  0  0  0  0
 12 30  1  0  0  0  0
 13 31  1  0  0  0  0
 14 18  1  0  0  0  0
 14 32  1  0  0  0  0
 15 22  1  0  0  0  0
 15 33  1  0  0  0  0
 16 20  1  0  0  0  0
 16 34  1  0  0  0  0
 17 22  2  0  0  0  0
 17 35  1  0  0  0  0
 18 20  1  0  0  0  0
 18 25  2  0  0  0  0
 19 23  1  0  0  0  0
 19 36  1  0  0  0  0
 20 26  2  0  0  0  0
 21 24  1  0  0  0  0
 21 37  1  0  0  0  0
 22 38  1  0  0  0  0
 23 24  2  0  0  0  0
 23 39  1  0  0  0  0
 24 40  1  0  0  0  0
 25 27  1  0  0  0  0
 25 41  1  0  0  0  0
 26 28  1  0  0  0  0
 26 42  1  0  0  0  0
 27 28  2  0  0  0  0
 27 43  1  0  0  0  0
 28 44  1  0  0  0  0
M  END
> <PUBCHEM_COMPOUND_CID>
9127

> <PUBCHEM_CONFORMER_RMSD>
0.6

> <PUBCHEM_CONFORMER_DIVERSEORDER>
1

> <PUBCHEM_MMFF94_PARTIAL_CHARGES>
32
11 -0.15
12 -0.15
13 -0.15
14 -0.15
15 -0.15
16 -0.15
17 -0.15
19 -0.15
21 -0.15
22 -0.15
23 -0.15
24 -0.15
25 -0.15
26 -0.15
27 -0.15
28 -0.15
29 0.15
30 0.15
31 0.15
32 0.15
33 0.15
34 0.15
35 0.15
36 0.15
37 0.15
38 0.15
39 0.15
40 0.15
41 0.15
42 0.15
43 0.15
44 0.15

> <PUBCHEM_EFFECTIVE_ROTOR_COUNT>
0

> <PUBCHEM_PHARMACOPHORE_FEATURES>
7
6 1 2 3 5 7 8 rings
6 1 2 4 10 12 13 rings
6 1 3 4 6 9 11 rings
6 18 20 25 26 27 28 rings
6 2 5 10 15 17 22 rings
6 6 9 14 16 18 20 rings
6 7 8 19 21 23 24 rings

> <PUBCHEM_HEAVY_ATOM_COUNT>
28

> <PUBCHEM_ATOM_DEF_STEREO_COUNT>
0

> <PUBCHEM_ATOM_UDEF_STEREO_COUNT>
0

> <PUBCHEM_BOND_DEF_STEREO_COUNT>
0

> <PUBCHEM_BOND_UDEF_STEREO_COUNT>
0

> <PUBCHEM_ISOTOPIC_ATOM_COUNT>
0

> <PUBCHEM_COMPONENT_COUNT>
1

> <PUBCHEM_CACTVS_TAUTO_COUNT>
1

> <PUBCHEM_CONFORMER_ID>
000023A700000001

> <PUBCHEM_MMFF94_ENERGY>
115.0949

> <PUBCHEM_FEATURE_SELFOVERLAP>
35.709

> <PUBCHEM_SHAPE_FINGERPRINT>
10050765 1 18410856526145812112
10319926 262 18263943149807266842
10411042 1 18194682554141581411
10483366 6 18337968826967671015
10595046 47 18342455903512682574
10616163 171 18409729560342963398
10675989 125 16972808892782353005
10693767 8 17611483938965129823
10906281 52 18115857654464315349
10967382 1 18194402427900029121
1100329 8 18410571786793405649
11135609 187 18124323963667772461
11227688 84 17258771525732038079
11578080 2 4822115424745694393
11756154 67 17331121010992318418
12107183 9 17981896551261613234
12166972 35 17702666540686123950
12236239 1 17989204863438240508
12403259 226 18263366884700898857
12788726 201 18343027657395246019
12838862 33 18268165312822877453
13140716 1 18335700499049055721
13782708 43 17676770877489681694
138480 1 16248846516802454433
13911987 19 18126300863872642501
14415360 78 18196105545532063477
14765038 42 18043516416971403201
14790565 3 17976816815946755297
14844126 61 18412543189487791395
14866123 147 18409726262535911603
15042514 8 18410572877350744521
15131766 46 15551594078069133351
15196674 1 18410575089496161856
15250474 111 18271538580042217346
15320467 1 18338797797772762086
15361156 5 18058713798260650566
15400415 2 17978229696625376216
15927050 60 18265616670555081063
16087824 20 18411138061863605021
17492 89 18267304218454094139
17844677 252 18411131403835828710
18608769 82 18335986364352553576
19591789 44 18337954484852979104
19958102 18 18197219367567746446
20511986 3 17774733072514136032
20775438 99 16673359688781433247
21033648 29 17604164657076738170
21133410 171 17473322717137106698
21236236 1 18408323289154923479
21267235 1 18339636737659833339
22182313 1 17822556287899139310
23227448 37 18409729598981754060
23402539 116 18410015442093029580
23557571 272 18261106374867272750
23559900 14 18335428963033064344
23569943 247 14419242426659498828
255183 451 17830735353341351935
3178227 256 18340189887695384433
335352 9 18410857621483350591
350125 39 18409727331154651521
3882209 13 16963830852150287550
4073 2 18272646845150517370
4214541 1 18410575106570542496
4616759 239 17968670410016078504
484989 97 18269845234062876711
5104073 3 18335426772820705354
5171179 24 17897178935169419481
6700243 42 17754137982675091174
7237137 82 18343578521473817316
9709674 26 18262233443052939702

> <PUBCHEM_SHAPE_MULTIPOLES>
576.23
12.92
4.27
0.62
18.5
0.37
0
2.64
0
-6.75
0
0
0
0

> <PUBCHEM_SHAPE_SELFOVERLAP>
1369.065

> <PUBCHEM_SHAPE_VOLUME>
258.7

> <PUBCHEM_COORDINATE_TYPE>
2
5
10

$$$$

