3355
  -OEChem-06251223212D

 49 50  0     1  0  0  0  0  0999 V2000
    2.0000    0.1830    0.0000 F   0  0  0  0  0  0  0  0  0  0  0  0
    2.3660   -1.1830    0.0000 F   0  0  0  0  0  0  0  0  0  0  0  0
    3.3660    0.5490    0.0000 F   0  0  0  0  0  0  0  0  0  0  0  0
    9.7942   -4.3170    0.0000 F   0  0  0  0  0  0  0  0  0  0  0  0
    8.4282   -4.6830    0.0000 F   0  0  0  0  0  0  0  0  0  0  0  0
    9.4282   -2.9510    0.0000 F   0  0  0  0  0  0  0  0  0  0  0  0
    5.4641    1.1830    0.0000 O   0  0  0  0  0  0  0  0  0  0  0  0
    4.5981   -0.3170    0.0000 O   0  0  0  0  0  0  0  0  0  0  0  0
    8.0622   -2.3170    0.0000 O   0  0  0  0  0  0  0  0  0  0  0  0
    7.1962    3.1830    0.0000 N   0  0  0  0  0  0  0  0  0  0  0  0
    7.1962    1.1830    0.0000 N   0  3  0  0  0  0  0  0  0  0  0  0
    8.0622    2.6830    0.0000 C   0  0  3  0  0  0  0  0  0  0  0  0
    8.9282    3.1830    0.0000 C   0  0  0  0  0  0  0  0  0  0  0  0
    8.9282    4.1830    0.0000 C   0  0  0  0  0  0  0  0  0  0  0  0
    8.0622    4.6830    0.0000 C   0  0  0  0  0  0  0  0  0  0  0  0
    8.0622    1.6830    0.0000 C   0  0  0  0  0  0  0  0  0  0  0  0
    7.1962    4.1830    0.0000 C   0  0  0  0  0  0  0  0  0  0  0  0
    6.3301    0.6830    0.0000 C   0  0  0  0  0  0  0  0  0  0  0  0
    6.3301   -0.3170    0.0000 C   0  0  0  0  0  0  0  0  0  0  0  0
    5.4641   -0.8170    0.0000 C   0  0  0  0  0  0  0  0  0  0  0  0
    7.1962   -0.8170    0.0000 C   0  0  0  0  0  0  0  0  0  0  0  0
    7.1962   -1.8170    0.0000 C   0  0  0  0  0  0  0  0  0  0  0  0
    5.4641   -1.8170    0.0000 C   0  0  0  0  0  0  0  0  0  0  0  0
    6.3301   -2.3170    0.0000 C   0  0  0  0  0  0  0  0  0  0  0  0
    3.7320   -0.8170    0.0000 C   0  0  0  0  0  0  0  0  0  0  0  0
    8.0622   -3.3170    0.0000 C   0  0  0  0  0  0  0  0  0  0  0  0
    2.8660   -0.3170    0.0000 C   0  0  0  0  0  0  0  0  0  0  0  0
    8.9282   -3.8170    0.0000 C   0  0  0  0  0  0  0  0  0  0  0  0
    7.5252    2.3730    0.0000 H   0  0  0  0  0  0  0  0  0  0  0  0
    9.1403    2.6004    0.0000 H   0  0  0  0  0  0  0  0  0  0  0  0
    9.5388    3.2907    0.0000 H   0  0  0  0  0  0  0  0  0  0  0  0
    9.5388    4.0754    0.0000 H   0  0  0  0  0  0  0  0  0  0  0  0
    9.1403    4.7656    0.0000 H   0  0  0  0  0  0  0  0  0  0  0  0
    8.2742    1.1004    0.0000 H   0  0  0  0  0  0  0  0  0  0  0  0
    8.6728    1.7907    0.0000 H   0  0  0  0  0  0  0  0  0  0  0  0
    8.4607    5.1580    0.0000 H   0  0  0  0  0  0  0  0  0  0  0  0
    7.6636    5.1580    0.0000 H   0  0  0  0  0  0  0  0  0  0  0  0
    6.9841    4.7656    0.0000 H   0  0  0  0  0  0  0  0  0  0  0  0
    6.5856    4.0754    0.0000 H   0  0  0  0  0  0  0  0  0  0  0  0
    6.6592    2.8730    0.0000 H   0  0  0  0  0  0  0  0  0  0  0  0
    6.8862    1.7200    0.0000 H   0  0  0  0  0  0  0  0  0  0  0  0
    7.5062    0.6461    0.0000 H   0  0  0  0  0  0  0  0  0  0  0  0
    7.7331   -0.5070    0.0000 H   0  0  0  0  0  0  0  0  0  0  0  0
    4.9272   -2.1270    0.0000 H   0  0  0  0  0  0  0  0  0  0  0  0
    6.3301   -2.9370    0.0000 H   0  0  0  0  0  0  0  0  0  0  0  0
    3.3335   -1.2919    0.0000 H   0  0  0  0  0  0  0  0  0  0  0  0
    4.1306   -1.2919    0.0000 H   0  0  0  0  0  0  0  0  0  0  0  0
    7.4516   -3.2093    0.0000 H   0  0  0  0  0  0  0  0  0  0  0  0
    7.8501   -3.8996    0.0000 H   0  0  0  0  0  0  0  0  0  0  0  0
  1 27  1  0  0  0  0
  2 27  1  0  0  0  0
  3 27  1  0  0  0  0
  4 28  1  0  0  0  0
  5 28  1  0  0  0  0
  6 28  1  0  0  0  0
  7 18  2  0  0  0  0
  8 20  1  0  0  0  0
  8 25  1  0  0  0  0
  9 22  1  0  0  0  0
  9 26  1  0  0  0  0
 10 12  1  0  0  0  0
 10 17  1  0  0  0  0
 10 40  1  0  0  0  0
 11 16  1  0  0  0  0
 11 18  1  0  0  0  0
 11 41  1  0  0  0  0
 11 42  1  0  0  0  0
 12 13  1  0  0  0  0
 12 16  1  0  0  0  0
 12 29  1  0  0  0  0
 13 14  1  0  0  0  0
 13 30  1  0  0  0  0
 13 31  1  0  0  0  0
 14 15  1  0  0  0  0
 14 32  1  0  0  0  0
 14 33  1  0  0  0  0
 15 17  1  0  0  0  0
 15 36  1  0  0  0  0
 15 37  1  0  0  0  0
 16 34  1  0  0  0  0
 16 35  1  0  0  0  0
 17 38  1  0  0  0  0
 17 39  1  0  0  0  0
 18 19  1  0  0  0  0
 19 20  2  0  0  0  0
 19 21  1  0  0  0  0
 20 23  1  0  0  0  0
 21 22  2  0  0  0  0
 21 43  1  0  0  0  0
 22 24  1  0  0  0  0
 23 24  2  0  0  0  0
 23 44  1  0  0  0  0
 24 45  1  0  0  0  0
 25 27  1  0  0  0  0
 25 46  1  0  0  0  0
 25 47  1  0  0  0  0
 26 28  1  0  0  0  0
 26 48  1  0  0  0  0
 26 49  1  0  0  0  0
M  CHG  1  11   1
M  END
> <PUBCHEM_COMPOUND_CID>
3355

> <PUBCHEM_COMPOUND_CANONICALIZED>
1

> <PUBCHEM_CACTVS_COMPLEXITY>
500

> <PUBCHEM_CACTVS_HBOND_ACCEPTOR>
10

> <PUBCHEM_CACTVS_HBOND_DONOR>
2

> <PUBCHEM_CACTVS_ROTATABLE_BOND>
7

> <PUBCHEM_CACTVS_SUBSKEYS>
AAADceB7McAAAAAAAAAAAAAAAAAAAAAAAAA8QAAAAAAAAAABAAAAHwAQAAAADCzhmBYwBoLABACIAiFSEACCCAAkIAAIiIEODMgMZjaEtRuWOWjm9hGIqYf6yDCOAQABAAAIAAACAAIAABAAAAAAAAAAAA==

> <PUBCHEM_IUPAC_OPENEYE_NAME>
[2,5-bis(2,2,2-trifluoroethoxy)benzoyl]-(2-piperidylmethyl)ammonium

> <PUBCHEM_IUPAC_CAS_NAME>
[[2,5-bis(2,2,2-trifluoroethoxy)phenyl]-oxomethyl]-(2-piperidinylmethyl)ammonium

> <PUBCHEM_IUPAC_NAME>
[2,5-bis(2,2,2-trifluoroethoxy)benzoyl]-(piperidin-2-ylmethyl)azanium

> <PUBCHEM_IUPAC_SYSTEMATIC_NAME>
[2,5-bis[2,2,2-tris(fluoranyl)ethoxy]phenyl]carbonyl-(piperidin-2-ylmethyl)azanium

> <PUBCHEM_IUPAC_TRADITIONAL_NAME>
[2,5-bis(2,2,2-trifluoroethoxy)benzoyl]-(2-piperidylmethyl)ammonium

> <PUBCHEM_IUPAC_INCHI>
InChI=1S/C17H20F6N2O3/c18-16(19,20)9-27-12-4-5-14(28-10-17(21,22)23)13(7-12)15(26)25-8-11-3-1-2-6-24-11/h4-5,7,11,24H,1-3,6,8-10H2,(H,25,26)/p+1

> <PUBCHEM_IUPAC_INCHIKEY>
DJBNUMBKLMJRSA-UHFFFAOYSA-O

> <PUBCHEM_XLOGP3>
3.8

> <PUBCHEM_EXACT_MASS>
415.145637

> <PUBCHEM_MOLECULAR_FORMULA>
C17H21F6N2O3+

> <PUBCHEM_MOLECULAR_WEIGHT>
415.350659

> <PUBCHEM_OPENEYE_CAN_SMILES>
C1CCNC(C1)C[NH2+]C(=O)C2=C(C=CC(=C2)OCC(F)(F)F)OCC(F)(F)F

> <PUBCHEM_OPENEYE_ISO_SMILES>
C1CCNC(C1)C[NH2+]C(=O)C2=C(C=CC(=C2)OCC(F)(F)F)OCC(F)(F)F

> <PUBCHEM_CACTVS_TPSA>
64.2

> <PUBCHEM_MONOISOTOPIC_WEIGHT>
415.145637

> <PUBCHEM_TOTAL_CHARGE>
1

> <PUBCHEM_HEAVY_ATOM_COUNT>
28

> <PUBCHEM_ATOM_DEF_STEREO_COUNT>
0

> <PUBCHEM_ATOM_UDEF_STEREO_COUNT>
1

> <PUBCHEM_BOND_DEF_STEREO_COUNT>
0

> <PUBCHEM_BOND_UDEF_STEREO_COUNT>
0

> <PUBCHEM_ISOTOPIC_ATOM_COUNT>
0

> <PUBCHEM_COMPONENT_COUNT>
1

> <PUBCHEM_CACTVS_TAUTO_COUNT>
2

> <PUBCHEM_COORDINATE_TYPE>
1
5
255

> <PUBCHEM_BONDANNOTATIONS>
12  16  3
19  20  8
19  21  8
20  23  8
21  22  8
22  24  8
23  24  8

$$$$

