586330
  -OEChem-06241222462D

 45 47  0     1  0  0  0  0  0999 V2000
    2.8660   -0.9050    0.0000 O   0  0  0  0  0  0  0  0  0  0  0  0
    4.5981    2.0950    0.0000 O   0  0  0  0  0  0  0  0  0  0  0  0
    6.3301   -0.9050    0.0000 O   0  0  0  0  0  0  0  0  0  0  0  0
    4.5981    4.0950    0.0000 O   0  0  0  0  0  0  0  0  0  0  0  0
    2.8660    5.0950    0.0000 O   0  0  0  0  0  0  0  0  0  0  0  0
    4.5981   -4.9050    0.0000 O   0  0  0  0  0  0  0  0  0  0  0  0
    4.5981   -0.9050    0.0000 N   0  0  0  0  0  0  0  0  0  0  0  0
    5.4641    0.5950    0.0000 N   0  0  0  0  0  0  0  0  0  0  0  0
    3.7320    0.5950    0.0000 C   0  0  3  0  0  0  0  0  0  0  0  0
    2.8660    1.0950    0.0000 C   0  0  0  0  0  0  0  0  0  0  0  0
    3.7320   -0.4050    0.0000 C   0  0  0  0  0  0  0  0  0  0  0  0
    4.5981    1.0950    0.0000 C   0  0  0  0  0  0  0  0  0  0  0  0
    2.8660    2.0950    0.0000 C   0  0  0  0  0  0  0  0  0  0  0  0
    5.4641   -0.4050    0.0000 C   0  0  0  0  0  0  0  0  0  0  0  0
    4.5981   -1.9050    0.0000 C   0  0  0  0  0  0  0  0  0  0  0  0
    3.7320    2.5950    0.0000 C   0  0  0  0  0  0  0  0  0  0  0  0
    2.0000    2.5950    0.0000 C   0  0  0  0  0  0  0  0  0  0  0  0
    3.7320    3.5950    0.0000 C   0  0  0  0  0  0  0  0  0  0  0  0
    3.7320   -2.4050    0.0000 C   0  0  0  0  0  0  0  0  0  0  0  0
    5.4641   -2.4050    0.0000 C   0  0  0  0  0  0  0  0  0  0  0  0
    2.0000    3.5950    0.0000 C   0  0  0  0  0  0  0  0  0  0  0  0
    2.8660    4.0950    0.0000 C   0  0  0  0  0  0  0  0  0  0  0  0
    3.7320   -3.4050    0.0000 C   0  0  0  0  0  0  0  0  0  0  0  0
    5.4641   -3.4050    0.0000 C   0  0  0  0  0  0  0  0  0  0  0  0
    4.5981   -3.9050    0.0000 C   0  0  0  0  0  0  0  0  0  0  0  0
    4.5981    5.0950    0.0000 C   0  0  0  0  0  0  0  0  0  0  0  0
    5.4641   -5.4050    0.0000 C   0  0  0  0  0  0  0  0  0  0  0  0
    3.7320    1.2150    0.0000 H   0  0  0  0  0  0  0  0  0  0  0  0
    2.2554    1.2027    0.0000 H   0  0  0  0  0  0  0  0  0  0  0  0
    2.6540    0.5124    0.0000 H   0  0  0  0  0  0  0  0  0  0  0  0
    6.0010    0.9050    0.0000 H   0  0  0  0  0  0  0  0  0  0  0  0
    4.2690    2.2850    0.0000 H   0  0  0  0  0  0  0  0  0  0  0  0
    1.4631    2.2850    0.0000 H   0  0  0  0  0  0  0  0  0  0  0  0
    3.1951   -2.0950    0.0000 H   0  0  0  0  0  0  0  0  0  0  0  0
    6.0010   -2.0950    0.0000 H   0  0  0  0  0  0  0  0  0  0  0  0
    1.4631    3.9050    0.0000 H   0  0  0  0  0  0  0  0  0  0  0  0
    3.1951   -3.7150    0.0000 H   0  0  0  0  0  0  0  0  0  0  0  0
    6.0010   -3.7150    0.0000 H   0  0  0  0  0  0  0  0  0  0  0  0
    2.3291    5.4050    0.0000 H   0  0  0  0  0  0  0  0  0  0  0  0
    5.2181    5.0950    0.0000 H   0  0  0  0  0  0  0  0  0  0  0  0
    4.5981    5.7150    0.0000 H   0  0  0  0  0  0  0  0  0  0  0  0
    3.9781    5.0950    0.0000 H   0  0  0  0  0  0  0  0  0  0  0  0
    5.1541   -5.9419    0.0000 H   0  0  0  0  0  0  0  0  0  0  0  0
    6.0010   -5.7150    0.0000 H   0  0  0  0  0  0  0  0  0  0  0  0
    5.7741   -4.8681    0.0000 H   0  0  0  0  0  0  0  0  0  0  0  0
  1 11  2  0  0  0  0
  2 12  2  0  0  0  0
  3 14  2  0  0  0  0
  4 18  1  0  0  0  0
  4 26  1  0  0  0  0
  5 22  1  0  0  0  0
  5 39  1  0  0  0  0
  6 25  1  0  0  0  0
  6 27  1  0  0  0  0
  7 11  1  0  0  0  0
  7 14  1  0  0  0  0
  7 15  1  0  0  0  0
  8 12  1  0  0  0  0
  8 14  1  0  0  0  0
  8 31  1  0  0  0  0
  9 10  1  0  0  0  0
  9 11  1  0  0  0  0
  9 12  1  0  0  0  0
  9 28  1  0  0  0  0
 10 13  1  0  0  0  0
 10 29  1  0  0  0  0
 10 30  1  0  0  0  0
 13 16  2  0  0  0  0
 13 17  1  0  0  0  0
 15 19  2  0  0  0  0
 15 20  1  0  0  0  0
 16 18  1  0  0  0  0
 16 32  1  0  0  0  0
 17 21  2  0  0  0  0
 17 33  1  0  0  0  0
 18 22  2  0  0  0  0
 19 23  1  0  0  0  0
 19 34  1  0  0  0  0
 20 24  2  0  0  0  0
 20 35  1  0  0  0  0
 21 22  1  0  0  0  0
 21 36  1  0  0  0  0
 23 25  2  0  0  0  0
 23 37  1  0  0  0  0
 24 25  1  0  0  0  0
 24 38  1  0  0  0  0
 26 40  1  0  0  0  0
 26 41  1  0  0  0  0
 26 42  1  0  0  0  0
 27 43  1  0  0  0  0
 27 44  1  0  0  0  0
 27 45  1  0  0  0  0
M  END
> <PUBCHEM_COMPOUND_CID>
586330

> <PUBCHEM_COMPOUND_CANONICALIZED>
1

> <PUBCHEM_CACTVS_COMPLEXITY>
575

> <PUBCHEM_CACTVS_HBOND_ACCEPTOR>
6

> <PUBCHEM_CACTVS_HBOND_DONOR>
2

> <PUBCHEM_CACTVS_ROTATABLE_BOND>
5

> <PUBCHEM_CACTVS_SUBSKEYS>
AAADceB7OAAAAAAAAAAAAAAAAAAAAAAAAAA8YIAAAAAAAAABQAAAHgAQCAAADQyBmAIzxoPABgCIAiVSUACCCAAhIgAIiAEG7IiNJjrO8ZuEcCts1TPL+Ce4yPCOIEABAAAAQABAgAIAAACAAAAAAAAAAA==

> <PUBCHEM_IUPAC_OPENEYE_NAME>
5-[(4-hydroxy-3-methoxy-phenyl)methyl]-1-(4-methoxyphenyl)hexahydropyrimidine-2,4,6-trione

> <PUBCHEM_IUPAC_CAS_NAME>
5-[(4-hydroxy-3-methoxyphenyl)methyl]-1-(4-methoxyphenyl)-1,3-diazinane-2,4,6-trione

> <PUBCHEM_IUPAC_NAME>
5-[(4-hydroxy-3-methoxyphenyl)methyl]-1-(4-methoxyphenyl)-1,3-diazinane-2,4,6-trione

> <PUBCHEM_IUPAC_SYSTEMATIC_NAME>
5-[(3-methoxy-4-oxidanyl-phenyl)methyl]-1-(4-methoxyphenyl)-1,3-diazinane-2,4,6-trione

> <PUBCHEM_IUPAC_TRADITIONAL_NAME>
1-(4-methoxyphenyl)-5-vanillyl-barbituric acid

> <PUBCHEM_IUPAC_INCHI>
InChI=1S/C19H18N2O6/c1-26-13-6-4-12(5-7-13)21-18(24)14(17(23)20-19(21)25)9-11-3-8-15(22)16(10-11)27-2/h3-8,10,14,22H,9H2,1-2H3,(H,20,23,25)

> <PUBCHEM_IUPAC_INCHIKEY>
GGRKKQVUJUFKHB-UHFFFAOYSA-N

> <PUBCHEM_XLOGP3_AA>
2.2

> <PUBCHEM_EXACT_MASS>
370.116486

> <PUBCHEM_MOLECULAR_FORMULA>
C19H18N2O6

> <PUBCHEM_MOLECULAR_WEIGHT>
370.35602

> <PUBCHEM_OPENEYE_CAN_SMILES>
COC1=CC=C(C=C1)N2C(=O)C(C(=O)NC2=O)CC3=CC(=C(C=C3)O)OC

> <PUBCHEM_OPENEYE_ISO_SMILES>
COC1=CC=C(C=C1)N2C(=O)C(C(=O)NC2=O)CC3=CC(=C(C=C3)O)OC

> <PUBCHEM_CACTVS_TPSA>
105

> <PUBCHEM_MONOISOTOPIC_WEIGHT>
370.116486

> <PUBCHEM_TOTAL_CHARGE>
0

> <PUBCHEM_HEAVY_ATOM_COUNT>
27

> <PUBCHEM_ATOM_DEF_STEREO_COUNT>
0

> <PUBCHEM_ATOM_UDEF_STEREO_COUNT>
1

> <PUBCHEM_BOND_DEF_STEREO_COUNT>
0

> <PUBCHEM_BOND_UDEF_STEREO_COUNT>
0

> <PUBCHEM_ISOTOPIC_ATOM_COUNT>
0

> <PUBCHEM_COMPONENT_COUNT>
1

> <PUBCHEM_CACTVS_TAUTO_COUNT>
24

> <PUBCHEM_COORDINATE_TYPE>
1
5
255

> <PUBCHEM_BONDANNOTATIONS>
13  16  8
13  17  8
15  19  8
15  20  8
16  18  8
17  21  8
18  22  8
19  23  8
20  24  8
21  22  8
23  25  8
24  25  8
9  10  3

$$$$

