5586
  -OEChem-06261200452D

 44 47  0     1  0  0  0  0  0999 V2000
    3.4030   -2.6402    0.0000 Cl  0  0  0  0  0  0  0  0  0  0  0  0
    3.4030   -0.6402    0.0000 S   0  0  0  0  0  0  0  0  0  0  0  0
    6.8671    0.3598    0.0000 O   0  0  0  0  0  0  0  0  0  0  0  0
    3.9030    0.2258    0.0000 O   0  0  0  0  0  0  0  0  0  0  0  0
    2.9030   -1.5062    0.0000 O   0  0  0  0  0  0  0  0  0  0  0  0
    8.5991   -0.6402    0.0000 N   0  0  0  0  0  0  0  0  0  0  0  0
    7.7331   -1.1402    0.0000 N   0  0  0  0  0  0  0  0  0  0  0  0
    2.5369   -0.1402    0.0000 N   0  0  0  0  0  0  0  0  0  0  0  0
   10.1740   -0.3083    0.0000 C   0  0  3  0  0  0  0  0  0  0  0  0
    9.6740    0.5577    0.0000 C   0  0  3  0  0  0  0  0  0  0  0  0
   11.9060    0.6917    0.0000 C   0  0  3  0  0  0  0  0  0  0  0  0
   12.1649    1.6576    0.0000 C   0  0  3  0  0  0  0  0  0  0  0  0
   11.4282    2.6402    0.0000 C   0  0  0  0  0  0  0  0  0  0  0  0
   13.7380   -0.0671    0.0000 C   0  0  0  0  0  0  0  0  0  0  0  0
   13.9968    0.8988    0.0000 C   0  0  0  0  0  0  0  0  0  0  0  0
    9.5069   -1.0453    0.0000 C   0  0  0  0  0  0  0  0  0  0  0  0
    8.7022    0.3485    0.0000 C   0  0  0  0  0  0  0  0  0  0  0  0
    6.8671   -0.6402    0.0000 C   0  0  0  0  0  0  0  0  0  0  0  0
    6.0010   -1.1402    0.0000 C   0  0  0  0  0  0  0  0  0  0  0  0
    5.1350   -0.6402    0.0000 C   0  0  0  0  0  0  0  0  0  0  0  0
    6.0010   -2.1402    0.0000 C   0  0  0  0  0  0  0  0  0  0  0  0
    4.2690   -1.1402    0.0000 C   0  0  0  0  0  0  0  0  0  0  0  0
    5.1350   -2.6402    0.0000 C   0  0  0  0  0  0  0  0  0  0  0  0
    4.2690   -2.1402    0.0000 C   0  0  0  0  0  0  0  0  0  0  0  0
    9.4825    1.1474    0.0000 H   0  0  0  0  0  0  0  0  0  0  0  0
   10.5635   -0.7907    0.0000 H   0  0  0  0  0  0  0  0  0  0  0  0
   12.5450    2.1474    0.0000 H   0  0  0  0  0  0  0  0  0  0  0  0
   12.3765    1.0955    0.0000 H   0  0  0  0  0  0  0  0  0  0  0  0
   11.7460    3.1726    0.0000 H   0  0  0  0  0  0  0  0  0  0  0  0
   10.8151    2.7322    0.0000 H   0  0  0  0  0  0  0  0  0  0  0  0
   14.5881    0.7124    0.0000 H   0  0  0  0  0  0  0  0  0  0  0  0
   14.2089    1.4814    0.0000 H   0  0  0  0  0  0  0  0  0  0  0  0
   13.5259   -0.6497    0.0000 H   0  0  0  0  0  0  0  0  0  0  0  0
   14.3293   -0.2536    0.0000 H   0  0  0  0  0  0  0  0  0  0  0  0
    8.6361    0.9650    0.0000 H   0  0  0  0  0  0  0  0  0  0  0  0
    8.0822    0.3476    0.0000 H   0  0  0  0  0  0  0  0  0  0  0  0
    9.1961   -1.5818    0.0000 H   0  0  0  0  0  0  0  0  0  0  0  0
   10.0078   -1.4108    0.0000 H   0  0  0  0  0  0  0  0  0  0  0  0
    7.7331   -1.7602    0.0000 H   0  0  0  0  0  0  0  0  0  0  0  0
    5.1350   -0.0202    0.0000 H   0  0  0  0  0  0  0  0  0  0  0  0
    6.5380   -2.4502    0.0000 H   0  0  0  0  0  0  0  0  0  0  0  0
    5.1350   -3.2602    0.0000 H   0  0  0  0  0  0  0  0  0  0  0  0
    2.0000   -0.4502    0.0000 H   0  0  0  0  0  0  0  0  0  0  0  0
    2.5369    0.4798    0.0000 H   0  0  0  0  0  0  0  0  0  0  0  0
  1 24  1  0  0  0  0
  2  4  2  0  0  0  0
  2  5  2  0  0  0  0
  2  8  1  0  0  0  0
  2 22  1  0  0  0  0
  3 18  2  0  0  0  0
  6  7  1  0  0  0  0
  6 16  1  0  0  0  0
  6 17  1  0  0  0  0
  7 18  1  0  0  0  0
  7 39  1  0  0  0  0
  8 43  1  0  0  0  0
  8 44  1  0  0  0  0
  9 10  1  0  0  0  0
  9 11  1  0  0  0  0
  9 16  1  0  0  0  0
  9 26  1  0  0  0  0
 10 12  1  0  0  0  0
 10 17  1  0  0  0  0
 10 25  1  0  0  0  0
 11 13  1  0  0  0  0
 11 14  1  0  0  0  0
 11 28  1  0  0  0  0
 12 13  1  0  0  0  0
 12 15  1  0  0  0  0
 12 27  1  0  0  0  0
 13 29  1  0  0  0  0
 13 30  1  0  0  0  0
 14 15  1  0  0  0  0
 14 33  1  0  0  0  0
 14 34  1  0  0  0  0
 15 31  1  0  0  0  0
 15 32  1  0  0  0  0
 16 37  1  0  0  0  0
 16 38  1  0  0  0  0
 17 35  1  0  0  0  0
 17 36  1  0  0  0  0
 18 19  1  0  0  0  0
 19 20  2  0  0  0  0
 19 21  1  0  0  0  0
 20 22  1  0  0  0  0
 20 40  1  0  0  0  0
 21 23  2  0  0  0  0
 21 41  1  0  0  0  0
 22 24  2  0  0  0  0
 23 24  1  0  0  0  0
 23 42  1  0  0  0  0
M  END
> <PUBCHEM_COMPOUND_CID>
5586

> <PUBCHEM_COMPOUND_CANONICALIZED>
1

> <PUBCHEM_CACTVS_COMPLEXITY>
605

> <PUBCHEM_CACTVS_HBOND_ACCEPTOR>
5

> <PUBCHEM_CACTVS_HBOND_DONOR>
2

> <PUBCHEM_CACTVS_ROTATABLE_BOND>
3

> <PUBCHEM_CACTVS_SUBSKEYS>
AAADceB7MABEAAAAAAAAAAAAAAAAAeMEAAAwYAAAAAAWAAABAAAAHgYYQAAADQLB2CQwAYJiAAKIAiFSEHDCABAkBQAaqBkIBsgIIDKBlxGEIQBggACIiYcYiMCOhAAAgAAAAIAIAAUAACABAQAACAAAAA==

> <PUBCHEM_IUPAC_INCHI>
InChI=1S/C16H20ClN3O3S/c17-14-4-3-11(6-15(14)24(18,22)23)16(21)19-20-7-12-9-1-2-10(5-9)13(12)8-20/h3-4,6,9-10,12-13H,1-2,5,7-8H2,(H,19,21)(H2,18,22,23)

> <PUBCHEM_IUPAC_INCHIKEY>
UHLOVGKIEARANS-UHFFFAOYSA-N

> <PUBCHEM_XLOGP3_AA>
2.6

> <PUBCHEM_EXACT_MASS>
369.09139

> <PUBCHEM_MOLECULAR_FORMULA>
C16H20ClN3O3S

> <PUBCHEM_MOLECULAR_WEIGHT>
369.8663

> <PUBCHEM_OPENEYE_CAN_SMILES>
C1CC2CC1C3C2CN(C3)NC(=O)C4=CC(=C(C=C4)Cl)S(=O)(=O)N

> <PUBCHEM_OPENEYE_ISO_SMILES>
C1CC2CC1C3C2CN(C3)NC(=O)C4=CC(=C(C=C4)Cl)S(=O)(=O)N

> <PUBCHEM_CACTVS_TPSA>
101

> <PUBCHEM_MONOISOTOPIC_WEIGHT>
369.09139

> <PUBCHEM_TOTAL_CHARGE>
0

> <PUBCHEM_HEAVY_ATOM_COUNT>
24

> <PUBCHEM_ATOM_DEF_STEREO_COUNT>
0

> <PUBCHEM_ATOM_UDEF_STEREO_COUNT>
4

> <PUBCHEM_BOND_DEF_STEREO_COUNT>
0

> <PUBCHEM_BOND_UDEF_STEREO_COUNT>
0

> <PUBCHEM_ISOTOPIC_ATOM_COUNT>
0

> <PUBCHEM_COMPONENT_COUNT>
1

> <PUBCHEM_CACTVS_TAUTO_COUNT>
2

> <PUBCHEM_COORDINATE_TYPE>
1
5
255

> <PUBCHEM_BONDANNOTATIONS>
10  17  3
11  14  3
12  15  3
19  20  8
19  21  8
20  22  8
21  23  8
22  24  8
23  24  8
9  16  3

$$$$

