854038
  -OEChem-06241222473D

 38 41  0     1  0  0  0  0  0999 V2000
   -0.4076   -1.6096   -0.7251 O   0  0  0  0  0  0  0  0  0  0  0  0
    0.9751    2.6049    0.1794 O   0  0  0  0  0  0  0  0  0  0  0  0
    0.0463    0.4470    0.0801 N   0  0  0  0  0  0  0  0  0  0  0  0
   -0.9150   -0.2695   -0.7104 C   0  0  1  0  0  0  0  0  0  0  0  0
    0.8395   -0.4229    0.9218 C   0  0  1  0  0  0  0  0  0  0  0  0
   -0.8029    0.4766   -2.0374 C   0  0  0  0  0  0  0  0  0  0  0  0
   -0.5655    1.9304   -1.5851 C   0  0  0  0  0  0  0  0  0  0  0  0
    0.2494   -1.7929    0.5599 C   0  0  0  0  0  0  0  0  0  0  0  0
    0.2569    1.7561   -0.3228 C   0  0  0  0  0  0  0  0  0  0  0  0
   -2.2957   -0.2272   -0.1434 C   0  0  0  0  0  0  0  0  0  0  0  0
    2.2870   -0.3762    0.5594 C   0  0  0  0  0  0  0  0  0  0  0  0
   -3.3615   -0.7599   -0.8670 C   0  0  0  0  0  0  0  0  0  0  0  0
   -2.5168    0.3451    1.1084 C   0  0  0  0  0  0  0  0  0  0  0  0
    3.1631    0.4210    1.2946 C   0  0  0  0  0  0  0  0  0  0  0  0
    2.7607   -1.1295   -0.5138 C   0  0  0  0  0  0  0  0  0  0  0  0
   -4.6514   -0.7204   -0.3376 C   0  0  0  0  0  0  0  0  0  0  0  0
   -3.8067    0.3846    1.6378 C   0  0  0  0  0  0  0  0  0  0  0  0
    4.5155    0.4648    0.9561 C   0  0  0  0  0  0  0  0  0  0  0  0
    4.1132   -1.0857   -0.8523 C   0  0  0  0  0  0  0  0  0  0  0  0
   -4.8740   -0.1482    0.9148 C   0  0  0  0  0  0  0  0  0  0  0  0
    4.9906   -0.2886   -0.1173 C   0  0  0  0  0  0  0  0  0  0  0  0
    0.6835   -0.1842    1.9791 H   0  0  0  0  0  0  0  0  0  0  0  0
   -1.6679    0.3916   -2.7012 H   0  0  0  0  0  0  0  0  0  0  0  0
    0.0699    0.1192   -2.6004 H   0  0  0  0  0  0  0  0  0  0  0  0
   -1.5004    2.4432   -1.3401 H   0  0  0  0  0  0  0  0  0  0  0  0
   -0.0094    2.4957   -2.3368 H   0  0  0  0  0  0  0  0  0  0  0  0
    0.9361   -2.6444    0.5284 H   0  0  0  0  0  0  0  0  0  0  0  0
   -0.5371   -2.0593    1.2779 H   0  0  0  0  0  0  0  0  0  0  0  0
   -3.2044   -1.2203   -1.8386 H   0  0  0  0  0  0  0  0  0  0  0  0
   -1.7224    0.7704    1.7131 H   0  0  0  0  0  0  0  0  0  0  0  0
    2.8055    1.0136    2.1324 H   0  0  0  0  0  0  0  0  0  0  0  0
    2.1173   -1.7384   -1.1402 H   0  0  0  0  0  0  0  0  0  0  0  0
   -5.4820   -1.1377   -0.8992 H   0  0  0  0  0  0  0  0  0  0  0  0
   -3.9806    0.8291    2.6134 H   0  0  0  0  0  0  0  0  0  0  0  0
    5.1985    1.0863    1.5278 H   0  0  0  0  0  0  0  0  0  0  0  0
    4.4823   -1.6656   -1.6931 H   0  0  0  0  0  0  0  0  0  0  0  0
   -5.8782   -0.1182    1.3275 H   0  0  0  0  0  0  0  0  0  0  0  0
    6.0433   -0.2528   -0.3822 H   0  0  0  0  0  0  0  0  0  0  0  0
  1  4  1  0  0  0  0
  1  8  1  0  0  0  0
  2  9  2  0  0  0  0
  3  4  1  0  0  0  0
  3  5  1  0  0  0  0
  3  9  1  0  0  0  0
  4  6  1  0  0  0  0
  4 10  1  0  0  0  0
  5  8  1  0  0  0  0
  5 11  1  0  0  0  0
  5 22  1  0  0  0  0
  6  7  1  0  0  0  0
  6 23  1  0  0  0  0
  6 24  1  0  0  0  0
  7  9  1  0  0  0  0
  7 25  1  0  0  0  0
  7 26  1  0  0  0  0
  8 27  1  0  0  0  0
  8 28  1  0  0  0  0
 10 12  2  0  0  0  0
 10 13  1  0  0  0  0
 11 14  2  0  0  0  0
 11 15  1  0  0  0  0
 12 16  1  0  0  0  0
 12 29  1  0  0  0  0
 13 17  2  0  0  0  0
 13 30  1  0  0  0  0
 14 18  1  0  0  0  0
 14 31  1  0  0  0  0
 15 19  2  0  0  0  0
 15 32  1  0  0  0  0
 16 20  2  0  0  0  0
 16 33  1  0  0  0  0
 17 20  1  0  0  0  0
 17 34  1  0  0  0  0
 18 21  2  0  0  0  0
 18 35  1  0  0  0  0
 19 21  1  0  0  0  0
 19 36  1  0  0  0  0
 20 37  1  0  0  0  0
 21 38  1  0  0  0  0
M  END
> <PUBCHEM_COMPOUND_CID>
854038

> <PUBCHEM_CONFORMER_RMSD>
0.6

> <PUBCHEM_CONFORMER_DIVERSEORDER>
1
2

> <PUBCHEM_MMFF94_PARTIAL_CHARGES>
30
1 -0.56
10 -0.14
11 -0.14
12 -0.15
13 -0.15
14 -0.15
15 -0.15
16 -0.15
17 -0.15
18 -0.15
19 -0.15
2 -0.57
20 -0.15
21 -0.15
29 0.15
3 -0.66
30 0.15
31 0.15
32 0.15
33 0.15
34 0.15
35 0.15
36 0.15
37 0.15
38 0.15
4 0.72
5 0.44
7 0.06
8 0.28
9 0.57

> <PUBCHEM_EFFECTIVE_ROTOR_COUNT>
3

> <PUBCHEM_PHARMACOPHORE_FEATURES>
6
1 1 acceptor
1 2 acceptor
5 1 3 4 5 8 rings
5 3 4 6 7 9 rings
6 10 12 13 16 17 20 rings
6 11 14 15 18 19 21 rings

> <PUBCHEM_HEAVY_ATOM_COUNT>
21

> <PUBCHEM_ATOM_DEF_STEREO_COUNT>
2

> <PUBCHEM_ATOM_UDEF_STEREO_COUNT>
0

> <PUBCHEM_BOND_DEF_STEREO_COUNT>
0

> <PUBCHEM_BOND_UDEF_STEREO_COUNT>
0

> <PUBCHEM_ISOTOPIC_ATOM_COUNT>
0

> <PUBCHEM_COMPONENT_COUNT>
1

> <PUBCHEM_CACTVS_TAUTO_COUNT>
2

> <PUBCHEM_CONFORMER_ID>
000D081600000001

> <PUBCHEM_MMFF94_ENERGY>
74.7572

> <PUBCHEM_FEATURE_SELFOVERLAP>
30.733

> <PUBCHEM_SHAPE_FINGERPRINT>
10465860 250 16630811006319383483
10863032 1 16805042917027869266
10906281 52 17345748720165438061
10922049 32 14923943453232196519
11132069 177 18342179955309867554
11578080 2 17977088386644043973
12011746 2 18202004334987516011
12107183 9 16665405125031858555
121448 382 8141789561700365917
12236239 1 17967534558532827307
12467345 10 17385442111397196994
12670546 56 16588317067764652491
12714826 92 17846787333446393885
12892183 10 17385445397105297915
13140716 1 18057321691131350842
13224815 77 18059862817348758378
13464514 151 5544380223596108587
13544653 18 17703790353228278227
13583140 156 15575006004824103718
13965767 371 17175421260783210161
14251764 30 18130496500689659466
14341114 176 17895186693393804003
14787075 74 16702010933742520882
14955137 171 18339062827181533179
15048467 5 17458345226003845640
15163728 17 14780083347369263417
15209289 33 18408884027437869747
15238133 3 18127950079774457857
15527383 91 18201996621411044153
15848702 151 18113335327571651510
1601671 61 18271807977322451773
16945 1 17989487432903747819
17357779 13 18201452380034386925
17980427 23 17168140135965453193
1813 80 18343576352367724108
18222031 100 18201440259620826831
19141452 34 18186805746659269759
200 152 14692571026713287090
20028762 73 18194957453513358531
20600515 1 17702640259712628583
20691752 17 16700347308367454826
21033648 29 17895488015409108865
21330990 113 17896585361909007262
23175994 123 17561359587085968445
23184049 59 18412545375319734729
23227448 37 15141828101941258682
23402539 116 18340214067780602430
23419403 2 15088134430709286983
23557571 272 17202775924227762422
23559900 14 16732987505476906370
23622692 88 18410849959150768447
26918003 58 15410899560845847818
312423 11 17416690348408445850
34797466 226 16056584469938708038
7495541 125 16343409618980093273
8272917 22 16081356497156335062

> <PUBCHEM_SHAPE_MULTIPOLES>
415.45
9.09
1.69
1.51
0.87
0.85
-0.1
-2.19
2
0.33
-0.34
-0.47
0.23
0.34

> <PUBCHEM_SHAPE_SELFOVERLAP>
925.567

> <PUBCHEM_SHAPE_VOLUME>
223.3

> <PUBCHEM_COORDINATE_TYPE>
2
5
10

$$$$

