7494
  -OEChem-06261202063D

 21 21  0     0  0  0  0  0  0999 V2000
   -3.4327   -1.1082    1.0035 O   0  0  0  0  0  0  0  0  0  0  0  0
    3.4743    0.8720    0.5284 O   0  5  0  0  0  0  0  0  0  0  0  0
    3.3296   -1.2623    0.0355 O   0  0  0  0  0  0  0  0  0  0  0  0
    2.8049   -0.1322    0.1849 N   0  3  0  0  0  0  0  0  0  0  0  0
   -1.3285    0.3028   -0.4836 C   0  0  0  0  0  0  0  0  0  0  0  0
   -2.7930    0.4565   -0.7195 C   0  0  0  0  0  0  0  0  0  0  0  0
   -0.5641    1.4052   -0.1019 C   0  0  0  0  0  0  0  0  0  0  0  0
   -0.7235   -0.9438   -0.6442 C   0  0  0  0  0  0  0  0  0  0  0  0
   -3.6295    0.2222    0.5421 C   0  0  0  0  0  0  0  0  0  0  0  0
    1.4108    0.0146   -0.0413 C   0  0  0  0  0  0  0  0  0  0  0  0
    0.8056    1.2611    0.1192 C   0  0  0  0  0  0  0  0  0  0  0  0
    0.6462   -1.0880   -0.4231 C   0  0  0  0  0  0  0  0  0  0  0  0
   -3.1059   -0.2511   -1.4984 H   0  0  0  0  0  0  0  0  0  0  0  0
   -3.0052    1.4570   -1.1162 H   0  0  0  0  0  0  0  0  0  0  0  0
   -1.0245    2.3810    0.0284 H   0  0  0  0  0  0  0  0  0  0  0  0
   -1.3071   -1.8109   -0.9420 H   0  0  0  0  0  0  0  0  0  0  0  0
   -4.6923    0.3593    0.3194 H   0  0  0  0  0  0  0  0  0  0  0  0
   -3.3422    0.9139    1.3410 H   0  0  0  0  0  0  0  0  0  0  0  0
    1.3696    2.1417    0.4162 H   0  0  0  0  0  0  0  0  0  0  0  0
    1.0835   -2.0740   -0.5576 H   0  0  0  0  0  0  0  0  0  0  0  0
   -3.9811   -1.2180    1.7989 H   0  0  0  0  0  0  0  0  0  0  0  0
  1  9  1  0  0  0  0
  1 21  1  0  0  0  0
  2  4  1  0  0  0  0
  3  4  2  0  0  0  0
  4 10  1  0  0  0  0
  5  6  1  0  0  0  0
  5  7  2  0  0  0  0
  5  8  1  0  0  0  0
  6  9  1  0  0  0  0
  6 13  1  0  0  0  0
  6 14  1  0  0  0  0
  7 11  1  0  0  0  0
  7 15  1  0  0  0  0
  8 12  2  0  0  0  0
  8 16  1  0  0  0  0
  9 17  1  0  0  0  0
  9 18  1  0  0  0  0
 10 11  2  0  0  0  0
 10 12  1  0  0  0  0
 11 19  1  0  0  0  0
 12 20  1  0  0  0  0
M  CHG  2   2  -1   4   1
M  END
> <PUBCHEM_COMPOUND_CID>
7494

> <PUBCHEM_CONFORMER_RMSD>
0.6

> <PUBCHEM_CONFORMER_DIVERSEORDER>
1
3
2

> <PUBCHEM_MMFF94_PARTIAL_CHARGES>
17
1 -0.68
10 0.13
11 -0.15
12 -0.15
15 0.15
16 0.15
19 0.15
2 -0.52
20 0.15
21 0.4
3 -0.52
4 0.91
5 -0.14
6 0.14
7 -0.15
8 -0.15
9 0.28

> <PUBCHEM_EFFECTIVE_ROTOR_COUNT>
3

> <PUBCHEM_PHARMACOPHORE_FEATURES>
6
1 1 acceptor
1 1 donor
1 2 acceptor
1 2 anion
1 3 acceptor
6 5 7 8 10 11 12 rings

> <PUBCHEM_HEAVY_ATOM_COUNT>
12

> <PUBCHEM_ATOM_DEF_STEREO_COUNT>
0

> <PUBCHEM_ATOM_UDEF_STEREO_COUNT>
0

> <PUBCHEM_BOND_DEF_STEREO_COUNT>
0

> <PUBCHEM_BOND_UDEF_STEREO_COUNT>
0

> <PUBCHEM_ISOTOPIC_ATOM_COUNT>
0

> <PUBCHEM_COMPONENT_COUNT>
1

> <PUBCHEM_CACTVS_TAUTO_COUNT>
1

> <PUBCHEM_CONFORMER_ID>
00001D4600000001

> <PUBCHEM_MMFF94_ENERGY>
30.391

> <PUBCHEM_FEATURE_SELFOVERLAP>
30.527

> <PUBCHEM_SHAPE_FINGERPRINT>
10219947 1 18260831509560374509
10857977 72 18343303660820471473
11062470 55 6844202047502746103
11471102 22 18338786836972907697
11769659 78 16988571216113906747
12032990 46 18411132575855693326
12251169 10 18336540517717002411
12932764 1 17749402463567115884
14325111 11 18335989734931222484
16945 1 18260271853767800028
17844478 74 18343584061844563133
19026448 4 17418099840183205740
19026448 5 15502382222479771260
200 152 18041008306768414495
20201158 50 18342737442576422483
20281407 28 17989484134595536019
20645477 70 18261967360854019735
20653085 51 5328457137531677899
21256008 23 18261105253559165513
23402655 69 17973746928496279245
2748010 2 17973447890495558740

> <PUBCHEM_SHAPE_MULTIPOLES>
224.37
5.84
1.37
0.82
0
0.03
-0.02
-0.65
-1.57
-0.28
-0.02
0.49
-0.08
0.4

> <PUBCHEM_SHAPE_SELFOVERLAP>
462.712

> <PUBCHEM_SHAPE_VOLUME>
129.5

> <PUBCHEM_COORDINATE_TYPE>
2
5
10

$$$$

