3670
  -OEChem-06251223342D

 98102  0     1  0  0  0  0  0999 V2000
    8.7776   -3.8812    0.0000 S   0  0  0  0  0  0  0  0  0  0  0  0
    3.4051   -0.7659    0.0000 S   0  0  0  0  0  0  0  0  0  0  0  0
    4.2568   -3.3676    0.0000 S   0  0  0  0  0  0  0  0  0  0  0  0
    7.9096   -3.3845    0.0000 O   0  0  0  0  0  0  0  0  0  0  0  0
    4.2768   -0.2760    0.0000 O   0  0  0  0  0  0  0  0  0  0  0  0
    4.2607   -2.3676    0.0000 O   0  0  0  0  0  0  0  0  0  0  0  0
    9.6455   -4.3778    0.0000 O   0  0  0  0  0  0  0  0  0  0  0  0
    8.2809   -4.7491    0.0000 O   0  0  0  0  0  0  0  0  0  0  0  0
    9.2742   -3.0132    0.0000 O   0  0  0  0  0  0  0  0  0  0  0  0
    2.5333   -1.2559    0.0000 O   0  0  0  0  0  0  0  0  0  0  0  0
    4.2530   -4.3675    0.0000 O   0  0  0  0  0  0  0  0  0  0  0  0
    2.9151    0.1058    0.0000 O   0  0  0  0  0  0  0  0  0  0  0  0
    3.8950   -1.6377    0.0000 O   0  0  0  0  0  0  0  0  0  0  0  0
    3.2568   -3.3637    0.0000 O   0  0  0  0  0  0  0  0  0  0  0  0
    5.2568   -3.3714    0.0000 O   0  0  0  0  0  0  0  0  0  0  0  0
    9.6538   -0.3152    0.0000 C   0  0  3  0  0  0  0  0  0  0  0  0
    9.6538    0.6848    0.0000 C   0  0  3  0  0  0  0  0  0  0  0  0
    8.7878   -0.8152    0.0000 C   0  0  3  0  0  0  0  0  0  0  0  0
   10.6000    0.9895    0.0000 C   0  0  3  0  0  0  0  0  0  0  0  0
   10.6000   -0.6200    0.0000 C   0  0  0  0  0  0  0  0  0  0  0  0
    7.0117   -0.8221    0.0000 C   0  0  3  0  0  0  0  0  0  0  0  0
    7.9217   -0.3152    0.0000 C   0  0  0  0  0  0  0  0  0  0  0  0
   11.1836    0.1848    0.0000 C   0  0  0  0  0  0  0  0  0  0  0  0
    8.7878    1.1848    0.0000 C   0  0  0  0  0  0  0  0  0  0  0  0
    7.0037   -1.8637    0.0000 C   0  0  3  0  0  0  0  0  0  0  0  0
    8.8038   -1.8567    0.0000 C   0  0  0  0  0  0  0  0  0  0  0  0
   10.9107    1.9400    0.0000 C   0  0  3  0  0  0  0  0  0  0  0  0
    7.9058   -2.3845    0.0000 C   0  0  3  0  0  0  0  0  0  0  0  0
    9.6538   -1.3152    0.0000 C   0  0  0  0  0  0  0  0  0  0  0  0
   13.1783    3.3030    0.0000 C   0  0  3  0  0  0  0  0  0  0  0  0
    9.6538    1.6848    0.0000 C   0  0  0  0  0  0  0  0  0  0  0  0
    7.9217    0.6848    0.0000 C   0  0  0  0  0  0  0  0  0  0  0  0
    6.0849   -0.2580    0.0000 C   0  0  0  0  0  0  0  0  0  0  0  0
   11.8892    2.1462    0.0000 C   0  0  0  0  0  0  0  0  0  0  0  0
   13.3845    2.3245    0.0000 C   0  0  3  0  0  0  0  0  0  0  0  0
   12.1998    3.0968    0.0000 C   0  0  0  0  0  0  0  0  0  0  0  0
   14.1288    2.9923    0.0000 C   0  0  0  0  0  0  0  0  0  0  0  0
    6.0683   -2.4134    0.0000 C   0  0  0  0  0  0  0  0  0  0  0  0
    7.0194    0.1779    0.0000 C   0  0  0  0  0  0  0  0  0  0  0  0
    5.1370   -0.7859    0.0000 C   0  0  3  0  0  0  0  0  0  0  0  0
    5.1286   -1.8709    0.0000 C   0  0  3  0  0  0  0  0  0  0  0  0
   13.4890    4.2535    0.0000 C   0  0  0  0  0  0  0  0  0  0  0  0
   10.2428    2.6843    0.0000 C   0  0  0  0  0  0  0  0  0  0  0  0
   13.0739    1.3740    0.0000 C   0  0  0  0  0  0  0  0  0  0  0  0
   12.8211    4.9978    0.0000 C   0  0  0  0  0  0  0  0  0  0  0  0
   14.4675    4.4597    0.0000 C   0  0  0  0  0  0  0  0  0  0  0  0
    9.3271   -1.1211    0.0000 H   0  0  0  0  0  0  0  0  0  0  0  0
   11.2125    1.0857    0.0000 H   0  0  0  0  0  0  0  0  0  0  0  0
   10.3490   -1.1869    0.0000 H   0  0  0  0  0  0  0  0  0  0  0  0
   11.1374   -0.9292    0.0000 H   0  0  0  0  0  0  0  0  0  0  0  0
   11.6445   -0.2300    0.0000 H   0  0  0  0  0  0  0  0  0  0  0  0
   11.6445    0.5995    0.0000 H   0  0  0  0  0  0  0  0  0  0  0  0
    9.1863    1.6597    0.0000 H   0  0  0  0  0  0  0  0  0  0  0  0
    8.3892    1.6597    0.0000 H   0  0  0  0  0  0  0  0  0  0  0  0
    7.0061   -2.4837    0.0000 H   0  0  0  0  0  0  0  0  0  0  0  0
    9.0218   -2.4371    0.0000 H   0  0  0  0  0  0  0  0  0  0  0  0
    9.4130   -1.7412    0.0000 H   0  0  0  0  0  0  0  0  0  0  0  0
   10.3040    1.8122    0.0000 H   0  0  0  0  0  0  0  0  0  0  0  0
    8.4445   -2.6914    0.0000 H   0  0  0  0  0  0  0  0  0  0  0  0
    9.0338   -1.3152    0.0000 H   0  0  0  0  0  0  0  0  0  0  0  0
    9.6538   -1.9352    0.0000 H   0  0  0  0  0  0  0  0  0  0  0  0
   10.2738   -1.3152    0.0000 H   0  0  0  0  0  0  0  0  0  0  0  0
   10.2738    1.6848    0.0000 H   0  0  0  0  0  0  0  0  0  0  0  0
    9.6538    2.3048    0.0000 H   0  0  0  0  0  0  0  0  0  0  0  0
    9.0338    1.6848    0.0000 H   0  0  0  0  0  0  0  0  0  0  0  0
    7.3848    0.9948    0.0000 H   0  0  0  0  0  0  0  0  0  0  0  0
    6.4931    0.2087    0.0000 H   0  0  0  0  0  0  0  0  0  0  0  0
    5.6950    0.2240    0.0000 H   0  0  0  0  0  0  0  0  0  0  0  0
   11.9097    1.5266    0.0000 H   0  0  0  0  0  0  0  0  0  0  0  0
   12.5030    2.0589    0.0000 H   0  0  0  0  0  0  0  0  0  0  0  0
   12.7655    2.3580    0.0000 H   0  0  0  0  0  0  0  0  0  0  0  0
   12.1793    3.7164    0.0000 H   0  0  0  0  0  0  0  0  0  0  0  0
   11.5860    3.1841    0.0000 H   0  0  0  0  0  0  0  0  0  0  0  0
   14.6168    2.6098    0.0000 H   0  0  0  0  0  0  0  0  0  0  0  0
   14.4209    3.5392    0.0000 H   0  0  0  0  0  0  0  0  0  0  0  0
    5.6710   -2.8894    0.0000 H   0  0  0  0  0  0  0  0  0  0  0  0
    6.4692   -2.8863    0.0000 H   0  0  0  0  0  0  0  0  0  0  0  0
    7.6394    0.1731    0.0000 H   0  0  0  0  0  0  0  0  0  0  0  0
    7.0242    0.7979    0.0000 H   0  0  0  0  0  0  0  0  0  0  0  0
    6.3994    0.1827    0.0000 H   0  0  0  0  0  0  0  0  0  0  0  0
    5.1454   -0.1660    0.0000 H   0  0  0  0  0  0  0  0  0  0  0  0
    5.1274   -2.4909    0.0000 H   0  0  0  0  0  0  0  0  0  0  0  0
   13.6816    4.8428    0.0000 H   0  0  0  0  0  0  0  0  0  0  0  0
   10.7043    3.0984    0.0000 H   0  0  0  0  0  0  0  0  0  0  0  0
    9.8288    3.1458    0.0000 H   0  0  0  0  0  0  0  0  0  0  0  0
    9.7814    2.2703    0.0000 H   0  0  0  0  0  0  0  0  0  0  0  0
   12.4846    1.5666    0.0000 H   0  0  0  0  0  0  0  0  0  0  0  0
   12.8813    0.7846    0.0000 H   0  0  0  0  0  0  0  0  0  0  0  0
   13.6632    1.1813    0.0000 H   0  0  0  0  0  0  0  0  0  0  0  0
   13.2826    5.4119    0.0000 H   0  0  0  0  0  0  0  0  0  0  0  0
   14.5954    3.8530    0.0000 H   0  0  0  0  0  0  0  0  0  0  0  0
   15.0742    4.5876    0.0000 H   0  0  0  0  0  0  0  0  0  0  0  0
   14.3396    5.0664    0.0000 H   0  0  0  0  0  0  0  0  0  0  0  0
   12.4071    5.4593    0.0000 H   0  0  0  0  0  0  0  0  0  0  0  0
   12.3597    4.5837    0.0000 H   0  0  0  0  0  0  0  0  0  0  0  0
    9.6479   -4.9978    0.0000 H   0  0  0  0  0  0  0  0  0  0  0  0
    2.0000   -0.9397    0.0000 H   0  0  0  0  0  0  0  0  0  0  0  0
    3.7148   -4.6755    0.0000 H   0  0  0  0  0  0  0  0  0  0  0  0
  1  4  1  0  0  0  0
  1  7  1  0  0  0  0
  1  8  2  0  0  0  0
  1  9  2  0  0  0  0
  2  5  1  0  0  0  0
  2 10  1  0  0  0  0
  2 12  2  0  0  0  0
  2 13  2  0  0  0  0
  3  6  1  0  0  0  0
  3 11  1  0  0  0  0
  3 14  2  0  0  0  0
  3 15  2  0  0  0  0
  4 28  1  0  0  0  0
  5 40  1  0  0  0  0
  6 41  1  0  0  0  0
  7 96  1  0  0  0  0
 10 97  1  0  0  0  0
 11 98  1  0  0  0  0
 16 17  1  0  0  0  0
 16 18  1  0  0  0  0
 16 20  1  0  0  0  0
 16 29  1  0  0  0  0
 17 19  1  0  0  0  0
 17 24  1  0  0  0  0
 17 31  1  0  0  0  0
 18 22  1  0  0  0  0
 18 26  1  0  0  0  0
 18 47  1  0  0  0  0
 19 23  1  0  0  0  0
 19 27  1  0  0  0  0
 19 48  1  0  0  0  0
 20 23  1  0  0  0  0
 20 49  1  0  0  0  0
 20 50  1  0  0  0  0
 21 22  1  0  0  0  0
 21 25  1  0  0  0  0
 21 33  1  0  0  0  0
 21 39  1  0  0  0  0
 22 32  2  0  0  0  0
 23 51  1  0  0  0  0
 23 52  1  0  0  0  0
 24 32  1  0  0  0  0
 24 53  1  0  0  0  0
 24 54  1  0  0  0  0
 25 28  1  0  0  0  0
 25 38  1  0  0  0  0
 25 55  1  0  0  0  0
 26 28  1  0  0  0  0
 26 56  1  0  0  0  0
 26 57  1  0  0  0  0
 27 34  1  0  0  0  0
 27 43  1  0  0  0  0
 27 58  1  0  0  0  0
 28 59  1  0  0  0  0
 29 60  1  0  0  0  0
 29 61  1  0  0  0  0
 29 62  1  0  0  0  0
 30 35  1  0  0  0  0
 30 36  1  0  0  0  0
 30 37  1  0  0  0  0
 30 42  1  0  0  0  0
 31 63  1  0  0  0  0
 31 64  1  0  0  0  0
 31 65  1  0  0  0  0
 32 66  1  0  0  0  0
 33 40  1  0  0  0  0
 33 67  1  0  0  0  0
 33 68  1  0  0  0  0
 34 36  1  0  0  0  0
 34 69  1  0  0  0  0
 34 70  1  0  0  0  0
 35 37  1  0  0  0  0
 35 44  1  0  0  0  0
 35 71  1  0  0  0  0
 36 72  1  0  0  0  0
 36 73  1  0  0  0  0
 37 74  1  0  0  0  0
 37 75  1  0  0  0  0
 38 41  1  0  0  0  0
 38 76  1  0  0  0  0
 38 77  1  0  0  0  0
 39 78  1  0  0  0  0
 39 79  1  0  0  0  0
 39 80  1  0  0  0  0
 40 41  1  0  0  0  0
 40 81  1  0  0  0  0
 41 82  1  0  0  0  0
 42 45  1  0  0  0  0
 42 46  1  0  0  0  0
 42 83  1  0  0  0  0
 43 84  1  0  0  0  0
 43 85  1  0  0  0  0
 43 86  1  0  0  0  0
 44 87  1  0  0  0  0
 44 88  1  0  0  0  0
 44 89  1  0  0  0  0
 45 90  1  0  0  0  0
 45 94  1  0  0  0  0
 45 95  1  0  0  0  0
 46 91  1  0  0  0  0
 46 92  1  0  0  0  0
 46 93  1  0  0  0  0
M  END
> <PUBCHEM_COMPOUND_CID>
3670

> <PUBCHEM_COMPOUND_CANONICALIZED>
1

> <PUBCHEM_CACTVS_COMPLEXITY>
1540

> <PUBCHEM_CACTVS_HBOND_ACCEPTOR>
12

> <PUBCHEM_CACTVS_HBOND_DONOR>
3

> <PUBCHEM_CACTVS_ROTATABLE_BOND>
11

> <PUBCHEM_CACTVS_SUBSKEYS>
AAADcfB4PABgAAAAAAAAAAAAGAAAAYAAAAAwYIAAAAAAAEDAAAAAGgAACAAADxSggAICAAAAAICAAiBCADAAAAAgAAAACAAAAAgBAAIAAQAAAAAEgAAIAAPA4PQPgAAAAAAAAADAAAYAADCAAQAACAAAAA==

> <PUBCHEM_IUPAC_OPENEYE_NAME>
[17-[3-(1-isopropyl-2-methyl-cyclopropyl)-1-methyl-propyl]-10,13,14-trimethyl-2,3-disulfooxy-1,2,3,4,5,6,7,8,12,15,16,17-dodecahydrocyclopenta[a]phenanthren-6-yl] hydrogen sulfate

> <PUBCHEM_IUPAC_CAS_NAME>
sulfuric acid [10,13,14-trimethyl-17-[4-(2-methyl-1-propan-2-ylcyclopropyl)butan-2-yl]-2,3-disulfooxy-1,2,3,4,5,6,7,8,12,15,16,17-dodecahydrocyclopenta[a]phenanthren-6-yl] ester

> <PUBCHEM_IUPAC_NAME>
[10,13,14-trimethyl-17-[4-(2-methyl-1-propan-2-ylcyclopropyl)butan-2-yl]-2,3-disulfooxy-1,2,3,4,5,6,7,8,12,15,16,17-dodecahydrocyclopenta[a]phenanthren-6-yl] hydrogen sulfate

> <PUBCHEM_IUPAC_SYSTEMATIC_NAME>
[10,13,14-trimethyl-17-[4-(2-methyl-1-propan-2-yl-cyclopropyl)butan-2-yl]-2,3-disulfooxy-1,2,3,4,5,6,7,8,12,15,16,17-dodecahydrocyclopenta[a]phenanthren-6-yl] hydrogen sulfate

> <PUBCHEM_IUPAC_TRADITIONAL_NAME>
sulfuric acid [17-[3-(1-isopropyl-2-methyl-cyclopropyl)-1-methyl-propyl]-10,13,14-trimethyl-2,3-disulfoxy-1,2,3,4,5,6,7,8,12,15,16,17-dodecahydrocyclopenta[a]phenanthren-6-yl] ester

> <PUBCHEM_IUPAC_INCHI>
InChI=1S/C31H52O12S3/c1-18(2)31(16-20(31)4)13-8-19(3)21-9-11-30(7)23-14-25(41-44(32,33)34)24-15-26(42-45(35,36)37)27(43-46(38,39)40)17-28(24,5)22(23)10-12-29(21,30)6/h10,18-21,23-27H,8-9,11-17H2,1-7H3,(H,32,33,34)(H,35,36,37)(H,38,39,40)

> <PUBCHEM_IUPAC_INCHIKEY>
FWGYFSFKAJGECF-UHFFFAOYSA-N

> <PUBCHEM_XLOGP3_AA>
6

> <PUBCHEM_EXACT_MASS>
712.26209

> <PUBCHEM_MOLECULAR_FORMULA>
C31H52O12S3

> <PUBCHEM_MOLECULAR_WEIGHT>
712.93238

> <PUBCHEM_OPENEYE_CAN_SMILES>
CC1CC1(CCC(C)C2CCC3(C2(CC=C4C3CC(C5C4(CC(C(C5)OS(=O)(=O)O)OS(=O)(=O)O)C)OS(=O)(=O)O)C)C)C(C)C

> <PUBCHEM_OPENEYE_ISO_SMILES>
CC1CC1(CCC(C)C2CCC3(C2(CC=C4C3CC(C5C4(CC(C(C5)OS(=O)(=O)O)OS(=O)(=O)O)C)OS(=O)(=O)O)C)C)C(C)C

> <PUBCHEM_CACTVS_TPSA>
216

> <PUBCHEM_MONOISOTOPIC_WEIGHT>
712.26209

> <PUBCHEM_TOTAL_CHARGE>
0

> <PUBCHEM_HEAVY_ATOM_COUNT>
46

> <PUBCHEM_ATOM_DEF_STEREO_COUNT>
0

> <PUBCHEM_ATOM_UDEF_STEREO_COUNT>
12

> <PUBCHEM_BOND_DEF_STEREO_COUNT>
0

> <PUBCHEM_BOND_UDEF_STEREO_COUNT>
0

> <PUBCHEM_ISOTOPIC_ATOM_COUNT>
0

> <PUBCHEM_COMPONENT_COUNT>
1

> <PUBCHEM_CACTVS_TAUTO_COUNT>
1

> <PUBCHEM_COORDINATE_TYPE>
1
5
255

> <PUBCHEM_BONDANNOTATIONS>
16  29  3
17  31  3
18  26  3
19  23  3
21  39  3
25  38  3
27  43  3
30  36  3
35  44  3
28  4  3
40  5  3
41  6  3

$$$$

