11849
  -OEChem-06261206112D

 25 25  0     0  0  0  0  0  0999 V2000
    5.4641    2.2500    0.0000 O   0  5  0  0  0  0  0  0  0  0  0  0
    2.8660   -2.2500    0.0000 O   0  5  0  0  0  0  0  0  0  0  0  0
    3.7320    2.2500    0.0000 O   0  0  0  0  0  0  0  0  0  0  0  0
    2.0000   -0.7500    0.0000 O   0  0  0  0  0  0  0  0  0  0  0  0
    4.5981    1.7500    0.0000 N   0  3  0  0  0  0  0  0  0  0  0  0
    2.8660   -1.2500    0.0000 N   0  3  0  0  0  0  0  0  0  0  0  0
    3.7320    0.2500    0.0000 C   0  0  0  0  0  0  0  0  0  0  0  0
    4.5981    0.7500    0.0000 C   0  0  0  0  0  0  0  0  0  0  0  0
    3.7320   -0.7500    0.0000 C   0  0  0  0  0  0  0  0  0  0  0  0
    5.4641    0.2500    0.0000 C   0  0  0  0  0  0  0  0  0  0  0  0
    4.5981   -1.2500    0.0000 C   0  0  0  0  0  0  0  0  0  0  0  0
    5.4641   -0.7500    0.0000 C   0  0  0  0  0  0  0  0  0  0  0  0
    2.8660    0.7500    0.0000 C   0  0  0  0  0  0  0  0  0  0  0  0
    6.3301    0.7500    0.0000 C   0  0  0  0  0  0  0  0  0  0  0  0
    4.5981   -2.2500    0.0000 C   0  0  0  0  0  0  0  0  0  0  0  0
    6.0010   -1.0600    0.0000 H   0  0  0  0  0  0  0  0  0  0  0  0
    3.1760    1.2869    0.0000 H   0  0  0  0  0  0  0  0  0  0  0  0
    2.3291    1.0600    0.0000 H   0  0  0  0  0  0  0  0  0  0  0  0
    2.5560    0.2131    0.0000 H   0  0  0  0  0  0  0  0  0  0  0  0
    6.6401    0.2131    0.0000 H   0  0  0  0  0  0  0  0  0  0  0  0
    6.8671    1.0600    0.0000 H   0  0  0  0  0  0  0  0  0  0  0  0
    6.0201    1.2869    0.0000 H   0  0  0  0  0  0  0  0  0  0  0  0
    3.9781   -2.2500    0.0000 H   0  0  0  0  0  0  0  0  0  0  0  0
    4.5981   -2.8700    0.0000 H   0  0  0  0  0  0  0  0  0  0  0  0
    5.2181   -2.2500    0.0000 H   0  0  0  0  0  0  0  0  0  0  0  0
  1  5  1  0  0  0  0
  2  6  1  0  0  0  0
  3  5  2  0  0  0  0
  4  6  2  0  0  0  0
  5  8  1  0  0  0  0
  6  9  1  0  0  0  0
  7  8  2  0  0  0  0
  7  9  1  0  0  0  0
  7 13  1  0  0  0  0
  8 10  1  0  0  0  0
  9 11  2  0  0  0  0
 10 12  2  0  0  0  0
 10 14  1  0  0  0  0
 11 12  1  0  0  0  0
 11 15  1  0  0  0  0
 12 16  1  0  0  0  0
 13 17  1  0  0  0  0
 13 18  1  0  0  0  0
 13 19  1  0  0  0  0
 14 20  1  0  0  0  0
 14 21  1  0  0  0  0
 14 22  1  0  0  0  0
 15 23  1  0  0  0  0
 15 24  1  0  0  0  0
 15 25  1  0  0  0  0
M  CHG  4   1  -1   2  -1   5   1   6   1
M  END
> <PUBCHEM_COMPOUND_CID>
11849

> <PUBCHEM_COMPOUND_CANONICALIZED>
1

> <PUBCHEM_CACTVS_COMPLEXITY>
244

> <PUBCHEM_CACTVS_HBOND_ACCEPTOR>
4

> <PUBCHEM_CACTVS_HBOND_DONOR>
0

> <PUBCHEM_CACTVS_ROTATABLE_BOND>
0

> <PUBCHEM_CACTVS_SUBSKEYS>
AAADccBzOAAAAAAAAAAAAAAAAAAAAAAAAAAwAAAAAAAAAAABAAAAHAAEAAAADAiBGAAywIAQQACBAiRCQwCCAAAgAAAgiAAARIoIICKA0dGAIABggAAIyAcQgEAOCAACAAQCAAAQAAQACAQAAAAAAAAAAA==

> <PUBCHEM_IUPAC_OPENEYE_NAME>
1,3,5-trimethyl-2,4-dinitro-benzene

> <PUBCHEM_IUPAC_CAS_NAME>
1,3,5-trimethyl-2,4-dinitrobenzene

> <PUBCHEM_IUPAC_NAME>
1,3,5-trimethyl-2,4-dinitrobenzene

> <PUBCHEM_IUPAC_SYSTEMATIC_NAME>
1,3,5-trimethyl-2,4-dinitro-benzene

> <PUBCHEM_IUPAC_TRADITIONAL_NAME>
1,3,5-trimethyl-2,4-dinitro-benzene

> <PUBCHEM_IUPAC_INCHI>
InChI=1S/C9H10N2O4/c1-5-4-6(2)9(11(14)15)7(3)8(5)10(12)13/h4H,1-3H3

> <PUBCHEM_IUPAC_INCHIKEY>
OFMLQCPPVSVIDD-UHFFFAOYSA-N

> <PUBCHEM_XLOGP3_AA>
2.7

> <PUBCHEM_EXACT_MASS>
210.064057

> <PUBCHEM_MOLECULAR_FORMULA>
C9H10N2O4

> <PUBCHEM_MOLECULAR_WEIGHT>
210.1867

> <PUBCHEM_OPENEYE_CAN_SMILES>
CC1=CC(=C(C(=C1[N+](=O)[O-])C)[N+](=O)[O-])C

> <PUBCHEM_OPENEYE_ISO_SMILES>
CC1=CC(=C(C(=C1[N+](=O)[O-])C)[N+](=O)[O-])C

> <PUBCHEM_CACTVS_TPSA>
91.6

> <PUBCHEM_MONOISOTOPIC_WEIGHT>
210.064057

> <PUBCHEM_TOTAL_CHARGE>
0

> <PUBCHEM_HEAVY_ATOM_COUNT>
15

> <PUBCHEM_ATOM_DEF_STEREO_COUNT>
0

> <PUBCHEM_ATOM_UDEF_STEREO_COUNT>
0

> <PUBCHEM_BOND_DEF_STEREO_COUNT>
0

> <PUBCHEM_BOND_UDEF_STEREO_COUNT>
0

> <PUBCHEM_ISOTOPIC_ATOM_COUNT>
0

> <PUBCHEM_COMPONENT_COUNT>
1

> <PUBCHEM_CACTVS_TAUTO_COUNT>
1

> <PUBCHEM_COORDINATE_TYPE>
1
5
255

> <PUBCHEM_BONDANNOTATIONS>
10  12  8
11  12  8
7  8  8
7  9  8
8  10  8
9  11  8

$$$$

