17395750
  -OEChem-06241222522D

 39 40  0     1  0  0  0  0  0999 V2000
    3.7320   -4.6739    0.0000 Br  0  0  0  0  0  0  0  0  0  0  0  0
    3.7320    1.3261    0.0000 O   0  0  0  0  0  0  0  0  0  0  0  0
    4.9641    3.8649    0.0000 O   0  0  0  0  0  0  0  0  0  0  0  0
    3.7320   -0.6739    0.0000 N   0  0  0  0  0  0  0  0  0  0  0  0
    5.4641    1.3261    0.0000 N   0  0  0  0  0  0  0  0  0  0  0  0
    4.6551    2.9139    0.0000 N   0  0  0  0  0  0  0  0  0  0  0  0
    4.5981   -0.1739    0.0000 C   0  0  3  0  0  0  0  0  0  0  0  0
    5.4641   -0.6739    0.0000 C   0  0  0  0  0  0  0  0  0  0  0  0
    3.7320   -1.6739    0.0000 C   0  0  0  0  0  0  0  0  0  0  0  0
    4.5981    0.8261    0.0000 C   0  0  0  0  0  0  0  0  0  0  0  0
    6.3301   -0.1739    0.0000 C   0  0  0  0  0  0  0  0  0  0  0  0
    2.8660   -2.1739    0.0000 C   0  0  0  0  0  0  0  0  0  0  0  0
    4.5981   -2.1739    0.0000 C   0  0  0  0  0  0  0  0  0  0  0  0
    2.8660   -3.1739    0.0000 C   0  0  0  0  0  0  0  0  0  0  0  0
    2.0000   -1.6739    0.0000 C   0  0  0  0  0  0  0  0  0  0  0  0
    5.4641    2.3261    0.0000 C   0  0  0  0  0  0  0  0  0  0  0  0
    4.5981   -3.1739    0.0000 C   0  0  0  0  0  0  0  0  0  0  0  0
    3.7320   -3.6739    0.0000 C   0  0  0  0  0  0  0  0  0  0  0  0
    6.2731    2.9139    0.0000 C   0  0  0  0  0  0  0  0  0  0  0  0
    5.9641    3.8649    0.0000 C   0  0  0  0  0  0  0  0  0  0  0  0
    6.5519    4.6739    0.0000 C   0  0  0  0  0  0  0  0  0  0  0  0
    4.5981   -0.7939    0.0000 H   0  0  0  0  0  0  0  0  0  0  0  0
    5.0656   -1.1489    0.0000 H   0  0  0  0  0  0  0  0  0  0  0  0
    5.8626   -1.1489    0.0000 H   0  0  0  0  0  0  0  0  0  0  0  0
    3.1951   -0.3639    0.0000 H   0  0  0  0  0  0  0  0  0  0  0  0
    6.6401   -0.7109    0.0000 H   0  0  0  0  0  0  0  0  0  0  0  0
    6.8671    0.1361    0.0000 H   0  0  0  0  0  0  0  0  0  0  0  0
    6.0201    0.3630    0.0000 H   0  0  0  0  0  0  0  0  0  0  0  0
    5.1350   -1.8639    0.0000 H   0  0  0  0  0  0  0  0  0  0  0  0
    6.0010    1.0161    0.0000 H   0  0  0  0  0  0  0  0  0  0  0  0
    2.3291   -3.4839    0.0000 H   0  0  0  0  0  0  0  0  0  0  0  0
    2.3100   -1.1370    0.0000 H   0  0  0  0  0  0  0  0  0  0  0  0
    1.4631   -1.3639    0.0000 H   0  0  0  0  0  0  0  0  0  0  0  0
    1.6900   -2.2109    0.0000 H   0  0  0  0  0  0  0  0  0  0  0  0
    5.1350   -3.4839    0.0000 H   0  0  0  0  0  0  0  0  0  0  0  0
    6.8628    2.7223    0.0000 H   0  0  0  0  0  0  0  0  0  0  0  0
    7.0535    4.3095    0.0000 H   0  0  0  0  0  0  0  0  0  0  0  0
    6.9163    5.1755    0.0000 H   0  0  0  0  0  0  0  0  0  0  0  0
    6.0503    5.0384    0.0000 H   0  0  0  0  0  0  0  0  0  0  0  0
  1 18  1  0  0  0  0
  2 10  2  0  0  0  0
  3  6  1  0  0  0  0
  3 20  1  0  0  0  0
  4  7  1  0  0  0  0
  4  9  1  0  0  0  0
  4 25  1  0  0  0  0
  5 10  1  0  0  0  0
  5 16  1  0  0  0  0
  5 30  1  0  0  0  0
  6 16  2  0  0  0  0
  7  8  1  0  0  0  0
  7 10  1  0  0  0  0
  7 22  1  0  0  0  0
  8 11  1  0  0  0  0
  8 23  1  0  0  0  0
  8 24  1  0  0  0  0
  9 12  2  0  0  0  0
  9 13  1  0  0  0  0
 11 26  1  0  0  0  0
 11 27  1  0  0  0  0
 11 28  1  0  0  0  0
 12 14  1  0  0  0  0
 12 15  1  0  0  0  0
 13 17  2  0  0  0  0
 13 29  1  0  0  0  0
 14 18  2  0  0  0  0
 14 31  1  0  0  0  0
 15 32  1  0  0  0  0
 15 33  1  0  0  0  0
 15 34  1  0  0  0  0
 16 19  1  0  0  0  0
 17 18  1  0  0  0  0
 17 35  1  0  0  0  0
 19 20  2  0  0  0  0
 19 36  1  0  0  0  0
 20 21  1  0  0  0  0
 21 37  1  0  0  0  0
 21 38  1  0  0  0  0
 21 39  1  0  0  0  0
M  END
> <PUBCHEM_COMPOUND_CID>
17395750

> <PUBCHEM_COMPOUND_CANONICALIZED>
1

> <PUBCHEM_CACTVS_COMPLEXITY>
356

> <PUBCHEM_CACTVS_HBOND_ACCEPTOR>
4

> <PUBCHEM_CACTVS_HBOND_DONOR>
2

> <PUBCHEM_CACTVS_ROTATABLE_BOND>
5

> <PUBCHEM_CACTVS_SUBSKEYS>
AAADceBzMAAAEAAAAAAAAAAAAAAAAWAAAAAwAAAAAAAAAAABwAAAHgBUAAABrCzBmgQz9JLQAACpAqdycgCCAAAlIgQpmKG+bPqIZDrAmbGUIIhilQrIylcQgAAOAAAgEAACAAAAAEAgAAQAAAAAAAAAAA==

> <PUBCHEM_IUPAC_OPENEYE_NAME>
2-(4-bromo-2-methyl-anilino)-N-(5-methylisoxazol-3-yl)butanamide

> <PUBCHEM_IUPAC_CAS_NAME>
2-(4-bromo-2-methylanilino)-N-(5-methyl-3-isoxazolyl)butanamide

> <PUBCHEM_IUPAC_NAME>
2-(4-bromo-2-methylanilino)-N-(5-methyl-1,2-oxazol-3-yl)butanamide

> <PUBCHEM_IUPAC_SYSTEMATIC_NAME>
2-[(4-bromanyl-2-methyl-phenyl)amino]-N-(5-methyl-1,2-oxazol-3-yl)butanamide

> <PUBCHEM_IUPAC_TRADITIONAL_NAME>
2-(4-bromo-2-methyl-anilino)-N-(5-methylisoxazol-3-yl)butyramide

> <PUBCHEM_IUPAC_INCHI>
InChI=1S/C15H18BrN3O2/c1-4-12(15(20)18-14-8-10(3)21-19-14)17-13-6-5-11(16)7-9(13)2/h5-8,12,17H,4H2,1-3H3,(H,18,19,20)

> <PUBCHEM_IUPAC_INCHIKEY>
VIFRNXJYRGPLSQ-UHFFFAOYSA-N

> <PUBCHEM_XLOGP3_AA>
4

> <PUBCHEM_EXACT_MASS>
351.058239

> <PUBCHEM_MOLECULAR_FORMULA>
C15H18BrN3O2

> <PUBCHEM_MOLECULAR_WEIGHT>
352.22632

> <PUBCHEM_OPENEYE_CAN_SMILES>
CCC(C(=O)NC1=NOC(=C1)C)NC2=C(C=C(C=C2)Br)C

> <PUBCHEM_OPENEYE_ISO_SMILES>
CCC(C(=O)NC1=NOC(=C1)C)NC2=C(C=C(C=C2)Br)C

> <PUBCHEM_CACTVS_TPSA>
67.2

> <PUBCHEM_MONOISOTOPIC_WEIGHT>
351.058239

> <PUBCHEM_TOTAL_CHARGE>
0

> <PUBCHEM_HEAVY_ATOM_COUNT>
21

> <PUBCHEM_ATOM_DEF_STEREO_COUNT>
0

> <PUBCHEM_ATOM_UDEF_STEREO_COUNT>
1

> <PUBCHEM_BOND_DEF_STEREO_COUNT>
0

> <PUBCHEM_BOND_UDEF_STEREO_COUNT>
0

> <PUBCHEM_ISOTOPIC_ATOM_COUNT>
0

> <PUBCHEM_COMPONENT_COUNT>
1

> <PUBCHEM_CACTVS_TAUTO_COUNT>
14

> <PUBCHEM_COORDINATE_TYPE>
1
5
255

> <PUBCHEM_BONDANNOTATIONS>
12  14  8
13  17  8
14  18  8
16  19  8
17  18  8
19  20  8
3  20  8
3  6  8
6  16  8
7  8  3
9  12  8
9  13  8

$$$$

