12872
  -OEChem-06261207282D

 24 24  0     0  0  0  0  0  0999 V2000
    9.3034   -0.9734    0.0000 O   0  0  0  0  0  0  0  0  0  0  0  0
   11.8066   -0.0255    0.0000 O   0  5  0  0  0  0  0  0  0  0  0  0
   11.2714   -1.6728    0.0000 O   0  0  0  0  0  0  0  0  0  0  0  0
    3.6197    1.6728    0.0000 O   0  0  0  0  0  0  0  0  0  0  0  0
   11.0635   -0.6947    0.0000 N   0  3  0  0  0  0  0  0  0  0  0  0
    5.1060    0.3346    0.0000 N   0  0  0  0  0  0  0  0  0  0  0  0
    4.1550    0.0255    0.0000 N   0  0  0  0  0  0  0  0  0  0  0  0
    2.4608    0.3857    0.0000 N   0  0  0  0  0  0  0  0  0  0  0  0
    8.4944   -0.3857    0.0000 C   0  0  0  0  0  0  0  0  0  0  0  0
    8.8034    0.5654    0.0000 C   0  0  0  0  0  0  0  0  0  0  0  0
   10.1124   -0.3857    0.0000 C   0  0  0  0  0  0  0  0  0  0  0  0
    9.8034    0.5654    0.0000 C   0  0  0  0  0  0  0  0  0  0  0  0
    7.5434   -0.6947    0.0000 C   0  0  0  0  0  0  0  0  0  0  0  0
    6.8002   -0.0255    0.0000 C   0  0  0  0  0  0  0  0  0  0  0  0
    5.8492   -0.3346    0.0000 C   0  0  0  0  0  0  0  0  0  0  0  0
    3.4118    0.6947    0.0000 C   0  0  0  0  0  0  0  0  0  0  0  0
    8.4390    1.0670    0.0000 H   0  0  0  0  0  0  0  0  0  0  0  0
   10.1679    1.0670    0.0000 H   0  0  0  0  0  0  0  0  0  0  0  0
    7.4144   -1.3011    0.0000 H   0  0  0  0  0  0  0  0  0  0  0  0
    6.9291    0.5809    0.0000 H   0  0  0  0  0  0  0  0  0  0  0  0
    5.7202   -0.9410    0.0000 H   0  0  0  0  0  0  0  0  0  0  0  0
    4.0260   -0.5809    0.0000 H   0  0  0  0  0  0  0  0  0  0  0  0
    2.0000    0.8005    0.0000 H   0  0  0  0  0  0  0  0  0  0  0  0
    2.3318   -0.2208    0.0000 H   0  0  0  0  0  0  0  0  0  0  0  0
  1  9  1  0  0  0  0
  1 11  1  0  0  0  0
  2  5  1  0  0  0  0
  3  5  2  0  0  0  0
  4 16  2  0  0  0  0
  5 11  1  0  0  0  0
  6  7  1  0  0  0  0
  6 15  2  3  0  0  0
  7 16  1  0  0  0  0
  7 22  1  0  0  0  0
  8 16  1  0  0  0  0
  8 23  1  0  0  0  0
  8 24  1  0  0  0  0
  9 10  2  0  0  0  0
  9 13  1  0  0  0  0
 10 12  1  0  0  0  0
 10 17  1  0  0  0  0
 11 12  2  0  0  0  0
 12 18  1  0  0  0  0
 13 14  2  3  0  0  0
 13 19  1  0  0  0  0
 14 15  1  0  0  0  0
 14 20  1  0  0  0  0
 15 21  1  0  0  0  0
M  CHG  2   2  -1   5   1
M  END
> <PUBCHEM_COMPOUND_CID>
12872

> <PUBCHEM_COMPOUND_CANONICALIZED>
1

> <PUBCHEM_CACTVS_COMPLEXITY>
323

> <PUBCHEM_CACTVS_HBOND_ACCEPTOR>
5

> <PUBCHEM_CACTVS_HBOND_DONOR>
2

> <PUBCHEM_CACTVS_ROTATABLE_BOND>
3

> <PUBCHEM_CACTVS_SUBSKEYS>
AAADccBzuAAAAAAAAAAAAAAAAAAAASAAAAAAAAAAAAAAAAABgAAAHgAcAAAACATBkAQxhIByRECpALFzUwCSCAAsIgAuiAEWbNoMJjKEtZuKGSD0yBEI6Ya8AAAAAAAAAAAAAAAAAAAAAAAAAAAAAAAAAA==

> <PUBCHEM_IUPAC_OPENEYE_NAME>
[3-(5-nitro-2-furyl)prop-2-enylideneamino]urea

> <PUBCHEM_IUPAC_CAS_NAME>
[3-(5-nitro-2-furanyl)prop-2-enylideneamino]urea

> <PUBCHEM_IUPAC_NAME>
[3-(5-nitrofuran-2-yl)prop-2-enylideneamino]urea

> <PUBCHEM_IUPAC_SYSTEMATIC_NAME>
1-[3-(5-nitrofuran-2-yl)prop-2-enylideneamino]urea

> <PUBCHEM_IUPAC_TRADITIONAL_NAME>
[3-(5-nitro-2-furyl)prop-2-enylideneamino]urea

> <PUBCHEM_IUPAC_INCHI>
InChI=1S/C8H8N4O4/c9-8(13)11-10-5-1-2-6-3-4-7(16-6)12(14)15/h1-5H,(H3,9,11,13)

> <PUBCHEM_IUPAC_INCHIKEY>
HYPUCPMYDLRLLS-UHFFFAOYSA-N

> <PUBCHEM_XLOGP3>
0.2

> <PUBCHEM_EXACT_MASS>
224.054555

> <PUBCHEM_MOLECULAR_FORMULA>
C8H8N4O4

> <PUBCHEM_MOLECULAR_WEIGHT>
224.17352

> <PUBCHEM_OPENEYE_CAN_SMILES>
C1=C(OC(=C1)[N+](=O)[O-])C=CC=NNC(=O)N

> <PUBCHEM_OPENEYE_ISO_SMILES>
C1=C(OC(=C1)[N+](=O)[O-])C=CC=NNC(=O)N

> <PUBCHEM_CACTVS_TPSA>
126

> <PUBCHEM_MONOISOTOPIC_WEIGHT>
224.054555

> <PUBCHEM_TOTAL_CHARGE>
0

> <PUBCHEM_HEAVY_ATOM_COUNT>
16

> <PUBCHEM_ATOM_DEF_STEREO_COUNT>
0

> <PUBCHEM_ATOM_UDEF_STEREO_COUNT>
0

> <PUBCHEM_BOND_DEF_STEREO_COUNT>
0

> <PUBCHEM_BOND_UDEF_STEREO_COUNT>
2

> <PUBCHEM_ISOTOPIC_ATOM_COUNT>
0

> <PUBCHEM_COMPONENT_COUNT>
1

> <PUBCHEM_CACTVS_TAUTO_COUNT>
5

> <PUBCHEM_COORDINATE_TYPE>
1
5
255

> <PUBCHEM_BONDANNOTATIONS>
1  11  8
1  9  8
10  12  8
11  12  8
13  14  1
6  15  1
9  10  8

$$$$

