17395676
  -OEChem-06241222512D

 56 59  0     0  0  0  0  0  0999 V2000
    4.6783    2.7361    0.0000 S   0  0  0  0  0  0  0  0  0  0  0  0
    7.7619   -2.3987    0.0000 O   0  0  0  0  0  0  0  0  0  0  0  0
   12.5233   -0.8517    0.0000 O   0  0  0  0  0  0  0  0  0  0  0  0
   11.5052    0.5496    0.0000 O   0  0  0  0  0  0  0  0  0  0  0  0
    6.7619    1.0654    0.0000 N   0  0  0  0  0  0  0  0  0  0  0  0
    7.7619   -0.6667    0.0000 N   0  0  0  0  0  0  0  0  0  0  0  0
    9.8497   -2.3417    0.0000 N   0  0  0  0  0  0  0  0  0  0  0  0
    4.6783    1.1266    0.0000 N   0  0  0  0  0  0  0  0  0  0  0  0
    6.2619    0.1993    0.0000 C   0  0  0  0  0  0  0  0  0  0  0  0
    7.7619    1.0654    0.0000 C   0  0  0  0  0  0  0  0  0  0  0  0
    6.7619   -0.6667    0.0000 C   0  0  0  0  0  0  0  0  0  0  0  0
    8.2619    0.1993    0.0000 C   0  0  0  0  0  0  0  0  0  0  0  0
    6.2619    1.9314    0.0000 C   0  0  0  0  0  0  0  0  0  0  0  0
    8.2619   -1.5327    0.0000 C   0  0  0  0  0  0  0  0  0  0  0  0
    9.2619   -1.5327    0.0000 C   0  0  0  0  0  0  0  0  0  0  0  0
    5.2619    1.9314    0.0000 C   0  0  0  0  0  0  0  0  0  0  0  0
    9.8497   -0.7237    0.0000 C   0  0  0  0  0  0  0  0  0  0  0  0
   10.8007   -1.0327    0.0000 C   0  0  0  0  0  0  0  0  0  0  0  0
   10.8007   -2.0327    0.0000 C   0  0  0  0  0  0  0  0  0  0  0  0
    9.5406    0.2274    0.0000 C   0  0  0  0  0  0  0  0  0  0  0  0
    3.7320    2.4314    0.0000 C   0  0  0  0  0  0  0  0  0  0  0  0
    3.7320    1.4314    0.0000 C   0  0  0  0  0  0  0  0  0  0  0  0
   11.6097   -2.6205    0.0000 C   0  0  0  0  0  0  0  0  0  0  0  0
   11.6097   -0.4449    0.0000 C   0  0  0  0  0  0  0  0  0  0  0  0
    2.8660    2.9314    0.0000 C   0  0  0  0  0  0  0  0  0  0  0  0
    2.8660    0.9314    0.0000 C   0  0  0  0  0  0  0  0  0  0  0  0
    2.0000    2.4314    0.0000 C   0  0  0  0  0  0  0  0  0  0  0  0
    2.0000    1.4314    0.0000 C   0  0  0  0  0  0  0  0  0  0  0  0
   13.3323   -0.2639    0.0000 C   0  0  0  0  0  0  0  0  0  0  0  0
   14.2458   -0.6706    0.0000 C   0  0  0  0  0  0  0  0  0  0  0  0
    8.3445    1.2774    0.0000 H   0  0  0  0  0  0  0  0  0  0  0  0
    7.6542    1.6759    0.0000 H   0  0  0  0  0  0  0  0  0  0  0  0
    5.7869    0.5979    0.0000 H   0  0  0  0  0  0  0  0  0  0  0  0
    5.7869   -0.1992    0.0000 H   0  0  0  0  0  0  0  0  0  0  0  0
    8.7368   -0.1992    0.0000 H   0  0  0  0  0  0  0  0  0  0  0  0
    8.7368    0.5979    0.0000 H   0  0  0  0  0  0  0  0  0  0  0  0
    6.1793   -0.8787    0.0000 H   0  0  0  0  0  0  0  0  0  0  0  0
    6.8695   -1.2773    0.0000 H   0  0  0  0  0  0  0  0  0  0  0  0
    6.8445    2.1434    0.0000 H   0  0  0  0  0  0  0  0  0  0  0  0
    6.1542    2.5420    0.0000 H   0  0  0  0  0  0  0  0  0  0  0  0
    9.6581   -2.9314    0.0000 H   0  0  0  0  0  0  0  0  0  0  0  0
   10.1303    0.4189    0.0000 H   0  0  0  0  0  0  0  0  0  0  0  0
    9.3491    0.8170    0.0000 H   0  0  0  0  0  0  0  0  0  0  0  0
    8.9510    0.0358    0.0000 H   0  0  0  0  0  0  0  0  0  0  0  0
   11.2453   -3.1221    0.0000 H   0  0  0  0  0  0  0  0  0  0  0  0
   12.1113   -2.9849    0.0000 H   0  0  0  0  0  0  0  0  0  0  0  0
   11.9742   -2.1189    0.0000 H   0  0  0  0  0  0  0  0  0  0  0  0
    2.8660    3.5514    0.0000 H   0  0  0  0  0  0  0  0  0  0  0  0
    2.8660    0.3114    0.0000 H   0  0  0  0  0  0  0  0  0  0  0  0
    1.4631    2.7414    0.0000 H   0  0  0  0  0  0  0  0  0  0  0  0
    1.4631    1.1214    0.0000 H   0  0  0  0  0  0  0  0  0  0  0  0
   13.6790    0.2501    0.0000 H   0  0  0  0  0  0  0  0  0  0  0  0
   12.8863    0.1668    0.0000 H   0  0  0  0  0  0  0  0  0  0  0  0
   13.9937   -1.2370    0.0000 H   0  0  0  0  0  0  0  0  0  0  0  0
   14.8122   -0.9228    0.0000 H   0  0  0  0  0  0  0  0  0  0  0  0
   14.4980   -0.1042    0.0000 H   0  0  0  0  0  0  0  0  0  0  0  0
  1 16  1  0  0  0  0
  1 21  1  0  0  0  0
  2 14  2  0  0  0  0
  3 24  1  0  0  0  0
  3 29  1  0  0  0  0
  4 24  2  0  0  0  0
  5  9  1  0  0  0  0
  5 10  1  0  0  0  0
  5 13  1  0  0  0  0
  6 11  1  0  0  0  0
  6 12  1  0  0  0  0
  6 14  1  0  0  0  0
  7 15  1  0  0  0  0
  7 19  1  0  0  0  0
  7 41  1  0  0  0  0
  8 16  2  0  0  0  0
  8 22  1  0  0  0  0
  9 11  1  0  0  0  0
  9 33  1  0  0  0  0
  9 34  1  0  0  0  0
 10 12  1  0  0  0  0
 10 31  1  0  0  0  0
 10 32  1  0  0  0  0
 11 37  1  0  0  0  0
 11 38  1  0  0  0  0
 12 35  1  0  0  0  0
 12 36  1  0  0  0  0
 13 16  1  0  0  0  0
 13 39  1  0  0  0  0
 13 40  1  0  0  0  0
 14 15  1  0  0  0  0
 15 17  2  0  0  0  0
 17 18  1  0  0  0  0
 17 20  1  0  0  0  0
 18 19  2  0  0  0  0
 18 24  1  0  0  0  0
 19 23  1  0  0  0  0
 20 42  1  0  0  0  0
 20 43  1  0  0  0  0
 20 44  1  0  0  0  0
 21 22  1  0  0  0  0
 21 25  2  0  0  0  0
 22 26  2  0  0  0  0
 23 45  1  0  0  0  0
 23 46  1  0  0  0  0
 23 47  1  0  0  0  0
 25 27  1  0  0  0  0
 25 48  1  0  0  0  0
 26 28  1  0  0  0  0
 26 49  1  0  0  0  0
 27 28  2  0  0  0  0
 27 50  1  0  0  0  0
 28 51  1  0  0  0  0
 29 30  1  0  0  0  0
 29 52  1  0  0  0  0
 29 53  1  0  0  0  0
 30 54  1  0  0  0  0
 30 55  1  0  0  0  0
 30 56  1  0  0  0  0
M  END
> <PUBCHEM_COMPOUND_CID>
17395676

> <PUBCHEM_COMPOUND_CANONICALIZED>
1

> <PUBCHEM_CACTVS_COMPLEXITY>
628

> <PUBCHEM_CACTVS_HBOND_ACCEPTOR>
6

> <PUBCHEM_CACTVS_HBOND_DONOR>
1

> <PUBCHEM_CACTVS_ROTATABLE_BOND>
6

> <PUBCHEM_CACTVS_SUBSKEYS>
AAADceB7sABAAAAAAAAAAAAAAAAAAWLAAAA8QAAAAAAAAFgB/AAAHgQQAAAADAjh3gYyybPJlAisAyXyXACD8KBnCjhImT24bNgIZvrgtbmWMYhm1gHo6Ue8HwIegAAAAAAAAQAAAAAAAAACAAAAAAAAAA==

> <PUBCHEM_IUPAC_OPENEYE_NAME>
ethyl 5-[4-(1,3-benzothiazol-2-ylmethyl)piperazine-1-carbonyl]-2,4-dimethyl-1H-pyrrole-3-carboxylate

> <PUBCHEM_IUPAC_CAS_NAME>
5-[[4-(1,3-benzothiazol-2-ylmethyl)-1-piperazinyl]-oxomethyl]-2,4-dimethyl-1H-pyrrole-3-carboxylic acid ethyl ester

> <PUBCHEM_IUPAC_NAME>
ethyl 5-[4-(1,3-benzothiazol-2-ylmethyl)piperazine-1-carbonyl]-2,4-dimethyl-1H-pyrrole-3-carboxylate

> <PUBCHEM_IUPAC_SYSTEMATIC_NAME>
ethyl 5-[4-(1,3-benzothiazol-2-ylmethyl)piperazin-1-yl]carbonyl-2,4-dimethyl-1H-pyrrole-3-carboxylate

> <PUBCHEM_IUPAC_TRADITIONAL_NAME>
5-[4-(1,3-benzothiazol-2-ylmethyl)piperazine-1-carbonyl]-2,4-dimethyl-1H-pyrrole-3-carboxylic acid ethyl ester

> <PUBCHEM_IUPAC_INCHI>
InChI=1S/C22H26N4O3S/c1-4-29-22(28)19-14(2)20(23-15(19)3)21(27)26-11-9-25(10-12-26)13-18-24-16-7-5-6-8-17(16)30-18/h5-8,23H,4,9-13H2,1-3H3

> <PUBCHEM_IUPAC_INCHIKEY>
KKRMRSQOXUQJAK-UHFFFAOYSA-N

> <PUBCHEM_XLOGP3_AA>
3.3

> <PUBCHEM_EXACT_MASS>
426.172562

> <PUBCHEM_MOLECULAR_FORMULA>
C22H26N4O3S

> <PUBCHEM_MOLECULAR_WEIGHT>
426.53184

> <PUBCHEM_OPENEYE_CAN_SMILES>
CCOC(=O)C1=C(NC(=C1C)C(=O)N2CCN(CC2)CC3=NC4=CC=CC=C4S3)C

> <PUBCHEM_OPENEYE_ISO_SMILES>
CCOC(=O)C1=C(NC(=C1C)C(=O)N2CCN(CC2)CC3=NC4=CC=CC=C4S3)C

> <PUBCHEM_CACTVS_TPSA>
107

> <PUBCHEM_MONOISOTOPIC_WEIGHT>
426.172562

> <PUBCHEM_TOTAL_CHARGE>
0

> <PUBCHEM_HEAVY_ATOM_COUNT>
30

> <PUBCHEM_ATOM_DEF_STEREO_COUNT>
0

> <PUBCHEM_ATOM_UDEF_STEREO_COUNT>
0

> <PUBCHEM_BOND_DEF_STEREO_COUNT>
0

> <PUBCHEM_BOND_UDEF_STEREO_COUNT>
0

> <PUBCHEM_ISOTOPIC_ATOM_COUNT>
0

> <PUBCHEM_COMPONENT_COUNT>
1

> <PUBCHEM_CACTVS_TAUTO_COUNT>
10

> <PUBCHEM_COORDINATE_TYPE>
1
5
255

> <PUBCHEM_BONDANNOTATIONS>
1  16  8
1  21  8
15  17  8
17  18  8
18  19  8
21  22  8
21  25  8
22  26  8
25  27  8
26  28  8
27  28  8
7  15  8
7  19  8
8  16  8
8  22  8

$$$$

