10096
  -OEChem-06261204183D

 68 70  0     1  0  0  0  0  0999 V2000
   -5.6238   -2.8714    0.6632 O   0  0  0  0  0  0  0  0  0  0  0  0
   -0.8228    2.4117    1.4928 O   0  0  0  0  0  0  0  0  0  0  0  0
    4.4254    0.9730    0.1110 O   0  0  0  0  0  0  0  0  0  0  0  0
    3.2059    0.3548    1.9739 O   0  0  0  0  0  0  0  0  0  0  0  0
    6.3164   -2.1910    0.2410 N   0  0  0  0  0  0  0  0  0  0  0  0
   -2.6176   -0.2622   -1.0603 C   0  0  1  0  0  0  0  0  0  0  0  0
   -3.0218   -0.0823    0.4497 C   0  0  2  0  0  0  0  0  0  0  0  0
   -1.1477    0.3005   -1.2875 C   0  0  1  0  0  0  0  0  0  0  0  0
   -4.3652   -0.7766    0.8951 C   0  0  0  0  0  0  0  0  0  0  0  0
   -1.0360    1.7920   -0.8532 C   0  0  2  0  0  0  0  0  0  0  0  0
   -2.6947   -1.7680   -1.4253 C   0  0  0  0  0  0  0  0  0  0  0  0
   -2.8922    1.3857    0.8935 C   0  0  0  0  0  0  0  0  0  0  0  0
   -4.3626   -2.2552    0.4046 C   0  0  2  0  0  0  0  0  0  0  0  0
   -4.0330   -2.4145   -1.0780 C   0  0  0  0  0  0  0  0  0  0  0  0
   -0.0136   -0.5337   -0.6341 C   0  0  0  0  0  0  0  0  0  0  0  0
   -3.5443    0.5078   -2.0436 C   0  0  0  0  0  0  0  0  0  0  0  0
    0.3767    2.3620   -1.1415 C   0  0  2  0  0  0  0  0  0  0  0  0
   -1.4987    1.9021    0.6012 C   0  0  0  0  0  0  0  0  0  0  0  0
    1.3765    0.0560   -0.8877 C   0  0  0  0  0  0  0  0  0  0  0  0
   -5.6392   -0.0361    0.4349 C   0  0  0  0  0  0  0  0  0  0  0  0
   -4.4364   -0.8100    2.4483 C   0  0  0  0  0  0  0  0  0  0  0  0
    1.4417    1.5058   -0.4835 C   0  0  0  0  0  0  0  0  0  0  0  0
    0.4571    3.8733   -0.8843 C   0  0  0  0  0  0  0  0  0  0  0  0
    2.3725    1.9425    0.3789 C   0  0  0  0  0  0  0  0  0  0  0  0
    3.3508    0.9952    0.9446 C   0  0  0  0  0  0  0  0  0  0  0  0
    5.4889    0.0979    0.5014 C   0  0  0  0  0  0  0  0  0  0  0  0
    5.2474   -1.2704   -0.1159 C   0  0  0  0  0  0  0  0  0  0  0  0
    7.6143   -1.6742   -0.2003 C   0  0  0  0  0  0  0  0  0  0  0  0
    6.0760   -3.5145   -0.3390 C   0  0  0  0  0  0  0  0  0  0  0  0
   -2.2479   -0.6220    1.0162 H   0  0  0  0  0  0  0  0  0  0  0  0
   -0.9539    0.2641   -2.3703 H   0  0  0  0  0  0  0  0  0  0  0  0
   -1.7392    2.3965   -1.4393 H   0  0  0  0  0  0  0  0  0  0  0  0
   -1.9298   -2.3323   -0.8816 H   0  0  0  0  0  0  0  0  0  0  0  0
   -2.4865   -1.9100   -2.4929 H   0  0  0  0  0  0  0  0  0  0  0  0
   -3.0507    1.4830    1.9719 H   0  0  0  0  0  0  0  0  0  0  0  0
   -3.6095    2.0466    0.4000 H   0  0  0  0  0  0  0  0  0  0  0  0
   -3.6184   -2.8205    0.9802 H   0  0  0  0  0  0  0  0  0  0  0  0
   -4.8429   -2.0255   -1.7035 H   0  0  0  0  0  0  0  0  0  0  0  0
   -3.9889   -3.4847   -1.3188 H   0  0  0  0  0  0  0  0  0  0  0  0
   -0.0079   -1.5494   -1.0423 H   0  0  0  0  0  0  0  0  0  0  0  0
   -0.1660   -0.6235    0.4469 H   0  0  0  0  0  0  0  0  0  0  0  0
   -4.5138    0.0320   -2.1864 H   0  0  0  0  0  0  0  0  0  0  0  0
   -3.7381    1.5367   -1.7321 H   0  0  0  0  0  0  0  0  0  0  0  0
   -3.0936    0.5520   -3.0426 H   0  0  0  0  0  0  0  0  0  0  0  0
    0.5389    2.2569   -2.2254 H   0  0  0  0  0  0  0  0  0  0  0  0
    1.6057   -0.0132   -1.9594 H   0  0  0  0  0  0  0  0  0  0  0  0
    2.1069   -0.5852   -0.3877 H   0  0  0  0  0  0  0  0  0  0  0  0
   -6.5299   -0.4298    0.9400 H   0  0  0  0  0  0  0  0  0  0  0  0
   -5.5987    1.0305    0.6748 H   0  0  0  0  0  0  0  0  0  0  0  0
   -5.8283   -0.1349   -0.6334 H   0  0  0  0  0  0  0  0  0  0  0  0
   -3.5309   -1.2529    2.8778 H   0  0  0  0  0  0  0  0  0  0  0  0
   -4.5561    0.1916    2.8732 H   0  0  0  0  0  0  0  0  0  0  0  0
   -5.2885   -1.4044    2.7979 H   0  0  0  0  0  0  0  0  0  0  0  0
    1.4124    4.2741   -1.2420 H   0  0  0  0  0  0  0  0  0  0  0  0
   -0.3382    4.3980   -1.4250 H   0  0  0  0  0  0  0  0  0  0  0  0
    0.3664    4.1311    0.1744 H   0  0  0  0  0  0  0  0  0  0  0  0
   -6.2671   -2.5374    0.0157 H   0  0  0  0  0  0  0  0  0  0  0  0
    2.4530    2.9739    0.6977 H   0  0  0  0  0  0  0  0  0  0  0  0
    6.3937    0.5732    0.1124 H   0  0  0  0  0  0  0  0  0  0  0  0
    5.5903    0.0507    1.5928 H   0  0  0  0  0  0  0  0  0  0  0  0
    4.2876   -1.6584    0.2472 H   0  0  0  0  0  0  0  0  0  0  0  0
    5.1392   -1.1691   -1.2045 H   0  0  0  0  0  0  0  0  0  0  0  0
    7.6125   -1.3848   -1.2575 H   0  0  0  0  0  0  0  0  0  0  0  0
    8.3927   -2.4355   -0.0662 H   0  0  0  0  0  0  0  0  0  0  0  0
    7.9443   -0.8265    0.4080 H   0  0  0  0  0  0  0  0  0  0  0  0
    5.1190   -3.9189    0.0096 H   0  0  0  0  0  0  0  0  0  0  0  0
    6.8490   -4.2221   -0.0192 H   0  0  0  0  0  0  0  0  0  0  0  0
    6.0615   -3.4890   -1.4347 H   0  0  0  0  0  0  0  0  0  0  0  0
  1 13  1  0  0  0  0
  1 57  1  0  0  0  0
  2 18  2  0  0  0  0
  3 25  1  0  0  0  0
  3 26  1  0  0  0  0
  4 25  2  0  0  0  0
  5 27  1  0  0  0  0
  5 28  1  0  0  0  0
  5 29  1  0  0  0  0
  6  7  1  0  0  0  0
  6  8  1  0  0  0  0
  6 11  1  0  0  0  0
  6 16  1  0  0  0  0
  7  9  1  0  0  0  0
  7 12  1  0  0  0  0
  7 30  1  0  0  0  0
  8 10  1  0  0  0  0
  8 15  1  0  0  0  0
  8 31  1  0  0  0  0
  9 13  1  0  0  0  0
  9 20  1  0  0  0  0
  9 21  1  0  0  0  0
 10 17  1  0  0  0  0
 10 18  1  0  0  0  0
 10 32  1  0  0  0  0
 11 14  1  0  0  0  0
 11 33  1  0  0  0  0
 11 34  1  0  0  0  0
 12 18  1  0  0  0  0
 12 35  1  0  0  0  0
 12 36  1  0  0  0  0
 13 14  1  0  0  0  0
 13 37  1  0  0  0  0
 14 38  1  0  0  0  0
 14 39  1  0  0  0  0
 15 19  1  0  0  0  0
 15 40  1  0  0  0  0
 15 41  1  0  0  0  0
 16 42  1  0  0  0  0
 16 43  1  0  0  0  0
 16 44  1  0  0  0  0
 17 22  1  0  0  0  0
 17 23  1  0  0  0  0
 17 45  1  0  0  0  0
 19 22  1  0  0  0  0
 19 46  1  0  0  0  0
 19 47  1  0  0  0  0
 20 48  1  0  0  0  0
 20 49  1  0  0  0  0
 20 50  1  0  0  0  0
 21 51  1  0  0  0  0
 21 52  1  0  0  0  0
 21 53  1  0  0  0  0
 22 24  2  0  0  0  0
 23 54  1  0  0  0  0
 23 55  1  0  0  0  0
 23 56  1  0  0  0  0
 24 25  1  0  0  0  0
 24 58  1  0  0  0  0
 26 27  1  0  0  0  0
 26 59  1  0  0  0  0
 26 60  1  0  0  0  0
 27 61  1  0  0  0  0
 27 62  1  0  0  0  0
 28 63  1  0  0  0  0
 28 64  1  0  0  0  0
 28 65  1  0  0  0  0
 29 66  1  0  0  0  0
 29 67  1  0  0  0  0
 29 68  1  0  0  0  0
M  END
> <PUBCHEM_COMPOUND_CID>
10096

> <PUBCHEM_CONFORMER_RMSD>
0.8

> <PUBCHEM_CONFORMER_DIVERSEORDER>
3
28
27
17
32
31
29
14
25
1
30
10
23
15
21
19
24
5
12
6
13
11
26
2
20
33
22
7
18
4
16
9
8

> <PUBCHEM_MMFF94_PARTIAL_CHARGES>
20
1 -0.68
10 0.06
12 0.06
13 0.28
17 0.14
18 0.45
19 0.14
2 -0.57
22 -0.28
24 -0.14
25 0.71
26 0.28
27 0.27
28 0.27
29 0.27
3 -0.43
4 -0.57
5 -0.81
57 0.4
58 0.15

> <PUBCHEM_EFFECTIVE_ROTOR_COUNT>
6.6

> <PUBCHEM_PHARMACOPHORE_FEATURES>
9
1 1 acceptor
1 1 donor
1 2 acceptor
1 4 acceptor
1 5 cation
3 9 20 21 hydrophobe
6 6 7 8 10 12 18 rings
6 6 7 9 11 13 14 rings
6 8 10 15 17 19 22 rings

> <PUBCHEM_HEAVY_ATOM_COUNT>
29

> <PUBCHEM_ATOM_DEF_STEREO_COUNT>
3

> <PUBCHEM_ATOM_UDEF_STEREO_COUNT>
0

> <PUBCHEM_BOND_DEF_STEREO_COUNT>
0

> <PUBCHEM_BOND_UDEF_STEREO_COUNT>
1

> <PUBCHEM_ISOTOPIC_ATOM_COUNT>
0

> <PUBCHEM_COMPONENT_COUNT>
1

> <PUBCHEM_CACTVS_TAUTO_COUNT>
3

> <PUBCHEM_CONFORMER_ID>
0000277000000003

> <PUBCHEM_MMFF94_ENERGY>
98.4975

> <PUBCHEM_FEATURE_SELFOVERLAP>
45.733

> <PUBCHEM_SHAPE_FINGERPRINT>
10319926 262 16660907937811174948
10622 236 17753910319608038599
10928967 22 18272101495556707498
11135609 12 18342172297741602452
11456790 92 17967801749012717459
117089 54 18340758282902893842
11991303 11 17414446296209874212
12107183 9 18261102028139265265
12403259 118 4895263858534472576
12422481 6 17894904165822973854
12633257 1 16226049955302301720
12760667 363 18259993694732558870
13009979 54 18334570235756419400
13103583 49 17530680996430866146
13383661 66 17130681938879598178
13690498 29 17704075113717736340
13782708 43 17630888201702158675
14251764 30 18412824698966353026
14420673 8 18116430539236300678
14739800 52 6555425175607540462
14950920 106 17095247977651110626
14955137 171 18412540981473511709
15082195 135 13039179300318256030
15463212 79 8502366711558244060
16728300 4 18189050911571792423
16993427 108 16953676944183392367
17492 89 18267584602888991167
17780758 139 18187085087253070128
1813 80 18271240534675224012
19784866 34 8214153953256534796
20715895 44 8790886281486319110
21682296 61 18412544293125567943
22950370 63 18412823582253802588
23559900 14 18341335487920601721
23569914 2 5110063161979901243
2748736 6 8934993760006506638
2838139 119 8934736486573831962
3737641 26 18338517572952937274
376196 1 8646774404572234060
392239 28 17313097523597554987
474113 269 18116720621818537911
5104073 3 17748829605472192480
513202 73 18341327898248899656
53917941 68 8790593806613151172
563151 74 14635146880300710558
56633871 153 18334016064278132598
7918774 8 18272365374062585210
7970288 3 18340767053041086626
999808 66 18335419110673408310

> <PUBCHEM_SHAPE_MULTIPOLES>
568.35
15.19
3.63
1.65
22.87
0.04
0.3
-16.39
3.17
1.53
-0.53
-1.8
0.11
0.57

> <PUBCHEM_SHAPE_SELFOVERLAP>
1172.799

> <PUBCHEM_SHAPE_VOLUME>
324.4

> <PUBCHEM_COORDINATE_TYPE>
2
5
10

$$$$

