7235
  -OEChem-06261201553D

 16 15  0     0  0  0  0  0  0999 V2000
   -2.9367    0.1839   -0.1236 O   0  0  0  0  0  0  0  0  0  0  0  0
    2.7233   -0.3419   -0.3114 O   0  0  0  0  0  0  0  0  0  0  0  0
   -1.6740    0.7090   -0.0300 N   0  0  0  0  0  0  0  0  0  0  0  0
    1.6620   -0.6895    0.2049 N   0  0  0  0  0  0  0  0  0  0  0  0
   -0.6052   -0.1544    0.0321 C   0  0  0  0  0  0  0  0  0  0  0  0
    0.6947    0.2314    0.0965 C   0  0  0  0  0  0  0  0  0  0  0  0
   -1.0122   -1.6106    0.0483 C   0  0  0  0  0  0  0  0  0  0  0  0
    1.1480    1.6721    0.0833 C   0  0  0  0  0  0  0  0  0  0  0  0
   -1.6549   -1.8190    0.9116 H   0  0  0  0  0  0  0  0  0  0  0  0
   -0.1761   -2.3133    0.1091 H   0  0  0  0  0  0  0  0  0  0  0  0
   -1.5609   -1.8644   -0.8662 H   0  0  0  0  0  0  0  0  0  0  0  0
    1.6207    1.9224   -0.8734 H   0  0  0  0  0  0  0  0  0  0  0  0
    0.3298    2.3812    0.2349 H   0  0  0  0  0  0  0  0  0  0  0  0
    1.8673    1.8648    0.8888 H   0  0  0  0  0  0  0  0  0  0  0  0
   -1.5646    1.7109   -0.1054 H   0  0  0  0  0  0  0  0  0  0  0  0
   -3.4225    0.7116    0.5327 H   0  0  0  0  0  0  0  0  0  0  0  0
  1  3  1  0  0  0  0
  1 16  1  0  0  0  0
  2  4  2  0  0  0  0
  3  5  1  0  0  0  0
  3 15  1  0  0  0  0
  4  6  1  0  0  0  0
  5  6  2  0  0  0  0
  5  7  1  0  0  0  0
  6  8  1  0  0  0  0
  7  9  1  0  0  0  0
  7 10  1  0  0  0  0
  7 11  1  0  0  0  0
  8 12  1  0  0  0  0
  8 13  1  0  0  0  0
  8 14  1  0  0  0  0
M  END
> <PUBCHEM_COMPOUND_CID>
7235

> <PUBCHEM_CONFORMER_RMSD>
0.4

> <PUBCHEM_CONFORMER_DIVERSEORDER>
1
3
4
2

> <PUBCHEM_MMFF94_PARTIAL_CHARGES>
10
1 -0.38
15 0.4
16 0.4
2 -0.16
3 -0.52
4 -0.13
5 -0.04
6 0.16
7 0.14
8 0.14

> <PUBCHEM_EFFECTIVE_ROTOR_COUNT>
2

> <PUBCHEM_PHARMACOPHORE_FEATURES>
1
1 1 anion

> <PUBCHEM_HEAVY_ATOM_COUNT>
8

> <PUBCHEM_ATOM_DEF_STEREO_COUNT>
0

> <PUBCHEM_ATOM_UDEF_STEREO_COUNT>
0

> <PUBCHEM_BOND_DEF_STEREO_COUNT>
0

> <PUBCHEM_BOND_UDEF_STEREO_COUNT>
1

> <PUBCHEM_ISOTOPIC_ATOM_COUNT>
0

> <PUBCHEM_COMPONENT_COUNT>
1

> <PUBCHEM_CACTVS_TAUTO_COUNT>
1

> <PUBCHEM_CONFORMER_ID>
00001C4300000001

> <PUBCHEM_MMFF94_ENERGY>
20.0403

> <PUBCHEM_FEATURE_SELFOVERLAP>
5.074

> <PUBCHEM_SHAPE_FINGERPRINT>
16714656 1 18341330088661115110
20096714 4 18411983529083283169
21040471 1 18411704248877026297
23552423 10 18127694833371349846
24536 1 18194702370460548672
29004967 10 18408320008111158834
5084963 1 18187087269217847257
5460574 1 9223225252057748963

> <PUBCHEM_SHAPE_MULTIPOLES>
142.94
3.3
1.47
0.59
0.52
0.04
-0.01
0.04
0.28
-0.1
-0.04
-0.04
-0.01
0.08

> <PUBCHEM_SHAPE_SELFOVERLAP>
269.729

> <PUBCHEM_SHAPE_VOLUME>
89.9

> <PUBCHEM_COORDINATE_TYPE>
2
5
10

$$$$

