14363
  -OEChem-06241222433D

 37 37  0     0  0  0  0  0  0999 V2000
   -2.1251    1.0890    0.2202 O   0  0  0  0  0  0  0  0  0  0  0  0
    2.1136    0.9919    0.3291 O   0  0  0  0  0  0  0  0  0  0  0  0
   -4.0332    0.3072   -0.8033 O   0  0  0  0  0  0  0  0  0  0  0  0
    2.5999    2.7339   -1.0953 O   0  0  0  0  0  0  0  0  0  0  0  0
   -3.9261    2.4375    0.0553 N   0  0  0  0  0  0  0  0  0  0  0  0
    4.1884    1.8785    0.3301 N   0  0  0  0  0  0  0  0  0  0  0  0
    0.6259   -1.4908    0.2718 C   0  0  0  0  0  0  0  0  0  0  0  0
   -0.0390   -0.1509    0.5349 C   0  0  0  0  0  0  0  0  0  0  0  0
   -0.0997   -2.6615    0.9280 C   0  0  0  0  0  0  0  0  0  0  0  0
    0.6177   -1.8873   -1.2010 C   0  0  0  0  0  0  0  0  0  0  0  0
    0.4260   -3.8865    0.1862 C   0  0  0  0  0  0  0  0  0  0  0  0
    0.8988   -3.3863   -1.1798 C   0  0  0  0  0  0  0  0  0  0  0  0
   -1.4826   -0.1582   -0.0151 C   0  0  0  0  0  0  0  0  0  0  0  0
    0.7807    0.9537   -0.1650 C   0  0  0  0  0  0  0  0  0  0  0  0
   -0.0648    0.0964    2.0553 C   0  0  0  0  0  0  0  0  0  0  0  0
   -3.4139    1.1954   -0.2275 C   0  0  0  0  0  0  0  0  0  0  0  0
    2.9335    1.9381   -0.2237 C   0  0  0  0  0  0  0  0  0  0  0  0
    1.6646   -1.4894    0.6319 H   0  0  0  0  0  0  0  0  0  0  0  0
   -1.1845   -2.6438    0.8067 H   0  0  0  0  0  0  0  0  0  0  0  0
    0.1107   -2.7371    1.9997 H   0  0  0  0  0  0  0  0  0  0  0  0
    1.3781   -1.3588   -1.7843 H   0  0  0  0  0  0  0  0  0  0  0  0
   -0.3407   -1.7507   -1.7044 H   0  0  0  0  0  0  0  0  0  0  0  0
   -0.3457   -4.6573    0.0910 H   0  0  0  0  0  0  0  0  0  0  0  0
    1.2674   -4.3317    0.7298 H   0  0  0  0  0  0  0  0  0  0  0  0
    1.9730   -3.5743   -1.2911 H   0  0  0  0  0  0  0  0  0  0  0  0
    0.3901   -3.9024   -2.0005 H   0  0  0  0  0  0  0  0  0  0  0  0
   -1.5017   -0.3081   -1.0970 H   0  0  0  0  0  0  0  0  0  0  0  0
   -2.0982   -0.9257    0.4602 H   0  0  0  0  0  0  0  0  0  0  0  0
    0.7950    0.8079   -1.2518 H   0  0  0  0  0  0  0  0  0  0  0  0
    0.3192    1.9311    0.0267 H   0  0  0  0  0  0  0  0  0  0  0  0
   -0.7556   -0.5808    2.5689 H   0  0  0  0  0  0  0  0  0  0  0  0
    0.9268   -0.0341    2.5031 H   0  0  0  0  0  0  0  0  0  0  0  0
   -0.3919    1.1179    2.2815 H   0  0  0  0  0  0  0  0  0  0  0  0
   -3.3732    3.1401    0.5347 H   0  0  0  0  0  0  0  0  0  0  0  0
   -4.8729    2.6908   -0.2064 H   0  0  0  0  0  0  0  0  0  0  0  0
    4.4163    1.2008    1.0498 H   0  0  0  0  0  0  0  0  0  0  0  0
    4.9261    2.5100    0.0368 H   0  0  0  0  0  0  0  0  0  0  0  0
  1 13  1  0  0  0  0
  1 16  1  0  0  0  0
  2 14  1  0  0  0  0
  2 17  1  0  0  0  0
  3 16  2  0  0  0  0
  4 17  2  0  0  0  0
  5 16  1  0  0  0  0
  5 34  1  0  0  0  0
  5 35  1  0  0  0  0
  6 17  1  0  0  0  0
  6 36  1  0  0  0  0
  6 37  1  0  0  0  0
  7  8  1  0  0  0  0
  7  9  1  0  0  0  0
  7 10  1  0  0  0  0
  7 18  1  0  0  0  0
  8 13  1  0  0  0  0
  8 14  1  0  0  0  0
  8 15  1  0  0  0  0
  9 11  1  0  0  0  0
  9 19  1  0  0  0  0
  9 20  1  0  0  0  0
 10 12  1  0  0  0  0
 10 21  1  0  0  0  0
 10 22  1  0  0  0  0
 11 12  1  0  0  0  0
 11 23  1  0  0  0  0
 11 24  1  0  0  0  0
 12 25  1  0  0  0  0
 12 26  1  0  0  0  0
 13 27  1  0  0  0  0
 13 28  1  0  0  0  0
 14 29  1  0  0  0  0
 14 30  1  0  0  0  0
 15 31  1  0  0  0  0
 15 32  1  0  0  0  0
 15 33  1  0  0  0  0
M  END
> <PUBCHEM_COMPOUND_CID>
14363

> <PUBCHEM_CONFORMER_RMSD>
0.8

> <PUBCHEM_CONFORMER_DIVERSEORDER>
1
73
58
56
53
57
35
28
54
64
60
30
51
31
80
81
69
23
74
12
42
59
22
10
37
32
63
82
36
89
68
48
75
39
65
45
76
78
88
6
77
84
7
17
91
43
34
90
55
47
4
16
40
66
83
52
11
85
79
18
13
50
8
41
27
61
29
86
9
26
38
70
72
44
49
14
62
21
24
33
67
20
25
3
15
5
87
19
2
71
46

> <PUBCHEM_MMFF94_PARTIAL_CHARGES>
14
1 -0.43
13 0.28
14 0.28
16 0.78
17 0.78
2 -0.43
3 -0.57
34 0.37
35 0.37
36 0.37
37 0.37
4 -0.57
5 -0.8
6 -0.8

> <PUBCHEM_EFFECTIVE_ROTOR_COUNT>
8

> <PUBCHEM_PHARMACOPHORE_FEATURES>
6
1 15 hydrophobe
1 3 acceptor
1 4 acceptor
1 5 donor
1 6 donor
5 7 9 10 11 12 rings

> <PUBCHEM_HEAVY_ATOM_COUNT>
17

> <PUBCHEM_ATOM_DEF_STEREO_COUNT>
0

> <PUBCHEM_ATOM_UDEF_STEREO_COUNT>
0

> <PUBCHEM_BOND_DEF_STEREO_COUNT>
0

> <PUBCHEM_BOND_UDEF_STEREO_COUNT>
0

> <PUBCHEM_ISOTOPIC_ATOM_COUNT>
0

> <PUBCHEM_COMPONENT_COUNT>
1

> <PUBCHEM_CACTVS_TAUTO_COUNT>
3

> <PUBCHEM_CONFORMER_ID>
0000381B00000001

> <PUBCHEM_MMFF94_ENERGY>
43.0962

> <PUBCHEM_FEATURE_SELFOVERLAP>
30.446

> <PUBCHEM_SHAPE_FINGERPRINT>
10922049 32 18341610378200530296
11357001 24 17836927802537984786
11833330 49 17546458777561903489
12500047 106 18191308183115439312
12788726 201 17623010093076727866
14004458 79 17545872737874790334
14178000 22 18265064552202887376
14648413 74 18196931287210700977
14817 1 14278525978557454402
15502722 9 18337387253160042117
15852999 172 18041549240334471468
15906896 17 17983857783262041970
16945 1 18192137411770575163
1813 80 17395847030876582887
18915476 22 18265591338705496763
20524608 308 18122621661325462552
20600515 1 17031632717390626071
20645476 183 18339648811134266024
20645477 70 18265062517047330557
20671657 53 17688027939400788791
20711985 344 17689454684465579986
21285901 2 17611163984558502887
212916 134 18189638084887198448
21421566 26 16893956857812453740
21426921 1 17834954166650782228
21524375 3 18201164247579032505
2255824 54 18193279826338341231
22713019 5 17539994783041212055
22907989 373 17691953882721614948
23419403 2 17695862904224877602
23598288 3 17841424831028870720
266924 78 17974816718369357937
2748010 2 18195501780018072138
298252 57 18341056202923564248
3060560 45 18411986887942894292
3071541 12 18193835066440084497
3091708 16 9335678894710284706
4175511 376 18264757938529431278
474229 33 18196652900410752883
532947 4 18263637519734061870
559249 180 18339928104958563424
6138700 20 18193553592202482502
7364860 26 18192433184803995485
81228 2 17398402922753626827
81539 233 18412833507617132181
84936 182 18187930632943437128
90316 7 17401473858788111578

> <PUBCHEM_SHAPE_MULTIPOLES>
316.41
5.32
4.44
1.23
4.72
3.08
0.33
-6.59
-1.11
-3.56
-0.86
-0.18
0.34
0.08

> <PUBCHEM_SHAPE_SELFOVERLAP>
634.836

> <PUBCHEM_SHAPE_VOLUME>
186.2

> <PUBCHEM_COORDINATE_TYPE>
2
5
10

$$$$

