13853
  -OEChem-06241222402D

 16 16  0     1  0  0  0  0  0999 V2000
    5.0981    0.6830    0.0000 O   0  0  0  0  0  0  0  0  0  0  0  0
    4.5981   -0.1830    0.0000 C   0  0  3  0  0  0  0  0  0  0  0  0
    5.5981   -0.1830    0.0000 C   0  0  0  0  0  0  0  0  0  0  0  0
    3.7320   -0.6830    0.0000 C   0  0  0  0  0  0  0  0  0  0  0  0
    2.8660   -0.1830    0.0000 C   0  0  0  0  0  0  0  0  0  0  0  0
    2.0000   -0.6830    0.0000 C   0  0  0  0  0  0  0  0  0  0  0  0
    3.9970    0.4180    0.0000 H   0  0  0  0  0  0  0  0  0  0  0  0
    5.7057   -0.7936    0.0000 H   0  0  0  0  0  0  0  0  0  0  0  0
    6.1807    0.0290    0.0000 H   0  0  0  0  0  0  0  0  0  0  0  0
    3.3335   -1.1580    0.0000 H   0  0  0  0  0  0  0  0  0  0  0  0
    4.1306   -1.1580    0.0000 H   0  0  0  0  0  0  0  0  0  0  0  0
    3.2646    0.2919    0.0000 H   0  0  0  0  0  0  0  0  0  0  0  0
    2.4675    0.2919    0.0000 H   0  0  0  0  0  0  0  0  0  0  0  0
    1.6900   -0.1461    0.0000 H   0  0  0  0  0  0  0  0  0  0  0  0
    1.4631   -0.9930    0.0000 H   0  0  0  0  0  0  0  0  0  0  0  0
    2.3100   -1.2200    0.0000 H   0  0  0  0  0  0  0  0  0  0  0  0
  1  2  1  0  0  0  0
  1  3  1  0  0  0  0
  2  3  1  0  0  0  0
  2  4  1  0  0  0  0
  2  7  1  0  0  0  0
  3  8  1  0  0  0  0
  3  9  1  0  0  0  0
  4  5  1  0  0  0  0
  4 10  1  0  0  0  0
  4 11  1  0  0  0  0
  5  6  1  0  0  0  0
  5 12  1  0  0  0  0
  5 13  1  0  0  0  0
  6 14  1  0  0  0  0
  6 15  1  0  0  0  0
  6 16  1  0  0  0  0
M  END
> <PUBCHEM_COMPOUND_CID>
13853

> <PUBCHEM_COMPOUND_CANONICALIZED>
1

> <PUBCHEM_CACTVS_COMPLEXITY>
43.2

> <PUBCHEM_CACTVS_HBOND_ACCEPTOR>
1

> <PUBCHEM_CACTVS_HBOND_DONOR>
0

> <PUBCHEM_CACTVS_ROTATABLE_BOND>
2

> <PUBCHEM_CACTVS_SUBSKEYS>
AAADccBgIAAAAAAAAAAAAAAAEgAAAAAAAAAAAAAAAAAAAAAAAAAAGgAAAAAACBSggAICAAAABAAAAAAAAAAAAAAAAAAAAAAAAAAAAAIAAAAAAAAEAAAAAACAAAAAAAAAAAAAAAAAAAAAAAAAAAAAAAAAAA==

> <PUBCHEM_IUPAC_OPENEYE_NAME>
2-propyloxirane

> <PUBCHEM_IUPAC_CAS_NAME>
2-propyloxirane

> <PUBCHEM_IUPAC_NAME>
2-propyloxirane

> <PUBCHEM_IUPAC_SYSTEMATIC_NAME>
2-propyloxirane

> <PUBCHEM_IUPAC_TRADITIONAL_NAME>
2-propyloxirane

> <PUBCHEM_IUPAC_INCHI>
InChI=1S/C5H10O/c1-2-3-5-4-6-5/h5H,2-4H2,1H3

> <PUBCHEM_IUPAC_INCHIKEY>
SYURNNNQIFDVCA-UHFFFAOYSA-N

> <PUBCHEM_XLOGP3>
1.4

> <PUBCHEM_EXACT_MASS>
86.073165

> <PUBCHEM_MOLECULAR_FORMULA>
C5H10O

> <PUBCHEM_MOLECULAR_WEIGHT>
86.1323

> <PUBCHEM_OPENEYE_CAN_SMILES>
CCCC1CO1

> <PUBCHEM_OPENEYE_ISO_SMILES>
CCCC1CO1

> <PUBCHEM_CACTVS_TPSA>
12.5

> <PUBCHEM_MONOISOTOPIC_WEIGHT>
86.073165

> <PUBCHEM_TOTAL_CHARGE>
0

> <PUBCHEM_HEAVY_ATOM_COUNT>
6

> <PUBCHEM_ATOM_DEF_STEREO_COUNT>
0

> <PUBCHEM_ATOM_UDEF_STEREO_COUNT>
1

> <PUBCHEM_BOND_DEF_STEREO_COUNT>
0

> <PUBCHEM_BOND_UDEF_STEREO_COUNT>
0

> <PUBCHEM_ISOTOPIC_ATOM_COUNT>
0

> <PUBCHEM_COMPONENT_COUNT>
1

> <PUBCHEM_CACTVS_TAUTO_COUNT>
1

> <PUBCHEM_COORDINATE_TYPE>
1
5
255

> <PUBCHEM_BONDANNOTATIONS>
2  7  3

$$$$

