17396015
  -OEChem-06241222533D

 38 39  0     0  0  0  0  0  0999 V2000
    1.3810    0.4305   -0.7749 O   0  0  0  0  0  0  0  0  0  0  0  0
    5.7021    0.3963   -1.0842 O   0  0  0  0  0  0  0  0  0  0  0  0
    4.5561   -1.1604    0.1574 O   0  0  0  0  0  0  0  0  0  0  0  0
   -2.2331   -1.7969    0.1503 N   0  0  0  0  0  0  0  0  0  0  0  0
    2.8624    0.8815    0.9540 N   0  0  0  0  0  0  0  0  0  0  0  0
    3.9234    1.0680    0.1059 N   0  0  0  0  0  0  0  0  0  0  0  0
   -0.7477   -0.0430    0.8893 C   0  0  0  0  0  0  0  0  0  0  0  0
   -1.6896    0.9066    0.5202 C   0  0  0  0  0  0  0  0  0  0  0  0
   -2.9117    0.5078   -0.0375 C   0  0  0  0  0  0  0  0  0  0  0  0
   -1.0661   -1.3703    0.6850 C   0  0  0  0  0  0  0  0  0  0  0  0
    0.5619    0.3529    1.4841 C   0  0  0  0  0  0  0  0  0  0  0  0
   -3.1453   -0.8730   -0.2069 C   0  0  0  0  0  0  0  0  0  0  0  0
   -1.3690    2.3556    0.7334 C   0  0  0  0  0  0  0  0  0  0  0  0
   -3.8861    1.4447   -0.4215 C   0  0  0  0  0  0  0  0  0  0  0  0
   -0.0994   -2.4454    1.0595 C   0  0  0  0  0  0  0  0  0  0  0  0
   -4.3595   -1.2688   -0.7610 C   0  0  0  0  0  0  0  0  0  0  0  0
    1.6277    0.5650    0.4225 C   0  0  0  0  0  0  0  0  0  0  0  0
   -5.0918    1.0210   -0.9731 C   0  0  0  0  0  0  0  0  0  0  0  0
   -5.3284   -0.3375   -1.1429 C   0  0  0  0  0  0  0  0  0  0  0  0
    4.7113   -0.0079   -0.2347 C   0  0  0  0  0  0  0  0  0  0  0  0
    6.6018   -0.6268   -1.5251 C   0  0  0  0  0  0  0  0  0  0  0  0
    0.4821    1.2488    2.1098 H   0  0  0  0  0  0  0  0  0  0  0  0
    0.9278   -0.4099    2.1817 H   0  0  0  0  0  0  0  0  0  0  0  0
   -1.7677    2.9869   -0.0665 H   0  0  0  0  0  0  0  0  0  0  0  0
   -0.2994    2.5793    0.7060 H   0  0  0  0  0  0  0  0  0  0  0  0
   -1.7749    2.6948    1.6918 H   0  0  0  0  0  0  0  0  0  0  0  0
   -3.7581    2.5145   -0.2911 H   0  0  0  0  0  0  0  0  0  0  0  0
   -0.4731   -3.4256    0.7424 H   0  0  0  0  0  0  0  0  0  0  0  0
    0.0350   -2.4870    2.1448 H   0  0  0  0  0  0  0  0  0  0  0  0
    0.8684   -2.2994    0.5701 H   0  0  0  0  0  0  0  0  0  0  0  0
   -4.5693   -2.3272   -0.9042 H   0  0  0  0  0  0  0  0  0  0  0  0
   -5.8447    1.7470   -1.2646 H   0  0  0  0  0  0  0  0  0  0  0  0
   -6.2669   -0.6770   -1.5714 H   0  0  0  0  0  0  0  0  0  0  0  0
    3.0422    0.9851    1.9471 H   0  0  0  0  0  0  0  0  0  0  0  0
    4.0853    2.0081   -0.2375 H   0  0  0  0  0  0  0  0  0  0  0  0
    7.1278   -1.0622   -0.6702 H   0  0  0  0  0  0  0  0  0  0  0  0
    6.0566   -1.3974   -2.0782 H   0  0  0  0  0  0  0  0  0  0  0  0
    7.3362   -0.1687   -2.1928 H   0  0  0  0  0  0  0  0  0  0  0  0
  1 17  2  0  0  0  0
  2 20  1  0  0  0  0
  2 21  1  0  0  0  0
  3 20  2  0  0  0  0
  4 10  2  0  0  0  0
  4 12  1  0  0  0  0
  5  6  1  0  0  0  0
  5 17  1  0  0  0  0
  5 34  1  0  0  0  0
  6 20  1  0  0  0  0
  6 35  1  0  0  0  0
  7  8  2  0  0  0  0
  7 10  1  0  0  0  0
  7 11  1  0  0  0  0
  8  9  1  0  0  0  0
  8 13  1  0  0  0  0
  9 12  1  0  0  0  0
  9 14  2  0  0  0  0
 10 15  1  0  0  0  0
 11 17  1  0  0  0  0
 11 22  1  0  0  0  0
 11 23  1  0  0  0  0
 12 16  2  0  0  0  0
 13 24  1  0  0  0  0
 13 25  1  0  0  0  0
 13 26  1  0  0  0  0
 14 18  1  0  0  0  0
 14 27  1  0  0  0  0
 15 28  1  0  0  0  0
 15 29  1  0  0  0  0
 15 30  1  0  0  0  0
 16 19  1  0  0  0  0
 16 31  1  0  0  0  0
 18 19  2  0  0  0  0
 18 32  1  0  0  0  0
 19 33  1  0  0  0  0
 21 36  1  0  0  0  0
 21 37  1  0  0  0  0
 21 38  1  0  0  0  0
M  END
> <PUBCHEM_COMPOUND_CID>
17396015

> <PUBCHEM_CONFORMER_RMSD>
0.8

> <PUBCHEM_CONFORMER_DIVERSEORDER>
1
12
19
13
7
17
18
15
9
10
4
6
20
5
16
2
11
3
21
8
14

> <PUBCHEM_MMFF94_PARTIAL_CHARGES>
26
1 -0.57
10 0.17
11 0.2
12 0.31
13 0.14
14 -0.15
15 0.14
16 -0.15
17 0.57
18 -0.15
19 -0.15
2 -0.43
20 0.78
21 0.28
27 0.15
3 -0.57
31 0.15
32 0.15
33 0.15
34 0.37
35 0.37
4 -0.62
5 -0.43
6 -0.43
7 -0.14
8 -0.14

> <PUBCHEM_EFFECTIVE_ROTOR_COUNT>
6

> <PUBCHEM_PHARMACOPHORE_FEATURES>
7
1 1 acceptor
1 3 acceptor
1 4 acceptor
1 5 donor
1 6 donor
6 4 7 8 9 10 12 rings
6 9 12 14 16 18 19 rings

> <PUBCHEM_HEAVY_ATOM_COUNT>
21

> <PUBCHEM_ATOM_DEF_STEREO_COUNT>
0

> <PUBCHEM_ATOM_UDEF_STEREO_COUNT>
0

> <PUBCHEM_BOND_DEF_STEREO_COUNT>
0

> <PUBCHEM_BOND_UDEF_STEREO_COUNT>
0

> <PUBCHEM_ISOTOPIC_ATOM_COUNT>
0

> <PUBCHEM_COMPONENT_COUNT>
1

> <PUBCHEM_CACTVS_TAUTO_COUNT>
4

> <PUBCHEM_CONFORMER_ID>
0109712F00000001

> <PUBCHEM_MMFF94_ENERGY>
58.601

> <PUBCHEM_FEATURE_SELFOVERLAP>
37.1

> <PUBCHEM_SHAPE_FINGERPRINT>
10 15 10087634880584106294
106641 1 11167932576950742333
107951 10 17989203733171694267
11315181 36 18187075149337148096
11458722 379 18410580586943479219
12236239 1 17418381289369007017
12555020 224 18260264153176651638
12670543 26 18408606980350583246
12954195 1 18040995202238047673
13288520 33 17603584131969291925
13668630 136 17022617572652025358
13941206 138 18060703909284724667
15048467 5 13039187009124883670
15163728 17 16915676971500928479
15183329 4 18343021125145191806
15575132 122 17132123480296393477
16945 1 18194989391289850747
17349148 13 15213012731170726972
17834072 8 18410293614292663030
17870717 6 18333724719445028375
18222031 100 15140955133043904568
19377110 9 6771859663559286636
19489759 90 18261388975199345844
19784866 170 10087645926475262840
19784866 240 16081083766574737520
200 152 16370723725196643712
20645477 70 17530962458955412256
20871999 31 18412262839396678144
21150785 3 17417809508989309350
21267235 1 18336265653164380679
21637258 2 15285368292970682117
2215653 11 18261111885436972630
22224240 67 11815898968497225781
22849339 104 18198606775360077086
23198884 109 18060416915400813702
23366157 5 17700148878302822403
23379529 103 17464834372049507967
23402539 116 18407763646442747957
23559900 14 18334581192333815512
2748010 2 17620778098011333203
2838139 119 16487265377840641701
3004659 81 18200878478626763954
3759504 43 17418094291328338739
392239 28 7709456143154696846
56616090 284 18187364320104007961
69474 34 10015859881882085983

> <PUBCHEM_SHAPE_MULTIPOLES>
399.62
13.06
1.93
1.26
16.63
0.33
0.07
0.32
8.57
-1.2
-0.49
0.52
0.08
0.23

> <PUBCHEM_SHAPE_SELFOVERLAP>
852.89

> <PUBCHEM_SHAPE_VOLUME>
222.3

> <PUBCHEM_COORDINATE_TYPE>
2
5
10

$$$$

