47205507
  -OEChem-06241222593D

 35 36  0     1  0  0  0  0  0999 V2000
    1.6072   -2.5037   -0.6517 O   0  0  0  0  0  0  0  0  0  0  0  0
   -3.6022    1.6893    0.5944 O   0  0  0  0  0  0  0  0  0  0  0  0
    2.7070    0.7339   -0.0165 N   0  0  0  0  0  0  0  0  0  0  0  0
    0.8819   -1.2382    1.1559 N   0  0  0  0  0  0  0  0  0  0  0  0
    2.5355    2.9052    0.4171 N   0  0  0  0  0  0  0  0  0  0  0  0
   -3.5402   -0.0724   -0.9144 N   0  0  0  0  0  0  0  0  0  0  0  0
    3.0418   -0.7336    0.1789 C   0  0  1  0  0  0  0  0  0  0  0  0
    1.7797   -1.5969    0.1602 C   0  0  0  0  0  0  0  0  0  0  0  0
    4.0569   -1.2055   -0.8650 C   0  0  0  0  0  0  0  0  0  0  0  0
   -0.3857   -1.9023    1.3579 C   0  0  0  0  0  0  0  0  0  0  0  0
   -1.4879   -1.2631    0.5636 C   0  0  0  0  0  0  0  0  0  0  0  0
    2.1191    1.2902   -1.1175 C   0  0  0  0  0  0  0  0  0  0  0  0
    2.9383    1.7419    0.8778 C   0  0  0  0  0  0  0  0  0  0  0  0
    2.0237    2.6305   -0.8264 C   0  0  0  0  0  0  0  0  0  0  0  0
   -2.0343   -0.0531    0.9770 C   0  0  0  0  0  0  0  0  0  0  0  0
   -1.9665   -1.8784   -0.5879 C   0  0  0  0  0  0  0  0  0  0  0  0
   -3.0494    0.4958    0.2099 C   0  0  0  0  0  0  0  0  0  0  0  0
   -2.9844   -1.2478   -1.2849 C   0  0  0  0  0  0  0  0  0  0  0  0
   -4.6405    2.2081   -0.2283 C   0  0  0  0  0  0  0  0  0  0  0  0
    3.4904   -0.7955    1.1785 H   0  0  0  0  0  0  0  0  0  0  0  0
    4.3573   -2.2410   -0.6722 H   0  0  0  0  0  0  0  0  0  0  0  0
    4.9561   -0.5804   -0.8431 H   0  0  0  0  0  0  0  0  0  0  0  0
    3.6454   -1.1626   -1.8795 H   0  0  0  0  0  0  0  0  0  0  0  0
   -0.6189   -1.8557    2.4277 H   0  0  0  0  0  0  0  0  0  0  0  0
   -0.2812   -2.9622    1.0980 H   0  0  0  0  0  0  0  0  0  0  0  0
    1.1138   -0.4730    1.7823 H   0  0  0  0  0  0  0  0  0  0  0  0
    1.8266    0.7086   -1.9805 H   0  0  0  0  0  0  0  0  0  0  0  0
    3.3988    1.5710    1.8411 H   0  0  0  0  0  0  0  0  0  0  0  0
   -1.6789    0.4491    1.8710 H   0  0  0  0  0  0  0  0  0  0  0  0
    1.6116    3.4115   -1.4486 H   0  0  0  0  0  0  0  0  0  0  0  0
   -1.5631   -2.8213   -0.9409 H   0  0  0  0  0  0  0  0  0  0  0  0
   -3.3925   -1.6861   -2.1897 H   0  0  0  0  0  0  0  0  0  0  0  0
   -4.2744    2.4139   -1.2398 H   0  0  0  0  0  0  0  0  0  0  0  0
   -5.4982    1.5276   -0.2545 H   0  0  0  0  0  0  0  0  0  0  0  0
   -4.9744    3.1542    0.2079 H   0  0  0  0  0  0  0  0  0  0  0  0
  1  8  2  0  0  0  0
  2 17  1  0  0  0  0
  2 19  1  0  0  0  0
  3  7  1  0  0  0  0
  3 12  1  0  0  0  0
  3 13  1  0  0  0  0
  4  8  1  0  0  0  0
  4 10  1  0  0  0  0
  4 26  1  0  0  0  0
  5 13  2  0  0  0  0
  5 14  1  0  0  0  0
  6 17  2  0  0  0  0
  6 18  1  0  0  0  0
  7  8  1  0  0  0  0
  7  9  1  0  0  0  0
  7 20  1  0  0  0  0
  9 21  1  0  0  0  0
  9 22  1  0  0  0  0
  9 23  1  0  0  0  0
 10 11  1  0  0  0  0
 10 24  1  0  0  0  0
 10 25  1  0  0  0  0
 11 15  2  0  0  0  0
 11 16  1  0  0  0  0
 12 14  2  0  0  0  0
 12 27  1  0  0  0  0
 13 28  1  0  0  0  0
 14 30  1  0  0  0  0
 15 17  1  0  0  0  0
 15 29  1  0  0  0  0
 16 18  2  0  0  0  0
 16 31  1  0  0  0  0
 18 32  1  0  0  0  0
 19 33  1  0  0  0  0
 19 34  1  0  0  0  0
 19 35  1  0  0  0  0
M  END
> <PUBCHEM_COMPOUND_CID>
47205507

> <PUBCHEM_CONFORMER_RMSD>
0.8

> <PUBCHEM_CONFORMER_DIVERSEORDER>
1
37
9
180
196
25
81
206
123
171
190
205
48
112
229
168
19
154
142
241
121
76
152
255
97
165
58
160
246
108
62
162
32
55
218
16
201
127
96
177
80
210
2
51
23
18
126
133
223
47
219
117
172
153
195
57
134
122
73
100
215
233
66
181
161
44
53
93
258
131
11
136
170
82
116
256
225
110
224
28
20
149
249
39
65
167
213
202
211
140
59
197
101
220
230
64
87
143
232
36
45
173
130
243
147
31
185
26
43
207
40
204
200
41
107
216
244
245
115
214
191
5
251
253
238
151
221
247
77
183
30
91
106
198
52
227
85
155
254
120
186
163
71
49
79
22
67
237
250
192
148
83
132
86
88
69
179
113
159
150
236
184
174
10
90
228
50
128
182
84
104
208
103
187
129
29
189
175
226
15
7
14
212
99
114
72
119
98
176
257
169
209
33
3
74
54
137
124
144
193
27
158
164
92
138
139
188
13
4
118
111
231
94
63
125
17
222
75
146
56
12
38
102
203
157
95
109
217
6
248
78
24
252
89
34
70
145
234
199
239
166
141
68
8
156
35
42
46
61
235
21
242
194
135
60
178
105
240

> <PUBCHEM_MMFF94_PARTIAL_CHARGES>
25
1 -0.57
10 0.44
11 -0.14
12 -0.3
13 0.04
14 0.08
15 -0.15
16 -0.15
17 0.39
18 0.16
19 0.28
2 -0.36
26 0.37
27 0.15
28 0.15
29 0.15
3 0.05
30 0.15
31 0.15
32 0.15
4 -0.73
5 -0.57
6 -0.62
7 0.32
8 0.57

> <PUBCHEM_EFFECTIVE_ROTOR_COUNT>
6

> <PUBCHEM_PHARMACOPHORE_FEATURES>
5
1 1 acceptor
1 4 donor
3 3 5 13 cation
5 3 5 12 13 14 rings
6 6 11 15 16 17 18 rings

> <PUBCHEM_HEAVY_ATOM_COUNT>
19

> <PUBCHEM_ATOM_DEF_STEREO_COUNT>
0

> <PUBCHEM_ATOM_UDEF_STEREO_COUNT>
1

> <PUBCHEM_BOND_DEF_STEREO_COUNT>
0

> <PUBCHEM_BOND_UDEF_STEREO_COUNT>
0

> <PUBCHEM_ISOTOPIC_ATOM_COUNT>
0

> <PUBCHEM_COMPONENT_COUNT>
1

> <PUBCHEM_CACTVS_TAUTO_COUNT>
2

> <PUBCHEM_CONFORMER_ID>
02D04C8300000001

> <PUBCHEM_MMFF94_ENERGY>
37.5271

> <PUBCHEM_FEATURE_SELFOVERLAP>
25.371

> <PUBCHEM_SHAPE_FINGERPRINT>
11221954 11 18199743640037981152
11615756 256 18058721403756318068
12173636 292 18338239267530014495
12633257 1 18060431217615665352
13134695 92 18341334478814394206
14250199 8 18410009922838663823
14251764 38 18267310828699257480
14713325 29 15618012148868160916
15295992 7 18131060550185863475
17980427 23 18045816521944357530
18186145 218 18273500065340136867
18335252 114 17977957005605158069
18981168 100 18058152947723447234
192875 21 17980499870250183164
19930381 70 17690000029553633681
20304884 271 18341326712917339739
20645476 183 18188215398466502519
21041028 32 17121993885675661875
21475661 188 17773878786830008389
21864079 5 18341615901787014041
22749437 52 18198066876036625780
23227448 37 18410856564599512167
23419403 2 6426585364879583630
23557571 272 17677632911405653027
25 1 18130782416704635058
3524813 1 17987239009066486373
474 4 18201443549491688685
526903 126 18194969535012482601
6328613 192 18057328280688011528
7832392 63 18410012173369748462
9981440 41 18050860913931015024

> <PUBCHEM_SHAPE_MULTIPOLES>
359.35
7.91
3.23
1.22
3.63
1.39
0.01
3.56
1.37
-0.98
0.1
0.08
-0.23
-0.06

> <PUBCHEM_SHAPE_SELFOVERLAP>
750.535

> <PUBCHEM_SHAPE_VOLUME>
204.9

> <PUBCHEM_COORDINATE_TYPE>
2
5
10

$$$$

