4268
  -OEChem-06261200002D

143146  0     1  0  0  0  0  0999 V2000
    6.8474   -0.0219    0.0000 O   0  0  0  0  0  0  0  0  0  0  0  0
    9.8804   -2.0032    0.0000 O   0  0  0  0  0  0  0  0  0  0  0  0
    8.7416    2.4877    0.0000 O   0  0  0  0  0  0  0  0  0  0  0  0
   11.6076   -3.1532    0.0000 O   0  0  0  0  0  0  0  0  0  0  0  0
    8.2063    4.1350    0.0000 O   0  0  0  0  0  0  0  0  0  0  0  0
   10.9471   -3.3680    0.0000 O   0  0  0  0  0  0  0  0  0  0  0  0
   10.4358    2.1276    0.0000 O   0  0  0  0  0  0  0  0  0  0  0  0
    9.3712   -4.5996    0.0000 O   0  0  0  0  0  0  0  0  0  0  0  0
   13.0766   -4.0708    0.0000 O   0  0  0  0  0  0  0  0  0  0  0  0
    7.3986    0.9060    0.0000 O   0  0  0  0  0  0  0  0  0  0  0  0
    3.1237    5.2154    0.0000 O   0  0  0  0  0  0  0  0  0  0  0  0
   16.5444   -5.0580    0.0000 O   0  0  0  0  0  0  0  0  0  0  0  0
    3.7431    3.1506    0.0000 O   0  0  0  0  0  0  0  0  0  0  0  0
    4.1057   -2.6609    0.0000 O   0  0  0  0  0  0  0  0  0  0  0  0
    5.7999   -3.0210    0.0000 O   0  0  0  0  0  0  0  0  0  0  0  0
    2.2650   -0.0022    0.0000 O   0  0  0  0  0  0  0  0  0  0  0  0
   15.0754   -4.1404    0.0000 N   0  0  0  0  0  0  0  0  0  0  0  0
    3.1432    3.6441    0.0000 N   0  0  0  0  0  0  0  0  0  0  0  0
    2.4341    2.1996    0.0000 N   0  0  0  0  0  0  0  0  0  0  0  0
    3.7784   -0.0355    0.0000 N   0  0  0  0  0  0  0  0  0  0  0  0
    8.7298    0.4130    0.0000 C   0  0  3  0  0  0  0  0  0  0  0  0
    7.7303    0.4477    0.0000 C   0  0  3  0  0  0  0  0  0  0  0  0
    9.1994   -0.4699    0.0000 C   0  0  0  0  0  0  0  0  0  0  0  0
   10.6684   -1.3875    0.0000 C   0  0  3  0  0  0  0  0  0  0  0  0
   11.6677   -1.4223    0.0000 C   0  0  3  0  0  0  0  0  0  0  0  0
   10.1988   -0.5046    0.0000 C   0  0  0  0  0  0  0  0  0  0  0  0
    7.2607    1.3306    0.0000 C   0  0  0  0  0  0  0  0  0  0  0  0
    7.7905    2.1787    0.0000 C   0  0  3  0  0  0  0  0  0  0  0  0
    7.0474    2.8479    0.0000 C   0  0  3  0  0  0  0  0  0  0  0  0
   12.1374   -2.3051    0.0000 C   0  0  3  0  0  0  0  0  0  0  0  0
    8.7645    1.4123    0.0000 C   0  0  0  0  0  0  0  0  0  0  0  0
    7.2553    3.8260    0.0000 C   0  0  3  0  0  0  0  0  0  0  0  0
   13.1367   -2.3399    0.0000 C   0  0  3  0  0  0  0  0  0  0  0  0
   12.1975   -0.5741    0.0000 C   0  0  0  0  0  0  0  0  0  0  0  0
    6.0963    2.5388    0.0000 C   0  0  0  0  0  0  0  0  0  0  0  0
    6.5121    4.4951    0.0000 C   0  0  0  0  0  0  0  0  0  0  0  0
   13.6665   -1.4918    0.0000 C   0  0  0  0  0  0  0  0  0  0  0  0
   13.6063   -3.2228    0.0000 C   0  0  0  0  0  0  0  0  0  0  0  0
    5.9993    0.5080    0.0000 C   0  0  0  0  0  0  0  0  0  0  0  0
   10.0198   -2.9935    0.0000 C   0  0  0  0  0  0  0  0  0  0  0  0
    9.4847    1.8186    0.0000 C   0  0  0  0  0  0  0  0  0  0  0  0
    5.5611    4.1861    0.0000 C   0  0  0  0  0  0  0  0  0  0  0  0
   12.0772   -4.0361    0.0000 C   0  0  0  0  0  0  0  0  0  0  0  0
    9.2768    0.8405    0.0000 C   0  0  0  0  0  0  0  0  0  0  0  0
    9.2318   -3.6093    0.0000 C   0  0  3  0  0  0  0  0  0  0  0  0
   14.6057   -3.2575    0.0000 C   0  0  0  0  0  0  0  0  0  0  0  0
    8.4142    5.1132    0.0000 C   0  0  0  0  0  0  0  0  0  0  0  0
    8.3258    0.5314    0.0000 C   0  0  3  0  0  0  0  0  0  0  0  0
    4.8179    4.8552    0.0000 C   0  0  0  0  0  0  0  0  0  0  0  0
   11.5474   -4.8842    0.0000 C   0  0  0  0  0  0  0  0  0  0  0  0
    8.3046   -3.2348    0.0000 C   0  0  0  0  0  0  0  0  0  0  0  0
    8.1178   -0.4467    0.0000 C   0  0  0  0  0  0  0  0  0  0  0  0
    3.8669    4.5462    0.0000 C   0  0  0  0  0  0  0  0  0  0  0  0
   14.5456   -4.9884    0.0000 C   0  0  0  0  0  0  0  0  0  0  0  0
    7.1668   -0.7557    0.0000 C   0  0  0  0  0  0  0  0  0  0  0  0
    8.5832   -5.2154    0.0000 C   0  0  0  0  0  0  0  0  0  0  0  0
   16.0747   -4.1751    0.0000 C   0  0  0  0  0  0  0  0  0  0  0  0
    6.9589   -1.7339    0.0000 C   0  0  0  0  0  0  0  0  0  0  0  0
    2.0000    3.8198    0.0000 C   0  0  0  0  0  0  0  0  0  0  0  0
    2.1727    4.9063    0.0000 C   0  0  0  0  0  0  0  0  0  0  0  0
    5.2647   -1.3738    0.0000 C   0  0  3  0  0  0  0  0  0  0  0  0
    6.0078   -2.0429    0.0000 C   0  0  0  0  0  0  0  0  0  0  0  0
    4.3136   -1.6828    0.0000 C   0  0  3  0  0  0  0  0  0  0  0  0
    2.7431    3.1506    0.0000 C   0  0  0  0  0  0  0  0  0  0  0  0
    5.4726   -0.3956    0.0000 C   0  0  0  0  0  0  0  0  0  0  0  0
    3.5705   -1.0136    0.0000 C   0  0  0  0  0  0  0  0  0  0  0  0
    3.2431    1.6118    0.0000 C   0  0  0  0  0  0  0  0  0  0  0  0
    3.0352    0.6336    0.0000 C   0  0  0  0  0  0  0  0  0  0  0  0
    2.5736   -0.9520    0.0000 C   0  0  0  0  0  0  0  0  0  0  0  0
    4.0522    2.1996    0.0000 C   0  0  0  0  0  0  0  0  0  0  0  0
    3.1546   -2.9699    0.0000 C   0  0  0  0  0  0  0  0  0  0  0  0
    9.5580    0.6043    0.0000 H   0  0  0  0  0  0  0  0  0  0  0  0
    7.9217   -0.3805    0.0000 H   0  0  0  0  0  0  0  0  0  0  0  0
    8.6098   -0.6616    0.0000 H   0  0  0  0  0  0  0  0  0  0  0  0
    9.2858   -1.0838    0.0000 H   0  0  0  0  0  0  0  0  0  0  0  0
   10.9312   -2.1958    0.0000 H   0  0  0  0  0  0  0  0  0  0  0  0
   11.2686   -0.6718    0.0000 H   0  0  0  0  0  0  0  0  0  0  0  0
   10.7884   -0.3129    0.0000 H   0  0  0  0  0  0  0  0  0  0  0  0
   10.1124    0.1094    0.0000 H   0  0  0  0  0  0  0  0  0  0  0  0
    6.7999    1.7454    0.0000 H   0  0  0  0  0  0  0  0  0  0  0  0
    6.7722    0.9488    0.0000 H   0  0  0  0  0  0  0  0  0  0  0  0
    8.3138    1.5089    0.0000 H   0  0  0  0  0  0  0  0  0  0  0  0
    6.4157    3.4166    0.0000 H   0  0  0  0  0  0  0  0  0  0  0  0
   12.5366   -3.0555    0.0000 H   0  0  0  0  0  0  0  0  0  0  0  0
    9.3841    1.3908    0.0000 H   0  0  0  0  0  0  0  0  0  0  0  0
    8.7860    2.0320    0.0000 H   0  0  0  0  0  0  0  0  0  0  0  0
    8.1449    1.4339    0.0000 H   0  0  0  0  0  0  0  0  0  0  0  0
    7.4320    4.6574    0.0000 H   0  0  0  0  0  0  0  0  0  0  0  0
   13.9862   -2.3694    0.0000 H   0  0  0  0  0  0  0  0  0  0  0  0
   12.7234   -0.9026    0.0000 H   0  0  0  0  0  0  0  0  0  0  0  0
   12.5260   -0.0483    0.0000 H   0  0  0  0  0  0  0  0  0  0  0  0
   11.6717   -0.2457    0.0000 H   0  0  0  0  0  0  0  0  0  0  0  0
    5.9047    3.1285    0.0000 H   0  0  0  0  0  0  0  0  0  0  0  0
    5.5067    2.3472    0.0000 H   0  0  0  0  0  0  0  0  0  0  0  0
    6.2879    1.9492    0.0000 H   0  0  0  0  0  0  0  0  0  0  0  0
    7.0007    4.8768    0.0000 H   0  0  0  0  0  0  0  0  0  0  0  0
    6.2211    5.0426    0.0000 H   0  0  0  0  0  0  0  0  0  0  0  0
   14.1924   -1.8202    0.0000 H   0  0  0  0  0  0  0  0  0  0  0  0
   13.9950   -0.9659    0.0000 H   0  0  0  0  0  0  0  0  0  0  0  0
   13.1407   -1.1633    0.0000 H   0  0  0  0  0  0  0  0  0  0  0  0
   13.2779   -3.7486    0.0000 H   0  0  0  0  0  0  0  0  0  0  0  0
    6.3278    1.0338    0.0000 H   0  0  0  0  0  0  0  0  0  0  0  0
    5.4735    0.8365    0.0000 H   0  0  0  0  0  0  0  0  0  0  0  0
    5.6708   -0.0178    0.0000 H   0  0  0  0  0  0  0  0  0  0  0  0
    5.4322    3.5797    0.0000 H   0  0  0  0  0  0  0  0  0  0  0  0
    9.3631    0.2265    0.0000 H   0  0  0  0  0  0  0  0  0  0  0  0
    9.8964    0.8188    0.0000 H   0  0  0  0  0  0  0  0  0  0  0  0
    8.5621   -4.1327    0.0000 H   0  0  0  0  0  0  0  0  0  0  0  0
   14.9342   -2.7317    0.0000 H   0  0  0  0  0  0  0  0  0  0  0  0
    9.0207    4.9843    0.0000 H   0  0  0  0  0  0  0  0  0  0  0  0
    8.5432    5.7196    0.0000 H   0  0  0  0  0  0  0  0  0  0  0  0
    7.8078    5.2421    0.0000 H   0  0  0  0  0  0  0  0  0  0  0  0
    8.3554    1.3809    0.0000 H   0  0  0  0  0  0  0  0  0  0  0  0
    4.9468    5.4617    0.0000 H   0  0  0  0  0  0  0  0  0  0  0  0
   11.0216   -4.5558    0.0000 H   0  0  0  0  0  0  0  0  0  0  0  0
   11.2190   -5.4101    0.0000 H   0  0  0  0  0  0  0  0  0  0  0  0
   12.0733   -5.2127    0.0000 H   0  0  0  0  0  0  0  0  0  0  0  0
    8.5367   -2.6599    0.0000 H   0  0  0  0  0  0  0  0  0  0  0  0
    7.7297   -3.0026    0.0000 H   0  0  0  0  0  0  0  0  0  0  0  0
    8.0724   -3.8097    0.0000 H   0  0  0  0  0  0  0  0  0  0  0  0
    8.2041   -1.0607    0.0000 H   0  0  0  0  0  0  0  0  0  0  0  0
    8.7375   -0.4683    0.0000 H   0  0  0  0  0  0  0  0  0  0  0  0
   14.0198   -4.6600    0.0000 H   0  0  0  0  0  0  0  0  0  0  0  0
   14.2172   -5.5143    0.0000 H   0  0  0  0  0  0  0  0  0  0  0  0
   15.0715   -5.3169    0.0000 H   0  0  0  0  0  0  0  0  0  0  0  0
    6.7846    0.8198    0.0000 H   0  0  0  0  0  0  0  0  0  0  0  0
    6.7060   -0.3409    0.0000 H   0  0  0  0  0  0  0  0  0  0  0  0
    8.2015   -4.7268    0.0000 H   0  0  0  0  0  0  0  0  0  0  0  0
    8.0947   -5.5971    0.0000 H   0  0  0  0  0  0  0  0  0  0  0  0
    8.9650   -5.7039    0.0000 H   0  0  0  0  0  0  0  0  0  0  0  0
   16.4032   -3.6493    0.0000 H   0  0  0  0  0  0  0  0  0  0  0  0
    7.4196   -2.1487    0.0000 H   0  0  0  0  0  0  0  0  0  0  0  0
    1.7013    5.3091    0.0000 H   0  0  0  0  0  0  0  0  0  0  0  0
    4.6330   -0.8050    0.0000 H   0  0  0  0  0  0  0  0  0  0  0  0
    3.5052   -1.9454    0.0000 H   0  0  0  0  0  0  0  0  0  0  0  0
    6.0790   -0.5245    0.0000 H   0  0  0  0  0  0  0  0  0  0  0  0
    5.6015    0.2108    0.0000 H   0  0  0  0  0  0  0  0  0  0  0  0
    4.8661   -0.2667    0.0000 H   0  0  0  0  0  0  0  0  0  0  0  0
    2.1939   -1.4421    0.0000 H   0  0  0  0  0  0  0  0  0  0  0  0
    4.6418    2.0080    0.0000 H   0  0  0  0  0  0  0  0  0  0  0  0
    2.9630   -2.3803    0.0000 H   0  0  0  0  0  0  0  0  0  0  0  0
    2.5650   -3.1615    0.0000 H   0  0  0  0  0  0  0  0  0  0  0  0
    3.3462   -3.5596    0.0000 H   0  0  0  0  0  0  0  0  0  0  0  0
  1 22  1  0  0  0  0
  1 39  1  0  0  0  0
  2 24  1  0  0  0  0
  2 40  1  0  0  0  0
  3 28  1  0  0  0  0
  3 41  1  0  0  0  0
  4 30  1  0  0  0  0
  4 43  1  0  0  0  0
  5 32  1  0  0  0  0
  5 47  1  0  0  0  0
  6 40  2  0  0  0  0
  7 41  2  0  0  0  0
  8 45  1  0  0  0  0
  8 56  1  0  0  0  0
  9 43  2  0  0  0  0
 10 48  1  0  0  0  0
 10126  1  0  0  0  0
 11 53  1  0  0  0  0
 11 60  1  0  0  0  0
 12 57  2  0  0  0  0
 13 64  1  0  0  0  0
 13 70  1  0  0  0  0
 14 63  1  0  0  0  0
 14 71  1  0  0  0  0
 15 62  2  0  0  0  0
 16 68  1  0  0  0  0
 16 69  1  0  0  0  0
 17 46  1  0  0  0  0
 17 54  1  0  0  0  0
 17 57  1  0  0  0  0
 18 53  2  0  0  0  0
 18 59  1  0  0  0  0
 19 64  2  0  0  0  0
 19 67  1  0  0  0  0
 20 66  1  0  0  0  0
 20 68  2  0  0  0  0
 21 22  1  0  0  0  0
 21 23  1  0  0  0  0
 21 31  1  0  0  0  0
 21 72  1  0  0  0  0
 22 27  1  0  0  0  0
 22 73  1  0  0  0  0
 23 26  1  0  0  0  0
 23 74  1  0  0  0  0
 23 75  1  0  0  0  0
 24 25  1  0  0  0  0
 24 26  1  0  0  0  0
 24 76  1  0  0  0  0
 25 30  1  0  0  0  0
 25 34  1  0  0  0  0
 25 77  1  0  0  0  0
 26 78  1  0  0  0  0
 26 79  1  0  0  0  0
 27 28  1  0  0  0  0
 27 80  1  0  0  0  0
 27 81  1  0  0  0  0
 28 29  1  0  0  0  0
 28 82  1  0  0  0  0
 29 32  1  0  0  0  0
 29 35  1  0  0  0  0
 29 83  1  0  0  0  0
 30 33  1  0  0  0  0
 30 84  1  0  0  0  0
 31 85  1  0  0  0  0
 31 86  1  0  0  0  0
 31 87  1  0  0  0  0
 32 36  1  0  0  0  0
 32 88  1  0  0  0  0
 33 37  1  0  0  0  0
 33 38  1  0  0  0  0
 33 89  1  0  0  0  0
 34 90  1  0  0  0  0
 34 91  1  0  0  0  0
 34 92  1  0  0  0  0
 35 93  1  0  0  0  0
 35 94  1  0  0  0  0
 35 95  1  0  0  0  0
 36 42  1  0  0  0  0
 36 96  1  0  0  0  0
 36 97  1  0  0  0  0
 37 98  1  0  0  0  0
 37 99  1  0  0  0  0
 37100  1  0  0  0  0
 38 46  2  3  0  0  0
 38101  1  0  0  0  0
 39102  1  0  0  0  0
 39103  1  0  0  0  0
 39104  1  0  0  0  0
 40 45  1  0  0  0  0
 41 44  1  0  0  0  0
 42 49  2  3  0  0  0
 42105  1  0  0  0  0
 43 50  1  0  0  0  0
 44 48  1  0  0  0  0
 44106  1  0  0  0  0
 44107  1  0  0  0  0
 45 51  1  0  0  0  0
 45108  1  0  0  0  0
 46109  1  0  0  0  0
 47110  1  0  0  0  0
 47111  1  0  0  0  0
 47112  1  0  0  0  0
 48 52  1  0  0  0  0
 48113  1  0  0  0  0
 49 53  1  0  0  0  0
 49114  1  0  0  0  0
 50115  1  0  0  0  0
 50116  1  0  0  0  0
 50117  1  0  0  0  0
 51118  1  0  0  0  0
 51119  1  0  0  0  0
 51120  1  0  0  0  0
 52 55  1  0  0  0  0
 52121  1  0  0  0  0
 52122  1  0  0  0  0
 54123  1  0  0  0  0
 54124  1  0  0  0  0
 54125  1  0  0  0  0
 55 58  2  3  0  0  0
 55127  1  0  0  0  0
 56128  1  0  0  0  0
 56129  1  0  0  0  0
 56130  1  0  0  0  0
 57131  1  0  0  0  0
 58 62  1  0  0  0  0
 58132  1  0  0  0  0
 59 60  2  0  0  0  0
 59 64  1  0  0  0  0
 60133  1  0  0  0  0
 61 62  1  0  0  0  0
 61 63  1  0  0  0  0
 61 65  1  0  0  0  0
 61134  1  0  0  0  0
 63 66  1  0  0  0  0
 63135  1  0  0  0  0
 65136  1  0  0  0  0
 65137  1  0  0  0  0
 65138  1  0  0  0  0
 66 69  2  0  0  0  0
 67 68  1  0  0  0  0
 67 70  2  0  0  0  0
 69139  1  0  0  0  0
 70140  1  0  0  0  0
 71141  1  0  0  0  0
 71142  1  0  0  0  0
 71143  1  0  0  0  0
M  END
> <PUBCHEM_COMPOUND_CID>
4268

> <PUBCHEM_COMPOUND_CANONICALIZED>
1

> <PUBCHEM_CACTVS_COMPLEXITY>
1770

> <PUBCHEM_CACTVS_HBOND_ACCEPTOR>
19

> <PUBCHEM_CACTVS_HBOND_DONOR>
1

> <PUBCHEM_CACTVS_ROTATABLE_BOND>
20

> <PUBCHEM_CACTVS_SUBSKEYS>
AAADcfB/vgAAAAAAAAAAAAAAAAAAAWLFgAAAAAAAAAAAAAAB+AAAHgAACAAADRzhlgYijBMIFkCoAa323AaAiCAvYiAICCH9LFgHdZ4MsS6fWGiH5gCaIYOc7uwuAAAAAAAAAAAAAAAAAAAAAAAAAAAAAA==

> <PUBCHEM_IUPAC_INCHI>
InChI=1S/C51H72N4O16/c1-29(19-20-42(71-51(61)34(6)62-9)33(5)47(69-35(7)57)30(2)21-22-55(8)28-56)43(64-11)24-44-32(4)41(63-10)17-14-18-45-52-38(26-66-45)49-54-39(27-68-49)50-53-37(25-67-50)48(65-12)31(3)40(59)16-13-15-36(58)23-46(60)70-44/h13-14,16,18,21-22,25-34,36,41-44,47-48,58H,15,17,19-20,23-24H2,1-12H3

> <PUBCHEM_IUPAC_INCHIKEY>
IQWXGENIKCGPFN-UHFFFAOYSA-N

> <PUBCHEM_XLOGP3_AA>
5.5

> <PUBCHEM_EXACT_MASS>
996.494332

> <PUBCHEM_MOLECULAR_FORMULA>
C51H72N4O16

> <PUBCHEM_MOLECULAR_WEIGHT>
997.13458

> <PUBCHEM_OPENEYE_CAN_SMILES>
CC1C(CC=CC2=NC(=CO2)C3=NC(=CO3)C4=NC(=CO4)C(C(C(=O)C=CCC(CC(=O)OC1CC(C(C)CCC(C(C)C(C(C)C=CN(C)C=O)OC(=O)C)OC(=O)C(C)OC)OC)O)C)OC)OC

> <PUBCHEM_OPENEYE_ISO_SMILES>
CC1C(CC=CC2=NC(=CO2)C3=NC(=CO3)C4=NC(=CO4)C(C(C(=O)C=CCC(CC(=O)OC1CC(C(C)CCC(C(C)C(C(C)C=CN(C)C=O)OC(=O)C)OC(=O)C(C)OC)OC)O)C)OC)OC

> <PUBCHEM_CACTVS_TPSA>
252

> <PUBCHEM_MONOISOTOPIC_WEIGHT>
996.494332

> <PUBCHEM_TOTAL_CHARGE>
0

> <PUBCHEM_HEAVY_ATOM_COUNT>
71

> <PUBCHEM_ATOM_DEF_STEREO_COUNT>
0

> <PUBCHEM_ATOM_UDEF_STEREO_COUNT>
13

> <PUBCHEM_BOND_DEF_STEREO_COUNT>
0

> <PUBCHEM_BOND_UDEF_STEREO_COUNT>
3

> <PUBCHEM_ISOTOPIC_ATOM_COUNT>
0

> <PUBCHEM_COMPONENT_COUNT>
1

> <PUBCHEM_CACTVS_TAUTO_COUNT>
3

> <PUBCHEM_COORDINATE_TYPE>
1
5
255

> <PUBCHEM_BONDANNOTATIONS>
11  53  8
11  60  8
13  64  8
13  70  8
16  68  8
16  69  8
18  53  8
18  59  8
19  64  8
19  67  8
20  66  8
20  68  8
21  72  3
22  73  3
24  76  3
25  77  3
28  82  3
29  83  3
30  84  3
32  88  3
33  89  3
38  46  1
42  49  1
45  108  3
48  113  3
55  58  1
59  60  8
61  134  3
63  135  3
66  69  8
67  70  8

$$$$

