7779
  -OEChem-06261202193D

 31 30  0     0  0  0  0  0  0999 V2000
   -2.8773   -0.5390   -0.7577 O   0  0  0  0  0  0  0  0  0  0  0  0
   -4.5908   -0.9176    0.7523 O   0  0  0  0  0  0  0  0  0  0  0  0
    1.2302    2.0435   -0.6733 C   0  0  0  0  0  0  0  0  0  0  0  0
    2.5385    1.2978   -0.3790 C   0  0  0  0  0  0  0  0  0  0  0  0
    0.0291    1.4792    0.0561 C   0  0  0  0  0  0  0  0  0  0  0  0
    2.4723   -0.1565   -0.7552 C   0  0  0  0  0  0  0  0  0  0  0  0
    2.7317   -1.2277    0.0181 C   0  0  0  0  0  0  0  0  0  0  0  0
   -1.0679    0.9750   -0.5420 C   0  0  0  0  0  0  0  0  0  0  0  0
    0.1059    1.5414    1.5603 C   0  0  0  0  0  0  0  0  0  0  0  0
   -2.3017    0.4320    0.1060 C   0  0  0  0  0  0  0  0  0  0  0  0
    2.6172   -2.6187   -0.5468 C   0  0  0  0  0  0  0  0  0  0  0  0
    3.1305   -1.1789    1.4656 C   0  0  0  0  0  0  0  0  0  0  0  0
   -4.0175   -1.1305   -0.3044 C   0  0  0  0  0  0  0  0  0  0  0  0
    1.3490    3.0992   -0.3989 H   0  0  0  0  0  0  0  0  0  0  0  0
    1.0477    2.0326   -1.7561 H   0  0  0  0  0  0  0  0  0  0  0  0
    2.8168    1.4506    0.6665 H   0  0  0  0  0  0  0  0  0  0  0  0
    3.3375    1.7604   -0.9720 H   0  0  0  0  0  0  0  0  0  0  0  0
    2.1984   -0.3348   -1.7948 H   0  0  0  0  0  0  0  0  0  0  0  0
   -1.0860    0.9887   -1.6314 H   0  0  0  0  0  0  0  0  0  0  0  0
    0.5655    2.4846    1.8764 H   0  0  0  0  0  0  0  0  0  0  0  0
    0.7130    0.7182    1.9483 H   0  0  0  0  0  0  0  0  0  0  0  0
   -0.8722    1.5058    2.0479 H   0  0  0  0  0  0  0  0  0  0  0  0
   -3.0180    1.2482    0.2532 H   0  0  0  0  0  0  0  0  0  0  0  0
   -2.0747   -0.0449    1.0649 H   0  0  0  0  0  0  0  0  0  0  0  0
    1.8707   -3.1937    0.0111 H   0  0  0  0  0  0  0  0  0  0  0  0
    2.3164   -2.6192   -1.5998 H   0  0  0  0  0  0  0  0  0  0  0  0
    3.5793   -3.1365   -0.4765 H   0  0  0  0  0  0  0  0  0  0  0  0
    4.0902   -1.6877    1.6065 H   0  0  0  0  0  0  0  0  0  0  0  0
    3.2425   -0.1685    1.8616 H   0  0  0  0  0  0  0  0  0  0  0  0
    2.3792   -1.6888    2.0780 H   0  0  0  0  0  0  0  0  0  0  0  0
   -4.3586   -1.8557   -1.0591 H   0  0  0  0  0  0  0  0  0  0  0  0
  1 10  1  0  0  0  0
  1 13  1  0  0  0  0
  2 13  2  0  0  0  0
  3  4  1  0  0  0  0
  3  5  1  0  0  0  0
  3 14  1  0  0  0  0
  3 15  1  0  0  0  0
  4  6  1  0  0  0  0
  4 16  1  0  0  0  0
  4 17  1  0  0  0  0
  5  8  2  0  0  0  0
  5  9  1  0  0  0  0
  6  7  2  0  0  0  0
  6 18  1  0  0  0  0
  7 11  1  0  0  0  0
  7 12  1  0  0  0  0
  8 10  1  0  0  0  0
  8 19  1  0  0  0  0
  9 20  1  0  0  0  0
  9 21  1  0  0  0  0
  9 22  1  0  0  0  0
 10 23  1  0  0  0  0
 10 24  1  0  0  0  0
 11 25  1  0  0  0  0
 11 26  1  0  0  0  0
 11 27  1  0  0  0  0
 12 28  1  0  0  0  0
 12 29  1  0  0  0  0
 12 30  1  0  0  0  0
 13 31  1  0  0  0  0
M  END
> <PUBCHEM_COMPOUND_CID>
7779

> <PUBCHEM_CONFORMER_RMSD>
0.8

> <PUBCHEM_CONFORMER_DIVERSEORDER>
1
18
365
8
441
304
526
397
98
11
96
21
241
27
184
522
22
433
307
46
95
34
126
202
15
108
534
75
97
447
169
322
166
16
199
400
53
426
59
218
101
235
404
23
291
150
2
529
446
73
113
82
4
215
9
58
172
134
506
157
313
17
374
525
153
5
123
440
29
362
224
25
361
539
317
507
6
38
33
537
229
76
56
52
272
382
276
149
394
102
495
305
269
3
24
77
94
196
12
273
109
147
130
497
89
391
50
528
489
40
474
30

> <PUBCHEM_MMFF94_PARTIAL_CHARGES>
16
1 -0.43
10 0.42
11 0.14
12 0.14
13 0.66
18 0.15
19 0.15
2 -0.57
3 0.14
31 0.06
4 0.14
5 -0.28
6 -0.29
7 -0.28
8 -0.29
9 0.14

> <PUBCHEM_EFFECTIVE_ROTOR_COUNT>
6

> <PUBCHEM_PHARMACOPHORE_FEATURES>
4
1 2 acceptor
1 9 hydrophobe
3 7 11 12 hydrophobe
4 3 4 5 6 hydrophobe

> <PUBCHEM_HEAVY_ATOM_COUNT>
13

> <PUBCHEM_ATOM_DEF_STEREO_COUNT>
0

> <PUBCHEM_ATOM_UDEF_STEREO_COUNT>
0

> <PUBCHEM_BOND_DEF_STEREO_COUNT>
0

> <PUBCHEM_BOND_UDEF_STEREO_COUNT>
1

> <PUBCHEM_ISOTOPIC_ATOM_COUNT>
0

> <PUBCHEM_COMPONENT_COUNT>
1

> <PUBCHEM_CACTVS_TAUTO_COUNT>
1

> <PUBCHEM_CONFORMER_ID>
00001E6300000001

> <PUBCHEM_MMFF94_ENERGY>
13.3143

> <PUBCHEM_FEATURE_SELFOVERLAP>
20.317

> <PUBCHEM_SHAPE_FINGERPRINT>
11769659 78 18411702105736078221
12616999 72 17987789714220841748
13705890 14 17988929950501820692
14251705 54 18337672043577777030
14251710 61 18339074994613171959
14251717 144 18410857625082193247
14350558 41 18411980243407057996
14848160 33 18272094902459920439
15375462 189 18114180796136599325
15757776 16 18273214201397232860
17834074 16 18127966417534445043
18186145 218 12031497839157068767
20291156 8 18336823212047869222
20645477 70 18341901749267356783
20671657 53 17988928911098408522
21354914 74 18273219707218193666
2255824 54 18194397784291789901
23380061 451 18114457864519328581
23500284 5 18189049970144960601
23532345 11 17827088595161437624
8199 65 18411135805824236718
94968 8 18343014484782886838

> <PUBCHEM_SHAPE_MULTIPOLES>
255.8
7.15
2.48
1.19
7.74
0.4
0.46
5.33
0.45
-1.56
-0.18
-0.46
-0.1
-0.26

> <PUBCHEM_SHAPE_SELFOVERLAP>
479.112

> <PUBCHEM_SHAPE_VOLUME>
159.6

> <PUBCHEM_COORDINATE_TYPE>
2
5
10

$$$$

