8219
  -OEChem-06261202393D

 56 55  0     0  0  0  0  0  0999 V2000
    4.5514    3.1519    1.3715 N   0  0  0  0  0  0  0  0  0  0  0  0
   -1.4159    2.1913   -0.6695 C   0  0  0  0  0  0  0  0  0  0  0  0
   -2.1114    1.3248   -1.7232 C   0  0  0  0  0  0  0  0  0  0  0  0
    0.0962    1.9501   -0.6692 C   0  0  0  0  0  0  0  0  0  0  0  0
    0.6096   -2.4892    0.7642 C   0  0  0  0  0  0  0  0  0  0  0  0
   -0.8572   -2.1491    0.4870 C   0  0  0  0  0  0  0  0  0  0  0  0
   -3.6355    1.4977   -1.7520 C   0  0  0  0  0  0  0  0  0  0  0  0
    1.4841   -2.1985   -0.4584 C   0  0  0  0  0  0  0  0  0  0  0  0
    0.8576    2.8435    0.3158 C   0  0  0  0  0  0  0  0  0  0  0  0
   -1.7927   -2.4492    1.6650 C   0  0  0  0  0  0  0  0  0  0  0  0
    2.9592   -2.5526   -0.2481 C   0  0  0  0  0  0  0  0  0  0  0  0
   -4.3720    1.0727   -0.4768 C   0  0  0  0  0  0  0  0  0  0  0  0
   -3.2802   -2.1573    1.4361 C   0  0  0  0  0  0  0  0  0  0  0  0
    2.3673    2.5786    0.3349 C   0  0  0  0  0  0  0  0  0  0  0  0
    3.8267   -2.2839   -1.4787 C   0  0  0  0  0  0  0  0  0  0  0  0
   -4.1212   -0.3594   -0.1018 C   0  0  0  0  0  0  0  0  0  0  0  0
   -3.5637   -0.7326    1.0595 C   0  0  0  0  0  0  0  0  0  0  0  0
    3.1182    3.4189    1.3715 C   0  0  0  0  0  0  0  0  0  0  0  0
    5.2794   -2.6576   -1.2278 C   0  0  0  0  0  0  0  0  0  0  0  0
   -1.6221    3.2490   -0.8712 H   0  0  0  0  0  0  0  0  0  0  0  0
   -1.8066    1.9686    0.3291 H   0  0  0  0  0  0  0  0  0  0  0  0
   -1.8564    0.2700   -1.5720 H   0  0  0  0  0  0  0  0  0  0  0  0
   -1.7207    1.5931   -2.7131 H   0  0  0  0  0  0  0  0  0  0  0  0
    0.4917    2.1181   -1.6786 H   0  0  0  0  0  0  0  0  0  0  0  0
    0.2920    0.9015   -0.4226 H   0  0  0  0  0  0  0  0  0  0  0  0
    0.9677   -1.9062    1.6209 H   0  0  0  0  0  0  0  0  0  0  0  0
    0.6954   -3.5487    1.0332 H   0  0  0  0  0  0  0  0  0  0  0  0
   -0.9263   -1.0866    0.2320 H   0  0  0  0  0  0  0  0  0  0  0  0
   -1.2018   -2.7107   -0.3901 H   0  0  0  0  0  0  0  0  0  0  0  0
   -4.0286    0.9186   -2.5977 H   0  0  0  0  0  0  0  0  0  0  0  0
   -3.8742    2.5478   -1.9616 H   0  0  0  0  0  0  0  0  0  0  0  0
    1.4068   -1.1372   -0.7199 H   0  0  0  0  0  0  0  0  0  0  0  0
    1.1020   -2.7640   -1.3175 H   0  0  0  0  0  0  0  0  0  0  0  0
    0.6794    3.8958    0.0629 H   0  0  0  0  0  0  0  0  0  0  0  0
    0.4537    2.6866    1.3236 H   0  0  0  0  0  0  0  0  0  0  0  0
   -1.4509   -1.8756    2.5365 H   0  0  0  0  0  0  0  0  0  0  0  0
   -1.6910   -3.5076    1.9365 H   0  0  0  0  0  0  0  0  0  0  0  0
    3.3472   -1.9776    0.6019 H   0  0  0  0  0  0  0  0  0  0  0  0
    3.0373   -3.6125    0.0244 H   0  0  0  0  0  0  0  0  0  0  0  0
   -4.1087    1.7472    0.3462 H   0  0  0  0  0  0  0  0  0  0  0  0
   -5.4497    1.1983   -0.6380 H   0  0  0  0  0  0  0  0  0  0  0  0
   -3.6590   -2.8401    0.6654 H   0  0  0  0  0  0  0  0  0  0  0  0
   -3.8327   -2.3886    2.3546 H   0  0  0  0  0  0  0  0  0  0  0  0
    2.5392    1.5141    0.5406 H   0  0  0  0  0  0  0  0  0  0  0  0
    2.7775    2.7773   -0.6633 H   0  0  0  0  0  0  0  0  0  0  0  0
    3.7673   -1.2232   -1.7490 H   0  0  0  0  0  0  0  0  0  0  0  0
    3.4481   -2.8584   -2.3319 H   0  0  0  0  0  0  0  0  0  0  0  0
   -4.4069   -1.1159   -0.8281 H   0  0  0  0  0  0  0  0  0  0  0  0
   -3.2812    0.0267    1.7847 H   0  0  0  0  0  0  0  0  0  0  0  0
    2.9584    4.4831    1.1662 H   0  0  0  0  0  0  0  0  0  0  0  0
    2.7174    3.2153    2.3709 H   0  0  0  0  0  0  0  0  0  0  0  0
    5.3748   -3.7208   -0.9852 H   0  0  0  0  0  0  0  0  0  0  0  0
    5.6961   -2.0769   -0.3987 H   0  0  0  0  0  0  0  0  0  0  0  0
    5.8815   -2.4572   -2.1194 H   0  0  0  0  0  0  0  0  0  0  0  0
    4.9953    3.6860    2.1173 H   0  0  0  0  0  0  0  0  0  0  0  0
    4.7166    2.1692    1.5852 H   0  0  0  0  0  0  0  0  0  0  0  0
  1 18  1  0  0  0  0
  1 55  1  0  0  0  0
  1 56  1  0  0  0  0
  2  3  1  0  0  0  0
  2  4  1  0  0  0  0
  2 20  1  0  0  0  0
  2 21  1  0  0  0  0
  3  7  1  0  0  0  0
  3 22  1  0  0  0  0
  3 23  1  0  0  0  0
  4  9  1  0  0  0  0
  4 24  1  0  0  0  0
  4 25  1  0  0  0  0
  5  6  1  0  0  0  0
  5  8  1  0  0  0  0
  5 26  1  0  0  0  0
  5 27  1  0  0  0  0
  6 10  1  0  0  0  0
  6 28  1  0  0  0  0
  6 29  1  0  0  0  0
  7 12  1  0  0  0  0
  7 30  1  0  0  0  0
  7 31  1  0  0  0  0
  8 11  1  0  0  0  0
  8 32  1  0  0  0  0
  8 33  1  0  0  0  0
  9 14  1  0  0  0  0
  9 34  1  0  0  0  0
  9 35  1  0  0  0  0
 10 13  1  0  0  0  0
 10 36  1  0  0  0  0
 10 37  1  0  0  0  0
 11 15  1  0  0  0  0
 11 38  1  0  0  0  0
 11 39  1  0  0  0  0
 12 16  1  0  0  0  0
 12 40  1  0  0  0  0
 12 41  1  0  0  0  0
 13 17  1  0  0  0  0
 13 42  1  0  0  0  0
 13 43  1  0  0  0  0
 14 18  1  0  0  0  0
 14 44  1  0  0  0  0
 14 45  1  0  0  0  0
 15 19  1  0  0  0  0
 15 46  1  0  0  0  0
 15 47  1  0  0  0  0
 16 17  2  0  0  0  0
 16 48  1  0  0  0  0
 17 49  1  0  0  0  0
 18 50  1  0  0  0  0
 18 51  1  0  0  0  0
 19 52  1  0  0  0  0
 19 53  1  0  0  0  0
 19 54  1  0  0  0  0
M  END
> <PUBCHEM_COMPOUND_CID>
8219

> <PUBCHEM_CONFORMER_RMSD>
1.4

> <PUBCHEM_CONFORMER_DIVERSEORDER>
1
39
14
95
67
44
75
66
70
13
73
53
31
18
61
8
49
81
82
63
77
52
16
47
15
87
80
7
19
51
21
90
36
64
86
58
91
3
93
83
32
22
55
96
78
68
72
38
59
30
42
69
46
74
34
12
33
89
76
28
10
24
84
71
85
29
2
26
27
56
20
45
35
43
17
79
62
60
6
94
23
37
41
25
57
88
5
4
9
65
54
92
50
11
40
48

> <PUBCHEM_MMFF94_PARTIAL_CHARGES>
10
1 -0.99
12 0.14
13 0.14
16 -0.29
17 -0.29
18 0.27
48 0.15
49 0.15
55 0.36
56 0.36

> <PUBCHEM_EFFECTIVE_ROTOR_COUNT>
15

> <PUBCHEM_PHARMACOPHORE_FEATURES>
3
1 1 cation
1 1 donor
1 19 hydrophobe

> <PUBCHEM_HEAVY_ATOM_COUNT>
19

> <PUBCHEM_ATOM_DEF_STEREO_COUNT>
0

> <PUBCHEM_ATOM_UDEF_STEREO_COUNT>
0

> <PUBCHEM_BOND_DEF_STEREO_COUNT>
0

> <PUBCHEM_BOND_UDEF_STEREO_COUNT>
1

> <PUBCHEM_ISOTOPIC_ATOM_COUNT>
0

> <PUBCHEM_COMPONENT_COUNT>
1

> <PUBCHEM_CACTVS_TAUTO_COUNT>
1

> <PUBCHEM_CONFORMER_ID>
0000201B00000001

> <PUBCHEM_MMFF94_ENERGY>
-7.0119

> <PUBCHEM_FEATURE_SELFOVERLAP>
15.223

> <PUBCHEM_SHAPE_FINGERPRINT>
12788726 201 17762619898749658319
13402501 40 18342172271745087982
14123250 116 17259334999860717079
14251757 17 18412825798045308432
14647877 51 18410012135300449488
14931854 50 17913208947403836719
14932702 115 18056449907517876884
20642791 35 18269004257648624293
20765182 40 18200594838570070786
21141583 151 18052537961105519879
23558518 356 16752968165225592734
23559900 14 18272929440206474212
238918 7 18194970634513515480
5047190 48 17475790957969764132
532947 4 18409453557085749697
9862522 239 17979086993497485401

> <PUBCHEM_SHAPE_MULTIPOLES>
386.03
9.62
5.59
1.75
4.35
2.51
-0.09
-1.99
-1.96
6.48
1.86
-0.09
0.11
5.48

> <PUBCHEM_SHAPE_SELFOVERLAP>
696.169

> <PUBCHEM_SHAPE_VOLUME>
246.4

> <PUBCHEM_COORDINATE_TYPE>
2
5
10

$$$$

