14143
  -OEChem-06241222423D

 29 29  0     0  0  0  0  0  0999 V2000
    2.7115   -0.6562   -0.0379 O   0  0  0  0  0  0  0  0  0  0  0  0
   -3.2094    1.4706   -0.4001 O   0  0  0  0  0  0  0  0  0  0  0  0
    6.1089    0.1236    0.2430 O   0  5  0  0  0  0  0  0  0  0  0  0
    5.0610   -1.7997    0.0957 O   0  0  0  0  0  0  0  0  0  0  0  0
   -5.3980   -0.0994    0.1311 N   0  0  0  0  0  0  0  0  0  0  0  0
   -1.8685   -0.4197   -0.3726 N   0  0  0  0  0  0  0  0  0  0  0  0
   -0.7304    0.3033   -0.2613 N   0  0  0  0  0  0  0  0  0  0  0  0
    5.0316   -0.5344    0.1393 N   0  3  0  0  0  0  0  0  0  0  0  0
   -4.2494   -0.7065   -0.5260 C   0  0  0  0  0  0  0  0  0  0  0  0
   -5.1038    0.1739    1.5397 C   0  0  0  0  0  0  0  0  0  0  0  0
   -6.5754   -0.9634    0.0188 C   0  0  0  0  0  0  0  0  0  0  0  0
   -3.0783    0.2488   -0.4366 C   0  0  0  0  0  0  0  0  0  0  0  0
    1.6637    0.1858   -0.0853 C   0  0  0  0  0  0  0  0  0  0  0  0
    2.0353    1.4872   -0.0099 C   0  0  0  0  0  0  0  0  0  0  0  0
    3.8092    0.1368    0.0732 C   0  0  0  0  0  0  0  0  0  0  0  0
    3.4466    1.4635    0.0948 C   0  0  0  0  0  0  0  0  0  0  0  0
    0.3454   -0.4143   -0.2058 C   0  0  0  0  0  0  0  0  0  0  0  0
   -3.9932   -1.6750   -0.0786 H   0  0  0  0  0  0  0  0  0  0  0  0
   -4.4506   -0.8647   -1.5922 H   0  0  0  0  0  0  0  0  0  0  0  0
   -4.3288    0.9318    1.6834 H   0  0  0  0  0  0  0  0  0  0  0  0
   -4.8041   -0.7324    2.0794 H   0  0  0  0  0  0  0  0  0  0  0  0
   -5.9945    0.5766    2.0373 H   0  0  0  0  0  0  0  0  0  0  0  0
   -6.8199   -1.1433   -1.0341 H   0  0  0  0  0  0  0  0  0  0  0  0
   -7.4516   -0.4807    0.4658 H   0  0  0  0  0  0  0  0  0  0  0  0
   -6.4260   -1.9323    0.5089 H   0  0  0  0  0  0  0  0  0  0  0  0
   -1.7947   -1.4319   -0.4065 H   0  0  0  0  0  0  0  0  0  0  0  0
    1.3949    2.3575   -0.0259 H   0  0  0  0  0  0  0  0  0  0  0  0
    4.1109    2.3124    0.1754 H   0  0  0  0  0  0  0  0  0  0  0  0
    0.3144   -1.5191   -0.2474 H   0  0  0  0  0  0  0  0  0  0  0  0
  1 13  1  0  0  0  0
  1 15  1  0  0  0  0
  2 12  2  0  0  0  0
  3  8  1  0  0  0  0
  4  8  2  0  0  0  0
  5  9  1  0  0  0  0
  5 10  1  0  0  0  0
  5 11  1  0  0  0  0
  6  7  1  0  0  0  0
  6 12  1  0  0  0  0
  6 26  1  0  0  0  0
  7 17  2  0  0  0  0
  8 15  1  0  0  0  0
  9 12  1  0  0  0  0
  9 18  1  0  0  0  0
  9 19  1  0  0  0  0
 10 20  1  0  0  0  0
 10 21  1  0  0  0  0
 10 22  1  0  0  0  0
 11 23  1  0  0  0  0
 11 24  1  0  0  0  0
 11 25  1  0  0  0  0
 13 14  2  0  0  0  0
 13 17  1  0  0  0  0
 14 16  1  0  0  0  0
 14 27  1  0  0  0  0
 15 16  2  0  0  0  0
 16 28  1  0  0  0  0
 17 29  1  0  0  0  0
M  CHG  2   3  -1   8   1
M  END
> <PUBCHEM_COMPOUND_CID>
14143

> <PUBCHEM_CONFORMER_RMSD>
0.8

> <PUBCHEM_CONFORMER_DIVERSEORDER>
1
4
5
7
2
3
6

> <PUBCHEM_MMFF94_PARTIAL_CHARGES>
21
1 -0.28
10 0.27
11 0.27
12 0.57
13 0.05
14 -0.15
15 0.22
16 -0.15
17 0.47
2 -0.57
26 0.37
27 0.15
28 0.15
29 0.06
3 -0.52
4 -0.52
5 -0.81
6 -0.37
7 -0.51
8 0.96
9 0.33

> <PUBCHEM_EFFECTIVE_ROTOR_COUNT>
6

> <PUBCHEM_PHARMACOPHORE_FEATURES>
9
1 1 acceptor
1 2 acceptor
1 3 acceptor
1 3 anion
1 4 acceptor
1 5 cation
1 6 donor
1 7 acceptor
5 1 13 14 15 16 rings

> <PUBCHEM_HEAVY_ATOM_COUNT>
17

> <PUBCHEM_ATOM_DEF_STEREO_COUNT>
0

> <PUBCHEM_ATOM_UDEF_STEREO_COUNT>
0

> <PUBCHEM_BOND_DEF_STEREO_COUNT>
0

> <PUBCHEM_BOND_UDEF_STEREO_COUNT>
1

> <PUBCHEM_ISOTOPIC_ATOM_COUNT>
0

> <PUBCHEM_COMPONENT_COUNT>
1

> <PUBCHEM_CACTVS_TAUTO_COUNT>
2

> <PUBCHEM_CONFORMER_ID>
0000373F00000001

> <PUBCHEM_MMFF94_ENERGY>
31.7275

> <PUBCHEM_FEATURE_SELFOVERLAP>
45.767

> <PUBCHEM_SHAPE_FINGERPRINT>
10354089 29 18260829289341818192
10366900 7 15123511415012466077
10912923 1 17822291241319690253
10968037 39 10447927274394816523
11401426 45 6338954464365192893
117890 112 7853858286632992187
12236239 1 17894347786995240555
12616971 3 17822297855284691365
12714333 28 8286201647494734343
12815109 37 8718829790658536423
13073987 5 18338803415742004872
13167372 99 18040991873664734673
13533116 47 14056989568839408446
1420 363 17632573851389280387
14251718 22 13614517450516243739
14251764 18 18260831475522441340
14341114 176 18343298145940265997
14350574 20 18202002122646692676
14455015 7 18059851779219478259
15048467 5 8502653709783275835
15880784 105 18341326687775101803
17834076 25 15140679176482639703
17844677 252 18273210902641271453
18222031 100 16415200053051257349
19433438 28 18272093798716557493
19489759 90 16917073261574881437
200 152 18260551133984567265
20281389 69 17748826315379764921
20645477 70 18411419548992117974
21150785 3 16415470541744549158
21267235 1 18409444800090466924
220451 1 17822013099285230438
23035841 295 15841833348312535969
23402539 116 14129065823961876676
23557571 272 16988287572753698983
23559900 14 10879701058105653919
300161 21 8502654792267891933
42 15 18411136935315960189
4214541 1 18411140259773861901
42788 4 18409449176635800189
465052 167 18410574007265046086
5104073 3 18188213087209302811
542803 24 16732984210677729737
54446538 1 17821727222172821601
7495541 125 17676773054921315603

> <PUBCHEM_SHAPE_MULTIPOLES>
306.45
16.14
1.28
0.79
6.29
0.1
-0.21
-3.94
-2.55
-1
0.03
0.93
0.06
-0.23

> <PUBCHEM_SHAPE_SELFOVERLAP>
626.081

> <PUBCHEM_SHAPE_VOLUME>
179.4

> <PUBCHEM_COORDINATE_TYPE>
2
5
10

$$$$

