17396500
  -OEChem-06241222573D

 58 61  0     1  0  0  0  0  0999 V2000
   -3.7432    1.9399    0.4445 S   0  0  0  0  0  0  0  0  0  0  0  0
   -4.0419    2.8486    1.5472 O   0  0  0  0  0  0  0  0  0  0  0  0
   -4.3370    2.2191   -0.8594 O   0  0  0  0  0  0  0  0  0  0  0  0
    2.9461   -2.8652    0.3406 O   0  0  0  0  0  0  0  0  0  0  0  0
   -6.0375   -0.7233   -0.9191 O   0  0  0  0  0  0  0  0  0  0  0  0
    2.7930    2.8334   -0.2008 O   0  0  0  0  0  0  0  0  0  0  0  0
   -4.1621    0.3239    0.9306 N   0  0  1  0  0  0  0  0  0  0  0  0
    2.8331    0.4816   -0.4165 N   0  0  0  0  0  0  0  0  0  0  0  0
   -2.0097    1.8838    0.2468 C   0  0  0  0  0  0  0  0  0  0  0  0
    0.7605    1.7917   -0.0693 C   0  0  0  0  0  0  0  0  0  0  0  0
   -3.8183   -0.7260   -0.0081 C   0  0  0  0  0  0  0  0  0  0  0  0
    2.0351   -0.7546   -0.4409 C   0  0  0  0  0  0  0  0  0  0  0  0
   -1.1842    1.7554    1.3639 C   0  0  0  0  0  0  0  0  0  0  0  0
   -1.4502    1.9664   -1.0282 C   0  0  0  0  0  0  0  0  0  0  0  0
    2.2043    1.7430   -0.2348 C   0  0  0  0  0  0  0  0  0  0  0  0
    0.2009    1.7092    1.2057 C   0  0  0  0  0  0  0  0  0  0  0  0
   -0.0651    1.9203   -1.1863 C   0  0  0  0  0  0  0  0  0  0  0  0
    4.2733    0.4120   -0.5792 C   0  0  0  0  0  0  0  0  0  0  0  0
   -4.0160   -0.0105    2.3719 C   0  0  0  0  0  0  0  0  0  0  0  0
   -4.7673   -1.2166   -0.9049 C   0  0  0  0  0  0  0  0  0  0  0  0
    2.4564   -1.6460    0.6872 C   0  0  0  0  0  0  0  0  0  0  0  0
   -2.5238   -1.2458   -0.0088 C   0  0  0  0  0  0  0  0  0  0  0  0
    5.0909    1.3654    0.0275 C   0  0  0  0  0  0  0  0  0  0  0  0
    4.8403   -0.6091   -1.3418 C   0  0  0  0  0  0  0  0  0  0  0  0
   -4.4220   -2.2270   -1.8022 C   0  0  0  0  0  0  0  0  0  0  0  0
   -2.1786   -2.2564   -0.9062 C   0  0  0  0  0  0  0  0  0  0  0  0
    2.4567   -1.4963    2.0545 C   0  0  0  0  0  0  0  0  0  0  0  0
   -3.1276   -2.7470   -1.8029 C   0  0  0  0  0  0  0  0  0  0  0  0
    6.4755    1.2977   -0.1283 C   0  0  0  0  0  0  0  0  0  0  0  0
    6.2247   -0.6769   -1.4975 C   0  0  0  0  0  0  0  0  0  0  0  0
    7.0424    0.2765   -0.8907 C   0  0  0  0  0  0  0  0  0  0  0  0
    2.9801   -2.7008    2.5819 C   0  0  0  0  0  0  0  0  0  0  0  0
    3.2625   -3.5008    1.4993 C   0  0  0  0  0  0  0  0  0  0  0  0
   -6.9913   -1.3656   -0.0757 C   0  0  0  0  0  0  0  0  0  0  0  0
    2.1575   -1.2420   -1.4137 H   0  0  0  0  0  0  0  0  0  0  0  0
    0.9634   -0.5761   -0.3396 H   0  0  0  0  0  0  0  0  0  0  0  0
   -1.5976    1.7077    2.3667 H   0  0  0  0  0  0  0  0  0  0  0  0
   -2.0682    2.0624   -1.9159 H   0  0  0  0  0  0  0  0  0  0  0  0
    0.8347    1.6149    2.0835 H   0  0  0  0  0  0  0  0  0  0  0  0
    0.3604    1.9835   -2.1845 H   0  0  0  0  0  0  0  0  0  0  0  0
   -4.4723    0.7646    2.9936 H   0  0  0  0  0  0  0  0  0  0  0  0
   -2.9709   -0.1412    2.6595 H   0  0  0  0  0  0  0  0  0  0  0  0
   -4.5515   -0.9420    2.5859 H   0  0  0  0  0  0  0  0  0  0  0  0
   -1.7715   -0.9104    0.6969 H   0  0  0  0  0  0  0  0  0  0  0  0
    4.7150    2.1337    0.6938 H   0  0  0  0  0  0  0  0  0  0  0  0
    4.2415   -1.3592   -1.8477 H   0  0  0  0  0  0  0  0  0  0  0  0
   -5.1559   -2.6141   -2.5040 H   0  0  0  0  0  0  0  0  0  0  0  0
   -1.1725   -2.6656   -0.9019 H   0  0  0  0  0  0  0  0  0  0  0  0
    2.1231   -0.6294    2.6062 H   0  0  0  0  0  0  0  0  0  0  0  0
   -2.8590   -3.5348   -2.5006 H   0  0  0  0  0  0  0  0  0  0  0  0
    7.1141    2.0293    0.3584 H   0  0  0  0  0  0  0  0  0  0  0  0
    6.6665   -1.4698   -2.0940 H   0  0  0  0  0  0  0  0  0  0  0  0
    8.1205    0.2219   -1.0093 H   0  0  0  0  0  0  0  0  0  0  0  0
    3.1328   -2.9539    3.6211 H   0  0  0  0  0  0  0  0  0  0  0  0
    3.6702   -4.4951    1.3904 H   0  0  0  0  0  0  0  0  0  0  0  0
   -7.1171   -2.4130   -0.3680 H   0  0  0  0  0  0  0  0  0  0  0  0
   -6.6869   -1.3028    0.9735 H   0  0  0  0  0  0  0  0  0  0  0  0
   -7.9503   -0.8532   -0.1918 H   0  0  0  0  0  0  0  0  0  0  0  0
  1  2  2  0  0  0  0
  1  3  2  0  0  0  0
  1  7  1  0  0  0  0
  1  9  1  0  0  0  0
  4 21  1  0  0  0  0
  4 33  1  0  0  0  0
  5 20  1  0  0  0  0
  5 34  1  0  0  0  0
  6 15  2  0  0  0  0
  7 11  1  0  0  0  0
  7 19  1  0  0  0  0
  8 12  1  0  0  0  0
  8 15  1  0  0  0  0
  8 18  1  0  0  0  0
  9 13  2  0  0  0  0
  9 14  1  0  0  0  0
 10 15  1  0  0  0  0
 10 16  2  0  0  0  0
 10 17  1  0  0  0  0
 11 20  1  0  0  0  0
 11 22  2  0  0  0  0
 12 21  1  0  0  0  0
 12 35  1  0  0  0  0
 12 36  1  0  0  0  0
 13 16  1  0  0  0  0
 13 37  1  0  0  0  0
 14 17  2  0  0  0  0
 14 38  1  0  0  0  0
 16 39  1  0  0  0  0
 17 40  1  0  0  0  0
 18 23  2  0  0  0  0
 18 24  1  0  0  0  0
 19 41  1  0  0  0  0
 19 42  1  0  0  0  0
 19 43  1  0  0  0  0
 20 25  2  0  0  0  0
 21 27  2  0  0  0  0
 22 26  1  0  0  0  0
 22 44  1  0  0  0  0
 23 29  1  0  0  0  0
 23 45  1  0  0  0  0
 24 30  2  0  0  0  0
 24 46  1  0  0  0  0
 25 28  1  0  0  0  0
 25 47  1  0  0  0  0
 26 28  2  0  0  0  0
 26 48  1  0  0  0  0
 27 32  1  0  0  0  0
 27 49  1  0  0  0  0
 28 50  1  0  0  0  0
 29 31  2  0  0  0  0
 29 51  1  0  0  0  0
 30 31  1  0  0  0  0
 30 52  1  0  0  0  0
 31 53  1  0  0  0  0
 32 33  2  0  0  0  0
 32 54  1  0  0  0  0
 33 55  1  0  0  0  0
 34 56  1  0  0  0  0
 34 57  1  0  0  0  0
 34 58  1  0  0  0  0
M  END
> <PUBCHEM_COMPOUND_CID>
17396500

> <PUBCHEM_CONFORMER_RMSD>
1.2

> <PUBCHEM_CONFORMER_DIVERSEORDER>
3
136
31
135
64
36
51
123
75
105
118
113
126
34
170
153
174
158
143
48
90
160
59
109
122
74
54
21
76
131
104
95
177
182
130
58
87
50
125
142
166
184
68
129
63
144
168
70
56
82
38
14
132
115
85
15
55
102
134
133
165
9
148
139
120
179
72
175
6
185
40
159
100
79
169
121
49
41
128
173
156
84
98
13
138
103
1
77
167
81
39
127
44
97
163
7
24
80
62
67
30
66
180
92
29
116
32
23
151
157
89
91
27
140
124
171
57
26
83
149
93
119
117
4
12
96
162
111
19
52
150
8
99
35
11
33
147
101
181
37
155
17
86
137
114
107
53
106
88
178
152
18
60
43
94
69
5
176
20
25
61
65
110
154
2
46
164
108
22
161
73
112
16
141
145
183
78
146
10
28
47
42
45
172
71

> <PUBCHEM_MMFF94_PARTIAL_CHARGES>
50
1 1.45
10 0.09
11 0.2
12 0.48
13 -0.15
14 -0.15
15 0.54
16 -0.15
17 -0.15
18 0.12
19 0.36
2 -0.65
20 0.08
21 -0.04
22 -0.15
23 -0.15
24 -0.15
25 -0.15
26 -0.15
27 -0.15
28 -0.15
29 -0.15
3 -0.65
30 -0.15
31 -0.15
32 -0.15
33 -0.01
34 0.28
37 0.15
38 0.15
39 0.15
4 -0.28
40 0.15
44 0.15
45 0.15
46 0.15
47 0.15
48 0.15
49 0.15
5 -0.36
50 0.15
51 0.15
52 0.15
53 0.15
54 0.15
55 0.15
6 -0.57
7 -0.69
8 -0.48
9 -0.01

> <PUBCHEM_EFFECTIVE_ROTOR_COUNT>
9

> <PUBCHEM_PHARMACOPHORE_FEATURES>
9
1 2 acceptor
1 3 acceptor
1 4 acceptor
1 5 acceptor
1 6 acceptor
5 4 21 27 32 33 rings
6 11 20 22 25 26 28 rings
6 18 23 24 29 30 31 rings
6 9 10 13 14 16 17 rings

> <PUBCHEM_HEAVY_ATOM_COUNT>
34

> <PUBCHEM_ATOM_DEF_STEREO_COUNT>
0

> <PUBCHEM_ATOM_UDEF_STEREO_COUNT>
0

> <PUBCHEM_BOND_DEF_STEREO_COUNT>
0

> <PUBCHEM_BOND_UDEF_STEREO_COUNT>
0

> <PUBCHEM_ISOTOPIC_ATOM_COUNT>
0

> <PUBCHEM_COMPONENT_COUNT>
1

> <PUBCHEM_CACTVS_TAUTO_COUNT>
1

> <PUBCHEM_CONFORMER_ID>
0109731400000003

> <PUBCHEM_MMFF94_ENERGY>
118.2093

> <PUBCHEM_FEATURE_SELFOVERLAP>
45.688

> <PUBCHEM_SHAPE_FINGERPRINT>
11007060 377 18194674879309245824
11135926 11 17775560957936739554
11513181 2 18114460157879423927
117089 54 17979911615062454683
12788726 201 18333452053947499275
13631057 29 18334579001467685292
14394314 77 18335132108052877441
14705955 166 14924485534436055683
14840074 17 18412257324658618135
14931854 50 18342462538530734815
14950920 106 5328457159397080423
15001296 14 18263933132972834543
15297060 5 17385991884671184931
15484559 13 15397712323203980228
15537594 2 18341603858477046403
17809404 112 16128661859544025099
19311894 1 18121495752919330710
19319366 153 18060140916772078298
20028762 73 18334294237332146174
20511986 3 18342184400590378532
20764821 26 18045499974017281831
20775530 9 18118700820368302175
208703 8 17607259662261366583
21033648 144 15768910365656805012
21033648 29 15285363937568103259
21054139 6 18413389813657014572
21133410 171 17324421363893796599
22393880 68 18410579496016913980
23516275 137 17830137510804391346
23559900 14 17895483514299505137
4098825 35 16916801724482723839
463206 1 18192716635803473739
469060 322 17704073976004947348
6823239 73 17386013844980933514

> <PUBCHEM_SHAPE_MULTIPOLES>
664.24
15.72
3.76
1.92
4.48
0.99
-0.81
2.7
4.35
-0.49
-0.72
-0.21
1.12
-3.17

> <PUBCHEM_SHAPE_SELFOVERLAP>
1428.258

> <PUBCHEM_SHAPE_VOLUME>
366.7

> <PUBCHEM_COORDINATE_TYPE>
2
5
10

$$$$

