6246
  -OEChem-06261201122D

 51 51  0     0  0  0  0  0  0999 V2000
   10.5466    8.5611    0.0000 Cl  0  0  0  0  0  0  0  0  0  0  0  0
    0.0000    5.6035    0.0000 Cl  0  0  0  0  0  0  0  0  0  0  0  0
    6.2810   11.2070    0.0000 Cl  0  0  0  0  0  0  0  0  0  0  0  0
    3.5524    3.5369    0.0000 O   0  0  0  0  0  0  0  0  0  0  0  0
    6.1504    2.0369    0.0000 N   0  0  0  0  0  0  0  0  0  0  0  0
    7.0165    5.5369    0.0000 N   0  0  0  0  0  0  0  0  0  0  0  0
    7.0165    8.5369    0.0000 N   0  0  0  0  0  0  0  0  0  0  0  0
    5.2844    2.5369    0.0000 C   0  0  0  0  0  0  0  0  0  0  0  0
    5.2844    3.5369    0.0000 C   0  0  0  0  0  0  0  0  0  0  0  0
    6.1504    1.0369    0.0000 C   0  0  0  0  0  0  0  0  0  0  0  0
    7.0165    2.5369    0.0000 C   0  0  0  0  0  0  0  0  0  0  0  0
    6.1504    4.0369    0.0000 C   0  0  0  0  0  0  0  0  0  0  0  0
    6.1504    5.0369    0.0000 C   0  0  0  0  0  0  0  0  0  0  0  0
    4.4184    4.0369    0.0000 C   0  0  0  0  0  0  0  0  0  0  0  0
    7.8825    2.0369    0.0000 C   0  0  0  0  0  0  0  0  0  0  0  0
    7.0165    0.5369    0.0000 C   0  0  0  0  0  0  0  0  0  0  0  0
    5.2844    5.5369    0.0000 C   0  0  0  0  0  0  0  0  0  0  0  0
    4.4184    5.0369    0.0000 C   0  0  0  0  0  0  0  0  0  0  0  0
    7.0165    6.5369    0.0000 C   0  0  0  0  0  0  0  0  0  0  0  0
    7.8825    7.0369    0.0000 C   0  0  0  0  0  0  0  0  0  0  0  0
    7.8825    8.0369    0.0000 C   0  0  0  0  0  0  0  0  0  0  0  0
    6.1504    7.0369    0.0000 C   0  0  0  0  0  0  0  0  0  0  0  0
    8.7764    6.5023    0.0000 C   0  0  0  0  0  0  0  0  0  0  0  0
    8.7764    8.5716    0.0000 C   0  0  0  0  0  0  0  0  0  0  0  0
    6.1504    8.0369    0.0000 C   0  0  0  0  0  0  0  0  0  0  0  0
    9.6825    7.0161    0.0000 C   0  0  0  0  0  0  0  0  0  0  0  0
    9.6825    8.0578    0.0000 C   0  0  0  0  0  0  0  0  0  0  0  0
    4.6738    2.6446    0.0000 H   0  0  0  0  0  0  0  0  0  0  0  0
    5.0724    1.9543    0.0000 H   0  0  0  0  0  0  0  0  0  0  0  0
    5.5399    1.1446    0.0000 H   0  0  0  0  0  0  0  0  0  0  0  0
    5.9384    0.4543    0.0000 H   0  0  0  0  0  0  0  0  0  0  0  0
    7.4150    3.0119    0.0000 H   0  0  0  0  0  0  0  0  0  0  0  0
    6.6179    3.0119    0.0000 H   0  0  0  0  0  0  0  0  0  0  0  0
    6.6874    3.7269    0.0000 H   0  0  0  0  0  0  0  0  0  0  0  0
    7.5725    1.5000    0.0000 H   0  0  0  0  0  0  0  0  0  0  0  0
    8.4194    1.7269    0.0000 H   0  0  0  0  0  0  0  0  0  0  0  0
    6.7065    0.0000    0.0000 H   0  0  0  0  0  0  0  0  0  0  0  0
    7.5534    0.2269    0.0000 H   0  0  0  0  0  0  0  0  0  0  0  0
    7.3265    1.0739    0.0000 H   0  0  0  0  0  0  0  0  0  0  0  0
    8.1925    2.5739    0.0000 H   0  0  0  0  0  0  0  0  0  0  0  0
    7.5534    5.2269    0.0000 H   0  0  0  0  0  0  0  0  0  0  0  0
    5.2844    6.1569    0.0000 H   0  0  0  0  0  0  0  0  0  0  0  0
    3.8814    5.3469    0.0000 H   0  0  0  0  0  0  0  0  0  0  0  0
    5.6135    6.7269    0.0000 H   0  0  0  0  0  0  0  0  0  0  0  0
    8.7692    5.8823    0.0000 H   0  0  0  0  0  0  0  0  0  0  0  0
    3.0154    3.8469    0.0000 H   0  0  0  0  0  0  0  0  0  0  0  0
    8.7692    9.1916    0.0000 H   0  0  0  0  0  0  0  0  0  0  0  0
    5.6135    8.3469    0.0000 H   0  0  0  0  0  0  0  0  0  0  0  0
   10.2182    6.7040    0.0000 H   0  0  0  0  0  0  0  0  0  0  0  0
    1.0000    5.6035    0.0000 H   0  0  0  0  0  0  0  0  0  0  0  0
    7.2810   11.2070    0.0000 H   0  0  0  0  0  0  0  0  0  0  0  0
  1 27  1  0  0  0  0
  2 50  1  0  0  0  0
  3 51  1  0  0  0  0
  4 14  1  0  0  0  0
  4 46  1  0  0  0  0
  5  8  1  0  0  0  0
  5 10  1  0  0  0  0
  5 11  1  0  0  0  0
  6 13  1  0  0  0  0
  6 19  1  0  0  0  0
  6 41  1  0  0  0  0
  7 21  2  0  0  0  0
  7 25  1  0  0  0  0
  8  9  1  0  0  0  0
  8 28  1  0  0  0  0
  8 29  1  0  0  0  0
  9 12  1  0  0  0  0
  9 14  2  0  0  0  0
 10 16  1  0  0  0  0
 10 30  1  0  0  0  0
 10 31  1  0  0  0  0
 11 15  1  0  0  0  0
 11 32  1  0  0  0  0
 11 33  1  0  0  0  0
 12 13  2  0  0  0  0
 12 34  1  0  0  0  0
 13 17  1  0  0  0  0
 14 18  1  0  0  0  0
 15 35  1  0  0  0  0
 15 36  1  0  0  0  0
 15 40  1  0  0  0  0
 16 37  1  0  0  0  0
 16 38  1  0  0  0  0
 16 39  1  0  0  0  0
 17 18  2  0  0  0  0
 17 42  1  0  0  0  0
 18 43  1  0  0  0  0
 19 20  2  0  0  0  0
 19 22  1  0  0  0  0
 20 21  1  0  0  0  0
 20 23  1  0  0  0  0
 21 24  1  0  0  0  0
 22 25  2  0  0  0  0
 22 44  1  0  0  0  0
 23 26  2  0  0  0  0
 23 45  1  0  0  0  0
 24 27  2  0  0  0  0
 24 47  1  0  0  0  0
 25 48  1  0  0  0  0
 26 27  1  0  0  0  0
 26 49  1  0  0  0  0
M  END
> <PUBCHEM_COMPOUND_CID>
6246

> <PUBCHEM_COMPOUND_CANONICALIZED>
1

> <PUBCHEM_CACTVS_COMPLEXITY>
406

> <PUBCHEM_CACTVS_HBOND_ACCEPTOR>
4

> <PUBCHEM_CACTVS_HBOND_DONOR>
4

> <PUBCHEM_CACTVS_ROTATABLE_BOND>
6

> <PUBCHEM_CACTVS_SUBSKEYS>
AAADceB7IAAGAAAAAAAAAAAAAAAAAAAAAAA8YIAAAAAAAACx9AAAHgIQCAAADA7BniQ+xvPIEgCgAzRnRACCgCAxJyAI2CA+bpgIJuLD09OEdAhm0BHI2AewwKAOBEAAQAIKAAAIgACABBQAAAAAAAAAAA==

> <PUBCHEM_IUPAC_OPENEYE_NAME>
4-[(7-chloro-4-quinolyl)amino]-2-(diethylaminomethyl)phenol dihydrochloride

> <PUBCHEM_IUPAC_CAS_NAME>
4-[(7-chloro-4-quinolinyl)amino]-2-(diethylaminomethyl)phenol dihydrochloride

> <PUBCHEM_IUPAC_NAME>
4-[(7-chloroquinolin-4-yl)amino]-2-(diethylaminomethyl)phenol dihydrochloride

> <PUBCHEM_IUPAC_SYSTEMATIC_NAME>
4-[(7-chloranylquinolin-4-yl)amino]-2-(diethylaminomethyl)phenol dihydrochloride

> <PUBCHEM_IUPAC_TRADITIONAL_NAME>
4-[(7-chloro-4-quinolyl)amino]-2-(diethylaminomethyl)phenol dihydrochloride

> <PUBCHEM_IUPAC_INCHI>
InChI=1S/C20H22ClN3O.2ClH/c1-3-24(4-2)13-14-11-16(6-8-20(14)25)23-18-9-10-22-19-12-15(21)5-7-17(18)19;;/h5-12,25H,3-4,13H2,1-2H3,(H,22,23);2*1H

> <PUBCHEM_IUPAC_INCHIKEY>
ROEBJVHPINPMKL-UHFFFAOYSA-N

> <PUBCHEM_EXACT_MASS>
427.098495

> <PUBCHEM_MOLECULAR_FORMULA>
C20H24Cl3N3O

> <PUBCHEM_MOLECULAR_WEIGHT>
428.78306

> <PUBCHEM_OPENEYE_CAN_SMILES>
CCN(CC)CC1=C(C=CC(=C1)NC2=C3C=CC(=CC3=NC=C2)Cl)O.Cl.Cl

> <PUBCHEM_OPENEYE_ISO_SMILES>
CCN(CC)CC1=C(C=CC(=C1)NC2=C3C=CC(=CC3=NC=C2)Cl)O.Cl.Cl

> <PUBCHEM_CACTVS_TPSA>
48.4

> <PUBCHEM_MONOISOTOPIC_WEIGHT>
427.098495

> <PUBCHEM_TOTAL_CHARGE>
0

> <PUBCHEM_HEAVY_ATOM_COUNT>
27

> <PUBCHEM_ATOM_DEF_STEREO_COUNT>
0

> <PUBCHEM_ATOM_UDEF_STEREO_COUNT>
0

> <PUBCHEM_BOND_DEF_STEREO_COUNT>
0

> <PUBCHEM_BOND_UDEF_STEREO_COUNT>
0

> <PUBCHEM_ISOTOPIC_ATOM_COUNT>
0

> <PUBCHEM_COMPONENT_COUNT>
3

> <PUBCHEM_CACTVS_TAUTO_COUNT>
13

> <PUBCHEM_COORDINATE_TYPE>
1
5
255

> <PUBCHEM_BONDANNOTATIONS>
12  13  8
13  17  8
14  18  8
17  18  8
19  20  8
19  22  8
20  21  8
20  23  8
21  24  8
22  25  8
23  26  8
24  27  8
26  27  8
7  21  8
7  25  8
9  12  8
9  14  8

$$$$

