51090877
  -OEChem-06241223002D

 42 42  0     0  0  0  0  0  0999 V2000
    7.1962    6.2500    0.0000 F   0  0  0  0  0  0  0  0  0  0  0  0
    8.1962    5.2500    0.0000 F   0  0  0  0  0  0  0  0  0  0  0  0
    6.1962    5.2500    0.0000 F   0  0  0  0  0  0  0  0  0  0  0  0
    4.5981   -0.2500    0.0000 O   0  0  0  0  0  0  0  0  0  0  0  0
    5.4641   -3.7500    0.0000 O   0  0  0  0  0  0  0  0  0  0  0  0
    2.0000   -4.7500    0.0000 O   0  0  0  0  0  0  0  0  0  0  0  0
    6.3301   -0.2500    0.0000 N   0  0  0  0  0  0  0  0  0  0  0  0
    4.5981   -2.2500    0.0000 N   0  0  0  0  0  0  0  0  0  0  0  0
    3.7320   -4.7500    0.0000 N   0  0  0  0  0  0  0  0  0  0  0  0
    7.1962    1.2500    0.0000 C   0  0  0  0  0  0  0  0  0  0  0  0
    6.3301    0.7500    0.0000 C   0  0  0  0  0  0  0  0  0  0  0  0
    7.1962    2.2500    0.0000 C   0  0  0  0  0  0  0  0  0  0  0  0
    8.0622    2.7500    0.0000 C   0  0  0  0  0  0  0  0  0  0  0  0
    6.3301    2.7500    0.0000 C   0  0  0  0  0  0  0  0  0  0  0  0
    7.1962    4.2500    0.0000 C   0  0  0  0  0  0  0  0  0  0  0  0
    8.0622    3.7500    0.0000 C   0  0  0  0  0  0  0  0  0  0  0  0
    6.3301    3.7500    0.0000 C   0  0  0  0  0  0  0  0  0  0  0  0
    5.4641   -0.7500    0.0000 C   0  0  0  0  0  0  0  0  0  0  0  0
    5.4641   -1.7500    0.0000 C   0  0  0  0  0  0  0  0  0  0  0  0
    7.1962    5.2500    0.0000 C   0  0  0  0  0  0  0  0  0  0  0  0
    4.5981   -3.2500    0.0000 C   0  0  0  0  0  0  0  0  0  0  0  0
    3.7320   -3.7500    0.0000 C   0  0  0  0  0  0  0  0  0  0  0  0
    2.8660   -5.2500    0.0000 C   0  0  0  0  0  0  0  0  0  0  0  0
    2.8660   -6.2500    0.0000 C   0  0  0  0  0  0  0  0  0  0  0  0
    7.4082    0.6674    0.0000 H   0  0  0  0  0  0  0  0  0  0  0  0
    7.8067    1.3577    0.0000 H   0  0  0  0  0  0  0  0  0  0  0  0
    6.1181    1.3326    0.0000 H   0  0  0  0  0  0  0  0  0  0  0  0
    5.7196    0.6423    0.0000 H   0  0  0  0  0  0  0  0  0  0  0  0
    6.8671   -0.5600    0.0000 H   0  0  0  0  0  0  0  0  0  0  0  0
    8.5991    2.4400    0.0000 H   0  0  0  0  0  0  0  0  0  0  0  0
    5.7932    2.4400    0.0000 H   0  0  0  0  0  0  0  0  0  0  0  0
    8.5991    4.0600    0.0000 H   0  0  0  0  0  0  0  0  0  0  0  0
    5.7932    4.0600    0.0000 H   0  0  0  0  0  0  0  0  0  0  0  0
    5.6762   -2.3326    0.0000 H   0  0  0  0  0  0  0  0  0  0  0  0
    6.0747   -1.6423    0.0000 H   0  0  0  0  0  0  0  0  0  0  0  0
    4.0611   -1.9400    0.0000 H   0  0  0  0  0  0  0  0  0  0  0  0
    3.5200   -3.1674    0.0000 H   0  0  0  0  0  0  0  0  0  0  0  0
    3.1215   -3.8577    0.0000 H   0  0  0  0  0  0  0  0  0  0  0  0
    4.2690   -5.0600    0.0000 H   0  0  0  0  0  0  0  0  0  0  0  0
    2.2460   -6.2500    0.0000 H   0  0  0  0  0  0  0  0  0  0  0  0
    2.8660   -6.8700    0.0000 H   0  0  0  0  0  0  0  0  0  0  0  0
    3.4860   -6.2500    0.0000 H   0  0  0  0  0  0  0  0  0  0  0  0
  1 20  1  0  0  0  0
  2 20  1  0  0  0  0
  3 20  1  0  0  0  0
  4 18  2  0  0  0  0
  5 21  2  0  0  0  0
  6 23  2  0  0  0  0
  7 11  1  0  0  0  0
  7 18  1  0  0  0  0
  7 29  1  0  0  0  0
  8 19  1  0  0  0  0
  8 21  1  0  0  0  0
  8 36  1  0  0  0  0
  9 22  1  0  0  0  0
  9 23  1  0  0  0  0
  9 39  1  0  0  0  0
 10 11  1  0  0  0  0
 10 12  1  0  0  0  0
 10 25  1  0  0  0  0
 10 26  1  0  0  0  0
 11 27  1  0  0  0  0
 11 28  1  0  0  0  0
 12 13  2  0  0  0  0
 12 14  1  0  0  0  0
 13 16  1  0  0  0  0
 13 30  1  0  0  0  0
 14 17  2  0  0  0  0
 14 31  1  0  0  0  0
 15 16  2  0  0  0  0
 15 17  1  0  0  0  0
 15 20  1  0  0  0  0
 16 32  1  0  0  0  0
 17 33  1  0  0  0  0
 18 19  1  0  0  0  0
 19 34  1  0  0  0  0
 19 35  1  0  0  0  0
 21 22  1  0  0  0  0
 22 37  1  0  0  0  0
 22 38  1  0  0  0  0
 23 24  1  0  0  0  0
 24 40  1  0  0  0  0
 24 41  1  0  0  0  0
 24 42  1  0  0  0  0
M  END
> <PUBCHEM_COMPOUND_CID>
51090877

> <PUBCHEM_COMPOUND_CANONICALIZED>
1

> <PUBCHEM_CACTVS_COMPLEXITY>
447

> <PUBCHEM_CACTVS_HBOND_ACCEPTOR>
6

> <PUBCHEM_CACTVS_HBOND_DONOR>
3

> <PUBCHEM_CACTVS_ROTATABLE_BOND>
7

> <PUBCHEM_CACTVS_SUBSKEYS>
AAADceBzMYAAAAAAAAAAAAAAAAAAAAAAAAAwAAAAAAAAAAABAAAAHwAQAAAADADBmBQyAILAAACIAiFSEAACAAAgAAAIiICIAIgIYCKAkTGUIAAglgCIiAcQgMAOQAAAAAAAAACAAAAAAAAAAAAAAAAAAA==

> <PUBCHEM_IUPAC_OPENEYE_NAME>
2-acetamido-N-[2-oxo-2-[2-[4-(trifluoromethyl)phenyl]ethylamino]ethyl]acetamide

> <PUBCHEM_IUPAC_CAS_NAME>
2-acetamido-N-[2-oxo-2-[2-[4-(trifluoromethyl)phenyl]ethylamino]ethyl]acetamide

> <PUBCHEM_IUPAC_NAME>
2-acetamido-N-[2-oxo-2-[2-[4-(trifluoromethyl)phenyl]ethylamino]ethyl]acetamide

> <PUBCHEM_IUPAC_SYSTEMATIC_NAME>
2-acetamido-N-[2-oxidanylidene-2-[2-[4-(trifluoromethyl)phenyl]ethylamino]ethyl]ethanamide

> <PUBCHEM_IUPAC_TRADITIONAL_NAME>
2-acetamido-N-[2-keto-2-[2-[4-(trifluoromethyl)phenyl]ethylamino]ethyl]acetamide

> <PUBCHEM_IUPAC_INCHI>
InChI=1S/C15H18F3N3O3/c1-10(22)20-8-14(24)21-9-13(23)19-7-6-11-2-4-12(5-3-11)15(16,17)18/h2-5H,6-9H2,1H3,(H,19,23)(H,20,22)(H,21,24)

> <PUBCHEM_IUPAC_INCHIKEY>
UTLLRSPRKKFRJM-UHFFFAOYSA-N

> <PUBCHEM_XLOGP3_AA>
1.1

> <PUBCHEM_EXACT_MASS>
345.130026

> <PUBCHEM_MOLECULAR_FORMULA>
C15H18F3N3O3

> <PUBCHEM_MOLECULAR_WEIGHT>
345.31693

> <PUBCHEM_OPENEYE_CAN_SMILES>
CC(=O)NCC(=O)NCC(=O)NCCC1=CC=C(C=C1)C(F)(F)F

> <PUBCHEM_OPENEYE_ISO_SMILES>
CC(=O)NCC(=O)NCC(=O)NCCC1=CC=C(C=C1)C(F)(F)F

> <PUBCHEM_CACTVS_TPSA>
87.3

> <PUBCHEM_MONOISOTOPIC_WEIGHT>
345.130026

> <PUBCHEM_TOTAL_CHARGE>
0

> <PUBCHEM_HEAVY_ATOM_COUNT>
24

> <PUBCHEM_ATOM_DEF_STEREO_COUNT>
0

> <PUBCHEM_ATOM_UDEF_STEREO_COUNT>
0

> <PUBCHEM_BOND_DEF_STEREO_COUNT>
0

> <PUBCHEM_BOND_UDEF_STEREO_COUNT>
0

> <PUBCHEM_ISOTOPIC_ATOM_COUNT>
0

> <PUBCHEM_COMPONENT_COUNT>
1

> <PUBCHEM_CACTVS_TAUTO_COUNT>
8

> <PUBCHEM_COORDINATE_TYPE>
1
5
255

> <PUBCHEM_BONDANNOTATIONS>
12  13  8
12  14  8
13  16  8
14  17  8
15  16  8
15  17  8

$$$$

