9874
  -OEChem-06261204092D

 29 28  0     0  0  0  0  0  0999 V2000
    5.8301    0.8660    0.0000 F   0  0  0  0  0  0  0  0  0  0  0  0
    6.8301   -0.8660    0.0000 F   0  0  0  0  0  0  0  0  0  0  0  0
    4.9641    0.3660    0.0000 F   0  0  0  0  0  0  0  0  0  0  0  0
    5.9641   -1.3660    0.0000 F   0  0  0  0  0  0  0  0  0  0  0  0
    6.6962    1.3660    0.0000 F   0  0  0  0  0  0  0  0  0  0  0  0
    7.6962   -0.3660    0.0000 F   0  0  0  0  0  0  0  0  0  0  0  0
    8.9282    0.5000    0.0000 O   0  0  0  0  0  0  0  0  0  0  0  0
    3.7320   -0.5000    0.0000 O   0  0  0  0  0  0  0  0  0  0  0  0
    8.0622    2.0000    0.0000 O   0  0  0  0  0  0  0  0  0  0  0  0
    4.5981   -2.0000    0.0000 O   0  0  0  0  0  0  0  0  0  0  0  0
    6.3301    0.0000    0.0000 C   0  0  0  0  0  0  0  0  0  0  0  0
    7.1962    0.5000    0.0000 C   0  0  0  0  0  0  0  0  0  0  0  0
    5.4641   -0.5000    0.0000 C   0  0  0  0  0  0  0  0  0  0  0  0
    8.0622    1.0000    0.0000 C   0  0  0  0  0  0  0  0  0  0  0  0
    4.5981   -1.0000    0.0000 C   0  0  0  0  0  0  0  0  0  0  0  0
    9.7942    1.0000    0.0000 C   0  0  0  0  0  0  0  0  0  0  0  0
    2.8660   -1.0000    0.0000 C   0  0  0  0  0  0  0  0  0  0  0  0
   10.6603    0.5000    0.0000 C   0  0  0  0  0  0  0  0  0  0  0  0
    2.0000   -0.5000    0.0000 C   0  0  0  0  0  0  0  0  0  0  0  0
   10.1928    1.4750    0.0000 H   0  0  0  0  0  0  0  0  0  0  0  0
    9.3957    1.4750    0.0000 H   0  0  0  0  0  0  0  0  0  0  0  0
    2.4675   -1.4750    0.0000 H   0  0  0  0  0  0  0  0  0  0  0  0
    3.2646   -1.4750    0.0000 H   0  0  0  0  0  0  0  0  0  0  0  0
    2.3100    0.0369    0.0000 H   0  0  0  0  0  0  0  0  0  0  0  0
    1.4631   -0.1900    0.0000 H   0  0  0  0  0  0  0  0  0  0  0  0
    1.6900   -1.0369    0.0000 H   0  0  0  0  0  0  0  0  0  0  0  0
   10.3503   -0.0369    0.0000 H   0  0  0  0  0  0  0  0  0  0  0  0
   11.1972    0.1900    0.0000 H   0  0  0  0  0  0  0  0  0  0  0  0
   10.9703    1.0369    0.0000 H   0  0  0  0  0  0  0  0  0  0  0  0
  1 11  1  0  0  0  0
  2 11  1  0  0  0  0
  3 13  1  0  0  0  0
  4 13  1  0  0  0  0
  5 12  1  0  0  0  0
  6 12  1  0  0  0  0
  7 14  1  0  0  0  0
  7 16  1  0  0  0  0
  8 15  1  0  0  0  0
  8 17  1  0  0  0  0
  9 14  2  0  0  0  0
 10 15  2  0  0  0  0
 11 12  1  0  0  0  0
 11 13  1  0  0  0  0
 12 14  1  0  0  0  0
 13 15  1  0  0  0  0
 16 18  1  0  0  0  0
 16 20  1  0  0  0  0
 16 21  1  0  0  0  0
 17 19  1  0  0  0  0
 17 22  1  0  0  0  0
 17 23  1  0  0  0  0
 18 27  1  0  0  0  0
 18 28  1  0  0  0  0
 18 29  1  0  0  0  0
 19 24  1  0  0  0  0
 19 25  1  0  0  0  0
 19 26  1  0  0  0  0
M  END
> <PUBCHEM_COMPOUND_CID>
9874

> <PUBCHEM_COMPOUND_CANONICALIZED>
1

> <PUBCHEM_CACTVS_COMPLEXITY>
323

> <PUBCHEM_CACTVS_HBOND_ACCEPTOR>
10

> <PUBCHEM_CACTVS_HBOND_DONOR>
0

> <PUBCHEM_CACTVS_ROTATABLE_BOND>
8

> <PUBCHEM_CACTVS_SUBSKEYS>
AAADccBwOcAAAAAAAAAAAAAAAAAAAAAAAAAAAAAAAAAAAAAAAAAAGwAAAAAACACggBICCAAABAAIAACQCAAAAAAAAAAAAAEAAAAAABIAAAACAAAEAAAAAACIJggAAAAAAAAAAAAAAAAAAAAAAAAAAAAAAA==

> <PUBCHEM_IUPAC_OPENEYE_NAME>
diethyl 2,2,3,3,4,4-hexafluoropentanedioate

> <PUBCHEM_IUPAC_CAS_NAME>
2,2,3,3,4,4-hexafluoropentanedioic acid diethyl ester

> <PUBCHEM_IUPAC_NAME>
diethyl 2,2,3,3,4,4-hexafluoropentanedioate

> <PUBCHEM_IUPAC_SYSTEMATIC_NAME>
diethyl 2,2,3,3,4,4-hexakis(fluoranyl)pentanedioate

> <PUBCHEM_IUPAC_TRADITIONAL_NAME>
2,2,3,3,4,4-hexafluoroglutaric acid diethyl ester

> <PUBCHEM_IUPAC_INCHI>
InChI=1S/C9H10F6O4/c1-3-18-5(16)7(10,11)9(14,15)8(12,13)6(17)19-4-2/h3-4H2,1-2H3

> <PUBCHEM_IUPAC_INCHIKEY>
MSDPXVBLFJODJO-UHFFFAOYSA-N

> <PUBCHEM_XLOGP3>
2.6

> <PUBCHEM_EXACT_MASS>
296.048328

> <PUBCHEM_MOLECULAR_FORMULA>
C9H10F6O4

> <PUBCHEM_MOLECULAR_WEIGHT>
296.163719

> <PUBCHEM_OPENEYE_CAN_SMILES>
CCOC(=O)C(C(C(C(=O)OCC)(F)F)(F)F)(F)F

> <PUBCHEM_OPENEYE_ISO_SMILES>
CCOC(=O)C(C(C(C(=O)OCC)(F)F)(F)F)(F)F

> <PUBCHEM_CACTVS_TPSA>
52.6

> <PUBCHEM_MONOISOTOPIC_WEIGHT>
296.048328

> <PUBCHEM_TOTAL_CHARGE>
0

> <PUBCHEM_HEAVY_ATOM_COUNT>
19

> <PUBCHEM_ATOM_DEF_STEREO_COUNT>
0

> <PUBCHEM_ATOM_UDEF_STEREO_COUNT>
0

> <PUBCHEM_BOND_DEF_STEREO_COUNT>
0

> <PUBCHEM_BOND_UDEF_STEREO_COUNT>
0

> <PUBCHEM_ISOTOPIC_ATOM_COUNT>
0

> <PUBCHEM_COMPONENT_COUNT>
1

> <PUBCHEM_CACTVS_TAUTO_COUNT>
1

> <PUBCHEM_COORDINATE_TYPE>
1
5
255

$$$$

