14032
  -OEChem-06241222413D

 30 29  0     0  0  0  0  0  0999 V2000
   -0.4044    1.2752   -0.0191 P   0  0  0  0  0  0  0  0  0  0  0  0
    0.9391   -1.1742    0.9610 P   0  0  0  0  0  0  0  0  0  0  0  0
    0.0627    0.1812    1.0783 O   0  0  0  0  0  0  0  0  0  0  0  0
   -0.0106   -1.9790   -0.0783 O   0  0  0  0  0  0  0  0  0  0  0  0
    2.0357   -0.6404   -0.1083 O   0  0  0  0  0  0  0  0  0  0  0  0
   -1.3894    2.2722    0.7938 O   0  0  0  0  0  0  0  0  0  0  0  0
   -1.4082    0.4443   -0.9825 O   0  0  0  0  0  0  0  0  0  0  0  0
    0.7187    1.9691   -0.7364 O   0  0  0  0  0  0  0  0  0  0  0  0
   -1.1438   -2.6252    0.4839 C   0  0  0  0  0  0  0  0  0  0  0  0
    3.0948    0.1469    0.4182 C   0  0  0  0  0  0  0  0  0  0  0  0
   -1.9119   -3.3219   -0.6190 C   0  0  0  0  0  0  0  0  0  0  0  0
    4.0155    0.5544   -0.7124 C   0  0  0  0  0  0  0  0  0  0  0  0
   -2.4915    1.7500    1.5160 C   0  0  0  0  0  0  0  0  0  0  0  0
   -2.1067    1.1475   -1.9954 C   0  0  0  0  0  0  0  0  0  0  0  0
   -0.8286   -3.3694    1.2262 H   0  0  0  0  0  0  0  0  0  0  0  0
   -1.8029   -1.8950    0.9706 H   0  0  0  0  0  0  0  0  0  0  0  0
    2.7085    1.0473    0.9115 H   0  0  0  0  0  0  0  0  0  0  0  0
    3.6686   -0.4347    1.1511 H   0  0  0  0  0  0  0  0  0  0  0  0
   -2.7926   -3.8331   -0.2201 H   0  0  0  0  0  0  0  0  0  0  0  0
   -2.2355   -2.6015   -1.3777 H   0  0  0  0  0  0  0  0  0  0  0  0
   -1.2775   -4.0557   -1.1271 H   0  0  0  0  0  0  0  0  0  0  0  0
    4.8467    1.1602   -0.3408 H   0  0  0  0  0  0  0  0  0  0  0  0
    4.4208   -0.3290   -1.2168 H   0  0  0  0  0  0  0  0  0  0  0  0
    3.4703    1.1291   -1.4681 H   0  0  0  0  0  0  0  0  0  0  0  0
   -2.1363    1.1053    2.3238 H   0  0  0  0  0  0  0  0  0  0  0  0
   -3.1531    1.1855    0.8548 H   0  0  0  0  0  0  0  0  0  0  0  0
   -3.0510    2.5831    1.9485 H   0  0  0  0  0  0  0  0  0  0  0  0
   -2.7394    0.4412   -2.5385 H   0  0  0  0  0  0  0  0  0  0  0  0
   -1.3947    1.5973   -2.6922 H   0  0  0  0  0  0  0  0  0  0  0  0
   -2.7365    1.9247   -1.5557 H   0  0  0  0  0  0  0  0  0  0  0  0
  1  3  1  0  0  0  0
  1  6  1  0  0  0  0
  1  7  1  0  0  0  0
  1  8  2  0  0  0  0
  2  3  1  0  0  0  0
  2  4  1  0  0  0  0
  2  5  1  0  0  0  0
  4  9  1  0  0  0  0
  5 10  1  0  0  0  0
  6 13  1  0  0  0  0
  7 14  1  0  0  0  0
  9 11  1  0  0  0  0
  9 15  1  0  0  0  0
  9 16  1  0  0  0  0
 10 12  1  0  0  0  0
 10 17  1  0  0  0  0
 10 18  1  0  0  0  0
 11 19  1  0  0  0  0
 11 20  1  0  0  0  0
 11 21  1  0  0  0  0
 12 22  1  0  0  0  0
 12 23  1  0  0  0  0
 12 24  1  0  0  0  0
 13 25  1  0  0  0  0
 13 26  1  0  0  0  0
 13 27  1  0  0  0  0
 14 28  1  0  0  0  0
 14 29  1  0  0  0  0
 14 30  1  0  0  0  0
M  END
> <PUBCHEM_COMPOUND_CID>
14032

> <PUBCHEM_CONFORMER_RMSD>
0.8

> <PUBCHEM_CONFORMER_DIVERSEORDER>
1
20
24
32
52
53
12
13
16
36
62
7
26
65
70
3
28
41
10
59
48
35
33
66
49
17
55
14
50
23
54
31
39
8
69
46
71
38
43
6
58
61
56
2
68
60
42
30
37
22
57
45
29
21
9
19
40
51
63
4
72
47
34
67
44
18
27
25
15
64
5
11

> <PUBCHEM_MMFF94_PARTIAL_CHARGES>
12
1 1.51
10 0.28
13 0.28
14 0.28
2 0.3
3 -0.37
4 -0.38
5 -0.38
6 -0.55
7 -0.55
8 -0.7
9 0.28

> <PUBCHEM_EFFECTIVE_ROTOR_COUNT>
8

> <PUBCHEM_PHARMACOPHORE_FEATURES>
1
1 8 acceptor

> <PUBCHEM_HEAVY_ATOM_COUNT>
14

> <PUBCHEM_ATOM_DEF_STEREO_COUNT>
0

> <PUBCHEM_ATOM_UDEF_STEREO_COUNT>
0

> <PUBCHEM_BOND_DEF_STEREO_COUNT>
0

> <PUBCHEM_BOND_UDEF_STEREO_COUNT>
0

> <PUBCHEM_ISOTOPIC_ATOM_COUNT>
0

> <PUBCHEM_COMPONENT_COUNT>
1

> <PUBCHEM_CACTVS_TAUTO_COUNT>
1

> <PUBCHEM_CONFORMER_ID>
000036D000000001

> <PUBCHEM_MMFF94_ENERGY>
11.3509

> <PUBCHEM_FEATURE_SELFOVERLAP>
5.074

> <PUBCHEM_SHAPE_FINGERPRINT>
14817 1 9577051079137072711
16945 1 17460625659947846077
18410436 195 17831301592711473354
19873495 37 17823693260025863961
20379382 53 17400350643051076313
20511035 2 15317182292052020424
20711978 78 17404291292783008753
20711985 344 18337390431494454978
21041028 32 17835497355174910091
21160774 45 18413674603963310351
21339142 149 18040724662237275992
23419403 2 17684111096472215552
23552423 10 17399541385492401669
23557571 272 18119541942425748850
81228 2 18270115700131117818

> <PUBCHEM_SHAPE_MULTIPOLES>
260.6
4.44
3.42
1.46
5.13
2.14
0.25
-0.48
0.84
-3.39
-0.05
-0.98
-0.73
-0.69

> <PUBCHEM_SHAPE_SELFOVERLAP>
452.462

> <PUBCHEM_SHAPE_VOLUME>
173.3

> <PUBCHEM_COORDINATE_TYPE>
2
5
10

$$$$

