13261
  -OEChem-06261208142D

 26 26  0     0  0  0  0  0  0999 V2000
    3.7320    0.2500    0.0000 O   0  0  0  0  0  0  0  0  0  0  0  0
    8.0622    1.7500    0.0000 O   0  5  0  0  0  0  0  0  0  0  0  0
    6.3301    1.7500    0.0000 O   0  0  0  0  0  0  0  0  0  0  0  0
    2.8660   -1.2500    0.0000 O   0  0  0  0  0  0  0  0  0  0  0  0
    7.1962    1.2500    0.0000 N   0  3  0  0  0  0  0  0  0  0  0  0
    5.4641    0.2500    0.0000 C   0  0  0  0  0  0  0  0  0  0  0  0
    6.3301   -0.2500    0.0000 C   0  0  0  0  0  0  0  0  0  0  0  0
    4.5981   -0.2500    0.0000 C   0  0  0  0  0  0  0  0  0  0  0  0
    7.1962    0.2500    0.0000 C   0  0  0  0  0  0  0  0  0  0  0  0
    6.3301   -1.2500    0.0000 C   0  0  0  0  0  0  0  0  0  0  0  0
    8.0622   -0.2500    0.0000 C   0  0  0  0  0  0  0  0  0  0  0  0
    7.1962   -1.7500    0.0000 C   0  0  0  0  0  0  0  0  0  0  0  0
    8.0622   -1.2500    0.0000 C   0  0  0  0  0  0  0  0  0  0  0  0
    2.8660   -0.2500    0.0000 C   0  0  0  0  0  0  0  0  0  0  0  0
    2.0000    0.2500    0.0000 C   0  0  0  0  0  0  0  0  0  0  0  0
    5.8626    0.7249    0.0000 H   0  0  0  0  0  0  0  0  0  0  0  0
    5.0656    0.7249    0.0000 H   0  0  0  0  0  0  0  0  0  0  0  0
    4.1996   -0.7249    0.0000 H   0  0  0  0  0  0  0  0  0  0  0  0
    4.9966   -0.7249    0.0000 H   0  0  0  0  0  0  0  0  0  0  0  0
    5.7932   -1.5600    0.0000 H   0  0  0  0  0  0  0  0  0  0  0  0
    8.5991    0.0600    0.0000 H   0  0  0  0  0  0  0  0  0  0  0  0
    7.1962   -2.3700    0.0000 H   0  0  0  0  0  0  0  0  0  0  0  0
    8.5991   -1.5600    0.0000 H   0  0  0  0  0  0  0  0  0  0  0  0
    2.3100    0.7869    0.0000 H   0  0  0  0  0  0  0  0  0  0  0  0
    1.4631    0.5600    0.0000 H   0  0  0  0  0  0  0  0  0  0  0  0
    1.6900   -0.2869    0.0000 H   0  0  0  0  0  0  0  0  0  0  0  0
  1  8  1  0  0  0  0
  1 14  1  0  0  0  0
  2  5  1  0  0  0  0
  3  5  2  0  0  0  0
  4 14  2  0  0  0  0
  5  9  1  0  0  0  0
  6  7  1  0  0  0  0
  6  8  1  0  0  0  0
  6 16  1  0  0  0  0
  6 17  1  0  0  0  0
  7  9  1  0  0  0  0
  7 10  2  0  0  0  0
  8 18  1  0  0  0  0
  8 19  1  0  0  0  0
  9 11  2  0  0  0  0
 10 12  1  0  0  0  0
 10 20  1  0  0  0  0
 11 13  1  0  0  0  0
 11 21  1  0  0  0  0
 12 13  2  0  0  0  0
 12 22  1  0  0  0  0
 13 23  1  0  0  0  0
 14 15  1  0  0  0  0
 15 24  1  0  0  0  0
 15 25  1  0  0  0  0
 15 26  1  0  0  0  0
M  CHG  2   2  -1   5   1
M  END
> <PUBCHEM_COMPOUND_CID>
13261

> <PUBCHEM_COMPOUND_CANONICALIZED>
1

> <PUBCHEM_CACTVS_COMPLEXITY>
236

> <PUBCHEM_CACTVS_HBOND_ACCEPTOR>
4

> <PUBCHEM_CACTVS_HBOND_DONOR>
0

> <PUBCHEM_CACTVS_ROTATABLE_BOND>
4

> <PUBCHEM_CACTVS_SUBSKEYS>
AAADccByOAAAAAAAAAAAAAAAAAAAAAAAAAAwAAAAAAAAAAABAAAAHgAEAAAADAihmAIyyIAQRACJAiTSSwCCAAAgAgAoiAAAZIoIICKAkZGCIABkwAEIyAewwKAOAAAAAAACAAAAAAAAAAQAAAAAAAAAAA==

> <PUBCHEM_IUPAC_OPENEYE_NAME>
2-(2-nitrophenyl)ethyl acetate

> <PUBCHEM_IUPAC_CAS_NAME>
acetic acid 2-(2-nitrophenyl)ethyl ester

> <PUBCHEM_IUPAC_NAME>
2-(2-nitrophenyl)ethyl acetate

> <PUBCHEM_IUPAC_SYSTEMATIC_NAME>
2-(2-nitrophenyl)ethyl ethanoate

> <PUBCHEM_IUPAC_TRADITIONAL_NAME>
acetic acid 2-(2-nitrophenyl)ethyl ester

> <PUBCHEM_IUPAC_INCHI>
InChI=1S/C10H11NO4/c1-8(12)15-7-6-9-4-2-3-5-10(9)11(13)14/h2-5H,6-7H2,1H3

> <PUBCHEM_IUPAC_INCHIKEY>
JTDNAYJQWWTNDA-UHFFFAOYSA-N

> <PUBCHEM_XLOGP3_AA>
1.9

> <PUBCHEM_EXACT_MASS>
209.068808

> <PUBCHEM_MOLECULAR_FORMULA>
C10H11NO4

> <PUBCHEM_MOLECULAR_WEIGHT>
209.19864

> <PUBCHEM_OPENEYE_CAN_SMILES>
CC(=O)OCCC1=CC=CC=C1[N+](=O)[O-]

> <PUBCHEM_OPENEYE_ISO_SMILES>
CC(=O)OCCC1=CC=CC=C1[N+](=O)[O-]

> <PUBCHEM_CACTVS_TPSA>
72.1

> <PUBCHEM_MONOISOTOPIC_WEIGHT>
209.068808

> <PUBCHEM_TOTAL_CHARGE>
0

> <PUBCHEM_HEAVY_ATOM_COUNT>
15

> <PUBCHEM_ATOM_DEF_STEREO_COUNT>
0

> <PUBCHEM_ATOM_UDEF_STEREO_COUNT>
0

> <PUBCHEM_BOND_DEF_STEREO_COUNT>
0

> <PUBCHEM_BOND_UDEF_STEREO_COUNT>
0

> <PUBCHEM_ISOTOPIC_ATOM_COUNT>
0

> <PUBCHEM_COMPONENT_COUNT>
1

> <PUBCHEM_CACTVS_TAUTO_COUNT>
1

> <PUBCHEM_COORDINATE_TYPE>
1
5
255

> <PUBCHEM_BONDANNOTATIONS>
10  12  8
11  13  8
12  13  8
7  10  8
7  9  8
9  11  8

$$$$

