854350
  -OEChem-06241222483D

 32 34  0     0  0  0  0  0  0999 V2000
   -2.2498   -2.6765   -0.0218 O   0  0  0  0  0  0  0  0  0  0  0  0
   -0.3522   -1.3166   -0.0074 N   0  0  0  0  0  0  0  0  0  0  0  0
   -0.5312    1.0435    0.0235 N   0  0  0  0  0  0  0  0  0  0  0  0
    0.4892   -2.4300    0.0471 N   0  0  0  0  0  0  0  0  0  0  0  0
    0.1953   -0.0319    0.0040 C   0  0  0  0  0  0  0  0  0  0  0  0
    1.6642    0.1209    0.0004 C   0  0  0  0  0  0  0  0  0  0  0  0
   -2.5614   -0.3470   -0.0110 C   0  0  0  0  0  0  0  0  0  0  0  0
   -1.9294    0.9032    0.0142 C   0  0  0  0  0  0  0  0  0  0  0  0
   -1.7247   -1.5675   -0.0165 C   0  0  0  0  0  0  0  0  0  0  0  0
    2.3555    0.1738    1.2062 C   0  0  0  0  0  0  0  0  0  0  0  0
    2.3450    0.2090   -1.2096 C   0  0  0  0  0  0  0  0  0  0  0  0
   -3.9567   -0.4461   -0.0240 C   0  0  0  0  0  0  0  0  0  0  0  0
    4.4316    0.4053   -0.0077 C   0  0  0  0  0  0  0  0  0  0  0  0
   -2.7215    2.0568    0.0256 C   0  0  0  0  0  0  0  0  0  0  0  0
    3.7431    0.3163    1.2021 C   0  0  0  0  0  0  0  0  0  0  0  0
    3.7326    0.3516   -1.2135 C   0  0  0  0  0  0  0  0  0  0  0  0
   -4.7303    0.7134   -0.0126 C   0  0  0  0  0  0  0  0  0  0  0  0
   -4.1143    1.9630    0.0124 C   0  0  0  0  0  0  0  0  0  0  0  0
    5.9152    0.5588   -0.0114 C   0  0  0  0  0  0  0  0  0  0  0  0
    1.8278    0.1047    2.1537 H   0  0  0  0  0  0  0  0  0  0  0  0
    1.8089    0.1673   -2.1539 H   0  0  0  0  0  0  0  0  0  0  0  0
   -4.4551   -1.4112   -0.0424 H   0  0  0  0  0  0  0  0  0  0  0  0
   -2.2565    3.0397    0.0442 H   0  0  0  0  0  0  0  0  0  0  0  0
    4.2766    0.3552    2.1481 H   0  0  0  0  0  0  0  0  0  0  0  0
    4.2578    0.4180   -2.1627 H   0  0  0  0  0  0  0  0  0  0  0  0
   -5.8141    0.6428   -0.0228 H   0  0  0  0  0  0  0  0  0  0  0  0
   -4.7183    2.8657    0.0213 H   0  0  0  0  0  0  0  0  0  0  0  0
    0.2357   -2.9606    0.8798 H   0  0  0  0  0  0  0  0  0  0  0  0
    0.2626   -3.0198   -0.7528 H   0  0  0  0  0  0  0  0  0  0  0  0
    6.2576    1.1084    0.8720 H   0  0  0  0  0  0  0  0  0  0  0  0
    6.3945   -0.4251   -0.0202 H   0  0  0  0  0  0  0  0  0  0  0  0
    6.2523    1.1212   -0.8888 H   0  0  0  0  0  0  0  0  0  0  0  0
  1  9  2  0  0  0  0
  2  4  1  0  0  0  0
  2  5  1  0  0  0  0
  2  9  1  0  0  0  0
  3  5  2  0  0  0  0
  3  8  1  0  0  0  0
  4 28  1  0  0  0  0
  4 29  1  0  0  0  0
  5  6  1  0  0  0  0
  6 10  2  0  0  0  0
  6 11  1  0  0  0  0
  7  8  1  0  0  0  0
  7  9  1  0  0  0  0
  7 12  2  0  0  0  0
  8 14  2  0  0  0  0
 10 15  1  0  0  0  0
 10 20  1  0  0  0  0
 11 16  2  0  0  0  0
 11 21  1  0  0  0  0
 12 17  1  0  0  0  0
 12 22  1  0  0  0  0
 13 15  2  0  0  0  0
 13 16  1  0  0  0  0
 13 19  1  0  0  0  0
 14 18  1  0  0  0  0
 14 23  1  0  0  0  0
 15 24  1  0  0  0  0
 16 25  1  0  0  0  0
 17 18  2  0  0  0  0
 17 26  1  0  0  0  0
 18 27  1  0  0  0  0
 19 30  1  0  0  0  0
 19 31  1  0  0  0  0
 19 32  1  0  0  0  0
M  END
> <PUBCHEM_COMPOUND_CID>
854350

> <PUBCHEM_CONFORMER_RMSD>
0.6

> <PUBCHEM_CONFORMER_DIVERSEORDER>
1

> <PUBCHEM_MMFF94_PARTIAL_CHARGES>
29
1 -0.57
10 -0.15
11 -0.15
12 -0.15
13 -0.14
14 -0.15
15 -0.15
16 -0.15
17 -0.15
18 -0.15
19 0.14
2 -0.11
20 0.15
21 0.15
22 0.15
23 0.15
24 0.15
25 0.15
26 0.15
27 0.15
28 0.36
29 0.36
3 -0.63
4 -0.73
5 0.42
6 0.09
7 0.09
8 0.18
9 0.54

> <PUBCHEM_EFFECTIVE_ROTOR_COUNT>
1

> <PUBCHEM_PHARMACOPHORE_FEATURES>
5
1 1 acceptor
1 4 donor
6 2 3 5 7 8 9 rings
6 6 10 11 13 15 16 rings
6 7 8 12 14 17 18 rings

> <PUBCHEM_HEAVY_ATOM_COUNT>
19

> <PUBCHEM_ATOM_DEF_STEREO_COUNT>
0

> <PUBCHEM_ATOM_UDEF_STEREO_COUNT>
0

> <PUBCHEM_BOND_DEF_STEREO_COUNT>
0

> <PUBCHEM_BOND_UDEF_STEREO_COUNT>
0

> <PUBCHEM_ISOTOPIC_ATOM_COUNT>
0

> <PUBCHEM_COMPONENT_COUNT>
1

> <PUBCHEM_CACTVS_TAUTO_COUNT>
1

> <PUBCHEM_CONFORMER_ID>
000D094E00000001

> <PUBCHEM_MMFF94_ENERGY>
61.8932

> <PUBCHEM_FEATURE_SELFOVERLAP>
25.401

> <PUBCHEM_SHAPE_FINGERPRINT>
10319926 262 18262819375882452890
10411042 1 17834113048729904239
10498660 4 18337673126020402605
10646746 165 18335423452441830112
11132069 177 18411980273640575605
11796584 16 18333726936703759670
12107183 9 17553215702048886688
12236239 1 17775286049906761360
12390115 104 18115857663571416337
12403259 415 17967819314463833752
12403814 3 17489592277150518013
12500047 106 18334860506693789718
12788726 201 17484502461463495170
12916748 109 18411411821739128464
13140716 1 18194678164678951043
13544592 145 18187916331250480342
14386348 63 17676201356167069300
15042514 8 18267861680020222555
15196674 1 18338517542344385923
15375358 24 17967532372046372540
15536298 74 18263925612638145063
16752209 62 18339367353021355195
16945 1 18410575063794955843
17804303 29 18336265643883544681
18186145 218 17748824137409118593
200 152 15554452881168249837
20279233 1 17749102284123693934
20510252 161 18260828241401856161
20645477 56 18408884040164437865
20645477 70 16588013663265171380
23175994 123 17022895723334760680
23366157 5 17914330440241982571
23402539 116 18334863805233935116
23557571 272 18114741538439855206
23559900 14 18260260872406660918
2748010 2 18195520622556389175
2916195 48 18114189618358537464
3004659 81 18339356475029594446
3545911 37 18408319999637327140
4028521 119 18040998470597175425
4214541 1 18410573976983750052
474 4 16987426491983084796
495365 180 17313395551695027358
4990 188 17676486176585752068
5104073 3 18196926885096122041
542803 24 17846777403983171692
573450 72 18271535225556045258
69090 78 17603309236755807151
7364860 26 18045784747539236191
77492 1 17703794687076944618
9709674 26 18260823800089180542

> <PUBCHEM_SHAPE_MULTIPOLES>
370.2
10.39
1.97
0.92
6.18
0.97
0
-3.99
0.05
-2.35
-0.01
0.99
-0.1
-0.04

> <PUBCHEM_SHAPE_SELFOVERLAP>
818.424

> <PUBCHEM_SHAPE_VOLUME>
198.9

> <PUBCHEM_COORDINATE_TYPE>
2
5
10

$$$$

