49661773
  -OEChem-06241223003D

 61 64  0     0  0  0  0  0  0999 V2000
    3.5250   -1.5726    1.0235 Cl  0  0  0  0  0  0  0  0  0  0  0  0
   -3.7578   -0.5500    1.2720 S   0  0  0  0  0  0  0  0  0  0  0  0
    7.5092   -1.5575   -2.0898 F   0  0  0  0  0  0  0  0  0  0  0  0
   -3.1331    0.4890    2.0614 O   0  0  0  0  0  0  0  0  0  0  0  0
   -4.8546   -1.3317    1.8000 O   0  0  0  0  0  0  0  0  0  0  0  0
    1.5191    1.9210    2.5080 O   0  0  0  0  0  0  0  0  0  0  0  0
   -2.2279    1.3679   -0.4883 N   0  0  0  0  0  0  0  0  0  0  0  0
   -2.5460   -1.6148    0.6923 N   0  0  0  0  0  0  0  0  0  0  0  0
    2.7675    1.6762    0.5584 N   0  0  0  0  0  0  0  0  0  0  0  0
   -3.8782    1.6116   -2.1479 N   0  0  0  0  0  0  0  0  0  0  0  0
    0.4182    2.1046    0.3995 C   0  0  0  0  0  0  0  0  0  0  0  0
    0.1862    0.8777   -0.4792 C   0  0  0  0  0  0  0  0  0  0  0  0
   -0.8140    2.3722    1.2604 C   0  0  0  0  0  0  0  0  0  0  0  0
   -1.0710    1.0358   -1.3319 C   0  0  0  0  0  0  0  0  0  0  0  0
   -2.0728    2.5202    0.4068 C   0  0  0  0  0  0  0  0  0  0  0  0
   -3.0168   -2.6487   -0.2762 C   0  0  0  0  0  0  0  0  0  0  0  0
   -1.6510   -2.1914    1.7386 C   0  0  0  0  0  0  0  0  0  0  0  0
   -0.4310   -2.8233    1.0765 C   0  0  0  0  0  0  0  0  0  0  0  0
   -1.8163   -3.2881   -0.9663 C   0  0  0  0  0  0  0  0  0  0  0  0
   -0.8397   -3.8751    0.0489 C   0  0  0  0  0  0  0  0  0  0  0  0
   -3.4983    1.0451   -0.9806 C   0  0  0  0  0  0  0  0  0  0  0  0
   -4.2867    0.1707   -0.2500 C   0  0  0  0  0  0  0  0  0  0  0  0
    1.6072    1.8873    1.2834 C   0  0  0  0  0  0  0  0  0  0  0  0
   -5.5460   -0.1426   -0.7495 C   0  0  0  0  0  0  0  0  0  0  0  0
   -5.9724    0.4202   -1.9474 C   0  0  0  0  0  0  0  0  0  0  0  0
   -5.1086    1.2836   -2.6021 C   0  0  0  0  0  0  0  0  0  0  0  0
    4.0572    1.4632    1.1746 C   0  0  0  0  0  0  0  0  0  0  0  0
    4.9615    0.6310    0.3121 C   0  0  0  0  0  0  0  0  0  0  0  0
    4.7900   -0.7477    0.1878 C   0  0  0  0  0  0  0  0  0  0  0  0
    5.9936    1.2702   -0.3749 C   0  0  0  0  0  0  0  0  0  0  0  0
    5.6506   -1.4871   -0.6234 C   0  0  0  0  0  0  0  0  0  0  0  0
    6.8542    0.5309   -1.1861 C   0  0  0  0  0  0  0  0  0  0  0  0
    6.6827   -0.8480   -1.3103 C   0  0  0  0  0  0  0  0  0  0  0  0
    0.6162    2.9809   -0.2317 H   0  0  0  0  0  0  0  0  0  0  0  0
    1.0351    0.6824   -1.1433 H   0  0  0  0  0  0  0  0  0  0  0  0
    0.0807   -0.0021    0.1607 H   0  0  0  0  0  0  0  0  0  0  0  0
   -0.6740    3.2881    1.8484 H   0  0  0  0  0  0  0  0  0  0  0  0
   -0.9436    1.5589    1.9832 H   0  0  0  0  0  0  0  0  0  0  0  0
   -0.9239    1.8230   -2.0817 H   0  0  0  0  0  0  0  0  0  0  0  0
   -1.2472    0.0962   -1.8700 H   0  0  0  0  0  0  0  0  0  0  0  0
   -2.9486    2.6659    1.0484 H   0  0  0  0  0  0  0  0  0  0  0  0
   -1.9928    3.4290   -0.2042 H   0  0  0  0  0  0  0  0  0  0  0  0
   -1.3097   -1.4000    2.4139 H   0  0  0  0  0  0  0  0  0  0  0  0
   -2.2012   -2.9349    2.3265 H   0  0  0  0  0  0  0  0  0  0  0  0
   -3.6015   -3.4100    0.2532 H   0  0  0  0  0  0  0  0  0  0  0  0
   -3.6485   -2.2138   -1.0530 H   0  0  0  0  0  0  0  0  0  0  0  0
   -1.2973   -2.5347   -1.5719 H   0  0  0  0  0  0  0  0  0  0  0  0
   -2.1560   -4.0742   -1.6497 H   0  0  0  0  0  0  0  0  0  0  0  0
    0.2036   -3.2849    1.8414 H   0  0  0  0  0  0  0  0  0  0  0  0
    0.1755   -2.0612    0.5808 H   0  0  0  0  0  0  0  0  0  0  0  0
   -1.3077   -4.7255    0.5596 H   0  0  0  0  0  0  0  0  0  0  0  0
    0.0485   -4.2575   -0.4661 H   0  0  0  0  0  0  0  0  0  0  0  0
   -6.2151   -0.8221   -0.2306 H   0  0  0  0  0  0  0  0  0  0  0  0
    2.7441    1.7802   -0.4519 H   0  0  0  0  0  0  0  0  0  0  0  0
   -6.9495    0.1900   -2.3563 H   0  0  0  0  0  0  0  0  0  0  0  0
   -5.3935    1.7487   -3.5400 H   0  0  0  0  0  0  0  0  0  0  0  0
    4.4874    2.4568    1.3490 H   0  0  0  0  0  0  0  0  0  0  0  0
    3.9349    1.0145    2.1673 H   0  0  0  0  0  0  0  0  0  0  0  0
    6.1405    2.3439   -0.2913 H   0  0  0  0  0  0  0  0  0  0  0  0
    5.5308   -2.5621   -0.7311 H   0  0  0  0  0  0  0  0  0  0  0  0
    7.6576    1.0281   -1.7217 H   0  0  0  0  0  0  0  0  0  0  0  0
  1 29  1  0  0  0  0
  2  4  2  0  0  0  0
  2  5  2  0  0  0  0
  2  8  1  0  0  0  0
  2 22  1  0  0  0  0
  3 33  1  0  0  0  0
  6 23  2  0  0  0  0
  7 14  1  0  0  0  0
  7 15  1  0  0  0  0
  7 21  1  0  0  0  0
  8 16  1  0  0  0  0
  8 17  1  0  0  0  0
  9 23  1  0  0  0  0
  9 27  1  0  0  0  0
  9 54  1  0  0  0  0
 10 21  1  0  0  0  0
 10 26  2  0  0  0  0
 11 12  1  0  0  0  0
 11 13  1  0  0  0  0
 11 23  1  0  0  0  0
 11 34  1  0  0  0  0
 12 14  1  0  0  0  0
 12 35  1  0  0  0  0
 12 36  1  0  0  0  0
 13 15  1  0  0  0  0
 13 37  1  0  0  0  0
 13 38  1  0  0  0  0
 14 39  1  0  0  0  0
 14 40  1  0  0  0  0
 15 41  1  0  0  0  0
 15 42  1  0  0  0  0
 16 19  1  0  0  0  0
 16 45  1  0  0  0  0
 16 46  1  0  0  0  0
 17 18  1  0  0  0  0
 17 43  1  0  0  0  0
 17 44  1  0  0  0  0
 18 20  1  0  0  0  0
 18 49  1  0  0  0  0
 18 50  1  0  0  0  0
 19 20  1  0  0  0  0
 19 47  1  0  0  0  0
 19 48  1  0  0  0  0
 20 51  1  0  0  0  0
 20 52  1  0  0  0  0
 21 22  2  0  0  0  0
 22 24  1  0  0  0  0
 24 25  2  0  0  0  0
 24 53  1  0  0  0  0
 25 26  1  0  0  0  0
 25 55  1  0  0  0  0
 26 56  1  0  0  0  0
 27 28  1  0  0  0  0
 27 57  1  0  0  0  0
 27 58  1  0  0  0  0
 28 29  2  0  0  0  0
 28 30  1  0  0  0  0
 29 31  1  0  0  0  0
 30 32  2  0  0  0  0
 30 59  1  0  0  0  0
 31 33  2  0  0  0  0
 31 60  1  0  0  0  0
 32 33  1  0  0  0  0
 32 61  1  0  0  0  0
M  END
> <PUBCHEM_COMPOUND_CID>
49661773

> <PUBCHEM_CONFORMER_RMSD>
1.4

> <PUBCHEM_CONFORMER_DIVERSEORDER>
3
52
29
25
85
62
61
86
81
47
14
66
50
58
76
43
22
23
30
21
26
82
68
67
12
63
39
9
80
72
84
33
6
71
73
27
88
31
2
16
79
34
69
55
49
38
87
64
7
77
19
53
17
70
4
37
42
83
60
57
1
8
41
11
59
75
35
40
24
44
36
28
65
5
74
54
46
13
48
45
15
20
56
10
32
78
51
18

> <PUBCHEM_MMFF94_PARTIAL_CHARGES>
35
1 -0.18
10 -0.62
11 0.06
14 0.37
15 0.37
16 0.36
17 0.36
2 1.45
21 0.41
22 -0.01
23 0.57
24 -0.15
25 -0.15
26 0.16
27 0.44
28 -0.14
29 0.18
3 -0.19
30 -0.15
31 -0.15
32 -0.15
33 0.19
4 -0.65
5 -0.65
53 0.15
54 0.37
55 0.15
56 0.15
59 0.15
6 -0.57
60 0.15
61 0.15
7 -0.84
8 -0.85
9 -0.73

> <PUBCHEM_EFFECTIVE_ROTOR_COUNT>
9.4

> <PUBCHEM_PHARMACOPHORE_FEATURES>
10
1 10 acceptor
1 4 acceptor
1 5 acceptor
1 6 acceptor
1 7 cation
1 9 donor
6 10 21 22 24 25 26 rings
6 28 29 30 31 32 33 rings
6 7 11 12 13 14 15 rings
6 8 16 17 18 19 20 rings

> <PUBCHEM_HEAVY_ATOM_COUNT>
33

> <PUBCHEM_ATOM_DEF_STEREO_COUNT>
0

> <PUBCHEM_ATOM_UDEF_STEREO_COUNT>
0

> <PUBCHEM_BOND_DEF_STEREO_COUNT>
0

> <PUBCHEM_BOND_UDEF_STEREO_COUNT>
0

> <PUBCHEM_ISOTOPIC_ATOM_COUNT>
0

> <PUBCHEM_COMPONENT_COUNT>
1

> <PUBCHEM_CACTVS_TAUTO_COUNT>
2

> <PUBCHEM_CONFORMER_ID>
02F5C74D00000003

> <PUBCHEM_MMFF94_ENERGY>
78.1596

> <PUBCHEM_FEATURE_SELFOVERLAP>
50.761

> <PUBCHEM_SHAPE_MULTIPOLES>
640.04
16.35
3.64
2.14
23.03
2.79
0.15
0.54
9.84
-1.45
-0.56
-1.26
-0.46
2.59

> <PUBCHEM_SHAPE_SELFOVERLAP>
1337.53

> <PUBCHEM_SHAPE_VOLUME>
364.1

> <PUBCHEM_COORDINATE_TYPE>
2
5
10

$$$$

