17395920
  -OEChem-06241222532D

 43 44  0     0  0  0  0  0  0999 V2000
    8.9282   -0.6900    0.0000 O   0  0  0  0  0  0  0  0  0  0  0  0
    5.4641   -0.6900    0.0000 O   0  0  0  0  0  0  0  0  0  0  0  0
    2.8660    3.8100    0.0000 O   0  0  0  0  0  0  0  0  0  0  0  0
    2.0000    2.3100    0.0000 O   0  0  0  0  0  0  0  0  0  0  0  0
    8.9282   -3.6900    0.0000 N   0  0  0  0  0  0  0  0  0  0  0  0
    6.3301    0.8100    0.0000 N   0  0  0  0  0  0  0  0  0  0  0  0
    9.7942   -2.1900    0.0000 N   0  0  0  0  0  0  0  0  0  0  0  0
    7.1962   -1.6900    0.0000 C   0  0  0  0  0  0  0  0  0  0  0  0
    8.0622   -2.1900    0.0000 C   0  0  0  0  0  0  0  0  0  0  0  0
    7.1962   -0.6900    0.0000 C   0  0  0  0  0  0  0  0  0  0  0  0
    8.0622   -3.1900    0.0000 C   0  0  0  0  0  0  0  0  0  0  0  0
    8.9282   -1.6900    0.0000 C   0  0  0  0  0  0  0  0  0  0  0  0
    6.3301   -0.1900    0.0000 C   0  0  0  0  0  0  0  0  0  0  0  0
    9.7942   -3.1900    0.0000 C   0  0  0  0  0  0  0  0  0  0  0  0
    7.1962   -3.6900    0.0000 C   0  0  0  0  0  0  0  0  0  0  0  0
    5.4641    1.3100    0.0000 C   0  0  0  0  0  0  0  0  0  0  0  0
   10.6603   -3.6900    0.0000 C   0  0  0  0  0  0  0  0  0  0  0  0
    5.4641    2.3100    0.0000 C   0  0  0  0  0  0  0  0  0  0  0  0
    4.5981    0.8100    0.0000 C   0  0  0  0  0  0  0  0  0  0  0  0
    3.7320    2.3100    0.0000 C   0  0  0  0  0  0  0  0  0  0  0  0
    4.5981    2.8100    0.0000 C   0  0  0  0  0  0  0  0  0  0  0  0
    3.7320    1.3100    0.0000 C   0  0  0  0  0  0  0  0  0  0  0  0
    2.8660    2.8100    0.0000 C   0  0  0  0  0  0  0  0  0  0  0  0
    2.0000    4.3100    0.0000 C   0  0  0  0  0  0  0  0  0  0  0  0
    6.5856   -1.5823    0.0000 H   0  0  0  0  0  0  0  0  0  0  0  0
    6.9841   -2.2726    0.0000 H   0  0  0  0  0  0  0  0  0  0  0  0
    7.8067   -0.7977    0.0000 H   0  0  0  0  0  0  0  0  0  0  0  0
    7.4082   -0.1074    0.0000 H   0  0  0  0  0  0  0  0  0  0  0  0
    8.9282   -4.3100    0.0000 H   0  0  0  0  0  0  0  0  0  0  0  0
    6.8862   -3.1531    0.0000 H   0  0  0  0  0  0  0  0  0  0  0  0
    6.6592   -4.0000    0.0000 H   0  0  0  0  0  0  0  0  0  0  0  0
    7.5062   -4.2269    0.0000 H   0  0  0  0  0  0  0  0  0  0  0  0
    6.8671    1.1200    0.0000 H   0  0  0  0  0  0  0  0  0  0  0  0
   10.3503   -4.2269    0.0000 H   0  0  0  0  0  0  0  0  0  0  0  0
   11.1972   -4.0000    0.0000 H   0  0  0  0  0  0  0  0  0  0  0  0
   10.9703   -3.1531    0.0000 H   0  0  0  0  0  0  0  0  0  0  0  0
    6.0010    2.6200    0.0000 H   0  0  0  0  0  0  0  0  0  0  0  0
    4.5981    0.1900    0.0000 H   0  0  0  0  0  0  0  0  0  0  0  0
    4.5981    3.4300    0.0000 H   0  0  0  0  0  0  0  0  0  0  0  0
    3.1951    1.0000    0.0000 H   0  0  0  0  0  0  0  0  0  0  0  0
    2.3100    4.8469    0.0000 H   0  0  0  0  0  0  0  0  0  0  0  0
    1.4631    4.6200    0.0000 H   0  0  0  0  0  0  0  0  0  0  0  0
    1.6900    3.7731    0.0000 H   0  0  0  0  0  0  0  0  0  0  0  0
  1 12  2  0  0  0  0
  2 13  2  0  0  0  0
  3 23  1  0  0  0  0
  3 24  1  0  0  0  0
  4 23  2  0  0  0  0
  5 11  1  0  0  0  0
  5 14  1  0  0  0  0
  5 29  1  0  0  0  0
  6 13  1  0  0  0  0
  6 16  1  0  0  0  0
  6 33  1  0  0  0  0
  7 12  1  0  0  0  0
  7 14  2  0  0  0  0
  8  9  1  0  0  0  0
  8 10  1  0  0  0  0
  8 25  1  0  0  0  0
  8 26  1  0  0  0  0
  9 11  2  0  0  0  0
  9 12  1  0  0  0  0
 10 13  1  0  0  0  0
 10 27  1  0  0  0  0
 10 28  1  0  0  0  0
 11 15  1  0  0  0  0
 14 17  1  0  0  0  0
 15 30  1  0  0  0  0
 15 31  1  0  0  0  0
 15 32  1  0  0  0  0
 16 18  2  0  0  0  0
 16 19  1  0  0  0  0
 17 34  1  0  0  0  0
 17 35  1  0  0  0  0
 17 36  1  0  0  0  0
 18 21  1  0  0  0  0
 18 37  1  0  0  0  0
 19 22  2  0  0  0  0
 19 38  1  0  0  0  0
 20 21  2  0  0  0  0
 20 22  1  0  0  0  0
 20 23  1  0  0  0  0
 21 39  1  0  0  0  0
 22 40  1  0  0  0  0
 24 41  1  0  0  0  0
 24 42  1  0  0  0  0
 24 43  1  0  0  0  0
M  END
> <PUBCHEM_COMPOUND_CID>
17395920

> <PUBCHEM_COMPOUND_CANONICALIZED>
1

> <PUBCHEM_CACTVS_COMPLEXITY>
587

> <PUBCHEM_CACTVS_HBOND_ACCEPTOR>
4

> <PUBCHEM_CACTVS_HBOND_DONOR>
2

> <PUBCHEM_CACTVS_ROTATABLE_BOND>
6

> <PUBCHEM_CACTVS_SUBSKEYS>
AAADceB7OAAAAAAAAAAAAAAAAAAAAAAAAAAwQAAAAAAAAAABAAAAHgAQAAAADAiBmAIzyILABACoAifyfACCAAElAgAJiAEQbMgIJjLAvZmEMQhk1AHI6ceY2yOeCAAAAAAAAAAQAAAAAAAAAAAAAAAAAA==

> <PUBCHEM_IUPAC_OPENEYE_NAME>
methyl 4-[3-(2,6-dimethyl-4-oxo-1H-pyrimidin-5-yl)propanoylamino]benzoate

> <PUBCHEM_IUPAC_CAS_NAME>
4-[[3-(2,6-dimethyl-4-oxo-1H-pyrimidin-5-yl)-1-oxopropyl]amino]benzoic acid methyl ester

> <PUBCHEM_IUPAC_NAME>
methyl 4-[3-(2,6-dimethyl-4-oxo-1H-pyrimidin-5-yl)propanoylamino]benzoate

> <PUBCHEM_IUPAC_SYSTEMATIC_NAME>
methyl 4-[3-(2,6-dimethyl-4-oxidanylidene-1H-pyrimidin-5-yl)propanoylamino]benzoate

> <PUBCHEM_IUPAC_TRADITIONAL_NAME>
4-[3-(4-keto-2,6-dimethyl-1H-pyrimidin-5-yl)propanoylamino]benzoic acid methyl ester

> <PUBCHEM_IUPAC_INCHI>
InChI=1S/C17H19N3O4/c1-10-14(16(22)19-11(2)18-10)8-9-15(21)20-13-6-4-12(5-7-13)17(23)24-3/h4-7H,8-9H2,1-3H3,(H,20,21)(H,18,19,22)

> <PUBCHEM_IUPAC_INCHIKEY>
ONIBYFBNBDQSSK-UHFFFAOYSA-N

> <PUBCHEM_XLOGP3_AA>
0.6

> <PUBCHEM_EXACT_MASS>
329.137556

> <PUBCHEM_MOLECULAR_FORMULA>
C17H19N3O4

> <PUBCHEM_MOLECULAR_WEIGHT>
329.35046

> <PUBCHEM_OPENEYE_CAN_SMILES>
CC1=C(C(=O)N=C(N1)C)CCC(=O)NC2=CC=C(C=C2)C(=O)OC

> <PUBCHEM_OPENEYE_ISO_SMILES>
CC1=C(C(=O)N=C(N1)C)CCC(=O)NC2=CC=C(C=C2)C(=O)OC

> <PUBCHEM_CACTVS_TPSA>
96.9

> <PUBCHEM_MONOISOTOPIC_WEIGHT>
329.137556

> <PUBCHEM_TOTAL_CHARGE>
0

> <PUBCHEM_HEAVY_ATOM_COUNT>
24

> <PUBCHEM_ATOM_DEF_STEREO_COUNT>
0

> <PUBCHEM_ATOM_UDEF_STEREO_COUNT>
0

> <PUBCHEM_BOND_DEF_STEREO_COUNT>
0

> <PUBCHEM_BOND_UDEF_STEREO_COUNT>
0

> <PUBCHEM_ISOTOPIC_ATOM_COUNT>
0

> <PUBCHEM_COMPONENT_COUNT>
1

> <PUBCHEM_CACTVS_TAUTO_COUNT>
28

> <PUBCHEM_COORDINATE_TYPE>
1
5
255

> <PUBCHEM_BONDANNOTATIONS>
16  18  8
16  19  8
18  21  8
19  22  8
20  21  8
20  22  8
5  11  8
5  14  8
7  12  8
7  14  8
9  11  8
9  12  8

$$$$

