4317
  -OEChem-06261200023D

 50 49  0     1  0  0  0  0  0999 V2000
    1.0557    0.7398   -0.9377 O   0  0  0  0  0  0  0  0  0  0  0  0
   -3.6870    0.8834    1.9151 O   0  0  0  0  0  0  0  0  0  0  0  0
   -1.2281   -0.0838    2.1849 O   0  0  0  0  0  0  0  0  0  0  0  0
   -4.2640    3.1024   -1.5755 O   0  0  0  0  0  0  0  0  0  0  0  0
   -5.4225    1.7473   -0.1696 O   0  0  0  0  0  0  0  0  0  0  0  0
   -1.0789   -0.7184   -0.0440 N   0  0  0  0  0  0  0  0  0  0  0  0
    2.3771   -0.3845    0.6058 N   0  0  0  0  0  0  0  0  0  0  0  0
    0.4142   -2.4260   -1.0204 C   0  0  0  0  0  0  0  0  0  0  0  0
    0.2258   -1.3233    0.0293 C   0  0  1  0  0  0  0  0  0  0  0  0
   -0.6004   -3.5841   -0.9314 C   0  0  0  0  0  0  0  0  0  0  0  0
    4.5474    0.2279   -0.4057 C   0  0  0  0  0  0  0  0  0  0  0  0
    1.2487   -0.2117   -0.1837 C   0  0  0  0  0  0  0  0  0  0  0  0
    5.7629    1.1764   -0.4081 C   0  0  0  0  0  0  0  0  0  0  0  0
    3.4765    0.5532    0.6329 C   0  0  0  0  0  0  0  0  0  0  0  0
   -0.4726   -4.3719    0.3732 C   0  0  0  0  0  0  0  0  0  0  0  0
   -2.0234   -3.0349   -1.0649 C   0  0  0  0  0  0  0  0  0  0  0  0
   -1.7051   -0.1418    1.0535 C   0  0  0  0  0  0  0  0  0  0  0  0
    6.4268    1.1688    0.9716 C   0  0  0  0  0  0  0  0  0  0  0  0
    5.3858    2.6083   -0.7907 C   0  0  0  0  0  0  0  0  0  0  0  0
   -3.0843    0.4125    0.7185 C   0  0  2  0  0  0  0  0  0  0  0  0
   -2.9964    1.5488   -0.3033 C   0  0  0  0  0  0  0  0  0  0  0  0
   -4.3583    2.1116   -0.6497 C   0  0  0  0  0  0  0  0  0  0  0  0
    1.4302   -2.8339   -0.9379 H   0  0  0  0  0  0  0  0  0  0  0  0
    0.3518   -1.9850   -2.0251 H   0  0  0  0  0  0  0  0  0  0  0  0
    0.3546   -1.7353    1.0367 H   0  0  0  0  0  0  0  0  0  0  0  0
   -0.4050   -4.2646   -1.7694 H   0  0  0  0  0  0  0  0  0  0  0  0
    4.8995   -0.7993   -0.2417 H   0  0  0  0  0  0  0  0  0  0  0  0
    4.0938    0.2297   -1.4055 H   0  0  0  0  0  0  0  0  0  0  0  0
    6.4826    0.7997   -1.1453 H   0  0  0  0  0  0  0  0  0  0  0  0
    3.8830    0.5063    1.6471 H   0  0  0  0  0  0  0  0  0  0  0  0
    3.0739    1.5585    0.4741 H   0  0  0  0  0  0  0  0  0  0  0  0
   -1.4791   -0.5712   -0.9643 H   0  0  0  0  0  0  0  0  0  0  0  0
    0.5495   -4.7427    0.5023 H   0  0  0  0  0  0  0  0  0  0  0  0
   -1.1432   -5.2380    0.3630 H   0  0  0  0  0  0  0  0  0  0  0  0
   -0.7285   -3.7668    1.2485 H   0  0  0  0  0  0  0  0  0  0  0  0
   -2.6861   -3.8693   -1.3319 H   0  0  0  0  0  0  0  0  0  0  0  0
   -2.1207   -2.3133   -1.8815 H   0  0  0  0  0  0  0  0  0  0  0  0
   -2.4377   -2.6478   -0.1314 H   0  0  0  0  0  0  0  0  0  0  0  0
    2.4553   -1.2132    1.1879 H   0  0  0  0  0  0  0  0  0  0  0  0
    5.8122    1.6594    1.7330 H   0  0  0  0  0  0  0  0  0  0  0  0
    6.6389    0.1464    1.3016 H   0  0  0  0  0  0  0  0  0  0  0  0
    7.3807    1.7065    0.9322 H   0  0  0  0  0  0  0  0  0  0  0  0
    4.8703    2.6280   -1.7565 H   0  0  0  0  0  0  0  0  0  0  0  0
    6.2840    3.2289   -0.8792 H   0  0  0  0  0  0  0  0  0  0  0  0
    4.7340    3.0759   -0.0461 H   0  0  0  0  0  0  0  0  0  0  0  0
   -3.7066   -0.4009    0.3272 H   0  0  0  0  0  0  0  0  0  0  0  0
   -2.5303    1.2137   -1.2349 H   0  0  0  0  0  0  0  0  0  0  0  0
   -2.4022    2.3712    0.1130 H   0  0  0  0  0  0  0  0  0  0  0  0
   -3.8256    0.1148    2.4947 H   0  0  0  0  0  0  0  0  0  0  0  0
   -5.1426    3.4749   -1.8026 H   0  0  0  0  0  0  0  0  0  0  0  0
  1 12  2  0  0  0  0
  2 20  1  0  0  0  0
  2 49  1  0  0  0  0
  3 17  2  0  0  0  0
  4 22  1  0  0  0  0
  4 50  1  0  0  0  0
  5 22  2  0  0  0  0
  6  9  1  0  0  0  0
  6 17  1  0  0  0  0
  6 32  1  0  0  0  0
  7 12  1  0  0  0  0
  7 14  1  0  0  0  0
  7 39  1  0  0  0  0
  8  9  1  0  0  0  0
  8 10  1  0  0  0  0
  8 23  1  0  0  0  0
  8 24  1  0  0  0  0
  9 12  1  0  0  0  0
  9 25  1  0  0  0  0
 10 15  1  0  0  0  0
 10 16  1  0  0  0  0
 10 26  1  0  0  0  0
 11 13  1  0  0  0  0
 11 14  1  0  0  0  0
 11 27  1  0  0  0  0
 11 28  1  0  0  0  0
 13 18  1  0  0  0  0
 13 19  1  0  0  0  0
 13 29  1  0  0  0  0
 14 30  1  0  0  0  0
 14 31  1  0  0  0  0
 15 33  1  0  0  0  0
 15 34  1  0  0  0  0
 15 35  1  0  0  0  0
 16 36  1  0  0  0  0
 16 37  1  0  0  0  0
 16 38  1  0  0  0  0
 17 20  1  0  0  0  0
 18 40  1  0  0  0  0
 18 41  1  0  0  0  0
 18 42  1  0  0  0  0
 19 43  1  0  0  0  0
 19 44  1  0  0  0  0
 19 45  1  0  0  0  0
 20 21  1  0  0  0  0
 20 46  1  0  0  0  0
 21 22  1  0  0  0  0
 21 47  1  0  0  0  0
 21 48  1  0  0  0  0
M  END
> <PUBCHEM_COMPOUND_CID>
4317

> <PUBCHEM_CONFORMER_RMSD>
1.2

> <PUBCHEM_CONFORMER_DIVERSEORDER>
1
46
61
45
103
24
112
131
134
29
13
3
126
12
124
91
36
110
10
128
68
96
78
102
109
11
99
18
88
75
98
38
6
47
21
62
44
71
23
111
113
25
122
66
93
39
17
81
85
95
33
53
105
133
63
48
90
87
86
60
115
139
2
138
121
130
35
108
59
4
127
89
32
80
82
51
7
58
9
84
20
117
76
8
132
119
50
107
73
67
74
19
97
5
72
123
129
55
40
77
16
57
56
94
28
37
70
114
54
65
79
104
31
120
125
137
42
136
118
26
116
41
43
92
52
106
69
100
14
135
22
83
101
34
64
27
15
49
30

> <PUBCHEM_MMFF94_PARTIAL_CHARGES>
18
1 -0.57
12 0.57
14 0.3
17 0.57
2 -0.68
20 0.34
21 0.06
22 0.66
3 -0.57
32 0.37
39 0.37
4 -0.65
49 0.4
5 -0.57
50 0.5
6 -0.73
7 -0.73
9 0.36

> <PUBCHEM_EFFECTIVE_ROTOR_COUNT>
12

> <PUBCHEM_PHARMACOPHORE_FEATURES>
11
1 1 acceptor
1 2 acceptor
1 2 donor
1 3 acceptor
1 4 acceptor
1 5 acceptor
1 6 donor
1 7 donor
3 10 15 16 hydrophobe
3 13 18 19 hydrophobe
3 4 5 22 anion

> <PUBCHEM_HEAVY_ATOM_COUNT>
22

> <PUBCHEM_ATOM_DEF_STEREO_COUNT>
0

> <PUBCHEM_ATOM_UDEF_STEREO_COUNT>
2

> <PUBCHEM_BOND_DEF_STEREO_COUNT>
0

> <PUBCHEM_BOND_UDEF_STEREO_COUNT>
0

> <PUBCHEM_ISOTOPIC_ATOM_COUNT>
0

> <PUBCHEM_COMPONENT_COUNT>
1

> <PUBCHEM_CACTVS_TAUTO_COUNT>
4

> <PUBCHEM_CONFORMER_ID>
000010DD00000001

> <PUBCHEM_MMFF94_ENERGY>
32.3499

> <PUBCHEM_FEATURE_SELFOVERLAP>
55.888

> <PUBCHEM_SHAPE_FINGERPRINT>
105312 117 18408323285160701884
12107183 9 18269286806451555266
12293681 160 17676773157684176025
12549972 3 17125331939048199321
12788726 201 18194697968193885018
12892183 10 17275097349226735184
12969540 114 18335710463399647092
13911987 19 18334294288407828569
14178000 22 18410292506043660958
167882 2 18194122038801503830
17539 30 17972608683856324087
17980427 23 17775559828291639261
204376 136 18335416902363535051
21033648 29 18408611344344065144
23419403 2 17054160572346139143
268830 7 17131278940056446676
2838139 119 18272661176633789004
3057174 1 18114181994316963799
3759504 43 18409448063912599650
53917941 68 18334022665753389414
559249 180 18334014978659013942
6327066 14 18412268345460622229
633830 44 17533195686533846706
7399639 24 18197197330739182363
77188 2 17258497743120862495
9981440 41 18340763848995224433

> <PUBCHEM_SHAPE_MULTIPOLES>
413.44
12.22
4.36
1.4
16.19
4.45
-0.43
-14.61
0.47
-4.6
1.74
-0.86
-0.29
0.2

> <PUBCHEM_SHAPE_SELFOVERLAP>
796.291

> <PUBCHEM_SHAPE_VOLUME>
250.6

> <PUBCHEM_COORDINATE_TYPE>
2
5
10

$$$$

