12016
  -OEChem-06261206233D

 17 16  0     0  0  0  0  0  0999 V2000
    0.0071   -1.6857    0.1915 Cl  0  0  0  0  0  0  0  0  0  0  0  0
    0.0085    0.0519   -0.2489 C   0  0  0  0  0  0  0  0  0  0  0  0
   -1.2799    0.7284    0.2446 C   0  0  0  0  0  0  0  0  0  0  0  0
    1.2808    0.7422    0.2614 C   0  0  0  0  0  0  0  0  0  0  0  0
   -2.5796    0.0826   -0.2195 C   0  0  0  0  0  0  0  0  0  0  0  0
    2.5630    0.0805   -0.2291 C   0  0  0  0  0  0  0  0  0  0  0  0
    0.0130    0.0755   -1.3448 H   0  0  0  0  0  0  0  0  0  0  0  0
   -1.2757    1.7718   -0.0950 H   0  0  0  0  0  0  0  0  0  0  0  0
   -1.2814    0.7621    1.3415 H   0  0  0  0  0  0  0  0  0  0  0  0
    1.2761    1.7870   -0.0723 H   0  0  0  0  0  0  0  0  0  0  0  0
    1.2866    0.7616    1.3581 H   0  0  0  0  0  0  0  0  0  0  0  0
   -3.4317    0.7021    0.0790 H   0  0  0  0  0  0  0  0  0  0  0  0
   -2.5989   -0.0162   -1.3093 H   0  0  0  0  0  0  0  0  0  0  0  0
   -2.7243   -0.9072    0.2228 H   0  0  0  0  0  0  0  0  0  0  0  0
    2.7093   -0.9100    0.2112 H   0  0  0  0  0  0  0  0  0  0  0  0
    3.4267    0.6914    0.0538 H   0  0  0  0  0  0  0  0  0  0  0  0
    2.5637   -0.0174   -1.3193 H   0  0  0  0  0  0  0  0  0  0  0  0
  1  2  1  0  0  0  0
  2  3  1  0  0  0  0
  2  4  1  0  0  0  0
  2  7  1  0  0  0  0
  3  5  1  0  0  0  0
  3  8  1  0  0  0  0
  3  9  1  0  0  0  0
  4  6  1  0  0  0  0
  4 10  1  0  0  0  0
  4 11  1  0  0  0  0
  5 12  1  0  0  0  0
  5 13  1  0  0  0  0
  5 14  1  0  0  0  0
  6 15  1  0  0  0  0
  6 16  1  0  0  0  0
  6 17  1  0  0  0  0
M  END
> <PUBCHEM_COMPOUND_CID>
12016

> <PUBCHEM_CONFORMER_RMSD>
0.4

> <PUBCHEM_CONFORMER_DIVERSEORDER>
1
5
6
2
4
7
3

> <PUBCHEM_MMFF94_PARTIAL_CHARGES>
2
1 -0.29
2 0.29

> <PUBCHEM_EFFECTIVE_ROTOR_COUNT>
2

> <PUBCHEM_PHARMACOPHORE_FEATURES>
2
1 5 hydrophobe
1 6 hydrophobe

> <PUBCHEM_HEAVY_ATOM_COUNT>
6

> <PUBCHEM_ATOM_DEF_STEREO_COUNT>
0

> <PUBCHEM_ATOM_UDEF_STEREO_COUNT>
0

> <PUBCHEM_BOND_DEF_STEREO_COUNT>
0

> <PUBCHEM_BOND_UDEF_STEREO_COUNT>
0

> <PUBCHEM_ISOTOPIC_ATOM_COUNT>
0

> <PUBCHEM_COMPONENT_COUNT>
1

> <PUBCHEM_CACTVS_TAUTO_COUNT>
1

> <PUBCHEM_CONFORMER_ID>
00002EF000000001

> <PUBCHEM_MMFF94_ENERGY>
0.8478

> <PUBCHEM_FEATURE_SELFOVERLAP>
10.149

> <PUBCHEM_SHAPE_FINGERPRINT>
14325111 11 18411136935115558396
16714656 1 18343299245319836668
20096714 4 18409168805101837112
21040471 1 18411983537741685578
23552449 11 17771919495325868483
29004967 10 18059569226163843185
5084963 1 18260548922076578657
5460574 1 10303815380031563908

> <PUBCHEM_SHAPE_MULTIPOLES>
125.35
3.33
1.31
0.68
0.05
0.71
0
-0.63
-0.35
-0.01
0.14
0
0
0

> <PUBCHEM_SHAPE_SELFOVERLAP>
206.231

> <PUBCHEM_SHAPE_VOLUME>
88

> <PUBCHEM_COORDINATE_TYPE>
2
5
10

$$$$

