3466
  -OEChem-06251223263D

 30 32  0     0  0  0  0  0  0999 V2000
   -1.1626   -2.0677   -0.0007 O   0  0  0  0  0  0  0  0  0  0  0  0
    0.2162    1.8656    0.0157 O   0  0  0  0  0  0  0  0  0  0  0  0
   -2.3235    2.7015   -0.0032 O   0  0  0  0  0  0  0  0  0  0  0  0
   -5.6625   -0.6530   -0.0001 O   0  0  0  0  0  0  0  0  0  0  0  0
    6.1948    0.2776   -0.0064 O   0  0  0  0  0  0  0  0  0  0  0  0
   -1.6897    0.3525    0.0002 C   0  0  0  0  0  0  0  0  0  0  0  0
    0.6228   -0.4683    0.0050 C   0  0  0  0  0  0  0  0  0  0  0  0
   -0.3567    0.6115    0.0050 C   0  0  0  0  0  0  0  0  0  0  0  0
   -2.1229   -1.0596   -0.0022 C   0  0  0  0  0  0  0  0  0  0  0  0
    2.0838   -0.2731    0.0014 C   0  0  0  0  0  0  0  0  0  0  0  0
   -2.7362    1.3850   -0.0014 C   0  0  0  0  0  0  0  0  0  0  0  0
    0.1683   -1.7298    0.0019 C   0  0  0  0  0  0  0  0  0  0  0  0
   -3.4198   -1.3958   -0.0034 C   0  0  0  0  0  0  0  0  0  0  0  0
    2.7695   -0.1767   -1.2076 C   0  0  0  0  0  0  0  0  0  0  0  0
    2.7749   -0.1851    1.2083 C   0  0  0  0  0  0  0  0  0  0  0  0
   -4.0387    1.0640   -0.0027 C   0  0  0  0  0  0  0  0  0  0  0  0
   -4.4733   -0.3536   -0.0024 C   0  0  0  0  0  0  0  0  0  0  0  0
    4.1520    0.0083   -1.2101 C   0  0  0  0  0  0  0  0  0  0  0  0
    4.1575    0.0000    1.2059 C   0  0  0  0  0  0  0  0  0  0  0  0
    4.8461    0.0968   -0.0033 C   0  0  0  0  0  0  0  0  0  0  0  0
    0.7853   -2.6185   -0.0004 H   0  0  0  0  0  0  0  0  0  0  0  0
   -3.7398   -2.4321   -0.0040 H   0  0  0  0  0  0  0  0  0  0  0  0
    2.2423   -0.2427   -2.1563 H   0  0  0  0  0  0  0  0  0  0  0  0
    2.2521   -0.2576    2.1588 H   0  0  0  0  0  0  0  0  0  0  0  0
   -4.8157    1.8209   -0.0041 H   0  0  0  0  0  0  0  0  0  0  0  0
    4.6767    0.0823   -2.1589 H   0  0  0  0  0  0  0  0  0  0  0  0
    4.6925    0.0684    2.1491 H   0  0  0  0  0  0  0  0  0  0  0  0
   -0.4857    2.5354    0.0187 H   0  0  0  0  0  0  0  0  0  0  0  0
   -3.1130    3.2699   -0.0046 H   0  0  0  0  0  0  0  0  0  0  0  0
    6.5047    0.3225   -0.9272 H   0  0  0  0  0  0  0  0  0  0  0  0
  1  9  1  0  0  0  0
  1 12  1  0  0  0  0
  2  8  1  0  0  0  0
  2 28  1  0  0  0  0
  3 11  1  0  0  0  0
  3 29  1  0  0  0  0
  4 17  2  0  0  0  0
  5 20  1  0  0  0  0
  5 30  1  0  0  0  0
  6  8  2  0  0  0  0
  6  9  1  0  0  0  0
  6 11  1  0  0  0  0
  7  8  1  0  0  0  0
  7 10  1  0  0  0  0
  7 12  2  0  0  0  0
  9 13  2  0  0  0  0
 10 14  2  0  0  0  0
 10 15  1  0  0  0  0
 11 16  2  0  0  0  0
 12 21  1  0  0  0  0
 13 17  1  0  0  0  0
 13 22  1  0  0  0  0
 14 18  1  0  0  0  0
 14 23  1  0  0  0  0
 15 19  2  0  0  0  0
 15 24  1  0  0  0  0
 16 17  1  0  0  0  0
 16 25  1  0  0  0  0
 18 20  2  0  0  0  0
 18 26  1  0  0  0  0
 19 20  1  0  0  0  0
 19 27  1  0  0  0  0
M  END
> <PUBCHEM_COMPOUND_CID>
3466

> <PUBCHEM_CONFORMER_RMSD>
0.6

> <PUBCHEM_CONFORMER_DIVERSEORDER>
1

> <PUBCHEM_MMFF94_PARTIAL_CHARGES>
29
1 -0.15
10 0.03
11 0.08
12 -0.07
13 -0.14
14 -0.15
15 -0.15
16 -0.14
17 0.54
18 -0.15
19 -0.15
2 -0.53
20 0.08
21 0.15
22 0.15
23 0.15
24 0.15
25 0.15
26 0.15
27 0.15
28 0.45
29 0.45
3 -0.53
30 0.45
4 -0.57
5 -0.53
7 -0.03
8 0.08
9 0.08

> <PUBCHEM_EFFECTIVE_ROTOR_COUNT>
1

> <PUBCHEM_PHARMACOPHORE_FEATURES>
8
1 1 acceptor
1 2 donor
1 3 donor
1 4 acceptor
1 5 donor
6 1 6 7 8 9 12 rings
6 10 14 15 18 19 20 rings
6 6 9 11 13 16 17 rings

> <PUBCHEM_HEAVY_ATOM_COUNT>
20

> <PUBCHEM_ATOM_DEF_STEREO_COUNT>
0

> <PUBCHEM_ATOM_UDEF_STEREO_COUNT>
0

> <PUBCHEM_BOND_DEF_STEREO_COUNT>
0

> <PUBCHEM_BOND_UDEF_STEREO_COUNT>
0

> <PUBCHEM_ISOTOPIC_ATOM_COUNT>
0

> <PUBCHEM_COMPONENT_COUNT>
1

> <PUBCHEM_CACTVS_TAUTO_COUNT>
24

> <PUBCHEM_CONFORMER_ID>
00000D8A00000001

> <PUBCHEM_MMFF94_ENERGY>
62.0362

> <PUBCHEM_FEATURE_SELFOVERLAP>
40.629

> <PUBCHEM_SHAPE_FINGERPRINT>
10411042 1 18050567340375198955
10498660 4 18338799030058487413
11132069 177 18409447007482104405
11963148 33 18341055112551659779
12011746 2 18409173207801868815
12107183 9 17481158120900869072
12236239 1 17775287170887879418
12390115 104 18115295821650849209
12403259 415 18040725765790793800
12403814 3 17417815062751145573
12596602 18 17346314864999579568
12670546 56 16773802514854834548
12916748 109 18411132545985977514
13140716 1 18194681471719632731
13533116 47 17703519869305143154
13862211 1 18411141303756986719
14386348 63 17749104487473643142
14573314 32 17676200299314938100
14739800 52 18268999679324763288
15042514 8 18267019466866483051
15196674 1 18338517559619135687
16945 1 18410575085238247751
16988056 13 15030078619025253676
17804303 29 18335985281298043457
18186145 218 17676486180917649146
19141452 34 17603586279722167143
200 152 15913616063926548486
20028762 73 17970627390580672143
20279233 1 17822286881975546174
20510252 161 18261110819931798385
20645477 56 18186522089976075558
21033648 29 17168438137200391520
21065198 48 17988649648377956872
21267235 1 18411412878802197779
2297311 6 18261384550918904748
23175994 123 17022900133849318953
23402539 116 18335989691923644471
23536379 177 15913335701873888175
23557571 272 18259699017195451404
23559900 14 18261105327327970846
26918003 58 14189573039934065628
2748010 2 18121784920323918651
3268164 11 18334586749783756005
335352 9 18411140204735566999
34797466 226 17968362456645582804
34934 24 18340211916176034305
350125 39 18411698786201475785
474 4 16987143930516629388
474229 33 18411138034912263127
5104073 3 18266173010395130779
542803 24 17703788119950662310
69090 78 17603872182430345215
77492 1 17704072893694410242

> <PUBCHEM_SHAPE_MULTIPOLES>
382.24
11.16
1.73
0.91
4.57
0.44
0
0.36
-0.02
-1.93
0
1.09
-0.03
-0.01

> <PUBCHEM_SHAPE_SELFOVERLAP>
851.807

> <PUBCHEM_SHAPE_VOLUME>
201.7

> <PUBCHEM_COORDINATE_TYPE>
2
5
10

$$$$

