7160
  -OEChem-06261201503D

 28 28  0     0  0  0  0  0  0999 V2000
    0.8107    2.8279   -0.0606 Cl  0  0  0  0  0  0  0  0  0  0  0  0
    3.9161   -2.5879   -0.0496 Cl  0  0  0  0  0  0  0  0  0  0  0  0
    5.2540    0.0958    1.1695 Cl  0  0  0  0  0  0  0  0  0  0  0  0
   -3.4293   -0.8760   -0.1148 O   0  0  0  0  0  0  0  0  0  0  0  0
   -0.1652    0.1868   -1.1139 O   0  0  0  0  0  0  0  0  0  0  0  0
   -2.7209    1.0193   -1.2258 O   0  0  0  0  0  0  0  0  0  0  0  0
   -4.5907   -0.2266    0.4125 C   0  0  0  0  0  0  0  0  0  0  0  0
   -5.5424   -1.2757    0.9669 C   0  0  0  0  0  0  0  0  0  0  0  0
   -4.1656    0.7726    1.4776 C   0  0  0  0  0  0  0  0  0  0  0  0
   -1.1332   -0.6656   -0.5065 C   0  0  0  0  0  0  0  0  0  0  0  0
   -2.4973   -0.0498   -0.6743 C   0  0  0  0  0  0  0  0  0  0  0  0
    1.0907    0.1735   -0.5838 C   0  0  0  0  0  0  0  0  0  0  0  0
    1.6669    1.3302   -0.0587 C   0  0  0  0  0  0  0  0  0  0  0  0
    1.8010   -1.0268   -0.5720 C   0  0  0  0  0  0  0  0  0  0  0  0
    3.0877   -1.0704   -0.0350 C   0  0  0  0  0  0  0  0  0  0  0  0
    2.9536    1.2865    0.4782 C   0  0  0  0  0  0  0  0  0  0  0  0
    3.6640    0.0862    0.4901 C   0  0  0  0  0  0  0  0  0  0  0  0
   -5.1034    0.2967   -0.4043 H   0  0  0  0  0  0  0  0  0  0  0  0
   -6.4551   -0.8189    1.3611 H   0  0  0  0  0  0  0  0  0  0  0  0
   -5.8184   -1.9910    0.1847 H   0  0  0  0  0  0  0  0  0  0  0  0
   -5.0644   -1.8531    1.7659 H   0  0  0  0  0  0  0  0  0  0  0  0
   -5.0389    1.2026    1.9792 H   0  0  0  0  0  0  0  0  0  0  0  0
   -3.5877    1.6046    1.0646 H   0  0  0  0  0  0  0  0  0  0  0  0
   -3.5345    0.2925    2.2340 H   0  0  0  0  0  0  0  0  0  0  0  0
   -1.1184   -1.6369   -1.0110 H   0  0  0  0  0  0  0  0  0  0  0  0
   -0.9380   -0.7787    0.5666 H   0  0  0  0  0  0  0  0  0  0  0  0
    1.3540   -1.9260   -0.9901 H   0  0  0  0  0  0  0  0  0  0  0  0
    3.4014    2.1899    0.8875 H   0  0  0  0  0  0  0  0  0  0  0  0
  1 13  1  0  0  0  0
  2 15  1  0  0  0  0
  3 17  1  0  0  0  0
  4  7  1  0  0  0  0
  4 11  1  0  0  0  0
  5 10  1  0  0  0  0
  5 12  1  0  0  0  0
  6 11  2  0  0  0  0
  7  8  1  0  0  0  0
  7  9  1  0  0  0  0
  7 18  1  0  0  0  0
  8 19  1  0  0  0  0
  8 20  1  0  0  0  0
  8 21  1  0  0  0  0
  9 22  1  0  0  0  0
  9 23  1  0  0  0  0
  9 24  1  0  0  0  0
 10 11  1  0  0  0  0
 10 25  1  0  0  0  0
 10 26  1  0  0  0  0
 12 13  1  0  0  0  0
 12 14  2  0  0  0  0
 13 16  2  0  0  0  0
 14 15  1  0  0  0  0
 14 27  1  0  0  0  0
 15 17  2  0  0  0  0
 16 17  1  0  0  0  0
 16 28  1  0  0  0  0
M  END
> <PUBCHEM_COMPOUND_CID>
7160

> <PUBCHEM_CONFORMER_RMSD>
0.6

> <PUBCHEM_CONFORMER_DIVERSEORDER>
1
50
153
343
167
269
313
234
314
101
253
342
116
4
300
59
88
13
195
270
75
312
90
246
125
305
348
172
100
298
207
335
230
37
260
244
206
124
330
284
17
87
277
58
28
97
204
38
72
281
29
328
350
275
247
346
22
319
212
344
339
155
74
254
118
163
177
20
226
8
315
347
24
93
289
76
217
146
255
337
213
324
133
170
262
188
18
320
265
232
278
294
43
222
243
302
27
200
228
96
16
77
194
47
10
158
321
136
63
266
185
67
36
95
26
202
157
3
322
91
42
208
349
2
151
192
35
231
11
223
162
257
180
332
268
92
115
191
161
288
225
173
5
149
334
15
32
111
119
131
249
189
31
53
283
25
65
174
196
150
121
239
52
33
345
104
57
160
48
287
132
61
51
45
351
102
168
227
251
54
147
46
271
286
279
292
106
209
274
184
165
9
267
340
23
41
250
256
39
154
60
235
82
176
142
336
327
107
143
338
30
311
310
248
156
49
113
138
105
299
130
55
129
148
316
141
291
14
296
240
78
103
99
144
179
83
236
205
62
98
238
19
280
89
135
199
331
273
134
211
112
7
218
229
178
181
317
221
139
56
259
21
295
128
109
233
120
241
245
94
258
70
201
66
293
122
68
309
64
6
137
301
69
79
341
73
152
175
81
224
216
214
114
308
323
237
329
84
307
282
290
110
182
145
263
117
86
140
285
210
325
190
197
71
34
304
318
12
215
219
242
272
264
306
40
261
326
127
166
297
203
123
171
252
276
108
193
169
303
85
183
126
159
333
44
187
80
186
220
164
198

> <PUBCHEM_MMFF94_PARTIAL_CHARGES>
17
1 -0.18
10 0.34
11 0.66
12 0.08
13 0.18
14 -0.15
15 0.18
16 -0.15
17 0.18
2 -0.18
27 0.15
28 0.15
3 -0.18
4 -0.43
5 -0.36
6 -0.57
7 0.28

> <PUBCHEM_EFFECTIVE_ROTOR_COUNT>
5

> <PUBCHEM_PHARMACOPHORE_FEATURES>
4
1 5 acceptor
1 6 acceptor
3 7 8 9 hydrophobe
6 12 13 14 15 16 17 rings

> <PUBCHEM_HEAVY_ATOM_COUNT>
17

> <PUBCHEM_ATOM_DEF_STEREO_COUNT>
0

> <PUBCHEM_ATOM_UDEF_STEREO_COUNT>
0

> <PUBCHEM_BOND_DEF_STEREO_COUNT>
0

> <PUBCHEM_BOND_UDEF_STEREO_COUNT>
0

> <PUBCHEM_ISOTOPIC_ATOM_COUNT>
0

> <PUBCHEM_COMPONENT_COUNT>
1

> <PUBCHEM_CACTVS_TAUTO_COUNT>
1

> <PUBCHEM_CONFORMER_ID>
00001BF800000001

> <PUBCHEM_MMFF94_ENERGY>
41.3254

> <PUBCHEM_FEATURE_SELFOVERLAP>
20.304

> <PUBCHEM_SHAPE_FINGERPRINT>
10354089 29 18113897139464156402
10693767 8 11671525395068115400
11543360 7 10879986943892275847
11796584 16 16772132425649122674
12251169 10 18334574603695266503
12507557 5 18334577932574813905
12596602 18 18040434395135677795
12633257 1 18341897342177236803
12644460 14 18200589190503265340
12670546 177 11312054352804621947
12892183 10 18187644734276368585
13533116 47 18340197489407456051
13675066 3 18341055193600682365
14252887 29 18412268358951717530
14341114 176 18260822700645974763
14528608 73 9439399116746183675
14790565 3 18192431875499217200
15188451 53 18130224836283325227
15475509 84 17459471246428405008
15885798 251 18341048609537318552
1813 80 17703785946765854308
18785283 64 18127410055924049996
18915474 69 13110958712838414329
193927 3 17060046060789497155
20432913 95 18202279212788991243
20645477 70 18191888887914958758
20739085 24 18261664974161241548
20871998 22 18337956791846509764
21065199 12 18410575102164785961
21637258 2 15841287990487052584
231179 274 5689592784136741470
23184049 59 18186803599249059022
23402655 69 9799422117571093931
23559900 14 14620508961814773533
26918003 58 18342178851977682041
2748010 2 17900565646495848308
29717793 49 13686304590310990667
3286 77 18343295938685720061
3472631 163 14707209894582097377
42 15 18272369767629213903
5104073 3 18264215879734346336
5352402 22 18342455967104001966
633830 44 11527386107402428270

> <PUBCHEM_SHAPE_MULTIPOLES>
337.85
11.35
2.18
1.13
8.75
0.42
-0.14
-4.11
-5.28
-1.79
0.03
0.56
0.11
0.45

> <PUBCHEM_SHAPE_SELFOVERLAP>
664.565

> <PUBCHEM_SHAPE_VOLUME>
205.2

> <PUBCHEM_COORDINATE_TYPE>
2
5
10

$$$$

