17396159
  -OEChem-06241222553D

 32 34  0     0  0  0  0  0  0999 V2000
   -6.8060    1.7843    0.0201 Br  0  0  0  0  0  0  0  0  0  0  0  0
    5.5786    0.7244   -1.4244 S   0  0  0  0  0  0  0  0  0  0  0  0
    0.1177    0.8748    0.0081 O   0  0  0  0  0  0  0  0  0  0  0  0
    4.2585    0.0706    0.6749 N   0  0  0  0  0  0  0  0  0  0  0  0
    3.0291   -0.4282   -1.1224 N   0  0  0  0  0  0  0  0  0  0  0  0
   -1.3754   -0.9422   -0.0131 N   0  0  0  0  0  0  0  0  0  0  0  0
    2.3628   -0.7614    0.0425 C   0  0  0  0  0  0  0  0  0  0  0  0
    0.9982   -1.3728   -0.0185 C   0  0  0  0  0  0  0  0  0  0  0  0
    3.1077   -0.4603    1.1713 C   0  0  0  0  0  0  0  0  0  0  0  0
    4.1538    0.0637   -0.6826 C   0  0  0  0  0  0  0  0  0  0  0  0
   -2.6311   -0.3297   -0.0054 C   0  0  0  0  0  0  0  0  0  0  0  0
   -0.1116   -0.3305   -0.0052 C   0  0  0  0  0  0  0  0  0  0  0  0
   -3.7989   -1.0925   -0.0164 C   0  0  0  0  0  0  0  0  0  0  0  0
    5.4311    0.5818    1.1780 C   0  0  0  0  0  0  0  0  0  0  0  0
   -2.7079    1.0630    0.0125 C   0  0  0  0  0  0  0  0  0  0  0  0
    6.2553    0.9804    0.1942 C   0  0  0  0  0  0  0  0  0  0  0  0
   -5.0435   -0.4626   -0.0096 C   0  0  0  0  0  0  0  0  0  0  0  0
   -3.7459   -2.5860   -0.0319 C   0  0  0  0  0  0  0  0  0  0  0  0
   -3.9523    1.6928    0.0194 C   0  0  0  0  0  0  0  0  0  0  0  0
   -5.1201    0.9302    0.0085 C   0  0  0  0  0  0  0  0  0  0  0  0
    0.9045   -1.9674   -0.9348 H   0  0  0  0  0  0  0  0  0  0  0  0
    0.8570   -2.0478    0.8340 H   0  0  0  0  0  0  0  0  0  0  0  0
    2.9182   -0.5761    2.2294 H   0  0  0  0  0  0  0  0  0  0  0  0
   -1.3748   -1.9585   -0.0267 H   0  0  0  0  0  0  0  0  0  0  0  0
    5.6122    0.6317    2.2409 H   0  0  0  0  0  0  0  0  0  0  0  0
   -1.8557    1.7267    0.0222 H   0  0  0  0  0  0  0  0  0  0  0  0
    7.2342    1.4152    0.3382 H   0  0  0  0  0  0  0  0  0  0  0  0
   -5.9548   -1.0563   -0.0173 H   0  0  0  0  0  0  0  0  0  0  0  0
   -3.2310   -2.9440   -0.9296 H   0  0  0  0  0  0  0  0  0  0  0  0
   -3.2339   -2.9627    0.8599 H   0  0  0  0  0  0  0  0  0  0  0  0
   -4.7484   -3.0280   -0.0382 H   0  0  0  0  0  0  0  0  0  0  0  0
   -3.9962    2.7790    0.0338 H   0  0  0  0  0  0  0  0  0  0  0  0
  1 20  1  0  0  0  0
  2 10  1  0  0  0  0
  2 16  1  0  0  0  0
  3 12  2  0  0  0  0
  4  9  1  0  0  0  0
  4 10  1  0  0  0  0
  4 14  1  0  0  0  0
  5  7  1  0  0  0  0
  5 10  2  0  0  0  0
  6 11  1  0  0  0  0
  6 12  1  0  0  0  0
  6 24  1  0  0  0  0
  7  8  1  0  0  0  0
  7  9  2  0  0  0  0
  8 12  1  0  0  0  0
  8 21  1  0  0  0  0
  8 22  1  0  0  0  0
  9 23  1  0  0  0  0
 11 13  2  0  0  0  0
 11 15  1  0  0  0  0
 13 17  1  0  0  0  0
 13 18  1  0  0  0  0
 14 16  2  0  0  0  0
 14 25  1  0  0  0  0
 15 19  2  0  0  0  0
 15 26  1  0  0  0  0
 16 27  1  0  0  0  0
 17 20  2  0  0  0  0
 17 28  1  0  0  0  0
 18 29  1  0  0  0  0
 18 30  1  0  0  0  0
 18 31  1  0  0  0  0
 19 20  1  0  0  0  0
 19 32  1  0  0  0  0
M  END
> <PUBCHEM_COMPOUND_CID>
17396159

> <PUBCHEM_CONFORMER_RMSD>
0.6

> <PUBCHEM_CONFORMER_DIVERSEORDER>
1
76
48
34
75
60
102
105
2
9
35
104
61
108
91
64
103
20
72
44
16
65
31
89
67
77
68
49
69
66
13
30
80
17
8
90
93
21
7
15
58
111
40
86
29
88
99
39
59
56
22
28
18
55
63
32
115
23
12
96
100
62
109
106
11
51
97
52
25
50
84
27
14
81
101
53
94
57
5
83
107
10
36
41
114
38
33
82
78
26
79
6
85
87
54
19
74
3
24
47
4
71
43
92
113
95
37
45
73
46
112
70
42
98
110

> <PUBCHEM_MMFF94_PARTIAL_CHARGES>
27
1 -0.11
10 0.24
11 0.12
12 0.57
13 -0.14
14 -0.18
15 -0.15
16 -0.05
17 -0.15
18 0.14
19 -0.15
2 -0.16
20 0.11
23 0.15
24 0.37
25 0.15
26 0.15
27 0.15
28 0.15
3 -0.57
32 0.15
4 0.33
5 -0.57
6 -0.55
7 0.05
8 0.24
9 -0.3

> <PUBCHEM_EFFECTIVE_ROTOR_COUNT>
4

> <PUBCHEM_PHARMACOPHORE_FEATURES>
7
1 1 hydrophobe
1 3 acceptor
1 6 donor
3 4 5 10 cation
5 2 4 10 14 16 rings
5 4 5 7 9 10 rings
6 11 13 15 17 19 20 rings

> <PUBCHEM_HEAVY_ATOM_COUNT>
20

> <PUBCHEM_ATOM_DEF_STEREO_COUNT>
0

> <PUBCHEM_ATOM_UDEF_STEREO_COUNT>
0

> <PUBCHEM_BOND_DEF_STEREO_COUNT>
0

> <PUBCHEM_BOND_UDEF_STEREO_COUNT>
0

> <PUBCHEM_ISOTOPIC_ATOM_COUNT>
0

> <PUBCHEM_COMPONENT_COUNT>
1

> <PUBCHEM_CACTVS_TAUTO_COUNT>
2

> <PUBCHEM_CONFORMER_ID>
010971BF00000001

> <PUBCHEM_MMFF94_ENERGY>
51.1753

> <PUBCHEM_FEATURE_SELFOVERLAP>
35.772

> <PUBCHEM_SHAPE_FINGERPRINT>
10 15 18131346423678700281
10354089 29 17418371407234769300
10366900 7 17167867491172075115
10411042 1 17977948978686327951
106641 1 18341039780282076841
10688039 33 14979961380445060470
10912923 1 17775289335377485850
11315181 36 17988925522944367847
117890 112 18412826897483076344
12107183 9 17552934226765889616
12236239 1 17918275350433240346
12390115 104 17969492900685944225
12596602 18 16917345926677252721
12616971 3 16988841665893841710
12730499 353 17530960277006719614
13631057 29 18058731274203763531
13668630 136 5906045945947746189
13685833 64 10663815286785694980
14251764 18 18131631175920977957
14341114 328 17989489619353247018
14528608 73 18412823552099204796
15048467 5 18413108381245075797
15183329 4 5328747370379351596
15188451 53 10015577281781757665
17980427 23 17988358183096637911
18222031 100 5833701362205467235
19489759 90 18341896272698744499
20281389 69 18342460378082978761
20511986 3 17988376909021860505
20645477 56 18409729591077316065
20645477 70 16515679000586570926
20681677 155 18413389843674508027
21033648 29 17676782993148701730
21150785 3 16588032303354930045
220451 1 16343982494756189442
22061861 79 16443339897238411532
221357 26 16226047816593218224
23081809 10 18060423482569670650
23198884 109 16660360411797476577
23402539 116 16845579703357601327
23559900 14 18262512710342847574
2916195 48 18188216399256523408
29717793 49 4967616066276108344
300161 21 18342742935676018223
3004659 81 18339078302524129186
34797466 226 17749382625071081700
34934 24 18410860992668875579
3545911 37 18334856138669617743
4073 2 18201715133417881634
4340502 62 16128654171536436128
441001 317 18334575750324979369
465052 167 11240003369465284472
5104073 3 18341608282794918091
542803 24 17917711301026116014

> <PUBCHEM_SHAPE_MULTIPOLES>
400.57
17.6
1.8
0.97
2.21
0.48
0.05
-8.12
0.15
-2.97
0.04
1.61
-0.1
-0.24

> <PUBCHEM_SHAPE_SELFOVERLAP>
843.482

> <PUBCHEM_SHAPE_VOLUME>
231.6

> <PUBCHEM_COORDINATE_TYPE>
2
5
10

$$$$

