11824
  -OEChem-06261206093D

 34 36  0     1  0  0  0  0  0999 V2000
    2.2081    0.4187    1.0179 O   0  0  0  0  0  0  0  0  0  0  0  0
    1.7530   -2.2016   -1.4002 O   0  0  0  0  0  0  0  0  0  0  0  0
    3.9501   -1.9387    0.1775 O   0  0  0  0  0  0  0  0  0  0  0  0
    3.6737    2.7829    0.6639 O   0  0  0  0  0  0  0  0  0  0  0  0
    0.0309   -0.0625    0.2065 N   0  0  0  0  0  0  0  0  0  0  0  0
   -1.1745   -2.1381    0.4434 N   0  0  0  0  0  0  0  0  0  0  0  0
   -3.5865   -1.8684    0.2499 N   0  0  0  0  0  0  0  0  0  0  0  0
   -4.6222    0.2422   -0.1343 N   0  0  0  0  0  0  0  0  0  0  0  0
   -2.9432    3.5683   -0.5283 N   0  0  0  0  0  0  0  0  0  0  0  0
    1.3899   -0.5739    0.3696 C   0  0  1  0  0  0  0  0  0  0  0  0
    2.0877   -0.9083   -0.9400 C   0  0  1  0  0  0  0  0  0  0  0  0
    3.5459   -0.7768   -0.5468 C   0  0  1  0  0  0  0  0  0  0  0  0
    3.5194    0.4131    0.4074 C   0  0  1  0  0  0  0  0  0  0  0  0
    3.7254    1.7454   -0.2996 C   0  0  0  0  0  0  0  0  0  0  0  0
   -1.1197   -0.8093    0.2465 C   0  0  0  0  0  0  0  0  0  0  0  0
   -0.2937    1.2546   -0.0125 C   0  0  0  0  0  0  0  0  0  0  0  0
   -2.1972    0.0456    0.0491 C   0  0  0  0  0  0  0  0  0  0  0  0
   -1.6654    1.3504   -0.1136 C   0  0  0  0  0  0  0  0  0  0  0  0
   -3.4647   -0.5347    0.0563 C   0  0  0  0  0  0  0  0  0  0  0  0
   -2.4494   -2.5776    0.4288 C   0  0  0  0  0  0  0  0  0  0  0  0
   -2.3674    2.5688   -0.3415 C   0  0  0  0  0  0  0  0  0  0  0  0
    1.3280   -1.4395    1.0405 H   0  0  0  0  0  0  0  0  0  0  0  0
    1.8369   -0.1820   -1.7218 H   0  0  0  0  0  0  0  0  0  0  0  0
    4.2182   -0.6644   -1.4021 H   0  0  0  0  0  0  0  0  0  0  0  0
    4.2438    0.3088    1.2232 H   0  0  0  0  0  0  0  0  0  0  0  0
    2.9465    1.9426   -1.0429 H   0  0  0  0  0  0  0  0  0  0  0  0
    4.7006    1.7823   -0.7937 H   0  0  0  0  0  0  0  0  0  0  0  0
    0.4730    2.0150   -0.0848 H   0  0  0  0  0  0  0  0  0  0  0  0
    2.0269   -2.8424   -0.7220 H   0  0  0  0  0  0  0  0  0  0  0  0
    4.8723   -1.8017    0.4538 H   0  0  0  0  0  0  0  0  0  0  0  0
    2.8045    2.7371    1.0978 H   0  0  0  0  0  0  0  0  0  0  0  0
   -2.5813   -3.6434    0.5811 H   0  0  0  0  0  0  0  0  0  0  0  0
   -4.5691    1.2394   -0.2808 H   0  0  0  0  0  0  0  0  0  0  0  0
   -5.5229   -0.2175   -0.1215 H   0  0  0  0  0  0  0  0  0  0  0  0
  1 10  1  0  0  0  0
  1 13  1  0  0  0  0
  2 11  1  0  0  0  0
  2 29  1  0  0  0  0
  3 12  1  0  0  0  0
  3 30  1  0  0  0  0
  4 14  1  0  0  0  0
  4 31  1  0  0  0  0
  5 10  1  0  0  0  0
  5 15  1  0  0  0  0
  5 16  1  0  0  0  0
  6 15  2  0  0  0  0
  6 20  1  0  0  0  0
  7 19  1  0  0  0  0
  7 20  2  0  0  0  0
  8 19  1  0  0  0  0
  8 33  1  0  0  0  0
  8 34  1  0  0  0  0
  9 21  3  0  0  0  0
 10 11  1  0  0  0  0
 10 22  1  0  0  0  0
 11 12  1  0  0  0  0
 11 23  1  0  0  0  0
 12 13  1  0  0  0  0
 12 24  1  0  0  0  0
 13 14  1  0  0  0  0
 13 25  1  0  0  0  0
 14 26  1  0  0  0  0
 14 27  1  0  0  0  0
 15 17  1  0  0  0  0
 16 18  2  0  0  0  0
 16 28  1  0  0  0  0
 17 18  1  0  0  0  0
 17 19  2  0  0  0  0
 18 21  1  0  0  0  0
 20 32  1  0  0  0  0
M  END
> <PUBCHEM_COMPOUND_CID>
11824

> <PUBCHEM_CONFORMER_RMSD>
0.6

> <PUBCHEM_CONFORMER_DIVERSEORDER>
3
7
15
10
2
14
6
9
8
5
12
1
11
16
4
13

> <PUBCHEM_MMFF94_PARTIAL_CHARGES>
27
1 -0.56
10 0.54
11 0.28
12 0.28
13 0.28
14 0.28
15 0.11
16 -0.3
18 0.02
19 0.41
2 -0.68
20 0.47
21 0.54
28 0.15
29 0.4
3 -0.68
30 0.4
31 0.4
32 0.15
33 0.4
34 0.4
4 -0.68
5 0.05
6 -0.57
7 -0.62
8 -0.9
9 -0.56

> <PUBCHEM_EFFECTIVE_ROTOR_COUNT>
3

> <PUBCHEM_PHARMACOPHORE_FEATURES>
15
1 1 acceptor
1 2 acceptor
1 2 donor
1 3 acceptor
1 3 donor
1 4 acceptor
1 4 donor
1 8 cation
1 8 donor
1 9 acceptor
3 5 6 15 cation
3 6 7 20 cation
5 1 10 11 12 13 rings
5 5 15 16 17 18 rings
6 6 7 15 17 19 20 rings

> <PUBCHEM_HEAVY_ATOM_COUNT>
21

> <PUBCHEM_ATOM_DEF_STEREO_COUNT>
4

> <PUBCHEM_ATOM_UDEF_STEREO_COUNT>
0

> <PUBCHEM_BOND_DEF_STEREO_COUNT>
0

> <PUBCHEM_BOND_UDEF_STEREO_COUNT>
0

> <PUBCHEM_ISOTOPIC_ATOM_COUNT>
0

> <PUBCHEM_COMPONENT_COUNT>
1

> <PUBCHEM_CACTVS_TAUTO_COUNT>
4

> <PUBCHEM_CONFORMER_ID>
00002E3000000003

> <PUBCHEM_MMFF94_ENERGY>
46.8609

> <PUBCHEM_FEATURE_SELFOVERLAP>
76.41

> <PUBCHEM_SHAPE_FINGERPRINT>
10498660 4 18342179934040454133
10608611 8 18409449202226463704
10616163 171 18337387128490108374
1100329 8 17332527277319888131
11578080 2 16986907646906069980
12173636 292 18341615949105565829
12403260 363 18339091487334937790
12500047 106 18196934585344696700
13140716 1 18270110202857523235
14223421 5 18410575050562043784
14289901 80 18343862195589684800
14866123 147 16173122051402153698
15196674 1 18410855421806168363
15219456 202 18334292028959287346
15375358 24 18337110073008559855
15375462 6 18338233757028496582
16752209 62 18270129031835964595
16945 1 18342173393106072635
17134986 127 17837776986339515805
18186145 218 18116990198579816464
19591789 44 17184460465506407993
200 152 17240486926755990895
20510252 161 18408885165852240057
20645477 56 18268986652013305381
21524375 3 17699001013800949217
221490 88 18409158910067068170
23402539 116 18340778069373465263
23557571 272 18200026235869222294
23558518 356 18272364282697754457
23559900 14 18409451401513541362
2748010 2 18196084671789199669
34934 24 18267309742082912011
350125 39 18339355374394061240
474 4 17130979868218819180
5104073 3 18411416176783291531
7097593 13 17842862150477276730
7364860 26 17619061729868290209
81228 2 18201427078439944665
9709674 26 18335135444472086142

> <PUBCHEM_SHAPE_MULTIPOLES>
383.79
7.96
3.27
0.84
1.8
1.65
-0.1
0.83
0.02
-1.37
-0.23
0.43
-0.13
1.15

> <PUBCHEM_SHAPE_SELFOVERLAP>
836.814

> <PUBCHEM_SHAPE_VOLUME>
205

> <PUBCHEM_COORDINATE_TYPE>
2
5
10

$$$$

