13467
  -OEChem-06261214303D

 42 42  0     0  0  0  0  0  0999 V2000
    0.8475   -0.2411   -0.0904 N   0  0  0  0  0  0  0  0  0  0  0  0
   -2.8344   -0.6590    0.2963 N   0  0  0  0  0  0  0  0  0  0  0  0
   -5.1515   -0.6494    0.2851 N   0  0  0  0  0  0  0  0  0  0  0  0
   -4.1043    0.9567   -0.9474 N   0  0  0  0  0  0  0  0  0  0  0  0
    1.0801    1.1706    0.3173 C   0  0  0  0  0  0  0  0  0  0  0  0
    2.0132   -1.1530   -0.0702 C   0  0  0  0  0  0  0  0  0  0  0  0
    2.5742    1.5873    0.2656 C   0  0  0  0  0  0  0  0  0  0  0  0
    3.1639   -0.5576   -0.9321 C   0  0  0  0  0  0  0  0  0  0  0  0
    3.3129    0.9600   -0.8984 C   0  0  0  0  0  0  0  0  0  0  0  0
   -0.4103   -0.8151    0.3864 C   0  0  0  0  0  0  0  0  0  0  0  0
    0.5660    1.5128    1.7363 C   0  0  0  0  0  0  0  0  0  0  0  0
    0.3037    2.0536   -0.6917 C   0  0  0  0  0  0  0  0  0  0  0  0
    1.6710   -2.5195   -0.7261 C   0  0  0  0  0  0  0  0  0  0  0  0
    2.5052   -1.4774    1.3595 C   0  0  0  0  0  0  0  0  0  0  0  0
   -1.5937   -0.0410   -0.1766 C   0  0  0  0  0  0  0  0  0  0  0  0
   -3.9434   -0.1277   -0.1138 C   0  0  0  0  0  0  0  0  0  0  0  0
    2.6749    2.6792    0.2105 H   0  0  0  0  0  0  0  0  0  0  0  0
    3.0891    1.3118    1.1924 H   0  0  0  0  0  0  0  0  0  0  0  0
    4.1172   -1.0105   -0.6282 H   0  0  0  0  0  0  0  0  0  0  0  0
    3.0321   -0.8393   -1.9862 H   0  0  0  0  0  0  0  0  0  0  0  0
    2.9256    1.3777   -1.8364 H   0  0  0  0  0  0  0  0  0  0  0  0
    4.3747    1.2300   -0.8631 H   0  0  0  0  0  0  0  0  0  0  0  0
   -0.4525   -0.8733    1.4804 H   0  0  0  0  0  0  0  0  0  0  0  0
   -0.5505   -1.8428    0.0400 H   0  0  0  0  0  0  0  0  0  0  0  0
    1.0388    0.8753    2.4916 H   0  0  0  0  0  0  0  0  0  0  0  0
    0.8199    2.5496    1.9910 H   0  0  0  0  0  0  0  0  0  0  0  0
   -0.5147    1.4265    1.8676 H   0  0  0  0  0  0  0  0  0  0  0  0
    0.9057    2.9208   -0.9942 H   0  0  0  0  0  0  0  0  0  0  0  0
    0.0832    1.5367   -1.6330 H   0  0  0  0  0  0  0  0  0  0  0  0
   -0.6109    2.5018   -0.2946 H   0  0  0  0  0  0  0  0  0  0  0  0
    1.1620   -2.3853   -1.6879 H   0  0  0  0  0  0  0  0  0  0  0  0
    2.5849   -3.0948   -0.9221 H   0  0  0  0  0  0  0  0  0  0  0  0
    1.0453   -3.1519   -0.0870 H   0  0  0  0  0  0  0  0  0  0  0  0
    3.3385   -2.1900    1.3303 H   0  0  0  0  0  0  0  0  0  0  0  0
    2.8585   -0.6048    1.9095 H   0  0  0  0  0  0  0  0  0  0  0  0
    1.7115   -1.9391    1.9579 H   0  0  0  0  0  0  0  0  0  0  0  0
   -1.6436    0.9751    0.1938 H   0  0  0  0  0  0  0  0  0  0  0  0
   -1.5651   -0.0528   -1.2728 H   0  0  0  0  0  0  0  0  0  0  0  0
   -5.1967   -1.4530    0.9023 H   0  0  0  0  0  0  0  0  0  0  0  0
   -6.0303   -0.2490   -0.0243 H   0  0  0  0  0  0  0  0  0  0  0  0
   -5.0291    1.2869   -1.2019 H   0  0  0  0  0  0  0  0  0  0  0  0
   -3.3169    1.4641   -1.3348 H   0  0  0  0  0  0  0  0  0  0  0  0
  1  5  1  0  0  0  0
  1  6  1  0  0  0  0
  1 10  1  0  0  0  0
  2 15  1  0  0  0  0
  2 16  2  0  0  0  0
  3 16  1  0  0  0  0
  3 39  1  0  0  0  0
  3 40  1  0  0  0  0
  4 16  1  0  0  0  0
  4 41  1  0  0  0  0
  4 42  1  0  0  0  0
  5  7  1  0  0  0  0
  5 11  1  0  0  0  0
  5 12  1  0  0  0  0
  6  8  1  0  0  0  0
  6 13  1  0  0  0  0
  6 14  1  0  0  0  0
  7  9  1  0  0  0  0
  7 17  1  0  0  0  0
  7 18  1  0  0  0  0
  8  9  1  0  0  0  0
  8 19  1  0  0  0  0
  8 20  1  0  0  0  0
  9 21  1  0  0  0  0
  9 22  1  0  0  0  0
 10 15  1  0  0  0  0
 10 23  1  0  0  0  0
 10 24  1  0  0  0  0
 11 25  1  0  0  0  0
 11 26  1  0  0  0  0
 11 27  1  0  0  0  0
 12 28  1  0  0  0  0
 12 29  1  0  0  0  0
 12 30  1  0  0  0  0
 13 31  1  0  0  0  0
 13 32  1  0  0  0  0
 13 33  1  0  0  0  0
 14 34  1  0  0  0  0
 14 35  1  0  0  0  0
 14 36  1  0  0  0  0
 15 37  1  0  0  0  0
 15 38  1  0  0  0  0
M  END
> <PUBCHEM_COMPOUND_CID>
13467

> <PUBCHEM_CONFORMER_RMSD>
0.6

> <PUBCHEM_CONFORMER_DIVERSEORDER>
4
15
13
5
14
1
10
7
11
9
3
12
2
6
8
16

> <PUBCHEM_MMFF94_PARTIAL_CHARGES>
13
1 -0.81
10 0.27
15 0.25
16 0.55
2 -0.7
3 -0.85
39 0.4
4 -0.85
40 0.4
41 0.4
42 0.4
5 0.27
6 0.27

> <PUBCHEM_EFFECTIVE_ROTOR_COUNT>
4.2

> <PUBCHEM_PHARMACOPHORE_FEATURES>
7
1 1 cation
1 3 donor
1 4 donor
3 5 11 12 hydrophobe
3 6 13 14 hydrophobe
4 2 3 4 16 cation
6 1 5 6 7 8 9 rings

> <PUBCHEM_HEAVY_ATOM_COUNT>
16

> <PUBCHEM_ATOM_DEF_STEREO_COUNT>
0

> <PUBCHEM_ATOM_UDEF_STEREO_COUNT>
0

> <PUBCHEM_BOND_DEF_STEREO_COUNT>
0

> <PUBCHEM_BOND_UDEF_STEREO_COUNT>
0

> <PUBCHEM_ISOTOPIC_ATOM_COUNT>
0

> <PUBCHEM_COMPONENT_COUNT>
1

> <PUBCHEM_CACTVS_TAUTO_COUNT>
2

> <PUBCHEM_CONFORMER_ID>
0000349B00000004

> <PUBCHEM_MMFF94_ENERGY>
58.2658

> <PUBCHEM_FEATURE_SELFOVERLAP>
35.576

> <PUBCHEM_SHAPE_FINGERPRINT>
10498660 4 17346047757258511477
10980938 120 18410575067583514607
11471102 20 18408882923493877660
116883 192 18049724314886324973
12346645 6 18408887313024255190
12616999 72 18342733001126518902
12654215 9 18411699872505863692
14251717 144 18334010592521205446
15757776 16 18412822504032225842
16945 1 18043224896213392424
18186145 218 18413385458312211083
20339313 130 18411135857426887801
20559304 39 18113337526594829147
20645477 70 18410572898783630007
20820808 20 18129937884785026516
21452121 103 18260275122944956560
21501502 16 18268988868042369704
21637258 2 15647602497736684844
22289505 5 18341620347357954749
23402655 69 18407759240101513189
23419403 2 17836690570346476904
23526113 38 18130216142562409051
23557571 272 15841283600819531631
25 1 18410290281144937598
2748010 2 18049143498438508278
3060560 45 18260825977811562590
4072396 5 18341907281422409480
522135 26 18408884044765243367
54040823 5 18059852844339660810
7364860 26 18260267421382539000
81228 2 17832702752771750050
81539 233 18272369720421458092

> <PUBCHEM_SHAPE_MULTIPOLES>
309.35
7.22
2.16
1.18
11.58
0.19
0.32
0.85
-1.21
-1.62
-0.05
-0.58
-0.17
0.2

> <PUBCHEM_SHAPE_SELFOVERLAP>
607.556

> <PUBCHEM_SHAPE_VOLUME>
185

> <PUBCHEM_COORDINATE_TYPE>
2
5
10

$$$$

