17395957
  -OEChem-06241222533D

 40 42  0     0  0  0  0  0  0999 V2000
    2.1796   -2.7085    0.7165 S   0  0  0  0  0  0  0  0  0  0  0  0
    2.2443    0.6201    1.7565 O   0  0  0  0  0  0  0  0  0  0  0  0
   -3.0889    1.8009   -1.8965 O   0  0  0  0  0  0  0  0  0  0  0  0
    1.6717    2.2434    0.1992 N   0  0  0  0  0  0  0  0  0  0  0  0
   -0.8202    0.6770    1.2113 N   0  0  0  0  0  0  0  0  0  0  0  0
   -1.3145    2.2442   -0.5151 N   0  0  0  0  0  0  0  0  0  0  0  0
    0.5442    2.6988    0.9435 C   0  0  0  0  0  0  0  0  0  0  0  0
    3.6589    0.7560   -0.1746 C   0  0  0  0  0  0  0  0  0  0  0  0
    3.9954   -0.7291   -0.0120 C   0  0  0  0  0  0  0  0  0  0  0  0
   -0.6084    1.8333    0.4979 C   0  0  0  0  0  0  0  0  0  0  0  0
    2.4760    1.1849    0.6841 C   0  0  0  0  0  0  0  0  0  0  0  0
   -1.8756   -0.1616    0.8476 C   0  0  0  0  0  0  0  0  0  0  0  0
   -2.6871    0.2032   -0.2355 C   0  0  0  0  0  0  0  0  0  0  0  0
    1.9312    2.9315   -1.0794 C   0  0  0  0  0  0  0  0  0  0  0  0
    2.8377   -1.6060   -0.4165 C   0  0  0  0  0  0  0  0  0  0  0  0
   -2.3814    1.4762   -0.9480 C   0  0  0  0  0  0  0  0  0  0  0  0
   -2.1409   -1.3506    1.5318 C   0  0  0  0  0  0  0  0  0  0  0  0
   -3.7533   -0.6084   -0.6322 C   0  0  0  0  0  0  0  0  0  0  0  0
    2.1880   -1.6622   -1.6299 C   0  0  0  0  0  0  0  0  0  0  0  0
   -3.2052   -2.1632    1.1376 C   0  0  0  0  0  0  0  0  0  0  0  0
   -4.0088   -1.7926    0.0589 C   0  0  0  0  0  0  0  0  0  0  0  0
    1.1358   -2.6229   -1.6294 C   0  0  0  0  0  0  0  0  0  0  0  0
    1.0216   -3.2644   -0.4157 C   0  0  0  0  0  0  0  0  0  0  0  0
    0.7107    2.5645    2.0176 H   0  0  0  0  0  0  0  0  0  0  0  0
    0.3381    3.7571    0.7574 H   0  0  0  0  0  0  0  0  0  0  0  0
    3.4606    0.9462   -1.2329 H   0  0  0  0  0  0  0  0  0  0  0  0
    4.5204    1.3662    0.1190 H   0  0  0  0  0  0  0  0  0  0  0  0
    4.2985   -0.9280    1.0234 H   0  0  0  0  0  0  0  0  0  0  0  0
    4.8581   -0.9739   -0.6438 H   0  0  0  0  0  0  0  0  0  0  0  0
   -0.2339    0.4085    1.9926 H   0  0  0  0  0  0  0  0  0  0  0  0
    1.5083    2.3261   -1.8860 H   0  0  0  0  0  0  0  0  0  0  0  0
    3.0061    3.0521   -1.2342 H   0  0  0  0  0  0  0  0  0  0  0  0
    1.4731    3.9245   -1.0840 H   0  0  0  0  0  0  0  0  0  0  0  0
   -1.5223   -1.6528    2.3731 H   0  0  0  0  0  0  0  0  0  0  0  0
   -4.3902   -0.3381   -1.4695 H   0  0  0  0  0  0  0  0  0  0  0  0
    2.4508   -1.0478   -2.4815 H   0  0  0  0  0  0  0  0  0  0  0  0
   -3.4079   -3.0870    1.6719 H   0  0  0  0  0  0  0  0  0  0  0  0
   -4.8355   -2.4289   -0.2438 H   0  0  0  0  0  0  0  0  0  0  0  0
    0.4946   -2.8322   -2.4757 H   0  0  0  0  0  0  0  0  0  0  0  0
    0.3123   -4.0319   -0.1394 H   0  0  0  0  0  0  0  0  0  0  0  0
  1 15  1  0  0  0  0
  1 23  1  0  0  0  0
  2 11  2  0  0  0  0
  3 16  2  0  0  0  0
  4  7  1  0  0  0  0
  4 11  1  0  0  0  0
  4 14  1  0  0  0  0
  5 10  1  0  0  0  0
  5 12  1  0  0  0  0
  5 30  1  0  0  0  0
  6 10  2  0  0  0  0
  6 16  1  0  0  0  0
  7 10  1  0  0  0  0
  7 24  1  0  0  0  0
  7 25  1  0  0  0  0
  8  9  1  0  0  0  0
  8 11  1  0  0  0  0
  8 26  1  0  0  0  0
  8 27  1  0  0  0  0
  9 15  1  0  0  0  0
  9 28  1  0  0  0  0
  9 29  1  0  0  0  0
 12 13  1  0  0  0  0
 12 17  2  0  0  0  0
 13 16  1  0  0  0  0
 13 18  2  0  0  0  0
 14 31  1  0  0  0  0
 14 32  1  0  0  0  0
 14 33  1  0  0  0  0
 15 19  2  0  0  0  0
 17 20  1  0  0  0  0
 17 34  1  0  0  0  0
 18 21  1  0  0  0  0
 18 35  1  0  0  0  0
 19 22  1  0  0  0  0
 19 36  1  0  0  0  0
 20 21  2  0  0  0  0
 20 37  1  0  0  0  0
 21 38  1  0  0  0  0
 22 23  2  0  0  0  0
 22 39  1  0  0  0  0
 23 40  1  0  0  0  0
M  END
> <PUBCHEM_COMPOUND_CID>
17395957

> <PUBCHEM_CONFORMER_RMSD>
1

> <PUBCHEM_CONFORMER_DIVERSEORDER>
1
221
111
240
54
69
189
45
211
146
229
184
90
207
203
199
134
260
165
93
74
67
56
17
157
113
59
210
249
60
247
186
135
55
258
30
16
222
96
121
107
75
62
131
246
172
89
235
44
227
13
51
224
97
250
245
254
233
29
257
236
125
33
42
128
137
26
185
14
238
151
248
61
35
160
3
241
127
32
57
36
40
41
138
49
217
87
193
197
188
80
48
256
124
244
163
243
216
214
24
50
9
109
132
215
8
164
85
66
255
167
230
147
212
115
6
58
120
173
79
20
118
223
28
194
237
23
196
176
2
180
12
141
5
15
226
183
154
205
123
25
158
253
139
31
11
175
78
126
110
171
38
143
148
225
252
181
119
231
53
133
112
155
208
39
213
190
259
198
232
156
200
94
21
219
220
108
204
98
91
179
46
168
170
169
70
162
88
209
166
122
187
117
47
63
83
7
178
34
76
182
191
64
101
65
142
104
84
4
52
27
95
18
130
19
149
81
153
99
251
239
105
82
195
234
22
106
150
218
114
129
37
86
152
72
201
192
202
144
140
177
73
71
43
206
159
68
136
10
174
161
102
242
145
116
103
228
100
92
77

> <PUBCHEM_MMFF94_PARTIAL_CHARGES>
31
1 -0.08
10 0.44
11 0.57
12 0.1
13 0.09
14 0.3
15 -0.14
16 0.69
17 -0.15
18 -0.15
19 -0.15
2 -0.57
20 -0.15
21 -0.15
22 -0.15
23 -0.11
3 -0.57
30 0.4
34 0.15
35 0.15
36 0.15
37 0.15
38 0.15
39 0.15
4 -0.66
40 0.15
5 -0.55
6 -0.66
7 0.36
8 0.06
9 0.18

> <PUBCHEM_EFFECTIVE_ROTOR_COUNT>
6

> <PUBCHEM_PHARMACOPHORE_FEATURES>
7
1 2 acceptor
1 3 acceptor
1 5 donor
1 6 donor
5 1 15 19 22 23 rings
6 12 13 17 18 20 21 rings
6 5 6 10 12 13 16 rings

> <PUBCHEM_HEAVY_ATOM_COUNT>
23

> <PUBCHEM_ATOM_DEF_STEREO_COUNT>
0

> <PUBCHEM_ATOM_UDEF_STEREO_COUNT>
0

> <PUBCHEM_BOND_DEF_STEREO_COUNT>
0

> <PUBCHEM_BOND_UDEF_STEREO_COUNT>
0

> <PUBCHEM_ISOTOPIC_ATOM_COUNT>
0

> <PUBCHEM_COMPONENT_COUNT>
1

> <PUBCHEM_CACTVS_TAUTO_COUNT>
3

> <PUBCHEM_CONFORMER_ID>
010970F500000001

> <PUBCHEM_MMFF94_ENERGY>
56.6738

> <PUBCHEM_FEATURE_SELFOVERLAP>
35.581

> <PUBCHEM_SHAPE_FINGERPRINT>
10675989 125 17331412376719185220
12156800 1 12741702374230747794
12553582 1 17975685405501192250
12596599 1 17241312599674403223
13122387 1 17832421273437184023
13402501 40 18410853222529744251
1420 336 17254830300748118466
14251705 54 18408880745971903734
14251757 17 18197791101093355957
14659021 117 17328589934760518926
15635459 17 18407759256938711599
15664445 248 17413565282980595029
17138139 8 16378066036588550143
17492 54 17691971466391713831
19930381 70 18047189941164809831
20645477 70 18196658389188806369
20905425 154 18340774818209738346
21285901 2 18129672877029342839
23559900 14 18342182188703125308
238 59 18192736491009807887
4280585 95 17982171425168903922
463206 1 18043822978793976335
5309563 4 18336543807556520947
6287921 2 17314202571264771487
6443956 14 18334849507198272281
81228 2 17469038221154464304
9709674 26 18342743987816450633

> <PUBCHEM_SHAPE_MULTIPOLES>
450.5
6.84
4.07
1.55
1.86
0.17
-0.17
2.08
-0.51
-1.45
-0.58
0.22
0.09
1.35

> <PUBCHEM_SHAPE_SELFOVERLAP>
954.291

> <PUBCHEM_SHAPE_VOLUME>
253.2

> <PUBCHEM_COORDINATE_TYPE>
2
5
10

$$$$

