5162
  -OEChem-06261200333D

 38 40  0     0  0  0  0  0  0999 V2000
    6.0542   -0.3756   -0.2334 O   0  0  0  0  0  0  0  0  0  0  0  0
   -0.0262    1.5864    0.4434 N   0  0  0  0  0  0  0  0  0  0  0  0
   -0.3989   -0.5370   -0.0894 N   0  0  0  0  0  0  0  0  0  0  0  0
   -5.3702   -1.7500   -0.2513 N   0  0  0  0  0  0  0  0  0  0  0  0
   -1.3839    1.4330    0.4458 C   0  0  0  0  0  0  0  0  0  0  0  0
   -1.5896    0.1144    0.1138 C   0  0  0  0  0  0  0  0  0  0  0  0
    0.5230    0.3776    0.1164 C   0  0  0  0  0  0  0  0  0  0  0  0
   -2.2979    2.5447    0.7583 C   0  0  0  0  0  0  0  0  0  0  0  0
    1.9493    0.1835    0.0257 C   0  0  0  0  0  0  0  0  0  0  0  0
   -2.8684   -0.5156   -0.0094 C   0  0  0  0  0  0  0  0  0  0  0  0
   -2.7090    3.3463   -0.4840 C   0  0  0  0  0  0  0  0  0  0  0  0
    2.5032   -1.0634    0.3161 C   0  0  0  0  0  0  0  0  0  0  0  0
    2.7750    1.2425   -0.3517 C   0  0  0  0  0  0  0  0  0  0  0  0
   -3.5315   -0.5262   -1.2344 C   0  0  0  0  0  0  0  0  0  0  0  0
   -3.4613   -1.1246    1.0941 C   0  0  0  0  0  0  0  0  0  0  0  0
    3.8826   -1.2512    0.2294 C   0  0  0  0  0  0  0  0  0  0  0  0
    4.1544    1.0546   -0.4387 C   0  0  0  0  0  0  0  0  0  0  0  0
    4.7083   -0.1921   -0.1480 C   0  0  0  0  0  0  0  0  0  0  0  0
   -4.7669   -1.1500   -1.3019 C   0  0  0  0  0  0  0  0  0  0  0  0
   -4.6999   -1.7216    0.9225 C   0  0  0  0  0  0  0  0  0  0  0  0
    6.5534   -1.6758    0.0766 C   0  0  0  0  0  0  0  0  0  0  0  0
   -3.2020    2.1631    1.2473 H   0  0  0  0  0  0  0  0  0  0  0  0
   -1.8278    3.2269    1.4774 H   0  0  0  0  0  0  0  0  0  0  0  0
    0.4720    2.4402    0.6588 H   0  0  0  0  0  0  0  0  0  0  0  0
   -1.8333    3.7803   -0.9782 H   0  0  0  0  0  0  0  0  0  0  0  0
   -3.3823    4.1613   -0.2009 H   0  0  0  0  0  0  0  0  0  0  0  0
   -3.2265    2.7110   -1.2101 H   0  0  0  0  0  0  0  0  0  0  0  0
    1.8771   -1.9008    0.6150 H   0  0  0  0  0  0  0  0  0  0  0  0
    2.3748    2.2230   -0.5974 H   0  0  0  0  0  0  0  0  0  0  0  0
   -3.1050   -0.0637   -2.1190 H   0  0  0  0  0  0  0  0  0  0  0  0
   -2.9789   -1.1393    2.0664 H   0  0  0  0  0  0  0  0  0  0  0  0
    4.2462   -2.2445    0.4694 H   0  0  0  0  0  0  0  0  0  0  0  0
    4.7925    1.8823   -0.7361 H   0  0  0  0  0  0  0  0  0  0  0  0
   -5.3215   -1.1842   -2.2338 H   0  0  0  0  0  0  0  0  0  0  0  0
   -5.2015   -2.2085    1.7523 H   0  0  0  0  0  0  0  0  0  0  0  0
    6.1781   -2.4287   -0.6247 H   0  0  0  0  0  0  0  0  0  0  0  0
    6.3552   -1.9447    1.1197 H   0  0  0  0  0  0  0  0  0  0  0  0
    7.6413   -1.6414   -0.0434 H   0  0  0  0  0  0  0  0  0  0  0  0
  1 18  1  0  0  0  0
  1 21  1  0  0  0  0
  2  5  1  0  0  0  0
  2  7  1  0  0  0  0
  2 24  1  0  0  0  0
  3  6  1  0  0  0  0
  3  7  2  0  0  0  0
  4 19  2  0  0  0  0
  4 20  1  0  0  0  0
  5  6  2  0  0  0  0
  5  8  1  0  0  0  0
  6 10  1  0  0  0  0
  7  9  1  0  0  0  0
  8 11  1  0  0  0  0
  8 22  1  0  0  0  0
  8 23  1  0  0  0  0
  9 12  2  0  0  0  0
  9 13  1  0  0  0  0
 10 14  2  0  0  0  0
 10 15  1  0  0  0  0
 11 25  1  0  0  0  0
 11 26  1  0  0  0  0
 11 27  1  0  0  0  0
 12 16  1  0  0  0  0
 12 28  1  0  0  0  0
 13 17  2  0  0  0  0
 13 29  1  0  0  0  0
 14 19  1  0  0  0  0
 14 30  1  0  0  0  0
 15 20  2  0  0  0  0
 15 31  1  0  0  0  0
 16 18  2  0  0  0  0
 16 32  1  0  0  0  0
 17 18  1  0  0  0  0
 17 33  1  0  0  0  0
 19 34  1  0  0  0  0
 20 35  1  0  0  0  0
 21 36  1  0  0  0  0
 21 37  1  0  0  0  0
 21 38  1  0  0  0  0
M  END
> <PUBCHEM_COMPOUND_CID>
5162

> <PUBCHEM_CONFORMER_RMSD>
0.6

> <PUBCHEM_CONFORMER_DIVERSEORDER>
1
10
11
3
5
8
9
6
4
12
7
2

> <PUBCHEM_MMFF94_PARTIAL_CHARGES>
29
1 -0.36
10 0.05
12 -0.15
13 -0.15
14 -0.15
15 -0.15
16 -0.15
17 -0.15
18 0.08
19 0.16
2 0.03
20 0.16
21 0.28
24 0.27
28 0.15
29 0.15
3 -0.57
30 0.15
31 0.15
32 0.15
33 0.15
34 0.15
35 0.15
4 -0.62
5 -0.33
6 0.17
7 0.13
8 0.18
9 0.05

> <PUBCHEM_EFFECTIVE_ROTOR_COUNT>
4

> <PUBCHEM_PHARMACOPHORE_FEATURES>
8
1 1 acceptor
1 11 hydrophobe
1 2 donor
1 4 acceptor
3 2 3 7 cation
5 2 3 5 6 7 rings
6 4 10 14 15 19 20 rings
6 9 12 13 16 17 18 rings

> <PUBCHEM_HEAVY_ATOM_COUNT>
21

> <PUBCHEM_ATOM_DEF_STEREO_COUNT>
0

> <PUBCHEM_ATOM_UDEF_STEREO_COUNT>
0

> <PUBCHEM_BOND_DEF_STEREO_COUNT>
0

> <PUBCHEM_BOND_UDEF_STEREO_COUNT>
0

> <PUBCHEM_ISOTOPIC_ATOM_COUNT>
0

> <PUBCHEM_COMPONENT_COUNT>
1

> <PUBCHEM_CACTVS_TAUTO_COUNT>
3

> <PUBCHEM_CONFORMER_ID>
0000142A00000001

> <PUBCHEM_MMFF94_ENERGY>
56.2754

> <PUBCHEM_FEATURE_SELFOVERLAP>
40.594

> <PUBCHEM_SHAPE_FINGERPRINT>
10 15 6771861887941337726
11045515 52 18131635543734465621
11101153 10 18341886343341693476
11315181 36 17989202651487833162
11545043 162 18040722515091017672
11578080 2 17314252007150537201
12107183 9 17621604238690569658
12166972 35 17775563105040423692
12236239 1 18259701181653090826
12553582 1 18261402096197990455
12760667 363 18408322177191215891
12788726 201 18412270562080101803
12916754 54 18343580742030249452
13073987 5 18410294735964884080
13288520 33 18335419067222159551
13533116 47 18410292472311358144
13544653 18 18411135793065668893
13583140 156 17168721845992618548
13862211 1 18261112937261264191
14251740 79 17775563122378762891
14508225 48 18341058445424474637
15196674 1 18411134771312020688
16087824 20 18266178517514667197
16752209 62 18337123340220273851
17492 89 18337107990065920662
17844677 252 18409443692094724284
1813 80 18115291286159986437
18222031 100 17822300024596375999
18927931 339 18335132111708988951
193927 3 18410000044719942174
19784866 140 18342461417702162115
200 152 18411139121243232614
20101258 96 18341040874481242433
21236236 1 18336263530875789929
21267235 1 18409721864289050574
21426921 1 18337109072328860585
21709351 56 18342737464225449588
21756936 100 13614245936080409053
22950370 63 18263640680602949743
23175994 123 18270963428381437637
23402539 116 18410292518775231085
23522609 53 17972566988324584929
23557571 272 18260545666718358084
23559900 14 18201160931932663488
25147074 1 18338218423605574256
2871803 45 18272091582523703018
3004659 81 18131357379560036418
312423 11 18339629088581477156
351380 3 18260268520847213807
4214541 1 18339359772725688176
465052 167 18188203183220602143
5104073 3 18335142037995602040
5283173 99 18060149760103972701
542803 24 13110969712339615766
559249 180 18267589181466501538
7495541 125 17603309233004191336
7970288 3 18262522485625590407
9709674 26 18338507638345201034

> <PUBCHEM_SHAPE_MULTIPOLES>
411.36
13.52
2.54
0.95
12.91
2.01
-0.08
-8.47
-1.43
-2.61
0.15
-1.11
-0.14
-0.32

> <PUBCHEM_SHAPE_SELFOVERLAP>
897.779

> <PUBCHEM_SHAPE_VOLUME>
226

> <PUBCHEM_COORDINATE_TYPE>
2
5
10

$$$$

