10751
  -OEChem-06261204552D

 40 42  0     1  0  0  0  0  0999 V2000
    4.2690    0.3623    0.0000 O   0  0  0  0  0  0  0  0  0  0  0  0
    5.1350   -1.1377    0.0000 O   0  0  0  0  0  0  0  0  0  0  0  0
    6.8671    1.8623    0.0000 O   0  0  0  0  0  0  0  0  0  0  0  0
    5.1350    2.8623    0.0000 O   0  0  0  0  0  0  0  0  0  0  0  0
    6.8671   -0.1377    0.0000 O   0  0  0  0  0  0  0  0  0  0  0  0
    2.5369    1.3623    0.0000 O   0  0  0  0  0  0  0  0  0  0  0  0
    8.6270   -3.1723    0.0000 O   0  0  0  0  0  0  0  0  0  0  0  0
    5.1350   -3.1377    0.0000 O   0  0  0  0  0  0  0  0  0  0  0  0
   10.3972   -3.1618    0.0000 O   0  0  0  0  0  0  0  0  0  0  0  0
    6.0010    1.3623    0.0000 C   0  0  3  0  0  0  0  0  0  0  0  0
    5.1350    1.8623    0.0000 C   0  0  1  0  0  0  0  0  0  0  0  0
    6.0010    0.3623    0.0000 C   0  0  3  0  0  0  0  0  0  0  0  0
    4.2690    1.3623    0.0000 C   0  0  3  0  0  0  0  0  0  0  0  0
    5.1350   -0.1377    0.0000 C   0  0  1  0  0  0  0  0  0  0  0  0
    3.4030    1.8623    0.0000 C   0  0  0  0  0  0  0  0  0  0  0  0
    6.0010   -1.6377    0.0000 C   0  0  0  0  0  0  0  0  0  0  0  0
    6.8671   -1.1377    0.0000 C   0  0  0  0  0  0  0  0  0  0  0  0
    6.0010   -2.6377    0.0000 C   0  0  0  0  0  0  0  0  0  0  0  0
    7.7331   -1.6377    0.0000 C   0  0  0  0  0  0  0  0  0  0  0  0
    7.7331   -2.6377    0.0000 C   0  0  0  0  0  0  0  0  0  0  0  0
    6.8671   -3.1377    0.0000 C   0  0  0  0  0  0  0  0  0  0  0  0
    8.6270   -1.1030    0.0000 C   0  0  0  0  0  0  0  0  0  0  0  0
    9.5331   -1.6169    0.0000 C   0  0  0  0  0  0  0  0  0  0  0  0
    9.5331   -2.6585    0.0000 C   0  0  0  0  0  0  0  0  0  0  0  0
    6.5380    1.0523    0.0000 H   0  0  0  0  0  0  0  0  0  0  0  0
    5.6719    2.1723    0.0000 H   0  0  0  0  0  0  0  0  0  0  0  0
    6.5380    0.6723    0.0000 H   0  0  0  0  0  0  0  0  0  0  0  0
    3.7321    1.0523    0.0000 H   0  0  0  0  0  0  0  0  0  0  0  0
    5.6719   -0.4477    0.0000 H   0  0  0  0  0  0  0  0  0  0  0  0
    3.8015    2.3373    0.0000 H   0  0  0  0  0  0  0  0  0  0  0  0
    3.0044    2.3373    0.0000 H   0  0  0  0  0  0  0  0  0  0  0  0
    6.8671    2.4823    0.0000 H   0  0  0  0  0  0  0  0  0  0  0  0
    4.5981    3.1723    0.0000 H   0  0  0  0  0  0  0  0  0  0  0  0
    7.4040    0.1723    0.0000 H   0  0  0  0  0  0  0  0  0  0  0  0
    2.0000    1.6723    0.0000 H   0  0  0  0  0  0  0  0  0  0  0  0
    6.8671   -0.5177    0.0000 H   0  0  0  0  0  0  0  0  0  0  0  0
    6.8671   -3.7577    0.0000 H   0  0  0  0  0  0  0  0  0  0  0  0
    8.6199   -0.4830    0.0000 H   0  0  0  0  0  0  0  0  0  0  0  0
   10.0688   -1.3048    0.0000 H   0  0  0  0  0  0  0  0  0  0  0  0
   10.9353   -2.8539    0.0000 H   0  0  0  0  0  0  0  0  0  0  0  0
  1 13  1  0  0  0  0
  1 14  1  0  0  0  0
  2 14  1  0  0  0  0
  2 16  1  0  0  0  0
  3 10  1  0  0  0  0
  3 32  1  0  0  0  0
  4 11  1  0  0  0  0
  4 33  1  0  0  0  0
  5 12  1  0  0  0  0
  5 34  1  0  0  0  0
  6 15  1  0  0  0  0
  6 35  1  0  0  0  0
  7 20  1  0  0  0  0
  7 24  1  0  0  0  0
  8 18  2  0  0  0  0
  9 24  1  0  0  0  0
  9 40  1  0  0  0  0
 10 11  1  0  0  0  0
 10 12  1  0  0  0  0
 10 25  1  0  0  0  0
 11 13  1  0  0  0  0
 11 26  1  0  0  0  0
 12 14  1  0  0  0  0
 12 27  1  0  0  0  0
 13 15  1  0  0  0  0
 13 28  1  0  0  0  0
 14 29  1  0  0  0  0
 15 30  1  0  0  0  0
 15 31  1  0  0  0  0
 16 17  2  0  0  0  0
 16 18  1  0  0  0  0
 17 19  1  0  0  0  0
 17 36  1  0  0  0  0
 18 21  1  0  0  0  0
 19 20  1  0  0  0  0
 19 22  2  0  0  0  0
 20 21  2  0  0  0  0
 21 37  1  0  0  0  0
 22 23  1  0  0  0  0
 22 38  1  0  0  0  0
 23 24  2  0  0  0  0
 23 39  1  0  0  0  0
M  END
> <PUBCHEM_COMPOUND_CID>
10751

> <PUBCHEM_COMPOUND_CANONICALIZED>
1

> <PUBCHEM_CACTVS_COMPLEXITY>
660

> <PUBCHEM_CACTVS_HBOND_ACCEPTOR>
9

> <PUBCHEM_CACTVS_HBOND_DONOR>
5

> <PUBCHEM_CACTVS_ROTATABLE_BOND>
3

> <PUBCHEM_CACTVS_SUBSKEYS>
AAADceBwPAAAAAAAAAAAAAAAAAAAAAAAAAAkQIAAAAAAAACAAAAAGgAACAAADBSwgAMACAAABgCIAqBSAAIACAAgIAAACABAAEgZFAIAIQQiUAAFQAAPoYPAYAwAAAAAAAAAAAAAAAAAAAAAAAAAAAAAAA==

> <PUBCHEM_IUPAC_OPENEYE_NAME>
2-hydroxy-6-[(2S,5S)-3,4,5-trihydroxy-6-(hydroxymethyl)tetrahydropyran-2-yl]oxy-chromen-7-one

> <PUBCHEM_IUPAC_CAS_NAME>
2-hydroxy-6-[[(2S,5S)-3,4,5-trihydroxy-6-(hydroxymethyl)-2-oxanyl]oxy]-1-benzopyran-7-one

> <PUBCHEM_IUPAC_NAME>
2-hydroxy-6-[(2S,5S)-3,4,5-trihydroxy-6-(hydroxymethyl)oxan-2-yl]oxychromen-7-one

> <PUBCHEM_IUPAC_SYSTEMATIC_NAME>
6-[(2S,5S)-6-(hydroxymethyl)-3,4,5-tris(oxidanyl)oxan-2-yl]oxy-2-oxidanyl-chromen-7-one

> <PUBCHEM_IUPAC_TRADITIONAL_NAME>
2-hydroxy-6-[(2S,5S)-3,4,5-trihydroxy-6-methylol-tetrahydropyran-2-yl]oxy-chromen-7-one

> <PUBCHEM_IUPAC_INCHI>
InChI=1S/C15H16O9/c16-5-10-12(19)13(20)14(21)15(24-10)23-9-3-6-1-2-11(18)22-8(6)4-7(9)17/h1-4,10,12-16,18-21H,5H2/t10?,12-,13?,14?,15-/m1/s1

> <PUBCHEM_IUPAC_INCHIKEY>
YSLRWTDBBLSUHJ-WDJGLXJESA-N

> <PUBCHEM_XLOGP3_AA>
-1.1

> <PUBCHEM_EXACT_MASS>
340.079432

> <PUBCHEM_MOLECULAR_FORMULA>
C15H16O9

> <PUBCHEM_MOLECULAR_WEIGHT>
340.28214

> <PUBCHEM_OPENEYE_CAN_SMILES>
C1=C2C=C(C(=O)C=C2OC(=C1)O)OC3C(C(C(C(O3)CO)O)O)O

> <PUBCHEM_OPENEYE_ISO_SMILES>
C1=C2C=C(C(=O)C=C2OC(=C1)O)O[C@H]3C(C([C@@H](C(O3)CO)O)O)O

> <PUBCHEM_CACTVS_TPSA>
146

> <PUBCHEM_MONOISOTOPIC_WEIGHT>
340.079432

> <PUBCHEM_TOTAL_CHARGE>
0

> <PUBCHEM_HEAVY_ATOM_COUNT>
24

> <PUBCHEM_ATOM_DEF_STEREO_COUNT>
2

> <PUBCHEM_ATOM_UDEF_STEREO_COUNT>
3

> <PUBCHEM_BOND_DEF_STEREO_COUNT>
0

> <PUBCHEM_BOND_UDEF_STEREO_COUNT>
0

> <PUBCHEM_ISOTOPIC_ATOM_COUNT>
0

> <PUBCHEM_COMPONENT_COUNT>
1

> <PUBCHEM_CACTVS_TAUTO_COUNT>
1

> <PUBCHEM_COORDINATE_TYPE>
1
5
255

> <PUBCHEM_BONDANNOTATIONS>
13  15  3
16  17  8
16  18  8
17  19  8
18  21  8
19  22  8
14  2  3
20  21  8
22  23  8
23  24  8
10  3  3
11  4  3
12  5  3
7  20  8
7  24  8

$$$$

