6803
  -OEChem-06261201313D

 33 35  0     1  0  0  0  0  0999 V2000
   -4.5276   -2.1997    0.4848 S   0  0  0  0  0  0  0  0  0  0  0  0
    2.2178   -0.4281   -0.9810 O   0  0  0  0  0  0  0  0  0  0  0  0
    1.2572    2.1462    1.3365 O   0  0  0  0  0  0  0  0  0  0  0  0
    3.4245    2.2874   -0.2968 O   0  0  0  0  0  0  0  0  0  0  0  0
    4.1685   -2.4006   -0.5729 O   0  0  0  0  0  0  0  0  0  0  0  0
    0.0060   -0.3892   -0.1227 N   0  0  0  0  0  0  0  0  0  0  0  0
   -1.2828   -2.1572    0.3147 N   0  0  0  0  0  0  0  0  0  0  0  0
   -1.7054    1.3128   -0.3992 N   0  0  0  0  0  0  0  0  0  0  0  0
   -3.9408    0.3827   -0.0919 N   0  0  0  0  0  0  0  0  0  0  0  0
   -3.6172    2.6487   -0.5895 N   0  0  0  0  0  0  0  0  0  0  0  0
    1.8545    0.9348    0.9215 C   0  0  1  0  0  0  0  0  0  0  0  0
    1.2178    0.3948   -0.3500 C   0  0  1  0  0  0  0  0  0  0  0  0
    3.2977    1.1021    0.4887 C   0  0  1  0  0  0  0  0  0  0  0  0
    3.5094   -0.1102   -0.4127 C   0  0  1  0  0  0  0  0  0  0  0  0
    4.0146   -1.3310    0.3435 C   0  0  0  0  0  0  0  0  0  0  0  0
   -1.2836    0.0630   -0.1550 C   0  0  0  0  0  0  0  0  0  0  0  0
   -0.0470   -1.7290    0.1629 C   0  0  0  0  0  0  0  0  0  0  0  0
   -2.0661   -1.0475    0.1189 C   0  0  0  0  0  0  0  0  0  0  0  0
   -3.4438   -0.8550    0.1462 C   0  0  0  0  0  0  0  0  0  0  0  0
   -3.0538    1.3750   -0.3461 C   0  0  0  0  0  0  0  0  0  0  0  0
    1.7839    0.2100    1.7409 H   0  0  0  0  0  0  0  0  0  0  0  0
    0.9511    1.1933   -1.0533 H   0  0  0  0  0  0  0  0  0  0  0  0
    3.9966    1.1788    1.3264 H   0  0  0  0  0  0  0  0  0  0  0  0
    4.1762    0.1083   -1.2546 H   0  0  0  0  0  0  0  0  0  0  0  0
    3.3128   -1.6554    1.1180 H   0  0  0  0  0  0  0  0  0  0  0  0
    4.9849   -1.1329    0.8082 H   0  0  0  0  0  0  0  0  0  0  0  0
    1.3712    2.7975    0.6236 H   0  0  0  0  0  0  0  0  0  0  0  0
    4.3484    2.3393   -0.5959 H   0  0  0  0  0  0  0  0  0  0  0  0
    0.8395   -2.3418    0.2533 H   0  0  0  0  0  0  0  0  0  0  0  0
    3.3010   -2.5643   -0.9808 H   0  0  0  0  0  0  0  0  0  0  0  0
   -3.5869   -3.1438    0.6388 H   0  0  0  0  0  0  0  0  0  0  0  0
   -3.0087    3.4313   -0.7859 H   0  0  0  0  0  0  0  0  0  0  0  0
   -4.6213    2.7606   -0.5644 H   0  0  0  0  0  0  0  0  0  0  0  0
  1 19  1  0  0  0  0
  1 31  1  0  0  0  0
  2 12  1  0  0  0  0
  2 14  1  0  0  0  0
  3 11  1  0  0  0  0
  3 27  1  0  0  0  0
  4 13  1  0  0  0  0
  4 28  1  0  0  0  0
  5 15  1  0  0  0  0
  5 30  1  0  0  0  0
  6 12  1  0  0  0  0
  6 16  1  0  0  0  0
  6 17  1  0  0  0  0
  7 17  2  0  0  0  0
  7 18  1  0  0  0  0
  8 16  1  0  0  0  0
  8 20  2  0  0  0  0
  9 19  2  0  0  0  0
  9 20  1  0  0  0  0
 10 20  1  0  0  0  0
 10 32  1  0  0  0  0
 10 33  1  0  0  0  0
 11 12  1  0  0  0  0
 11 13  1  0  0  0  0
 11 21  1  0  0  0  0
 12 22  1  0  0  0  0
 13 14  1  0  0  0  0
 13 23  1  0  0  0  0
 14 15  1  0  0  0  0
 14 24  1  0  0  0  0
 15 25  1  0  0  0  0
 15 26  1  0  0  0  0
 16 18  2  0  0  0  0
 17 29  1  0  0  0  0
 18 19  1  0  0  0  0
M  END
> <PUBCHEM_COMPOUND_CID>
6803

> <PUBCHEM_CONFORMER_RMSD>
0.6

> <PUBCHEM_CONFORMER_DIVERSEORDER>
3
6
12
11
9
1
15
5
13
2
7
16
8
10
4
14

> <PUBCHEM_MMFF94_PARTIAL_CHARGES>
27
1 -0.28
10 -0.9
11 0.28
12 0.54
13 0.28
14 0.28
15 0.28
16 0.11
17 0.04
18 0.23
19 0.41
2 -0.56
20 0.72
27 0.4
28 0.4
29 0.15
3 -0.68
30 0.4
31 0.18
32 0.4
33 0.4
4 -0.68
5 -0.68
6 0.05
7 -0.57
8 -0.57
9 -0.62

> <PUBCHEM_EFFECTIVE_ROTOR_COUNT>
3

> <PUBCHEM_PHARMACOPHORE_FEATURES>
14
1 10 donor
1 2 acceptor
1 3 acceptor
1 3 donor
1 4 acceptor
1 4 donor
1 5 acceptor
1 5 donor
1 9 acceptor
3 6 7 17 cation
4 8 9 10 20 cation
5 2 11 12 13 14 rings
5 6 7 16 17 18 rings
6 8 9 16 18 19 20 rings

> <PUBCHEM_HEAVY_ATOM_COUNT>
20

> <PUBCHEM_ATOM_DEF_STEREO_COUNT>
4

> <PUBCHEM_ATOM_UDEF_STEREO_COUNT>
0

> <PUBCHEM_BOND_DEF_STEREO_COUNT>
0

> <PUBCHEM_BOND_UDEF_STEREO_COUNT>
0

> <PUBCHEM_ISOTOPIC_ATOM_COUNT>
0

> <PUBCHEM_COMPONENT_COUNT>
1

> <PUBCHEM_CACTVS_TAUTO_COUNT>
6

> <PUBCHEM_CONFORMER_ID>
00001A9300000003

> <PUBCHEM_MMFF94_ENERGY>
48.1976

> <PUBCHEM_FEATURE_SELFOVERLAP>
71.192

> <PUBCHEM_SHAPE_FINGERPRINT>
10498660 4 18272941500923053349
10608611 8 18409170973997186920
10646746 165 18411984675765704724
1100329 8 16534822872225521256
11405975 8 18336826484902424737
12403259 226 18409170978661107625
12403259 415 18408604759963520785
12403260 363 18410022039141801031
12507560 40 18409453561813240112
13134695 92 17386299791182168216
13140716 1 18335699489620919521
13464514 151 17974853083810239757
13675066 3 18260276265026344986
14866123 147 16820231867503063314
15196674 1 18411418405797165315
15219456 202 18334296439848274916
15442244 35 18411419548696393912
17492 89 18412262817917138402
17804303 29 18411978087386274870
18186145 218 18260540151784813808
19049666 15 18408606941901612528
19591789 44 18411700993424243475
200 152 17458351840322111479
20510252 161 18410291368230593137
20645477 70 17968366880271740102
21065198 57 18411419539673812821
21065199 12 18410296882673052552
21267235 1 18412254021966164226
221490 88 18410569583105638226
23559900 14 18335423525804355742
3004659 81 18057596776299999150
3286 77 18408605850790119199
335352 9 18194965368472154124
350125 39 18412257363619109899
4214541 1 18412544331494930292
495365 180 17531826696284727464
5104073 3 18410293609739142675
69090 78 18187649046619212871
77779 3 18412824681279945116
81228 2 18056766425264818419
9709674 26 18412259502365649850

> <PUBCHEM_SHAPE_MULTIPOLES>
367.06
8.78
2.7
0.84
0.35
0.27
-0.11
-1.73
0.13
0.6
-0.02
-0.31
0.15
1.15

> <PUBCHEM_SHAPE_SELFOVERLAP>
786.841

> <PUBCHEM_SHAPE_VOLUME>
206.6

> <PUBCHEM_COORDINATE_TYPE>
2
5
10

$$$$

