12543
  -OEChem-06261207043D

 23 23  0     0  0  0  0  0  0999 V2000
    1.9188    0.4409   -0.3029 S   0  0  0  0  0  0  0  0  0  0  0  0
    2.3749   -0.2097   -1.5245 O   0  0  0  0  0  0  0  0  0  0  0  0
    2.2217    1.8499   -0.0898 O   0  0  0  0  0  0  0  0  0  0  0  0
    2.4943   -0.4495    1.0377 N   0  0  0  0  0  0  0  0  0  0  0  0
    0.1892    0.2421   -0.1723 C   0  0  0  0  0  0  0  0  0  0  0  0
   -0.5643    1.1549    0.5657 C   0  0  0  0  0  0  0  0  0  0  0  0
   -0.4392   -0.8296   -0.8064 C   0  0  0  0  0  0  0  0  0  0  0  0
   -2.5746   -0.0757    0.0355 C   0  0  0  0  0  0  0  0  0  0  0  0
   -1.9462    0.9959    0.6698 C   0  0  0  0  0  0  0  0  0  0  0  0
   -1.8211   -0.9886   -0.7025 C   0  0  0  0  0  0  0  0  0  0  0  0
   -4.0522   -0.2451    0.1454 C   0  0  0  0  0  0  0  0  0  0  0  0
    2.1986   -1.8854    1.1443 C   0  0  0  0  0  0  0  0  0  0  0  0
   -0.0956    1.9931    1.0735 H   0  0  0  0  0  0  0  0  0  0  0  0
    0.1280   -1.5543   -1.3836 H   0  0  0  0  0  0  0  0  0  0  0  0
   -2.5226    1.7138    1.2473 H   0  0  0  0  0  0  0  0  0  0  0  0
   -2.2994   -1.8269   -1.2022 H   0  0  0  0  0  0  0  0  0  0  0  0
    2.6414    0.0451    1.9261 H   0  0  0  0  0  0  0  0  0  0  0  0
   -4.3329   -1.3029    0.1017 H   0  0  0  0  0  0  0  0  0  0  0  0
   -4.4251    0.1458    1.0982 H   0  0  0  0  0  0  0  0  0  0  0  0
   -4.5528    0.2848   -0.6710 H   0  0  0  0  0  0  0  0  0  0  0  0
    2.1924   -2.3677    0.1639 H   0  0  0  0  0  0  0  0  0  0  0  0
    1.2370   -2.0345    1.6416 H   0  0  0  0  0  0  0  0  0  0  0  0
    2.9766   -2.3607    1.7486 H   0  0  0  0  0  0  0  0  0  0  0  0
  1  2  2  0  0  0  0
  1  3  2  0  0  0  0
  1  4  1  0  0  0  0
  1  5  1  0  0  0  0
  4 12  1  0  0  0  0
  4 17  1  0  0  0  0
  5  6  2  0  0  0  0
  5  7  1  0  0  0  0
  6  9  1  0  0  0  0
  6 13  1  0  0  0  0
  7 10  2  0  0  0  0
  7 14  1  0  0  0  0
  8  9  2  0  0  0  0
  8 10  1  0  0  0  0
  8 11  1  0  0  0  0
  9 15  1  0  0  0  0
 10 16  1  0  0  0  0
 11 18  1  0  0  0  0
 11 19  1  0  0  0  0
 11 20  1  0  0  0  0
 12 21  1  0  0  0  0
 12 22  1  0  0  0  0
 12 23  1  0  0  0  0
M  END
> <PUBCHEM_COMPOUND_CID>
12543

> <PUBCHEM_CONFORMER_RMSD>
0.6

> <PUBCHEM_CONFORMER_DIVERSEORDER>
1

> <PUBCHEM_MMFF94_PARTIAL_CHARGES>
17
1 1.45
10 -0.15
11 0.14
12 0.36
13 0.15
14 0.15
15 0.15
16 0.15
17 0.42
2 -0.65
3 -0.65
4 -0.91
5 -0.01
6 -0.15
7 -0.15
8 -0.14
9 -0.15

> <PUBCHEM_EFFECTIVE_ROTOR_COUNT>
2

> <PUBCHEM_PHARMACOPHORE_FEATURES>
4
1 2 acceptor
1 3 acceptor
1 4 donor
6 5 6 7 8 9 10 rings

> <PUBCHEM_HEAVY_ATOM_COUNT>
12

> <PUBCHEM_ATOM_DEF_STEREO_COUNT>
0

> <PUBCHEM_ATOM_UDEF_STEREO_COUNT>
0

> <PUBCHEM_BOND_DEF_STEREO_COUNT>
0

> <PUBCHEM_BOND_UDEF_STEREO_COUNT>
0

> <PUBCHEM_ISOTOPIC_ATOM_COUNT>
0

> <PUBCHEM_COMPONENT_COUNT>
1

> <PUBCHEM_CACTVS_TAUTO_COUNT>
1

> <PUBCHEM_CONFORMER_ID>
000030FF00000001

> <PUBCHEM_MMFF94_ENERGY>
13.9573

> <PUBCHEM_FEATURE_SELFOVERLAP>
20.315

> <PUBCHEM_SHAPE_FINGERPRINT>
10130415 120 18333734611145036161
10857977 72 17530687602053644001
12423570 1 14041461079735872880
12932764 1 18343861113126148301
13538477 17 18336831892139812151
14325111 11 18040988532222174525
15310529 11 18060422408727399085
15775835 57 18342455911343078892
16945 1 18260265278531442439
170605 34 18263639568058921948
19026448 4 17346885542158276757
20559304 39 18410857693711687418
20645464 45 16081099185454550227
20645476 183 18200303330222287199
22445834 79 18341057414125473026
23463225 33 18408889567987652051
23552423 10 18267023860279689301
3248919 1 17748828509917934333
369184 2 18273218582000124061
5084963 1 17241312689815546165
528862 383 18201726149597136162
7364860 26 18260830393369913890
8030462 33 18202272619666006036

> <PUBCHEM_SHAPE_MULTIPOLES>
234.08
5.17
1.53
1.12
2.52
0
-0.07
0.64
0.49
-0.85
0.31
-0.64
0.27
-0.76

> <PUBCHEM_SHAPE_SELFOVERLAP>
464.444

> <PUBCHEM_SHAPE_VOLUME>
140.4

> <PUBCHEM_COORDINATE_TYPE>
2
5
10

$$$$

