4376
  -OEChem-06261200053D

 19 18  0     1  0  0  0  0  0999 V2000
   -0.9461    1.6023   -1.1247 O   0  0  0  0  0  0  0  0  0  0  0  0
    2.9383   -0.9561   -0.4611 O   0  0  0  0  0  0  0  0  0  0  0  0
   -1.0672    1.4062    1.1318 O   0  0  0  0  0  0  0  0  0  0  0  0
    2.1051    1.0774    0.1286 O   0  0  0  0  0  0  0  0  0  0  0  0
   -1.6100   -1.3585    0.3041 N   0  0  0  0  0  0  0  0  0  0  0  0
   -0.4953   -0.5570   -0.2010 C   0  0  2  0  0  0  0  0  0  0  0  0
    0.8003   -0.9507    0.5193 C   0  0  0  0  0  0  0  0  0  0  0  0
   -0.8714    0.8971    0.0360 C   0  0  0  0  0  0  0  0  0  0  0  0
   -2.8420   -1.0238   -0.3925 C   0  0  0  0  0  0  0  0  0  0  0  0
    1.9884   -0.1368    0.0595 C   0  0  0  0  0  0  0  0  0  0  0  0
   -0.3616   -0.7243   -1.2777 H   0  0  0  0  0  0  0  0  0  0  0  0
    1.0058   -2.0167    0.3592 H   0  0  0  0  0  0  0  0  0  0  0  0
    0.7179   -0.8061    1.6039 H   0  0  0  0  0  0  0  0  0  0  0  0
   -1.4024   -2.3469    0.1620 H   0  0  0  0  0  0  0  0  0  0  0  0
   -3.6199   -1.7348   -0.0938 H   0  0  0  0  0  0  0  0  0  0  0  0
   -2.7339   -1.1009   -1.4797 H   0  0  0  0  0  0  0  0  0  0  0  0
   -3.2209   -0.0305   -0.1331 H   0  0  0  0  0  0  0  0  0  0  0  0
   -1.1786    2.5420   -0.9663 H   0  0  0  0  0  0  0  0  0  0  0  0
    3.7229   -0.4555   -0.7711 H   0  0  0  0  0  0  0  0  0  0  0  0
  1  8  1  0  0  0  0
  1 18  1  0  0  0  0
  2 10  1  0  0  0  0
  2 19  1  0  0  0  0
  3  8  2  0  0  0  0
  4 10  2  0  0  0  0
  5  6  1  0  0  0  0
  5  9  1  0  0  0  0
  5 14  1  0  0  0  0
  6  7  1  0  0  0  0
  6  8  1  0  0  0  0
  6 11  1  0  0  0  0
  7 10  1  0  0  0  0
  7 12  1  0  0  0  0
  7 13  1  0  0  0  0
  9 15  1  0  0  0  0
  9 16  1  0  0  0  0
  9 17  1  0  0  0  0
M  END
> <PUBCHEM_COMPOUND_CID>
4376

> <PUBCHEM_CONFORMER_RMSD>
0.6

> <PUBCHEM_CONFORMER_DIVERSEORDER>
2
17
28
3
24
29
34
30
8
21
22
20
1
11
16
12
10
23
19
6
4
31
15
25
32
7
18
26
5
14
33
27
9
13

> <PUBCHEM_MMFF94_PARTIAL_CHARGES>
13
1 -0.65
10 0.66
14 0.36
18 0.5
19 0.5
2 -0.65
3 -0.57
4 -0.57
5 -0.9
6 0.33
7 0.06
8 0.66
9 0.27

> <PUBCHEM_EFFECTIVE_ROTOR_COUNT>
4

> <PUBCHEM_PHARMACOPHORE_FEATURES>
8
1 1 acceptor
1 2 acceptor
1 3 acceptor
1 4 acceptor
1 5 cation
1 5 donor
3 1 3 8 anion
3 2 4 10 anion

> <PUBCHEM_HEAVY_ATOM_COUNT>
10

> <PUBCHEM_ATOM_DEF_STEREO_COUNT>
0

> <PUBCHEM_ATOM_UDEF_STEREO_COUNT>
1

> <PUBCHEM_BOND_DEF_STEREO_COUNT>
0

> <PUBCHEM_BOND_UDEF_STEREO_COUNT>
0

> <PUBCHEM_ISOTOPIC_ATOM_COUNT>
0

> <PUBCHEM_COMPONENT_COUNT>
1

> <PUBCHEM_CACTVS_TAUTO_COUNT>
1

> <PUBCHEM_CONFORMER_ID>
0000111800000002

> <PUBCHEM_MMFF94_ENERGY>
12.9371

> <PUBCHEM_FEATURE_SELFOVERLAP>
40.711

> <PUBCHEM_SHAPE_FINGERPRINT>
12897270 3 18343869900418421094
14128692 85 18196651792040061327
15310529 11 16877941637824841352
20653085 51 15338290089322619663
21040471 1 17981899849352825552
23552423 10 18343018891445797106
241688 4 18343300383623515088
24536 1 18041572454326588608
29004967 10 17986674774970330939
5084963 1 18413669132196100162

> <PUBCHEM_SHAPE_MULTIPOLES>
177.34
3.63
1.63
0.86
0.88
0.4
0.02
-1.24
-0.52
-0.45
-0.02
-0.18
0.24
0.04

> <PUBCHEM_SHAPE_SELFOVERLAP>
338.39

> <PUBCHEM_SHAPE_VOLUME>
108.9

> <PUBCHEM_COORDINATE_TYPE>
2
5
10

$$$$

