9774
  -OEChem-06261204032D

 12 11  0     1  0  0  0  0  0999 V2000
    2.0000   -0.8170    0.0000 F   0  0  0  0  0  0  0  0  0  0  0  0
    2.3660    0.5490    0.0000 F   0  0  0  0  0  0  0  0  0  0  0  0
    3.3660   -1.1830    0.0000 F   0  0  0  0  0  0  0  0  0  0  0  0
    4.5981   -0.3170    0.0000 O   0  0  0  0  0  0  0  0  0  0  0  0
    3.7320    0.1830    0.0000 C   0  0  3  0  0  0  0  0  0  0  0  0
    2.8660   -0.3170    0.0000 C   0  0  0  0  0  0  0  0  0  0  0  0
    3.7320    1.1830    0.0000 C   0  0  0  0  0  0  0  0  0  0  0  0
    3.7320   -0.4370    0.0000 H   0  0  0  0  0  0  0  0  0  0  0  0
    4.3520    1.1830    0.0000 H   0  0  0  0  0  0  0  0  0  0  0  0
    3.7320    1.8030    0.0000 H   0  0  0  0  0  0  0  0  0  0  0  0
    3.1120    1.1830    0.0000 H   0  0  0  0  0  0  0  0  0  0  0  0
    5.1350   -0.0070    0.0000 H   0  0  0  0  0  0  0  0  0  0  0  0
  1  6  1  0  0  0  0
  2  6  1  0  0  0  0
  3  6  1  0  0  0  0
  4  5  1  0  0  0  0
  4 12  1  0  0  0  0
  5  6  1  0  0  0  0
  5  7  1  0  0  0  0
  5  8  1  0  0  0  0
  7  9  1  0  0  0  0
  7 10  1  0  0  0  0
  7 11  1  0  0  0  0
M  END
> <PUBCHEM_COMPOUND_CID>
9774

> <PUBCHEM_COMPOUND_CANONICALIZED>
1

> <PUBCHEM_CACTVS_COMPLEXITY>
57.7

> <PUBCHEM_CACTVS_HBOND_ACCEPTOR>
4

> <PUBCHEM_CACTVS_HBOND_DONOR>
1

> <PUBCHEM_CACTVS_ROTATABLE_BOND>
0

> <PUBCHEM_CACTVS_SUBSKEYS>
AAADcYBAIYAAAAAAAAAAAAAAAAAAAAAAAAAAAAAAAAAAAAAAAAAAGwAACAAACBSggBICAAAAAgAAAAAAAAAAAAAAAAAAAAAAAAAAEAAAAAAAAAAAAAAAAAAAAAAAAAAAAAAAAAAAAAAAAAAAAAAAAAAAAA==

> <PUBCHEM_IUPAC_OPENEYE_NAME>
1,1,1-trifluoropropan-2-ol

> <PUBCHEM_IUPAC_CAS_NAME>
1,1,1-trifluoro-2-propanol

> <PUBCHEM_IUPAC_NAME>
1,1,1-trifluoropropan-2-ol

> <PUBCHEM_IUPAC_SYSTEMATIC_NAME>
1,1,1-tris(fluoranyl)propan-2-ol

> <PUBCHEM_IUPAC_TRADITIONAL_NAME>
1,1,1-trifluoropropan-2-ol

> <PUBCHEM_IUPAC_INCHI>
InChI=1S/C3H5F3O/c1-2(7)3(4,5)6/h2,7H,1H3

> <PUBCHEM_IUPAC_INCHIKEY>
GILIYJDBJZWGBG-UHFFFAOYSA-N

> <PUBCHEM_XLOGP3>
0.7

> <PUBCHEM_EXACT_MASS>
114.029249

> <PUBCHEM_MOLECULAR_FORMULA>
C3H5F3O

> <PUBCHEM_MOLECULAR_WEIGHT>
114.06641

> <PUBCHEM_OPENEYE_CAN_SMILES>
CC(C(F)(F)F)O

> <PUBCHEM_OPENEYE_ISO_SMILES>
CC(C(F)(F)F)O

> <PUBCHEM_CACTVS_TPSA>
20.2

> <PUBCHEM_MONOISOTOPIC_WEIGHT>
114.029249

> <PUBCHEM_TOTAL_CHARGE>
0

> <PUBCHEM_HEAVY_ATOM_COUNT>
7

> <PUBCHEM_ATOM_DEF_STEREO_COUNT>
0

> <PUBCHEM_ATOM_UDEF_STEREO_COUNT>
1

> <PUBCHEM_BOND_DEF_STEREO_COUNT>
0

> <PUBCHEM_BOND_UDEF_STEREO_COUNT>
0

> <PUBCHEM_ISOTOPIC_ATOM_COUNT>
0

> <PUBCHEM_COMPONENT_COUNT>
1

> <PUBCHEM_CACTVS_TAUTO_COUNT>
1

> <PUBCHEM_COORDINATE_TYPE>
1
5
255

> <PUBCHEM_BONDANNOTATIONS>
5  4  3

$$$$

