6737
  -OEChem-06261201283D

 14 14  0     0  0  0  0  0  0999 V2000
    1.8752   -1.9902   -0.1849 Cl  0  0  0  0  0  0  0  0  0  0  0  0
   -0.9728    2.6679   -0.1122 Cl  0  0  0  0  0  0  0  0  0  0  0  0
    2.5096    0.9805    0.5231 O   0  0  0  0  0  0  0  0  0  0  0  0
    0.3490    0.2762   -0.1359 C   0  0  0  0  0  0  0  0  0  0  0  0
    0.3879   -1.1170   -0.0788 C   0  0  0  0  0  0  0  0  0  0  0  0
   -0.8722    0.9441   -0.0464 C   0  0  0  0  0  0  0  0  0  0  0  0
   -0.7946   -1.8423    0.0678 C   0  0  0  0  0  0  0  0  0  0  0  0
   -2.0547    0.2189    0.1002 C   0  0  0  0  0  0  0  0  0  0  0  0
   -2.0159   -1.1743    0.1573 C   0  0  0  0  0  0  0  0  0  0  0  0
    1.5884    1.0362   -0.2900 C   0  0  0  0  0  0  0  0  0  0  0  0
   -0.7823   -2.9283    0.1141 H   0  0  0  0  0  0  0  0  0  0  0  0
   -3.0149    0.7237    0.1715 H   0  0  0  0  0  0  0  0  0  0  0  0
   -2.9366   -1.7390    0.2715 H   0  0  0  0  0  0  0  0  0  0  0  0
    1.6324    1.7225   -1.1528 H   0  0  0  0  0  0  0  0  0  0  0  0
  1  5  1  0  0  0  0
  2  6  1  0  0  0  0
  3 10  2  0  0  0  0
  4  5  2  0  0  0  0
  4  6  1  0  0  0  0
  4 10  1  0  0  0  0
  5  7  1  0  0  0  0
  6  8  2  0  0  0  0
  7  9  2  0  0  0  0
  7 11  1  0  0  0  0
  8  9  1  0  0  0  0
  8 12  1  0  0  0  0
  9 13  1  0  0  0  0
 10 14  1  0  0  0  0
M  END
> <PUBCHEM_COMPOUND_CID>
6737

> <PUBCHEM_CONFORMER_RMSD>
0.4

> <PUBCHEM_CONFORMER_DIVERSEORDER>
1

> <PUBCHEM_MMFF94_PARTIAL_CHARGES>
14
1 -0.18
10 0.42
11 0.15
12 0.15
13 0.15
14 0.06
2 -0.18
3 -0.57
4 0.09
5 0.18
6 0.18
7 -0.15
8 -0.15
9 -0.15

> <PUBCHEM_EFFECTIVE_ROTOR_COUNT>
1

> <PUBCHEM_PHARMACOPHORE_FEATURES>
2
1 3 acceptor
6 4 5 6 7 8 9 rings

> <PUBCHEM_HEAVY_ATOM_COUNT>
10

> <PUBCHEM_ATOM_DEF_STEREO_COUNT>
0

> <PUBCHEM_ATOM_UDEF_STEREO_COUNT>
0

> <PUBCHEM_BOND_DEF_STEREO_COUNT>
0

> <PUBCHEM_BOND_UDEF_STEREO_COUNT>
0

> <PUBCHEM_ISOTOPIC_ATOM_COUNT>
0

> <PUBCHEM_COMPONENT_COUNT>
1

> <PUBCHEM_CACTVS_TAUTO_COUNT>
1

> <PUBCHEM_CONFORMER_ID>
00001A5100000001

> <PUBCHEM_MMFF94_ENERGY>
27.9905

> <PUBCHEM_FEATURE_SELFOVERLAP>
10.148

> <PUBCHEM_SHAPE_FINGERPRINT>
12423570 1 6191517724602663819
161256 15 18337095852165965214
16945 1 18411416168108667645
18185500 45 18194962933347126575
193761 8 18266739262761371661
21040471 1 18411412895380537373
23552423 10 18271799112356997966
23559900 14 17542220607837605678
241688 4 18340196479419981571
2748010 2 18411412930067453335
5084963 1 17970356033833695003
66348 1 18124032592009270822

> <PUBCHEM_SHAPE_MULTIPOLES>
203.67
2.91
2.63
0.65
0.45
0.24
0
0.5
-0.06
-0.19
0.19
0.03
0.05
0.22

> <PUBCHEM_SHAPE_SELFOVERLAP>
409.229

> <PUBCHEM_SHAPE_VOLUME>
121.1

> <PUBCHEM_COORDINATE_TYPE>
2
5
10

$$$$

