5562
  -OEChem-06261200443D

 44 44  0     1  0  0  0  0  0999 V2000
   -0.6056   -2.1178    1.7263 O   0  0  0  0  0  0  0  0  0  0  0  0
    6.0753   -0.0923    0.7482 O   0  0  0  0  0  0  0  0  0  0  0  0
    7.4614    2.1907    0.3065 O   0  0  0  0  0  0  0  0  0  0  0  0
   -5.3456    1.6519   -0.1360 N   0  0  0  0  0  0  0  0  0  0  0  0
    6.1372    2.0448   -0.1293 N   0  0  0  0  0  0  0  0  0  0  0  0
   -0.0027   -2.1115   -0.6116 C   0  0  1  0  0  0  0  0  0  0  0  0
   -0.8680   -1.7239    0.5899 C   0  0  0  0  0  0  0  0  0  0  0  0
   -2.0498   -0.8335    0.3986 C   0  0  0  0  0  0  0  0  0  0  0  0
    1.4128   -1.6911   -0.3036 C   0  0  0  0  0  0  0  0  0  0  0  0
   -0.0661   -3.6229   -0.8371 C   0  0  0  0  0  0  0  0  0  0  0  0
   -4.2289    0.8097    0.0452 C   0  0  0  0  0  0  0  0  0  0  0  0
   -2.7153   -0.8704   -0.8055 C   0  0  0  0  0  0  0  0  0  0  0  0
   -2.4289   -0.0088    1.4334 C   0  0  0  0  0  0  0  0  0  0  0  0
   -3.8196   -0.0374   -0.9848 C   0  0  0  0  0  0  0  0  0  0  0  0
   -3.5334    0.8240    1.2543 C   0  0  0  0  0  0  0  0  0  0  0  0
    2.0116   -0.5122   -0.5783 C   0  0  0  0  0  0  0  0  0  0  0  0
    1.3421    0.6183   -1.3156 C   0  0  0  0  0  0  0  0  0  0  0  0
   -5.6806    2.1533   -1.4540 C   0  0  0  0  0  0  0  0  0  0  0  0
   -6.1811    2.0157    0.9912 C   0  0  0  0  0  0  0  0  0  0  0  0
    3.4000   -0.3151   -0.1512 C   0  0  0  0  0  0  0  0  0  0  0  0
    4.1409    0.7875   -0.3420 C   0  0  0  0  0  0  0  0  0  0  0  0
    5.5444    0.8410    0.1555 C   0  0  0  0  0  0  0  0  0  0  0  0
   -0.3300   -1.6223   -1.5303 H   0  0  0  0  0  0  0  0  0  0  0  0
    1.9900   -2.4377    0.2447 H   0  0  0  0  0  0  0  0  0  0  0  0
    0.5723   -3.9233   -1.6752 H   0  0  0  0  0  0  0  0  0  0  0  0
    0.2511   -4.1834    0.0500 H   0  0  0  0  0  0  0  0  0  0  0  0
   -1.0921   -3.9323   -1.0654 H   0  0  0  0  0  0  0  0  0  0  0  0
   -2.4466   -1.5435   -1.6122 H   0  0  0  0  0  0  0  0  0  0  0  0
   -1.8917    0.0189    2.3764 H   0  0  0  0  0  0  0  0  0  0  0  0
   -4.3511   -0.0867   -1.9310 H   0  0  0  0  0  0  0  0  0  0  0  0
   -3.8179    1.4814    2.0710 H   0  0  0  0  0  0  0  0  0  0  0  0
    1.8667    0.8311   -2.2534 H   0  0  0  0  0  0  0  0  0  0  0  0
    1.3328    1.5261   -0.7020 H   0  0  0  0  0  0  0  0  0  0  0  0
    0.3009    0.4106   -1.5727 H   0  0  0  0  0  0  0  0  0  0  0  0
   -6.2117    1.3924   -2.0353 H   0  0  0  0  0  0  0  0  0  0  0  0
   -4.7857    2.4659   -2.0041 H   0  0  0  0  0  0  0  0  0  0  0  0
   -6.3320    3.0320   -1.3882 H   0  0  0  0  0  0  0  0  0  0  0  0
   -5.7182    2.8189    1.5739 H   0  0  0  0  0  0  0  0  0  0  0  0
   -6.3663    1.1572    1.6468 H   0  0  0  0  0  0  0  0  0  0  0  0
   -7.1613    2.3741    0.6574 H   0  0  0  0  0  0  0  0  0  0  0  0
    3.8489   -1.1589    0.3711 H   0  0  0  0  0  0  0  0  0  0  0  0
    3.7560    1.6627   -0.8541 H   0  0  0  0  0  0  0  0  0  0  0  0
    5.6970    2.8607   -0.5395 H   0  0  0  0  0  0  0  0  0  0  0  0
    7.9370    1.9639   -0.5107 H   0  0  0  0  0  0  0  0  0  0  0  0
  1  7  2  0  0  0  0
  2 22  2  0  0  0  0
  3  5  1  0  0  0  0
  3 44  1  0  0  0  0
  4 11  1  0  0  0  0
  4 18  1  0  0  0  0
  4 19  1  0  0  0  0
  5 22  1  0  0  0  0
  5 43  1  0  0  0  0
  6  7  1  0  0  0  0
  6  9  1  0  0  0  0
  6 10  1  0  0  0  0
  6 23  1  0  0  0  0
  7  8  1  0  0  0  0
  8 12  2  0  0  0  0
  8 13  1  0  0  0  0
  9 16  2  0  0  0  0
  9 24  1  0  0  0  0
 10 25  1  0  0  0  0
 10 26  1  0  0  0  0
 10 27  1  0  0  0  0
 11 14  2  0  0  0  0
 11 15  1  0  0  0  0
 12 14  1  0  0  0  0
 12 28  1  0  0  0  0
 13 15  2  0  0  0  0
 13 29  1  0  0  0  0
 14 30  1  0  0  0  0
 15 31  1  0  0  0  0
 16 17  1  0  0  0  0
 16 20  1  0  0  0  0
 17 32  1  0  0  0  0
 17 33  1  0  0  0  0
 17 34  1  0  0  0  0
 18 35  1  0  0  0  0
 18 36  1  0  0  0  0
 18 37  1  0  0  0  0
 19 38  1  0  0  0  0
 19 39  1  0  0  0  0
 19 40  1  0  0  0  0
 20 21  2  0  0  0  0
 20 41  1  0  0  0  0
 21 22  1  0  0  0  0
 21 42  1  0  0  0  0
M  END
> <PUBCHEM_COMPOUND_CID>
5562

> <PUBCHEM_CONFORMER_RMSD>
0.8

> <PUBCHEM_CONFORMER_DIVERSEORDER>
2
85
99
12
88
125
84
15
39
113
36
118
115
50
4
26
122
53
104
92
135
153
19
130
3
145
8
46
21
142
9
110
126
76
138
148
33
90
117
47
65
52
97
144
32
68
24
78
6
136
44
107
112
41
70
128
67
149
59
106
10
123
151
25
55
116
40
42
56
154
14
43
58
73
79
89
38
63
82
137
45
93
5
18
34
62
120
35
66
69
87
71
17
27
105
124
83
114
152
16
121
7
86
75
31
143
13
108
1
60
49
141
100
11
64
155
37
29
22
131
95
134
109
103
51
150
133
96
146
54
80
101
140
72
139
132
30
129
111
77
119
23
28
127
61
57
102
98
20
91
74
94
81
48
147

> <PUBCHEM_MMFF94_PARTIAL_CHARGES>
30
1 -0.57
11 0.1
12 -0.15
13 -0.15
14 -0.15
15 -0.15
16 -0.14
17 0.14
18 0.37
19 0.37
2 -0.57
20 -0.15
21 -0.14
22 0.62
24 0.15
28 0.15
29 0.15
3 -0.44
30 0.15
31 0.15
4 -0.84
41 0.15
42 0.15
43 0.37
44 0.4
5 -0.39
6 0.2
7 0.42
8 0.09
9 -0.29

> <PUBCHEM_EFFECTIVE_ROTOR_COUNT>
7

> <PUBCHEM_PHARMACOPHORE_FEATURES>
7
1 1 acceptor
1 10 hydrophobe
1 17 hydrophobe
1 2 acceptor
1 4 cation
1 5 donor
6 8 11 12 13 14 15 rings

> <PUBCHEM_HEAVY_ATOM_COUNT>
22

> <PUBCHEM_ATOM_DEF_STEREO_COUNT>
0

> <PUBCHEM_ATOM_UDEF_STEREO_COUNT>
1

> <PUBCHEM_BOND_DEF_STEREO_COUNT>
0

> <PUBCHEM_BOND_UDEF_STEREO_COUNT>
2

> <PUBCHEM_ISOTOPIC_ATOM_COUNT>
0

> <PUBCHEM_COMPONENT_COUNT>
1

> <PUBCHEM_CACTVS_TAUTO_COUNT>
9

> <PUBCHEM_CONFORMER_ID>
000015BA00000002

> <PUBCHEM_MMFF94_ENERGY>
68.9738

> <PUBCHEM_FEATURE_SELFOVERLAP>
35.52

> <PUBCHEM_SHAPE_FINGERPRINT>
10319926 262 16773500162168659931
10692045 39 17916592080094600042
12107183 9 18339931515126180274
12293681 160 17603865624004761147
12403259 118 17845361185355605343
12596602 18 17989204824498770552
12633257 1 16056587747182877607
12895837 130 18186800236453690221
13103583 49 14476953484849296889
13540713 4 18263619866680692070
13673619 4 11887957649056196470
14123256 34 8286196171490897701
14251764 30 10015862076594374652
14420673 8 9007055777828964653
15061688 2 18411416228328393727
15188451 53 14836106729770879801
15238133 3 17632567246019606468
16120349 189 18342459227063145708
17780758 139 13039197991166479070
1813 80 10303808825880237954
193927 3 8358249337586056143
19784866 240 8286190661569660995
20871999 31 14490189444927731843
21033648 29 17346313868968178119
21298829 104 18261950842700481961
21307412 95 6699796572022145093
21401589 2 18342450448519192715
21637258 2 11527944539066019709
22765269 38 18341052999131123189
22950370 63 10231755600082200622
23559900 14 17895179001661290974
270888 7 18408885156850738065
2748736 6 18335987544566980032
2838139 119 18411989082439177796
2916195 48 18342737420821816257
329604 57 8358260354440881832
351380 3 10087641489979806492
393628 194 18409724049995875133
465052 167 10375576118846452153
474 4 18339074995035145451
484985 159 9727091827649086383
5104073 3 17988926660915828602
5283384 27 18202009849878817293
53917941 68 18260834765130241559
54039377 194 9871754607334515840
543368 44 18187363277392637425
6327066 14 18409731755081697428
636775 8 10231487345927840480
77188 2 17400920198728489878
7970288 3 10015860968324397016
8217 86 6988312846227663444
9981440 41 18411695470012106611
999808 66 8430311376836560061

> <PUBCHEM_SHAPE_MULTIPOLES>
425.18
15.94
2.95
1.31
15.53
1.58
-0.13
-18.8
-0.82
0.29
0.35
-1.36
0
0.37

> <PUBCHEM_SHAPE_SELFOVERLAP>
868.384

> <PUBCHEM_SHAPE_VOLUME>
246.6

> <PUBCHEM_COORDINATE_TYPE>
2
5
10

$$$$

