17396086
  -OEChem-06241222542D

 56 60  0     1  0  0  0  0  0999 V2000
    3.7281   -5.5093    0.0000 Cl  0  0  0  0  0  0  0  0  0  0  0  0
    3.6750   -1.1131    0.0000 O   0  0  0  0  0  0  0  0  0  0  0  0
    3.7320    0.9747    0.0000 N   0  0  0  0  0  0  0  0  0  0  0  0
    5.4641    1.9746    0.0000 N   0  0  0  0  0  0  0  0  0  0  0  0
    2.0570   -1.1131    0.0000 N   0  0  0  0  0  0  0  0  0  0  0  0
    2.3660   -2.0642    0.0000 N   0  0  0  0  0  0  0  0  0  0  0  0
    4.5981    0.4747    0.0000 C   0  0  0  0  0  0  0  0  0  0  0  0
    3.7320    1.9746    0.0000 C   0  0  0  0  0  0  0  0  0  0  0  0
    5.4641    0.9747    0.0000 C   0  0  0  0  0  0  0  0  0  0  0  0
    4.5981    2.4746    0.0000 C   0  0  0  0  0  0  0  0  0  0  0  0
    2.8660    0.4747    0.0000 C   0  0  3  0  0  0  0  0  0  0  0  0
    6.3301    2.4746    0.0000 C   0  0  0  0  0  0  0  0  0  0  0  0
    6.3301    3.4746    0.0000 C   0  0  0  0  0  0  0  0  0  0  0  0
    2.0000    0.9747    0.0000 C   0  0  0  0  0  0  0  0  0  0  0  0
    2.8660   -0.5253    0.0000 C   0  0  0  0  0  0  0  0  0  0  0  0
    7.1962    3.9746    0.0000 C   0  0  0  0  0  0  0  0  0  0  0  0
    5.4641    3.9746    0.0000 C   0  0  0  0  0  0  0  0  0  0  0  0
    7.1962    4.9746    0.0000 C   0  0  0  0  0  0  0  0  0  0  0  0
    8.0901    3.4400    0.0000 C   0  0  0  0  0  0  0  0  0  0  0  0
    5.4641    4.9746    0.0000 C   0  0  0  0  0  0  0  0  0  0  0  0
    6.3301    5.4746    0.0000 C   0  0  0  0  0  0  0  0  0  0  0  0
    3.3660   -2.0642    0.0000 C   0  0  0  0  0  0  0  0  0  0  0  0
    8.0901    5.5093    0.0000 C   0  0  0  0  0  0  0  0  0  0  0  0
    8.9962    3.9538    0.0000 C   0  0  0  0  0  0  0  0  0  0  0  0
    8.9962    4.9955    0.0000 C   0  0  0  0  0  0  0  0  0  0  0  0
    3.9538   -2.8732    0.0000 C   0  0  0  0  0  0  0  0  0  0  0  0
    3.5471   -3.7868    0.0000 C   0  0  0  0  0  0  0  0  0  0  0  0
    4.9483   -2.7687    0.0000 C   0  0  0  0  0  0  0  0  0  0  0  0
    4.1349   -4.5958    0.0000 C   0  0  0  0  0  0  0  0  0  0  0  0
    5.5361   -3.5777    0.0000 C   0  0  0  0  0  0  0  0  0  0  0  0
    5.1294   -4.4912    0.0000 C   0  0  0  0  0  0  0  0  0  0  0  0
    3.5200    2.5573    0.0000 H   0  0  0  0  0  0  0  0  0  0  0  0
    3.1215    1.8670    0.0000 H   0  0  0  0  0  0  0  0  0  0  0  0
    4.1996   -0.0003    0.0000 H   0  0  0  0  0  0  0  0  0  0  0  0
    4.9966   -0.0003    0.0000 H   0  0  0  0  0  0  0  0  0  0  0  0
    4.9966    2.9496    0.0000 H   0  0  0  0  0  0  0  0  0  0  0  0
    4.1996    2.9496    0.0000 H   0  0  0  0  0  0  0  0  0  0  0  0
    5.6762    0.3920    0.0000 H   0  0  0  0  0  0  0  0  0  0  0  0
    6.0747    1.0823    0.0000 H   0  0  0  0  0  0  0  0  0  0  0  0
    2.8660    1.0946    0.0000 H   0  0  0  0  0  0  0  0  0  0  0  0
    6.5422    1.8920    0.0000 H   0  0  0  0  0  0  0  0  0  0  0  0
    6.9407    2.5823    0.0000 H   0  0  0  0  0  0  0  0  0  0  0  0
    2.3100    1.5116    0.0000 H   0  0  0  0  0  0  0  0  0  0  0  0
    1.4631    1.2846    0.0000 H   0  0  0  0  0  0  0  0  0  0  0  0
    1.6900    0.4377    0.0000 H   0  0  0  0  0  0  0  0  0  0  0  0
    4.9272    3.6646    0.0000 H   0  0  0  0  0  0  0  0  0  0  0  0
    8.0829    2.8200    0.0000 H   0  0  0  0  0  0  0  0  0  0  0  0
    4.9272    5.2846    0.0000 H   0  0  0  0  0  0  0  0  0  0  0  0
    6.3301    6.0946    0.0000 H   0  0  0  0  0  0  0  0  0  0  0  0
    8.0829    6.1293    0.0000 H   0  0  0  0  0  0  0  0  0  0  0  0
    9.5319    3.6418    0.0000 H   0  0  0  0  0  0  0  0  0  0  0  0
    9.5319    5.3075    0.0000 H   0  0  0  0  0  0  0  0  0  0  0  0
    2.9305   -3.8516    0.0000 H   0  0  0  0  0  0  0  0  0  0  0  0
    5.2005   -2.2023    0.0000 H   0  0  0  0  0  0  0  0  0  0  0  0
    6.1527   -3.5129    0.0000 H   0  0  0  0  0  0  0  0  0  0  0  0
    5.4938   -4.9928    0.0000 H   0  0  0  0  0  0  0  0  0  0  0  0
  1 29  1  0  0  0  0
  2 15  1  0  0  0  0
  2 22  1  0  0  0  0
  3  7  1  0  0  0  0
  3  8  1  0  0  0  0
  3 11  1  0  0  0  0
  4  9  1  0  0  0  0
  4 10  1  0  0  0  0
  4 12  1  0  0  0  0
  5  6  1  0  0  0  0
  5 15  2  0  0  0  0
  6 22  2  0  0  0  0
  7  9  1  0  0  0  0
  7 34  1  0  0  0  0
  7 35  1  0  0  0  0
  8 10  1  0  0  0  0
  8 32  1  0  0  0  0
  8 33  1  0  0  0  0
  9 38  1  0  0  0  0
  9 39  1  0  0  0  0
 10 36  1  0  0  0  0
 10 37  1  0  0  0  0
 11 14  1  0  0  0  0
 11 15  1  0  0  0  0
 11 40  1  0  0  0  0
 12 13  1  0  0  0  0
 12 41  1  0  0  0  0
 12 42  1  0  0  0  0
 13 16  1  0  0  0  0
 13 17  2  0  0  0  0
 14 43  1  0  0  0  0
 14 44  1  0  0  0  0
 14 45  1  0  0  0  0
 16 18  1  0  0  0  0
 16 19  2  0  0  0  0
 17 20  1  0  0  0  0
 17 46  1  0  0  0  0
 18 21  1  0  0  0  0
 18 23  2  0  0  0  0
 19 24  1  0  0  0  0
 19 47  1  0  0  0  0
 20 21  2  0  0  0  0
 20 48  1  0  0  0  0
 21 49  1  0  0  0  0
 22 26  1  0  0  0  0
 23 25  1  0  0  0  0
 23 50  1  0  0  0  0
 24 25  2  0  0  0  0
 24 51  1  0  0  0  0
 25 52  1  0  0  0  0
 26 27  2  0  0  0  0
 26 28  1  0  0  0  0
 27 29  1  0  0  0  0
 27 53  1  0  0  0  0
 28 30  2  0  0  0  0
 28 54  1  0  0  0  0
 29 31  2  0  0  0  0
 30 31  1  0  0  0  0
 30 55  1  0  0  0  0
 31 56  1  0  0  0  0
M  END
> <PUBCHEM_COMPOUND_CID>
17396086

> <PUBCHEM_COMPOUND_CANONICALIZED>
1

> <PUBCHEM_CACTVS_COMPLEXITY>
572

> <PUBCHEM_CACTVS_HBOND_ACCEPTOR>
5

> <PUBCHEM_CACTVS_HBOND_DONOR>
0

> <PUBCHEM_CACTVS_ROTATABLE_BOND>
5

> <PUBCHEM_CACTVS_SUBSKEYS>
AAADceB7oAAEAAAAAAAAAAAAAAAAAWAAAAA8YMEAAAAAAADB1AAAHgIIAAAADCrBmiQyAMMABECqAiFyEACSAAAsBQAaiCG4DtgKZrKBtzmfMQhkyAGYqYeYyOCOgAACIAAQAAAAAARAACAAAAAAAAAAAA==

> <PUBCHEM_IUPAC_OPENEYE_NAME>
2-(3-chlorophenyl)-5-[1-[4-(1-naphthylmethyl)piperazin-1-yl]ethyl]-1,3,4-oxadiazole

> <PUBCHEM_IUPAC_CAS_NAME>
2-(3-chlorophenyl)-5-[1-[4-(1-naphthalenylmethyl)-1-piperazinyl]ethyl]-1,3,4-oxadiazole

> <PUBCHEM_IUPAC_NAME>
2-(3-chlorophenyl)-5-[1-[4-(naphthalen-1-ylmethyl)piperazin-1-yl]ethyl]-1,3,4-oxadiazole

> <PUBCHEM_IUPAC_SYSTEMATIC_NAME>
2-(3-chlorophenyl)-5-[1-[4-(naphthalen-1-ylmethyl)piperazin-1-yl]ethyl]-1,3,4-oxadiazole

> <PUBCHEM_IUPAC_TRADITIONAL_NAME>
2-(3-chlorophenyl)-5-[1-[4-(1-naphthylmethyl)piperazino]ethyl]-1,3,4-oxadiazole

> <PUBCHEM_IUPAC_INCHI>
InChI=1S/C25H25ClN4O/c1-18(24-27-28-25(31-24)20-8-5-10-22(26)16-20)30-14-12-29(13-15-30)17-21-9-4-7-19-6-2-3-11-23(19)21/h2-11,16,18H,12-15,17H2,1H3

> <PUBCHEM_IUPAC_INCHIKEY>
BXMCUNCVLRHANP-UHFFFAOYSA-N

> <PUBCHEM_XLOGP3_AA>
4.9

> <PUBCHEM_EXACT_MASS>
432.171689

> <PUBCHEM_MOLECULAR_FORMULA>
C25H25ClN4O

> <PUBCHEM_MOLECULAR_WEIGHT>
432.9452

> <PUBCHEM_OPENEYE_CAN_SMILES>
CC(C1=NN=C(O1)C2=CC(=CC=C2)Cl)N3CCN(CC3)CC4=CC=CC5=CC=CC=C54

> <PUBCHEM_OPENEYE_ISO_SMILES>
CC(C1=NN=C(O1)C2=CC(=CC=C2)Cl)N3CCN(CC3)CC4=CC=CC5=CC=CC=C54

> <PUBCHEM_CACTVS_TPSA>
45.4

> <PUBCHEM_MONOISOTOPIC_WEIGHT>
432.171689

> <PUBCHEM_TOTAL_CHARGE>
0

> <PUBCHEM_HEAVY_ATOM_COUNT>
31

> <PUBCHEM_ATOM_DEF_STEREO_COUNT>
0

> <PUBCHEM_ATOM_UDEF_STEREO_COUNT>
1

> <PUBCHEM_BOND_DEF_STEREO_COUNT>
0

> <PUBCHEM_BOND_UDEF_STEREO_COUNT>
0

> <PUBCHEM_ISOTOPIC_ATOM_COUNT>
0

> <PUBCHEM_COMPONENT_COUNT>
1

> <PUBCHEM_CACTVS_TAUTO_COUNT>
1

> <PUBCHEM_COORDINATE_TYPE>
1
5
255

> <PUBCHEM_BONDANNOTATIONS>
11  14  3
13  16  8
13  17  8
16  18  8
16  19  8
17  20  8
18  21  8
18  23  8
19  24  8
2  15  8
2  22  8
20  21  8
23  25  8
24  25  8
26  27  8
26  28  8
27  29  8
28  30  8
29  31  8
30  31  8
5  15  8
5  6  8
6  22  8

$$$$

