51090941
  -OEChem-06241223002D

 51 54  0     1  0  0  0  0  0999 V2000
    8.8835    3.3976    0.0000 F   0  0  0  0  0  0  0  0  0  0  0  0
    7.7844    4.2876    0.0000 F   0  0  0  0  0  0  0  0  0  0  0  0
    7.9935    2.2986    0.0000 F   0  0  0  0  0  0  0  0  0  0  0  0
    2.8070   -0.4274    0.0000 O   0  0  0  0  0  0  0  0  0  0  0  0
    4.5390   -0.4274    0.0000 N   0  0  0  0  0  0  0  0  0  0  0  0
    6.4877    2.2750    0.0000 N   0  0  3  0  0  0  0  0  0  0  0  0
    3.6730   -1.9274    0.0000 C   0  0  0  0  0  0  0  0  0  0  0  0
    2.8368   -3.3757    0.0000 C   0  0  0  0  0  0  0  0  0  0  0  0
    2.9819   -3.8108    0.0000 C   0  0  0  0  0  0  0  0  0  0  0  0
    4.5092   -3.3757    0.0000 C   0  0  0  0  0  0  0  0  0  0  0  0
    4.5092   -2.4102    0.0000 C   0  0  0  0  0  0  0  0  0  0  0  0
    2.9819   -2.7655    0.0000 C   0  0  0  0  0  0  0  0  0  0  0  0
    2.8368   -2.4102    0.0000 C   0  0  0  0  0  0  0  0  0  0  0  0
    3.6730   -3.6785    0.0000 C   0  0  0  0  0  0  0  0  0  0  0  0
    2.0000   -3.8585    0.0000 C   0  0  0  0  0  0  0  0  0  0  0  0
    3.8876   -4.2876    0.0000 C   0  0  0  0  0  0  0  0  0  0  0  0
    3.6730   -0.9274    0.0000 C   0  0  0  0  0  0  0  0  0  0  0  0
    4.5390    0.5726    0.0000 C   0  0  0  0  0  0  0  0  0  0  0  0
    5.4050    1.0726    0.0000 C   0  0  3  0  0  0  0  0  0  0  0  0
    6.3186    0.6659    0.0000 C   0  0  0  0  0  0  0  0  0  0  0  0
    5.5096    2.0671    0.0000 C   0  0  0  0  0  0  0  0  0  0  0  0
    6.9877    1.4090    0.0000 C   0  0  0  0  0  0  0  0  0  0  0  0
    6.8944    3.1886    0.0000 C   0  0  0  0  0  0  0  0  0  0  0  0
    7.8890    3.2931    0.0000 C   0  0  0  0  0  0  0  0  0  0  0  0
    5.1016   -3.5585    0.0000 H   0  0  0  0  0  0  0  0  0  0  0  0
    2.8912   -3.9933    0.0000 H   0  0  0  0  0  0  0  0  0  0  0  0
    2.8478   -4.4162    0.0000 H   0  0  0  0  0  0  0  0  0  0  0  0
    5.1198   -2.5179    0.0000 H   0  0  0  0  0  0  0  0  0  0  0  0
    4.7212   -1.8276    0.0000 H   0  0  0  0  0  0  0  0  0  0  0  0
    2.6383   -2.2495    0.0000 H   0  0  0  0  0  0  0  0  0  0  0  0
    2.3885   -2.9450    0.0000 H   0  0  0  0  0  0  0  0  0  0  0  0
    2.6247   -1.8276    0.0000 H   0  0  0  0  0  0  0  0  0  0  0  0
    2.2262   -2.5178    0.0000 H   0  0  0  0  0  0  0  0  0  0  0  0
    3.5782   -4.8249    0.0000 H   0  0  0  0  0  0  0  0  0  0  0  0
    4.4127   -4.6172    0.0000 H   0  0  0  0  0  0  0  0  0  0  0  0
    1.5188   -3.4676    0.0000 H   0  0  0  0  0  0  0  0  0  0  0  0
    1.8068   -4.4476    0.0000 H   0  0  0  0  0  0  0  0  0  0  0  0
    3.3030   -4.1760    0.0000 H   0  0  0  0  0  0  0  0  0  0  0  0
    4.0430   -4.1760    0.0000 H   0  0  0  0  0  0  0  0  0  0  0  0
    5.0760   -0.7374    0.0000 H   0  0  0  0  0  0  0  0  0  0  0  0
    4.3270    1.1552    0.0000 H   0  0  0  0  0  0  0  0  0  0  0  0
    3.9284    0.4649    0.0000 H   0  0  0  0  0  0  0  0  0  0  0  0
    5.4375    0.4534    0.0000 H   0  0  0  0  0  0  0  0  0  0  0  0
    6.0086    0.1289    0.0000 H   0  0  0  0  0  0  0  0  0  0  0  0
    6.8202    0.3014    0.0000 H   0  0  0  0  0  0  0  0  0  0  0  0
    5.4448    2.6837    0.0000 H   0  0  0  0  0  0  0  0  0  0  0  0
    4.8896    2.0671    0.0000 H   0  0  0  0  0  0  0  0  0  0  0  0
    7.4026    0.9483    0.0000 H   0  0  0  0  0  0  0  0  0  0  0  0
    7.4893    1.7734    0.0000 H   0  0  0  0  0  0  0  0  0  0  0  0
    6.9377    3.8071    0.0000 H   0  0  0  0  0  0  0  0  0  0  0  0
    6.2929    3.3386    0.0000 H   0  0  0  0  0  0  0  0  0  0  0  0
  1 24  1  0  0  0  0
  2 24  1  0  0  0  0
  3 24  1  0  0  0  0
  4 17  2  0  0  0  0
  5 17  1  0  0  0  0
  5 18  1  0  0  0  0
  5 40  1  0  0  0  0
  6 21  1  0  0  0  0
  6 22  1  0  0  0  0
  6 23  1  0  0  0  0
  7 11  1  0  0  0  0
  7 12  1  0  0  0  0
  7 13  1  0  0  0  0
  7 17  1  0  0  0  0
  8 13  1  0  0  0  0
  8 14  1  0  0  0  0
  8 15  1  0  0  0  0
  8 26  1  0  0  0  0
  9 12  1  0  0  0  0
  9 15  1  0  0  0  0
  9 16  1  0  0  0  0
  9 27  1  0  0  0  0
 10 11  1  0  0  0  0
 10 14  1  0  0  0  0
 10 16  1  0  0  0  0
 10 25  1  0  0  0  0
 11 28  1  0  0  0  0
 11 29  1  0  0  0  0
 12 30  1  0  0  0  0
 12 31  1  0  0  0  0
 13 32  1  0  0  0  0
 13 33  1  0  0  0  0
 14 38  1  0  0  0  0
 14 39  1  0  0  0  0
 15 36  1  0  0  0  0
 15 37  1  0  0  0  0
 16 34  1  0  0  0  0
 16 35  1  0  0  0  0
 18 19  1  0  0  0  0
 18 41  1  0  0  0  0
 18 42  1  0  0  0  0
 19 20  1  0  0  0  0
 19 21  1  0  0  0  0
 19 43  1  0  0  0  0
 20 22  1  0  0  0  0
 20 44  1  0  0  0  0
 20 45  1  0  0  0  0
 21 46  1  0  0  0  0
 21 47  1  0  0  0  0
 22 48  1  0  0  0  0
 22 49  1  0  0  0  0
 23 24  1  0  0  0  0
 23 50  1  0  0  0  0
 23 51  1  0  0  0  0
M  END
> <PUBCHEM_COMPOUND_CID>
51090941

> <PUBCHEM_COMPOUND_CANONICALIZED>
1

> <PUBCHEM_CACTVS_COMPLEXITY>
464

> <PUBCHEM_CACTVS_HBOND_ACCEPTOR>
5

> <PUBCHEM_CACTVS_HBOND_DONOR>
1

> <PUBCHEM_CACTVS_ROTATABLE_BOND>
4

> <PUBCHEM_CACTVS_SUBSKEYS>
AAADceB7IYAAAAAAAAAAAAAAAAAAAWAAAAAwYMGAAAAAAAAAAAAAHwAQAAAADwDBgBQAAAPAAAAIAAEQEAAAAAAAAAAAAIEIAAAAABIAwAAEAAAAFgCAAAEYiMCPAAAAAAAAAAAAAAQAAAAAAAAAAAAAAA==

> <PUBCHEM_IUPAC_OPENEYE_NAME>
N-[[1-(2,2,2-trifluoroethyl)pyrrolidin-3-yl]methyl]adamantane-1-carboxamide

> <PUBCHEM_IUPAC_CAS_NAME>
N-[[1-(2,2,2-trifluoroethyl)-3-pyrrolidinyl]methyl]-1-adamantanecarboxamide

> <PUBCHEM_IUPAC_NAME>
N-[[1-(2,2,2-trifluoroethyl)pyrrolidin-3-yl]methyl]adamantane-1-carboxamide

> <PUBCHEM_IUPAC_SYSTEMATIC_NAME>
N-[[1-[2,2,2-tris(fluoranyl)ethyl]pyrrolidin-3-yl]methyl]adamantane-1-carboxamide

> <PUBCHEM_IUPAC_TRADITIONAL_NAME>
N-[[1-(2,2,2-trifluoroethyl)pyrrolidin-3-yl]methyl]adamantane-1-carboxamide

> <PUBCHEM_IUPAC_INCHI>
InChI=1S/C18H27F3N2O/c19-18(20,21)11-23-2-1-12(10-23)9-22-16(24)17-6-13-3-14(7-17)5-15(4-13)8-17/h12-15H,1-11H2,(H,22,24)

> <PUBCHEM_IUPAC_INCHIKEY>
UQKFWYSXQQRART-UHFFFAOYSA-N

> <PUBCHEM_XLOGP3_AA>
3.7

> <PUBCHEM_EXACT_MASS>
344.207548

> <PUBCHEM_MOLECULAR_FORMULA>
C18H27F3N2O

> <PUBCHEM_MOLECULAR_WEIGHT>
344.41499

> <PUBCHEM_OPENEYE_CAN_SMILES>
C1CN(CC1CNC(=O)C23CC4CC(C2)CC(C4)C3)CC(F)(F)F

> <PUBCHEM_OPENEYE_ISO_SMILES>
C1CN(CC1CNC(=O)C23CC4CC(C2)CC(C4)C3)CC(F)(F)F

> <PUBCHEM_CACTVS_TPSA>
32.3

> <PUBCHEM_MONOISOTOPIC_WEIGHT>
344.207548

> <PUBCHEM_TOTAL_CHARGE>
0

> <PUBCHEM_HEAVY_ATOM_COUNT>
24

> <PUBCHEM_ATOM_DEF_STEREO_COUNT>
0

> <PUBCHEM_ATOM_UDEF_STEREO_COUNT>
1

> <PUBCHEM_BOND_DEF_STEREO_COUNT>
0

> <PUBCHEM_BOND_UDEF_STEREO_COUNT>
0

> <PUBCHEM_ISOTOPIC_ATOM_COUNT>
0

> <PUBCHEM_COMPONENT_COUNT>
1

> <PUBCHEM_CACTVS_TAUTO_COUNT>
2

> <PUBCHEM_COORDINATE_TYPE>
1
5
255

> <PUBCHEM_BONDANNOTATIONS>
19  18  3

$$$$

