583437
  -OEChem-06241222452D

 36 38  0     1  0  0  0  0  0999 V2000
    2.0000    2.2411    0.0000 O   0  5  0  0  0  0  0  0  0  0  0  0
    3.3542    3.3210    0.0000 O   0  0  0  0  0  0  0  0  0  0  0  0
    6.4577   -0.5147    0.0000 N   0  0  0  0  0  0  0  0  0  0  0  0
    6.4577   -2.7617    0.0000 N   0  0  0  0  0  0  0  0  0  0  0  0
    2.9888    2.3901    0.0000 N   0  3  0  0  0  0  0  0  0  0  0  0
    5.4828   -0.7372    0.0000 C   0  0  3  0  0  0  0  0  0  0  0  0
    5.0489   -1.6382    0.0000 C   0  0  0  0  0  0  0  0  0  0  0  0
    4.8593    0.0446    0.0000 C   0  0  0  0  0  0  0  0  0  0  0  0
    5.4828   -2.5391    0.0000 C   0  0  0  0  0  0  0  0  0  0  0  0
    7.2396   -1.1382    0.0000 C   0  0  0  0  0  0  0  0  0  0  0  0
    7.2396   -2.1382    0.0000 C   0  0  0  0  0  0  0  0  0  0  0  0
    5.2246    0.9755    0.0000 C   0  0  0  0  0  0  0  0  0  0  0  0
    3.8705   -0.1044    0.0000 C   0  0  0  0  0  0  0  0  0  0  0  0
    4.8593   -3.3210    0.0000 C   0  0  0  0  0  0  0  0  0  0  0  0
    8.1335   -0.6035    0.0000 C   0  0  0  0  0  0  0  0  0  0  0  0
    8.1335   -2.6728    0.0000 C   0  0  0  0  0  0  0  0  0  0  0  0
    4.6011    1.7573    0.0000 C   0  0  0  0  0  0  0  0  0  0  0  0
    3.2470    0.6774    0.0000 C   0  0  0  0  0  0  0  0  0  0  0  0
    3.6123    1.6083    0.0000 C   0  0  0  0  0  0  0  0  0  0  0  0
    9.0396   -1.1174    0.0000 C   0  0  0  0  0  0  0  0  0  0  0  0
    9.0396   -2.1590    0.0000 C   0  0  0  0  0  0  0  0  0  0  0  0
    4.8667   -0.8066    0.0000 H   0  0  0  0  0  0  0  0  0  0  0  0
    4.5642   -1.2516    0.0000 H   0  0  0  0  0  0  0  0  0  0  0  0
    4.5642   -2.0248    0.0000 H   0  0  0  0  0  0  0  0  0  0  0  0
    6.5957    0.0898    0.0000 H   0  0  0  0  0  0  0  0  0  0  0  0
    5.8377    1.0679    0.0000 H   0  0  0  0  0  0  0  0  0  0  0  0
    3.6440   -0.6816    0.0000 H   0  0  0  0  0  0  0  0  0  0  0  0
    4.3746   -2.9344    0.0000 H   0  0  0  0  0  0  0  0  0  0  0  0
    4.4727   -3.8057    0.0000 H   0  0  0  0  0  0  0  0  0  0  0  0
    5.3440   -3.7076    0.0000 H   0  0  0  0  0  0  0  0  0  0  0  0
    8.1263    0.0164    0.0000 H   0  0  0  0  0  0  0  0  0  0  0  0
    8.1263   -3.2928    0.0000 H   0  0  0  0  0  0  0  0  0  0  0  0
    4.8277    2.3345    0.0000 H   0  0  0  0  0  0  0  0  0  0  0  0
    2.6339    0.5850    0.0000 H   0  0  0  0  0  0  0  0  0  0  0  0
    9.5753   -0.8053    0.0000 H   0  0  0  0  0  0  0  0  0  0  0  0
    9.5753   -2.4711    0.0000 H   0  0  0  0  0  0  0  0  0  0  0  0
  1  5  1  0  0  0  0
  2  5  2  0  0  0  0
  3  6  1  0  0  0  0
  3 10  1  0  0  0  0
  3 25  1  0  0  0  0
  4  9  2  0  0  0  0
  4 11  1  0  0  0  0
  5 19  1  0  0  0  0
  6  7  1  0  0  0  0
  6  8  1  0  0  0  0
  6 22  1  0  0  0  0
  7  9  1  0  0  0  0
  7 23  1  0  0  0  0
  7 24  1  0  0  0  0
  8 12  2  0  0  0  0
  8 13  1  0  0  0  0
  9 14  1  0  0  0  0
 10 11  1  0  0  0  0
 10 15  2  0  0  0  0
 11 16  2  0  0  0  0
 12 17  1  0  0  0  0
 12 26  1  0  0  0  0
 13 18  2  0  0  0  0
 13 27  1  0  0  0  0
 14 28  1  0  0  0  0
 14 29  1  0  0  0  0
 14 30  1  0  0  0  0
 15 20  1  0  0  0  0
 15 31  1  0  0  0  0
 16 21  1  0  0  0  0
 16 32  1  0  0  0  0
 17 19  2  0  0  0  0
 17 33  1  0  0  0  0
 18 19  1  0  0  0  0
 18 34  1  0  0  0  0
 20 21  2  0  0  0  0
 20 35  1  0  0  0  0
 21 36  1  0  0  0  0
M  CHG  2   1  -1   5   1
M  END
> <PUBCHEM_COMPOUND_CID>
583437

> <PUBCHEM_COMPOUND_CANONICALIZED>
1

> <PUBCHEM_CACTVS_COMPLEXITY>
410

> <PUBCHEM_CACTVS_HBOND_ACCEPTOR>
4

> <PUBCHEM_CACTVS_HBOND_DONOR>
1

> <PUBCHEM_CACTVS_ROTATABLE_BOND>
1

> <PUBCHEM_CACTVS_SUBSKEYS>
AAADccB7MAAAAAAAAAAAAAAAAAAAAAAAAAAwYAAABAAAAAABQAAAHAAUAAAADCjBGAQywILQQAChAyRiRwCCAAAhAgAoiIA4dIoIYCLAkZGUIAhgkADIyAcQgIAOCAAAAAAAACAQAAAAAAAAQAAAAAAAAA==

> <PUBCHEM_IUPAC_OPENEYE_NAME>
4-methyl-2-(4-nitrophenyl)-2,3-dihydro-1H-1,5-benzodiazepine

> <PUBCHEM_IUPAC_CAS_NAME>
4-methyl-2-(4-nitrophenyl)-2,3-dihydro-1H-1,5-benzodiazepine

> <PUBCHEM_IUPAC_NAME>
4-methyl-2-(4-nitrophenyl)-2,3-dihydro-1H-1,5-benzodiazepine

> <PUBCHEM_IUPAC_SYSTEMATIC_NAME>
4-methyl-2-(4-nitrophenyl)-2,3-dihydro-1H-1,5-benzodiazepine

> <PUBCHEM_IUPAC_TRADITIONAL_NAME>
4-methyl-2-(4-nitrophenyl)-2,3-dihydro-1H-1,5-benzodiazepine

> <PUBCHEM_IUPAC_INCHI>
InChI=1S/C16H15N3O2/c1-11-10-16(12-6-8-13(9-7-12)19(20)21)18-15-5-3-2-4-14(15)17-11/h2-9,16,18H,10H2,1H3

> <PUBCHEM_IUPAC_INCHIKEY>
XLFQNPCGOFVDPM-UHFFFAOYSA-N

> <PUBCHEM_XLOGP3_AA>
2.7

> <PUBCHEM_EXACT_MASS>
281.116427

> <PUBCHEM_MOLECULAR_FORMULA>
C16H15N3O2

> <PUBCHEM_MOLECULAR_WEIGHT>
281.3092

> <PUBCHEM_OPENEYE_CAN_SMILES>
CC1=NC2=CC=CC=C2NC(C1)C3=CC=C(C=C3)[N+](=O)[O-]

> <PUBCHEM_OPENEYE_ISO_SMILES>
CC1=NC2=CC=CC=C2NC(C1)C3=CC=C(C=C3)[N+](=O)[O-]

> <PUBCHEM_CACTVS_TPSA>
70.2

> <PUBCHEM_MONOISOTOPIC_WEIGHT>
281.116427

> <PUBCHEM_TOTAL_CHARGE>
0

> <PUBCHEM_HEAVY_ATOM_COUNT>
21

> <PUBCHEM_ATOM_DEF_STEREO_COUNT>
0

> <PUBCHEM_ATOM_UDEF_STEREO_COUNT>
1

> <PUBCHEM_BOND_DEF_STEREO_COUNT>
0

> <PUBCHEM_BOND_UDEF_STEREO_COUNT>
0

> <PUBCHEM_ISOTOPIC_ATOM_COUNT>
0

> <PUBCHEM_COMPONENT_COUNT>
1

> <PUBCHEM_CACTVS_TAUTO_COUNT>
3

> <PUBCHEM_COORDINATE_TYPE>
1
5
255

> <PUBCHEM_BONDANNOTATIONS>
10  11  8
10  15  8
11  16  8
12  17  8
13  18  8
15  20  8
16  21  8
17  19  8
18  19  8
20  21  8
6  8  3
8  12  8
8  13  8

$$$$

