17395833
  -OEChem-06241222522D

 37 39  0     0  0  0  0  0  0999 V2000
    3.7320   -4.3512    0.0000 Cl  0  0  0  0  0  0  0  0  0  0  0  0
    2.0000   -1.3512    0.0000 Cl  0  0  0  0  0  0  0  0  0  0  0  0
    6.4347    4.1433    0.0000 S   0  0  0  0  0  0  0  0  0  0  0  0
    6.3301   -1.8512    0.0000 O   0  0  0  0  0  0  0  0  0  0  0  0
    4.5981    3.1488    0.0000 O   0  0  0  0  0  0  0  0  0  0  0  0
    5.4641   -0.3512    0.0000 N   0  0  0  0  0  0  0  0  0  0  0  0
    5.4641    1.6488    0.0000 N   0  0  0  0  0  0  0  0  0  0  0  0
    4.5981    0.1488    0.0000 C   0  0  0  0  0  0  0  0  0  0  0  0
    6.3301    0.1488    0.0000 C   0  0  0  0  0  0  0  0  0  0  0  0
    4.5981    1.1488    0.0000 C   0  0  0  0  0  0  0  0  0  0  0  0
    6.3301    1.1488    0.0000 C   0  0  0  0  0  0  0  0  0  0  0  0
    5.4641   -1.3512    0.0000 C   0  0  0  0  0  0  0  0  0  0  0  0
    5.4641    2.6488    0.0000 C   0  0  0  0  0  0  0  0  0  0  0  0
    4.5981   -1.8512    0.0000 C   0  0  0  0  0  0  0  0  0  0  0  0
    6.3301    3.1488    0.0000 C   0  0  0  0  0  0  0  0  0  0  0  0
    3.7320   -1.3512    0.0000 C   0  0  0  0  0  0  0  0  0  0  0  0
    4.5981   -2.8512    0.0000 C   0  0  0  0  0  0  0  0  0  0  0  0
    7.2437    2.7420    0.0000 C   0  0  0  0  0  0  0  0  0  0  0  0
    3.7320   -3.3512    0.0000 C   0  0  0  0  0  0  0  0  0  0  0  0
    2.8660   -1.8512    0.0000 C   0  0  0  0  0  0  0  0  0  0  0  0
    7.9128    3.4852    0.0000 C   0  0  0  0  0  0  0  0  0  0  0  0
    2.8660   -2.8512    0.0000 C   0  0  0  0  0  0  0  0  0  0  0  0
    7.4128    4.3512    0.0000 C   0  0  0  0  0  0  0  0  0  0  0  0
    3.9875    0.2564    0.0000 H   0  0  0  0  0  0  0  0  0  0  0  0
    4.3860   -0.4338    0.0000 H   0  0  0  0  0  0  0  0  0  0  0  0
    6.5422   -0.4338    0.0000 H   0  0  0  0  0  0  0  0  0  0  0  0
    6.9407    0.2564    0.0000 H   0  0  0  0  0  0  0  0  0  0  0  0
    4.3860    1.7314    0.0000 H   0  0  0  0  0  0  0  0  0  0  0  0
    3.9875    1.0411    0.0000 H   0  0  0  0  0  0  0  0  0  0  0  0
    6.9407    1.0411    0.0000 H   0  0  0  0  0  0  0  0  0  0  0  0
    6.5422    1.7314    0.0000 H   0  0  0  0  0  0  0  0  0  0  0  0
    3.7320   -0.7312    0.0000 H   0  0  0  0  0  0  0  0  0  0  0  0
    5.1350   -3.1612    0.0000 H   0  0  0  0  0  0  0  0  0  0  0  0
    7.3726    2.1356    0.0000 H   0  0  0  0  0  0  0  0  0  0  0  0
    8.5294    3.4204    0.0000 H   0  0  0  0  0  0  0  0  0  0  0  0
    2.3291   -3.1612    0.0000 H   0  0  0  0  0  0  0  0  0  0  0  0
    7.6650    4.9176    0.0000 H   0  0  0  0  0  0  0  0  0  0  0  0
  1 19  1  0  0  0  0
  2 20  1  0  0  0  0
  3 15  1  0  0  0  0
  3 23  1  0  0  0  0
  4 12  2  0  0  0  0
  5 13  2  0  0  0  0
  6  8  1  0  0  0  0
  6  9  1  0  0  0  0
  6 12  1  0  0  0  0
  7 10  1  0  0  0  0
  7 11  1  0  0  0  0
  7 13  1  0  0  0  0
  8 10  1  0  0  0  0
  8 24  1  0  0  0  0
  8 25  1  0  0  0  0
  9 11  1  0  0  0  0
  9 26  1  0  0  0  0
  9 27  1  0  0  0  0
 10 28  1  0  0  0  0
 10 29  1  0  0  0  0
 11 30  1  0  0  0  0
 11 31  1  0  0  0  0
 12 14  1  0  0  0  0
 13 15  1  0  0  0  0
 14 16  2  0  0  0  0
 14 17  1  0  0  0  0
 15 18  2  0  0  0  0
 16 20  1  0  0  0  0
 16 32  1  0  0  0  0
 17 19  2  0  0  0  0
 17 33  1  0  0  0  0
 18 21  1  0  0  0  0
 18 34  1  0  0  0  0
 19 22  1  0  0  0  0
 20 22  2  0  0  0  0
 21 23  2  0  0  0  0
 21 35  1  0  0  0  0
 22 36  1  0  0  0  0
 23 37  1  0  0  0  0
M  END
> <PUBCHEM_COMPOUND_CID>
17395833

> <PUBCHEM_COMPOUND_CANONICALIZED>
1

> <PUBCHEM_CACTVS_COMPLEXITY>
447

> <PUBCHEM_CACTVS_HBOND_ACCEPTOR>
3

> <PUBCHEM_CACTVS_HBOND_DONOR>
0

> <PUBCHEM_CACTVS_ROTATABLE_BOND>
2

> <PUBCHEM_CACTVS_SUBSKEYS>
AAADccB7MABGAAAAAAAAAAAAAAAAASAAAAA8QAAAAAAAAAABwAAAHgYAAAAADALF2CSwAYMAAAiMAiFSEACDAIAkDRBIiBkIBsgIYDKhlxGUIQhghgCoiYcYiACOAAAAIACAAAAAAABAAQAAAAAAAAAAAA==

> <PUBCHEM_IUPAC_OPENEYE_NAME>
[4-(3,5-dichlorobenzoyl)piperazin-1-yl]-(2-thienyl)methanone

> <PUBCHEM_IUPAC_CAS_NAME>
[4-[(3,5-dichlorophenyl)-oxomethyl]-1-piperazinyl]-thiophen-2-ylmethanone

> <PUBCHEM_IUPAC_NAME>
[4-(3,5-dichlorobenzoyl)piperazin-1-yl]-thiophen-2-ylmethanone

> <PUBCHEM_IUPAC_SYSTEMATIC_NAME>
[4-[3,5-bis(chloranyl)phenyl]carbonylpiperazin-1-yl]-thiophen-2-yl-methanone

> <PUBCHEM_IUPAC_TRADITIONAL_NAME>
[4-(3,5-dichlorobenzoyl)piperazino]-(2-thienyl)methanone

> <PUBCHEM_IUPAC_INCHI>
InChI=1S/C16H14Cl2N2O2S/c17-12-8-11(9-13(18)10-12)15(21)19-3-5-20(6-4-19)16(22)14-2-1-7-23-14/h1-2,7-10H,3-6H2

> <PUBCHEM_IUPAC_INCHIKEY>
GQNBRGIKPIWLFM-UHFFFAOYSA-N

> <PUBCHEM_XLOGP3_AA>
3.6

> <PUBCHEM_EXACT_MASS>
368.015304

> <PUBCHEM_MOLECULAR_FORMULA>
C16H14Cl2N2O2S

> <PUBCHEM_MOLECULAR_WEIGHT>
369.26556

> <PUBCHEM_OPENEYE_CAN_SMILES>
C1CN(CCN1C(=O)C2=CC=CS2)C(=O)C3=CC(=CC(=C3)Cl)Cl

> <PUBCHEM_OPENEYE_ISO_SMILES>
C1CN(CCN1C(=O)C2=CC=CS2)C(=O)C3=CC(=CC(=C3)Cl)Cl

> <PUBCHEM_CACTVS_TPSA>
68.9

> <PUBCHEM_MONOISOTOPIC_WEIGHT>
368.015304

> <PUBCHEM_TOTAL_CHARGE>
0

> <PUBCHEM_HEAVY_ATOM_COUNT>
23

> <PUBCHEM_ATOM_DEF_STEREO_COUNT>
0

> <PUBCHEM_ATOM_UDEF_STEREO_COUNT>
0

> <PUBCHEM_BOND_DEF_STEREO_COUNT>
0

> <PUBCHEM_BOND_UDEF_STEREO_COUNT>
0

> <PUBCHEM_ISOTOPIC_ATOM_COUNT>
0

> <PUBCHEM_COMPONENT_COUNT>
1

> <PUBCHEM_CACTVS_TAUTO_COUNT>
1

> <PUBCHEM_COORDINATE_TYPE>
1
5
255

> <PUBCHEM_BONDANNOTATIONS>
14  16  8
14  17  8
15  18  8
16  20  8
17  19  8
18  21  8
19  22  8
20  22  8
21  23  8
3  15  8
3  23  8

$$$$

