14429
  -OEChem-06241222433D

 48 51  0     0  0  0  0  0  0999 V2000
    1.4593   -1.5658    1.5986 S   0  0  0  0  0  0  0  0  0  0  0  0
   -5.0523    1.8933    0.6869 N   0  0  0  0  0  0  0  0  0  0  0  0
   -0.5985    0.1534   -0.4109 C   0  0  0  0  0  0  0  0  0  0  0  0
    0.8605    0.4410   -0.3881 C   0  0  0  0  0  0  0  0  0  0  0  0
   -1.1791   -1.1990   -0.4795 C   0  0  0  0  0  0  0  0  0  0  0  0
    1.8243   -0.2148    0.4241 C   0  0  0  0  0  0  0  0  0  0  0  0
   -1.0693   -2.0383    0.6392 C   0  0  0  0  0  0  0  0  0  0  0  0
    3.2231    0.1615    0.3229 C   0  0  0  0  0  0  0  0  0  0  0  0
   -1.4766    1.1669   -0.2747 C   0  0  0  0  0  0  0  0  0  0  0  0
   -0.3366   -1.5565    1.8582 C   0  0  0  0  0  0  0  0  0  0  0  0
   -2.9571    0.9758   -0.1942 C   0  0  0  0  0  0  0  0  0  0  0  0
    3.6000    1.1716   -0.6005 C   0  0  0  0  0  0  0  0  0  0  0  0
    1.2992    1.4209   -1.2981 C   0  0  0  0  0  0  0  0  0  0  0  0
   -3.6070    2.0830    0.6348 C   0  0  0  0  0  0  0  0  0  0  0  0
    2.6368    1.7821   -1.3984 C   0  0  0  0  0  0  0  0  0  0  0  0
   -1.8390   -1.6476   -1.6317 C   0  0  0  0  0  0  0  0  0  0  0  0
   -1.6200   -3.3258    0.5882 C   0  0  0  0  0  0  0  0  0  0  0  0
    4.2887   -0.4004    1.0839 C   0  0  0  0  0  0  0  0  0  0  0  0
    4.9412    1.5720   -0.7363 C   0  0  0  0  0  0  0  0  0  0  0  0
   -2.3863   -2.9294   -1.6689 C   0  0  0  0  0  0  0  0  0  0  0  0
   -2.2771   -3.7671   -0.5607 C   0  0  0  0  0  0  0  0  0  0  0  0
    5.6196    0.0050    0.9412 C   0  0  0  0  0  0  0  0  0  0  0  0
    5.9462    0.9930    0.0293 C   0  0  0  0  0  0  0  0  0  0  0  0
   -5.6198    1.8868   -0.6624 C   0  0  0  0  0  0  0  0  0  0  0  0
   -5.6801    2.9383    1.4969 C   0  0  0  0  0  0  0  0  0  0  0  0
   -1.1169    2.1916   -0.2018 H   0  0  0  0  0  0  0  0  0  0  0  0
   -0.6802   -0.5665    2.1781 H   0  0  0  0  0  0  0  0  0  0  0  0
   -0.5447   -2.2248    2.7017 H   0  0  0  0  0  0  0  0  0  0  0  0
   -3.2451    0.0149    0.2447 H   0  0  0  0  0  0  0  0  0  0  0  0
   -3.3131    1.0059   -1.2295 H   0  0  0  0  0  0  0  0  0  0  0  0
    0.5950    1.9206   -1.9623 H   0  0  0  0  0  0  0  0  0  0  0  0
   -3.1963    2.0495    1.6526 H   0  0  0  0  0  0  0  0  0  0  0  0
   -3.3551    3.0679    0.2177 H   0  0  0  0  0  0  0  0  0  0  0  0
    2.9125    2.5503   -2.1186 H   0  0  0  0  0  0  0  0  0  0  0  0
   -1.9282   -1.0082   -2.5066 H   0  0  0  0  0  0  0  0  0  0  0  0
   -1.5383   -3.9943    1.4414 H   0  0  0  0  0  0  0  0  0  0  0  0
    4.1074   -1.1788    1.8212 H   0  0  0  0  0  0  0  0  0  0  0  0
    5.2177    2.3472   -1.4492 H   0  0  0  0  0  0  0  0  0  0  0  0
   -2.8966   -3.2757   -2.5629 H   0  0  0  0  0  0  0  0  0  0  0  0
   -2.7019   -4.7662   -0.5921 H   0  0  0  0  0  0  0  0  0  0  0  0
    6.3941   -0.4561    1.5471 H   0  0  0  0  0  0  0  0  0  0  0  0
    6.9767    1.3134   -0.0876 H   0  0  0  0  0  0  0  0  0  0  0  0
   -5.2922    2.7446   -1.2612 H   0  0  0  0  0  0  0  0  0  0  0  0
   -6.7155    1.9177   -0.6145 H   0  0  0  0  0  0  0  0  0  0  0  0
   -5.3924    0.9596   -1.1974 H   0  0  0  0  0  0  0  0  0  0  0  0
   -6.7576    2.7614    1.5873 H   0  0  0  0  0  0  0  0  0  0  0  0
   -5.5281    3.9377    1.0731 H   0  0  0  0  0  0  0  0  0  0  0  0
   -5.2764    2.9303    2.5157 H   0  0  0  0  0  0  0  0  0  0  0  0
  1  6  1  0  0  0  0
  1 10  1  0  0  0  0
  2 14  1  0  0  0  0
  2 24  1  0  0  0  0
  2 25  1  0  0  0  0
  3  4  1  0  0  0  0
  3  5  1  0  0  0  0
  3  9  2  0  0  0  0
  4  6  2  0  0  0  0
  4 13  1  0  0  0  0
  5  7  1  0  0  0  0
  5 16  2  0  0  0  0
  6  8  1  0  0  0  0
  7 10  1  0  0  0  0
  7 17  2  0  0  0  0
  8 12  1  0  0  0  0
  8 18  2  0  0  0  0
  9 11  1  0  0  0  0
  9 26  1  0  0  0  0
 10 27  1  0  0  0  0
 10 28  1  0  0  0  0
 11 14  1  0  0  0  0
 11 29  1  0  0  0  0
 11 30  1  0  0  0  0
 12 15  1  0  0  0  0
 12 19  2  0  0  0  0
 13 15  2  0  0  0  0
 13 31  1  0  0  0  0
 14 32  1  0  0  0  0
 14 33  1  0  0  0  0
 15 34  1  0  0  0  0
 16 20  1  0  0  0  0
 16 35  1  0  0  0  0
 17 21  1  0  0  0  0
 17 36  1  0  0  0  0
 18 22  1  0  0  0  0
 18 37  1  0  0  0  0
 19 23  1  0  0  0  0
 19 38  1  0  0  0  0
 20 21  2  0  0  0  0
 20 39  1  0  0  0  0
 21 40  1  0  0  0  0
 22 23  2  0  0  0  0
 22 41  1  0  0  0  0
 23 42  1  0  0  0  0
 24 43  1  0  0  0  0
 24 44  1  0  0  0  0
 24 45  1  0  0  0  0
 25 46  1  0  0  0  0
 25 47  1  0  0  0  0
 25 48  1  0  0  0  0
M  END
> <PUBCHEM_COMPOUND_CID>
14429

> <PUBCHEM_CONFORMER_RMSD>
0.6

> <PUBCHEM_CONFORMER_DIVERSEORDER>
3
4
10
9
13
7
14
8
1
12
2
11
5
6

> <PUBCHEM_MMFF94_PARTIAL_CHARGES>
34
1 -0.33
10 0.37
11 0.14
13 -0.15
14 0.27
15 -0.15
16 -0.15
17 -0.15
18 -0.15
19 -0.15
2 -0.81
20 -0.15
21 -0.15
22 -0.15
23 -0.15
24 0.27
25 0.27
26 0.15
3 -0.06
31 0.15
34 0.15
35 0.15
36 0.15
37 0.15
38 0.15
39 0.15
4 0.03
40 0.15
41 0.15
42 0.15
5 0.03
6 0.1
7 -0.14
9 -0.29

> <PUBCHEM_EFFECTIVE_ROTOR_COUNT>
3.4

> <PUBCHEM_PHARMACOPHORE_FEATURES>
5
1 2 cation
6 4 6 8 12 13 15 rings
6 5 7 16 17 20 21 rings
6 8 12 18 19 22 23 rings
7 1 3 4 5 6 7 10 rings

> <PUBCHEM_HEAVY_ATOM_COUNT>
25

> <PUBCHEM_ATOM_DEF_STEREO_COUNT>
0

> <PUBCHEM_ATOM_UDEF_STEREO_COUNT>
0

> <PUBCHEM_BOND_DEF_STEREO_COUNT>
0

> <PUBCHEM_BOND_UDEF_STEREO_COUNT>
1

> <PUBCHEM_ISOTOPIC_ATOM_COUNT>
0

> <PUBCHEM_COMPONENT_COUNT>
1

> <PUBCHEM_CACTVS_TAUTO_COUNT>
1

> <PUBCHEM_CONFORMER_ID>
0000385D00000003

> <PUBCHEM_MMFF94_ENERGY>
96.319

> <PUBCHEM_FEATURE_SELFOVERLAP>
25.407

> <PUBCHEM_SHAPE_FINGERPRINT>
10493431 412 18272089422044454768
10764073 3 16773230833512469331
1100329 8 18412544275708646640
11115154 58 17686361780460146159
11315181 36 18057614166511050572
11823591 26 18263369234464747489
12107183 9 18268435797035741746
12236239 1 18341900692294036020
12293681 4 17894345583904384752
12597179 24 18040711502193860959
12616971 3 17560808719382160748
12788726 201 18264496083601833423
13140716 1 18059289868928068056
13540713 5 18058163926192781252
13583140 156 17095810928221508518
13947920 75 18042139712411744157
14294032 229 18187075140900409059
14790565 3 18338800121370603093
15131766 46 15552166902490205636
15420108 30 18195818581475501485
16992727 255 7420685843245275579
17349148 13 17701274538033770010
17980427 23 18129945560313786244
19141452 34 18413393150793765182
200 152 18054515703604274422
20197701 30 18338516464645074845
20554085 129 17896048800836266665
21033648 29 18267043797561049824
21403212 168 18201164368022642121
21424621 283 17677324043380898673
21756936 100 18408044013491787681
23557571 272 17968374546577041686
23558518 356 17983851177486529836
23559900 14 18041270033443488700
23569917 315 18336826485488825367
23598288 3 18192143806918655718
25147074 1 18271263667358563098
3610482 184 18129365052365156452
38695281 34 18268152135751936925
4340502 62 17560509711821505665
469060 322 14548737240426034483
5104073 3 17987807298471456352

> <PUBCHEM_SHAPE_MULTIPOLES>
513.36
11.65
3.8
1.58
3.44
2.55
-0.09
-10.85
-2.1
-6.21
0.12
-0.42
0.37
-2.83

> <PUBCHEM_SHAPE_SELFOVERLAP>
1107.438

> <PUBCHEM_SHAPE_VOLUME>
282.1

> <PUBCHEM_COORDINATE_TYPE>
2
5
10

$$$$

