13527
  -OEChem-06241222393D

 24 23  0     0  0  0  0  0  0999 V2000
    0.6161    0.2476    0.6012 O   0  0  0  0  0  0  0  0  0  0  0  0
   -0.6696    0.4665    0.0168 C   0  0  0  0  0  0  0  0  0  0  0  0
   -1.0865   -0.7821   -0.7852 C   0  0  0  0  0  0  0  0  0  0  0  0
   -1.6423    0.7788    1.1549 C   0  0  0  0  0  0  0  0  0  0  0  0
   -0.5626    1.6757   -0.9178 C   0  0  0  0  0  0  0  0  0  0  0  0
   -1.1668   -2.0638    0.0363 C   0  0  0  0  0  0  0  0  0  0  0  0
    1.5867   -0.0505   -0.3891 C   0  0  0  0  0  0  0  0  0  0  0  0
    2.9249   -0.2722    0.2830 C   0  0  0  0  0  0  0  0  0  0  0  0
   -2.0877   -0.6002   -1.2008 H   0  0  0  0  0  0  0  0  0  0  0  0
   -0.4591   -0.9550   -1.6656 H   0  0  0  0  0  0  0  0  0  0  0  0
   -2.6690    0.8902    0.7917 H   0  0  0  0  0  0  0  0  0  0  0  0
   -1.6230   -0.0002    1.9245 H   0  0  0  0  0  0  0  0  0  0  0  0
   -1.3550    1.7071    1.6630 H   0  0  0  0  0  0  0  0  0  0  0  0
   -1.5592    2.0536   -1.1750 H   0  0  0  0  0  0  0  0  0  0  0  0
   -0.0007    2.4928   -0.4510 H   0  0  0  0  0  0  0  0  0  0  0  0
   -0.0759    1.4407   -1.8704 H   0  0  0  0  0  0  0  0  0  0  0  0
   -1.4313   -2.9046   -0.6135 H   0  0  0  0  0  0  0  0  0  0  0  0
   -1.9358   -1.9979    0.8113 H   0  0  0  0  0  0  0  0  0  0  0  0
   -0.2114   -2.2995    0.5142 H   0  0  0  0  0  0  0  0  0  0  0  0
    1.3709   -0.9755   -0.9271 H   0  0  0  0  0  0  0  0  0  0  0  0
    1.7228    0.7690   -1.0990 H   0  0  0  0  0  0  0  0  0  0  0  0
    3.7007   -0.5062   -0.4520 H   0  0  0  0  0  0  0  0  0  0  0  0
    3.2277    0.6191    0.8427 H   0  0  0  0  0  0  0  0  0  0  0  0
    2.8632   -1.0943    1.0040 H   0  0  0  0  0  0  0  0  0  0  0  0
  1  2  1  0  0  0  0
  1  7  1  0  0  0  0
  2  3  1  0  0  0  0
  2  4  1  0  0  0  0
  2  5  1  0  0  0  0
  3  6  1  0  0  0  0
  3  9  1  0  0  0  0
  3 10  1  0  0  0  0
  4 11  1  0  0  0  0
  4 12  1  0  0  0  0
  4 13  1  0  0  0  0
  5 14  1  0  0  0  0
  5 15  1  0  0  0  0
  5 16  1  0  0  0  0
  6 17  1  0  0  0  0
  6 18  1  0  0  0  0
  6 19  1  0  0  0  0
  7  8  1  0  0  0  0
  7 20  1  0  0  0  0
  7 21  1  0  0  0  0
  8 22  1  0  0  0  0
  8 23  1  0  0  0  0
  8 24  1  0  0  0  0
M  END
> <PUBCHEM_COMPOUND_CID>
13527

> <PUBCHEM_CONFORMER_RMSD>
0.6

> <PUBCHEM_CONFORMER_DIVERSEORDER>
1
5
3
2
4

> <PUBCHEM_MMFF94_PARTIAL_CHARGES>
3
1 -0.56
2 0.28
7 0.28

> <PUBCHEM_EFFECTIVE_ROTOR_COUNT>
3

> <PUBCHEM_PHARMACOPHORE_FEATURES>
3
1 1 acceptor
1 6 hydrophobe
3 2 4 5 hydrophobe

> <PUBCHEM_HEAVY_ATOM_COUNT>
8

> <PUBCHEM_ATOM_DEF_STEREO_COUNT>
0

> <PUBCHEM_ATOM_UDEF_STEREO_COUNT>
0

> <PUBCHEM_BOND_DEF_STEREO_COUNT>
0

> <PUBCHEM_BOND_UDEF_STEREO_COUNT>
0

> <PUBCHEM_ISOTOPIC_ATOM_COUNT>
0

> <PUBCHEM_COMPONENT_COUNT>
1

> <PUBCHEM_CACTVS_TAUTO_COUNT>
1

> <PUBCHEM_CONFORMER_ID>
000034D700000001

> <PUBCHEM_MMFF94_ENERGY>
20.6824

> <PUBCHEM_FEATURE_SELFOVERLAP>
15.224

> <PUBCHEM_SHAPE_FINGERPRINT>
12423570 1 12442575670475478149
12932764 1 18271527585130868504
13024252 1 15985104136631938416
137420 1 15328909077552354285
16714656 1 18341048605052356301
18185500 45 18198622129540385134
21040471 1 18115854373013978808
24536 1 17676217883111605512
29004967 10 17836656227175924643
369184 2 18339370746382628992
5943 1 8930827546754309277

> <PUBCHEM_SHAPE_MULTIPOLES>
158.77
2.85
1.72
1.03
2.9
0.51
-0.06
0.38
-0.53
-1.03
0.28
-0.35
-0.25
-0.18

> <PUBCHEM_SHAPE_SELFOVERLAP>
285.238

> <PUBCHEM_SHAPE_VOLUME>
104.5

> <PUBCHEM_COORDINATE_TYPE>
2
5
10

$$$$

