12151
  -OEChem-06261206352D

 36 37  0     0  0  0  0  0  0999 V2000
    2.5369   -3.9050    0.0000 O   0  0  0  0  0  0  0  0  0  0  0  0
    3.4030   -5.4050    0.0000 O   0  0  0  0  0  0  0  0  0  0  0  0
    9.4651    5.0950    0.0000 O   0  0  0  0  0  0  0  0  0  0  0  0
    7.7331    5.0950    0.0000 O   0  0  0  0  0  0  0  0  0  0  0  0
    8.5991   -1.4050    0.0000 O   0  0  0  0  0  0  0  0  0  0  0  0
    3.4030   -4.4050    0.0000 N   0  0  0  0  0  0  0  0  0  0  0  0
    8.5991    4.5950    0.0000 N   0  0  0  0  0  0  0  0  0  0  0  0
    6.8671   -2.4050    0.0000 N   0  0  0  0  0  0  0  0  0  0  0  0
    8.5991    0.5950    0.0000 N   0  0  0  0  0  0  0  0  0  0  0  0
    6.8671   -1.4050    0.0000 N   0  0  0  0  0  0  0  0  0  0  0  0
    7.7331    0.0950    0.0000 N   0  0  0  0  0  0  0  0  0  0  0  0
    4.2690   -3.9050    0.0000 C   0  0  0  0  0  0  0  0  0  0  0  0
    8.5991    3.5950    0.0000 C   0  0  0  0  0  0  0  0  0  0  0  0
    6.0010   -2.9050    0.0000 C   0  0  0  0  0  0  0  0  0  0  0  0
    8.5991    1.5950    0.0000 C   0  0  0  0  0  0  0  0  0  0  0  0
    5.1350   -4.4050    0.0000 C   0  0  0  0  0  0  0  0  0  0  0  0
    7.7331    3.0950    0.0000 C   0  0  0  0  0  0  0  0  0  0  0  0
    4.2690   -2.9050    0.0000 C   0  0  0  0  0  0  0  0  0  0  0  0
    9.4651    3.0950    0.0000 C   0  0  0  0  0  0  0  0  0  0  0  0
    6.0010   -3.9050    0.0000 C   0  0  0  0  0  0  0  0  0  0  0  0
    7.7331    2.0950    0.0000 C   0  0  0  0  0  0  0  0  0  0  0  0
    5.1350   -2.4050    0.0000 C   0  0  0  0  0  0  0  0  0  0  0  0
    9.4651    2.0950    0.0000 C   0  0  0  0  0  0  0  0  0  0  0  0
    7.7331   -0.9050    0.0000 C   0  0  0  0  0  0  0  0  0  0  0  0
    5.1350   -5.0250    0.0000 H   0  0  0  0  0  0  0  0  0  0  0  0
    7.1962    3.4050    0.0000 H   0  0  0  0  0  0  0  0  0  0  0  0
    3.7321   -2.5950    0.0000 H   0  0  0  0  0  0  0  0  0  0  0  0
   10.0021    3.4050    0.0000 H   0  0  0  0  0  0  0  0  0  0  0  0
    6.5380   -4.2150    0.0000 H   0  0  0  0  0  0  0  0  0  0  0  0
    7.1962    1.7850    0.0000 H   0  0  0  0  0  0  0  0  0  0  0  0
    5.1350   -1.7850    0.0000 H   0  0  0  0  0  0  0  0  0  0  0  0
   10.0021    1.7850    0.0000 H   0  0  0  0  0  0  0  0  0  0  0  0
    2.0000   -4.2150    0.0000 H   0  0  0  0  0  0  0  0  0  0  0  0
    2.8660   -5.7150    0.0000 H   0  0  0  0  0  0  0  0  0  0  0  0
    9.4651    5.7150    0.0000 H   0  0  0  0  0  0  0  0  0  0  0  0
    7.7331    5.7150    0.0000 H   0  0  0  0  0  0  0  0  0  0  0  0
  1  6  1  0  0  0  0
  1 33  1  0  0  0  0
  2  6  1  0  0  0  0
  2 34  1  0  0  0  0
  3  7  1  0  0  0  0
  3 35  1  0  0  0  0
  4  7  1  0  0  0  0
  4 36  1  0  0  0  0
  5 24  2  0  0  0  0
  6 12  1  0  0  0  0
  7 13  1  0  0  0  0
  8 10  2  0  0  0  0
  8 14  1  0  0  0  0
  9 11  2  0  0  0  0
  9 15  1  0  0  0  0
 10 24  1  0  0  0  0
 11 24  1  0  0  0  0
 12 16  2  0  0  0  0
 12 18  1  0  0  0  0
 13 17  2  0  0  0  0
 13 19  1  0  0  0  0
 14 20  2  0  0  0  0
 14 22  1  0  0  0  0
 15 21  2  0  0  0  0
 15 23  1  0  0  0  0
 16 20  1  0  0  0  0
 16 25  1  0  0  0  0
 17 21  1  0  0  0  0
 17 26  1  0  0  0  0
 18 22  2  0  0  0  0
 18 27  1  0  0  0  0
 19 23  2  0  0  0  0
 19 28  1  0  0  0  0
 20 29  1  0  0  0  0
 21 30  1  0  0  0  0
 22 31  1  0  0  0  0
 23 32  1  0  0  0  0
M  END
> <PUBCHEM_COMPOUND_CID>
12151

> <PUBCHEM_COMPOUND_CANONICALIZED>
1

> <PUBCHEM_CACTVS_COMPLEXITY>
416

> <PUBCHEM_CACTVS_HBOND_ACCEPTOR>
9

> <PUBCHEM_CACTVS_HBOND_DONOR>
4

> <PUBCHEM_CACTVS_ROTATABLE_BOND>
4

> <PUBCHEM_CACTVS_SUBSKEYS>
AAADccBzuAAAAAAAAAAAAAAAAAAAAAAAAAAwYAAAAAAAAAABQAAAHgAMCAAACAiBEAAxwIAQQACKACRCUACCAAAgAgAoiAAAZIgIICKAkZGAIABggAAIyAcQAAAAAACAAAAAAAAAAQAAAAAAAAAAAAAAAA==

> <PUBCHEM_IUPAC_OPENEYE_NAME>
1,3-bis[[4-(dihydroxyamino)phenyl]imino]urea

> <PUBCHEM_IUPAC_CAS_NAME>
1,3-bis[[4-(dihydroxyamino)phenyl]imino]urea

> <PUBCHEM_IUPAC_NAME>
1,3-bis[[4-(dihydroxyamino)phenyl]imino]urea

> <PUBCHEM_IUPAC_SYSTEMATIC_NAME>
1,3-bis[[4-[bis(oxidanyl)amino]phenyl]imino]urea

> <PUBCHEM_IUPAC_TRADITIONAL_NAME>
1,3-bis[[4-(dihydroxyamino)phenyl]imino]urea

> <PUBCHEM_IUPAC_INCHI>
InChI=1S/C13H12N6O5/c20-13(16-14-9-1-5-11(6-2-9)18(21)22)17-15-10-3-7-12(8-4-10)19(23)24/h1-8,21-24H

> <PUBCHEM_IUPAC_INCHIKEY>
QIMCHEKJYBZRIK-UHFFFAOYSA-N

> <PUBCHEM_XLOGP3_AA>
2.4

> <PUBCHEM_EXACT_MASS>
332.086918

> <PUBCHEM_MOLECULAR_FORMULA>
C13H12N6O5

> <PUBCHEM_MOLECULAR_WEIGHT>
332.27158

> <PUBCHEM_OPENEYE_CAN_SMILES>
C1=CC(=CC=C1N=NC(=O)N=NC2=CC=C(C=C2)N(O)O)N(O)O

> <PUBCHEM_OPENEYE_ISO_SMILES>
C1=CC(=CC=C1N=NC(=O)N=NC2=CC=C(C=C2)N(O)O)N(O)O

> <PUBCHEM_CACTVS_TPSA>
154

> <PUBCHEM_MONOISOTOPIC_WEIGHT>
332.086918

> <PUBCHEM_TOTAL_CHARGE>
0

> <PUBCHEM_HEAVY_ATOM_COUNT>
24

> <PUBCHEM_ATOM_DEF_STEREO_COUNT>
0

> <PUBCHEM_ATOM_UDEF_STEREO_COUNT>
0

> <PUBCHEM_BOND_DEF_STEREO_COUNT>
0

> <PUBCHEM_BOND_UDEF_STEREO_COUNT>
0

> <PUBCHEM_ISOTOPIC_ATOM_COUNT>
0

> <PUBCHEM_COMPONENT_COUNT>
1

> <PUBCHEM_CACTVS_TAUTO_COUNT>
1

> <PUBCHEM_COORDINATE_TYPE>
1
5
255

> <PUBCHEM_BONDANNOTATIONS>
12  16  8
12  18  8
13  17  8
13  19  8
14  20  8
14  22  8
15  21  8
15  23  8
16  20  8
17  21  8
18  22  8
19  23  8

$$$$

