4121
  -OEChem-06251223543D

 31 32  0     1  0  0  0  0  0999 V2000
    4.7823    2.3563   -0.5199 Cl  0  0  0  0  0  0  0  0  0  0  0  0
   -2.8503    2.7701    0.1946 Cl  0  0  0  0  0  0  0  0  0  0  0  0
    1.3934   -1.8015   -0.3693 S   0  0  0  0  0  0  0  0  0  0  0  0
   -3.7873   -0.3135   -0.0492 S   0  0  0  0  0  0  0  0  0  0  0  0
    0.9374   -2.9282    0.4208 O   0  0  0  0  0  0  0  0  0  0  0  0
    1.6477   -1.9361   -1.7907 O   0  0  0  0  0  0  0  0  0  0  0  0
   -4.5377    0.8435   -0.5285 O   0  0  0  0  0  0  0  0  0  0  0  0
   -3.8404   -1.5790   -0.7733 O   0  0  0  0  0  0  0  0  0  0  0  0
    2.7675   -1.0677    0.4016 N   0  0  1  0  0  0  0  0  0  0  0  0
    1.9816    1.2197   -0.0773 N   0  0  0  0  0  0  0  0  0  0  0  0
   -4.2639   -0.6043    1.5771 N   0  0  0  0  0  0  0  0  0  0  0  0
    3.0792    0.2734   -0.2103 C   0  0  1  0  0  0  0  0  0  0  0  0
    0.2114   -0.4968   -0.2111 C   0  0  0  0  0  0  0  0  0  0  0  0
    0.6482    0.8352   -0.1131 C   0  0  0  0  0  0  0  0  0  0  0  0
    4.3599    0.8757    0.3588 C   0  0  0  0  0  0  0  0  0  0  0  0
   -1.1421   -0.8430   -0.1899 C   0  0  0  0  0  0  0  0  0  0  0  0
    2.7598   -1.0709    1.8950 C   0  0  0  0  0  0  0  0  0  0  0  0
   -0.3441    1.8200    0.0175 C   0  0  0  0  0  0  0  0  0  0  0  0
   -2.1000    0.1585   -0.0684 C   0  0  0  0  0  0  0  0  0  0  0  0
   -1.7026    1.4887    0.0353 C   0  0  0  0  0  0  0  0  0  0  0  0
    3.2522    0.0968   -1.2810 H   0  0  0  0  0  0  0  0  0  0  0  0
    2.1923    2.2108   -0.1205 H   0  0  0  0  0  0  0  0  0  0  0  0
    5.1992    0.1785    0.2719 H   0  0  0  0  0  0  0  0  0  0  0  0
    4.2516    1.1572    1.4107 H   0  0  0  0  0  0  0  0  0  0  0  0
   -1.4300   -1.8874   -0.2644 H   0  0  0  0  0  0  0  0  0  0  0  0
    2.1189   -0.2825    2.2976 H   0  0  0  0  0  0  0  0  0  0  0  0
    3.7787   -0.9380    2.2701 H   0  0  0  0  0  0  0  0  0  0  0  0
    2.4201   -2.0383    2.2752 H   0  0  0  0  0  0  0  0  0  0  0  0
   -0.0456    2.8639    0.1100 H   0  0  0  0  0  0  0  0  0  0  0  0
   -4.4421   -1.5787    1.8494 H   0  0  0  0  0  0  0  0  0  0  0  0
   -4.9033    0.0734    2.0097 H   0  0  0  0  0  0  0  0  0  0  0  0
  1 15  1  0  0  0  0
  2 20  1  0  0  0  0
  3  5  2  0  0  0  0
  3  6  2  0  0  0  0
  3  9  1  0  0  0  0
  3 13  1  0  0  0  0
  4  7  2  0  0  0  0
  4  8  2  0  0  0  0
  4 11  1  0  0  0  0
  4 19  1  0  0  0  0
  9 12  1  0  0  0  0
  9 17  1  0  0  0  0
 10 12  1  0  0  0  0
 10 14  1  0  0  0  0
 10 22  1  0  0  0  0
 11 30  1  0  0  0  0
 11 31  1  0  0  0  0
 12 15  1  0  0  0  0
 12 21  1  0  0  0  0
 13 14  1  0  0  0  0
 13 16  2  0  0  0  0
 14 18  2  0  0  0  0
 15 23  1  0  0  0  0
 15 24  1  0  0  0  0
 16 19  1  0  0  0  0
 16 25  1  0  0  0  0
 17 26  1  0  0  0  0
 17 27  1  0  0  0  0
 17 28  1  0  0  0  0
 18 20  1  0  0  0  0
 18 29  1  0  0  0  0
 19 20  2  0  0  0  0
M  END
> <PUBCHEM_COMPOUND_CID>
4121

> <PUBCHEM_CONFORMER_RMSD>
0.6

> <PUBCHEM_CONFORMER_DIVERSEORDER>
5
2
6
10
4
3
8
1
11
9
7

> <PUBCHEM_MMFF94_PARTIAL_CHARGES>
25
1 -0.29
10 -0.87
11 -0.98
12 0.72
13 -0.01
14 0.1
15 0.29
16 -0.15
17 0.36
18 -0.15
19 -0.01
2 -0.18
20 0.18
22 0.4
25 0.15
29 0.15
3 1.45
30 0.42
31 0.42
4 1.45
5 -0.65
6 -0.65
7 -0.65
8 -0.65
9 -0.85

> <PUBCHEM_EFFECTIVE_ROTOR_COUNT>
2.6

> <PUBCHEM_PHARMACOPHORE_FEATURES>
9
1 10 cation
1 10 donor
1 11 donor
1 5 acceptor
1 6 acceptor
1 7 acceptor
1 8 acceptor
6 13 14 16 18 19 20 rings
6 3 9 10 12 13 14 rings

> <PUBCHEM_HEAVY_ATOM_COUNT>
20

> <PUBCHEM_ATOM_DEF_STEREO_COUNT>
0

> <PUBCHEM_ATOM_UDEF_STEREO_COUNT>
1

> <PUBCHEM_BOND_DEF_STEREO_COUNT>
0

> <PUBCHEM_BOND_UDEF_STEREO_COUNT>
0

> <PUBCHEM_ISOTOPIC_ATOM_COUNT>
0

> <PUBCHEM_COMPONENT_COUNT>
1

> <PUBCHEM_CACTVS_TAUTO_COUNT>
1

> <PUBCHEM_CONFORMER_ID>
0000101900000005

> <PUBCHEM_MMFF94_ENERGY>
40.485

> <PUBCHEM_FEATURE_SELFOVERLAP>
45.721

> <PUBCHEM_SHAPE_FINGERPRINT>
10090160 65 18202006473691182542
10366900 7 17968104101176639225
10616163 171 18409167697200611511
10906281 52 18341316821924245873
10967382 1 18410013238521553492
11132069 177 18260556618810869419
11578080 2 17130158726084489436
12553582 1 18335141956148382583
13134695 92 12031783635145601438
13140716 1 18049153372325793913
13224815 77 18408887368890510929
13296908 3 18117277162820117695
14178342 30 18049736400929408434
14223421 5 18337952419174260773
14289901 80 18335144245107657547
14787075 74 18337391513456415280
14790565 3 18267296543569920332
15196674 1 18410576192775210364
15375358 24 18272090508918925067
15442244 35 17977386362784527771
15536298 74 18261109741836737758
16945 1 18187941576609141029
19591789 44 17834391220469880829
200 152 18261684709704836765
20510252 161 18260545636432132160
20645477 70 18262242234914213871
21267235 1 18410287055603477198
21421861 104 18128538365148744963
21501502 16 18339365287131217977
21524375 3 18334859390366088198
2334 1 17687748238208557285
23366157 5 18128812139486548078
23402539 116 18338525148599436293
23559900 14 18046068434608480430
2748010 2 18118964930353754965
296302 2 18343867714564624741
34934 24 18335706052910800135
350125 39 18411984693752786252
4340502 62 16988568957208964152
44154327 71 18411420583883797588
474 4 17703224006446797516
474229 33 18337673001555417766
5104073 3 18341050821313822440
7097593 13 17625836228601942778
7364860 26 18189616223450575990
81539 233 18411139143055796542
9709674 26 18264488571334111567

> <PUBCHEM_SHAPE_MULTIPOLES>
384.61
8.56
2.78
1.1
0.97
0.21
-0.24
2.95
-0.52
-0.71
0.2
-0.28
-0.55
-0.45

> <PUBCHEM_SHAPE_SELFOVERLAP>
765.944

> <PUBCHEM_SHAPE_VOLUME>
229.7

> <PUBCHEM_COORDINATE_TYPE>
2
5
10

$$$$

