17395435
  -OEChem-06241222502D

 32 33  0     1  0  0  0  0  0999 V2000
    4.0981    2.5194    0.0000 S   0  0  0  0  0  0  0  0  0  0  0  0
    5.4641   -3.5194    0.0000 F   0  0  0  0  0  0  0  0  0  0  0  0
    2.0000   -3.5194    0.0000 F   0  0  0  0  0  0  0  0  0  0  0  0
    4.0981    3.5194    0.0000 O   0  0  0  0  0  0  0  0  0  0  0  0
    3.1470    2.8284    0.0000 O   0  0  0  0  0  0  0  0  0  0  0  0
    2.8660   -0.0194    0.0000 O   0  0  0  0  0  0  0  0  0  0  0  0
    4.5981   -0.0194    0.0000 N   0  0  0  0  0  0  0  0  0  0  0  0
    4.5981    0.9806    0.0000 C   0  0  3  0  0  0  0  0  0  0  0  0
    3.7891    1.5684    0.0000 C   0  0  0  0  0  0  0  0  0  0  0  0
    5.4071    1.5684    0.0000 C   0  0  0  0  0  0  0  0  0  0  0  0
    5.0981    2.5194    0.0000 C   0  0  0  0  0  0  0  0  0  0  0  0
    5.4641   -0.5194    0.0000 C   0  0  0  0  0  0  0  0  0  0  0  0
    3.7320   -0.5194    0.0000 C   0  0  0  0  0  0  0  0  0  0  0  0
    3.7320   -1.5194    0.0000 C   0  0  0  0  0  0  0  0  0  0  0  0
    2.8660   -2.0194    0.0000 C   0  0  0  0  0  0  0  0  0  0  0  0
    4.5981   -2.0194    0.0000 C   0  0  0  0  0  0  0  0  0  0  0  0
    4.5981   -3.0194    0.0000 C   0  0  0  0  0  0  0  0  0  0  0  0
    2.8660   -3.0194    0.0000 C   0  0  0  0  0  0  0  0  0  0  0  0
    3.7320   -3.5194    0.0000 C   0  0  0  0  0  0  0  0  0  0  0  0
    5.1505    0.6991    0.0000 H   0  0  0  0  0  0  0  0  0  0  0  0
    3.2227    1.8205    0.0000 H   0  0  0  0  0  0  0  0  0  0  0  0
    3.4791    1.0314    0.0000 H   0  0  0  0  0  0  0  0  0  0  0  0
    5.7171    1.0314    0.0000 H   0  0  0  0  0  0  0  0  0  0  0  0
    5.9735    1.8205    0.0000 H   0  0  0  0  0  0  0  0  0  0  0  0
    5.7045    2.6483    0.0000 H   0  0  0  0  0  0  0  0  0  0  0  0
    5.0333    3.1360    0.0000 H   0  0  0  0  0  0  0  0  0  0  0  0
    5.1541   -1.0564    0.0000 H   0  0  0  0  0  0  0  0  0  0  0  0
    6.0010   -0.8294    0.0000 H   0  0  0  0  0  0  0  0  0  0  0  0
    5.7741    0.0175    0.0000 H   0  0  0  0  0  0  0  0  0  0  0  0
    2.3291   -1.7094    0.0000 H   0  0  0  0  0  0  0  0  0  0  0  0
    5.1350   -1.7094    0.0000 H   0  0  0  0  0  0  0  0  0  0  0  0
    3.7320   -4.1394    0.0000 H   0  0  0  0  0  0  0  0  0  0  0  0
  1  4  2  0  0  0  0
  1  5  2  0  0  0  0
  1  9  1  0  0  0  0
  1 11  1  0  0  0  0
  2 17  1  0  0  0  0
  3 18  1  0  0  0  0
  6 13  2  0  0  0  0
  7  8  1  0  0  0  0
  7 12  1  0  0  0  0
  7 13  1  0  0  0  0
  8  9  1  0  0  0  0
  8 10  1  0  0  0  0
  8 20  1  0  0  0  0
  9 21  1  0  0  0  0
  9 22  1  0  0  0  0
 10 11  1  0  0  0  0
 10 23  1  0  0  0  0
 10 24  1  0  0  0  0
 11 25  1  0  0  0  0
 11 26  1  0  0  0  0
 12 27  1  0  0  0  0
 12 28  1  0  0  0  0
 12 29  1  0  0  0  0
 13 14  1  0  0  0  0
 14 15  2  0  0  0  0
 14 16  1  0  0  0  0
 15 18  1  0  0  0  0
 15 30  1  0  0  0  0
 16 17  2  0  0  0  0
 16 31  1  0  0  0  0
 17 19  1  0  0  0  0
 18 19  2  0  0  0  0
 19 32  1  0  0  0  0
M  END
> <PUBCHEM_COMPOUND_CID>
17395435

> <PUBCHEM_COMPOUND_CANONICALIZED>
1

> <PUBCHEM_CACTVS_COMPLEXITY>
438

> <PUBCHEM_CACTVS_HBOND_ACCEPTOR>
5

> <PUBCHEM_CACTVS_HBOND_DONOR>
0

> <PUBCHEM_CACTVS_ROTATABLE_BOND>
2

> <PUBCHEM_CACTVS_SUBSKEYS>
AAADccByMYBAAAAAAAAAAAAAAAAAASAAAAAwAAAAAAAAAAABAAAAHwQAAAAADCjF2AyyAIMAAAqIAiFSEHDCAAAkABAAiAEIBMgIIDKglRGEIQhghgCoiYcYiACOAAAAAAAAAAAAAAAAAAAAAAAAAAAAAA==

> <PUBCHEM_IUPAC_OPENEYE_NAME>
N-(1,1-dioxothiolan-3-yl)-3,5-difluoro-N-methyl-benzamide

> <PUBCHEM_IUPAC_CAS_NAME>
N-(1,1-dioxo-3-thiolanyl)-3,5-difluoro-N-methylbenzamide

> <PUBCHEM_IUPAC_NAME>
N-(1,1-dioxothiolan-3-yl)-3,5-difluoro-N-methylbenzamide

> <PUBCHEM_IUPAC_SYSTEMATIC_NAME>
N-[1,1-bis(oxidanylidene)thiolan-3-yl]-3,5-bis(fluoranyl)-N-methyl-benzamide

> <PUBCHEM_IUPAC_TRADITIONAL_NAME>
N-(1,1-diketothiolan-3-yl)-3,5-difluoro-N-methyl-benzamide

> <PUBCHEM_IUPAC_INCHI>
InChI=1S/C12H13F2NO3S/c1-15(11-2-3-19(17,18)7-11)12(16)8-4-9(13)6-10(14)5-8/h4-6,11H,2-3,7H2,1H3

> <PUBCHEM_IUPAC_INCHIKEY>
VHCHPQJARQOEPZ-UHFFFAOYSA-N

> <PUBCHEM_XLOGP3_AA>
1.2

> <PUBCHEM_EXACT_MASS>
289.058421

> <PUBCHEM_MOLECULAR_FORMULA>
C12H13F2NO3S

> <PUBCHEM_MOLECULAR_WEIGHT>
289.298326

> <PUBCHEM_OPENEYE_CAN_SMILES>
CN(C1CCS(=O)(=O)C1)C(=O)C2=CC(=CC(=C2)F)F

> <PUBCHEM_OPENEYE_ISO_SMILES>
CN(C1CCS(=O)(=O)C1)C(=O)C2=CC(=CC(=C2)F)F

> <PUBCHEM_CACTVS_TPSA>
62.8

> <PUBCHEM_MONOISOTOPIC_WEIGHT>
289.058421

> <PUBCHEM_TOTAL_CHARGE>
0

> <PUBCHEM_HEAVY_ATOM_COUNT>
19

> <PUBCHEM_ATOM_DEF_STEREO_COUNT>
0

> <PUBCHEM_ATOM_UDEF_STEREO_COUNT>
1

> <PUBCHEM_BOND_DEF_STEREO_COUNT>
0

> <PUBCHEM_BOND_UDEF_STEREO_COUNT>
0

> <PUBCHEM_ISOTOPIC_ATOM_COUNT>
0

> <PUBCHEM_COMPONENT_COUNT>
1

> <PUBCHEM_CACTVS_TAUTO_COUNT>
1

> <PUBCHEM_COORDINATE_TYPE>
1
5
255

> <PUBCHEM_BONDANNOTATIONS>
14  15  8
14  16  8
15  18  8
16  17  8
17  19  8
18  19  8
8  7  3

$$$$

