6062
  -OEChem-06261201053D

 66 70  0     1  0  0  0  0  0999 V2000
    2.6182    1.4494   -0.2949 O   0  0  0  0  0  0  0  0  0  0  0  0
   -3.7343    1.7167   -1.2846 O   0  0  0  0  0  0  0  0  0  0  0  0
   -5.3878    0.5070    0.6969 O   0  0  0  0  0  0  0  0  0  0  0  0
   -2.5735   -0.9278   -3.0800 O   0  0  0  0  0  0  0  0  0  0  0  0
    6.8754   -0.5506   -0.3969 O   0  0  0  0  0  0  0  0  0  0  0  0
    7.2763    1.6719    0.0455 O   0  0  0  0  0  0  0  0  0  0  0  0
   -6.5327   -1.0489    1.9638 O   0  0  0  0  0  0  0  0  0  0  0  0
    1.7094    0.4418    0.1743 C   0  0  1  0  0  0  0  0  0  0  0  0
    0.3127    0.7254   -0.4440 C   0  0  1  0  0  0  0  0  0  0  0  0
    2.2668   -0.9716   -0.1444 C   0  0  1  0  0  0  0  0  0  0  0  0
   -0.7300   -0.3946   -0.1734 C   0  0  1  0  0  0  0  0  0  0  0  0
   -2.1162   -0.0892   -0.8552 C   0  0  2  0  0  0  0  0  0  0  0  0
   -2.6337    1.3305   -0.4448 C   0  0  1  0  0  0  0  0  0  0  0  0
    3.4233   -1.1345    0.8923 C   0  0  2  0  0  0  0  0  0  0  0  0
    1.1854   -2.0477    0.1413 C   0  0  0  0  0  0  0  0  0  0  0  0
   -0.1482   -1.7726   -0.5503 C   0  0  0  0  0  0  0  0  0  0  0  0
    1.7589    0.5069    1.7121 C   0  0  0  0  0  0  0  0  0  0  0  0
   -0.2260    2.0988   -0.0040 C   0  0  0  0  0  0  0  0  0  0  0  0
   -1.5664    2.4216   -0.6488 C   0  0  0  0  0  0  0  0  0  0  0  0
    2.9155   -0.4034    2.1495 C   0  0  0  0  0  0  0  0  0  0  0  0
   -3.1960   -1.1548   -0.5162 C   0  0  0  0  0  0  0  0  0  0  0  0
    2.7506   -1.1304   -1.5998 C   0  0  0  0  0  0  0  0  0  0  0  0
   -3.1356    1.3554    1.0245 C   0  0  0  0  0  0  0  0  0  0  0  0
   -3.6462   -1.1235    0.9435 C   0  0  0  0  0  0  0  0  0  0  0  0
   -4.1489    0.2550    1.3558 C   0  0  2  0  0  0  0  0  0  0  0  0
   -1.9445   -0.1574   -2.3621 C   0  0  0  0  0  0  0  0  0  0  0  0
    4.7609   -0.5904    0.4798 C   0  0  0  0  0  0  0  0  0  0  0  0
    5.7746   -1.4393   -0.1786 C   0  0  0  0  0  0  0  0  0  0  0  0
    5.2037    0.6543    0.6358 C   0  0  0  0  0  0  0  0  0  0  0  0
    6.5565    0.6887    0.0778 C   0  0  0  0  0  0  0  0  0  0  0  0
   -6.3819   -0.3983    0.9385 C   0  0  0  0  0  0  0  0  0  0  0  0
   -7.2861   -0.4885   -0.2532 C   0  0  0  0  0  0  0  0  0  0  0  0
    0.4715    0.7922   -1.5280 H   0  0  0  0  0  0  0  0  0  0  0  0
   -0.8997   -0.4204    0.9096 H   0  0  0  0  0  0  0  0  0  0  0  0
    3.5701   -2.1937    1.1431 H   0  0  0  0  0  0  0  0  0  0  0  0
    0.9949   -2.1353    1.2182 H   0  0  0  0  0  0  0  0  0  0  0  0
    1.5527   -3.0339   -0.1713 H   0  0  0  0  0  0  0  0  0  0  0  0
   -0.0272   -1.8595   -1.6351 H   0  0  0  0  0  0  0  0  0  0  0  0
   -0.8364   -2.5694   -0.2503 H   0  0  0  0  0  0  0  0  0  0  0  0
    0.8343    0.1475    2.1749 H   0  0  0  0  0  0  0  0  0  0  0  0
    1.9322    1.5275    2.0723 H   0  0  0  0  0  0  0  0  0  0  0  0
    0.4859    2.8875   -0.2756 H   0  0  0  0  0  0  0  0  0  0  0  0
   -0.3264    2.1402    1.0860 H   0  0  0  0  0  0  0  0  0  0  0  0
   -1.9355    3.3815   -0.2639 H   0  0  0  0  0  0  0  0  0  0  0  0
   -1.4158    2.5961   -1.7224 H   0  0  0  0  0  0  0  0  0  0  0  0
    3.6788    0.1504    2.7061 H   0  0  0  0  0  0  0  0  0  0  0  0
    2.5228   -1.1420    2.8610 H   0  0  0  0  0  0  0  0  0  0  0  0
   -2.8502   -2.1658   -0.7590 H   0  0  0  0  0  0  0  0  0  0  0  0
   -4.0858   -1.0105   -1.1440 H   0  0  0  0  0  0  0  0  0  0  0  0
    1.9348   -0.9780   -2.3134 H   0  0  0  0  0  0  0  0  0  0  0  0
    3.5303   -0.4126   -1.8716 H   0  0  0  0  0  0  0  0  0  0  0  0
    3.1481   -2.1370   -1.7707 H   0  0  0  0  0  0  0  0  0  0  0  0
   -3.6132    2.3253    1.2164 H   0  0  0  0  0  0  0  0  0  0  0  0
   -2.2937    1.2612    1.7188 H   0  0  0  0  0  0  0  0  0  0  0  0
   -4.3917   -1.9112    1.0880 H   0  0  0  0  0  0  0  0  0  0  0  0
   -2.8021   -1.4003    1.5864 H   0  0  0  0  0  0  0  0  0  0  0  0
   -4.3305    0.2768    2.4379 H   0  0  0  0  0  0  0  0  0  0  0  0
    2.5486    1.4973   -1.2630 H   0  0  0  0  0  0  0  0  0  0  0  0
   -1.2277    0.5435   -2.8174 H   0  0  0  0  0  0  0  0  0  0  0  0
   -4.4814    1.1207   -1.1134 H   0  0  0  0  0  0  0  0  0  0  0  0
    6.1060   -2.2596    0.4651 H   0  0  0  0  0  0  0  0  0  0  0  0
    5.4495   -1.8368   -1.1424 H   0  0  0  0  0  0  0  0  0  0  0  0
    4.7266    1.5063    1.0871 H   0  0  0  0  0  0  0  0  0  0  0  0
   -6.7204   -0.8315   -1.1229 H   0  0  0  0  0  0  0  0  0  0  0  0
   -7.7394    0.4864   -0.4489 H   0  0  0  0  0  0  0  0  0  0  0  0
   -8.0835   -1.2089   -0.0498 H   0  0  0  0  0  0  0  0  0  0  0  0
  1  8  1  0  0  0  0
  1 58  1  0  0  0  0
  2 13  1  0  0  0  0
  2 60  1  0  0  0  0
  3 25  1  0  0  0  0
  3 31  1  0  0  0  0
  4 26  2  0  0  0  0
  5 28  1  0  0  0  0
  5 30  1  0  0  0  0
  6 30  2  0  0  0  0
  7 31  2  0  0  0  0
  8  9  1  0  0  0  0
  8 10  1  0  0  0  0
  8 17  1  0  0  0  0
  9 11  1  0  0  0  0
  9 18  1  0  0  0  0
  9 33  1  0  0  0  0
 10 14  1  0  0  0  0
 10 15  1  0  0  0  0
 10 22  1  0  0  0  0
 11 12  1  0  0  0  0
 11 16  1  0  0  0  0
 11 34  1  0  0  0  0
 12 13  1  0  0  0  0
 12 21  1  0  0  0  0
 12 26  1  0  0  0  0
 13 19  1  0  0  0  0
 13 23  1  0  0  0  0
 14 20  1  0  0  0  0
 14 27  1  0  0  0  0
 14 35  1  0  0  0  0
 15 16  1  0  0  0  0
 15 36  1  0  0  0  0
 15 37  1  0  0  0  0
 16 38  1  0  0  0  0
 16 39  1  0  0  0  0
 17 20  1  0  0  0  0
 17 40  1  0  0  0  0
 17 41  1  0  0  0  0
 18 19  1  0  0  0  0
 18 42  1  0  0  0  0
 18 43  1  0  0  0  0
 19 44  1  0  0  0  0
 19 45  1  0  0  0  0
 20 46  1  0  0  0  0
 20 47  1  0  0  0  0
 21 24  1  0  0  0  0
 21 48  1  0  0  0  0
 21 49  1  0  0  0  0
 22 50  1  0  0  0  0
 22 51  1  0  0  0  0
 22 52  1  0  0  0  0
 23 25  1  0  0  0  0
 23 53  1  0  0  0  0
 23 54  1  0  0  0  0
 24 25  1  0  0  0  0
 24 55  1  0  0  0  0
 24 56  1  0  0  0  0
 25 57  1  0  0  0  0
 26 59  1  0  0  0  0
 27 28  1  0  0  0  0
 27 29  2  0  0  0  0
 28 61  1  0  0  0  0
 28 62  1  0  0  0  0
 29 30  1  0  0  0  0
 29 63  1  0  0  0  0
 31 32  1  0  0  0  0
 32 64  1  0  0  0  0
 32 65  1  0  0  0  0
 32 66  1  0  0  0  0
M  END
> <PUBCHEM_COMPOUND_CID>
6062

> <PUBCHEM_CONFORMER_RMSD>
0.8

> <PUBCHEM_CONFORMER_DIVERSEORDER>
3
55
46
72
20
70
28
73
64
60
53
22
35
75
54
50
9
74
12
5
79
43
47
57
56
1
26
61
39
16
59
63
45
2
32
37
69
42
49
19
65
71
17
30
41
66
52
21
76
80
6
15
31
23
25
48
77
24
68
51
36
62
29
78
8
11
13
4
27
67
44
10
18
33
34
14
38
7
40
58

> <PUBCHEM_MMFF94_PARTIAL_CHARGES>
23
1 -0.68
12 0.06
13 0.28
14 0.14
2 -0.68
25 0.28
26 0.45
27 -0.28
28 0.42
29 -0.14
3 -0.43
30 0.71
31 0.66
32 0.06
4 -0.57
5 -0.43
58 0.4
59 0.06
6 -0.57
60 0.4
63 0.15
7 -0.57
8 0.28

> <PUBCHEM_EFFECTIVE_ROTOR_COUNT>
6.6

> <PUBCHEM_PHARMACOPHORE_FEATURES>
12
1 1 acceptor
1 1 donor
1 2 acceptor
1 2 donor
1 4 acceptor
1 6 acceptor
1 7 acceptor
5 5 27 28 29 30 rings
5 8 10 14 17 20 rings
6 12 13 21 23 24 25 rings
6 8 9 10 11 15 16 rings
6 9 11 12 13 18 19 rings

> <PUBCHEM_HEAVY_ATOM_COUNT>
32

> <PUBCHEM_ATOM_DEF_STEREO_COUNT>
6

> <PUBCHEM_ATOM_UDEF_STEREO_COUNT>
2

> <PUBCHEM_BOND_DEF_STEREO_COUNT>
0

> <PUBCHEM_BOND_UDEF_STEREO_COUNT>
0

> <PUBCHEM_ISOTOPIC_ATOM_COUNT>
0

> <PUBCHEM_COMPONENT_COUNT>
1

> <PUBCHEM_CACTVS_TAUTO_COUNT>
1

> <PUBCHEM_CONFORMER_ID>
000017AE00000003

> <PUBCHEM_MMFF94_ENERGY>
108.3409

> <PUBCHEM_FEATURE_SELFOVERLAP>
61.126

> <PUBCHEM_SHAPE_FINGERPRINT>
10 15 18201440255737277600
10165383 225 16877656868560845863
106641 1 18340763758811161795
11963148 33 18202284688846998923
12107698 1 17918273147120577965
12236239 1 17749109984863126247
12596602 18 17632581590957414312
12633257 1 16877952632666884185
13224815 77 18335994137246132124
13914758 101 7565070440895436514
14251764 18 17821727225823957019
1454969 45 18412262822264028247
14840074 17 18259991469718012013
14849402 71 17968094162422577864
14856354 85 18341039753199008558
14955137 171 18335133172571543072
15183329 4 14851598887044729426
15461852 350 17167587090517456389
15537594 2 18186527617783699350
15849732 13 18259702294281716213
17980427 23 12823008781098661302
18608769 82 18259987046250324135
19377110 9 15410899586863616720
200 152 13686293586862890155
21033648 29 17241058724600382313
21223535 225 11527682868854359303
21267235 1 18342451551856217440
21521721 280 18333729096712983514
23522609 53 17822275852605408808
23559900 14 11239700947379417239
23622692 88 16805324392315796881
2747138 104 18201427065333529624
2838139 119 6266894646035424635
3009799 131 9943805573530699146
32027 91 15479890750509579698
34797466 226 18334851715549810812
350125 39 18335139773735394560
4093350 32 15574714652356367472
4325135 7 17632573847173408296
4340502 62 16558753412656229922
497634 4 17489307537571348901
5104073 3 18269283511868540320
633830 44 15358280216317786872

> <PUBCHEM_SHAPE_MULTIPOLES>
617.46
16.32
1.92
1.77
3.54
0.44
-0.42
-0.51
3.98
0.25
-0.35
-1.57
-0.35
0.34

> <PUBCHEM_SHAPE_SELFOVERLAP>
1341.176

> <PUBCHEM_SHAPE_VOLUME>
333.4

> <PUBCHEM_COORDINATE_TYPE>
2
5
10

$$$$

