17396245
  -OEChem-06241222553D

 40 41  0     0  0  0  0  0  0999 V2000
   -0.5210    1.6153    0.6740 O   0  0  0  0  0  0  0  0  0  0  0  0
   -7.2526   -0.6853   -0.2532 O   0  0  0  0  0  0  0  0  0  0  0  0
    6.9174   -1.3217   -0.6089 O   0  0  0  0  0  0  0  0  0  0  0  0
    0.4381   -0.4316    0.0448 N   0  0  0  0  0  0  0  0  0  0  0  0
   -5.4536    0.8375   -0.3097 N   0  0  0  0  0  0  0  0  0  0  0  0
    5.9198    0.7193    0.0215 N   0  0  0  0  0  0  0  0  0  0  0  0
   -1.9561   -0.1757    0.2946 C   0  0  0  0  0  0  0  0  0  0  0  0
    1.8245   -0.1406    0.0390 C   0  0  0  0  0  0  0  0  0  0  0  0
   -4.3396    0.0442   -0.0330 C   0  0  0  0  0  0  0  0  0  0  0  0
   -3.0693    0.6181    0.0185 C   0  0  0  0  0  0  0  0  0  0  0  0
   -0.6316    0.4220    0.3490 C   0  0  0  0  0  0  0  0  0  0  0  0
    4.5546    0.4322    0.0292 C   0  0  0  0  0  0  0  0  0  0  0  0
    2.7444   -1.1348   -0.2942 C   0  0  0  0  0  0  0  0  0  0  0  0
    2.2695    1.1400    0.3672 C   0  0  0  0  0  0  0  0  0  0  0  0
   -2.1132   -1.5433    0.5194 C   0  0  0  0  0  0  0  0  0  0  0  0
    4.1095   -0.8484   -0.2992 C   0  0  0  0  0  0  0  0  0  0  0  0
    3.6347    1.4263    0.3623 C   0  0  0  0  0  0  0  0  0  0  0  0
   -4.4965   -1.3235    0.1918 C   0  0  0  0  0  0  0  0  0  0  0  0
   -3.3834   -2.1173    0.4681 C   0  0  0  0  0  0  0  0  0  0  0  0
   -6.7950    0.4431   -0.4021 C   0  0  0  0  0  0  0  0  0  0  0  0
    6.9833   -0.1407   -0.2837 C   0  0  0  0  0  0  0  0  0  0  0  0
   -7.6995    1.6075   -0.7195 C   0  0  0  0  0  0  0  0  0  0  0  0
    8.3157    0.5574   -0.1760 C   0  0  0  0  0  0  0  0  0  0  0  0
   -2.9534    1.6845   -0.1630 H   0  0  0  0  0  0  0  0  0  0  0  0
    0.2267   -1.3810   -0.2496 H   0  0  0  0  0  0  0  0  0  0  0  0
    2.4099   -2.1367   -0.5515 H   0  0  0  0  0  0  0  0  0  0  0  0
    1.6199    1.9610    0.6353 H   0  0  0  0  0  0  0  0  0  0  0  0
   -1.2832   -2.1948    0.7762 H   0  0  0  0  0  0  0  0  0  0  0  0
    4.7603   -1.6687   -0.5676 H   0  0  0  0  0  0  0  0  0  0  0  0
    3.9687    2.4285    0.6196 H   0  0  0  0  0  0  0  0  0  0  0  0
   -5.4465   -1.8389    0.1708 H   0  0  0  0  0  0  0  0  0  0  0  0
   -3.5061   -3.1808    0.6520 H   0  0  0  0  0  0  0  0  0  0  0  0
   -5.2569    1.8245   -0.4621 H   0  0  0  0  0  0  0  0  0  0  0  0
    6.1638    1.6756    0.2709 H   0  0  0  0  0  0  0  0  0  0  0  0
   -8.7324    1.2603   -0.8110 H   0  0  0  0  0  0  0  0  0  0  0  0
   -7.6430    2.3484    0.0829 H   0  0  0  0  0  0  0  0  0  0  0  0
   -7.3952    2.0672   -1.6640 H   0  0  0  0  0  0  0  0  0  0  0  0
    8.3601    1.3814   -0.8936 H   0  0  0  0  0  0  0  0  0  0  0  0
    9.1225   -0.1479   -0.3939 H   0  0  0  0  0  0  0  0  0  0  0  0
    8.4498    0.9471    0.8371 H   0  0  0  0  0  0  0  0  0  0  0  0
  1 11  2  0  0  0  0
  2 20  2  0  0  0  0
  3 21  2  0  0  0  0
  4  8  1  0  0  0  0
  4 11  1  0  0  0  0
  4 25  1  0  0  0  0
  5  9  1  0  0  0  0
  5 20  1  0  0  0  0
  5 33  1  0  0  0  0
  6 12  1  0  0  0  0
  6 21  1  0  0  0  0
  6 34  1  0  0  0  0
  7 10  2  0  0  0  0
  7 11  1  0  0  0  0
  7 15  1  0  0  0  0
  8 13  2  0  0  0  0
  8 14  1  0  0  0  0
  9 10  1  0  0  0  0
  9 18  2  0  0  0  0
 10 24  1  0  0  0  0
 12 16  2  0  0  0  0
 12 17  1  0  0  0  0
 13 16  1  0  0  0  0
 13 26  1  0  0  0  0
 14 17  2  0  0  0  0
 14 27  1  0  0  0  0
 15 19  2  0  0  0  0
 15 28  1  0  0  0  0
 16 29  1  0  0  0  0
 17 30  1  0  0  0  0
 18 19  1  0  0  0  0
 18 31  1  0  0  0  0
 19 32  1  0  0  0  0
 20 22  1  0  0  0  0
 21 23  1  0  0  0  0
 22 35  1  0  0  0  0
 22 36  1  0  0  0  0
 22 37  1  0  0  0  0
 23 38  1  0  0  0  0
 23 39  1  0  0  0  0
 23 40  1  0  0  0  0
M  END
> <PUBCHEM_COMPOUND_CID>
17396245

> <PUBCHEM_CONFORMER_RMSD>
0.8

> <PUBCHEM_CONFORMER_DIVERSEORDER>
4
10
17
16
6
9
1
13
7
15
18
2
14
3
11
5
12
8

> <PUBCHEM_MMFF94_PARTIAL_CHARGES>
34
1 -0.57
10 -0.15
11 0.54
12 0.12
13 -0.15
14 -0.15
15 -0.15
16 -0.15
17 -0.15
18 -0.15
19 -0.15
2 -0.57
20 0.57
21 0.57
22 0.06
23 0.06
24 0.15
25 0.37
26 0.15
27 0.15
28 0.15
29 0.15
3 -0.57
30 0.15
31 0.15
32 0.15
33 0.37
34 0.37
4 -0.55
5 -0.55
6 -0.55
7 0.09
8 0.12
9 0.12

> <PUBCHEM_EFFECTIVE_ROTOR_COUNT>
7

> <PUBCHEM_PHARMACOPHORE_FEATURES>
8
1 1 acceptor
1 2 acceptor
1 3 acceptor
1 4 donor
1 5 donor
1 6 donor
6 7 9 10 15 18 19 rings
6 8 12 13 14 16 17 rings

> <PUBCHEM_HEAVY_ATOM_COUNT>
23

> <PUBCHEM_ATOM_DEF_STEREO_COUNT>
0

> <PUBCHEM_ATOM_UDEF_STEREO_COUNT>
0

> <PUBCHEM_BOND_DEF_STEREO_COUNT>
0

> <PUBCHEM_BOND_UDEF_STEREO_COUNT>
0

> <PUBCHEM_ISOTOPIC_ATOM_COUNT>
0

> <PUBCHEM_COMPONENT_COUNT>
1

> <PUBCHEM_CACTVS_TAUTO_COUNT>
8

> <PUBCHEM_CONFORMER_ID>
0109721500000004

> <PUBCHEM_MMFF94_ENERGY>
76.5395

> <PUBCHEM_FEATURE_SELFOVERLAP>
40.594

> <PUBCHEM_SHAPE_FINGERPRINT>
10835480 77 18335424508745881016
10968037 39 18334575742051503775
11315181 36 17967810527208399553
11719270 70 18259987093938290590
12236239 1 17561365063069076586
12516196 113 17748548130126333361
12838862 33 18261408749260353650
13533116 47 16988294165391289960
13668630 136 16660360368262235093
13885169 127 18335701662969277529
13964095 4 18343302569861887541
14123256 10 18186238433113676596
14251764 18 18131637785290259619
14251764 46 18272932725887733156
15183329 4 18409731789773680281
15716309 27 9799691493408615024
16087824 20 18341050839512510629
17093844 174 18272650121761944011
17834072 8 18411419514246874317
18006028 8 17458345242756784689
18681886 176 18336549314110575344
20238998 120 18410294713510034853
21150785 3 16153709816840682877
21267235 1 18408878512504448962
21315759 40 14129055915925869220
21792934 111 18261120673821262496
220451 1 15913334567538240498
22224240 67 14562533985799024364
23402539 116 18341333314682818214
23559900 14 18336551525254134112
249057 3 18272369745864370205
28498 318 18334857242850824374
3004659 81 18342741797435987904
335352 9 18410293592511923549
3545911 37 18412545409626719057
4073 2 17988076686835118010
4325135 7 18342175566232911124
542803 24 15841554054947102842
8209 1 18408886239514617660

> <PUBCHEM_SHAPE_MULTIPOLES>
440.78
23.01
1.64
0.72
6.32
0.29
0
-3.7
5.21
-1.28
-0.1
-0.1
-0.02
1.12

> <PUBCHEM_SHAPE_SELFOVERLAP>
935.383

> <PUBCHEM_SHAPE_VOLUME>
243.5

> <PUBCHEM_COORDINATE_TYPE>
2
5
10

$$$$

