47205113
  -OEChem-06241222583D

 26 27  0     0  0  0  0  0  0999 V2000
   -5.4079   -1.3636    0.5182 Br  0  0  0  0  0  0  0  0  0  0  0  0
   -0.4493    1.9625   -0.2530 F   0  0  0  0  0  0  0  0  0  0  0  0
    0.0334   -1.9612    0.1388 O   0  0  0  0  0  0  0  0  0  0  0  0
    0.7506   -0.1449   -1.1117 N   0  0  0  0  0  0  0  0  0  0  0  0
    3.6122    0.9174   -0.2739 N   0  0  0  0  0  0  0  0  0  0  0  0
    4.5079    1.0335    0.7214 N   0  0  0  0  0  0  0  0  0  0  0  0
    2.0564   -0.6713   -1.4383 C   0  0  0  0  0  0  0  0  0  0  0  0
    3.0772   -0.3318   -0.3909 C   0  0  0  0  0  0  0  0  0  0  0  0
   -1.4690   -0.1788   -0.1145 C   0  0  0  0  0  0  0  0  0  0  0  0
   -0.1884   -0.8326   -0.3344 C   0  0  0  0  0  0  0  0  0  0  0  0
    3.6639   -1.0854    0.5962 C   0  0  0  0  0  0  0  0  0  0  0  0
   -2.6192   -0.9471    0.0644 C   0  0  0  0  0  0  0  0  0  0  0  0
   -1.5482    1.2134   -0.0825 C   0  0  0  0  0  0  0  0  0  0  0  0
   -3.8488   -0.3233    0.2754 C   0  0  0  0  0  0  0  0  0  0  0  0
   -2.7779    1.8374    0.1284 C   0  0  0  0  0  0  0  0  0  0  0  0
    4.5352   -0.1931    1.2493 C   0  0  0  0  0  0  0  0  0  0  0  0
   -3.9282    1.0690    0.3073 C   0  0  0  0  0  0  0  0  0  0  0  0
    2.3509   -0.2471   -2.4043 H   0  0  0  0  0  0  0  0  0  0  0  0
    1.9861   -1.7584   -1.5543 H   0  0  0  0  0  0  0  0  0  0  0  0
    0.5167    0.7685   -1.4886 H   0  0  0  0  0  0  0  0  0  0  0  0
    3.4865   -2.1286    0.8133 H   0  0  0  0  0  0  0  0  0  0  0  0
    3.4124    1.7356   -0.8358 H   0  0  0  0  0  0  0  0  0  0  0  0
   -2.5620   -2.0330    0.0353 H   0  0  0  0  0  0  0  0  0  0  0  0
   -2.8390    2.9213    0.1533 H   0  0  0  0  0  0  0  0  0  0  0  0
    5.1886   -0.3858    2.0880 H   0  0  0  0  0  0  0  0  0  0  0  0
   -4.8784    1.5709    0.4706 H   0  0  0  0  0  0  0  0  0  0  0  0
  1 14  1  0  0  0  0
  2 13  1  0  0  0  0
  3 10  2  0  0  0  0
  4  7  1  0  0  0  0
  4 10  1  0  0  0  0
  4 20  1  0  0  0  0
  5  6  1  0  0  0  0
  5  8  1  0  0  0  0
  5 22  1  0  0  0  0
  6 16  2  0  0  0  0
  7  8  1  0  0  0  0
  7 18  1  0  0  0  0
  7 19  1  0  0  0  0
  8 11  2  0  0  0  0
  9 10  1  0  0  0  0
  9 12  1  0  0  0  0
  9 13  2  0  0  0  0
 11 16  1  0  0  0  0
 11 21  1  0  0  0  0
 12 14  2  0  0  0  0
 12 23  1  0  0  0  0
 13 15  1  0  0  0  0
 14 17  1  0  0  0  0
 15 17  2  0  0  0  0
 15 24  1  0  0  0  0
 16 25  1  0  0  0  0
 17 26  1  0  0  0  0
M  END
> <PUBCHEM_COMPOUND_CID>
47205113

> <PUBCHEM_CONFORMER_RMSD>
0.6

> <PUBCHEM_CONFORMER_DIVERSEORDER>
1
54
55
10
81
59
89
14
88
39
43
35
78
36
83
37
42
50
38
76
44
61
80
23
84
13
75
64
21
60
77
87
41
63
69
19
52
58
32
33
73
11
82
26
24
85
62
70
48
31
47
34
25
17
79
56
6
46
71
7
86
22
40
57
72
66
28
3
16
18
20
27
45
65
9
51
2
8
67
4
29
12
49
30
53
5
15
68
74

> <PUBCHEM_MMFF94_PARTIAL_CHARGES>
24
1 -0.11
10 0.54
11 -0.15
12 -0.15
13 0.19
14 0.11
15 -0.15
16 0.14
17 -0.15
2 -0.19
20 0.37
21 0.15
22 0.27
23 0.15
24 0.15
25 0.15
26 0.15
3 -0.57
4 -0.73
5 0.3
6 -0.71
7 0.48
8 -0.33
9 0.09

> <PUBCHEM_EFFECTIVE_ROTOR_COUNT>
4

> <PUBCHEM_PHARMACOPHORE_FEATURES>
7
1 1 hydrophobe
1 3 acceptor
1 4 donor
1 5 donor
1 6 acceptor
5 5 6 8 11 16 rings
6 9 12 13 14 15 17 rings

> <PUBCHEM_HEAVY_ATOM_COUNT>
17

> <PUBCHEM_ATOM_DEF_STEREO_COUNT>
0

> <PUBCHEM_ATOM_UDEF_STEREO_COUNT>
0

> <PUBCHEM_BOND_DEF_STEREO_COUNT>
0

> <PUBCHEM_BOND_UDEF_STEREO_COUNT>
0

> <PUBCHEM_ISOTOPIC_ATOM_COUNT>
0

> <PUBCHEM_COMPONENT_COUNT>
1

> <PUBCHEM_CACTVS_TAUTO_COUNT>
4

> <PUBCHEM_CONFORMER_ID>
02D04AF900000001

> <PUBCHEM_MMFF94_ENERGY>
27.3232

> <PUBCHEM_FEATURE_SELFOVERLAP>
35.52

> <PUBCHEM_SHAPE_FINGERPRINT>
11132069 177 18410850001572998837
12236239 1 17704070698734019958
12251169 10 18342742897327124918
12596602 18 17847067666394418240
12839892 36 18341620338483644635
12892183 10 18341904017073282002
13214271 11 18333734641368134357
13237642 15 18186517696382722515
13533116 47 17917715716484975762
13675066 3 18131067168646121975
13862211 1 18340487769014590075
14251752 14 7853588893694463536
14366163 111 5906047049923029418
14787075 74 18187366472146198387
15048467 5 16225758619523810771
15196674 1 18410572911420371544
17349148 13 17632286883118048315
17862501 102 18131351908045923475
1813 80 16630242636634712830
18186145 218 17749937985796107566
18222031 100 16988559121839727830
18785283 64 17605563136888024729
200 152 15841834443370921175
20510252 161 18260543463468408409
20645477 70 14261349141973799266
21065198 48 18202566202624840784
21065199 12 18410015476626847634
22079108 93 15647055932788422751
22854114 59 17676487250243069350
23175994 123 13398623966237141767
23402539 116 18410300185946339799
23402655 69 7060375946856854610
23532345 42 18409441483948654533
23557571 272 18114445825672912967
23559900 14 18118957225077294926
3009799 131 18340499902539320655
351380 180 18408327700323726384
42 15 18060139872925440746
449060 50 17022899047391430167
5104073 3 18263357148173530651
5374978 207 18412261722789323778
573450 72 18060421347891614945
6333272 397 18409727352908913358
7364860 26 17975130160403219118
90316 7 17845651580948313269

> <PUBCHEM_SHAPE_MULTIPOLES>
327.71
10.64
1.76
0.99
1.22
0.38
-0.07
-1.25
3.58
-1.17
0.1
0.88
-0.13
0.25

> <PUBCHEM_SHAPE_SELFOVERLAP>
687.938

> <PUBCHEM_SHAPE_VOLUME>
188.4

> <PUBCHEM_COORDINATE_TYPE>
2
5
10

$$$$

