4259
  -OEChem-06261200003D

 53 57  0     1  0  0  0  0  0999 V2000
    1.2197   -3.0303   -0.4168 F   0  0  0  0  0  0  0  0  0  0  0  0
    0.5251    1.5978    0.2323 O   0  0  0  0  0  0  0  0  0  0  0  0
   -3.7906   -2.5669   -0.2864 O   0  0  0  0  0  0  0  0  0  0  0  0
   -6.0807   -1.5874    0.5244 O   0  0  0  0  0  0  0  0  0  0  0  0
   -6.4768    0.4963   -0.3311 O   0  0  0  0  0  0  0  0  0  0  0  0
    2.2180   -0.4975   -0.0809 N   0  0  3  0  0  0  0  0  0  0  0  0
    5.6745   -0.9086    1.0740 N   0  0  0  0  0  0  0  0  0  0  0  0
   -2.3553    1.2153    0.2190 N   0  0  0  0  0  0  0  0  0  0  0  0
    4.3872   -0.0232   -0.8137 C   0  0  1  0  0  0  0  0  0  0  0  0
    4.4151   -0.2899    0.6894 C   0  0  1  0  0  0  0  0  0  0  0  0
    2.9277    0.3678   -1.0353 C   0  0  0  0  0  0  0  0  0  0  0  0
    3.1443   -1.1193    0.8774 C   0  0  0  0  0  0  0  0  0  0  0  0
    5.4600    0.9853   -1.1842 C   0  0  0  0  0  0  0  0  0  0  0  0
   -1.9667    2.6323    0.4097 C   0  0  0  0  0  0  0  0  0  0  0  0
    6.8141    0.4460   -0.7038 C   0  0  0  0  0  0  0  0  0  0  0  0
   -1.0576    3.3099   -0.5590 C   0  0  0  0  0  0  0  0  0  0  0  0
   -2.5053    3.6977   -0.4842 C   0  0  0  0  0  0  0  0  0  0  0  0
    6.7850    0.0075    0.7703 C   0  0  0  0  0  0  0  0  0  0  0  0
    0.8566   -0.7074   -0.0909 C   0  0  0  0  0  0  0  0  0  0  0  0
   -1.4197    0.1536    0.0593 C   0  0  0  0  0  0  0  0  0  0  0  0
   -0.0307    0.3607    0.0688 C   0  0  0  0  0  0  0  0  0  0  0  0
   -1.8888   -1.1663   -0.1166 C   0  0  0  0  0  0  0  0  0  0  0  0
    0.3737   -2.0015   -0.2629 C   0  0  0  0  0  0  0  0  0  0  0  0
   -3.7088    0.9402    0.1996 C   0  0  0  0  0  0  0  0  0  0  0  0
   -0.9990   -2.2356   -0.2765 C   0  0  0  0  0  0  0  0  0  0  0  0
   -4.2576   -0.2704    0.0398 C   0  0  0  0  0  0  0  0  0  0  0  0
   -3.3512   -1.4339   -0.1338 C   0  0  0  0  0  0  0  0  0  0  0  0
   -5.7171   -0.3793    0.0443 C   0  0  0  0  0  0  0  0  0  0  0  0
    0.8047    2.0072    1.5678 C   0  0  0  0  0  0  0  0  0  0  0  0
    4.5769   -0.9587   -1.3631 H   0  0  0  0  0  0  0  0  0  0  0  0
    4.2881    0.6498    1.2480 H   0  0  0  0  0  0  0  0  0  0  0  0
    2.7688    1.4265   -0.8074 H   0  0  0  0  0  0  0  0  0  0  0  0
    2.6190    0.1719   -2.0676 H   0  0  0  0  0  0  0  0  0  0  0  0
    3.3069   -2.1718    0.6191 H   0  0  0  0  0  0  0  0  0  0  0  0
    2.7754   -1.0553    1.9067 H   0  0  0  0  0  0  0  0  0  0  0  0
    5.2600    1.9537   -0.7099 H   0  0  0  0  0  0  0  0  0  0  0  0
    5.4796    1.1499   -2.2669 H   0  0  0  0  0  0  0  0  0  0  0  0
   -1.8872    2.8939    1.4598 H   0  0  0  0  0  0  0  0  0  0  0  0
    7.0976   -0.4125   -1.3262 H   0  0  0  0  0  0  0  0  0  0  0  0
    7.5862    1.2105   -0.8459 H   0  0  0  0  0  0  0  0  0  0  0  0
    5.8037   -1.7738    0.5495 H   0  0  0  0  0  0  0  0  0  0  0  0
   -0.7656    2.8276   -1.4855 H   0  0  0  0  0  0  0  0  0  0  0  0
   -0.3532    4.0516   -0.2009 H   0  0  0  0  0  0  0  0  0  0  0  0
   -2.7488    4.6553   -0.0398 H   0  0  0  0  0  0  0  0  0  0  0  0
   -3.1360    3.4223   -1.3207 H   0  0  0  0  0  0  0  0  0  0  0  0
    7.7298   -0.4875    1.0204 H   0  0  0  0  0  0  0  0  0  0  0  0
    6.7152    0.8902    1.4178 H   0  0  0  0  0  0  0  0  0  0  0  0
   -4.3307    1.8184    0.3462 H   0  0  0  0  0  0  0  0  0  0  0  0
   -1.3557   -3.2528   -0.4122 H   0  0  0  0  0  0  0  0  0  0  0  0
    1.7489    1.5643    1.8992 H   0  0  0  0  0  0  0  0  0  0  0  0
    0.0112    1.7147    2.2633 H   0  0  0  0  0  0  0  0  0  0  0  0
    0.9182    3.0942    1.5917 H   0  0  0  0  0  0  0  0  0  0  0  0
   -7.0552   -1.6986    0.5429 H   0  0  0  0  0  0  0  0  0  0  0  0
  1 23  1  0  0  0  0
  2 21  1  0  0  0  0
  2 29  1  0  0  0  0
  3 27  2  0  0  0  0
  4 28  1  0  0  0  0
  4 53  1  0  0  0  0
  5 28  2  0  0  0  0
  6 11  1  0  0  0  0
  6 12  1  0  0  0  0
  6 19  1  0  0  0  0
  7 10  1  0  0  0  0
  7 18  1  0  0  0  0
  7 41  1  0  0  0  0
  8 14  1  0  0  0  0
  8 20  1  0  0  0  0
  8 24  1  0  0  0  0
  9 10  1  0  0  0  0
  9 11  1  0  0  0  0
  9 13  1  0  0  0  0
  9 30  1  0  0  0  0
 10 12  1  0  0  0  0
 10 31  1  0  0  0  0
 11 32  1  0  0  0  0
 11 33  1  0  0  0  0
 12 34  1  0  0  0  0
 12 35  1  0  0  0  0
 13 15  1  0  0  0  0
 13 36  1  0  0  0  0
 13 37  1  0  0  0  0
 14 16  1  0  0  0  0
 14 17  1  0  0  0  0
 14 38  1  0  0  0  0
 15 18  1  0  0  0  0
 15 39  1  0  0  0  0
 15 40  1  0  0  0  0
 16 17  1  0  0  0  0
 16 42  1  0  0  0  0
 16 43  1  0  0  0  0
 17 44  1  0  0  0  0
 17 45  1  0  0  0  0
 18 46  1  0  0  0  0
 18 47  1  0  0  0  0
 19 21  1  0  0  0  0
 19 23  2  0  0  0  0
 20 21  2  0  0  0  0
 20 22  1  0  0  0  0
 22 25  2  0  0  0  0
 22 27  1  0  0  0  0
 23 25  1  0  0  0  0
 24 26  2  0  0  0  0
 24 48  1  0  0  0  0
 25 49  1  0  0  0  0
 26 27  1  0  0  0  0
 26 28  1  0  0  0  0
 29 50  1  0  0  0  0
 29 51  1  0  0  0  0
 29 52  1  0  0  0  0
M  END
> <PUBCHEM_COMPOUND_CID>
4259

> <PUBCHEM_CONFORMER_RMSD>
0.8

> <PUBCHEM_CONFORMER_DIVERSEORDER>
3
5
8
1
10
6
4
7
2
9

> <PUBCHEM_MMFF94_PARTIAL_CHARGES>
35
1 -0.19
10 0.27
11 0.37
12 0.37
14 0.07
16 -0.2
17 -0.2
18 0.27
19 0.1
2 -0.36
20 0.1
21 0.08
22 0.09
23 0.19
24 -0.05
25 -0.15
26 0.03
27 0.47
28 0.71
29 0.28
3 -0.57
38 0.1
4 -0.65
41 0.36
42 0.1
43 0.1
44 0.1
45 0.1
48 0.15
49 0.15
5 -0.57
53 0.5
6 -0.84
7 -0.9
8 -0.37

> <PUBCHEM_EFFECTIVE_ROTOR_COUNT>
6

> <PUBCHEM_PHARMACOPHORE_FEATURES>
14
1 2 acceptor
1 26 anion
1 3 acceptor
1 4 acceptor
1 5 acceptor
1 6 cation
1 7 cation
1 7 donor
1 8 cation
3 4 5 28 anion
5 6 9 10 11 12 rings
6 19 20 21 22 23 25 rings
6 7 9 10 13 15 18 rings
6 8 20 22 24 26 27 rings

> <PUBCHEM_HEAVY_ATOM_COUNT>
29

> <PUBCHEM_ATOM_DEF_STEREO_COUNT>
0

> <PUBCHEM_ATOM_UDEF_STEREO_COUNT>
2

> <PUBCHEM_BOND_DEF_STEREO_COUNT>
0

> <PUBCHEM_BOND_UDEF_STEREO_COUNT>
0

> <PUBCHEM_ISOTOPIC_ATOM_COUNT>
0

> <PUBCHEM_COMPONENT_COUNT>
1

> <PUBCHEM_CACTVS_TAUTO_COUNT>
1

> <PUBCHEM_CONFORMER_ID>
000010A300000003

> <PUBCHEM_MMFF94_ENERGY>
114.1267

> <PUBCHEM_FEATURE_SELFOVERLAP>
71.543

> <PUBCHEM_SHAPE_FINGERPRINT>
10050765 1 18122906700792966335
10411042 1 18122064204720316935
10595046 47 18272650156480391056
10670039 82 18340753945285670388
10906281 52 18339906191513270803
1100329 8 18268146461762476751
11646440 116 17894620427292990459
11963148 33 18410580561032588727
12107183 9 17623581148007931570
12166972 35 17632293441427667060
12236239 1 18060421313727107250
12390115 104 18042394901656327376
12516196 113 17821727217360636088
12553582 1 18409457964265676735
12596602 18 17418373575850369370
12788726 201 18342742952787290361
12838862 33 18336844051835727293
13140716 1 18263367984439217523
13402501 40 18187366515011644344
13533116 47 17775010111422665618
13862211 1 18409451358584999871
13911987 19 18342189873133224839
14294032 229 18267574896068574453
14790565 3 18336817615974800001
14856354 85 18339637850315027543
15131766 46 15983112776105550022
15685185 35 17271146633305368972
1601671 61 18334293167299784967
16087824 20 18339361985657771269
17492 89 18196656417688820818
17980427 23 17774427395286300468
18336668 15 18131348575531201493
19611394 137 17985812758129072467
20511986 3 18060150851178581184
20715895 44 17550115096380989372
21033648 29 16298678264726346066
21033650 10 18124287615105578788
21236236 1 18336264638745341089
21267235 1 18336821992968188491
21315764 268 18410299108089136592
21360443 126 18126856117207888717
21641784 216 18272357707097888164
22311459 1 18409167709795362895
23402539 116 18335143055169835567
23557571 272 18041267859720635660
23559900 14 18262523576351585017
283562 15 18337387249049957753
3004659 81 18341608197211608534
3178227 256 18337659833555259147
335352 9 18409732842715751597
3411729 13 17825679854990617664
34797466 226 17821720612619242020
350125 39 18410013234258773896
469060 322 18337656603302184689
5080951 261 17024624181404806998
5104073 3 18192428786646942714
5486654 2 18410008827601027878
7226269 152 18344149189625978299
9981440 41 18342734165115852354

> <PUBCHEM_SHAPE_MULTIPOLES>
551.11
14.58
3.15
0.97
9.87
1.78
0.1
-1.8
-0.1
-3.32
-0.3
1.08
0.24
-0.38

> <PUBCHEM_SHAPE_SELFOVERLAP>
1209.97

> <PUBCHEM_SHAPE_VOLUME>
299

> <PUBCHEM_COORDINATE_TYPE>
2
5
10

$$$$

