11560
  -OEChem-06261205503D

 15 15  0     0  0  0  0  0  0999 V2000
    2.8996   -1.0112   -0.0002 Br  0  0  0  0  0  0  0  0  0  0  0  0
   -1.2198   -0.4181    0.0006 C   0  0  0  0  0  0  0  0  0  0  0  0
    0.0436   -1.0094    0.0005 C   0  0  0  0  0  0  0  0  0  0  0  0
   -1.3394    0.9717    0.0003 C   0  0  0  0  0  0  0  0  0  0  0  0
   -2.4432   -1.2712   -0.0007 C   0  0  0  0  0  0  0  0  0  0  0  0
    1.1874   -0.2108    0.0001 C   0  0  0  0  0  0  0  0  0  0  0  0
   -0.1958    1.7702   -0.0002 C   0  0  0  0  0  0  0  0  0  0  0  0
    1.0675    1.1790   -0.0003 C   0  0  0  0  0  0  0  0  0  0  0  0
    0.1322   -2.0935    0.0024 H   0  0  0  0  0  0  0  0  0  0  0  0
   -2.3179    1.4445    0.0019 H   0  0  0  0  0  0  0  0  0  0  0  0
   -2.2757   -2.1986   -0.5591 H   0  0  0  0  0  0  0  0  0  0  0  0
   -2.7253   -1.5247    1.0259 H   0  0  0  0  0  0  0  0  0  0  0  0
   -3.2847   -0.7578   -0.4782 H   0  0  0  0  0  0  0  0  0  0  0  0
   -0.2890    2.8523    0.0001 H   0  0  0  0  0  0  0  0  0  0  0  0
    1.9486    1.8156   -0.0005 H   0  0  0  0  0  0  0  0  0  0  0  0
  1  6  1  0  0  0  0
  2  3  2  0  0  0  0
  2  4  1  0  0  0  0
  2  5  1  0  0  0  0
  3  6  1  0  0  0  0
  3  9  1  0  0  0  0
  4  7  2  0  0  0  0
  4 10  1  0  0  0  0
  5 11  1  0  0  0  0
  5 12  1  0  0  0  0
  5 13  1  0  0  0  0
  6  8  2  0  0  0  0
  7  8  1  0  0  0  0
  7 14  1  0  0  0  0
  8 15  1  0  0  0  0
M  END
> <PUBCHEM_COMPOUND_CID>
11560

> <PUBCHEM_CONFORMER_RMSD>
0.4

> <PUBCHEM_CONFORMER_DIVERSEORDER>
1

> <PUBCHEM_MMFF94_PARTIAL_CHARGES>
12
1 -0.11
10 0.15
14 0.15
15 0.15
2 -0.14
3 -0.15
4 -0.15
5 0.14
6 0.11
7 -0.15
8 -0.15
9 0.15

> <PUBCHEM_EFFECTIVE_ROTOR_COUNT>
0

> <PUBCHEM_PHARMACOPHORE_FEATURES>
2
1 1 hydrophobe
6 2 3 4 6 7 8 rings

> <PUBCHEM_HEAVY_ATOM_COUNT>
8

> <PUBCHEM_ATOM_DEF_STEREO_COUNT>
0

> <PUBCHEM_ATOM_UDEF_STEREO_COUNT>
0

> <PUBCHEM_BOND_DEF_STEREO_COUNT>
0

> <PUBCHEM_BOND_UDEF_STEREO_COUNT>
0

> <PUBCHEM_ISOTOPIC_ATOM_COUNT>
0

> <PUBCHEM_COMPONENT_COUNT>
1

> <PUBCHEM_CACTVS_TAUTO_COUNT>
1

> <PUBCHEM_CONFORMER_ID>
00002D2800000001

> <PUBCHEM_MMFF94_ENERGY>
16.7602

> <PUBCHEM_FEATURE_SELFOVERLAP>
10.148

> <PUBCHEM_SHAPE_FINGERPRINT>
10857977 72 18336278902542455122
14128692 85 18411693271098814934
16714656 1 18194680595219035516
16945 1 18194682789794453376
18185500 45 18413108393818624410
20871998 184 18187649162472384782
21040471 1 17834396005068599872
23552423 10 18272928328168250246
241688 4 18412263947413760209
2748010 2 18410581660268779604
29004967 10 18125721188698560051
5084963 1 18260266334771832314

> <PUBCHEM_SHAPE_MULTIPOLES>
170.58
3.37
1.79
0.63
1.53
0.45
0
-1.75
0
-0.41
0
0.05
-0.01
0

> <PUBCHEM_SHAPE_SELFOVERLAP>
335.579

> <PUBCHEM_SHAPE_VOLUME>
103.9

> <PUBCHEM_COORDINATE_TYPE>
2
5
10

$$$$

