17395324
  -OEChem-06241222493D

 36 38  0     0  0  0  0  0  0999 V2000
    1.1308   -2.0038   -0.5375 O   0  0  0  0  0  0  0  0  0  0  0  0
    3.7976    1.6990    1.7351 O   0  0  0  0  0  0  0  0  0  0  0  0
    2.0523   -0.3020    0.7916 N   0  0  0  0  0  0  0  0  0  0  0  0
   -1.3568   -0.9867    0.8484 C   0  0  0  0  0  0  0  0  0  0  0  0
   -3.0562    0.6361    0.2186 C   0  0  0  0  0  0  0  0  0  0  0  0
   -0.0291   -1.2923    1.4561 C   0  0  0  0  0  0  0  0  0  0  0  0
   -3.8566   -0.4117   -0.2957 C   0  0  0  0  0  0  0  0  0  0  0  0
   -1.8087    0.3318    0.7875 C   0  0  0  0  0  0  0  0  0  0  0  0
   -2.1439   -2.0171    0.3428 C   0  0  0  0  0  0  0  0  0  0  0  0
   -3.3859   -1.7330   -0.2258 C   0  0  0  0  0  0  0  0  0  0  0  0
    1.1065   -1.2623    0.4396 C   0  0  0  0  0  0  0  0  0  0  0  0
   -3.5268    1.9574    0.1488 C   0  0  0  0  0  0  0  0  0  0  0  0
   -5.1041   -0.1074   -0.8644 C   0  0  0  0  0  0  0  0  0  0  0  0
    3.2452    0.0268    0.1048 C   0  0  0  0  0  0  0  0  0  0  0  0
   -4.7687    2.2415   -0.4199 C   0  0  0  0  0  0  0  0  0  0  0  0
   -5.5559    1.2112   -0.9255 C   0  0  0  0  0  0  0  0  0  0  0  0
    4.0945    1.0213    0.5902 C   0  0  0  0  0  0  0  0  0  0  0  0
    3.5684   -0.6545   -1.0687 C   0  0  0  0  0  0  0  0  0  0  0  0
    5.2669    1.3342   -0.0979 C   0  0  0  0  0  0  0  0  0  0  0  0
    4.7407   -0.3413   -1.7567 C   0  0  0  0  0  0  0  0  0  0  0  0
    5.5899    0.6529   -1.2714 C   0  0  0  0  0  0  0  0  0  0  0  0
    0.1575   -0.6116    2.2954 H   0  0  0  0  0  0  0  0  0  0  0  0
   -0.0356   -2.2959    1.9013 H   0  0  0  0  0  0  0  0  0  0  0  0
   -1.1846    1.1310    1.1841 H   0  0  0  0  0  0  0  0  0  0  0  0
   -1.8025   -3.0482    0.3829 H   0  0  0  0  0  0  0  0  0  0  0  0
   -3.9841   -2.5542   -0.6151 H   0  0  0  0  0  0  0  0  0  0  0  0
   -2.9286    2.7788    0.5378 H   0  0  0  0  0  0  0  0  0  0  0  0
   -5.7360   -0.8968   -1.2658 H   0  0  0  0  0  0  0  0  0  0  0  0
    1.8913    0.2429    1.6354 H   0  0  0  0  0  0  0  0  0  0  0  0
   -5.1210    3.2677   -0.4677 H   0  0  0  0  0  0  0  0  0  0  0  0
   -6.5226    1.4332   -1.3680 H   0  0  0  0  0  0  0  0  0  0  0  0
    2.9674   -1.4356   -1.5111 H   0  0  0  0  0  0  0  0  0  0  0  0
    5.9380    2.1064    0.2684 H   0  0  0  0  0  0  0  0  0  0  0  0
    4.9936   -0.8711   -2.6707 H   0  0  0  0  0  0  0  0  0  0  0  0
    6.5026    0.8966   -1.8073 H   0  0  0  0  0  0  0  0  0  0  0  0
    4.5008    2.3472    1.9123 H   0  0  0  0  0  0  0  0  0  0  0  0
  1 11  2  0  0  0  0
  2 17  1  0  0  0  0
  2 36  1  0  0  0  0
  3 11  1  0  0  0  0
  3 14  1  0  0  0  0
  3 29  1  0  0  0  0
  4  6  1  0  0  0  0
  4  8  2  0  0  0  0
  4  9  1  0  0  0  0
  5  7  1  0  0  0  0
  5  8  1  0  0  0  0
  5 12  2  0  0  0  0
  6 11  1  0  0  0  0
  6 22  1  0  0  0  0
  6 23  1  0  0  0  0
  7 10  1  0  0  0  0
  7 13  2  0  0  0  0
  8 24  1  0  0  0  0
  9 10  2  0  0  0  0
  9 25  1  0  0  0  0
 10 26  1  0  0  0  0
 12 15  1  0  0  0  0
 12 27  1  0  0  0  0
 13 16  1  0  0  0  0
 13 28  1  0  0  0  0
 14 17  1  0  0  0  0
 14 18  2  0  0  0  0
 15 16  2  0  0  0  0
 15 30  1  0  0  0  0
 16 31  1  0  0  0  0
 17 19  2  0  0  0  0
 18 20  1  0  0  0  0
 18 32  1  0  0  0  0
 19 21  1  0  0  0  0
 19 33  1  0  0  0  0
 20 21  2  0  0  0  0
 20 34  1  0  0  0  0
 21 35  1  0  0  0  0
M  END
> <PUBCHEM_COMPOUND_CID>
17395324

> <PUBCHEM_CONFORMER_RMSD>
0.6

> <PUBCHEM_CONFORMER_DIVERSEORDER>
3
71
63
43
69
48
65
13
18
36
86
49
22
99
45
2
32
14
93
81
68
39
98
85
26
47
58
6
9
57
89
78
90
35
73
30
94
37
60
10
64
95
79
8
38
84
96
56
44
34
20
16
24
15
33
25
40
67
72
61
4
76
41
50
29
70
97
42
74
100
75
91
31
54
62
59
46
82
92
66
77
11
12
5
83
53
80
7
87
88
27
55
28
51
17
52
19
1
23
21

> <PUBCHEM_MMFF94_PARTIAL_CHARGES>
32
1 -0.57
10 -0.15
11 0.57
12 -0.15
13 -0.15
14 0.12
15 -0.15
16 -0.15
17 0.08
18 -0.15
19 -0.15
2 -0.53
20 -0.15
21 -0.15
24 0.15
25 0.15
26 0.15
27 0.15
28 0.15
29 0.37
3 -0.55
30 0.15
31 0.15
32 0.15
33 0.15
34 0.15
35 0.15
36 0.45
4 -0.14
6 0.2
8 -0.15
9 -0.15

> <PUBCHEM_EFFECTIVE_ROTOR_COUNT>
4

> <PUBCHEM_PHARMACOPHORE_FEATURES>
6
1 1 acceptor
1 2 donor
1 3 donor
6 14 17 18 19 20 21 rings
6 4 5 7 8 9 10 rings
6 5 7 12 13 15 16 rings

> <PUBCHEM_HEAVY_ATOM_COUNT>
21

> <PUBCHEM_ATOM_DEF_STEREO_COUNT>
0

> <PUBCHEM_ATOM_UDEF_STEREO_COUNT>
0

> <PUBCHEM_BOND_DEF_STEREO_COUNT>
0

> <PUBCHEM_BOND_UDEF_STEREO_COUNT>
0

> <PUBCHEM_ISOTOPIC_ATOM_COUNT>
0

> <PUBCHEM_COMPONENT_COUNT>
1

> <PUBCHEM_CACTVS_TAUTO_COUNT>
6

> <PUBCHEM_CONFORMER_ID>
01096E7C00000003

> <PUBCHEM_MMFF94_ENERGY>
63.196

> <PUBCHEM_FEATURE_SELFOVERLAP>
30.476

> <PUBCHEM_SHAPE_FINGERPRINT>
10378564 45 18261391208745850870
10498660 4 18410291410964079184
10591671 39 18201994400865427367
10670039 82 18130499829689993716
11046707 91 6771867363866248059
11370993 144 12750974237843800746
12390115 104 18262511615743229209
12403259 415 18334571296486013706
12596602 18 15697994120006390920
12633257 1 16630526198374289518
12670546 177 17530965765283736438
12892183 10 12607411000299747030
1420 369 7204769285034911317
14251751 18 9151166554376860621
14251764 38 18199181785338786924
14528608 73 18335424573090697349
14739800 52 18269857379349428664
14790565 3 17901946675940160841
14840074 17 16988835086098896893
14848178 5 7060370401542443829
15183329 4 18040711515052037598
15188451 53 9655282719171006321
15238133 3 17846783971436677200
15463212 79 18201727245304933195
17780758 139 9511467697210266943
17857418 61 6843921659195134837
17959699 21 18340770433116440923
193927 3 6843914001584755893
19784866 240 5039945248244188129
200 152 15719382945671469450
20645477 70 17095231532627464086
21033648 29 18335986363830268864
22061861 79 17022900163951110500
22122407 14 15697996357958529701
221357 26 17821728342463142017
22289505 5 18259982665853005096
22393880 68 18259987059029659622
22950370 63 7204775903764247722
23227448 37 18339928121610950957
235170 7 17531239586644615084
23557571 272 18269825450531219087
23559900 14 18114184116357452424
255183 451 17396434815033453015
2767999 5 17775288265593090637
2838139 119 18342182188708633964
316301 35 9006797375464255124
341906 21 18202286866452159832
3472631 163 18201718457479306509
34797466 226 17894633621648800989
351380 3 5545197224669315093
4028521 119 18409164415581859803
4259306 186 15213016067901516550
46194498 28 17969780766109344992
474 4 17561080319448251795
53794403 172 18198621029881980437
633830 44 17561361781930762698
7970288 3 5978095843615374421
960060 61 16226051089115431288
9981440 41 18202284684472299779

> <PUBCHEM_SHAPE_MULTIPOLES>
415.45
14.2
2.15
1.33
4.98
0.08
-0.01
7.79
-5.2
-1.77
0.19
1.36
0.06
0.8

> <PUBCHEM_SHAPE_SELFOVERLAP>
912.394

> <PUBCHEM_SHAPE_VOLUME>
223.5

> <PUBCHEM_COORDINATE_TYPE>
2
5
10

$$$$

