47205081
  -OEChem-06241222582D

 34 35  0     0  0  0  0  0  0999 V2000
    4.5981   -0.8512    0.0000 O   0  0  0  0  0  0  0  0  0  0  0  0
    2.8660   -1.8512    0.0000 O   0  0  0  0  0  0  0  0  0  0  0  0
    4.5981    1.1488    0.0000 O   0  0  0  0  0  0  0  0  0  0  0  0
    6.3301    1.1488    0.0000 N   0  0  0  0  0  0  0  0  0  0  0  0
    8.1097    2.2420    0.0000 N   0  0  0  0  0  0  0  0  0  0  0  0
    8.7788    2.9852    0.0000 N   0  0  0  0  0  0  0  0  0  0  0  0
    6.3301    2.1488    0.0000 C   0  0  0  0  0  0  0  0  0  0  0  0
    7.1962    2.6488    0.0000 C   0  0  0  0  0  0  0  0  0  0  0  0
    5.4641   -0.3512    0.0000 C   0  0  0  0  0  0  0  0  0  0  0  0
    5.4641    0.6488    0.0000 C   0  0  0  0  0  0  0  0  0  0  0  0
    4.5981   -1.8512    0.0000 C   0  0  0  0  0  0  0  0  0  0  0  0
    7.3007    3.6433    0.0000 C   0  0  0  0  0  0  0  0  0  0  0  0
    3.7320   -2.3512    0.0000 C   0  0  0  0  0  0  0  0  0  0  0  0
    5.4641   -2.3512    0.0000 C   0  0  0  0  0  0  0  0  0  0  0  0
    3.7320   -3.3512    0.0000 C   0  0  0  0  0  0  0  0  0  0  0  0
    8.2788    3.8512    0.0000 C   0  0  0  0  0  0  0  0  0  0  0  0
    5.4641   -3.3512    0.0000 C   0  0  0  0  0  0  0  0  0  0  0  0
    4.5981   -3.8512    0.0000 C   0  0  0  0  0  0  0  0  0  0  0  0
    2.0000   -2.3512    0.0000 C   0  0  0  0  0  0  0  0  0  0  0  0
    6.1181    2.7314    0.0000 H   0  0  0  0  0  0  0  0  0  0  0  0
    5.7196    2.0411    0.0000 H   0  0  0  0  0  0  0  0  0  0  0  0
    6.8671    0.8388    0.0000 H   0  0  0  0  0  0  0  0  0  0  0  0
    5.6762   -0.9338    0.0000 H   0  0  0  0  0  0  0  0  0  0  0  0
    6.0747   -0.2436    0.0000 H   0  0  0  0  0  0  0  0  0  0  0  0
    6.8399    4.0582    0.0000 H   0  0  0  0  0  0  0  0  0  0  0  0
    8.2386    1.6356    0.0000 H   0  0  0  0  0  0  0  0  0  0  0  0
    6.0010   -2.0412    0.0000 H   0  0  0  0  0  0  0  0  0  0  0  0
    3.1951   -3.6612    0.0000 H   0  0  0  0  0  0  0  0  0  0  0  0
    8.5310    4.4176    0.0000 H   0  0  0  0  0  0  0  0  0  0  0  0
    6.0010   -3.6612    0.0000 H   0  0  0  0  0  0  0  0  0  0  0  0
    4.5981   -4.4712    0.0000 H   0  0  0  0  0  0  0  0  0  0  0  0
    1.6900   -1.8143    0.0000 H   0  0  0  0  0  0  0  0  0  0  0  0
    1.4631   -2.6612    0.0000 H   0  0  0  0  0  0  0  0  0  0  0  0
    2.3100   -2.8882    0.0000 H   0  0  0  0  0  0  0  0  0  0  0  0
  1  9  1  0  0  0  0
  1 11  1  0  0  0  0
  2 13  1  0  0  0  0
  2 19  1  0  0  0  0
  3 10  2  0  0  0  0
  4  7  1  0  0  0  0
  4 10  1  0  0  0  0
  4 22  1  0  0  0  0
  5  6  1  0  0  0  0
  5  8  1  0  0  0  0
  5 26  1  0  0  0  0
  6 16  2  0  0  0  0
  7  8  1  0  0  0  0
  7 20  1  0  0  0  0
  7 21  1  0  0  0  0
  8 12  2  0  0  0  0
  9 10  1  0  0  0  0
  9 23  1  0  0  0  0
  9 24  1  0  0  0  0
 11 13  1  0  0  0  0
 11 14  2  0  0  0  0
 12 16  1  0  0  0  0
 12 25  1  0  0  0  0
 13 15  2  0  0  0  0
 14 17  1  0  0  0  0
 14 27  1  0  0  0  0
 15 18  1  0  0  0  0
 15 28  1  0  0  0  0
 16 29  1  0  0  0  0
 17 18  2  0  0  0  0
 17 30  1  0  0  0  0
 18 31  1  0  0  0  0
 19 32  1  0  0  0  0
 19 33  1  0  0  0  0
 19 34  1  0  0  0  0
M  END
> <PUBCHEM_COMPOUND_CID>
47205081

> <PUBCHEM_COMPOUND_CANONICALIZED>
1

> <PUBCHEM_CACTVS_COMPLEXITY>
288

> <PUBCHEM_CACTVS_HBOND_ACCEPTOR>
4

> <PUBCHEM_CACTVS_HBOND_DONOR>
2

> <PUBCHEM_CACTVS_ROTATABLE_BOND>
6

> <PUBCHEM_CACTVS_SUBSKEYS>
AAADccBzMAAAAAAAAAAAAAAAAAAAAWAAAAAwAAAAAAAAAAABwAAAHgAYAAAACAzhlgY+hpLjBACqATV3UAKSDAAgogAYuaB+7JgPZqKE8d+XvCrk3hGa6AeAQAAAAAAAAAAAQAAAAAAAAACAAAAAAAAAAA==

> <PUBCHEM_IUPAC_OPENEYE_NAME>
2-(2-methoxyphenoxy)-N-(1H-pyrazol-5-ylmethyl)acetamide

> <PUBCHEM_IUPAC_CAS_NAME>
2-(2-methoxyphenoxy)-N-(1H-pyrazol-5-ylmethyl)acetamide

> <PUBCHEM_IUPAC_NAME>
2-(2-methoxyphenoxy)-N-(1H-pyrazol-5-ylmethyl)acetamide

> <PUBCHEM_IUPAC_SYSTEMATIC_NAME>
2-(2-methoxyphenoxy)-N-(1H-pyrazol-5-ylmethyl)ethanamide

> <PUBCHEM_IUPAC_TRADITIONAL_NAME>
2-(2-methoxyphenoxy)-N-(1H-pyrazol-5-ylmethyl)acetamide

> <PUBCHEM_IUPAC_INCHI>
InChI=1S/C13H15N3O3/c1-18-11-4-2-3-5-12(11)19-9-13(17)14-8-10-6-7-15-16-10/h2-7H,8-9H2,1H3,(H,14,17)(H,15,16)

> <PUBCHEM_IUPAC_INCHIKEY>
ZFXGABOEAFEULW-UHFFFAOYSA-N

> <PUBCHEM_XLOGP3_AA>
1

> <PUBCHEM_EXACT_MASS>
261.111341

> <PUBCHEM_MOLECULAR_FORMULA>
C13H15N3O3

> <PUBCHEM_MOLECULAR_WEIGHT>
261.2765

> <PUBCHEM_OPENEYE_CAN_SMILES>
COC1=CC=CC=C1OCC(=O)NCC2=CC=NN2

> <PUBCHEM_OPENEYE_ISO_SMILES>
COC1=CC=CC=C1OCC(=O)NCC2=CC=NN2

> <PUBCHEM_CACTVS_TPSA>
76.2

> <PUBCHEM_MONOISOTOPIC_WEIGHT>
261.111341

> <PUBCHEM_TOTAL_CHARGE>
0

> <PUBCHEM_HEAVY_ATOM_COUNT>
19

> <PUBCHEM_ATOM_DEF_STEREO_COUNT>
0

> <PUBCHEM_ATOM_UDEF_STEREO_COUNT>
0

> <PUBCHEM_BOND_DEF_STEREO_COUNT>
0

> <PUBCHEM_BOND_UDEF_STEREO_COUNT>
0

> <PUBCHEM_ISOTOPIC_ATOM_COUNT>
0

> <PUBCHEM_COMPONENT_COUNT>
1

> <PUBCHEM_CACTVS_TAUTO_COUNT>
4

> <PUBCHEM_COORDINATE_TYPE>
1
5
255

> <PUBCHEM_BONDANNOTATIONS>
11  13  8
11  14  8
12  16  8
13  15  8
14  17  8
15  18  8
17  18  8
5  6  8
5  8  8
6  16  8
8  12  8

$$$$

