13461
  -OEChem-06261214273D

 32 33  0     1  0  0  0  0  0999 V2000
    0.3380    1.0453    0.0604 O   0  0  0  0  0  0  0  0  0  0  0  0
   -3.0031    2.2370    0.6413 O   0  0  0  0  0  0  0  0  0  0  0  0
   -0.8411    2.7950   -0.8709 O   0  0  0  0  0  0  0  0  0  0  0  0
   -1.9053    1.3436    0.7586 C   0  0  1  0  0  0  0  0  0  0  0  0
   -2.3713   -0.0450    0.3954 C   0  0  0  0  0  0  0  0  0  0  0  0
    1.4881    1.4119   -0.6921 C   0  0  0  0  0  0  0  0  0  0  0  0
    2.5690    0.4437   -0.3476 C   0  0  0  0  0  0  0  0  0  0  0  0
   -0.7712    1.8275   -0.1236 C   0  0  0  0  0  0  0  0  0  0  0  0
   -3.3827   -0.2000   -0.5397 C   0  0  0  0  0  0  0  0  0  0  0  0
   -1.7799   -1.1412    1.0036 C   0  0  0  0  0  0  0  0  0  0  0  0
    3.4337    0.7122    0.7133 C   0  0  0  0  0  0  0  0  0  0  0  0
    2.7152   -0.7300   -1.0868 C   0  0  0  0  0  0  0  0  0  0  0  0
   -3.8134   -1.4835   -0.8751 C   0  0  0  0  0  0  0  0  0  0  0  0
   -2.2107   -2.4248    0.6682 C   0  0  0  0  0  0  0  0  0  0  0  0
   -3.2274   -2.5960   -0.2713 C   0  0  0  0  0  0  0  0  0  0  0  0
    4.4448   -0.1932    1.0351 C   0  0  0  0  0  0  0  0  0  0  0  0
    3.7263   -1.6355   -0.7649 C   0  0  0  0  0  0  0  0  0  0  0  0
    4.5910   -1.3672    0.2961 C   0  0  0  0  0  0  0  0  0  0  0  0
   -1.5791    1.3807    1.8047 H   0  0  0  0  0  0  0  0  0  0  0  0
    1.7922    2.4357   -0.4418 H   0  0  0  0  0  0  0  0  0  0  0  0
    1.2642    1.3750   -1.7653 H   0  0  0  0  0  0  0  0  0  0  0  0
   -3.8452    0.6485   -1.0352 H   0  0  0  0  0  0  0  0  0  0  0  0
   -0.9875   -1.0189    1.7366 H   0  0  0  0  0  0  0  0  0  0  0  0
    3.3289    1.6223    1.2980 H   0  0  0  0  0  0  0  0  0  0  0  0
    2.0462   -0.9517   -1.9141 H   0  0  0  0  0  0  0  0  0  0  0  0
   -4.6027   -1.6173   -1.6092 H   0  0  0  0  0  0  0  0  0  0  0  0
   -1.7541   -3.2910    1.1381 H   0  0  0  0  0  0  0  0  0  0  0  0
   -3.5621   -3.5954   -0.5333 H   0  0  0  0  0  0  0  0  0  0  0  0
    5.1178    0.0153    1.8617 H   0  0  0  0  0  0  0  0  0  0  0  0
    3.8397   -2.5499   -1.3399 H   0  0  0  0  0  0  0  0  0  0  0  0
   -2.7206    3.0967    0.9977 H   0  0  0  0  0  0  0  0  0  0  0  0
    5.3780   -2.0724    0.5470 H   0  0  0  0  0  0  0  0  0  0  0  0
  1  6  1  0  0  0  0
  1  8  1  0  0  0  0
  2  4  1  0  0  0  0
  2 31  1  0  0  0  0
  3  8  2  0  0  0  0
  4  5  1  0  0  0  0
  4  8  1  0  0  0  0
  4 19  1  0  0  0  0
  5  9  2  0  0  0  0
  5 10  1  0  0  0  0
  6  7  1  0  0  0  0
  6 20  1  0  0  0  0
  6 21  1  0  0  0  0
  7 11  2  0  0  0  0
  7 12  1  0  0  0  0
  9 13  1  0  0  0  0
  9 22  1  0  0  0  0
 10 14  2  0  0  0  0
 10 23  1  0  0  0  0
 11 16  1  0  0  0  0
 11 24  1  0  0  0  0
 12 17  2  0  0  0  0
 12 25  1  0  0  0  0
 13 15  2  0  0  0  0
 13 26  1  0  0  0  0
 14 15  1  0  0  0  0
 14 27  1  0  0  0  0
 15 28  1  0  0  0  0
 16 18  2  0  0  0  0
 16 29  1  0  0  0  0
 17 18  1  0  0  0  0
 17 30  1  0  0  0  0
 18 32  1  0  0  0  0
M  END
> <PUBCHEM_COMPOUND_CID>
13461

> <PUBCHEM_CONFORMER_RMSD>
0.6

> <PUBCHEM_CONFORMER_DIVERSEORDER>
1
22
44
46
35
114
108
14
135
82
157
71
11
119
94
72
165
31
105
86
79
21
89
67
99
150
75
2
6
90
73
151
69
98
125
26
54
12
156
115
18
159
59
83
96
45
66
131
152
29
93
10
137
162
100
56
74
49
13
15
112
41
138
167
9
78
107
32
68
24
50
126
25
95
16
139
103
28
110
40
5
121
155
109
70
48
127
61
27
30
23
77
87
43
60
17
53
117
158
51
36
19
122
106
47
33
134
148
65
132
164
81
62
20
42
154
34
7
128
102
92
55
88
3
104
163
123
64
147
91
37
58
4
39
142
136
85
63
141
161
153
140
80
8
113
145
146
143
166
57
149
101
120
52
84
97
160
116
76
130
144
118
38
133
111
129
124

> <PUBCHEM_MMFF94_PARTIAL_CHARGES>
29
1 -0.43
10 -0.15
11 -0.15
12 -0.15
13 -0.15
14 -0.15
15 -0.15
16 -0.15
17 -0.15
18 -0.15
2 -0.68
22 0.15
23 0.15
24 0.15
25 0.15
26 0.15
27 0.15
28 0.15
29 0.15
3 -0.57
30 0.15
31 0.4
32 0.15
4 0.48
5 -0.14
6 0.42
7 -0.14
8 0.66
9 -0.15

> <PUBCHEM_EFFECTIVE_ROTOR_COUNT>
5

> <PUBCHEM_PHARMACOPHORE_FEATURES>
5
1 2 acceptor
1 2 donor
1 3 acceptor
6 5 9 10 13 14 15 rings
6 7 11 12 16 17 18 rings

> <PUBCHEM_HEAVY_ATOM_COUNT>
18

> <PUBCHEM_ATOM_DEF_STEREO_COUNT>
0

> <PUBCHEM_ATOM_UDEF_STEREO_COUNT>
1

> <PUBCHEM_BOND_DEF_STEREO_COUNT>
0

> <PUBCHEM_BOND_UDEF_STEREO_COUNT>
0

> <PUBCHEM_ISOTOPIC_ATOM_COUNT>
0

> <PUBCHEM_COMPONENT_COUNT>
1

> <PUBCHEM_CACTVS_TAUTO_COUNT>
1

> <PUBCHEM_CONFORMER_ID>
0000349500000001

> <PUBCHEM_MMFF94_ENERGY>
39.6298

> <PUBCHEM_FEATURE_SELFOVERLAP>
25.378

> <PUBCHEM_SHAPE_FINGERPRINT>
10366900 7 18041842801206630864
10616163 171 18409161130227686694
10764073 3 17558234792836923179
11552529 35 17749392559372589706
12346177 29 18339927111855987821
12363563 72 18341044121180560110
12422481 6 18044626859559764979
12553582 1 18268128899445868710
12633257 1 18114732845658176624
13083527 12 18196946478526403196
13583140 156 16515697670761667112
13931106 250 18129112275642687533
14081887 123 18263934391904323474
1420 369 18336825299365194499
14468879 13 4894170806833150059
15342168 16 9942993056403505223
15352361 1 18338801113143967222
16752209 62 17774172317151911225
17834072 14 18337679624152427526
19141452 34 18337105782315236161
19862831 5 17561370560337156138
20281475 54 18411131429289504740
20403669 9 18409449171940426006
20621476 51 18267602366884920346
21673915 165 18408890637772469682
22646028 28 18341894073955011674
23114952 82 17484808113111321293
23557571 272 18260269663582379594
23559900 14 18335991865509697872
23728640 28 18338507655624810243
24859131 72 18333452049346661254
339767 52 18200610132763670970
5281201 14 11887661914761526930
5924683 9 18261682540039431403
602551 16 18340207496633685346
81228 2 18341889705820628849
9709674 26 18334573564207874062
9882013 296 17240765034578301950

> <PUBCHEM_SHAPE_MULTIPOLES>
352.82
9
2.87
1.08
5.97
0.32
0
-4.78
0.35
-2.27
-0.18
0.2
-0.09
-0.06

> <PUBCHEM_SHAPE_SELFOVERLAP>
751.133

> <PUBCHEM_SHAPE_VOLUME>
195

> <PUBCHEM_COORDINATE_TYPE>
2
5
10

$$$$

