8319
  -OEChem-06261202442D

 42 45  0     0  0  0  0  0  0999 V2000
    2.9176   -3.5345    0.0000 Cl  0  0  0  0  0  0  0  0  0  0  0  0
    6.4144   -3.5345    0.0000 O   0  0  0  0  0  0  0  0  0  0  0  0
    4.6660    0.5001    0.0000 O   0  0  0  0  0  0  0  0  0  0  0  0
    4.6660   -3.4999    0.0000 O   0  0  0  0  0  0  0  0  0  0  0  0
    8.1464    0.5547    0.0000 O   0  0  0  0  0  0  0  0  0  0  0  0
    6.4144    0.5347    0.0000 N   0  0  0  0  0  0  0  0  0  0  0  0
    5.5321   -0.9999    0.0000 C   0  0  0  0  0  0  0  0  0  0  0  0
    5.5321   -1.9999    0.0000 C   0  0  0  0  0  0  0  0  0  0  0  0
    3.8000   -0.9999    0.0000 C   0  0  0  0  0  0  0  0  0  0  0  0
    3.8000   -1.9999    0.0000 C   0  0  0  0  0  0  0  0  0  0  0  0
    6.4260   -0.4652    0.0000 C   0  0  0  0  0  0  0  0  0  0  0  0
    4.6660   -0.4999    0.0000 C   0  0  0  0  0  0  0  0  0  0  0  0
    4.6660   -2.4999    0.0000 C   0  0  0  0  0  0  0  0  0  0  0  0
    6.4260   -2.5346    0.0000 C   0  0  0  0  0  0  0  0  0  0  0  0
    7.3321   -0.9791    0.0000 C   0  0  0  0  0  0  0  0  0  0  0  0
    7.3321   -2.0207    0.0000 C   0  0  0  0  0  0  0  0  0  0  0  0
    2.9061   -0.4652    0.0000 C   0  0  0  0  0  0  0  0  0  0  0  0
    2.9061   -2.5346    0.0000 C   0  0  0  0  0  0  0  0  0  0  0  0
    2.0000   -0.9791    0.0000 C   0  0  0  0  0  0  0  0  0  0  0  0
    2.0000   -2.0207    0.0000 C   0  0  0  0  0  0  0  0  0  0  0  0
    7.2746    1.0447    0.0000 C   0  0  0  0  0  0  0  0  0  0  0  0
    7.2631    2.0446    0.0000 C   0  0  0  0  0  0  0  0  0  0  0  0
    7.2746   -4.0445    0.0000 C   0  0  0  0  0  0  0  0  0  0  0  0
    8.1232    2.5546    0.0000 C   0  0  0  0  0  0  0  0  0  0  0  0
    6.3913    2.5346    0.0000 C   0  0  0  0  0  0  0  0  0  0  0  0
    8.1117    3.5545    0.0000 C   0  0  0  0  0  0  0  0  0  0  0  0
    6.3797    3.5345    0.0000 C   0  0  0  0  0  0  0  0  0  0  0  0
    7.2399    4.0445    0.0000 C   0  0  0  0  0  0  0  0  0  0  0  0
    7.8678   -0.6670    0.0000 H   0  0  0  0  0  0  0  0  0  0  0  0
    7.8678   -2.3328    0.0000 H   0  0  0  0  0  0  0  0  0  0  0  0
    2.9132    0.1547    0.0000 H   0  0  0  0  0  0  0  0  0  0  0  0
    5.8740    0.8385    0.0000 H   0  0  0  0  0  0  0  0  0  0  0  0
    1.4643   -0.6670    0.0000 H   0  0  0  0  0  0  0  0  0  0  0  0
    1.4643   -2.3328    0.0000 H   0  0  0  0  0  0  0  0  0  0  0  0
    6.9584   -4.5778    0.0000 H   0  0  0  0  0  0  0  0  0  0  0  0
    7.8079   -4.3607    0.0000 H   0  0  0  0  0  0  0  0  0  0  0  0
    7.5908   -3.5112    0.0000 H   0  0  0  0  0  0  0  0  0  0  0  0
    8.6637    2.2508    0.0000 H   0  0  0  0  0  0  0  0  0  0  0  0
    5.8580    2.2184    0.0000 H   0  0  0  0  0  0  0  0  0  0  0  0
    8.6450    3.8707    0.0000 H   0  0  0  0  0  0  0  0  0  0  0  0
    5.8393    3.8383    0.0000 H   0  0  0  0  0  0  0  0  0  0  0  0
    7.2328    4.6644    0.0000 H   0  0  0  0  0  0  0  0  0  0  0  0
  1 18  1  0  0  0  0
  2 14  1  0  0  0  0
  2 23  1  0  0  0  0
  3 12  2  0  0  0  0
  4 13  2  0  0  0  0
  5 21  2  0  0  0  0
  6 11  1  0  0  0  0
  6 21  1  0  0  0  0
  6 32  1  0  0  0  0
  7  8  1  0  0  0  0
  7 11  2  0  0  0  0
  7 12  1  0  0  0  0
  8 13  1  0  0  0  0
  8 14  2  0  0  0  0
  9 10  2  0  0  0  0
  9 12  1  0  0  0  0
  9 17  1  0  0  0  0
 10 13  1  0  0  0  0
 10 18  1  0  0  0  0
 11 15  1  0  0  0  0
 14 16  1  0  0  0  0
 15 16  2  0  0  0  0
 15 29  1  0  0  0  0
 16 30  1  0  0  0  0
 17 19  2  0  0  0  0
 17 31  1  0  0  0  0
 18 20  2  0  0  0  0
 19 20  1  0  0  0  0
 19 33  1  0  0  0  0
 20 34  1  0  0  0  0
 21 22  1  0  0  0  0
 22 24  2  0  0  0  0
 22 25  1  0  0  0  0
 23 35  1  0  0  0  0
 23 36  1  0  0  0  0
 23 37  1  0  0  0  0
 24 26  1  0  0  0  0
 24 38  1  0  0  0  0
 25 27  2  0  0  0  0
 25 39  1  0  0  0  0
 26 28  2  0  0  0  0
 26 40  1  0  0  0  0
 27 28  1  0  0  0  0
 27 41  1  0  0  0  0
 28 42  1  0  0  0  0
M  END
> <PUBCHEM_COMPOUND_CID>
8319

> <PUBCHEM_COMPOUND_CANONICALIZED>
1

> <PUBCHEM_CACTVS_COMPLEXITY>
632

> <PUBCHEM_CACTVS_HBOND_ACCEPTOR>
4

> <PUBCHEM_CACTVS_HBOND_DONOR>
1

> <PUBCHEM_CACTVS_ROTATABLE_BOND>
3

> <PUBCHEM_CACTVS_SUBSKEYS>
AAADccB6OAAEAAAAAAAAAAAAAAAAAAAAAAAwYMGAAAAAAADBUAAAHgIQAAAADA6BmCIyxoLABACIAqVSUACCCAAlJwAIiAEGbsgMJj7Ft5uEMehk9BHI7ce/yPCOgEABYAAbAACAgAbAADYAAAAAAAAAAA==

> <PUBCHEM_IUPAC_OPENEYE_NAME>
N-(5-chloro-4-methoxy-9,10-dioxo-1-anthryl)benzamide

> <PUBCHEM_IUPAC_CAS_NAME>
N-(5-chloro-4-methoxy-9,10-dioxo-1-anthracenyl)benzamide

> <PUBCHEM_IUPAC_NAME>
N-(5-chloro-4-methoxy-9,10-dioxoanthracen-1-yl)benzamide

> <PUBCHEM_IUPAC_SYSTEMATIC_NAME>
N-[5-chloranyl-4-methoxy-9,10-bis(oxidanylidene)anthracen-1-yl]benzamide

> <PUBCHEM_IUPAC_TRADITIONAL_NAME>
N-(5-chloro-9,10-diketo-4-methoxy-1-anthryl)benzamide

> <PUBCHEM_IUPAC_INCHI>
InChI=1S/C22H14ClNO4/c1-28-16-11-10-15(24-22(27)12-6-3-2-4-7-12)18-19(16)21(26)17-13(20(18)25)8-5-9-14(17)23/h2-11H,1H3,(H,24,27)

> <PUBCHEM_IUPAC_INCHIKEY>
ZUENIEUULTXURC-UHFFFAOYSA-N

> <PUBCHEM_XLOGP3_AA>
4.9

> <PUBCHEM_EXACT_MASS>
391.061136

> <PUBCHEM_MOLECULAR_FORMULA>
C22H14ClNO4

> <PUBCHEM_MOLECULAR_WEIGHT>
391.80386

> <PUBCHEM_OPENEYE_CAN_SMILES>
COC1=C2C(=C(C=C1)NC(=O)C3=CC=CC=C3)C(=O)C4=C(C2=O)C(=CC=C4)Cl

> <PUBCHEM_OPENEYE_ISO_SMILES>
COC1=C2C(=C(C=C1)NC(=O)C3=CC=CC=C3)C(=O)C4=C(C2=O)C(=CC=C4)Cl

> <PUBCHEM_CACTVS_TPSA>
72.5

> <PUBCHEM_MONOISOTOPIC_WEIGHT>
391.061136

> <PUBCHEM_TOTAL_CHARGE>
0

> <PUBCHEM_HEAVY_ATOM_COUNT>
28

> <PUBCHEM_ATOM_DEF_STEREO_COUNT>
0

> <PUBCHEM_ATOM_UDEF_STEREO_COUNT>
0

> <PUBCHEM_BOND_DEF_STEREO_COUNT>
0

> <PUBCHEM_BOND_UDEF_STEREO_COUNT>
0

> <PUBCHEM_ISOTOPIC_ATOM_COUNT>
0

> <PUBCHEM_COMPONENT_COUNT>
1

> <PUBCHEM_CACTVS_TAUTO_COUNT>
5

> <PUBCHEM_COORDINATE_TYPE>
1
5
255

> <PUBCHEM_BONDANNOTATIONS>
10  18  8
11  15  8
14  16  8
15  16  8
17  19  8
18  20  8
19  20  8
22  24  8
22  25  8
24  26  8
25  27  8
26  28  8
27  28  8
7  11  8
7  8  8
8  14  8
9  10  8
9  17  8

$$$$

