11676
  -OEChem-06261205583D

 24 23  0     0  0  0  0  0  0999 V2000
    1.2015    0.0718   -1.3939 O   0  0  0  0  0  0  0  0  0  0  0  0
   -0.7848    0.0066    0.0218 C   0  0  0  0  0  0  0  0  0  0  0  0
    0.7929    0.0038   -0.0174 C   0  0  0  0  0  0  0  0  0  0  0  0
   -1.3858    1.2537   -0.6583 C   0  0  0  0  0  0  0  0  0  0  0  0
   -1.3034   -0.0325    1.4794 C   0  0  0  0  0  0  0  0  0  0  0  0
   -1.3595   -1.2422   -0.6889 C   0  0  0  0  0  0  0  0  0  0  0  0
    1.4232    1.2148    0.6913 C   0  0  0  0  0  0  0  0  0  0  0  0
    1.4158   -1.2761    0.5660 C   0  0  0  0  0  0  0  0  0  0  0  0
   -1.0514    1.3434   -1.6973 H   0  0  0  0  0  0  0  0  0  0  0  0
   -2.4812    1.2074   -0.6715 H   0  0  0  0  0  0  0  0  0  0  0  0
   -1.1132    2.1747   -0.1335 H   0  0  0  0  0  0  0  0  0  0  0  0
   -0.9893    0.8488    2.0471 H   0  0  0  0  0  0  0  0  0  0  0  0
   -2.4000   -0.0487    1.5014 H   0  0  0  0  0  0  0  0  0  0  0  0
   -0.9620   -0.9238    2.0144 H   0  0  0  0  0  0  0  0  0  0  0  0
   -2.4562   -1.2175   -0.6913 H   0  0  0  0  0  0  0  0  0  0  0  0
   -1.0423   -1.2982   -1.7350 H   0  0  0  0  0  0  0  0  0  0  0  0
   -1.0710   -2.1725   -0.1901 H   0  0  0  0  0  0  0  0  0  0  0  0
    2.5133    1.2043    0.5676 H   0  0  0  0  0  0  0  0  0  0  0  0
    1.2099    1.2278    1.7637 H   0  0  0  0  0  0  0  0  0  0  0  0
    1.0899    2.1592    0.2502 H   0  0  0  0  0  0  0  0  0  0  0  0
    1.1814   -1.4081    1.6258 H   0  0  0  0  0  0  0  0  0  0  0  0
    1.1085   -2.1727    0.0192 H   0  0  0  0  0  0  0  0  0  0  0  0
    2.5083   -1.2429    0.4703 H   0  0  0  0  0  0  0  0  0  0  0  0
    1.0384   -0.7914   -1.8090 H   0  0  0  0  0  0  0  0  0  0  0  0
  1  3  1  0  0  0  0
  1 24  1  0  0  0  0
  2  3  1  0  0  0  0
  2  4  1  0  0  0  0
  2  5  1  0  0  0  0
  2  6  1  0  0  0  0
  3  7  1  0  0  0  0
  3  8  1  0  0  0  0
  4  9  1  0  0  0  0
  4 10  1  0  0  0  0
  4 11  1  0  0  0  0
  5 12  1  0  0  0  0
  5 13  1  0  0  0  0
  5 14  1  0  0  0  0
  6 15  1  0  0  0  0
  6 16  1  0  0  0  0
  6 17  1  0  0  0  0
  7 18  1  0  0  0  0
  7 19  1  0  0  0  0
  7 20  1  0  0  0  0
  8 21  1  0  0  0  0
  8 22  1  0  0  0  0
  8 23  1  0  0  0  0
M  END
> <PUBCHEM_COMPOUND_CID>
11676

> <PUBCHEM_CONFORMER_RMSD>
0.4

> <PUBCHEM_CONFORMER_DIVERSEORDER>
1
2

> <PUBCHEM_MMFF94_PARTIAL_CHARGES>
3
1 -0.68
24 0.4
3 0.28

> <PUBCHEM_EFFECTIVE_ROTOR_COUNT>
1

> <PUBCHEM_PHARMACOPHORE_FEATURES>
4
1 1 acceptor
1 1 donor
3 3 7 8 hydrophobe
4 2 4 5 6 hydrophobe

> <PUBCHEM_HEAVY_ATOM_COUNT>
8

> <PUBCHEM_ATOM_DEF_STEREO_COUNT>
0

> <PUBCHEM_ATOM_UDEF_STEREO_COUNT>
0

> <PUBCHEM_BOND_DEF_STEREO_COUNT>
0

> <PUBCHEM_BOND_UDEF_STEREO_COUNT>
0

> <PUBCHEM_ISOTOPIC_ATOM_COUNT>
0

> <PUBCHEM_COMPONENT_COUNT>
1

> <PUBCHEM_CACTVS_TAUTO_COUNT>
1

> <PUBCHEM_CONFORMER_ID>
00002D9C00000001

> <PUBCHEM_MMFF94_ENERGY>
26.9471

> <PUBCHEM_FEATURE_SELFOVERLAP>
20.322

> <PUBCHEM_SHAPE_FINGERPRINT>
12423570 1 9436026699787716858
21040471 1 18198913684826432053
23552333 60 18115881706412924843
24536 1 17275385395487447400
29004967 10 17984712116792469435
5084963 1 17972045738550927368
5943 1 5759380071526169227

> <PUBCHEM_SHAPE_MULTIPOLES>
158.77
2.13
1.41
1.28
0.12
0.03
-0.13
-0.01
-0.05
0.04
0.05
-0.16
-0.02
0.01

> <PUBCHEM_SHAPE_SELFOVERLAP>
291.156

> <PUBCHEM_SHAPE_VOLUME>
103.8

> <PUBCHEM_COORDINATE_TYPE>
2
5
10

$$$$

