17396056
  -OEChem-06241222543D

 51 54  0     0  0  0  0  0  0999 V2000
    8.5251    2.7244   -1.0942 Br  0  0  0  0  0  0  0  0  0  0  0  0
  -10.2997   -0.3863   -1.4318 Cl  0  0  0  0  0  0  0  0  0  0  0  0
   -4.9329    1.2452    0.3348 O   0  0  0  0  0  0  0  0  0  0  0  0
    5.9008   -1.8803   -2.1575 O   0  0  0  0  0  0  0  0  0  0  0  0
   -1.7148   -0.4243    0.9940 N   0  0  0  0  0  0  0  0  0  0  0  0
    1.0793   -1.1649    1.0526 N   0  0  0  0  0  0  0  0  0  0  0  0
    3.7243   -0.2550    0.8759 N   0  0  0  0  0  0  0  0  0  0  0  0
    5.5781   -0.1315   -0.6238 N   0  0  0  0  0  0  0  0  0  0  0  0
   -1.0168   -0.6665    2.2626 C   0  0  0  0  0  0  0  0  0  0  0  0
   -0.7751    0.0655   -0.0220 C   0  0  0  0  0  0  0  0  0  0  0  0
    0.1394   -1.6537    2.0689 C   0  0  0  0  0  0  0  0  0  0  0  0
    0.3819   -0.9206   -0.2159 C   0  0  0  0  0  0  0  0  0  0  0  0
   -2.8166    0.5178    1.1793 C   0  0  0  0  0  0  0  0  0  0  0  0
    2.1799   -2.1085    0.8667 C   0  0  0  0  0  0  0  0  0  0  0  0
   -3.8757    0.3228    0.1062 C   0  0  0  0  0  0  0  0  0  0  0  0
    3.3912   -1.4544    0.2985 C   0  0  0  0  0  0  0  0  0  0  0  0
    4.0764   -2.0268   -0.7007 C   0  0  0  0  0  0  0  0  0  0  0  0
    4.7748    0.3567    0.4157 C   0  0  0  0  0  0  0  0  0  0  0  0
    5.2769   -1.3486   -1.2415 C   0  0  0  0  0  0  0  0  0  0  0  0
   -6.1838    0.8662   -0.0772 C   0  0  0  0  0  0  0  0  0  0  0  0
    5.1703    1.6628    1.0175 C   0  0  0  0  0  0  0  0  0  0  0  0
    6.6878    0.5864   -1.0580 C   0  0  0  0  0  0  0  0  0  0  0  0
    6.2479    2.3087    0.5590 C   0  0  0  0  0  0  0  0  0  0  0  0
    7.0385    1.7602   -0.5137 C   0  0  0  0  0  0  0  0  0  0  0  0
   -6.3291    0.0170   -1.1744 C   0  0  0  0  0  0  0  0  0  0  0  0
   -7.3116    1.3275    0.6017 C   0  0  0  0  0  0  0  0  0  0  0  0
   -7.6020   -0.3706   -1.5925 C   0  0  0  0  0  0  0  0  0  0  0  0
   -8.5845    0.9401    0.1835 C   0  0  0  0  0  0  0  0  0  0  0  0
   -8.7298    0.0910   -0.9137 C   0  0  0  0  0  0  0  0  0  0  0  0
   -1.7116   -1.0964    2.9945 H   0  0  0  0  0  0  0  0  0  0  0  0
   -0.6358    0.2735    2.6846 H   0  0  0  0  0  0  0  0  0  0  0  0
   -0.3728    1.0491    0.2568 H   0  0  0  0  0  0  0  0  0  0  0  0
   -1.2767    0.1825   -0.9889 H   0  0  0  0  0  0  0  0  0  0  0  0
   -0.2574   -2.6400    1.7921 H   0  0  0  0  0  0  0  0  0  0  0  0
    0.6545   -1.7661    3.0307 H   0  0  0  0  0  0  0  0  0  0  0  0
   -0.0050   -1.8579   -0.6390 H   0  0  0  0  0  0  0  0  0  0  0  0
    1.0707   -0.4913   -0.9533 H   0  0  0  0  0  0  0  0  0  0  0  0
   -3.3103    0.3461    2.1460 H   0  0  0  0  0  0  0  0  0  0  0  0
   -2.4759    1.5611    1.2129 H   0  0  0  0  0  0  0  0  0  0  0  0
    1.8612   -2.9806    0.2798 H   0  0  0  0  0  0  0  0  0  0  0  0
    2.4869   -2.5065    1.8447 H   0  0  0  0  0  0  0  0  0  0  0  0
   -3.4670    0.5117   -0.8921 H   0  0  0  0  0  0  0  0  0  0  0  0
   -4.2280   -0.7163    0.1628 H   0  0  0  0  0  0  0  0  0  0  0  0
    3.7900   -2.9764   -1.1378 H   0  0  0  0  0  0  0  0  0  0  0  0
    4.5675    2.0648    1.8236 H   0  0  0  0  0  0  0  0  0  0  0  0
    7.2637    0.1484   -1.8669 H   0  0  0  0  0  0  0  0  0  0  0  0
    6.5324    3.2587    0.9993 H   0  0  0  0  0  0  0  0  0  0  0  0
   -5.4796   -0.3429   -1.7472 H   0  0  0  0  0  0  0  0  0  0  0  0
   -7.2042    1.9886    1.4572 H   0  0  0  0  0  0  0  0  0  0  0  0
   -7.7008   -1.0278   -2.4528 H   0  0  0  0  0  0  0  0  0  0  0  0
   -9.4543    1.3076    0.7219 H   0  0  0  0  0  0  0  0  0  0  0  0
  1 24  1  0  0  0  0
  2 29  1  0  0  0  0
  3 15  1  0  0  0  0
  3 20  1  0  0  0  0
  4 19  2  0  0  0  0
  5  9  1  0  0  0  0
  5 10  1  0  0  0  0
  5 13  1  0  0  0  0
  6 11  1  0  0  0  0
  6 12  1  0  0  0  0
  6 14  1  0  0  0  0
  7 16  1  0  0  0  0
  7 18  2  0  0  0  0
  8 18  1  0  0  0  0
  8 19  1  0  0  0  0
  8 22  1  0  0  0  0
  9 11  1  0  0  0  0
  9 30  1  0  0  0  0
  9 31  1  0  0  0  0
 10 12  1  0  0  0  0
 10 32  1  0  0  0  0
 10 33  1  0  0  0  0
 11 34  1  0  0  0  0
 11 35  1  0  0  0  0
 12 36  1  0  0  0  0
 12 37  1  0  0  0  0
 13 15  1  0  0  0  0
 13 38  1  0  0  0  0
 13 39  1  0  0  0  0
 14 16  1  0  0  0  0
 14 40  1  0  0  0  0
 14 41  1  0  0  0  0
 15 42  1  0  0  0  0
 15 43  1  0  0  0  0
 16 17  2  0  0  0  0
 17 19  1  0  0  0  0
 17 44  1  0  0  0  0
 18 21  1  0  0  0  0
 20 25  2  0  0  0  0
 20 26  1  0  0  0  0
 21 23  2  0  0  0  0
 21 45  1  0  0  0  0
 22 24  2  0  0  0  0
 22 46  1  0  0  0  0
 23 24  1  0  0  0  0
 23 47  1  0  0  0  0
 25 27  1  0  0  0  0
 25 48  1  0  0  0  0
 26 28  2  0  0  0  0
 26 49  1  0  0  0  0
 27 29  2  0  0  0  0
 27 50  1  0  0  0  0
 28 29  1  0  0  0  0
 28 51  1  0  0  0  0
M  END
> <PUBCHEM_COMPOUND_CID>
17396056

> <PUBCHEM_CONFORMER_RMSD>
1.2

> <PUBCHEM_CONFORMER_DIVERSEORDER>
3
74
69
32
37
85
47
49
57
63
11
27
68
25
82
81
87
21
55
35
75
51
76
80
59
40
7
39
46
84
50
65
54
34
26
77
12
23
41
17
67
72
44
70
60
10
78
22
79
66
52
13
5
58
14
64
8
29
88
24
4
71
56
6
20
28
62
48
45
38
73
1
9
2
86
43
33
19
15
53
31
16
83
30
18
61
42
36

> <PUBCHEM_MMFF94_PARTIAL_CHARGES>
37
1 -0.11
10 0.27
11 0.27
12 0.27
13 0.27
14 0.41
15 0.28
16 0.03
17 -0.14
18 0.5
19 0.62
2 -0.18
20 0.08
21 -0.14
22 -0.04
23 -0.15
24 0.11
25 -0.15
26 -0.15
27 -0.15
28 -0.15
29 0.18
3 -0.36
4 -0.57
44 0.15
45 0.15
46 0.15
47 0.15
48 0.15
49 0.15
5 -0.81
50 0.15
51 0.15
6 -0.81
7 -0.62
8 -0.23
9 0.27

> <PUBCHEM_EFFECTIVE_ROTOR_COUNT>
7.2

> <PUBCHEM_PHARMACOPHORE_FEATURES>
9
1 1 hydrophobe
1 3 acceptor
1 4 acceptor
1 5 cation
1 6 cation
6 20 25 26 27 28 29 rings
6 5 6 9 10 11 12 rings
6 7 8 16 17 18 19 rings
6 8 18 21 22 23 24 rings

> <PUBCHEM_HEAVY_ATOM_COUNT>
29

> <PUBCHEM_ATOM_DEF_STEREO_COUNT>
0

> <PUBCHEM_ATOM_UDEF_STEREO_COUNT>
0

> <PUBCHEM_BOND_DEF_STEREO_COUNT>
0

> <PUBCHEM_BOND_UDEF_STEREO_COUNT>
0

> <PUBCHEM_ISOTOPIC_ATOM_COUNT>
0

> <PUBCHEM_COMPONENT_COUNT>
1

> <PUBCHEM_CACTVS_TAUTO_COUNT>
1

> <PUBCHEM_CONFORMER_ID>
0109715800000003

> <PUBCHEM_MMFF94_ENERGY>
76.3172

> <PUBCHEM_FEATURE_SELFOVERLAP>
45.704

> <PUBCHEM_SHAPE_FINGERPRINT>
10 15 15195280937240851619
10299344 5 17313105272430667499
10533779 1 18127973006500555132
10666366 153 5689598269300608913
11315181 36 18410858773077761577
11719270 70 15554448539547086667
11828042 107 16955086501053082176
12838862 33 16128382567375843943
13673619 4 5761652572839973163
14117953 113 18272360955111372708
14142895 15 18408886201081464773
14216079 64 7348892173955714264
14347424 109 10807927167974408638
14359421 15 13984924256930691372
14444916 359 14056720137341886141
150020 25 18410008828255077515
15183329 4 17603581945677821393
15352257 5 16298110887115303735
1754911 235 18408605872982594901
18365409 1 18338798901906385935
19301679 30 9439412319824109754
20105231 36 14562531757085719749
2026 5 6266360270811576060
20554085 129 16773800294330460313
20609170 94 18048600322583206647
20721686 146 18057593276196883900
21033648 29 17703497823464911250
21150785 3 18040998449153701561
21267235 1 4750874840893016851
21585481 104 17968929928661431249
21585481 151 6411292451544348325
21585482 111 17772741681981849268
21781051 124 15213303006197843669
21792934 111 15626232337566716718
23516275 100 18271246024135110748
23522609 53 17823401868671112561
23528521 120 18342184333063113253
246663 6 14345794942259240573
24771293 8 17988924470340166941
306946 40 16343716422033011933
312425 54 10663807572987735617
34797466 226 18260547857135510423
397638 5 11959739266045168703
4107672 100 17531527711375639609
5265222 85 18040721347008106271
5470011 282 18113617906718993399
5719381 82 5328471371829036652
5758199 1 18060700611387299945
6201460 15 6118899217260205788

> <PUBCHEM_SHAPE_MULTIPOLES>
572.96
32.82
2.28
1.73
48.99
0.23
0.02
19.28
16.11
-5.97
-0.05
0.04
-0.61
0.18

> <PUBCHEM_SHAPE_SELFOVERLAP>
1202.737

> <PUBCHEM_SHAPE_VOLUME>
330

> <PUBCHEM_COORDINATE_TYPE>
2
5
10

$$$$

