7072
  -OEChem-06261201432D

 32 33  0     0  0  0  0  0  0999 V2000
    5.4641   -4.5000    0.0000 O   0  0  0  0  0  0  0  0  0  0  0  0
    2.0000    4.5000    0.0000 O   0  0  0  0  0  0  0  0  0  0  0  0
    3.7320   -3.5000    0.0000 N   0  0  0  0  0  0  0  0  0  0  0  0
    3.7320    3.5000    0.0000 N   0  0  0  0  0  0  0  0  0  0  0  0
    3.7320   -0.5000    0.0000 C   0  0  0  0  0  0  0  0  0  0  0  0
    3.7320    0.5000    0.0000 C   0  0  0  0  0  0  0  0  0  0  0  0
    2.8660   -1.0000    0.0000 C   0  0  0  0  0  0  0  0  0  0  0  0
    4.5981    1.0000    0.0000 C   0  0  0  0  0  0  0  0  0  0  0  0
    2.8660   -2.0000    0.0000 C   0  0  0  0  0  0  0  0  0  0  0  0
    4.5981    2.0000    0.0000 C   0  0  0  0  0  0  0  0  0  0  0  0
    4.5981   -1.0000    0.0000 C   0  0  0  0  0  0  0  0  0  0  0  0
    2.8660    1.0000    0.0000 C   0  0  0  0  0  0  0  0  0  0  0  0
    3.7320   -2.5000    0.0000 C   0  0  0  0  0  0  0  0  0  0  0  0
    3.7320    2.5000    0.0000 C   0  0  0  0  0  0  0  0  0  0  0  0
    4.5981   -2.0000    0.0000 C   0  0  0  0  0  0  0  0  0  0  0  0
    2.8660    2.0000    0.0000 C   0  0  0  0  0  0  0  0  0  0  0  0
    2.0000   -2.5000    0.0000 C   0  0  0  0  0  0  0  0  0  0  0  0
    5.4641    2.5000    0.0000 C   0  0  0  0  0  0  0  0  0  0  0  0
    4.5981   -4.0000    0.0000 C   0  0  0  0  0  0  0  0  0  0  0  0
    2.8660    4.0000    0.0000 C   0  0  0  0  0  0  0  0  0  0  0  0
    2.3291   -0.6900    0.0000 H   0  0  0  0  0  0  0  0  0  0  0  0
    5.1350    0.6900    0.0000 H   0  0  0  0  0  0  0  0  0  0  0  0
    5.1350   -0.6900    0.0000 H   0  0  0  0  0  0  0  0  0  0  0  0
    2.3291    0.6900    0.0000 H   0  0  0  0  0  0  0  0  0  0  0  0
    5.1350   -2.3100    0.0000 H   0  0  0  0  0  0  0  0  0  0  0  0
    2.3291    2.3100    0.0000 H   0  0  0  0  0  0  0  0  0  0  0  0
    1.6900   -1.9631    0.0000 H   0  0  0  0  0  0  0  0  0  0  0  0
    1.4631   -2.8100    0.0000 H   0  0  0  0  0  0  0  0  0  0  0  0
    2.3100   -3.0369    0.0000 H   0  0  0  0  0  0  0  0  0  0  0  0
    5.7741    1.9631    0.0000 H   0  0  0  0  0  0  0  0  0  0  0  0
    6.0010    2.8100    0.0000 H   0  0  0  0  0  0  0  0  0  0  0  0
    5.1541    3.0369    0.0000 H   0  0  0  0  0  0  0  0  0  0  0  0
  1 19  2  0  0  0  0
  2 20  2  0  0  0  0
  3 13  1  0  0  0  0
  3 19  2  0  0  0  0
  4 14  1  0  0  0  0
  4 20  2  0  0  0  0
  5  6  1  0  0  0  0
  5  7  2  0  0  0  0
  5 11  1  0  0  0  0
  6  8  2  0  0  0  0
  6 12  1  0  0  0  0
  7  9  1  0  0  0  0
  7 21  1  0  0  0  0
  8 10  1  0  0  0  0
  8 22  1  0  0  0  0
  9 13  2  0  0  0  0
  9 17  1  0  0  0  0
 10 14  2  0  0  0  0
 10 18  1  0  0  0  0
 11 15  2  0  0  0  0
 11 23  1  0  0  0  0
 12 16  2  0  0  0  0
 12 24  1  0  0  0  0
 13 15  1  0  0  0  0
 14 16  1  0  0  0  0
 15 25  1  0  0  0  0
 16 26  1  0  0  0  0
 17 27  1  0  0  0  0
 17 28  1  0  0  0  0
 17 29  1  0  0  0  0
 18 30  1  0  0  0  0
 18 31  1  0  0  0  0
 18 32  1  0  0  0  0
M  END
> <PUBCHEM_COMPOUND_CID>
7072

> <PUBCHEM_COMPOUND_CANONICALIZED>
1

> <PUBCHEM_CACTVS_COMPLEXITY>
384

> <PUBCHEM_CACTVS_HBOND_ACCEPTOR>
4

> <PUBCHEM_CACTVS_HBOND_DONOR>
0

> <PUBCHEM_CACTVS_ROTATABLE_BOND>
3

> <PUBCHEM_CACTVS_SUBSKEYS>
AAADccB7MAAAAAAAAAAAAAAAAAAAAAAAAAAwYAAAAAAAAAABQAAAHgAAAAAADAiBGAAywIIAAACoAiRCVACCAAAgAgAIiAAAZIgIICKAkZGAIABggAAIyAcQgMAOiAACAAACAAAQAAQAAAQAAAAAAAAAAA==

> <PUBCHEM_IUPAC_OPENEYE_NAME>
1-isocyanato-4-(4-isocyanato-3-methyl-phenyl)-2-methyl-benzene

> <PUBCHEM_IUPAC_CAS_NAME>
1-isocyanato-4-(4-isocyanato-3-methylphenyl)-2-methylbenzene

> <PUBCHEM_IUPAC_NAME>
1-isocyanato-4-(4-isocyanato-3-methylphenyl)-2-methylbenzene

> <PUBCHEM_IUPAC_SYSTEMATIC_NAME>
1-isocyanato-4-(4-isocyanato-3-methyl-phenyl)-2-methyl-benzene

> <PUBCHEM_IUPAC_TRADITIONAL_NAME>
1-isocyanato-4-(4-isocyanato-3-methyl-phenyl)-2-methyl-benzene

> <PUBCHEM_IUPAC_INCHI>
InChI=1S/C16H12N2O2/c1-11-7-13(3-5-15(11)17-9-19)14-4-6-16(18-10-20)12(2)8-14/h3-8H,1-2H3

> <PUBCHEM_IUPAC_INCHIKEY>
ICLCCFKUSALICQ-UHFFFAOYSA-N

> <PUBCHEM_XLOGP3_AA>
5.9

> <PUBCHEM_EXACT_MASS>
264.089878

> <PUBCHEM_MOLECULAR_FORMULA>
C16H12N2O2

> <PUBCHEM_MOLECULAR_WEIGHT>
264.27868

> <PUBCHEM_OPENEYE_CAN_SMILES>
CC1=C(C=CC(=C1)C2=CC(=C(C=C2)N=C=O)C)N=C=O

> <PUBCHEM_OPENEYE_ISO_SMILES>
CC1=C(C=CC(=C1)C2=CC(=C(C=C2)N=C=O)C)N=C=O

> <PUBCHEM_CACTVS_TPSA>
58.9

> <PUBCHEM_MONOISOTOPIC_WEIGHT>
264.089878

> <PUBCHEM_TOTAL_CHARGE>
0

> <PUBCHEM_HEAVY_ATOM_COUNT>
20

> <PUBCHEM_ATOM_DEF_STEREO_COUNT>
0

> <PUBCHEM_ATOM_UDEF_STEREO_COUNT>
0

> <PUBCHEM_BOND_DEF_STEREO_COUNT>
0

> <PUBCHEM_BOND_UDEF_STEREO_COUNT>
0

> <PUBCHEM_ISOTOPIC_ATOM_COUNT>
0

> <PUBCHEM_COMPONENT_COUNT>
1

> <PUBCHEM_CACTVS_TAUTO_COUNT>
1

> <PUBCHEM_COORDINATE_TYPE>
1
5
255

> <PUBCHEM_BONDANNOTATIONS>
10  14  8
11  15  8
12  16  8
13  15  8
14  16  8
5  11  8
5  7  8
6  12  8
6  8  8
7  9  8
8  10  8
9  13  8

$$$$

