8566
  -OEChem-06261202542D

 59 58  0     1  0  0  0  0  0999 V2000
    2.5375    4.0369    0.0000 I   0  0  0  0  0  0  0  0  0  0  0  0
    4.2695    1.0369    0.0000 I   0  0  0  0  0  0  0  0  0  0  0  0
    6.0016    4.0369    0.0000 I   0  0  0  0  0  0  0  0  0  0  0  0
    4.0010    9.4669    0.0000 O   0  0  0  0  0  0  0  0  0  0  0  0
    4.8671   11.9669    0.0000 O   0  0  0  0  0  0  0  0  0  0  0  0
    3.1350   11.9669    0.0000 O   0  0  0  0  0  0  0  0  0  0  0  0
    5.7331    9.4669    0.0000 O   0  0  0  0  0  0  0  0  0  0  0  0
    7.4651   10.4669    0.0000 O   0  0  0  0  0  0  0  0  0  0  0  0
    6.0016    1.0369    0.0000 O   0  0  0  0  0  0  0  0  0  0  0  0
    6.8676    2.5369    0.0000 O   0  0  0  0  0  0  0  0  0  0  0  0
    6.0016    5.0369    0.0000 O   0  0  0  0  0  0  0  0  0  0  0  0
    3.4035    0.5369    0.0000 O   0  0  0  0  0  0  0  0  0  0  0  0
    1.4030   10.9669    0.0000 N   0  0  0  0  0  0  0  0  0  0  0  0
    4.2695    5.0369    0.0000 N   0  0  0  0  0  0  0  0  0  0  0  0
    2.5375    2.0369    0.0000 N   0  0  0  0  0  0  0  0  0  0  0  0
    4.0010   10.4669    0.0000 C   0  0  1  0  0  0  0  0  0  0  0  0
    4.8671   10.9669    0.0000 C   0  0  1  0  0  0  0  0  0  0  0  0
    3.1350   10.9669    0.0000 C   0  0  2  0  0  0  0  0  0  0  0  0
    5.7331   10.4669    0.0000 C   0  0  1  0  0  0  0  0  0  0  0  0
    2.2690   10.4669    0.0000 C   0  0  0  0  0  0  0  0  0  0  0  0
    6.5991   10.9669    0.0000 C   0  0  0  0  0  0  0  0  0  0  0  0
    0.5369   10.4669    0.0000 C   0  0  0  0  0  0  0  0  0  0  0  0
    4.2695    4.0369    0.0000 C   0  0  0  0  0  0  0  0  0  0  0  0
    3.4035    2.5369    0.0000 C   0  0  0  0  0  0  0  0  0  0  0  0
    3.4035    3.5369    0.0000 C   0  0  0  0  0  0  0  0  0  0  0  0
    5.1355    2.5369    0.0000 C   0  0  0  0  0  0  0  0  0  0  0  0
    4.2695    2.0369    0.0000 C   0  0  0  0  0  0  0  0  0  0  0  0
    5.1355    3.5369    0.0000 C   0  0  0  0  0  0  0  0  0  0  0  0
    6.0016    2.0369    0.0000 C   0  0  0  0  0  0  0  0  0  0  0  0
    5.1355    5.5369    0.0000 C   0  0  0  0  0  0  0  0  0  0  0  0
    2.5375    1.0369    0.0000 C   0  0  0  0  0  0  0  0  0  0  0  0
    5.1355    6.5369    0.0000 C   0  0  0  0  0  0  0  0  0  0  0  0
    1.6714    0.5369    0.0000 C   0  0  0  0  0  0  0  0  0  0  0  0
    4.5380   10.1569    0.0000 H   0  0  0  0  0  0  0  0  0  0  0  0
    5.4040   11.2769    0.0000 H   0  0  0  0  0  0  0  0  0  0  0  0
    2.5981   11.2769    0.0000 H   0  0  0  0  0  0  0  0  0  0  0  0
    5.1962   10.1569    0.0000 H   0  0  0  0  0  0  0  0  0  0  0  0
    1.8705    9.9920    0.0000 H   0  0  0  0  0  0  0  0  0  0  0  0
    2.6675    9.9920    0.0000 H   0  0  0  0  0  0  0  0  0  0  0  0
    6.9976   11.4419    0.0000 H   0  0  0  0  0  0  0  0  0  0  0  0
    6.2006   11.4419    0.0000 H   0  0  0  0  0  0  0  0  0  0  0  0
    3.4641    9.1569    0.0000 H   0  0  0  0  0  0  0  0  0  0  0  0
    5.4040   12.2769    0.0000 H   0  0  0  0  0  0  0  0  0  0  0  0
    1.4030   11.5869    0.0000 H   0  0  0  0  0  0  0  0  0  0  0  0
    2.5981   12.2769    0.0000 H   0  0  0  0  0  0  0  0  0  0  0  0
    6.2700    9.1569    0.0000 H   0  0  0  0  0  0  0  0  0  0  0  0
    0.2269   11.0039    0.0000 H   0  0  0  0  0  0  0  0  0  0  0  0
    0.0000   10.1569    0.0000 H   0  0  0  0  0  0  0  0  0  0  0  0
    0.8469    9.9300    0.0000 H   0  0  0  0  0  0  0  0  0  0  0  0
    8.0021   10.7769    0.0000 H   0  0  0  0  0  0  0  0  0  0  0  0
    3.7326    5.3469    0.0000 H   0  0  0  0  0  0  0  0  0  0  0  0
    2.0005    2.3469    0.0000 H   0  0  0  0  0  0  0  0  0  0  0  0
    5.7555    6.5369    0.0000 H   0  0  0  0  0  0  0  0  0  0  0  0
    5.1355    7.1569    0.0000 H   0  0  0  0  0  0  0  0  0  0  0  0
    4.5155    6.5369    0.0000 H   0  0  0  0  0  0  0  0  0  0  0  0
    1.3614    1.0739    0.0000 H   0  0  0  0  0  0  0  0  0  0  0  0
    1.1345    0.2269    0.0000 H   0  0  0  0  0  0  0  0  0  0  0  0
    1.9814    0.0000    0.0000 H   0  0  0  0  0  0  0  0  0  0  0  0
    6.5385    0.7269    0.0000 H   0  0  0  0  0  0  0  0  0  0  0  0
  1 25  1  0  0  0  0
  2 27  1  0  0  0  0
  3 28  1  0  0  0  0
 16  4  1  6  0  0  0
  4 42  1  0  0  0  0
 17  5  1  6  0  0  0
  5 43  1  0  0  0  0
 18  6  1  6  0  0  0
  6 45  1  0  0  0  0
 19  7  1  1  0  0  0
  7 46  1  0  0  0  0
  8 21  1  0  0  0  0
  8 50  1  0  0  0  0
  9 29  1  0  0  0  0
  9 59  1  0  0  0  0
 10 29  2  0  0  0  0
 11 30  2  0  0  0  0
 12 31  2  0  0  0  0
 13 20  1  0  0  0  0
 13 22  1  0  0  0  0
 13 44  1  0  0  0  0
 14 23  1  0  0  0  0
 14 30  1  0  0  0  0
 14 51  1  0  0  0  0
 15 24  1  0  0  0  0
 15 31  1  0  0  0  0
 15 52  1  0  0  0  0
 16 17  1  0  0  0  0
 16 18  1  0  0  0  0
 16 34  1  0  0  0  0
 17 19  1  0  0  0  0
 17 35  1  0  0  0  0
 18 20  1  0  0  0  0
 18 36  1  0  0  0  0
 19 21  1  0  0  0  0
 19 37  1  0  0  0  0
 20 38  1  0  0  0  0
 20 39  1  0  0  0  0
 21 40  1  0  0  0  0
 21 41  1  0  0  0  0
 22 47  1  0  0  0  0
 22 48  1  0  0  0  0
 22 49  1  0  0  0  0
 23 25  2  0  0  0  0
 23 28  1  0  0  0  0
 24 25  1  0  0  0  0
 24 27  2  0  0  0  0
 26 27  1  0  0  0  0
 26 28  2  0  0  0  0
 26 29  1  0  0  0  0
 30 32  1  0  0  0  0
 31 33  1  0  0  0  0
 32 53  1  0  0  0  0
 32 54  1  0  0  0  0
 32 55  1  0  0  0  0
 33 56  1  0  0  0  0
 33 57  1  0  0  0  0
 33 58  1  0  0  0  0
M  END
> <PUBCHEM_COMPOUND_CID>
8566

> <PUBCHEM_COMPOUND_CANONICALIZED>
1

> <PUBCHEM_CACTVS_COMPLEXITY>
525

> <PUBCHEM_CACTVS_HBOND_ACCEPTOR>
10

> <PUBCHEM_CACTVS_HBOND_DONOR>
9

> <PUBCHEM_CACTVS_ROTATABLE_BOND>
9

> <PUBCHEM_CACTVS_SUBSKEYS>
AAADceB7PAAAAwAAAAAAAAAAAAAAAAAAAAAwAAAAAAAAAAABAAAAHgAwCAAADBzjmAYCyILAAgCIAgXQWACCAAAlAAAAiIEITMgLNjLA1NGEcQhn1AHZ2Qf8+CaOAAAAQAQAAAAAAACACAAAAAAAAAAAAA==

> <PUBCHEM_IUPAC_OPENEYE_NAME>
3,5-diacetamido-2,4,6-triiodo-benzoic acid; (2R,3R,4R,5S)-6-(methylamino)hexane-1,2,3,4,5-pentol

> <PUBCHEM_IUPAC_CAS_NAME>
3,5-diacetamido-2,4,6-triiodobenzoic acid; (2R,3R,4R,5S)-6-(methylamino)hexane-1,2,3,4,5-pentol

> <PUBCHEM_IUPAC_NAME>
3,5-diacetamido-2,4,6-triiodobenzoic acid; (2R,3R,4R,5S)-6-(methylamino)hexane-1,2,3,4,5-pentol

> <PUBCHEM_IUPAC_SYSTEMATIC_NAME>
3,5-diacetamido-2,4,6-tris(iodanyl)benzoic acid; (2R,3R,4R,5S)-6-(methylamino)hexane-1,2,3,4,5-pentol

> <PUBCHEM_IUPAC_TRADITIONAL_NAME>
3,5-diacetamido-2,4,6-triiodo-benzoic acid; (2R,3R,4R,5S)-6-(methylamino)hexane-1,2,3,4,5-pentol

> <PUBCHEM_IUPAC_INCHI>
InChI=1S/C11H9I3N2O4.C7H17NO5/c1-3(17)15-9-6(12)5(11(19)20)7(13)10(8(9)14)16-4(2)18;1-8-2-4(10)6(12)7(13)5(11)3-9/h1-2H3,(H,15,17)(H,16,18)(H,19,20);4-13H,2-3H2,1H3/t;4-,5+,6+,7+/m.0/s1

> <PUBCHEM_IUPAC_INCHIKEY>
MIKKOBKEXMRYFQ-WZTVWXICSA-N

> <PUBCHEM_EXACT_MASS>
808.880323

> <PUBCHEM_MOLECULAR_FORMULA>
C18H26I3N3O9

> <PUBCHEM_MOLECULAR_WEIGHT>
809.12715

> <PUBCHEM_OPENEYE_CAN_SMILES>
CC(=O)NC1=C(C(=C(C(=C1I)C(=O)O)I)NC(=O)C)I.CNCC(C(C(C(CO)O)O)O)O

> <PUBCHEM_OPENEYE_ISO_SMILES>
CC(=O)NC1=C(C(=C(C(=C1I)C(=O)O)I)NC(=O)C)I.CNC[C@@H]([C@H]([C@@H]([C@@H](CO)O)O)O)O

> <PUBCHEM_CACTVS_TPSA>
209

> <PUBCHEM_MONOISOTOPIC_WEIGHT>
808.880323

> <PUBCHEM_TOTAL_CHARGE>
0

> <PUBCHEM_HEAVY_ATOM_COUNT>
33

> <PUBCHEM_ATOM_DEF_STEREO_COUNT>
4

> <PUBCHEM_ATOM_UDEF_STEREO_COUNT>
0

> <PUBCHEM_BOND_DEF_STEREO_COUNT>
0

> <PUBCHEM_BOND_UDEF_STEREO_COUNT>
0

> <PUBCHEM_ISOTOPIC_ATOM_COUNT>
0

> <PUBCHEM_COMPONENT_COUNT>
2

> <PUBCHEM_CACTVS_TAUTO_COUNT>
6

> <PUBCHEM_COORDINATE_TYPE>
1
5
255

> <PUBCHEM_BONDANNOTATIONS>
23  25  8
23  28  8
24  25  8
24  27  8
26  27  8
26  28  8
16  4  6
17  5  6
18  6  6
19  7  5

$$$$

