17396643
  -OEChem-06241222572D

 37 39  0     1  0  0  0  0  0999 V2000
    2.8660    2.5000    0.0000 S   0  0  0  0  0  0  0  0  0  0  0  0
    6.3301   -1.5000    0.0000 O   0  0  0  0  0  0  0  0  0  0  0  0
    5.4641    1.0000    0.0000 O   0  0  0  0  0  0  0  0  0  0  0  0
    7.1962   -3.0000    0.0000 O   0  0  0  0  0  0  0  0  0  0  0  0
    4.5981   -0.5000    0.0000 N   0  0  0  0  0  0  0  0  0  0  0  0
    7.1962    0.0000    0.0000 C   0  0  0  0  0  0  0  0  0  0  0  0
    6.3301   -0.5000    0.0000 C   0  0  3  0  0  0  0  0  0  0  0  0
    8.0622   -0.5000    0.0000 C   0  0  0  0  0  0  0  0  0  0  0  0
    8.0622   -1.5000    0.0000 C   0  0  0  0  0  0  0  0  0  0  0  0
    5.4641    0.0000    0.0000 C   0  0  0  0  0  0  0  0  0  0  0  0
    7.1962   -2.0000    0.0000 C   0  0  0  0  0  0  0  0  0  0  0  0
    8.9561    0.0347    0.0000 C   0  0  0  0  0  0  0  0  0  0  0  0
    8.9561   -2.0347    0.0000 C   0  0  0  0  0  0  0  0  0  0  0  0
    9.8622   -0.4792    0.0000 C   0  0  0  0  0  0  0  0  0  0  0  0
    9.8622   -1.5208    0.0000 C   0  0  0  0  0  0  0  0  0  0  0  0
    3.7320    0.0000    0.0000 C   0  0  0  0  0  0  0  0  0  0  0  0
    3.7320    1.0000    0.0000 C   0  0  0  0  0  0  0  0  0  0  0  0
    2.8660   -0.5000    0.0000 C   0  0  0  0  0  0  0  0  0  0  0  0
    2.8660    1.5000    0.0000 C   0  0  0  0  0  0  0  0  0  0  0  0
    2.0000    0.0000    0.0000 C   0  0  0  0  0  0  0  0  0  0  0  0
    2.0000    1.0000    0.0000 C   0  0  0  0  0  0  0  0  0  0  0  0
    2.0000    3.0000    0.0000 C   0  0  0  0  0  0  0  0  0  0  0  0
    5.7932   -0.8100    0.0000 H   0  0  0  0  0  0  0  0  0  0  0  0
    7.5947    0.4749    0.0000 H   0  0  0  0  0  0  0  0  0  0  0  0
    6.7976    0.4749    0.0000 H   0  0  0  0  0  0  0  0  0  0  0  0
    8.9490    0.6546    0.0000 H   0  0  0  0  0  0  0  0  0  0  0  0
    8.9490   -2.6546    0.0000 H   0  0  0  0  0  0  0  0  0  0  0  0
    4.5981   -1.1200    0.0000 H   0  0  0  0  0  0  0  0  0  0  0  0
   10.3979   -0.1671    0.0000 H   0  0  0  0  0  0  0  0  0  0  0  0
   10.3979   -1.8329    0.0000 H   0  0  0  0  0  0  0  0  0  0  0  0
    4.2690    1.3100    0.0000 H   0  0  0  0  0  0  0  0  0  0  0  0
    2.8660   -1.1200    0.0000 H   0  0  0  0  0  0  0  0  0  0  0  0
    1.4631   -0.3100    0.0000 H   0  0  0  0  0  0  0  0  0  0  0  0
    1.4631    1.3100    0.0000 H   0  0  0  0  0  0  0  0  0  0  0  0
    2.3100    3.5369    0.0000 H   0  0  0  0  0  0  0  0  0  0  0  0
    1.4631    3.3100    0.0000 H   0  0  0  0  0  0  0  0  0  0  0  0
    1.6900    2.4631    0.0000 H   0  0  0  0  0  0  0  0  0  0  0  0
  1 19  1  0  0  0  0
  1 22  1  0  0  0  0
  2  7  1  0  0  0  0
  2 11  1  0  0  0  0
  3 10  2  0  0  0  0
  4 11  2  0  0  0  0
  5 10  1  0  0  0  0
  5 16  1  0  0  0  0
  5 28  1  0  0  0  0
  6  7  1  0  0  0  0
  6  8  1  0  0  0  0
  6 24  1  0  0  0  0
  6 25  1  0  0  0  0
  7 10  1  0  0  0  0
  7 23  1  0  0  0  0
  8  9  1  0  0  0  0
  8 12  2  0  0  0  0
  9 11  1  0  0  0  0
  9 13  2  0  0  0  0
 12 14  1  0  0  0  0
 12 26  1  0  0  0  0
 13 15  1  0  0  0  0
 13 27  1  0  0  0  0
 14 15  2  0  0  0  0
 14 29  1  0  0  0  0
 15 30  1  0  0  0  0
 16 17  2  0  0  0  0
 16 18  1  0  0  0  0
 17 19  1  0  0  0  0
 17 31  1  0  0  0  0
 18 20  2  0  0  0  0
 18 32  1  0  0  0  0
 19 21  2  0  0  0  0
 20 21  1  0  0  0  0
 20 33  1  0  0  0  0
 21 34  1  0  0  0  0
 22 35  1  0  0  0  0
 22 36  1  0  0  0  0
 22 37  1  0  0  0  0
M  END
> <PUBCHEM_COMPOUND_CID>
17396643

> <PUBCHEM_COMPOUND_CANONICALIZED>
1

> <PUBCHEM_CACTVS_COMPLEXITY>
428

> <PUBCHEM_CACTVS_HBOND_ACCEPTOR>
4

> <PUBCHEM_CACTVS_HBOND_DONOR>
1

> <PUBCHEM_CACTVS_ROTATABLE_BOND>
3

> <PUBCHEM_CACTVS_SUBSKEYS>
AAADccB6MABAAAAAAAAAAAAAAAAAAAAAAAA0YIAAAAAAAACRQAAAHgQQAAAADByh2AKyyYLABAiIAiXSWAKCAAAlChAIiBlAbMgKJjLgtZ2HMQxk1AHY6YeYzKDOgAAAACAQAAAAAAAAQCAAAAAAAAAAAA==

> <PUBCHEM_IUPAC_OPENEYE_NAME>
N-(3-methylsulfanylphenyl)-1-oxo-isochromane-3-carboxamide

> <PUBCHEM_IUPAC_CAS_NAME>
N-[3-(methylthio)phenyl]-1-oxo-3,4-dihydro-1H-2-benzopyran-3-carboxamide

> <PUBCHEM_IUPAC_NAME>
N-(3-methylsulfanylphenyl)-1-oxo-3,4-dihydroisochromene-3-carboxamide

> <PUBCHEM_IUPAC_SYSTEMATIC_NAME>
N-(3-methylsulfanylphenyl)-1-oxidanylidene-3,4-dihydroisochromene-3-carboxamide

> <PUBCHEM_IUPAC_TRADITIONAL_NAME>
1-keto-N-[3-(methylthio)phenyl]isochroman-3-carboxamide

> <PUBCHEM_IUPAC_INCHI>
InChI=1S/C17H15NO3S/c1-22-13-7-4-6-12(10-13)18-16(19)15-9-11-5-2-3-8-14(11)17(20)21-15/h2-8,10,15H,9H2,1H3,(H,18,19)

> <PUBCHEM_IUPAC_INCHIKEY>
FUKACKDUNNMJDB-UHFFFAOYSA-N

> <PUBCHEM_XLOGP3_AA>
3.3

> <PUBCHEM_EXACT_MASS>
313.077264

> <PUBCHEM_MOLECULAR_FORMULA>
C17H15NO3S

> <PUBCHEM_MOLECULAR_WEIGHT>
313.3709

> <PUBCHEM_OPENEYE_CAN_SMILES>
CSC1=CC=CC(=C1)NC(=O)C2CC3=CC=CC=C3C(=O)O2

> <PUBCHEM_OPENEYE_ISO_SMILES>
CSC1=CC=CC(=C1)NC(=O)C2CC3=CC=CC=C3C(=O)O2

> <PUBCHEM_CACTVS_TPSA>
80.7

> <PUBCHEM_MONOISOTOPIC_WEIGHT>
313.077264

> <PUBCHEM_TOTAL_CHARGE>
0

> <PUBCHEM_HEAVY_ATOM_COUNT>
22

> <PUBCHEM_ATOM_DEF_STEREO_COUNT>
0

> <PUBCHEM_ATOM_UDEF_STEREO_COUNT>
1

> <PUBCHEM_BOND_DEF_STEREO_COUNT>
0

> <PUBCHEM_BOND_UDEF_STEREO_COUNT>
0

> <PUBCHEM_ISOTOPIC_ATOM_COUNT>
0

> <PUBCHEM_COMPONENT_COUNT>
1

> <PUBCHEM_CACTVS_TAUTO_COUNT>
3

> <PUBCHEM_COORDINATE_TYPE>
1
5
255

> <PUBCHEM_BONDANNOTATIONS>
12  14  8
13  15  8
14  15  8
16  17  8
16  18  8
17  19  8
18  20  8
19  21  8
20  21  8
7  10  3
8  12  8
8  9  8
9  13  8

$$$$

