17396571
  -OEChem-06241222573D

 43 45  0     1  0  0  0  0  0999 V2000
   -6.0720    2.1883    0.7099 F   0  0  0  0  0  0  0  0  0  0  0  0
    3.1466    1.6076   -1.7048 O   0  0  0  0  0  0  0  0  0  0  0  0
   -0.7438   -1.0964    0.0034 N   0  0  0  0  0  0  0  0  0  0  0  0
    2.0029   -0.3121   -0.0047 N   0  0  0  0  0  0  0  0  0  0  0  0
   -0.3496    0.2250   -0.4999 C   0  0  0  0  0  0  0  0  0  0  0  0
    0.3074   -2.0776   -0.2929 C   0  0  0  0  0  0  0  0  0  0  0  0
   -2.0150   -1.5125   -0.5878 C   0  0  2  0  0  0  0  0  0  0  0  0
    0.9515    0.6972    0.1537 C   0  0  0  0  0  0  0  0  0  0  0  0
    1.6296   -1.6823    0.3687 C   0  0  0  0  0  0  0  0  0  0  0  0
   -3.1036   -0.5201   -0.2394 C   0  0  0  0  0  0  0  0  0  0  0  0
    3.3463    0.0599    0.1178 C   0  0  0  0  0  0  0  0  0  0  0  0
   -2.3413   -2.9362   -0.1416 C   0  0  0  0  0  0  0  0  0  0  0  0
   -4.1375   -0.2734   -1.1427 C   0  0  0  0  0  0  0  0  0  0  0  0
   -3.0723    0.1482    0.9845 C   0  0  0  0  0  0  0  0  0  0  0  0
    3.8992    1.0155   -0.7349 C   0  0  0  0  0  0  0  0  0  0  0  0
    4.1341   -0.5339    1.1041 C   0  0  0  0  0  0  0  0  0  0  0  0
   -5.1402    0.6415   -0.8220 C   0  0  0  0  0  0  0  0  0  0  0  0
   -4.0751    1.0634    1.3052 C   0  0  0  0  0  0  0  0  0  0  0  0
    5.2398    1.3771   -0.6011 C   0  0  0  0  0  0  0  0  0  0  0  0
    5.4746   -0.1723    1.2376 C   0  0  0  0  0  0  0  0  0  0  0  0
   -5.1090    1.3100    0.4018 C   0  0  0  0  0  0  0  0  0  0  0  0
    6.0274    0.7831    0.3850 C   0  0  0  0  0  0  0  0  0  0  0  0
   -1.0851    1.0122   -0.3144 H   0  0  0  0  0  0  0  0  0  0  0  0
   -0.2053    0.1879   -1.5891 H   0  0  0  0  0  0  0  0  0  0  0  0
    0.4531   -2.1823   -1.3765 H   0  0  0  0  0  0  0  0  0  0  0  0
    0.0800   -3.0682    0.1121 H   0  0  0  0  0  0  0  0  0  0  0  0
   -1.9155   -1.5270   -1.6834 H   0  0  0  0  0  0  0  0  0  0  0  0
    1.2249    1.6630   -0.2818 H   0  0  0  0  0  0  0  0  0  0  0  0
    0.7865    0.8733    1.2249 H   0  0  0  0  0  0  0  0  0  0  0  0
    1.5281   -1.7588    1.4592 H   0  0  0  0  0  0  0  0  0  0  0  0
    2.3945   -2.3992    0.0436 H   0  0  0  0  0  0  0  0  0  0  0  0
   -2.2383   -3.0627    0.9429 H   0  0  0  0  0  0  0  0  0  0  0  0
   -3.3833   -3.1804   -0.3841 H   0  0  0  0  0  0  0  0  0  0  0  0
   -1.7347   -3.6917   -0.6512 H   0  0  0  0  0  0  0  0  0  0  0  0
   -4.1744   -0.7888   -2.0986 H   0  0  0  0  0  0  0  0  0  0  0  0
   -2.3001   -0.0395    1.7256 H   0  0  0  0  0  0  0  0  0  0  0  0
    3.7388   -1.2679    1.8002 H   0  0  0  0  0  0  0  0  0  0  0  0
   -5.9456    0.8335   -1.5247 H   0  0  0  0  0  0  0  0  0  0  0  0
   -4.0551    1.5794    2.2606 H   0  0  0  0  0  0  0  0  0  0  0  0
    5.6838    2.1203   -1.2580 H   0  0  0  0  0  0  0  0  0  0  0  0
    6.0873   -0.6312    2.0081 H   0  0  0  0  0  0  0  0  0  0  0  0
    7.0709    1.0654    0.4899 H   0  0  0  0  0  0  0  0  0  0  0  0
    3.6990    2.2419   -2.1930 H   0  0  0  0  0  0  0  0  0  0  0  0
  1 21  1  0  0  0  0
  2 15  1  0  0  0  0
  2 43  1  0  0  0  0
  3  5  1  0  0  0  0
  3  6  1  0  0  0  0
  3  7  1  0  0  0  0
  4  8  1  0  0  0  0
  4  9  1  0  0  0  0
  4 11  1  0  0  0  0
  5  8  1  0  0  0  0
  5 23  1  0  0  0  0
  5 24  1  0  0  0  0
  6  9  1  0  0  0  0
  6 25  1  0  0  0  0
  6 26  1  0  0  0  0
  7 10  1  0  0  0  0
  7 12  1  0  0  0  0
  7 27  1  0  0  0  0
  8 28  1  0  0  0  0
  8 29  1  0  0  0  0
  9 30  1  0  0  0  0
  9 31  1  0  0  0  0
 10 13  2  0  0  0  0
 10 14  1  0  0  0  0
 11 15  1  0  0  0  0
 11 16  2  0  0  0  0
 12 32  1  0  0  0  0
 12 33  1  0  0  0  0
 12 34  1  0  0  0  0
 13 17  1  0  0  0  0
 13 35  1  0  0  0  0
 14 18  2  0  0  0  0
 14 36  1  0  0  0  0
 15 19  2  0  0  0  0
 16 20  1  0  0  0  0
 16 37  1  0  0  0  0
 17 21  2  0  0  0  0
 17 38  1  0  0  0  0
 18 21  1  0  0  0  0
 18 39  1  0  0  0  0
 19 22  1  0  0  0  0
 19 40  1  0  0  0  0
 20 22  2  0  0  0  0
 20 41  1  0  0  0  0
 22 42  1  0  0  0  0
M  END
> <PUBCHEM_COMPOUND_CID>
17396571

> <PUBCHEM_CONFORMER_RMSD>
0.6

> <PUBCHEM_CONFORMER_DIVERSEORDER>
1
39
34
20
72
2
50
65
31
45
46
36
54
71
48
55
30
52
68
19
41
51
40
67
57
32
53
27
64
49
38
3
16
62
37
59
22
8
14
33
47
44
58
25
35
56
28
60
29
9
6
42
70
69
4
10
15
21
26
13
17
24
5
18
23
63
66
7
61
11
12
43

> <PUBCHEM_MMFF94_PARTIAL_CHARGES>
30
1 -0.19
10 -0.14
11 0.1
13 -0.15
14 -0.15
15 0.08
16 -0.15
17 -0.15
18 -0.15
19 -0.15
2 -0.53
20 -0.15
21 0.19
22 -0.15
3 -0.81
35 0.15
36 0.15
37 0.15
38 0.15
39 0.15
4 -0.84
40 0.15
41 0.15
42 0.15
43 0.45
5 0.27
6 0.27
7 0.41
8 0.37
9 0.37

> <PUBCHEM_EFFECTIVE_ROTOR_COUNT>
4.2

> <PUBCHEM_PHARMACOPHORE_FEATURES>
6
1 2 donor
1 3 cation
1 4 cation
6 10 13 14 17 18 21 rings
6 11 15 16 19 20 22 rings
6 3 4 5 6 8 9 rings

> <PUBCHEM_HEAVY_ATOM_COUNT>
22

> <PUBCHEM_ATOM_DEF_STEREO_COUNT>
0

> <PUBCHEM_ATOM_UDEF_STEREO_COUNT>
1

> <PUBCHEM_BOND_DEF_STEREO_COUNT>
0

> <PUBCHEM_BOND_UDEF_STEREO_COUNT>
0

> <PUBCHEM_ISOTOPIC_ATOM_COUNT>
0

> <PUBCHEM_COMPONENT_COUNT>
1

> <PUBCHEM_CACTVS_TAUTO_COUNT>
3

> <PUBCHEM_CONFORMER_ID>
0109735B00000001

> <PUBCHEM_MMFF94_ENERGY>
76.5357

> <PUBCHEM_FEATURE_SELFOVERLAP>
30.449

> <PUBCHEM_SHAPE_FINGERPRINT>
10 15 18130497583527313465
11089746 13 18113628871485682616
11370993 144 16487260979735945507
12107183 9 18269282429373848866
12236239 1 18342461417870895554
12422481 6 17917719040768265012
12596602 18 17775563139532264841
12616971 3 17703794691519631126
12633257 1 18343587321766783140
12788726 201 17531523308073838353
13073987 5 18268996376072256922
13583140 156 16486988305363573527
13631057 29 18265904562566502727
13675066 3 16415764132338698486
13785724 45 17910122644277787210
14251764 18 18272933804383408397
14341114 176 16630526250024790044
14573314 32 16298381366421841436
14576447 43 8142085355923428726
14739800 52 17749972040834631858
14790565 3 18340484478605398300
15238133 3 18334857229533724056
15348495 7 16200143270707815465
15788980 27 17203896240698290206
15880784 105 12319446701772251565
1601671 61 18408887330457455308
18222031 100 9655574093482688974
18785283 64 14404321873191541478
19489759 90 17530686497956924587
19784866 9 18343867723218070954
20281389 69 18272657843643974748
20511986 3 18339660961649403104
21298829 104 18262800795717740937
21315759 148 14333415570801509992
21421861 104 17987529267815891490
23402539 116 18040440979394128652
23503953 91 18341899571692446826
235170 7 15068617205799554361
23559900 14 5761352436156553215
23569917 315 18409450288780532183
23596394 208 14779543508814073054
25147074 1 18338817661669257135
2767999 5 18335425676865825721
2838139 119 18187090563278610265
293599 30 18335137600471321643
300161 21 18409173190648353848
312425 54 15841547505275464641
314194 84 8142088680027903100
3472631 163 18260544498381719780
34797466 226 16009034929901156368
350125 39 18267018363354799939
4098825 35 5184356175199727675
465052 167 10231746812394484032
474 4 18343021107564727363
5104073 3 17987525823241044400
5283173 99 16226040132564305896
5385378 56 18264202676725751267
5924683 9 16845000205312063531
6328613 192 18338796703046276784
633830 44 18343300336711567638
7226269 152 18114179735301166328
7970288 3 9799684888060890801
9981440 41 18333730221863370995

> <PUBCHEM_SHAPE_MULTIPOLES>
429.64
14.5
2.13
1.17
3.09
1.03
0.01
-8.35
-1.79
-1.72
0.1
0.1
-0.32
-1.65

> <PUBCHEM_SHAPE_SELFOVERLAP>
920.552

> <PUBCHEM_SHAPE_VOLUME>
238.3

> <PUBCHEM_COORDINATE_TYPE>
2
5
10

$$$$

