8324
  -OEChem-06261202443D

 72 80  0     0  0  0  0  0  0999 V2000
   -2.2179   -1.0061    1.1004 O   0  0  0  0  0  0  0  0  0  0  0  0
    2.2187    1.0129   -1.0888 O   0  0  0  0  0  0  0  0  0  0  0  0
   -5.2777   -1.2947   -0.5484 O   0  0  0  0  0  0  0  0  0  0  0  0
    5.2821    1.2948    0.5516 O   0  0  0  0  0  0  0  0  0  0  0  0
   -9.6865    1.4595    0.6900 O   0  0  0  0  0  0  0  0  0  0  0  0
    9.6831   -1.4632   -0.7061 O   0  0  0  0  0  0  0  0  0  0  0  0
   -3.7273    0.7556   -0.0953 N   0  0  0  0  0  0  0  0  0  0  0  0
    3.7276   -0.7533    0.1019 N   0  0  0  0  0  0  0  0  0  0  0  0
   -1.2663    0.6315   -0.3244 C   0  0  0  0  0  0  0  0  0  0  0  0
    1.2668   -0.6276    0.3326 C   0  0  0  0  0  0  0  0  0  0  0  0
   -0.0955    1.1448   -0.8866 C   0  0  0  0  0  0  0  0  0  0  0  0
    0.0959   -1.1410    0.8944 C   0  0  0  0  0  0  0  0  0  0  0  0
   -2.5078    1.2167   -0.6217 C   0  0  0  0  0  0  0  0  0  0  0  0
    2.5014   -1.2156    0.6327 C   0  0  0  0  0  0  0  0  0  0  0  0
   -1.2133   -0.5299    0.5869 C   0  0  0  0  0  0  0  0  0  0  0  0
    1.2138    0.5342   -0.5784 C   0  0  0  0  0  0  0  0  0  0  0  0
   -6.1899    0.7780    0.1511 C   0  0  0  0  0  0  0  0  0  0  0  0
    6.1894   -0.7787   -0.1520 C   0  0  0  0  0  0  0  0  0  0  0  0
   -4.9420    1.4094    0.2158 C   0  0  0  0  0  0  0  0  0  0  0  0
    4.9336   -1.4048   -0.2111 C   0  0  0  0  0  0  0  0  0  0  0  0
   -7.3477    1.4892    0.4731 C   0  0  0  0  0  0  0  0  0  0  0  0
    7.3453   -1.4910   -0.4783 C   0  0  0  0  0  0  0  0  0  0  0  0
   -0.1594    2.2460   -1.7487 C   0  0  0  0  0  0  0  0  0  0  0  0
    0.1597   -2.2427    1.7560 C   0  0  0  0  0  0  0  0  0  0  0  0
   -2.5601    2.3165   -1.4844 C   0  0  0  0  0  0  0  0  0  0  0  0
    2.5605   -2.3131    1.4920 C   0  0  0  0  0  0  0  0  0  0  0  0
   -6.2704   -0.6389   -0.2587 C   0  0  0  0  0  0  0  0  0  0  0  0
    6.2730    0.6380    0.2583 C   0  0  0  0  0  0  0  0  0  0  0  0
   -7.5935   -1.2928   -0.3226 C   0  0  0  0  0  0  0  0  0  0  0  0
    7.5971    1.2901    0.3184 C   0  0  0  0  0  0  0  0  0  0  0  0
   -8.7514   -0.5815   -0.0008 C   0  0  0  0  0  0  0  0  0  0  0  0
    8.7530    0.5778   -0.0082 C   0  0  0  0  0  0  0  0  0  0  0  0
   -1.3918    2.8288   -2.0450 C   0  0  0  0  0  0  0  0  0  0  0  0
    1.3921   -2.8256    2.0525 C   0  0  0  0  0  0  0  0  0  0  0  0
   -8.6708    0.8355    0.4084 C   0  0  0  0  0  0  0  0  0  0  0  0
    8.6693   -0.8386   -0.4189 C   0  0  0  0  0  0  0  0  0  0  0  0
   -4.8568    2.7474    0.6020 C   0  0  0  0  0  0  0  0  0  0  0  0
    4.8524   -2.7463   -0.5994 C   0  0  0  0  0  0  0  0  0  0  0  0
   -7.2577    2.8316    0.8604 C   0  0  0  0  0  0  0  0  0  0  0  0
    7.2524   -2.8333   -0.8653 C   0  0  0  0  0  0  0  0  0  0  0  0
   -6.0121    3.4569    0.9235 C   0  0  0  0  0  0  0  0  0  0  0  0
    6.0059   -3.4571   -0.9248 C   0  0  0  0  0  0  0  0  0  0  0  0
   -7.6835   -2.6354   -0.7092 C   0  0  0  0  0  0  0  0  0  0  0  0
    7.6901    2.6322    0.7059 C   0  0  0  0  0  0  0  0  0  0  0  0
   -9.9993   -1.2129   -0.0654 C   0  0  0  0  0  0  0  0  0  0  0  0
   10.0019    1.2075    0.0528 C   0  0  0  0  0  0  0  0  0  0  0  0
   -8.9291   -3.2607   -0.7725 C   0  0  0  0  0  0  0  0  0  0  0  0
    8.9366    3.2560    0.7654 C   0  0  0  0  0  0  0  0  0  0  0  0
  -10.0845   -2.5510   -0.4510 C   0  0  0  0  0  0  0  0  0  0  0  0
   10.0901    2.5451    0.4397 C   0  0  0  0  0  0  0  0  0  0  0  0
   -3.7398   -0.2395    0.1019 H   0  0  0  0  0  0  0  0  0  0  0  0
    3.7377    0.2433   -0.0882 H   0  0  0  0  0  0  0  0  0  0  0  0
    0.7353    2.6648   -2.2014 H   0  0  0  0  0  0  0  0  0  0  0  0
   -0.7350   -2.6616    2.2085 H   0  0  0  0  0  0  0  0  0  0  0  0
   -3.5013    2.7782   -1.7710 H   0  0  0  0  0  0  0  0  0  0  0  0
    3.5022   -2.7740    1.7773 H   0  0  0  0  0  0  0  0  0  0  0  0
   -1.4409    3.6780   -2.7205 H   0  0  0  0  0  0  0  0  0  0  0  0
    1.4412   -3.6751    2.7276 H   0  0  0  0  0  0  0  0  0  0  0  0
   -3.9046    3.2616    0.6991 H   0  0  0  0  0  0  0  0  0  0  0  0
    3.8998   -3.2606   -0.6941 H   0  0  0  0  0  0  0  0  0  0  0  0
   -8.1434    3.4061    1.1179 H   0  0  0  0  0  0  0  0  0  0  0  0
    8.1365   -3.4089   -1.1258 H   0  0  0  0  0  0  0  0  0  0  0  0
   -5.9427    4.4961    1.2320 H   0  0  0  0  0  0  0  0  0  0  0  0
    5.9343   -4.4962   -1.2332 H   0  0  0  0  0  0  0  0  0  0  0  0
   -6.7992   -3.2127   -0.9651 H   0  0  0  0  0  0  0  0  0  0  0  0
    6.8073    3.2104    0.9653 H   0  0  0  0  0  0  0  0  0  0  0  0
  -10.9149   -0.6816    0.1799 H   0  0  0  0  0  0  0  0  0  0  0  0
   10.9160    0.6753   -0.1963 H   0  0  0  0  0  0  0  0  0  0  0  0
   -8.9983   -4.3023   -1.0725 H   0  0  0  0  0  0  0  0  0  0  0  0
    9.0081    4.2973    1.0661 H   0  0  0  0  0  0  0  0  0  0  0  0
  -11.0529   -3.0402   -0.5009 H   0  0  0  0  0  0  0  0  0  0  0  0
   11.0594    3.0331    0.4869 H   0  0  0  0  0  0  0  0  0  0  0  0
  1 15  2  0  0  0  0
  2 16  2  0  0  0  0
  3 27  2  0  0  0  0
  4 28  2  0  0  0  0
  5 35  2  0  0  0  0
  6 36  2  0  0  0  0
  7 13  1  0  0  0  0
  7 19  1  0  0  0  0
  7 51  1  0  0  0  0
  8 14  1  0  0  0  0
  8 20  1  0  0  0  0
  8 52  1  0  0  0  0
  9 11  2  0  0  0  0
  9 13  1  0  0  0  0
  9 15  1  0  0  0  0
 10 12  2  0  0  0  0
 10 14  1  0  0  0  0
 10 16  1  0  0  0  0
 11 16  1  0  0  0  0
 11 23  1  0  0  0  0
 12 15  1  0  0  0  0
 12 24  1  0  0  0  0
 13 25  2  0  0  0  0
 14 26  2  0  0  0  0
 17 19  1  0  0  0  0
 17 21  2  0  0  0  0
 17 27  1  0  0  0  0
 18 20  1  0  0  0  0
 18 22  2  0  0  0  0
 18 28  1  0  0  0  0
 19 37  2  0  0  0  0
 20 38  2  0  0  0  0
 21 35  1  0  0  0  0
 21 39  1  0  0  0  0
 22 36  1  0  0  0  0
 22 40  1  0  0  0  0
 23 33  2  0  0  0  0
 23 53  1  0  0  0  0
 24 34  2  0  0  0  0
 24 54  1  0  0  0  0
 25 33  1  0  0  0  0
 25 55  1  0  0  0  0
 26 34  1  0  0  0  0
 26 56  1  0  0  0  0
 27 29  1  0  0  0  0
 28 30  1  0  0  0  0
 29 31  1  0  0  0  0
 29 43  2  0  0  0  0
 30 32  1  0  0  0  0
 30 44  2  0  0  0  0
 31 35  1  0  0  0  0
 31 45  2  0  0  0  0
 32 36  1  0  0  0  0
 32 46  2  0  0  0  0
 33 57  1  0  0  0  0
 34 58  1  0  0  0  0
 37 41  1  0  0  0  0
 37 59  1  0  0  0  0
 38 42  1  0  0  0  0
 38 60  1  0  0  0  0
 39 41  2  0  0  0  0
 39 61  1  0  0  0  0
 40 42  2  0  0  0  0
 40 62  1  0  0  0  0
 41 63  1  0  0  0  0
 42 64  1  0  0  0  0
 43 47  1  0  0  0  0
 43 65  1  0  0  0  0
 44 48  1  0  0  0  0
 44 66  1  0  0  0  0
 45 49  1  0  0  0  0
 45 67  1  0  0  0  0
 46 50  1  0  0  0  0
 46 68  1  0  0  0  0
 47 49  2  0  0  0  0
 47 69  1  0  0  0  0
 48 50  2  0  0  0  0
 48 70  1  0  0  0  0
 49 71  1  0  0  0  0
 50 72  1  0  0  0  0
M  END
> <PUBCHEM_COMPOUND_CID>
8324

> <PUBCHEM_CONFORMER_RMSD>
1

> <PUBCHEM_CONFORMER_DIVERSEORDER>
2
17
18
34
19
16
36
26
39
21
9
37
31
22
1
3
30
33
38
35
20
32
27
29
28
40
23
8
11
14
24
25
13
10
4
15
7
12
5
6

> <PUBCHEM_MMFF94_PARTIAL_CHARGES>
72
1 -0.57
10 0.09
11 0.09
12 0.09
13 0.1
14 0.1
15 0.4
16 0.4
17 0.09
18 0.09
19 0.1
2 -0.57
20 0.1
21 0.09
22 0.09
23 -0.15
24 -0.15
25 -0.15
26 -0.15
27 0.4
28 0.4
29 0.09
3 -0.57
30 0.09
31 0.09
32 0.09
33 -0.15
34 -0.15
35 0.4
36 0.4
37 -0.15
38 -0.15
39 -0.15
4 -0.57
40 -0.15
41 -0.15
42 -0.15
43 -0.15
44 -0.15
45 -0.15
46 -0.15
47 -0.15
48 -0.15
49 -0.15
5 -0.57
50 -0.15
51 0.4
52 0.4
53 0.15
54 0.15
55 0.15
56 0.15
57 0.15
58 0.15
59 0.15
6 -0.57
60 0.15
61 0.15
62 0.15
63 0.15
64 0.15
65 0.15
66 0.15
67 0.15
68 0.15
69 0.15
7 -0.6
70 0.15
71 0.15
72 0.15
8 -0.6
9 0.09

> <PUBCHEM_EFFECTIVE_ROTOR_COUNT>
4

> <PUBCHEM_PHARMACOPHORE_FEATURES>
19
1 1 acceptor
1 2 acceptor
1 3 acceptor
1 4 acceptor
1 5 acceptor
1 6 acceptor
1 7 cation
1 7 donor
1 8 cation
1 8 donor
6 10 12 14 24 26 34 rings
6 17 19 21 37 39 41 rings
6 17 21 27 29 31 35 rings
6 18 20 22 38 40 42 rings
6 18 22 28 30 32 36 rings
6 29 31 43 45 47 49 rings
6 30 32 44 46 48 50 rings
6 9 10 11 12 15 16 rings
6 9 11 13 23 25 33 rings

> <PUBCHEM_HEAVY_ATOM_COUNT>
50

> <PUBCHEM_ATOM_DEF_STEREO_COUNT>
0

> <PUBCHEM_ATOM_UDEF_STEREO_COUNT>
0

> <PUBCHEM_BOND_DEF_STEREO_COUNT>
0

> <PUBCHEM_BOND_UDEF_STEREO_COUNT>
0

> <PUBCHEM_ISOTOPIC_ATOM_COUNT>
0

> <PUBCHEM_COMPONENT_COUNT>
1

> <PUBCHEM_CACTVS_TAUTO_COUNT>
28

> <PUBCHEM_CONFORMER_ID>
0000208400000002

> <PUBCHEM_MMFF94_ENERGY>
206.4573

> <PUBCHEM_FEATURE_SELFOVERLAP>
96.541

> <PUBCHEM_SHAPE_FINGERPRINT>
10580692 12 18335139765134845440
11966995 178 18186516602221460692
12013929 94 18260829272336451183
12082328 90 18260268577435811879
12664476 115 18272086133254715844
13811026 1 18272647939496609682
14017578 135 18341322336931013467
14340393 48 17775279427352164900
14394314 77 18200029676877381565
16067689 302 18333450941856716932
17686467 74 18272930514691784409
21792938 703 18201996578772829043
24771293 8 18272931630655670780
335507 130 18187086135072246319
3418910 222 17676198091665826185
45270241 37 18113333142372574398
5028188 123 18337946899977788118

> <PUBCHEM_SHAPE_MULTIPOLES>
983.8
39.82
4.23
1.29
0.07
0
0
0.01
0.12
-0.02
0.01
0
0.01
-0.01

> <PUBCHEM_SHAPE_SELFOVERLAP>
2287.252

> <PUBCHEM_SHAPE_VOLUME>
492.9

> <PUBCHEM_COORDINATE_TYPE>
2
5
10

$$$$

