17396232
  -OEChem-06241222553D

 51 54  0     0  0  0  0  0  0999 V2000
   -3.3042   -1.0960   -0.0815 O   0  0  0  0  0  0  0  0  0  0  0  0
   -1.6952    1.8710   -1.3928 O   0  0  0  0  0  0  0  0  0  0  0  0
    4.2201    0.4518   -0.8001 O   0  0  0  0  0  0  0  0  0  0  0  0
   -5.2733   -0.0659    0.5878 N   0  0  0  0  0  0  0  0  0  0  0  0
   -1.7627    0.9508    0.7703 N   0  0  0  0  0  0  0  0  0  0  0  0
    2.0149   -0.2076   -1.1044 N   0  0  0  0  0  0  0  0  0  0  0  0
    0.6788    0.0528   -0.9942 N   0  0  0  0  0  0  0  0  0  0  0  0
   -6.1636   -1.1015    0.1475 C   0  0  0  0  0  0  0  0  0  0  0  0
   -6.6353   -1.1652   -1.2758 C   0  0  0  0  0  0  0  0  0  0  0  0
   -7.5974   -0.8056   -0.1817 C   0  0  0  0  0  0  0  0  0  0  0  0
   -3.8966   -0.1512    0.4341 C   0  0  0  0  0  0  0  0  0  0  0  0
   -3.2012    1.0958    0.9352 C   0  0  0  0  0  0  0  0  0  0  0  0
   -1.1698    1.3699   -0.4101 C   0  0  0  0  0  0  0  0  0  0  0  0
    0.3028    1.1871   -0.5021 C   0  0  0  0  0  0  0  0  0  0  0  0
    1.2140    2.2393   -0.0554 C   0  0  0  0  0  0  0  0  0  0  0  0
   -1.0466    0.3595    1.8964 C   0  0  0  0  0  0  0  0  0  0  0  0
    2.5745    1.9738   -0.1605 C   0  0  0  0  0  0  0  0  0  0  0  0
    2.4173   -1.4870   -1.6646 C   0  0  0  0  0  0  0  0  0  0  0  0
    3.0151    0.6788   -0.7123 C   0  0  0  0  0  0  0  0  0  0  0  0
    0.7710    3.4650    0.4470 C   0  0  0  0  0  0  0  0  0  0  0  0
    3.5081    2.9326    0.2469 C   0  0  0  0  0  0  0  0  0  0  0  0
    2.5689   -2.5410   -0.6063 C   0  0  0  0  0  0  0  0  0  0  0  0
    1.7030    4.4209    0.8537 C   0  0  0  0  0  0  0  0  0  0  0  0
    3.0683    4.1551    0.7552 C   0  0  0  0  0  0  0  0  0  0  0  0
    1.4785   -3.3356   -0.2520 C   0  0  0  0  0  0  0  0  0  0  0  0
    3.8003   -2.7262    0.0227 C   0  0  0  0  0  0  0  0  0  0  0  0
    1.6193   -4.3151    0.7311 C   0  0  0  0  0  0  0  0  0  0  0  0
    3.9409   -3.7058    1.0057 C   0  0  0  0  0  0  0  0  0  0  0  0
    2.8503   -4.5003    1.3598 C   0  0  0  0  0  0  0  0  0  0  0  0
   -5.9737   -2.0471    0.6461 H   0  0  0  0  0  0  0  0  0  0  0  0
   -6.7310   -2.1427   -1.7320 H   0  0  0  0  0  0  0  0  0  0  0  0
   -6.3317   -0.3795   -1.9567 H   0  0  0  0  0  0  0  0  0  0  0  0
   -7.9393    0.2208   -0.1303 H   0  0  0  0  0  0  0  0  0  0  0  0
   -8.3419   -1.5412    0.0972 H   0  0  0  0  0  0  0  0  0  0  0  0
   -5.6819    0.7555    1.0256 H   0  0  0  0  0  0  0  0  0  0  0  0
   -3.4398    1.2697    1.9896 H   0  0  0  0  0  0  0  0  0  0  0  0
   -3.5551    1.9491    0.3459 H   0  0  0  0  0  0  0  0  0  0  0  0
   -1.5109   -0.5985    2.1488 H   0  0  0  0  0  0  0  0  0  0  0  0
    0.0100    0.1857    1.6912 H   0  0  0  0  0  0  0  0  0  0  0  0
   -1.1294    1.0372    2.7514 H   0  0  0  0  0  0  0  0  0  0  0  0
    1.6691   -1.7934   -2.4068 H   0  0  0  0  0  0  0  0  0  0  0  0
    3.3587   -1.3741   -2.2168 H   0  0  0  0  0  0  0  0  0  0  0  0
   -0.2862    3.6969    0.5335 H   0  0  0  0  0  0  0  0  0  0  0  0
    4.5765    2.7486    0.1754 H   0  0  0  0  0  0  0  0  0  0  0  0
    1.3639    5.3747    1.2476 H   0  0  0  0  0  0  0  0  0  0  0  0
    3.7903    4.9020    1.0725 H   0  0  0  0  0  0  0  0  0  0  0  0
    0.5135   -3.2001   -0.7332 H   0  0  0  0  0  0  0  0  0  0  0  0
    4.6623   -2.1228   -0.2464 H   0  0  0  0  0  0  0  0  0  0  0  0
    0.7700   -4.9332    1.0073 H   0  0  0  0  0  0  0  0  0  0  0  0
    4.8999   -3.8515    1.4941 H   0  0  0  0  0  0  0  0  0  0  0  0
    2.9600   -5.2632    2.1251 H   0  0  0  0  0  0  0  0  0  0  0  0
  1 11  2  0  0  0  0
  2 13  2  0  0  0  0
  3 19  2  0  0  0  0
  4  8  1  0  0  0  0
  4 11  1  0  0  0  0
  4 35  1  0  0  0  0
  5 12  1  0  0  0  0
  5 13  1  0  0  0  0
  5 16  1  0  0  0  0
  6  7  1  0  0  0  0
  6 18  1  0  0  0  0
  6 19  1  0  0  0  0
  7 14  2  0  0  0  0
  8  9  1  0  0  0  0
  8 10  1  0  0  0  0
  8 30  1  0  0  0  0
  9 10  1  0  0  0  0
  9 31  1  0  0  0  0
  9 32  1  0  0  0  0
 10 33  1  0  0  0  0
 10 34  1  0  0  0  0
 11 12  1  0  0  0  0
 12 36  1  0  0  0  0
 12 37  1  0  0  0  0
 13 14  1  0  0  0  0
 14 15  1  0  0  0  0
 15 17  1  0  0  0  0
 15 20  2  0  0  0  0
 16 38  1  0  0  0  0
 16 39  1  0  0  0  0
 16 40  1  0  0  0  0
 17 19  1  0  0  0  0
 17 21  2  0  0  0  0
 18 22  1  0  0  0  0
 18 41  1  0  0  0  0
 18 42  1  0  0  0  0
 20 23  1  0  0  0  0
 20 43  1  0  0  0  0
 21 24  1  0  0  0  0
 21 44  1  0  0  0  0
 22 25  2  0  0  0  0
 22 26  1  0  0  0  0
 23 24  2  0  0  0  0
 23 45  1  0  0  0  0
 24 46  1  0  0  0  0
 25 27  1  0  0  0  0
 25 47  1  0  0  0  0
 26 28  2  0  0  0  0
 26 48  1  0  0  0  0
 27 29  2  0  0  0  0
 27 49  1  0  0  0  0
 28 29  1  0  0  0  0
 28 50  1  0  0  0  0
 29 51  1  0  0  0  0
M  END
> <PUBCHEM_COMPOUND_CID>
17396232

> <PUBCHEM_CONFORMER_RMSD>
1.2

> <PUBCHEM_CONFORMER_DIVERSEORDER>
1
46
98
57
65
103
18
83
94
14
45
11
54
36
40
71
23
79
93
67
99
68
87
89
17
48
49
82
44
50
77
4
97
104
102
52
30
61
24
26
13
21
86
76
55
25
84
9
66
92
32
80
43
58
51
78
47
91
5
105
70
74
16
27
22
56
75
10
31
88
12
72
42
100
38
41
3
64
28
73
59
34
85
62
20
6
90
63
19
35
69
101
53
95
39
8
33
81
2
60
29
37
7
96
15

> <PUBCHEM_MMFF94_PARTIAL_CHARGES>
44
1 -0.57
10 -0.2
11 0.57
12 0.36
13 0.63
14 0.36
15 0.09
16 0.3
17 0.09
18 0.44
19 0.54
2 -0.57
20 -0.15
21 -0.15
22 -0.14
23 -0.15
24 -0.15
25 -0.15
26 -0.15
27 -0.15
28 -0.15
29 -0.15
3 -0.57
30 0.1
31 0.1
32 0.1
33 0.1
34 0.1
35 0.37
4 -0.58
43 0.15
44 0.15
45 0.15
46 0.15
47 0.15
48 0.15
49 0.15
5 -0.66
50 0.15
51 0.15
6 -0.3
7 -0.51
8 0.05
9 -0.2

> <PUBCHEM_EFFECTIVE_ROTOR_COUNT>
8.6

> <PUBCHEM_PHARMACOPHORE_FEATURES>
8
1 1 acceptor
1 2 acceptor
1 3 acceptor
1 4 donor
1 7 acceptor
6 15 17 20 21 23 24 rings
6 22 25 26 27 28 29 rings
6 6 7 14 15 17 19 rings

> <PUBCHEM_HEAVY_ATOM_COUNT>
29

> <PUBCHEM_ATOM_DEF_STEREO_COUNT>
0

> <PUBCHEM_ATOM_UDEF_STEREO_COUNT>
0

> <PUBCHEM_BOND_DEF_STEREO_COUNT>
0

> <PUBCHEM_BOND_UDEF_STEREO_COUNT>
0

> <PUBCHEM_ISOTOPIC_ATOM_COUNT>
0

> <PUBCHEM_COMPONENT_COUNT>
1

> <PUBCHEM_CACTVS_TAUTO_COUNT>
2

> <PUBCHEM_CONFORMER_ID>
0109720800000001

> <PUBCHEM_MMFF94_ENERGY>
76.315

> <PUBCHEM_FEATURE_SELFOVERLAP>
40.62

> <PUBCHEM_SHAPE_FINGERPRINT>
10074138 170 17181682579723561968
1100329 8 18336827464835424070
11135609 149 18198647551984495783
114674 6 18340480088879439058
11552529 35 17405150016081905482
12107183 9 18045769346693848689
12553582 1 17903902702186649022
12788726 201 17547264054228966938
13140716 1 18193558857299169540
13533116 47 18410853257516963647
1361 2 18266459802388502265
14675020 138 18189908512659293824
14844126 61 17261587890770117586
15001296 14 18262239924496667487
16728300 4 17842874189697973016
17134984 74 18339361856265290567
18681886 176 16877929530185946964
19026451 147 18340207500227715035
19315092 285 18260548939725634889
19427546 62 17976820878743191517
20511986 3 17604436189636603429
20721686 124 18198634245558698858
20775438 99 18199479783535136195
20775530 9 17698985599058010754
21049683 118 17317629590395147696
21285901 2 17632580448596236653
21703447 108 18335141994613788577
23559900 14 18191864522940190305
23845131 108 17832429700453351120
244849 19 18057629688127317821
397830 11 6988027004376943879
4058900 60 18121482584148505640
4073 2 18267297622397209947
463206 1 18198892781353062763
513532 50 17989214715792576699
5309563 4 18265332983558826098
613672 6 17902242439581436407
9777508 108 17471573227012229688

> <PUBCHEM_SHAPE_MULTIPOLES>
559.27
12.18
6.43
1.32
32.57
1.39
0.03
6.94
-1.08
-11.4
2.55
-0.15
0.33
-0.78

> <PUBCHEM_SHAPE_SELFOVERLAP>
1206.531

> <PUBCHEM_SHAPE_VOLUME>
306.2

> <PUBCHEM_COORDINATE_TYPE>
2
5
10

$$$$

