12641
  -OEChem-06261207112D

 23 23  0     0  0  0  0  0  0999 V2000
    3.7320   -0.3170    0.0000 O   0  0  0  0  0  0  0  0  0  0  0  0
    2.0000   -0.3170    0.0000 O   0  0  0  0  0  0  0  0  0  0  0  0
    2.8660   -1.8170    0.0000 N   0  0  0  0  0  0  0  0  0  0  0  0
    2.3660   -2.6830    0.0000 C   0  0  0  0  0  0  0  0  0  0  0  0
    3.3660   -2.6830    0.0000 C   0  0  0  0  0  0  0  0  0  0  0  0
    2.8660   -0.8170    0.0000 C   0  0  0  0  0  0  0  0  0  0  0  0
    4.5981    1.1830    0.0000 C   0  0  0  0  0  0  0  0  0  0  0  0
    3.7320    0.6830    0.0000 C   0  0  0  0  0  0  0  0  0  0  0  0
    4.5981    2.1830    0.0000 C   0  0  0  0  0  0  0  0  0  0  0  0
    5.4641    2.6830    0.0000 C   0  0  0  0  0  0  0  0  0  0  0  0
    1.7834   -2.4710    0.0000 H   0  0  0  0  0  0  0  0  0  0  0  0
    2.2584   -3.2936    0.0000 H   0  0  0  0  0  0  0  0  0  0  0  0
    3.4737   -3.2936    0.0000 H   0  0  0  0  0  0  0  0  0  0  0  0
    3.9486   -2.4710    0.0000 H   0  0  0  0  0  0  0  0  0  0  0  0
    4.8101    0.6004    0.0000 H   0  0  0  0  0  0  0  0  0  0  0  0
    5.2087    1.2907    0.0000 H   0  0  0  0  0  0  0  0  0  0  0  0
    3.5200    1.2656    0.0000 H   0  0  0  0  0  0  0  0  0  0  0  0
    3.1215    0.5754    0.0000 H   0  0  0  0  0  0  0  0  0  0  0  0
    4.3860    2.7656    0.0000 H   0  0  0  0  0  0  0  0  0  0  0  0
    3.9875    2.0753    0.0000 H   0  0  0  0  0  0  0  0  0  0  0  0
    5.7741    2.1461    0.0000 H   0  0  0  0  0  0  0  0  0  0  0  0
    6.0010    2.9930    0.0000 H   0  0  0  0  0  0  0  0  0  0  0  0
    5.1541    3.2200    0.0000 H   0  0  0  0  0  0  0  0  0  0  0  0
  1  6  1  0  0  0  0
  1  8  1  0  0  0  0
  2  6  2  0  0  0  0
  3  4  1  0  0  0  0
  3  5  1  0  0  0  0
  3  6  1  0  0  0  0
  4  5  1  0  0  0  0
  4 11  1  0  0  0  0
  4 12  1  0  0  0  0
  5 13  1  0  0  0  0
  5 14  1  0  0  0  0
  7  8  1  0  0  0  0
  7  9  1  0  0  0  0
  7 15  1  0  0  0  0
  7 16  1  0  0  0  0
  8 17  1  0  0  0  0
  8 18  1  0  0  0  0
  9 10  1  0  0  0  0
  9 19  1  0  0  0  0
  9 20  1  0  0  0  0
 10 21  1  0  0  0  0
 10 22  1  0  0  0  0
 10 23  1  0  0  0  0
M  END
> <PUBCHEM_COMPOUND_CID>
12641

> <PUBCHEM_COMPOUND_CANONICALIZED>
1

> <PUBCHEM_CACTVS_COMPLEXITY>
121

> <PUBCHEM_CACTVS_HBOND_ACCEPTOR>
2

> <PUBCHEM_CACTVS_HBOND_DONOR>
0

> <PUBCHEM_CACTVS_ROTATABLE_BOND>
4

> <PUBCHEM_CACTVS_SUBSKEYS>
AAADccBiMAAAAAAAAAAAAAAAFgAAAAAAAAAAAAAAAAAAAAAAAAAAHgAAAAAACADhgAYCCAMABAAIAAAAGAAAAAAAAAAAAAAIAAAAAAAAAAAIAAAEBgAAAAAAAAAAAAAAAAAAAAAAAAAAAAAAAAAAAAAAAA==

> <PUBCHEM_IUPAC_OPENEYE_NAME>
butyl aziridine-1-carboxylate

> <PUBCHEM_IUPAC_CAS_NAME>
1-aziridinecarboxylic acid butyl ester

> <PUBCHEM_IUPAC_NAME>
butyl aziridine-1-carboxylate

> <PUBCHEM_IUPAC_SYSTEMATIC_NAME>
butyl aziridine-1-carboxylate

> <PUBCHEM_IUPAC_TRADITIONAL_NAME>
ethylenimine-1-carboxylic acid butyl ester

> <PUBCHEM_IUPAC_INCHI>
InChI=1S/C7H13NO2/c1-2-3-6-10-7(9)8-4-5-8/h2-6H2,1H3

> <PUBCHEM_IUPAC_INCHIKEY>
HRCNGTBLBDTIMR-UHFFFAOYSA-N

> <PUBCHEM_XLOGP3_AA>
1.2

> <PUBCHEM_EXACT_MASS>
143.094629

> <PUBCHEM_MOLECULAR_FORMULA>
C7H13NO2

> <PUBCHEM_MOLECULAR_WEIGHT>
143.18362

> <PUBCHEM_OPENEYE_CAN_SMILES>
CCCCOC(=O)N1CC1

> <PUBCHEM_OPENEYE_ISO_SMILES>
CCCCOC(=O)N1CC1

> <PUBCHEM_CACTVS_TPSA>
29.3

> <PUBCHEM_MONOISOTOPIC_WEIGHT>
143.094629

> <PUBCHEM_TOTAL_CHARGE>
0

> <PUBCHEM_HEAVY_ATOM_COUNT>
10

> <PUBCHEM_ATOM_DEF_STEREO_COUNT>
0

> <PUBCHEM_ATOM_UDEF_STEREO_COUNT>
0

> <PUBCHEM_BOND_DEF_STEREO_COUNT>
0

> <PUBCHEM_BOND_UDEF_STEREO_COUNT>
0

> <PUBCHEM_ISOTOPIC_ATOM_COUNT>
0

> <PUBCHEM_COMPONENT_COUNT>
1

> <PUBCHEM_CACTVS_TAUTO_COUNT>
1

> <PUBCHEM_COORDINATE_TYPE>
1
5
255

$$$$

