9187
  -OEChem-06261203292D

 27 30  0     0  0  0  0  0  0999 V2000
    8.0944    0.6570    0.0000 S   0  0  0  0  0  0  0  0  0  0  0  0
    5.5321   -0.0646    0.0000 C   0  0  0  0  0  0  0  0  0  0  0  0
    5.5321   -1.0646    0.0000 C   0  0  0  0  0  0  0  0  0  0  0  0
    6.4260    0.4701    0.0000 C   0  0  0  0  0  0  0  0  0  0  0  0
    3.8000   -0.0646    0.0000 C   0  0  0  0  0  0  0  0  0  0  0  0
    3.8000   -1.0646    0.0000 C   0  0  0  0  0  0  0  0  0  0  0  0
    4.6660    0.4354    0.0000 C   0  0  0  0  0  0  0  0  0  0  0  0
    4.6660   -1.5646    0.0000 C   0  0  0  0  0  0  0  0  0  0  0  0
    7.3321   -0.0438    0.0000 C   0  0  0  0  0  0  0  0  0  0  0  0
    6.4260   -1.5993    0.0000 C   0  0  0  0  0  0  0  0  0  0  0  0
    7.3321   -1.0854    0.0000 C   0  0  0  0  0  0  0  0  0  0  0  0
    6.6361    1.4840    0.0000 C   0  0  0  0  0  0  0  0  0  0  0  0
    2.9061    0.4701    0.0000 C   0  0  0  0  0  0  0  0  0  0  0  0
    2.9061   -1.5993    0.0000 C   0  0  0  0  0  0  0  0  0  0  0  0
    7.6651    1.5993    0.0000 C   0  0  0  0  0  0  0  0  0  0  0  0
    2.0000   -0.0438    0.0000 C   0  0  0  0  0  0  0  0  0  0  0  0
    2.0000   -1.0854    0.0000 C   0  0  0  0  0  0  0  0  0  0  0  0
    4.6660    1.0554    0.0000 H   0  0  0  0  0  0  0  0  0  0  0  0
    4.6660   -2.1846    0.0000 H   0  0  0  0  0  0  0  0  0  0  0  0
    6.4188   -2.2192    0.0000 H   0  0  0  0  0  0  0  0  0  0  0  0
    7.8678   -1.3975    0.0000 H   0  0  0  0  0  0  0  0  0  0  0  0
    6.2185    1.9422    0.0000 H   0  0  0  0  0  0  0  0  0  0  0  0
    2.9132    1.0900    0.0000 H   0  0  0  0  0  0  0  0  0  0  0  0
    2.9132   -2.2192    0.0000 H   0  0  0  0  0  0  0  0  0  0  0  0
    7.9710    2.1386    0.0000 H   0  0  0  0  0  0  0  0  0  0  0  0
    1.4643    0.2683    0.0000 H   0  0  0  0  0  0  0  0  0  0  0  0
    1.4643   -1.3975    0.0000 H   0  0  0  0  0  0  0  0  0  0  0  0
  1  9  1  0  0  0  0
  1 15  1  0  0  0  0
  2  3  1  0  0  0  0
  2  4  1  0  0  0  0
  2  7  2  0  0  0  0
  3  8  2  0  0  0  0
  3 10  1  0  0  0  0
  4  9  2  0  0  0  0
  4 12  1  0  0  0  0
  5  6  1  0  0  0  0
  5  7  1  0  0  0  0
  5 13  2  0  0  0  0
  6  8  1  0  0  0  0
  6 14  2  0  0  0  0
  7 18  1  0  0  0  0
  8 19  1  0  0  0  0
  9 11  1  0  0  0  0
 10 11  2  0  0  0  0
 10 20  1  0  0  0  0
 11 21  1  0  0  0  0
 12 15  2  0  0  0  0
 12 22  1  0  0  0  0
 13 16  1  0  0  0  0
 13 23  1  0  0  0  0
 14 17  1  0  0  0  0
 14 24  1  0  0  0  0
 15 25  1  0  0  0  0
 16 17  2  0  0  0  0
 16 26  1  0  0  0  0
 17 27  1  0  0  0  0
M  END
> <PUBCHEM_COMPOUND_CID>
9187

> <PUBCHEM_COMPOUND_CANONICALIZED>
1

> <PUBCHEM_CACTVS_COMPLEXITY>
287

> <PUBCHEM_CACTVS_HBOND_ACCEPTOR>
1

> <PUBCHEM_CACTVS_HBOND_DONOR>
0

> <PUBCHEM_CACTVS_ROTATABLE_BOND>
0

> <PUBCHEM_CACTVS_SUBSKEYS>
AAADccB4AABAAAAAAAAAAAAAAAAAASAAAAAwYMAAAAAAAEjB9AAAGAQAAAAADACEWACwAcAAAAiEAiBCAAADAIAgCBBIiBgAAIgIICKgERCAIAAggAAoiAcAgMAO0AACgAAUAACgAAUAACgAAAAAAAAAAA==

> <PUBCHEM_IUPAC_OPENEYE_NAME>
naphtho[2,3-e]benzothiophene

> <PUBCHEM_IUPAC_CAS_NAME>
naphtho[2,3-e][1]benzothiole

> <PUBCHEM_IUPAC_NAME>
naphtho[2,3-e][1]benzothiole

> <PUBCHEM_IUPAC_SYSTEMATIC_NAME>
naphtho[2,3-e][1]benzothiole

> <PUBCHEM_IUPAC_TRADITIONAL_NAME>
naphtho[2,3-e]benzothiophene

> <PUBCHEM_IUPAC_INCHI>
InChI=1S/C16H10S/c1-2-4-12-10-15-13(9-11(12)3-1)5-6-16-14(15)7-8-17-16/h1-10H

> <PUBCHEM_IUPAC_INCHIKEY>
PAYSBLPSJQBEJR-UHFFFAOYSA-N

> <PUBCHEM_XLOGP3_AA>
5.4

> <PUBCHEM_EXACT_MASS>
234.050321

> <PUBCHEM_MOLECULAR_FORMULA>
C16H10S

> <PUBCHEM_MOLECULAR_WEIGHT>
234.3156

> <PUBCHEM_OPENEYE_CAN_SMILES>
C1=CC=C2C=C3C(=CC2=C1)C=CC4=C3C=CS4

> <PUBCHEM_OPENEYE_ISO_SMILES>
C1=CC=C2C=C3C(=CC2=C1)C=CC4=C3C=CS4

> <PUBCHEM_CACTVS_TPSA>
28.2

> <PUBCHEM_MONOISOTOPIC_WEIGHT>
234.050321

> <PUBCHEM_TOTAL_CHARGE>
0

> <PUBCHEM_HEAVY_ATOM_COUNT>
17

> <PUBCHEM_ATOM_DEF_STEREO_COUNT>
0

> <PUBCHEM_ATOM_UDEF_STEREO_COUNT>
0

> <PUBCHEM_BOND_DEF_STEREO_COUNT>
0

> <PUBCHEM_BOND_UDEF_STEREO_COUNT>
0

> <PUBCHEM_ISOTOPIC_ATOM_COUNT>
0

> <PUBCHEM_COMPONENT_COUNT>
1

> <PUBCHEM_CACTVS_TAUTO_COUNT>
1

> <PUBCHEM_COORDINATE_TYPE>
1
5
255

> <PUBCHEM_BONDANNOTATIONS>
1  15  8
1  9  8
10  11  8
12  15  8
13  16  8
14  17  8
16  17  8
2  3  8
2  4  8
2  7  8
3  10  8
3  8  8
4  12  8
4  9  8
5  13  8
5  6  8
5  7  8
6  14  8
6  8  8
9  11  8

$$$$

