7313
  -OEChem-06261202003D

 29 28  0     0  0  0  0  0  0999 V2000
   -3.4165    0.1726    0.2578 O   0  0  0  0  0  0  0  0  0  0  0  0
    0.1749    0.0875   -0.5669 N   0  0  0  0  0  0  0  0  0  0  0  0
    0.4307   -1.3193   -0.2604 C   0  0  0  0  0  0  0  0  0  0  0  0
    1.3028    0.9163   -0.1429 C   0  0  0  0  0  0  0  0  0  0  0  0
   -1.0590    0.5350    0.0780 C   0  0  0  0  0  0  0  0  0  0  0  0
    0.5717   -1.5154    1.2464 C   0  0  0  0  0  0  0  0  0  0  0  0
    1.6878   -1.7782   -0.9927 C   0  0  0  0  0  0  0  0  0  0  0  0
    1.4856    0.8276    1.3695 C   0  0  0  0  0  0  0  0  0  0  0  0
    1.0673    2.3578   -0.5828 C   0  0  0  0  0  0  0  0  0  0  0  0
   -2.2451   -0.2838   -0.4059 C   0  0  0  0  0  0  0  0  0  0  0  0
   -0.3655   -1.9577   -0.6539 H   0  0  0  0  0  0  0  0  0  0  0  0
    2.2318    0.6262   -0.6442 H   0  0  0  0  0  0  0  0  0  0  0  0
   -1.2929    1.5632   -0.2235 H   0  0  0  0  0  0  0  0  0  0  0  0
   -1.0921    0.5640    1.1683 H   0  0  0  0  0  0  0  0  0  0  0  0
   -0.1157   -1.0055    1.9206 H   0  0  0  0  0  0  0  0  0  0  0  0
    0.2462   -2.5590    1.4050 H   0  0  0  0  0  0  0  0  0  0  0  0
    1.5936   -1.5916    1.6230 H   0  0  0  0  0  0  0  0  0  0  0  0
    1.6695   -1.4861   -2.0489 H   0  0  0  0  0  0  0  0  0  0  0  0
    1.7436   -2.8736   -0.9681 H   0  0  0  0  0  0  0  0  0  0  0  0
    2.6194   -1.4197   -0.5433 H   0  0  0  0  0  0  0  0  0  0  0  0
    1.9818    1.7684    1.6646 H   0  0  0  0  0  0  0  0  0  0  0  0
    0.6203    0.8527    2.0294 H   0  0  0  0  0  0  0  0  0  0  0  0
    2.2582    0.1207    1.6754 H   0  0  0  0  0  0  0  0  0  0  0  0
    0.7556    2.4139   -1.6321 H   0  0  0  0  0  0  0  0  0  0  0  0
    2.0010    2.9274   -0.4997 H   0  0  0  0  0  0  0  0  0  0  0  0
    0.3312    2.8851    0.0330 H   0  0  0  0  0  0  0  0  0  0  0  0
   -2.1741   -1.3438   -0.1562 H   0  0  0  0  0  0  0  0  0  0  0  0
   -2.3910   -0.1766   -1.4860 H   0  0  0  0  0  0  0  0  0  0  0  0
   -4.1617   -0.3512   -0.0829 H   0  0  0  0  0  0  0  0  0  0  0  0
  1 10  1  0  0  0  0
  1 29  1  0  0  0  0
  2  3  1  0  0  0  0
  2  4  1  0  0  0  0
  2  5  1  0  0  0  0
  3  6  1  0  0  0  0
  3  7  1  0  0  0  0
  3 11  1  0  0  0  0
  4  8  1  0  0  0  0
  4  9  1  0  0  0  0
  4 12  1  0  0  0  0
  5 10  1  0  0  0  0
  5 13  1  0  0  0  0
  5 14  1  0  0  0  0
  6 15  1  0  0  0  0
  6 16  1  0  0  0  0
  6 17  1  0  0  0  0
  7 18  1  0  0  0  0
  7 19  1  0  0  0  0
  7 20  1  0  0  0  0
  8 21  1  0  0  0  0
  8 22  1  0  0  0  0
  8 23  1  0  0  0  0
  9 24  1  0  0  0  0
  9 25  1  0  0  0  0
  9 26  1  0  0  0  0
 10 27  1  0  0  0  0
 10 28  1  0  0  0  0
M  END
> <PUBCHEM_COMPOUND_CID>
7313

> <PUBCHEM_CONFORMER_RMSD>
0.6

> <PUBCHEM_CONFORMER_DIVERSEORDER>
1
2

> <PUBCHEM_MMFF94_PARTIAL_CHARGES>
7
1 -0.68
10 0.28
2 -0.81
29 0.4
3 0.27
4 0.27
5 0.27

> <PUBCHEM_EFFECTIVE_ROTOR_COUNT>
4

> <PUBCHEM_PHARMACOPHORE_FEATURES>
5
1 1 acceptor
1 1 donor
1 2 cation
3 3 6 7 hydrophobe
3 4 8 9 hydrophobe

> <PUBCHEM_HEAVY_ATOM_COUNT>
10

> <PUBCHEM_ATOM_DEF_STEREO_COUNT>
0

> <PUBCHEM_ATOM_UDEF_STEREO_COUNT>
0

> <PUBCHEM_BOND_DEF_STEREO_COUNT>
0

> <PUBCHEM_BOND_UDEF_STEREO_COUNT>
0

> <PUBCHEM_ISOTOPIC_ATOM_COUNT>
0

> <PUBCHEM_COMPONENT_COUNT>
1

> <PUBCHEM_CACTVS_TAUTO_COUNT>
1

> <PUBCHEM_CONFORMER_ID>
00001C9100000001

> <PUBCHEM_MMFF94_ENERGY>
44.0319

> <PUBCHEM_FEATURE_SELFOVERLAP>
25.373

> <PUBCHEM_SHAPE_FINGERPRINT>
12423570 1 6838926655269133006
137420 1 15044366141303678998
14128692 85 17895184575468421014
161256 15 18264492964911744388
16945 1 18335686244041628476
19837323 101 17545026113911093348
20653091 64 18338228383686779897
20711985 344 17473548426336073415
21040471 1 17974293122869050892
21524375 3 17980768142555617141
23235685 24 18339082562298048620
23552449 11 18269848647622736907
241688 4 18122617524955504000
5084963 1 18195829374168822057

> <PUBCHEM_SHAPE_MULTIPOLES>
194.94
3.01
2.15
1.16
3.69
0.27
-0.3
0.25
-0.04
-1.45
0.37
-0.53
-0.21
0.16

> <PUBCHEM_SHAPE_SELFOVERLAP>
360.914

> <PUBCHEM_SHAPE_VOLUME>
125.8

> <PUBCHEM_COORDINATE_TYPE>
2
5
10

$$$$

