6284
  -OEChem-06261201132D

 60 60  0     0  0  0  0  0  0999 V2000
    3.2200    0.0000    0.0000 I   0  5  0  0  0  0  0  0  0  0  0  0
    6.0369    6.9860    0.0000 O   0  0  0  0  0  0  0  0  0  0  0  0
    2.0369    6.9860    0.0000 N   0  3  0  0  0  0  0  0  0  0  0  0
    6.4030    5.6200    0.0000 N   0  0  0  0  0  0  0  0  0  0  0  0
    3.0369    6.9860    0.0000 C   0  0  0  0  0  0  0  0  0  0  0  0
    1.0369    6.9860    0.0000 C   0  0  0  0  0  0  0  0  0  0  0  0
    2.0369    7.9860    0.0000 C   0  0  0  0  0  0  0  0  0  0  0  0
    3.5369    6.1200    0.0000 C   0  0  0  0  0  0  0  0  0  0  0  0
    2.0369    5.9860    0.0000 C   0  0  0  0  0  0  0  0  0  0  0  0
    4.5369    6.1200    0.0000 C   0  0  0  0  0  0  0  0  0  0  0  0
    0.5369    7.8520    0.0000 C   0  0  0  0  0  0  0  0  0  0  0  0
    0.5369    6.1200    0.0000 C   0  0  0  0  0  0  0  0  0  0  0  0
    1.1709    8.4860    0.0000 C   0  0  0  0  0  0  0  0  0  0  0  0
    2.9030    8.4860    0.0000 C   0  0  0  0  0  0  0  0  0  0  0  0
    4.5369    5.1200    0.0000 C   0  0  0  0  0  0  0  0  0  0  0  0
    4.5369    7.1200    0.0000 C   0  0  0  0  0  0  0  0  0  0  0  0
    5.5369    6.1200    0.0000 C   0  0  0  0  0  0  0  0  0  0  0  0
    5.4030    7.6200    0.0000 C   0  0  0  0  0  0  0  0  0  0  0  0
    3.6709    4.6200    0.0000 C   0  0  0  0  0  0  0  0  0  0  0  0
    3.6709    7.6200    0.0000 C   0  0  0  0  0  0  0  0  0  0  0  0
    5.4030    4.6200    0.0000 C   0  0  0  0  0  0  0  0  0  0  0  0
    5.4030    8.6200    0.0000 C   0  0  0  0  0  0  0  0  0  0  0  0
    3.6709    3.6200    0.0000 C   0  0  0  0  0  0  0  0  0  0  0  0
    3.6709    8.6200    0.0000 C   0  0  0  0  0  0  0  0  0  0  0  0
    5.4030    3.6200    0.0000 C   0  0  0  0  0  0  0  0  0  0  0  0
    4.5369    9.1200    0.0000 C   0  0  0  0  0  0  0  0  0  0  0  0
    4.5369    3.1200    0.0000 C   0  0  0  0  0  0  0  0  0  0  0  0
    3.6196    7.1981    0.0000 H   0  0  0  0  0  0  0  0  0  0  0  0
    2.9293    7.5966    0.0000 H   0  0  0  0  0  0  0  0  0  0  0  0
    1.3469    6.4491    0.0000 H   0  0  0  0  0  0  0  0  0  0  0  0
    2.0369    8.6060    0.0000 H   0  0  0  0  0  0  0  0  0  0  0  0
    2.9543    5.9079    0.0000 H   0  0  0  0  0  0  0  0  0  0  0  0
    3.6446    5.5094    0.0000 H   0  0  0  0  0  0  0  0  0  0  0  0
    1.4169    5.9860    0.0000 H   0  0  0  0  0  0  0  0  0  0  0  0
    2.0369    5.3660    0.0000 H   0  0  0  0  0  0  0  0  0  0  0  0
    2.6569    5.9860    0.0000 H   0  0  0  0  0  0  0  0  0  0  0  0
    3.2130    7.9491    0.0000 H   0  0  0  0  0  0  0  0  0  0  0  0
    3.4399    8.7960    0.0000 H   0  0  0  0  0  0  0  0  0  0  0  0
    2.5930    9.0230    0.0000 H   0  0  0  0  0  0  0  0  0  0  0  0
    1.4809    9.0230    0.0000 H   0  0  0  0  0  0  0  0  0  0  0  0
    0.6340    8.7960    0.0000 H   0  0  0  0  0  0  0  0  0  0  0  0
    0.8609    7.9491    0.0000 H   0  0  0  0  0  0  0  0  0  0  0  0
    0.0000    6.4300    0.0000 H   0  0  0  0  0  0  0  0  0  0  0  0
    0.2269    5.5831    0.0000 H   0  0  0  0  0  0  0  0  0  0  0  0
    1.0739    5.8100    0.0000 H   0  0  0  0  0  0  0  0  0  0  0  0
    1.0739    8.1620    0.0000 H   0  0  0  0  0  0  0  0  0  0  0  0
    0.2269    8.3890    0.0000 H   0  0  0  0  0  0  0  0  0  0  0  0
    0.0000    7.5420    0.0000 H   0  0  0  0  0  0  0  0  0  0  0  0
    5.9399    7.3100    0.0000 H   0  0  0  0  0  0  0  0  0  0  0  0
    3.1340    4.9300    0.0000 H   0  0  0  0  0  0  0  0  0  0  0  0
    3.1340    7.3100    0.0000 H   0  0  0  0  0  0  0  0  0  0  0  0
    5.9399    4.9300    0.0000 H   0  0  0  0  0  0  0  0  0  0  0  0
    6.9399    5.9300    0.0000 H   0  0  0  0  0  0  0  0  0  0  0  0
    6.4030    5.0000    0.0000 H   0  0  0  0  0  0  0  0  0  0  0  0
    5.9399    8.9300    0.0000 H   0  0  0  0  0  0  0  0  0  0  0  0
    3.1340    3.3100    0.0000 H   0  0  0  0  0  0  0  0  0  0  0  0
    3.1340    8.9300    0.0000 H   0  0  0  0  0  0  0  0  0  0  0  0
    5.9399    3.3100    0.0000 H   0  0  0  0  0  0  0  0  0  0  0  0
    4.5369    9.7400    0.0000 H   0  0  0  0  0  0  0  0  0  0  0  0
    4.5369    2.5000    0.0000 H   0  0  0  0  0  0  0  0  0  0  0  0
  2 17  2  0  0  0  0
  3  5  1  0  0  0  0
  3  6  1  0  0  0  0
  3  7  1  0  0  0  0
  3  9  1  0  0  0  0
  4 17  1  0  0  0  0
  4 53  1  0  0  0  0
  4 54  1  0  0  0  0
  5  8  1  0  0  0  0
  5 28  1  0  0  0  0
  5 29  1  0  0  0  0
  6 11  1  0  0  0  0
  6 12  1  0  0  0  0
  6 30  1  0  0  0  0
  7 13  1  0  0  0  0
  7 14  1  0  0  0  0
  7 31  1  0  0  0  0
  8 10  1  0  0  0  0
  8 32  1  0  0  0  0
  8 33  1  0  0  0  0
  9 34  1  0  0  0  0
  9 35  1  0  0  0  0
  9 36  1  0  0  0  0
 10 15  1  0  0  0  0
 10 16  1  0  0  0  0
 10 17  1  0  0  0  0
 11 46  1  0  0  0  0
 11 47  1  0  0  0  0
 11 48  1  0  0  0  0
 12 43  1  0  0  0  0
 12 44  1  0  0  0  0
 12 45  1  0  0  0  0
 13 40  1  0  0  0  0
 13 41  1  0  0  0  0
 13 42  1  0  0  0  0
 14 37  1  0  0  0  0
 14 38  1  0  0  0  0
 14 39  1  0  0  0  0
 15 19  2  0  0  0  0
 15 21  1  0  0  0  0
 16 18  2  0  0  0  0
 16 20  1  0  0  0  0
 18 22  1  0  0  0  0
 18 49  1  0  0  0  0
 19 23  1  0  0  0  0
 19 50  1  0  0  0  0
 20 24  2  0  0  0  0
 20 51  1  0  0  0  0
 21 25  2  0  0  0  0
 21 52  1  0  0  0  0
 22 26  2  0  0  0  0
 22 55  1  0  0  0  0
 23 27  2  0  0  0  0
 23 56  1  0  0  0  0
 24 26  1  0  0  0  0
 24 57  1  0  0  0  0
 25 27  1  0  0  0  0
 25 58  1  0  0  0  0
 26 59  1  0  0  0  0
 27 60  1  0  0  0  0
M  CHG  2   1  -1   3   1
M  END
> <PUBCHEM_COMPOUND_CID>
6284

> <PUBCHEM_COMPOUND_CANONICALIZED>
1

> <PUBCHEM_CACTVS_COMPLEXITY>
419

> <PUBCHEM_CACTVS_HBOND_ACCEPTOR>
2

> <PUBCHEM_CACTVS_HBOND_DONOR>
1

> <PUBCHEM_CACTVS_ROTATABLE_BOND>
8

> <PUBCHEM_CACTVS_SUBSKEYS>
AAADcfB7IAAAAgAAAAAAAAAAAAAAAAAAAAAwYAAAAAAAAAABQAAAHgAQAAAADijBmAQyAINAAACIAiFSEAACAAAgAAAIiAEIAIgIIDKAlRGEIAAggACIiAcciMCPgAAAAAAAAAAAAAAAAAAAAAAAAAAAAA==

> <PUBCHEM_IUPAC_OPENEYE_NAME>
(4-amino-4-oxo-3,3-diphenyl-butyl)-diisopropyl-methyl-ammonium iodide

> <PUBCHEM_IUPAC_CAS_NAME>
(4-amino-4-oxo-3,3-diphenylbutyl)-methyl-di(propan-2-yl)ammonium iodide

> <PUBCHEM_IUPAC_NAME>
(4-amino-4-oxo-3,3-diphenylbutyl)-methyl-di(propan-2-yl)azanium iodide

> <PUBCHEM_IUPAC_SYSTEMATIC_NAME>
(4-azanyl-4-oxidanylidene-3,3-diphenyl-butyl)-methyl-di(propan-2-yl)azanium iodide

> <PUBCHEM_IUPAC_TRADITIONAL_NAME>
(4-amino-4-keto-3,3-diphenyl-butyl)-diisopropyl-methyl-ammonium iodide

> <PUBCHEM_IUPAC_INCHI>
InChI=1S/C23H32N2O.HI/c1-18(2)25(5,19(3)4)17-16-23(22(24)26,20-12-8-6-9-13-20)21-14-10-7-11-15-21;/h6-15,18-19H,16-17H2,1-5H3,(H-,24,26);1H

> <PUBCHEM_IUPAC_INCHIKEY>
BFSMWENDZZIWPW-UHFFFAOYSA-N

> <PUBCHEM_EXACT_MASS>
480.163762

> <PUBCHEM_MOLECULAR_FORMULA>
C23H33IN2O

> <PUBCHEM_MOLECULAR_WEIGHT>
480.42539

> <PUBCHEM_OPENEYE_CAN_SMILES>
CC(C)[N+](C)(CCC(C1=CC=CC=C1)(C2=CC=CC=C2)C(=O)N)C(C)C.[I-]

> <PUBCHEM_OPENEYE_ISO_SMILES>
CC(C)[N+](C)(CCC(C1=CC=CC=C1)(C2=CC=CC=C2)C(=O)N)C(C)C.[I-]

> <PUBCHEM_CACTVS_TPSA>
43.1

> <PUBCHEM_MONOISOTOPIC_WEIGHT>
480.163762

> <PUBCHEM_TOTAL_CHARGE>
0

> <PUBCHEM_HEAVY_ATOM_COUNT>
27

> <PUBCHEM_ATOM_DEF_STEREO_COUNT>
0

> <PUBCHEM_ATOM_UDEF_STEREO_COUNT>
0

> <PUBCHEM_BOND_DEF_STEREO_COUNT>
0

> <PUBCHEM_BOND_UDEF_STEREO_COUNT>
0

> <PUBCHEM_ISOTOPIC_ATOM_COUNT>
0

> <PUBCHEM_COMPONENT_COUNT>
2

> <PUBCHEM_CACTVS_TAUTO_COUNT>
2

> <PUBCHEM_COORDINATE_TYPE>
1
5
255

> <PUBCHEM_BONDANNOTATIONS>
15  19  8
15  21  8
16  18  8
16  20  8
18  22  8
19  23  8
20  24  8
21  25  8
22  26  8
23  27  8
24  26  8
25  27  8

$$$$

