9687
  -OEChem-06261203562D

 56 59  0     1  0  0  0  0  0999 V2000
    3.3100   -1.5724    0.0000 P   0  0  3  0  0  0  0  0  0  0  0  0
    5.9883   -2.8772    0.0000 O   0  0  0  0  0  0  0  0  0  0  0  0
    4.1760   -1.0724    0.0000 O   0  0  0  0  0  0  0  0  0  0  0  0
    6.2989   -0.3172    0.0000 O   0  0  0  0  0  0  0  0  0  0  0  0
    3.3100   -2.5724    0.0000 O   0  0  0  0  0  0  0  0  0  0  0  0
    2.3100   -1.5724    0.0000 O   0  0  0  0  0  0  0  0  0  0  0  0
    2.8100   -0.7064    0.0000 O   0  0  0  0  0  0  0  0  0  0  0  0
    4.6526    0.2209    0.0000 O   0  0  0  0  0  0  0  0  0  0  0  0
   11.3389    0.4252    0.0000 O   0  0  0  0  0  0  0  0  0  0  0  0
    7.5719   -2.0724    0.0000 N   0  0  0  0  0  0  0  0  0  0  0  0
    9.1017   -2.5724    0.0000 N   0  0  0  0  0  0  0  0  0  0  0  0
    7.9493   -0.2892    0.0000 N   0  0  0  0  0  0  0  0  0  0  0  0
    9.6441    0.0680    0.0000 N   0  0  0  0  0  0  0  0  0  0  0  0
   10.8008   -1.2212    0.0000 N   0  0  0  0  0  0  0  0  0  0  0  0
    5.0420   -1.5724    0.0000 C   0  0  1  0  0  0  0  0  0  0  0  0
    5.9883   -1.2677    0.0000 C   0  0  2  0  0  0  0  0  0  0  0  0
    5.0420   -2.5724    0.0000 C   0  0  1  0  0  0  0  0  0  0  0  0
    6.5719   -2.0724    0.0000 C   0  0  1  0  0  0  0  0  0  0  0  0
    4.1760   -3.0724    0.0000 C   0  0  0  0  0  0  0  0  0  0  0  0
    8.1555   -1.2677    0.0000 C   0  0  0  0  0  0  0  0  0  0  0  0
    8.1555   -2.8772    0.0000 C   0  0  0  0  0  0  0  0  0  0  0  0
    9.1060   -1.5784    0.0000 C   0  0  0  0  0  0  0  0  0  0  0  0
    5.6311    0.4271    0.0000 C   0  0  0  0  0  0  0  0  0  0  0  0
    5.9418    1.3776    0.0000 C   0  0  0  0  0  0  0  0  0  0  0  0
    9.8503   -0.9105    0.0000 C   0  0  0  0  0  0  0  0  0  0  0  0
    5.2739    2.1219    0.0000 C   0  0  0  0  0  0  0  0  0  0  0  0
    8.6936    0.3786    0.0000 C   0  0  0  0  0  0  0  0  0  0  0  0
    5.5846    3.0724    0.0000 C   0  0  0  0  0  0  0  0  0  0  0  0
   11.5451   -0.5534    0.0000 C   0  0  0  0  0  0  0  0  0  0  0  0
   12.4957   -0.8640    0.0000 C   0  0  0  0  0  0  0  0  0  0  0  0
   13.2400   -0.1962    0.0000 C   0  0  0  0  0  0  0  0  0  0  0  0
   14.1905   -0.5068    0.0000 C   0  0  0  0  0  0  0  0  0  0  0  0
    5.1320   -0.7272    0.0000 H   0  0  0  0  0  0  0  0  0  0  0  0
    6.6008   -1.1715    0.0000 H   0  0  0  0  0  0  0  0  0  0  0  0
    5.1320   -3.4177    0.0000 H   0  0  0  0  0  0  0  0  0  0  0  0
    6.8536   -2.6248    0.0000 H   0  0  0  0  0  0  0  0  0  0  0  0
    3.7775   -3.5474    0.0000 H   0  0  0  0  0  0  0  0  0  0  0  0
    4.5746   -3.5474    0.0000 H   0  0  0  0  0  0  0  0  0  0  0  0
    7.9629   -3.4665    0.0000 H   0  0  0  0  0  0  0  0  0  0  0  0
    2.0000   -2.1094    0.0000 H   0  0  0  0  0  0  0  0  0  0  0  0
    6.4887    1.0856    0.0000 H   0  0  0  0  0  0  0  0  0  0  0  0
    6.3243    1.8655    0.0000 H   0  0  0  0  0  0  0  0  0  0  0  0
    4.7270    2.4140    0.0000 H   0  0  0  0  0  0  0  0  0  0  0  0
    4.8914    1.6340    0.0000 H   0  0  0  0  0  0  0  0  0  0  0  0
    8.5657    0.9853    0.0000 H   0  0  0  0  0  0  0  0  0  0  0  0
   10.9287   -1.8279    0.0000 H   0  0  0  0  0  0  0  0  0  0  0  0
    6.1739    2.8798    0.0000 H   0  0  0  0  0  0  0  0  0  0  0  0
    5.7772    3.6618    0.0000 H   0  0  0  0  0  0  0  0  0  0  0  0
    4.9953    3.2651    0.0000 H   0  0  0  0  0  0  0  0  0  0  0  0
   12.2036   -1.4109    0.0000 H   0  0  0  0  0  0  0  0  0  0  0  0
   12.9836   -1.2466    0.0000 H   0  0  0  0  0  0  0  0  0  0  0  0
   13.5320    0.3508    0.0000 H   0  0  0  0  0  0  0  0  0  0  0  0
   12.7520    0.1864    0.0000 H   0  0  0  0  0  0  0  0  0  0  0  0
   13.9979   -1.0962    0.0000 H   0  0  0  0  0  0  0  0  0  0  0  0
   14.7798   -0.6994    0.0000 H   0  0  0  0  0  0  0  0  0  0  0  0
   14.3831    0.0825    0.0000 H   0  0  0  0  0  0  0  0  0  0  0  0
  1  3  1  0  0  0  0
  1  5  1  0  0  0  0
  1  6  1  0  0  0  0
  1  7  2  0  0  0  0
  2 17  1  0  0  0  0
  2 18  1  0  0  0  0
  3 15  1  0  0  0  0
 16  4  1  1  0  0  0
  4 23  1  0  0  0  0
  5 19  1  0  0  0  0
  6 40  1  0  0  0  0
  8 23  2  0  0  0  0
  9 29  2  0  0  0  0
 18 10  1  6  0  0  0
 10 20  1  0  0  0  0
 10 21  1  0  0  0  0
 11 21  2  0  0  0  0
 11 22  1  0  0  0  0
 12 20  2  0  0  0  0
 12 27  1  0  0  0  0
 13 25  1  0  0  0  0
 13 27  2  0  0  0  0
 14 25  1  0  0  0  0
 14 29  1  0  0  0  0
 14 46  1  0  0  0  0
 15 16  1  0  0  0  0
 15 17  1  0  0  0  0
 15 33  1  6  0  0  0
 16 18  1  0  0  0  0
 16 34  1  0  0  0  0
 17 19  1  0  0  0  0
 17 35  1  1  0  0  0
 18 36  1  0  0  0  0
 19 37  1  0  0  0  0
 19 38  1  0  0  0  0
 20 22  1  0  0  0  0
 21 39  1  0  0  0  0
 22 25  2  0  0  0  0
 23 24  1  0  0  0  0
 24 26  1  0  0  0  0
 24 41  1  0  0  0  0
 24 42  1  0  0  0  0
 26 28  1  0  0  0  0
 26 43  1  0  0  0  0
 26 44  1  0  0  0  0
 27 45  1  0  0  0  0
 28 47  1  0  0  0  0
 28 48  1  0  0  0  0
 28 49  1  0  0  0  0
 29 30  1  0  0  0  0
 30 31  1  0  0  0  0
 30 50  1  0  0  0  0
 30 51  1  0  0  0  0
 31 32  1  0  0  0  0
 31 52  1  0  0  0  0
 31 53  1  0  0  0  0
 32 54  1  0  0  0  0
 32 55  1  0  0  0  0
 32 56  1  0  0  0  0
M  END
> <PUBCHEM_COMPOUND_CID>
9687

> <PUBCHEM_COMPOUND_CANONICALIZED>
1

> <PUBCHEM_CACTVS_COMPLEXITY>
759

> <PUBCHEM_CACTVS_HBOND_ACCEPTOR>
11

> <PUBCHEM_CACTVS_HBOND_DONOR>
2

> <PUBCHEM_CACTVS_ROTATABLE_BOND>
8

> <PUBCHEM_CACTVS_SUBSKEYS>
AAADceB7vAIAAAAAAAAAAAAAAAAAAWJAAAAsSAAAAAAAAFgB+AAAHgAQCCAACBzhlwYH+L/MFRCoQQfxfICAgC0REKABUCEoVBCDSBJAyEAfBAgPFQLSACDwMAIAAAAAAAAAAAAAAAAAAAAAAAAAAAAAAA==

> <PUBCHEM_IUPAC_OPENEYE_NAME>
[(4aR,6R,7R,7aR)-6-[6-(butanoylamino)purin-9-yl]-2-hydroxy-2-oxo-4a,6,7,7a-tetrahydro-4H-furo[3,2-d][1,3,2]dioxaphosphinin-7-yl] butanoate

> <PUBCHEM_IUPAC_CAS_NAME>
butanoic acid [(4aR,6R,7R,7aR)-2-hydroxy-2-oxo-6-[6-(1-oxobutylamino)-9-purinyl]-4a,6,7,7a-tetrahydro-4H-furo[3,2-d][1,3,2]dioxaphosphorin-7-yl] ester

> <PUBCHEM_IUPAC_NAME>
[(4aR,6R,7R,7aR)-6-[6-(butanoylamino)purin-9-yl]-2-hydroxy-2-oxo-4a,6,7,7a-tetrahydro-4H-furo[3,2-d][1,3,2]dioxaphosphinin-7-yl] butanoate

> <PUBCHEM_IUPAC_SYSTEMATIC_NAME>
[(4aR,6R,7R,7aR)-6-[6-(butanoylamino)purin-9-yl]-2-oxidanyl-2-oxidanylidene-4a,6,7,7a-tetrahydro-4H-furo[3,2-d][1,3,2]dioxaphosphinin-7-yl] butanoate

> <PUBCHEM_IUPAC_TRADITIONAL_NAME>
butyric acid [(4aR,6R,7R,7aR)-6-(6-butyramidopurin-9-yl)-2-hydroxy-2-keto-4a,6,7,7a-tetrahydro-4H-furo[3,2-d][1,3,2]dioxaphosphorin-7-yl] ester

> <PUBCHEM_IUPAC_INCHI>
InChI=1S/C18H24N5O8P/c1-3-5-11(24)22-16-13-17(20-8-19-16)23(9-21-13)18-15(30-12(25)6-4-2)14-10(29-18)7-28-32(26,27)31-14/h8-10,14-15,18H,3-7H2,1-2H3,(H,26,27)(H,19,20,22,24)/t10-,14-,15-,18-/m1/s1

> <PUBCHEM_IUPAC_INCHIKEY>
CJGYSWNGNKCJSB-YVLZZHOMSA-N

> <PUBCHEM_XLOGP3_AA>
-0.5

> <PUBCHEM_EXACT_MASS>
469.136249

> <PUBCHEM_MOLECULAR_FORMULA>
C18H24N5O8P

> <PUBCHEM_MOLECULAR_WEIGHT>
469.385622

> <PUBCHEM_OPENEYE_CAN_SMILES>
CCCC(=O)NC1=NC=NC2=C1N=CN2C3C(C4C(O3)COP(=O)(O4)O)OC(=O)CCC

> <PUBCHEM_OPENEYE_ISO_SMILES>
CCCC(=O)NC1=NC=NC2=C1N=CN2[C@H]3[C@@H]([C@H]4[C@H](O3)COP(=O)(O4)O)OC(=O)CCC

> <PUBCHEM_CACTVS_TPSA>
164

> <PUBCHEM_MONOISOTOPIC_WEIGHT>
469.136249

> <PUBCHEM_TOTAL_CHARGE>
0

> <PUBCHEM_HEAVY_ATOM_COUNT>
32

> <PUBCHEM_ATOM_DEF_STEREO_COUNT>
4

> <PUBCHEM_ATOM_UDEF_STEREO_COUNT>
0

> <PUBCHEM_BOND_DEF_STEREO_COUNT>
0

> <PUBCHEM_BOND_UDEF_STEREO_COUNT>
0

> <PUBCHEM_ISOTOPIC_ATOM_COUNT>
0

> <PUBCHEM_COMPONENT_COUNT>
1

> <PUBCHEM_CACTVS_TAUTO_COUNT>
7

> <PUBCHEM_COORDINATE_TYPE>
1
5
255

> <PUBCHEM_BONDANNOTATIONS>
18  10  6
10  20  8
10  21  8
11  21  8
11  22  8
12  20  8
12  27  8
13  25  8
13  27  8
15  33  6
17  35  5
20  22  8
22  25  8
16  4  5

$$$$

