17396195
  -OEChem-06241222553D

 44 46  0     1  0  0  0  0  0999 V2000
    7.2335   -1.7012   -1.1737 F   0  0  0  0  0  0  0  0  0  0  0  0
    5.8987   -2.6499    0.2573 F   0  0  0  0  0  0  0  0  0  0  0  0
   -3.7219    1.7149   -2.1603 O   0  0  0  0  0  0  0  0  0  0  0  0
   -0.5901    0.1511    0.3962 O   0  0  0  0  0  0  0  0  0  0  0  0
    5.9000   -0.3932    0.0697 O   0  0  0  0  0  0  0  0  0  0  0  0
   -3.5216    1.3104    0.1466 N   0  0  0  0  0  0  0  0  0  0  0  0
    0.8811    1.9873    0.4159 N   0  0  0  0  0  0  0  0  0  0  0  0
   -1.4724    2.3528    0.5399 C   0  0  2  0  0  0  0  0  0  0  0  0
   -2.6896    1.7682    1.2351 C   0  0  0  0  0  0  0  0  0  0  0  0
   -1.9703    2.7530   -0.8479 C   0  0  0  0  0  0  0  0  0  0  0  0
   -3.1701    1.8636   -1.0796 C   0  0  0  0  0  0  0  0  0  0  0  0
   -4.6742    0.4674    0.3825 C   0  0  0  0  0  0  0  0  0  0  0  0
   -0.3550    1.3543    0.4409 C   0  0  0  0  0  0  0  0  0  0  0  0
   -4.3446   -0.9898    0.2324 C   0  0  0  0  0  0  0  0  0  0  0  0
   -4.4730   -1.6092   -1.0108 C   0  0  0  0  0  0  0  0  0  0  0  0
   -3.9096   -1.7239    1.3358 C   0  0  0  0  0  0  0  0  0  0  0  0
    2.1571    1.3817    0.3288 C   0  0  0  0  0  0  0  0  0  0  0  0
   -4.1667   -2.9629   -1.1506 C   0  0  0  0  0  0  0  0  0  0  0  0
   -3.6031   -3.0776    1.1959 C   0  0  0  0  0  0  0  0  0  0  0  0
    3.3054    2.1736    0.3166 C   0  0  0  0  0  0  0  0  0  0  0  0
    2.2666   -0.0068    0.2542 C   0  0  0  0  0  0  0  0  0  0  0  0
   -3.7317   -3.6969   -0.0473 C   0  0  0  0  0  0  0  0  0  0  0  0
    4.5631    1.5771    0.2298 C   0  0  0  0  0  0  0  0  0  0  0  0
    3.5246   -0.6035    0.1673 C   0  0  0  0  0  0  0  0  0  0  0  0
    4.6727    0.1886    0.1550 C   0  0  0  0  0  0  0  0  0  0  0  0
    5.9911   -1.6289   -0.6298 C   0  0  0  0  0  0  0  0  0  0  0  0
   -1.1163    3.2272    1.0980 H   0  0  0  0  0  0  0  0  0  0  0  0
   -3.2478    2.5423    1.7733 H   0  0  0  0  0  0  0  0  0  0  0  0
   -2.4617    0.9477    1.9215 H   0  0  0  0  0  0  0  0  0  0  0  0
   -2.3114    3.7934   -0.8583 H   0  0  0  0  0  0  0  0  0  0  0  0
   -1.2290    2.5977   -1.6369 H   0  0  0  0  0  0  0  0  0  0  0  0
   -5.4553    0.7386   -0.3385 H   0  0  0  0  0  0  0  0  0  0  0  0
   -5.0796    0.6823    1.3783 H   0  0  0  0  0  0  0  0  0  0  0  0
    0.8944    3.0041    0.4564 H   0  0  0  0  0  0  0  0  0  0  0  0
   -4.8107   -1.0495   -1.8789 H   0  0  0  0  0  0  0  0  0  0  0  0
   -3.8061   -1.2536    2.3099 H   0  0  0  0  0  0  0  0  0  0  0  0
   -4.2666   -3.4453   -2.1186 H   0  0  0  0  0  0  0  0  0  0  0  0
   -3.2644   -3.6493    2.0550 H   0  0  0  0  0  0  0  0  0  0  0  0
    3.2341    3.2568    0.3740 H   0  0  0  0  0  0  0  0  0  0  0  0
    1.4241   -0.6842    0.2642 H   0  0  0  0  0  0  0  0  0  0  0  0
   -3.4930   -4.7509   -0.1561 H   0  0  0  0  0  0  0  0  0  0  0  0
    5.4540    2.1991    0.2204 H   0  0  0  0  0  0  0  0  0  0  0  0
    3.5696   -1.6883    0.1376 H   0  0  0  0  0  0  0  0  0  0  0  0
    5.2638   -1.7497   -1.4403 H   0  0  0  0  0  0  0  0  0  0  0  0
  1 26  1  0  0  0  0
  2 26  1  0  0  0  0
  3 11  2  0  0  0  0
  4 13  2  0  0  0  0
  5 25  1  0  0  0  0
  5 26  1  0  0  0  0
  6  9  1  0  0  0  0
  6 11  1  0  0  0  0
  6 12  1  0  0  0  0
  7 13  1  0  0  0  0
  7 17  1  0  0  0  0
  7 34  1  0  0  0  0
  8  9  1  0  0  0  0
  8 10  1  0  0  0  0
  8 13  1  0  0  0  0
  8 27  1  0  0  0  0
  9 28  1  0  0  0  0
  9 29  1  0  0  0  0
 10 11  1  0  0  0  0
 10 30  1  0  0  0  0
 10 31  1  0  0  0  0
 12 14  1  0  0  0  0
 12 32  1  0  0  0  0
 12 33  1  0  0  0  0
 14 15  2  0  0  0  0
 14 16  1  0  0  0  0
 15 18  1  0  0  0  0
 15 35  1  0  0  0  0
 16 19  2  0  0  0  0
 16 36  1  0  0  0  0
 17 20  2  0  0  0  0
 17 21  1  0  0  0  0
 18 22  2  0  0  0  0
 18 37  1  0  0  0  0
 19 22  1  0  0  0  0
 19 38  1  0  0  0  0
 20 23  1  0  0  0  0
 20 39  1  0  0  0  0
 21 24  2  0  0  0  0
 21 40  1  0  0  0  0
 22 41  1  0  0  0  0
 23 25  2  0  0  0  0
 23 42  1  0  0  0  0
 24 25  1  0  0  0  0
 24 43  1  0  0  0  0
 26 44  1  0  0  0  0
M  END
> <PUBCHEM_COMPOUND_CID>
17396195

> <PUBCHEM_CONFORMER_RMSD>
0.8

> <PUBCHEM_CONFORMER_DIVERSEORDER>
1
79
289
207
221
215
25
170
277
283
18
39
287
236
265
280
159
261
256
223
241
284
245
211
174
210
11
156
61
304
123
187
127
264
235
183
137
184
84
9
270
56
204
42
148
50
222
38
164
220
75
167
218
10
308
250
181
307
124
101
246
133
46
110
217
229
180
281
209
213
19
94
275
35
173
225
157
115
303
102
247
166
268
17
205
267
288
58
147
294
253
55
240
237
248
154
169
83
105
120
295
114
201
309
48
99
15
132
146
125
262
244
27
21
72
100
299
24
313
73
128
8
192
16
97
189
171
121
135
249
126
47
66
191
71
129
258
76
200
168
30
87
90
62
185
57
297
49
37
196
134
239
95
6
143
276
34
234
3
228
298
64
300
28
13
136
285
282
259
67
186
82
70
254
224
233
109
208
226
65
151
29
227
96
269
202
111
92
257
36
80
155
116
263
238
272
292
158
279
23
301
162
138
260
112
212
203
311
131
160
91
51
69
197
194
33
274
43
41
255
145
188
98
176
31
305
193
243
296
7
14
232
142
214
150
54
290
88
219
130
118
152
163
251
40
52
104
206
86
266
144
78
44
161
216
108
63
26
271
199
12
4
107
195
32
74
45
106
178
81
93
22
230
2
302
273
231
286
175
122
141
117
310
153
314
165
113
139
140
77
5
172
278
179
190
68
198
20
119
242
291
53
60
312
103
182
59
177
149
252
293
85
89
306

> <PUBCHEM_MMFF94_PARTIAL_CHARGES>
36
1 -0.34
10 0.06
11 0.57
12 0.44
13 0.57
14 -0.14
15 -0.15
16 -0.15
17 0.12
18 -0.15
19 -0.15
2 -0.34
20 -0.15
21 -0.15
22 -0.15
23 -0.15
24 -0.15
25 0.08
26 0.96
3 -0.57
34 0.37
35 0.15
36 0.15
37 0.15
38 0.15
39 0.15
4 -0.57
40 0.15
41 0.15
42 0.15
43 0.15
5 -0.36
6 -0.66
7 -0.55
8 0.06
9 0.3

> <PUBCHEM_EFFECTIVE_ROTOR_COUNT>
7.8

> <PUBCHEM_PHARMACOPHORE_FEATURES>
7
1 3 acceptor
1 4 acceptor
1 5 acceptor
1 7 donor
5 6 8 9 10 11 rings
6 14 15 16 18 19 22 rings
6 17 20 21 23 24 25 rings

> <PUBCHEM_HEAVY_ATOM_COUNT>
26

> <PUBCHEM_ATOM_DEF_STEREO_COUNT>
0

> <PUBCHEM_ATOM_UDEF_STEREO_COUNT>
1

> <PUBCHEM_BOND_DEF_STEREO_COUNT>
0

> <PUBCHEM_BOND_UDEF_STEREO_COUNT>
0

> <PUBCHEM_ISOTOPIC_ATOM_COUNT>
0

> <PUBCHEM_COMPONENT_COUNT>
1

> <PUBCHEM_CACTVS_TAUTO_COUNT>
4

> <PUBCHEM_CONFORMER_ID>
010971E300000001

> <PUBCHEM_MMFF94_ENERGY>
72.1028

> <PUBCHEM_FEATURE_SELFOVERLAP>
35.52

> <PUBCHEM_SHAPE_FINGERPRINT>
10391435 84 18336555962682993736
10622 236 17101167589901105551
10883706 89 7636576003773370972
11186622 123 18272098183883675930
11393246 34 18259985963802436967
11477941 20 17060334141510598620
11524674 6 17458346372881634631
12422481 6 17240755181971045350
12633257 1 15504327113248509899
12760667 363 18334576820009362163
12969540 37 17470456132120672561
13103583 49 17242713322333590379
13690498 29 18130500915963167948
13941219 33 18335410232864659955
14211702 104 18408604738973994114
14251740 79 18342177773840943571
14251751 18 18409444782857973710
14461889 52 18334586699051107888
14931854 50 18200892703331789847
14950920 106 16588581985880106867
15361156 5 18201422667218589120
17627616 140 18058174005880320747
18927931 339 18202557376435483555
19958102 18 18201727244930087910
21307412 95 18340778044611301935
22393880 68 18201728378885629360
23379529 103 18197496221238786763
23428019 142 17775566424913636970
23466295 7 18129370498494665347
23559900 14 18410581673259709488
249057 3 18343303708260985901
25122255 55 18260542346940435206
2838139 119 10015322211926502832
373842 8 18118687866663041526
4073 2 18409730664661352696
44062 13 18412546526270795201
445580 160 18409442622521436214
484985 159 17967819336666527591
5104073 3 18040433309015367304
531348 171 17630332062954529512
5365585 94 18199745843567616691
54583773 228 18340758262497851588
6431902 208 18337954467705284730
6437827 68 18408603682148567822
7970288 3 17832144927200505567
8863177 126 18334575733598725802

> <PUBCHEM_SHAPE_MULTIPOLES>
492.95
15.48
4.13
1.21
23.21
2.08
0.29
12.28
2.5
-3.14
0.34
-1.41
-0.02
1.4

> <PUBCHEM_SHAPE_SELFOVERLAP>
1058.56

> <PUBCHEM_SHAPE_VOLUME>
273.6

> <PUBCHEM_COORDINATE_TYPE>
2
5
10

$$$$

