17396394
  -OEChem-06241222562D

 47 48  0     1  0  0  0  0  0999 V2000
    8.0622   -0.7500    0.0000 S   0  0  0  0  0  0  0  0  0  0  0  0
    2.8660   -1.7500    0.0000 O   0  0  0  0  0  0  0  0  0  0  0  0
    6.3301   -1.7500    0.0000 O   0  0  0  0  0  0  0  0  0  0  0  0
    5.4641   -0.2500    0.0000 N   0  0  0  0  0  0  0  0  0  0  0  0
    9.7942   -0.7500    0.0000 N   0  0  0  0  0  0  0  0  0  0  0  0
    8.9282    0.7500    0.0000 N   0  0  0  0  0  0  0  0  0  0  0  0
    4.5981   -0.7500    0.0000 C   0  0  3  0  0  0  0  0  0  0  0  0
    3.7320   -0.2500    0.0000 C   0  0  0  0  0  0  0  0  0  0  0  0
    4.5981   -1.7500    0.0000 C   0  0  0  0  0  0  0  0  0  0  0  0
    2.8660   -0.7500    0.0000 C   0  0  0  0  0  0  0  0  0  0  0  0
    3.7320    0.7500    0.0000 C   0  0  0  0  0  0  0  0  0  0  0  0
    6.3301   -0.7500    0.0000 C   0  0  0  0  0  0  0  0  0  0  0  0
    2.0000   -0.2500    0.0000 C   0  0  0  0  0  0  0  0  0  0  0  0
    2.8660    1.2500    0.0000 C   0  0  0  0  0  0  0  0  0  0  0  0
    7.1962   -0.2500    0.0000 C   0  0  0  0  0  0  0  0  0  0  0  0
    2.0000    0.7500    0.0000 C   0  0  0  0  0  0  0  0  0  0  0  0
   10.6603    0.7500    0.0000 C   0  0  0  0  0  0  0  0  0  0  0  0
   10.6603   -0.2500    0.0000 C   0  0  0  0  0  0  0  0  0  0  0  0
    9.7942    1.2500    0.0000 C   0  0  0  0  0  0  0  0  0  0  0  0
    8.9282   -0.2500    0.0000 C   0  0  0  0  0  0  0  0  0  0  0  0
   11.5263    1.2500    0.0000 C   0  0  0  0  0  0  0  0  0  0  0  0
   11.5263   -0.7500    0.0000 C   0  0  0  0  0  0  0  0  0  0  0  0
    9.7942    2.2500    0.0000 C   0  0  0  0  0  0  0  0  0  0  0  0
    2.0000   -2.2500    0.0000 C   0  0  0  0  0  0  0  0  0  0  0  0
    4.5981   -0.1300    0.0000 H   0  0  0  0  0  0  0  0  0  0  0  0
    3.9781   -1.7500    0.0000 H   0  0  0  0  0  0  0  0  0  0  0  0
    4.5981   -2.3700    0.0000 H   0  0  0  0  0  0  0  0  0  0  0  0
    5.2181   -1.7500    0.0000 H   0  0  0  0  0  0  0  0  0  0  0  0
    5.4641    0.3700    0.0000 H   0  0  0  0  0  0  0  0  0  0  0  0
    4.2690    1.0600    0.0000 H   0  0  0  0  0  0  0  0  0  0  0  0
    1.4631   -0.5600    0.0000 H   0  0  0  0  0  0  0  0  0  0  0  0
    2.8660    1.8700    0.0000 H   0  0  0  0  0  0  0  0  0  0  0  0
    7.5947    0.2249    0.0000 H   0  0  0  0  0  0  0  0  0  0  0  0
    6.7976    0.2249    0.0000 H   0  0  0  0  0  0  0  0  0  0  0  0
    1.4631    1.0600    0.0000 H   0  0  0  0  0  0  0  0  0  0  0  0
   11.8363    0.7131    0.0000 H   0  0  0  0  0  0  0  0  0  0  0  0
   12.0632    1.5600    0.0000 H   0  0  0  0  0  0  0  0  0  0  0  0
   11.2163    1.7869    0.0000 H   0  0  0  0  0  0  0  0  0  0  0  0
   11.2163   -1.2869    0.0000 H   0  0  0  0  0  0  0  0  0  0  0  0
   12.0632   -1.0600    0.0000 H   0  0  0  0  0  0  0  0  0  0  0  0
   11.8363   -0.2131    0.0000 H   0  0  0  0  0  0  0  0  0  0  0  0
   10.4142    2.2500    0.0000 H   0  0  0  0  0  0  0  0  0  0  0  0
    9.7942    2.8700    0.0000 H   0  0  0  0  0  0  0  0  0  0  0  0
    9.1742    2.2500    0.0000 H   0  0  0  0  0  0  0  0  0  0  0  0
    1.6900   -1.7131    0.0000 H   0  0  0  0  0  0  0  0  0  0  0  0
    1.4631   -2.5600    0.0000 H   0  0  0  0  0  0  0  0  0  0  0  0
    2.3100   -2.7869    0.0000 H   0  0  0  0  0  0  0  0  0  0  0  0
  1 15  1  0  0  0  0
  1 20  1  0  0  0  0
  2 10  1  0  0  0  0
  2 24  1  0  0  0  0
  3 12  2  0  0  0  0
  4  7  1  0  0  0  0
  4 12  1  0  0  0  0
  4 29  1  0  0  0  0
  5 18  2  0  0  0  0
  5 20  1  0  0  0  0
  6 19  1  0  0  0  0
  6 20  2  0  0  0  0
  7  8  1  0  0  0  0
  7  9  1  0  0  0  0
  7 25  1  0  0  0  0
  8 10  1  0  0  0  0
  8 11  2  0  0  0  0
  9 26  1  0  0  0  0
  9 27  1  0  0  0  0
  9 28  1  0  0  0  0
 10 13  2  0  0  0  0
 11 14  1  0  0  0  0
 11 30  1  0  0  0  0
 12 15  1  0  0  0  0
 13 16  1  0  0  0  0
 13 31  1  0  0  0  0
 14 16  2  0  0  0  0
 14 32  1  0  0  0  0
 15 33  1  0  0  0  0
 15 34  1  0  0  0  0
 16 35  1  0  0  0  0
 17 18  1  0  0  0  0
 17 19  2  0  0  0  0
 17 21  1  0  0  0  0
 18 22  1  0  0  0  0
 19 23  1  0  0  0  0
 21 36  1  0  0  0  0
 21 37  1  0  0  0  0
 21 38  1  0  0  0  0
 22 39  1  0  0  0  0
 22 40  1  0  0  0  0
 22 41  1  0  0  0  0
 23 42  1  0  0  0  0
 23 43  1  0  0  0  0
 23 44  1  0  0  0  0
 24 45  1  0  0  0  0
 24 46  1  0  0  0  0
 24 47  1  0  0  0  0
M  END
> <PUBCHEM_COMPOUND_CID>
17396394

> <PUBCHEM_COMPOUND_CANONICALIZED>
1

> <PUBCHEM_CACTVS_COMPLEXITY>
398

> <PUBCHEM_CACTVS_HBOND_ACCEPTOR>
5

> <PUBCHEM_CACTVS_HBOND_DONOR>
1

> <PUBCHEM_CACTVS_ROTATABLE_BOND>
6

> <PUBCHEM_CACTVS_SUBSKEYS>
AAADceB7MABAAAAAAAAAAAAAAAAAAAAAAAA8QAAAAAAAAAABwAAAHgQQAAAADCzF3gazlpbIFAioAyVydACC2ClhILAJmKA+TJiMLiLE+duENChu1hPI6CeQwKAOAAAAAAAIAAAAAAAAABAAAAAAAAAAAA==

> <PUBCHEM_IUPAC_OPENEYE_NAME>
N-[1-(2-methoxyphenyl)ethyl]-2-(4,5,6-trimethylpyrimidin-2-yl)sulfanyl-acetamide

> <PUBCHEM_IUPAC_CAS_NAME>
N-[1-(2-methoxyphenyl)ethyl]-2-[(4,5,6-trimethyl-2-pyrimidinyl)thio]acetamide

> <PUBCHEM_IUPAC_NAME>
N-[1-(2-methoxyphenyl)ethyl]-2-(4,5,6-trimethylpyrimidin-2-yl)sulfanylacetamide

> <PUBCHEM_IUPAC_SYSTEMATIC_NAME>
N-[1-(2-methoxyphenyl)ethyl]-2-(4,5,6-trimethylpyrimidin-2-yl)sulfanyl-ethanamide

> <PUBCHEM_IUPAC_TRADITIONAL_NAME>
N-[1-(2-methoxyphenyl)ethyl]-2-[(4,5,6-trimethylpyrimidin-2-yl)thio]acetamide

> <PUBCHEM_IUPAC_INCHI>
InChI=1S/C18H23N3O2S/c1-11-12(2)20-18(21-13(11)3)24-10-17(22)19-14(4)15-8-6-7-9-16(15)23-5/h6-9,14H,10H2,1-5H3,(H,19,22)

> <PUBCHEM_IUPAC_INCHIKEY>
CCRRQFILQUOAIP-UHFFFAOYSA-N

> <PUBCHEM_XLOGP3_AA>
3.4

> <PUBCHEM_EXACT_MASS>
345.151098

> <PUBCHEM_MOLECULAR_FORMULA>
C18H23N3O2S

> <PUBCHEM_MOLECULAR_WEIGHT>
345.45912

> <PUBCHEM_OPENEYE_CAN_SMILES>
CC1=C(N=C(N=C1C)SCC(=O)NC(C)C2=CC=CC=C2OC)C

> <PUBCHEM_OPENEYE_ISO_SMILES>
CC1=C(N=C(N=C1C)SCC(=O)NC(C)C2=CC=CC=C2OC)C

> <PUBCHEM_CACTVS_TPSA>
89.4

> <PUBCHEM_MONOISOTOPIC_WEIGHT>
345.151098

> <PUBCHEM_TOTAL_CHARGE>
0

> <PUBCHEM_HEAVY_ATOM_COUNT>
24

> <PUBCHEM_ATOM_DEF_STEREO_COUNT>
0

> <PUBCHEM_ATOM_UDEF_STEREO_COUNT>
1

> <PUBCHEM_BOND_DEF_STEREO_COUNT>
0

> <PUBCHEM_BOND_UDEF_STEREO_COUNT>
0

> <PUBCHEM_ISOTOPIC_ATOM_COUNT>
0

> <PUBCHEM_COMPONENT_COUNT>
1

> <PUBCHEM_CACTVS_TAUTO_COUNT>
2

> <PUBCHEM_COORDINATE_TYPE>
1
5
255

> <PUBCHEM_BONDANNOTATIONS>
10  13  8
11  14  8
13  16  8
14  16  8
17  18  8
17  19  8
5  18  8
5  20  8
6  19  8
6  20  8
7  9  3
8  10  8
8  11  8

$$$$

