9867
  -OEChem-06261204093D

 11 10  0     0  0  0  0  0  0999 V2000
   -0.0011    1.3003    0.1286 F   0  0  0  0  0  0  0  0  0  0  0  0
    0.0000    0.0303   -0.3635 C   0  0  0  0  0  0  0  0  0  0  0  0
   -1.2582   -0.6662    0.1174 C   0  0  0  0  0  0  0  0  0  0  0  0
    1.2593   -0.6645    0.1174 C   0  0  0  0  0  0  0  0  0  0  0  0
   -0.0001    0.1000   -1.4557 H   0  0  0  0  0  0  0  0  0  0  0  0
   -2.1439   -0.1206   -0.2234 H   0  0  0  0  0  0  0  0  0  0  0  0
   -1.3138   -1.6926   -0.2571 H   0  0  0  0  0  0  0  0  0  0  0  0
   -1.2972   -0.6876    1.2115 H   0  0  0  0  0  0  0  0  0  0  0  0
    2.1442   -0.1177   -0.2234 H   0  0  0  0  0  0  0  0  0  0  0  0
    1.3163   -1.6908   -0.2572 H   0  0  0  0  0  0  0  0  0  0  0  0
    1.2984   -0.6859    1.2115 H   0  0  0  0  0  0  0  0  0  0  0  0
  1  2  1  0  0  0  0
  2  3  1  0  0  0  0
  2  4  1  0  0  0  0
  2  5  1  0  0  0  0
  3  6  1  0  0  0  0
  3  7  1  0  0  0  0
  3  8  1  0  0  0  0
  4  9  1  0  0  0  0
  4 10  1  0  0  0  0
  4 11  1  0  0  0  0
M  END
> <PUBCHEM_COMPOUND_CID>
9867

> <PUBCHEM_CONFORMER_RMSD>
0.4

> <PUBCHEM_CONFORMER_DIVERSEORDER>
1

> <PUBCHEM_MMFF94_PARTIAL_CHARGES>
2
1 -0.34
2 0.34

> <PUBCHEM_EFFECTIVE_ROTOR_COUNT>
0

> <PUBCHEM_PHARMACOPHORE_FEATURES>
1
3 2 3 4 hydrophobe

> <PUBCHEM_HEAVY_ATOM_COUNT>
4

> <PUBCHEM_ATOM_DEF_STEREO_COUNT>
0

> <PUBCHEM_ATOM_UDEF_STEREO_COUNT>
0

> <PUBCHEM_BOND_DEF_STEREO_COUNT>
0

> <PUBCHEM_BOND_UDEF_STEREO_COUNT>
0

> <PUBCHEM_ISOTOPIC_ATOM_COUNT>
0

> <PUBCHEM_COMPONENT_COUNT>
1

> <PUBCHEM_CACTVS_TAUTO_COUNT>
1

> <PUBCHEM_CONFORMER_ID>
0000268B00000001

> <PUBCHEM_MMFF94_ENERGY>
-0.3621

> <PUBCHEM_FEATURE_SELFOVERLAP>
5.074

> <PUBCHEM_SHAPE_FINGERPRINT>
139733 1 8718828686562044367
20096714 4 17613426749570711473
21015797 1 8717668710389781182
5943 1 12531465606123257871

> <PUBCHEM_SHAPE_MULTIPOLES>
75.04
1.46
1.12
0.63
0
0.3
-0.03
-0.51
0.09
0
0.08
0
-0.03
0

> <PUBCHEM_SHAPE_SELFOVERLAP>
123.705

> <PUBCHEM_SHAPE_VOLUME>
52.9

> <PUBCHEM_COORDINATE_TYPE>
2
5
10

$$$$

