3549
  -OEChem-06251223303D

 42 43  0     1  0  0  0  0  0999 V2000
    4.8346   -0.6070    1.2958 Br  0  0  0  0  0  0  0  0  0  0  0  0
    0.0299    2.9058    0.2262 O   0  0  0  0  0  0  0  0  0  0  0  0
    0.4257   -2.6482   -0.3154 O   0  0  0  0  0  0  0  0  0  0  0  0
   -2.8246   -0.6987    0.7922 O   0  0  0  0  0  0  0  0  0  0  0  0
    1.6861   -1.7562   -2.0265 O   0  0  0  0  0  0  0  0  0  0  0  0
   -3.8285    1.1162   -0.2365 O   0  0  0  0  0  0  0  0  0  0  0  0
   -2.2256    3.3678    0.2519 N   0  0  0  0  0  0  0  0  0  0  0  0
    0.1293    1.1603   -3.1373 N   0  0  0  0  0  0  0  0  0  0  0  0
   -0.3781    0.0436    0.1099 C   0  0  2  0  0  0  0  0  0  0  0  0
    0.9591    0.6699    0.4261 C   0  0  0  0  0  0  0  0  0  0  0  0
   -0.3340   -0.6319   -1.2678 C   0  0  2  0  0  0  0  0  0  0  0  0
   -1.4935    1.0616    0.1669 C   0  0  0  0  0  0  0  0  0  0  0  0
    1.0904    2.0607    0.4469 C   0  0  0  0  0  0  0  0  0  0  0  0
   -1.2689    2.3921    0.2153 C   0  0  0  0  0  0  0  0  0  0  0  0
    2.0869   -0.1208    0.6884 C   0  0  0  0  0  0  0  0  0  0  0  0
    0.7227   -1.7176   -1.2719 C   0  0  0  0  0  0  0  0  0  0  0  0
   -2.8640    0.5206    0.2039 C   0  0  0  0  0  0  0  0  0  0  0  0
    2.3277    2.6573    0.6997 C   0  0  0  0  0  0  0  0  0  0  0  0
    3.3227    0.4731    0.9493 C   0  0  0  0  0  0  0  0  0  0  0  0
    3.4436    1.8613    0.9513 C   0  0  0  0  0  0  0  0  0  0  0  0
   -0.0728    0.3727   -2.3093 C   0  0  0  0  0  0  0  0  0  0  0  0
    1.3392   -3.7455   -0.2164 C   0  0  0  0  0  0  0  0  0  0  0  0
   -4.0901   -1.3585    0.9021 C   0  0  0  0  0  0  0  0  0  0  0  0
    0.8723   -4.6785    0.8805 C   0  0  0  0  0  0  0  0  0  0  0  0
   -3.8899   -2.7000    1.5747 C   0  0  0  0  0  0  0  0  0  0  0  0
   -0.5339   -0.6974    0.9054 H   0  0  0  0  0  0  0  0  0  0  0  0
   -1.2878   -1.1243   -1.4983 H   0  0  0  0  0  0  0  0  0  0  0  0
    2.0120   -1.1952    0.7803 H   0  0  0  0  0  0  0  0  0  0  0  0
    2.4263    3.7394    0.7089 H   0  0  0  0  0  0  0  0  0  0  0  0
    4.3995    2.3389    1.1503 H   0  0  0  0  0  0  0  0  0  0  0  0
   -3.2085    3.1282    0.2476 H   0  0  0  0  0  0  0  0  0  0  0  0
   -1.9359    4.3368    0.2847 H   0  0  0  0  0  0  0  0  0  0  0  0
    1.3626   -4.2839   -1.1705 H   0  0  0  0  0  0  0  0  0  0  0  0
    2.3448   -3.3770    0.0128 H   0  0  0  0  0  0  0  0  0  0  0  0
   -4.7727   -0.7433    1.4988 H   0  0  0  0  0  0  0  0  0  0  0  0
   -4.5129   -1.5057   -0.0981 H   0  0  0  0  0  0  0  0  0  0  0  0
    1.5458   -5.5342    0.9795 H   0  0  0  0  0  0  0  0  0  0  0  0
    0.8262   -4.1516    1.8393 H   0  0  0  0  0  0  0  0  0  0  0  0
   -0.1380   -5.0451    0.6706 H   0  0  0  0  0  0  0  0  0  0  0  0
   -4.8389   -3.2343    1.6727 H   0  0  0  0  0  0  0  0  0  0  0  0
   -3.1926   -3.3185    0.9997 H   0  0  0  0  0  0  0  0  0  0  0  0
   -3.4522   -2.5702    2.5700 H   0  0  0  0  0  0  0  0  0  0  0  0
  1 19  1  0  0  0  0
  2 13  1  0  0  0  0
  2 14  1  0  0  0  0
  3 16  1  0  0  0  0
  3 22  1  0  0  0  0
  4 17  1  0  0  0  0
  4 23  1  0  0  0  0
  5 16  2  0  0  0  0
  6 17  2  0  0  0  0
  7 14  1  0  0  0  0
  7 31  1  0  0  0  0
  7 32  1  0  0  0  0
  8 21  3  0  0  0  0
  9 10  1  0  0  0  0
  9 11  1  0  0  0  0
  9 12  1  0  0  0  0
  9 26  1  0  0  0  0
 10 13  2  0  0  0  0
 10 15  1  0  0  0  0
 11 16  1  0  0  0  0
 11 21  1  0  0  0  0
 11 27  1  0  0  0  0
 12 14  2  0  0  0  0
 12 17  1  0  0  0  0
 13 18  1  0  0  0  0
 15 19  2  0  0  0  0
 15 28  1  0  0  0  0
 18 20  2  0  0  0  0
 18 29  1  0  0  0  0
 19 20  1  0  0  0  0
 20 30  1  0  0  0  0
 22 24  1  0  0  0  0
 22 33  1  0  0  0  0
 22 34  1  0  0  0  0
 23 25  1  0  0  0  0
 23 35  1  0  0  0  0
 23 36  1  0  0  0  0
 24 37  1  0  0  0  0
 24 38  1  0  0  0  0
 24 39  1  0  0  0  0
 25 40  1  0  0  0  0
 25 41  1  0  0  0  0
 25 42  1  0  0  0  0
M  END
> <PUBCHEM_COMPOUND_CID>
3549

> <PUBCHEM_CONFORMER_RMSD>
0.8

> <PUBCHEM_CONFORMER_DIVERSEORDER>
1
27
86
45
5
84
74
109
2
65
118
31
12
59
101
75
23
16
110
64
63
81
116
85
20
111
117
34
43
79
18
108
7
73
19
42
48
97
25
92
96
33
112
44
87
69
80
88
39
66
99
26
61
104
3
77
67
76
57
68
119
28
22
114
50
51
123
91
41
9
98
71
46
72
103
78
60
52
90
95
37
21
106
11
82
105
83
89
6
30
120
54
62
47
53
102
94
113
122
55
29
115
36
70
8
58
13
38
107
4
40
17
24
35
32
56
15
121
100
14
93
49
10

> <PUBCHEM_MMFF94_PARTIAL_CHARGES>
28
1 -0.11
10 -0.14
11 0.26
12 -0.12
13 0.08
14 0.18
15 -0.15
16 0.66
17 0.71
18 -0.15
19 0.11
2 -0.16
20 -0.15
21 0.36
22 0.28
23 0.28
28 0.15
29 0.15
3 -0.43
30 0.15
31 0.4
32 0.4
4 -0.43
5 -0.57
6 -0.57
7 -0.9
8 -0.56
9 0.28

> <PUBCHEM_EFFECTIVE_ROTOR_COUNT>
7.4

> <PUBCHEM_PHARMACOPHORE_FEATURES>
9
1 1 hydrophobe
1 2 acceptor
1 5 acceptor
1 6 acceptor
1 7 cation
1 7 donor
1 8 acceptor
6 10 13 15 18 19 20 rings
6 2 9 10 12 13 14 rings

> <PUBCHEM_HEAVY_ATOM_COUNT>
25

> <PUBCHEM_ATOM_DEF_STEREO_COUNT>
0

> <PUBCHEM_ATOM_UDEF_STEREO_COUNT>
2

> <PUBCHEM_BOND_DEF_STEREO_COUNT>
0

> <PUBCHEM_BOND_UDEF_STEREO_COUNT>
0

> <PUBCHEM_ISOTOPIC_ATOM_COUNT>
0

> <PUBCHEM_COMPONENT_COUNT>
1

> <PUBCHEM_CACTVS_TAUTO_COUNT>
3

> <PUBCHEM_CONFORMER_ID>
00000DDD00000001

> <PUBCHEM_MMFF94_ENERGY>
60.6098

> <PUBCHEM_FEATURE_SELFOVERLAP>
45.696

> <PUBCHEM_SHAPE_FINGERPRINT>
10906281 52 18408598189244397801
11578080 2 17052738929981616132
12035759 4 17317651773642853004
12633257 1 18269278022335879065
12788726 201 14878329784264063265
13140716 1 18335984186081838065
14223421 5 18335982077157547073
14863182 85 18198042704398637811
16945 1 17676485025413502589
19591789 44 18337676317354774370
20028762 73 17898569765918725775
20691752 17 18118938353180581591
20905425 154 17681551768753119556
21041028 32 16247443939075689002
21304304 249 18196651791898305779
22182313 1 17895471565615760332
229495 10 17342117908768142940
23419403 2 17550968304265164166
23559900 14 18268701899839170670
2748010 2 17898005982551030212
465052 167 18268424633898800779
6438718 38 17100027404409925652
81228 2 17249524706124807258

> <PUBCHEM_SHAPE_MULTIPOLES>
481.12
6.33
4.68
1.84
0.51
3.94
-1.68
0.68
4.44
0.1
0.89
-0.04
0.32
1.13

> <PUBCHEM_SHAPE_SELFOVERLAP>
1007.036

> <PUBCHEM_SHAPE_VOLUME>
277.5

> <PUBCHEM_COORDINATE_TYPE>
2
5
10

$$$$

