17396192
  -OEChem-06241222553D

 43 45  0     0  0  0  0  0  0999 V2000
   -3.1579    1.9471    1.4441 O   0  0  0  0  0  0  0  0  0  0  0  0
    5.5636   -1.9608    0.2100 O   0  0  0  0  0  0  0  0  0  0  0  0
   -3.5496   -1.3821    1.8032 O   0  0  0  0  0  0  0  0  0  0  0  0
    1.5338    0.6427    0.0240 N   0  0  0  0  0  0  0  0  0  0  0  0
   -1.3189    0.9185    0.4381 N   0  0  0  0  0  0  0  0  0  0  0  0
    0.6489   -0.5220   -0.0619 C   0  0  0  0  0  0  0  0  0  0  0  0
    0.9398    1.9397    0.3603 C   0  0  0  0  0  0  0  0  0  0  0  0
   -0.7650   -0.0988   -0.4610 C   0  0  0  0  0  0  0  0  0  0  0  0
   -0.3532    1.7506    1.1500 C   0  0  0  0  0  0  0  0  0  0  0  0
    2.9044    0.5200   -0.1911 C   0  0  0  0  0  0  0  0  0  0  0  0
   -2.6827    1.0972    0.6920 C   0  0  0  0  0  0  0  0  0  0  0  0
    3.5554   -0.6735    0.1213 C   0  0  0  0  0  0  0  0  0  0  0  0
    3.6260    1.5906   -0.7188 C   0  0  0  0  0  0  0  0  0  0  0  0
   -3.6398    0.2098    0.0109 C   0  0  0  0  0  0  0  0  0  0  0  0
    4.9280   -0.7962   -0.0945 C   0  0  0  0  0  0  0  0  0  0  0  0
    4.9986    1.4680   -0.9344 C   0  0  0  0  0  0  0  0  0  0  0  0
   -4.0370   -0.9949    0.5908 C   0  0  0  0  0  0  0  0  0  0  0  0
    5.6495    0.2744   -0.6222 C   0  0  0  0  0  0  0  0  0  0  0  0
   -4.1506    0.5880   -1.2308 C   0  0  0  0  0  0  0  0  0  0  0  0
   -4.9449   -1.8216   -0.0711 C   0  0  0  0  0  0  0  0  0  0  0  0
   -5.0585   -0.2386   -1.8926 C   0  0  0  0  0  0  0  0  0  0  0  0
   -5.4557   -1.4434   -1.3127 C   0  0  0  0  0  0  0  0  0  0  0  0
    4.7658   -3.0150    0.7463 C   0  0  0  0  0  0  0  0  0  0  0  0
    0.6239   -1.0315    0.9092 H   0  0  0  0  0  0  0  0  0  0  0  0
    1.0089   -1.2355   -0.8133 H   0  0  0  0  0  0  0  0  0  0  0  0
    0.7338    2.4944   -0.5633 H   0  0  0  0  0  0  0  0  0  0  0  0
    1.6255    2.5375    0.9731 H   0  0  0  0  0  0  0  0  0  0  0  0
   -0.7586    0.3431   -1.4650 H   0  0  0  0  0  0  0  0  0  0  0  0
   -1.4120   -0.9789   -0.4940 H   0  0  0  0  0  0  0  0  0  0  0  0
   -0.1485    1.2513    2.1052 H   0  0  0  0  0  0  0  0  0  0  0  0
   -0.8000    2.7237    1.3810 H   0  0  0  0  0  0  0  0  0  0  0  0
    2.9679   -1.4774    0.5493 H   0  0  0  0  0  0  0  0  0  0  0  0
    3.1467    2.5283   -0.9862 H   0  0  0  0  0  0  0  0  0  0  0  0
    5.5603    2.3003   -1.3484 H   0  0  0  0  0  0  0  0  0  0  0  0
    6.7188    0.1844   -0.7932 H   0  0  0  0  0  0  0  0  0  0  0  0
   -3.8479    1.5243   -1.6926 H   0  0  0  0  0  0  0  0  0  0  0  0
   -5.2632   -2.7631    0.3686 H   0  0  0  0  0  0  0  0  0  0  0  0
   -5.4560    0.0557   -2.8595 H   0  0  0  0  0  0  0  0  0  0  0  0
   -6.1625   -2.0869   -1.8282 H   0  0  0  0  0  0  0  0  0  0  0  0
   -3.9363   -2.2422    2.0413 H   0  0  0  0  0  0  0  0  0  0  0  0
    5.4325   -3.8652    0.9239 H   0  0  0  0  0  0  0  0  0  0  0  0
    4.0065   -3.3503    0.0315 H   0  0  0  0  0  0  0  0  0  0  0  0
    4.3348   -2.7411    1.7153 H   0  0  0  0  0  0  0  0  0  0  0  0
  1 11  2  0  0  0  0
  2 15  1  0  0  0  0
  2 23  1  0  0  0  0
  3 17  1  0  0  0  0
  3 40  1  0  0  0  0
  4  6  1  0  0  0  0
  4  7  1  0  0  0  0
  4 10  1  0  0  0  0
  5  8  1  0  0  0  0
  5  9  1  0  0  0  0
  5 11  1  0  0  0  0
  6  8  1  0  0  0  0
  6 24  1  0  0  0  0
  6 25  1  0  0  0  0
  7  9  1  0  0  0  0
  7 26  1  0  0  0  0
  7 27  1  0  0  0  0
  8 28  1  0  0  0  0
  8 29  1  0  0  0  0
  9 30  1  0  0  0  0
  9 31  1  0  0  0  0
 10 12  2  0  0  0  0
 10 13  1  0  0  0  0
 11 14  1  0  0  0  0
 12 15  1  0  0  0  0
 12 32  1  0  0  0  0
 13 16  2  0  0  0  0
 13 33  1  0  0  0  0
 14 17  1  0  0  0  0
 14 19  2  0  0  0  0
 15 18  2  0  0  0  0
 16 18  1  0  0  0  0
 16 34  1  0  0  0  0
 17 20  2  0  0  0  0
 18 35  1  0  0  0  0
 19 21  1  0  0  0  0
 19 36  1  0  0  0  0
 20 22  1  0  0  0  0
 20 37  1  0  0  0  0
 21 22  2  0  0  0  0
 21 38  1  0  0  0  0
 22 39  1  0  0  0  0
 23 41  1  0  0  0  0
 23 42  1  0  0  0  0
 23 43  1  0  0  0  0
M  END
> <PUBCHEM_COMPOUND_CID>
17396192

> <PUBCHEM_CONFORMER_RMSD>
0.8

> <PUBCHEM_CONFORMER_DIVERSEORDER>
1
15
18
10
28
12
30
20
33
35
31
27
6
37
34
4
21
13
24
25
17
11
5
29
22
38
19
9
2
26
14
3
32
16
7
23
8
36

> <PUBCHEM_MMFF94_PARTIAL_CHARGES>
32
1 -0.57
10 0.1
11 0.54
12 -0.15
13 -0.15
14 0.09
15 0.08
16 -0.15
17 0.08
18 -0.15
19 -0.15
2 -0.36
20 -0.15
21 -0.15
22 -0.15
23 0.28
3 -0.53
32 0.15
33 0.15
34 0.15
35 0.15
36 0.15
37 0.15
38 0.15
39 0.15
4 -0.84
40 0.45
5 -0.66
6 0.37
7 0.37
8 0.3
9 0.3

> <PUBCHEM_EFFECTIVE_ROTOR_COUNT>
5.2

> <PUBCHEM_PHARMACOPHORE_FEATURES>
7
1 1 acceptor
1 2 acceptor
1 3 donor
1 4 cation
6 10 12 13 15 16 18 rings
6 14 17 19 20 21 22 rings
6 4 5 6 7 8 9 rings

> <PUBCHEM_HEAVY_ATOM_COUNT>
23

> <PUBCHEM_ATOM_DEF_STEREO_COUNT>
0

> <PUBCHEM_ATOM_UDEF_STEREO_COUNT>
0

> <PUBCHEM_BOND_DEF_STEREO_COUNT>
0

> <PUBCHEM_BOND_UDEF_STEREO_COUNT>
0

> <PUBCHEM_ISOTOPIC_ATOM_COUNT>
0

> <PUBCHEM_COMPONENT_COUNT>
1

> <PUBCHEM_CACTVS_TAUTO_COUNT>
4

> <PUBCHEM_CONFORMER_ID>
010971E000000001

> <PUBCHEM_MMFF94_ENERGY>
88.4168

> <PUBCHEM_FEATURE_SELFOVERLAP>
35.52

> <PUBCHEM_SHAPE_FINGERPRINT>
10 15 8646487457774662999
10447042 23 18409169900766728374
105312 117 14764343829848678025
10595046 47 18410288099618361132
10912923 1 18261104197356036840
11089746 13 14692296093014213468
11315181 36 18409729543352965765
12107183 9 17834952345373275952
12236239 1 18334857229776187308
12596602 18 16153426134346078738
12616971 3 18339348773055967632
12839892 36 17677054650020441566
13167823 11 18410289233552667026
13533116 47 18409731759946298730
13862211 1 18113339699848391462
14211702 104 18188205502708943262
14251764 75 7708013618876829050
14573314 32 17632861914497728654
15183329 4 17132126761355812707
15250474 111 18408888459870869554
15788980 27 18334856125631930029
17349148 13 18040990735244796972
17492 89 18190738833745130070
17857418 61 18335142007361202294
18222031 100 17603869979122652012
18785283 64 14635738305861164498
18927931 339 18040425599448401869
19433438 28 5184352905927891514
19489759 90 16056885702001974045
200 152 18334013874303350901
20028762 73 17023189266916580567
20645477 70 18131070450718528386
22061861 79 18060142050273601454
22393880 68 17560809809697166843
23198884 109 17775011202396976293
23402539 116 18113615690320760805
23522609 53 17972286609129004689
23559900 14 18271532983683538177
2838139 119 13326582830039008463
3004659 81 18202286922650971698
312425 54 14345786137349743079
314194 84 18335698325911382146
329604 57 18335419045409641645
34797466 226 16916780739140503765
351380 3 17822290154360590437
4015057 19 18201710722301819816
4098825 35 18201728401045989021
4259306 186 18410857654861724813
439807 62 18339927013842341199
5104073 3 17894910741333586544
5283173 99 17703799136420847525
531348 171 18270408312158149351
7495541 125 17676211264762311472
7970288 3 18041004982052920575

> <PUBCHEM_SHAPE_MULTIPOLES>
445.76
15.16
2.36
1.32
3.82
0.92
0.05
7.08
4.13
1.86
-0.68
-1.71
-0.08
-1.46

> <PUBCHEM_SHAPE_SELFOVERLAP>
956.434

> <PUBCHEM_SHAPE_VOLUME>
245.2

> <PUBCHEM_COORDINATE_TYPE>
2
5
10

$$$$

