47205709
  -OEChem-06241223003D

 31 32  0     0  0  0  0  0  0999 V2000
   -5.0437   -1.9316    0.3886 F   0  0  0  0  0  0  0  0  0  0  0  0
   -5.7729    0.7059    0.0933 O   0  0  0  0  0  0  0  0  0  0  0  0
    2.3064   -1.6606   -0.3390 O   0  0  0  0  0  0  0  0  0  0  0  0
    2.9896    0.5421    0.1013 N   0  0  0  0  0  0  0  0  0  0  0  0
    6.5353    0.9036    0.2044 N   0  0  0  0  0  0  0  0  0  0  0  0
    6.5143   -0.4147   -0.0558 N   0  0  0  0  0  0  0  0  0  0  0  0
   -1.7802   -0.4091   -0.1176 C   0  0  0  0  0  0  0  0  0  0  0  0
   -2.7626   -1.3741    0.1043 C   0  0  0  0  0  0  0  0  0  0  0  0
   -2.1397    0.9302   -0.2687 C   0  0  0  0  0  0  0  0  0  0  0  0
   -4.4639    0.3394    0.0243 C   0  0  0  0  0  0  0  0  0  0  0  0
   -0.3811   -0.7994   -0.1917 C   0  0  0  0  0  0  0  0  0  0  0  0
   -4.1044   -0.9999    0.1753 C   0  0  0  0  0  0  0  0  0  0  0  0
   -3.4814    1.3045   -0.1978 C   0  0  0  0  0  0  0  0  0  0  0  0
    4.4029    0.4437    0.0941 C   0  0  0  0  0  0  0  0  0  0  0  0
    0.6712    0.0322   -0.0190 C   0  0  0  0  0  0  0  0  0  0  0  0
    2.0730   -0.4801   -0.1077 C   0  0  0  0  0  0  0  0  0  0  0  0
    5.2964    1.4656    0.3038 C   0  0  0  0  0  0  0  0  0  0  0  0
    5.2089   -0.6899   -0.1222 C   0  0  0  0  0  0  0  0  0  0  0  0
   -6.0680    2.0923   -0.0700 C   0  0  0  0  0  0  0  0  0  0  0  0
   -2.5020   -2.4227    0.2257 H   0  0  0  0  0  0  0  0  0  0  0  0
   -1.4117    1.7123   -0.4638 H   0  0  0  0  0  0  0  0  0  0  0  0
   -0.2017   -1.8532   -0.3934 H   0  0  0  0  0  0  0  0  0  0  0  0
   -3.6911    2.3607   -0.3284 H   0  0  0  0  0  0  0  0  0  0  0  0
    0.5443    1.0844    0.2102 H   0  0  0  0  0  0  0  0  0  0  0  0
    2.6472    1.4829    0.2836 H   0  0  0  0  0  0  0  0  0  0  0  0
    5.1679    2.5187    0.5105 H   0  0  0  0  0  0  0  0  0  0  0  0
    4.9140   -1.7091   -0.3258 H   0  0  0  0  0  0  0  0  0  0  0  0
    7.4340    1.3591    0.3026 H   0  0  0  0  0  0  0  0  0  0  0  0
   -5.6219    2.6957    0.7279 H   0  0  0  0  0  0  0  0  0  0  0  0
   -5.7875    2.4489   -1.0669 H   0  0  0  0  0  0  0  0  0  0  0  0
   -7.1540    2.2036    0.0150 H   0  0  0  0  0  0  0  0  0  0  0  0
  1 12  1  0  0  0  0
  2 10  1  0  0  0  0
  2 19  1  0  0  0  0
  3 16  2  0  0  0  0
  4 14  1  0  0  0  0
  4 16  1  0  0  0  0
  4 25  1  0  0  0  0
  5  6  1  0  0  0  0
  5 17  1  0  0  0  0
  5 28  1  0  0  0  0
  6 18  2  0  0  0  0
  7  8  2  0  0  0  0
  7  9  1  0  0  0  0
  7 11  1  0  0  0  0
  8 12  1  0  0  0  0
  8 20  1  0  0  0  0
  9 13  2  0  0  0  0
  9 21  1  0  0  0  0
 10 12  2  0  0  0  0
 10 13  1  0  0  0  0
 11 15  2  0  0  0  0
 11 22  1  0  0  0  0
 13 23  1  0  0  0  0
 14 17  2  0  0  0  0
 14 18  1  0  0  0  0
 15 16  1  0  0  0  0
 15 24  1  0  0  0  0
 17 26  1  0  0  0  0
 18 27  1  0  0  0  0
 19 29  1  0  0  0  0
 19 30  1  0  0  0  0
 19 31  1  0  0  0  0
M  END
> <PUBCHEM_COMPOUND_CID>
47205709

> <PUBCHEM_CONFORMER_RMSD>
0.6

> <PUBCHEM_CONFORMER_DIVERSEORDER>
1
4
9
6
8
2
5
3
7

> <PUBCHEM_MMFF94_PARTIAL_CHARGES>
28
1 -0.19
10 0.08
11 -0.18
12 0.19
13 -0.15
14 0.06
15 -0.14
16 0.62
17 -0.3
18 0.14
19 0.28
2 -0.36
20 0.15
21 0.15
22 0.15
23 0.15
24 0.15
25 0.37
26 0.15
27 0.15
28 0.27
3 -0.57
4 -0.49
5 0.3
6 -0.71
7 0.03
8 -0.15
9 -0.15

> <PUBCHEM_EFFECTIVE_ROTOR_COUNT>
5

> <PUBCHEM_PHARMACOPHORE_FEATURES>
7
1 2 acceptor
1 3 acceptor
1 4 donor
1 5 donor
1 6 acceptor
5 5 6 14 17 18 rings
6 7 8 9 10 12 13 rings

> <PUBCHEM_HEAVY_ATOM_COUNT>
19

> <PUBCHEM_ATOM_DEF_STEREO_COUNT>
0

> <PUBCHEM_ATOM_UDEF_STEREO_COUNT>
0

> <PUBCHEM_BOND_DEF_STEREO_COUNT>
0

> <PUBCHEM_BOND_UDEF_STEREO_COUNT>
1

> <PUBCHEM_ISOTOPIC_ATOM_COUNT>
0

> <PUBCHEM_COMPONENT_COUNT>
1

> <PUBCHEM_CACTVS_TAUTO_COUNT>
4

> <PUBCHEM_CONFORMER_ID>
02D04D4D00000001

> <PUBCHEM_MMFF94_ENERGY>
48.8637

> <PUBCHEM_FEATURE_SELFOVERLAP>
35.52

> <PUBCHEM_SHAPE_FINGERPRINT>
10354089 29 17703791427497642180
10411042 1 17907015076799673203
11287383 113 18408884019111477658
11315181 36 17703789172333824219
117890 112 18410856576898935956
12091667 2 18259705579794625535
12107183 9 17693947701382879610
12236239 1 18202846539377150054
12616971 3 16558740205294119575
13167372 99 18408885174431650952
13533116 47 14346062166998713590
13668630 136 11455897983759025400
14251732 16 18339360764715278178
14251764 18 18409727362057900331
14341114 176 18411696578408300984
14933364 13 18410571773792082280
15048467 5 18409167735887238361
15501527 16 18409446994686990225
15778101 99 18410008866962446353
17844677 252 18410567362802802984
19489759 90 18060421300499190651
20281389 69 18343303695006552269
20645477 56 18413390960270890261
21033648 29 18187378592623237376
21150785 3 15574721291863824301
21267235 1 18342732967341981755
220451 1 17275386512648651058
23081809 10 18060700563842167414
23402539 116 18341335517584335839
23536379 177 18411982464353335170
23559900 14 18335708230121966465
2916195 48 18336550430353802664
300161 21 18343587369259362359
3545911 37 18410855485898056605
4073 2 18131345285528425210
4214541 1 18411136926520212613
42788 4 18410012118025732050
441001 317 18408603677937678433
5104073 3 18271519901160472787
542803 24 17418373584524680142
636775 72 18260552246672280769

> <PUBCHEM_SHAPE_MULTIPOLES>
357.06
17.64
1.71
0.62
11.93
0.07
-0.01
5.34
1.06
-1.79
0.04
-0.03
0
0.61

> <PUBCHEM_SHAPE_SELFOVERLAP>
760.997

> <PUBCHEM_SHAPE_VOLUME>
199.8

> <PUBCHEM_COORDINATE_TYPE>
2
5
10

$$$$

