17395796
  -OEChem-06241222523D

 40 42  0     0  0  0  0  0  0999 V2000
    2.3046    0.7991   -1.9091 S   0  0  0  0  0  0  0  0  0  0  0  0
   -1.7343   -2.4709    1.5539 F   0  0  0  0  0  0  0  0  0  0  0  0
   -1.2890    2.0888    1.4413 O   0  0  0  0  0  0  0  0  0  0  0  0
    1.1884    3.0604    0.7192 O   0  0  0  0  0  0  0  0  0  0  0  0
    2.5462   -0.7514    0.3278 N   0  0  0  0  0  0  0  0  0  0  0  0
   -3.6172    0.6263    0.5028 N   0  0  0  0  0  0  0  0  0  0  0  0
   -0.2738    1.8199   -0.6154 N   0  0  0  0  0  0  0  0  0  0  0  0
    4.0843    0.8388    0.1342 N   0  0  0  0  0  0  0  0  0  0  0  0
   -2.4904    0.9103   -0.2237 C   0  0  0  0  0  0  0  0  0  0  0  0
    1.4559   -1.5592    0.0618 C   0  0  0  0  0  0  0  0  0  0  0  0
    3.0261    0.2885   -0.4186 C   0  0  0  0  0  0  0  0  0  0  0  0
   -2.6635    0.3957   -1.4895 C   0  0  0  0  0  0  0  0  0  0  0  0
   -4.5072   -0.0613   -0.2804 C   0  0  0  0  0  0  0  0  0  0  0  0
   -1.3235    1.6374    0.2956 C   0  0  0  0  0  0  0  0  0  0  0  0
    3.3497   -0.8723    1.4265 C   0  0  0  0  0  0  0  0  0  0  0  0
   -3.9395   -0.2192   -1.5254 C   0  0  0  0  0  0  0  0  0  0  0  0
    1.8627    2.5149   -1.5154 C   0  0  0  0  0  0  0  0  0  0  0  0
   -3.8487    0.9893    1.8836 C   0  0  0  0  0  0  0  0  0  0  0  0
    0.3905   -1.6101    0.9606 C   0  0  0  0  0  0  0  0  0  0  0  0
    1.4201   -2.3206   -1.1063 C   0  0  0  0  0  0  0  0  0  0  0  0
    0.9063    2.5152   -0.3461 C   0  0  0  0  0  0  0  0  0  0  0  0
    4.2916    0.1194    1.2845 C   0  0  0  0  0  0  0  0  0  0  0  0
   -0.7110   -2.4223    0.6911 C   0  0  0  0  0  0  0  0  0  0  0  0
    0.3186   -3.1330   -1.3758 C   0  0  0  0  0  0  0  0  0  0  0  0
   -0.7469   -3.1838   -0.4771 C   0  0  0  0  0  0  0  0  0  0  0  0
   -1.9703    0.4384   -2.3174 H   0  0  0  0  0  0  0  0  0  0  0  0
   -5.4656   -0.3825    0.1050 H   0  0  0  0  0  0  0  0  0  0  0  0
    3.1998   -1.6240    2.1901 H   0  0  0  0  0  0  0  0  0  0  0  0
   -4.3952   -0.7230   -2.3661 H   0  0  0  0  0  0  0  0  0  0  0  0
    2.7575    3.0931   -1.2664 H   0  0  0  0  0  0  0  0  0  0  0  0
    1.3790    2.9774   -2.3810 H   0  0  0  0  0  0  0  0  0  0  0  0
   -4.8293    0.6190    2.1954 H   0  0  0  0  0  0  0  0  0  0  0  0
   -3.8319    2.0786    1.9678 H   0  0  0  0  0  0  0  0  0  0  0  0
   -3.0764    0.5256    2.5024 H   0  0  0  0  0  0  0  0  0  0  0  0
    0.3963   -1.0185    1.8729 H   0  0  0  0  0  0  0  0  0  0  0  0
    2.2475   -2.3142   -1.8116 H   0  0  0  0  0  0  0  0  0  0  0  0
   -0.3560    1.4231   -1.5461 H   0  0  0  0  0  0  0  0  0  0  0  0
    5.1089    0.3515    1.9516 H   0  0  0  0  0  0  0  0  0  0  0  0
    0.2923   -3.7291   -2.2833 H   0  0  0  0  0  0  0  0  0  0  0  0
   -1.6047   -3.8159   -0.6865 H   0  0  0  0  0  0  0  0  0  0  0  0
  1 11  1  0  0  0  0
  1 17  1  0  0  0  0
  2 23  1  0  0  0  0
  3 14  2  0  0  0  0
  4 21  2  0  0  0  0
  5 10  1  0  0  0  0
  5 11  1  0  0  0  0
  5 15  1  0  0  0  0
  6  9  1  0  0  0  0
  6 13  1  0  0  0  0
  6 18  1  0  0  0  0
  7 14  1  0  0  0  0
  7 21  1  0  0  0  0
  7 37  1  0  0  0  0
  8 11  2  0  0  0  0
  8 22  1  0  0  0  0
  9 12  2  0  0  0  0
  9 14  1  0  0  0  0
 10 19  2  0  0  0  0
 10 20  1  0  0  0  0
 12 16  1  0  0  0  0
 12 26  1  0  0  0  0
 13 16  2  0  0  0  0
 13 27  1  0  0  0  0
 15 22  2  0  0  0  0
 15 28  1  0  0  0  0
 16 29  1  0  0  0  0
 17 21  1  0  0  0  0
 17 30  1  0  0  0  0
 17 31  1  0  0  0  0
 18 32  1  0  0  0  0
 18 33  1  0  0  0  0
 18 34  1  0  0  0  0
 19 23  1  0  0  0  0
 19 35  1  0  0  0  0
 20 24  2  0  0  0  0
 20 36  1  0  0  0  0
 22 38  1  0  0  0  0
 23 25  2  0  0  0  0
 24 25  1  0  0  0  0
 24 39  1  0  0  0  0
 25 40  1  0  0  0  0
M  END
> <PUBCHEM_COMPOUND_CID>
17395796

> <PUBCHEM_CONFORMER_RMSD>
1.4

> <PUBCHEM_CONFORMER_DIVERSEORDER>
7
72
27
91
37
92
31
81
49
2
100
47
117
4
3
21
111
120
98
16
6
114
102
26
9
69
61
68
38
118
93
12
73
32
121
125
76
82
105
14
1
51
94
23
99
77
67
103
48
75
30
79
88
74
80
15
64
84
104
13
78
17
83
110
33
25
35
101
46
29
28
53
20
58
63
96
36
66
43
95
40
113
90
106
50
22
44
11
42
87
5
54
62
85
59
8
124
55
39
109
45
60
41
24
65
34
97
70
119
56
123
19
10
116
18
89
57
52
112
122
71
86
115
107
108

> <PUBCHEM_MMFF94_PARTIAL_CHARGES>
35
1 -0.29
10 -0.02
11 0.24
12 -0.15
13 -0.3
14 0.71
15 -0.3
16 -0.15
17 0.29
18 0.26
19 -0.15
2 -0.19
20 -0.15
21 0.57
22 0.08
23 0.19
24 -0.15
25 -0.15
26 0.15
27 0.15
28 0.15
29 0.15
3 -0.57
35 0.15
36 0.15
37 0.37
38 0.15
39 0.15
4 -0.57
40 0.15
5 0.33
6 0.05
7 -0.49
8 -0.57
9 -0.24

> <PUBCHEM_EFFECTIVE_ROTOR_COUNT>
7

> <PUBCHEM_PHARMACOPHORE_FEATURES>
8
1 3 acceptor
1 4 acceptor
1 6 cation
1 7 donor
3 5 8 11 cation
5 5 8 11 15 22 rings
5 6 9 12 13 16 rings
6 10 19 20 23 24 25 rings

> <PUBCHEM_HEAVY_ATOM_COUNT>
25

> <PUBCHEM_ATOM_DEF_STEREO_COUNT>
0

> <PUBCHEM_ATOM_UDEF_STEREO_COUNT>
0

> <PUBCHEM_BOND_DEF_STEREO_COUNT>
0

> <PUBCHEM_BOND_UDEF_STEREO_COUNT>
0

> <PUBCHEM_ISOTOPIC_ATOM_COUNT>
0

> <PUBCHEM_COMPONENT_COUNT>
1

> <PUBCHEM_CACTVS_TAUTO_COUNT>
3

> <PUBCHEM_CONFORMER_ID>
0109705400000007

> <PUBCHEM_MMFF94_ENERGY>
61.4823

> <PUBCHEM_FEATURE_SELFOVERLAP>
40.599

> <PUBCHEM_SHAPE_FINGERPRINT>
104564 63 17620741800382826212
10759866 29 17630595735560732956
1100329 8 18267311937148920848
11578080 2 17390800963746536344
12156800 1 14880206023019242223
12553582 1 18338785801728131293
12633257 1 18201991127904928955
12788726 201 17683521741307817855
13140716 1 18268146452940433840
13544592 271 18410012130626200267
13583140 156 16845291635547978275
14178342 30 18119811567050294904
14787075 74 17750251235015090912
17349148 13 18412265064289814802
17492 54 18343309145124482677
20715895 44 17628092383934647813
22113638 7 18339089185253520940
23419403 2 15886673459575315032
238 59 18128000592646865503
27425 322 15503193628087136195
445580 8 18261389000974450437
474 4 18410290354523469455
6287921 2 17971181762808409679
6438718 38 18189619341502108470

> <PUBCHEM_SHAPE_MULTIPOLES>
479.4
7.13
3.71
1.78
2.55
1.2
-0.04
-1.71
1.2
-0.63
-0.41
0.16
-0.07
-0.67

> <PUBCHEM_SHAPE_SELFOVERLAP>
1026.893

> <PUBCHEM_SHAPE_VOLUME>
270

> <PUBCHEM_COORDINATE_TYPE>
2
5
10

$$$$

