3482
  -OEChem-06251223263D

 24 24  0     1  0  0  0  0  0999 V2000
    0.2201    1.3242   -0.0140 O   0  0  0  0  0  0  0  0  0  0  0  0
   -1.6534   -2.2674   -0.6942 O   0  0  0  0  0  0  0  0  0  0  0  0
    1.0482   -2.2169    0.3767 O   0  0  0  0  0  0  0  0  0  0  0  0
   -3.1791    0.0328    0.3331 O   0  0  0  0  0  0  0  0  0  0  0  0
   -1.8088    2.4755   -0.0416 O   0  0  0  0  0  0  0  0  0  0  0  0
    2.5393    1.0451   -1.1299 O   0  0  0  0  0  0  0  0  0  0  0  0
    3.3159   -0.0852    0.7176 N   0  0  0  0  0  0  0  0  0  0  0  0
   -1.1241   -1.2121    0.1098 C   0  0  1  0  0  0  0  0  0  0  0  0
    0.3711   -1.0953   -0.1878 C   0  0  1  0  0  0  0  0  0  0  0  0
   -1.8595    0.0902   -0.2082 C   0  0  2  0  0  0  0  0  0  0  0  0
    0.9448    0.1788    0.4196 C   0  0  1  0  0  0  0  0  0  0  0  0
   -1.1426    1.2943    0.4030 C   0  0  1  0  0  0  0  0  0  0  0  0
    2.3281    0.4361   -0.0841 C   0  0  0  0  0  0  0  0  0  0  0  0
   -1.2985   -1.5012    1.1537 H   0  0  0  0  0  0  0  0  0  0  0  0
    0.5383   -1.1280   -1.2715 H   0  0  0  0  0  0  0  0  0  0  0  0
   -1.9615    0.2066   -1.2944 H   0  0  0  0  0  0  0  0  0  0  0  0
    0.9548    0.1445    1.5167 H   0  0  0  0  0  0  0  0  0  0  0  0
   -1.1978    1.2903    1.4978 H   0  0  0  0  0  0  0  0  0  0  0  0
   -1.1599   -3.0762   -0.4746 H   0  0  0  0  0  0  0  0  0  0  0  0
    0.9075   -2.2013    1.3388 H   0  0  0  0  0  0  0  0  0  0  0  0
   -3.6130   -0.7523   -0.0425 H   0  0  0  0  0  0  0  0  0  0  0  0
   -2.0804    2.3482   -0.9658 H   0  0  0  0  0  0  0  0  0  0  0  0
    4.2951    0.0224    0.4748 H   0  0  0  0  0  0  0  0  0  0  0  0
    3.1125   -0.5970    1.5702 H   0  0  0  0  0  0  0  0  0  0  0  0
  1 11  1  0  0  0  0
  1 12  1  0  0  0  0
  2  8  1  0  0  0  0
  2 19  1  0  0  0  0
  3  9  1  0  0  0  0
  3 20  1  0  0  0  0
  4 10  1  0  0  0  0
  4 21  1  0  0  0  0
  5 12  1  0  0  0  0
  5 22  1  0  0  0  0
  6 13  2  0  0  0  0
  7 13  1  0  0  0  0
  7 23  1  0  0  0  0
  7 24  1  0  0  0  0
  8  9  1  0  0  0  0
  8 10  1  0  0  0  0
  8 14  1  0  0  0  0
  9 11  1  0  0  0  0
  9 15  1  0  0  0  0
 10 12  1  0  0  0  0
 10 16  1  0  0  0  0
 11 13  1  0  0  0  0
 11 17  1  0  0  0  0
 12 18  1  0  0  0  0
M  END
> <PUBCHEM_COMPOUND_CID>
3482

> <PUBCHEM_CONFORMER_RMSD>
0.6

> <PUBCHEM_CONFORMER_DIVERSEORDER>
1
120
144
39
7
85
137
114
34
128
106
90
94
103
118
105
146
121
77
65
58
37
75
51
135
136
88
99
56
5
131
70
2
127
126
79
30
149
83
116
20
133
62
73
96
12
139
60
107
80
129
27
41
11
109
63
104
117
8
71
125
28
48
55
124
14
45
141
74
100
32
47
151
42
134
132
61
111
140
123
112
81
113
49
43
150
97
108
82
89
36
93
16
23
143
35
110
66
95
68
29
148
130
57
102
84
52
54
26
67
69
101
22
122
145
92
21
40
86
64
17
44
53
3
6
147
19
78
76
115
13
33
142
4
98
50
138
18
38
46
10
87
119
9
152
72
91
25
59
24
31
15

> <PUBCHEM_MMFF94_PARTIAL_CHARGES>
19
1 -0.56
10 0.28
11 0.34
12 0.56
13 0.57
19 0.4
2 -0.68
20 0.4
21 0.4
22 0.4
23 0.37
24 0.37
3 -0.68
4 -0.68
5 -0.68
6 -0.57
7 -0.8
8 0.28
9 0.28

> <PUBCHEM_EFFECTIVE_ROTOR_COUNT>
2.2

> <PUBCHEM_PHARMACOPHORE_FEATURES>
12
1 1 acceptor
1 2 acceptor
1 2 donor
1 3 acceptor
1 3 donor
1 4 acceptor
1 4 donor
1 5 acceptor
1 5 donor
1 6 acceptor
1 7 donor
6 1 8 9 10 11 12 rings

> <PUBCHEM_HEAVY_ATOM_COUNT>
13

> <PUBCHEM_ATOM_DEF_STEREO_COUNT>
0

> <PUBCHEM_ATOM_UDEF_STEREO_COUNT>
5

> <PUBCHEM_BOND_DEF_STEREO_COUNT>
0

> <PUBCHEM_BOND_UDEF_STEREO_COUNT>
0

> <PUBCHEM_ISOTOPIC_ATOM_COUNT>
0

> <PUBCHEM_COMPONENT_COUNT>
1

> <PUBCHEM_CACTVS_TAUTO_COUNT>
2

> <PUBCHEM_CONFORMER_ID>
00000D9A00000001

> <PUBCHEM_MMFF94_ENERGY>
28.8817

> <PUBCHEM_FEATURE_SELFOVERLAP>
60.964

> <PUBCHEM_SHAPE_FINGERPRINT>
12423570 1 7816451226134877832
12716758 59 18187920720464255462
13380535 76 18196095671153303217
15775835 57 18335699425391263960
16945 1 18408886226286811365
193761 8 18050004694888890043
20511035 2 17976549625708757515
20645476 183 17773579538856250446
20871998 184 18114461145863644031
21040471 1 18336547234634396640
21501502 16 18194119857379681969
22802520 49 18043506409412376862
2334 1 17905046945846000137
23402539 116 18261126165886714309
23463225 33 18343305898503779074
23552423 10 18198337553470614699
23559900 14 18114741646984974142
2748010 2 18122058977406786565
5084963 1 18261103097707063984
528862 383 18199190765967280907
528886 8 18337675217563448211
53812653 8 18340195341143053532

> <PUBCHEM_SHAPE_MULTIPOLES>
227.34
3.98
2.21
0.77
1.26
0.28
0.07
-0.62
-0.11
-0.99
0.16
0.26
-0.01
-0.45

> <PUBCHEM_SHAPE_SELFOVERLAP>
462.283

> <PUBCHEM_SHAPE_VOLUME>
129.4

> <PUBCHEM_COORDINATE_TYPE>
2
5
10

$$$$

