13121
  -OEChem-06261207473D

 55 58  0     0  0  0  0  0  0999 V2000
   -1.5310   -0.4236   -1.2247 Si  0  0  0  0  0  0  0  0  0  0  0  0
    1.6053   -0.1503   -1.1054 Si  0  0  0  0  0  0  0  0  0  0  0  0
    0.0673   -0.7556   -0.8837 O   0  0  0  0  0  0  0  0  0  0  0  0
   -1.9119    1.2334   -0.4204 C   0  0  0  0  0  0  0  0  0  0  0  0
   -2.6075   -1.6521   -0.2936 C   0  0  0  0  0  0  0  0  0  0  0  0
    2.8281   -1.3273   -0.2958 C   0  0  0  0  0  0  0  0  0  0  0  0
    1.7300    1.4239   -0.0820 C   0  0  0  0  0  0  0  0  0  0  0  0
   -1.9159   -0.4669   -3.0426 C   0  0  0  0  0  0  0  0  0  0  0  0
    2.0224    0.1077   -2.8995 C   0  0  0  0  0  0  0  0  0  0  0  0
   -2.2759    1.2729    0.9165 C   0  0  0  0  0  0  0  0  0  0  0  0
   -3.9849   -1.4928   -0.3008 C   0  0  0  0  0  0  0  0  0  0  0  0
    2.3976   -2.1585    0.7268 C   0  0  0  0  0  0  0  0  0  0  0  0
    1.4345    1.3797    1.2710 C   0  0  0  0  0  0  0  0  0  0  0  0
   -1.8230    2.3921   -1.1761 C   0  0  0  0  0  0  0  0  0  0  0  0
   -2.0094   -2.7012    0.3877 C   0  0  0  0  0  0  0  0  0  0  0  0
    4.1436   -1.3480   -0.7331 C   0  0  0  0  0  0  0  0  0  0  0  0
    2.1159    2.6044   -0.6967 C   0  0  0  0  0  0  0  0  0  0  0  0
   -2.5583    2.5020    1.5129 C   0  0  0  0  0  0  0  0  0  0  0  0
   -4.7834   -2.4044    0.3898 C   0  0  0  0  0  0  0  0  0  0  0  0
    3.3049   -3.0317    1.3271 C   0  0  0  0  0  0  0  0  0  0  0  0
    1.5271    2.5468    2.0296 C   0  0  0  0  0  0  0  0  0  0  0  0
   -2.1052    3.6211   -0.5797 C   0  0  0  0  0  0  0  0  0  0  0  0
   -2.8079   -3.6129    1.0782 C   0  0  0  0  0  0  0  0  0  0  0  0
    5.0508   -2.2212   -0.1330 C   0  0  0  0  0  0  0  0  0  0  0  0
    2.2087    3.7713    0.0616 C   0  0  0  0  0  0  0  0  0  0  0  0
   -2.4728    3.6760    0.7647 C   0  0  0  0  0  0  0  0  0  0  0  0
   -4.1949   -3.4645    1.0793 C   0  0  0  0  0  0  0  0  0  0  0  0
    4.6315   -3.0629    0.8971 C   0  0  0  0  0  0  0  0  0  0  0  0
    1.9143    3.7425    1.4247 C   0  0  0  0  0  0  0  0  0  0  0  0
   -1.2905    0.2374   -3.5991 H   0  0  0  0  0  0  0  0  0  0  0  0
   -1.7376   -1.4653   -3.4540 H   0  0  0  0  0  0  0  0  0  0  0  0
   -2.9621   -0.2081   -3.2327 H   0  0  0  0  0  0  0  0  0  0  0  0
    3.0231    0.5303   -3.0293 H   0  0  0  0  0  0  0  0  0  0  0  0
    1.9853   -0.8394   -3.4468 H   0  0  0  0  0  0  0  0  0  0  0  0
    1.3105    0.7913   -3.3725 H   0  0  0  0  0  0  0  0  0  0  0  0
   -2.3329    0.3842    1.5381 H   0  0  0  0  0  0  0  0  0  0  0  0
   -4.4683   -0.6773   -0.8328 H   0  0  0  0  0  0  0  0  0  0  0  0
    1.3726   -2.1522    1.0867 H   0  0  0  0  0  0  0  0  0  0  0  0
    1.1232    0.4644    1.7671 H   0  0  0  0  0  0  0  0  0  0  0  0
   -1.5343    2.3792   -2.2236 H   0  0  0  0  0  0  0  0  0  0  0  0
   -0.9335   -2.8472    0.4025 H   0  0  0  0  0  0  0  0  0  0  0  0
    4.5011   -0.7005   -1.5288 H   0  0  0  0  0  0  0  0  0  0  0  0
    2.3503    2.6607   -1.7558 H   0  0  0  0  0  0  0  0  0  0  0  0
   -2.8387    2.5457    2.5612 H   0  0  0  0  0  0  0  0  0  0  0  0
   -5.8633   -2.2894    0.3903 H   0  0  0  0  0  0  0  0  0  0  0  0
    2.9790   -3.6862    2.1302 H   0  0  0  0  0  0  0  0  0  0  0  0
    1.2948    2.5251    3.0902 H   0  0  0  0  0  0  0  0  0  0  0  0
   -2.0362    4.5357   -1.1613 H   0  0  0  0  0  0  0  0  0  0  0  0
   -2.3500   -4.4391    1.6144 H   0  0  0  0  0  0  0  0  0  0  0  0
    6.0841   -2.2448   -0.4665 H   0  0  0  0  0  0  0  0  0  0  0  0
    2.5089    4.7029   -0.4092 H   0  0  0  0  0  0  0  0  0  0  0  0
   -2.6900    4.6333    1.2296 H   0  0  0  0  0  0  0  0  0  0  0  0
   -4.8166   -4.1746    1.6167 H   0  0  0  0  0  0  0  0  0  0  0  0
    5.3381   -3.7422    1.3649 H   0  0  0  0  0  0  0  0  0  0  0  0
    1.9849    4.6514    2.0149 H   0  0  0  0  0  0  0  0  0  0  0  0
  1  3  1  0  0  0  0
  1  4  1  0  0  0  0
  1  5  1  0  0  0  0
  1  8  1  0  0  0  0
  2  3  1  0  0  0  0
  2  6  1  0  0  0  0
  2  7  1  0  0  0  0
  2  9  1  0  0  0  0
  4 10  2  0  0  0  0
  4 14  1  0  0  0  0
  5 11  2  0  0  0  0
  5 15  1  0  0  0  0
  6 12  2  0  0  0  0
  6 16  1  0  0  0  0
  7 13  2  0  0  0  0
  7 17  1  0  0  0  0
  8 30  1  0  0  0  0
  8 31  1  0  0  0  0
  8 32  1  0  0  0  0
  9 33  1  0  0  0  0
  9 34  1  0  0  0  0
  9 35  1  0  0  0  0
 10 18  1  0  0  0  0
 10 36  1  0  0  0  0
 11 19  1  0  0  0  0
 11 37  1  0  0  0  0
 12 20  1  0  0  0  0
 12 38  1  0  0  0  0
 13 21  1  0  0  0  0
 13 39  1  0  0  0  0
 14 22  2  0  0  0  0
 14 40  1  0  0  0  0
 15 23  2  0  0  0  0
 15 41  1  0  0  0  0
 16 24  2  0  0  0  0
 16 42  1  0  0  0  0
 17 25  2  0  0  0  0
 17 43  1  0  0  0  0
 18 26  2  0  0  0  0
 18 44  1  0  0  0  0
 19 27  2  0  0  0  0
 19 45  1  0  0  0  0
 20 28  2  0  0  0  0
 20 46  1  0  0  0  0
 21 29  2  0  0  0  0
 21 47  1  0  0  0  0
 22 26  1  0  0  0  0
 22 48  1  0  0  0  0
 23 27  1  0  0  0  0
 23 49  1  0  0  0  0
 24 28  1  0  0  0  0
 24 50  1  0  0  0  0
 25 29  1  0  0  0  0
 25 51  1  0  0  0  0
 26 52  1  0  0  0  0
 27 53  1  0  0  0  0
 28 54  1  0  0  0  0
 29 55  1  0  0  0  0
M  END
> <PUBCHEM_COMPOUND_CID>
13121

> <PUBCHEM_CONFORMER_RMSD>
0.8

> <PUBCHEM_CONFORMER_DIVERSEORDER>
1
12
14
11
9
5
13
2
4
3
10
6
7
15
8

> <PUBCHEM_MMFF94_PARTIAL_CHARGES>
49
1 0.82
10 -0.15
11 -0.15
12 -0.15
13 -0.15
14 -0.15
15 -0.15
16 -0.15
17 -0.15
18 -0.15
19 -0.15
2 0.82
20 -0.15
21 -0.15
22 -0.15
23 -0.15
24 -0.15
25 -0.15
26 -0.15
27 -0.15
28 -0.15
29 -0.15
3 -0.59
36 0.15
37 0.15
38 0.15
39 0.15
4 -0.22
40 0.15
41 0.15
42 0.15
43 0.15
44 0.15
45 0.15
46 0.15
47 0.15
48 0.15
49 0.15
5 -0.22
50 0.15
51 0.15
52 0.15
53 0.15
54 0.15
55 0.15
6 -0.22
7 -0.22
8 -0.08
9 -0.08

> <PUBCHEM_EFFECTIVE_ROTOR_COUNT>
6

> <PUBCHEM_PHARMACOPHORE_FEATURES>
4
6 4 10 14 18 22 26 rings
6 5 11 15 19 23 27 rings
6 6 12 16 20 24 28 rings
6 7 13 17 21 25 29 rings

> <PUBCHEM_HEAVY_ATOM_COUNT>
29

> <PUBCHEM_ATOM_DEF_STEREO_COUNT>
0

> <PUBCHEM_ATOM_UDEF_STEREO_COUNT>
0

> <PUBCHEM_BOND_DEF_STEREO_COUNT>
0

> <PUBCHEM_BOND_UDEF_STEREO_COUNT>
0

> <PUBCHEM_ISOTOPIC_ATOM_COUNT>
0

> <PUBCHEM_COMPONENT_COUNT>
1

> <PUBCHEM_CACTVS_TAUTO_COUNT>
1

> <PUBCHEM_CONFORMER_ID>
0000334100000001

> <PUBCHEM_MMFF94_ENERGY>
62.1046

> <PUBCHEM_FEATURE_SELFOVERLAP>
20.297

> <PUBCHEM_SHAPE_FINGERPRINT>
10006869 2 18114737141110859753
10290309 65 17764604118223313996
10382601 240 17680707021288743196
1100329 8 18338232786471519377
11578080 2 18131081398136661589
12633257 1 18043507577901762521
12788726 201 18338779183410290703
13004483 165 18337102381244547567
13140716 1 18336819823888241751
13965767 371 17096648686539412480
14068700 675 18046098005532387655
14223421 5 18339086973234554557
14400156 162 18053960454807050480
14866123 147 18196934594320396291
14955137 171 17967519182655331446
15664445 248 17980469067114469285
20028762 73 16750430964925187918
20600515 1 17972876136339566100
20681677 274 18411700946121275599
21703447 108 18337963276772567947
23559900 14 18130231445610090415
2818148 4 18341878689129261932
3178227 256 18049712212539559753
3380486 77 17834943544822255828
35225 105 17761728074961472211
392239 28 18049996693143401690
5486654 36 18342451599217396074
7226269 152 17829339330144882408

> <PUBCHEM_SHAPE_MULTIPOLES>
627.36
8.22
6
2.09
1.55
2.24
-1.11
-8.64
1.68
-0.85
3.17
0.1
0.33
0.38

> <PUBCHEM_SHAPE_SELFOVERLAP>
1327.966

> <PUBCHEM_SHAPE_VOLUME>
349.2

> <PUBCHEM_COORDINATE_TYPE>
2
5
10

$$$$

