11514
  -OEChem-06261205463D

 29 28  0     0  0  0  0  0  0999 V2000
   -0.3852    0.2216   -0.5179 O   0  0  0  0  0  0  0  0  0  0  0  0
    0.8059    1.9337    0.4667 O   0  0  0  0  0  0  0  0  0  0  0  0
    2.7153   -0.6580   -0.2347 C   0  0  0  0  0  0  0  0  0  0  0  0
   -2.7552   -0.2235   -0.2522 C   0  0  0  0  0  0  0  0  0  0  0  0
    1.8979    0.3647   -1.0388 C   0  0  0  0  0  0  0  0  0  0  0  0
   -1.5780    0.6788    0.1277 C   0  0  0  0  0  0  0  0  0  0  0  0
    3.2804   -0.0398    1.0466 C   0  0  0  0  0  0  0  0  0  0  0  0
    1.8446   -1.8665    0.1146 C   0  0  0  0  0  0  0  0  0  0  0  0
    0.7410    0.9492   -0.2565 C   0  0  0  0  0  0  0  0  0  0  0  0
   -2.5149   -1.6687    0.1898 C   0  0  0  0  0  0  0  0  0  0  0  0
   -4.0517    0.3084    0.3548 C   0  0  0  0  0  0  0  0  0  0  0  0
    3.5505   -0.9956   -0.8602 H   0  0  0  0  0  0  0  0  0  0  0  0
   -2.8528   -0.2272   -1.3453 H   0  0  0  0  0  0  0  0  0  0  0  0
    1.5199   -0.0805   -1.9675 H   0  0  0  0  0  0  0  0  0  0  0  0
    2.5364    1.2008   -1.3498 H   0  0  0  0  0  0  0  0  0  0  0  0
   -1.7812    1.7077   -0.1931 H   0  0  0  0  0  0  0  0  0  0  0  0
   -1.4263    0.6698    1.2141 H   0  0  0  0  0  0  0  0  0  0  0  0
    2.4943    0.2265    1.7605 H   0  0  0  0  0  0  0  0  0  0  0  0
    3.9496   -0.7487    1.5464 H   0  0  0  0  0  0  0  0  0  0  0  0
    3.8600    0.8613    0.8209 H   0  0  0  0  0  0  0  0  0  0  0  0
    1.0488   -1.6145    0.8230 H   0  0  0  0  0  0  0  0  0  0  0  0
    1.3850   -2.2923   -0.7836 H   0  0  0  0  0  0  0  0  0  0  0  0
    2.4546   -2.6508    0.5765 H   0  0  0  0  0  0  0  0  0  0  0  0
   -3.3647   -2.3037   -0.0826 H   0  0  0  0  0  0  0  0  0  0  0  0
   -2.3778   -1.7340    1.2745 H   0  0  0  0  0  0  0  0  0  0  0  0
   -1.6239   -2.0864   -0.2901 H   0  0  0  0  0  0  0  0  0  0  0  0
   -4.9030   -0.3147    0.0613 H   0  0  0  0  0  0  0  0  0  0  0  0
   -4.2515    1.3290    0.0118 H   0  0  0  0  0  0  0  0  0  0  0  0
   -4.0029    0.3217    1.4490 H   0  0  0  0  0  0  0  0  0  0  0  0
  1  6  1  0  0  0  0
  1  9  1  0  0  0  0
  2  9  2  0  0  0  0
  3  5  1  0  0  0  0
  3  7  1  0  0  0  0
  3  8  1  0  0  0  0
  3 12  1  0  0  0  0
  4  6  1  0  0  0  0
  4 10  1  0  0  0  0
  4 11  1  0  0  0  0
  4 13  1  0  0  0  0
  5  9  1  0  0  0  0
  5 14  1  0  0  0  0
  5 15  1  0  0  0  0
  6 16  1  0  0  0  0
  6 17  1  0  0  0  0
  7 18  1  0  0  0  0
  7 19  1  0  0  0  0
  7 20  1  0  0  0  0
  8 21  1  0  0  0  0
  8 22  1  0  0  0  0
  8 23  1  0  0  0  0
 10 24  1  0  0  0  0
 10 25  1  0  0  0  0
 10 26  1  0  0  0  0
 11 27  1  0  0  0  0
 11 28  1  0  0  0  0
 11 29  1  0  0  0  0
M  END
> <PUBCHEM_COMPOUND_CID>
11514

> <PUBCHEM_CONFORMER_RMSD>
0.6

> <PUBCHEM_CONFORMER_DIVERSEORDER>
1
30
5
28
16
27
8
23
10
24
6
3
29
18
22
14
19
21
12
13
25
20
9
26
17
4
15
11
2
7

> <PUBCHEM_MMFF94_PARTIAL_CHARGES>
5
1 -0.43
2 -0.57
5 0.06
6 0.28
9 0.66

> <PUBCHEM_EFFECTIVE_ROTOR_COUNT>
5

> <PUBCHEM_PHARMACOPHORE_FEATURES>
3
1 2 acceptor
3 3 7 8 hydrophobe
3 4 10 11 hydrophobe

> <PUBCHEM_HEAVY_ATOM_COUNT>
11

> <PUBCHEM_ATOM_DEF_STEREO_COUNT>
0

> <PUBCHEM_ATOM_UDEF_STEREO_COUNT>
0

> <PUBCHEM_BOND_DEF_STEREO_COUNT>
0

> <PUBCHEM_BOND_UDEF_STEREO_COUNT>
0

> <PUBCHEM_ISOTOPIC_ATOM_COUNT>
0

> <PUBCHEM_COMPONENT_COUNT>
1

> <PUBCHEM_CACTVS_TAUTO_COUNT>
1

> <PUBCHEM_CONFORMER_ID>
00002CFA00000001

> <PUBCHEM_MMFF94_ENERGY>
10.2615

> <PUBCHEM_FEATURE_SELFOVERLAP>
15.223

> <PUBCHEM_SHAPE_FINGERPRINT>
10130415 120 18410570699823482993
10219947 1 16950282914257627844
10857977 72 18261402160580074496
11062470 55 17385444336517303593
12382932 28 18408326600654122450
12932764 1 18338789014658632605
14144814 61 18336260219450431121
14251717 144 18412268337255685727
14252887 29 17968366918441083838
14350558 41 18272085028303304534
14390081 3 8935001464612787679
18186145 218 11527945681485135534
20201158 50 18343020007952807771
20281407 28 18342453759548593797
20645477 70 18342458119294048191
20653091 64 18262228928794469488
20871998 22 18262795310626954134
21501925 9 18188497869626978103
232386 152 18411979144027370638
23552423 10 18197490728075718645

> <PUBCHEM_SHAPE_MULTIPOLES>
214.64
6.26
1.66
0.88
3.45
0.36
0.01
1.13
1.06
-0.22
0.15
-0.49
-0.07
-0.04

> <PUBCHEM_SHAPE_SELFOVERLAP>
395.238

> <PUBCHEM_SHAPE_VOLUME>
136.9

> <PUBCHEM_COORDINATE_TYPE>
2
5
10

$$$$

