17395290
  -OEChem-06241222493D

 33 34  0     0  0  0  0  0  0999 V2000
    0.0730    0.9713   -0.2497 S   0  0  0  0  0  0  0  0  0  0  0  0
    0.1447    2.3469    0.2247 O   0  0  0  0  0  0  0  0  0  0  0  0
    0.5413    0.6634   -1.5941 O   0  0  0  0  0  0  0  0  0  0  0  0
    0.8832   -0.0335    0.8902 N   0  0  0  0  0  0  0  0  0  0  0  0
    4.3401   -0.1524   -0.2554 N   0  0  0  0  0  0  0  0  0  0  0  0
    3.0381    0.1691   -0.3419 N   0  0  0  0  0  0  0  0  0  0  0  0
   -1.5912    0.4490   -0.1076 C   0  0  0  0  0  0  0  0  0  0  0  0
   -1.9765   -0.8423   -0.4681 C   0  0  0  0  0  0  0  0  0  0  0  0
   -2.5394    1.3503    0.3762 C   0  0  0  0  0  0  0  0  0  0  0  0
   -3.3103   -1.2320   -0.3452 C   0  0  0  0  0  0  0  0  0  0  0  0
   -4.2584   -0.3305    0.1386 C   0  0  0  0  0  0  0  0  0  0  0  0
   -3.8729    0.9606    0.4992 C   0  0  0  0  0  0  0  0  0  0  0  0
    2.2962   -0.2437    0.7258 C   0  0  0  0  0  0  0  0  0  0  0  0
   -0.9861   -1.8316   -0.9893 C   0  0  0  0  0  0  0  0  0  0  0  0
   -5.6849   -0.7464    0.2701 C   0  0  0  0  0  0  0  0  0  0  0  0
    3.1741   -0.8799    1.5691 C   0  0  0  0  0  0  0  0  0  0  0  0
    4.4171   -0.7930    0.9141 C   0  0  0  0  0  0  0  0  0  0  0  0
    5.3120    0.1746   -1.2567 C   0  0  0  0  0  0  0  0  0  0  0  0
   -2.2743    2.3629    0.6651 H   0  0  0  0  0  0  0  0  0  0  0  0
   -3.6179   -2.2364   -0.6267 H   0  0  0  0  0  0  0  0  0  0  0  0
    0.3943   -0.4652    1.6831 H   0  0  0  0  0  0  0  0  0  0  0  0
   -4.6028    1.6727    0.8755 H   0  0  0  0  0  0  0  0  0  0  0  0
   -0.5716   -1.5129   -1.9493 H   0  0  0  0  0  0  0  0  0  0  0  0
   -0.1863   -2.0289   -0.2728 H   0  0  0  0  0  0  0  0  0  0  0  0
   -1.4631   -2.8017   -1.1751 H   0  0  0  0  0  0  0  0  0  0  0  0
    2.9993   -1.3534    2.5243 H   0  0  0  0  0  0  0  0  0  0  0  0
   -6.2143   -0.5753   -0.6725 H   0  0  0  0  0  0  0  0  0  0  0  0
   -5.7629   -1.8074    0.5305 H   0  0  0  0  0  0  0  0  0  0  0  0
   -6.1910   -0.1844    1.0625 H   0  0  0  0  0  0  0  0  0  0  0  0
    5.3666   -1.1796    1.2612 H   0  0  0  0  0  0  0  0  0  0  0  0
    5.0138   -0.2954   -2.1967 H   0  0  0  0  0  0  0  0  0  0  0  0
    5.3452    1.2611   -1.3666 H   0  0  0  0  0  0  0  0  0  0  0  0
    6.2900   -0.1997   -0.9453 H   0  0  0  0  0  0  0  0  0  0  0  0
  1  2  2  0  0  0  0
  1  3  2  0  0  0  0
  1  4  1  0  0  0  0
  1  7  1  0  0  0  0
  4 13  1  0  0  0  0
  4 21  1  0  0  0  0
  5  6  1  0  0  0  0
  5 17  1  0  0  0  0
  5 18  1  0  0  0  0
  6 13  2  0  0  0  0
  7  8  2  0  0  0  0
  7  9  1  0  0  0  0
  8 10  1  0  0  0  0
  8 14  1  0  0  0  0
  9 12  2  0  0  0  0
  9 19  1  0  0  0  0
 10 11  2  0  0  0  0
 10 20  1  0  0  0  0
 11 12  1  0  0  0  0
 11 15  1  0  0  0  0
 12 22  1  0  0  0  0
 13 16  1  0  0  0  0
 14 23  1  0  0  0  0
 14 24  1  0  0  0  0
 14 25  1  0  0  0  0
 15 27  1  0  0  0  0
 15 28  1  0  0  0  0
 15 29  1  0  0  0  0
 16 17  2  0  0  0  0
 16 26  1  0  0  0  0
 17 30  1  0  0  0  0
 18 31  1  0  0  0  0
 18 32  1  0  0  0  0
 18 33  1  0  0  0  0
M  END
> <PUBCHEM_COMPOUND_CID>
17395290

> <PUBCHEM_CONFORMER_RMSD>
0.6

> <PUBCHEM_CONFORMER_DIVERSEORDER>
1
4
40
34
11
3
14
2
41
25
31
36
6
38
7
18
8
5
15
13
32
35
20
39
9
19
33
12
10
23
26
37
28
17
24
22
30
29
27
16
21

> <PUBCHEM_MMFF94_PARTIAL_CHARGES>
24
1 1.45
10 -0.15
11 -0.14
12 -0.15
13 0.43
14 0.14
15 0.14
16 -0.15
17 -0.3
18 0.26
19 0.15
2 -0.65
20 0.15
21 0.42
22 0.15
26 0.15
3 -0.65
30 0.15
4 -0.7
5 0.31
6 -0.71
7 -0.01
8 -0.14
9 -0.15

> <PUBCHEM_EFFECTIVE_ROTOR_COUNT>
3

> <PUBCHEM_PHARMACOPHORE_FEATURES>
6
1 2 acceptor
1 3 acceptor
1 4 donor
1 6 acceptor
5 5 6 13 16 17 rings
6 7 8 9 10 11 12 rings

> <PUBCHEM_HEAVY_ATOM_COUNT>
18

> <PUBCHEM_ATOM_DEF_STEREO_COUNT>
0

> <PUBCHEM_ATOM_UDEF_STEREO_COUNT>
0

> <PUBCHEM_BOND_DEF_STEREO_COUNT>
0

> <PUBCHEM_BOND_UDEF_STEREO_COUNT>
0

> <PUBCHEM_ISOTOPIC_ATOM_COUNT>
0

> <PUBCHEM_COMPONENT_COUNT>
1

> <PUBCHEM_CACTVS_TAUTO_COUNT>
2

> <PUBCHEM_CONFORMER_ID>
01096E5A00000001

> <PUBCHEM_MMFF94_ENERGY>
39.144

> <PUBCHEM_FEATURE_SELFOVERLAP>
30.467

> <PUBCHEM_SHAPE_FINGERPRINT>
11128504 68 18131343103842722484
11287383 113 15123785167494988322
11401426 45 10447927265498946411
12011746 2 18187650219324126071
12119455 92 15140965062522729725
12236239 1 18202843266211260909
12251169 10 18113625568581809977
12553582 1 18338529576800382422
128620 24 15985106323107986730
13288520 33 18408882932574325117
13675066 3 16660370272451505496
13862211 1 18334583425838069983
14573314 32 17313096492678790012
15048467 5 16272210808132616893
15375462 189 18201446890970983568
17804303 29 18186524280620224401
17834072 33 18060417989026631871
1813 80 17917706954730339494
18222031 100 18260840280015598157
19422 9 18130229353812914706
200 152 16988570138530626968
20645477 70 16415208913848662954
21029758 27 18342455924539398965
21033648 29 16443637890458804859
21267235 1 18409721846871655187
212847 35 7204770397811489586
22950370 63 18343020003652325490
2297311 6 18040705983118595924
23402539 116 17531256058630093957
23557571 272 17894899767681614405
23559900 14 17676207931756887256
2838139 119 4967059653590135651
351380 180 13840265887865295131
351380 3 18341896285778948675
465052 167 18342451501044987027
474 4 17702094760676055036
5104073 3 18117268174202537147
83771 10 17988932183805563280

> <PUBCHEM_SHAPE_MULTIPOLES>
347.6
10.97
1.55
1.18
2.7
0.29
-0.03
-2.31
0.52
-0.88
-0.08
1.22
-0.16
-0.85

> <PUBCHEM_SHAPE_SELFOVERLAP>
721.096

> <PUBCHEM_SHAPE_VOLUME>
200.6

> <PUBCHEM_COORDINATE_TYPE>
2
5
10

$$$$

