47205674
  -OEChem-06241222593D

 36 36  0     0  0  0  0  0  0999 V2000
    5.3765    1.6264   -0.6804 Cl  0  0  0  0  0  0  0  0  0  0  0  0
   -3.7780    0.1944   -1.4729 O   0  0  0  0  0  0  0  0  0  0  0  0
    5.3603   -1.2350    0.2406 O   0  0  0  0  0  0  0  0  0  0  0  0
   -1.0762   -0.5567    0.8744 O   0  0  0  0  0  0  0  0  0  0  0  0
   -3.2733    0.9870    0.6498 N   0  0  0  0  0  0  0  0  0  0  0  0
    0.3376    1.1657    0.1303 N   0  0  0  0  0  0  0  0  0  0  0  0
   -5.3353   -0.2098    0.3361 C   0  0  0  0  0  0  0  0  0  0  0  0
   -6.2158   -0.9350   -0.6772 C   0  0  0  0  0  0  0  0  0  0  0  0
   -2.0074    1.5896    0.3056 C   0  0  0  0  0  0  0  0  0  0  0  0
   -4.0605    0.3314   -0.2856 C   0  0  0  0  0  0  0  0  0  0  0  0
    1.6173    0.5620    0.1545 C   0  0  0  0  0  0  0  0  0  0  0  0
   -7.5004   -1.4391   -0.0401 C   0  0  0  0  0  0  0  0  0  0  0  0
   -0.8803    0.5876    0.4783 C   0  0  0  0  0  0  0  0  0  0  0  0
    2.7417    1.2938   -0.2278 C   0  0  0  0  0  0  0  0  0  0  0  0
    1.7545   -0.7646    0.5633 C   0  0  0  0  0  0  0  0  0  0  0  0
    4.1402   -0.6278    0.2070 C   0  0  0  0  0  0  0  0  0  0  0  0
    4.0031    0.6988   -0.2015 C   0  0  0  0  0  0  0  0  0  0  0  0
    3.0158   -1.3596    0.5893 C   0  0  0  0  0  0  0  0  0  0  0  0
    5.7802   -1.9091   -0.9437 C   0  0  0  0  0  0  0  0  0  0  0  0
   -5.8846    0.6317    0.7753 H   0  0  0  0  0  0  0  0  0  0  0  0
   -5.0585   -0.8927    1.1483 H   0  0  0  0  0  0  0  0  0  0  0  0
   -5.6685   -1.7813   -1.1095 H   0  0  0  0  0  0  0  0  0  0  0  0
   -6.4648   -0.2620   -1.5064 H   0  0  0  0  0  0  0  0  0  0  0  0
   -1.8471    2.4381    0.9777 H   0  0  0  0  0  0  0  0  0  0  0  0
   -2.0314    1.9412   -0.7309 H   0  0  0  0  0  0  0  0  0  0  0  0
   -3.5799    1.0354    1.6172 H   0  0  0  0  0  0  0  0  0  0  0  0
   -8.0873   -0.6102    0.3684 H   0  0  0  0  0  0  0  0  0  0  0  0
   -8.1148   -1.9563   -0.7836 H   0  0  0  0  0  0  0  0  0  0  0  0
   -7.2861   -2.1416    0.7716 H   0  0  0  0  0  0  0  0  0  0  0  0
    0.3245    2.1352   -0.1793 H   0  0  0  0  0  0  0  0  0  0  0  0
    2.6324    2.3285   -0.5460 H   0  0  0  0  0  0  0  0  0  0  0  0
    0.9330   -1.3948    0.8734 H   0  0  0  0  0  0  0  0  0  0  0  0
    3.1159   -2.3935    0.9090 H   0  0  0  0  0  0  0  0  0  0  0  0
    6.7988   -2.2743   -0.7866 H   0  0  0  0  0  0  0  0  0  0  0  0
    5.7805   -1.2329   -1.8042 H   0  0  0  0  0  0  0  0  0  0  0  0
    5.1291   -2.7662   -1.1431 H   0  0  0  0  0  0  0  0  0  0  0  0
  1 17  1  0  0  0  0
  2 10  2  0  0  0  0
  3 16  1  0  0  0  0
  3 19  1  0  0  0  0
  4 13  2  0  0  0  0
  5  9  1  0  0  0  0
  5 10  1  0  0  0  0
  5 26  1  0  0  0  0
  6 11  1  0  0  0  0
  6 13  1  0  0  0  0
  6 30  1  0  0  0  0
  7  8  1  0  0  0  0
  7 10  1  0  0  0  0
  7 20  1  0  0  0  0
  7 21  1  0  0  0  0
  8 12  1  0  0  0  0
  8 22  1  0  0  0  0
  8 23  1  0  0  0  0
  9 13  1  0  0  0  0
  9 24  1  0  0  0  0
  9 25  1  0  0  0  0
 11 14  2  0  0  0  0
 11 15  1  0  0  0  0
 12 27  1  0  0  0  0
 12 28  1  0  0  0  0
 12 29  1  0  0  0  0
 14 17  1  0  0  0  0
 14 31  1  0  0  0  0
 15 18  2  0  0  0  0
 15 32  1  0  0  0  0
 16 17  2  0  0  0  0
 16 18  1  0  0  0  0
 18 33  1  0  0  0  0
 19 34  1  0  0  0  0
 19 35  1  0  0  0  0
 19 36  1  0  0  0  0
M  END
> <PUBCHEM_COMPOUND_CID>
47205674

> <PUBCHEM_CONFORMER_RMSD>
1

> <PUBCHEM_CONFORMER_DIVERSEORDER>
1
32
39
13
58
28
43
23
30
46
52
49
16
15
10
34
35
14
38
48
51
54
5
60
4
42
53
8
31
40
36
59
2
12
25
55
50
45
26
22
33
56
20
9
19
44
41
11
27
57
18
6
37
17
24
21
7
47
29
3

> <PUBCHEM_MMFF94_PARTIAL_CHARGES>
22
1 -0.18
10 0.57
11 0.12
13 0.57
14 -0.15
15 -0.15
16 0.08
17 0.18
18 -0.15
19 0.28
2 -0.57
26 0.37
3 -0.36
30 0.37
31 0.15
32 0.15
33 0.15
4 -0.57
5 -0.73
6 -0.55
7 0.06
9 0.36

> <PUBCHEM_EFFECTIVE_ROTOR_COUNT>
8

> <PUBCHEM_PHARMACOPHORE_FEATURES>
7
1 12 hydrophobe
1 2 acceptor
1 3 acceptor
1 4 acceptor
1 5 donor
1 6 donor
6 11 14 15 16 17 18 rings

> <PUBCHEM_HEAVY_ATOM_COUNT>
19

> <PUBCHEM_ATOM_DEF_STEREO_COUNT>
0

> <PUBCHEM_ATOM_UDEF_STEREO_COUNT>
0

> <PUBCHEM_BOND_DEF_STEREO_COUNT>
0

> <PUBCHEM_BOND_UDEF_STEREO_COUNT>
0

> <PUBCHEM_ISOTOPIC_ATOM_COUNT>
0

> <PUBCHEM_COMPONENT_COUNT>
1

> <PUBCHEM_CACTVS_TAUTO_COUNT>
4

> <PUBCHEM_CONFORMER_ID>
02D04D2A00000001

> <PUBCHEM_MMFF94_ENERGY>
50.5907

> <PUBCHEM_FEATURE_SELFOVERLAP>
35.52

> <PUBCHEM_SHAPE_FINGERPRINT>
10299344 5 18333728005965460683
10595046 47 18411698807153852137
10693767 8 18197496445195174170
10740516 88 17097190952780722590
11089746 13 11671779351945986947
11471102 20 18272929436702576144
117890 112 10159696897873872211
12236239 1 18333447655737587537
13167823 11 18334296499851300929
13288520 33 18260548952811191313
13533116 47 18334295366401791714
13668630 136 18409729581949805175
13862211 1 18342177829949902874
14350574 20 18342177765382656505
14576447 43 18341897437025200466
15048467 5 10375868576196995607
15348495 7 5039656110982803935
15475509 35 14924493269835049740
15537594 2 17531252751315515407
17834072 33 18409448089882623116
18335252 98 18198899223940617339
200 152 18334577961996006897
20028762 73 18335140933857463270
20281389 69 8935004767817418427
20645477 70 18341047497673532322
21150785 3 17632571643670725358
21267235 1 18334853939388107230
221357 26 18131637785490901725
22956985 138 17170938538680954382
23402539 116 18336829791995990177
23522609 53 17970880363637266617
23559900 14 18200314299832615617
2767999 5 12391520776148274631
2838139 119 9655306908769871395
2871803 45 18059856194772932184
29717793 49 18334575789058929828
300161 21 11024102144515442992
3004659 81 18272091608098262995
312425 54 4895551887942546565
335352 9 18272080588583682268
3472631 163 12319444498391036674
351380 3 18186243922535451223
42630746 31 18342176666382874632
4325135 7 18343302527001853157
465052 167 18113335297448695919
6327066 14 17628341685818175340
7495541 125 17603872182324720433
999808 66 18129935673679294691

> <PUBCHEM_SHAPE_MULTIPOLES>
365.31
17.77
1.77
0.91
19.56
0.18
-0.15
7.83
-4.05
-1.73
-0.15
0.12
0.08
-0.41

> <PUBCHEM_SHAPE_SELFOVERLAP>
730.519

> <PUBCHEM_SHAPE_VOLUME>
215.6

> <PUBCHEM_COORDINATE_TYPE>
2
5
10

$$$$

