5762
  -OEChem-06261200523D

 15 15  0     0  0  0  0  0  0999 V2000
    0.8319    2.7066   -0.0294 Cl  0  0  0  0  0  0  0  0  0  0  0  0
    0.8295   -2.7076   -0.0281 Cl  0  0  0  0  0  0  0  0  0  0  0  0
   -2.3743   -2.6660    0.0084 Cl  0  0  0  0  0  0  0  0  0  0  0  0
   -2.3719    2.6680    0.0092 Cl  0  0  0  0  0  0  0  0  0  0  0  0
    2.6391   -0.0003    1.2066 O   0  0  0  0  0  0  0  0  0  0  0  0
    2.8070   -0.0013   -1.0602 O   0  0  0  0  0  0  0  0  0  0  0  0
    0.6491   -0.0004   -0.0270 C   0  0  0  0  0  0  0  0  0  0  0  0
   -0.0477    1.2079   -0.0186 C   0  0  0  0  0  0  0  0  0  0  0  0
   -0.0489   -1.2080   -0.0187 C   0  0  0  0  0  0  0  0  0  0  0  0
   -1.4436   -1.2075   -0.0020 C   0  0  0  0  0  0  0  0  0  0  0  0
   -1.4425    1.2086   -0.0019 C   0  0  0  0  0  0  0  0  0  0  0  0
   -2.1404    0.0009    0.0065 C   0  0  0  0  0  0  0  0  0  0  0  0
    2.1127   -0.0011   -0.0449 C   0  0  0  0  0  0  0  0  0  0  0  0
   -3.2287    0.0014    0.0194 H   0  0  0  0  0  0  0  0  0  0  0  0
    3.6200   -0.0002    1.1911 H   0  0  0  0  0  0  0  0  0  0  0  0
  1  8  1  0  0  0  0
  2  9  1  0  0  0  0
  3 10  1  0  0  0  0
  4 11  1  0  0  0  0
  5 13  1  0  0  0  0
  5 15  1  0  0  0  0
  6 13  2  0  0  0  0
  7  8  2  0  0  0  0
  7  9  1  0  0  0  0
  7 13  1  0  0  0  0
  8 11  1  0  0  0  0
  9 10  2  0  0  0  0
 10 12  1  0  0  0  0
 11 12  2  0  0  0  0
 12 14  1  0  0  0  0
M  END
> <PUBCHEM_COMPOUND_CID>
5762

> <PUBCHEM_CONFORMER_RMSD>
0.4

> <PUBCHEM_CONFORMER_DIVERSEORDER>
1

> <PUBCHEM_MMFF94_PARTIAL_CHARGES>
15
1 -0.18
10 0.18
11 0.18
12 -0.15
13 0.63
14 0.15
15 0.5
2 -0.18
3 -0.18
4 -0.18
5 -0.65
6 -0.57
7 0.09
8 0.18
9 0.18

> <PUBCHEM_EFFECTIVE_ROTOR_COUNT>
1

> <PUBCHEM_PHARMACOPHORE_FEATURES>
4
1 5 acceptor
1 6 acceptor
3 5 6 13 anion
6 7 8 9 10 11 12 rings

> <PUBCHEM_HEAVY_ATOM_COUNT>
13

> <PUBCHEM_ATOM_DEF_STEREO_COUNT>
0

> <PUBCHEM_ATOM_UDEF_STEREO_COUNT>
0

> <PUBCHEM_BOND_DEF_STEREO_COUNT>
0

> <PUBCHEM_BOND_UDEF_STEREO_COUNT>
0

> <PUBCHEM_ISOTOPIC_ATOM_COUNT>
0

> <PUBCHEM_COMPONENT_COUNT>
1

> <PUBCHEM_CACTVS_TAUTO_COUNT>
1

> <PUBCHEM_CONFORMER_ID>
0000168200000001

> <PUBCHEM_MMFF94_ENERGY>
36.7098

> <PUBCHEM_FEATURE_SELFOVERLAP>
20.355

> <PUBCHEM_SHAPE_FINGERPRINT>
1 1 17545888582267568805
10967382 1 17762337320177368661
11206711 2 18412262796594464719
13140716 1 18266741277570493313
13380535 21 18194105546295294595
13380535 76 18193286418648825959
14817 1 13742627451569295753
161256 15 17977658710697486020
16945 1 18410575084979564047
193761 8 18410573989810376343
20511035 2 18048602808804995935
20645477 70 17688876333076660935
21040471 1 18266741470353566693
21501502 16 18194684993176187711
22802520 49 18042950138222758622
2334 1 17978510828356864335
23526114 1 17978229362001840863
23552423 10 17984140353302341101
23559900 14 18189046677113307502
2748010 2 18050843613807968693
5084963 1 17969209054106226130
7364860 26 17110997150273663399
81228 2 18410014312680076531

> <PUBCHEM_SHAPE_MULTIPOLES>
263.27
3.57
3.53
0.76
0.73
0.02
0.03
-0.02
0
-1.81
-0.02
0.36
0
0

> <PUBCHEM_SHAPE_SELFOVERLAP>
521.766

> <PUBCHEM_SHAPE_VOLUME>
160.4

> <PUBCHEM_COORDINATE_TYPE>
2
5
10

$$$$

