582802
  -OEChem-06241222443D

 50 54  0     1  0  0  0  0  0999 V2000
    0.0467    1.8706   -3.4801 O   0  0  0  0  0  0  0  0  0  0  0  0
   -0.1998   -0.3807   -1.1051 N   0  0  0  0  0  0  0  0  0  0  0  0
   -1.4468    2.2739   -1.8026 N   0  0  0  0  0  0  0  0  0  0  0  0
    3.5354   -2.0600    0.0854 N   0  0  0  0  0  0  0  0  0  0  0  0
    0.5130    0.8620   -1.3386 C   0  0  1  0  0  0  0  0  0  0  0  0
    1.8804    0.5078   -1.9148 C   0  0  0  0  0  0  0  0  0  0  0  0
    2.6877   -0.3266   -0.9578 C   0  0  0  0  0  0  0  0  0  0  0  0
    3.5671    0.1698    0.0214 C   0  0  0  0  0  0  0  0  0  0  0  0
   -0.3112    1.6812   -2.3164 C   0  0  0  0  0  0  0  0  0  0  0  0
   -1.8979    0.8532    0.1909 C   0  0  0  0  0  0  0  0  0  0  0  0
   -1.2765   -0.3708   -0.3967 C   0  0  0  0  0  0  0  0  0  0  0  0
    4.0946   -0.9474    0.6725 C   0  0  0  0  0  0  0  0  0  0  0  0
   -2.0342    2.0426   -0.5418 C   0  0  0  0  0  0  0  0  0  0  0  0
    2.6751   -1.6857   -0.9118 C   0  0  0  0  0  0  0  0  0  0  0  0
    3.9797    1.4525    0.4336 C   0  0  0  0  0  0  0  0  0  0  0  0
   -2.4609    0.7602    1.4744 C   0  0  0  0  0  0  0  0  0  0  0  0
   -1.9505   -1.6853   -0.1916 C   0  0  0  0  0  0  0  0  0  0  0  0
   -2.8234    3.0790   -0.0205 C   0  0  0  0  0  0  0  0  0  0  0  0
    5.0176   -0.8457    1.7194 C   0  0  0  0  0  0  0  0  0  0  0  0
   -3.2011    1.8183    2.0003 C   0  0  0  0  0  0  0  0  0  0  0  0
   -3.3975    2.9700    1.2460 C   0  0  0  0  0  0  0  0  0  0  0  0
    4.9024    1.5697    1.4793 C   0  0  0  0  0  0  0  0  0  0  0  0
    5.4121    0.4370    2.1111 C   0  0  0  0  0  0  0  0  0  0  0  0
   -3.3323   -1.7338   -0.0569 C   0  0  0  0  0  0  0  0  0  0  0  0
   -1.1889   -2.8458   -0.1381 C   0  0  0  0  0  0  0  0  0  0  0  0
   -3.8015    1.7062    3.3610 C   0  0  0  0  0  0  0  0  0  0  0  0
   -3.9629   -2.9631    0.1347 C   0  0  0  0  0  0  0  0  0  0  0  0
   -1.8196   -4.0752    0.0533 C   0  0  0  0  0  0  0  0  0  0  0  0
   -3.2066   -4.1338    0.1897 C   0  0  0  0  0  0  0  0  0  0  0  0
    0.6639    1.4305   -0.4112 H   0  0  0  0  0  0  0  0  0  0  0  0
    2.4321    1.4228   -2.1652 H   0  0  0  0  0  0  0  0  0  0  0  0
    1.7702   -0.0448   -2.8584 H   0  0  0  0  0  0  0  0  0  0  0  0
    2.1450   -2.4303   -1.4890 H   0  0  0  0  0  0  0  0  0  0  0  0
   -1.8662    3.0070   -2.3691 H   0  0  0  0  0  0  0  0  0  0  0  0
    3.7325   -3.0148    0.3519 H   0  0  0  0  0  0  0  0  0  0  0  0
    3.5912    2.3459   -0.0469 H   0  0  0  0  0  0  0  0  0  0  0  0
   -2.3304   -0.1388    2.0732 H   0  0  0  0  0  0  0  0  0  0  0  0
   -2.9717    3.9979   -0.5839 H   0  0  0  0  0  0  0  0  0  0  0  0
    5.4149   -1.7269    2.2118 H   0  0  0  0  0  0  0  0  0  0  0  0
   -3.9875    3.7957    1.6348 H   0  0  0  0  0  0  0  0  0  0  0  0
    5.2238    2.5565    1.8017 H   0  0  0  0  0  0  0  0  0  0  0  0
    6.1278    0.5511    2.9213 H   0  0  0  0  0  0  0  0  0  0  0  0
   -3.9590   -0.8506   -0.1365 H   0  0  0  0  0  0  0  0  0  0  0  0
   -0.1075   -2.8256   -0.2296 H   0  0  0  0  0  0  0  0  0  0  0  0
   -3.1608    1.1171    4.0260 H   0  0  0  0  0  0  0  0  0  0  0  0
   -3.9228    2.6914    3.8239 H   0  0  0  0  0  0  0  0  0  0  0  0
   -4.7827    1.2252    3.3002 H   0  0  0  0  0  0  0  0  0  0  0  0
   -5.0437   -3.0103    0.2315 H   0  0  0  0  0  0  0  0  0  0  0  0
   -1.2307   -4.9867    0.0985 H   0  0  0  0  0  0  0  0  0  0  0  0
   -3.6977   -5.0912    0.3372 H   0  0  0  0  0  0  0  0  0  0  0  0
  1  9  2  0  0  0  0
  2  5  1  0  0  0  0
  2 11  2  0  0  0  0
  3  9  1  0  0  0  0
  3 13  1  0  0  0  0
  3 34  1  0  0  0  0
  4 12  1  0  0  0  0
  4 14  1  0  0  0  0
  4 35  1  0  0  0  0
  5  6  1  0  0  0  0
  5  9  1  0  0  0  0
  5 30  1  0  0  0  0
  6  7  1  0  0  0  0
  6 31  1  0  0  0  0
  6 32  1  0  0  0  0
  7  8  1  0  0  0  0
  7 14  2  0  0  0  0
  8 12  1  0  0  0  0
  8 15  2  0  0  0  0
 10 11  1  0  0  0  0
 10 13  2  0  0  0  0
 10 16  1  0  0  0  0
 11 17  1  0  0  0  0
 12 19  2  0  0  0  0
 13 18  1  0  0  0  0
 14 33  1  0  0  0  0
 15 22  1  0  0  0  0
 15 36  1  0  0  0  0
 16 20  2  0  0  0  0
 16 37  1  0  0  0  0
 17 24  2  0  0  0  0
 17 25  1  0  0  0  0
 18 21  2  0  0  0  0
 18 38  1  0  0  0  0
 19 23  1  0  0  0  0
 19 39  1  0  0  0  0
 20 21  1  0  0  0  0
 20 26  1  0  0  0  0
 21 40  1  0  0  0  0
 22 23  2  0  0  0  0
 22 41  1  0  0  0  0
 23 42  1  0  0  0  0
 24 27  1  0  0  0  0
 24 43  1  0  0  0  0
 25 28  2  0  0  0  0
 25 44  1  0  0  0  0
 26 45  1  0  0  0  0
 26 46  1  0  0  0  0
 26 47  1  0  0  0  0
 27 29  2  0  0  0  0
 27 48  1  0  0  0  0
 28 29  1  0  0  0  0
 28 49  1  0  0  0  0
 29 50  1  0  0  0  0
M  END
> <PUBCHEM_COMPOUND_CID>
582802

> <PUBCHEM_CONFORMER_RMSD>
0.8

> <PUBCHEM_CONFORMER_DIVERSEORDER>
1
9
11
8
21
28
23
6
12
24
18
26
20
27
14
25
17
13
15
4
7
19
3
2
16
5
22
10

> <PUBCHEM_MMFF94_PARTIAL_CHARGES>
43
1 -0.57
10 0.09
11 0.28
12 -0.15
13 0.12
14 -0.3
15 -0.15
16 -0.15
17 0.09
18 -0.15
19 -0.15
2 -0.7
20 -0.14
21 -0.15
22 -0.15
23 -0.15
24 -0.15
25 -0.15
26 0.14
27 -0.15
28 -0.15
29 -0.15
3 -0.55
33 0.15
34 0.37
35 0.27
36 0.15
37 0.15
38 0.15
39 0.15
4 0.03
40 0.15
41 0.15
42 0.15
43 0.15
44 0.15
48 0.15
49 0.15
5 0.31
50 0.15
6 0.18
7 -0.18
9 0.57

> <PUBCHEM_EFFECTIVE_ROTOR_COUNT>
3.4

> <PUBCHEM_PHARMACOPHORE_FEATURES>
10
1 1 acceptor
1 2 acceptor
1 3 donor
1 4 cation
1 4 donor
5 4 7 8 12 14 rings
6 10 13 16 18 20 21 rings
6 17 24 25 27 28 29 rings
6 8 12 15 19 22 23 rings
7 2 3 5 9 10 11 13 rings

> <PUBCHEM_HEAVY_ATOM_COUNT>
29

> <PUBCHEM_ATOM_DEF_STEREO_COUNT>
0

> <PUBCHEM_ATOM_UDEF_STEREO_COUNT>
1

> <PUBCHEM_BOND_DEF_STEREO_COUNT>
0

> <PUBCHEM_BOND_UDEF_STEREO_COUNT>
0

> <PUBCHEM_ISOTOPIC_ATOM_COUNT>
0

> <PUBCHEM_COMPONENT_COUNT>
1

> <PUBCHEM_CACTVS_TAUTO_COUNT>
3

> <PUBCHEM_CONFORMER_ID>
0008E49200000001

> <PUBCHEM_MMFF94_ENERGY>
96.6365

> <PUBCHEM_FEATURE_SELFOVERLAP>
50.847

> <PUBCHEM_SHAPE_FINGERPRINT>
10074138 170 18409721851478184451
10842051 180 17620767085351656868
11070050 100 17176818709849188115
11552529 35 18338811035019210682
11578080 2 15287846609507569803
11582403 64 17171812676120758461
12422481 6 17984392369836977377
12553582 1 17346021330102984654
12633257 1 18337957891384758168
12788726 201 18196075669174269999
12930653 34 18186517687824722198
13004483 165 18197508332899076351
133893 2 16986579850321982644
13583140 156 17749403554752436512
13965767 371 18054503874815734034
14081887 123 18262800649018355062
14178342 30 18411417302418260614
14468879 13 16226322732975499937
14950920 106 18336846246621785274
150020 26 17410202237393257042
15274700 34 18201992219502297065
15419009 47 9510370411072019056
17809404 112 13901362395316214904
18603816 31 15980370821465037642
1979834 28 17693338507949774313
21033648 29 18121211241041818168
21344244 78 17756687660563405019
21756936 100 17532103700781101912
23559900 14 17896579856182764668
3380486 145 17918279722910895700
3380486 77 17773594923413657495
3459 110 18340780264740128584
376196 1 16807851220228861345
392239 28 17900825950988134442
469060 322 17775008976728353411
508180 173 13917341829293256144
5104073 3 18264790843381344170
6004065 56 17754468854709670911
6371380 46 17902792208665243598
653340 110 18335137579002344754
9981440 41 16951139481044468310

> <PUBCHEM_SHAPE_MULTIPOLES>
575.99
9.84
4.52
2.54
12.06
3.28
0.31
0.02
-7.66
-6.96
-0.57
-0.06
-2.4
-0.77

> <PUBCHEM_SHAPE_SELFOVERLAP>
1293.485

> <PUBCHEM_SHAPE_VOLUME>
302.4

> <PUBCHEM_COORDINATE_TYPE>
2
5
10

$$$$

