47205792
  -OEChem-06241223003D

 40 40  0     0  0  0  0  0  0999 V2000
   -2.4847    0.5643    1.6126 O   0  0  0  0  0  0  0  0  0  0  0  0
   -0.3102   -1.0294   -1.4412 O   0  0  0  0  0  0  0  0  0  0  0  0
    4.0660    0.3750    0.0743 N   0  0  0  0  0  0  0  0  0  0  0  0
   -2.6201   -1.1822    0.0759 N   0  0  0  0  0  0  0  0  0  0  0  0
    0.9157   -1.5411    0.4670 N   0  0  0  0  0  0  0  0  0  0  0  0
   -4.2690    0.5933    0.0798 C   0  0  0  0  0  0  0  0  0  0  0  0
   -4.2321    2.0111   -0.4103 C   0  0  0  0  0  0  0  0  0  0  0  0
   -4.3064    0.8794   -1.3929 C   0  0  0  0  0  0  0  0  0  0  0  0
    2.6053    0.2735    0.2108 C   0  0  0  0  0  0  0  0  0  0  0  0
   -3.0354   -0.0003    0.6747 C   0  0  0  0  0  0  0  0  0  0  0  0
    2.2183   -1.1968   -0.0375 C   0  0  0  0  0  0  0  0  0  0  0  0
    1.9506    1.2067   -0.8181 C   0  0  0  0  0  0  0  0  0  0  0  0
    2.2347    0.7166    1.6328 C   0  0  0  0  0  0  0  0  0  0  0  0
   -1.4604   -1.9150    0.4900 C   0  0  0  0  0  0  0  0  0  0  0  0
   -0.2517   -1.4288   -0.2810 C   0  0  0  0  0  0  0  0  0  0  0  0
    4.4995    1.7480    0.3145 C   0  0  0  0  0  0  0  0  0  0  0  0
    4.4799   -0.0742   -1.2514 C   0  0  0  0  0  0  0  0  0  0  0  0
   -5.1939    0.2699    0.5467 H   0  0  0  0  0  0  0  0  0  0  0  0
   -3.4263    0.6835   -1.9932 H   0  0  0  0  0  0  0  0  0  0  0  0
   -5.2440    0.7232   -1.9125 H   0  0  0  0  0  0  0  0  0  0  0  0
   -5.1193    2.6167   -0.2709 H   0  0  0  0  0  0  0  0  0  0  0  0
   -3.3011    2.5614   -0.3486 H   0  0  0  0  0  0  0  0  0  0  0  0
    2.9127   -1.8735    0.4769 H   0  0  0  0  0  0  0  0  0  0  0  0
    2.2270   -1.4513   -1.1034 H   0  0  0  0  0  0  0  0  0  0  0  0
    1.1789    0.5183    1.8515 H   0  0  0  0  0  0  0  0  0  0  0  0
    0.8629    1.1936   -0.6712 H   0  0  0  0  0  0  0  0  0  0  0  0
    2.2128    2.2626   -0.7142 H   0  0  0  0  0  0  0  0  0  0  0  0
    2.1035    0.9040   -1.8581 H   0  0  0  0  0  0  0  0  0  0  0  0
    2.3444    1.7936    1.7976 H   0  0  0  0  0  0  0  0  0  0  0  0
    2.8236    0.1849    2.3897 H   0  0  0  0  0  0  0  0  0  0  0  0
   -3.1585   -1.5530   -0.7018 H   0  0  0  0  0  0  0  0  0  0  0  0
   -1.6198   -2.9738    0.2665 H   0  0  0  0  0  0  0  0  0  0  0  0
   -1.3175   -1.7896    1.5679 H   0  0  0  0  0  0  0  0  0  0  0  0
    0.8618   -1.8996    1.4160 H   0  0  0  0  0  0  0  0  0  0  0  0
    4.1096    0.5316   -2.0835 H   0  0  0  0  0  0  0  0  0  0  0  0
    5.5751   -0.0139   -1.3106 H   0  0  0  0  0  0  0  0  0  0  0  0
    4.2700   -1.1297   -1.4456 H   0  0  0  0  0  0  0  0  0  0  0  0
    5.5973    1.7674    0.2697 H   0  0  0  0  0  0  0  0  0  0  0  0
    4.1747    2.4809   -0.4293 H   0  0  0  0  0  0  0  0  0  0  0  0
    4.2839    2.1185    1.3196 H   0  0  0  0  0  0  0  0  0  0  0  0
  1 10  2  0  0  0  0
  2 15  2  0  0  0  0
  3  9  1  0  0  0  0
  3 16  1  0  0  0  0
  3 17  1  0  0  0  0
  4 10  1  0  0  0  0
  4 14  1  0  0  0  0
  4 31  1  0  0  0  0
  5 11  1  0  0  0  0
  5 15  1  0  0  0  0
  5 34  1  0  0  0  0
  6  7  1  0  0  0  0
  6  8  1  0  0  0  0
  6 10  1  0  0  0  0
  6 18  1  0  0  0  0
  7  8  1  0  0  0  0
  7 21  1  0  0  0  0
  7 22  1  0  0  0  0
  8 19  1  0  0  0  0
  8 20  1  0  0  0  0
  9 11  1  0  0  0  0
  9 12  1  0  0  0  0
  9 13  1  0  0  0  0
 11 23  1  0  0  0  0
 11 24  1  0  0  0  0
 12 26  1  0  0  0  0
 12 27  1  0  0  0  0
 12 28  1  0  0  0  0
 13 25  1  0  0  0  0
 13 29  1  0  0  0  0
 13 30  1  0  0  0  0
 14 15  1  0  0  0  0
 14 32  1  0  0  0  0
 14 33  1  0  0  0  0
 16 38  1  0  0  0  0
 16 39  1  0  0  0  0
 16 40  1  0  0  0  0
 17 35  1  0  0  0  0
 17 36  1  0  0  0  0
 17 37  1  0  0  0  0
M  END
> <PUBCHEM_COMPOUND_CID>
47205792

> <PUBCHEM_CONFORMER_RMSD>
1

> <PUBCHEM_CONFORMER_DIVERSEORDER>
1
75
54
7
52
86
48
46
38
53
89
56
84
10
76
99
100
66
31
72
9
101
88
80
58
11
28
70
50
96
73
12
45
67
81
85
44
103
91
37
65
5
15
20
82
13
35
26
6
92
57
94
17
95
104
4
77
68
36
22
97
2
49
61
30
40
59
102
21
51
18
55
78
87
64
98
83
8
27
42
71
69
43
63
74
19
16
3
90
93
62
39
47
29
24
60
23
25
41
32
34
33
14
79

> <PUBCHEM_MMFF94_PARTIAL_CHARGES>
22
1 -0.57
10 0.63
11 0.3
14 0.36
15 0.57
16 0.27
17 0.27
18 0.1
19 0.1
2 -0.57
20 0.1
21 0.1
22 0.1
3 -0.81
31 0.37
34 0.37
4 -0.73
5 -0.73
6 -0.1
7 -0.2
8 -0.2
9 0.27

> <PUBCHEM_EFFECTIVE_ROTOR_COUNT>
8.6

> <PUBCHEM_PHARMACOPHORE_FEATURES>
6
1 1 acceptor
1 2 acceptor
1 3 cation
1 4 donor
1 5 donor
3 9 12 13 hydrophobe

> <PUBCHEM_HEAVY_ATOM_COUNT>
17

> <PUBCHEM_ATOM_DEF_STEREO_COUNT>
0

> <PUBCHEM_ATOM_UDEF_STEREO_COUNT>
0

> <PUBCHEM_BOND_DEF_STEREO_COUNT>
0

> <PUBCHEM_BOND_UDEF_STEREO_COUNT>
0

> <PUBCHEM_ISOTOPIC_ATOM_COUNT>
0

> <PUBCHEM_COMPONENT_COUNT>
1

> <PUBCHEM_CACTVS_TAUTO_COUNT>
4

> <PUBCHEM_CONFORMER_ID>
02D04DA000000001

> <PUBCHEM_MMFF94_ENERGY>
43.0999

> <PUBCHEM_FEATURE_SELFOVERLAP>
30.446

> <PUBCHEM_SHAPE_FINGERPRINT>
10498660 4 18409731750734079881
11089746 13 18335432261583180456
11543360 7 15574721274325025137
11552529 35 15840127897939463048
12077114 3 18060698390530517849
12500047 106 18411984632805742123
12596602 18 15841543077106062073
12633257 1 15554451764598319096
12670546 177 14923948924730485296
12892183 10 15554446357708928857
13544653 18 11167943541295334402
14123255 352 18413110541323475396
14123255 52 18413110541460398096
14178342 30 16630515224870466443
1420 369 9079116669705157804
14251710 61 9223232957250229025
14251752 14 18272640278308753494
14251758 9 18272380801875016242
14251764 30 16010742407926218879
14251764 38 17555476259401485469
14252887 29 11959732685426809498
14341114 328 15985098600646090332
14957384 54 17917437505509206453
15375462 189 11959718370090062039
17349148 13 4678828241950137902
17834072 32 18341892991554999637
17834072 8 18260537944852138550
18186145 218 17749111084459046491
192875 21 17823709748563413499
193927 3 9079117790686236864
19433438 48 13830128356518826545
19784866 170 17274818086242688094
200 152 13912320174778112471
20112054 13 18201722816918603724
20233049 118 18409168801118301320
20291156 8 9079115557471892121
20374829 77 7420942054849219277
20403669 9 8862935100626538377
20645477 70 17313368025402589286
21503847 285 17561076982749260500
21713013 43 5545190610926133369
221490 88 8862942779843226410
22646028 28 8070031068572514321
231179 274 18341893004434243498
23402539 116 15719665537276172282
23402655 69 17967250914101805416
23557571 272 17895753981169378687
23559900 14 18266745877006629547
23590187 135 6771855260569091893
27216 239 18059852849119879201
2838139 119 18270978945761077637
328317 168 18340777013507485397
4028521 119 18260830397285203137
4325135 7 18408323273098843055
4921388 177 15357700752157122999
548570 60 18272092729564905077

> <PUBCHEM_SHAPE_MULTIPOLES>
323.17
10.13
1.95
1.32
1.1
0.12
0.07
-5.85
-1.41
0.56
-0.05
-0.02
-0.19
0.66

> <PUBCHEM_SHAPE_SELFOVERLAP>
632.842

> <PUBCHEM_SHAPE_VOLUME>
196.3

> <PUBCHEM_COORDINATE_TYPE>
2
5
10

$$$$

