14035
  -OEChem-06241222412D

 26 25  0     0  0  0  0  0  0999 V2000
    4.5981    0.0670    0.0000 S   0  0  0  0  0  0  0  0  0  0  0  0
    4.2320   -1.2990    0.0000 S   0  0  0  0  0  0  0  0  0  0  0  0
    3.7320   -0.4330    0.0000 P   0  0  0  0  0  0  0  0  0  0  0  0
    2.8660   -0.9330    0.0000 O   0  0  0  0  0  0  0  0  0  0  0  0
    3.2320    0.4330    0.0000 O   0  0  0  0  0  0  0  0  0  0  0  0
    7.1962   -0.4330    0.0000 O   0  0  0  0  0  0  0  0  0  0  0  0
    6.3301    1.0670    0.0000 O   0  0  0  0  0  0  0  0  0  0  0  0
    5.4641   -0.4330    0.0000 C   0  0  0  0  0  0  0  0  0  0  0  0
    6.3301    0.0670    0.0000 C   0  0  0  0  0  0  0  0  0  0  0  0
    8.0622    0.0670    0.0000 C   0  0  0  0  0  0  0  0  0  0  0  0
    8.9282   -0.4330    0.0000 C   0  0  0  0  0  0  0  0  0  0  0  0
    2.0000   -0.4330    0.0000 C   0  0  0  0  0  0  0  0  0  0  0  0
    3.7320    1.2990    0.0000 C   0  0  0  0  0  0  0  0  0  0  0  0
    5.0656   -0.9080    0.0000 H   0  0  0  0  0  0  0  0  0  0  0  0
    5.8626   -0.9080    0.0000 H   0  0  0  0  0  0  0  0  0  0  0  0
    8.4607    0.5419    0.0000 H   0  0  0  0  0  0  0  0  0  0  0  0
    7.6636    0.5419    0.0000 H   0  0  0  0  0  0  0  0  0  0  0  0
    8.6182   -0.9699    0.0000 H   0  0  0  0  0  0  0  0  0  0  0  0
    9.4651   -0.7430    0.0000 H   0  0  0  0  0  0  0  0  0  0  0  0
    9.2382    0.1039    0.0000 H   0  0  0  0  0  0  0  0  0  0  0  0
    2.3100    0.1039    0.0000 H   0  0  0  0  0  0  0  0  0  0  0  0
    1.4631   -0.1230    0.0000 H   0  0  0  0  0  0  0  0  0  0  0  0
    1.6900   -0.9699    0.0000 H   0  0  0  0  0  0  0  0  0  0  0  0
    4.2690    0.9890    0.0000 H   0  0  0  0  0  0  0  0  0  0  0  0
    4.0420    1.8360    0.0000 H   0  0  0  0  0  0  0  0  0  0  0  0
    3.1951    1.6090    0.0000 H   0  0  0  0  0  0  0  0  0  0  0  0
  1  3  1  0  0  0  0
  1  8  1  0  0  0  0
  2  3  2  0  0  0  0
  3  4  1  0  0  0  0
  3  5  1  0  0  0  0
  4 12  1  0  0  0  0
  5 13  1  0  0  0  0
  6  9  1  0  0  0  0
  6 10  1  0  0  0  0
  7  9  2  0  0  0  0
  8  9  1  0  0  0  0
  8 14  1  0  0  0  0
  8 15  1  0  0  0  0
 10 11  1  0  0  0  0
 10 16  1  0  0  0  0
 10 17  1  0  0  0  0
 11 18  1  0  0  0  0
 11 19  1  0  0  0  0
 11 20  1  0  0  0  0
 12 21  1  0  0  0  0
 12 22  1  0  0  0  0
 12 23  1  0  0  0  0
 13 24  1  0  0  0  0
 13 25  1  0  0  0  0
 13 26  1  0  0  0  0
M  END
> <PUBCHEM_COMPOUND_CID>
14035

> <PUBCHEM_COMPOUND_CANONICALIZED>
1

> <PUBCHEM_CACTVS_COMPLEXITY>
201

> <PUBCHEM_CACTVS_HBOND_ACCEPTOR>
6

> <PUBCHEM_CACTVS_HBOND_DONOR>
0

> <PUBCHEM_CACTVS_ROTATABLE_BOND>
7

> <PUBCHEM_CACTVS_SUBSKEYS>
AAADccBgOAJgAAAAAAAAAAAAAAAAAAAAAAAAAAAAAAAAAAAAAAAAGgQAACAAAACkwAKCCAAABRAIAACQCAAAAAAAAAAAAAAAAAAAAAAAAAACAAAAAAAAAAAAAAAAAAAAAAAAAAAAAAAAAAAAAAAAAAAAAA==

> <PUBCHEM_IUPAC_OPENEYE_NAME>
ethyl 2-dimethoxyphosphinothioylsulfanylacetate

> <PUBCHEM_IUPAC_CAS_NAME>
2-(dimethoxyphosphinothioylthio)acetic acid ethyl ester

> <PUBCHEM_IUPAC_NAME>
ethyl 2-dimethoxyphosphinothioylsulfanylacetate

> <PUBCHEM_IUPAC_SYSTEMATIC_NAME>
ethyl 2-dimethoxyphosphinothioylsulfanylethanoate

> <PUBCHEM_IUPAC_TRADITIONAL_NAME>
2-(dimethoxythiophosphorylthio)acetic acid ethyl ester

> <PUBCHEM_IUPAC_INCHI>
InChI=1S/C6H13O4PS2/c1-4-10-6(7)5-13-11(12,8-2)9-3/h4-5H2,1-3H3

> <PUBCHEM_IUPAC_INCHIKEY>
PRVILYHTKPODNZ-UHFFFAOYSA-N

> <PUBCHEM_XLOGP3>
1.7

> <PUBCHEM_EXACT_MASS>
243.999288

> <PUBCHEM_MOLECULAR_FORMULA>
C6H13O4PS2

> <PUBCHEM_MOLECULAR_WEIGHT>
244.268782

> <PUBCHEM_OPENEYE_CAN_SMILES>
CCOC(=O)CSP(=S)(OC)OC

> <PUBCHEM_OPENEYE_ISO_SMILES>
CCOC(=O)CSP(=S)(OC)OC

> <PUBCHEM_CACTVS_TPSA>
102

> <PUBCHEM_MONOISOTOPIC_WEIGHT>
243.999288

> <PUBCHEM_TOTAL_CHARGE>
0

> <PUBCHEM_HEAVY_ATOM_COUNT>
13

> <PUBCHEM_ATOM_DEF_STEREO_COUNT>
0

> <PUBCHEM_ATOM_UDEF_STEREO_COUNT>
0

> <PUBCHEM_BOND_DEF_STEREO_COUNT>
0

> <PUBCHEM_BOND_UDEF_STEREO_COUNT>
0

> <PUBCHEM_ISOTOPIC_ATOM_COUNT>
0

> <PUBCHEM_COMPONENT_COUNT>
1

> <PUBCHEM_CACTVS_TAUTO_COUNT>
1

> <PUBCHEM_COORDINATE_TYPE>
1
5
255

$$$$

