13278
  -OEChem-06261208252D

 26 28  0     0  0  0  0  0  0999 V2000
    5.4641    1.7327    0.0000 O   0  0  0  0  0  0  0  0  0  0  0  0
    3.7320    1.7327    0.0000 O   0  0  0  0  0  0  0  0  0  0  0  0
    2.0000   -0.2673    0.0000 N   0  0  0  0  0  0  0  0  0  0  0  0
    6.3301    0.2327    0.0000 C   0  0  0  0  0  0  0  0  0  0  0  0
    4.5981    0.2327    0.0000 C   0  0  0  0  0  0  0  0  0  0  0  0
    6.3301    1.2327    0.0000 C   0  0  0  0  0  0  0  0  0  0  0  0
    5.4641   -0.2673    0.0000 C   0  0  0  0  0  0  0  0  0  0  0  0
    3.7320   -0.2673    0.0000 C   0  0  0  0  0  0  0  0  0  0  0  0
    4.5981    1.2327    0.0000 C   0  0  0  0  0  0  0  0  0  0  0  0
    7.2241   -0.3020    0.0000 C   0  0  0  0  0  0  0  0  0  0  0  0
    7.2241    1.7673    0.0000 C   0  0  0  0  0  0  0  0  0  0  0  0
    8.1301    0.2119    0.0000 C   0  0  0  0  0  0  0  0  0  0  0  0
    3.7320   -1.2673    0.0000 C   0  0  0  0  0  0  0  0  0  0  0  0
    8.1301    1.2535    0.0000 C   0  0  0  0  0  0  0  0  0  0  0  0
    2.8660    0.2327    0.0000 C   0  0  0  0  0  0  0  0  0  0  0  0
    2.8660   -1.7673    0.0000 C   0  0  0  0  0  0  0  0  0  0  0  0
    2.0000   -1.2673    0.0000 C   0  0  0  0  0  0  0  0  0  0  0  0
    5.4641   -0.8873    0.0000 H   0  0  0  0  0  0  0  0  0  0  0  0
    7.2169   -0.9220    0.0000 H   0  0  0  0  0  0  0  0  0  0  0  0
    7.2169    2.3873    0.0000 H   0  0  0  0  0  0  0  0  0  0  0  0
    4.2690   -1.5773    0.0000 H   0  0  0  0  0  0  0  0  0  0  0  0
    8.6659   -0.1002    0.0000 H   0  0  0  0  0  0  0  0  0  0  0  0
    8.6659    1.5656    0.0000 H   0  0  0  0  0  0  0  0  0  0  0  0
    2.8660    0.8527    0.0000 H   0  0  0  0  0  0  0  0  0  0  0  0
    2.8660   -2.3873    0.0000 H   0  0  0  0  0  0  0  0  0  0  0  0
    1.4631   -1.5773    0.0000 H   0  0  0  0  0  0  0  0  0  0  0  0
  1  6  1  0  0  0  0
  1  9  1  0  0  0  0
  2  9  2  0  0  0  0
  3 15  1  0  0  0  0
  3 17  2  0  0  0  0
  4  6  1  0  0  0  0
  4  7  1  0  0  0  0
  4 10  2  0  0  0  0
  5  7  2  0  0  0  0
  5  8  1  0  0  0  0
  5  9  1  0  0  0  0
  6 11  2  0  0  0  0
  7 18  1  0  0  0  0
  8 13  1  0  0  0  0
  8 15  2  0  0  0  0
 10 12  1  0  0  0  0
 10 19  1  0  0  0  0
 11 14  1  0  0  0  0
 11 20  1  0  0  0  0
 12 14  2  0  0  0  0
 12 22  1  0  0  0  0
 13 16  2  0  0  0  0
 13 21  1  0  0  0  0
 14 23  1  0  0  0  0
 15 24  1  0  0  0  0
 16 17  1  0  0  0  0
 16 25  1  0  0  0  0
 17 26  1  0  0  0  0
M  END
> <PUBCHEM_COMPOUND_CID>
13278

> <PUBCHEM_COMPOUND_CANONICALIZED>
1

> <PUBCHEM_CACTVS_COMPLEXITY>
337

> <PUBCHEM_CACTVS_HBOND_ACCEPTOR>
3

> <PUBCHEM_CACTVS_HBOND_DONOR>
0

> <PUBCHEM_CACTVS_ROTATABLE_BOND>
1

> <PUBCHEM_CACTVS_SUBSKEYS>
AAADccByMAAAAAAAAAAAAAAAAAAAAAAAAAA8QIAAAAAAAACBwAAAHgAAAAAADATBmgQ8jpIIFACoAjD3TACCiCAxIiAI2CE+bNgMJvLEtZuGOijkwBHI6Ye8yCAOAAAAAAAIAAAAAAAAABAAAAAAAAAAAA==

> <PUBCHEM_IUPAC_OPENEYE_NAME>
3-(3-pyridyl)chromen-2-one

> <PUBCHEM_IUPAC_CAS_NAME>
3-(3-pyridinyl)-1-benzopyran-2-one

> <PUBCHEM_IUPAC_NAME>
3-pyridin-3-ylchromen-2-one

> <PUBCHEM_IUPAC_SYSTEMATIC_NAME>
3-pyridin-3-ylchromen-2-one

> <PUBCHEM_IUPAC_TRADITIONAL_NAME>
3-(3-pyridyl)coumarin

> <PUBCHEM_IUPAC_INCHI>
InChI=1S/C14H9NO2/c16-14-12(11-5-3-7-15-9-11)8-10-4-1-2-6-13(10)17-14/h1-9H

> <PUBCHEM_IUPAC_INCHIKEY>
BPYWYJSDRHTBHG-UHFFFAOYSA-N

> <PUBCHEM_XLOGP3_AA>
2.5

> <PUBCHEM_EXACT_MASS>
223.063329

> <PUBCHEM_MOLECULAR_FORMULA>
C14H9NO2

> <PUBCHEM_MOLECULAR_WEIGHT>
223.22676

> <PUBCHEM_OPENEYE_CAN_SMILES>
C1=CC=C2C(=C1)C=C(C(=O)O2)C3=CN=CC=C3

> <PUBCHEM_OPENEYE_ISO_SMILES>
C1=CC=C2C(=C1)C=C(C(=O)O2)C3=CN=CC=C3

> <PUBCHEM_CACTVS_TPSA>
39.2

> <PUBCHEM_MONOISOTOPIC_WEIGHT>
223.063329

> <PUBCHEM_TOTAL_CHARGE>
0

> <PUBCHEM_HEAVY_ATOM_COUNT>
17

> <PUBCHEM_ATOM_DEF_STEREO_COUNT>
0

> <PUBCHEM_ATOM_UDEF_STEREO_COUNT>
0

> <PUBCHEM_BOND_DEF_STEREO_COUNT>
0

> <PUBCHEM_BOND_UDEF_STEREO_COUNT>
0

> <PUBCHEM_ISOTOPIC_ATOM_COUNT>
0

> <PUBCHEM_COMPONENT_COUNT>
1

> <PUBCHEM_CACTVS_TAUTO_COUNT>
1

> <PUBCHEM_COORDINATE_TYPE>
1
5
255

> <PUBCHEM_BONDANNOTATIONS>
1  6  8
1  9  8
10  12  8
11  14  8
12  14  8
13  16  8
16  17  8
3  15  8
3  17  8
4  10  8
4  6  8
4  7  8
5  7  8
5  9  8
6  11  8
8  13  8
8  15  8

$$$$

