4892
  -OEChem-06261200243D

 58 62  0     1  0  0  0  0  0999 V2000
    4.7711    2.2662    0.8083 O   0  0  0  0  0  0  0  0  0  0  0  0
   -5.7066   -2.8394    0.1507 O   0  0  0  0  0  0  0  0  0  0  0  0
   -7.2729   -0.5452    0.2209 O   0  0  0  0  0  0  0  0  0  0  0  0
    3.0123    1.2912   -0.3555 N   0  0  0  0  0  0  0  0  0  0  0  0
    0.1950    1.1365   -0.3500 N   0  0  0  0  0  0  0  0  0  0  0  0
   -1.7695   -0.1812   -0.1828 N   0  0  0  0  0  0  0  0  0  0  0  0
   -1.9041    2.2246   -0.2183 N   0  0  0  0  0  0  0  0  0  0  0  0
   -3.9862    3.3128   -0.0884 N   0  0  0  0  0  0  0  0  0  0  0  0
    6.0018   -0.3642   -0.8170 C   0  0  2  0  0  0  0  0  0  0  0  0
    5.7814   -2.1057    1.0808 C   0  0  1  0  0  0  0  0  0  0  0  0
    7.3756   -0.5195   -0.1039 C   0  0  0  0  0  0  0  0  0  0  0  0
    7.2412   -1.5715    1.0464 C   0  0  0  0  0  0  0  0  0  0  0  0
    5.0163    0.0218    0.2754 C   0  0  0  0  0  0  0  0  0  0  0  0
    4.8926   -0.8788    1.2690 C   0  0  0  0  0  0  0  0  0  0  0  0
    5.6310   -1.7630   -1.3016 C   0  0  0  0  0  0  0  0  0  0  0  0
    5.5154   -2.6708   -0.3117 C   0  0  0  0  0  0  0  0  0  0  0  0
    4.2570    1.2878    0.2637 C   0  0  0  0  0  0  0  0  0  0  0  0
    2.3529    0.1619   -1.0171 C   0  0  0  0  0  0  0  0  0  0  0  0
    2.2321    2.5256   -0.4094 C   0  0  0  0  0  0  0  0  0  0  0  0
    0.9879   -0.1015   -0.3839 C   0  0  0  0  0  0  0  0  0  0  0  0
    0.8587    2.3174    0.2275 C   0  0  0  0  0  0  0  0  0  0  0  0
   -1.1992    1.0598   -0.2476 C   0  0  0  0  0  0  0  0  0  0  0  0
   -3.1082   -0.2623   -0.0849 C   0  0  0  0  0  0  0  0  0  0  0  0
   -3.9117    0.8890   -0.0486 C   0  0  0  0  0  0  0  0  0  0  0  0
   -3.2417    2.1071   -0.1196 C   0  0  0  0  0  0  0  0  0  0  0  0
   -3.7428   -1.5003   -0.0159 C   0  0  0  0  0  0  0  0  0  0  0  0
   -5.3104    0.7919    0.0542 C   0  0  0  0  0  0  0  0  0  0  0  0
   -5.1330   -1.6052    0.0864 C   0  0  0  0  0  0  0  0  0  0  0  0
   -5.9180   -0.4581    0.1214 C   0  0  0  0  0  0  0  0  0  0  0  0
   -6.0750   -3.4626   -1.0628 C   0  0  0  0  0  0  0  0  0  0  0  0
   -7.8432   -0.5642    1.5142 C   0  0  0  0  0  0  0  0  0  0  0  0
    6.0360    0.3580   -1.6368 H   0  0  0  0  0  0  0  0  0  0  0  0
    5.6247   -2.8509    1.8644 H   0  0  0  0  0  0  0  0  0  0  0  0
    7.7075    0.4404    0.3111 H   0  0  0  0  0  0  0  0  0  0  0  0
    8.1462   -0.8455   -0.8137 H   0  0  0  0  0  0  0  0  0  0  0  0
    7.9507   -2.3918    0.8806 H   0  0  0  0  0  0  0  0  0  0  0  0
    7.5067   -1.1066    2.0042 H   0  0  0  0  0  0  0  0  0  0  0  0
    4.2484   -0.7571    2.1296 H   0  0  0  0  0  0  0  0  0  0  0  0
    5.4992   -1.9995   -2.3486 H   0  0  0  0  0  0  0  0  0  0  0  0
    5.2816   -3.7131   -0.4808 H   0  0  0  0  0  0  0  0  0  0  0  0
    2.9559   -0.7452   -0.9687 H   0  0  0  0  0  0  0  0  0  0  0  0
    2.2415    0.4261   -2.0757 H   0  0  0  0  0  0  0  0  0  0  0  0
    2.1273    2.7996   -1.4662 H   0  0  0  0  0  0  0  0  0  0  0  0
    2.7543    3.3459    0.0931 H   0  0  0  0  0  0  0  0  0  0  0  0
    0.4904   -0.8779   -0.9770 H   0  0  0  0  0  0  0  0  0  0  0  0
    1.1101   -0.4805    0.6383 H   0  0  0  0  0  0  0  0  0  0  0  0
    0.9637    2.1722    1.3100 H   0  0  0  0  0  0  0  0  0  0  0  0
    0.2801    3.2346    0.0691 H   0  0  0  0  0  0  0  0  0  0  0  0
   -3.1438   -2.4095   -0.0412 H   0  0  0  0  0  0  0  0  0  0  0  0
   -5.9476    1.6713    0.0914 H   0  0  0  0  0  0  0  0  0  0  0  0
   -4.8834    3.3379   -0.5562 H   0  0  0  0  0  0  0  0  0  0  0  0
   -3.4404    4.1664   -0.1155 H   0  0  0  0  0  0  0  0  0  0  0  0
   -6.5220   -4.4338   -0.8330 H   0  0  0  0  0  0  0  0  0  0  0  0
   -5.1971   -3.6265   -1.6961 H   0  0  0  0  0  0  0  0  0  0  0  0
   -6.8137   -2.8602   -1.6013 H   0  0  0  0  0  0  0  0  0  0  0  0
   -7.6109    0.3600    2.0532 H   0  0  0  0  0  0  0  0  0  0  0  0
   -7.4846   -1.4269    2.0850 H   0  0  0  0  0  0  0  0  0  0  0  0
   -8.9293   -0.6429    1.4139 H   0  0  0  0  0  0  0  0  0  0  0  0
  1 17  2  0  0  0  0
  2 28  1  0  0  0  0
  2 30  1  0  0  0  0
  3 29  1  0  0  0  0
  3 31  1  0  0  0  0
  4 17  1  0  0  0  0
  4 18  1  0  0  0  0
  4 19  1  0  0  0  0
  5 20  1  0  0  0  0
  5 21  1  0  0  0  0
  5 22  1  0  0  0  0
  6 22  2  0  0  0  0
  6 23  1  0  0  0  0
  7 22  1  0  0  0  0
  7 25  2  0  0  0  0
  8 25  1  0  0  0  0
  8 51  1  0  0  0  0
  8 52  1  0  0  0  0
  9 11  1  0  0  0  0
  9 13  1  0  0  0  0
  9 15  1  0  0  0  0
  9 32  1  0  0  0  0
 10 12  1  0  0  0  0
 10 14  1  0  0  0  0
 10 16  1  0  0  0  0
 10 33  1  0  0  0  0
 11 12  1  0  0  0  0
 11 34  1  0  0  0  0
 11 35  1  0  0  0  0
 12 36  1  0  0  0  0
 12 37  1  0  0  0  0
 13 14  2  0  0  0  0
 13 17  1  0  0  0  0
 14 38  1  0  0  0  0
 15 16  2  0  0  0  0
 15 39  1  0  0  0  0
 16 40  1  0  0  0  0
 18 20  1  0  0  0  0
 18 41  1  0  0  0  0
 18 42  1  0  0  0  0
 19 21  1  0  0  0  0
 19 43  1  0  0  0  0
 19 44  1  0  0  0  0
 20 45  1  0  0  0  0
 20 46  1  0  0  0  0
 21 47  1  0  0  0  0
 21 48  1  0  0  0  0
 23 24  1  0  0  0  0
 23 26  2  0  0  0  0
 24 25  1  0  0  0  0
 24 27  2  0  0  0  0
 26 28  1  0  0  0  0
 26 49  1  0  0  0  0
 27 29  1  0  0  0  0
 27 50  1  0  0  0  0
 28 29  2  0  0  0  0
 30 53  1  0  0  0  0
 30 54  1  0  0  0  0
 30 55  1  0  0  0  0
 31 56  1  0  0  0  0
 31 57  1  0  0  0  0
 31 58  1  0  0  0  0
M  END
> <PUBCHEM_COMPOUND_CID>
4892

> <PUBCHEM_CONFORMER_RMSD>
0.8

> <PUBCHEM_CONFORMER_DIVERSEORDER>
1
82
16
72
8
37
43
60
105
14
50
21
30
73
98
31
46
35
93
71
83
91
38
84
80
108
61
54
100
56
102
28
9
55
58
24
75
89
29
44
23
94
74
40
104
78
85
92
34
32
63
101
41
49
53
68
36
76
27
20
25
17
2
18
12
77
96
95
106
69
22
62
86
33
67
42
3
7
87
99
66
52
65
103
39
10
11
79
19
57
15
59
88
5
107
97
4
81
47
13
26
48
90
6
51
64
45
70

> <PUBCHEM_MMFF94_PARTIAL_CHARGES>
35
1 -0.57
10 0.28
13 -0.12
14 -0.29
15 -0.29
16 -0.29
17 0.62
18 0.3
19 0.3
2 -0.36
20 0.37
21 0.37
22 0.72
23 0.31
25 0.41
26 -0.15
27 -0.15
28 0.08
29 0.08
3 -0.36
30 0.28
31 0.28
38 0.15
39 0.15
4 -0.66
40 0.15
49 0.15
5 -0.84
50 0.15
51 0.4
52 0.4
6 -0.62
7 -0.62
8 -0.9
9 0.28

> <PUBCHEM_EFFECTIVE_ROTOR_COUNT>
6.6

> <PUBCHEM_PHARMACOPHORE_FEATURES>
9
1 1 acceptor
1 2 acceptor
1 3 acceptor
1 8 donor
4 5 6 7 22 cation
6 23 24 26 27 28 29 rings
6 4 5 18 19 20 21 rings
6 6 7 22 23 24 25 rings
8 9 10 11 12 13 14 15 16 rings

> <PUBCHEM_HEAVY_ATOM_COUNT>
31

> <PUBCHEM_ATOM_DEF_STEREO_COUNT>
0

> <PUBCHEM_ATOM_UDEF_STEREO_COUNT>
2

> <PUBCHEM_BOND_DEF_STEREO_COUNT>
0

> <PUBCHEM_BOND_UDEF_STEREO_COUNT>
0

> <PUBCHEM_ISOTOPIC_ATOM_COUNT>
0

> <PUBCHEM_COMPONENT_COUNT>
1

> <PUBCHEM_CACTVS_TAUTO_COUNT>
3

> <PUBCHEM_CONFORMER_ID>
0000131C00000001

> <PUBCHEM_MMFF94_ENERGY>
141.1086

> <PUBCHEM_FEATURE_SELFOVERLAP>
45.704

> <PUBCHEM_SHAPE_FINGERPRINT>
10050765 1 18411700971754793373
10299344 5 18131066065382670410
10316853 100 18413105065984530242
10319926 262 18334584576314338105
10622 236 17609792898555344655
10939801 23 18335984156633615100
11331351 85 18272651238628281293
11456790 92 17895462675523841545
11524674 6 17095525089310431007
117089 54 17913479148250261475
11719270 70 18040150729683552103
11796584 16 18267307710943202096
11963148 33 18269561696938173146
12166972 35 18272084994060351380
12422481 6 17530965778406041870
12516196 113 18410576210709583440
13533116 47 18342175518951672136
1361 4 18338798901346553510
13685833 64 18411136952923123112
13782708 43 18186525375720872655
14211702 104 18341609274584294091
14216079 64 18412825789687488543
14347332 77 18412546504959586725
14556957 393 15051445076289125798
15001296 14 17987524714496234930
15183329 4 18341894108188240762
15352257 5 18411981360183074282
15419008 42 17828487199595347996
16993089 31 17346309346916787755
17844677 252 18410289220715653672
17857418 61 18343864441978997102
18393751 57 17034465660877583033
1979834 28 17313101995244066374
19958102 18 17775292625206779611
20028762 73 18407760335456005742
20691028 202 9583258131820040055
20982279 24 17703490140180116515
21130935 74 18188489069281641475
21150785 3 14333405636278267505
21267235 1 18342170072896126553
21424621 283 6843922771533850564
21585483 132 18269573658010720459
21781051 124 17274521154216886347
21792934 111 18408882958835181233
23522609 53 18125969807081706316
23559900 14 18339931424541599857
23569914 152 12460525107815612234
23569943 247 17343793861279116866
3004659 81 18202001028142331492
3383291 50 18343582936837965035
3504750 166 18333731304706013917
397830 11 18187661175859928384
4073 2 18129938954173686000
439807 62 18272367581153211242
465052 167 18334013926354492828
5104073 3 18259985985198399176
5718773 13 18337113350485585247
6081469 158 18202850946630755575
9962374 69 18338803312135184630

> <PUBCHEM_SHAPE_MULTIPOLES>
595.45
23.33
3.36
1.02
2.69
0.18
0.11
15.79
4.14
2.02
-0.37
-0.6
0.41
-0.53

> <PUBCHEM_SHAPE_SELFOVERLAP>
1304.45

> <PUBCHEM_SHAPE_VOLUME>
320.8

> <PUBCHEM_COORDINATE_TYPE>
2
5
10

$$$$

