5847
  -OEChem-06261200552D

 35 36  0     0  0  0  0  0  0999 V2000
    2.9749    1.8135    0.0000 Si  0  0  0  0  0  0  0  0  0  0  0  0
    2.3664    0.4047    0.0000 O   0  0  0  0  0  0  0  0  0  0  0  0
    5.8305    0.4047    0.0000 O   0  0  0  0  0  0  0  0  0  0  0  0
    4.0984   -2.5953    0.0000 O   0  0  0  0  0  0  0  0  0  0  0  0
    3.2324   -1.0953    0.0000 N   0  0  0  0  0  0  0  0  0  0  0  0
    4.9644   -1.0953    0.0000 N   0  0  0  0  0  0  0  0  0  0  0  0
    4.0984    0.4047    0.0000 C   0  0  0  0  0  0  0  0  0  0  0  0
    3.1974    0.8386    0.0000 C   0  0  0  0  0  0  0  0  0  0  0  0
    3.5984    2.5953    0.0000 C   0  0  0  0  0  0  0  0  0  0  0  0
    4.9994    0.8386    0.0000 C   0  0  0  0  0  0  0  0  0  0  0  0
    4.5984    2.5953    0.0000 C   0  0  0  0  0  0  0  0  0  0  0  0
    5.2219    1.8135    0.0000 C   0  0  0  0  0  0  0  0  0  0  0  0
    2.1931    2.4370    0.0000 C   0  0  0  0  0  0  0  0  0  0  0  0
    2.0000    1.5910    0.0000 C   0  0  0  0  0  0  0  0  0  0  0  0
    4.9644   -0.0953    0.0000 C   0  0  0  0  0  0  0  0  0  0  0  0
    3.2324   -0.0953    0.0000 C   0  0  0  0  0  0  0  0  0  0  0  0
    4.0984   -1.5953    0.0000 C   0  0  0  0  0  0  0  0  0  0  0  0
    2.5774    0.8386    0.0000 H   0  0  0  0  0  0  0  0  0  0  0  0
    3.0595    0.2341    0.0000 H   0  0  0  0  0  0  0  0  0  0  0  0
    3.7364    3.1998    0.0000 H   0  0  0  0  0  0  0  0  0  0  0  0
    3.0398    2.8643    0.0000 H   0  0  0  0  0  0  0  0  0  0  0  0
    5.1374    0.2341    0.0000 H   0  0  0  0  0  0  0  0  0  0  0  0
    5.6194    0.8386    0.0000 H   0  0  0  0  0  0  0  0  0  0  0  0
    5.1570    2.8643    0.0000 H   0  0  0  0  0  0  0  0  0  0  0  0
    4.4604    3.1998    0.0000 H   0  0  0  0  0  0  0  0  0  0  0  0
    5.7805    1.5445    0.0000 H   0  0  0  0  0  0  0  0  0  0  0  0
    5.6085    2.2982    0.0000 H   0  0  0  0  0  0  0  0  0  0  0  0
    2.5797    2.9217    0.0000 H   0  0  0  0  0  0  0  0  0  0  0  0
    1.7084    2.8235    0.0000 H   0  0  0  0  0  0  0  0  0  0  0  0
    1.8065    1.9522    0.0000 H   0  0  0  0  0  0  0  0  0  0  0  0
    1.8620    2.1954    0.0000 H   0  0  0  0  0  0  0  0  0  0  0  0
    1.3955    1.4530    0.0000 H   0  0  0  0  0  0  0  0  0  0  0  0
    2.1380    0.9865    0.0000 H   0  0  0  0  0  0  0  0  0  0  0  0
    5.5014   -1.4053    0.0000 H   0  0  0  0  0  0  0  0  0  0  0  0
    2.6955   -1.4053    0.0000 H   0  0  0  0  0  0  0  0  0  0  0  0
  1  8  1  0  0  0  0
  1  9  1  0  0  0  0
  1 13  1  0  0  0  0
  1 14  1  0  0  0  0
  2 16  2  0  0  0  0
  3 15  2  0  0  0  0
  4 17  2  0  0  0  0
  5 16  1  0  0  0  0
  5 17  1  0  0  0  0
  5 35  1  0  0  0  0
  6 15  1  0  0  0  0
  6 17  1  0  0  0  0
  6 34  1  0  0  0  0
  7  8  1  0  0  0  0
  7 10  1  0  0  0  0
  7 15  1  0  0  0  0
  7 16  1  0  0  0  0
  8 18  1  0  0  0  0
  8 19  1  0  0  0  0
  9 11  1  0  0  0  0
  9 20  1  0  0  0  0
  9 21  1  0  0  0  0
 10 12  1  0  0  0  0
 10 22  1  0  0  0  0
 10 23  1  0  0  0  0
 11 12  1  0  0  0  0
 11 24  1  0  0  0  0
 11 25  1  0  0  0  0
 12 26  1  0  0  0  0
 12 27  1  0  0  0  0
 13 28  1  0  0  0  0
 13 29  1  0  0  0  0
 13 30  1  0  0  0  0
 14 31  1  0  0  0  0
 14 32  1  0  0  0  0
 14 33  1  0  0  0  0
M  END
> <PUBCHEM_COMPOUND_CID>
5847

> <PUBCHEM_COMPOUND_CANONICALIZED>
1

> <PUBCHEM_CACTVS_COMPLEXITY>
372

> <PUBCHEM_CACTVS_HBOND_ACCEPTOR>
3

> <PUBCHEM_CACTVS_HBOND_DONOR>
2

> <PUBCHEM_CACTVS_ROTATABLE_BOND>
0

> <PUBCHEM_CACTVS_SUBSKEYS>
AAADceBzMAgAAAAAAAAAAAAAAAAAAAAAAAAsAAAABIAAAAAAAAAAHhAQAAAADgCBoABDAALAAAEIAAEQEAAAAAAAAAAAAAEAAACAABoIwAAEAAAIBSIAAAEYCAANAAAAAAAAAAAAAAAAAAAAAAAAAAAAAA==

> <PUBCHEM_IUPAC_OPENEYE_NAME>
8,8-dimethyl-2,4-diaza-8-silaspiro[5.6]dodecane-1,3,5-trione

> <PUBCHEM_IUPAC_CAS_NAME>
8,8-dimethyl-2,4-diaza-8-silaspiro[5.6]dodecane-1,3,5-trione

> <PUBCHEM_IUPAC_NAME>
8,8-dimethyl-2,4-diaza-8-silaspiro[5.6]dodecane-1,3,5-trione

> <PUBCHEM_IUPAC_SYSTEMATIC_NAME>
8,8-dimethyl-2,4-diaza-8-silaspiro[5.6]dodecane-1,3,5-trione

> <PUBCHEM_IUPAC_TRADITIONAL_NAME>
8,8-dimethyl-2,4-diaza-8-silaspiro[5.6]dodecane-1,3,5-trione

> <PUBCHEM_IUPAC_INCHI>
InChI=1S/C11H18N2O3Si/c1-17(2)6-4-3-5-11(7-17)8(14)12-10(16)13-9(11)15/h3-7H2,1-2H3,(H2,12,13,14,15,16)

> <PUBCHEM_IUPAC_INCHIKEY>
BXDUGSCGMFHWBB-UHFFFAOYSA-N

> <PUBCHEM_EXACT_MASS>
254.108669

> <PUBCHEM_MOLECULAR_FORMULA>
C11H18N2O3Si

> <PUBCHEM_MOLECULAR_WEIGHT>
254.35772

> <PUBCHEM_OPENEYE_CAN_SMILES>
C[Si]1(CCCCC2(C1)C(=O)NC(=O)NC2=O)C

> <PUBCHEM_OPENEYE_ISO_SMILES>
C[Si]1(CCCCC2(C1)C(=O)NC(=O)NC2=O)C

> <PUBCHEM_CACTVS_TPSA>
75.3

> <PUBCHEM_MONOISOTOPIC_WEIGHT>
254.108669

> <PUBCHEM_TOTAL_CHARGE>
0

> <PUBCHEM_HEAVY_ATOM_COUNT>
17

> <PUBCHEM_ATOM_DEF_STEREO_COUNT>
0

> <PUBCHEM_ATOM_UDEF_STEREO_COUNT>
0

> <PUBCHEM_BOND_DEF_STEREO_COUNT>
0

> <PUBCHEM_BOND_UDEF_STEREO_COUNT>
0

> <PUBCHEM_ISOTOPIC_ATOM_COUNT>
0

> <PUBCHEM_COMPONENT_COUNT>
1

> <PUBCHEM_CACTVS_TAUTO_COUNT>
5

> <PUBCHEM_COORDINATE_TYPE>
1
5
255

$$$$

