9284
  -OEChem-06261203343D

 38 41  0     0  0  0  0  0  0999 V2000
    0.3363   -0.7356    0.0192 N   0  3  0  0  0  0  0  0  0  0  0  0
    0.2497    0.6882   -0.0175 N   0  0  0  0  0  0  0  0  0  0  0  0
   -0.9453   -1.2258    0.0224 N   0  0  0  0  0  0  0  0  0  0  0  0
   -1.0207    1.1292   -0.0379 N   0  0  0  0  0  0  0  0  0  0  0  0
    1.5207   -1.5396    0.0489 C   0  0  0  0  0  0  0  0  0  0  0  0
    1.3084    1.5931   -0.0315 C   0  0  0  0  0  0  0  0  0  0  0  0
   -1.6921   -0.0442   -0.0128 C   0  0  0  0  0  0  0  0  0  0  0  0
   -3.1270   -0.0938   -0.0218 C   0  0  0  0  0  0  0  0  0  0  0  0
    2.1007   -1.9587   -1.1444 C   0  0  0  0  0  0  0  0  0  0  0  0
    2.0831   -1.8958    1.2707 C   0  0  0  0  0  0  0  0  0  0  0  0
    1.1465    2.8493    0.5410 C   0  0  0  0  0  0  0  0  0  0  0  0
    2.5166    1.2291   -0.6146 C   0  0  0  0  0  0  0  0  0  0  0  0
   -3.7825   -1.3248    0.0046 C   0  0  0  0  0  0  0  0  0  0  0  0
   -3.8656    1.0890   -0.0571 C   0  0  0  0  0  0  0  0  0  0  0  0
    3.2544   -2.7419   -1.1157 C   0  0  0  0  0  0  0  0  0  0  0  0
    3.2370   -2.6790    1.2994 C   0  0  0  0  0  0  0  0  0  0  0  0
    2.2076    3.7545    0.5300 C   0  0  0  0  0  0  0  0  0  0  0  0
    3.5777    2.1344   -0.6254 C   0  0  0  0  0  0  0  0  0  0  0  0
    3.8226   -3.1021    0.1061 C   0  0  0  0  0  0  0  0  0  0  0  0
    3.4232    3.3972   -0.0531 C   0  0  0  0  0  0  0  0  0  0  0  0
   -5.1765   -1.3730   -0.0045 C   0  0  0  0  0  0  0  0  0  0  0  0
   -5.2597    1.0407   -0.0661 C   0  0  0  0  0  0  0  0  0  0  0  0
   -5.9150   -0.1904   -0.0398 C   0  0  0  0  0  0  0  0  0  0  0  0
    1.6571   -1.6906   -2.0995 H   0  0  0  0  0  0  0  0  0  0  0  0
    1.6311   -1.5683    2.2027 H   0  0  0  0  0  0  0  0  0  0  0  0
    0.2153    3.1526    1.0124 H   0  0  0  0  0  0  0  0  0  0  0  0
    2.6755    0.3239   -1.1700 H   0  0  0  0  0  0  0  0  0  0  0  0
   -3.2369   -2.2646    0.0324 H   0  0  0  0  0  0  0  0  0  0  0  0
   -3.3911    2.0669   -0.0783 H   0  0  0  0  0  0  0  0  0  0  0  0
    3.7091   -3.0731   -2.0447 H   0  0  0  0  0  0  0  0  0  0  0  0
    3.6796   -2.9592    2.2507 H   0  0  0  0  0  0  0  0  0  0  0  0
    2.0881    4.7373    0.9766 H   0  0  0  0  0  0  0  0  0  0  0  0
    4.5166    1.8666   -1.1014 H   0  0  0  0  0  0  0  0  0  0  0  0
    4.7209   -3.7122    0.1285 H   0  0  0  0  0  0  0  0  0  0  0  0
    4.2477    4.1038   -0.0664 H   0  0  0  0  0  0  0  0  0  0  0  0
   -5.6872   -2.3313    0.0159 H   0  0  0  0  0  0  0  0  0  0  0  0
   -5.8354    1.9613   -0.0935 H   0  0  0  0  0  0  0  0  0  0  0  0
   -7.0004   -0.2280   -0.0468 H   0  0  0  0  0  0  0  0  0  0  0  0
  1  2  1  0  0  0  0
  1  3  2  0  0  0  0
  1  5  1  0  0  0  0
  2  4  1  0  0  0  0
  2  6  1  0  0  0  0
  3  7  1  0  0  0  0
  4  7  2  0  0  0  0
  5  9  2  0  0  0  0
  5 10  1  0  0  0  0
  6 11  2  0  0  0  0
  6 12  1  0  0  0  0
  7  8  1  0  0  0  0
  8 13  2  0  0  0  0
  8 14  1  0  0  0  0
  9 15  1  0  0  0  0
  9 24  1  0  0  0  0
 10 16  2  0  0  0  0
 10 25  1  0  0  0  0
 11 17  1  0  0  0  0
 11 26  1  0  0  0  0
 12 18  2  0  0  0  0
 12 27  1  0  0  0  0
 13 21  1  0  0  0  0
 13 28  1  0  0  0  0
 14 22  2  0  0  0  0
 14 29  1  0  0  0  0
 15 19  2  0  0  0  0
 15 30  1  0  0  0  0
 16 19  1  0  0  0  0
 16 31  1  0  0  0  0
 17 20  2  0  0  0  0
 17 32  1  0  0  0  0
 18 20  1  0  0  0  0
 18 33  1  0  0  0  0
 19 34  1  0  0  0  0
 20 35  1  0  0  0  0
 21 23  2  0  0  0  0
 21 36  1  0  0  0  0
 22 23  1  0  0  0  0
 22 37  1  0  0  0  0
 23 38  1  0  0  0  0
M  CHG  1   1   1
M  END
> <PUBCHEM_COMPOUND_CID>
9284

> <PUBCHEM_CONFORMER_RMSD>
0.6

> <PUBCHEM_CONFORMER_DIVERSEORDER>
1
2

> <PUBCHEM_MMFF94_PARTIAL_CHARGES>
38
1 0.16
10 -0.15
11 -0.15
12 -0.15
13 -0.15
14 -0.15
15 -0.15
16 -0.15
17 -0.15
18 -0.15
19 -0.15
2 0.85
20 -0.15
21 -0.15
22 -0.15
23 -0.15
24 0.15
25 0.15
26 0.15
27 0.15
28 0.15
29 0.15
3 -0.18
30 0.15
31 0.15
32 0.15
33 0.15
34 0.15
35 0.15
36 0.15
37 0.15
38 0.15
4 -0.71
5 0.39
6 -0.02
7 0.46
8 0.05
9 -0.15

> <PUBCHEM_EFFECTIVE_ROTOR_COUNT>
3

> <PUBCHEM_PHARMACOPHORE_FEATURES>
5
3 3 4 7 cation
5 1 2 3 4 7 rings
6 5 9 10 15 16 19 rings
6 6 11 12 17 18 20 rings
6 8 13 14 21 22 23 rings

> <PUBCHEM_HEAVY_ATOM_COUNT>
23

> <PUBCHEM_ATOM_DEF_STEREO_COUNT>
0

> <PUBCHEM_ATOM_UDEF_STEREO_COUNT>
0

> <PUBCHEM_BOND_DEF_STEREO_COUNT>
0

> <PUBCHEM_BOND_UDEF_STEREO_COUNT>
0

> <PUBCHEM_ISOTOPIC_ATOM_COUNT>
0

> <PUBCHEM_COMPONENT_COUNT>
1

> <PUBCHEM_CACTVS_TAUTO_COUNT>
1

> <PUBCHEM_CONFORMER_ID>
0000244400000001

> <PUBCHEM_MMFF94_ENERGY>
96.9399

> <PUBCHEM_FEATURE_SELFOVERLAP>
25.372

> <PUBCHEM_SHAPE_FINGERPRINT>
10050765 1 18410856543599273323
10411042 1 18194118749262665558
10693767 8 17968364715671507678
1100329 8 17977380865332696153
11405975 8 18411979204821245731
11963148 33 17980769234068927147
12107183 9 18047463706886214617
12549972 3 17845919780660517249
12553582 1 18122614226378701939
12592029 89 18339080363448749856
12644460 14 18410849945664473723
12730499 353 18267293245276707745
12788726 201 17767397255540667394
13009979 54 17677881521160362658
13140716 1 18121788218505718656
13149001 5 17696787670971673212
13533116 47 18411420588542729315
138480 1 18338234976603990812
13878862 14 18269296667580779869
13955234 65 18410009897137205001
140371 6 17972876144818366909
14739800 52 17531256019501012345
14931854 50 18195495222531199988
14955137 171 18334863818572407146
15250474 111 18115601331375513175
15664445 248 18263353866813663566
15927050 60 18120937197154510550
17492 89 18409449155504654055
17844677 252 18338793520379895979
1813 80 18117557538148316622
18222031 100 18190180268098859998
18681886 176 18334860553991820522
18785283 64 18271530801681928740
20369508 70 18271527597304139923
20554085 129 17897175628392956336
20567600 347 18126849292018687930
20600515 1 17905627831688370984
20645477 70 18410573981204806087
20832881 197 18129098012467591683
21304303 172 17901387019450506624
21344244 78 18188787139806002889
21421861 104 18411415137427689536
21859007 373 17487644011582249645
221490 88 18412818084537570443
22182313 1 17703526453605935581
23366157 5 18273214179336879364
23419403 2 17915483750982789692
23557571 272 17902797701907491502
23559900 14 18337398231307668307
314173 41 18266176308619095183
3298306 158 18266453209718925172
3411729 13 18341616975602788336
3421961 26 18410014368171831386
38695281 34 18188487952584668598
3886686 26 16107572462373343466
4058900 60 18127395775263292228
4073 2 18129093430170029491
5104073 3 18412536618788637355
5385378 56 18337105670535459961
5895379 119 17460579553695840217
6138700 20 18410285892701237140
6443956 14 18411418453574841436
7364860 26 18409166597678414636
77188 2 18266179624839691276
81228 2 17614842242047864976
8272917 22 18410009901332204893
8863177 126 17987497283431945107
9709674 26 18341047428943844051
9841814 1 18271813470379940890
9981440 41 17978798912998334393

> <PUBCHEM_SHAPE_MULTIPOLES>
453.41
10.52
4.47
0.93
17.57
1.81
-0.05
-1.9
0.44
-8.04
-0.43
-0.86
-0.47
-0.17

> <PUBCHEM_SHAPE_SELFOVERLAP>
1001.754

> <PUBCHEM_SHAPE_VOLUME>
241

> <PUBCHEM_COORDINATE_TYPE>
2
5
10

$$$$

