3619
  -OEChem-06251223332D

 54 55  0     1  0  0  0  0  0999 V2000
    5.5000    1.2500    0.0000 P   0  0  0  0  0  0  0  0  0  0  0  0
    6.3660   -0.2500    0.0000 O   0  0  0  0  0  0  0  0  0  0  0  0
    4.6340    1.7500    0.0000 O   0  0  0  0  0  0  0  0  0  0  0  0
    5.0000    0.3840    0.0000 O   0  0  0  0  0  0  0  0  0  0  0  0
    6.0000    2.1160    0.0000 O   0  0  0  0  0  0  0  0  0  0  0  0
    7.2320   -1.7500    0.0000 O   0  0  0  0  0  0  0  0  0  0  0  0
    3.5000   -0.4821    0.0000 O   0  0  0  0  0  0  0  0  0  0  0  0
    2.9019    1.7500    0.0000 O   0  0  0  0  0  0  0  0  0  0  0  0
    8.9641   -1.7500    0.0000 O   0  0  0  0  0  0  0  0  0  0  0  0
    2.0000    0.3840    0.0000 O   0  0  0  0  0  0  0  0  0  0  0  0
    3.7680    3.2500    0.0000 O   0  0  0  0  0  0  0  0  0  0  0  0
    6.3660    0.7500    0.0000 C   0  0  3  0  0  0  0  0  0  0  0  0
    7.2320    1.2500    0.0000 C   0  0  0  0  0  0  0  0  0  0  0  0
    8.0981    0.7500    0.0000 C   0  0  0  0  0  0  0  0  0  0  0  0
    8.9641    1.2500    0.0000 C   0  0  0  0  0  0  0  0  0  0  0  0
    7.2320    2.2500    0.0000 C   0  0  0  0  0  0  0  0  0  0  0  0
    8.9641    2.2500    0.0000 C   0  0  0  0  0  0  0  0  0  0  0  0
    8.0981    2.7500    0.0000 C   0  0  0  0  0  0  0  0  0  0  0  0
    9.8580    0.7153    0.0000 C   0  0  0  0  0  0  0  0  0  0  0  0
    9.8580    2.7847    0.0000 C   0  0  0  0  0  0  0  0  0  0  0  0
    7.2320   -0.7500    0.0000 C   0  0  0  0  0  0  0  0  0  0  0  0
   10.7641    1.2292    0.0000 C   0  0  0  0  0  0  0  0  0  0  0  0
   10.7641    2.2708    0.0000 C   0  0  0  0  0  0  0  0  0  0  0  0
    3.7680    1.2500    0.0000 C   0  0  0  0  0  0  0  0  0  0  0  0
    4.0000    0.3840    0.0000 C   0  0  0  0  0  0  0  0  0  0  0  0
    8.0981   -2.2500    0.0000 C   0  0  0  0  0  0  0  0  0  0  0  0
    2.9019    2.7500    0.0000 C   0  0  0  0  0  0  0  0  0  0  0  0
    2.5000   -0.4821    0.0000 C   0  0  0  0  0  0  0  0  0  0  0  0
    8.0981   -3.2500    0.0000 C   0  0  0  0  0  0  0  0  0  0  0  0
    2.0000   -1.3481    0.0000 C   0  0  0  0  0  0  0  0  0  0  0  0
    2.0359    3.2500    0.0000 C   0  0  0  0  0  0  0  0  0  0  0  0
    6.9030    0.4400    0.0000 H   0  0  0  0  0  0  0  0  0  0  0  0
    8.0981    0.1300    0.0000 H   0  0  0  0  0  0  0  0  0  0  0  0
    6.6951    2.5600    0.0000 H   0  0  0  0  0  0  0  0  0  0  0  0
    8.0981    3.3700    0.0000 H   0  0  0  0  0  0  0  0  0  0  0  0
    9.8509    0.0954    0.0000 H   0  0  0  0  0  0  0  0  0  0  0  0
    9.8509    3.4046    0.0000 H   0  0  0  0  0  0  0  0  0  0  0  0
    7.8426   -0.8577    0.0000 H   0  0  0  0  0  0  0  0  0  0  0  0
    7.4441   -0.1674    0.0000 H   0  0  0  0  0  0  0  0  0  0  0  0
   11.2998    0.9171    0.0000 H   0  0  0  0  0  0  0  0  0  0  0  0
   11.2998    2.5829    0.0000 H   0  0  0  0  0  0  0  0  0  0  0  0
    4.1077    0.9946    0.0000 H   0  0  0  0  0  0  0  0  0  0  0  0
    3.4174    0.5960    0.0000 H   0  0  0  0  0  0  0  0  0  0  0  0
    3.3694    0.7751    0.0000 H   0  0  0  0  0  0  0  0  0  0  0  0
    4.1665    0.7751    0.0000 H   0  0  0  0  0  0  0  0  0  0  0  0
    7.4781   -3.2500    0.0000 H   0  0  0  0  0  0  0  0  0  0  0  0
    8.0981   -3.8700    0.0000 H   0  0  0  0  0  0  0  0  0  0  0  0
    8.7181   -3.2500    0.0000 H   0  0  0  0  0  0  0  0  0  0  0  0
    2.3459    3.7869    0.0000 H   0  0  0  0  0  0  0  0  0  0  0  0
    1.4990    3.5600    0.0000 H   0  0  0  0  0  0  0  0  0  0  0  0
    1.7259    2.7131    0.0000 H   0  0  0  0  0  0  0  0  0  0  0  0
    1.4631   -1.0381    0.0000 H   0  0  0  0  0  0  0  0  0  0  0  0
    1.6900   -1.8850    0.0000 H   0  0  0  0  0  0  0  0  0  0  0  0
    2.5369   -1.6581    0.0000 H   0  0  0  0  0  0  0  0  0  0  0  0
  1  3  1  0  0  0  0
  1  4  1  0  0  0  0
  1  5  2  0  0  0  0
  1 12  1  0  0  0  0
  2 12  1  0  0  0  0
  2 21  1  0  0  0  0
  3 24  1  0  0  0  0
  4 25  1  0  0  0  0
  6 21  1  0  0  0  0
  6 26  1  0  0  0  0
  7 25  1  0  0  0  0
  7 28  1  0  0  0  0
  8 24  1  0  0  0  0
  8 27  1  0  0  0  0
  9 26  2  0  0  0  0
 10 28  2  0  0  0  0
 11 27  2  0  0  0  0
 12 13  1  0  0  0  0
 12 32  1  0  0  0  0
 13 14  2  0  0  0  0
 13 16  1  0  0  0  0
 14 15  1  0  0  0  0
 14 33  1  0  0  0  0
 15 17  1  0  0  0  0
 15 19  2  0  0  0  0
 16 18  2  0  0  0  0
 16 34  1  0  0  0  0
 17 18  1  0  0  0  0
 17 20  2  0  0  0  0
 18 35  1  0  0  0  0
 19 22  1  0  0  0  0
 19 36  1  0  0  0  0
 20 23  1  0  0  0  0
 20 37  1  0  0  0  0
 21 38  1  0  0  0  0
 21 39  1  0  0  0  0
 22 23  2  0  0  0  0
 22 40  1  0  0  0  0
 23 41  1  0  0  0  0
 24 44  1  0  0  0  0
 24 45  1  0  0  0  0
 25 42  1  0  0  0  0
 25 43  1  0  0  0  0
 26 29  1  0  0  0  0
 27 31  1  0  0  0  0
 28 30  1  0  0  0  0
 29 46  1  0  0  0  0
 29 47  1  0  0  0  0
 29 48  1  0  0  0  0
 30 52  1  0  0  0  0
 30 53  1  0  0  0  0
 30 54  1  0  0  0  0
 31 49  1  0  0  0  0
 31 50  1  0  0  0  0
 31 51  1  0  0  0  0
M  END
> <PUBCHEM_COMPOUND_CID>
3619

> <PUBCHEM_COMPOUND_CANONICALIZED>
1

> <PUBCHEM_CACTVS_COMPLEXITY>
642

> <PUBCHEM_CACTVS_HBOND_ACCEPTOR>
10

> <PUBCHEM_CACTVS_HBOND_DONOR>
0

> <PUBCHEM_CACTVS_ROTATABLE_BOND>
14

> <PUBCHEM_CACTVS_SUBSKEYS>
AAADceB4PAIAAAAAAAAAAAAAAAAAAAAAAAAwYAAAAAAAAADBUAAAGggAACAADAComAMyCMAABRCIQiDSCIACAAAgAAAIiAAACIgYJiKAMRigMAAkwAEMqAeAwPAOwAACAAAQAACAAAQAACAAAAAAAAAAAA==

> <PUBCHEM_IUPAC_OPENEYE_NAME>
[bis(acetoxymethoxy)phosphoryl-(2-naphthyl)methoxy]methyl acetate

> <PUBCHEM_IUPAC_CAS_NAME>
acetic acid [bis(acetyloxymethoxy)phosphoryl-(2-naphthalenyl)methoxy]methyl ester

> <PUBCHEM_IUPAC_NAME>
[bis(acetyloxymethoxy)phosphoryl-naphthalen-2-ylmethoxy]methyl acetate

> <PUBCHEM_IUPAC_SYSTEMATIC_NAME>
[bis(acetyloxymethoxy)phosphoryl-naphthalen-2-yl-methoxy]methyl ethanoate

> <PUBCHEM_IUPAC_TRADITIONAL_NAME>
acetic acid [bis(acetoxymethoxy)phosphoryl-(2-naphthyl)methoxy]methyl ester

> <PUBCHEM_IUPAC_INCHI>
InChI=1S/C20H23O10P/c1-14(21)25-11-28-20(19-9-8-17-6-4-5-7-18(17)10-19)31(24,29-12-26-15(2)22)30-13-27-16(3)23/h4-10,20H,11-13H2,1-3H3

> <PUBCHEM_IUPAC_INCHIKEY>
UQODAZKXEREJLZ-UHFFFAOYSA-N

> <PUBCHEM_XLOGP3_AA>
2.2

> <PUBCHEM_EXACT_MASS>
454.102884

> <PUBCHEM_MOLECULAR_FORMULA>
C20H23O10P

> <PUBCHEM_MOLECULAR_WEIGHT>
454.364382

> <PUBCHEM_OPENEYE_CAN_SMILES>
CC(=O)OCOC(C1=CC2=CC=CC=C2C=C1)P(=O)(OCOC(=O)C)OCOC(=O)C

> <PUBCHEM_OPENEYE_ISO_SMILES>
CC(=O)OCOC(C1=CC2=CC=CC=C2C=C1)P(=O)(OCOC(=O)C)OCOC(=O)C

> <PUBCHEM_CACTVS_TPSA>
124

> <PUBCHEM_MONOISOTOPIC_WEIGHT>
454.102884

> <PUBCHEM_TOTAL_CHARGE>
0

> <PUBCHEM_HEAVY_ATOM_COUNT>
31

> <PUBCHEM_ATOM_DEF_STEREO_COUNT>
0

> <PUBCHEM_ATOM_UDEF_STEREO_COUNT>
1

> <PUBCHEM_BOND_DEF_STEREO_COUNT>
0

> <PUBCHEM_BOND_UDEF_STEREO_COUNT>
0

> <PUBCHEM_ISOTOPIC_ATOM_COUNT>
0

> <PUBCHEM_COMPONENT_COUNT>
1

> <PUBCHEM_CACTVS_TAUTO_COUNT>
1

> <PUBCHEM_COORDINATE_TYPE>
1
5
255

> <PUBCHEM_BONDANNOTATIONS>
12  1  3
13  14  8
13  16  8
14  15  8
15  17  8
15  19  8
16  18  8
17  18  8
17  20  8
19  22  8
20  23  8
22  23  8

$$$$

