10498
  -OEChem-06261204373D

 42 46  0     1  0  0  0  0  0999 V2000
   -1.5353    1.4589   -0.7734 O   0  0  0  0  0  0  0  0  0  0  0  0
    2.9586    0.7507   -0.3069 O   0  0  0  0  0  0  0  0  0  0  0  0
    0.7175    3.8868   -0.3544 O   0  0  0  0  0  0  0  0  0  0  0  0
   -4.1838    0.2187   -0.2157 O   0  0  0  0  0  0  0  0  0  0  0  0
    2.6905   -1.6842   -0.7610 N   0  0  2  0  0  0  0  0  0  0  0  0
    0.5393    0.4113   -0.3853 C   0  0  2  0  0  0  0  0  0  0  0  0
    1.8132    0.2413    0.4386 C   0  0  1  0  0  0  0  0  0  0  0  0
    1.8980   -1.3358    0.4548 C   0  0  2  0  0  0  0  0  0  0  0  0
    0.9388    0.0376   -1.8606 C   0  0  0  0  0  0  0  0  0  0  0  0
   -0.2968    1.6771   -0.1077 C   0  0  1  0  0  0  0  0  0  0  0  0
   -0.6093   -0.4362    0.1208 C   0  0  0  0  0  0  0  0  0  0  0  0
    0.8756   -1.9437    1.4870 C   0  0  0  0  0  0  0  0  0  0  0  0
    1.9173   -1.2362   -2.0032 C   0  0  0  0  0  0  0  0  0  0  0  0
   -0.5335   -1.5022    1.0271 C   0  0  0  0  0  0  0  0  0  0  0  0
    1.8647    1.1803    1.6168 C   0  0  0  0  0  0  0  0  0  0  0  0
   -1.8000    0.1784   -0.2581 C   0  0  0  0  0  0  0  0  0  0  0  0
    0.6817    2.8045    0.2085 C   0  0  0  0  0  0  0  0  0  0  0  0
    1.5054    2.4742    1.4430 C   0  0  0  0  0  0  0  0  0  0  0  0
    3.0607   -3.0929   -0.8205 C   0  0  0  0  0  0  0  0  0  0  0  0
   -1.7456   -2.0505    1.4281 C   0  0  0  0  0  0  0  0  0  0  0  0
   -3.0061   -0.3594    0.1182 C   0  0  0  0  0  0  0  0  0  0  0  0
   -2.9656   -1.4963    0.9533 C   0  0  0  0  0  0  0  0  0  0  0  0
   -4.7855   -0.1824   -1.4496 C   0  0  0  0  0  0  0  0  0  0  0  0
    2.7631   -1.4631    1.1338 H   0  0  0  0  0  0  0  0  0  0  0  0
    1.4570    0.8979   -2.3046 H   0  0  0  0  0  0  0  0  0  0  0  0
    0.0531   -0.1414   -2.4824 H   0  0  0  0  0  0  0  0  0  0  0  0
   -0.6851    1.6911    0.9420 H   0  0  0  0  0  0  0  0  0  0  0  0
    1.0530   -1.5764    2.5037 H   0  0  0  0  0  0  0  0  0  0  0  0
    0.9410   -3.0364    1.4751 H   0  0  0  0  0  0  0  0  0  0  0  0
    1.2697   -2.0688   -2.3085 H   0  0  0  0  0  0  0  0  0  0  0  0
    2.6266   -1.0590   -2.8192 H   0  0  0  0  0  0  0  0  0  0  0  0
    2.4123    0.8853    2.5057 H   0  0  0  0  0  0  0  0  0  0  0  0
    3.7594    0.3619    0.0860 H   0  0  0  0  0  0  0  0  0  0  0  0
    1.6861    3.2508    2.1735 H   0  0  0  0  0  0  0  0  0  0  0  0
    3.6594   -3.2922   -1.7156 H   0  0  0  0  0  0  0  0  0  0  0  0
    2.1815   -3.7459   -0.8390 H   0  0  0  0  0  0  0  0  0  0  0  0
    3.6759   -3.3677    0.0429 H   0  0  0  0  0  0  0  0  0  0  0  0
   -1.7720   -2.8953    2.1102 H   0  0  0  0  0  0  0  0  0  0  0  0
   -3.9004   -1.9413    1.2906 H   0  0  0  0  0  0  0  0  0  0  0  0
   -5.7270    0.3615   -1.5638 H   0  0  0  0  0  0  0  0  0  0  0  0
   -4.9973   -1.2562   -1.4390 H   0  0  0  0  0  0  0  0  0  0  0  0
   -4.1306    0.0653   -2.2909 H   0  0  0  0  0  0  0  0  0  0  0  0
  1 10  1  0  0  0  0
  1 16  1  0  0  0  0
  2  7  1  0  0  0  0
  2 33  1  0  0  0  0
  3 17  2  0  0  0  0
  4 21  1  0  0  0  0
  4 23  1  0  0  0  0
  5  8  1  0  0  0  0
  5 13  1  0  0  0  0
  5 19  1  0  0  0  0
  6  7  1  0  0  0  0
  6  9  1  0  0  0  0
  6 10  1  0  0  0  0
  6 11  1  0  0  0  0
  7  8  1  0  0  0  0
  7 15  1  0  0  0  0
  8 12  1  0  0  0  0
  8 24  1  0  0  0  0
  9 13  1  0  0  0  0
  9 25  1  0  0  0  0
  9 26  1  0  0  0  0
 10 17  1  0  0  0  0
 10 27  1  0  0  0  0
 11 14  2  0  0  0  0
 11 16  1  0  0  0  0
 12 14  1  0  0  0  0
 12 28  1  0  0  0  0
 12 29  1  0  0  0  0
 13 30  1  0  0  0  0
 13 31  1  0  0  0  0
 14 20  1  0  0  0  0
 15 18  2  0  0  0  0
 15 32  1  0  0  0  0
 16 21  2  0  0  0  0
 17 18  1  0  0  0  0
 18 34  1  0  0  0  0
 19 35  1  0  0  0  0
 19 36  1  0  0  0  0
 19 37  1  0  0  0  0
 20 22  2  0  0  0  0
 20 38  1  0  0  0  0
 21 22  1  0  0  0  0
 22 39  1  0  0  0  0
 23 40  1  0  0  0  0
 23 41  1  0  0  0  0
 23 42  1  0  0  0  0
M  END
> <PUBCHEM_COMPOUND_CID>
10498

> <PUBCHEM_CONFORMER_RMSD>
0.6

> <PUBCHEM_CONFORMER_DIVERSEORDER>
1

> <PUBCHEM_MMFF94_PARTIAL_CHARGES>
27
1 -0.36
10 0.34
11 -0.14
12 0.14
13 0.27
14 -0.14
15 -0.29
16 0.08
17 0.49
18 -0.14
19 0.27
2 -0.68
20 -0.15
21 0.08
22 -0.15
23 0.28
3 -0.57
32 0.15
33 0.4
34 0.15
38 0.15
39 0.15
4 -0.36
5 -0.81
6 0.14
7 0.42
8 0.27

> <PUBCHEM_EFFECTIVE_ROTOR_COUNT>
2

> <PUBCHEM_PHARMACOPHORE_FEATURES>
11
1 1 acceptor
1 2 acceptor
1 2 donor
1 3 acceptor
1 4 acceptor
1 5 cation
5 1 6 10 11 16 rings
6 11 14 16 20 21 22 rings
6 5 6 7 8 9 13 rings
6 6 7 10 15 17 18 rings
6 6 7 8 11 12 14 rings

> <PUBCHEM_HEAVY_ATOM_COUNT>
23

> <PUBCHEM_ATOM_DEF_STEREO_COUNT>
3

> <PUBCHEM_ATOM_UDEF_STEREO_COUNT>
1

> <PUBCHEM_BOND_DEF_STEREO_COUNT>
0

> <PUBCHEM_BOND_UDEF_STEREO_COUNT>
0

> <PUBCHEM_ISOTOPIC_ATOM_COUNT>
0

> <PUBCHEM_COMPONENT_COUNT>
1

> <PUBCHEM_CACTVS_TAUTO_COUNT>
2

> <PUBCHEM_CONFORMER_ID>
0000290200000001

> <PUBCHEM_MMFF94_ENERGY>
184.3738

> <PUBCHEM_FEATURE_SELFOVERLAP>
57.182

> <PUBCHEM_SHAPE_FINGERPRINT>
104564 63 17836919367121852259
10863032 1 18410564076888921618
10906281 52 18411411783227250504
10948715 1 17836367042822932928
12011746 2 18340497676949948664
12423570 1 15759365895788832538
12788726 201 17906160003816698826
13134695 92 18260828215215002453
13140716 1 17983867683309560297
13681431 1 18042380522237370740
14181834 199 17676202446629781199
14223421 5 17981881948219403435
16945 1 18188491259461410536
18186145 218 18342745139432013047
19591789 44 16608280136065357233
20600515 1 17988931093068668508
20691752 17 18130506456750723529
21731228 192 17612317346649343904
2334 1 18270411610429574041
23419403 2 18121810414965230836
23493267 7 15912750783057324515
23526113 38 18413386544617170615
23559900 14 18271798013504539038
238 59 18191873323026979727
2748010 2 18340218486748113977
463206 1 18191301783324758847
484985 159 15148810340001783102
495365 180 18043543706977128889
576247 118 17898819552462299566
5845 1 12504644540587897740
7364860 26 18265605485889834937
81228 2 17757526913893138096
84936 31 17749385910599633226
9709674 26 18268433443320141371
9862522 239 17257939191219058272

> <PUBCHEM_SHAPE_MULTIPOLES>
444.87
5.32
3.32
1.66
6.32
1.67
0.2
-2.01
1.61
-2.52
-0.38
-0.31
-0.45
1.4

> <PUBCHEM_SHAPE_SELFOVERLAP>
1001.058

> <PUBCHEM_SHAPE_VOLUME>
233.6

> <PUBCHEM_COORDINATE_TYPE>
2
5
10

$$$$

