10543
  -OEChem-06261204402D

 23 21  0     0  0  0  0  0  0999 V2000
    2.2690    2.2690    0.0000 P   0  3  0  0  0  0  0  0  0  0  0  0
    4.0010    2.2690    0.0000 O   0  0  0  0  0  0  0  0  0  0  0  0
    0.5369    2.2690    0.0000 O   0  0  0  0  0  0  0  0  0  0  0  0
    2.2690    4.0010    0.0000 O   0  0  0  0  0  0  0  0  0  0  0  0
    2.2690    0.5369    0.0000 O   0  0  0  0  0  0  0  0  0  0  0  0
    1.7690    6.5380    0.0000 O   0  5  0  0  0  0  0  0  0  0  0  0
    3.1350    2.7690    0.0000 C   0  0  0  0  0  0  0  0  0  0  0  0
    1.4030    1.7690    0.0000 C   0  0  0  0  0  0  0  0  0  0  0  0
    1.7690    3.1350    0.0000 C   0  0  0  0  0  0  0  0  0  0  0  0
    2.7690    1.4030    0.0000 C   0  0  0  0  0  0  0  0  0  0  0  0
    3.5335    3.2439    0.0000 H   0  0  0  0  0  0  0  0  0  0  0  0
    2.7365    3.2439    0.0000 H   0  0  0  0  0  0  0  0  0  0  0  0
    1.0044    1.2940    0.0000 H   0  0  0  0  0  0  0  0  0  0  0  0
    1.8015    1.2940    0.0000 H   0  0  0  0  0  0  0  0  0  0  0  0
    1.2940    3.5335    0.0000 H   0  0  0  0  0  0  0  0  0  0  0  0
    1.2940    2.7365    0.0000 H   0  0  0  0  0  0  0  0  0  0  0  0
    3.2439    1.0044    0.0000 H   0  0  0  0  0  0  0  0  0  0  0  0
    3.2439    1.8015    0.0000 H   0  0  0  0  0  0  0  0  0  0  0  0
    2.5790    0.0000    0.0000 H   0  0  0  0  0  0  0  0  0  0  0  0
    1.9590    4.5380    0.0000 H   0  0  0  0  0  0  0  0  0  0  0  0
    0.0000    1.9590    0.0000 H   0  0  0  0  0  0  0  0  0  0  0  0
    4.5380    2.5790    0.0000 H   0  0  0  0  0  0  0  0  0  0  0  0
    2.7690    6.5380    0.0000 H   0  0  0  0  0  0  0  0  0  0  0  0
  1  7  1  0  0  0  0
  1  8  1  0  0  0  0
  1  9  1  0  0  0  0
  1 10  1  0  0  0  0
  2  7  1  0  0  0  0
  2 22  1  0  0  0  0
  3  8  1  0  0  0  0
  3 21  1  0  0  0  0
  4  9  1  0  0  0  0
  4 20  1  0  0  0  0
  5 10  1  0  0  0  0
  5 19  1  0  0  0  0
  6 23  1  0  0  0  0
  7 11  1  0  0  0  0
  7 12  1  0  0  0  0
  8 13  1  0  0  0  0
  8 14  1  0  0  0  0
  9 15  1  0  0  0  0
  9 16  1  0  0  0  0
 10 17  1  0  0  0  0
 10 18  1  0  0  0  0
M  CHG  2   1   1   6  -1
M  END
> <PUBCHEM_COMPOUND_CID>
10543

> <PUBCHEM_COMPOUND_CANONICALIZED>
1

> <PUBCHEM_CACTVS_COMPLEXITY>
55.5

> <PUBCHEM_CACTVS_HBOND_ACCEPTOR>
5

> <PUBCHEM_CACTVS_HBOND_DONOR>
5

> <PUBCHEM_CACTVS_ROTATABLE_BOND>
4

> <PUBCHEM_CACTVS_SUBSKEYS>
AAADccBgOAIAAAAAAAAAAAAAAAAAAAAAAAAAAAAAAAAAAAAAAAAAEggACAAAAAAAAAIAAAAAAiAAAAAAAAAAAAAAAAAAAAAAAAAAEAAAAAAAAAAAAAAAAAAAAAAAAAAAAAAAAAAAAAAAAAAAAAAAAAAAAA==

> <PUBCHEM_IUPAC_OPENEYE_NAME>
tetrakis(hydroxymethyl)phosphonium hydroxide

> <PUBCHEM_IUPAC_CAS_NAME>
tetrakis(hydroxymethyl)phosphonium hydroxide

> <PUBCHEM_IUPAC_NAME>
tetrakis(hydroxymethyl)phosphanium hydroxide

> <PUBCHEM_IUPAC_SYSTEMATIC_NAME>
tetrakis(hydroxymethyl)phosphanium hydroxide

> <PUBCHEM_IUPAC_TRADITIONAL_NAME>
tetramethylolphosphonium hydroxide

> <PUBCHEM_IUPAC_INCHI>
InChI=1S/C4H12O4P.H2O/c5-1-9(2-6,3-7)4-8;/h5-8H,1-4H2;1H2/q+1;/p-1

> <PUBCHEM_IUPAC_INCHIKEY>
IOIHFHNPXJFODN-UHFFFAOYSA-M

> <PUBCHEM_EXACT_MASS>
172.05006

> <PUBCHEM_MOLECULAR_FORMULA>
C4H13O5P

> <PUBCHEM_MOLECULAR_WEIGHT>
172.116782

> <PUBCHEM_OPENEYE_CAN_SMILES>
C(O)[P+](CO)(CO)CO.[OH-]

> <PUBCHEM_OPENEYE_ISO_SMILES>
C(O)[P+](CO)(CO)CO.[OH-]

> <PUBCHEM_CACTVS_TPSA>
81.9

> <PUBCHEM_MONOISOTOPIC_WEIGHT>
172.05006

> <PUBCHEM_TOTAL_CHARGE>
0

> <PUBCHEM_HEAVY_ATOM_COUNT>
10

> <PUBCHEM_ATOM_DEF_STEREO_COUNT>
0

> <PUBCHEM_ATOM_UDEF_STEREO_COUNT>
0

> <PUBCHEM_BOND_DEF_STEREO_COUNT>
0

> <PUBCHEM_BOND_UDEF_STEREO_COUNT>
0

> <PUBCHEM_ISOTOPIC_ATOM_COUNT>
0

> <PUBCHEM_COMPONENT_COUNT>
2

> <PUBCHEM_CACTVS_TAUTO_COUNT>
1

> <PUBCHEM_COORDINATE_TYPE>
1
5
255

$$$$

