9039
  -OEChem-06261203213D

 17 16  0     0  0  0  0  0  0999 V2000
   -1.6748   -0.3842    1.0662 S   0  0  0  0  0  0  0  0  0  0  0  0
    0.0557   -0.3708   -0.1260 P   0  0  0  0  0  0  0  0  0  0  0  0
    1.3619   -0.5439    0.8269 O   0  0  0  0  0  0  0  0  0  0  0  0
    0.2852    1.0956   -0.7893 O   0  0  0  0  0  0  0  0  0  0  0  0
   -0.0286   -1.4478   -1.1766 O   0  0  0  0  0  0  0  0  0  0  0  0
   -3.0390   -0.0791   -0.0737 C   0  0  0  0  0  0  0  0  0  0  0  0
    2.6488   -0.5104    0.2336 C   0  0  0  0  0  0  0  0  0  0  0  0
    0.3907    2.2407    0.0389 C   0  0  0  0  0  0  0  0  0  0  0  0
   -3.0789   -0.8691   -0.8278 H   0  0  0  0  0  0  0  0  0  0  0  0
   -2.9000    0.8838   -0.5715 H   0  0  0  0  0  0  0  0  0  0  0  0
   -3.9834   -0.0631    0.4756 H   0  0  0  0  0  0  0  0  0  0  0  0
    2.8479    0.4790   -0.1849 H   0  0  0  0  0  0  0  0  0  0  0  0
    2.7192   -1.2674   -0.5517 H   0  0  0  0  0  0  0  0  0  0  0  0
    3.3940   -0.7264    1.0031 H   0  0  0  0  0  0  0  0  0  0  0  0
    1.0174    2.0397    0.9112 H   0  0  0  0  0  0  0  0  0  0  0  0
   -0.6055    2.5515    0.3631 H   0  0  0  0  0  0  0  0  0  0  0  0
    0.8415    3.0497   -0.5412 H   0  0  0  0  0  0  0  0  0  0  0  0
  1  2  1  0  0  0  0
  1  6  1  0  0  0  0
  2  3  1  0  0  0  0
  2  4  1  0  0  0  0
  2  5  2  0  0  0  0
  3  7  1  0  0  0  0
  4  8  1  0  0  0  0
  6  9  1  0  0  0  0
  6 10  1  0  0  0  0
  6 11  1  0  0  0  0
  7 12  1  0  0  0  0
  7 13  1  0  0  0  0
  7 14  1  0  0  0  0
  8 15  1  0  0  0  0
  8 16  1  0  0  0  0
  8 17  1  0  0  0  0
M  END
> <PUBCHEM_COMPOUND_CID>
9039

> <PUBCHEM_CONFORMER_RMSD>
0.6

> <PUBCHEM_CONFORMER_DIVERSEORDER>
1
7
8
4
9
10
3
5
2
6

> <PUBCHEM_MMFF94_PARTIAL_CHARGES>
8
1 -0.48
2 1.49
3 -0.55
4 -0.55
5 -0.7
6 0.23
7 0.28
8 0.28

> <PUBCHEM_EFFECTIVE_ROTOR_COUNT>
3

> <PUBCHEM_PHARMACOPHORE_FEATURES>
1
1 5 acceptor

> <PUBCHEM_HEAVY_ATOM_COUNT>
8

> <PUBCHEM_ATOM_DEF_STEREO_COUNT>
0

> <PUBCHEM_ATOM_UDEF_STEREO_COUNT>
0

> <PUBCHEM_BOND_DEF_STEREO_COUNT>
0

> <PUBCHEM_BOND_UDEF_STEREO_COUNT>
0

> <PUBCHEM_ISOTOPIC_ATOM_COUNT>
0

> <PUBCHEM_COMPONENT_COUNT>
1

> <PUBCHEM_CACTVS_TAUTO_COUNT>
1

> <PUBCHEM_CONFORMER_ID>
0000234F00000001

> <PUBCHEM_MMFF94_ENERGY>
5.286

> <PUBCHEM_FEATURE_SELFOVERLAP>
5.074

> <PUBCHEM_SHAPE_FINGERPRINT>
10219947 1 18334855039068501115
137420 1 11913532761421382005
14993402 34 18334012765779743694
16714656 1 18335142024641187862
23552449 11 18342168930481896019
24536 1 18044906100784027875
29004967 10 18131349713180413938
5943 1 7196557311923249566

> <PUBCHEM_SHAPE_MULTIPOLES>
154.73
3.41
1.69
1.04
1.11
1.24
0.01
-0.8
-0.51
-0.51
0.21
0.14
-0.25
-0.03

> <PUBCHEM_SHAPE_SELFOVERLAP>
247.35

> <PUBCHEM_SHAPE_VOLUME>
110.8

> <PUBCHEM_COORDINATE_TYPE>
2
5
10

$$$$

