13506
  -OEChem-06241222392D

 49 49  0     0  0  0  0  0  0999 V2000
    3.8000    3.7500    0.0000 S   0  0  0  0  0  0  0  0  0  0  0  0
    9.0622    3.7741    0.0000 S   0  0  0  0  0  0  0  0  0  0  0  0
    4.6660   -3.7500    0.0000 S   0  0  0  0  0  0  0  0  0  0  0  0
    5.5321   -5.2500    0.0000 Na  0  3  0  0  0  0  0  0  0  0  0  0
   10.7942    3.7808    0.0000 Na  0  3  0  0  0  0  0  0  0  0  0  0
    2.9340    5.2500    0.0000 Na  0  3  0  0  0  0  0  0  0  0  0  0
    3.8000    1.7500    0.0000 O   0  0  0  0  0  0  0  0  0  0  0  0
    2.9340    4.2500    0.0000 O   0  5  0  0  0  0  0  0  0  0  0  0
    4.3000    4.6160    0.0000 O   0  0  0  0  0  0  0  0  0  0  0  0
    3.3000    2.8840    0.0000 O   0  0  0  0  0  0  0  0  0  0  0  0
    9.9263    4.2775    0.0000 O   0  5  0  0  0  0  0  0  0  0  0  0
    9.5655    2.9101    0.0000 O   0  0  0  0  0  0  0  0  0  0  0  0
    8.5589    4.6382    0.0000 O   0  0  0  0  0  0  0  0  0  0  0  0
    4.6660   -4.7500    0.0000 O   0  5  0  0  0  0  0  0  0  0  0  0
    5.6660   -3.7500    0.0000 O   0  0  0  0  0  0  0  0  0  0  0  0
    3.6660   -3.7500    0.0000 O   0  0  0  0  0  0  0  0  0  0  0  0
    5.5321    0.7500    0.0000 N   0  0  0  0  0  0  0  0  0  0  0  0
    4.6660    0.2500    0.0000 N   0  0  0  0  0  0  0  0  0  0  0  0
    6.3981    2.2500    0.0000 C   0  0  0  0  0  0  0  0  0  0  0  0
    6.3981    3.2500    0.0000 C   0  0  0  0  0  0  0  0  0  0  0  0
    5.5321    1.7500    0.0000 C   0  0  0  0  0  0  0  0  0  0  0  0
    4.6660    3.2500    0.0000 C   0  0  0  0  0  0  0  0  0  0  0  0
    5.5321    3.7500    0.0000 C   0  0  0  0  0  0  0  0  0  0  0  0
    4.6660    2.2500    0.0000 C   0  0  0  0  0  0  0  0  0  0  0  0
    7.2920    3.7847    0.0000 C   0  0  0  0  0  0  0  0  0  0  0  0
    3.8000   -2.2500    0.0000 C   0  0  0  0  0  0  0  0  0  0  0  0
    3.8000   -1.2500    0.0000 C   0  0  0  0  0  0  0  0  0  0  0  0
    8.1981    3.2708    0.0000 C   0  0  0  0  0  0  0  0  0  0  0  0
    7.2920    1.7153    0.0000 C   0  0  0  0  0  0  0  0  0  0  0  0
    4.6660   -2.7500    0.0000 C   0  0  0  0  0  0  0  0  0  0  0  0
    4.6660   -0.7500    0.0000 C   0  0  0  0  0  0  0  0  0  0  0  0
    8.1981    2.2292    0.0000 C   0  0  0  0  0  0  0  0  0  0  0  0
    5.5321   -2.2500    0.0000 C   0  0  0  0  0  0  0  0  0  0  0  0
    5.5321   -1.2500    0.0000 C   0  0  0  0  0  0  0  0  0  0  0  0
    2.9061   -2.7847    0.0000 C   0  0  0  0  0  0  0  0  0  0  0  0
    2.9061   -0.7153    0.0000 C   0  0  0  0  0  0  0  0  0  0  0  0
    2.0000   -2.2708    0.0000 C   0  0  0  0  0  0  0  0  0  0  0  0
    2.0000   -1.2292    0.0000 C   0  0  0  0  0  0  0  0  0  0  0  0
    5.5321    4.3700    0.0000 H   0  0  0  0  0  0  0  0  0  0  0  0
    7.2849    4.4046    0.0000 H   0  0  0  0  0  0  0  0  0  0  0  0
    7.2849    1.0954    0.0000 H   0  0  0  0  0  0  0  0  0  0  0  0
    8.7338    1.9171    0.0000 H   0  0  0  0  0  0  0  0  0  0  0  0
    6.0690   -2.5600    0.0000 H   0  0  0  0  0  0  0  0  0  0  0  0
    6.0690   -0.9400    0.0000 H   0  0  0  0  0  0  0  0  0  0  0  0
    2.9132   -3.4046    0.0000 H   0  0  0  0  0  0  0  0  0  0  0  0
    2.9132   -0.0954    0.0000 H   0  0  0  0  0  0  0  0  0  0  0  0
    1.4643   -2.5829    0.0000 H   0  0  0  0  0  0  0  0  0  0  0  0
    1.4643   -0.9171    0.0000 H   0  0  0  0  0  0  0  0  0  0  0  0
    3.8000    1.1300    0.0000 H   0  0  0  0  0  0  0  0  0  0  0  0
  1  8  1  0  0  0  0
  1  9  2  0  0  0  0
  1 10  2  0  0  0  0
  1 22  1  0  0  0  0
  2 11  1  0  0  0  0
  2 12  2  0  0  0  0
  2 13  2  0  0  0  0
  2 28  1  0  0  0  0
  3 14  1  0  0  0  0
  3 15  2  0  0  0  0
  3 16  2  0  0  0  0
  3 30  1  0  0  0  0
  7 24  1  0  0  0  0
  7 49  1  0  0  0  0
 17 18  2  0  0  0  0
 17 21  1  0  0  0  0
 18 31  1  0  0  0  0
 19 20  1  0  0  0  0
 19 21  2  0  0  0  0
 19 29  1  0  0  0  0
 20 23  2  0  0  0  0
 20 25  1  0  0  0  0
 21 24  1  0  0  0  0
 22 23  1  0  0  0  0
 22 24  2  0  0  0  0
 23 39  1  0  0  0  0
 25 28  2  0  0  0  0
 25 40  1  0  0  0  0
 26 27  1  0  0  0  0
 26 30  1  0  0  0  0
 26 35  2  0  0  0  0
 27 31  1  0  0  0  0
 27 36  2  0  0  0  0
 28 32  1  0  0  0  0
 29 32  2  0  0  0  0
 29 41  1  0  0  0  0
 30 33  2  0  0  0  0
 31 34  2  0  0  0  0
 32 42  1  0  0  0  0
 33 34  1  0  0  0  0
 33 43  1  0  0  0  0
 34 44  1  0  0  0  0
 35 37  1  0  0  0  0
 35 45  1  0  0  0  0
 36 38  1  0  0  0  0
 36 46  1  0  0  0  0
 37 38  2  0  0  0  0
 37 47  1  0  0  0  0
 38 48  1  0  0  0  0
M  CHG  6   4   1   5   1   6   1   8  -1  11  -1  14  -1
M  END
> <PUBCHEM_COMPOUND_CID>
13506

> <PUBCHEM_COMPOUND_CANONICALIZED>
1

> <PUBCHEM_CACTVS_COMPLEXITY>
1080

> <PUBCHEM_CACTVS_HBOND_ACCEPTOR>
12

> <PUBCHEM_CACTVS_HBOND_DONOR>
1

> <PUBCHEM_CACTVS_ROTATABLE_BOND>
2

> <PUBCHEM_CACTVS_SUBSKEYS>
AAADccB7PDBgAAAAAAAAAAAAAAAAAAAAAAAwYMGAAAAAAADBVAAAHgQICAAADAyB2AAwx8AAAgKCAiRCQHDCAEAgIgAIiBoFbIgKJiKSkZOAcARkwBEI2AeQwLAOsAQBwCAWMABgCAOAQCxgAAAAAAAAAA==

> <PUBCHEM_IUPAC_OPENEYE_NAME>
trisodium 3-hydroxy-4-[(4-sulfonato-1-naphthyl)azo]naphthalene-2,7-disulfonate

> <PUBCHEM_IUPAC_CAS_NAME>
trisodium 3-hydroxy-4-[(4-sulfonato-1-naphthalenyl)azo]naphthalene-2,7-disulfonate

> <PUBCHEM_IUPAC_NAME>
trisodium 3-hydroxy-4-[(4-sulfonatonaphthalen-1-yl)diazenyl]naphthalene-2,7-disulfonate

> <PUBCHEM_IUPAC_SYSTEMATIC_NAME>
trisodium 3-oxidanyl-4-[(4-sulfonatonaphthalen-1-yl)diazenyl]naphthalene-2,7-disulfonate

> <PUBCHEM_IUPAC_TRADITIONAL_NAME>
trisodium 3-hydroxy-4-[(4-sulfonato-1-naphthyl)azo]naphthalene-2,7-disulfonate

> <PUBCHEM_IUPAC_INCHI>
InChI=1S/C20H14N2O10S3.3Na/c23-20-18(35(30,31)32)10-11-9-12(33(24,25)26)5-6-13(11)19(20)22-21-16-7-8-17(34(27,28)29)15-4-2-1-3-14(15)16;;;/h1-10,23H,(H,24,25,26)(H,27,28,29)(H,30,31,32);;;/q;3*+1/p-3

> <PUBCHEM_IUPAC_INCHIKEY>
WLDHEUZGFKACJH-UHFFFAOYSA-K

> <PUBCHEM_EXACT_MASS>
603.92689

> <PUBCHEM_MOLECULAR_FORMULA>
C20H11N2Na3O10S3

> <PUBCHEM_MOLECULAR_WEIGHT>
604.473048

> <PUBCHEM_OPENEYE_CAN_SMILES>
C1=CC=C2C(=C1)C(=CC=C2S(=O)(=O)[O-])N=NC3=C4C=CC(=CC4=CC(=C3O)S(=O)(=O)[O-])S(=O)(=O)[O-].[Na+].[Na+].[Na+]

> <PUBCHEM_OPENEYE_ISO_SMILES>
C1=CC=C2C(=C1)C(=CC=C2S(=O)(=O)[O-])N=NC3=C4C=CC(=CC4=CC(=C3O)S(=O)(=O)[O-])S(=O)(=O)[O-].[Na+].[Na+].[Na+]

> <PUBCHEM_CACTVS_TPSA>
242

> <PUBCHEM_MONOISOTOPIC_WEIGHT>
603.92689

> <PUBCHEM_TOTAL_CHARGE>
0

> <PUBCHEM_HEAVY_ATOM_COUNT>
38

> <PUBCHEM_ATOM_DEF_STEREO_COUNT>
0

> <PUBCHEM_ATOM_UDEF_STEREO_COUNT>
0

> <PUBCHEM_BOND_DEF_STEREO_COUNT>
0

> <PUBCHEM_BOND_UDEF_STEREO_COUNT>
0

> <PUBCHEM_ISOTOPIC_ATOM_COUNT>
0

> <PUBCHEM_COMPONENT_COUNT>
4

> <PUBCHEM_CACTVS_TAUTO_COUNT>
3

> <PUBCHEM_COORDINATE_TYPE>
1
5
255

> <PUBCHEM_BONDANNOTATIONS>
19  20  8
19  21  8
19  29  8
20  23  8
20  25  8
21  24  8
22  23  8
22  24  8
25  28  8
26  27  8
26  30  8
26  35  8
27  31  8
27  36  8
28  32  8
29  32  8
30  33  8
31  34  8
33  34  8
35  37  8
36  38  8
37  38  8

$$$$

