12224
  -OEChem-06261206413D

  8  7  0     0  0  0  0  0  0999 V2000
    2.5090   -0.1139   -0.0066 I   0  0  0  0  0  0  0  0  0  0  0  0
   -2.5091    0.1140   -0.0066 I   0  0  0  0  0  0  0  0  0  0  0  0
    0.4860    0.5884    0.0066 C   0  0  0  0  0  0  0  0  0  0  0  0
   -0.4859   -0.5885    0.0066 C   0  0  0  0  0  0  0  0  0  0  0  0
    0.3230    1.2225   -0.8726 H   0  0  0  0  0  0  0  0  0  0  0  0
    0.3300    1.2162    0.8914 H   0  0  0  0  0  0  0  0  0  0  0  0
   -0.3300   -1.2163    0.8915 H   0  0  0  0  0  0  0  0  0  0  0  0
   -0.3231   -1.2227   -0.8726 H   0  0  0  0  0  0  0  0  0  0  0  0
  1  3  1  0  0  0  0
  2  4  1  0  0  0  0
  3  4  1  0  0  0  0
  3  5  1  0  0  0  0
  3  6  1  0  0  0  0
  4  7  1  0  0  0  0
  4  8  1  0  0  0  0
M  END
> <PUBCHEM_COMPOUND_CID>
12224

> <PUBCHEM_CONFORMER_RMSD>
0.4

> <PUBCHEM_CONFORMER_DIVERSEORDER>
1
3
2

> <PUBCHEM_MMFF94_PARTIAL_CHARGES>
4
1 -0.19
2 -0.19
3 0.19
4 0.19

> <PUBCHEM_EFFECTIVE_ROTOR_COUNT>
1

> <PUBCHEM_PHARMACOPHORE_FEATURES>
2
1 1 hydrophobe
1 2 hydrophobe

> <PUBCHEM_HEAVY_ATOM_COUNT>
4

> <PUBCHEM_ATOM_DEF_STEREO_COUNT>
0

> <PUBCHEM_ATOM_UDEF_STEREO_COUNT>
0

> <PUBCHEM_BOND_DEF_STEREO_COUNT>
0

> <PUBCHEM_BOND_UDEF_STEREO_COUNT>
0

> <PUBCHEM_ISOTOPIC_ATOM_COUNT>
0

> <PUBCHEM_COMPONENT_COUNT>
1

> <PUBCHEM_CACTVS_TAUTO_COUNT>
1

> <PUBCHEM_CONFORMER_ID>
00002FC000000001

> <PUBCHEM_MMFF94_ENERGY>
1.7169

> <PUBCHEM_FEATURE_SELFOVERLAP>
10.149

> <PUBCHEM_SHAPE_FINGERPRINT>
139733 1 9295292737790442464
14390081 3 18186805776808137857
16714656 1 18273496779695202949
20096714 4 18411700941963230889
20651381 32 18130516326205410735
5460574 1 9295290538376822785

> <PUBCHEM_SHAPE_MULTIPOLES>
106.19
4.7
0.89
0.75
0
0
0
0
-0.02
0
0
0
0
0

> <PUBCHEM_SHAPE_SELFOVERLAP>
140.786

> <PUBCHEM_SHAPE_VOLUME>
88

> <PUBCHEM_COORDINATE_TYPE>
2
5
10

$$$$

