586342
  -OEChem-06241222462D

 35 36  0     1  0  0  0  0  0999 V2000
    2.5369    1.1791    0.0000 O   0  0  0  0  0  0  0  0  0  0  0  0
    3.8383    3.8209    0.0000 O   0  5  0  0  0  0  0  0  0  0  0  0
    2.6793    2.5337    0.0000 O   0  0  0  0  0  0  0  0  0  0  0  0
    3.4030   -3.3209    0.0000 O   0  0  0  0  0  0  0  0  0  0  0  0
    3.6304    2.8428    0.0000 N   0  3  0  0  0  0  0  0  0  0  0  0
    4.2690    1.1791    0.0000 C   0  0  3  0  0  0  0  0  0  0  0  0
    4.3735    2.1736    0.0000 C   0  0  3  0  0  0  0  0  0  0  0  0
    5.1825    0.7724    0.0000 C   0  0  0  0  0  0  0  0  0  0  0  0
    5.3517    2.3815    0.0000 C   0  0  0  0  0  0  0  0  0  0  0  0
    5.8517    1.5155    0.0000 C   0  0  0  0  0  0  0  0  0  0  0  0
    3.4030    0.6791    0.0000 C   0  0  3  0  0  0  0  0  0  0  0  0
    3.4030   -0.3209    0.0000 C   0  0  0  0  0  0  0  0  0  0  0  0
    2.5369   -0.8209    0.0000 C   0  0  0  0  0  0  0  0  0  0  0  0
    4.2690   -0.8209    0.0000 C   0  0  0  0  0  0  0  0  0  0  0  0
    2.5369   -1.8209    0.0000 C   0  0  0  0  0  0  0  0  0  0  0  0
    4.2690   -1.8209    0.0000 C   0  0  0  0  0  0  0  0  0  0  0  0
    3.4030   -2.3209    0.0000 C   0  0  0  0  0  0  0  0  0  0  0  0
    2.5369   -3.8209    0.0000 C   0  0  0  0  0  0  0  0  0  0  0  0
    4.3014    0.5599    0.0000 H   0  0  0  0  0  0  0  0  0  0  0  0
    4.5340    2.7725    0.0000 H   0  0  0  0  0  0  0  0  0  0  0  0
    4.8725    0.2354    0.0000 H   0  0  0  0  0  0  0  0  0  0  0  0
    5.6841    0.4079    0.0000 H   0  0  0  0  0  0  0  0  0  0  0  0
    5.9181    2.6337    0.0000 H   0  0  0  0  0  0  0  0  0  0  0  0
    5.1601    2.9712    0.0000 H   0  0  0  0  0  0  0  0  0  0  0  0
    6.2665    1.0548    0.0000 H   0  0  0  0  0  0  0  0  0  0  0  0
    6.3532    1.8799    0.0000 H   0  0  0  0  0  0  0  0  0  0  0  0
    3.4030    1.2991    0.0000 H   0  0  0  0  0  0  0  0  0  0  0  0
    2.0000    0.8691    0.0000 H   0  0  0  0  0  0  0  0  0  0  0  0
    2.0000   -0.5109    0.0000 H   0  0  0  0  0  0  0  0  0  0  0  0
    4.8059   -0.5109    0.0000 H   0  0  0  0  0  0  0  0  0  0  0  0
    2.0000   -2.1309    0.0000 H   0  0  0  0  0  0  0  0  0  0  0  0
    4.8059   -2.1309    0.0000 H   0  0  0  0  0  0  0  0  0  0  0  0
    2.2269   -3.2840    0.0000 H   0  0  0  0  0  0  0  0  0  0  0  0
    2.0000   -4.1309    0.0000 H   0  0  0  0  0  0  0  0  0  0  0  0
    2.8469   -4.3578    0.0000 H   0  0  0  0  0  0  0  0  0  0  0  0
  1 11  1  0  0  0  0
  1 28  1  0  0  0  0
  2  5  1  0  0  0  0
  3  5  2  0  0  0  0
  4 17  1  0  0  0  0
  4 18  1  0  0  0  0
  5  7  1  0  0  0  0
  6  7  1  0  0  0  0
  6  8  1  0  0  0  0
  6 11  1  0  0  0  0
  6 19  1  0  0  0  0
  7  9  1  0  0  0  0
  7 20  1  0  0  0  0
  8 10  1  0  0  0  0
  8 21  1  0  0  0  0
  8 22  1  0  0  0  0
  9 10  1  0  0  0  0
  9 23  1  0  0  0  0
  9 24  1  0  0  0  0
 10 25  1  0  0  0  0
 10 26  1  0  0  0  0
 11 12  1  0  0  0  0
 11 27  1  0  0  0  0
 12 13  2  0  0  0  0
 12 14  1  0  0  0  0
 13 15  1  0  0  0  0
 13 29  1  0  0  0  0
 14 16  2  0  0  0  0
 14 30  1  0  0  0  0
 15 17  2  0  0  0  0
 15 31  1  0  0  0  0
 16 17  1  0  0  0  0
 16 32  1  0  0  0  0
 18 33  1  0  0  0  0
 18 34  1  0  0  0  0
 18 35  1  0  0  0  0
M  CHG  2   2  -1   5   1
M  END
> <PUBCHEM_COMPOUND_CID>
586342

> <PUBCHEM_COMPOUND_CANONICALIZED>
1

> <PUBCHEM_CACTVS_COMPLEXITY>
283

> <PUBCHEM_CACTVS_HBOND_ACCEPTOR>
4

> <PUBCHEM_CACTVS_HBOND_DONOR>
1

> <PUBCHEM_CACTVS_ROTATABLE_BOND>
3

> <PUBCHEM_CACTVS_SUBSKEYS>
AAADceByOAAAAAAAAAAAAAAAAAAAAYAAAAAwAAAAAAAAAAABAAAAHgAECAAADTzhmAYyBoAQRgCBAiBCAwACCAAgIAAoiAAGCIgMNiKEsRqAcCAmwBEIuAeQ4OwOIAAAAAAAAABAAAAAAAAAAAAAAQAAAA==

> <PUBCHEM_IUPAC_OPENEYE_NAME>
(4-methoxyphenyl)-(2-nitrocyclopentyl)methanol

> <PUBCHEM_IUPAC_CAS_NAME>
(4-methoxyphenyl)-(2-nitrocyclopentyl)methanol

> <PUBCHEM_IUPAC_NAME>
(4-methoxyphenyl)-(2-nitrocyclopentyl)methanol

> <PUBCHEM_IUPAC_SYSTEMATIC_NAME>
(4-methoxyphenyl)-(2-nitrocyclopentyl)methanol

> <PUBCHEM_IUPAC_TRADITIONAL_NAME>
(4-methoxyphenyl)-(2-nitrocyclopentyl)methanol

> <PUBCHEM_IUPAC_INCHI>
InChI=1S/C13H17NO4/c1-18-10-7-5-9(6-8-10)13(15)11-3-2-4-12(11)14(16)17/h5-8,11-13,15H,2-4H2,1H3

> <PUBCHEM_IUPAC_INCHIKEY>
HPZFNJJPQYRTJO-UHFFFAOYSA-N

> <PUBCHEM_XLOGP3_AA>
2

> <PUBCHEM_EXACT_MASS>
251.115758

> <PUBCHEM_MOLECULAR_FORMULA>
C13H17NO4

> <PUBCHEM_MOLECULAR_WEIGHT>
251.27838

> <PUBCHEM_OPENEYE_CAN_SMILES>
COC1=CC=C(C=C1)C(C2CCCC2[N+](=O)[O-])O

> <PUBCHEM_OPENEYE_ISO_SMILES>
COC1=CC=C(C=C1)C(C2CCCC2[N+](=O)[O-])O

> <PUBCHEM_CACTVS_TPSA>
75.3

> <PUBCHEM_MONOISOTOPIC_WEIGHT>
251.115758

> <PUBCHEM_TOTAL_CHARGE>
0

> <PUBCHEM_HEAVY_ATOM_COUNT>
18

> <PUBCHEM_ATOM_DEF_STEREO_COUNT>
0

> <PUBCHEM_ATOM_UDEF_STEREO_COUNT>
3

> <PUBCHEM_BOND_DEF_STEREO_COUNT>
0

> <PUBCHEM_BOND_UDEF_STEREO_COUNT>
0

> <PUBCHEM_ISOTOPIC_ATOM_COUNT>
0

> <PUBCHEM_COMPONENT_COUNT>
1

> <PUBCHEM_CACTVS_TAUTO_COUNT>
2

> <PUBCHEM_COORDINATE_TYPE>
1
5
255

> <PUBCHEM_BONDANNOTATIONS>
11  1  3
12  13  8
12  14  8
13  15  8
14  16  8
15  17  8
16  17  8
7  5  3
6  8  3

$$$$

