14380
  -OEChem-06241222432D

 39 41  0     0  0  0  0  0  0999 V2000
    6.0010   -0.5155    0.0000 S   0  0  0  0  0  0  0  0  0  0  0  0
    6.5010   -1.3815    0.0000 O   0  0  0  0  0  0  0  0  0  0  0  0
    5.5010    0.3505    0.0000 O   0  0  0  0  0  0  0  0  0  0  0  0
    6.8671   -0.0155    0.0000 N   0  0  0  0  0  0  0  0  0  0  0  0
    2.5369   -2.5155    0.0000 N   0  0  0  0  0  0  0  0  0  0  0  0
    9.3158    0.8209    0.0000 C   0  0  0  0  0  0  0  0  0  0  0  0
    9.5746    1.7868    0.0000 C   0  0  0  0  0  0  0  0  0  0  0  0
    8.3380    2.6355    0.0000 C   0  0  0  0  0  0  0  0  0  0  0  0
    9.2040    3.1355    0.0000 C   0  0  0  0  0  0  0  0  0  0  0  0
   11.1477    0.0621    0.0000 C   0  0  0  0  0  0  0  0  0  0  0  0
   11.4065    1.0280    0.0000 C   0  0  0  0  0  0  0  0  0  0  0  0
    7.7806   -0.4222    0.0000 C   0  0  0  0  0  0  0  0  0  0  0  0
    6.9716    0.9790    0.0000 C   0  0  0  0  0  0  0  0  0  0  0  0
    5.1350   -1.0155    0.0000 C   0  0  0  0  0  0  0  0  0  0  0  0
    4.2690   -0.5155    0.0000 C   0  0  0  0  0  0  0  0  0  0  0  0
    5.1350   -2.0155    0.0000 C   0  0  0  0  0  0  0  0  0  0  0  0
    3.4030   -1.0155    0.0000 C   0  0  0  0  0  0  0  0  0  0  0  0
    4.2690   -2.5155    0.0000 C   0  0  0  0  0  0  0  0  0  0  0  0
    3.4030   -2.0155    0.0000 C   0  0  0  0  0  0  0  0  0  0  0  0
    9.5461    1.1675    0.0000 H   0  0  0  0  0  0  0  0  0  0  0  0
    9.4047    0.2073    0.0000 H   0  0  0  0  0  0  0  0  0  0  0  0
    8.0332    3.1754    0.0000 H   0  0  0  0  0  0  0  0  0  0  0  0
    7.7951    2.3360    0.0000 H   0  0  0  0  0  0  0  0  0  0  0  0
    9.7857    3.3500    0.0000 H   0  0  0  0  0  0  0  0  0  0  0  0
    8.9408    3.6968    0.0000 H   0  0  0  0  0  0  0  0  0  0  0  0
   10.9357   -0.5205    0.0000 H   0  0  0  0  0  0  0  0  0  0  0  0
   11.7390   -0.1243    0.0000 H   0  0  0  0  0  0  0  0  0  0  0  0
   11.9978    0.8416    0.0000 H   0  0  0  0  0  0  0  0  0  0  0  0
   11.6186    1.6106    0.0000 H   0  0  0  0  0  0  0  0  0  0  0  0
    7.4429   -0.9422    0.0000 H   0  0  0  0  0  0  0  0  0  0  0  0
    8.2414   -0.8371    0.0000 H   0  0  0  0  0  0  0  0  0  0  0  0
    6.8693    1.5905    0.0000 H   0  0  0  0  0  0  0  0  0  0  0  0
    6.3519    0.9601    0.0000 H   0  0  0  0  0  0  0  0  0  0  0  0
    4.2690    0.1045    0.0000 H   0  0  0  0  0  0  0  0  0  0  0  0
    5.6720   -2.3255    0.0000 H   0  0  0  0  0  0  0  0  0  0  0  0
    2.8660   -0.7055    0.0000 H   0  0  0  0  0  0  0  0  0  0  0  0
    4.2690   -3.1355    0.0000 H   0  0  0  0  0  0  0  0  0  0  0  0
    2.0000   -2.2055    0.0000 H   0  0  0  0  0  0  0  0  0  0  0  0
    2.5369   -3.1355    0.0000 H   0  0  0  0  0  0  0  0  0  0  0  0
  1  2  2  0  0  0  0
  1  3  2  0  0  0  0
  1  4  1  0  0  0  0
  1 14  1  0  0  0  0
  4 12  1  0  0  0  0
  4 13  1  0  0  0  0
  5 19  1  0  0  0  0
  5 38  1  0  0  0  0
  5 39  1  0  0  0  0
  6  8  1  0  0  0  0
  6 10  1  0  0  0  0
  6 12  1  0  0  0  0
  6 21  1  0  0  0  0
  7  9  1  0  0  0  0
  7 11  1  0  0  0  0
  7 13  1  0  0  0  0
  7 20  1  0  0  0  0
  8  9  1  0  0  0  0
  8 22  1  0  0  0  0
  8 23  1  0  0  0  0
  9 24  1  0  0  0  0
  9 25  1  0  0  0  0
 10 11  1  0  0  0  0
 10 26  1  0  0  0  0
 10 27  1  0  0  0  0
 11 28  1  0  0  0  0
 11 29  1  0  0  0  0
 12 30  1  0  0  0  0
 12 31  1  0  0  0  0
 13 32  1  0  0  0  0
 13 33  1  0  0  0  0
 14 15  2  0  0  0  0
 14 16  1  0  0  0  0
 15 17  1  0  0  0  0
 15 34  1  0  0  0  0
 16 18  2  0  0  0  0
 16 35  1  0  0  0  0
 17 19  2  0  0  0  0
 17 36  1  0  0  0  0
 18 19  1  0  0  0  0
 18 37  1  0  0  0  0
M  END
> <PUBCHEM_COMPOUND_CID>
14380

> <PUBCHEM_COMPOUND_CANONICALIZED>
1

> <PUBCHEM_CACTVS_COMPLEXITY>
388

> <PUBCHEM_CACTVS_HBOND_ACCEPTOR>
4

> <PUBCHEM_CACTVS_HBOND_DONOR>
1

> <PUBCHEM_CACTVS_ROTATABLE_BOND>
2

> <PUBCHEM_CACTVS_SUBSKEYS>
AAADceBzMABAAAAAAAAAAAAAAAAAAAAAAAAwYAAABYsAAAABAAAAHAQQQAAADQjBUAQwwYJAAAKAACRCQHDCABAgAgAIiBgIZIgIICKAkZGEIABgkACIyAcQgAAOAAQAAAAAAACACAAAAAAAAAAAAAAAAA==

> <PUBCHEM_IUPAC_OPENEYE_NAME>
4-(3-azabicyclo[3.2.2]nonan-3-ylsulfonyl)aniline

> <PUBCHEM_IUPAC_CAS_NAME>
4-(3-azabicyclo[3.2.2]nonan-3-ylsulfonyl)aniline

> <PUBCHEM_IUPAC_NAME>
4-(3-azabicyclo[3.2.2]nonan-3-ylsulfonyl)aniline

> <PUBCHEM_IUPAC_SYSTEMATIC_NAME>
4-(3-azabicyclo[3.2.2]nonan-3-ylsulfonyl)aniline

> <PUBCHEM_IUPAC_TRADITIONAL_NAME>
[4-(3-azabicyclo[3.2.2]nonan-3-ylsulfonyl)phenyl]amine

> <PUBCHEM_IUPAC_INCHI>
InChI=1S/C14H20N2O2S/c15-13-5-7-14(8-6-13)19(17,18)16-9-11-1-2-12(10-16)4-3-11/h5-8,11-12H,1-4,9-10,15H2

> <PUBCHEM_IUPAC_INCHIKEY>
RQBNXPJPWKUTOG-UHFFFAOYSA-N

> <PUBCHEM_XLOGP3_AA>
1.9

> <PUBCHEM_EXACT_MASS>
280.124549

> <PUBCHEM_MOLECULAR_FORMULA>
C14H20N2O2S

> <PUBCHEM_MOLECULAR_WEIGHT>
280.3858

> <PUBCHEM_OPENEYE_CAN_SMILES>
C1CC2CCC1CN(C2)S(=O)(=O)C3=CC=C(C=C3)N

> <PUBCHEM_OPENEYE_ISO_SMILES>
C1CC2CCC1CN(C2)S(=O)(=O)C3=CC=C(C=C3)N

> <PUBCHEM_CACTVS_TPSA>
71.8

> <PUBCHEM_MONOISOTOPIC_WEIGHT>
280.124549

> <PUBCHEM_TOTAL_CHARGE>
0

> <PUBCHEM_HEAVY_ATOM_COUNT>
19

> <PUBCHEM_ATOM_DEF_STEREO_COUNT>
0

> <PUBCHEM_ATOM_UDEF_STEREO_COUNT>
0

> <PUBCHEM_BOND_DEF_STEREO_COUNT>
0

> <PUBCHEM_BOND_UDEF_STEREO_COUNT>
0

> <PUBCHEM_ISOTOPIC_ATOM_COUNT>
0

> <PUBCHEM_COMPONENT_COUNT>
1

> <PUBCHEM_CACTVS_TAUTO_COUNT>
1

> <PUBCHEM_COORDINATE_TYPE>
1
5
255

> <PUBCHEM_BONDANNOTATIONS>
14  15  8
14  16  8
15  17  8
16  18  8
17  19  8
18  19  8

$$$$

