47205112
  -OEChem-06241222583D

 35 36  0     1  0  0  0  0  0999 V2000
    0.0948   -1.9710    1.2317 O   0  0  0  0  0  0  0  0  0  0  0  0
    0.8369   -1.4214   -0.8986 N   0  0  0  0  0  0  0  0  0  0  0  0
    3.2947    0.5727   -0.9311 N   0  0  0  0  0  0  0  0  0  0  0  0
    3.9399    1.5533   -0.2766 N   0  0  0  0  0  0  0  0  0  0  0  0
   -1.5351   -1.2455   -0.4147 C   0  0  1  0  0  0  0  0  0  0  0  0
   -2.5760   -2.1684    0.2515 C   0  0  0  0  0  0  0  0  0  0  0  0
   -1.8288    0.2296   -0.2009 C   0  0  0  0  0  0  0  0  0  0  0  0
   -0.1277   -1.5856    0.0857 C   0  0  0  0  0  0  0  0  0  0  0  0
   -3.9885   -1.9537   -0.2781 C   0  0  0  0  0  0  0  0  0  0  0  0
    2.2397   -1.6911   -0.6807 C   0  0  0  0  0  0  0  0  0  0  0  0
   -2.4126    0.6592    0.9909 C   0  0  0  0  0  0  0  0  0  0  0  0
   -1.5146    1.1545   -1.1966 C   0  0  0  0  0  0  0  0  0  0  0  0
    2.9657   -0.4916   -0.1439 C   0  0  0  0  0  0  0  0  0  0  0  0
   -2.6824    2.0136    1.1869 C   0  0  0  0  0  0  0  0  0  0  0  0
   -1.7843    2.5089   -1.0007 C   0  0  0  0  0  0  0  0  0  0  0  0
   -2.3683    2.9385    0.1911 C   0  0  0  0  0  0  0  0  0  0  0  0
    3.4282   -0.1861    1.1128 C   0  0  0  0  0  0  0  0  0  0  0  0
    4.0184    1.0841    0.9715 C   0  0  0  0  0  0  0  0  0  0  0  0
   -1.5772   -1.4541   -1.4933 H   0  0  0  0  0  0  0  0  0  0  0  0
   -2.5709   -2.0906    1.3445 H   0  0  0  0  0  0  0  0  0  0  0  0
   -2.2923   -3.2087    0.0406 H   0  0  0  0  0  0  0  0  0  0  0  0
   -4.3963   -0.9769   -0.0066 H   0  0  0  0  0  0  0  0  0  0  0  0
   -4.6588   -2.7135    0.1375 H   0  0  0  0  0  0  0  0  0  0  0  0
   -4.0157   -2.0470   -1.3687 H   0  0  0  0  0  0  0  0  0  0  0  0
    0.5622   -1.0786   -1.8144 H   0  0  0  0  0  0  0  0  0  0  0  0
    2.3396   -2.5313    0.0155 H   0  0  0  0  0  0  0  0  0  0  0  0
    2.6700   -1.9949   -1.6410 H   0  0  0  0  0  0  0  0  0  0  0  0
   -2.6490   -0.0217    1.8013 H   0  0  0  0  0  0  0  0  0  0  0  0
   -1.0600    0.8341   -2.1301 H   0  0  0  0  0  0  0  0  0  0  0  0
   -3.1315    2.3494    2.1170 H   0  0  0  0  0  0  0  0  0  0  0  0
   -1.5394    3.2292   -1.7758 H   0  0  0  0  0  0  0  0  0  0  0  0
   -2.5770    3.9933    0.3443 H   0  0  0  0  0  0  0  0  0  0  0  0
    3.3489   -0.7930    2.0028 H   0  0  0  0  0  0  0  0  0  0  0  0
    3.1096    0.6975   -1.9186 H   0  0  0  0  0  0  0  0  0  0  0  0
    4.5022    1.6874    1.7262 H   0  0  0  0  0  0  0  0  0  0  0  0
  1  8  2  0  0  0  0
  2  8  1  0  0  0  0
  2 10  1  0  0  0  0
  2 25  1  0  0  0  0
  3  4  1  0  0  0  0
  3 13  1  0  0  0  0
  3 34  1  0  0  0  0
  4 18  2  0  0  0  0
  5  6  1  0  0  0  0
  5  7  1  0  0  0  0
  5  8  1  0  0  0  0
  5 19  1  0  0  0  0
  6  9  1  0  0  0  0
  6 20  1  0  0  0  0
  6 21  1  0  0  0  0
  7 11  2  0  0  0  0
  7 12  1  0  0  0  0
  9 22  1  0  0  0  0
  9 23  1  0  0  0  0
  9 24  1  0  0  0  0
 10 13  1  0  0  0  0
 10 26  1  0  0  0  0
 10 27  1  0  0  0  0
 11 14  1  0  0  0  0
 11 28  1  0  0  0  0
 12 15  2  0  0  0  0
 12 29  1  0  0  0  0
 13 17  2  0  0  0  0
 14 16  2  0  0  0  0
 14 30  1  0  0  0  0
 15 16  1  0  0  0  0
 15 31  1  0  0  0  0
 16 32  1  0  0  0  0
 17 18  1  0  0  0  0
 17 33  1  0  0  0  0
 18 35  1  0  0  0  0
M  END
> <PUBCHEM_COMPOUND_CID>
47205112

> <PUBCHEM_CONFORMER_RMSD>
0.8

> <PUBCHEM_CONFORMER_DIVERSEORDER>
1
45
96
119
44
129
104
144
123
10
50
135
5
125
82
98
69
138
122
115
111
48
145
13
94
100
87
116
121
66
74
26
9
3
85
42
23
79
8
39
11
128
41
88
95
83
58
92
71
51
16
49
31
99
126
25
14
24
132
90
142
137
97
120
59
12
65
77
20
76
108
37
133
4
54
43
61
2
114
27
136
7
62
81
55
53
140
86
33
68
75
106
6
131
18
93
40
105
101
103
124
134
112
34
60
57
118
143
117
70
64
46
52
107
15
84
28
72
56
113
32
130
78
35
67
141
30
36
21
110
89
73
17
127
19
47
63
22
91
38
102
109
29
139
146
80

> <PUBCHEM_MMFF94_PARTIAL_CHARGES>
25
1 -0.57
10 0.48
11 -0.15
12 -0.15
13 -0.33
14 -0.15
15 -0.15
16 -0.15
17 -0.15
18 0.14
2 -0.73
25 0.37
28 0.15
29 0.15
3 0.3
30 0.15
31 0.15
32 0.15
33 0.15
34 0.27
35 0.15
4 -0.71
5 0.2
7 -0.14
8 0.57

> <PUBCHEM_EFFECTIVE_ROTOR_COUNT>
6

> <PUBCHEM_PHARMACOPHORE_FEATURES>
7
1 1 acceptor
1 2 donor
1 3 donor
1 4 acceptor
1 9 hydrophobe
5 3 4 13 17 18 rings
6 7 11 12 14 15 16 rings

> <PUBCHEM_HEAVY_ATOM_COUNT>
18

> <PUBCHEM_ATOM_DEF_STEREO_COUNT>
0

> <PUBCHEM_ATOM_UDEF_STEREO_COUNT>
1

> <PUBCHEM_BOND_DEF_STEREO_COUNT>
0

> <PUBCHEM_BOND_UDEF_STEREO_COUNT>
0

> <PUBCHEM_ISOTOPIC_ATOM_COUNT>
0

> <PUBCHEM_COMPONENT_COUNT>
1

> <PUBCHEM_CACTVS_TAUTO_COUNT>
4

> <PUBCHEM_CONFORMER_ID>
02D04AF800000001

> <PUBCHEM_MMFF94_ENERGY>
28.7929

> <PUBCHEM_FEATURE_SELFOVERLAP>
35.52

> <PUBCHEM_SHAPE_FINGERPRINT>
10498660 4 18412546492064219860
10670039 82 18268697334980473684
10764073 3 8500427362563044301
11578080 2 14421177464118820163
11615756 256 18335414703625252460
11715629 250 18187366523759892782
11725454 13 16268004248575664293
11759241 127 18041279850878897206
12173636 292 18114744953281681909
12633257 1 18198068169364821624
128993 33 18340480196501768704
14123250 116 18114465681402115953
14386348 128 18336819905107654408
14957384 54 17701552915896344692
18186145 218 18116709810562043638
18219364 16 18125722532812820748
18981168 100 18042133205008997218
20304884 271 18262237849372594606
20510252 161 18411140199343567899
21524375 3 17909821382069478539
22182937 141 18261389013506093489
22749437 52 18336838588299943976
23227448 37 18335701684718492093
23402539 116 18266188227095468967
23557571 272 18336254657209814079
312423 11 18202279217210805762
350125 39 18337102483685589190
3524813 1 17896887547619017312
7097593 13 17842571900787707450
81228 2 18271229591409757175
9925002 15 17030229267980912703

> <PUBCHEM_SHAPE_MULTIPOLES>
349.62
7.33
3.19
1.2
6.32
0.78
0.09
1.44
0.9
-2.89
-0.04
0.07
0.27
0.08

> <PUBCHEM_SHAPE_SELFOVERLAP>
731.311

> <PUBCHEM_SHAPE_VOLUME>
197.2

> <PUBCHEM_COORDINATE_TYPE>
2
5
10

$$$$

