17396327
  -OEChem-06241222552D

 43 45  0     1  0  0  0  0  0999 V2000
    6.0875    1.7376    0.0000 S   0  0  0  0  0  0  0  0  0  0  0  0
    4.7026    0.6162    0.0000 S   0  0  0  0  0  0  0  0  0  0  0  0
    2.0000   -3.8783    0.0000 F   0  0  0  0  0  0  0  0  0  0  0  0
    6.9010    3.5647    0.0000 O   0  0  0  0  0  0  0  0  0  0  0  0
    8.4833    2.8602    0.0000 N   0  0  0  0  0  0  0  0  0  0  0  0
    6.1808   -0.0419    0.0000 N   0  0  0  0  0  0  0  0  0  0  0  0
    3.7320   -0.8783    0.0000 N   0  0  0  0  0  0  0  0  0  0  0  0
    5.5116   -0.7851    0.0000 N   0  0  0  0  0  0  0  0  0  0  0  0
   10.0656    2.1558    0.0000 C   0  0  3  0  0  0  0  0  0  0  0  0
   10.4723    3.0693    0.0000 C   0  0  0  0  0  0  0  0  0  0  0  0
    9.0710    2.0512    0.0000 C   0  0  0  0  0  0  0  0  0  0  0  0
    9.8845    3.8783    0.0000 C   0  0  0  0  0  0  0  0  0  0  0  0
    8.8900    3.7738    0.0000 C   0  0  0  0  0  0  0  0  0  0  0  0
   10.6534    1.3467    0.0000 C   0  0  0  0  0  0  0  0  0  0  0  0
    7.4888    2.7557    0.0000 C   0  0  0  0  0  0  0  0  0  0  0  0
    7.0820    1.8422    0.0000 C   0  0  0  0  0  0  0  0  0  0  0  0
    5.6808    0.8241    0.0000 C   0  0  0  0  0  0  0  0  0  0  0  0
    4.5981   -0.3783    0.0000 C   0  0  0  0  0  0  0  0  0  0  0  0
    3.7320   -1.8783    0.0000 C   0  0  0  0  0  0  0  0  0  0  0  0
    2.8660   -2.3783    0.0000 C   0  0  0  0  0  0  0  0  0  0  0  0
    4.5981   -2.3783    0.0000 C   0  0  0  0  0  0  0  0  0  0  0  0
    2.8660   -3.3783    0.0000 C   0  0  0  0  0  0  0  0  0  0  0  0
    4.5981   -3.3783    0.0000 C   0  0  0  0  0  0  0  0  0  0  0  0
    3.7320   -3.8783    0.0000 C   0  0  0  0  0  0  0  0  0  0  0  0
   10.6822    2.2206    0.0000 H   0  0  0  0  0  0  0  0  0  0  0  0
   10.9863    2.7226    0.0000 H   0  0  0  0  0  0  0  0  0  0  0  0
   10.9030    3.5153    0.0000 H   0  0  0  0  0  0  0  0  0  0  0  0
    8.5138    1.7794    0.0000 H   0  0  0  0  0  0  0  0  0  0  0  0
    9.2419    1.4552    0.0000 H   0  0  0  0  0  0  0  0  0  0  0  0
   10.4418    4.1501    0.0000 H   0  0  0  0  0  0  0  0  0  0  0  0
    9.7136    4.4743    0.0000 H   0  0  0  0  0  0  0  0  0  0  0  0
    8.9333    4.3923    0.0000 H   0  0  0  0  0  0  0  0  0  0  0  0
    8.2884    3.9238    0.0000 H   0  0  0  0  0  0  0  0  0  0  0  0
   10.1518    0.9823    0.0000 H   0  0  0  0  0  0  0  0  0  0  0  0
   11.0178    0.8452    0.0000 H   0  0  0  0  0  0  0  0  0  0  0  0
   11.1550    1.7112    0.0000 H   0  0  0  0  0  0  0  0  0  0  0  0
    7.0388    1.2237    0.0000 H   0  0  0  0  0  0  0  0  0  0  0  0
    7.6836    1.6922    0.0000 H   0  0  0  0  0  0  0  0  0  0  0  0
    3.1951   -0.5683    0.0000 H   0  0  0  0  0  0  0  0  0  0  0  0
    2.3291   -2.0683    0.0000 H   0  0  0  0  0  0  0  0  0  0  0  0
    5.1350   -2.0683    0.0000 H   0  0  0  0  0  0  0  0  0  0  0  0
    5.1350   -3.6883    0.0000 H   0  0  0  0  0  0  0  0  0  0  0  0
    3.7320   -4.4983    0.0000 H   0  0  0  0  0  0  0  0  0  0  0  0
  1 16  1  0  0  0  0
  1 17  1  0  0  0  0
  2 17  1  0  0  0  0
  2 18  1  0  0  0  0
  3 22  1  0  0  0  0
  4 15  2  0  0  0  0
  5 11  1  0  0  0  0
  5 13  1  0  0  0  0
  5 15  1  0  0  0  0
  6  8  1  0  0  0  0
  6 17  2  0  0  0  0
  7 18  1  0  0  0  0
  7 19  1  0  0  0  0
  7 39  1  0  0  0  0
  8 18  2  0  0  0  0
  9 10  1  0  0  0  0
  9 11  1  0  0  0  0
  9 14  1  0  0  0  0
  9 25  1  0  0  0  0
 10 12  1  0  0  0  0
 10 26  1  0  0  0  0
 10 27  1  0  0  0  0
 11 28  1  0  0  0  0
 11 29  1  0  0  0  0
 12 13  1  0  0  0  0
 12 30  1  0  0  0  0
 12 31  1  0  0  0  0
 13 32  1  0  0  0  0
 13 33  1  0  0  0  0
 14 34  1  0  0  0  0
 14 35  1  0  0  0  0
 14 36  1  0  0  0  0
 15 16  1  0  0  0  0
 16 37  1  0  0  0  0
 16 38  1  0  0  0  0
 19 20  2  0  0  0  0
 19 21  1  0  0  0  0
 20 22  1  0  0  0  0
 20 40  1  0  0  0  0
 21 23  2  0  0  0  0
 21 41  1  0  0  0  0
 22 24  2  0  0  0  0
 23 24  1  0  0  0  0
 23 42  1  0  0  0  0
 24 43  1  0  0  0  0
M  END
> <PUBCHEM_COMPOUND_CID>
17396327

> <PUBCHEM_COMPOUND_CANONICALIZED>
1

> <PUBCHEM_CACTVS_COMPLEXITY>
431

> <PUBCHEM_CACTVS_HBOND_ACCEPTOR>
7

> <PUBCHEM_CACTVS_HBOND_DONOR>
1

> <PUBCHEM_CACTVS_ROTATABLE_BOND>
5

> <PUBCHEM_CACTVS_SUBSKEYS>
AAADceB7oQBgAAAAAAAAAAAAAAAAAWAAAAA8QAAAAAAAAAABwAAAHwQYAAAADQjF0Ayz0IPAAAiuACVScACSAQJhAhkNiAAIZIiIICLAmZGEIAhwlgLIyCcQAAAMAAAAAAAAAAAAAAAAAAAAAAAAAAAAAA==

> <PUBCHEM_IUPAC_OPENEYE_NAME>
2-[[5-(3-fluoroanilino)-1,3,4-thiadiazol-2-yl]sulfanyl]-1-(3-methyl-1-piperidyl)ethanone

> <PUBCHEM_IUPAC_CAS_NAME>
2-[[5-(3-fluoroanilino)-1,3,4-thiadiazol-2-yl]thio]-1-(3-methyl-1-piperidinyl)ethanone

> <PUBCHEM_IUPAC_NAME>
2-[[5-(3-fluoroanilino)-1,3,4-thiadiazol-2-yl]sulfanyl]-1-(3-methylpiperidin-1-yl)ethanone

> <PUBCHEM_IUPAC_SYSTEMATIC_NAME>
2-[[5-[(3-fluorophenyl)amino]-1,3,4-thiadiazol-2-yl]sulfanyl]-1-(3-methylpiperidin-1-yl)ethanone

> <PUBCHEM_IUPAC_TRADITIONAL_NAME>
2-[[5-(3-fluoroanilino)-1,3,4-thiadiazol-2-yl]thio]-1-(3-methylpiperidino)ethanone

> <PUBCHEM_IUPAC_INCHI>
InChI=1S/C16H19FN4OS2/c1-11-4-3-7-21(9-11)14(22)10-23-16-20-19-15(24-16)18-13-6-2-5-12(17)8-13/h2,5-6,8,11H,3-4,7,9-10H2,1H3,(H,18,19)

> <PUBCHEM_IUPAC_INCHIKEY>
CJMXRISQCRLEHA-UHFFFAOYSA-N

> <PUBCHEM_XLOGP3_AA>
4

> <PUBCHEM_EXACT_MASS>
366.098431

> <PUBCHEM_MOLECULAR_FORMULA>
C16H19FN4OS2

> <PUBCHEM_MOLECULAR_WEIGHT>
366.476663

> <PUBCHEM_OPENEYE_CAN_SMILES>
CC1CCCN(C1)C(=O)CSC2=NN=C(S2)NC3=CC(=CC=C3)F

> <PUBCHEM_OPENEYE_ISO_SMILES>
CC1CCCN(C1)C(=O)CSC2=NN=C(S2)NC3=CC(=CC=C3)F

> <PUBCHEM_CACTVS_TPSA>
112

> <PUBCHEM_MONOISOTOPIC_WEIGHT>
366.098431

> <PUBCHEM_TOTAL_CHARGE>
0

> <PUBCHEM_HEAVY_ATOM_COUNT>
24

> <PUBCHEM_ATOM_DEF_STEREO_COUNT>
0

> <PUBCHEM_ATOM_UDEF_STEREO_COUNT>
1

> <PUBCHEM_BOND_DEF_STEREO_COUNT>
0

> <PUBCHEM_BOND_UDEF_STEREO_COUNT>
0

> <PUBCHEM_ISOTOPIC_ATOM_COUNT>
0

> <PUBCHEM_COMPONENT_COUNT>
1

> <PUBCHEM_CACTVS_TAUTO_COUNT>
2

> <PUBCHEM_COORDINATE_TYPE>
1
5
255

> <PUBCHEM_BONDANNOTATIONS>
19  20  8
19  21  8
2  17  8
2  18  8
20  22  8
21  23  8
22  24  8
23  24  8
6  17  8
6  8  8
8  18  8
9  14  3

$$$$

