13553
  -OEChem-06241222393D

 20 19  0     0  0  0  0  0  0999 V2000
   -0.7813   -0.4546    0.0003 O   0  0  0  0  0  0  0  0  0  0  0  0
   -2.1897    1.2534    0.0063 O   0  5  0  0  0  0  0  0  0  0  0  0
   -3.0264   -0.8133    0.0001 O   0  0  0  0  0  0  0  0  0  0  0  0
   -2.1209    0.0237    0.0023 N   0  3  0  0  0  0  0  0  0  0  0  0
    1.6199    0.0015    0.0011 C   0  0  0  0  0  0  0  0  0  0  0  0
    0.1917    0.5823    0.0034 C   0  0  0  0  0  0  0  0  0  0  0  0
    2.6570    1.1372    0.0054 C   0  0  0  0  0  0  0  0  0  0  0  0
    1.8100   -0.8522   -1.2627 C   0  0  0  0  0  0  0  0  0  0  0  0
    1.8396   -0.8780    1.2436 C   0  0  0  0  0  0  0  0  0  0  0  0
    0.0657    1.2140   -0.8865 H   0  0  0  0  0  0  0  0  0  0  0  0
    0.0679    1.2038    0.9008 H   0  0  0  0  0  0  0  0  0  0  0  0
    2.5394    1.7819   -0.8727 H   0  0  0  0  0  0  0  0  0  0  0  0
    3.6792    0.7426   -0.0050 H   0  0  0  0  0  0  0  0  0  0  0  0
    2.5500    1.7653    0.8969 H   0  0  0  0  0  0  0  0  0  0  0  0
    1.6409   -0.2604   -2.1694 H   0  0  0  0  0  0  0  0  0  0  0  0
    2.8282   -1.2545   -1.3155 H   0  0  0  0  0  0  0  0  0  0  0  0
    1.1212   -1.7037   -1.2850 H   0  0  0  0  0  0  0  0  0  0  0  0
    1.6869   -0.3040    2.1644 H   0  0  0  0  0  0  0  0  0  0  0  0
    2.8589   -1.2801    1.2670 H   0  0  0  0  0  0  0  0  0  0  0  0
    1.1505   -1.7294    1.2626 H   0  0  0  0  0  0  0  0  0  0  0  0
  1  4  1  0  0  0  0
  1  6  1  0  0  0  0
  2  4  1  0  0  0  0
  3  4  2  0  0  0  0
  5  6  1  0  0  0  0
  5  7  1  0  0  0  0
  5  8  1  0  0  0  0
  5  9  1  0  0  0  0
  6 10  1  0  0  0  0
  6 11  1  0  0  0  0
  7 12  1  0  0  0  0
  7 13  1  0  0  0  0
  7 14  1  0  0  0  0
  8 15  1  0  0  0  0
  8 16  1  0  0  0  0
  8 17  1  0  0  0  0
  9 18  1  0  0  0  0
  9 19  1  0  0  0  0
  9 20  1  0  0  0  0
M  CHG  2   2  -1   4   1
M  END
> <PUBCHEM_COMPOUND_CID>
13553

> <PUBCHEM_CONFORMER_RMSD>
0.6

> <PUBCHEM_CONFORMER_DIVERSEORDER>
1
2

> <PUBCHEM_MMFF94_PARTIAL_CHARGES>
5
1 -0.27
2 -0.52
3 -0.52
4 1.03
6 0.28

> <PUBCHEM_EFFECTIVE_ROTOR_COUNT>
3

> <PUBCHEM_PHARMACOPHORE_FEATURES>
3
1 2 acceptor
1 3 acceptor
4 5 7 8 9 hydrophobe

> <PUBCHEM_HEAVY_ATOM_COUNT>
9

> <PUBCHEM_ATOM_DEF_STEREO_COUNT>
0

> <PUBCHEM_ATOM_UDEF_STEREO_COUNT>
0

> <PUBCHEM_BOND_DEF_STEREO_COUNT>
0

> <PUBCHEM_BOND_UDEF_STEREO_COUNT>
0

> <PUBCHEM_ISOTOPIC_ATOM_COUNT>
0

> <PUBCHEM_COMPONENT_COUNT>
1

> <PUBCHEM_CACTVS_TAUTO_COUNT>
1

> <PUBCHEM_CONFORMER_ID>
000034F100000001

> <PUBCHEM_MMFF94_ENERGY>
23.0616

> <PUBCHEM_FEATURE_SELFOVERLAP>
15.293

> <PUBCHEM_SHAPE_FINGERPRINT>
10857977 72 18113626651066464979
12897270 3 18113893845150562676
12932764 1 18059569243412277573
14390081 3 18412825767790873264
170605 34 18339078177584708820
19973954 147 18187921832613274481
21040471 1 17489014981826836834
23552423 10 18337948003789722399
24536 1 18041002902860870104
29004967 10 17458627834567111474
3248919 1 18041285455990403601
5084963 1 17748820851727533862
5460574 1 9295296040340776705
8030462 33 17774999115636201359

> <PUBCHEM_SHAPE_MULTIPOLES>
162.63
4.32
1.19
0.97
2.85
0.17
0.01
0.14
-0.02
-0.21
-0.01
-0.71
-0.34
-0.01

> <PUBCHEM_SHAPE_SELFOVERLAP>
299.997

> <PUBCHEM_SHAPE_VOLUME>
104.9

> <PUBCHEM_COORDINATE_TYPE>
2
5
10

$$$$

