13617
  -OEChem-06241222392D

 22 22  0     0  0  0  0  0  0999 V2000
    2.2929    1.2071    0.0000 O   0  0  0  0  0  0  0  0  0  0  0  0
    4.7071   -1.2071    0.0000 O   0  0  0  0  0  0  0  0  0  0  0  0
    4.0000    0.5000    0.0000 C   0  0  0  0  0  0  0  0  0  0  0  0
    3.0000   -0.5000    0.0000 C   0  0  0  0  0  0  0  0  0  0  0  0
    4.0000   -0.5000    0.0000 C   0  0  0  0  0  0  0  0  0  0  0  0
    3.0000    0.5000    0.0000 C   0  0  0  0  0  0  0  0  0  0  0  0
    5.0000    0.5000    0.0000 C   0  0  0  0  0  0  0  0  0  0  0  0
    4.0000    1.5000    0.0000 C   0  0  0  0  0  0  0  0  0  0  0  0
    2.0000   -0.5000    0.0000 C   0  0  0  0  0  0  0  0  0  0  0  0
    3.0000   -1.5000    0.0000 C   0  0  0  0  0  0  0  0  0  0  0  0
    2.3800   -1.5000    0.0000 H   0  0  0  0  0  0  0  0  0  0  0  0
    3.0000   -2.1200    0.0000 H   0  0  0  0  0  0  0  0  0  0  0  0
    3.6200   -1.5000    0.0000 H   0  0  0  0  0  0  0  0  0  0  0  0
    2.0000    0.1200    0.0000 H   0  0  0  0  0  0  0  0  0  0  0  0
    1.3800   -0.5000    0.0000 H   0  0  0  0  0  0  0  0  0  0  0  0
    2.0000   -1.1200    0.0000 H   0  0  0  0  0  0  0  0  0  0  0  0
    4.6200    1.5000    0.0000 H   0  0  0  0  0  0  0  0  0  0  0  0
    4.0000    2.1200    0.0000 H   0  0  0  0  0  0  0  0  0  0  0  0
    3.3800    1.5000    0.0000 H   0  0  0  0  0  0  0  0  0  0  0  0
    5.0000   -0.1200    0.0000 H   0  0  0  0  0  0  0  0  0  0  0  0
    5.6200    0.5000    0.0000 H   0  0  0  0  0  0  0  0  0  0  0  0
    5.0000    1.1200    0.0000 H   0  0  0  0  0  0  0  0  0  0  0  0
  1  6  2  0  0  0  0
  2  5  2  0  0  0  0
  3  5  1  0  0  0  0
  3  6  1  0  0  0  0
  3  7  1  0  0  0  0
  3  8  1  0  0  0  0
  4  5  1  0  0  0  0
  4  6  1  0  0  0  0
  4  9  1  0  0  0  0
  4 10  1  0  0  0  0
  7 20  1  0  0  0  0
  7 21  1  0  0  0  0
  7 22  1  0  0  0  0
  8 17  1  0  0  0  0
  8 18  1  0  0  0  0
  8 19  1  0  0  0  0
  9 14  1  0  0  0  0
  9 15  1  0  0  0  0
  9 16  1  0  0  0  0
 10 11  1  0  0  0  0
 10 12  1  0  0  0  0
 10 13  1  0  0  0  0
M  END
> <PUBCHEM_COMPOUND_CID>
13617

> <PUBCHEM_COMPOUND_CANONICALIZED>
1

> <PUBCHEM_CACTVS_COMPLEXITY>
167

> <PUBCHEM_CACTVS_HBOND_ACCEPTOR>
2

> <PUBCHEM_CACTVS_HBOND_DONOR>
0

> <PUBCHEM_CACTVS_ROTATABLE_BOND>
0

> <PUBCHEM_CACTVS_SUBSKEYS>
AAADccBwMAAAAAAAAAAAAAAAAABgAAAAAAAAAAAAAAAAAAAAAAAAGgAAAAAADgSAgAACAAAAAAAIAIAQAAAAAAAAAAAAAAEAAAAAABIIAAAAAAAAAAAAAAAIAAANAAAAAAAAAAAAAAAAAAAAAAAAAAAAAA==

> <PUBCHEM_IUPAC_OPENEYE_NAME>
2,2,4,4-tetramethylcyclobutane-1,3-dione

> <PUBCHEM_IUPAC_CAS_NAME>
2,2,4,4-tetramethylcyclobutane-1,3-dione

> <PUBCHEM_IUPAC_NAME>
2,2,4,4-tetramethylcyclobutane-1,3-dione

> <PUBCHEM_IUPAC_SYSTEMATIC_NAME>
2,2,4,4-tetramethylcyclobutane-1,3-dione

> <PUBCHEM_IUPAC_TRADITIONAL_NAME>
2,2,4,4-tetramethylcyclobutane-1,3-quinone

> <PUBCHEM_IUPAC_INCHI>
InChI=1S/C8H12O2/c1-7(2)5(9)8(3,4)6(7)10/h1-4H3

> <PUBCHEM_IUPAC_INCHIKEY>
RGCDVHNITQEYPO-UHFFFAOYSA-N

> <PUBCHEM_XLOGP3_AA>
1.7

> <PUBCHEM_EXACT_MASS>
140.08373

> <PUBCHEM_MOLECULAR_FORMULA>
C8H12O2

> <PUBCHEM_MOLECULAR_WEIGHT>
140.17968

> <PUBCHEM_OPENEYE_CAN_SMILES>
CC1(C(=O)C(C1=O)(C)C)C

> <PUBCHEM_OPENEYE_ISO_SMILES>
CC1(C(=O)C(C1=O)(C)C)C

> <PUBCHEM_CACTVS_TPSA>
34.1

> <PUBCHEM_MONOISOTOPIC_WEIGHT>
140.08373

> <PUBCHEM_TOTAL_CHARGE>
0

> <PUBCHEM_HEAVY_ATOM_COUNT>
10

> <PUBCHEM_ATOM_DEF_STEREO_COUNT>
0

> <PUBCHEM_ATOM_UDEF_STEREO_COUNT>
0

> <PUBCHEM_BOND_DEF_STEREO_COUNT>
0

> <PUBCHEM_BOND_UDEF_STEREO_COUNT>
0

> <PUBCHEM_ISOTOPIC_ATOM_COUNT>
0

> <PUBCHEM_COMPONENT_COUNT>
1

> <PUBCHEM_CACTVS_TAUTO_COUNT>
1

> <PUBCHEM_COORDINATE_TYPE>
1
5
255

$$$$

